51090889
  -OEChem-06241223003D

 49 51  0     0  0  0  0  0  0999 V2000
   -0.5713   -2.5725   -0.2840 O   0  0  0  0  0  0  0  0  0  0  0  0
   -2.4799   -0.9787   -0.7389 O   0  0  0  0  0  0  0  0  0  0  0  0
    4.8419    0.3437   -0.1469 N   0  0  0  0  0  0  0  0  0  0  0  0
    0.8985   -0.9954    0.5823 N   0  0  0  0  0  0  0  0  0  0  0  0
   -8.5626    1.7169    0.4354 N   0  0  0  0  0  0  0  0  0  0  0  0
    3.6536   -0.1063    0.5778 C   0  0  0  0  0  0  0  0  0  0  0  0
    3.2635   -1.5188    0.1237 C   0  0  0  0  0  0  0  0  0  0  0  0
    2.4939    0.8709    0.3459 C   0  0  0  0  0  0  0  0  0  0  0  0
    5.1753    1.7269    0.2213 C   0  0  0  0  0  0  0  0  0  0  0  0
    5.9721   -0.5607    0.1071 C   0  0  0  0  0  0  0  0  0  0  0  0
    1.9696   -1.9704    0.7985 C   0  0  0  0  0  0  0  0  0  0  0  0
    1.2139    0.3714    1.0159 C   0  0  0  0  0  0  0  0  0  0  0  0
    6.3870    2.2301   -0.5644 C   0  0  0  0  0  0  0  0  0  0  0  0
    7.2100   -0.1323   -0.6825 C   0  0  0  0  0  0  0  0  0  0  0  0
    7.5897    1.3122   -0.3773 C   0  0  0  0  0  0  0  0  0  0  0  0
   -0.3176   -1.4094    0.0397 C   0  0  0  0  0  0  0  0  0  0  0  0
   -1.3681   -0.3451   -0.1541 C   0  0  0  0  0  0  0  0  0  0  0  0
   -3.7197   -0.4294   -0.4985 C   0  0  0  0  0  0  0  0  0  0  0  0
   -3.8441    0.9431   -0.2827 C   0  0  0  0  0  0  0  0  0  0  0  0
   -4.8508   -1.2453   -0.4713 C   0  0  0  0  0  0  0  0  0  0  0  0
   -5.0998    1.4997   -0.0399 C   0  0  0  0  0  0  0  0  0  0  0  0
   -6.1064   -0.6885   -0.2285 C   0  0  0  0  0  0  0  0  0  0  0  0
   -6.2310    0.6839   -0.0130 C   0  0  0  0  0  0  0  0  0  0  0  0
   -7.5175    1.2540    0.2345 C   0  0  0  0  0  0  0  0  0  0  0  0
    3.8625   -0.1360    1.6574 H   0  0  0  0  0  0  0  0  0  0  0  0
    3.1313   -1.5438   -0.9660 H   0  0  0  0  0  0  0  0  0  0  0  0
    2.3123    1.0013   -0.7290 H   0  0  0  0  0  0  0  0  0  0  0  0
    2.6835    1.8568    0.7809 H   0  0  0  0  0  0  0  0  0  0  0  0
    4.0165   -2.2672    0.3866 H   0  0  0  0  0  0  0  0  0  0  0  0
    5.7674   -1.5802   -0.2294 H   0  0  0  0  0  0  0  0  0  0  0  0
    6.2120   -0.6030    1.1776 H   0  0  0  0  0  0  0  0  0  0  0  0
    5.3658    1.8170    1.2986 H   0  0  0  0  0  0  0  0  0  0  0  0
    4.3788    2.4277   -0.0420 H   0  0  0  0  0  0  0  0  0  0  0  0
    1.6808   -2.9563    0.4204 H   0  0  0  0  0  0  0  0  0  0  0  0
    2.1125   -2.0642    1.8817 H   0  0  0  0  0  0  0  0  0  0  0  0
    1.3387    0.3428    2.1051 H   0  0  0  0  0  0  0  0  0  0  0  0
    0.4000    1.0671    0.8045 H   0  0  0  0  0  0  0  0  0  0  0  0
    6.1363    2.2891   -1.6313 H   0  0  0  0  0  0  0  0  0  0  0  0
    6.6444    3.2450   -0.2403 H   0  0  0  0  0  0  0  0  0  0  0  0
    8.0508   -0.7929   -0.4419 H   0  0  0  0  0  0  0  0  0  0  0  0
    7.0166   -0.2393   -1.7576 H   0  0  0  0  0  0  0  0  0  0  0  0
    7.9488    1.3856    0.6566 H   0  0  0  0  0  0  0  0  0  0  0  0
    8.4116    1.6310   -1.0276 H   0  0  0  0  0  0  0  0  0  0  0  0
   -1.6056    0.0665    0.8344 H   0  0  0  0  0  0  0  0  0  0  0  0
   -0.9860    0.4245   -0.8325 H   0  0  0  0  0  0  0  0  0  0  0  0
   -2.9906    1.6135   -0.3189 H   0  0  0  0  0  0  0  0  0  0  0  0
   -4.7592   -2.3149   -0.6386 H   0  0  0  0  0  0  0  0  0  0  0  0
   -5.1821    2.5720    0.1213 H   0  0  0  0  0  0  0  0  0  0  0  0
   -6.9788   -1.3375   -0.2106 H   0  0  0  0  0  0  0  0  0  0  0  0
  1 16  2  0  0  0  0
  2 17  1  0  0  0  0
  2 18  1  0  0  0  0
  3  6  1  0  0  0  0
  3  9  1  0  0  0  0
  3 10  1  0  0  0  0
  4 11  1  0  0  0  0
  4 12  1  0  0  0  0
  4 16  1  0  0  0  0
  5 24  3  0  0  0  0
  6  7  1  0  0  0  0
  6  8  1  0  0  0  0
  6 25  1  0  0  0  0
  7 11  1  0  0  0  0
  7 26  1  0  0  0  0
  7 29  1  0  0  0  0
  8 12  1  0  0  0  0
  8 27  1  0  0  0  0
  8 28  1  0  0  0  0
  9 13  1  0  0  0  0
  9 32  1  0  0  0  0
  9 33  1  0  0  0  0
 10 14  1  0  0  0  0
 10 30  1  0  0  0  0
 10 31  1  0  0  0  0
 11 34  1  0  0  0  0
 11 35  1  0  0  0  0
 12 36  1  0  0  0  0
 12 37  1  0  0  0  0
 13 15  1  0  0  0  0
 13 38  1  0  0  0  0
 13 39  1  0  0  0  0
 14 15  1  0  0  0  0
 14 40  1  0  0  0  0
 14 41  1  0  0  0  0
 15 42  1  0  0  0  0
 15 43  1  0  0  0  0
 16 17  1  0  0  0  0
 17 44  1  0  0  0  0
 17 45  1  0  0  0  0
 18 19  2  0  0  0  0
 18 20  1  0  0  0  0
 19 21  1  0  0  0  0
 19 46  1  0  0  0  0
 20 22  2  0  0  0  0
 20 47  1  0  0  0  0
 21 23  2  0  0  0  0
 21 48  1  0  0  0  0
 22 23  1  0  0  0  0
 22 49  1  0  0  0  0
 23 24  1  0  0  0  0
M  END
> <PUBCHEM_COMPOUND_CID>
51090889

> <PUBCHEM_CONFORMER_RMSD>
0.8

> <PUBCHEM_CONFORMER_DIVERSEORDER>
1
158
147
117
57
75
102
156
84
166
151
115
114
50
18
66
177
145
40
11
155
184
69
83
26
36
127
64
138
178
173
162
154
14
175
106
54
31
105
60
180
86
82
119
7
45
181
113
5
68
174
9
137
123
129
3
96
134
88
87
168
28
92
148
130
144
59
42
95
76
4
85
146
35
20
186
89
142
140
47
171
25
39
13
170
80
38
160
91
23
55
135
61
34
143
159
161
153
112
98
56
58
44
131
101
10
122
33
183
67
71
24
179
99
19
165
46
164
111
65
90
133
53
152
8
139
43
132
37
81
108
32
109
176
125
182
79
49
12
2
74
157
48
110
51
107
41
118
187
141
16
63
128
17
163
93
100
126
22
72
121
116
27
136
150
30
120
73
29
185
104
94
6
21
124
167
52
172
62
15
149
103
77
169
70
78
97

> <PUBCHEM_MMFF94_PARTIAL_CHARGES>
23
1 -0.57
10 0.27
11 0.3
12 0.3
16 0.57
17 0.34
18 0.08
19 -0.15
2 -0.36
20 -0.15
21 -0.15
22 -0.15
23 0.07
24 0.48
3 -0.81
4 -0.66
46 0.15
47 0.15
48 0.15
49 0.15
5 -0.56
6 0.27
9 0.27

> <PUBCHEM_EFFECTIVE_ROTOR_COUNT>
7.4

> <PUBCHEM_PHARMACOPHORE_FEATURES>
7
1 1 acceptor
1 2 acceptor
1 3 cation
1 5 acceptor
6 18 19 20 21 22 23 rings
6 3 9 10 13 14 15 rings
6 4 6 7 8 11 12 rings

> <PUBCHEM_HEAVY_ATOM_COUNT>
24

> <PUBCHEM_ATOM_DEF_STEREO_COUNT>
0

> <PUBCHEM_ATOM_UDEF_STEREO_COUNT>
0

> <PUBCHEM_BOND_DEF_STEREO_COUNT>
0

> <PUBCHEM_BOND_UDEF_STEREO_COUNT>
0

> <PUBCHEM_ISOTOPIC_ATOM_COUNT>
0

> <PUBCHEM_COMPONENT_COUNT>
1

> <PUBCHEM_CACTVS_TAUTO_COUNT>
1

> <PUBCHEM_CONFORMER_ID>
030B95C900000001

> <PUBCHEM_MMFF94_ENERGY>
46.8374

> <PUBCHEM_FEATURE_SELFOVERLAP>
35.537

> <PUBCHEM_SHAPE_FINGERPRINT>
10 15 17989205962928827961
10299344 5 18409167714195961709
10411042 1 17836933674613853802
106641 1 11312054332263461926
10670039 82 16370720470365723633
10730089 173 18333450941361084681
11135609 127 17604440596447551320
11646440 116 16415480445970665804
11796584 16 14418141690543653318
12236239 1 18409732850182274119
12516196 113 11384114150213890255
13668630 136 5761647092762279373
13685833 64 8358259246022704412
14251752 14 18113618984723940746
14251757 52 18413390942595369936
14251764 18 18412830179170419347
14849402 71 18201152144445965613
14933364 13 18411699885116420029
15183329 4 17385720300919059370
15461852 350 17822017485185136365
15690457 1 9871745780438068393
15706992 2 15267050425727022508
15716309 27 10807935959619138464
1577012 14 18411426111338038831
15778101 99 18410292489201408215
15840311 113 18272647948371641204
15961568 22 18343020016764490349
16989713 51 17314521331791569703
18335252 114 18409174311577205380
18608769 82 18339921494524470819
19611394 137 17915728783494615091
20281389 69 17989492930894397052
20526848 3 18411135835830829397
20621476 66 18411136917988410806
20735858 18 13254796841195633816
21095123 293 17846492630308645972
21304304 249 9151172060657270504
21585482 111 18268710696592582653
21781055 127 16951120815481220851
22224240 67 16343984697847351355
22956985 138 11670131270169252592
23559900 14 9366474008862297415
23576562 1 17169007586315472493
3004659 81 18408041815191134178
3009799 131 17167864132802762866
3014063 24 8862947173478680256
3711267 37 18335971035098154105
4073 2 18201997712180172891
4340502 62 16486976210730549706
465052 167 9871753503337457802
5104073 3 14044921350234399453
5385378 56 17917717924604613506
559249 180 9295293842140369495
5718773 13 8862944974450188901
5758199 1 18060700589290230987
6328613 192 18410011022318409193
6438161 24 8862937269531989501
9689198 14 18342171167964723689
9953998 17 16988839472136004073

> <PUBCHEM_SHAPE_MULTIPOLES>
467.23
24.37
2.14
0.8
9.9
0.15
0.04
-14.76
-2.31
-0.5
-0.01
-0.24
0.03
-1.09

> <PUBCHEM_SHAPE_SELFOVERLAP>
974.178

> <PUBCHEM_SHAPE_VOLUME>
261

> <PUBCHEM_COORDINATE_TYPE>
2
5
10

$$$$

