3698120
  -OEChem-07051213072D

 23 24  0     0  0  0  0  0  0999 V2000
    3.7320    0.7500    0.0000 S   0  0  0  0  0  0  0  0  0  0  0  0
    5.5443   -0.4453    0.0000 N   0  0  0  0  0  0  0  0  0  0  0  0
    2.8660   -0.7500    0.0000 N   0  0  0  0  0  0  0  0  0  0  0  0
    5.5443   -2.0547    0.0000 N   0  0  0  0  0  0  0  0  0  0  0  0
    3.7320   -2.2500    0.0000 N   0  0  0  0  0  0  0  0  0  0  0  0
    2.8660    1.2500    0.0000 C   0  0  0  0  0  0  0  0  0  0  0  0
    4.5981   -0.7500    0.0000 C   0  0  0  0  0  0  0  0  0  0  0  0
    3.7320   -0.2500    0.0000 C   0  0  0  0  0  0  0  0  0  0  0  0
    2.8660    2.2500    0.0000 C   0  0  0  0  0  0  0  0  0  0  0  0
    2.0000    0.7500    0.0000 C   0  0  0  0  0  0  0  0  0  0  0  0
    4.5981   -1.7500    0.0000 C   0  0  0  0  0  0  0  0  0  0  0  0
    6.1279   -1.2500    0.0000 C   0  0  0  0  0  0  0  0  0  0  0  0
    2.8660   -1.7500    0.0000 C   0  0  0  0  0  0  0  0  0  0  0  0
    2.8660    0.6300    0.0000 H   0  0  0  0  0  0  0  0  0  0  0  0
    1.6900    1.2869    0.0000 H   0  0  0  0  0  0  0  0  0  0  0  0
    1.4631    0.4400    0.0000 H   0  0  0  0  0  0  0  0  0  0  0  0
    3.4860    2.2500    0.0000 H   0  0  0  0  0  0  0  0  0  0  0  0
    2.8660    2.8700    0.0000 H   0  0  0  0  0  0  0  0  0  0  0  0
    2.2460    2.2500    0.0000 H   0  0  0  0  0  0  0  0  0  0  0  0
    2.3100    0.2131    0.0000 H   0  0  0  0  0  0  0  0  0  0  0  0
    5.7369    0.1441    0.0000 H   0  0  0  0  0  0  0  0  0  0  0  0
    6.7479   -1.2500    0.0000 H   0  0  0  0  0  0  0  0  0  0  0  0
    2.3291   -2.0600    0.0000 H   0  0  0  0  0  0  0  0  0  0  0  0
  1  6  1  0  0  0  0
  1  8  1  0  0  0  0
  2  7  1  0  0  0  0
  2 12  1  0  0  0  0
  2 21  1  0  0  0  0
  3  8  2  0  0  0  0
  3 13  1  0  0  0  0
  4 11  1  0  0  0  0
  4 12  2  0  0  0  0
  5 11  1  0  0  0  0
  5 13  2  0  0  0  0
  6  9  1  0  0  0  0
  6 10  1  0  0  0  0
  6 14  1  0  0  0  0
  7  8  1  0  0  0  0
  7 11  2  0  0  0  0
  9 17  1  0  0  0  0
  9 18  1  0  0  0  0
  9 19  1  0  0  0  0
 10 15  1  0  0  0  0
 10 16  1  0  0  0  0
 10 20  1  0  0  0  0
 12 22  1  0  0  0  0
 13 23  1  0  0  0  0
M  END
> <PUBCHEM_COMPOUND_CID>
3698120

> <PUBCHEM_COMPOUND_CANONICALIZED>
1

> <PUBCHEM_CACTVS_COMPLEXITY>
176

> <PUBCHEM_CACTVS_HBOND_ACCEPTOR>
4

> <PUBCHEM_CACTVS_HBOND_DONOR>
1

> <PUBCHEM_CACTVS_ROTATABLE_BOND>
2

> <PUBCHEM_CACTVS_SUBSKEYS>
AAADccBzgABAAAAAAAAAAAAAAAAAAWAAAAAsAAAAAAAAAFgB+AAAHAQQAAAACAiFVwSH8b7JkAigAQZhZACA0C3RGLABUbQoVBCASABgSEAUBAwIAAJgACAAAAAAAAAAAAAAAAAAAAAAAAAAAAAAAAAAAA==

> <PUBCHEM_IUPAC_OPENEYE_NAME>
6-isopropylsulfanyl-7H-purine

> <PUBCHEM_IUPAC_CAS_NAME>
6-(propan-2-ylthio)-7H-purine

> <PUBCHEM_IUPAC_NAME>
6-propan-2-ylsulfanyl-7H-purine

> <PUBCHEM_IUPAC_SYSTEMATIC_NAME>
6-propan-2-ylsulfanyl-7H-purine

> <PUBCHEM_IUPAC_TRADITIONAL_NAME>
6-(isopropylthio)-7H-purine

> <PUBCHEM_IUPAC_INCHI>
InChI=1S/C8H10N4S/c1-5(2)13-8-6-7(10-3-9-6)11-4-12-8/h3-5H,1-2H3,(H,9,10,11,12)

> <PUBCHEM_IUPAC_INCHIKEY>
AKRVBASKTIDYRB-UHFFFAOYSA-N

> <PUBCHEM_XLOGP3>
1.9

> <PUBCHEM_EXACT_MASS>
194.062617

> <PUBCHEM_MOLECULAR_FORMULA>
C8H10N4S

> <PUBCHEM_MOLECULAR_WEIGHT>
194.2568

> <PUBCHEM_OPENEYE_CAN_SMILES>
CC(C)SC1=NC=NC2=C1NC=N2

> <PUBCHEM_OPENEYE_ISO_SMILES>
CC(C)SC1=NC=NC2=C1NC=N2

> <PUBCHEM_CACTVS_TPSA>
79.8

> <PUBCHEM_MONOISOTOPIC_WEIGHT>
194.062617

> <PUBCHEM_TOTAL_CHARGE>
0

> <PUBCHEM_HEAVY_ATOM_COUNT>
13

> <PUBCHEM_ATOM_DEF_STEREO_COUNT>
0

> <PUBCHEM_ATOM_UDEF_STEREO_COUNT>
0

> <PUBCHEM_BOND_DEF_STEREO_COUNT>
0

> <PUBCHEM_BOND_UDEF_STEREO_COUNT>
0

> <PUBCHEM_ISOTOPIC_ATOM_COUNT>
0

> <PUBCHEM_COMPONENT_COUNT>
1

> <PUBCHEM_CACTVS_TAUTO_COUNT>
4

> <PUBCHEM_COORDINATE_TYPE>
1
5
255

> <PUBCHEM_BONDANNOTATIONS>
2  12  8
2  7  8
3  13  8
3  8  8
4  11  8
4  12  8
5  11  8
5  13  8
7  11  8
7  8  8

$$$$

