440631
  -OEChem-07051212503D

 48 53  0     1  0  0  0  0  0999 V2000
   -4.4547    2.2716   -0.5944 O   0  0  0  0  0  0  0  0  0  0  0  0
   -5.9658    0.4386   -0.2085 O   0  0  0  0  0  0  0  0  0  0  0  0
   -2.4434   -2.6821    0.5266 O   0  0  0  0  0  0  0  0  0  0  0  0
    2.0870   -3.1823   -0.2240 O   0  0  0  0  0  0  0  0  0  0  0  0
    5.0163    2.3813    0.0903 O   0  0  0  0  0  0  0  0  0  0  0  0
    5.9583    0.1671   -0.0077 O   0  0  0  0  0  0  0  0  0  0  0  0
   -0.2231    1.8882    0.1976 N   0  0  1  0  0  0  0  0  0  0  0  0
    0.3970    0.6223    0.0605 C   0  0  0  0  0  0  0  0  0  0  0  0
   -0.4320   -0.5340   -0.0454 C   0  0  0  0  0  0  0  0  0  0  0  0
   -2.4219    0.9313   -0.3033 C   0  0  0  0  0  0  0  0  0  0  0  0
   -1.4626    2.0600   -0.5658 C   0  0  0  0  0  0  0  0  0  0  0  0
   -1.9070   -0.3636   -0.0584 C   0  0  0  0  0  0  0  0  0  0  0  0
    1.8215    0.5029    0.0439 C   0  0  0  0  0  0  0  0  0  0  0  0
    2.4013   -0.7980   -0.0396 C   0  0  0  0  0  0  0  0  0  0  0  0
   -3.7960    1.1052   -0.3462 C   0  0  0  0  0  0  0  0  0  0  0  0
    0.1832   -1.7894   -0.1395 C   0  0  0  0  0  0  0  0  0  0  0  0
   -2.8223   -1.4190    0.1722 C   0  0  0  0  0  0  0  0  0  0  0  0
    1.5718   -1.9189   -0.1247 C   0  0  0  0  0  0  0  0  0  0  0  0
   -4.6612    0.0609   -0.1284 C   0  0  0  0  0  0  0  0  0  0  0  0
   -0.1821    2.4581    1.5433 C   0  0  0  0  0  0  0  0  0  0  0  0
    2.6970    1.6170    0.0760 C   0  0  0  0  0  0  0  0  0  0  0  0
   -4.2062   -1.2109    0.1382 C   0  0  0  0  0  0  0  0  0  0  0  0
    3.7979   -0.9664   -0.0515 C   0  0  0  0  0  0  0  0  0  0  0  0
    4.0622    1.4116    0.0586 C   0  0  0  0  0  0  0  0  0  0  0  0
    4.5981    0.1532    0.0011 C   0  0  0  0  0  0  0  0  0  0  0  0
   -5.8275    1.8422   -0.5043 C   0  0  0  0  0  0  0  0  0  0  0  0
    6.2177    1.5845    0.0503 C   0  0  0  0  0  0  0  0  0  0  0  0
   -2.3297   -2.9540    1.9205 C   0  0  0  0  0  0  0  0  0  0  0  0
    2.3261   -3.6772   -1.5372 C   0  0  0  0  0  0  0  0  0  0  0  0
   -1.2315    2.0865   -1.6384 H   0  0  0  0  0  0  0  0  0  0  0  0
   -1.9183    3.0248   -0.3139 H   0  0  0  0  0  0  0  0  0  0  0  0
   -0.3800   -2.7038   -0.2845 H   0  0  0  0  0  0  0  0  0  0  0  0
    0.8217    2.4372    1.9785 H   0  0  0  0  0  0  0  0  0  0  0  0
   -0.8558    1.9155    2.2162 H   0  0  0  0  0  0  0  0  0  0  0  0
   -0.4994    3.5062    1.5172 H   0  0  0  0  0  0  0  0  0  0  0  0
    2.3197    2.6351    0.1061 H   0  0  0  0  0  0  0  0  0  0  0  0
   -4.9026   -2.0221    0.3240 H   0  0  0  0  0  0  0  0  0  0  0  0
    4.2641   -1.9459   -0.1016 H   0  0  0  0  0  0  0  0  0  0  0  0
   -6.3242    2.0509   -1.4588 H   0  0  0  0  0  0  0  0  0  0  0  0
   -6.3247    2.4183    0.2845 H   0  0  0  0  0  0  0  0  0  0  0  0
    6.8003    1.8714   -0.8327 H   0  0  0  0  0  0  0  0  0  0  0  0
    6.8102    1.7969    0.9476 H   0  0  0  0  0  0  0  0  0  0  0  0
   -1.8902   -3.9481    2.0406 H   0  0  0  0  0  0  0  0  0  0  0  0
   -3.3181   -2.9513    2.3905 H   0  0  0  0  0  0  0  0  0  0  0  0
   -1.6801   -2.2235    2.4134 H   0  0  0  0  0  0  0  0  0  0  0  0
    2.8270   -4.6455   -1.4524 H   0  0  0  0  0  0  0  0  0  0  0  0
    2.9713   -3.0003   -2.1061 H   0  0  0  0  0  0  0  0  0  0  0  0
    1.3791   -3.8209   -2.0671 H   0  0  0  0  0  0  0  0  0  0  0  0
  1 15  1  0  0  0  0
  1 26  1  0  0  0  0
  2 19  1  0  0  0  0
  2 26  1  0  0  0  0
  3 17  1  0  0  0  0
  3 28  1  0  0  0  0
  4 18  1  0  0  0  0
  4 29  1  0  0  0  0
  5 24  1  0  0  0  0
  5 27  1  0  0  0  0
  6 25  1  0  0  0  0
  6 27  1  0  0  0  0
  7  8  1  0  0  0  0
  7 11  1  0  0  0  0
  7 20  1  0  0  0  0
  8  9  2  0  0  0  0
  8 13  1  0  0  0  0
  9 12  1  0  0  0  0
  9 16  1  0  0  0  0
 10 11  1  0  0  0  0
 10 12  1  0  0  0  0
 10 15  2  0  0  0  0
 11 30  1  0  0  0  0
 11 31  1  0  0  0  0
 12 17  2  0  0  0  0
 13 14  1  0  0  0  0
 13 21  2  0  0  0  0
 14 18  1  0  0  0  0
 14 23  2  0  0  0  0
 15 19  1  0  0  0  0
 16 18  2  0  0  0  0
 16 32  1  0  0  0  0
 17 22  1  0  0  0  0
 19 22  2  0  0  0  0
 20 33  1  0  0  0  0
 20 34  1  0  0  0  0
 20 35  1  0  0  0  0
 21 24  1  0  0  0  0
 21 36  1  0  0  0  0
 22 37  1  0  0  0  0
 23 25  1  0  0  0  0
 23 38  1  0  0  0  0
 24 25  2  0  0  0  0
 26 39  1  0  0  0  0
 26 40  1  0  0  0  0
 27 41  1  0  0  0  0
 27 42  1  0  0  0  0
 28 43  1  0  0  0  0
 28 44  1  0  0  0  0
 28 45  1  0  0  0  0
 29 46  1  0  0  0  0
 29 47  1  0  0  0  0
 29 48  1  0  0  0  0
M  END
> <PUBCHEM_COMPOUND_CID>
440631

> <PUBCHEM_CONFORMER_RMSD>
0.8

> <PUBCHEM_CONFORMER_DIVERSEORDER>
1
2

> <PUBCHEM_MMFF94_PARTIAL_CHARGES>
29
1 -0.36
10 -0.14
11 0.51
15 0.08
16 -0.15
17 0.08
18 0.08
19 0.08
2 -0.36
20 0.37
21 -0.15
22 -0.15
23 -0.15
24 0.08
25 0.08
26 0.56
27 0.56
28 0.28
29 0.28
3 -0.36
32 0.15
36 0.15
37 0.15
38 0.15
4 -0.36
5 -0.36
6 -0.36
7 -0.84
8 0.1

> <PUBCHEM_EFFECTIVE_ROTOR_COUNT>
3.6

> <PUBCHEM_PHARMACOPHORE_FEATURES>
13
1 1 acceptor
1 2 acceptor
1 3 acceptor
1 4 acceptor
1 5 acceptor
1 6 acceptor
1 7 cation
5 1 2 15 19 26 rings
5 5 6 24 25 27 rings
6 10 12 15 17 19 22 rings
6 13 14 21 23 24 25 rings
6 7 8 9 10 11 12 rings
6 8 9 13 14 16 18 rings

> <PUBCHEM_HEAVY_ATOM_COUNT>
29

> <PUBCHEM_ATOM_DEF_STEREO_COUNT>
0

> <PUBCHEM_ATOM_UDEF_STEREO_COUNT>
0

> <PUBCHEM_BOND_DEF_STEREO_COUNT>
0

> <PUBCHEM_BOND_UDEF_STEREO_COUNT>
0

> <PUBCHEM_ISOTOPIC_ATOM_COUNT>
0

> <PUBCHEM_COMPONENT_COUNT>
1

> <PUBCHEM_CACTVS_TAUTO_COUNT>
1

> <PUBCHEM_CONFORMER_ID>
0006B93700000001

> <PUBCHEM_MMFF94_ENERGY>
134.0786

> <PUBCHEM_FEATURE_SELFOVERLAP>
66.343

> <PUBCHEM_SHAPE_FINGERPRINT>
10 15 18131348579214355608
10411042 1 17403174798908305146
10616163 171 18340205185218710351
10675989 125 17980767356940488233
10835480 77 18340213002486873149
10906281 52 18336814364541709961
11112241 14 16663200286575191656
11488393 25 17532351236573182774
11719270 70 18334584572710343398
12236239 1 17846502508980864928
12403259 415 18189336775772490144
12788726 201 17532090664706234417
13140716 1 18267020565981842032
13402501 40 18410856538233557417
140371 6 18411408523167874061
14787075 74 18409455799443800045
14790565 3 18265893558306090596
15196674 1 18411420609115388220
15927050 60 18343024393595134459
1601671 61 18410014329512182224
17980427 23 17632011927922429102
18608769 82 18341328887094035635
18681886 176 18338239263535766560
19591789 44 18120374250846943528
20642791 13 18271804567556729795
20642791 178 18057876953046352885
20715895 44 18342742952513412037
21033648 144 18058743389799869724
21033648 29 18116445747741876472
21133410 32 16764159836904483078
21236236 1 18339081489041261431
21279426 13 18338516446958680406
21421861 104 17845102941994422186
21859007 373 17057822968495060285
22182313 1 18265873839763198502
23558518 356 17755571999156332633
23559900 14 18192997234264302550
23569914 152 16886656615863103012
3004659 81 18270963565414313090
335352 9 18411139164878779678
3380486 145 18267004108231666587
34934 24 18410016541589105767
350125 39 18267300941557908876
3545911 37 18412262843617779365
3633792 109 18266746960256065069
3680242 22 18270405026096802434
38695281 34 18187083949256107398
4073 2 17988359266034752330
4093350 32 17168418376393303535
4340502 62 18201717383811341523
5104073 3 18272083959273140915
5171179 24 17681283156865688161
5265222 85 18121770631442693524
5283173 99 18341615936004808025
9709674 26 18410851109458790015

> <PUBCHEM_SHAPE_MULTIPOLES>
556.61
12.37
3.59
0.96
1.87
2.31
-0.25
-6.27
1.19
0.5
-0.01
-0.32
0.45
1.75

> <PUBCHEM_SHAPE_SELFOVERLAP>
1275.347

> <PUBCHEM_SHAPE_VOLUME>
289.3

> <PUBCHEM_COORDINATE_TYPE>
2
5
10

$$$$

