6699
  -OEChem-06261201272D

 46 50  0     0  0  0  0  0  0999 V2000
    8.0889    2.0346    0.0000 O   0  0  0  0  0  0  0  0  0  0  0  0
    4.5921   -2.0346    0.0000 O   0  0  0  0  0  0  0  0  0  0  0  0
    6.3405    2.0000    0.0000 O   0  0  0  0  0  0  0  0  0  0  0  0
    6.3405   -2.0000    0.0000 O   0  0  0  0  0  0  0  0  0  0  0  0
    7.2066    0.5000    0.0000 C   0  0  0  0  0  0  0  0  0  0  0  0
    5.4745   -0.5000    0.0000 C   0  0  0  0  0  0  0  0  0  0  0  0
    7.2066   -0.5000    0.0000 C   0  0  0  0  0  0  0  0  0  0  0  0
    5.4745    0.5000    0.0000 C   0  0  0  0  0  0  0  0  0  0  0  0
    6.3405    1.0000    0.0000 C   0  0  0  0  0  0  0  0  0  0  0  0
    6.3405   -1.0000    0.0000 C   0  0  0  0  0  0  0  0  0  0  0  0
    8.1005    1.0347    0.0000 C   0  0  0  0  0  0  0  0  0  0  0  0
    4.5806   -1.0347    0.0000 C   0  0  0  0  0  0  0  0  0  0  0  0
    8.1005   -1.0347    0.0000 C   0  0  0  0  0  0  0  0  0  0  0  0
    4.5806    1.0347    0.0000 C   0  0  0  0  0  0  0  0  0  0  0  0
    9.0066    0.5208    0.0000 C   0  0  0  0  0  0  0  0  0  0  0  0
    3.6745   -0.5208    0.0000 C   0  0  0  0  0  0  0  0  0  0  0  0
    9.0066   -0.5208    0.0000 C   0  0  0  0  0  0  0  0  0  0  0  0
    3.6745    0.5208    0.0000 C   0  0  0  0  0  0  0  0  0  0  0  0
    8.9491    2.5446    0.0000 C   0  0  0  0  0  0  0  0  0  0  0  0
    3.7319   -2.5446    0.0000 C   0  0  0  0  0  0  0  0  0  0  0  0
    9.8209    2.0546    0.0000 C   0  0  0  0  0  0  0  0  0  0  0  0
    3.7435   -3.5445    0.0000 C   0  0  0  0  0  0  0  0  0  0  0  0
    8.9376    3.5445    0.0000 C   0  0  0  0  0  0  0  0  0  0  0  0
    2.8602   -2.0546    0.0000 C   0  0  0  0  0  0  0  0  0  0  0  0
    2.8833   -4.0545    0.0000 C   0  0  0  0  0  0  0  0  0  0  0  0
   10.6810    2.5646    0.0000 C   0  0  0  0  0  0  0  0  0  0  0  0
    2.0000   -2.5646    0.0000 C   0  0  0  0  0  0  0  0  0  0  0  0
    9.7977    4.0545    0.0000 C   0  0  0  0  0  0  0  0  0  0  0  0
   10.6695    3.5645    0.0000 C   0  0  0  0  0  0  0  0  0  0  0  0
    2.0116   -3.5645    0.0000 C   0  0  0  0  0  0  0  0  0  0  0  0
    4.5877    1.6546    0.0000 H   0  0  0  0  0  0  0  0  0  0  0  0
    8.0933   -1.6546    0.0000 H   0  0  0  0  0  0  0  0  0  0  0  0
    9.5423    0.8329    0.0000 H   0  0  0  0  0  0  0  0  0  0  0  0
    3.1388   -0.8329    0.0000 H   0  0  0  0  0  0  0  0  0  0  0  0
    3.1388    0.8329    0.0000 H   0  0  0  0  0  0  0  0  0  0  0  0
    9.5423   -0.8329    0.0000 H   0  0  0  0  0  0  0  0  0  0  0  0
    4.2840   -3.8483    0.0000 H   0  0  0  0  0  0  0  0  0  0  0  0
    9.8280    1.4347    0.0000 H   0  0  0  0  0  0  0  0  0  0  0  0
    2.8530   -1.4347    0.0000 H   0  0  0  0  0  0  0  0  0  0  0  0
    8.3971    3.8483    0.0000 H   0  0  0  0  0  0  0  0  0  0  0  0
    2.8905   -4.6744    0.0000 H   0  0  0  0  0  0  0  0  0  0  0  0
   11.2215    2.2608    0.0000 H   0  0  0  0  0  0  0  0  0  0  0  0
    1.4595   -2.2608    0.0000 H   0  0  0  0  0  0  0  0  0  0  0  0
    9.7906    4.6744    0.0000 H   0  0  0  0  0  0  0  0  0  0  0  0
   11.2028    3.8807    0.0000 H   0  0  0  0  0  0  0  0  0  0  0  0
    1.4782   -3.8807    0.0000 H   0  0  0  0  0  0  0  0  0  0  0  0
  1 11  1  0  0  0  0
  1 19  1  0  0  0  0
  2 12  1  0  0  0  0
  2 20  1  0  0  0  0
  3  9  2  0  0  0  0
  4 10  2  0  0  0  0
  5  7  2  0  0  0  0
  5  9  1  0  0  0  0
  5 11  1  0  0  0  0
  6  8  2  0  0  0  0
  6 10  1  0  0  0  0
  6 12  1  0  0  0  0
  7 10  1  0  0  0  0
  7 13  1  0  0  0  0
  8  9  1  0  0  0  0
  8 14  1  0  0  0  0
 11 15  2  0  0  0  0
 12 16  2  0  0  0  0
 13 17  2  0  0  0  0
 13 32  1  0  0  0  0
 14 18  2  0  0  0  0
 14 31  1  0  0  0  0
 15 17  1  0  0  0  0
 15 33  1  0  0  0  0
 16 18  1  0  0  0  0
 16 34  1  0  0  0  0
 17 36  1  0  0  0  0
 18 35  1  0  0  0  0
 19 21  2  0  0  0  0
 19 23  1  0  0  0  0
 20 22  2  0  0  0  0
 20 24  1  0  0  0  0
 21 26  1  0  0  0  0
 21 38  1  0  0  0  0
 22 25  1  0  0  0  0
 22 37  1  0  0  0  0
 23 28  2  0  0  0  0
 23 40  1  0  0  0  0
 24 27  2  0  0  0  0
 24 39  1  0  0  0  0
 25 30  2  0  0  0  0
 25 41  1  0  0  0  0
 26 29  2  0  0  0  0
 26 42  1  0  0  0  0
 27 30  1  0  0  0  0
 27 43  1  0  0  0  0
 28 29  1  0  0  0  0
 28 44  1  0  0  0  0
 29 45  1  0  0  0  0
 30 46  1  0  0  0  0
M  END
> <PUBCHEM_COMPOUND_CID>
6699

> <PUBCHEM_COMPOUND_CANONICALIZED>
1

> <PUBCHEM_CACTVS_COMPLEXITY>
565

> <PUBCHEM_CACTVS_HBOND_ACCEPTOR>
4

> <PUBCHEM_CACTVS_HBOND_DONOR>
0

> <PUBCHEM_CACTVS_ROTATABLE_BOND>
4

> <PUBCHEM_CACTVS_SUBSKEYS>
AAADceB4OAAAAAAAAAAAAAAAAAAAAAAAAAAwYMGDAAAAAADBVAAAGgAAAAAADASAmAAwBoAABACIAqBSAAACCAAkIAAIiAEGCMgMJjaENRqCOWCk4BEIqYeLyPCOgAABAAAYAACAAAYAADAAAAAAAAAAAA==

> <PUBCHEM_IUPAC_OPENEYE_NAME>
1,5-diphenoxyanthracene-9,10-dione

> <PUBCHEM_IUPAC_CAS_NAME>
1,5-diphenoxyanthracene-9,10-dione

> <PUBCHEM_IUPAC_NAME>
1,5-diphenoxyanthracene-9,10-dione

> <PUBCHEM_IUPAC_SYSTEMATIC_NAME>
1,5-diphenoxyanthracene-9,10-dione

> <PUBCHEM_IUPAC_TRADITIONAL_NAME>
1,5-diphenoxy-9,10-anthraquinone

> <PUBCHEM_IUPAC_INCHI>
InChI=1S/C26H16O4/c27-25-20-14-8-16-22(30-18-11-5-2-6-12-18)24(20)26(28)19-13-7-15-21(23(19)25)29-17-9-3-1-4-10-17/h1-16H

> <PUBCHEM_IUPAC_INCHIKEY>
GSNYYYXHQZHEFP-UHFFFAOYSA-N

> <PUBCHEM_XLOGP3_AA>
5.9

> <PUBCHEM_EXACT_MASS>
392.104859

> <PUBCHEM_MOLECULAR_FORMULA>
C26H16O4

> <PUBCHEM_MOLECULAR_WEIGHT>
392.40284

> <PUBCHEM_OPENEYE_CAN_SMILES>
C1=CC=C(C=C1)OC2=CC=CC3=C2C(=O)C4=C(C3=O)C(=CC=C4)OC5=CC=CC=C5

> <PUBCHEM_OPENEYE_ISO_SMILES>
C1=CC=C(C=C1)OC2=CC=CC3=C2C(=O)C4=C(C3=O)C(=CC=C4)OC5=CC=CC=C5

> <PUBCHEM_CACTVS_TPSA>
52.6

> <PUBCHEM_MONOISOTOPIC_WEIGHT>
392.104859

> <PUBCHEM_TOTAL_CHARGE>
0

> <PUBCHEM_HEAVY_ATOM_COUNT>
30

> <PUBCHEM_ATOM_DEF_STEREO_COUNT>
0

> <PUBCHEM_ATOM_UDEF_STEREO_COUNT>
0

> <PUBCHEM_BOND_DEF_STEREO_COUNT>
0

> <PUBCHEM_BOND_UDEF_STEREO_COUNT>
0

> <PUBCHEM_ISOTOPIC_ATOM_COUNT>
0

> <PUBCHEM_COMPONENT_COUNT>
1

> <PUBCHEM_CACTVS_TAUTO_COUNT>
1

> <PUBCHEM_COORDINATE_TYPE>
1
5
255

> <PUBCHEM_BONDANNOTATIONS>
11  15  8
12  16  8
13  17  8
14  18  8
15  17  8
16  18  8
19  21  8
19  23  8
20  22  8
20  24  8
21  26  8
22  25  8
23  28  8
24  27  8
25  30  8
26  29  8
27  30  8
28  29  8
5  11  8
5  7  8
6  12  8
6  8  8
7  13  8
8  14  8

$$$$

