10474
  -OEChem-06261204352D

  6  2  0     0  0  0  0  0  0999 V2000
    0.0000    0.0000    0.0000 Ag  0  3  0  0  0  0  0  0  0  0  0  0
    0.0000    3.0000    0.0000 K   0  3  0  0  0  0  0  0  0  0  0  0
    1.7320    1.0000    0.0000 N   0  0  0  0  0  0  0  0  0  0  0  0
    1.7320    4.0000    0.0000 N   0  0  0  0  0  0  0  0  0  0  0  0
    0.8660    0.5000    0.0000 C   0  5  0  0  0  0  0  0  0  0  0  0
    0.8660    3.5000    0.0000 C   0  5  0  0  0  0  0  0  0  0  0  0
  3  5  3  0  0  0  0
  4  6  3  0  0  0  0
M  CHG  4   1   1   2   1   5  -1   6  -1
M  END
> <PUBCHEM_COMPOUND_CID>
10474

> <PUBCHEM_COMPOUND_CANONICALIZED>
1

> <PUBCHEM_CACTVS_COMPLEXITY>
10

> <PUBCHEM_CACTVS_HBOND_ACCEPTOR>
4

> <PUBCHEM_CACTVS_HBOND_DONOR>
0

> <PUBCHEM_CACTVS_ROTATABLE_BOND>
0

> <PUBCHEM_CACTVS_SUBSKEYS>
AAADcQBDAAAAQAAAAAQAAAAAAAAAAAAAAAAAAAAAAAAAAAAAAAAABAAAAAAAAAAAAAAAAAAAAAAQAAAAAAAAAAAAAAAAAAAAAAAAAAAAAAAAAAAAAAAAAAAAAAAAAAAAAAAAAAAAAAAAAAAAAAAAAAAAAA==

> <PUBCHEM_IUPAC_OPENEYE_NAME>
potassium silver dicyanide

> <PUBCHEM_IUPAC_CAS_NAME>
potassium silver dicyanide

> <PUBCHEM_IUPAC_NAME>
potassium silver dicyanide

> <PUBCHEM_IUPAC_SYSTEMATIC_NAME>
potassium silver dicyanide

> <PUBCHEM_IUPAC_TRADITIONAL_NAME>
potassium silver dicyanide

> <PUBCHEM_IUPAC_INCHI>
InChI=1S/2CN.Ag.K/c2*1-2;;/q2*-1;2*+1

> <PUBCHEM_IUPAC_INCHIKEY>
HKSGQTYSSZOJOA-UHFFFAOYSA-N

> <PUBCHEM_EXACT_MASS>
197.874952

> <PUBCHEM_MOLECULAR_FORMULA>
C2AgKN2

> <PUBCHEM_MOLECULAR_WEIGHT>
199.0013

> <PUBCHEM_OPENEYE_CAN_SMILES>
[C-]#N.[C-]#N.[K+].[Ag+]

> <PUBCHEM_OPENEYE_ISO_SMILES>
[C-]#N.[C-]#N.[K+].[Ag+]

> <PUBCHEM_CACTVS_TPSA>
47.6

> <PUBCHEM_MONOISOTOPIC_WEIGHT>
197.874952

> <PUBCHEM_TOTAL_CHARGE>
0

> <PUBCHEM_HEAVY_ATOM_COUNT>
6

> <PUBCHEM_ATOM_DEF_STEREO_COUNT>
0

> <PUBCHEM_ATOM_UDEF_STEREO_COUNT>
0

> <PUBCHEM_BOND_DEF_STEREO_COUNT>
0

> <PUBCHEM_BOND_UDEF_STEREO_COUNT>
0

> <PUBCHEM_ISOTOPIC_ATOM_COUNT>
0

> <PUBCHEM_COMPONENT_COUNT>
4

> <PUBCHEM_CACTVS_TAUTO_COUNT>
1

> <PUBCHEM_COORDINATE_TYPE>
1
5
255

$$$$

