440924
  -OEChem-07051212513D

 52 53  0     1  0  0  0  0  0999 V2000
   -3.6393    1.3065   -0.5314 P   0  0  1  0  0  0  0  0  0  0  0  0
   -3.8001   -1.5331    0.2272 P   0  0  2  0  0  0  0  0  0  0  0  0
   -1.2324   -2.8879    0.7523 P   0  0  0  0  0  0  0  0  0  0  0  0
    0.8155    3.5110    1.5219 O   0  0  0  0  0  0  0  0  0  0  0  0
   -0.6693    4.3813   -0.8443 O   0  0  0  0  0  0  0  0  0  0  0  0
   -2.3374    2.1767   -0.9242 O   0  0  0  0  0  0  0  0  0  0  0  0
   -3.0775   -0.1911   -0.3052 O   0  0  0  0  0  0  0  0  0  0  0  0
    1.8698   -0.6450   -2.8879 O   0  0  0  0  0  0  0  0  0  0  0  0
   -4.0147    1.7910    0.9658 O   0  0  0  0  0  0  0  0  0  0  0  0
   -4.7706    1.3971   -1.5138 O   0  0  0  0  0  0  0  0  0  0  0  0
   -2.6659   -2.6682    0.0390 O   0  0  0  0  0  0  0  0  0  0  0  0
   -4.8748   -1.8791   -0.9297 O   0  0  0  0  0  0  0  0  0  0  0  0
   -4.3717   -1.4450    1.6116 O   0  0  0  0  0  0  0  0  0  0  0  0
   -1.6318   -3.2068    2.2857 O   0  0  0  0  0  0  0  0  0  0  0  0
   -0.7418   -4.3195    0.1854 O   0  0  0  0  0  0  0  0  0  0  0  0
   -0.2624   -1.7583    0.5678 O   0  0  0  0  0  0  0  0  0  0  0  0
    2.8246    0.0635    1.6638 N   0  0  0  0  0  0  0  0  0  0  0  0
    1.7688    1.0209   -0.7231 N   0  0  0  0  0  0  0  0  0  0  0  0
    3.3322   -2.0136    0.5389 N   0  0  0  0  0  0  0  0  0  0  0  0
    2.8622   -2.3687   -1.7433 N   0  0  0  0  0  0  0  0  0  0  0  0
    3.8712   -4.0321   -0.4214 N   0  0  0  0  0  0  0  0  0  0  0  0
    1.1496    3.1638    0.1821 C   0  0  1  0  0  0  0  0  0  0  0  0
    1.7898    1.8029    0.3157 C   0  0  0  0  0  0  0  0  0  0  0  0
   -0.1222    3.0712   -0.6761 C   0  0  1  0  0  0  0  0  0  0  0  0
    2.4418    1.4581    1.6527 C   0  0  2  0  0  0  0  0  0  0  0  0
    2.1870    4.1550   -0.3316 C   0  0  0  0  0  0  0  0  0  0  0  0
   -1.1985    2.1703   -0.0676 C   0  0  0  0  0  0  0  0  0  0  0  0
    3.6764    2.3182    1.8894 C   0  0  0  0  0  0  0  0  0  0  0  0
    2.8324   -0.7327    0.5414 C   0  0  0  0  0  0  0  0  0  0  0  0
    2.3253   -0.2291   -0.6034 C   0  0  0  0  0  0  0  0  0  0  0  0
    2.3315   -1.0930   -1.8407 C   0  0  0  0  0  0  0  0  0  0  0  0
    3.3323   -2.7843   -0.5970 C   0  0  0  0  0  0  0  0  0  0  0  0
    0.1160    2.7213   -1.6881 H   0  0  0  0  0  0  0  0  0  0  0  0
    1.7248    1.5954    2.4677 H   0  0  0  0  0  0  0  0  0  0  0  0
    1.7496    5.1552   -0.4298 H   0  0  0  0  0  0  0  0  0  0  0  0
    3.0410    4.2844    0.3338 H   0  0  0  0  0  0  0  0  0  0  0  0
    2.5681    3.8567   -1.3143 H   0  0  0  0  0  0  0  0  0  0  0  0
   -1.5150    2.5548    0.9071 H   0  0  0  0  0  0  0  0  0  0  0  0
   -0.8495    1.1416    0.0507 H   0  0  0  0  0  0  0  0  0  0  0  0
    3.2054   -0.3406    2.5127 H   0  0  0  0  0  0  0  0  0  0  0  0
    4.2891    1.9047    2.6993 H   0  0  0  0  0  0  0  0  0  0  0  0
    4.3109    2.3738    0.9979 H   0  0  0  0  0  0  0  0  0  0  0  0
    3.4064    3.3332    2.1937 H   0  0  0  0  0  0  0  0  0  0  0  0
    0.3521    4.3658    1.4980 H   0  0  0  0  0  0  0  0  0  0  0  0
   -1.4749    4.2943   -1.3821 H   0  0  0  0  0  0  0  0  0  0  0  0
    3.7043   -2.3621    1.4152 H   0  0  0  0  0  0  0  0  0  0  0  0
    3.9262   -4.6930   -1.1888 H   0  0  0  0  0  0  0  0  0  0  0  0
    4.2290   -4.3322    0.4788 H   0  0  0  0  0  0  0  0  0  0  0  0
   -4.5124    2.6281    1.0825 H   0  0  0  0  0  0  0  0  0  0  0  0
   -5.7147   -1.3736   -0.9637 H   0  0  0  0  0  0  0  0  0  0  0  0
   -0.9192   -3.2882    2.9548 H   0  0  0  0  0  0  0  0  0  0  0  0
    0.1568   -4.6386    0.4155 H   0  0  0  0  0  0  0  0  0  0  0  0
  1  6  1  0  0  0  0
  1  7  1  0  0  0  0
  1  9  1  0  0  0  0
  1 10  2  0  0  0  0
  2  7  1  0  0  0  0
  2 11  1  0  0  0  0
  2 12  1  0  0  0  0
  2 13  2  0  0  0  0
  3 11  1  0  0  0  0
  3 14  1  0  0  0  0
  3 15  1  0  0  0  0
  3 16  2  0  0  0  0
  4 22  1  0  0  0  0
  4 44  1  0  0  0  0
  5 24  1  0  0  0  0
  5 45  1  0  0  0  0
  6 27  1  0  0  0  0
  8 31  2  0  0  0  0
  9 49  1  0  0  0  0
 12 50  1  0  0  0  0
 14 51  1  0  0  0  0
 15 52  1  0  0  0  0
 17 25  1  0  0  0  0
 17 29  1  0  0  0  0
 17 40  1  0  0  0  0
 18 23  2  0  0  0  0
 18 30  1  0  0  0  0
 19 29  1  0  0  0  0
 19 32  1  0  0  0  0
 19 46  1  0  0  0  0
 20 31  1  0  0  0  0
 20 32  2  0  0  0  0
 21 32  1  0  0  0  0
 21 47  1  0  0  0  0
 21 48  1  0  0  0  0
 22 23  1  0  0  0  0
 22 24  1  0  0  0  0
 22 26  1  0  0  0  0
 23 25  1  0  0  0  0
 24 27  1  0  0  0  0
 24 33  1  0  0  0  0
 25 28  1  0  0  0  0
 25 34  1  0  0  0  0
 26 35  1  0  0  0  0
 26 36  1  0  0  0  0
 26 37  1  0  0  0  0
 27 38  1  0  0  0  0
 27 39  1  0  0  0  0
 28 41  1  0  0  0  0
 28 42  1  0  0  0  0
 28 43  1  0  0  0  0
 29 30  2  0  0  0  0
 30 31  1  0  0  0  0
M  END
> <PUBCHEM_COMPOUND_CID>
440924

> <PUBCHEM_CONFORMER_RMSD>
1.4

> <PUBCHEM_CONFORMER_DIVERSEORDER>
1
13
49
206
237
71
216
235
300
85
79
250
166
104
205
288
74
326
193
152
22
29
66
12
172
214
150
334
282
106
19
227
107
130
272
153
139
73
42
64
93
256
122
23
197
274
10
2
332
210
285
176
291
263
119
249
260
38
118
248
165
46
213
180
317
295
289
129
154
225
296
30
80
200
267
11
116
281
306
114
261
246
167
327
142
252
184
82
83
36
52
188
255
158
242
199
45
187
144
314
243
208
60
27
286
325
131
320
258
271
157
53
5
270
168
245
8
333
147
26
219
89
112
178
94
20
14
163
186
173
224
303
91
35
81
159
84
297
48
164
67
39
209
232
31
247
212
15
311
290
133
32
69
203
115
34
54
228
331
161
234
309
192
312
9
230
229
77
181
321
257
330
127
273
239
148
21
264
72
113
308
201
134
170
100
223
324
135
43
75
145
240
259
185
284
160
217
183
220
58
98
151
28
105
298
283
63
196
301
68
189
319
90
101
198
329
25
109
92
120
207
56
40
110
140
137
149
76
143
7
231
218
278
57
50
16
51
316
37
121
318
136
221
124
190
222
254
287
310
128
171
302
62
61
111
202
244
241
215
87
33
275
226
17
191
103
55
47
266
78
3
156
132
204
65
162
59
279
18
155
41
95
236
102
280
138
97
211
251
177
305
24
125
195
108
146
265
6
307
262
141
313
304
294
99
238
117
123
268
277
323
86
269
44
253
88
322
169
4
233
292
126
328
299
194
179
315
96
174
276
293
70
175
182

> <PUBCHEM_MMFF94_PARTIAL_CHARGES>
40
1 1.51
10 -0.7
11 -0.54
12 -0.77
13 -0.7
14 -0.77
15 -0.77
16 -0.7
17 -0.87
18 -0.62
19 -0.55
2 1.51
20 -0.66
21 -0.85
22 0.34
23 0.33
24 0.28
25 0.43
27 0.28
29 0.2
3 1.51
30 0.19
31 0.77
32 0.55
4 -0.68
40 0.4
44 0.4
45 0.4
46 0.4
47 0.4
48 0.4
49 0.5
5 -0.68
50 0.5
51 0.5
52 0.5
6 -0.55
7 -0.54
8 -0.57
9 -0.77

> <PUBCHEM_EFFECTIVE_ROTOR_COUNT>
9.4

> <PUBCHEM_PHARMACOPHORE_FEATURES>
21
1 10 acceptor
1 12 acceptor
1 13 acceptor
1 14 acceptor
1 15 acceptor
1 16 acceptor
1 17 cation
1 17 donor
1 18 acceptor
1 19 donor
1 20 donor
1 21 donor
1 4 acceptor
1 4 donor
1 5 acceptor
1 5 donor
1 8 acceptor
1 9 acceptor
4 3 14 15 16 anion
6 17 18 23 25 29 30 rings
6 19 20 29 30 31 32 rings

> <PUBCHEM_HEAVY_ATOM_COUNT>
32

> <PUBCHEM_ATOM_DEF_STEREO_COUNT>
0

> <PUBCHEM_ATOM_UDEF_STEREO_COUNT>
3

> <PUBCHEM_BOND_DEF_STEREO_COUNT>
0

> <PUBCHEM_BOND_UDEF_STEREO_COUNT>
0

> <PUBCHEM_ISOTOPIC_ATOM_COUNT>
0

> <PUBCHEM_COMPONENT_COUNT>
1

> <PUBCHEM_CACTVS_TAUTO_COUNT>
33

> <PUBCHEM_CONFORMER_ID>
0006BA5C00000001

> <PUBCHEM_MMFF94_ENERGY>
12.6361

> <PUBCHEM_FEATURE_SELFOVERLAP>
106.819

> <PUBCHEM_SHAPE_FINGERPRINT>
10616163 171 17548981061910952881
11828532 37 18342457076007658191
12633257 1 17911817781167363954
12712778 12 17765446722155761210
12788726 201 17977648034021179390
13122387 1 18411981347561552843
13140716 1 18336547226260967385
1361 2 17543635227929878551
14117953 113 17040346918224623911
15003188 3 18043239331219036589
17974551 9 17241329221419710009
20397935 3 18341882013649752918
20600515 1 18191861447532531756
20764821 26 18339355361551500151
21860390 5 18263928735190243158
23559900 14 18410576197081026365
4403749 210 17615999632519039024
463206 1 18124311876980149355

> <PUBCHEM_SHAPE_MULTIPOLES>
568.89
8.14
6.3
1.84
8.28
0.06
-0.13
2.38
0.35
-2.32
-0.06
-0.78
0.37
2.62

> <PUBCHEM_SHAPE_SELFOVERLAP>
1141.88

> <PUBCHEM_SHAPE_VOLUME>
336.7

> <PUBCHEM_COORDINATE_TYPE>
2
5
10

$$$$

