9543061
  -OEChem-07051213083D

 22 22  0     0  0  0  0  0  0999 V2000
   -3.6609   -1.1283    0.0160 O   0  0  0  0  0  0  0  0  0  0  0  0
    3.2784    0.6391    0.0048 O   0  5  0  0  0  0  0  0  0  0  0  0
    2.7195   -1.4838    0.0019 O   0  0  0  0  0  0  0  0  0  0  0  0
   -2.3327   -1.4666   -0.0077 N   0  0  0  0  0  0  0  0  0  0  0  0
    2.4135   -0.2683    0.0022 N   0  3  0  0  0  0  0  0  0  0  0  0
   -0.9914    3.1941   -0.0008 N   0  0  0  0  0  0  0  0  0  0  0  0
    0.0374   -0.8781   -0.0028 C   0  0  0  0  0  0  0  0  0  0  0  0
   -1.3047   -0.4978   -0.0050 C   0  0  0  0  0  0  0  0  0  0  0  0
    1.0377    0.0939    0.0001 C   0  0  0  0  0  0  0  0  0  0  0  0
   -0.6460    1.8266   -0.0013 C   0  0  0  0  0  0  0  0  0  0  0  0
   -1.6464    0.8546   -0.0043 C   0  0  0  0  0  0  0  0  0  0  0  0
    0.6961    1.4463    0.0010 C   0  0  0  0  0  0  0  0  0  0  0  0
    0.3995   -2.3316   -0.0040 C   0  0  0  0  0  0  0  0  0  0  0  0
   -2.6880    1.1675   -0.0066 H   0  0  0  0  0  0  0  0  0  0  0  0
    1.4555    2.2254    0.0033 H   0  0  0  0  0  0  0  0  0  0  0  0
    0.9743   -2.5954   -0.8992 H   0  0  0  0  0  0  0  0  0  0  0  0
    0.9150   -2.6131    0.9211 H   0  0  0  0  0  0  0  0  0  0  0  0
   -0.4471   -3.0171   -0.0573 H   0  0  0  0  0  0  0  0  0  0  0  0
   -2.1455   -2.4281    0.2340 H   0  0  0  0  0  0  0  0  0  0  0  0
   -0.2669    3.8996    0.0021 H   0  0  0  0  0  0  0  0  0  0  0  0
   -1.9642    3.4706   -0.0018 H   0  0  0  0  0  0  0  0  0  0  0  0
   -4.0545   -1.8194   -0.5431 H   0  0  0  0  0  0  0  0  0  0  0  0
  1  4  1  0  0  0  0
  1 22  1  0  0  0  0
  2  5  1  0  0  0  0
  3  5  2  0  0  0  0
  4  8  1  0  0  0  0
  4 19  1  0  0  0  0
  5  9  1  0  0  0  0
  6 10  1  0  0  0  0
  6 20  1  0  0  0  0
  6 21  1  0  0  0  0
  7  8  2  0  0  0  0
  7  9  1  0  0  0  0
  7 13  1  0  0  0  0
  8 11  1  0  0  0  0
  9 12  2  0  0  0  0
 10 11  2  0  0  0  0
 10 12  1  0  0  0  0
 11 14  1  0  0  0  0
 12 15  1  0  0  0  0
 13 16  1  0  0  0  0
 13 17  1  0  0  0  0
 13 18  1  0  0  0  0
M  CHG  2   2  -1   5   1
M  END
> <PUBCHEM_COMPOUND_CID>
9543061

> <PUBCHEM_CONFORMER_RMSD>
0.6

> <PUBCHEM_CONFORMER_DIVERSEORDER>
1

> <PUBCHEM_MMFF94_PARTIAL_CHARGES>
19
1 -0.38
10 0.1
11 -0.15
12 -0.15
13 0.14
14 0.15
15 0.15
19 0.4
2 -0.52
20 0.4
21 0.4
22 0.4
3 -0.52
4 -0.52
5 0.91
6 -0.9
7 -0.14
8 0.1
9 0.13

> <PUBCHEM_EFFECTIVE_ROTOR_COUNT>
2

> <PUBCHEM_PHARMACOPHORE_FEATURES>
7
1 1 anion
1 2 acceptor
1 2 anion
1 3 acceptor
1 6 cation
1 6 donor
6 7 8 9 10 11 12 rings

> <PUBCHEM_HEAVY_ATOM_COUNT>
13

> <PUBCHEM_ATOM_DEF_STEREO_COUNT>
0

> <PUBCHEM_ATOM_UDEF_STEREO_COUNT>
0

> <PUBCHEM_BOND_DEF_STEREO_COUNT>
0

> <PUBCHEM_BOND_UDEF_STEREO_COUNT>
0

> <PUBCHEM_ISOTOPIC_ATOM_COUNT>
0

> <PUBCHEM_COMPONENT_COUNT>
1

> <PUBCHEM_CACTVS_TAUTO_COUNT>
1

> <PUBCHEM_CONFORMER_ID>
00919D9500000001

> <PUBCHEM_MMFF94_ENERGY>
65.2528

> <PUBCHEM_FEATURE_SELFOVERLAP>
35.602

> <PUBCHEM_SHAPE_FINGERPRINT>
10219947 1 18336824191464001291
10967382 1 18266741277095771687
12032990 46 18411131407635404523
12423570 1 17772174573270196884
13380535 76 17832715942574091767
16945 1 18122343742212329828
193761 8 18050568744206356455
20510252 161 18334296483119909552
20871998 184 18187929516256565079
21040471 1 17906172106960497476
21501502 16 18195526128182398426
2334 1 18338517422043149101
23402539 116 18262248720082825934
23552423 10 18199744902937889494
23559900 14 17684927295906524438
241688 4 18410293596970473209
2748010 2 18338243669443984517
3071541 158 18128542561426939829
5084963 1 18187081771564827850
7364860 26 17760085116658084017
81228 2 18341606070501625161

> <PUBCHEM_SHAPE_MULTIPOLES>
234.98
3.93
2.74
0.57
0.46
1.15
0
-1.38
0.01
-0.91
0
-0.01
0.01
0

> <PUBCHEM_SHAPE_SELFOVERLAP>
493.805

> <PUBCHEM_SHAPE_VOLUME>
133.8

> <PUBCHEM_COORDINATE_TYPE>
2
5
10

$$$$

