5271984
  -OEChem-07051213103D

 42 45  0     1  0  0  0  0  0999 V2000
    3.2817   -1.9835    0.1347 O   0  0  0  0  0  0  0  0  0  0  0  0
   -1.9737    0.2331    0.5775 N   0  0  1  0  0  0  0  0  0  0  0  0
    1.4674   -0.5870   -0.3667 N   0  0  0  0  0  0  0  0  0  0  0  0
   -1.4177   -0.0454   -0.7622 C   0  0  1  0  0  0  0  0  0  0  0  0
   -0.3554    0.9921   -1.1873 C   0  0  2  0  0  0  0  0  0  0  0  0
   -0.8178   -1.4601   -0.8800 C   0  0  1  0  0  0  0  0  0  0  0  0
    1.0607    0.8114   -0.5715 C   0  0  1  0  0  0  0  0  0  0  0  0
    0.4667   -1.6001   -0.0677 C   0  0  0  0  0  0  0  0  0  0  0  0
   -0.9239    2.4168   -1.0826 C   0  0  0  0  0  0  0  0  0  0  0  0
   -1.8482   -2.5172   -0.4638 C   0  0  0  0  0  0  0  0  0  0  0  0
   -2.6062    1.5652    0.6045 C   0  0  0  0  0  0  0  0  0  0  0  0
   -2.9866   -0.7732    0.9513 C   0  0  0  0  0  0  0  0  0  0  0  0
    1.4210    1.5952    0.6945 C   0  0  0  0  0  0  0  0  0  0  0  0
   -1.6335    2.6824    0.2417 C   0  0  0  0  0  0  0  0  0  0  0  0
   -2.4517   -2.2024    0.9004 C   0  0  0  0  0  0  0  0  0  0  0  0
    2.8837    1.3494    1.1129 C   0  0  0  0  0  0  0  0  0  0  0  0
    2.8017   -0.8627   -0.0250 C   0  0  0  0  0  0  0  0  0  0  0  0
    3.6319    0.3861    0.1892 C   0  0  0  0  0  0  0  0  0  0  0  0
   -2.2420    0.0149   -1.4903 H   0  0  0  0  0  0  0  0  0  0  0  0
   -0.2046    0.8157   -2.2649 H   0  0  0  0  0  0  0  0  0  0  0  0
   -0.5650   -1.6378   -1.9347 H   0  0  0  0  0  0  0  0  0  0  0  0
    1.7369    1.1982   -1.3489 H   0  0  0  0  0  0  0  0  0  0  0  0
    0.2750   -1.5219    1.0088 H   0  0  0  0  0  0  0  0  0  0  0  0
    0.9043   -2.5923   -0.2305 H   0  0  0  0  0  0  0  0  0  0  0  0
   -1.6580    2.5506   -1.8889 H   0  0  0  0  0  0  0  0  0  0  0  0
   -0.1448    3.1668   -1.2592 H   0  0  0  0  0  0  0  0  0  0  0  0
   -1.3968   -3.5160   -0.4523 H   0  0  0  0  0  0  0  0  0  0  0  0
   -2.6523   -2.5445   -1.2104 H   0  0  0  0  0  0  0  0  0  0  0  0
   -2.9950    1.7678    1.6102 H   0  0  0  0  0  0  0  0  0  0  0  0
   -3.4622    1.6014   -0.0831 H   0  0  0  0  0  0  0  0  0  0  0  0
   -3.8625   -0.7013    0.2922 H   0  0  0  0  0  0  0  0  0  0  0  0
   -3.3360   -0.5771    1.9725 H   0  0  0  0  0  0  0  0  0  0  0  0
    0.7673    1.2983    1.5231 H   0  0  0  0  0  0  0  0  0  0  0  0
    1.2889    2.6708    0.5397 H   0  0  0  0  0  0  0  0  0  0  0  0
   -0.9124    2.8119    1.0533 H   0  0  0  0  0  0  0  0  0  0  0  0
   -2.1801    3.6306    0.1725 H   0  0  0  0  0  0  0  0  0  0  0  0
   -3.2667   -2.9054    1.1090 H   0  0  0  0  0  0  0  0  0  0  0  0
   -1.7061   -2.3492    1.6903 H   0  0  0  0  0  0  0  0  0  0  0  0
    2.8887    0.9467    2.1341 H   0  0  0  0  0  0  0  0  0  0  0  0
    3.4223    2.3032    1.1575 H   0  0  0  0  0  0  0  0  0  0  0  0
    4.5878    0.1059    0.6452 H   0  0  0  0  0  0  0  0  0  0  0  0
    3.8539    0.8445   -0.7803 H   0  0  0  0  0  0  0  0  0  0  0  0
  1 17  2  0  0  0  0
  2  4  1  0  0  0  0
  2 11  1  0  0  0  0
  2 12  1  0  0  0  0
  3  7  1  0  0  0  0
  3  8  1  0  0  0  0
  3 17  1  0  0  0  0
  4  5  1  0  0  0  0
  4  6  1  0  0  0  0
  4 19  1  0  0  0  0
  5  7  1  0  0  0  0
  5  9  1  0  0  0  0
  5 20  1  0  0  0  0
  6  8  1  0  0  0  0
  6 10  1  0  0  0  0
  6 21  1  0  0  0  0
  7 13  1  0  0  0  0
  7 22  1  0  0  0  0
  8 23  1  0  0  0  0
  8 24  1  0  0  0  0
  9 14  1  0  0  0  0
  9 25  1  0  0  0  0
  9 26  1  0  0  0  0
 10 15  1  0  0  0  0
 10 27  1  0  0  0  0
 10 28  1  0  0  0  0
 11 14  1  0  0  0  0
 11 29  1  0  0  0  0
 11 30  1  0  0  0  0
 12 15  1  0  0  0  0
 12 31  1  0  0  0  0
 12 32  1  0  0  0  0
 13 16  1  0  0  0  0
 13 33  1  0  0  0  0
 13 34  1  0  0  0  0
 14 35  1  0  0  0  0
 14 36  1  0  0  0  0
 15 37  1  0  0  0  0
 15 38  1  0  0  0  0
 16 18  1  0  0  0  0
 16 39  1  0  0  0  0
 16 40  1  0  0  0  0
 17 18  1  0  0  0  0
 18 41  1  0  0  0  0
 18 42  1  0  0  0  0
M  END
> <PUBCHEM_COMPOUND_CID>
5271984

> <PUBCHEM_CONFORMER_RMSD>
0.6

> <PUBCHEM_CONFORMER_DIVERSEORDER>
1
3
6
4
5
2

> <PUBCHEM_MMFF94_PARTIAL_CHARGES>
10
1 -0.57
11 0.27
12 0.27
17 0.57
18 0.06
2 -0.81
3 -0.66
4 0.27
7 0.3
8 0.3

> <PUBCHEM_EFFECTIVE_ROTOR_COUNT>
2

> <PUBCHEM_PHARMACOPHORE_FEATURES>
6
1 1 acceptor
1 2 cation
6 2 4 5 9 11 14 rings
6 2 4 6 10 12 15 rings
6 3 4 5 6 7 8 rings
6 3 7 13 16 17 18 rings

> <PUBCHEM_HEAVY_ATOM_COUNT>
18

> <PUBCHEM_ATOM_DEF_STEREO_COUNT>
4

> <PUBCHEM_ATOM_UDEF_STEREO_COUNT>
0

> <PUBCHEM_BOND_DEF_STEREO_COUNT>
0

> <PUBCHEM_BOND_UDEF_STEREO_COUNT>
0

> <PUBCHEM_ISOTOPIC_ATOM_COUNT>
0

> <PUBCHEM_COMPONENT_COUNT>
1

> <PUBCHEM_CACTVS_TAUTO_COUNT>
1

> <PUBCHEM_CONFORMER_ID>
005071B000000001

> <PUBCHEM_MMFF94_ENERGY>
37.0598

> <PUBCHEM_FEATURE_SELFOVERLAP>
30.616

> <PUBCHEM_SHAPE_FINGERPRINT>
10863032 1 18335700559020115001
1100329 8 15022736093264244936
11086676 242 18268696247414126835
11640471 11 4967610542578751074
12011746 2 18267581493248182229
12251169 10 18335698308483502034
12382932 28 18265053539690079265
12553582 1 18052248505857949335
12633257 1 18117829113182874937
12696612 119 18122337986961493046
13004483 165 18117580460542159367
13132413 78 17830448384800061277
13140716 1 18410855443011940651
14223421 5 18335986385093965544
14817 1 14088232788368876373
15076042 46 18410284809546422101
15295992 7 17749964374048891840
15422964 175 18199743639980374763
15852999 172 17556311892369733277
16945 1 18262801735586785956
17804303 29 18337380660279981654
17844478 74 18413106139229734936
18981168 100 17459777872385350042
19049666 15 18335986483989086946
20559304 39 17836351654176436391
21501502 16 18408892832389546406
21524375 3 18049448342063173429
21731228 192 18120366816279750873
22112679 90 17464804680755369799
2334 1 18194964045643546591
23388829 49 17904764375673598229
23419403 2 17472178014326321581
238 59 17406303364781553693
2748010 2 18410295770065617486
5845 1 18057339304781675837
598444 67 18124310772756686551
7097593 13 17913783970510528130
81228 2 18271816713085354853
8809292 202 18267019655728129130

> <PUBCHEM_SHAPE_MULTIPOLES>
354.6
5.05
3.03
1.11
3.07
0.31
-0.03
-1.23
1.71
-1.4
-0.07
-0.27
0.21
0.38

> <PUBCHEM_SHAPE_SELFOVERLAP>
751.752

> <PUBCHEM_SHAPE_VOLUME>
192.2

> <PUBCHEM_COORDINATE_TYPE>
2
5
10

$$$$

