56928132
  -OEChem-07051213153D

110112  0     1  0  0  0  0  0999 V2000
   -1.6392    0.6591    0.8586 O   0  0  0  0  0  0  0  0  0  0  0  0
    0.4587    3.2589   -0.2744 O   0  0  0  0  0  0  0  0  0  0  0  0
   -1.9067    4.3595   -2.2640 O   0  0  0  0  0  0  0  0  0  0  0  0
    5.3339   -0.5834   -0.0539 O   0  0  0  0  0  0  0  0  0  0  0  0
    8.3922   -1.0186    1.6651 O   0  0  0  0  0  0  0  0  0  0  0  0
    2.2289    3.2736   -1.7622 O   0  0  0  0  0  0  0  0  0  0  0  0
   -7.2737   -0.1266    3.3969 O   0  0  0  0  0  0  0  0  0  0  0  0
   -6.3485   -0.6954   -0.0244 O   0  0  0  0  0  0  0  0  0  0  0  0
   -7.9305   -1.7138    1.3097 O   0  0  0  0  0  0  0  0  0  0  0  0
   -1.8159    2.4905   -0.7787 C   0  0  1  0  0  0  0  0  0  0  0  0
   -0.2948    2.3143   -1.0763 C   0  0  2  0  0  0  0  0  0  0  0  0
   -2.1021    2.0073    0.6760 C   0  0  1  0  0  0  0  0  0  0  0  0
    0.1886    0.9029   -0.7135 C   0  0  0  0  0  0  0  0  0  0  0  0
   -0.2212    0.5442    0.7194 C   0  0  2  0  0  0  0  0  0  0  0  0
   -2.2022    3.9755   -0.9394 C   0  0  0  0  0  0  0  0  0  0  0  0
   -2.6258    1.6722   -1.8098 C   0  0  0  0  0  0  0  0  0  0  0  0
   -3.5752    2.0164    1.0801 C   0  0  0  0  0  0  0  0  0  0  0  0
    0.1683   -0.8711    1.0457 C   0  0  0  0  0  0  0  0  0  0  0  0
   -3.7231    1.9655    2.5689 C   0  0  0  0  0  0  0  0  0  0  0  0
    6.9146   -2.4148    0.3415 C   0  0  1  0  0  0  0  0  0  0  0  0
    8.0651   -1.3882    0.3240 C   0  0  1  0  0  0  0  0  0  0  0  0
    5.6055   -1.7135    0.7759 C   0  0  2  0  0  0  0  0  0  0  0  0
    7.6819   -0.1168   -0.4372 C   0  0  0  0  0  0  0  0  0  0  0  0
    6.3343    0.4380    0.0445 C   0  0  1  0  0  0  0  0  0  0  0  0
    1.7022    3.5962   -0.7101 C   0  0  0  0  0  0  0  0  0  0  0  0
    0.9496   -1.1956    2.0884 C   0  0  0  0  0  0  0  0  0  0  0  0
   -4.3625    0.9825    3.2200 C   0  0  0  0  0  0  0  0  0  0  0  0
    5.8883    1.6203   -0.8280 C   0  0  0  0  0  0  0  0  0  0  0  0
    6.8019   -3.0984   -1.0277 C   0  0  0  0  0  0  0  0  0  0  0  0
    1.4368   -2.5655    2.4740 C   0  0  0  0  0  0  0  0  0  0  0  0
    4.4166   -2.6460    0.8487 C   0  0  0  0  0  0  0  0  0  0  0  0
   -5.0095   -0.1900    2.5327 C   0  0  0  0  0  0  0  0  0  0  0  0
    2.3327    4.4100    0.3512 C   0  0  0  0  0  0  0  0  0  0  0  0
    3.3601   -2.7771    0.0209 C   0  0  0  0  0  0  0  0  0  0  0  0
    4.7276    2.3570   -0.2126 C   0  0  0  0  0  0  0  0  0  0  0  0
    1.4266   -3.5999    1.3825 C   0  0  0  0  0  0  0  0  0  0  0  0
    3.6469    4.4275    0.6164 C   0  0  0  0  0  0  0  0  0  0  0  0
   -6.4950    0.0230    2.2191 C   0  0  1  0  0  0  0  0  0  0  0  0
    2.2695   -3.6897    0.3392 C   0  0  0  0  0  0  0  0  0  0  0  0
    4.7177    3.6836   -0.0091 C   0  0  0  0  0  0  0  0  0  0  0  0
    3.1956   -2.0892   -1.3057 C   0  0  0  0  0  0  0  0  0  0  0  0
   -7.0319   -0.8998    1.1395 C   0  0  0  0  0  0  0  0  0  0  0  0
   -6.7418   -1.5227   -1.1238 C   0  0  0  0  0  0  0  0  0  0  0  0
   -5.9093   -1.1897   -2.3322 C   0  0  0  0  0  0  0  0  0  0  0  0
   -4.4088   -1.3533   -2.2285 C   0  0  0  0  0  0  0  0  0  0  0  0
   -3.9340   -2.7873   -1.9508 C   0  0  0  0  0  0  0  0  0  0  0  0
   -2.4057   -2.9812   -1.9006 C   0  0  0  0  0  0  0  0  0  0  0  0
   -2.0141   -4.4216   -1.5677 C   0  0  0  0  0  0  0  0  0  0  0  0
   -1.7899   -2.5779   -3.2434 C   0  0  0  0  0  0  0  0  0  0  0  0
   -6.4825   -0.7512   -3.4645 C   0  0  0  0  0  0  0  0  0  0  0  0
   -0.0952    2.5072   -2.1382 H   0  0  0  0  0  0  0  0  0  0  0  0
   -1.5474    2.6532    1.3723 H   0  0  0  0  0  0  0  0  0  0  0  0
    1.2791    0.8388   -0.8042 H   0  0  0  0  0  0  0  0  0  0  0  0
   -0.2369    0.1825   -1.4225 H   0  0  0  0  0  0  0  0  0  0  0  0
    0.2561    1.2309    1.4307 H   0  0  0  0  0  0  0  0  0  0  0  0
   -1.6552    4.6221   -0.2456 H   0  0  0  0  0  0  0  0  0  0  0  0
   -3.2720    4.1399   -0.7846 H   0  0  0  0  0  0  0  0  0  0  0  0
   -3.7036    1.8266   -1.6950 H   0  0  0  0  0  0  0  0  0  0  0  0
   -2.4202    0.6055   -1.7071 H   0  0  0  0  0  0  0  0  0  0  0  0
   -2.3658    1.9440   -2.8391 H   0  0  0  0  0  0  0  0  0  0  0  0
   -4.0563    2.9494    0.7705 H   0  0  0  0  0  0  0  0  0  0  0  0
   -4.1133    1.2173    0.5660 H   0  0  0  0  0  0  0  0  0  0  0  0
   -0.2041   -1.6472    0.3835 H   0  0  0  0  0  0  0  0  0  0  0  0
   -3.3007    2.7835    3.1469 H   0  0  0  0  0  0  0  0  0  0  0  0
    7.1489   -3.1889    1.0848 H   0  0  0  0  0  0  0  0  0  0  0  0
   -2.1506    5.2963   -2.3547 H   0  0  0  0  0  0  0  0  0  0  0  0
    8.9671   -1.8320   -0.1122 H   0  0  0  0  0  0  0  0  0  0  0  0
    5.7329   -1.3318    1.7989 H   0  0  0  0  0  0  0  0  0  0  0  0
    7.6206   -0.3497   -1.5070 H   0  0  0  0  0  0  0  0  0  0  0  0
    8.4557    0.6496   -0.3101 H   0  0  0  0  0  0  0  0  0  0  0  0
    6.4135    0.7632    1.0904 H   0  0  0  0  0  0  0  0  0  0  0  0
    1.2836   -0.3962    2.7478 H   0  0  0  0  0  0  0  0  0  0  0  0
   -4.4426    1.0346    4.3024 H   0  0  0  0  0  0  0  0  0  0  0  0
    5.5698    1.2563   -1.8127 H   0  0  0  0  0  0  0  0  0  0  0  0
    6.7295    2.3067   -0.9826 H   0  0  0  0  0  0  0  0  0  0  0  0
    6.5046   -2.3995   -1.8150 H   0  0  0  0  0  0  0  0  0  0  0  0
    6.0701   -3.9121   -1.0043 H   0  0  0  0  0  0  0  0  0  0  0  0
    7.7619   -3.5397   -1.3169 H   0  0  0  0  0  0  0  0  0  0  0  0
    2.4507   -2.4742    2.8796 H   0  0  0  0  0  0  0  0  0  0  0  0
    0.8250   -2.9278    3.3094 H   0  0  0  0  0  0  0  0  0  0  0  0
    4.4348   -3.2716    1.7428 H   0  0  0  0  0  0  0  0  0  0  0  0
   -4.4438   -0.4902    1.6451 H   0  0  0  0  0  0  0  0  0  0  0  0
   -4.9136   -1.0459    3.2153 H   0  0  0  0  0  0  0  0  0  0  0  0
    1.6670    5.0264    0.9497 H   0  0  0  0  0  0  0  0  0  0  0  0
    9.1410   -0.3995    1.6252 H   0  0  0  0  0  0  0  0  0  0  0  0
    3.8635    1.7588    0.0677 H   0  0  0  0  0  0  0  0  0  0  0  0
    0.6376   -4.3471    1.4507 H   0  0  0  0  0  0  0  0  0  0  0  0
    3.9872    5.1061    1.3973 H   0  0  0  0  0  0  0  0  0  0  0  0
   -6.6606    1.0468    1.8593 H   0  0  0  0  0  0  0  0  0  0  0  0
    2.0989   -4.4810   -0.3883 H   0  0  0  0  0  0  0  0  0  0  0  0
    5.5968    4.2717   -0.2610 H   0  0  0  0  0  0  0  0  0  0  0  0
    2.5841   -1.1892   -1.1941 H   0  0  0  0  0  0  0  0  0  0  0  0
    2.7036   -2.7440   -2.0347 H   0  0  0  0  0  0  0  0  0  0  0  0
    4.1498   -1.8084   -1.7571 H   0  0  0  0  0  0  0  0  0  0  0  0
   -8.1816    0.1514    3.1862 H   0  0  0  0  0  0  0  0  0  0  0  0
   -6.6086   -2.5774   -0.8577 H   0  0  0  0  0  0  0  0  0  0  0  0
   -7.8076   -1.3565   -1.3244 H   0  0  0  0  0  0  0  0  0  0  0  0
   -4.0640   -0.7205   -1.4051 H   0  0  0  0  0  0  0  0  0  0  0  0
   -3.9418   -0.9701   -3.1413 H   0  0  0  0  0  0  0  0  0  0  0  0
   -4.3574   -3.4564   -2.7120 H   0  0  0  0  0  0  0  0  0  0  0  0
   -4.3466   -3.1196   -0.9897 H   0  0  0  0  0  0  0  0  0  0  0  0
   -1.9960   -2.3279   -1.1213 H   0  0  0  0  0  0  0  0  0  0  0  0
   -0.9256   -4.5264   -1.5066 H   0  0  0  0  0  0  0  0  0  0  0  0
   -2.4333   -4.7211   -0.6015 H   0  0  0  0  0  0  0  0  0  0  0  0
   -2.3821   -5.1190   -2.3277 H   0  0  0  0  0  0  0  0  0  0  0  0
   -0.7209   -2.8182   -3.2636 H   0  0  0  0  0  0  0  0  0  0  0  0
   -1.8695   -1.5011   -3.4185 H   0  0  0  0  0  0  0  0  0  0  0  0
   -2.2667   -3.1026   -4.0782 H   0  0  0  0  0  0  0  0  0  0  0  0
   -7.5575   -0.6278   -3.5440 H   0  0  0  0  0  0  0  0  0  0  0  0
   -5.8907   -0.5056   -4.3401 H   0  0  0  0  0  0  0  0  0  0  0  0
  1 12  1  0  0  0  0
  1 14  1  0  0  0  0
  2 11  1  0  0  0  0
  2 25  1  0  0  0  0
  3 15  1  0  0  0  0
  3 66  1  0  0  0  0
  4 22  1  0  0  0  0
  4 24  1  0  0  0  0
  5 21  1  0  0  0  0
  5 85  1  0  0  0  0
  6 25  2  0  0  0  0
  7 38  1  0  0  0  0
  7 95  1  0  0  0  0
  8 42  1  0  0  0  0
  8 43  1  0  0  0  0
  9 42  2  0  0  0  0
 10 11  1  0  0  0  0
 10 12  1  0  0  0  0
 10 15  1  0  0  0  0
 10 16  1  0  0  0  0
 11 13  1  0  0  0  0
 11 51  1  0  0  0  0
 12 17  1  0  0  0  0
 12 52  1  0  0  0  0
 13 14  1  0  0  0  0
 13 53  1  0  0  0  0
 13 54  1  0  0  0  0
 14 18  1  0  0  0  0
 14 55  1  0  0  0  0
 15 56  1  0  0  0  0
 15 57  1  0  0  0  0
 16 58  1  0  0  0  0
 16 59  1  0  0  0  0
 16 60  1  0  0  0  0
 17 19  1  0  0  0  0
 17 61  1  0  0  0  0
 17 62  1  0  0  0  0
 18 26  2  0  0  0  0
 18 63  1  0  0  0  0
 19 27  2  0  0  0  0
 19 64  1  0  0  0  0
 20 21  1  0  0  0  0
 20 22  1  0  0  0  0
 20 29  1  0  0  0  0
 20 65  1  0  0  0  0
 21 23  1  0  0  0  0
 21 67  1  0  0  0  0
 22 31  1  0  0  0  0
 22 68  1  0  0  0  0
 23 24  1  0  0  0  0
 23 69  1  0  0  0  0
 23 70  1  0  0  0  0
 24 28  1  0  0  0  0
 24 71  1  0  0  0  0
 25 33  1  0  0  0  0
 26 30  1  0  0  0  0
 26 72  1  0  0  0  0
 27 32  1  0  0  0  0
 27 73  1  0  0  0  0
 28 35  1  0  0  0  0
 28 74  1  0  0  0  0
 28 75  1  0  0  0  0
 29 76  1  0  0  0  0
 29 77  1  0  0  0  0
 29 78  1  0  0  0  0
 30 36  1  0  0  0  0
 30 79  1  0  0  0  0
 30 80  1  0  0  0  0
 31 34  2  0  0  0  0
 31 81  1  0  0  0  0
 32 38  1  0  0  0  0
 32 82  1  0  0  0  0
 32 83  1  0  0  0  0
 33 37  2  0  0  0  0
 33 84  1  0  0  0  0
 34 39  1  0  0  0  0
 34 41  1  0  0  0  0
 35 40  2  0  0  0  0
 35 86  1  0  0  0  0
 36 39  2  0  0  0  0
 36 87  1  0  0  0  0
 37 40  1  0  0  0  0
 37 88  1  0  0  0  0
 38 42  1  0  0  0  0
 38 89  1  0  0  0  0
 39 90  1  0  0  0  0
 40 91  1  0  0  0  0
 41 92  1  0  0  0  0
 41 93  1  0  0  0  0
 41 94  1  0  0  0  0
 43 44  1  0  0  0  0
 43 96  1  0  0  0  0
 43 97  1  0  0  0  0
 44 45  1  0  0  0  0
 44 50  2  0  0  0  0
 45 46  1  0  0  0  0
 45 98  1  0  0  0  0
 45 99  1  0  0  0  0
 46 47  1  0  0  0  0
 46100  1  0  0  0  0
 46101  1  0  0  0  0
 47 48  1  0  0  0  0
 47 49  1  0  0  0  0
 47102  1  0  0  0  0
 48103  1  0  0  0  0
 48104  1  0  0  0  0
 48105  1  0  0  0  0
 49106  1  0  0  0  0
 49107  1  0  0  0  0
 49108  1  0  0  0  0
 50109  1  0  0  0  0
 50110  1  0  0  0  0
M  END
> <PUBCHEM_COMPOUND_CID>
56928132

> <PUBCHEM_CONFORMER_RMSD>
1.4

> <PUBCHEM_CONFORMER_DIVERSEORDER>
1
61
40
76
60
77
55
78
56
48
57
42
45
79
15
7
71
58
17
29
69
52
18
62
22
64
4
20
38
21
67
46
24
87
25
63
68
84
30
11
51
16
19
6
83
26
2
82
35
43
85
50
28
70
36
88
23
9
66
12
53
5
72
33
39
34
81
74
86
75
14
31
13
10
47
49
54
32
3
27
37
73
59
8
80
41
44
65

> <PUBCHEM_MMFF94_PARTIAL_CHARGES>
56
1 -0.56
109 0.15
11 0.28
110 0.15
12 0.28
14 0.42
15 0.28
17 0.14
18 -0.29
19 -0.29
2 -0.43
21 0.28
22 0.42
24 0.28
25 0.71
26 -0.29
27 -0.29
28 0.14
3 -0.68
30 0.28
31 -0.29
32 0.14
33 -0.14
34 -0.14
35 -0.29
36 -0.29
37 -0.15
38 0.34
39 -0.15
4 -0.56
40 -0.15
41 0.14
42 0.66
43 0.42
44 -0.28
45 0.14
5 -0.68
50 -0.3
6 -0.57
63 0.15
64 0.15
66 0.4
7 -0.68
72 0.15
73 0.15
8 -0.43
81 0.15
84 0.15
85 0.4
86 0.15
87 0.15
88 0.15
9 -0.57
90 0.15
91 0.15
95 0.4

> <PUBCHEM_EFFECTIVE_ROTOR_COUNT>
14.2

> <PUBCHEM_PHARMACOPHORE_FEATURES>
15
1 1 acceptor
1 3 acceptor
1 3 donor
1 4 acceptor
1 5 acceptor
1 5 donor
1 50 hydrophobe
1 6 acceptor
1 7 acceptor
1 7 donor
1 9 acceptor
3 47 48 49 hydrophobe
4 44 45 46 47 hydrophobe
6 1 10 11 12 13 14 rings
6 4 20 21 22 23 24 rings

> <PUBCHEM_HEAVY_ATOM_COUNT>
50

> <PUBCHEM_ATOM_DEF_STEREO_COUNT>
9

> <PUBCHEM_ATOM_UDEF_STEREO_COUNT>
0

> <PUBCHEM_BOND_DEF_STEREO_COUNT>
6

> <PUBCHEM_BOND_UDEF_STEREO_COUNT>
0

> <PUBCHEM_ISOTOPIC_ATOM_COUNT>
0

> <PUBCHEM_COMPONENT_COUNT>
1

> <PUBCHEM_CACTVS_TAUTO_COUNT>
3

> <PUBCHEM_CONFORMER_ID>
0364A78400000001

> <PUBCHEM_MMFF94_ENERGY>
106.8846

> <PUBCHEM_FEATURE_SELFOVERLAP>
76.149

> <PUBCHEM_SHAPE_FINGERPRINT>
10677394 325 18336550395703979166
11227688 84 18127980908368668152
14017579 102 17905043656113159216
15276724 80 18336272326753002414
15328829 1 18186798067726827147
16112460 7 18333446526045267639
563151 248 18188474792699482289
9982175 49 18333728009959994367

> <PUBCHEM_SHAPE_MULTIPOLES>
976.15
21.36
6.41
3.12
7.39
3.36
0.39
-10.99
4.11
4.79
-2.34
-7.49
-0.98
-3.46

> <PUBCHEM_SHAPE_SELFOVERLAP>
1975.963

> <PUBCHEM_SHAPE_VOLUME>
560

> <PUBCHEM_COORDINATE_TYPE>
2
5
10

$$$$

