13827
  -OEChem-06241222402D

 17 16  0     1  0  0  0  0  0999 V2000
    5.1350   -1.0950    0.0000 S   0  0  0  0  0  0  0  0  0  0  0  0
    6.8671   -0.0950    0.0000 O   0  0  0  0  0  0  0  0  0  0  0  0
    6.0010    1.4050    0.0000 O   0  0  0  0  0  0  0  0  0  0  0  0
    2.5369    0.4050    0.0000 N   0  0  0  0  0  0  0  0  0  0  0  0
    4.2690    0.4050    0.0000 C   0  0  0  0  0  0  0  0  0  0  0  0
    5.1350   -0.0950    0.0000 C   0  0  3  0  0  0  0  0  0  0  0  0
    3.4030   -0.0950    0.0000 C   0  0  0  0  0  0  0  0  0  0  0  0
    6.0010    0.4050    0.0000 C   0  0  0  0  0  0  0  0  0  0  0  0
    4.6675    0.8799    0.0000 H   0  0  0  0  0  0  0  0  0  0  0  0
    3.8705    0.8799    0.0000 H   0  0  0  0  0  0  0  0  0  0  0  0
    5.6720   -0.4050    0.0000 H   0  0  0  0  0  0  0  0  0  0  0  0
    3.0044   -0.5699    0.0000 H   0  0  0  0  0  0  0  0  0  0  0  0
    3.8015   -0.5699    0.0000 H   0  0  0  0  0  0  0  0  0  0  0  0
    2.0000    0.0950    0.0000 H   0  0  0  0  0  0  0  0  0  0  0  0
    2.5369    1.0250    0.0000 H   0  0  0  0  0  0  0  0  0  0  0  0
    4.5981   -1.4050    0.0000 H   0  0  0  0  0  0  0  0  0  0  0  0
    7.4040    0.2150    0.0000 H   0  0  0  0  0  0  0  0  0  0  0  0
  1  6  1  0  0  0  0
  1 16  1  0  0  0  0
  2  8  1  0  0  0  0
  2 17  1  0  0  0  0
  3  8  2  0  0  0  0
  4  7  1  0  0  0  0
  4 14  1  0  0  0  0
  4 15  1  0  0  0  0
  5  6  1  0  0  0  0
  5  7  1  0  0  0  0
  5  9  1  0  0  0  0
  5 10  1  0  0  0  0
  6  8  1  0  0  0  0
  6 11  1  0  0  0  0
  7 12  1  0  0  0  0
  7 13  1  0  0  0  0
M  END
> <PUBCHEM_COMPOUND_CID>
13827

> <PUBCHEM_COMPOUND_CANONICALIZED>
1

> <PUBCHEM_CACTVS_COMPLEXITY>
86.1

> <PUBCHEM_CACTVS_HBOND_ACCEPTOR>
4

> <PUBCHEM_CACTVS_HBOND_DONOR>
3

> <PUBCHEM_CACTVS_ROTATABLE_BOND>
3

> <PUBCHEM_CACTVS_SUBSKEYS>
AAADccBiMABAAAAAAAAAAAAAAAAAAAAAAAAAAAAAAAAAAAAAAAAAHgQQCAAACADFwASACABAAgQIAACQCAAAAAAAAAAAAIEAAAAAABAAgAAAQAAEEAAAAAAkAAAAAAAAAAAAAAAAAAAAAAAAAAAAAAAAAA==

> <PUBCHEM_IUPAC_OPENEYE_NAME>
4-amino-2-sulfanyl-butanoic acid

> <PUBCHEM_IUPAC_CAS_NAME>
4-amino-2-mercaptobutanoic acid

> <PUBCHEM_IUPAC_NAME>
4-amino-2-sulfanylbutanoic acid

> <PUBCHEM_IUPAC_SYSTEMATIC_NAME>
4-azanyl-2-sulfanyl-butanoic acid

> <PUBCHEM_IUPAC_TRADITIONAL_NAME>
4-amino-2-mercapto-butyric acid

> <PUBCHEM_IUPAC_INCHI>
InChI=1S/C4H9NO2S/c5-2-1-3(8)4(6)7/h3,8H,1-2,5H2,(H,6,7)

> <PUBCHEM_IUPAC_INCHIKEY>
KFSKBSQZHMNWEO-UHFFFAOYSA-N

> <PUBCHEM_XLOGP3_AA>
-2.7

> <PUBCHEM_EXACT_MASS>
135.0354

> <PUBCHEM_MOLECULAR_FORMULA>
C4H9NO2S

> <PUBCHEM_MOLECULAR_WEIGHT>
135.18476

> <PUBCHEM_OPENEYE_CAN_SMILES>
C(CN)C(C(=O)O)S

> <PUBCHEM_OPENEYE_ISO_SMILES>
C(CN)C(C(=O)O)S

> <PUBCHEM_CACTVS_TPSA>
64.3

> <PUBCHEM_MONOISOTOPIC_WEIGHT>
135.0354

> <PUBCHEM_TOTAL_CHARGE>
0

> <PUBCHEM_HEAVY_ATOM_COUNT>
8

> <PUBCHEM_ATOM_DEF_STEREO_COUNT>
0

> <PUBCHEM_ATOM_UDEF_STEREO_COUNT>
1

> <PUBCHEM_BOND_DEF_STEREO_COUNT>
0

> <PUBCHEM_BOND_UDEF_STEREO_COUNT>
0

> <PUBCHEM_ISOTOPIC_ATOM_COUNT>
0

> <PUBCHEM_COMPONENT_COUNT>
1

> <PUBCHEM_CACTVS_TAUTO_COUNT>
1

> <PUBCHEM_COORDINATE_TYPE>
1
5
255

> <PUBCHEM_BONDANNOTATIONS>
6  1  3

$$$$

