12360
  -OEChem-06261206512D

  3  2  0     0  0  0  0  0  0999 V2000
    3.7320    0.5000    0.0000 O   0  5  0  0  0  0  0  0  0  0  0  0
    2.8660    0.0000    0.0000 N   0  3  0  0  0  0  0  0  0  0  0  0
    2.0000   -0.5000    0.0000 C   0  5  0  0  0  0  0  0  0  0  0  0
  1  2  1  0  0  0  0
  2  3  3  0  0  0  0
M  CHG  3   1  -1   2   1   3  -1
M  END
> <PUBCHEM_COMPOUND_CID>
12360

> <PUBCHEM_COMPOUND_CANONICALIZED>
1

> <PUBCHEM_CACTVS_COMPLEXITY>
31.3

> <PUBCHEM_CACTVS_HBOND_ACCEPTOR>
2

> <PUBCHEM_CACTVS_HBOND_DONOR>
0

> <PUBCHEM_CACTVS_ROTATABLE_BOND>
0

> <PUBCHEM_CACTVS_SUBSKEYS>
AAADcQACIAAAAAAAAAAAAAAAAAAAAAAAAAAAAAAAAAAAAAAAAAAABAAEAAAAAAAAAAAAAAAQAAAQAAAAAAAAAAAAAAAAAAAAAAAAAAAAAAAAAAAAAAAAAAAAAAAAAAAAAAAAAAAAAAAAAAAAAAAAAAAAAA==

> <PUBCHEM_IUPAC_OPENEYE_NAME>
fulminate

> <PUBCHEM_IUPAC_CAS_NAME>
oxidonitriliomethane

> <PUBCHEM_IUPAC_NAME>
oxidoazaniumylidynemethane

> <PUBCHEM_IUPAC_SYSTEMATIC_NAME>
oxidanidylazaniumylidynemethane

> <PUBCHEM_IUPAC_TRADITIONAL_NAME>
fulminate

> <PUBCHEM_IUPAC_INCHI>
InChI=1S/CNO/c1-2-3/q-1

> <PUBCHEM_IUPAC_INCHIKEY>
USXDFAGDIOXNML-UHFFFAOYSA-N

> <PUBCHEM_XLOGP3_AA>
-0.5

> <PUBCHEM_EXACT_MASS>
41.997989

> <PUBCHEM_MOLECULAR_FORMULA>
CNO-

> <PUBCHEM_MOLECULAR_WEIGHT>
42.0168

> <PUBCHEM_OPENEYE_CAN_SMILES>
[C-]#[N+][O-]

> <PUBCHEM_OPENEYE_ISO_SMILES>
[C-]#[N+][O-]

> <PUBCHEM_CACTVS_TPSA>
30.7

> <PUBCHEM_MONOISOTOPIC_WEIGHT>
41.997989

> <PUBCHEM_TOTAL_CHARGE>
-1

> <PUBCHEM_HEAVY_ATOM_COUNT>
3

> <PUBCHEM_ATOM_DEF_STEREO_COUNT>
0

> <PUBCHEM_ATOM_UDEF_STEREO_COUNT>
0

> <PUBCHEM_BOND_DEF_STEREO_COUNT>
0

> <PUBCHEM_BOND_UDEF_STEREO_COUNT>
0

> <PUBCHEM_ISOTOPIC_ATOM_COUNT>
0

> <PUBCHEM_COMPONENT_COUNT>
1

> <PUBCHEM_CACTVS_TAUTO_COUNT>
1

> <PUBCHEM_COORDINATE_TYPE>
1
5
255

$$$$

