250364
  -OEChem-07051213063D

 52 55  0     1  0  0  0  0  0999 V2000
    4.9875    1.6431   -0.2777 O   0  0  0  0  0  0  0  0  0  0  0  0
    5.8273   -0.1546    0.9053 O   0  0  0  0  0  0  0  0  0  0  0  0
   -2.8256   -2.8543    0.4682 O   0  0  0  0  0  0  0  0  0  0  0  0
   -5.9397    1.0949    0.3816 O   0  0  0  0  0  0  0  0  0  0  0  0
    2.4760    0.1320   -0.0827 C   0  0  1  0  0  0  0  0  0  0  0  0
    1.6107   -1.0751   -0.5040 C   0  0  1  0  0  0  0  0  0  0  0  0
    3.8711   -0.4017   -0.4742 C   0  0  2  0  0  0  0  0  0  0  0  0
    2.3593   -2.2620    0.1030 C   0  0  0  0  0  0  0  0  0  0  0  0
    1.9915    1.3241   -0.9129 C   0  0  0  0  0  0  0  0  0  0  0  0
    3.8429   -1.8845   -0.0526 C   0  0  0  0  0  0  0  0  0  0  0  0
    0.1439   -0.8621   -0.2486 C   0  0  0  0  0  0  0  0  0  0  0  0
    2.4034    0.4577    1.4323 C   0  0  0  0  0  0  0  0  0  0  0  0
    0.5083    1.6351   -0.6445 C   0  0  0  0  0  0  0  0  0  0  0  0
   -0.4050    0.4402   -0.3744 C   0  0  0  0  0  0  0  0  0  0  0  0
    5.0119    0.3464    0.1427 C   0  0  0  0  0  0  0  0  0  0  0  0
   -0.6959   -1.9443    0.0235 C   0  0  0  0  0  0  0  0  0  0  0  0
   -1.8065    0.6423   -0.1876 C   0  0  0  0  0  0  0  0  0  0  0  0
   -2.6297   -0.4759    0.0997 C   0  0  0  0  0  0  0  0  0  0  0  0
   -2.0632   -1.7519    0.1995 C   0  0  0  0  0  0  0  0  0  0  0  0
   -2.4358    1.9071   -0.2679 C   0  0  0  0  0  0  0  0  0  0  0  0
   -4.0122   -0.3079    0.2863 C   0  0  0  0  0  0  0  0  0  0  0  0
   -3.8114    2.0591   -0.0791 C   0  0  0  0  0  0  0  0  0  0  0  0
    6.0291    2.4770    0.2395 C   0  0  0  0  0  0  0  0  0  0  0  0
   -4.5996    0.9513    0.1969 C   0  0  0  0  0  0  0  0  0  0  0  0
   -3.3658   -3.5509   -0.6502 C   0  0  0  0  0  0  0  0  0  0  0  0
   -6.4725    2.4148    0.2778 C   0  0  0  0  0  0  0  0  0  0  0  0
    1.6825   -1.1984   -1.5981 H   0  0  0  0  0  0  0  0  0  0  0  0
    4.0107   -0.3653   -1.5638 H   0  0  0  0  0  0  0  0  0  0  0  0
    2.1311   -3.2014   -0.4115 H   0  0  0  0  0  0  0  0  0  0  0  0
    2.1085   -2.3997    1.1613 H   0  0  0  0  0  0  0  0  0  0  0  0
    2.1134    1.1040   -1.9822 H   0  0  0  0  0  0  0  0  0  0  0  0
    2.5824    2.2260   -0.7201 H   0  0  0  0  0  0  0  0  0  0  0  0
    4.3721   -2.0920    0.8834 H   0  0  0  0  0  0  0  0  0  0  0  0
    4.3140   -2.5004   -0.8278 H   0  0  0  0  0  0  0  0  0  0  0  0
    1.3778    0.5942    1.7875 H   0  0  0  0  0  0  0  0  0  0  0  0
    2.8473   -0.3310    2.0486 H   0  0  0  0  0  0  0  0  0  0  0  0
    2.9430    1.3848    1.6568 H   0  0  0  0  0  0  0  0  0  0  0  0
    0.1262    2.1945   -1.5071 H   0  0  0  0  0  0  0  0  0  0  0  0
    0.4538    2.2968    0.2298 H   0  0  0  0  0  0  0  0  0  0  0  0
   -0.2901   -2.9505    0.0940 H   0  0  0  0  0  0  0  0  0  0  0  0
   -1.8589    2.8047   -0.4796 H   0  0  0  0  0  0  0  0  0  0  0  0
   -4.6565   -1.1550    0.5134 H   0  0  0  0  0  0  0  0  0  0  0  0
   -4.1960    3.0700   -0.1620 H   0  0  0  0  0  0  0  0  0  0  0  0
    7.0074    2.0969   -0.0695 H   0  0  0  0  0  0  0  0  0  0  0  0
    5.9622    2.5328    1.3302 H   0  0  0  0  0  0  0  0  0  0  0  0
    5.8963    3.4811   -0.1720 H   0  0  0  0  0  0  0  0  0  0  0  0
   -4.0207   -4.3430   -0.2767 H   0  0  0  0  0  0  0  0  0  0  0  0
   -2.5626   -4.0104   -1.2351 H   0  0  0  0  0  0  0  0  0  0  0  0
   -3.9547   -2.8835   -1.2872 H   0  0  0  0  0  0  0  0  0  0  0  0
   -6.3383    2.8246   -0.7291 H   0  0  0  0  0  0  0  0  0  0  0  0
   -6.0661    3.0746    1.0518 H   0  0  0  0  0  0  0  0  0  0  0  0
   -7.5510    2.3427    0.4527 H   0  0  0  0  0  0  0  0  0  0  0  0
  1 15  1  0  0  0  0
  1 23  1  0  0  0  0
  2 15  2  0  0  0  0
  3 19  1  0  0  0  0
  3 25  1  0  0  0  0
  4 24  1  0  0  0  0
  4 26  1  0  0  0  0
  5  6  1  0  0  0  0
  5  7  1  0  0  0  0
  5  9  1  0  0  0  0
  5 12  1  0  0  0  0
  6  8  1  0  0  0  0
  6 11  1  0  0  0  0
  6 27  1  0  0  0  0
  7 10  1  0  0  0  0
  7 15  1  0  0  0  0
  7 28  1  0  0  0  0
  8 10  1  0  0  0  0
  8 29  1  0  0  0  0
  8 30  1  0  0  0  0
  9 13  1  0  0  0  0
  9 31  1  0  0  0  0
  9 32  1  0  0  0  0
 10 33  1  0  0  0  0
 10 34  1  0  0  0  0
 11 14  1  0  0  0  0
 11 16  2  0  0  0  0
 12 35  1  0  0  0  0
 12 36  1  0  0  0  0
 12 37  1  0  0  0  0
 13 14  1  0  0  0  0
 13 38  1  0  0  0  0
 13 39  1  0  0  0  0
 14 17  2  0  0  0  0
 16 19  1  0  0  0  0
 16 40  1  0  0  0  0
 17 18  1  0  0  0  0
 17 20  1  0  0  0  0
 18 19  2  0  0  0  0
 18 21  1  0  0  0  0
 20 22  2  0  0  0  0
 20 41  1  0  0  0  0
 21 24  2  0  0  0  0
 21 42  1  0  0  0  0
 22 24  1  0  0  0  0
 22 43  1  0  0  0  0
 23 44  1  0  0  0  0
 23 45  1  0  0  0  0
 23 46  1  0  0  0  0
 25 47  1  0  0  0  0
 25 48  1  0  0  0  0
 25 49  1  0  0  0  0
 26 50  1  0  0  0  0
 26 51  1  0  0  0  0
 26 52  1  0  0  0  0
M  END
> <PUBCHEM_COMPOUND_CID>
250364

> <PUBCHEM_CONFORMER_RMSD>
0.8

> <PUBCHEM_CONFORMER_DIVERSEORDER>
1
2

> <PUBCHEM_MMFF94_PARTIAL_CHARGES>
23
1 -0.43
11 -0.14
13 0.14
14 -0.14
15 0.66
16 -0.15
19 0.08
2 -0.57
20 -0.15
21 -0.15
22 -0.15
23 0.28
24 0.08
25 0.28
26 0.28
3 -0.36
4 -0.36
40 0.15
41 0.15
42 0.15
43 0.15
6 0.14
7 0.06

> <PUBCHEM_EFFECTIVE_ROTOR_COUNT>
5

> <PUBCHEM_PHARMACOPHORE_FEATURES>
7
1 2 acceptor
1 3 acceptor
1 4 acceptor
5 5 6 7 8 10 rings
6 11 14 16 17 18 19 rings
6 17 18 20 21 22 24 rings
6 5 6 9 11 13 14 rings

> <PUBCHEM_HEAVY_ATOM_COUNT>
26

> <PUBCHEM_ATOM_DEF_STEREO_COUNT>
3

> <PUBCHEM_ATOM_UDEF_STEREO_COUNT>
0

> <PUBCHEM_BOND_DEF_STEREO_COUNT>
0

> <PUBCHEM_BOND_UDEF_STEREO_COUNT>
0

> <PUBCHEM_ISOTOPIC_ATOM_COUNT>
0

> <PUBCHEM_COMPONENT_COUNT>
1

> <PUBCHEM_CACTVS_TAUTO_COUNT>
1

> <PUBCHEM_CONFORMER_ID>
0003D1FC00000001

> <PUBCHEM_MMFF94_ENERGY>
108.6061

> <PUBCHEM_FEATURE_SELFOVERLAP>
35.627

> <PUBCHEM_SHAPE_FINGERPRINT>
10 15 18201716245413296048
10319926 262 18336844017792507242
10366900 7 17385444340696278769
10411042 1 17833831569748350687
10493431 412 18411979195999228229
10616163 171 18410852118702199663
10906281 52 17895740890177547633
1100329 8 18412823556194088581
11578080 2 17605003520060963315
11595378 159 17203339952192113980
12107183 9 18197224852526203202
12236239 1 17846778498751413248
12403259 415 18128255778002598125
12616971 3 16988842748547197894
12838862 33 18269009703329818229
12925494 130 18262806137945043977
13140716 1 18340768126634905621
13533116 47 17895758546323793251
13583140 156 17676492696209184510
14341114 176 18410848888833668616
14790565 3 18193271030145391113
15042514 8 18341604881613329115
15196674 1 18411417319181274847
1601671 61 18410856547451466796
17980427 23 17917146079414719652
1813 80 16774072994794200878
19141452 34 18412825798156156023
19591789 44 17981043338543290151
20511986 3 18272382952846444828
20642791 13 18341332171773715799
20642791 178 18057594374663999748
21033648 144 18411991251482208205
21033648 29 18265348363811015121
21236236 1 18336548222872708615
21267235 1 18197207251565438430
21421861 104 17845384404513648250
21521721 280 18335413630463625753
21859007 373 17488193779901556349
23227448 37 18410011022598003943
23402539 116 18408327700798590797
23557571 272 18115021905536958751
23558518 356 17771898338316818787
23559900 14 18263081171266836582
25147074 1 18059286544232686125
335352 9 18340202006921845318
34797466 226 17677039149725998172
34934 24 18411983563374605662
350125 39 18265331707584202423
3545911 37 18410853291449343188
4073 2 18201715116564800146
4340502 62 18410856598695590796
5104073 3 18343587309267022938
7808743 9 18411141320314305521
9709674 26 18335415798388570534

> <PUBCHEM_SHAPE_MULTIPOLES>
511.59
13.26
3.23
0.83
0.79
1.6
-0.08
-8.2
-2.09
-2.21
0.22
0.34
-0.05
-0.24

> <PUBCHEM_SHAPE_SELFOVERLAP>
1119.537

> <PUBCHEM_SHAPE_VOLUME>
280.5

> <PUBCHEM_COORDINATE_TYPE>
2
5
10

$$$$

