164630
  -OEChem-07051212572D

 74 78  0     1  0  0  0  0  0999 V2000
    4.2690    0.6550    0.0000 O   0  0  0  0  0  0  0  0  0  0  0  0
   13.8671    0.1275    0.0000 O   0  0  0  0  0  0  0  0  0  0  0  0
    5.1350   -0.8450    0.0000 O   0  0  0  0  0  0  0  0  0  0  0  0
   12.9953   -1.3692    0.0000 O   0  0  0  0  0  0  0  0  0  0  0  0
    6.8671    2.1550    0.0000 O   0  0  0  0  0  0  0  0  0  0  0  0
    5.1350    3.1550    0.0000 O   0  0  0  0  0  0  0  0  0  0  0  0
   16.4593   -1.3825    0.0000 O   0  0  0  0  0  0  0  0  0  0  0  0
   16.4671    0.6175    0.0000 O   0  0  0  0  0  0  0  0  0  0  0  0
    6.8671    0.1550    0.0000 O   0  0  0  0  0  0  0  0  0  0  0  0
   14.7234   -2.3758    0.0000 O   0  0  0  0  0  0  0  0  0  0  0  0
    9.4651   -1.3450    0.0000 O   0  0  0  0  0  0  0  0  0  0  0  0
    2.5369    1.6550    0.0000 O   0  0  0  0  0  0  0  0  0  0  0  0
   15.6068    2.1208    0.0000 O   0  0  0  0  0  0  0  0  0  0  0  0
    5.1350   -2.8450    0.0000 O   0  0  0  0  0  0  0  0  0  0  0  0
    9.4651    1.6550    0.0000 O   0  0  0  0  0  0  0  0  0  0  0  0
    6.0010    1.6550    0.0000 C   0  0  1  0  0  0  0  0  0  0  0  0
    5.1350    2.1550    0.0000 C   0  0  1  0  0  0  0  0  0  0  0  0
   15.5952   -0.8792    0.0000 C   0  0  1  0  0  0  0  0  0  0  0  0
   15.5991    0.1208    0.0000 C   0  0  1  0  0  0  0  0  0  0  0  0
    6.0010    0.6550    0.0000 C   0  0  2  0  0  0  0  0  0  0  0  0
    4.2690    1.6550    0.0000 C   0  0  1  0  0  0  0  0  0  0  0  0
   14.7273   -1.3758    0.0000 C   0  0  2  0  0  0  0  0  0  0  0  0
   14.7350    0.6242    0.0000 C   0  0  1  0  0  0  0  0  0  0  0  0
    5.1350    0.1550    0.0000 C   0  0  1  0  0  0  0  0  0  0  0  0
   13.8632   -0.8725    0.0000 C   0  0  1  0  0  0  0  0  0  0  0  0
    3.4030    2.1550    0.0000 C   0  0  0  0  0  0  0  0  0  0  0  0
   14.7389    1.6242    0.0000 C   0  0  0  0  0  0  0  0  0  0  0  0
    8.5991   -0.8450    0.0000 C   0  0  2  0  0  0  0  0  0  0  0  0
    6.0010   -1.3450    0.0000 C   0  0  0  0  0  0  0  0  0  0  0  0
   12.1312   -0.8658    0.0000 C   0  0  0  0  0  0  0  0  0  0  0  0
    7.7331   -1.3450    0.0000 C   0  0  0  0  0  0  0  0  0  0  0  0
    8.5991    0.1550    0.0000 C   0  0  0  0  0  0  0  0  0  0  0  0
   10.3312   -0.8450    0.0000 C   0  0  0  0  0  0  0  0  0  0  0  0
    6.8671   -0.8450    0.0000 C   0  0  0  0  0  0  0  0  0  0  0  0
   10.3312    0.1550    0.0000 C   0  0  0  0  0  0  0  0  0  0  0  0
   11.2251   -1.3797    0.0000 C   0  0  0  0  0  0  0  0  0  0  0  0
    9.4651    0.6550    0.0000 C   0  0  0  0  0  0  0  0  0  0  0  0
   12.1312    0.1758    0.0000 C   0  0  0  0  0  0  0  0  0  0  0  0
    6.0010   -2.3450    0.0000 C   0  0  0  0  0  0  0  0  0  0  0  0
   11.2251    0.6897    0.0000 C   0  0  0  0  0  0  0  0  0  0  0  0
    7.7331   -2.3450    0.0000 C   0  0  0  0  0  0  0  0  0  0  0  0
    6.8671   -2.8450    0.0000 C   0  0  0  0  0  0  0  0  0  0  0  0
    6.5380    1.3450    0.0000 H   0  0  0  0  0  0  0  0  0  0  0  0
    5.6720    2.4650    0.0000 H   0  0  0  0  0  0  0  0  0  0  0  0
   15.5929   -1.4992    0.0000 H   0  0  0  0  0  0  0  0  0  0  0  0
   15.6015    0.7408    0.0000 H   0  0  0  0  0  0  0  0  0  0  0  0
    6.5380    0.9650    0.0000 H   0  0  0  0  0  0  0  0  0  0  0  0
    3.7320    1.3450    0.0000 H   0  0  0  0  0  0  0  0  0  0  0  0
   14.1892   -1.6838    0.0000 H   0  0  0  0  0  0  0  0  0  0  0  0
   14.1993    0.9362    0.0000 H   0  0  0  0  0  0  0  0  0  0  0  0
    5.6720   -0.1550    0.0000 H   0  0  0  0  0  0  0  0  0  0  0  0
   13.3275   -0.5604    0.0000 H   0  0  0  0  0  0  0  0  0  0  0  0
    3.8015    2.6300    0.0000 H   0  0  0  0  0  0  0  0  0  0  0  0
    3.0044    2.6300    0.0000 H   0  0  0  0  0  0  0  0  0  0  0  0
   14.5291    2.2076    0.0000 H   0  0  0  0  0  0  0  0  0  0  0  0
   14.1279    1.5188    0.0000 H   0  0  0  0  0  0  0  0  0  0  0  0
    6.8671    2.7750    0.0000 H   0  0  0  0  0  0  0  0  0  0  0  0
    4.5981    3.4650    0.0000 H   0  0  0  0  0  0  0  0  0  0  0  0
   16.9975   -1.0746    0.0000 H   0  0  0  0  0  0  0  0  0  0  0  0
   17.0028    0.3054    0.0000 H   0  0  0  0  0  0  0  0  0  0  0  0
    7.4040    0.4650    0.0000 H   0  0  0  0  0  0  0  0  0  0  0  0
   15.2592   -2.6879    0.0000 H   0  0  0  0  0  0  0  0  0  0  0  0
    8.5991   -1.4650    0.0000 H   0  0  0  0  0  0  0  0  0  0  0  0
    8.3871    0.7376    0.0000 H   0  0  0  0  0  0  0  0  0  0  0  0
    7.9885    0.0473    0.0000 H   0  0  0  0  0  0  0  0  0  0  0  0
    6.8671   -0.2250    0.0000 H   0  0  0  0  0  0  0  0  0  0  0  0
   11.2179   -1.9996    0.0000 H   0  0  0  0  0  0  0  0  0  0  0  0
    2.0000    1.9650    0.0000 H   0  0  0  0  0  0  0  0  0  0  0  0
   15.6092    2.7408    0.0000 H   0  0  0  0  0  0  0  0  0  0  0  0
   12.6669    0.4879    0.0000 H   0  0  0  0  0  0  0  0  0  0  0  0
   11.2179    1.3096    0.0000 H   0  0  0  0  0  0  0  0  0  0  0  0
    8.2700   -2.6550    0.0000 H   0  0  0  0  0  0  0  0  0  0  0  0
    6.8671   -3.4650    0.0000 H   0  0  0  0  0  0  0  0  0  0  0  0
    5.1350   -3.4650    0.0000 H   0  0  0  0  0  0  0  0  0  0  0  0
  1 21  1  0  0  0  0
  1 24  1  0  0  0  0
  2 23  1  0  0  0  0
  2 25  1  0  0  0  0
 24  3  1  6  0  0  0
  3 29  1  0  0  0  0
 25  4  1  6  0  0  0
  4 30  1  0  0  0  0
 16  5  1  6  0  0  0
  5 57  1  0  0  0  0
 17  6  1  1  0  0  0
  6 58  1  0  0  0  0
 18  7  1  6  0  0  0
  7 59  1  0  0  0  0
 19  8  1  1  0  0  0
  8 60  1  0  0  0  0
 20  9  1  1  0  0  0
  9 61  1  0  0  0  0
 22 10  1  1  0  0  0
 10 62  1  0  0  0  0
 11 28  1  0  0  0  0
 11 33  1  0  0  0  0
 12 26  1  0  0  0  0
 12 68  1  0  0  0  0
 13 27  1  0  0  0  0
 13 69  1  0  0  0  0
 14 39  1  0  0  0  0
 14 74  1  0  0  0  0
 15 37  2  0  0  0  0
 16 17  1  0  0  0  0
 16 20  1  0  0  0  0
 16 43  1  0  0  0  0
 17 21  1  0  0  0  0
 17 44  1  0  0  0  0
 18 19  1  0  0  0  0
 18 22  1  0  0  0  0
 18 45  1  0  0  0  0
 19 23  1  0  0  0  0
 19 46  1  0  0  0  0
 20 24  1  0  0  0  0
 20 47  1  0  0  0  0
 21 26  1  6  0  0  0
 21 48  1  0  0  0  0
 22 25  1  0  0  0  0
 22 49  1  0  0  0  0
 23 27  1  6  0  0  0
 23 50  1  0  0  0  0
 24 51  1  0  0  0  0
 25 52  1  0  0  0  0
 26 53  1  0  0  0  0
 26 54  1  0  0  0  0
 27 55  1  0  0  0  0
 27 56  1  0  0  0  0
 28 31  1  6  0  0  0
 28 32  1  0  0  0  0
 28 63  1  0  0  0  0
 29 34  1  0  0  0  0
 29 39  2  0  0  0  0
 30 36  2  0  0  0  0
 30 38  1  0  0  0  0
 31 34  2  0  0  0  0
 31 41  1  0  0  0  0
 32 37  1  0  0  0  0
 32 64  1  0  0  0  0
 32 65  1  0  0  0  0
 33 35  2  0  0  0  0
 33 36  1  0  0  0  0
 34 66  1  0  0  0  0
 35 37  1  0  0  0  0
 35 40  1  0  0  0  0
 36 67  1  0  0  0  0
 38 40  2  0  0  0  0
 38 70  1  0  0  0  0
 39 42  1  0  0  0  0
 40 71  1  0  0  0  0
 41 42  2  0  0  0  0
 41 72  1  0  0  0  0
 42 73  1  0  0  0  0
M  END
> <PUBCHEM_COMPOUND_CID>
164630

> <PUBCHEM_COMPOUND_CANONICALIZED>
1

> <PUBCHEM_CACTVS_COMPLEXITY>
909

> <PUBCHEM_CACTVS_HBOND_ACCEPTOR>
15

> <PUBCHEM_CACTVS_HBOND_DONOR>
9

> <PUBCHEM_CACTVS_ROTATABLE_BOND>
7

> <PUBCHEM_CACTVS_SUBSKEYS>
AAADcfB4PAAAAAAAAAAAAAAAAAAAAAAAAAA0aJECAAAAAACRQAAAGgAACAAADBSwmAMwDoAABgCIAqBSAAACCAAkIAAIiAEGiMgdNzaGNRqieWOl4BUPuYfI7PzOIAABCAAIQABAAAIQABCAAAAAAAAAAA==

> <PUBCHEM_IUPAC_OPENEYE_NAME>
(2S)-2-[4-hydroxy-3-[(2S,3R,4S,5S,6R)-3,4,5-trihydroxy-6-(hydroxymethyl)tetrahydropyran-2-yl]oxy-phenyl]-7-[(2S,3R,4S,5S,6R)-3,4,5-trihydroxy-6-(hydroxymethyl)tetrahydropyran-2-yl]oxy-chroman-4-one

> <PUBCHEM_IUPAC_CAS_NAME>
(2S)-2-[4-hydroxy-3-[[(2S,3R,4S,5S,6R)-3,4,5-trihydroxy-6-(hydroxymethyl)-2-oxanyl]oxy]phenyl]-7-[[(2S,3R,4S,5S,6R)-3,4,5-trihydroxy-6-(hydroxymethyl)-2-oxanyl]oxy]-3,4-dihydro-2H-1-benzopyran-4-one

> <PUBCHEM_IUPAC_NAME>
(2S)-2-[4-hydroxy-3-[(2S,3R,4S,5S,6R)-3,4,5-trihydroxy-6-(hydroxymethyl)oxan-2-yl]oxyphenyl]-7-[(2S,3R,4S,5S,6R)-3,4,5-trihydroxy-6-(hydroxymethyl)oxan-2-yl]oxy-2,3-dihydrochromen-4-one

> <PUBCHEM_IUPAC_SYSTEMATIC_NAME>
(2S)-7-[(2S,3R,4S,5S,6R)-6-(hydroxymethyl)-3,4,5-tris(oxidanyl)oxan-2-yl]oxy-2-[3-[(2S,3R,4S,5S,6R)-6-(hydroxymethyl)-3,4,5-tris(oxidanyl)oxan-2-yl]oxy-4-oxidanyl-phenyl]-2,3-dihydrochromen-4-one

> <PUBCHEM_IUPAC_TRADITIONAL_NAME>
(2S)-2-[4-hydroxy-3-[(2S,3R,4S,5S,6R)-3,4,5-trihydroxy-6-methylol-tetrahydropyran-2-yl]oxy-phenyl]-7-[(2S,3R,4S,5S,6R)-3,4,5-trihydroxy-6-methylol-tetrahydropyran-2-yl]oxy-chroman-4-one

> <PUBCHEM_IUPAC_INCHI>
InChI=1S/C27H32O15/c28-8-18-20(32)22(34)24(36)26(41-18)38-11-2-3-12-14(31)7-15(39-16(12)6-11)10-1-4-13(30)17(5-10)40-27-25(37)23(35)21(33)19(9-29)42-27/h1-6,15,18-30,32-37H,7-9H2/t15-,18+,19+,20+,21+,22-,23-,24+,25+,26+,27+/m0/s1

> <PUBCHEM_IUPAC_INCHIKEY>
QVCQYYYTMIZOGK-VQBAZXIRSA-N

> <PUBCHEM_XLOGP3_AA>
-1.8

> <PUBCHEM_EXACT_MASS>
596.17412

> <PUBCHEM_MOLECULAR_FORMULA>
C27H32O15

> <PUBCHEM_MOLECULAR_WEIGHT>
596.53398

> <PUBCHEM_OPENEYE_CAN_SMILES>
C1C(OC2=C(C1=O)C=CC(=C2)OC3C(C(C(C(O3)CO)O)O)O)C4=CC(=C(C=C4)O)OC5C(C(C(C(O5)CO)O)O)O

> <PUBCHEM_OPENEYE_ISO_SMILES>
C1[C@H](OC2=C(C1=O)C=CC(=C2)O[C@H]3[C@@H]([C@H]([C@@H]([C@H](O3)CO)O)O)O)C4=CC(=C(C=C4)O)O[C@H]5[C@@H]([C@H]([C@@H]([C@H](O5)CO)O)O)O

> <PUBCHEM_CACTVS_TPSA>
245

> <PUBCHEM_MONOISOTOPIC_WEIGHT>
596.17412

> <PUBCHEM_TOTAL_CHARGE>
0

> <PUBCHEM_HEAVY_ATOM_COUNT>
42

> <PUBCHEM_ATOM_DEF_STEREO_COUNT>
11

> <PUBCHEM_ATOM_UDEF_STEREO_COUNT>
0

> <PUBCHEM_BOND_DEF_STEREO_COUNT>
0

> <PUBCHEM_BOND_UDEF_STEREO_COUNT>
0

> <PUBCHEM_ISOTOPIC_ATOM_COUNT>
0

> <PUBCHEM_COMPONENT_COUNT>
1

> <PUBCHEM_CACTVS_TAUTO_COUNT>
6

> <PUBCHEM_COORDINATE_TYPE>
1
5
255

> <PUBCHEM_BONDANNOTATIONS>
22  10  5
21  26  6
23  27  6
28  31  6
29  34  8
29  39  8
24  3  6
30  36  8
30  38  8
31  34  8
31  41  8
33  35  8
33  36  8
35  40  8
38  40  8
39  42  8
25  4  6
41  42  8
16  5  6
17  6  5
18  7  6
19  8  5
20  9  5

$$$$

