6096
  -OEChem-06261201062D

 20 21  0     0  0  0  0  0  0999 V2000
    6.2619   -0.3776    0.0000 O   0  0  0  0  0  0  0  0  0  0  0  0
    4.6783    0.4271    0.0000 N   0  0  0  0  0  0  0  0  0  0  0  0
    3.7320   -0.8776    0.0000 C   0  0  0  0  0  0  0  0  0  0  0  0
    3.7320    0.1224    0.0000 C   0  0  0  0  0  0  0  0  0  0  0  0
    4.6783   -1.1824    0.0000 C   0  0  0  0  0  0  0  0  0  0  0  0
    5.2619   -0.3776    0.0000 C   0  0  0  0  0  0  0  0  0  0  0  0
    2.8660   -1.3776    0.0000 C   0  0  0  0  0  0  0  0  0  0  0  0
    2.8660    0.6224    0.0000 C   0  0  0  0  0  0  0  0  0  0  0  0
    4.9889    1.3776    0.0000 C   0  0  0  0  0  0  0  0  0  0  0  0
    2.0000   -0.8776    0.0000 C   0  0  0  0  0  0  0  0  0  0  0  0
    2.0000    0.1224    0.0000 C   0  0  0  0  0  0  0  0  0  0  0  0
    4.4272   -1.7493    0.0000 H   0  0  0  0  0  0  0  0  0  0  0  0
    5.2156   -1.4916    0.0000 H   0  0  0  0  0  0  0  0  0  0  0  0
    2.8660   -1.9976    0.0000 H   0  0  0  0  0  0  0  0  0  0  0  0
    2.8660    1.2424    0.0000 H   0  0  0  0  0  0  0  0  0  0  0  0
    5.5783    1.1850    0.0000 H   0  0  0  0  0  0  0  0  0  0  0  0
    5.1815    1.9670    0.0000 H   0  0  0  0  0  0  0  0  0  0  0  0
    4.3996    1.5702    0.0000 H   0  0  0  0  0  0  0  0  0  0  0  0
    1.4631   -1.1876    0.0000 H   0  0  0  0  0  0  0  0  0  0  0  0
    1.4631    0.4324    0.0000 H   0  0  0  0  0  0  0  0  0  0  0  0
  1  6  2  0  0  0  0
  2  4  1  0  0  0  0
  2  6  1  0  0  0  0
  2  9  1  0  0  0  0
  3  4  1  0  0  0  0
  3  5  1  0  0  0  0
  3  7  2  0  0  0  0
  4  8  2  0  0  0  0
  5  6  1  0  0  0  0
  5 12  1  0  0  0  0
  5 13  1  0  0  0  0
  7 10  1  0  0  0  0
  7 14  1  0  0  0  0
  8 11  1  0  0  0  0
  8 15  1  0  0  0  0
  9 16  1  0  0  0  0
  9 17  1  0  0  0  0
  9 18  1  0  0  0  0
 10 11  2  0  0  0  0
 10 19  1  0  0  0  0
 11 20  1  0  0  0  0
M  END
> <PUBCHEM_COMPOUND_CID>
6096

> <PUBCHEM_COMPOUND_CANONICALIZED>
1

> <PUBCHEM_CACTVS_COMPLEXITY>
178

> <PUBCHEM_CACTVS_HBOND_ACCEPTOR>
1

> <PUBCHEM_CACTVS_HBOND_DONOR>
0

> <PUBCHEM_CACTVS_ROTATABLE_BOND>
0

> <PUBCHEM_CACTVS_SUBSKEYS>
AAADccByIAAAAAAAAAAAAAAAAAAAAWAAAAAwAAAAAAAAAFgBAAAAHgAAAAAADAiBmAQywIMAAACIAiVSUACCAAAhAgAIiAEIZIgIIDLAlZGEIAhghgDIyAcciICOAAAAAAACAAAAAAAAAAQAAAAAAAAAAA==

> <PUBCHEM_IUPAC_OPENEYE_NAME>
1-methylindolin-2-one

> <PUBCHEM_IUPAC_CAS_NAME>
1-methyl-3H-indol-2-one

> <PUBCHEM_IUPAC_NAME>
1-methyl-3H-indol-2-one

> <PUBCHEM_IUPAC_SYSTEMATIC_NAME>
1-methyl-3H-indol-2-one

> <PUBCHEM_IUPAC_TRADITIONAL_NAME>
1-methyloxindole

> <PUBCHEM_IUPAC_INCHI>
InChI=1S/C9H9NO/c1-10-8-5-3-2-4-7(8)6-9(10)11/h2-5H,6H2,1H3

> <PUBCHEM_IUPAC_INCHIKEY>
RSQUAQMIGSMNNE-UHFFFAOYSA-N

> <PUBCHEM_XLOGP3_AA>
1

> <PUBCHEM_EXACT_MASS>
147.068414

> <PUBCHEM_MOLECULAR_FORMULA>
C9H9NO

> <PUBCHEM_MOLECULAR_WEIGHT>
147.17386

> <PUBCHEM_OPENEYE_CAN_SMILES>
CN1C(=O)CC2=CC=CC=C21

> <PUBCHEM_OPENEYE_ISO_SMILES>
CN1C(=O)CC2=CC=CC=C21

> <PUBCHEM_CACTVS_TPSA>
20.3

> <PUBCHEM_MONOISOTOPIC_WEIGHT>
147.068414

> <PUBCHEM_TOTAL_CHARGE>
0

> <PUBCHEM_HEAVY_ATOM_COUNT>
11

> <PUBCHEM_ATOM_DEF_STEREO_COUNT>
0

> <PUBCHEM_ATOM_UDEF_STEREO_COUNT>
0

> <PUBCHEM_BOND_DEF_STEREO_COUNT>
0

> <PUBCHEM_BOND_UDEF_STEREO_COUNT>
0

> <PUBCHEM_ISOTOPIC_ATOM_COUNT>
0

> <PUBCHEM_COMPONENT_COUNT>
1

> <PUBCHEM_CACTVS_TAUTO_COUNT>
2

> <PUBCHEM_COORDINATE_TYPE>
1
5
255

> <PUBCHEM_BONDANNOTATIONS>
10  11  8
3  4  8
3  7  8
4  8  8
7  10  8
8  11  8

$$$$

