246576
  -OEChem-07051213073D

 60 63  0     1  0  0  0  0  0999 V2000
    5.3690   -1.1743   -0.2947 O   0  0  0  0  0  0  0  0  0  0  0  0
   -2.2665    2.6784    0.2691 O   0  0  0  0  0  0  0  0  0  0  0  0
   -5.5819   -1.1455    0.3612 O   0  0  0  0  0  0  0  0  0  0  0  0
    7.0094    0.2803    0.4336 O   0  0  0  0  0  0  0  0  0  0  0  0
   -1.1886    4.1766   -1.1203 O   0  0  0  0  0  0  0  0  0  0  0  0
   -5.2661   -2.0339   -1.7815 O   0  0  0  0  0  0  0  0  0  0  0  0
    2.9245   -0.7870   -0.0915 C   0  0  1  0  0  0  0  0  0  0  0  0
    2.1678    0.5273    0.1875 C   0  0  2  0  0  0  0  0  0  0  0  0
    0.6666    0.3970   -0.0701 C   0  0  1  0  0  0  0  0  0  0  0  0
    0.0858   -0.6862    0.8878 C   0  0  2  0  0  0  0  0  0  0  0  0
    4.3626   -0.3073    0.1912 C   0  0  2  0  0  0  0  0  0  0  0  0
    2.3991   -1.8521    0.8785 C   0  0  0  0  0  0  0  0  0  0  0  0
    2.9708    1.5715   -0.5840 C   0  0  0  0  0  0  0  0  0  0  0  0
    0.8715   -2.0208    0.7714 C   0  0  0  0  0  0  0  0  0  0  0  0
    4.4281    1.0894   -0.4588 C   0  0  0  0  0  0  0  0  0  0  0  0
   -0.0816    1.7078    0.1637 C   0  0  0  0  0  0  0  0  0  0  0  0
    2.7969   -1.3110   -1.5442 C   0  0  0  0  0  0  0  0  0  0  0  0
   -1.4277   -0.8101    0.7249 C   0  0  0  0  0  0  0  0  0  0  0  0
   -1.5468    1.5585   -0.2443 C   0  0  1  0  0  0  0  0  0  0  0  0
   -2.1900    0.2702    0.2235 C   0  0  0  0  0  0  0  0  0  0  0  0
   -2.1073   -1.9694    1.1419 C   0  0  0  0  0  0  0  0  0  0  0  0
   -3.5852    0.1319    0.0920 C   0  0  0  0  0  0  0  0  0  0  0  0
    6.6622   -0.7600   -0.1089 C   0  0  0  0  0  0  0  0  0  0  0  0
   -3.4934   -2.0828    1.0207 C   0  0  0  0  0  0  0  0  0  0  0  0
   -4.2321   -1.0350    0.4891 C   0  0  0  0  0  0  0  0  0  0  0  0
   -1.7813    3.9045   -0.0849 C   0  0  0  0  0  0  0  0  0  0  0  0
    7.6145   -1.7723   -0.6699 C   0  0  0  0  0  0  0  0  0  0  0  0
   -2.0818    4.8981    0.9959 C   0  0  0  0  0  0  0  0  0  0  0  0
   -6.0006   -1.6816   -0.8682 C   0  0  0  0  0  0  0  0  0  0  0  0
   -7.4978   -1.7623   -0.9109 C   0  0  0  0  0  0  0  0  0  0  0  0
    2.2864    0.7812    1.2545 H   0  0  0  0  0  0  0  0  0  0  0  0
    0.4973    0.0991   -1.1128 H   0  0  0  0  0  0  0  0  0  0  0  0
    0.2329   -0.3319    1.9200 H   0  0  0  0  0  0  0  0  0  0  0  0
    4.4980   -0.2028    1.2776 H   0  0  0  0  0  0  0  0  0  0  0  0
    2.6431   -1.5712    1.9114 H   0  0  0  0  0  0  0  0  0  0  0  0
    2.8901   -2.8161    0.6986 H   0  0  0  0  0  0  0  0  0  0  0  0
    2.8477    2.5756   -0.1653 H   0  0  0  0  0  0  0  0  0  0  0  0
    2.6703    1.6122   -1.6369 H   0  0  0  0  0  0  0  0  0  0  0  0
    0.6159   -2.5205   -0.1707 H   0  0  0  0  0  0  0  0  0  0  0  0
    0.5701   -2.7072    1.5711 H   0  0  0  0  0  0  0  0  0  0  0  0
    4.9116    1.0722   -1.4421 H   0  0  0  0  0  0  0  0  0  0  0  0
    4.9950    1.7841    0.1707 H   0  0  0  0  0  0  0  0  0  0  0  0
    0.3984    2.5046   -0.4129 H   0  0  0  0  0  0  0  0  0  0  0  0
   -0.0032    2.0088    1.2177 H   0  0  0  0  0  0  0  0  0  0  0  0
    3.1833   -0.5984   -2.2797 H   0  0  0  0  0  0  0  0  0  0  0  0
    3.3674   -2.2390   -1.6680 H   0  0  0  0  0  0  0  0  0  0  0  0
    1.7649   -1.5335   -1.8272 H   0  0  0  0  0  0  0  0  0  0  0  0
   -1.6200    1.5644   -1.3410 H   0  0  0  0  0  0  0  0  0  0  0  0
   -1.5729   -2.8096    1.5749 H   0  0  0  0  0  0  0  0  0  0  0  0
   -4.1739    0.9467   -0.3253 H   0  0  0  0  0  0  0  0  0  0  0  0
   -3.9868   -2.9947    1.3459 H   0  0  0  0  0  0  0  0  0  0  0  0
    7.4410   -1.8883   -1.7426 H   0  0  0  0  0  0  0  0  0  0  0  0
    7.4863   -2.7267   -0.1534 H   0  0  0  0  0  0  0  0  0  0  0  0
    8.6415   -1.4280   -0.5179 H   0  0  0  0  0  0  0  0  0  0  0  0
   -1.5970    4.5911    1.9260 H   0  0  0  0  0  0  0  0  0  0  0  0
   -3.1628    4.9805    1.1335 H   0  0  0  0  0  0  0  0  0  0  0  0
   -1.6914    5.8780    0.7066 H   0  0  0  0  0  0  0  0  0  0  0  0
   -7.8552   -2.4120   -0.1083 H   0  0  0  0  0  0  0  0  0  0  0  0
   -7.8112   -2.1859   -1.8693 H   0  0  0  0  0  0  0  0  0  0  0  0
   -7.9240   -0.7607   -0.8150 H   0  0  0  0  0  0  0  0  0  0  0  0
  1 11  1  0  0  0  0
  1 23  1  0  0  0  0
  2 19  1  0  0  0  0
  2 26  1  0  0  0  0
  3 25  1  0  0  0  0
  3 29  1  0  0  0  0
  4 23  2  0  0  0  0
  5 26  2  0  0  0  0
  6 29  2  0  0  0  0
  7  8  1  0  0  0  0
  7 11  1  0  0  0  0
  7 12  1  0  0  0  0
  7 17  1  0  0  0  0
  8  9  1  0  0  0  0
  8 13  1  0  0  0  0
  8 31  1  0  0  0  0
  9 10  1  0  0  0  0
  9 16  1  0  0  0  0
  9 32  1  0  0  0  0
 10 14  1  0  0  0  0
 10 18  1  0  0  0  0
 10 33  1  0  0  0  0
 11 15  1  0  0  0  0
 11 34  1  0  0  0  0
 12 14  1  0  0  0  0
 12 35  1  0  0  0  0
 12 36  1  0  0  0  0
 13 15  1  0  0  0  0
 13 37  1  0  0  0  0
 13 38  1  0  0  0  0
 14 39  1  0  0  0  0
 14 40  1  0  0  0  0
 15 41  1  0  0  0  0
 15 42  1  0  0  0  0
 16 19  1  0  0  0  0
 16 43  1  0  0  0  0
 16 44  1  0  0  0  0
 17 45  1  0  0  0  0
 17 46  1  0  0  0  0
 17 47  1  0  0  0  0
 18 20  2  0  0  0  0
 18 21  1  0  0  0  0
 19 20  1  0  0  0  0
 19 48  1  0  0  0  0
 20 22  1  0  0  0  0
 21 24  2  0  0  0  0
 21 49  1  0  0  0  0
 22 25  2  0  0  0  0
 22 50  1  0  0  0  0
 23 27  1  0  0  0  0
 24 25  1  0  0  0  0
 24 51  1  0  0  0  0
 26 28  1  0  0  0  0
 27 52  1  0  0  0  0
 27 53  1  0  0  0  0
 27 54  1  0  0  0  0
 28 55  1  0  0  0  0
 28 56  1  0  0  0  0
 28 57  1  0  0  0  0
 29 30  1  0  0  0  0
 30 58  1  0  0  0  0
 30 59  1  0  0  0  0
 30 60  1  0  0  0  0
M  END
> <PUBCHEM_COMPOUND_CID>
246576

> <PUBCHEM_CONFORMER_RMSD>
1

> <PUBCHEM_CONFORMER_DIVERSEORDER>
1
2
3
7
6
8
5
4

> <PUBCHEM_MMFF94_PARTIAL_CHARGES>
24
1 -0.43
10 0.14
11 0.28
18 -0.14
19 0.42
2 -0.43
20 -0.14
21 -0.15
22 -0.15
23 0.66
24 -0.15
25 0.08
26 0.66
27 0.06
28 0.06
29 0.66
3 -0.23
30 0.06
4 -0.57
49 0.15
5 -0.57
50 0.15
51 0.15
6 -0.57

> <PUBCHEM_EFFECTIVE_ROTOR_COUNT>
7.4

> <PUBCHEM_PHARMACOPHORE_FEATURES>
7
1 4 acceptor
1 5 acceptor
1 6 acceptor
5 7 8 11 13 15 rings
6 18 20 21 22 24 25 rings
6 7 8 9 10 12 14 rings
6 9 10 16 18 19 20 rings

> <PUBCHEM_HEAVY_ATOM_COUNT>
30

> <PUBCHEM_ATOM_DEF_STEREO_COUNT>
6

> <PUBCHEM_ATOM_UDEF_STEREO_COUNT>
0

> <PUBCHEM_BOND_DEF_STEREO_COUNT>
0

> <PUBCHEM_BOND_UDEF_STEREO_COUNT>
0

> <PUBCHEM_ISOTOPIC_ATOM_COUNT>
0

> <PUBCHEM_COMPONENT_COUNT>
1

> <PUBCHEM_CACTVS_TAUTO_COUNT>
1

> <PUBCHEM_CONFORMER_ID>
0003C33000000001

> <PUBCHEM_MMFF94_ENERGY>
98.4296

> <PUBCHEM_FEATURE_SELFOVERLAP>
35.618

> <PUBCHEM_SHAPE_FINGERPRINT>
10050765 1 18122905593229675650
10411042 1 18339918213195232763
106641 1 8430316866585278247
10693767 8 18190471458861300295
10930396 42 18122373232185947976
11115154 58 18334867100455052189
11578080 2 16485583223871731054
12107183 9 17552645060230979546
12107698 1 18411136939964368398
12166972 35 17417807297149581182
12293681 160 17988932154363421643
12403260 363 18343578560571763972
12516196 113 18337956688867703155
12645989 146 18335135380590895686
12760667 363 18411417298059599915
12788726 201 18342746247127511123
12954195 1 18339639052868388344
13140716 1 18199168616741600152
13383668 251 17460335273911132968
13540713 5 17842286040438222242
13631057 29 18410293644347014520
13782708 43 18040434412932906686
13911987 19 18057310713200152167
14068700 675 18413108346590244044
14294032 229 18195807594939070025
14347332 77 18410013281729936118
14508225 48 18341897368285060005
14556957 393 18201988937334835565
14790565 3 17835519706654606065
14931854 50 18131358522306479079
15183329 4 17917999369004856331
15198563 99 18342461478059181917
15439362 3 17907302044859941045
15927050 60 17907575083649690891
16087824 20 18268710679813380037
20028762 73 18334295349433841822
2026 5 17970058045568815870
20642791 13 18339356465326427244
20775438 99 17254589010082204431
21033648 29 12103269453567739174
21236236 1 18340482374260931096
21267235 1 18343292648477287395
21304303 172 18260264166831790873
21424621 283 11311788284150331047
21641784 216 18131056152218883237
21792961 116 17775566434041452867
22122407 14 14548723020090108414
221357 26 18410291406969551738
23402539 116 18410011035736164999
23536364 44 18342751727964814197
23559900 14 18128535968419882288
23622692 118 18411135844537062084
23929065 36 18338252547247225248
24771750 20 17193463851384488045
25147074 1 17916029142767227818
255183 313 18047449378817721881
283562 15 18341050821740700147
3004659 81 17989211412561883475
335352 9 18272367542678353751
350125 39 18341325661114705704
3633792 109 17418094300044542428
4353968 344 18336833108259499222
463206 1 18267584603037087191
5104073 3 18267870661228602376
5171179 24 18188218593969890641
532947 4 17905609900411387281
5969126 39 18335707152016447445
6004065 56 18120942702938255713

> <PUBCHEM_SHAPE_MULTIPOLES>
582.17
16.04
4.18
1.13
9.18
7.2
-0.19
-12.75
-4.75
-4.78
0.21
-0.72
-0.37
-0.68

> <PUBCHEM_SHAPE_SELFOVERLAP>
1247.372

> <PUBCHEM_SHAPE_VOLUME>
318.7

> <PUBCHEM_COORDINATE_TYPE>
2
5
10

$$$$

