11134
  -OEChem-06261205202D

 40 42  0     0  0  0  0  0  0999 V2000
    5.4641    4.5950    0.0000 S   0  0  0  0  0  0  0  0  0  0  0  0
    5.4641    5.5950    0.0000 O   0  0  0  0  0  0  0  0  0  0  0  0
    6.4641    4.5950    0.0000 O   0  0  0  0  0  0  0  0  0  0  0  0
    4.4641    4.5950    0.0000 O   0  0  0  0  0  0  0  0  0  0  0  0
    4.5981   -3.9050    0.0000 N   0  0  0  0  0  0  0  0  0  0  0  0
    4.5981    0.0950    0.0000 N   0  0  0  0  0  0  0  0  0  0  0  0
    5.4641    0.5950    0.0000 N   0  0  0  0  0  0  0  0  0  0  0  0
    4.5981   -2.9050    0.0000 C   0  0  0  0  0  0  0  0  0  0  0  0
    3.7320   -4.4050    0.0000 C   0  0  0  0  0  0  0  0  0  0  0  0
    5.4641    3.5950    0.0000 C   0  0  0  0  0  0  0  0  0  0  0  0
    5.4641   -2.4050    0.0000 C   0  0  0  0  0  0  0  0  0  0  0  0
    3.7320   -2.4050    0.0000 C   0  0  0  0  0  0  0  0  0  0  0  0
    4.5981   -0.9050    0.0000 C   0  0  0  0  0  0  0  0  0  0  0  0
    5.4641    1.5950    0.0000 C   0  0  0  0  0  0  0  0  0  0  0  0
    5.4641   -1.4050    0.0000 C   0  0  0  0  0  0  0  0  0  0  0  0
    3.7320   -1.4050    0.0000 C   0  0  0  0  0  0  0  0  0  0  0  0
    4.5981    3.0950    0.0000 C   0  0  0  0  0  0  0  0  0  0  0  0
    6.3301    3.0950    0.0000 C   0  0  0  0  0  0  0  0  0  0  0  0
    4.5981    2.0950    0.0000 C   0  0  0  0  0  0  0  0  0  0  0  0
    6.3301    2.0950    0.0000 C   0  0  0  0  0  0  0  0  0  0  0  0
    2.8660   -3.9050    0.0000 C   0  0  0  0  0  0  0  0  0  0  0  0
    3.7320   -5.4050    0.0000 C   0  0  0  0  0  0  0  0  0  0  0  0
    2.0000   -4.4050    0.0000 C   0  0  0  0  0  0  0  0  0  0  0  0
    2.8660   -5.9050    0.0000 C   0  0  0  0  0  0  0  0  0  0  0  0
    2.0000   -5.4050    0.0000 C   0  0  0  0  0  0  0  0  0  0  0  0
    5.1350   -4.2150    0.0000 H   0  0  0  0  0  0  0  0  0  0  0  0
    6.0010   -2.7150    0.0000 H   0  0  0  0  0  0  0  0  0  0  0  0
    3.1951   -2.7150    0.0000 H   0  0  0  0  0  0  0  0  0  0  0  0
    6.0010   -1.0950    0.0000 H   0  0  0  0  0  0  0  0  0  0  0  0
    3.1951   -1.0950    0.0000 H   0  0  0  0  0  0  0  0  0  0  0  0
    4.0611    3.4050    0.0000 H   0  0  0  0  0  0  0  0  0  0  0  0
    6.8671    3.4050    0.0000 H   0  0  0  0  0  0  0  0  0  0  0  0
    4.0611    1.7850    0.0000 H   0  0  0  0  0  0  0  0  0  0  0  0
    6.8671    1.7850    0.0000 H   0  0  0  0  0  0  0  0  0  0  0  0
    2.8660   -3.2850    0.0000 H   0  0  0  0  0  0  0  0  0  0  0  0
    4.2690   -5.7150    0.0000 H   0  0  0  0  0  0  0  0  0  0  0  0
    1.4631   -4.0950    0.0000 H   0  0  0  0  0  0  0  0  0  0  0  0
    2.8660   -6.5250    0.0000 H   0  0  0  0  0  0  0  0  0  0  0  0
    1.4631   -5.7150    0.0000 H   0  0  0  0  0  0  0  0  0  0  0  0
    6.0010    5.9050    0.0000 H   0  0  0  0  0  0  0  0  0  0  0  0
  1  2  1  0  0  0  0
  1  3  2  0  0  0  0
  1  4  2  0  0  0  0
  1 10  1  0  0  0  0
  2 40  1  0  0  0  0
  5  8  1  0  0  0  0
  5  9  1  0  0  0  0
  5 26  1  0  0  0  0
  6  7  2  0  0  0  0
  6 13  1  0  0  0  0
  7 14  1  0  0  0  0
  8 11  2  0  0  0  0
  8 12  1  0  0  0  0
  9 21  2  0  0  0  0
  9 22  1  0  0  0  0
 10 17  2  0  0  0  0
 10 18  1  0  0  0  0
 11 15  1  0  0  0  0
 11 27  1  0  0  0  0
 12 16  2  0  0  0  0
 12 28  1  0  0  0  0
 13 15  2  0  0  0  0
 13 16  1  0  0  0  0
 14 19  2  0  0  0  0
 14 20  1  0  0  0  0
 15 29  1  0  0  0  0
 16 30  1  0  0  0  0
 17 19  1  0  0  0  0
 17 31  1  0  0  0  0
 18 20  2  0  0  0  0
 18 32  1  0  0  0  0
 19 33  1  0  0  0  0
 20 34  1  0  0  0  0
 21 23  1  0  0  0  0
 21 35  1  0  0  0  0
 22 24  2  0  0  0  0
 22 36  1  0  0  0  0
 23 25  2  0  0  0  0
 23 37  1  0  0  0  0
 24 25  1  0  0  0  0
 24 38  1  0  0  0  0
 25 39  1  0  0  0  0
M  END
> <PUBCHEM_COMPOUND_CID>
11134

> <PUBCHEM_COMPOUND_CANONICALIZED>
1

> <PUBCHEM_CACTVS_COMPLEXITY>
524

> <PUBCHEM_CACTVS_HBOND_ACCEPTOR>
6

> <PUBCHEM_CACTVS_HBOND_DONOR>
2

> <PUBCHEM_CACTVS_ROTATABLE_BOND>
5

> <PUBCHEM_CACTVS_SUBSKEYS>
AAADccB7MABAAAAAAAAAAAAAAAAAAAAAAAAwYMAAAAAAAAABUAAAHAQYCAAACAiBUAAwwYLAAIKCACRCQHDCAEAhAgAIiBgAZIgIIGLAkZGEIAhgkADIyAcQAAAAAASAAAAAAAAACQAAAAAAAAAAAAAAAA==

> <PUBCHEM_IUPAC_OPENEYE_NAME>
4-(4-anilinophenyl)azobenzenesulfonic acid

> <PUBCHEM_IUPAC_CAS_NAME>
4-(4-anilinophenyl)azobenzenesulfonic acid

> <PUBCHEM_IUPAC_NAME>
4-[(4-anilinophenyl)diazenyl]benzenesulfonic acid

> <PUBCHEM_IUPAC_SYSTEMATIC_NAME>
4-[(4-phenylazanylphenyl)diazenyl]benzenesulfonic acid

> <PUBCHEM_IUPAC_TRADITIONAL_NAME>
4-(4-anilinophenyl)azobesylic acid

> <PUBCHEM_IUPAC_INCHI>
InChI=1S/C18H15N3O3S/c22-25(23,24)18-12-10-17(11-13-18)21-20-16-8-6-15(7-9-16)19-14-4-2-1-3-5-14/h1-13,19H,(H,22,23,24)

> <PUBCHEM_IUPAC_INCHIKEY>
LXEMVZAXEIKMOU-UHFFFAOYSA-N

> <PUBCHEM_XLOGP3_AA>
4

> <PUBCHEM_EXACT_MASS>
353.083412

> <PUBCHEM_MOLECULAR_FORMULA>
C18H15N3O3S

> <PUBCHEM_MOLECULAR_WEIGHT>
353.395

> <PUBCHEM_OPENEYE_CAN_SMILES>
C1=CC=C(C=C1)NC2=CC=C(C=C2)N=NC3=CC=C(C=C3)S(=O)(=O)O

> <PUBCHEM_OPENEYE_ISO_SMILES>
C1=CC=C(C=C1)NC2=CC=C(C=C2)N=NC3=CC=C(C=C3)S(=O)(=O)O

> <PUBCHEM_CACTVS_TPSA>
99.5

> <PUBCHEM_MONOISOTOPIC_WEIGHT>
353.083412

> <PUBCHEM_TOTAL_CHARGE>
0

> <PUBCHEM_HEAVY_ATOM_COUNT>
25

> <PUBCHEM_ATOM_DEF_STEREO_COUNT>
0

> <PUBCHEM_ATOM_UDEF_STEREO_COUNT>
0

> <PUBCHEM_BOND_DEF_STEREO_COUNT>
0

> <PUBCHEM_BOND_UDEF_STEREO_COUNT>
0

> <PUBCHEM_ISOTOPIC_ATOM_COUNT>
0

> <PUBCHEM_COMPONENT_COUNT>
1

> <PUBCHEM_CACTVS_TAUTO_COUNT>
2

> <PUBCHEM_COORDINATE_TYPE>
1
5
255

> <PUBCHEM_BONDANNOTATIONS>
10  17  8
10  18  8
11  15  8
12  16  8
13  15  8
13  16  8
14  19  8
14  20  8
17  19  8
18  20  8
21  23  8
22  24  8
23  25  8
24  25  8
8  11  8
8  12  8
9  21  8
9  22  8

$$$$

