4022878
  -OEChem-07051212542D

 24 23  0     0  0  0  0  0  0999 V2000
    3.0000    0.9050    0.0000 S   0  0  0  0  0  0  0  0  0  0  0  0
    2.1340    2.4050    0.0000 Na  0  3  0  0  0  0  0  0  0  0  0  0
    4.0000    0.9050    0.0000 O   0  0  0  0  0  0  0  0  0  0  0  0
    2.0000    0.9050    0.0000 O   0  0  0  0  0  0  0  0  0  0  0  0
    4.7320    1.9050    0.0000 O   0  0  0  0  0  0  0  0  0  0  0  0
    3.0000    1.9050    0.0000 N   0  5  0  0  0  0  0  0  0  0  0  0
    3.0000   -3.0950    0.0000 N   0  0  0  0  0  0  0  0  0  0  0  0
    3.0000   -0.0950    0.0000 C   0  0  0  0  0  0  0  0  0  0  0  0
    2.1340   -0.5950    0.0000 C   0  0  0  0  0  0  0  0  0  0  0  0
    3.8660   -0.5950    0.0000 C   0  0  0  0  0  0  0  0  0  0  0  0
    3.0000   -2.0950    0.0000 C   0  0  0  0  0  0  0  0  0  0  0  0
    2.1340   -1.5950    0.0000 C   0  0  0  0  0  0  0  0  0  0  0  0
    3.8660   -1.5950    0.0000 C   0  0  0  0  0  0  0  0  0  0  0  0
    3.8660    2.4050    0.0000 C   0  0  0  0  0  0  0  0  0  0  0  0
    3.8660    3.4050    0.0000 C   0  0  0  0  0  0  0  0  0  0  0  0
    1.5970   -0.2850    0.0000 H   0  0  0  0  0  0  0  0  0  0  0  0
    4.4030   -0.2850    0.0000 H   0  0  0  0  0  0  0  0  0  0  0  0
    1.5970   -1.9050    0.0000 H   0  0  0  0  0  0  0  0  0  0  0  0
    4.4030   -1.9050    0.0000 H   0  0  0  0  0  0  0  0  0  0  0  0
    4.4860    3.4050    0.0000 H   0  0  0  0  0  0  0  0  0  0  0  0
    3.8660    4.0250    0.0000 H   0  0  0  0  0  0  0  0  0  0  0  0
    3.2460    3.4050    0.0000 H   0  0  0  0  0  0  0  0  0  0  0  0
    2.4631   -3.4050    0.0000 H   0  0  0  0  0  0  0  0  0  0  0  0
    3.5369   -3.4050    0.0000 H   0  0  0  0  0  0  0  0  0  0  0  0
  1  3  2  0  0  0  0
  1  4  2  0  0  0  0
  1  6  1  0  0  0  0
  1  8  1  0  0  0  0
  5 14  2  0  0  0  0
  6 14  1  0  0  0  0
  7 11  1  0  0  0  0
  7 23  1  0  0  0  0
  7 24  1  0  0  0  0
  8  9  2  0  0  0  0
  8 10  1  0  0  0  0
  9 12  1  0  0  0  0
  9 16  1  0  0  0  0
 10 13  2  0  0  0  0
 10 17  1  0  0  0  0
 11 12  2  0  0  0  0
 11 13  1  0  0  0  0
 12 18  1  0  0  0  0
 13 19  1  0  0  0  0
 14 15  1  0  0  0  0
 15 20  1  0  0  0  0
 15 21  1  0  0  0  0
 15 22  1  0  0  0  0
M  CHG  2   2   1   6  -1
M  END
> <PUBCHEM_COMPOUND_CID>
4022878

> <PUBCHEM_COMPOUND_CANONICALIZED>
1

> <PUBCHEM_CACTVS_COMPLEXITY>
304

> <PUBCHEM_CACTVS_HBOND_ACCEPTOR>
5

> <PUBCHEM_CACTVS_HBOND_DONOR>
1

> <PUBCHEM_CACTVS_ROTATABLE_BOND>
2

> <PUBCHEM_CACTVS_SUBSKEYS>
AAADccBzMCBAAAAAAAAAAAAAAAAAAAAAAAAwAAAAAAAAAAABAAAAHgQQQAAACAiB0AAywYBAAAKIACVSUHDCABAgAgAIiBgAZIgIICKAkZGAIABgkAAIyAcQAAAAAAQAAAAAAAAACAAAAAAAAAAAAAAAAA==

> <PUBCHEM_IUPAC_OPENEYE_NAME>
sodium acetyl-(4-aminophenyl)sulfonyl-azanide

> <PUBCHEM_IUPAC_CAS_NAME>
sodium acetyl-(4-aminophenyl)sulfonylazanide

> <PUBCHEM_IUPAC_NAME>
sodium acetyl-(4-aminophenyl)sulfonylazanide

> <PUBCHEM_IUPAC_SYSTEMATIC_NAME>
sodium (4-aminophenyl)sulfonyl-ethanoyl-azanide

> <PUBCHEM_IUPAC_TRADITIONAL_NAME>
sodium acetyl(sulfanilyl)azanide

> <PUBCHEM_IUPAC_INCHI>
InChI=1S/C8H10N2O3S.Na/c1-6(11)10-14(12,13)8-4-2-7(9)3-5-8;/h2-5H,9H2,1H3,(H,10,11);/q;+1/p-1

> <PUBCHEM_IUPAC_INCHIKEY>
PQMSFAORUFMASU-UHFFFAOYSA-M

> <PUBCHEM_EXACT_MASS>
236.023157

> <PUBCHEM_MOLECULAR_FORMULA>
C8H9N2NaO3S

> <PUBCHEM_MOLECULAR_WEIGHT>
236.223429

> <PUBCHEM_OPENEYE_CAN_SMILES>
CC(=O)[N-]S(=O)(=O)C1=CC=C(C=C1)N.[Na+]

> <PUBCHEM_OPENEYE_ISO_SMILES>
CC(=O)[N-]S(=O)(=O)C1=CC=C(C=C1)N.[Na+]

> <PUBCHEM_CACTVS_TPSA>
86.6

> <PUBCHEM_MONOISOTOPIC_WEIGHT>
236.023157

> <PUBCHEM_TOTAL_CHARGE>
0

> <PUBCHEM_HEAVY_ATOM_COUNT>
15

> <PUBCHEM_ATOM_DEF_STEREO_COUNT>
0

> <PUBCHEM_ATOM_UDEF_STEREO_COUNT>
0

> <PUBCHEM_BOND_DEF_STEREO_COUNT>
0

> <PUBCHEM_BOND_UDEF_STEREO_COUNT>
0

> <PUBCHEM_ISOTOPIC_ATOM_COUNT>
0

> <PUBCHEM_COMPONENT_COUNT>
2

> <PUBCHEM_CACTVS_TAUTO_COUNT>
1

> <PUBCHEM_NONSTANDARDBOND>
2  6  7

> <PUBCHEM_COORDINATE_TYPE>
1
5
255

> <PUBCHEM_BONDANNOTATIONS>
10  13  8
11  12  8
11  13  8
8  10  8
8  9  8
9  12  8

$$$$

