56928144
  -OEChem-07051213152D

 39 41  0     0  0  0  0  0  0999 V2000
    6.6132    1.1756    0.0000 O   0  0  0  0  0  0  0  0  0  0  0  0
    5.4493    2.2996    0.0000 O   0  0  0  0  0  0  0  0  0  0  0  0
    7.3063   -0.5251    0.0000 O   0  0  0  0  0  0  0  0  0  0  0  0
    2.3985    1.8196    0.0000 O   0  0  0  0  0  0  0  0  0  0  0  0
    6.2399   -1.8900    0.0000 O   0  0  0  0  0  0  0  0  0  0  0  0
    3.7254    2.9329    0.0000 O   0  0  0  0  0  0  0  0  0  0  0  0
    5.0109    1.4008    0.0000 C   0  0  0  0  0  0  0  0  0  0  0  0
    5.7303    0.7062    0.0000 C   0  0  0  0  0  0  0  0  0  0  0  0
    5.5911   -0.2841    0.0000 C   0  0  0  0  0  0  0  0  0  0  0  0
    4.0261    1.2272    0.0000 C   0  0  0  0  0  0  0  0  0  0  0  0
    3.6841    0.2875    0.0000 C   0  0  0  0  0  0  0  0  0  0  0  0
    5.1216   -1.1670    0.0000 C   0  0  0  0  0  0  0  0  0  0  0  0
    6.4396    2.1605    0.0000 C   0  0  0  0  0  0  0  0  0  0  0  0
    5.6517   -2.0151    0.0000 C   0  0  0  0  0  0  0  0  0  0  0  0
    4.5501   -0.2125    0.0000 C   0  0  0  0  0  0  0  0  0  0  0  0
    4.1222   -1.2018    0.0000 C   0  0  0  0  0  0  0  0  0  0  0  0
    2.8181   -0.2125    0.0000 C   0  0  0  0  0  0  0  0  0  0  0  0
    6.3791   -0.8998    0.0000 C   0  0  0  0  0  0  0  0  0  0  0  0
    3.3833    1.9932    0.0000 C   0  0  0  0  0  0  0  0  0  0  0  0
    5.1822   -2.8981    0.0000 C   0  0  0  0  0  0  0  0  0  0  0  0
    4.5501   -1.2125    0.0000 C   0  0  0  0  0  0  0  0  0  0  0  0
    3.6527   -2.0848    0.0000 C   0  0  0  0  0  0  0  0  0  0  0  0
    2.8181   -1.2125    0.0000 C   0  0  0  0  0  0  0  0  0  0  0  0
    4.1828   -2.9329    0.0000 C   0  0  0  0  0  0  0  0  0  0  0  0
    3.6841   -1.7125    0.0000 C   0  0  0  0  0  0  0  0  0  0  0  0
    7.0581    2.2037    0.0000 H   0  0  0  0  0  0  0  0  0  0  0  0
    6.4612    2.7801    0.0000 H   0  0  0  0  0  0  0  0  0  0  0  0
    5.0871    0.0975    0.0000 H   0  0  0  0  0  0  0  0  0  0  0  0
    6.2714   -1.9934    0.0000 H   0  0  0  0  0  0  0  0  0  0  0  0
    2.2811    0.0975    0.0000 H   0  0  0  0  0  0  0  0  0  0  0  0
    3.7936   -0.6761    0.0000 H   0  0  0  0  0  0  0  0  0  0  0  0
    5.0871   -1.5225    0.0000 H   0  0  0  0  0  0  0  0  0  0  0  0
    5.5108   -3.4239    0.0000 H   0  0  0  0  0  0  0  0  0  0  0  0
    2.2811   -1.5225    0.0000 H   0  0  0  0  0  0  0  0  0  0  0  0
    3.0331   -2.1065    0.0000 H   0  0  0  0  0  0  0  0  0  0  0  0
    3.6841   -2.3325    0.0000 H   0  0  0  0  0  0  0  0  0  0  0  0
    3.8917   -3.4804    0.0000 H   0  0  0  0  0  0  0  0  0  0  0  0
    2.0000    2.2945    0.0000 H   0  0  0  0  0  0  0  0  0  0  0  0
    7.7949   -0.9069    0.0000 H   0  0  0  0  0  0  0  0  0  0  0  0
  1  8  1  0  0  0  0
  1 13  1  0  0  0  0
  2  7  1  0  0  0  0
  2 13  1  0  0  0  0
  3 18  1  0  0  0  0
  3 39  1  0  0  0  0
  4 19  1  0  0  0  0
  4 38  1  0  0  0  0
  5 18  2  0  0  0  0
  6 19  2  0  0  0  0
  7  8  1  0  0  0  0
  7 10  2  0  0  0  0
  8  9  2  0  0  0  0
  9 12  1  0  0  0  0
  9 18  1  0  0  0  0
 10 11  1  0  0  0  0
 10 19  1  0  0  0  0
 11 15  2  0  0  0  0
 11 17  1  0  0  0  0
 12 14  2  0  0  0  0
 12 16  1  0  0  0  0
 13 26  1  0  0  0  0
 13 27  1  0  0  0  0
 14 20  1  0  0  0  0
 14 29  1  0  0  0  0
 15 21  1  0  0  0  0
 15 28  1  0  0  0  0
 16 22  2  0  0  0  0
 16 31  1  0  0  0  0
 17 23  2  0  0  0  0
 17 30  1  0  0  0  0
 20 24  2  0  0  0  0
 20 33  1  0  0  0  0
 21 25  2  0  0  0  0
 21 32  1  0  0  0  0
 22 24  1  0  0  0  0
 22 35  1  0  0  0  0
 23 25  1  0  0  0  0
 23 34  1  0  0  0  0
 24 37  1  0  0  0  0
 25 36  1  0  0  0  0
M  END
> <PUBCHEM_COMPOUND_CID>
56928144

> <PUBCHEM_COMPOUND_CANONICALIZED>
1

> <PUBCHEM_CACTVS_COMPLEXITY>
539

> <PUBCHEM_CACTVS_HBOND_ACCEPTOR>
6

> <PUBCHEM_CACTVS_HBOND_DONOR>
2

> <PUBCHEM_CACTVS_ROTATABLE_BOND>
4

> <PUBCHEM_CACTVS_SUBSKEYS>
AAADccB4OAAAAAAAAAAAAAAAAAAAASAAAAAwYAAAAAAAAAABQAAAGgAACAAADASAmAMwCIAABgCIAiDSCAACCAAgIAAIiAEAAMgZJDKANRCgcAAkwAEOuQeIyKCOAAAAAAAAAAAAAAAAAAAAAAAAAAAAAA==

> <PUBCHEM_IUPAC_OPENEYE_NAME>
(2Z)-2-[(5Z)-5-[carboxy(phenyl)methylene]-1,3-dioxolan-4-ylidene]-2-phenyl-acetic acid

> <PUBCHEM_IUPAC_CAS_NAME>
(2Z)-2-[(5Z)-5-[carboxy(phenyl)methylidene]-1,3-dioxolan-4-ylidene]-2-phenylacetic acid

> <PUBCHEM_IUPAC_NAME>
(2Z)-2-[(5Z)-5-[carboxy(phenyl)methylidene]-1,3-dioxolan-4-ylidene]-2-phenylacetic acid

> <PUBCHEM_IUPAC_SYSTEMATIC_NAME>
(2Z)-2-[(5Z)-5-(2-oxidanyl-2-oxidanylidene-1-phenyl-ethylidene)-1,3-dioxolan-4-ylidene]-2-phenyl-ethanoic acid

> <PUBCHEM_IUPAC_TRADITIONAL_NAME>
(2Z)-2-[(5Z)-5-[carboxy(phenyl)methylene]-1,3-dioxolan-4-ylidene]-2-phenyl-acetic acid

> <PUBCHEM_IUPAC_INCHI>
InChI=1S/C19H14O6/c20-18(21)14(12-7-3-1-4-8-12)16-17(25-11-24-16)15(19(22)23)13-9-5-2-6-10-13/h1-10H,11H2,(H,20,21)(H,22,23)/b16-14-,17-15-

> <PUBCHEM_IUPAC_INCHIKEY>
KEGGPAWMZOAQMC-RYOQUFEFSA-N

> <PUBCHEM_XLOGP3_AA>
2.9

> <PUBCHEM_EXACT_MASS>
338.079038

> <PUBCHEM_MOLECULAR_FORMULA>
C19H14O6

> <PUBCHEM_MOLECULAR_WEIGHT>
338.31086

> <PUBCHEM_OPENEYE_CAN_SMILES>
C1OC(=C(C2=CC=CC=C2)C(=O)O)C(=C(C3=CC=CC=C3)C(=O)O)O1

> <PUBCHEM_OPENEYE_ISO_SMILES>
C1O/C(=C(\C(=O)O)/C2=CC=CC=C2)/C(=C(/C(=O)O)\C3=CC=CC=C3)/O1

> <PUBCHEM_CACTVS_TPSA>
93.1

> <PUBCHEM_MONOISOTOPIC_WEIGHT>
338.079038

> <PUBCHEM_TOTAL_CHARGE>
0

> <PUBCHEM_HEAVY_ATOM_COUNT>
25

> <PUBCHEM_ATOM_DEF_STEREO_COUNT>
0

> <PUBCHEM_ATOM_UDEF_STEREO_COUNT>
0

> <PUBCHEM_BOND_DEF_STEREO_COUNT>
2

> <PUBCHEM_BOND_UDEF_STEREO_COUNT>
0

> <PUBCHEM_ISOTOPIC_ATOM_COUNT>
0

> <PUBCHEM_COMPONENT_COUNT>
1

> <PUBCHEM_CACTVS_TAUTO_COUNT>
1

> <PUBCHEM_COORDINATE_TYPE>
1
5
255

> <PUBCHEM_BONDANNOTATIONS>
11  15  8
11  17  8
12  14  8
12  16  8
14  20  8
15  21  8
16  22  8
17  23  8
20  24  8
21  25  8
22  24  8
23  25  8

$$$$

