442281
  -OEChem-07051212572D

 70 76  0     1  0  0  0  0  0999 V2000
    2.8554    1.3272    0.0000 O   0  0  0  0  0  0  0  0  0  0  0  0
    4.0721    0.9597    0.0000 O   0  0  0  0  0  0  0  0  0  0  0  0
    5.7247   -0.6947    0.0000 O   0  0  0  0  0  0  0  0  0  0  0  0
    8.4339   -0.4750    0.0000 O   0  0  0  0  0  0  0  0  0  0  0  0
    3.6644    2.9150    0.0000 O   0  0  0  0  0  0  0  0  0  0  0  0
    6.1438   -2.4395    0.0000 O   0  0  0  0  0  0  0  0  0  0  0  0
    8.6216   -2.2527    0.0000 O   0  0  0  0  0  0  0  0  0  0  0  0
    5.2824    0.7394    0.0000 C   0  0  2  0  0  0  0  0  0  0  0  0
    4.4734    1.3272    0.0000 C   0  0  2  0  0  0  0  0  0  0  0  0
    6.0914    1.3272    0.0000 C   0  0  1  0  0  0  0  0  0  0  0  0
    5.7824    2.2783    0.0000 C   0  0  3  0  0  0  0  0  0  0  0  0
    4.7824    2.2783    0.0000 C   0  0  0  0  0  0  0  0  0  0  0  0
    4.1644    0.3761    0.0000 C   0  0  2  0  0  0  0  0  0  0  0  0
    5.7401   -0.1281    0.0000 C   0  0  0  0  0  0  0  0  0  0  0  0
    5.2756    2.0129    0.0000 C   0  0  0  0  0  0  0  0  0  0  0  0
    5.0284    1.2520    0.0000 C   0  0  0  0  0  0  0  0  0  0  0  0
    7.0423    1.5676    0.0000 C   0  0  1  0  0  0  0  0  0  0  0  0
    3.1644    0.3761    0.0000 C   0  0  1  0  0  0  0  0  0  0  0  0
    3.6644    1.9150    0.0000 C   0  0  0  0  0  0  0  0  0  0  0  0
    4.7707   -0.3948    0.0000 C   0  0  1  0  0  0  0  0  0  0  0  0
    6.8037   -0.3952    0.0000 C   0  0  1  0  0  0  0  0  0  0  0  0
    7.7241    1.0575    0.0000 C   0  0  0  0  0  0  0  0  0  0  0  0
    4.5486   -1.3501    0.0000 C   0  0  1  0  0  0  0  0  0  0  0  0
    7.6516    0.1586    0.0000 C   0  0  1  0  0  0  0  0  0  0  0  0
    2.5580   -0.3948    0.0000 C   0  0  0  0  0  0  0  0  0  0  0  0
    3.6644   -1.7744    0.0000 C   0  0  2  0  0  0  0  0  0  0  0  0
    2.7802   -1.3501    0.0000 C   0  0  2  0  0  0  0  0  0  0  0  0
    7.3847    2.5071    0.0000 C   0  0  0  0  0  0  0  0  0  0  0  0
    7.0693   -1.3662    0.0000 C   0  0  0  0  0  0  0  0  0  0  0  0
    5.2196   -2.0574    0.0000 C   0  0  0  0  0  0  0  0  0  0  0  0
    5.5457   -1.4262    0.0000 C   0  0  0  0  0  0  0  0  0  0  0  0
    3.7965   -2.7404    0.0000 C   0  0  0  0  0  0  0  0  0  0  0  0
    8.0748   -1.4154    0.0000 C   0  0  0  0  0  0  0  0  0  0  0  0
    2.0000   -1.9757    0.0000 C   0  0  0  0  0  0  0  0  0  0  0  0
    4.7557   -2.9150    0.0000 C   0  0  0  0  0  0  0  0  0  0  0  0
    6.9171   -2.3546    0.0000 C   0  0  0  0  0  0  0  0  0  0  0  0
    6.5668    2.0319    0.0000 H   0  0  0  0  0  0  0  0  0  0  0  0
    6.2820    2.9659    0.0000 H   0  0  0  0  0  0  0  0  0  0  0  0
    4.8472    2.8949    0.0000 H   0  0  0  0  0  0  0  0  0  0  0  0
    4.1760    2.4072    0.0000 H   0  0  0  0  0  0  0  0  0  0  0  0
    5.0012    0.5251    0.0000 H   0  0  0  0  0  0  0  0  0  0  0  0
    5.1381   -0.2764    0.0000 H   0  0  0  0  0  0  0  0  0  0  0  0
    5.7387   -0.7481    0.0000 H   0  0  0  0  0  0  0  0  0  0  0  0
    5.1422    2.6184    0.0000 H   0  0  0  0  0  0  0  0  0  0  0  0
    4.6563    2.0430    0.0000 H   0  0  0  0  0  0  0  0  0  0  0  0
    6.6268    2.0277    0.0000 H   0  0  0  0  0  0  0  0  0  0  0  0
    2.3275    0.5251    0.0000 H   0  0  0  0  0  0  0  0  0  0  0  0
    5.1231    0.1154    0.0000 H   0  0  0  0  0  0  0  0  0  0  0  0
    6.2090   -1.0025    0.0000 H   0  0  0  0  0  0  0  0  0  0  0  0
    8.3220    0.8935    0.0000 H   0  0  0  0  0  0  0  0  0  0  0  0
    7.9966    1.6145    0.0000 H   0  0  0  0  0  0  0  0  0  0  0  0
    8.4329    0.4933    0.0000 H   0  0  0  0  0  0  0  0  0  0  0  0
    2.1687    0.0877    0.0000 H   0  0  0  0  0  0  0  0  0  0  0  0
    2.0008   -0.6665    0.0000 H   0  0  0  0  0  0  0  0  0  0  0  0
    2.9774   -2.2750    0.0000 H   0  0  0  0  0  0  0  0  0  0  0  0
    2.8508   -1.9660    0.0000 H   0  0  0  0  0  0  0  0  0  0  0  0
    7.9672    2.2948    0.0000 H   0  0  0  0  0  0  0  0  0  0  0  0
    7.5970    3.0896    0.0000 H   0  0  0  0  0  0  0  0  0  0  0  0
    6.8022    2.7194    0.0000 H   0  0  0  0  0  0  0  0  0  0  0  0
    5.4986   -2.0444    0.0000 H   0  0  0  0  0  0  0  0  0  0  0  0
    6.1639   -1.4733    0.0000 H   0  0  0  0  0  0  0  0  0  0  0  0
    5.5929   -0.8079    0.0000 H   0  0  0  0  0  0  0  0  0  0  0  0
    6.2169   -1.0717    0.0000 H   0  0  0  0  0  0  0  0  0  0  0  0
    3.3485   -3.1691    0.0000 H   0  0  0  0  0  0  0  0  0  0  0  0
    1.6121   -1.4920    0.0000 H   0  0  0  0  0  0  0  0  0  0  0  0
    1.5163   -2.3635    0.0000 H   0  0  0  0  0  0  0  0  0  0  0  0
    2.3879   -2.4594    0.0000 H   0  0  0  0  0  0  0  0  0  0  0  0
    5.0240   -3.4740    0.0000 H   0  0  0  0  0  0  0  0  0  0  0  0
    6.3393   -2.5792    0.0000 H   0  0  0  0  0  0  0  0  0  0  0  0
    7.4006   -2.7426    0.0000 H   0  0  0  0  0  0  0  0  0  0  0  0
  1 18  1  0  0  0  0
  1 19  1  0  0  0  0
  2 16  2  0  0  0  0
 20  3  1  6  0  0  0
  3 63  1  0  0  0  0
  4 24  1  0  0  0  0
  4 33  1  0  0  0  0
  5 19  2  0  0  0  0
  6 30  2  0  0  0  0
  7 33  2  0  0  0  0
  8  9  1  0  0  0  0
  8 10  1  0  0  0  0
  8 14  1  1  0  0  0
  8 16  1  0  0  0  0
  9 12  1  0  0  0  0
  9 13  1  0  0  0  0
  9 19  1  6  0  0  0
 10 11  1  0  0  0  0
 10 17  1  0  0  0  0
 10 37  1  6  0  0  0
 11 12  1  0  0  0  0
 11 15  1  0  0  0  0
 11 38  1  0  0  0  0
 12 39  1  0  0  0  0
 12 40  1  0  0  0  0
 13 18  1  0  0  0  0
 13 20  1  0  0  0  0
 13 41  1  6  0  0  0
 14 21  1  0  0  0  0
 14 42  1  0  0  0  0
 14 43  1  0  0  0  0
 15 16  1  0  0  0  0
 15 44  1  0  0  0  0
 15 45  1  0  0  0  0
 17 22  1  0  0  0  0
 17 28  1  6  0  0  0
 17 46  1  0  0  0  0
 18 25  1  0  0  0  0
 18 47  1  6  0  0  0
 20 23  1  0  0  0  0
 20 48  1  0  0  0  0
 21 24  1  0  0  0  0
 21 29  1  0  0  0  0
 21 49  1  6  0  0  0
 22 24  1  0  0  0  0
 22 50  1  0  0  0  0
 22 51  1  0  0  0  0
 23 26  1  0  0  0  0
 23 30  1  0  0  0  0
 23 31  1  1  0  0  0
 24 52  1  6  0  0  0
 25 27  1  0  0  0  0
 25 53  1  0  0  0  0
 25 54  1  0  0  0  0
 26 27  1  0  0  0  0
 26 32  1  0  0  0  0
 26 55  1  6  0  0  0
 27 34  1  6  0  0  0
 27 56  1  0  0  0  0
 28 57  1  0  0  0  0
 28 58  1  0  0  0  0
 28 59  1  0  0  0  0
 29 33  1  0  0  0  0
 29 36  2  0  0  0  0
 30 35  1  0  0  0  0
 31 60  1  0  0  0  0
 31 61  1  0  0  0  0
 31 62  1  0  0  0  0
 32 35  2  0  0  0  0
 32 64  1  0  0  0  0
 34 65  1  0  0  0  0
 34 66  1  0  0  0  0
 34 67  1  0  0  0  0
 35 68  1  0  0  0  0
 36 69  1  0  0  0  0
 36 70  1  0  0  0  0
M  END
> <PUBCHEM_COMPOUND_CID>
442281

> <PUBCHEM_COMPOUND_CANONICALIZED>
1

> <PUBCHEM_CACTVS_COMPLEXITY>
1170

> <PUBCHEM_CACTVS_HBOND_ACCEPTOR>
7

> <PUBCHEM_CACTVS_HBOND_DONOR>
1

> <PUBCHEM_CACTVS_ROTATABLE_BOND>
0

> <PUBCHEM_CACTVS_SUBSKEYS>
AAADcfB4OAAAAAAAAAAAAAAAAAAAAaNECBAwAAAABgwAAADQAAAAGgAACAAADxSggAICCAAABgCIAqDSCAAAAAAgAAAICAEAAEgAFBYAIQACQAAF4AAIIYPLzPDPgAAAAAAAAACAAAQAACAAAQAACAAAAA==

> <PUBCHEM_IUPAC_INCHI>
InChI=1S/C29H34O7/c1-12-7-19-23(24(32)27(4)17(12)5-6-20(27)30)29(26(34)36-19)10-15-9-21(31)28(29)11-16-14(3)25(33)35-18(16)8-13(2)22(15)28/h5-6,12-13,15-19,22-24,32H,3,7-11H2,1-2,4H3/t12-,13-,15?,16-,17+,18-,19-,22-,23-,24+,27+,28-,29-/m1/s1

> <PUBCHEM_IUPAC_INCHIKEY>
DYQPBOQOSSSYTE-YRZOVCRWSA-N

> <PUBCHEM_XLOGP3>
1.7

> <PUBCHEM_EXACT_MASS>
494.230453

> <PUBCHEM_MOLECULAR_FORMULA>
C29H34O7

> <PUBCHEM_MOLECULAR_WEIGHT>
494.57606

> <PUBCHEM_OPENEYE_CAN_SMILES>
CC1CC2C(C(C3(C1C=CC3=O)C)O)C4(CC5CC(=O)C46C5C(CC7C(C6)C(=C)C(=O)O7)C)C(=O)O2

> <PUBCHEM_OPENEYE_ISO_SMILES>
C[C@@H]1C[C@@H]2[C@H]([C@@H]([C@]3([C@H]1C=CC3=O)C)O)[C@]4(CC5CC(=O)[C@]46[C@@H]5[C@@H](C[C@@H]7[C@H](C6)C(=C)C(=O)O7)C)C(=O)O2

> <PUBCHEM_CACTVS_TPSA>
107

> <PUBCHEM_MONOISOTOPIC_WEIGHT>
494.230453

> <PUBCHEM_TOTAL_CHARGE>
0

> <PUBCHEM_HEAVY_ATOM_COUNT>
36

> <PUBCHEM_ATOM_DEF_STEREO_COUNT>
12

> <PUBCHEM_ATOM_UDEF_STEREO_COUNT>
1

> <PUBCHEM_BOND_DEF_STEREO_COUNT>
0

> <PUBCHEM_BOND_UDEF_STEREO_COUNT>
0

> <PUBCHEM_ISOTOPIC_ATOM_COUNT>
0

> <PUBCHEM_COMPONENT_COUNT>
1

> <PUBCHEM_CACTVS_TAUTO_COUNT>
6

> <PUBCHEM_COORDINATE_TYPE>
1
5
255

> <PUBCHEM_BONDANNOTATIONS>
10  37  6
11  38  3
13  41  6
17  28  6
18  47  6
21  49  6
23  31  5
24  52  6
26  55  6
27  34  6
20  3  6
8  14  5
9  19  6

$$$$

