4318
  -OEChem-06261200023D

 96101  0     1  0  0  0  0  0999 V2000
   -2.6983    2.0544    4.2378 O   0  0  0  0  0  0  0  0  0  0  0  0
   -4.4031   -3.7097   -2.0776 O   0  0  0  0  0  0  0  0  0  0  0  0
    0.0580    2.6140   -0.4570 O   0  0  0  0  0  0  0  0  0  0  0  0
    4.5004   -1.4041   -1.2955 O   0  0  0  0  0  0  0  0  0  0  0  0
   -4.6467   -0.1628    1.4268 O   0  0  0  0  0  0  0  0  0  0  0  0
   -0.2023    0.8476    1.8210 N   0  0  1  0  0  0  0  0  0  0  0  0
    1.9205   -0.9546    0.9877 N   0  0  1  0  0  0  0  0  0  0  0  0
   -3.1995   -0.8179   -0.2643 N   0  0  0  0  0  0  0  0  0  0  0  0
    1.4991    3.6957    1.0168 N   0  0  0  0  0  0  0  0  0  0  0  0
    1.0768    1.3550    1.2969 C   0  0  1  0  0  0  0  0  0  0  0  0
    1.7377    0.3488    0.3401 C   0  0  0  0  0  0  0  0  0  0  0  0
   -0.0127   -0.4772    2.4345 C   0  0  0  0  0  0  0  0  0  0  0  0
   -0.7972    1.7573    2.8063 C   0  0  0  0  0  0  0  0  0  0  0  0
    0.6295   -1.4661    1.4586 C   0  0  0  0  0  0  0  0  0  0  0  0
   -2.3042    1.5266    2.9702 C   0  0  2  0  0  0  0  0  0  0  0  0
   -3.1322    2.2212    1.8735 C   0  0  0  0  0  0  0  0  0  0  0  0
   -3.1017    1.4762    0.5194 C   0  0  2  0  0  0  0  0  0  0  0  0
   -3.6601   -2.1777   -0.3684 C   0  0  1  0  0  0  0  0  0  0  0  0
    0.8045    2.6070    0.5182 C   0  0  0  0  0  0  0  0  0  0  0  0
    2.5526   -1.9045    0.0740 C   0  0  0  0  0  0  0  0  0  0  0  0
   -3.3606   -2.7855   -1.7552 C   0  0  1  0  0  0  0  0  0  0  0  0
   -2.0204   -3.5371   -1.6503 C   0  0  0  0  0  0  0  0  0  0  0  0
   -2.8891   -3.0962    0.5337 C   0  0  0  0  0  0  0  0  0  0  0  0
   -3.8673    2.2527   -0.5753 C   0  0  0  0  0  0  0  0  0  0  0  0
   -3.7387    0.0887    0.6372 C   0  0  0  0  0  0  0  0  0  0  0  0
   -1.9732   -3.8675   -0.1902 C   0  0  0  0  0  0  0  0  0  0  0  0
    1.4274    5.0147    0.4310 C   0  0  0  0  0  0  0  0  0  0  0  0
    4.0343   -1.6658   -0.0465 C   0  0  0  0  0  0  0  0  0  0  0  0
   -2.9897   -3.2175    1.9111 C   0  0  0  0  0  0  0  0  0  0  0  0
   -3.5006    1.8474   -1.9820 C   0  0  0  0  0  0  0  0  0  0  0  0
   -1.1339   -4.7665    0.4474 C   0  0  0  0  0  0  0  0  0  0  0  0
    2.3164    5.9736    1.2313 C   0  0  0  0  0  0  0  0  0  0  0  0
    1.9141    4.9455   -1.0202 C   0  0  0  0  0  0  0  0  0  0  0  0
   -0.0237    5.5078    0.4688 C   0  0  0  0  0  0  0  0  0  0  0  0
    5.0609   -1.6541    0.8692 C   0  0  0  0  0  0  0  0  0  0  0  0
   -2.1552   -4.1295    2.5607 C   0  0  0  0  0  0  0  0  0  0  0  0
   -1.2334   -4.8983    1.8339 C   0  0  0  0  0  0  0  0  0  0  0  0
    6.2445   -1.3662    0.1398 C   0  0  0  0  0  0  0  0  0  0  0  0
    5.8463   -1.2212   -1.1852 C   0  0  0  0  0  0  0  0  0  0  0  0
   -2.4612    2.4980   -2.6468 C   0  0  0  0  0  0  0  0  0  0  0  0
   -4.2015    0.8224   -2.6176 C   0  0  0  0  0  0  0  0  0  0  0  0
   -2.1226    2.1235   -3.9470 C   0  0  0  0  0  0  0  0  0  0  0  0
   -3.8628    0.4479   -3.9178 C   0  0  0  0  0  0  0  0  0  0  0  0
    7.6065   -1.2123    0.4525 C   0  0  0  0  0  0  0  0  0  0  0  0
    6.7155   -0.9304   -2.2351 C   0  0  0  0  0  0  0  0  0  0  0  0
   -2.8233    1.0984   -4.5826 C   0  0  0  0  0  0  0  0  0  0  0  0
    8.5052   -0.9199   -0.5827 C   0  0  0  0  0  0  0  0  0  0  0  0
    8.0651   -0.7817   -1.9015 C   0  0  0  0  0  0  0  0  0  0  0  0
    1.7659    1.5477    2.1306 H   0  0  0  0  0  0  0  0  0  0  0  0
    1.1384    0.2395   -0.5756 H   0  0  0  0  0  0  0  0  0  0  0  0
    2.7075    0.7595    0.0305 H   0  0  0  0  0  0  0  0  0  0  0  0
   -0.9703   -0.9054    2.7460 H   0  0  0  0  0  0  0  0  0  0  0  0
    0.6146   -0.4044    3.3339 H   0  0  0  0  0  0  0  0  0  0  0  0
   -0.6592    2.8107    2.5358 H   0  0  0  0  0  0  0  0  0  0  0  0
   -0.2907    1.6613    3.7772 H   0  0  0  0  0  0  0  0  0  0  0  0
    0.7746   -2.4177    1.9831 H   0  0  0  0  0  0  0  0  0  0  0  0
   -0.0468   -1.6485    0.6143 H   0  0  0  0  0  0  0  0  0  0  0  0
   -2.5461    0.4624    3.0206 H   0  0  0  0  0  0  0  0  0  0  0  0
   -4.1728    2.3146    2.2125 H   0  0  0  0  0  0  0  0  0  0  0  0
   -2.7796    3.2525    1.7440 H   0  0  0  0  0  0  0  0  0  0  0  0
   -2.0648    1.3619    0.1984 H   0  0  0  0  0  0  0  0  0  0  0  0
   -4.7289   -2.2269   -0.1289 H   0  0  0  0  0  0  0  0  0  0  0  0
    2.0754   -1.9015   -0.9145 H   0  0  0  0  0  0  0  0  0  0  0  0
    2.4464   -2.9264    0.4634 H   0  0  0  0  0  0  0  0  0  0  0  0
   -3.3307   -2.0510   -2.5634 H   0  0  0  0  0  0  0  0  0  0  0  0
   -1.1803   -2.8796   -1.8972 H   0  0  0  0  0  0  0  0  0  0  0  0
   -2.0012   -4.4394   -2.2683 H   0  0  0  0  0  0  0  0  0  0  0  0
   -4.9517    2.1446   -0.4373 H   0  0  0  0  0  0  0  0  0  0  0  0
   -3.6677    3.3276   -0.4701 H   0  0  0  0  0  0  0  0  0  0  0  0
   -2.3923   -0.5453   -0.8180 H   0  0  0  0  0  0  0  0  0  0  0  0
    2.0926    3.5721    1.8320 H   0  0  0  0  0  0  0  0  0  0  0  0
   -3.6435    1.8597    4.3574 H   0  0  0  0  0  0  0  0  0  0  0  0
   -3.6963   -2.6222    2.4789 H   0  0  0  0  0  0  0  0  0  0  0  0
   -0.4136   -5.3545   -0.1112 H   0  0  0  0  0  0  0  0  0  0  0  0
    1.9949    6.0304    2.2779 H   0  0  0  0  0  0  0  0  0  0  0  0
    3.3603    5.6388    1.2299 H   0  0  0  0  0  0  0  0  0  0  0  0
    2.2879    6.9868    0.8155 H   0  0  0  0  0  0  0  0  0  0  0  0
    2.9150    4.5019   -1.0801 H   0  0  0  0  0  0  0  0  0  0  0  0
    1.9702    5.9486   -1.4591 H   0  0  0  0  0  0  0  0  0  0  0  0
    1.2560    4.3561   -1.6659 H   0  0  0  0  0  0  0  0  0  0  0  0
   -0.6939    4.9167   -0.1628 H   0  0  0  0  0  0  0  0  0  0  0  0
   -0.4246    5.4755    1.4889 H   0  0  0  0  0  0  0  0  0  0  0  0
   -0.0916    6.5445    0.1187 H   0  0  0  0  0  0  0  0  0  0  0  0
   -5.2284   -3.2008   -2.1538 H   0  0  0  0  0  0  0  0  0  0  0  0
    4.9708   -1.8314    1.9318 H   0  0  0  0  0  0  0  0  0  0  0  0
   -2.2158   -4.2422    3.6398 H   0  0  0  0  0  0  0  0  0  0  0  0
   -0.5875   -5.5983    2.3570 H   0  0  0  0  0  0  0  0  0  0  0  0
   -1.9135    3.3038   -2.1667 H   0  0  0  0  0  0  0  0  0  0  0  0
   -5.0260    0.3180   -2.1208 H   0  0  0  0  0  0  0  0  0  0  0  0
   -1.3144    2.6313   -4.4652 H   0  0  0  0  0  0  0  0  0  0  0  0
   -4.4113   -0.3472   -4.4142 H   0  0  0  0  0  0  0  0  0  0  0  0
    7.9632   -1.3166    1.4728 H   0  0  0  0  0  0  0  0  0  0  0  0
    6.3668   -0.8248   -3.2555 H   0  0  0  0  0  0  0  0  0  0  0  0
   -2.5605    0.8076   -5.5954 H   0  0  0  0  0  0  0  0  0  0  0  0
    9.5611   -0.7986   -0.3544 H   0  0  0  0  0  0  0  0  0  0  0  0
    8.7852   -0.5544   -2.6837 H   0  0  0  0  0  0  0  0  0  0  0  0
  1 15  1  0  0  0  0
  1 72  1  0  0  0  0
  2 21  1  0  0  0  0
  2 84  1  0  0  0  0
  3 19  2  0  0  0  0
  4 28  1  0  0  0  0
  4 39  1  0  0  0  0
  5 25  2  0  0  0  0
  6 10  1  0  0  0  0
  6 12  1  0  0  0  0
  6 13  1  0  0  0  0
  7 11  1  0  0  0  0
  7 14  1  0  0  0  0
  7 20  1  0  0  0  0
  8 18  1  0  0  0  0
  8 25  1  0  0  0  0
  8 70  1  0  0  0  0
  9 19  1  0  0  0  0
  9 27  1  0  0  0  0
  9 71  1  0  0  0  0
 10 11  1  0  0  0  0
 10 19  1  0  0  0  0
 10 49  1  0  0  0  0
 11 50  1  0  0  0  0
 11 51  1  0  0  0  0
 12 14  1  0  0  0  0
 12 52  1  0  0  0  0
 12 53  1  0  0  0  0
 13 15  1  0  0  0  0
 13 54  1  0  0  0  0
 13 55  1  0  0  0  0
 14 56  1  0  0  0  0
 14 57  1  0  0  0  0
 15 16  1  0  0  0  0
 15 58  1  0  0  0  0
 16 17  1  0  0  0  0
 16 59  1  0  0  0  0
 16 60  1  0  0  0  0
 17 24  1  0  0  0  0
 17 25  1  0  0  0  0
 17 61  1  0  0  0  0
 18 21  1  0  0  0  0
 18 23  1  0  0  0  0
 18 62  1  0  0  0  0
 20 28  1  0  0  0  0
 20 63  1  0  0  0  0
 20 64  1  0  0  0  0
 21 22  1  0  0  0  0
 21 65  1  0  0  0  0
 22 26  1  0  0  0  0
 22 66  1  0  0  0  0
 22 67  1  0  0  0  0
 23 26  1  0  0  0  0
 23 29  2  0  0  0  0
 24 30  1  0  0  0  0
 24 68  1  0  0  0  0
 24 69  1  0  0  0  0
 26 31  2  0  0  0  0
 27 32  1  0  0  0  0
 27 33  1  0  0  0  0
 27 34  1  0  0  0  0
 28 35  2  0  0  0  0
 29 36  1  0  0  0  0
 29 73  1  0  0  0  0
 30 40  2  0  0  0  0
 30 41  1  0  0  0  0
 31 37  1  0  0  0  0
 31 74  1  0  0  0  0
 32 75  1  0  0  0  0
 32 76  1  0  0  0  0
 32 77  1  0  0  0  0
 33 78  1  0  0  0  0
 33 79  1  0  0  0  0
 33 80  1  0  0  0  0
 34 81  1  0  0  0  0
 34 82  1  0  0  0  0
 34 83  1  0  0  0  0
 35 38  1  0  0  0  0
 35 85  1  0  0  0  0
 36 37  2  0  0  0  0
 36 86  1  0  0  0  0
 37 87  1  0  0  0  0
 38 39  1  0  0  0  0
 38 44  2  0  0  0  0
 39 45  2  0  0  0  0
 40 42  1  0  0  0  0
 40 88  1  0  0  0  0
 41 43  2  0  0  0  0
 41 89  1  0  0  0  0
 42 46  2  0  0  0  0
 42 90  1  0  0  0  0
 43 46  1  0  0  0  0
 43 91  1  0  0  0  0
 44 47  1  0  0  0  0
 44 92  1  0  0  0  0
 45 48  1  0  0  0  0
 45 93  1  0  0  0  0
 46 94  1  0  0  0  0
 47 48  2  0  0  0  0
 47 95  1  0  0  0  0
 48 96  1  0  0  0  0
M  END
> <PUBCHEM_COMPOUND_CID>
4318

> <PUBCHEM_CONFORMER_RMSD>
2.2

> <PUBCHEM_CONFORMER_DIVERSEORDER>
3
27
68
33
36
70
135
110
109
126
64
105
48
52
119
63
132
75
74
81
88
58
56
120
85
43
45
50
131
32
101
71
10
61
104
107
65
76
18
103
73
39
41
84
112
102
12
20
53
78
108
123
115
42
40
128
129
62
60
44
134
113
16
97
79
13
117
77
47
90
67
72
17
127
22
100
38
124
51
57
54
19
24
121
87
93
94
55
29
95
99
14
106
34
91
37
21
6
133
82
1
46
5
111
80
130
114
69
96
23
98
25
83
122
11
26
118
28
8
7
30
49
86
15
9
31
92
59
89
116
2
66
4
35
125

> <PUBCHEM_MMFF94_PARTIAL_CHARGES>
61
1 -0.68
10 0.33
11 0.27
12 0.27
13 0.27
14 0.27
15 0.28
17 0.06
18 0.44
19 0.57
2 -0.68
20 0.45
21 0.28
22 0.14
23 -0.14
24 0.14
25 0.57
26 -0.14
27 0.3
28 -0.04
29 -0.15
3 -0.57
30 -0.14
31 -0.15
35 -0.15
36 -0.15
37 -0.15
39 0.14
4 -0.28
40 -0.15
41 -0.15
42 -0.15
43 -0.15
44 -0.15
45 -0.15
46 -0.15
47 -0.15
48 -0.15
5 -0.57
6 -0.81
7 -0.81
70 0.37
71 0.37
72 0.4
73 0.15
74 0.15
8 -0.73
84 0.4
85 0.15
86 0.15
87 0.15
88 0.15
89 0.15
9 -0.73
90 0.15
91 0.15
92 0.15
93 0.15
94 0.15
95 0.15
96 0.15

> <PUBCHEM_EFFECTIVE_ROTOR_COUNT>
15.8

> <PUBCHEM_PHARMACOPHORE_FEATURES>
18
1 1 acceptor
1 1 donor
1 2 acceptor
1 2 donor
1 3 acceptor
1 4 acceptor
1 5 acceptor
1 6 cation
1 7 cation
1 8 donor
1 9 donor
4 27 32 33 34 hydrophobe
5 18 21 22 23 26 rings
5 4 28 35 38 39 rings
6 23 26 29 31 36 37 rings
6 30 40 41 42 43 46 rings
6 38 39 44 45 47 48 rings
6 6 7 10 11 12 14 rings

> <PUBCHEM_HEAVY_ATOM_COUNT>
48

> <PUBCHEM_ATOM_DEF_STEREO_COUNT>
0

> <PUBCHEM_ATOM_UDEF_STEREO_COUNT>
5

> <PUBCHEM_BOND_DEF_STEREO_COUNT>
0

> <PUBCHEM_BOND_UDEF_STEREO_COUNT>
0

> <PUBCHEM_ISOTOPIC_ATOM_COUNT>
0

> <PUBCHEM_COMPONENT_COUNT>
1

> <PUBCHEM_CACTVS_TAUTO_COUNT>
4

> <PUBCHEM_CONFORMER_ID>
000010DE00000003

> <PUBCHEM_MMFF94_ENERGY>
114.5648

> <PUBCHEM_FEATURE_SELFOVERLAP>
91.524

> <PUBCHEM_SHAPE_FINGERPRINT>
10940486 97 18260540139000470520
11285246 1 18044971006340270269
13761468 95 18123743412083251854
13911987 19 18199747123267189608
14040221 310 17022628585407620830
14114206 34 18043549393450180865
15274700 242 18121213444465354922
19311894 1 18336553823130637603
21779490 97 18200028585997542266
44802255 64 17846494880613136306
5080951 261 18411983581377758994
5776283 40 18272384065459447727

> <PUBCHEM_SHAPE_MULTIPOLES>
938.55
14.07
7.88
4.06
39.92
4.53
-2.28
-8.42
-9.11
-3.19
2.72
-5.58
1.82
1.91

> <PUBCHEM_SHAPE_SELFOVERLAP>
2016.746

> <PUBCHEM_SHAPE_VOLUME>
520.6

> <PUBCHEM_COORDINATE_TYPE>
2
5
10

$$$$

