5281154
  -OEChem-07051212553D

 23 23  0     0  0  0  0  0  0999 V2000
    2.1374   -0.0115    0.0114 C   0  0  0  0  0  0  0  0  0  0  0  0
    2.7638    1.2305    0.1048 C   0  0  0  0  0  0  0  0  0  0  0  0
    2.8988   -1.1688   -0.1443 C   0  0  0  0  0  0  0  0  0  0  0  0
    4.1547    1.3151    0.0424 C   0  0  0  0  0  0  0  0  0  0  0  0
    4.2898   -1.0841   -0.2065 C   0  0  0  0  0  0  0  0  0  0  0  0
    4.9177    0.1578   -0.1132 C   0  0  0  0  0  0  0  0  0  0  0  0
    0.7109   -0.0981    0.0759 C   0  0  0  0  0  0  0  0  0  0  0  0
   -6.7518    0.3852   -0.3064 C   0  0  0  0  0  0  0  0  0  0  0  0
   -5.2599    0.4398   -0.3461 C   0  0  0  0  0  0  0  0  0  0  0  0
   -4.4681   -0.4160    0.3138 C   0  0  0  0  0  0  0  0  0  0  0  0
   -0.4865   -0.1708    0.1301 C   0  0  0  0  0  0  0  0  0  0  0  0
   -3.0520   -0.3255    0.2460 C   0  0  0  0  0  0  0  0  0  0  0  0
   -1.8547   -0.2537    0.1920 C   0  0  0  0  0  0  0  0  0  0  0  0
    2.1828    2.1416    0.2265 H   0  0  0  0  0  0  0  0  0  0  0  0
    2.4240   -2.1442   -0.2184 H   0  0  0  0  0  0  0  0  0  0  0  0
    4.6439    2.2821    0.1151 H   0  0  0  0  0  0  0  0  0  0  0  0
    4.8839   -1.9851   -0.3277 H   0  0  0  0  0  0  0  0  0  0  0  0
    6.0007    0.2239   -0.1617 H   0  0  0  0  0  0  0  0  0  0  0  0
   -7.1210   -0.4317    0.3218 H   0  0  0  0  0  0  0  0  0  0  0  0
   -7.1485    1.3254    0.0887 H   0  0  0  0  0  0  0  0  0  0  0  0
   -7.1463    0.2432   -1.3172 H   0  0  0  0  0  0  0  0  0  0  0  0
   -4.8224    1.2292   -0.9531 H   0  0  0  0  0  0  0  0  0  0  0  0
   -4.8967   -1.2064    0.9216 H   0  0  0  0  0  0  0  0  0  0  0  0
  1  2  2  0  0  0  0
  1  3  1  0  0  0  0
  1  7  1  0  0  0  0
  2  4  1  0  0  0  0
  2 14  1  0  0  0  0
  3  5  2  0  0  0  0
  3 15  1  0  0  0  0
  4  6  2  0  0  0  0
  4 16  1  0  0  0  0
  5  6  1  0  0  0  0
  5 17  1  0  0  0  0
  6 18  1  0  0  0  0
  7 11  3  0  0  0  0
  8  9  1  0  0  0  0
  8 19  1  0  0  0  0
  8 20  1  0  0  0  0
  8 21  1  0  0  0  0
  9 10  2  0  0  0  0
  9 22  1  0  0  0  0
 10 12  1  0  0  0  0
 10 23  1  0  0  0  0
 11 13  1  0  0  0  0
 12 13  3  0  0  0  0
M  END
> <PUBCHEM_COMPOUND_CID>
5281154

> <PUBCHEM_CONFORMER_RMSD>
0.4

> <PUBCHEM_CONFORMER_DIVERSEORDER>
1

> <PUBCHEM_MMFF94_PARTIAL_CHARGES>
18
1 0.07
10 -0.09
12 -0.06
14 0.15
15 0.15
16 0.15
17 0.15
18 0.15
2 -0.15
22 0.15
23 0.15
3 -0.15
4 -0.15
5 -0.15
6 -0.15
7 -0.07
8 0.14
9 -0.29

> <PUBCHEM_EFFECTIVE_ROTOR_COUNT>
0

> <PUBCHEM_PHARMACOPHORE_FEATURES>
2
1 8 hydrophobe
6 1 2 3 4 5 6 rings

> <PUBCHEM_HEAVY_ATOM_COUNT>
13

> <PUBCHEM_ATOM_DEF_STEREO_COUNT>
0

> <PUBCHEM_ATOM_UDEF_STEREO_COUNT>
0

> <PUBCHEM_BOND_DEF_STEREO_COUNT>
1

> <PUBCHEM_BOND_UDEF_STEREO_COUNT>
0

> <PUBCHEM_ISOTOPIC_ATOM_COUNT>
0

> <PUBCHEM_COMPONENT_COUNT>
1

> <PUBCHEM_CACTVS_TAUTO_COUNT>
1

> <PUBCHEM_CONFORMER_ID>
0050958200000001

> <PUBCHEM_MMFF94_ENERGY>
14.1378

> <PUBCHEM_FEATURE_SELFOVERLAP>
10.148

> <PUBCHEM_SHAPE_FINGERPRINT>
10354089 29 11383830472140307846
11287383 113 18342736287071931931
11471102 20 18408601453302640688
11858739 19 17895190051557050190
13167372 99 18261106435208266441
13533116 47 17386004022169518790
14123238 8 7853854988240338827
15242439 84 18273211997799487163
17834072 33 18186523172603142447
17834076 25 16200432477115697595
200 152 17894914044511264673
20281389 69 17988927799477748309
20645477 56 17846500327290147575
20645477 70 18335137643669486374
23402539 116 18335707126673807663
23402655 69 18335138674350373734
23536379 177 18335421288068333379
29717793 49 17458337563618802036
300161 21 18186526474995175503
3545911 37 18341892987322848619
42788 4 18411699889928228523
522135 26 18408322194450030858
542803 24 14908179750745726359

> <PUBCHEM_SHAPE_MULTIPOLES>
267.53
15.01
1.12
0.66
19.4
0.1
0
1.81
1.57
-1.33
0.02
0.12
0
0.34

> <PUBCHEM_SHAPE_SELFOVERLAP>
546.462

> <PUBCHEM_SHAPE_VOLUME>
146.5

> <PUBCHEM_COORDINATE_TYPE>
2
5
10

$$$$

