124052
  -OEChem-07051212593D

 44 47  0     1  0  0  0  0  0999 V2000
   -0.3905    1.3181    0.3976 O   0  0  0  0  0  0  0  0  0  0  0  0
   -4.6431   -0.8823   -0.1452 O   0  0  0  0  0  0  0  0  0  0  0  0
    3.5966    0.9827   -2.2293 O   0  0  0  0  0  0  0  0  0  0  0  0
    7.2797   -0.1255    0.5852 O   0  0  0  0  0  0  0  0  0  0  0  0
    1.6839    0.1918   -0.2428 C   0  0  1  0  0  0  0  0  0  0  0  0
    1.0199   -1.1867   -0.1646 C   0  0  0  0  0  0  0  0  0  0  0  0
   -0.4794   -1.0537   -0.1464 C   0  0  0  0  0  0  0  0  0  0  0  0
    0.9818    1.1172    0.7528 C   0  0  0  0  0  0  0  0  0  0  0  0
   -1.1050    0.1712    0.1416 C   0  0  0  0  0  0  0  0  0  0  0  0
   -2.5100    0.2734    0.1368 C   0  0  0  0  0  0  0  0  0  0  0  0
    3.1815    0.1134   -0.0345 C   0  0  0  0  0  0  0  0  0  0  0  0
   -5.3683    0.3487    0.0479 C   0  0  0  0  0  0  0  0  0  0  0  0
   -3.2764   -0.8662   -0.1280 C   0  0  0  0  0  0  0  0  0  0  0  0
   -1.2669   -2.1831   -0.3967 C   0  0  0  0  0  0  0  0  0  0  0  0
   -3.1954    1.5309    0.4114 C   0  0  0  0  0  0  0  0  0  0  0  0
   -2.6564   -2.0899   -0.3876 C   0  0  0  0  0  0  0  0  0  0  0  0
   -4.5288    1.5600    0.3663 C   0  0  0  0  0  0  0  0  0  0  0  0
    4.0641    0.5127   -1.0389 C   0  0  0  0  0  0  0  0  0  0  0  0
   -6.3438    0.0934    1.2030 C   0  0  0  0  0  0  0  0  0  0  0  0
   -6.1537    0.6003   -1.2446 C   0  0  0  0  0  0  0  0  0  0  0  0
    3.6778   -0.3660    1.1782 C   0  0  0  0  0  0  0  0  0  0  0  0
    5.4410    0.4327   -0.8306 C   0  0  0  0  0  0  0  0  0  0  0  0
    5.0548   -0.4463    1.3864 C   0  0  0  0  0  0  0  0  0  0  0  0
    5.9363   -0.0469    0.3820 C   0  0  0  0  0  0  0  0  0  0  0  0
    1.4681    0.5878   -1.2448 H   0  0  0  0  0  0  0  0  0  0  0  0
    1.3143   -1.7296    0.7417 H   0  0  0  0  0  0  0  0  0  0  0  0
    1.3340   -1.7912   -1.0251 H   0  0  0  0  0  0  0  0  0  0  0  0
    1.0282    0.7432    1.7836 H   0  0  0  0  0  0  0  0  0  0  0  0
    1.4578    2.1047    0.7513 H   0  0  0  0  0  0  0  0  0  0  0  0
   -0.8003   -3.1426   -0.6052 H   0  0  0  0  0  0  0  0  0  0  0  0
   -2.6306    2.4258    0.6425 H   0  0  0  0  0  0  0  0  0  0  0  0
   -3.2520   -2.9769   -0.5879 H   0  0  0  0  0  0  0  0  0  0  0  0
   -5.0388    2.5000    0.5632 H   0  0  0  0  0  0  0  0  0  0  0  0
   -5.8014   -0.1321    2.1292 H   0  0  0  0  0  0  0  0  0  0  0  0
   -6.9968    0.9535    1.3875 H   0  0  0  0  0  0  0  0  0  0  0  0
   -6.9746   -0.7792    0.9959 H   0  0  0  0  0  0  0  0  0  0  0  0
   -6.7969    1.4840   -1.1692 H   0  0  0  0  0  0  0  0  0  0  0  0
   -5.4740    0.7411   -2.0937 H   0  0  0  0  0  0  0  0  0  0  0  0
   -6.7822   -0.2629   -1.4939 H   0  0  0  0  0  0  0  0  0  0  0  0
    3.0117   -0.6783    1.9777 H   0  0  0  0  0  0  0  0  0  0  0  0
    6.1292    0.7437   -1.6129 H   0  0  0  0  0  0  0  0  0  0  0  0
    5.4347   -0.8196    2.3335 H   0  0  0  0  0  0  0  0  0  0  0  0
    4.3509    1.2098   -2.7998 H   0  0  0  0  0  0  0  0  0  0  0  0
    7.7386    0.1910   -0.2118 H   0  0  0  0  0  0  0  0  0  0  0  0
  1  8  1  0  0  0  0
  1  9  1  0  0  0  0
  2 12  1  0  0  0  0
  2 13  1  0  0  0  0
  3 18  1  0  0  0  0
  3 43  1  0  0  0  0
  4 24  1  0  0  0  0
  4 44  1  0  0  0  0
  5  6  1  0  0  0  0
  5  8  1  0  0  0  0
  5 11  1  0  0  0  0
  5 25  1  0  0  0  0
  6  7  1  0  0  0  0
  6 26  1  0  0  0  0
  6 27  1  0  0  0  0
  7  9  2  0  0  0  0
  7 14  1  0  0  0  0
  8 28  1  0  0  0  0
  8 29  1  0  0  0  0
  9 10  1  0  0  0  0
 10 13  2  0  0  0  0
 10 15  1  0  0  0  0
 11 18  2  0  0  0  0
 11 21  1  0  0  0  0
 12 17  1  0  0  0  0
 12 19  1  0  0  0  0
 12 20  1  0  0  0  0
 13 16  1  0  0  0  0
 14 16  2  0  0  0  0
 14 30  1  0  0  0  0
 15 17  2  0  0  0  0
 15 31  1  0  0  0  0
 16 32  1  0  0  0  0
 17 33  1  0  0  0  0
 18 22  1  0  0  0  0
 19 34  1  0  0  0  0
 19 35  1  0  0  0  0
 19 36  1  0  0  0  0
 20 37  1  0  0  0  0
 20 38  1  0  0  0  0
 20 39  1  0  0  0  0
 21 23  2  0  0  0  0
 21 40  1  0  0  0  0
 22 24  2  0  0  0  0
 22 41  1  0  0  0  0
 23 24  1  0  0  0  0
 23 42  1  0  0  0  0
M  END
> <PUBCHEM_COMPOUND_CID>
124052

> <PUBCHEM_CONFORMER_RMSD>
0.6

> <PUBCHEM_CONFORMER_DIVERSEORDER>
1
5
6
8
7
4
3
2

> <PUBCHEM_MMFF94_PARTIAL_CHARGES>
31
1 -0.36
10 0.03
11 -0.14
12 0.42
13 0.08
14 -0.15
15 -0.18
16 -0.15
17 -0.29
18 0.08
2 -0.36
21 -0.15
22 -0.15
23 -0.15
24 0.08
3 -0.53
30 0.15
31 0.15
32 0.15
33 0.15
4 -0.53
40 0.15
41 0.15
42 0.15
43 0.45
44 0.45
5 0.14
6 0.14
7 -0.14
8 0.28
9 0.08

> <PUBCHEM_EFFECTIVE_ROTOR_COUNT>
2.2

> <PUBCHEM_PHARMACOPHORE_FEATURES>
9
1 1 acceptor
1 2 acceptor
1 3 donor
1 4 donor
3 12 19 20 hydrophobe
6 1 5 6 7 8 9 rings
6 11 18 21 22 23 24 rings
6 2 10 12 13 15 17 rings
6 7 9 10 13 14 16 rings

> <PUBCHEM_HEAVY_ATOM_COUNT>
24

> <PUBCHEM_ATOM_DEF_STEREO_COUNT>
1

> <PUBCHEM_ATOM_UDEF_STEREO_COUNT>
0

> <PUBCHEM_BOND_DEF_STEREO_COUNT>
0

> <PUBCHEM_BOND_UDEF_STEREO_COUNT>
0

> <PUBCHEM_ISOTOPIC_ATOM_COUNT>
0

> <PUBCHEM_COMPONENT_COUNT>
1

> <PUBCHEM_CACTVS_TAUTO_COUNT>
9

> <PUBCHEM_CONFORMER_ID>
0001E49400000001

> <PUBCHEM_MMFF94_ENERGY>
79.4559

> <PUBCHEM_FEATURE_SELFOVERLAP>
45.726

> <PUBCHEM_SHAPE_FINGERPRINT>
10411042 1 17902799557692644375
10670039 82 18266724943652176492
11045977 3 17749680597365011520
11089746 13 17967822630035953226
11315181 36 18410573967987679353
11578080 2 6049071475329923985
11646440 116 17821720629113004161
12107183 9 17339014352652067720
12236239 1 18131633361732271006
12390115 104 17823402972530701425
12516196 113 16443066097078283856
12596602 18 16988557996684734497
12616971 3 17703511008745354614
12838862 33 18262534679633264377
13533116 47 17604147146759134262
14251764 18 18272932695849439798
14386348 63 17313379020307486742
15131766 46 16771529673854001076
15142383 8 17417823867397153052
15183329 4 18410011039535292845
15788980 27 17561366183839210868
1601671 61 18335420179254633861
19489759 90 18040155119429700185
20511986 3 18272381828108442756
20645477 70 15430026700004630300
21033648 144 17345756257590521174
21033648 29 17023199192923546258
21033650 10 18122316194777929324
21267235 1 18262235522349919023
21279426 13 17897438617244355292
22122407 14 16988268859355051613
22224240 67 15357706280122956414
23198884 109 15791447145791026715
23402539 116 18187090533108077831
23536379 177 17132117952546739161
23559900 14 17968384437660306816
23569917 315 18411978078939836835
23569943 247 16879894481776605710
2838139 119 18411707595173846173
300161 21 18272656731658459880
3004659 81 18413384350616791814
335352 9 18334580122923563557
345986 75 17417270830629775168
34797466 226 17458620086668103732
3545911 37 18186800296403500722
4073 2 18272368617258928842
5104073 3 18263362486759545603
5385378 56 18114732854417532979
542803 24 18060418010364298762
7226269 152 18040998449074769281

> <PUBCHEM_SHAPE_MULTIPOLES>
470.43
16.47
1.58
1.19
5.6
0.54
0.27
-2.7
-1.02
-1.6
0.09
0.89
-0.21
-0.71

> <PUBCHEM_SHAPE_SELFOVERLAP>
1041.494

> <PUBCHEM_SHAPE_VOLUME>
252

> <PUBCHEM_COORDINATE_TYPE>
2
5
10

$$$$

