5473
  -OEChem-06261200422D

 46 48  0     1  0  0  0  0  0999 V2000
    2.5010    1.8184    0.0000 S   0  0  0  0  0  0  0  0  0  0  0  0
    7.5420    0.0966    0.0000 O   0  0  0  0  0  0  0  0  0  0  0  0
    2.3100    0.2306    0.0000 O   0  0  0  0  0  0  0  0  0  0  0  0
    5.8100    1.0966    0.0000 N   0  3  0  0  0  0  0  0  0  0  0  0
    4.8100    1.0966    0.0000 C   0  0  0  0  0  0  0  0  0  0  0  0
    5.8100    0.0966    0.0000 C   0  0  0  0  0  0  0  0  0  0  0  0
    6.6760    1.5966    0.0000 C   0  0  0  0  0  0  0  0  0  0  0  0
    4.3100    0.2306    0.0000 C   0  0  0  0  0  0  0  0  0  0  0  0
    5.3100    1.9626    0.0000 C   0  0  0  0  0  0  0  0  0  0  0  0
    6.6760   -0.4034    0.0000 C   0  0  0  0  0  0  0  0  0  0  0  0
    7.5420    1.0966    0.0000 C   0  0  0  0  0  0  0  0  0  0  0  0
    3.3100    0.2306    0.0000 C   0  0  3  0  0  0  0  0  0  0  0  0
    3.3100   -0.7694    0.0000 C   0  0  0  0  0  0  0  0  0  0  0  0
    3.3100    1.2306    0.0000 C   0  0  0  0  0  0  0  0  0  0  0  0
    2.4440   -1.2694    0.0000 C   0  0  0  0  0  0  0  0  0  0  0  0
    4.1760   -1.2694    0.0000 C   0  0  0  0  0  0  0  0  0  0  0  0
    4.1190    1.8184    0.0000 C   0  0  0  0  0  0  0  0  0  0  0  0
    3.8100    2.7694    0.0000 C   0  0  0  0  0  0  0  0  0  0  0  0
    2.4440   -2.2694    0.0000 C   0  0  0  0  0  0  0  0  0  0  0  0
    4.1760   -2.2694    0.0000 C   0  0  0  0  0  0  0  0  0  0  0  0
    2.8100    2.7694    0.0000 C   0  0  0  0  0  0  0  0  0  0  0  0
    3.3100   -2.7694    0.0000 C   0  0  0  0  0  0  0  0  0  0  0  0
    4.9177    1.7072    0.0000 H   0  0  0  0  0  0  0  0  0  0  0  0
    4.2274    1.3087    0.0000 H   0  0  0  0  0  0  0  0  0  0  0  0
    7.0746    2.0715    0.0000 H   0  0  0  0  0  0  0  0  0  0  0  0
    5.1994    0.2043    0.0000 H   0  0  0  0  0  0  0  0  0  0  0  0
    5.5980   -0.4860    0.0000 H   0  0  0  0  0  0  0  0  0  0  0  0
    6.2775    2.0715    0.0000 H   0  0  0  0  0  0  0  0  0  0  0  0
    4.2023   -0.3800    0.0000 H   0  0  0  0  0  0  0  0  0  0  0  0
    4.8926    0.0185    0.0000 H   0  0  0  0  0  0  0  0  0  0  0  0
    5.8469    2.2726    0.0000 H   0  0  0  0  0  0  0  0  0  0  0  0
    5.0000    2.4996    0.0000 H   0  0  0  0  0  0  0  0  0  0  0  0
    4.7731    1.6526    0.0000 H   0  0  0  0  0  0  0  0  0  0  0  0
    6.2775   -0.8783    0.0000 H   0  0  0  0  0  0  0  0  0  0  0  0
    7.0746   -0.8783    0.0000 H   0  0  0  0  0  0  0  0  0  0  0  0
    8.1526    0.9889    0.0000 H   0  0  0  0  0  0  0  0  0  0  0  0
    7.7541    1.6792    0.0000 H   0  0  0  0  0  0  0  0  0  0  0  0
    2.0000    0.7675    0.0000 H   0  0  0  0  0  0  0  0  0  0  0  0
    1.9070   -0.9594    0.0000 H   0  0  0  0  0  0  0  0  0  0  0  0
    4.7130   -0.9594    0.0000 H   0  0  0  0  0  0  0  0  0  0  0  0
    4.7087    1.6268    0.0000 H   0  0  0  0  0  0  0  0  0  0  0  0
    4.1744    3.2710    0.0000 H   0  0  0  0  0  0  0  0  0  0  0  0
    1.9070   -2.5794    0.0000 H   0  0  0  0  0  0  0  0  0  0  0  0
    4.7130   -2.5794    0.0000 H   0  0  0  0  0  0  0  0  0  0  0  0
    2.4456    3.2710    0.0000 H   0  0  0  0  0  0  0  0  0  0  0  0
    3.3100   -3.3894    0.0000 H   0  0  0  0  0  0  0  0  0  0  0  0
  1 14  1  0  0  0  0
  1 21  1  0  0  0  0
  2 10  1  0  0  0  0
  2 11  1  0  0  0  0
  3 12  1  0  0  0  0
  3 38  1  0  0  0  0
  4  5  1  0  0  0  0
  4  6  1  0  0  0  0
  4  7  1  0  0  0  0
  4  9  1  0  0  0  0
  5  8  1  0  0  0  0
  5 23  1  0  0  0  0
  5 24  1  0  0  0  0
  6 10  1  0  0  0  0
  6 26  1  0  0  0  0
  6 27  1  0  0  0  0
  7 11  1  0  0  0  0
  7 25  1  0  0  0  0
  7 28  1  0  0  0  0
  8 12  1  0  0  0  0
  8 29  1  0  0  0  0
  8 30  1  0  0  0  0
  9 31  1  0  0  0  0
  9 32  1  0  0  0  0
  9 33  1  0  0  0  0
 10 34  1  0  0  0  0
 10 35  1  0  0  0  0
 11 36  1  0  0  0  0
 11 37  1  0  0  0  0
 12 13  1  0  0  0  0
 12 14  1  0  0  0  0
 13 15  2  0  0  0  0
 13 16  1  0  0  0  0
 14 17  2  0  0  0  0
 15 19  1  0  0  0  0
 15 39  1  0  0  0  0
 16 20  2  0  0  0  0
 16 40  1  0  0  0  0
 17 18  1  0  0  0  0
 17 41  1  0  0  0  0
 18 21  2  0  0  0  0
 18 42  1  0  0  0  0
 19 22  2  0  0  0  0
 19 43  1  0  0  0  0
 20 22  1  0  0  0  0
 20 44  1  0  0  0  0
 21 45  1  0  0  0  0
 22 46  1  0  0  0  0
M  CHG  1   4   1
M  END
> <PUBCHEM_COMPOUND_CID>
5473

> <PUBCHEM_COMPOUND_CANONICALIZED>
1

> <PUBCHEM_CACTVS_COMPLEXITY>
353

> <PUBCHEM_CACTVS_HBOND_ACCEPTOR>
3

> <PUBCHEM_CACTVS_HBOND_DONOR>
1

> <PUBCHEM_CACTVS_ROTATABLE_BOND>
5

> <PUBCHEM_CACTVS_SUBSKEYS>
AAADceB6MABAAAAAAAAAAAAAAAAAASAAAAA8QAAAAAAAAAABwAAAHgQACAAADETl2AayAYMABgiEAiBCAAADAIAgCBBIiBgICIgKJiKgkRCHcAAmwAG4mAeQwOAOgAAAAAAAAAAAAAAAAAAAAAAAAAAAAA==

> <PUBCHEM_IUPAC_OPENEYE_NAME>
3-(4-methylmorpholin-4-ium-4-yl)-1-phenyl-1-(2-thienyl)propan-1-ol

> <PUBCHEM_IUPAC_CAS_NAME>
3-(4-methyl-4-morpholin-4-iumyl)-1-phenyl-1-thiophen-2-yl-1-propanol

> <PUBCHEM_IUPAC_NAME>
3-(4-methylmorpholin-4-ium-4-yl)-1-phenyl-1-thiophen-2-ylpropan-1-ol

> <PUBCHEM_IUPAC_SYSTEMATIC_NAME>
3-(4-methylmorpholin-4-ium-4-yl)-1-phenyl-1-thiophen-2-yl-propan-1-ol

> <PUBCHEM_IUPAC_TRADITIONAL_NAME>
3-(4-methylmorpholin-4-ium-4-yl)-1-phenyl-1-(2-thienyl)propan-1-ol

> <PUBCHEM_IUPAC_INCHI>
InChI=1S/C18H24NO2S/c1-19(11-13-21-14-12-19)10-9-18(20,17-8-5-15-22-17)16-6-3-2-4-7-16/h2-8,15,20H,9-14H2,1H3/q+1

> <PUBCHEM_IUPAC_INCHIKEY>
HJDYAOBDPZQHOD-UHFFFAOYSA-N

> <PUBCHEM_XLOGP3_AA>
2.3

> <PUBCHEM_EXACT_MASS>
318.152775

> <PUBCHEM_MOLECULAR_FORMULA>
C18H24NO2S+

> <PUBCHEM_MOLECULAR_WEIGHT>
318.45366

> <PUBCHEM_OPENEYE_CAN_SMILES>
C[N+]1(CCOCC1)CCC(C2=CC=CC=C2)(C3=CC=CS3)O

> <PUBCHEM_OPENEYE_ISO_SMILES>
C[N+]1(CCOCC1)CCC(C2=CC=CC=C2)(C3=CC=CS3)O

> <PUBCHEM_CACTVS_TPSA>
57.7

> <PUBCHEM_MONOISOTOPIC_WEIGHT>
318.152775

> <PUBCHEM_TOTAL_CHARGE>
1

> <PUBCHEM_HEAVY_ATOM_COUNT>
22

> <PUBCHEM_ATOM_DEF_STEREO_COUNT>
0

> <PUBCHEM_ATOM_UDEF_STEREO_COUNT>
1

> <PUBCHEM_BOND_DEF_STEREO_COUNT>
0

> <PUBCHEM_BOND_UDEF_STEREO_COUNT>
0

> <PUBCHEM_ISOTOPIC_ATOM_COUNT>
0

> <PUBCHEM_COMPONENT_COUNT>
1

> <PUBCHEM_CACTVS_TAUTO_COUNT>
1

> <PUBCHEM_COORDINATE_TYPE>
1
5
255

> <PUBCHEM_BONDANNOTATIONS>
1  14  8
1  21  8
13  15  8
13  16  8
14  17  8
15  19  8
16  20  8
17  18  8
18  21  8
19  22  8
20  22  8
12  3  3

$$$$

