439661
  -OEChem-07051212462D

 28 27  0     0  0  0  0  0  0999 V2000
    3.7320   -3.5600    0.0000 O   0  0  0  0  0  0  0  0  0  0  0  0
    2.8660   -2.0600    0.0000 N   0  0  0  0  0  0  0  0  0  0  0  0
    5.4641    1.4400    0.0000 N   0  0  0  0  0  0  0  0  0  0  0  0
    6.3301    2.9400    0.0000 N   0  0  0  0  0  0  0  0  0  0  0  0
    4.5981    2.9400    0.0000 N   0  0  0  0  0  0  0  0  0  0  0  0
    3.7320   -0.5600    0.0000 C   0  0  0  0  0  0  0  0  0  0  0  0
    4.5981   -0.0600    0.0000 C   0  0  0  0  0  0  0  0  0  0  0  0
    3.7320   -1.5600    0.0000 C   0  0  0  0  0  0  0  0  0  0  0  0
    4.5981    0.9400    0.0000 C   0  0  0  0  0  0  0  0  0  0  0  0
    2.8660   -3.0600    0.0000 C   0  0  0  0  0  0  0  0  0  0  0  0
    5.4641    2.4400    0.0000 C   0  0  0  0  0  0  0  0  0  0  0  0
    2.0000   -3.5600    0.0000 C   0  0  0  0  0  0  0  0  0  0  0  0
    3.5200    0.0226    0.0000 H   0  0  0  0  0  0  0  0  0  0  0  0
    3.1215   -0.6677    0.0000 H   0  0  0  0  0  0  0  0  0  0  0  0
    4.8101   -0.6426    0.0000 H   0  0  0  0  0  0  0  0  0  0  0  0
    5.2087    0.0477    0.0000 H   0  0  0  0  0  0  0  0  0  0  0  0
    3.9441   -2.1426    0.0000 H   0  0  0  0  0  0  0  0  0  0  0  0
    4.3426   -1.4523    0.0000 H   0  0  0  0  0  0  0  0  0  0  0  0
    4.3860    1.5226    0.0000 H   0  0  0  0  0  0  0  0  0  0  0  0
    3.9875    0.8323    0.0000 H   0  0  0  0  0  0  0  0  0  0  0  0
    2.3291   -1.7500    0.0000 H   0  0  0  0  0  0  0  0  0  0  0  0
    1.6900   -3.0231    0.0000 H   0  0  0  0  0  0  0  0  0  0  0  0
    1.4631   -3.8700    0.0000 H   0  0  0  0  0  0  0  0  0  0  0  0
    2.3100   -4.0969    0.0000 H   0  0  0  0  0  0  0  0  0  0  0  0
    4.0611    2.6300    0.0000 H   0  0  0  0  0  0  0  0  0  0  0  0
    4.5981    3.5600    0.0000 H   0  0  0  0  0  0  0  0  0  0  0  0
    6.8671    2.6300    0.0000 H   0  0  0  0  0  0  0  0  0  0  0  0
    6.3301    3.5600    0.0000 H   0  0  0  0  0  0  0  0  0  0  0  0
  1 10  2  0  0  0  0
  2  8  1  0  0  0  0
  2 10  1  0  0  0  0
  2 21  1  0  0  0  0
  3  9  1  0  0  0  0
  3 11  2  0  0  0  0
  4 11  1  0  0  0  0
  4 27  1  0  0  0  0
  4 28  1  0  0  0  0
  5 11  1  0  0  0  0
  5 25  1  0  0  0  0
  5 26  1  0  0  0  0
  6  7  1  0  0  0  0
  6  8  1  0  0  0  0
  6 13  1  0  0  0  0
  6 14  1  0  0  0  0
  7  9  1  0  0  0  0
  7 15  1  0  0  0  0
  7 16  1  0  0  0  0
  8 17  1  0  0  0  0
  8 18  1  0  0  0  0
  9 19  1  0  0  0  0
  9 20  1  0  0  0  0
 10 12  1  0  0  0  0
 12 22  1  0  0  0  0
 12 23  1  0  0  0  0
 12 24  1  0  0  0  0
M  END
> <PUBCHEM_COMPOUND_CID>
439661

> <PUBCHEM_COMPOUND_CANONICALIZED>
1

> <PUBCHEM_CACTVS_COMPLEXITY>
163

> <PUBCHEM_CACTVS_HBOND_ACCEPTOR>
2

> <PUBCHEM_CACTVS_HBOND_DONOR>
3

> <PUBCHEM_CACTVS_ROTATABLE_BOND>
5

> <PUBCHEM_CACTVS_SUBSKEYS>
AAADceBjoAAAAAAAAAAAAAAAAAAAAAAAAAAAAAAAAAAAAAAAAAAAHgAQAAAACADBgAQDAALAAAAoAAEQNAAAAAEAAAAAAIAIAAAAAAAAgAAEAAAAFgCAAAAAAAAAAAAAAAAAAAAAAAAAAAAAAAAAAAAAAA==

> <PUBCHEM_IUPAC_OPENEYE_NAME>
N-(4-guanidinobutyl)acetamide

> <PUBCHEM_IUPAC_CAS_NAME>
N-[4-(diaminomethylideneamino)butyl]acetamide

> <PUBCHEM_IUPAC_NAME>
N-[4-(diaminomethylideneamino)butyl]acetamide

> <PUBCHEM_IUPAC_SYSTEMATIC_NAME>
N-[4-[bis(azanyl)methylideneamino]butyl]ethanamide

> <PUBCHEM_IUPAC_TRADITIONAL_NAME>
N-(4-guanidinobutyl)acetamide

> <PUBCHEM_IUPAC_INCHI>
InChI=1S/C7H16N4O/c1-6(12)10-4-2-3-5-11-7(8)9/h2-5H2,1H3,(H,10,12)(H4,8,9,11)

> <PUBCHEM_IUPAC_INCHIKEY>
JMACEDIUUMWDIC-UHFFFAOYSA-N

> <PUBCHEM_XLOGP3_AA>
-1.3

> <PUBCHEM_EXACT_MASS>
172.132411

> <PUBCHEM_MOLECULAR_FORMULA>
C7H16N4O

> <PUBCHEM_MOLECULAR_WEIGHT>
172.22814

> <PUBCHEM_OPENEYE_CAN_SMILES>
CC(=O)NCCCCN=C(N)N

> <PUBCHEM_OPENEYE_ISO_SMILES>
CC(=O)NCCCCN=C(N)N

> <PUBCHEM_CACTVS_TPSA>
93.5

> <PUBCHEM_MONOISOTOPIC_WEIGHT>
172.132411

> <PUBCHEM_TOTAL_CHARGE>
0

> <PUBCHEM_HEAVY_ATOM_COUNT>
12

> <PUBCHEM_ATOM_DEF_STEREO_COUNT>
0

> <PUBCHEM_ATOM_UDEF_STEREO_COUNT>
0

> <PUBCHEM_BOND_DEF_STEREO_COUNT>
0

> <PUBCHEM_BOND_UDEF_STEREO_COUNT>
0

> <PUBCHEM_ISOTOPIC_ATOM_COUNT>
0

> <PUBCHEM_COMPONENT_COUNT>
1

> <PUBCHEM_CACTVS_TAUTO_COUNT>
4

> <PUBCHEM_COORDINATE_TYPE>
1
5
255

$$$$

