189486
  -OEChem-07051213152D

116117  0     1  0  0  0  0  0999 V2000
   14.5348    1.8761    0.0000 O   0  0  0  0  0  0  0  0  0  0  0  0
    4.0354    3.2036    0.0000 O   0  0  0  0  0  0  0  0  0  0  0  0
   15.9635   -4.9032    0.0000 O   0  0  0  0  0  0  0  0  0  0  0  0
   14.0531   -7.9610    0.0000 O   0  0  0  0  0  0  0  0  0  0  0  0
   16.6314   -5.6475    0.0000 O   0  0  0  0  0  0  0  0  0  0  0  0
    8.6173    3.2841    0.0000 N   0  3  0  0  0  0  0  0  0  0  0  0
    5.3246    4.3603    0.0000 N   0  0  0  0  0  0  0  0  0  0  0  0
   13.1991    3.3647    0.0000 N   0  0  0  0  0  0  0  0  0  0  0  0
   13.2457    0.7194    0.0000 N   0  0  0  0  0  0  0  0  0  0  0  0
    2.6997    4.6922    0.0000 N   0  0  0  0  0  0  0  0  0  0  0  0
   14.3172   -4.3651    0.0000 N   0  0  0  0  0  0  0  0  0  0  0  0
    2.9639    8.2880    0.0000 N   0  0  0  0  0  0  0  0  0  0  0  0
   13.6959   -6.2661    0.0000 N   0  0  0  0  0  0  0  0  0  0  0  0
   12.0960   -9.9829    0.0000 N   0  0  0  0  0  0  0  0  0  0  0  0
    2.6067    9.9829    0.0000 N   0  0  0  0  0  0  0  0  0  0  0  0
    4.2530    9.4448    0.0000 N   0  0  0  0  0  0  0  0  0  0  0  0
   16.9886   -7.3423    0.0000 N   0  0  0  0  0  0  0  0  0  0  0  0
    9.5958    3.4904    0.0000 C   0  0  0  0  0  0  0  0  0  0  0  0
    7.6388    3.0779    0.0000 C   0  0  0  0  0  0  0  0  0  0  0  0
   10.2636    2.7461    0.0000 C   0  0  0  0  0  0  0  0  0  0  0  0
    8.4110    4.2626    0.0000 C   0  0  0  0  0  0  0  0  0  0  0  0
    8.8235    2.3056    0.0000 C   0  0  0  0  0  0  0  0  0  0  0  0
    6.9709    3.8222    0.0000 C   0  0  0  0  0  0  0  0  0  0  0  0
   11.2421    2.9523    0.0000 C   0  0  0  0  0  0  0  0  0  0  0  0
   11.9100    2.2080    0.0000 C   0  0  0  0  0  0  0  0  0  0  0  0
    5.9924    3.6160    0.0000 C   0  0  0  0  0  0  0  0  0  0  0  0
   12.8885    2.4142    0.0000 C   0  0  3  0  0  0  0  0  0  0  0  0
   13.5563    1.6699    0.0000 C   0  0  0  0  0  0  0  0  0  0  0  0
    4.3461    4.1541    0.0000 C   0  0  0  0  0  0  0  0  0  0  0  0
    3.6782    4.8984    0.0000 C   0  0  3  0  0  0  0  0  0  0  0  0
    3.9889    5.8489    0.0000 C   0  0  0  0  0  0  0  0  0  0  0  0
   13.9135   -0.0249    0.0000 C   0  0  0  0  0  0  0  0  0  0  0  0
   13.6028   -0.9754    0.0000 C   0  0  0  0  0  0  0  0  0  0  0  0
   14.2707   -1.7198    0.0000 C   0  0  0  0  0  0  0  0  0  0  0  0
    3.3210    6.5932    0.0000 C   0  0  0  0  0  0  0  0  0  0  0  0
   13.9600   -2.6703    0.0000 C   0  0  0  0  0  0  0  0  0  0  0  0
    3.6317    7.5437    0.0000 C   0  0  0  0  0  0  0  0  0  0  0  0
   14.6279   -3.4146    0.0000 C   0  0  0  0  0  0  0  0  0  0  0  0
   14.6744   -6.0599    0.0000 C   0  0  3  0  0  0  0  0  0  0  0  0
   14.9850   -5.1094    0.0000 C   0  0  0  0  0  0  0  0  0  0  0  0
   15.3422   -6.8042    0.0000 C   0  0  0  0  0  0  0  0  0  0  0  0
   12.4067   -7.4229    0.0000 C   0  0  0  0  0  0  0  0  0  0  0  0
   12.0960   -8.3734    0.0000 C   0  0  0  0  0  0  0  0  0  0  0  0
   13.3852   -7.2166    0.0000 C   0  0  0  0  0  0  0  0  0  0  0  0
   11.1498   -8.6781    0.0000 C   0  0  0  0  0  0  0  0  0  0  0  0
   11.1498   -9.6781    0.0000 C   0  0  0  0  0  0  0  0  0  0  0  0
    3.2745    9.2386    0.0000 C   0  0  0  0  0  0  0  0  0  0  0  0
   12.6797   -9.1781    0.0000 C   0  0  0  0  0  0  0  0  0  0  0  0
   16.3207   -6.5980    0.0000 C   0  0  0  0  0  0  0  0  0  0  0  0
   10.2838   -8.1781    0.0000 C   0  0  0  0  0  0  0  0  0  0  0  0
   10.2838  -10.1781    0.0000 C   0  0  0  0  0  0  0  0  0  0  0  0
    9.4178   -8.6781    0.0000 C   0  0  0  0  0  0  0  0  0  0  0  0
    9.4178   -9.6781    0.0000 C   0  0  0  0  0  0  0  0  0  0  0  0
   10.1221    3.8180    0.0000 H   0  0  0  0  0  0  0  0  0  0  0  0
    9.3645    4.0656    0.0000 H   0  0  0  0  0  0  0  0  0  0  0  0
    7.1124    2.7503    0.0000 H   0  0  0  0  0  0  0  0  0  0  0  0
    7.8700    2.5027    0.0000 H   0  0  0  0  0  0  0  0  0  0  0  0
    9.7373    2.4184    0.0000 H   0  0  0  0  0  0  0  0  0  0  0  0
   10.4949    2.1708    0.0000 H   0  0  0  0  0  0  0  0  0  0  0  0
    9.0177    4.3905    0.0000 H   0  0  0  0  0  0  0  0  0  0  0  0
    8.2168    2.1778    0.0000 H   0  0  0  0  0  0  0  0  0  0  0  0
    8.9513    1.6990    0.0000 H   0  0  0  0  0  0  0  0  0  0  0  0
    9.4302    2.4335    0.0000 H   0  0  0  0  0  0  0  0  0  0  0  0
    8.2832    4.8693    0.0000 H   0  0  0  0  0  0  0  0  0  0  0  0
    7.8044    4.1348    0.0000 H   0  0  0  0  0  0  0  0  0  0  0  0
    7.4973    4.1499    0.0000 H   0  0  0  0  0  0  0  0  0  0  0  0
    6.7397    4.3975    0.0000 H   0  0  0  0  0  0  0  0  0  0  0  0
   11.7685    3.2799    0.0000 H   0  0  0  0  0  0  0  0  0  0  0  0
   11.0109    3.5275    0.0000 H   0  0  0  0  0  0  0  0  0  0  0  0
   11.3836    1.8803    0.0000 H   0  0  0  0  0  0  0  0  0  0  0  0
   12.1412    1.6327    0.0000 H   0  0  0  0  0  0  0  0  0  0  0  0
    5.4660    3.2884    0.0000 H   0  0  0  0  0  0  0  0  0  0  0  0
    6.2237    3.0408    0.0000 H   0  0  0  0  0  0  0  0  0  0  0  0
   13.4951    2.5420    0.0000 H   0  0  0  0  0  0  0  0  0  0  0  0
    5.5172    4.9496    0.0000 H   0  0  0  0  0  0  0  0  0  0  0  0
   12.7851    3.8262    0.0000 H   0  0  0  0  0  0  0  0  0  0  0  0
   13.8058    3.4926    0.0000 H   0  0  0  0  0  0  0  0  0  0  0  0
    3.4856    4.3091    0.0000 H   0  0  0  0  0  0  0  0  0  0  0  0
   12.6390    0.5915    0.0000 H   0  0  0  0  0  0  0  0  0  0  0  0
   14.4604   -0.3169    0.0000 H   0  0  0  0  0  0  0  0  0  0  0  0
   14.2961    0.4630    0.0000 H   0  0  0  0  0  0  0  0  0  0  0  0
    4.5358    5.5569    0.0000 H   0  0  0  0  0  0  0  0  0  0  0  0
    4.3714    6.3368    0.0000 H   0  0  0  0  0  0  0  0  0  0  0  0
   13.0559   -0.6834    0.0000 H   0  0  0  0  0  0  0  0  0  0  0  0
   13.2203   -1.4634    0.0000 H   0  0  0  0  0  0  0  0  0  0  0  0
   14.8176   -2.0118    0.0000 H   0  0  0  0  0  0  0  0  0  0  0  0
   14.6532   -1.2318    0.0000 H   0  0  0  0  0  0  0  0  0  0  0  0
    2.7741    6.8852    0.0000 H   0  0  0  0  0  0  0  0  0  0  0  0
    2.9385    6.1053    0.0000 H   0  0  0  0  0  0  0  0  0  0  0  0
    2.2856    5.1536    0.0000 H   0  0  0  0  0  0  0  0  0  0  0  0
    2.5071    4.1028    0.0000 H   0  0  0  0  0  0  0  0  0  0  0  0
   13.4131   -2.3782    0.0000 H   0  0  0  0  0  0  0  0  0  0  0  0
   13.5775   -3.1582    0.0000 H   0  0  0  0  0  0  0  0  0  0  0  0
    4.1786    7.2517    0.0000 H   0  0  0  0  0  0  0  0  0  0  0  0
    4.0142    8.0316    0.0000 H   0  0  0  0  0  0  0  0  0  0  0  0
   15.1748   -3.7066    0.0000 H   0  0  0  0  0  0  0  0  0  0  0  0
   15.0104   -2.9267    0.0000 H   0  0  0  0  0  0  0  0  0  0  0  0
   13.7105   -4.4930    0.0000 H   0  0  0  0  0  0  0  0  0  0  0  0
   14.4818   -6.6492    0.0000 H   0  0  0  0  0  0  0  0  0  0  0  0
   14.8159   -7.1319    0.0000 H   0  0  0  0  0  0  0  0  0  0  0  0
   15.5735   -7.3795    0.0000 H   0  0  0  0  0  0  0  0  0  0  0  0
   13.2818   -5.8047    0.0000 H   0  0  0  0  0  0  0  0  0  0  0  0
   12.3861   -6.8032    0.0000 H   0  0  0  0  0  0  0  0  0  0  0  0
   11.7929   -7.3355    0.0000 H   0  0  0  0  0  0  0  0  0  0  0  0
   13.2997   -9.1781    0.0000 H   0  0  0  0  0  0  0  0  0  0  0  0
   12.2887  -10.5722    0.0000 H   0  0  0  0  0  0  0  0  0  0  0  0
   10.2838   -7.5581    0.0000 H   0  0  0  0  0  0  0  0  0  0  0  0
   10.2838  -10.7981    0.0000 H   0  0  0  0  0  0  0  0  0  0  0  0
    8.8808   -8.3681    0.0000 H   0  0  0  0  0  0  0  0  0  0  0  0
    8.8808   -9.9881    0.0000 H   0  0  0  0  0  0  0  0  0  0  0  0
    2.7993   10.5722    0.0000 H   0  0  0  0  0  0  0  0  0  0  0  0
    2.0000    9.8550    0.0000 H   0  0  0  0  0  0  0  0  0  0  0  0
    4.4456   10.0341    0.0000 H   0  0  0  0  0  0  0  0  0  0  0  0
    4.6671    8.9833    0.0000 H   0  0  0  0  0  0  0  0  0  0  0  0
   17.5952   -7.2144    0.0000 H   0  0  0  0  0  0  0  0  0  0  0  0
   16.7960   -7.9316    0.0000 H   0  0  0  0  0  0  0  0  0  0  0  0
  1 28  2  0  0  0  0
  2 29  2  0  0  0  0
  3 40  2  0  0  0  0
  4 44  2  0  0  0  0
  5 49  2  0  0  0  0
  6 18  1  0  0  0  0
  6 19  1  0  0  0  0
  6 21  1  0  0  0  0
  6 22  1  0  0  0  0
  7 26  1  0  0  0  0
  7 29  1  0  0  0  0
  7 75  1  0  0  0  0
  8 27  1  0  0  0  0
  8 76  1  0  0  0  0
  8 77  1  0  0  0  0
  9 28  1  0  0  0  0
  9 32  1  0  0  0  0
  9 79  1  0  0  0  0
 10 30  1  0  0  0  0
 10 90  1  0  0  0  0
 10 91  1  0  0  0  0
 11 38  1  0  0  0  0
 11 40  1  0  0  0  0
 11 98  1  0  0  0  0
 12 37  1  0  0  0  0
 12 47  2  0  0  0  0
 13 39  1  0  0  0  0
 13 44  1  0  0  0  0
 13102  1  0  0  0  0
 14 46  1  0  0  0  0
 14 48  1  0  0  0  0
 14106  1  0  0  0  0
 15 47  1  0  0  0  0
 15111  1  0  0  0  0
 15112  1  0  0  0  0
 16 47  1  0  0  0  0
 16113  1  0  0  0  0
 16114  1  0  0  0  0
 17 49  1  0  0  0  0
 17115  1  0  0  0  0
 17116  1  0  0  0  0
 18 20  1  0  0  0  0
 18 54  1  0  0  0  0
 18 55  1  0  0  0  0
 19 23  1  0  0  0  0
 19 56  1  0  0  0  0
 19 57  1  0  0  0  0
 20 24  1  0  0  0  0
 20 58  1  0  0  0  0
 20 59  1  0  0  0  0
 21 60  1  0  0  0  0
 21 64  1  0  0  0  0
 21 65  1  0  0  0  0
 22 61  1  0  0  0  0
 22 62  1  0  0  0  0
 22 63  1  0  0  0  0
 23 26  1  0  0  0  0
 23 66  1  0  0  0  0
 23 67  1  0  0  0  0
 24 25  1  0  0  0  0
 24 68  1  0  0  0  0
 24 69  1  0  0  0  0
 25 27  1  0  0  0  0
 25 70  1  0  0  0  0
 25 71  1  0  0  0  0
 26 72  1  0  0  0  0
 26 73  1  0  0  0  0
 27 28  1  0  0  0  0
 27 74  1  0  0  0  0
 29 30  1  0  0  0  0
 30 31  1  0  0  0  0
 30 78  1  0  0  0  0
 31 35  1  0  0  0  0
 31 82  1  0  0  0  0
 31 83  1  0  0  0  0
 32 33  1  0  0  0  0
 32 80  1  0  0  0  0
 32 81  1  0  0  0  0
 33 34  1  0  0  0  0
 33 84  1  0  0  0  0
 33 85  1  0  0  0  0
 34 36  1  0  0  0  0
 34 86  1  0  0  0  0
 34 87  1  0  0  0  0
 35 37  1  0  0  0  0
 35 88  1  0  0  0  0
 35 89  1  0  0  0  0
 36 38  1  0  0  0  0
 36 92  1  0  0  0  0
 36 93  1  0  0  0  0
 37 94  1  0  0  0  0
 37 95  1  0  0  0  0
 38 96  1  0  0  0  0
 38 97  1  0  0  0  0
 39 40  1  0  0  0  0
 39 41  1  0  0  0  0
 39 99  1  0  0  0  0
 41 49  1  0  0  0  0
 41100  1  0  0  0  0
 41101  1  0  0  0  0
 42 43  1  0  0  0  0
 42 44  1  0  0  0  0
 42103  1  0  0  0  0
 42104  1  0  0  0  0
 43 45  1  0  0  0  0
 43 48  2  0  0  0  0
 45 46  1  0  0  0  0
 45 50  2  0  0  0  0
 46 51  2  0  0  0  0
 48105  1  0  0  0  0
 50 52  1  0  0  0  0
 50107  1  0  0  0  0
 51 53  1  0  0  0  0
 51108  1  0  0  0  0
 52 53  2  0  0  0  0
 52109  1  0  0  0  0
 53110  1  0  0  0  0
M  CHG  1   6   1
M  END
> <PUBCHEM_COMPOUND_CID>
189486

> <PUBCHEM_COMPOUND_CANONICALIZED>
1

> <PUBCHEM_CACTVS_COMPLEXITY>
1180

> <PUBCHEM_CACTVS_HBOND_ACCEPTOR>
8

> <PUBCHEM_CACTVS_HBOND_DONOR>
10

> <PUBCHEM_CACTVS_ROTATABLE_BOND>
27

> <PUBCHEM_CACTVS_SUBSKEYS>
AAADcfB/+AAAAAAAAAAAAAAAAAAAAWAAAAAwAAAAAAAAAFgB8AAAHgAQAAAADCjBngQ/wPPJkACoAzV3dACCgCExAiAI2aG4ZJgIYPrA1bGUIAhglgDIyAcdicCegAAAAAACAAAAAAAAAAQAAAAAAAAAAA==

> <PUBCHEM_IUPAC_OPENEYE_NAME>
[5-amino-6-[5-[[4-amino-2-[[2-(1H-indol-3-yl)acetyl]amino]-4-oxo-butanoyl]amino]pentylamino]-6-oxo-hexyl]-[3-[(2-amino-5-guanidino-pentanoyl)amino]propyl]-dimethyl-ammonium

> <PUBCHEM_IUPAC_CAS_NAME>
[5-amino-6-[5-[[4-amino-2-[[2-(1H-indol-3-yl)-1-oxoethyl]amino]-1,4-dioxobutyl]amino]pentylamino]-6-oxohexyl]-[3-[[2-amino-5-(diaminomethylideneamino)-1-oxopentyl]amino]propyl]-dimethylammonium

> <PUBCHEM_IUPAC_NAME>
[5-amino-6-[5-[[4-amino-2-[[2-(1H-indol-3-yl)acetyl]amino]-4-oxobutanoyl]amino]pentylamino]-6-oxohexyl]-[3-[[2-amino-5-(diaminomethylideneamino)pentanoyl]amino]propyl]-dimethylazanium

> <PUBCHEM_IUPAC_SYSTEMATIC_NAME>
[5-azanyl-6-[5-[[4-azanyl-2-[2-(1H-indol-3-yl)ethanoylamino]-4-oxidanylidene-butanoyl]amino]pentylamino]-6-oxidanylidene-hexyl]-[3-[[2-azanyl-5-[bis(azanyl)methylideneamino]pentanoyl]amino]propyl]-dimethyl-azanium

> <PUBCHEM_IUPAC_TRADITIONAL_NAME>
[5-amino-6-[5-[[4-amino-2-[[2-(1H-indol-3-yl)acetyl]amino]-4-keto-butanoyl]amino]pentylamino]-6-keto-hexyl]-[3-[(2-amino-5-guanidino-pentanoyl)amino]propyl]-dimethyl-ammonium

> <PUBCHEM_IUPAC_INCHI>
InChI=1S/C36H62N12O5/c1-48(2,21-11-19-43-34(52)28(38)14-10-18-45-36(40)41)20-9-6-13-27(37)33(51)42-16-7-3-8-17-44-35(53)30(23-31(39)49)47-32(50)22-25-24-46-29-15-5-4-12-26(25)29/h4-5,12,15,24,27-28,30,46H,3,6-11,13-14,16-23,37-38H2,1-2H3,(H9-,39,40,41,42,43,44,45,47,49,50,51,52,53)/p+1

> <PUBCHEM_IUPAC_INCHIKEY>
UNHFNVOAPLSORH-UHFFFAOYSA-O

> <PUBCHEM_XLOGP3_AA>
-1.9

> <PUBCHEM_EXACT_MASS>
743.504438

> <PUBCHEM_MOLECULAR_FORMULA>
C36H63N12O5+

> <PUBCHEM_MOLECULAR_WEIGHT>
743.96282

> <PUBCHEM_OPENEYE_CAN_SMILES>
C[N+](C)(CCCCC(C(=O)NCCCCCNC(=O)C(CC(=O)N)NC(=O)CC1=CNC2=CC=CC=C21)N)CCCNC(=O)C(CCCN=C(N)N)N

> <PUBCHEM_OPENEYE_ISO_SMILES>
C[N+](C)(CCCCC(C(=O)NCCCCCNC(=O)C(CC(=O)N)NC(=O)CC1=CNC2=CC=CC=C21)N)CCCNC(=O)C(CCCN=C(N)N)N

> <PUBCHEM_CACTVS_TPSA>
292

> <PUBCHEM_MONOISOTOPIC_WEIGHT>
743.504438

> <PUBCHEM_TOTAL_CHARGE>
1

> <PUBCHEM_HEAVY_ATOM_COUNT>
53

> <PUBCHEM_ATOM_DEF_STEREO_COUNT>
0

> <PUBCHEM_ATOM_UDEF_STEREO_COUNT>
3

> <PUBCHEM_BOND_DEF_STEREO_COUNT>
0

> <PUBCHEM_BOND_UDEF_STEREO_COUNT>
0

> <PUBCHEM_ISOTOPIC_ATOM_COUNT>
0

> <PUBCHEM_COMPONENT_COUNT>
1

> <PUBCHEM_CACTVS_TAUTO_COUNT>
96

> <PUBCHEM_COORDINATE_TYPE>
1
5
255

> <PUBCHEM_BONDANNOTATIONS>
30  10  3
14  46  8
14  48  8
39  41  3
43  45  8
43  48  8
45  46  8
45  50  8
46  51  8
50  52  8
51  53  8
52  53  8
27  8  3

$$$$

