33741
  -OEChem-07051212533D

 44 45  0     1  0  0  0  0  0999 V2000
   -1.2421    1.4059    1.6782 O   0  0  0  0  0  0  0  0  0  0  0  0
    3.5426   -0.4131   -1.6077 O   0  0  0  0  0  0  0  0  0  0  0  0
   -2.3974   -2.3616    0.0088 N   0  0  0  0  0  0  0  0  0  0  0  0
   -1.5979   -0.0487   -0.2112 C   0  0  2  0  0  0  0  0  0  0  0  0
   -0.6980    1.0757    0.3899 C   0  0  1  0  0  0  0  0  0  0  0  0
   -3.0394    0.4487   -0.4414 C   0  0  0  0  0  0  0  0  0  0  0  0
   -0.7842    2.3543   -0.4812 C   0  0  0  0  0  0  0  0  0  0  0  0
   -3.0802    1.7118   -1.2951 C   0  0  0  0  0  0  0  0  0  0  0  0
   -2.2237    2.8207   -0.6986 C   0  0  0  0  0  0  0  0  0  0  0  0
   -1.6466   -1.3078    0.6675 C   0  0  0  0  0  0  0  0  0  0  0  0
    0.7637    0.6314    0.5226 C   0  0  0  0  0  0  0  0  0  0  0  0
    1.4939    0.3076   -0.6172 C   0  0  0  0  0  0  0  0  0  0  0  0
    1.3514    0.5554    1.7820 C   0  0  0  0  0  0  0  0  0  0  0  0
   -2.4472   -3.5662    0.8432 C   0  0  0  0  0  0  0  0  0  0  0  0
   -1.8140   -2.6794   -1.2981 C   0  0  0  0  0  0  0  0  0  0  0  0
    2.8237   -0.0960   -0.4964 C   0  0  0  0  0  0  0  0  0  0  0  0
    2.6810    0.1520    1.9027 C   0  0  0  0  0  0  0  0  0  0  0  0
    3.4173   -0.1735    0.7636 C   0  0  0  0  0  0  0  0  0  0  0  0
    4.8969   -0.8170   -1.4117 C   0  0  0  0  0  0  0  0  0  0  0  0
   -1.1682   -0.2798   -1.1919 H   0  0  0  0  0  0  0  0  0  0  0  0
   -3.5286    0.6499    0.5204 H   0  0  0  0  0  0  0  0  0  0  0  0
   -3.6455   -0.3123   -0.9455 H   0  0  0  0  0  0  0  0  0  0  0  0
   -0.3267    2.1932   -1.4649 H   0  0  0  0  0  0  0  0  0  0  0  0
   -0.2269    3.1721   -0.0057 H   0  0  0  0  0  0  0  0  0  0  0  0
   -4.1155    2.0584   -1.3901 H   0  0  0  0  0  0  0  0  0  0  0  0
   -2.7274    1.4800   -2.3077 H   0  0  0  0  0  0  0  0  0  0  0  0
   -2.2294    3.6888   -1.3677 H   0  0  0  0  0  0  0  0  0  0  0  0
   -2.6578    3.1526    0.2522 H   0  0  0  0  0  0  0  0  0  0  0  0
   -2.1192   -1.0652    1.6278 H   0  0  0  0  0  0  0  0  0  0  0  0
   -0.6310   -1.6550    0.8938 H   0  0  0  0  0  0  0  0  0  0  0  0
   -0.8516    2.2477    1.9695 H   0  0  0  0  0  0  0  0  0  0  0  0
    1.0480    0.3569   -1.6066 H   0  0  0  0  0  0  0  0  0  0  0  0
    0.8111    0.7945    2.6926 H   0  0  0  0  0  0  0  0  0  0  0  0
   -2.9045   -3.3426    1.8136 H   0  0  0  0  0  0  0  0  0  0  0  0
   -1.4510   -3.9881    1.0193 H   0  0  0  0  0  0  0  0  0  0  0  0
   -3.0714   -4.3348    0.3739 H   0  0  0  0  0  0  0  0  0  0  0  0
   -2.0392   -1.9175   -2.0502 H   0  0  0  0  0  0  0  0  0  0  0  0
   -2.2595   -3.5985   -1.6993 H   0  0  0  0  0  0  0  0  0  0  0  0
   -0.7302   -2.8360   -1.2475 H   0  0  0  0  0  0  0  0  0  0  0  0
    3.1423    0.0901    2.8842 H   0  0  0  0  0  0  0  0  0  0  0  0
    4.4445   -0.4794    0.9298 H   0  0  0  0  0  0  0  0  0  0  0  0
    5.3167   -1.0307   -2.4001 H   0  0  0  0  0  0  0  0  0  0  0  0
    4.9605   -1.7431   -0.8303 H   0  0  0  0  0  0  0  0  0  0  0  0
    5.4981   -0.0115   -0.9765 H   0  0  0  0  0  0  0  0  0  0  0  0
  1  5  1  0  0  0  0
  1 31  1  0  0  0  0
  2 16  1  0  0  0  0
  2 19  1  0  0  0  0
  3 10  1  0  0  0  0
  3 14  1  0  0  0  0
  3 15  1  0  0  0  0
  4  5  1  0  0  0  0
  4  6  1  0  0  0  0
  4 10  1  0  0  0  0
  4 20  1  0  0  0  0
  5  7  1  0  0  0  0
  5 11  1  0  0  0  0
  6  8  1  0  0  0  0
  6 21  1  0  0  0  0
  6 22  1  0  0  0  0
  7  9  1  0  0  0  0
  7 23  1  0  0  0  0
  7 24  1  0  0  0  0
  8  9  1  0  0  0  0
  8 25  1  0  0  0  0
  8 26  1  0  0  0  0
  9 27  1  0  0  0  0
  9 28  1  0  0  0  0
 10 29  1  0  0  0  0
 10 30  1  0  0  0  0
 11 12  2  0  0  0  0
 11 13  1  0  0  0  0
 12 16  1  0  0  0  0
 12 32  1  0  0  0  0
 13 17  2  0  0  0  0
 13 33  1  0  0  0  0
 14 34  1  0  0  0  0
 14 35  1  0  0  0  0
 14 36  1  0  0  0  0
 15 37  1  0  0  0  0
 15 38  1  0  0  0  0
 15 39  1  0  0  0  0
 16 18  2  0  0  0  0
 17 18  1  0  0  0  0
 17 40  1  0  0  0  0
 18 41  1  0  0  0  0
 19 42  1  0  0  0  0
 19 43  1  0  0  0  0
 19 44  1  0  0  0  0
M  END
> <PUBCHEM_COMPOUND_CID>
33741

> <PUBCHEM_CONFORMER_RMSD>
0.8

> <PUBCHEM_CONFORMER_DIVERSEORDER>
1
8
6
14
4
12
16
10
17
11
9
13
3
7
2
15
5

> <PUBCHEM_MMFF94_PARTIAL_CHARGES>
19
1 -0.68
10 0.27
11 -0.14
12 -0.15
13 -0.15
14 0.27
15 0.27
16 0.08
17 -0.15
18 -0.15
19 0.28
2 -0.36
3 -0.81
31 0.4
32 0.15
33 0.15
40 0.15
41 0.15
5 0.42

> <PUBCHEM_EFFECTIVE_ROTOR_COUNT>
5.2

> <PUBCHEM_PHARMACOPHORE_FEATURES>
6
1 1 acceptor
1 1 donor
1 2 acceptor
1 3 cation
6 11 12 13 16 17 18 rings
6 4 5 6 7 8 9 rings

> <PUBCHEM_HEAVY_ATOM_COUNT>
19

> <PUBCHEM_ATOM_DEF_STEREO_COUNT>
2

> <PUBCHEM_ATOM_UDEF_STEREO_COUNT>
0

> <PUBCHEM_BOND_DEF_STEREO_COUNT>
0

> <PUBCHEM_BOND_UDEF_STEREO_COUNT>
0

> <PUBCHEM_ISOTOPIC_ATOM_COUNT>
0

> <PUBCHEM_COMPONENT_COUNT>
1

> <PUBCHEM_CACTVS_TAUTO_COUNT>
1

> <PUBCHEM_CONFORMER_ID>
000083CD00000001

> <PUBCHEM_MMFF94_ENERGY>
63.8339

> <PUBCHEM_FEATURE_SELFOVERLAP>
30.446

> <PUBCHEM_SHAPE_FINGERPRINT>
107951 10 17987218105339759171
11640471 11 17346317158623145052
116883 192 18120672240363349815
12202030 40 17822571607989136234
12363563 72 17909286696990234659
12500047 106 18267600163534334240
12553582 1 18128537055247490691
12714826 92 18337386050284661491
12788726 201 17917428701179606339
12841375 5 17189801360650359827
133893 2 17188696884188089129
13538477 17 18060149746754567416
14251764 30 17771605881120211491
14817 1 10575272663462578769
15163728 17 17413031250867969805
15342168 16 14619926314919780220
15669948 3 18202848772449109004
15852999 172 18191038991006164844
15906896 17 17917711348671767873
16752209 62 18271259295397794795
16945 1 18340782506391134561
17357779 13 17970928669075772719
1813 80 18051969230157818835
18186145 218 17897178015930567977
19868273 293 18201158857452799476
200 152 14635452535563930444
20600515 1 18265636384180695864
20645476 183 17846215609133061023
20645477 70 16950293922738810028
20693207 138 18040718060946427652
20871999 31 18342171150626631759
21421566 26 18268412577830506124
21452121 199 17766014795830449811
21731516 1 18054791685069692331
22907989 373 18410846659819580125
23184049 29 18126299553273938313
23366157 5 17048808206167010797
23526113 38 17677352552961774376
23557571 272 18337684001003969528
23559900 14 18334862757899932304
23598288 3 17775000232401616777
2748010 2 18117571638367271619
298252 57 17915472798769257249
458136 41 17762615488409641393
4921388 177 18409720790214618508
6049 1 18113617846504951040
7615 1 17274838938688601272
77492 1 17274549835549552384
81228 2 18338248059290620041
88987 49 18270976720820104064
90525 40 17988365995552243961
9709674 26 18113914735913623452

> <PUBCHEM_SHAPE_MULTIPOLES>
374.29
6.61
3.17
1.68
6.91
2.01
-0.27
1.43
2.56
-4.84
0.31
1.22
0.07
1.04

> <PUBCHEM_SHAPE_SELFOVERLAP>
771.871

> <PUBCHEM_SHAPE_VOLUME>
215

> <PUBCHEM_COORDINATE_TYPE>
2
5
10

$$$$

