5280651
  -OEChem-07051212492D

117116  0     1  0  0  0  0  0999 V2000
   30.5788   -0.1415    0.0000 P   0  0  3  0  0  0  0  0  0  0  0  0
   32.3109   -0.1415    0.0000 P   0  0  0  0  0  0  0  0  0  0  0  0
   29.7128   -0.6415    0.0000 O   0  0  0  0  0  0  0  0  0  0  0  0
   31.4449    0.3585    0.0000 O   0  0  0  0  0  0  0  0  0  0  0  0
   30.0788    0.7245    0.0000 O   0  0  0  0  0  0  0  0  0  0  0  0
   31.0788   -1.0075    0.0000 O   0  0  0  0  0  0  0  0  0  0  0  0
   33.1769   -0.6415    0.0000 O   0  0  0  0  0  0  0  0  0  0  0  0
   32.8109    0.7245    0.0000 O   0  0  0  0  0  0  0  0  0  0  0  0
   31.8109   -1.0075    0.0000 O   0  0  0  0  0  0  0  0  0  0  0  0
   15.8564   -0.6415    0.0000 C   0  0  0  0  0  0  0  0  0  0  0  0
   19.3205   -0.6415    0.0000 C   0  0  0  0  0  0  0  0  0  0  0  0
   12.3923   -0.6415    0.0000 C   0  0  0  0  0  0  0  0  0  0  0  0
   14.9904   -0.1415    0.0000 C   0  0  0  0  0  0  0  0  0  0  0  0
   18.4545   -0.1415    0.0000 C   0  0  0  0  0  0  0  0  0  0  0  0
   11.5263   -0.1415    0.0000 C   0  0  0  0  0  0  0  0  0  0  0  0
   16.7224   -0.1415    0.0000 C   0  0  0  0  0  0  0  0  0  0  0  0
   13.2583   -0.1415    0.0000 C   0  0  0  0  0  0  0  0  0  0  0  0
   20.1865   -0.1415    0.0000 C   0  0  0  0  0  0  0  0  0  0  0  0
   21.9186   -0.1415    0.0000 C   0  0  0  0  0  0  0  0  0  0  0  0
    8.9282   -0.6415    0.0000 C   0  0  0  0  0  0  0  0  0  0  0  0
   22.7846   -0.6415    0.0000 C   0  0  0  0  0  0  0  0  0  0  0  0
   14.1244   -0.6415    0.0000 C   0  0  0  0  0  0  0  0  0  0  0  0
   17.5885   -0.6415    0.0000 C   0  0  0  0  0  0  0  0  0  0  0  0
    9.7942   -0.1415    0.0000 C   0  0  0  0  0  0  0  0  0  0  0  0
    8.0622   -0.1415    0.0000 C   0  0  0  0  0  0  0  0  0  0  0  0
   10.6603   -0.6415    0.0000 C   0  0  0  0  0  0  0  0  0  0  0  0
   21.0526   -0.6415    0.0000 C   0  0  0  0  0  0  0  0  0  0  0  0
   23.6506   -0.1415    0.0000 C   0  0  0  0  0  0  0  0  0  0  0  0
   25.3827   -0.1415    0.0000 C   0  0  0  0  0  0  0  0  0  0  0  0
    7.1962   -0.6415    0.0000 C   0  0  0  0  0  0  0  0  0  0  0  0
   16.7224    0.8585    0.0000 C   0  0  0  0  0  0  0  0  0  0  0  0
    6.3301   -0.1415    0.0000 C   0  0  0  0  0  0  0  0  0  0  0  0
   13.2583    0.8585    0.0000 C   0  0  0  0  0  0  0  0  0  0  0  0
   24.5167   -0.6415    0.0000 C   0  0  0  0  0  0  0  0  0  0  0  0
    5.4641   -0.6415    0.0000 C   0  0  0  0  0  0  0  0  0  0  0  0
   20.1865    0.8585    0.0000 C   0  0  0  0  0  0  0  0  0  0  0  0
   26.2487   -0.6415    0.0000 C   0  0  0  0  0  0  0  0  0  0  0  0
    9.7942    0.8585    0.0000 C   0  0  0  0  0  0  0  0  0  0  0  0
   23.6506    0.8585    0.0000 C   0  0  0  0  0  0  0  0  0  0  0  0
    4.5981   -0.1415    0.0000 C   0  0  0  0  0  0  0  0  0  0  0  0
   27.1147   -0.1415    0.0000 C   0  0  0  0  0  0  0  0  0  0  0  0
    6.3301    0.8585    0.0000 C   0  0  0  0  0  0  0  0  0  0  0  0
    3.7320   -0.6415    0.0000 C   0  0  0  0  0  0  0  0  0  0  0  0
   27.1147    0.8585    0.0000 C   0  0  0  0  0  0  0  0  0  0  0  0
   27.9808   -0.6415    0.0000 C   0  0  0  0  0  0  0  0  0  0  0  0
    2.8660   -0.1415    0.0000 C   0  0  0  0  0  0  0  0  0  0  0  0
   28.8468   -0.1415    0.0000 C   0  0  0  0  0  0  0  0  0  0  0  0
    2.0000   -0.6415    0.0000 C   0  0  0  0  0  0  0  0  0  0  0  0
    2.8660    0.8585    0.0000 C   0  0  0  0  0  0  0  0  0  0  0  0
   15.4579   -1.1164    0.0000 H   0  0  0  0  0  0  0  0  0  0  0  0
   16.2549   -1.1164    0.0000 H   0  0  0  0  0  0  0  0  0  0  0  0
   18.9220   -1.1164    0.0000 H   0  0  0  0  0  0  0  0  0  0  0  0
   19.7190   -1.1164    0.0000 H   0  0  0  0  0  0  0  0  0  0  0  0
   11.9938   -1.1164    0.0000 H   0  0  0  0  0  0  0  0  0  0  0  0
   12.7908   -1.1164    0.0000 H   0  0  0  0  0  0  0  0  0  0  0  0
   15.3889    0.3335    0.0000 H   0  0  0  0  0  0  0  0  0  0  0  0
   14.5919    0.3335    0.0000 H   0  0  0  0  0  0  0  0  0  0  0  0
   18.8530    0.3335    0.0000 H   0  0  0  0  0  0  0  0  0  0  0  0
   18.0560    0.3335    0.0000 H   0  0  0  0  0  0  0  0  0  0  0  0
   11.9248    0.3335    0.0000 H   0  0  0  0  0  0  0  0  0  0  0  0
   11.1278    0.3335    0.0000 H   0  0  0  0  0  0  0  0  0  0  0  0
   22.3171    0.3335    0.0000 H   0  0  0  0  0  0  0  0  0  0  0  0
   21.5201    0.3335    0.0000 H   0  0  0  0  0  0  0  0  0  0  0  0
    8.5297   -1.1164    0.0000 H   0  0  0  0  0  0  0  0  0  0  0  0
    9.3267   -1.1164    0.0000 H   0  0  0  0  0  0  0  0  0  0  0  0
   22.3861   -1.1164    0.0000 H   0  0  0  0  0  0  0  0  0  0  0  0
   23.1831   -1.1164    0.0000 H   0  0  0  0  0  0  0  0  0  0  0  0
   14.1244   -1.2615    0.0000 H   0  0  0  0  0  0  0  0  0  0  0  0
   17.5885   -1.2615    0.0000 H   0  0  0  0  0  0  0  0  0  0  0  0
    8.4607    0.3335    0.0000 H   0  0  0  0  0  0  0  0  0  0  0  0
    7.6636    0.3335    0.0000 H   0  0  0  0  0  0  0  0  0  0  0  0
   10.6603   -1.2615    0.0000 H   0  0  0  0  0  0  0  0  0  0  0  0
   21.0526   -1.2615    0.0000 H   0  0  0  0  0  0  0  0  0  0  0  0
   25.7812    0.3335    0.0000 H   0  0  0  0  0  0  0  0  0  0  0  0
   24.9842    0.3335    0.0000 H   0  0  0  0  0  0  0  0  0  0  0  0
    7.1962   -1.2615    0.0000 H   0  0  0  0  0  0  0  0  0  0  0  0
   17.3424    0.8585    0.0000 H   0  0  0  0  0  0  0  0  0  0  0  0
   16.7224    1.4785    0.0000 H   0  0  0  0  0  0  0  0  0  0  0  0
   16.1024    0.8585    0.0000 H   0  0  0  0  0  0  0  0  0  0  0  0
   24.5167   -1.2615    0.0000 H   0  0  0  0  0  0  0  0  0  0  0  0
   13.8783    0.8585    0.0000 H   0  0  0  0  0  0  0  0  0  0  0  0
   13.2583    1.4785    0.0000 H   0  0  0  0  0  0  0  0  0  0  0  0
   12.6383    0.8585    0.0000 H   0  0  0  0  0  0  0  0  0  0  0  0
    5.0656   -1.1164    0.0000 H   0  0  0  0  0  0  0  0  0  0  0  0
    5.8626   -1.1164    0.0000 H   0  0  0  0  0  0  0  0  0  0  0  0
   20.8065    0.8585    0.0000 H   0  0  0  0  0  0  0  0  0  0  0  0
   20.1865    1.4785    0.0000 H   0  0  0  0  0  0  0  0  0  0  0  0
   19.5665    0.8585    0.0000 H   0  0  0  0  0  0  0  0  0  0  0  0
   25.8502   -1.1164    0.0000 H   0  0  0  0  0  0  0  0  0  0  0  0
   26.6472   -1.1164    0.0000 H   0  0  0  0  0  0  0  0  0  0  0  0
   10.4142    0.8585    0.0000 H   0  0  0  0  0  0  0  0  0  0  0  0
    9.7942    1.4785    0.0000 H   0  0  0  0  0  0  0  0  0  0  0  0
    9.1742    0.8585    0.0000 H   0  0  0  0  0  0  0  0  0  0  0  0
    4.9966    0.3335    0.0000 H   0  0  0  0  0  0  0  0  0  0  0  0
    4.1996    0.3335    0.0000 H   0  0  0  0  0  0  0  0  0  0  0  0
   24.2706    0.8585    0.0000 H   0  0  0  0  0  0  0  0  0  0  0  0
   23.6506    1.4785    0.0000 H   0  0  0  0  0  0  0  0  0  0  0  0
   23.0306    0.8585    0.0000 H   0  0  0  0  0  0  0  0  0  0  0  0
    6.9501    0.8585    0.0000 H   0  0  0  0  0  0  0  0  0  0  0  0
    6.3301    1.4785    0.0000 H   0  0  0  0  0  0  0  0  0  0  0  0
    5.7101    0.8585    0.0000 H   0  0  0  0  0  0  0  0  0  0  0  0
    3.7320   -1.2615    0.0000 H   0  0  0  0  0  0  0  0  0  0  0  0
   27.7347    0.8585    0.0000 H   0  0  0  0  0  0  0  0  0  0  0  0
   27.1147    1.4785    0.0000 H   0  0  0  0  0  0  0  0  0  0  0  0
   26.4947    0.8585    0.0000 H   0  0  0  0  0  0  0  0  0  0  0  0
   27.9808   -1.2615    0.0000 H   0  0  0  0  0  0  0  0  0  0  0  0
   29.2453    0.3335    0.0000 H   0  0  0  0  0  0  0  0  0  0  0  0
   28.4483    0.3335    0.0000 H   0  0  0  0  0  0  0  0  0  0  0  0
    3.4860    0.8585    0.0000 H   0  0  0  0  0  0  0  0  0  0  0  0
    2.8660    1.4785    0.0000 H   0  0  0  0  0  0  0  0  0  0  0  0
    2.2460    0.8585    0.0000 H   0  0  0  0  0  0  0  0  0  0  0  0
    1.6900   -0.1045    0.0000 H   0  0  0  0  0  0  0  0  0  0  0  0
    1.4631   -0.9515    0.0000 H   0  0  0  0  0  0  0  0  0  0  0  0
    2.3100   -1.1784    0.0000 H   0  0  0  0  0  0  0  0  0  0  0  0
   30.3888    1.2615    0.0000 H   0  0  0  0  0  0  0  0  0  0  0  0
   32.5009    1.2615    0.0000 H   0  0  0  0  0  0  0  0  0  0  0  0
   33.7139   -0.3315    0.0000 H   0  0  0  0  0  0  0  0  0  0  0  0
  1  3  1  0  0  0  0
  1  4  1  0  0  0  0
  1  5  1  0  0  0  0
  1  6  2  0  0  0  0
  2  4  1  0  0  0  0
  2  7  1  0  0  0  0
  2  8  1  0  0  0  0
  2  9  2  0  0  0  0
  3 47  1  0  0  0  0
  5115  1  0  0  0  0
  7117  1  0  0  0  0
  8116  1  0  0  0  0
 10 13  1  0  0  0  0
 10 16  1  0  0  0  0
 10 50  1  0  0  0  0
 10 51  1  0  0  0  0
 11 14  1  0  0  0  0
 11 18  1  0  0  0  0
 11 52  1  0  0  0  0
 11 53  1  0  0  0  0
 12 15  1  0  0  0  0
 12 17  1  0  0  0  0
 12 54  1  0  0  0  0
 12 55  1  0  0  0  0
 13 22  1  0  0  0  0
 13 56  1  0  0  0  0
 13 57  1  0  0  0  0
 14 23  1  0  0  0  0
 14 58  1  0  0  0  0
 14 59  1  0  0  0  0
 15 26  1  0  0  0  0
 15 60  1  0  0  0  0
 15 61  1  0  0  0  0
 16 23  2  0  0  0  0
 16 31  1  0  0  0  0
 17 22  2  0  0  0  0
 17 33  1  0  0  0  0
 18 27  2  0  0  0  0
 18 36  1  0  0  0  0
 19 21  1  0  0  0  0
 19 27  1  0  0  0  0
 19 62  1  0  0  0  0
 19 63  1  0  0  0  0
 20 24  1  0  0  0  0
 20 25  1  0  0  0  0
 20 64  1  0  0  0  0
 20 65  1  0  0  0  0
 21 28  1  0  0  0  0
 21 66  1  0  0  0  0
 21 67  1  0  0  0  0
 22 68  1  0  0  0  0
 23 69  1  0  0  0  0
 24 26  2  0  0  0  0
 24 38  1  0  0  0  0
 25 30  1  0  0  0  0
 25 70  1  0  0  0  0
 25 71  1  0  0  0  0
 26 72  1  0  0  0  0
 27 73  1  0  0  0  0
 28 34  2  0  0  0  0
 28 39  1  0  0  0  0
 29 34  1  0  0  0  0
 29 37  1  0  0  0  0
 29 74  1  0  0  0  0
 29 75  1  0  0  0  0
 30 32  2  0  0  0  0
 30 76  1  0  0  0  0
 31 77  1  0  0  0  0
 31 78  1  0  0  0  0
 31 79  1  0  0  0  0
 32 35  1  0  0  0  0
 32 42  1  0  0  0  0
 33 81  1  0  0  0  0
 33 82  1  0  0  0  0
 33 83  1  0  0  0  0
 34 80  1  0  0  0  0
 35 40  1  0  0  0  0
 35 84  1  0  0  0  0
 35 85  1  0  0  0  0
 36 86  1  0  0  0  0
 36 87  1  0  0  0  0
 36 88  1  0  0  0  0
 37 41  1  0  0  0  0
 37 89  1  0  0  0  0
 37 90  1  0  0  0  0
 38 91  1  0  0  0  0
 38 92  1  0  0  0  0
 38 93  1  0  0  0  0
 39 96  1  0  0  0  0
 39 97  1  0  0  0  0
 39 98  1  0  0  0  0
 40 43  1  0  0  0  0
 40 94  1  0  0  0  0
 40 95  1  0  0  0  0
 41 44  1  0  0  0  0
 41 45  2  0  0  0  0
 42 99  1  0  0  0  0
 42100  1  0  0  0  0
 42101  1  0  0  0  0
 43 46  2  0  0  0  0
 43102  1  0  0  0  0
 44103  1  0  0  0  0
 44104  1  0  0  0  0
 44105  1  0  0  0  0
 45 47  1  0  0  0  0
 45106  1  0  0  0  0
 46 48  1  0  0  0  0
 46 49  1  0  0  0  0
 47107  1  0  0  0  0
 47108  1  0  0  0  0
 48112  1  0  0  0  0
 48113  1  0  0  0  0
 48114  1  0  0  0  0
 49109  1  0  0  0  0
 49110  1  0  0  0  0
 49111  1  0  0  0  0
M  END
> <PUBCHEM_COMPOUND_CID>
5280651

> <PUBCHEM_COMPOUND_CANONICALIZED>
1

> <PUBCHEM_CACTVS_COMPLEXITY>
1320

> <PUBCHEM_CACTVS_HBOND_ACCEPTOR>
7

> <PUBCHEM_CACTVS_HBOND_DONOR>
3

> <PUBCHEM_CACTVS_ROTATABLE_BOND>
26

> <PUBCHEM_CACTVS_SUBSKEYS>
AAADcfB8OAMAAAAAAAAAAAAAAAAAAAAAAAAAAAAAAAAAAAAAAAAAGgAACCAADACggAICAAAAARCAQiBCAIAAAAAgAAAACAAAAAgABAIAAQAAEAAAgAAIAAIAAAAAAAAAAAAAAAAAAAAAAAAAAAAAAAAAAA==

> <PUBCHEM_IUPAC_OPENEYE_NAME>
[(2E,6E,10E,14E,18E,22E,26E)-3,7,11,15,19,23,27,31-octamethyldotriaconta-2,6,10,14,18,22,26,30-octaenyl] phosphono hydrogen phosphate

> <PUBCHEM_IUPAC_CAS_NAME>
[(2E,6E,10E,14E,18E,22E,26E)-3,7,11,15,19,23,27,31-octamethyldotriaconta-2,6,10,14,18,22,26,30-octaenyl] phosphono hydrogen phosphate

> <PUBCHEM_IUPAC_NAME>
[(2E,6E,10E,14E,18E,22E,26E)-3,7,11,15,19,23,27,31-octamethyldotriaconta-2,6,10,14,18,22,26,30-octaenyl] phosphono hydrogen phosphate

> <PUBCHEM_IUPAC_SYSTEMATIC_NAME>
[(2E,6E,10E,14E,18E,22E,26E)-3,7,11,15,19,23,27,31-octamethyldotriaconta-2,6,10,14,18,22,26,30-octaenyl] phosphono hydrogen phosphate

> <PUBCHEM_IUPAC_TRADITIONAL_NAME>
[(2E,6E,10E,14E,18E,22E,26E)-3,7,11,15,19,23,27,31-octamethyldotriaconta-2,6,10,14,18,22,26,30-octaenyl] phosphono hydrogen phosphate

> <PUBCHEM_IUPAC_INCHI>
InChI=1S/C40H68O7P2/c1-33(2)17-10-18-34(3)19-11-20-35(4)21-12-22-36(5)23-13-24-37(6)25-14-26-38(7)27-15-28-39(8)29-16-30-40(9)31-32-46-49(44,45)47-48(41,42)43/h17,19,21,23,25,27,29,31H,10-16,18,20,22,24,26,28,30,32H2,1-9H3,(H,44,45)(H2,41,42,43)/b34-19+,35-21+,36-23+,37-25+,38-27+,39-29+,40-31+

> <PUBCHEM_IUPAC_INCHIKEY>
IKKLDISSULFFQO-DJMILUHSSA-N

> <PUBCHEM_XLOGP3_AA>
11.8

> <PUBCHEM_EXACT_MASS>
722.444028

> <PUBCHEM_MOLECULAR_FORMULA>
C40H68O7P2

> <PUBCHEM_MOLECULAR_WEIGHT>
722.911244

> <PUBCHEM_OPENEYE_CAN_SMILES>
CC(=CCCC(=CCCC(=CCCC(=CCCC(=CCCC(=CCCC(=CCCC(=CCOP(=O)(O)OP(=O)(O)O)C)C)C)C)C)C)C)C

> <PUBCHEM_OPENEYE_ISO_SMILES>
CC(=CCC/C(=C/CC/C(=C/CC/C(=C/CC/C(=C/CC/C(=C/CC/C(=C/CC/C(=C/COP(=O)(O)OP(=O)(O)O)/C)/C)/C)/C)/C)/C)/C)C

> <PUBCHEM_CACTVS_TPSA>
113

> <PUBCHEM_MONOISOTOPIC_WEIGHT>
722.444028

> <PUBCHEM_TOTAL_CHARGE>
0

> <PUBCHEM_HEAVY_ATOM_COUNT>
49

> <PUBCHEM_ATOM_DEF_STEREO_COUNT>
0

> <PUBCHEM_ATOM_UDEF_STEREO_COUNT>
0

> <PUBCHEM_BOND_DEF_STEREO_COUNT>
7

> <PUBCHEM_BOND_UDEF_STEREO_COUNT>
0

> <PUBCHEM_ISOTOPIC_ATOM_COUNT>
0

> <PUBCHEM_COMPONENT_COUNT>
1

> <PUBCHEM_CACTVS_TAUTO_COUNT>
1

> <PUBCHEM_COORDINATE_TYPE>
1
5
255

$$$$

