15091
  -OEChem-07051213023D

 24 24  0     0  0  0  0  0  0999 V2000
    2.9492    0.7623   -0.1513 O   0  0  0  0  0  0  0  0  0  0  0  0
    2.0471   -1.0586    0.8813 O   0  0  0  0  0  0  0  0  0  0  0  0
    0.6853    0.2940   -0.5975 C   0  0  0  0  0  0  0  0  0  0  0  0
   -0.0973   -0.9589   -1.0053 C   0  0  0  0  0  0  0  0  0  0  0  0
   -0.0679    1.3328    0.2388 C   0  0  0  0  0  0  0  0  0  0  0  0
   -1.0368   -1.5163    0.0636 C   0  0  0  0  0  0  0  0  0  0  0  0
   -1.5292    1.5435   -0.1485 C   0  0  0  0  0  0  0  0  0  0  0  0
   -2.4190   -0.8670    0.0363 C   0  0  0  0  0  0  0  0  0  0  0  0
   -2.4730    0.5671    0.5502 C   0  0  0  0  0  0  0  0  0  0  0  0
    1.9416   -0.0988    0.1324 C   0  0  0  0  0  0  0  0  0  0  0  0
    0.9996    0.7657   -1.5397 H   0  0  0  0  0  0  0  0  0  0  0  0
    0.6120   -1.7488   -1.2868 H   0  0  0  0  0  0  0  0  0  0  0  0
   -0.6702   -0.7451   -1.9170 H   0  0  0  0  0  0  0  0  0  0  0  0
    0.4574    2.2910    0.1240 H   0  0  0  0  0  0  0  0  0  0  0  0
    0.0033    1.0963    1.3087 H   0  0  0  0  0  0  0  0  0  0  0  0
   -0.5980   -1.4513    1.0651 H   0  0  0  0  0  0  0  0  0  0  0  0
   -1.1775   -2.5851   -0.1430 H   0  0  0  0  0  0  0  0  0  0  0  0
   -1.6615    1.5110   -1.2360 H   0  0  0  0  0  0  0  0  0  0  0  0
   -1.8153    2.5547    0.1684 H   0  0  0  0  0  0  0  0  0  0  0  0
   -3.0966   -1.4718    0.6520 H   0  0  0  0  0  0  0  0  0  0  0  0
   -2.8231   -0.9032   -0.9831 H   0  0  0  0  0  0  0  0  0  0  0  0
   -3.5005    0.9311    0.4253 H   0  0  0  0  0  0  0  0  0  0  0  0
   -2.2779    0.5741    1.6298 H   0  0  0  0  0  0  0  0  0  0  0  0
    3.7776    0.5238    0.3169 H   0  0  0  0  0  0  0  0  0  0  0  0
  1 10  1  0  0  0  0
  1 24  1  0  0  0  0
  2 10  2  0  0  0  0
  3  4  1  0  0  0  0
  3  5  1  0  0  0  0
  3 10  1  0  0  0  0
  3 11  1  0  0  0  0
  4  6  1  0  0  0  0
  4 12  1  0  0  0  0
  4 13  1  0  0  0  0
  5  7  1  0  0  0  0
  5 14  1  0  0  0  0
  5 15  1  0  0  0  0
  6  8  1  0  0  0  0
  6 16  1  0  0  0  0
  6 17  1  0  0  0  0
  7  9  1  0  0  0  0
  7 18  1  0  0  0  0
  7 19  1  0  0  0  0
  8  9  1  0  0  0  0
  8 20  1  0  0  0  0
  8 21  1  0  0  0  0
  9 22  1  0  0  0  0
  9 23  1  0  0  0  0
M  END
> <PUBCHEM_COMPOUND_CID>
15091

> <PUBCHEM_CONFORMER_RMSD>
0.6

> <PUBCHEM_CONFORMER_DIVERSEORDER>
1
5
3
6
7
4
2

> <PUBCHEM_MMFF94_PARTIAL_CHARGES>
5
1 -0.65
10 0.66
2 -0.57
24 0.5
3 0.06

> <PUBCHEM_EFFECTIVE_ROTOR_COUNT>
2.4

> <PUBCHEM_PHARMACOPHORE_FEATURES>
4
1 1 acceptor
1 2 acceptor
3 1 2 10 anion
7 3 4 5 6 7 8 9 rings

> <PUBCHEM_HEAVY_ATOM_COUNT>
10

> <PUBCHEM_ATOM_DEF_STEREO_COUNT>
0

> <PUBCHEM_ATOM_UDEF_STEREO_COUNT>
0

> <PUBCHEM_BOND_DEF_STEREO_COUNT>
0

> <PUBCHEM_BOND_UDEF_STEREO_COUNT>
0

> <PUBCHEM_ISOTOPIC_ATOM_COUNT>
0

> <PUBCHEM_COMPONENT_COUNT>
1

> <PUBCHEM_CACTVS_TAUTO_COUNT>
1

> <PUBCHEM_CONFORMER_ID>
00003AF300000001

> <PUBCHEM_MMFF94_ENERGY>
14.0975

> <PUBCHEM_FEATURE_SELFOVERLAP>
20.353

> <PUBCHEM_SHAPE_FINGERPRINT>
10857977 72 18260553294484998993
12423570 1 17534884304497661822
15076042 46 18265055914923006130
15775835 57 18410285930422168745
16945 1 18341611482033505549
18185500 45 18196091036556380791
20645464 45 17313117327876301458
20653085 51 4895551896068166034
20871998 184 18115019702208037327
21040471 1 18191858140222668741
23235685 24 18040992981544536145
23552423 10 18055352435894213501
241688 4 16030697924819665699
2748010 2 18048584113186552165
29004967 10 16056881325266600046
369184 2 18271811245644630449
5084963 1 18041560376599042274
54338 74 18338246946704354975
75552 356 18410852122975502595

> <PUBCHEM_SHAPE_MULTIPOLES>
194.06
3.63
1.63
0.84
1
0.06
-0.05
0.19
0.61
-0.54
0
0.08
-0.13
-0.19

> <PUBCHEM_SHAPE_SELFOVERLAP>
378.288

> <PUBCHEM_SHAPE_VOLUME>
115.1

> <PUBCHEM_COORDINATE_TYPE>
2
5
10

$$$$

