441726
  -OEChem-07051212553D

 88 94  0     1  0  0  0  0  0999 V2000
   -1.3485   -1.0393    0.7606 O   0  0  0  0  0  0  0  0  0  0  0  0
    1.8422   -2.7191    0.7516 O   0  0  0  0  0  0  0  0  0  0  0  0
    3.2444    3.0101   -0.4819 O   0  0  0  0  0  0  0  0  0  0  0  0
   -2.7631    0.8758   -0.9825 O   0  0  0  0  0  0  0  0  0  0  0  0
   -1.6855    3.7587   -1.1311 O   0  0  0  0  0  0  0  0  0  0  0  0
   -2.7814    2.6776    1.1399 O   0  0  0  0  0  0  0  0  0  0  0  0
    4.4556   -2.7279   -1.8814 O   0  0  0  0  0  0  0  0  0  0  0  0
   -0.8995   -1.1826    3.0221 O   0  0  0  0  0  0  0  0  0  0  0  0
   -2.4838   -0.9683   -2.3319 O   0  0  0  0  0  0  0  0  0  0  0  0
    3.3291    0.3775    1.7508 N   0  0  2  0  0  0  0  0  0  0  0  0
    2.2700    0.7391   -0.4904 C   0  0  1  0  0  0  0  0  0  0  0  0
    2.5974   -0.7923   -0.7249 C   0  0  2  0  0  0  0  0  0  0  0  0
    0.9162    1.2178   -1.1712 C   0  0  1  0  0  0  0  0  0  0  0  0
    2.0631    0.6566    1.0411 C   0  0  1  0  0  0  0  0  0  0  0  0
    0.9832   -0.4744    1.1051 C   0  0  1  0  0  0  0  0  0  0  0  0
   -0.3567    0.4125   -0.8614 C   0  0  1  0  0  0  0  0  0  0  0  0
   -0.4180    0.0539    0.6451 C   0  0  1  0  0  0  0  0  0  0  0  0
    1.4784   -1.5300    0.0772 C   0  0  2  0  0  0  0  0  0  0  0  0
    4.0353   -1.0972   -0.1868 C   0  0  2  0  0  0  0  0  0  0  0  0
    3.4051    1.6890   -0.9944 C   0  0  2  0  0  0  0  0  0  0  0  0
    0.4558    2.6703   -0.8495 C   0  0  0  0  0  0  0  0  0  0  0  0
   -1.0652    2.6063   -0.5835 C   0  0  2  0  0  0  0  0  0  0  0  0
   -1.4745    1.3452   -1.3216 C   0  0  2  0  0  0  0  0  0  0  0  0
   -0.9423    1.1814    1.5836 C   0  0  0  0  0  0  0  0  0  0  0  0
    4.0516   -0.8378    1.3480 C   0  0  0  0  0  0  0  0  0  0  0  0
    5.0580   -0.1954   -0.9190 C   0  0  0  0  0  0  0  0  0  0  0  0
   -1.3759    2.5030    0.9192 C   0  0  2  0  0  0  0  0  0  0  0  0
    4.8356    1.2787   -0.6887 C   0  0  0  0  0  0  0  0  0  0  0  0
    4.4937   -2.5433   -0.4846 C   0  0  0  0  0  0  0  0  0  0  0  0
    3.1869    0.4552    3.2014 C   0  0  0  0  0  0  0  0  0  0  0  0
   -1.4821   -1.5537    2.0122 C   0  0  0  0  0  0  0  0  0  0  0  0
    0.7454   -3.2769    1.4673 C   0  0  0  0  0  0  0  0  0  0  0  0
    4.1517    3.9151   -1.0924 C   0  0  0  0  0  0  0  0  0  0  0  0
   -3.1517   -0.2999   -1.5583 C   0  0  0  0  0  0  0  0  0  0  0  0
   -3.0765    2.7313    2.5244 C   0  0  0  0  0  0  0  0  0  0  0  0
   -2.4758   -2.6752    1.9808 C   0  0  0  0  0  0  0  0  0  0  0  0
    4.8642   -4.0408   -2.2575 C   0  0  0  0  0  0  0  0  0  0  0  0
   -4.5192   -0.6812   -1.1237 C   0  0  0  0  0  0  0  0  0  0  0  0
   -5.3145   -1.4079   -1.9861 C   0  0  0  0  0  0  0  0  0  0  0  0
   -4.9522   -0.2978    0.1291 C   0  0  0  0  0  0  0  0  0  0  0  0
   -6.5992   -1.7666   -1.5778 C   0  0  0  0  0  0  0  0  0  0  0  0
   -6.2369   -0.6566    0.5373 C   0  0  0  0  0  0  0  0  0  0  0  0
   -7.0603   -1.3910   -0.3163 C   0  0  0  0  0  0  0  0  0  0  0  0
    2.5233   -1.0315   -1.7924 H   0  0  0  0  0  0  0  0  0  0  0  0
    1.0713    1.1623   -2.2594 H   0  0  0  0  0  0  0  0  0  0  0  0
    1.6907    1.6110    1.4190 H   0  0  0  0  0  0  0  0  0  0  0  0
    0.9950   -0.8428    2.1242 H   0  0  0  0  0  0  0  0  0  0  0  0
   -0.3795   -0.4847   -1.4822 H   0  0  0  0  0  0  0  0  0  0  0  0
    0.7152   -1.8469   -0.6364 H   0  0  0  0  0  0  0  0  0  0  0  0
    3.3076    1.7282   -2.0893 H   0  0  0  0  0  0  0  0  0  0  0  0
    0.9568    3.1115    0.0149 H   0  0  0  0  0  0  0  0  0  0  0  0
    0.6790    3.3200   -1.7053 H   0  0  0  0  0  0  0  0  0  0  0  0
   -1.4433    1.5194   -2.4066 H   0  0  0  0  0  0  0  0  0  0  0  0
   -1.7730    0.7970    2.1713 H   0  0  0  0  0  0  0  0  0  0  0  0
   -0.1812    1.4324    2.3316 H   0  0  0  0  0  0  0  0  0  0  0  0
    5.0944   -0.7543    1.6827 H   0  0  0  0  0  0  0  0  0  0  0  0
    3.6484   -1.7042    1.8842 H   0  0  0  0  0  0  0  0  0  0  0  0
    6.0795   -0.4442   -0.6025 H   0  0  0  0  0  0  0  0  0  0  0  0
    5.0200   -0.3747   -2.0016 H   0  0  0  0  0  0  0  0  0  0  0  0
   -0.8780    3.3462    1.4183 H   0  0  0  0  0  0  0  0  0  0  0  0
    5.5387    1.8133   -1.3403 H   0  0  0  0  0  0  0  0  0  0  0  0
    5.1277    1.5634    0.3290 H   0  0  0  0  0  0  0  0  0  0  0  0
    3.8823   -3.3018    0.0065 H   0  0  0  0  0  0  0  0  0  0  0  0
    5.5215   -2.6889   -0.1262 H   0  0  0  0  0  0  0  0  0  0  0  0
    2.7329    1.4069    3.4988 H   0  0  0  0  0  0  0  0  0  0  0  0
    2.5805   -0.3591    3.6110 H   0  0  0  0  0  0  0  0  0  0  0  0
    4.1708    0.4180    3.6824 H   0  0  0  0  0  0  0  0  0  0  0  0
   -2.6457    3.6587   -1.0133 H   0  0  0  0  0  0  0  0  0  0  0  0
    0.6521   -2.8475    2.4611 H   0  0  0  0  0  0  0  0  0  0  0  0
   -0.1532   -3.3136    0.8544 H   0  0  0  0  0  0  0  0  0  0  0  0
    1.0102   -4.3252    1.6496 H   0  0  0  0  0  0  0  0  0  0  0  0
    3.7749    4.9270   -0.9138 H   0  0  0  0  0  0  0  0  0  0  0  0
    5.1407    3.8605   -0.6286 H   0  0  0  0  0  0  0  0  0  0  0  0
    4.2151    3.7723   -2.1761 H   0  0  0  0  0  0  0  0  0  0  0  0
   -3.4048    1.7553    2.8933 H   0  0  0  0  0  0  0  0  0  0  0  0
   -3.9276    3.4084    2.6499 H   0  0  0  0  0  0  0  0  0  0  0  0
   -2.2544    3.1225    3.1332 H   0  0  0  0  0  0  0  0  0  0  0  0
   -2.1628   -3.4550    2.6803 H   0  0  0  0  0  0  0  0  0  0  0  0
   -3.4593   -2.2938    2.2645 H   0  0  0  0  0  0  0  0  0  0  0  0
   -2.5334   -3.1223    0.9841 H   0  0  0  0  0  0  0  0  0  0  0  0
    4.1907   -4.7880   -1.8270 H   0  0  0  0  0  0  0  0  0  0  0  0
    4.8188   -4.1147   -3.3472 H   0  0  0  0  0  0  0  0  0  0  0  0
    5.8931   -4.2276   -1.9354 H   0  0  0  0  0  0  0  0  0  0  0  0
   -4.9677   -1.7035   -2.9718 H   0  0  0  0  0  0  0  0  0  0  0  0
   -4.3250    0.2583    0.8182 H   0  0  0  0  0  0  0  0  0  0  0  0
   -7.2406   -2.3380   -2.2424 H   0  0  0  0  0  0  0  0  0  0  0  0
   -6.5944   -0.3681    1.5215 H   0  0  0  0  0  0  0  0  0  0  0  0
   -8.0601   -1.6712    0.0021 H   0  0  0  0  0  0  0  0  0  0  0  0
  1 17  1  0  0  0  0
  1 31  1  0  0  0  0
  2 18  1  0  0  0  0
  2 32  1  0  0  0  0
  3 20  1  0  0  0  0
  3 33  1  0  0  0  0
  4 23  1  0  0  0  0
  4 34  1  0  0  0  0
  5 22  1  0  0  0  0
  5 68  1  0  0  0  0
  6 27  1  0  0  0  0
  6 35  1  0  0  0  0
  7 29  1  0  0  0  0
  7 37  1  0  0  0  0
  8 31  2  0  0  0  0
  9 34  2  0  0  0  0
 10 14  1  0  0  0  0
 10 25  1  0  0  0  0
 10 30  1  0  0  0  0
 11 12  1  0  0  0  0
 11 13  1  0  0  0  0
 11 14  1  0  0  0  0
 11 20  1  0  0  0  0
 12 18  1  0  0  0  0
 12 19  1  0  0  0  0
 12 44  1  0  0  0  0
 13 16  1  0  0  0  0
 13 21  1  0  0  0  0
 13 45  1  0  0  0  0
 14 15  1  0  0  0  0
 14 46  1  0  0  0  0
 15 17  1  0  0  0  0
 15 18  1  0  0  0  0
 15 47  1  0  0  0  0
 16 17  1  0  0  0  0
 16 23  1  0  0  0  0
 16 48  1  0  0  0  0
 17 24  1  0  0  0  0
 18 49  1  0  0  0  0
 19 25  1  0  0  0  0
 19 26  1  0  0  0  0
 19 29  1  0  0  0  0
 20 28  1  0  0  0  0
 20 50  1  0  0  0  0
 21 22  1  0  0  0  0
 21 51  1  0  0  0  0
 21 52  1  0  0  0  0
 22 23  1  0  0  0  0
 22 27  1  0  0  0  0
 23 53  1  0  0  0  0
 24 27  1  0  0  0  0
 24 54  1  0  0  0  0
 24 55  1  0  0  0  0
 25 56  1  0  0  0  0
 25 57  1  0  0  0  0
 26 28  1  0  0  0  0
 26 58  1  0  0  0  0
 26 59  1  0  0  0  0
 27 60  1  0  0  0  0
 28 61  1  0  0  0  0
 28 62  1  0  0  0  0
 29 63  1  0  0  0  0
 29 64  1  0  0  0  0
 30 65  1  0  0  0  0
 30 66  1  0  0  0  0
 30 67  1  0  0  0  0
 31 36  1  0  0  0  0
 32 69  1  0  0  0  0
 32 70  1  0  0  0  0
 32 71  1  0  0  0  0
 33 72  1  0  0  0  0
 33 73  1  0  0  0  0
 33 74  1  0  0  0  0
 34 38  1  0  0  0  0
 35 75  1  0  0  0  0
 35 76  1  0  0  0  0
 35 77  1  0  0  0  0
 36 78  1  0  0  0  0
 36 79  1  0  0  0  0
 36 80  1  0  0  0  0
 37 81  1  0  0  0  0
 37 82  1  0  0  0  0
 37 83  1  0  0  0  0
 38 39  2  0  0  0  0
 38 40  1  0  0  0  0
 39 41  1  0  0  0  0
 39 84  1  0  0  0  0
 40 42  2  0  0  0  0
 40 85  1  0  0  0  0
 41 43  2  0  0  0  0
 41 86  1  0  0  0  0
 42 43  1  0  0  0  0
 42 87  1  0  0  0  0
 43 88  1  0  0  0  0
M  END
> <PUBCHEM_COMPOUND_CID>
441726

> <PUBCHEM_CONFORMER_RMSD>
1.2

> <PUBCHEM_CONFORMER_DIVERSEORDER>
1
2
3

> <PUBCHEM_MMFF94_PARTIAL_CHARGES>
39
1 -0.43
10 -0.81
14 0.27
17 0.28
18 0.28
2 -0.56
20 0.28
22 0.28
23 0.28
25 0.27
27 0.28
29 0.28
3 -0.56
30 0.27
31 0.66
32 0.28
33 0.28
34 0.63
35 0.28
36 0.06
37 0.28
38 0.09
39 -0.15
4 -0.43
40 -0.15
41 -0.15
42 -0.15
43 -0.15
5 -0.68
6 -0.56
68 0.4
7 -0.56
8 -0.57
84 0.15
85 0.15
86 0.15
87 0.15
88 0.15
9 -0.57

> <PUBCHEM_EFFECTIVE_ROTOR_COUNT>
12

> <PUBCHEM_PHARMACOPHORE_FEATURES>
14
1 10 cation
1 2 acceptor
1 3 acceptor
1 5 acceptor
1 5 donor
1 6 acceptor
1 7 acceptor
1 8 acceptor
1 9 acceptor
6 11 12 19 20 26 28 rings
6 38 39 40 41 42 43 rings
8 10 11 12 14 15 18 19 25 rings
8 11 12 13 14 15 16 17 18 rings
8 13 16 17 21 22 23 24 27 rings

> <PUBCHEM_HEAVY_ATOM_COUNT>
43

> <PUBCHEM_ATOM_DEF_STEREO_COUNT>
12

> <PUBCHEM_ATOM_UDEF_STEREO_COUNT>
1

> <PUBCHEM_BOND_DEF_STEREO_COUNT>
0

> <PUBCHEM_BOND_UDEF_STEREO_COUNT>
0

> <PUBCHEM_ISOTOPIC_ATOM_COUNT>
0

> <PUBCHEM_COMPONENT_COUNT>
1

> <PUBCHEM_CACTVS_TAUTO_COUNT>
1

> <PUBCHEM_CONFORMER_ID>
0006BD7E00000001

> <PUBCHEM_MMFF94_ENERGY>
236.867

> <PUBCHEM_FEATURE_SELFOVERLAP>
72.53

> <PUBCHEM_SHAPE_FINGERPRINT>
10190108 129 18266158708560353123
10675989 125 18059582364405466035
11115154 58 18259993652748321109
11135609 187 18197779895070799213
11421498 54 18334297561446688651
11578080 2 17767404582860512185
11763715 3 17822279172161473849
12107698 1 18336546104952691646
12422481 6 17895750815967937495
12788726 201 18272941526455564413
13140716 1 18201422689226253848
13782708 43 17968095381961031431
13811026 1 18131080336999812860
14040221 97 17198523876508913581
15219462 58 17677041365876252418
15324884 4 17629169673311852906
15361156 5 18123725781490038500
17349148 13 18059583519656618945
17909252 39 18114189631016566138
1813 80 18337967713906567741
18393751 57 17608120605835698088
18603816 31 17465933174949683198
19311894 1 17835241521152527580
19319366 153 18340783532688319767
20764821 26 17556299806358266106
20775438 99 18198354956668315471
23559900 14 18201718406087404504
3380486 145 17700954571254327833
4093350 32 18336266730225446844
469060 322 18129946788342330921
563151 248 17899113174144347075
6669772 16 17273995544107736384

> <PUBCHEM_SHAPE_MULTIPOLES>
827.11
12.46
4.21
2.55
12.46
0.68
-1.27
-6.6
5.43
-3.27
0.87
0.2
-0.68
-0.25

> <PUBCHEM_SHAPE_SELFOVERLAP>
1822.14

> <PUBCHEM_SHAPE_VOLUME>
438.1

> <PUBCHEM_COORDINATE_TYPE>
2
5
10

$$$$

