442731
  -OEChem-07051212592D

 50 53  0     1  0  0  0  0  0999 V2000
    8.1272    1.4623    0.0000 O   0  0  0  0  0  0  0  0  0  0  0  0
    7.2785   -0.0476    0.0000 O   0  0  0  0  0  0  0  0  0  0  0  0
   10.7424   -0.0075    0.0000 O   0  0  0  0  0  0  0  0  0  0  0  0
   10.7193    1.9924    0.0000 O   0  0  0  0  0  0  0  0  0  0  0  0
    9.0220   -1.0275    0.0000 O   0  0  0  0  0  0  0  0  0  0  0  0
    8.1040    3.4622    0.0000 O   0  0  0  0  0  0  0  0  0  0  0  0
    5.5301   -0.0822    0.0000 O   0  0  0  0  0  0  0  0  0  0  0  0
    5.5301   -4.0822    0.0000 O   0  0  0  0  0  0  0  0  0  0  0  0
    3.7817   -0.0476    0.0000 O   0  0  0  0  0  0  0  0  0  0  0  0
    9.8706    0.4824    0.0000 C   0  0  1  0  0  0  0  0  0  0  0  0
    9.8591    1.4824    0.0000 C   0  0  1  0  0  0  0  0  0  0  0  0
    9.0105   -0.0275    0.0000 C   0  0  2  0  0  0  0  0  0  0  0  0
    8.9873    1.9723    0.0000 C   0  0  1  0  0  0  0  0  0  0  0  0
    8.1387    0.4624    0.0000 C   0  0  1  0  0  0  0  0  0  0  0  0
    8.9758    2.9723    0.0000 C   0  0  0  0  0  0  0  0  0  0  0  0
    7.2901   -1.0475    0.0000 C   0  0  0  0  0  0  0  0  0  0  0  0
    6.3961   -1.5822    0.0000 C   0  0  0  0  0  0  0  0  0  0  0  0
    6.3961   -2.5822    0.0000 C   0  0  0  0  0  0  0  0  0  0  0  0
    5.5301   -1.0822    0.0000 C   0  0  0  0  0  0  0  0  0  0  0  0
    4.6641   -1.5822    0.0000 C   0  0  0  0  0  0  0  0  0  0  0  0
    8.1962   -1.5614    0.0000 C   0  0  0  0  0  0  0  0  0  0  0  0
    4.6641   -2.5822    0.0000 C   0  0  0  0  0  0  0  0  0  0  0  0
    5.5301   -3.0822    0.0000 C   0  0  0  0  0  0  0  0  0  0  0  0
    7.2901   -3.1168    0.0000 C   0  0  0  0  0  0  0  0  0  0  0  0
    8.1962   -2.6030    0.0000 C   0  0  0  0  0  0  0  0  0  0  0  0
    3.7702   -1.0475    0.0000 C   0  0  0  0  0  0  0  0  0  0  0  0
    3.7702   -3.1168    0.0000 C   0  0  0  0  0  0  0  0  0  0  0  0
    2.8641   -2.6030    0.0000 C   0  0  0  0  0  0  0  0  0  0  0  0
    2.8641   -1.5614    0.0000 C   0  0  0  0  0  0  0  0  0  0  0  0
    2.0000   -3.1063    0.0000 C   0  0  0  0  0  0  0  0  0  0  0  0
    9.8778   -0.1375    0.0000 H   0  0  0  0  0  0  0  0  0  0  0  0
    9.8519    2.1023    0.0000 H   0  0  0  0  0  0  0  0  0  0  0  0
    8.4772   -0.3437    0.0000 H   0  0  0  0  0  0  0  0  0  0  0  0
    8.4468    2.2761    0.0000 H   0  0  0  0  0  0  0  0  0  0  0  0
    7.5982    0.7662    0.0000 H   0  0  0  0  0  0  0  0  0  0  0  0
    9.5876    2.8717    0.0000 H   0  0  0  0  0  0  0  0  0  0  0  0
    9.1811    3.5573    0.0000 H   0  0  0  0  0  0  0  0  0  0  0  0
   11.2757    0.3087    0.0000 H   0  0  0  0  0  0  0  0  0  0  0  0
   10.7121    2.6123    0.0000 H   0  0  0  0  0  0  0  0  0  0  0  0
    9.5625   -1.3312    0.0000 H   0  0  0  0  0  0  0  0  0  0  0  0
    8.7319   -1.2493    0.0000 H   0  0  0  0  0  0  0  0  0  0  0  0
    8.0969    4.0822    0.0000 H   0  0  0  0  0  0  0  0  0  0  0  0
    7.2829   -3.7368    0.0000 H   0  0  0  0  0  0  0  0  0  0  0  0
    8.7319   -2.9150    0.0000 H   0  0  0  0  0  0  0  0  0  0  0  0
    3.7773   -3.7368    0.0000 H   0  0  0  0  0  0  0  0  0  0  0  0
    2.3284   -1.2493    0.0000 H   0  0  0  0  0  0  0  0  0  0  0  0
    1.6879   -2.5706    0.0000 H   0  0  0  0  0  0  0  0  0  0  0  0
    1.4643   -3.4184    0.0000 H   0  0  0  0  0  0  0  0  0  0  0  0
    2.3121   -3.6420    0.0000 H   0  0  0  0  0  0  0  0  0  0  0  0
    3.2484    0.2686    0.0000 H   0  0  0  0  0  0  0  0  0  0  0  0
  1 13  1  0  0  0  0
  1 14  1  0  0  0  0
 14  2  1  6  0  0  0
  2 16  1  0  0  0  0
 10  3  1  6  0  0  0
  3 38  1  0  0  0  0
 11  4  1  1  0  0  0
  4 39  1  0  0  0  0
 12  5  1  1  0  0  0
  5 40  1  0  0  0  0
  6 15  1  0  0  0  0
  6 42  1  0  0  0  0
  7 19  2  0  0  0  0
  8 23  2  0  0  0  0
  9 26  1  0  0  0  0
  9 50  1  0  0  0  0
 10 11  1  0  0  0  0
 10 12  1  0  0  0  0
 10 31  1  0  0  0  0
 11 13  1  0  0  0  0
 11 32  1  0  0  0  0
 12 14  1  0  0  0  0
 12 33  1  0  0  0  0
 13 15  1  6  0  0  0
 13 34  1  0  0  0  0
 14 35  1  0  0  0  0
 15 36  1  0  0  0  0
 15 37  1  0  0  0  0
 16 17  1  0  0  0  0
 16 21  2  0  0  0  0
 17 18  2  0  0  0  0
 17 19  1  0  0  0  0
 18 23  1  0  0  0  0
 18 24  1  0  0  0  0
 19 20  1  0  0  0  0
 20 22  2  0  0  0  0
 20 26  1  0  0  0  0
 21 25  1  0  0  0  0
 21 41  1  0  0  0  0
 22 23  1  0  0  0  0
 22 27  1  0  0  0  0
 24 25  2  0  0  0  0
 24 43  1  0  0  0  0
 25 44  1  0  0  0  0
 26 29  2  0  0  0  0
 27 28  2  0  0  0  0
 27 45  1  0  0  0  0
 28 29  1  0  0  0  0
 28 30  1  0  0  0  0
 29 46  1  0  0  0  0
 30 47  1  0  0  0  0
 30 48  1  0  0  0  0
 30 49  1  0  0  0  0
M  END
> <PUBCHEM_COMPOUND_CID>
442731

> <PUBCHEM_COMPOUND_CANONICALIZED>
1

> <PUBCHEM_CACTVS_COMPLEXITY>
669

> <PUBCHEM_CACTVS_HBOND_ACCEPTOR>
9

> <PUBCHEM_CACTVS_HBOND_DONOR>
5

> <PUBCHEM_CACTVS_ROTATABLE_BOND>
3

> <PUBCHEM_CACTVS_SUBSKEYS>
AAADceB4PAAAAAAAAAAAAAAAAAAAAAAAAAA0YMEAAAAAAADBQAAAGgAACAAADBSwmAMyDoAABgCIAqBSAAACCAAkIAAIiAEGCMgdNjaGNRqieWCl4BEPuYfL6PyOwAADAAAYAACAAAYAADAAAAAAAAAAAA==

> <PUBCHEM_IUPAC_OPENEYE_NAME>
1-hydroxy-3-methyl-8-[(2S,3R,4S,5S,6R)-3,4,5-trihydroxy-6-(hydroxymethyl)tetrahydropyran-2-yl]oxy-anthracene-9,10-dione

> <PUBCHEM_IUPAC_CAS_NAME>
1-hydroxy-3-methyl-8-[[(2S,3R,4S,5S,6R)-3,4,5-trihydroxy-6-(hydroxymethyl)-2-oxanyl]oxy]anthracene-9,10-dione

> <PUBCHEM_IUPAC_NAME>
1-hydroxy-3-methyl-8-[(2S,3R,4S,5S,6R)-3,4,5-trihydroxy-6-(hydroxymethyl)oxan-2-yl]oxyanthracene-9,10-dione

> <PUBCHEM_IUPAC_SYSTEMATIC_NAME>
8-[(2S,3R,4S,5S,6R)-6-(hydroxymethyl)-3,4,5-tris(oxidanyl)oxan-2-yl]oxy-3-methyl-1-oxidanyl-anthracene-9,10-dione

> <PUBCHEM_IUPAC_TRADITIONAL_NAME>
1-hydroxy-3-methyl-8-[(2S,3R,4S,5S,6R)-3,4,5-trihydroxy-6-methylol-tetrahydropyran-2-yl]oxy-9,10-anthraquinone

> <PUBCHEM_IUPAC_INCHI>
InChI=1S/C21H20O9/c1-8-5-10-14(11(23)6-8)18(26)15-9(16(10)24)3-2-4-12(15)29-21-20(28)19(27)17(25)13(7-22)30-21/h2-6,13,17,19-23,25,27-28H,7H2,1H3/t13-,17-,19+,20-,21-/m1/s1

> <PUBCHEM_IUPAC_INCHIKEY>
WMMOMSNMMDMSRB-JNHRPPPUSA-N

> <PUBCHEM_XLOGP3_AA>
1.3

> <PUBCHEM_EXACT_MASS>
416.110732

> <PUBCHEM_MOLECULAR_FORMULA>
C21H20O9

> <PUBCHEM_MOLECULAR_WEIGHT>
416.3781

> <PUBCHEM_OPENEYE_CAN_SMILES>
CC1=CC(=C2C(=C1)C(=O)C3=C(C2=O)C(=CC=C3)OC4C(C(C(C(O4)CO)O)O)O)O

> <PUBCHEM_OPENEYE_ISO_SMILES>
CC1=CC(=C2C(=C1)C(=O)C3=C(C2=O)C(=CC=C3)O[C@H]4[C@@H]([C@H]([C@@H]([C@H](O4)CO)O)O)O)O

> <PUBCHEM_CACTVS_TPSA>
154

> <PUBCHEM_MONOISOTOPIC_WEIGHT>
416.110732

> <PUBCHEM_TOTAL_CHARGE>
0

> <PUBCHEM_HEAVY_ATOM_COUNT>
30

> <PUBCHEM_ATOM_DEF_STEREO_COUNT>
5

> <PUBCHEM_ATOM_UDEF_STEREO_COUNT>
0

> <PUBCHEM_BOND_DEF_STEREO_COUNT>
0

> <PUBCHEM_BOND_UDEF_STEREO_COUNT>
0

> <PUBCHEM_ISOTOPIC_ATOM_COUNT>
0

> <PUBCHEM_COMPONENT_COUNT>
1

> <PUBCHEM_CACTVS_TAUTO_COUNT>
12

> <PUBCHEM_COORDINATE_TYPE>
1
5
255

> <PUBCHEM_BONDANNOTATIONS>
13  15  6
16  17  8
16  21  8
17  18  8
18  24  8
14  2  6
20  22  8
20  26  8
21  25  8
22  27  8
24  25  8
26  29  8
27  28  8
28  29  8
10  3  6
11  4  5
12  5  5

$$$$

