5784
  -OEChem-06261200533D

 15 15  0     0  0  0  0  0  0999 V2000
    1.7399   -2.2185    0.1520 Cl  0  0  0  0  0  0  0  0  0  0  0  0
   -3.3442    1.3821   -0.1379 Cl  0  0  0  0  0  0  0  0  0  0  0  0
    1.9425    1.7222    0.9545 O   0  0  0  0  0  0  0  0  0  0  0  0
    2.6400    0.6581   -0.9290 O   0  0  0  0  0  0  0  0  0  0  0  0
    0.4724    0.1897   -0.0314 C   0  0  0  0  0  0  0  0  0  0  0  0
    0.3508   -1.1961    0.0704 C   0  0  0  0  0  0  0  0  0  0  0  0
   -0.6702    0.9871   -0.0962 C   0  0  0  0  0  0  0  0  0  0  0  0
   -1.9344    0.3988   -0.0591 C   0  0  0  0  0  0  0  0  0  0  0  0
   -0.9133   -1.7845    0.1074 C   0  0  0  0  0  0  0  0  0  0  0  0
   -2.0559   -0.9871    0.0427 C   0  0  0  0  0  0  0  0  0  0  0  0
    1.7724    0.8481   -0.0734 C   0  0  0  0  0  0  0  0  0  0  0  0
   -0.5778    2.0682   -0.1798 H   0  0  0  0  0  0  0  0  0  0  0  0
   -1.0253   -2.8630    0.1865 H   0  0  0  0  0  0  0  0  0  0  0  0
   -3.0346   -1.4593    0.0727 H   0  0  0  0  0  0  0  0  0  0  0  0
    2.8188    2.1619    0.9188 H   0  0  0  0  0  0  0  0  0  0  0  0
  1  6  1  0  0  0  0
  2  8  1  0  0  0  0
  3 11  1  0  0  0  0
  3 15  1  0  0  0  0
  4 11  2  0  0  0  0
  5  6  2  0  0  0  0
  5  7  1  0  0  0  0
  5 11  1  0  0  0  0
  6  9  1  0  0  0  0
  7  8  2  0  0  0  0
  7 12  1  0  0  0  0
  8 10  1  0  0  0  0
  9 10  2  0  0  0  0
  9 13  1  0  0  0  0
 10 14  1  0  0  0  0
M  END
> <PUBCHEM_COMPOUND_CID>
5784

> <PUBCHEM_CONFORMER_RMSD>
0.4

> <PUBCHEM_CONFORMER_DIVERSEORDER>
2
1

> <PUBCHEM_MMFF94_PARTIAL_CHARGES>
15
1 -0.18
10 -0.15
11 0.63
12 0.15
13 0.15
14 0.15
15 0.5
2 -0.18
3 -0.65
4 -0.57
5 0.09
6 0.18
7 -0.15
8 0.18
9 -0.15

> <PUBCHEM_EFFECTIVE_ROTOR_COUNT>
1

> <PUBCHEM_PHARMACOPHORE_FEATURES>
4
1 3 acceptor
1 4 acceptor
3 3 4 11 anion
6 5 6 7 8 9 10 rings

> <PUBCHEM_HEAVY_ATOM_COUNT>
11

> <PUBCHEM_ATOM_DEF_STEREO_COUNT>
0

> <PUBCHEM_ATOM_UDEF_STEREO_COUNT>
0

> <PUBCHEM_BOND_DEF_STEREO_COUNT>
0

> <PUBCHEM_BOND_UDEF_STEREO_COUNT>
0

> <PUBCHEM_ISOTOPIC_ATOM_COUNT>
0

> <PUBCHEM_COMPONENT_COUNT>
1

> <PUBCHEM_CACTVS_TAUTO_COUNT>
1

> <PUBCHEM_CONFORMER_ID>
0000169800000002

> <PUBCHEM_MMFF94_ENERGY>
29.2305

> <PUBCHEM_FEATURE_SELFOVERLAP>
20.355

> <PUBCHEM_SHAPE_FINGERPRINT>
12423570 1 7262304628483097984
13380535 21 18341317964274529971
13380535 76 18412550915854128163
14325111 11 18411980239096240381
15490181 7 18262802835088046014
15775835 57 18411974780166381469
16945 1 18196373619798216563
193761 8 18411420609384952723
20511035 2 18413103991709501503
21040471 1 18340488880666795013
21501502 16 18412266155359402319
23211744 41 17825669950135947644
23552423 10 18272368685012962974
23559900 14 18261666014229369972
2748010 2 18413385453980541431
5084963 1 18044923585142046488
5255222 1 18411983580538592196
528862 383 18200877408166771386
53812653 166 18408322189685721232
7364860 26 18262523705327009282

> <PUBCHEM_SHAPE_MULTIPOLES>
218.38
4
2.21
0.73
1.96
0.6
0.01
-1.32
-0.3
-0.92
0.24
-0.23
-0.16
0.06

> <PUBCHEM_SHAPE_SELFOVERLAP>
442.057

> <PUBCHEM_SHAPE_VOLUME>
129.3

> <PUBCHEM_COORDINATE_TYPE>
2
5
10

$$$$

