5281345
  -OEChem-07051212562D

 48 51  0     1  0  0  0  0  0999 V2000
    6.4552    2.5967    0.0000 O   0  0  0  0  0  0  0  0  0  0  0  0
    2.0000    0.4481    0.0000 O   0  0  0  0  0  0  0  0  0  0  0  0
    6.2862    1.1898    0.0000 N   0  0  3  0  0  0  0  0  0  0  0  0
    2.7390   -1.2334    0.0000 N   0  0  0  0  0  0  0  0  0  0  0  0
    5.2304    1.3720    0.0000 C   0  0  3  0  0  0  0  0  0  0  0  0
    5.6131    0.4481    0.0000 C   0  0  1  0  0  0  0  0  0  0  0  0
    4.3066    1.7547    0.0000 C   0  0  1  0  0  0  0  0  0  0  0  0
    5.2304   -0.4758    0.0000 C   0  0  0  0  0  0  0  0  0  0  0  0
    5.0483    2.4278    0.0000 C   0  0  0  0  0  0  0  0  0  0  0  0
    6.0114    2.1530    0.0000 C   0  0  0  0  0  0  0  0  0  0  0  0
    3.3827    1.3720    0.0000 C   0  0  0  0  0  0  0  0  0  0  0  0
    5.4893    2.3379    0.0000 C   0  0  0  0  0  0  0  0  0  0  0  0
    4.3066   -0.8585    0.0000 C   0  0  0  0  0  0  0  0  0  0  0  0
    3.3827   -0.4758    0.0000 C   0  0  0  0  0  0  0  0  0  0  0  0
    3.0000    0.4481    0.0000 C   0  0  0  0  0  0  0  0  0  0  0  0
    7.2600    0.9623    0.0000 C   0  0  0  0  0  0  0  0  0  0  0  0
    4.2260   -1.8493    0.0000 C   0  0  0  0  0  0  0  0  0  0  0  0
    4.8208    3.4016    0.0000 C   0  0  0  0  0  0  0  0  0  0  0  0
    3.2592   -2.0805    0.0000 C   0  0  0  0  0  0  0  0  0  0  0  0
    3.8637    3.6914    0.0000 C   0  0  0  0  0  0  0  0  0  0  0  0
    4.9496   -2.5899    0.0000 C   0  0  0  0  0  0  0  0  0  0  0  0
    2.9490   -3.0684    0.0000 C   0  0  0  0  0  0  0  0  0  0  0  0
    4.6623   -3.5847    0.0000 C   0  0  0  0  0  0  0  0  0  0  0  0
    3.6553   -3.8256    0.0000 C   0  0  0  0  0  0  0  0  0  0  0  0
    5.8491    1.4125    0.0000 H   0  0  0  0  0  0  0  0  0  0  0  0
    6.3311   -0.0069    0.0000 H   0  0  0  0  0  0  0  0  0  0  0  0
    3.8516    2.4726    0.0000 H   0  0  0  0  0  0  0  0  0  0  0  0
    5.3114   -1.0905    0.0000 H   0  0  0  0  0  0  0  0  0  0  0  0
    5.8451   -0.5567    0.0000 H   0  0  0  0  0  0  0  0  0  0  0  0
    6.6288    2.2103    0.0000 H   0  0  0  0  0  0  0  0  0  0  0  0
    6.0688    2.7703    0.0000 H   0  0  0  0  0  0  0  0  0  0  0  0
    3.3018    1.9867    0.0000 H   0  0  0  0  0  0  0  0  0  0  0  0
    2.7680    1.4529    0.0000 H   0  0  0  0  0  0  0  0  0  0  0  0
    5.4352    2.9556    0.0000 H   0  0  0  0  0  0  0  0  0  0  0  0
    4.8716    2.3919    0.0000 H   0  0  0  0  0  0  0  0  0  0  0  0
    7.1190    0.3586    0.0000 H   0  0  0  0  0  0  0  0  0  0  0  0
    7.8638    0.8213    0.0000 H   0  0  0  0  0  0  0  0  0  0  0  0
    7.4011    1.5660    0.0000 H   0  0  0  0  0  0  0  0  0  0  0  0
    5.2731    3.8256    0.0000 H   0  0  0  0  0  0  0  0  0  0  0  0
    2.1209   -1.1858    0.0000 H   0  0  0  0  0  0  0  0  0  0  0  0
    6.6156    3.1956    0.0000 H   0  0  0  0  0  0  0  0  0  0  0  0
    4.0434    4.2848    0.0000 H   0  0  0  0  0  0  0  0  0  0  0  0
    3.2703    3.8712    0.0000 H   0  0  0  0  0  0  0  0  0  0  0  0
    3.6840    3.0981    0.0000 H   0  0  0  0  0  0  0  0  0  0  0  0
    5.5509   -2.4387    0.0000 H   0  0  0  0  0  0  0  0  0  0  0  0
    2.3444   -3.2056    0.0000 H   0  0  0  0  0  0  0  0  0  0  0  0
    5.0904   -4.0332    0.0000 H   0  0  0  0  0  0  0  0  0  0  0  0
    3.4764   -4.4192    0.0000 H   0  0  0  0  0  0  0  0  0  0  0  0
  1 12  1  0  0  0  0
  1 41  1  0  0  0  0
  2 15  2  0  0  0  0
  3  6  1  0  0  0  0
  3 10  1  0  0  0  0
  3 16  1  0  0  0  0
  4 14  1  0  0  0  0
  4 19  1  0  0  0  0
  4 40  1  0  0  0  0
  5  6  1  0  0  0  0
  5  7  1  0  0  0  0
  5 12  1  0  0  0  0
  5 25  1  0  0  0  0
  6  8  1  0  0  0  0
  6 26  1  1  0  0  0
  7  9  1  0  0  0  0
  7 11  1  0  0  0  0
  7 27  1  1  0  0  0
  8 13  1  0  0  0  0
  8 28  1  0  0  0  0
  8 29  1  0  0  0  0
  9 10  1  0  0  0  0
  9 18  2  0  0  0  0
 10 30  1  0  0  0  0
 10 31  1  0  0  0  0
 11 15  1  0  0  0  0
 11 32  1  0  0  0  0
 11 33  1  0  0  0  0
 12 34  1  0  0  0  0
 12 35  1  0  0  0  0
 13 14  2  0  0  0  0
 13 17  1  0  0  0  0
 14 15  1  0  0  0  0
 16 36  1  0  0  0  0
 16 37  1  0  0  0  0
 16 38  1  0  0  0  0
 17 19  1  0  0  0  0
 17 21  2  0  0  0  0
 18 20  1  0  0  0  0
 18 39  1  0  0  0  0
 19 22  2  0  0  0  0
 20 42  1  0  0  0  0
 20 43  1  0  0  0  0
 20 44  1  0  0  0  0
 21 23  1  0  0  0  0
 21 45  1  0  0  0  0
 22 24  1  0  0  0  0
 22 46  1  0  0  0  0
 23 24  2  0  0  0  0
 23 47  1  0  0  0  0
 24 48  1  0  0  0  0
M  END
> <PUBCHEM_COMPOUND_CID>
5281345

> <PUBCHEM_COMPOUND_CANONICALIZED>
1

> <PUBCHEM_CACTVS_COMPLEXITY>
532

> <PUBCHEM_CACTVS_HBOND_ACCEPTOR>
3

> <PUBCHEM_CACTVS_HBOND_DONOR>
2

> <PUBCHEM_CACTVS_ROTATABLE_BOND>
1

> <PUBCHEM_CACTVS_SUBSKEYS>
AAADceB7MAAAAAAAAAAAAAAAAAAAAWAAAAA8QAAAAAAYAFix8AAAHgAQCAAADSzhngYywPPJkgCoA6RyRACCgCAnAiAImSG4ZNgIMPLAlbGEYQhmkADIyQeY3fKegAAAAAACAAAAAAAAAAQAAAAAAAAAAA==

> <PUBCHEM_IUPAC_INCHI>
InChI=1S/C20H24N2O2/c1-3-12-10-22(2)18-8-15-13-6-4-5-7-17(13)21-20(15)19(24)9-14(12)16(18)11-23/h3-7,14,16,18,21,23H,8-11H2,1-2H3/b12-3-/t14-,16?,18-/m1/s1

> <PUBCHEM_IUPAC_INCHIKEY>
PXFBZOLANLWPMH-SMLHJDAJSA-N

> <PUBCHEM_XLOGP3_AA>
2.1

> <PUBCHEM_EXACT_MASS>
324.183778

> <PUBCHEM_MOLECULAR_FORMULA>
C20H24N2O2

> <PUBCHEM_MOLECULAR_WEIGHT>
324.41676

> <PUBCHEM_OPENEYE_CAN_SMILES>
CC=C1CN(C2CC3=C(C(=O)CC1C2CO)NC4=CC=CC=C34)C

> <PUBCHEM_OPENEYE_ISO_SMILES>
C/C=C\1/CN([C@@H]2CC3=C(C(=O)C[C@H]1C2CO)NC4=CC=CC=C34)C

> <PUBCHEM_CACTVS_TPSA>
56.3

> <PUBCHEM_MONOISOTOPIC_WEIGHT>
324.183778

> <PUBCHEM_TOTAL_CHARGE>
0

> <PUBCHEM_HEAVY_ATOM_COUNT>
24

> <PUBCHEM_ATOM_DEF_STEREO_COUNT>
2

> <PUBCHEM_ATOM_UDEF_STEREO_COUNT>
1

> <PUBCHEM_BOND_DEF_STEREO_COUNT>
1

> <PUBCHEM_BOND_UDEF_STEREO_COUNT>
0

> <PUBCHEM_ISOTOPIC_ATOM_COUNT>
0

> <PUBCHEM_COMPONENT_COUNT>
1

> <PUBCHEM_CACTVS_TAUTO_COUNT>
29

> <PUBCHEM_COORDINATE_TYPE>
1
5
255

> <PUBCHEM_BONDANNOTATIONS>
13  14  8
13  17  8
17  19  8
17  21  8
19  22  8
21  23  8
22  24  8
23  24  8
4  14  8
4  19  8
5  12  3
6  26  5
7  27  5

$$$$

