5281540
  -OEChem-07051212582D

 38 41  0     1  0  0  0  0  0999 V2000
    7.5110    1.0008    0.0000 O   0  0  0  0  0  0  0  0  0  0  0  0
    7.3206   -1.4827    0.0000 O   0  0  0  0  0  0  0  0  0  0  0  0
    5.6648    1.5168    0.0000 O   0  0  0  0  0  0  0  0  0  0  0  0
    3.9609    1.6741    0.0000 O   0  0  0  0  0  0  0  0  0  0  0  0
    2.9327    0.3722    0.0000 O   0  0  0  0  0  0  0  0  0  0  0  0
    8.9025   -2.2908    0.0000 O   0  0  0  0  0  0  0  0  0  0  0  0
    3.5572   -1.2434    0.0000 O   0  0  0  0  0  0  0  0  0  0  0  0
    6.2020    0.0497    0.0000 C   0  0  2  0  0  0  0  0  0  0  0  0
    7.0110   -0.5381    0.0000 C   0  0  1  0  0  0  0  0  0  0  0  0
    5.3992   -0.5367    0.0000 C   0  0  1  0  0  0  0  0  0  0  0  0
    6.5110    1.0008    0.0000 C   0  0  1  0  0  0  0  0  0  0  0  0
    7.8200    0.0497    0.0000 C   0  0  2  0  0  0  0  0  0  0  0  0
    4.6441    0.1052    0.0000 C   0  0  1  0  0  0  0  0  0  0  0  0
    6.7013   -1.4827    0.0000 C   0  0  0  0  0  0  0  0  0  0  0  0
    5.7073   -1.4818    0.0000 C   0  0  0  0  0  0  0  0  0  0  0  0
    4.7712    1.0881    0.0000 C   0  0  2  0  0  0  0  0  0  0  0  0
    8.6227   -0.5367    0.0000 C   0  0  0  0  0  0  0  0  0  0  0  0
    8.3147   -1.4818    0.0000 C   0  0  0  0  0  0  0  0  0  0  0  0
    3.7114   -0.2553    0.0000 C   0  0  0  0  0  0  0  0  0  0  0  0
    9.5743   -0.2293    0.0000 C   0  0  0  0  0  0  0  0  0  0  0  0
    9.7839    0.7485    0.0000 C   0  0  0  0  0  0  0  0  0  0  0  0
    2.0000    0.0117    0.0000 C   0  0  0  0  0  0  0  0  0  0  0  0
    5.9393   -0.7587    0.0000 H   0  0  0  0  0  0  0  0  0  0  0  0
    4.6933   -1.0100    0.0000 H   0  0  0  0  0  0  0  0  0  0  0  0
    6.7408    1.8191    0.0000 H   0  0  0  0  0  0  0  0  0  0  0  0
    8.5083    0.5484    0.0000 H   0  0  0  0  0  0  0  0  0  0  0  0
    4.5405   -0.5061    0.0000 H   0  0  0  0  0  0  0  0  0  0  0  0
    7.0649   -1.9849    0.0000 H   0  0  0  0  0  0  0  0  0  0  0  0
    5.3428   -1.9834    0.0000 H   0  0  0  0  0  0  0  0  0  0  0  0
    4.2021    0.8421    0.0000 H   0  0  0  0  0  0  0  0  0  0  0  0
   10.0343   -0.6450    0.0000 H   0  0  0  0  0  0  0  0  0  0  0  0
    4.0243    2.2908    0.0000 H   0  0  0  0  0  0  0  0  0  0  0  0
   10.3901    0.6185    0.0000 H   0  0  0  0  0  0  0  0  0  0  0  0
    9.9138    1.3547    0.0000 H   0  0  0  0  0  0  0  0  0  0  0  0
    9.1777    0.8784    0.0000 H   0  0  0  0  0  0  0  0  0  0  0  0
    1.7765    0.5900    0.0000 H   0  0  0  0  0  0  0  0  0  0  0  0
    1.4217   -0.2119    0.0000 H   0  0  0  0  0  0  0  0  0  0  0  0
    2.2235   -0.5666    0.0000 H   0  0  0  0  0  0  0  0  0  0  0  0
  1 11  1  0  0  0  0
  1 12  1  0  0  0  0
  9  2  1  1  0  0  0
  2 18  1  0  0  0  0
  3 11  1  0  0  0  0
  3 16  1  0  0  0  0
 16  4  1  1  0  0  0
  4 32  1  0  0  0  0
  5 19  1  0  0  0  0
  5 22  1  0  0  0  0
  6 18  2  0  0  0  0
  7 19  2  0  0  0  0
  8  9  1  0  0  0  0
  8 10  1  0  0  0  0
  8 11  1  0  0  0  0
  8 23  1  1  0  0  0
  9 12  1  0  0  0  0
  9 14  1  0  0  0  0
 10 13  1  0  0  0  0
 10 15  1  0  0  0  0
 10 24  1  1  0  0  0
 11 25  1  1  0  0  0
 12 17  1  0  0  0  0
 12 26  1  6  0  0  0
 13 16  1  0  0  0  0
 13 19  1  6  0  0  0
 13 27  1  0  0  0  0
 14 15  2  0  0  0  0
 14 28  1  0  0  0  0
 15 29  1  0  0  0  0
 16 30  1  0  0  0  0
 17 18  1  0  0  0  0
 17 20  2  0  0  0  0
 20 21  1  0  0  0  0
 20 31  1  0  0  0  0
 21 33  1  0  0  0  0
 21 34  1  0  0  0  0
 21 35  1  0  0  0  0
 22 36  1  0  0  0  0
 22 37  1  0  0  0  0
 22 38  1  0  0  0  0
M  END
> <PUBCHEM_COMPOUND_CID>
5281540

> <PUBCHEM_COMPOUND_CANONICALIZED>
1

> <PUBCHEM_CACTVS_COMPLEXITY>
609

> <PUBCHEM_CACTVS_HBOND_ACCEPTOR>
7

> <PUBCHEM_CACTVS_HBOND_DONOR>
1

> <PUBCHEM_CACTVS_ROTATABLE_BOND>
2

> <PUBCHEM_CACTVS_SUBSKEYS>
AAADceBwOAAAAAAAAAAAAAAAAAAAASJEAAAkAAAAAAASIEgAAAAAGgAACAAADVSwgAMCCAAABgCIAiDSCAAAAAAgAAAICAEAAEgRFBYAIQAiUAAF4AAOIYPK7PzOgAAAAAAAAAAAAAAAAAAAAAAAAAAAAA==

> <PUBCHEM_IUPAC_INCHI>
InChI=1S/C15H16O7/c1-3-6-10-15(22-11(6)16)5-4-7-8(12(17)19-2)13(18)21-14(20-10)9(7)15/h3-5,7-10,13-14,18H,1-2H3/b6-3+/t7-,8-,9-,10+,13+,14+,15+/m1/s1

> <PUBCHEM_IUPAC_INCHIKEY>
UEOKCUGZTJHPBW-AAKUPCIZSA-N

> <PUBCHEM_XLOGP3_AA>
0.5

> <PUBCHEM_EXACT_MASS>
308.089603

> <PUBCHEM_MOLECULAR_FORMULA>
C15H16O7

> <PUBCHEM_MOLECULAR_WEIGHT>
308.28334

> <PUBCHEM_OPENEYE_CAN_SMILES>
CC=C1C2C3(C=CC4C3C(O2)OC(C4C(=O)OC)O)OC1=O

> <PUBCHEM_OPENEYE_ISO_SMILES>
C/C=C/1\[C@H]2[C@@]3(C=C[C@H]4[C@@H]3[C@@H](O2)O[C@@H]([C@H]4C(=O)OC)O)OC1=O

> <PUBCHEM_CACTVS_TPSA>
91.3

> <PUBCHEM_MONOISOTOPIC_WEIGHT>
308.089603

> <PUBCHEM_TOTAL_CHARGE>
0

> <PUBCHEM_HEAVY_ATOM_COUNT>
22

> <PUBCHEM_ATOM_DEF_STEREO_COUNT>
7

> <PUBCHEM_ATOM_UDEF_STEREO_COUNT>
0

> <PUBCHEM_BOND_DEF_STEREO_COUNT>
1

> <PUBCHEM_BOND_UDEF_STEREO_COUNT>
0

> <PUBCHEM_ISOTOPIC_ATOM_COUNT>
0

> <PUBCHEM_COMPONENT_COUNT>
1

> <PUBCHEM_CACTVS_TAUTO_COUNT>
1

> <PUBCHEM_COORDINATE_TYPE>
1
5
255

> <PUBCHEM_BONDANNOTATIONS>
10  24  5
11  25  5
12  26  6
13  19  6
9  2  5
16  4  5
8  23  5

$$$$

