246163
  -OEChem-07051213072D

 60 63  0     1  0  0  0  0  0999 V2000
   10.3820    2.8322    0.0000 O   0  0  0  0  0  0  0  0  0  0  0  0
    7.3810   -2.4923    0.0000 O   0  0  0  0  0  0  0  0  0  0  0  0
    3.7320   -1.4754    0.0000 O   0  0  0  0  0  0  0  0  0  0  0  0
   12.0284    2.2941    0.0000 O   0  0  0  0  0  0  0  0  0  0  0  0
    9.1130   -2.4856    0.0000 O   0  0  0  0  0  0  0  0  0  0  0  0
    2.8718    0.0280    0.0000 O   0  0  0  0  0  0  0  0  0  0  0  0
    9.1251    1.5770    0.0000 C   0  0  1  0  0  0  0  0  0  0  0  0
    9.1251    0.5770    0.0000 C   0  0  2  0  0  0  0  0  0  0  0  0
    8.2591    0.0770    0.0000 C   0  0  1  0  0  0  0  0  0  0  0  0
    7.3931    0.5770    0.0000 C   0  0  2  0  0  0  0  0  0  0  0  0
   10.0713    1.8817    0.0000 C   0  0  2  0  0  0  0  0  0  0  0  0
    8.2591    2.0770    0.0000 C   0  0  0  0  0  0  0  0  0  0  0  0
   10.0713    0.2722    0.0000 C   0  0  0  0  0  0  0  0  0  0  0  0
    7.3931    1.5770    0.0000 C   0  0  0  0  0  0  0  0  0  0  0  0
   10.6550    1.0770    0.0000 C   0  0  0  0  0  0  0  0  0  0  0  0
    8.2752   -0.9646    0.0000 C   0  0  0  0  0  0  0  0  0  0  0  0
    9.1251    2.5770    0.0000 C   0  0  0  0  0  0  0  0  0  0  0  0
    6.4831    0.0701    0.0000 C   0  0  0  0  0  0  0  0  0  0  0  0
    7.3771   -1.4923    0.0000 C   0  0  2  0  0  0  0  0  0  0  0  0
    6.4750   -0.9715    0.0000 C   0  0  0  0  0  0  0  0  0  0  0  0
    5.5562    0.6342    0.0000 C   0  0  0  0  0  0  0  0  0  0  0  0
    5.5396   -1.5212    0.0000 C   0  0  0  0  0  0  0  0  0  0  0  0
   11.3605    3.0384    0.0000 C   0  0  0  0  0  0  0  0  0  0  0  0
    4.6084    0.1062    0.0000 C   0  0  0  0  0  0  0  0  0  0  0  0
    4.6000   -0.9787    0.0000 C   0  0  0  0  0  0  0  0  0  0  0  0
    8.2489   -2.9890    0.0000 C   0  0  0  0  0  0  0  0  0  0  0  0
   11.6712    3.9890    0.0000 C   0  0  0  0  0  0  0  0  0  0  0  0
    8.2528   -3.9890    0.0000 C   0  0  0  0  0  0  0  0  0  0  0  0
    2.8680   -0.9720    0.0000 C   0  0  0  0  0  0  0  0  0  0  0  0
    2.0000   -1.4687    0.0000 C   0  0  0  0  0  0  0  0  0  0  0  0
    9.2151   -0.2683    0.0000 H   0  0  0  0  0  0  0  0  0  0  0  0
    8.9985   -0.3424    0.0000 H   0  0  0  0  0  0  0  0  0  0  0  0
    8.1292    1.0020    0.0000 H   0  0  0  0  0  0  0  0  0  0  0  0
    9.6339    2.3210    0.0000 H   0  0  0  0  0  0  0  0  0  0  0  0
    8.6576    2.5519    0.0000 H   0  0  0  0  0  0  0  0  0  0  0  0
    7.8606    2.5519    0.0000 H   0  0  0  0  0  0  0  0  0  0  0  0
    9.8203   -0.2947    0.0000 H   0  0  0  0  0  0  0  0  0  0  0  0
   10.6087   -0.0370    0.0000 H   0  0  0  0  0  0  0  0  0  0  0  0
    7.1810    2.1596    0.0000 H   0  0  0  0  0  0  0  0  0  0  0  0
    6.7825    1.4693    0.0000 H   0  0  0  0  0  0  0  0  0  0  0  0
   11.1158    0.6622    0.0000 H   0  0  0  0  0  0  0  0  0  0  0  0
   11.1158    1.4917    0.0000 H   0  0  0  0  0  0  0  0  0  0  0  0
    8.4932   -1.5450    0.0000 H   0  0  0  0  0  0  0  0  0  0  0  0
    8.8843   -0.8491    0.0000 H   0  0  0  0  0  0  0  0  0  0  0  0
    9.7451    2.5770    0.0000 H   0  0  0  0  0  0  0  0  0  0  0  0
    9.1251    3.1970    0.0000 H   0  0  0  0  0  0  0  0  0  0  0  0
    8.5051    2.5770    0.0000 H   0  0  0  0  0  0  0  0  0  0  0  0
    7.9158   -1.7992    0.0000 H   0  0  0  0  0  0  0  0  0  0  0  0
    5.5682    1.2541    0.0000 H   0  0  0  0  0  0  0  0  0  0  0  0
    5.5420   -2.1412    0.0000 H   0  0  0  0  0  0  0  0  0  0  0  0
    4.0750    0.4224    0.0000 H   0  0  0  0  0  0  0  0  0  0  0  0
   12.2605    3.7963    0.0000 H   0  0  0  0  0  0  0  0  0  0  0  0
   11.8638    4.5783    0.0000 H   0  0  0  0  0  0  0  0  0  0  0  0
   11.0818    4.1816    0.0000 H   0  0  0  0  0  0  0  0  0  0  0  0
    7.6328   -3.9913    0.0000 H   0  0  0  0  0  0  0  0  0  0  0  0
    8.2552   -4.6089    0.0000 H   0  0  0  0  0  0  0  0  0  0  0  0
    8.8728   -3.9866    0.0000 H   0  0  0  0  0  0  0  0  0  0  0  0
    1.6921   -0.9306    0.0000 H   0  0  0  0  0  0  0  0  0  0  0  0
    1.4619   -1.7766    0.0000 H   0  0  0  0  0  0  0  0  0  0  0  0
    2.3079   -2.0068    0.0000 H   0  0  0  0  0  0  0  0  0  0  0  0
 11  1  1  1  0  0  0
  1 23  1  0  0  0  0
 19  2  1  1  0  0  0
  2 26  1  0  0  0  0
  3 25  1  0  0  0  0
  3 29  1  0  0  0  0
  4 23  2  0  0  0  0
  5 26  2  0  0  0  0
  6 29  2  0  0  0  0
  7  8  1  0  0  0  0
  7 11  1  0  0  0  0
  7 12  1  0  0  0  0
  7 17  1  1  0  0  0
  8  9  1  0  0  0  0
  8 13  1  0  0  0  0
  8 31  1  6  0  0  0
  9 10  1  0  0  0  0
  9 16  1  0  0  0  0
  9 32  1  1  0  0  0
 10 14  1  0  0  0  0
 10 18  1  0  0  0  0
 10 33  1  6  0  0  0
 11 15  1  0  0  0  0
 11 34  1  0  0  0  0
 12 14  1  0  0  0  0
 12 35  1  0  0  0  0
 12 36  1  0  0  0  0
 13 15  1  0  0  0  0
 13 37  1  0  0  0  0
 13 38  1  0  0  0  0
 14 39  1  0  0  0  0
 14 40  1  0  0  0  0
 15 41  1  0  0  0  0
 15 42  1  0  0  0  0
 16 19  1  0  0  0  0
 16 43  1  0  0  0  0
 16 44  1  0  0  0  0
 17 45  1  0  0  0  0
 17 46  1  0  0  0  0
 17 47  1  0  0  0  0
 18 20  2  0  0  0  0
 18 21  1  0  0  0  0
 19 20  1  0  0  0  0
 19 48  1  0  0  0  0
 20 22  1  0  0  0  0
 21 24  2  0  0  0  0
 21 49  1  0  0  0  0
 22 25  2  0  0  0  0
 22 50  1  0  0  0  0
 23 27  1  0  0  0  0
 24 25  1  0  0  0  0
 24 51  1  0  0  0  0
 26 28  1  0  0  0  0
 27 52  1  0  0  0  0
 27 53  1  0  0  0  0
 27 54  1  0  0  0  0
 28 55  1  0  0  0  0
 28 56  1  0  0  0  0
 28 57  1  0  0  0  0
 29 30  1  0  0  0  0
 30 58  1  0  0  0  0
 30 59  1  0  0  0  0
 30 60  1  0  0  0  0
M  END
> <PUBCHEM_COMPOUND_CID>
246163

> <PUBCHEM_COMPOUND_CANONICALIZED>
1

> <PUBCHEM_CACTVS_COMPLEXITY>
704

> <PUBCHEM_CACTVS_HBOND_ACCEPTOR>
6

> <PUBCHEM_CACTVS_HBOND_DONOR>
0

> <PUBCHEM_CACTVS_ROTATABLE_BOND>
6

> <PUBCHEM_CACTVS_SUBSKEYS>
AAADceB4OAAAAAAAAAAAAAAAAAAAAYAAAAAwYMAAAAAAAGDBAAAAGgAAAAAADxSgmAIyDoAABACIAiDSCAACCAAgIAAIiAAGCIgMJiKEMRqCOiCkwBEIqAfAwPAPoAABAAAQAADAAAYAADAAAIAADAAAAA==

> <PUBCHEM_IUPAC_OPENEYE_NAME>
[(6R,8R,9S,13S,14S,17S)-3,6-diacetoxy-13-methyl-6,7,8,9,11,12,14,15,16,17-decahydrocyclopenta[a]phenanthren-17-yl] acetate

> <PUBCHEM_IUPAC_CAS_NAME>
acetic acid [(6R,8R,9S,13S,14S,17S)-3,6-diacetyloxy-13-methyl-6,7,8,9,11,12,14,15,16,17-decahydrocyclopenta[a]phenanthren-17-yl] ester

> <PUBCHEM_IUPAC_NAME>
[(6R,8R,9S,13S,14S,17S)-3,6-diacetyloxy-13-methyl-6,7,8,9,11,12,14,15,16,17-decahydrocyclopenta[a]phenanthren-17-yl] acetate

> <PUBCHEM_IUPAC_SYSTEMATIC_NAME>
[(6R,8R,9S,13S,14S,17S)-3,6-diacetyloxy-13-methyl-6,7,8,9,11,12,14,15,16,17-decahydrocyclopenta[a]phenanthren-17-yl] ethanoate

> <PUBCHEM_IUPAC_TRADITIONAL_NAME>
acetic acid [(6R,8R,9S,13S,14S,17S)-3,6-diacetoxy-13-methyl-6,7,8,9,11,12,14,15,16,17-decahydrocyclopenta[a]phenanthren-17-yl] ester

> <PUBCHEM_IUPAC_INCHI>
InChI=1S/C24H30O6/c1-13(25)28-16-5-6-17-18-9-10-24(4)21(7-8-23(24)30-15(3)27)19(18)12-22(20(17)11-16)29-14(2)26/h5-6,11,18-19,21-23H,7-10,12H2,1-4H3/t18-,19-,21+,22-,23+,24+/m1/s1

> <PUBCHEM_IUPAC_INCHIKEY>
LMXGPAGGDXVARU-LSLXWZMWSA-N

> <PUBCHEM_XLOGP3_AA>
3.9

> <PUBCHEM_EXACT_MASS>
414.204239

> <PUBCHEM_MOLECULAR_FORMULA>
C24H30O6

> <PUBCHEM_MOLECULAR_WEIGHT>
414.4914

> <PUBCHEM_OPENEYE_CAN_SMILES>
CC(=O)OC1CCC2C1(CCC3C2CC(C4=C3C=CC(=C4)OC(=O)C)OC(=O)C)C

> <PUBCHEM_OPENEYE_ISO_SMILES>
CC(=O)O[C@H]1CC[C@@H]2[C@@]1(CC[C@H]3[C@H]2C[C@H](C4=C3C=CC(=C4)OC(=O)C)OC(=O)C)C

> <PUBCHEM_CACTVS_TPSA>
78.9

> <PUBCHEM_MONOISOTOPIC_WEIGHT>
414.204239

> <PUBCHEM_TOTAL_CHARGE>
0

> <PUBCHEM_HEAVY_ATOM_COUNT>
30

> <PUBCHEM_ATOM_DEF_STEREO_COUNT>
6

> <PUBCHEM_ATOM_UDEF_STEREO_COUNT>
0

> <PUBCHEM_BOND_DEF_STEREO_COUNT>
0

> <PUBCHEM_BOND_UDEF_STEREO_COUNT>
0

> <PUBCHEM_ISOTOPIC_ATOM_COUNT>
0

> <PUBCHEM_COMPONENT_COUNT>
1

> <PUBCHEM_CACTVS_TAUTO_COUNT>
1

> <PUBCHEM_COORDINATE_TYPE>
1
5
255

> <PUBCHEM_BONDANNOTATIONS>
11  1  5
10  33  6
18  20  8
18  21  8
19  2  5
20  22  8
21  24  8
22  25  8
24  25  8
7  17  5
8  31  6
9  32  5

$$$$

