124062
  -OEChem-07051212593D

 29 31  0     0  0  0  0  0  0999 V2000
    2.0392    2.4955   -0.0008 O   0  0  0  0  0  0  0  0  0  0  0  0
   -0.5281    2.5604    0.0024 O   0  0  0  0  0  0  0  0  0  0  0  0
    4.1138   -1.7912   -0.0014 O   0  0  0  0  0  0  0  0  0  0  0  0
   -0.8186   -2.7758    0.0004 O   0  0  0  0  0  0  0  0  0  0  0  0
    0.6541    0.5125    0.0006 C   0  0  0  0  0  0  0  0  0  0  0  0
    0.5706   -0.8815    0.0006 C   0  0  0  0  0  0  0  0  0  0  0  0
   -1.8874    0.6648   -0.0002 C   0  0  0  0  0  0  0  0  0  0  0  0
   -1.9710   -0.7291    0.0004 C   0  0  0  0  0  0  0  0  0  0  0  0
   -0.5718    1.3366    0.0005 C   0  0  0  0  0  0  0  0  0  0  0  0
   -0.7450   -1.5531    0.0012 C   0  0  0  0  0  0  0  0  0  0  0  0
    1.9072    1.1368    0.0004 C   0  0  0  0  0  0  0  0  0  0  0  0
    3.0702    0.3661    0.0003 C   0  0  0  0  0  0  0  0  0  0  0  0
    1.7401   -1.6510    0.0003 C   0  0  0  0  0  0  0  0  0  0  0  0
    2.9868   -1.0248    0.0001 C   0  0  0  0  0  0  0  0  0  0  0  0
   -3.0570    1.4344   -0.0010 C   0  0  0  0  0  0  0  0  0  0  0  0
   -3.2241   -1.3536    0.0002 C   0  0  0  0  0  0  0  0  0  0  0  0
    4.4118    1.0280   -0.0014 C   0  0  0  0  0  0  0  0  0  0  0  0
   -4.3038    0.8080   -0.0016 C   0  0  0  0  0  0  0  0  0  0  0  0
   -4.3871   -0.5829   -0.0009 C   0  0  0  0  0  0  0  0  0  0  0  0
    1.6866   -2.7370    0.0000 H   0  0  0  0  0  0  0  0  0  0  0  0
   -3.0210    2.5204   -0.0015 H   0  0  0  0  0  0  0  0  0  0  0  0
   -3.3160   -2.4364    0.0007 H   0  0  0  0  0  0  0  0  0  0  0  0
    5.2397    0.3150    0.0639 H   0  0  0  0  0  0  0  0  0  0  0  0
    4.5575    1.5959   -0.9267 H   0  0  0  0  0  0  0  0  0  0  0  0
    4.5140    1.6951    0.8617 H   0  0  0  0  0  0  0  0  0  0  0  0
   -5.2107    1.4057   -0.0024 H   0  0  0  0  0  0  0  0  0  0  0  0
   -5.3589   -1.0681   -0.0012 H   0  0  0  0  0  0  0  0  0  0  0  0
    2.9576    2.7781   -0.1219 H   0  0  0  0  0  0  0  0  0  0  0  0
    3.8609   -2.7303   -0.0016 H   0  0  0  0  0  0  0  0  0  0  0  0
  1 11  1  0  0  0  0
  1 28  1  0  0  0  0
  2  9  2  0  0  0  0
  3 14  1  0  0  0  0
  3 29  1  0  0  0  0
  4 10  2  0  0  0  0
  5  6  1  0  0  0  0
  5  9  1  0  0  0  0
  5 11  2  0  0  0  0
  6 10  1  0  0  0  0
  6 13  2  0  0  0  0
  7  8  1  0  0  0  0
  7  9  1  0  0  0  0
  7 15  2  0  0  0  0
  8 10  1  0  0  0  0
  8 16  2  0  0  0  0
 11 12  1  0  0  0  0
 12 14  2  0  0  0  0
 12 17  1  0  0  0  0
 13 14  1  0  0  0  0
 13 20  1  0  0  0  0
 15 18  1  0  0  0  0
 15 21  1  0  0  0  0
 16 19  1  0  0  0  0
 16 22  1  0  0  0  0
 17 23  1  0  0  0  0
 17 24  1  0  0  0  0
 17 25  1  0  0  0  0
 18 19  2  0  0  0  0
 18 26  1  0  0  0  0
 19 27  1  0  0  0  0
M  END
> <PUBCHEM_COMPOUND_CID>
124062

> <PUBCHEM_CONFORMER_RMSD>
0.4

> <PUBCHEM_CONFORMER_DIVERSEORDER>
1

> <PUBCHEM_MMFF94_PARTIAL_CHARGES>
26
1 -0.53
10 0.4
11 0.08
12 -0.14
13 -0.15
14 0.08
15 -0.15
16 -0.15
17 0.14
18 -0.15
19 -0.15
2 -0.57
20 0.15
21 0.15
22 0.15
26 0.15
27 0.15
28 0.45
29 0.45
3 -0.53
4 -0.57
5 0.09
6 0.09
7 0.09
8 0.09
9 0.4

> <PUBCHEM_EFFECTIVE_ROTOR_COUNT>
0

> <PUBCHEM_PHARMACOPHORE_FEATURES>
7
1 1 donor
1 2 acceptor
1 3 donor
1 4 acceptor
6 5 6 11 12 13 14 rings
6 5 6 7 8 9 10 rings
6 7 8 15 16 18 19 rings

> <PUBCHEM_HEAVY_ATOM_COUNT>
19

> <PUBCHEM_ATOM_DEF_STEREO_COUNT>
0

> <PUBCHEM_ATOM_UDEF_STEREO_COUNT>
0

> <PUBCHEM_BOND_DEF_STEREO_COUNT>
0

> <PUBCHEM_BOND_UDEF_STEREO_COUNT>
0

> <PUBCHEM_ISOTOPIC_ATOM_COUNT>
0

> <PUBCHEM_COMPONENT_COUNT>
1

> <PUBCHEM_CACTVS_TAUTO_COUNT>
12

> <PUBCHEM_CONFORMER_ID>
0001E49E00000001

> <PUBCHEM_MMFF94_ENERGY>
60.7064

> <PUBCHEM_FEATURE_SELFOVERLAP>
35.562

> <PUBCHEM_SHAPE_FINGERPRINT>
10062212 137 18335428980117708407
10411042 1 16825307226494380231
10608611 8 18411421691621434445
10616163 171 18265330603725236774
10967382 1 18410855438669149572
11132069 177 18409173220306962625
11471102 20 18410859866775183126
12011746 2 18409727370094005708
12403259 226 18411987987264884037
13140716 1 18410287047393117241
13221675 6 18411420604820557298
13380535 76 18409729538762631806
13862211 1 18338804510584528010
14178342 30 17904780881333299650
14790565 3 18338506529901033132
15196674 1 18410574002368282567
15230672 131 13370502226029790043
15442244 35 18410293652889326834
15536298 74 18335139799726698762
16945 1 18122626050634209509
17804303 29 18410569625775502582
18186145 218 18410011074058489997
193761 8 17834395622953459207
19591789 44 18411418397503143075
200 152 18113625573441136845
20510252 161 18261392281939308577
21029758 11 18334581218019047489
21267235 1 18410846685568427083
21501502 16 18410012100371070310
221490 88 18341324496571751155
2334 1 18410573955461187461
23402539 116 18334022678543183399
23463225 33 18411699889501045109
23559900 14 18335423491397144578
2748010 2 18411418410456103615
335352 9 18266741470374562207
34934 24 18337677412676728218
350125 39 18339357599393277484
474 4 17345467090406731772
5104073 3 18410574006626327571
537710 114 18410569574331100341
69090 78 18408608045687335751
7364860 26 18335421227712223672
7832392 63 18264491693691121454
8809292 202 18343578568544539771
9709674 26 18410288069200201182
9981440 41 17620759379985240624

> <PUBCHEM_SHAPE_MULTIPOLES>
367.53
7.69
2.52
0.6
0.22
0.01
0
0.09
0.01
-0.48
0
0.03
0
0

> <PUBCHEM_SHAPE_SELFOVERLAP>
833.431

> <PUBCHEM_SHAPE_VOLUME>
191.4

> <PUBCHEM_COORDINATE_TYPE>
2
5
10

$$$$

