193537
  -OEChem-07051212482D

 29 29  0     1  0  0  0  0  0999 V2000
    5.8031    1.0495    0.0000 P   0  0  0  0  0  0  0  0  0  0  0  0
    5.0298   -0.2427    0.0000 O   0  0  0  0  0  0  0  0  0  0  0  0
    4.8086    1.1541    0.0000 O   0  0  0  0  0  0  0  0  0  0  0  0
    2.4608    0.0663    0.0000 O   0  0  0  0  0  0  0  0  0  0  0  0
    3.1330   -2.0028    0.0000 O   0  0  0  0  0  0  0  0  0  0  0  0
    4.0398    2.0676    0.0000 O   0  0  0  0  0  0  0  0  0  0  0  0
    6.3031   -1.8983    0.0000 O   0  0  0  0  0  0  0  0  0  0  0  0
    6.7976    0.9450    0.0000 O   0  0  0  0  0  0  0  0  0  0  0  0
    5.9077    2.0441    0.0000 O   0  0  0  0  0  0  0  0  0  0  0  0
    5.6986    0.0550    0.0000 O   0  0  0  0  0  0  0  0  0  0  0  0
    4.2208    0.3451    0.0000 C   0  0  1  0  0  0  0  0  0  0  0  0
    3.4118   -0.2427    0.0000 C   0  0  2  0  0  0  0  0  0  0  0  0
    3.7208   -1.1938    0.0000 C   0  0  1  0  0  0  0  0  0  0  0  0
    4.7208   -1.1938    0.0000 C   0  0  1  0  0  0  0  0  0  0  0  0
    3.6330    1.1541    0.0000 C   0  0  0  0  0  0  0  0  0  0  0  0
    5.3086   -2.0028    0.0000 C   0  0  0  0  0  0  0  0  0  0  0  0
    3.3148    0.3696    0.0000 H   0  0  0  0  0  0  0  0  0  0  0  0
    3.1085   -1.0968    0.0000 H   0  0  0  0  0  0  0  0  0  0  0  0
    5.3332   -1.0968    0.0000 H   0  0  0  0  0  0  0  0  0  0  0  0
    3.1190    1.5008    0.0000 H   0  0  0  0  0  0  0  0  0  0  0  0
    3.2024    0.7081    0.0000 H   0  0  0  0  0  0  0  0  0  0  0  0
    4.7514   -2.2746    0.0000 H   0  0  0  0  0  0  0  0  0  0  0  0
    5.4795   -2.5988    0.0000 H   0  0  0  0  0  0  0  0  0  0  0  0
    2.0000   -0.3486    0.0000 H   0  0  0  0  0  0  0  0  0  0  0  0
    3.3852   -2.5692    0.0000 H   0  0  0  0  0  0  0  0  0  0  0  0
    3.6754    2.5692    0.0000 H   0  0  0  0  0  0  0  0  0  0  0  0
    6.6676   -2.3999    0.0000 H   0  0  0  0  0  0  0  0  0  0  0  0
    7.1621    1.4466    0.0000 H   0  0  0  0  0  0  0  0  0  0  0  0
    6.4741    2.2962    0.0000 H   0  0  0  0  0  0  0  0  0  0  0  0
  1  3  1  0  0  0  0
  1  8  1  0  0  0  0
  1  9  1  0  0  0  0
  1 10  2  0  0  0  0
  2 11  1  0  0  0  0
  2 14  1  0  0  0  0
 11  3  1  6  0  0  0
 12  4  1  6  0  0  0
  4 24  1  0  0  0  0
 13  5  1  1  0  0  0
  5 25  1  0  0  0  0
  6 15  1  0  0  0  0
  6 26  1  0  0  0  0
  7 16  1  0  0  0  0
  7 27  1  0  0  0  0
  8 28  1  0  0  0  0
  9 29  1  0  0  0  0
 11 12  1  0  0  0  0
 11 15  1  0  0  0  0
 12 13  1  0  0  0  0
 12 17  1  0  0  0  0
 13 14  1  0  0  0  0
 13 18  1  0  0  0  0
 14 16  1  6  0  0  0
 14 19  1  0  0  0  0
 15 20  1  0  0  0  0
 15 21  1  0  0  0  0
 16 22  1  0  0  0  0
 16 23  1  0  0  0  0
M  END
> <PUBCHEM_COMPOUND_CID>
193537

> <PUBCHEM_COMPOUND_CANONICALIZED>
1

> <PUBCHEM_CACTVS_COMPLEXITY>
290

> <PUBCHEM_CACTVS_HBOND_ACCEPTOR>
9

> <PUBCHEM_CACTVS_HBOND_DONOR>
6

> <PUBCHEM_CACTVS_ROTATABLE_BOND>
4

> <PUBCHEM_CACTVS_SUBSKEYS>
AAADccBgPAIAAAAAAAAAAAAAAAAAASAAAAAAAAAAAAAAAAAAAAAAGgAACCAACBSggAIACAAABxAAQAAAAIAAAAAAAAAAAAAAAAAREAIAAAACQAAFAAAHAAHAYAQAAAAAAAAAAAAAAAAAAAAAAAAAAAAAAA==

> <PUBCHEM_IUPAC_OPENEYE_NAME>
[(2S,3S,4S,5R)-3,4-dihydroxy-2,5-bis(hydroxymethyl)tetrahydrofuran-2-yl] dihydrogen phosphate

> <PUBCHEM_IUPAC_CAS_NAME>
[(2S,3S,4S,5R)-3,4-dihydroxy-2,5-bis(hydroxymethyl)-2-oxolanyl] dihydrogen phosphate

> <PUBCHEM_IUPAC_NAME>
[(2S,3S,4S,5R)-3,4-dihydroxy-2,5-bis(hydroxymethyl)oxolan-2-yl] dihydrogen phosphate

> <PUBCHEM_IUPAC_SYSTEMATIC_NAME>
[(2S,3S,4S,5R)-2,5-bis(hydroxymethyl)-3,4-bis(oxidanyl)oxolan-2-yl] dihydrogen phosphate

> <PUBCHEM_IUPAC_TRADITIONAL_NAME>
[(2S,3S,4S,5R)-3,4-dihydroxy-2,5-dimethylol-tetrahydrofuran-2-yl] dihydrogen phosphate

> <PUBCHEM_IUPAC_INCHI>
InChI=1S/C6H13O9P/c7-1-3-4(9)5(10)6(2-8,14-3)15-16(11,12)13/h3-5,7-10H,1-2H2,(H2,11,12,13)/t3-,4-,5+,6+/m1/s1

> <PUBCHEM_IUPAC_INCHIKEY>
PMTUDJVZIGZBIX-ZXXMMSQZSA-N

> <PUBCHEM_XLOGP3_AA>
-3.4

> <PUBCHEM_EXACT_MASS>
260.029719

> <PUBCHEM_MOLECULAR_FORMULA>
C6H13O9P

> <PUBCHEM_MOLECULAR_WEIGHT>
260.135782

> <PUBCHEM_OPENEYE_CAN_SMILES>
C(C1C(C(C(O1)(CO)OP(=O)(O)O)O)O)O

> <PUBCHEM_OPENEYE_ISO_SMILES>
C([C@@H]1[C@H]([C@@H]([C@](O1)(CO)OP(=O)(O)O)O)O)O

> <PUBCHEM_CACTVS_TPSA>
157

> <PUBCHEM_MONOISOTOPIC_WEIGHT>
260.029719

> <PUBCHEM_TOTAL_CHARGE>
0

> <PUBCHEM_HEAVY_ATOM_COUNT>
16

> <PUBCHEM_ATOM_DEF_STEREO_COUNT>
4

> <PUBCHEM_ATOM_UDEF_STEREO_COUNT>
0

> <PUBCHEM_BOND_DEF_STEREO_COUNT>
0

> <PUBCHEM_BOND_UDEF_STEREO_COUNT>
0

> <PUBCHEM_ISOTOPIC_ATOM_COUNT>
0

> <PUBCHEM_COMPONENT_COUNT>
1

> <PUBCHEM_CACTVS_TAUTO_COUNT>
1

> <PUBCHEM_COORDINATE_TYPE>
1
5
255

> <PUBCHEM_BONDANNOTATIONS>
14  16  6
11  3  6
12  4  6
13  5  5

$$$$

