6602431
  -OEChem-07051212442D

 21 20  0     1  0  0  0  0  0999 V2000
    5.1350   -1.2500    0.0000 O   0  0  0  0  0  0  0  0  0  0  0  0
    4.2690    1.2500    0.0000 O   0  0  0  0  0  0  0  0  0  0  0  0
    6.0010    1.2500    0.0000 O   0  0  0  0  0  0  0  0  0  0  0  0
    2.5369    0.2500    0.0000 O   0  0  0  0  0  0  0  0  0  0  0  0
    7.7331    0.2500    0.0000 O   0  0  0  0  0  0  0  0  0  0  0  0
    6.8671   -1.2500    0.0000 O   0  0  0  0  0  0  0  0  0  0  0  0
    5.1350   -0.2500    0.0000 C   0  0  1  0  0  0  0  0  0  0  0  0
    4.2690    0.2500    0.0000 C   0  0  1  0  0  0  0  0  0  0  0  0
    6.0010    0.2500    0.0000 C   0  0  2  0  0  0  0  0  0  0  0  0
    3.4030   -0.2500    0.0000 C   0  0  0  0  0  0  0  0  0  0  0  0
    6.8671   -0.2500    0.0000 C   0  0  0  0  0  0  0  0  0  0  0  0
    5.6720   -0.5600    0.0000 H   0  0  0  0  0  0  0  0  0  0  0  0
    4.8059    0.5600    0.0000 H   0  0  0  0  0  0  0  0  0  0  0  0
    6.5380    0.5600    0.0000 H   0  0  0  0  0  0  0  0  0  0  0  0
    3.0044   -0.7249    0.0000 H   0  0  0  0  0  0  0  0  0  0  0  0
    3.8015   -0.7249    0.0000 H   0  0  0  0  0  0  0  0  0  0  0  0
    4.5981   -1.5600    0.0000 H   0  0  0  0  0  0  0  0  0  0  0  0
    3.7320    1.5600    0.0000 H   0  0  0  0  0  0  0  0  0  0  0  0
    6.5380    1.5600    0.0000 H   0  0  0  0  0  0  0  0  0  0  0  0
    2.0000   -0.0600    0.0000 H   0  0  0  0  0  0  0  0  0  0  0  0
    8.2700   -0.0600    0.0000 H   0  0  0  0  0  0  0  0  0  0  0  0
  7  1  1  1  0  0  0
  1 17  1  0  0  0  0
  8  2  1  1  0  0  0
  2 18  1  0  0  0  0
  9  3  1  1  0  0  0
  3 19  1  0  0  0  0
  4 10  1  0  0  0  0
  4 20  1  0  0  0  0
  5 11  1  0  0  0  0
  5 21  1  0  0  0  0
  6 11  2  0  0  0  0
  7  8  1  0  0  0  0
  7  9  1  0  0  0  0
  7 12  1  0  0  0  0
  8 10  1  0  0  0  0
  8 13  1  0  0  0  0
  9 11  1  0  0  0  0
  9 14  1  0  0  0  0
 10 15  1  0  0  0  0
 10 16  1  0  0  0  0
M  END
> <PUBCHEM_COMPOUND_CID>
6602431

> <PUBCHEM_COMPOUND_CANONICALIZED>
1

> <PUBCHEM_CACTVS_COMPLEXITY>
135

> <PUBCHEM_CACTVS_HBOND_ACCEPTOR>
6

> <PUBCHEM_CACTVS_HBOND_DONOR>
5

> <PUBCHEM_CACTVS_ROTATABLE_BOND>
4

> <PUBCHEM_CACTVS_SUBSKEYS>
AAADccBgOAAAAAAAAAAAAAAAAAAAAAAAAAAAAAAAAAAAAAAAAAAAGgAACAAACBSggAIACAAAAgAIAACQCAIAAAAAAAAAAAFAAAABEBYAAAAAQAAFIAABAADKJAAAAAAAAAAAAAAAAAAAAAAAAAAAAAAAAA==

> <PUBCHEM_IUPAC_OPENEYE_NAME>
(2R,3S,4R)-2,3,4,5-tetrahydroxypentanoic acid

> <PUBCHEM_IUPAC_CAS_NAME>
(2R,3S,4R)-2,3,4,5-tetrahydroxypentanoic acid

> <PUBCHEM_IUPAC_NAME>
(2R,3S,4R)-2,3,4,5-tetrahydroxypentanoic acid

> <PUBCHEM_IUPAC_SYSTEMATIC_NAME>
(2R,3S,4R)-2,3,4,5-tetrakis(oxidanyl)pentanoic acid

> <PUBCHEM_IUPAC_TRADITIONAL_NAME>
(2R,3S,4R)-2,3,4,5-tetrahydroxyvaleric acid

> <PUBCHEM_IUPAC_INCHI>
InChI=1S/C5H10O6/c6-1-2(7)3(8)4(9)5(10)11/h2-4,6-9H,1H2,(H,10,11)/t2-,3+,4-/m1/s1

> <PUBCHEM_IUPAC_INCHIKEY>
QXKAIJAYHKCRRA-FLRLBIABSA-N

> <PUBCHEM_XLOGP3_AA>
-2.7

> <PUBCHEM_EXACT_MASS>
166.047738

> <PUBCHEM_MOLECULAR_FORMULA>
C5H10O6

> <PUBCHEM_MOLECULAR_WEIGHT>
166.1293

> <PUBCHEM_OPENEYE_CAN_SMILES>
C(C(C(C(C(=O)O)O)O)O)O

> <PUBCHEM_OPENEYE_ISO_SMILES>
C([C@H]([C@@H]([C@H](C(=O)O)O)O)O)O

> <PUBCHEM_CACTVS_TPSA>
118

> <PUBCHEM_MONOISOTOPIC_WEIGHT>
166.047738

> <PUBCHEM_TOTAL_CHARGE>
0

> <PUBCHEM_HEAVY_ATOM_COUNT>
11

> <PUBCHEM_ATOM_DEF_STEREO_COUNT>
3

> <PUBCHEM_ATOM_UDEF_STEREO_COUNT>
0

> <PUBCHEM_BOND_DEF_STEREO_COUNT>
0

> <PUBCHEM_BOND_UDEF_STEREO_COUNT>
0

> <PUBCHEM_ISOTOPIC_ATOM_COUNT>
0

> <PUBCHEM_COMPONENT_COUNT>
1

> <PUBCHEM_CACTVS_TAUTO_COUNT>
1

> <PUBCHEM_COORDINATE_TYPE>
1
5
255

> <PUBCHEM_BONDANNOTATIONS>
7  1  5
8  2  5
9  3  5

$$$$

