13702
  -OEChem-06241222403D

 26 27  0     0  0  0  0  0  0999 V2000
    4.9036   -1.9518    0.0222 Cl  0  0  0  0  0  0  0  0  0  0  0  0
    0.1092   -0.2474   -0.0334 O   0  0  0  0  0  0  0  0  0  0  0  0
   -2.1930    0.3493   -0.0158 C   0  0  0  0  0  0  0  0  0  0  0  0
   -0.7899    0.8546   -0.0422 C   0  0  0  0  0  0  0  0  0  0  0  0
    1.4470    0.0476   -0.0171 C   0  0  0  0  0  0  0  0  0  0  0  0
   -2.8642    0.0915   -1.2112 C   0  0  0  0  0  0  0  0  0  0  0  0
   -2.8342    0.1348    1.2042 C   0  0  0  0  0  0  0  0  0  0  0  0
    2.3798   -0.9833   -0.0070 C   0  0  0  0  0  0  0  0  0  0  0  0
    1.8584    1.3757   -0.0101 C   0  0  0  0  0  0  0  0  0  0  0  0
   -4.1765   -0.3806   -1.1865 C   0  0  0  0  0  0  0  0  0  0  0  0
   -4.1465   -0.3375    1.2289 C   0  0  0  0  0  0  0  0  0  0  0  0
   -4.8175   -0.5951    0.0335 C   0  0  0  0  0  0  0  0  0  0  0  0
    3.7416   -0.6823    0.0101 C   0  0  0  0  0  0  0  0  0  0  0  0
    3.2203    1.6768    0.0072 C   0  0  0  0  0  0  0  0  0  0  0  0
    4.1619    0.6477    0.0172 C   0  0  0  0  0  0  0  0  0  0  0  0
   -0.6522    1.4616   -0.9471 H   0  0  0  0  0  0  0  0  0  0  0  0
   -0.6403    1.4903    0.8408 H   0  0  0  0  0  0  0  0  0  0  0  0
   -2.3752    0.2522   -2.1684 H   0  0  0  0  0  0  0  0  0  0  0  0
   -2.3219    0.3291    2.1428 H   0  0  0  0  0  0  0  0  0  0  0  0
    2.0419   -2.0167   -0.0126 H   0  0  0  0  0  0  0  0  0  0  0  0
    1.1865    2.2263   -0.0209 H   0  0  0  0  0  0  0  0  0  0  0  0
   -4.6989   -0.5819   -2.1171 H   0  0  0  0  0  0  0  0  0  0  0  0
   -4.6456   -0.5053    2.1788 H   0  0  0  0  0  0  0  0  0  0  0  0
   -5.8392   -0.9631    0.0528 H   0  0  0  0  0  0  0  0  0  0  0  0
    3.5487    2.7122    0.0118 H   0  0  0  0  0  0  0  0  0  0  0  0
    5.2198    0.8972    0.0303 H   0  0  0  0  0  0  0  0  0  0  0  0
  1 13  1  0  0  0  0
  2  4  1  0  0  0  0
  2  5  1  0  0  0  0
  3  4  1  0  0  0  0
  3  6  2  0  0  0  0
  3  7  1  0  0  0  0
  4 16  1  0  0  0  0
  4 17  1  0  0  0  0
  5  8  2  0  0  0  0
  5  9  1  0  0  0  0
  6 10  1  0  0  0  0
  6 18  1  0  0  0  0
  7 11  2  0  0  0  0
  7 19  1  0  0  0  0
  8 13  1  0  0  0  0
  8 20  1  0  0  0  0
  9 14  2  0  0  0  0
  9 21  1  0  0  0  0
 10 12  2  0  0  0  0
 10 22  1  0  0  0  0
 11 12  1  0  0  0  0
 11 23  1  0  0  0  0
 12 24  1  0  0  0  0
 13 15  2  0  0  0  0
 14 15  1  0  0  0  0
 14 25  1  0  0  0  0
 15 26  1  0  0  0  0
M  END
> <PUBCHEM_COMPOUND_CID>
13702

> <PUBCHEM_CONFORMER_RMSD>
0.6

> <PUBCHEM_CONFORMER_DIVERSEORDER>
1
25
16
4
22
26
24
15
2
21
3
13
17
11
20
5
18
12
7
19
9
23
10
14
6
8
29
30
27
28

> <PUBCHEM_MMFF94_PARTIAL_CHARGES>
24
1 -0.18
10 -0.15
11 -0.15
12 -0.15
13 0.18
14 -0.15
15 -0.15
18 0.15
19 0.15
2 -0.36
20 0.15
21 0.15
22 0.15
23 0.15
24 0.15
25 0.15
26 0.15
3 -0.14
4 0.42
5 0.08
6 -0.15
7 -0.15
8 -0.15
9 -0.15

> <PUBCHEM_EFFECTIVE_ROTOR_COUNT>
3

> <PUBCHEM_PHARMACOPHORE_FEATURES>
3
1 2 acceptor
6 3 6 7 10 11 12 rings
6 5 8 9 13 14 15 rings

> <PUBCHEM_HEAVY_ATOM_COUNT>
15

> <PUBCHEM_ATOM_DEF_STEREO_COUNT>
0

> <PUBCHEM_ATOM_UDEF_STEREO_COUNT>
0

> <PUBCHEM_BOND_DEF_STEREO_COUNT>
0

> <PUBCHEM_BOND_UDEF_STEREO_COUNT>
0

> <PUBCHEM_ISOTOPIC_ATOM_COUNT>
0

> <PUBCHEM_COMPONENT_COUNT>
1

> <PUBCHEM_CACTVS_TAUTO_COUNT>
1

> <PUBCHEM_CONFORMER_ID>
0000358600000001

> <PUBCHEM_MMFF94_ENERGY>
45.0538

> <PUBCHEM_FEATURE_SELFOVERLAP>
15.223

> <PUBCHEM_SHAPE_FINGERPRINT>
10014705 185 7997964657415075257
10680689 15 16343697746998418801
10912923 1 17603302622506060577
11471102 20 18412545397195530268
11615757 297 18333731308030459273
12032990 46 18272930548645340644
12236239 1 17749106681859091921
12916754 54 18408606946412877013
13167823 11 18187083948997273799
13296908 3 17846499222971992461
13760787 5 18334295361716622645
13862211 1 18339645667878211954
13955234 65 18409732816703588728
14252887 29 18413392034128862904
14350574 20 18273208712139053518
14386348 63 17775001276110207467
14455015 7 18272644670984409819
15242439 84 17704075113833767295
15375462 189 17967252000665163065
15961568 22 15913040946837447604
17870717 6 16917344861957847147
18186145 218 17632578266367955233
19050596 39 17530963587867056019
1986462 14 16702304559524427461
200 152 18334861619174578945
20279233 1 17632578236329337089
20281475 54 18041285391492028319
20325693 3 15697995262957821163
20645477 70 18342461456467851670
21065201 7 16630251354658382521
22646028 1 18040719168662660071
22646028 28 18040718064935238367
2297311 6 16558742438888012239
23402539 116 18113339738492579785
23557571 272 17131840862673869389
23559900 14 17346883355561039104
23590187 198 17676488384278329910
23596394 208 17632304513848022298
26918003 58 18342175557505768025
2871803 45 18060422442939353410
312423 11 18337658802436124852
3268164 11 15913059685822008935
34797466 226 16486957489047246926
42 15 17240201057900915062
474 4 17753061496615473392
5104073 3 18409731806806110264
5281201 14 17988924478892866564
573450 72 17167581600763054043

> <PUBCHEM_SHAPE_MULTIPOLES>
304.69
11.33
1.44
1.01
1.06
0.05
0.01
3.68
0.11
-2.31
0
1.38
0.06
-0.02

> <PUBCHEM_SHAPE_SELFOVERLAP>
641.637

> <PUBCHEM_SHAPE_VOLUME>
171.9

> <PUBCHEM_COORDINATE_TYPE>
2
5
10

$$$$

