92769
  -OEChem-07051212552D

 38 40  0     1  0  0  0  0  0999 V2000
    6.6353   -0.2086    0.0000 O   0  0  0  0  0  0  0  0  0  0  0  0
    4.9889    0.3295    0.0000 O   0  0  0  0  0  0  0  0  0  0  0  0
    7.5673    2.6430    0.0000 O   0  0  0  0  0  0  0  0  0  0  0  0
    8.9030    1.1544    0.0000 O   0  0  0  0  0  0  0  0  0  0  0  0
    5.6103    2.2305    0.0000 O   0  0  0  0  0  0  0  0  0  0  0  0
    9.2601   -0.5405    0.0000 O   0  0  0  0  0  0  0  0  0  0  0  0
    4.6783   -2.2305    0.0000 N   0  0  0  0  0  0  0  0  0  0  0  0
    7.2566    1.6924    0.0000 C   0  0  1  0  0  0  0  0  0  0  0  0
    7.9244    0.9481    0.0000 C   0  0  1  0  0  0  0  0  0  0  0  0
    6.2781    1.4862    0.0000 C   0  0  2  0  0  0  0  0  0  0  0  0
    7.6138   -0.0024    0.0000 C   0  0  1  0  0  0  0  0  0  0  0  0
    5.9674    0.5357    0.0000 C   0  0  3  0  0  0  0  0  0  0  0  0
    8.2816   -0.7467    0.0000 C   0  0  0  0  0  0  0  0  0  0  0  0
    4.6783   -0.6210    0.0000 C   0  0  0  0  0  0  0  0  0  0  0  0
    3.7320   -0.9258    0.0000 C   0  0  0  0  0  0  0  0  0  0  0  0
    3.7320   -1.9258    0.0000 C   0  0  0  0  0  0  0  0  0  0  0  0
    5.2619   -1.4258    0.0000 C   0  0  0  0  0  0  0  0  0  0  0  0
    2.8660   -0.4258    0.0000 C   0  0  0  0  0  0  0  0  0  0  0  0
    2.8660   -2.4258    0.0000 C   0  0  0  0  0  0  0  0  0  0  0  0
    2.0000   -0.9258    0.0000 C   0  0  0  0  0  0  0  0  0  0  0  0
    2.0000   -1.9258    0.0000 C   0  0  0  0  0  0  0  0  0  0  0  0
    6.8425    2.1539    0.0000 H   0  0  0  0  0  0  0  0  0  0  0  0
    8.3385    0.4867    0.0000 H   0  0  0  0  0  0  0  0  0  0  0  0
    5.6714    1.3584    0.0000 H   0  0  0  0  0  0  0  0  0  0  0  0
    7.4212   -0.5917    0.0000 H   0  0  0  0  0  0  0  0  0  0  0  0
    5.7748   -0.0536    0.0000 H   0  0  0  0  0  0  0  0  0  0  0  0
    7.7553   -1.0743    0.0000 H   0  0  0  0  0  0  0  0  0  0  0  0
    8.5129   -1.3220    0.0000 H   0  0  0  0  0  0  0  0  0  0  0  0
    8.1739    2.7708    0.0000 H   0  0  0  0  0  0  0  0  0  0  0  0
    9.0956    1.7437    0.0000 H   0  0  0  0  0  0  0  0  0  0  0  0
    5.8029    2.8198    0.0000 H   0  0  0  0  0  0  0  0  0  0  0  0
    5.8819   -1.4258    0.0000 H   0  0  0  0  0  0  0  0  0  0  0  0
    9.6742   -1.0019    0.0000 H   0  0  0  0  0  0  0  0  0  0  0  0
    4.8709   -2.8198    0.0000 H   0  0  0  0  0  0  0  0  0  0  0  0
    2.8660    0.1942    0.0000 H   0  0  0  0  0  0  0  0  0  0  0  0
    2.8660   -3.0458    0.0000 H   0  0  0  0  0  0  0  0  0  0  0  0
    1.4631   -0.6158    0.0000 H   0  0  0  0  0  0  0  0  0  0  0  0
    1.4631   -2.2358    0.0000 H   0  0  0  0  0  0  0  0  0  0  0  0
  1 11  1  0  0  0  0
  1 12  1  0  0  0  0
  2 12  1  0  0  0  0
  2 14  1  0  0  0  0
  8  3  1  1  0  0  0
  3 29  1  0  0  0  0
  9  4  1  6  0  0  0
  4 30  1  0  0  0  0
 10  5  1  6  0  0  0
  5 31  1  0  0  0  0
  6 13  1  0  0  0  0
  6 33  1  0  0  0  0
  7 16  1  0  0  0  0
  7 17  1  0  0  0  0
  7 34  1  0  0  0  0
  8  9  1  0  0  0  0
  8 10  1  0  0  0  0
  8 22  1  0  0  0  0
  9 11  1  0  0  0  0
  9 23  1  0  0  0  0
 10 12  1  0  0  0  0
 10 24  1  0  0  0  0
 11 13  1  1  0  0  0
 11 25  1  0  0  0  0
 12 26  1  0  0  0  0
 13 27  1  0  0  0  0
 13 28  1  0  0  0  0
 14 15  1  0  0  0  0
 14 17  2  0  0  0  0
 15 16  1  0  0  0  0
 15 18  2  0  0  0  0
 16 19  2  0  0  0  0
 17 32  1  0  0  0  0
 18 20  1  0  0  0  0
 18 35  1  0  0  0  0
 19 21  1  0  0  0  0
 19 36  1  0  0  0  0
 20 21  2  0  0  0  0
 20 37  1  0  0  0  0
 21 38  1  0  0  0  0
M  END
> <PUBCHEM_COMPOUND_CID>
92769

> <PUBCHEM_COMPOUND_CANONICALIZED>
1

> <PUBCHEM_CACTVS_COMPLEXITY>
356

> <PUBCHEM_CACTVS_HBOND_ACCEPTOR>
6

> <PUBCHEM_CACTVS_HBOND_DONOR>
5

> <PUBCHEM_CACTVS_ROTATABLE_BOND>
3

> <PUBCHEM_CACTVS_SUBSKEYS>
AAADceByOAAAAAAAAAAAAAAAAAAAAWAAAAA0QAAAAAAAAFgB8AAAHgAQCAAADBzxngc8zvLJlgCgAzRnRASCiCAxYiAI2aA/bJgfNuLEsZuneCjn0Bnf6AfQ4KwOAAAAAAACAAAAAAAAAAQAAAAAAAAAAA==

> <PUBCHEM_IUPAC_OPENEYE_NAME>
(2R,3S,4S,5R)-2-(hydroxymethyl)-6-(1H-indol-3-yloxy)tetrahydropyran-3,4,5-triol

> <PUBCHEM_IUPAC_CAS_NAME>
(2R,3S,4S,5R)-2-(hydroxymethyl)-6-(1H-indol-3-yloxy)oxane-3,4,5-triol

> <PUBCHEM_IUPAC_NAME>
(2R,3S,4S,5R)-2-(hydroxymethyl)-6-(1H-indol-3-yloxy)oxane-3,4,5-triol

> <PUBCHEM_IUPAC_SYSTEMATIC_NAME>
(2R,3S,4S,5R)-2-(hydroxymethyl)-6-(1H-indol-3-yloxy)oxane-3,4,5-triol

> <PUBCHEM_IUPAC_TRADITIONAL_NAME>
(3R,4S,5S,6R)-2-(1H-indol-3-yloxy)-6-methylol-tetrahydropyran-3,4,5-triol

> <PUBCHEM_IUPAC_INCHI>
InChI=1S/C14H17NO6/c16-6-10-11(17)12(18)13(19)14(21-10)20-9-5-15-8-4-2-1-3-7(8)9/h1-5,10-19H,6H2/t10-,11-,12+,13-,14?/m1/s1

> <PUBCHEM_IUPAC_INCHIKEY>
XVARCVCWNFACQC-RQICVUQASA-N

> <PUBCHEM_XLOGP3_AA>
-0.1

> <PUBCHEM_EXACT_MASS>
295.105587

> <PUBCHEM_MOLECULAR_FORMULA>
C14H17NO6

> <PUBCHEM_MOLECULAR_WEIGHT>
295.28788

> <PUBCHEM_OPENEYE_CAN_SMILES>
C1=CC=C2C(=C1)C(=CN2)OC3C(C(C(C(O3)CO)O)O)O

> <PUBCHEM_OPENEYE_ISO_SMILES>
C1=CC=C2C(=C1)C(=CN2)OC3[C@@H]([C@H]([C@@H]([C@H](O3)CO)O)O)O

> <PUBCHEM_CACTVS_TPSA>
115

> <PUBCHEM_MONOISOTOPIC_WEIGHT>
295.105587

> <PUBCHEM_TOTAL_CHARGE>
0

> <PUBCHEM_HEAVY_ATOM_COUNT>
21

> <PUBCHEM_ATOM_DEF_STEREO_COUNT>
4

> <PUBCHEM_ATOM_UDEF_STEREO_COUNT>
1

> <PUBCHEM_BOND_DEF_STEREO_COUNT>
0

> <PUBCHEM_BOND_UDEF_STEREO_COUNT>
0

> <PUBCHEM_ISOTOPIC_ATOM_COUNT>
0

> <PUBCHEM_COMPONENT_COUNT>
1

> <PUBCHEM_CACTVS_TAUTO_COUNT>
1

> <PUBCHEM_COORDINATE_TYPE>
1
5
255

> <PUBCHEM_BONDANNOTATIONS>
11  13  5
14  15  8
14  17  8
15  16  8
15  18  8
16  19  8
18  20  8
19  21  8
12  2  3
20  21  8
8  3  5
9  4  6
10  5  6
7  16  8
7  17  8

$$$$

