443631
  -OEChem-07051213023D

 18 18  0     0  0  0  0  0  0999 V2000
    2.8060    1.3959    0.0942 O   0  0  0  0  0  0  0  0  0  0  0  0
   -2.8139   -1.5643    0.1299 O   0  0  0  0  0  0  0  0  0  0  0  0
    2.6530   -1.8060   -0.6812 O   0  0  0  0  0  0  0  0  0  0  0  0
    2.2246   -1.3382    0.3834 N   0  0  0  0  0  0  0  0  0  0  0  0
   -3.5068    0.5993   -0.1821 N   0  0  0  0  0  0  0  0  0  0  0  0
   -1.1342    0.0827    0.0170 C   0  0  0  0  0  0  0  0  0  0  0  0
   -0.1041   -0.8425    0.1870 C   0  0  0  0  0  0  0  0  0  0  0  0
    1.2224   -0.4121    0.2144 C   0  0  0  0  0  0  0  0  0  0  0  0
   -0.8375    1.4381   -0.1254 C   0  0  0  0  0  0  0  0  0  0  0  0
    1.5190    0.9433    0.0718 C   0  0  0  0  0  0  0  0  0  0  0  0
    0.4891    1.8685   -0.0980 C   0  0  0  0  0  0  0  0  0  0  0  0
   -2.5177   -0.3648   -0.0109 C   0  0  0  0  0  0  0  0  0  0  0  0
   -0.3299   -1.9015    0.2989 H   0  0  0  0  0  0  0  0  0  0  0  0
   -1.5845    2.2110   -0.2601 H   0  0  0  0  0  0  0  0  0  0  0  0
    0.7057    2.9277   -0.2100 H   0  0  0  0  0  0  0  0  0  0  0  0
   -3.3555    1.5928   -0.2991 H   0  0  0  0  0  0  0  0  0  0  0  0
   -4.4809    0.3133   -0.1980 H   0  0  0  0  0  0  0  0  0  0  0  0
    2.8069    2.3617   -0.0198 H   0  0  0  0  0  0  0  0  0  0  0  0
  1 10  1  0  0  0  0
  1 18  1  0  0  0  0
  2 12  2  0  0  0  0
  3  4  2  0  0  0  0
  4  8  1  0  0  0  0
  5 12  1  0  0  0  0
  5 16  1  0  0  0  0
  5 17  1  0  0  0  0
  6  7  2  0  0  0  0
  6  9  1  0  0  0  0
  6 12  1  0  0  0  0
  7  8  1  0  0  0  0
  7 13  1  0  0  0  0
  8 10  2  0  0  0  0
  9 11  2  0  0  0  0
  9 14  1  0  0  0  0
 10 11  1  0  0  0  0
 11 15  1  0  0  0  0
M  END
> <PUBCHEM_COMPOUND_CID>
443631

> <PUBCHEM_CONFORMER_RMSD>
0.6

> <PUBCHEM_CONFORMER_DIVERSEORDER>
1
2

> <PUBCHEM_MMFF94_PARTIAL_CHARGES>
18
1 -0.53
10 0.08
11 -0.15
12 0.54
13 0.15
14 0.15
15 0.15
16 0.37
17 0.37
18 0.45
2 -0.57
3 -0.16
4 -0.14
5 -0.8
6 0.09
7 -0.15
8 0.3
9 -0.15

> <PUBCHEM_EFFECTIVE_ROTOR_COUNT>
2

> <PUBCHEM_PHARMACOPHORE_FEATURES>
4
1 1 donor
1 2 acceptor
1 5 donor
6 6 7 8 9 10 11 rings

> <PUBCHEM_HEAVY_ATOM_COUNT>
12

> <PUBCHEM_ATOM_DEF_STEREO_COUNT>
0

> <PUBCHEM_ATOM_UDEF_STEREO_COUNT>
0

> <PUBCHEM_BOND_DEF_STEREO_COUNT>
0

> <PUBCHEM_BOND_UDEF_STEREO_COUNT>
0

> <PUBCHEM_ISOTOPIC_ATOM_COUNT>
0

> <PUBCHEM_COMPONENT_COUNT>
1

> <PUBCHEM_CACTVS_TAUTO_COUNT>
11

> <PUBCHEM_CONFORMER_ID>
0006C4EF00000001

> <PUBCHEM_MMFF94_ENERGY>
35.3469

> <PUBCHEM_FEATURE_SELFOVERLAP>
20.297

> <PUBCHEM_SHAPE_FINGERPRINT>
11206711 2 18055352693407537813
12932764 1 17489314122040946059
13380535 76 18197502818271558762
14128692 85 18338791325118812230
14325111 11 18411983525015130185
161256 15 18411701019272765748
16945 1 18265896843723593073
17990270 104 18340488872187740731
193761 8 18267024045090247240
20201158 50 18270686363645037067
20645477 70 18409737253172917583
20871998 22 18263641925948410182
21040471 1 17547571474729027416
21501502 16 18337105777962162112
23402655 69 18337689559350877989
23552423 10 18272931630634084427
23559900 14 17759808435688432166
241688 4 18269273637222008480
2748010 2 18412550928617580933
528886 8 18339368465596901737
7364860 26 18333450928581664888

> <PUBCHEM_SHAPE_MULTIPOLES>
219.38
4.49
1.94
0.63
1.81
0.05
0.01
-1.03
0.22
-0.84
0.12
-0.1
-0.05
0.25

> <PUBCHEM_SHAPE_SELFOVERLAP>
465.903

> <PUBCHEM_SHAPE_VOLUME>
122.4

> <PUBCHEM_COORDINATE_TYPE>
2
5
10

$$$$

