252376
  -OEChem-07051213073D

 51 54  0     1  0  0  0  0  0999 V2000
   -4.9044   -0.7633    1.0542 O   0  0  0  0  0  0  0  0  0  0  0  0
    6.0032   -0.0037    0.1551 O   0  0  0  0  0  0  0  0  0  0  0  0
   -2.5343   -0.3321    0.5295 C   0  0  1  0  0  0  0  0  0  0  0  0
   -1.8754    0.8422   -0.2285 C   0  0  2  0  0  0  0  0  0  0  0  0
   -0.3770    0.9606    0.0606 C   0  0  1  0  0  0  0  0  0  0  0  0
   -4.0294   -0.1203    0.1332 C   0  0  2  0  0  0  0  0  0  0  0  0
    0.3307   -0.3499   -0.3979 C   0  0  2  0  0  0  0  0  0  0  0  0
   -1.8643   -1.6362    0.0626 C   0  0  0  0  0  0  0  0  0  0  0  0
   -2.7811    2.0284    0.0945 C   0  0  0  0  0  0  0  0  0  0  0  0
   -4.1924    1.4210    0.2318 C   0  0  0  0  0  0  0  0  0  0  0  0
   -0.3335   -1.5987    0.2400 C   0  0  0  0  0  0  0  0  0  0  0  0
    0.2654    2.1493   -0.6586 C   0  0  0  0  0  0  0  0  0  0  0  0
   -2.3892   -0.2356    2.0774 C   0  0  0  0  0  0  0  0  0  0  0  0
    1.8432   -0.2566   -0.2127 C   0  0  0  0  0  0  0  0  0  0  0  0
    1.7174    2.3001   -0.2151 C   0  0  0  0  0  0  0  0  0  0  0  0
   -4.3945   -0.6046   -1.2435 C   0  0  0  0  0  0  0  0  0  0  0  0
    2.4843    1.0010   -0.1711 C   0  0  0  0  0  0  0  0  0  0  0  0
    2.6439   -1.4120   -0.1695 C   0  0  0  0  0  0  0  0  0  0  0  0
    3.8820    1.0708   -0.0348 C   0  0  0  0  0  0  0  0  0  0  0  0
   -4.9064   -1.8131   -1.5003 C   0  0  0  0  0  0  0  0  0  0  0  0
    4.0323   -1.3282   -0.0433 C   0  0  0  0  0  0  0  0  0  0  0  0
    4.6513   -0.0872    0.0289 C   0  0  0  0  0  0  0  0  0  0  0  0
    6.7284   -1.2318    0.2076 C   0  0  0  0  0  0  0  0  0  0  0  0
   -1.9694    0.6672   -1.3119 H   0  0  0  0  0  0  0  0  0  0  0  0
   -0.2210    1.1065    1.1371 H   0  0  0  0  0  0  0  0  0  0  0  0
    0.1836   -0.4437   -1.4851 H   0  0  0  0  0  0  0  0  0  0  0  0
   -2.0567   -1.8129   -1.0020 H   0  0  0  0  0  0  0  0  0  0  0  0
   -2.2772   -2.4976    0.6013 H   0  0  0  0  0  0  0  0  0  0  0  0
   -2.7531    2.7856   -0.6961 H   0  0  0  0  0  0  0  0  0  0  0  0
   -2.4860    2.5172    1.0298 H   0  0  0  0  0  0  0  0  0  0  0  0
   -4.6324    1.7170    1.1921 H   0  0  0  0  0  0  0  0  0  0  0  0
   -4.8576    1.8189   -0.5440 H   0  0  0  0  0  0  0  0  0  0  0  0
   -0.0743   -1.6574    1.3038 H   0  0  0  0  0  0  0  0  0  0  0  0
    0.0619   -2.5128   -0.2180 H   0  0  0  0  0  0  0  0  0  0  0  0
   -0.2684    3.0812   -0.4419 H   0  0  0  0  0  0  0  0  0  0  0  0
    0.2200    2.0007   -1.7453 H   0  0  0  0  0  0  0  0  0  0  0  0
   -2.8601   -1.0991    2.5619 H   0  0  0  0  0  0  0  0  0  0  0  0
   -1.3481   -0.2222    2.4091 H   0  0  0  0  0  0  0  0  0  0  0  0
   -2.8615    0.6619    2.4889 H   0  0  0  0  0  0  0  0  0  0  0  0
    1.7397    2.7374    0.7915 H   0  0  0  0  0  0  0  0  0  0  0  0
    2.2180    3.0044   -0.8905 H   0  0  0  0  0  0  0  0  0  0  0  0
   -4.1892    0.0472   -2.0896 H   0  0  0  0  0  0  0  0  0  0  0  0
   -5.8028   -0.4192    0.9095 H   0  0  0  0  0  0  0  0  0  0  0  0
    2.2046   -2.4025   -0.2410 H   0  0  0  0  0  0  0  0  0  0  0  0
    4.3722    2.0408    0.0193 H   0  0  0  0  0  0  0  0  0  0  0  0
   -5.1249   -2.1044   -2.5224 H   0  0  0  0  0  0  0  0  0  0  0  0
   -5.1091   -2.5383   -0.7206 H   0  0  0  0  0  0  0  0  0  0  0  0
    4.5661   -2.2721   -0.0122 H   0  0  0  0  0  0  0  0  0  0  0  0
    6.6245   -1.8000   -0.7230 H   0  0  0  0  0  0  0  0  0  0  0  0
    6.4543   -1.8234    1.0877 H   0  0  0  0  0  0  0  0  0  0  0  0
    7.7883   -0.9772    0.3105 H   0  0  0  0  0  0  0  0  0  0  0  0
  1  6  1  0  0  0  0
  1 43  1  0  0  0  0
  2 22  1  0  0  0  0
  2 23  1  0  0  0  0
  3  4  1  0  0  0  0
  3  6  1  0  0  0  0
  3  8  1  0  0  0  0
  3 13  1  0  0  0  0
  4  5  1  0  0  0  0
  4  9  1  0  0  0  0
  4 24  1  0  0  0  0
  5  7  1  0  0  0  0
  5 12  1  0  0  0  0
  5 25  1  0  0  0  0
  6 10  1  0  0  0  0
  6 16  1  0  0  0  0
  7 11  1  0  0  0  0
  7 14  1  0  0  0  0
  7 26  1  0  0  0  0
  8 11  1  0  0  0  0
  8 27  1  0  0  0  0
  8 28  1  0  0  0  0
  9 10  1  0  0  0  0
  9 29  1  0  0  0  0
  9 30  1  0  0  0  0
 10 31  1  0  0  0  0
 10 32  1  0  0  0  0
 11 33  1  0  0  0  0
 11 34  1  0  0  0  0
 12 15  1  0  0  0  0
 12 35  1  0  0  0  0
 12 36  1  0  0  0  0
 13 37  1  0  0  0  0
 13 38  1  0  0  0  0
 13 39  1  0  0  0  0
 14 17  2  0  0  0  0
 14 18  1  0  0  0  0
 15 17  1  0  0  0  0
 15 40  1  0  0  0  0
 15 41  1  0  0  0  0
 16 20  2  0  0  0  0
 16 42  1  0  0  0  0
 17 19  1  0  0  0  0
 18 21  2  0  0  0  0
 18 44  1  0  0  0  0
 19 22  2  0  0  0  0
 19 45  1  0  0  0  0
 20 46  1  0  0  0  0
 20 47  1  0  0  0  0
 21 22  1  0  0  0  0
 21 48  1  0  0  0  0
 23 49  1  0  0  0  0
 23 50  1  0  0  0  0
 23 51  1  0  0  0  0
M  END
> <PUBCHEM_COMPOUND_CID>
252376

> <PUBCHEM_CONFORMER_RMSD>
0.6

> <PUBCHEM_CONFORMER_DIVERSEORDER>
1
2

> <PUBCHEM_MMFF94_PARTIAL_CHARGES>
21
1 -0.68
14 -0.14
15 0.14
16 -0.29
17 -0.14
18 -0.15
19 -0.15
2 -0.36
20 -0.3
21 -0.15
22 0.08
23 0.28
42 0.15
43 0.4
44 0.15
45 0.15
46 0.15
47 0.15
48 0.15
6 0.42
7 0.14

> <PUBCHEM_EFFECTIVE_ROTOR_COUNT>
3.4

> <PUBCHEM_PHARMACOPHORE_FEATURES>
8
1 1 acceptor
1 1 donor
1 2 acceptor
1 20 hydrophobe
5 3 4 6 9 10 rings
6 14 17 18 19 21 22 rings
6 3 4 5 7 8 11 rings
6 5 7 12 14 15 17 rings

> <PUBCHEM_HEAVY_ATOM_COUNT>
23

> <PUBCHEM_ATOM_DEF_STEREO_COUNT>
5

> <PUBCHEM_ATOM_UDEF_STEREO_COUNT>
0

> <PUBCHEM_BOND_DEF_STEREO_COUNT>
0

> <PUBCHEM_BOND_UDEF_STEREO_COUNT>
0

> <PUBCHEM_ISOTOPIC_ATOM_COUNT>
0

> <PUBCHEM_COMPONENT_COUNT>
1

> <PUBCHEM_CACTVS_TAUTO_COUNT>
1

> <PUBCHEM_CONFORMER_ID>
0003D9D800000001

> <PUBCHEM_MMFF94_ENERGY>
92.8141

> <PUBCHEM_FEATURE_SELFOVERLAP>
40.688

> <PUBCHEM_SHAPE_FINGERPRINT>
10 15 18341620287893115928
10062212 137 18408041827770016001
10366900 7 17918277558368112656
10906281 52 18268972289948252406
11315181 36 17988921167641658452
11578080 2 17605017878527595505
12011746 2 18273501177651997869
12107183 9 17688307210932585794
12166972 35 18186803543715450536
12236239 1 17894631444237356566
12403259 226 18335427807592000425
12403260 363 18335703806179135245
12516196 113 18260550018058169240
12555020 224 18272095959232839447
12596602 18 17240486888375325954
12616971 3 18261946367412345013
12760667 363 18271248339290086066
128620 24 4967614974863674736
13140716 1 18195517104609032187
13288520 33 18409166623158191581
13583140 156 17131837534316749307
13862211 1 18411423916825970030
14790565 3 17693366747471041340
15196674 1 18411698798737802348
15788980 27 18411698789920871588
15880784 105 17967816029014123784
16945 1 18268415850748760701
17349148 13 18333731295113765935
17357779 13 17917162636392644733
17492 89 18053099527852878539
17857418 61 18408047298914818502
1813 80 17203606004405105620
18222031 100 18411992342799318640
18927931 339 18410285905011314439
19489759 90 17561366201024322311
200 152 18260550017319353025
20028762 73 18113904818792667342
21033648 29 17703525310907472077
21130935 74 18040720299057470442
21236236 1 18339926012391995245
21267235 1 18340759403925410690
21682296 61 18190734431366890830
21709351 56 18342462551315325549
23402539 116 18335988631077018373
23522609 53 18194088937784381460
23559900 14 18266748990905066929
23622692 118 18188500081714549005
26918003 58 17704068499916460482
3004659 81 18060134367436568348
3286 77 17603872152412988385
335352 9 18413107281585768357
350125 39 18411976962168465069
351380 180 18411419509598498625
4015057 19 18271527485687718353
4214541 1 18410855485929925896
4340502 62 15140959556991750862
5104073 3 18411133645223604920
542803 24 16081367462334143146
9709674 26 18409721872330521519

> <PUBCHEM_SHAPE_MULTIPOLES>
461.59
12.43
2.16
1.06
11.15
0.61
0.23
-4.39
-0.34
-0.38
-0.34
-1.42
-0.25
-0.7

> <PUBCHEM_SHAPE_SELFOVERLAP>
997.957

> <PUBCHEM_SHAPE_VOLUME>
253.2

> <PUBCHEM_COORDINATE_TYPE>
2
5
10

$$$$

