246876
  -OEChem-07051213053D

 41 44  0     1  0  0  0  0  0999 V2000
   -4.6618   -1.4155   -0.2910 O   0  0  0  0  0  0  0  0  0  0  0  0
   -5.1841    1.3444   -0.2489 O   0  0  0  0  0  0  0  0  0  0  0  0
    6.1176    0.0589    0.3180 O   0  0  0  0  0  0  0  0  0  0  0  0
   -1.7770    0.5225   -0.2649 C   0  0  1  0  0  0  0  0  0  0  0  0
   -0.3027    0.6844    0.1081 C   0  0  1  0  0  0  0  0  0  0  0  0
   -2.3575   -0.7940    0.3165 C   0  0  2  0  0  0  0  0  0  0  0  0
    0.4981   -0.4964   -0.5245 C   0  0  2  0  0  0  0  0  0  0  0  0
   -1.6334   -1.9625   -0.3411 C   0  0  0  0  0  0  0  0  0  0  0  0
   -0.1101   -1.8700   -0.1297 C   0  0  0  0  0  0  0  0  0  0  0  0
   -2.7727    1.6309    0.1023 C   0  0  0  0  0  0  0  0  0  0  0  0
    0.2913    2.0060   -0.3819 C   0  0  0  0  0  0  0  0  0  0  0  0
   -3.8002   -0.5907   -0.0772 C   0  0  0  0  0  0  0  0  0  0  0  0
    1.9951   -0.3533   -0.2626 C   0  0  0  0  0  0  0  0  0  0  0  0
   -2.3293   -0.9111    1.8513 C   0  0  0  0  0  0  0  0  0  0  0  0
    1.7163    2.1588    0.1421 C   0  0  0  0  0  0  0  0  0  0  0  0
   -4.0681    0.8899   -0.1130 C   0  0  0  0  0  0  0  0  0  0  0  0
    2.5578    0.9133    0.0079 C   0  0  0  0  0  0  0  0  0  0  0  0
    2.8614   -1.4558   -0.3713 C   0  0  0  0  0  0  0  0  0  0  0  0
    3.9437    1.0349    0.2125 C   0  0  0  0  0  0  0  0  0  0  0  0
    4.2373   -1.3194   -0.1746 C   0  0  0  0  0  0  0  0  0  0  0  0
    4.7784   -0.0753    0.1221 C   0  0  0  0  0  0  0  0  0  0  0  0
   -1.8174    0.4539   -1.3669 H   0  0  0  0  0  0  0  0  0  0  0  0
   -0.1969    0.6588    1.2004 H   0  0  0  0  0  0  0  0  0  0  0  0
    0.3941   -0.4183   -1.6181 H   0  0  0  0  0  0  0  0  0  0  0  0
   -1.8456   -1.9791   -1.4183 H   0  0  0  0  0  0  0  0  0  0  0  0
   -2.0023   -2.9180    0.0515 H   0  0  0  0  0  0  0  0  0  0  0  0
    0.1315   -2.0916    0.9172 H   0  0  0  0  0  0  0  0  0  0  0  0
    0.3454   -2.6705   -0.7241 H   0  0  0  0  0  0  0  0  0  0  0  0
   -2.7022    2.4839   -0.5766 H   0  0  0  0  0  0  0  0  0  0  0  0
   -2.6878    1.9503    1.1436 H   0  0  0  0  0  0  0  0  0  0  0  0
   -0.3029    2.8605   -0.0394 H   0  0  0  0  0  0  0  0  0  0  0  0
    0.2908    2.0353   -1.4791 H   0  0  0  0  0  0  0  0  0  0  0  0
   -2.8544   -0.0842    2.3417 H   0  0  0  0  0  0  0  0  0  0  0  0
   -2.8322   -1.8320    2.1706 H   0  0  0  0  0  0  0  0  0  0  0  0
   -1.3142   -0.9386    2.2561 H   0  0  0  0  0  0  0  0  0  0  0  0
    1.6786    2.4255    1.2062 H   0  0  0  0  0  0  0  0  0  0  0  0
    2.1962    2.9903   -0.3881 H   0  0  0  0  0  0  0  0  0  0  0  0
    2.4855   -2.4439   -0.6188 H   0  0  0  0  0  0  0  0  0  0  0  0
    4.3662    2.0110    0.4424 H   0  0  0  0  0  0  0  0  0  0  0  0
    4.8797   -2.1919   -0.2591 H   0  0  0  0  0  0  0  0  0  0  0  0
    6.3166    0.9909    0.5124 H   0  0  0  0  0  0  0  0  0  0  0  0
  1 12  2  0  0  0  0
  2 16  2  0  0  0  0
  3 21  1  0  0  0  0
  3 41  1  0  0  0  0
  4  5  1  0  0  0  0
  4  6  1  0  0  0  0
  4 10  1  0  0  0  0
  4 22  1  0  0  0  0
  5  7  1  0  0  0  0
  5 11  1  0  0  0  0
  5 23  1  0  0  0  0
  6  8  1  0  0  0  0
  6 12  1  0  0  0  0
  6 14  1  0  0  0  0
  7  9  1  0  0  0  0
  7 13  1  0  0  0  0
  7 24  1  0  0  0  0
  8  9  1  0  0  0  0
  8 25  1  0  0  0  0
  8 26  1  0  0  0  0
  9 27  1  0  0  0  0
  9 28  1  0  0  0  0
 10 16  1  0  0  0  0
 10 29  1  0  0  0  0
 10 30  1  0  0  0  0
 11 15  1  0  0  0  0
 11 31  1  0  0  0  0
 11 32  1  0  0  0  0
 12 16  1  0  0  0  0
 13 17  2  0  0  0  0
 13 18  1  0  0  0  0
 14 33  1  0  0  0  0
 14 34  1  0  0  0  0
 14 35  1  0  0  0  0
 15 17  1  0  0  0  0
 15 36  1  0  0  0  0
 15 37  1  0  0  0  0
 17 19  1  0  0  0  0
 18 20  2  0  0  0  0
 18 38  1  0  0  0  0
 19 21  2  0  0  0  0
 19 39  1  0  0  0  0
 20 21  1  0  0  0  0
 20 40  1  0  0  0  0
M  END
> <PUBCHEM_COMPOUND_CID>
246876

> <PUBCHEM_CONFORMER_RMSD>
0.6

> <PUBCHEM_CONFORMER_DIVERSEORDER>
1

> <PUBCHEM_MMFF94_PARTIAL_CHARGES>
19
1 -0.57
10 0.06
12 0.51
13 -0.14
15 0.14
16 0.51
17 -0.14
18 -0.15
19 -0.15
2 -0.57
20 -0.15
21 0.08
3 -0.53
38 0.15
39 0.15
40 0.15
41 0.45
6 0.06
7 0.14

> <PUBCHEM_EFFECTIVE_ROTOR_COUNT>
1

> <PUBCHEM_PHARMACOPHORE_FEATURES>
7
1 1 acceptor
1 2 acceptor
1 3 donor
5 4 6 10 12 16 rings
6 13 17 18 19 20 21 rings
6 4 5 6 7 8 9 rings
6 5 7 11 13 15 17 rings

> <PUBCHEM_HEAVY_ATOM_COUNT>
21

> <PUBCHEM_ATOM_DEF_STEREO_COUNT>
4

> <PUBCHEM_ATOM_UDEF_STEREO_COUNT>
0

> <PUBCHEM_BOND_DEF_STEREO_COUNT>
0

> <PUBCHEM_BOND_UDEF_STEREO_COUNT>
0

> <PUBCHEM_ISOTOPIC_ATOM_COUNT>
0

> <PUBCHEM_COMPONENT_COUNT>
1

> <PUBCHEM_CACTVS_TAUTO_COUNT>
81

> <PUBCHEM_CONFORMER_ID>
0003C45C00000001

> <PUBCHEM_MMFF94_ENERGY>
63.1346

> <PUBCHEM_FEATURE_SELFOVERLAP>
35.627

> <PUBCHEM_SHAPE_FINGERPRINT>
10906281 52 18265313140382825972
10967382 1 18409729603445370318
11132069 177 18335138691894246278
11315181 36 18272369750528569880
11578080 2 16735249075740082963
12011746 2 18410576214308186276
12107183 9 17689716784849846706
12236239 1 17846499232036531342
12251169 10 18335420140995599702
12403259 226 18264212418149343873
12403260 363 18336549313751956917
12507557 5 18260829289057131225
12788726 201 18269278031174363496
128620 24 7493288841477022586
13140716 1 18193266386910990067
13402501 40 18411138064802792156
13675066 3 18342453708098631130
13862211 1 18410579478842235022
15099037 51 18411702097167002397
15196674 1 18410012130425285388
15375358 24 18408884057486660534
15536298 74 18334012791723516620
15788980 27 18272649047640317904
16945 1 18194670484623343253
17349148 13 17749105573736398207
17492 89 18124033425296931355
17804303 29 18410290289719177892
1813 80 17418375796696738092
19141452 34 18408041801388399615
200 152 17894634751288217511
20028762 73 18042406837671773343
20645477 70 18261392303873158934
21029758 11 18333733537081777017
21033648 29 17967546665607824528
21267235 1 18410003321911818806
21279426 13 18124034791053723277
21421861 104 17916315020697509082
23402539 116 18334864917340119527
23559900 14 18334019371682427824
26918003 58 18060700585364340338
3004659 81 18272649095803031446
335352 9 18410293644056760581
34934 24 18410860971088479062
350125 39 18409444753041161241
351380 180 18409731763555385771
3545911 37 18408322202517791028
4214541 1 18410293605555054749
4921388 177 16128082356860095747
5104073 3 18409729547383923433
542803 24 17561080302632191134
6138700 20 18340487884525006882
69090 78 18334860510783080751
9709674 26 18340201891152744227

> <PUBCHEM_SHAPE_MULTIPOLES>
414.56
10.3
2.14
0.84
4.08
0.2
0.29
0.04
0.32
-0.39
-0.13
-0.37
-0.17
0.37

> <PUBCHEM_SHAPE_SELFOVERLAP>
914.121

> <PUBCHEM_SHAPE_VOLUME>
222.8

> <PUBCHEM_COORDINATE_TYPE>
2
5
10

$$$$

