252374
  -OEChem-07051213063D

 57 60  0     1  0  0  0  0  0999 V2000
    0.8519    3.4752   -1.2997 Cl  0  0  0  0  0  0  0  0  0  0  0  0
    2.2661    2.1346    0.8698 O   0  0  0  0  0  0  0  0  0  0  0  0
    5.3039   -0.5771    0.8436 O   0  0  0  0  0  0  0  0  0  0  0  0
   -6.2592    0.4755   -0.8548 O   0  0  0  0  0  0  0  0  0  0  0  0
    2.1196   -0.1970    0.1802 C   0  0  2  0  0  0  0  0  0  0  0  0
    1.1929   -1.2148   -0.5318 C   0  0  2  0  0  0  0  0  0  0  0  0
   -0.2063   -1.2929    0.0915 C   0  0  1  0  0  0  0  0  0  0  0  0
   -0.8748    0.1150    0.0356 C   0  0  2  0  0  0  0  0  0  0  0  0
    1.4924    1.2282    0.0700 C   0  0  1  0  0  0  0  0  0  0  0  0
    3.4235   -0.4582   -0.6182 C   0  0  2  0  0  0  0  0  0  0  0  0
    0.0465    1.2086    0.6416 C   0  0  0  0  0  0  0  0  0  0  0  0
   -2.3409    0.1203    0.6226 C   0  0  2  0  0  0  0  0  0  0  0  0
    2.0297   -2.4923   -0.5915 C   0  0  0  0  0  0  0  0  0  0  0  0
    3.4701   -1.9908   -0.7898 C   0  0  0  0  0  0  0  0  0  0  0  0
   -1.0835   -2.3213   -0.6350 C   0  0  0  0  0  0  0  0  0  0  0  0
    2.3479   -0.5597    1.6845 C   0  0  0  0  0  0  0  0  0  0  0  0
   -3.1455   -1.0296    0.0029 C   0  0  0  0  0  0  0  0  0  0  0  0
   -2.4784   -2.3840   -0.0271 C   0  0  0  0  0  0  0  0  0  0  0  0
   -3.0044    1.4836    0.2680 C   0  0  0  0  0  0  0  0  0  0  0  0
    1.4867    1.8254   -1.3477 C   0  0  0  0  0  0  0  0  0  0  0  0
   -2.3511   -0.0565    2.1579 C   0  0  0  0  0  0  0  0  0  0  0  0
    4.6644    0.0801    0.0239 C   0  0  0  0  0  0  0  0  0  0  0  0
   -4.5158    1.4888    0.4351 C   0  0  0  0  0  0  0  0  0  0  0  0
   -4.3920   -0.8998   -0.4813 C   0  0  0  0  0  0  0  0  0  0  0  0
   -5.1360    0.3749   -0.3652 C   0  0  0  0  0  0  0  0  0  0  0  0
    5.0923    1.4637   -0.3850 C   0  0  0  0  0  0  0  0  0  0  0  0
    1.0581   -0.9026   -1.5787 H   0  0  0  0  0  0  0  0  0  0  0  0
   -0.1162   -1.6169    1.1340 H   0  0  0  0  0  0  0  0  0  0  0  0
   -0.9773    0.3595   -1.0330 H   0  0  0  0  0  0  0  0  0  0  0  0
    3.3585   -0.0465   -1.6319 H   0  0  0  0  0  0  0  0  0  0  0  0
   -0.4232    2.1917    0.5580 H   0  0  0  0  0  0  0  0  0  0  0  0
    0.1125    1.0631    1.7265 H   0  0  0  0  0  0  0  0  0  0  0  0
    1.7219   -3.1440   -1.4158 H   0  0  0  0  0  0  0  0  0  0  0  0
    1.9473   -3.0726    0.3341 H   0  0  0  0  0  0  0  0  0  0  0  0
    4.1391   -2.4978   -0.0866 H   0  0  0  0  0  0  0  0  0  0  0  0
    3.8263   -2.2425   -1.7958 H   0  0  0  0  0  0  0  0  0  0  0  0
   -0.6299   -3.3173   -0.5730 H   0  0  0  0  0  0  0  0  0  0  0  0
   -1.1555   -2.0704   -1.7013 H   0  0  0  0  0  0  0  0  0  0  0  0
    3.0140    0.1592    2.1738 H   0  0  0  0  0  0  0  0  0  0  0  0
    1.4207   -0.5677    2.2627 H   0  0  0  0  0  0  0  0  0  0  0  0
    2.8023   -1.5465    1.8167 H   0  0  0  0  0  0  0  0  0  0  0  0
   -2.4154   -2.7722    0.9970 H   0  0  0  0  0  0  0  0  0  0  0  0
   -3.0749   -3.1097   -0.5935 H   0  0  0  0  0  0  0  0  0  0  0  0
   -2.7775    1.7405   -0.7763 H   0  0  0  0  0  0  0  0  0  0  0  0
   -2.5893    2.2905    0.8832 H   0  0  0  0  0  0  0  0  0  0  0  0
    0.8863    1.2534   -2.0579 H   0  0  0  0  0  0  0  0  0  0  0  0
    2.4972    1.9251   -1.7474 H   0  0  0  0  0  0  0  0  0  0  0  0
   -1.7769   -0.9312    2.4788 H   0  0  0  0  0  0  0  0  0  0  0  0
   -1.9303    0.8171    2.6669 H   0  0  0  0  0  0  0  0  0  0  0  0
   -3.3697   -0.1882    2.5412 H   0  0  0  0  0  0  0  0  0  0  0  0
    1.8333    3.0049    0.8411 H   0  0  0  0  0  0  0  0  0  0  0  0
   -4.9138    2.4423    0.0703 H   0  0  0  0  0  0  0  0  0  0  0  0
   -4.8104    1.3757    1.4831 H   0  0  0  0  0  0  0  0  0  0  0  0
   -4.9245   -1.7349   -0.9242 H   0  0  0  0  0  0  0  0  0  0  0  0
    4.8957    1.6316   -1.4464 H   0  0  0  0  0  0  0  0  0  0  0  0
    4.5914    2.2186    0.2188 H   0  0  0  0  0  0  0  0  0  0  0  0
    6.1722    1.5571   -0.2336 H   0  0  0  0  0  0  0  0  0  0  0  0
  1 20  1  0  0  0  0
  2  9  1  0  0  0  0
  2 51  1  0  0  0  0
  3 22  2  0  0  0  0
  4 25  2  0  0  0  0
  5  6  1  0  0  0  0
  5  9  1  0  0  0  0
  5 10  1  0  0  0  0
  5 16  1  0  0  0  0
  6  7  1  0  0  0  0
  6 13  1  0  0  0  0
  6 27  1  0  0  0  0
  7  8  1  0  0  0  0
  7 15  1  0  0  0  0
  7 28  1  0  0  0  0
  8 11  1  0  0  0  0
  8 12  1  0  0  0  0
  8 29  1  0  0  0  0
  9 11  1  0  0  0  0
  9 20  1  0  0  0  0
 10 14  1  0  0  0  0
 10 22  1  0  0  0  0
 10 30  1  0  0  0  0
 11 31  1  0  0  0  0
 11 32  1  0  0  0  0
 12 17  1  0  0  0  0
 12 19  1  0  0  0  0
 12 21  1  0  0  0  0
 13 14  1  0  0  0  0
 13 33  1  0  0  0  0
 13 34  1  0  0  0  0
 14 35  1  0  0  0  0
 14 36  1  0  0  0  0
 15 18  1  0  0  0  0
 15 37  1  0  0  0  0
 15 38  1  0  0  0  0
 16 39  1  0  0  0  0
 16 40  1  0  0  0  0
 16 41  1  0  0  0  0
 17 18  1  0  0  0  0
 17 24  2  0  0  0  0
 18 42  1  0  0  0  0
 18 43  1  0  0  0  0
 19 23  1  0  0  0  0
 19 44  1  0  0  0  0
 19 45  1  0  0  0  0
 20 46  1  0  0  0  0
 20 47  1  0  0  0  0
 21 48  1  0  0  0  0
 21 49  1  0  0  0  0
 21 50  1  0  0  0  0
 22 26  1  0  0  0  0
 23 25  1  0  0  0  0
 23 52  1  0  0  0  0
 23 53  1  0  0  0  0
 24 25  1  0  0  0  0
 24 54  1  0  0  0  0
 26 55  1  0  0  0  0
 26 56  1  0  0  0  0
 26 57  1  0  0  0  0
M  END
> <PUBCHEM_COMPOUND_CID>
252374

> <PUBCHEM_CONFORMER_RMSD>
0.8

> <PUBCHEM_CONFORMER_DIVERSEORDER>
1

> <PUBCHEM_MMFF94_PARTIAL_CHARGES>
17
1 -0.29
10 0.06
12 0.14
17 -0.28
18 0.14
2 -0.68
20 0.29
22 0.45
23 0.06
24 -0.14
25 0.49
26 0.06
3 -0.57
4 -0.57
51 0.4
54 0.15
9 0.28

> <PUBCHEM_EFFECTIVE_ROTOR_COUNT>
3.8

> <PUBCHEM_PHARMACOPHORE_FEATURES>
8
1 2 acceptor
1 2 donor
1 3 acceptor
1 4 acceptor
5 5 6 10 13 14 rings
6 12 17 19 23 24 25 rings
6 5 6 7 8 9 11 rings
6 7 8 12 15 17 18 rings

> <PUBCHEM_HEAVY_ATOM_COUNT>
26

> <PUBCHEM_ATOM_DEF_STEREO_COUNT>
7

> <PUBCHEM_ATOM_UDEF_STEREO_COUNT>
0

> <PUBCHEM_BOND_DEF_STEREO_COUNT>
0

> <PUBCHEM_BOND_UDEF_STEREO_COUNT>
0

> <PUBCHEM_ISOTOPIC_ATOM_COUNT>
0

> <PUBCHEM_COMPONENT_COUNT>
1

> <PUBCHEM_CACTVS_TAUTO_COUNT>
15

> <PUBCHEM_CONFORMER_ID>
0003D9D600000001

> <PUBCHEM_MMFF94_ENERGY>
90.8637

> <PUBCHEM_FEATURE_SELFOVERLAP>
40.687

> <PUBCHEM_SHAPE_FINGERPRINT>
10366900 7 17022620875017970370
10906281 52 18200013106539528028
11370993 70 18261115149221935083
12011746 2 18260546740502152878
12107698 1 18127690426972775075
12166972 35 18334577893677411265
12236239 1 18130792243531545522
12293681 4 17846489353279811745
12422481 6 18339379508701683704
12507557 5 18342737382288475283
12553582 1 18266716095892438876
12788726 201 18188213220738372009
13004483 165 18200043970184956266
13140716 1 18264766571508245602
13224815 77 18334568002293765107
14790565 3 18194394495116993948
15099037 51 18412826897873356095
15196674 1 18334292106158019839
15238133 3 17275098483103304397
15788980 27 16272206396863697426
1601671 61 18409729560727766972
16945 1 18187917413661184490
17349148 13 18260270746119879083
17357779 13 18339371867063404941
17492 89 18267302036964902127
18608769 82 18337669707927990251
18681886 176 18262524680141959488
200 152 17385446535851866987
20511986 3 18338814341917220622
20691752 17 18198041776643244074
20715895 44 18339653334352306157
21033648 29 18187939416452010641
21267235 1 18334848407544355871
21285901 2 18268146633429157596
21298829 104 18335698394958516865
21304253 335 18341328878039916524
21421861 104 17986963040776082026
22149856 69 18115860816800182691
23402539 116 18413111667253740386
23557571 272 14129330819607885635
23558518 356 18054791671894906387
23559900 14 18188497869590444945
3004659 81 18339640144249322662
335352 9 18408322198903403574
345986 75 17058116499582237744
34797466 226 16443062764542364448
34934 24 18413952784768930090
350125 39 18264481802581898867
474 4 18272650121703791311
5104073 3 18410854326283313258
6328613 192 18340483370799274060
9709674 26 18336263449382421359
9981440 41 17261310302533776208

> <PUBCHEM_SHAPE_MULTIPOLES>
519.33
10.44
2.85
1.25
4.32
0.77
-0.4
1.04
0.71
-0.92
1.06
-0.04
0.21
-0.24

> <PUBCHEM_SHAPE_SELFOVERLAP>
1102.421

> <PUBCHEM_SHAPE_VOLUME>
290.6

> <PUBCHEM_COORDINATE_TYPE>
2
5
10

$$$$

