5281407
  -OEChem-07051212573D

 33 36  0     0  0  0  0  0  0999 V2000
    1.6838   -1.6434   -0.0005 N   0  0  0  0  0  0  0  0  0  0  0  0
   -4.1905    0.9248    0.0008 N   0  0  0  0  0  0  0  0  0  0  0  0
    0.4429   -1.0507   -0.0005 C   0  0  0  0  0  0  0  0  0  0  0  0
    0.6440    0.3276   -0.0002 C   0  0  0  0  0  0  0  0  0  0  0  0
   -0.8310   -1.6326   -0.0006 C   0  0  0  0  0  0  0  0  0  0  0  0
    2.0571    0.5541    0.0000 C   0  0  0  0  0  0  0  0  0  0  0  0
   -1.9513   -0.7835   -0.0004 C   0  0  0  0  0  0  0  0  0  0  0  0
   -1.7770    0.6145   -0.0001 C   0  0  0  0  0  0  0  0  0  0  0  0
    2.6787   -0.6947   -0.0002 C   0  0  0  0  0  0  0  0  0  0  0  0
   -0.4844    1.1738   -0.0001 C   0  0  0  0  0  0  0  0  0  0  0  0
   -2.9271    1.4061    0.0004 C   0  0  0  0  0  0  0  0  0  0  0  0
   -0.9775   -3.1226    0.0008 C   0  0  0  0  0  0  0  0  0  0  0  0
    2.8659    1.7100    0.0002 C   0  0  0  0  0  0  0  0  0  0  0  0
   -3.2512   -1.3017   -0.0002 C   0  0  0  0  0  0  0  0  0  0  0  0
    4.0698   -0.8481    0.0001 C   0  0  0  0  0  0  0  0  0  0  0  0
    4.2586    1.5728    0.0004 C   0  0  0  0  0  0  0  0  0  0  0  0
    4.8495    0.3115    0.0003 C   0  0  0  0  0  0  0  0  0  0  0  0
   -4.3193   -0.4178    0.0004 C   0  0  0  0  0  0  0  0  0  0  0  0
   -2.8411    2.8998   -0.0008 C   0  0  0  0  0  0  0  0  0  0  0  0
   -0.3236    2.2478    0.0002 H   0  0  0  0  0  0  0  0  0  0  0  0
    1.8540   -2.6390   -0.0007 H   0  0  0  0  0  0  0  0  0  0  0  0
   -1.5173   -3.4524    0.8950 H   0  0  0  0  0  0  0  0  0  0  0  0
   -1.5185   -3.4538   -0.8922 H   0  0  0  0  0  0  0  0  0  0  0  0
   -0.0184   -3.6474    0.0006 H   0  0  0  0  0  0  0  0  0  0  0  0
    2.4200    2.7006    0.0003 H   0  0  0  0  0  0  0  0  0  0  0  0
   -3.4629   -2.3657   -0.0003 H   0  0  0  0  0  0  0  0  0  0  0  0
    4.5307   -1.8303    0.0001 H   0  0  0  0  0  0  0  0  0  0  0  0
    4.8846    2.4612    0.0006 H   0  0  0  0  0  0  0  0  0  0  0  0
    5.9332    0.2266    0.0005 H   0  0  0  0  0  0  0  0  0  0  0  0
   -5.3410   -0.7834    0.0007 H   0  0  0  0  0  0  0  0  0  0  0  0
   -2.3245    3.2585   -0.8968 H   0  0  0  0  0  0  0  0  0  0  0  0
   -3.8408    3.3486   -0.0007 H   0  0  0  0  0  0  0  0  0  0  0  0
   -2.3237    3.2599    0.8942 H   0  0  0  0  0  0  0  0  0  0  0  0
  1  3  1  0  0  0  0
  1  9  1  0  0  0  0
  1 21  1  0  0  0  0
  2 11  2  0  0  0  0
  2 18  1  0  0  0  0
  3  4  2  0  0  0  0
  3  5  1  0  0  0  0
  4  6  1  0  0  0  0
  4 10  1  0  0  0  0
  5  7  2  0  0  0  0
  5 12  1  0  0  0  0
  6  9  1  0  0  0  0
  6 13  2  0  0  0  0
  7  8  1  0  0  0  0
  7 14  1  0  0  0  0
  8 10  2  0  0  0  0
  8 11  1  0  0  0  0
  9 15  2  0  0  0  0
 10 20  1  0  0  0  0
 11 19  1  0  0  0  0
 12 22  1  0  0  0  0
 12 23  1  0  0  0  0
 12 24  1  0  0  0  0
 13 16  1  0  0  0  0
 13 25  1  0  0  0  0
 14 18  2  0  0  0  0
 14 26  1  0  0  0  0
 15 17  1  0  0  0  0
 15 27  1  0  0  0  0
 16 17  2  0  0  0  0
 16 28  1  0  0  0  0
 17 29  1  0  0  0  0
 18 30  1  0  0  0  0
 19 31  1  0  0  0  0
 19 32  1  0  0  0  0
 19 33  1  0  0  0  0
M  END
> <PUBCHEM_COMPOUND_CID>
5281407

> <PUBCHEM_CONFORMER_RMSD>
0.4

> <PUBCHEM_CONFORMER_DIVERSEORDER>
1

> <PUBCHEM_MMFF94_PARTIAL_CHARGES>
23
1 0.03
10 -0.15
11 0.17
12 0.14
13 -0.15
14 -0.15
15 -0.15
16 -0.15
17 -0.15
18 0.16
19 0.14
2 -0.62
20 0.15
21 0.27
25 0.15
26 0.15
27 0.15
28 0.15
29 0.15
3 -0.15
30 0.15
5 -0.14
9 -0.15

> <PUBCHEM_EFFECTIVE_ROTOR_COUNT>
0

> <PUBCHEM_PHARMACOPHORE_FEATURES>
7
1 1 cation
1 1 donor
1 2 acceptor
5 1 3 4 6 9 rings
6 2 7 8 11 14 18 rings
6 3 4 5 7 8 10 rings
6 6 9 13 15 16 17 rings

> <PUBCHEM_HEAVY_ATOM_COUNT>
19

> <PUBCHEM_ATOM_DEF_STEREO_COUNT>
0

> <PUBCHEM_ATOM_UDEF_STEREO_COUNT>
0

> <PUBCHEM_BOND_DEF_STEREO_COUNT>
0

> <PUBCHEM_BOND_UDEF_STEREO_COUNT>
0

> <PUBCHEM_ISOTOPIC_ATOM_COUNT>
0

> <PUBCHEM_COMPONENT_COUNT>
1

> <PUBCHEM_CACTVS_TAUTO_COUNT>
2

> <PUBCHEM_CONFORMER_ID>
0050967F00000001

> <PUBCHEM_MMFF94_ENERGY>
53.6909

> <PUBCHEM_FEATURE_SELFOVERLAP>
35.726

> <PUBCHEM_SHAPE_FINGERPRINT>
10319926 262 18263383416926424480
10411042 1 17546164099983215274
10608611 8 18408887317461874592
10616163 171 18337670789705782846
10646746 165 18410291428254601052
10967382 1 18410856589725666150
11578080 2 16735527247965999434
12107183 9 17765441233034069680
12173636 292 18410578400599631293
12236239 1 17846781785039496708
12390115 104 18189317104416274281
12403259 226 18335708199920194617
12403260 363 18410864281991000780
12403814 3 17775291542858722973
13140716 1 17979347556557902659
13380535 76 18408321085979502318
13583140 156 17060628788787904273
138480 1 17618223252872524194
14790565 3 18336256934054417505
15042514 8 18268424629868083899
15196674 1 18410856555365934278
15442244 35 18339927133763289002
15475509 8 15802971418844788679
15536298 74 18407758144863565110
16945 1 18338798888419219751
17492 89 18410856585516088858
18186145 218 18188200021997701120
19591789 44 18339361967279786166
200 152 17749109980504667063
20510252 161 18334292076351543033
20645477 70 16950550117733202334
21267235 1 18411409601267546602
21279426 13 18192145121864469894
21524375 3 18335139808206084471
21652331 79 18411418388707252745
23227448 37 18336828567898155940
2334 1 18410575102133143913
23366157 5 17914328232660453802
23402539 116 18335710407744089231
23559900 14 18260829354199279630
238 59 16977344309489984061
245318 6 16553109396175683980
2748010 2 18339635745827959935
3004659 81 18270672182802924638
335352 9 18338799047781448510
350125 39 18410853282923088881
3545911 37 18408601436170380616
4214541 1 18410574015390678788
474 4 17417244304763834676
474229 33 18410292489312197495
4990 188 18113328739534846860
5104073 3 18411700993508055688
633830 44 18115869779288614325
69090 78 18409732845892646486
7364860 26 18120936371597954799
77779 3 18410572890214508436
9709674 26 18335696126936015150

> <PUBCHEM_SHAPE_MULTIPOLES>
381.05
8.63
2.66
0.61
3.72
0.22
0
-2.58
0
-1.47
0
0.01
0
0

> <PUBCHEM_SHAPE_SELFOVERLAP>
873.486

> <PUBCHEM_SHAPE_VOLUME>
199.3

> <PUBCHEM_COORDINATE_TYPE>
2
5
10

$$$$

