104940
  -OEChem-07051212482D

 39 43  0     1  0  0  0  0  0999 V2000
    3.5229   -1.9067    0.0000 O   0  0  0  0  0  0  0  0  0  0  0  0
    2.0000   -0.7949    0.0000 O   0  0  0  0  0  0  0  0  0  0  0  0
    5.3191    0.9396    0.0000 O   0  0  0  0  0  0  0  0  0  0  0  0
    7.0672   -2.1019    0.0000 O   0  0  0  0  0  0  0  0  0  0  0  0
    7.9714   -0.6051    0.0000 O   0  0  0  0  0  0  0  0  0  0  0  0
    8.9273    0.9645    0.0000 O   0  0  0  0  0  0  0  0  0  0  0  0
    3.5229   -0.2972    0.0000 C   0  0  2  0  0  0  0  0  0  0  0  0
    2.9393   -1.1019    0.0000 C   0  0  1  0  0  0  0  0  0  0  0  0
    4.4691   -0.6019    0.0000 C   0  0  0  0  0  0  0  0  0  0  0  0
    4.4691   -1.6019    0.0000 C   0  0  0  0  0  0  0  0  0  0  0  0
    5.3351   -0.1019    0.0000 C   0  0  0  0  0  0  0  0  0  0  0  0
    2.9393    0.5003    0.0000 C   0  0  0  0  0  0  0  0  0  0  0  0
    6.2012   -0.6019    0.0000 C   0  0  0  0  0  0  0  0  0  0  0  0
    5.3351   -2.1019    0.0000 C   0  0  0  0  0  0  0  0  0  0  0  0
    6.2012   -1.6019    0.0000 C   0  0  0  0  0  0  0  0  0  0  0  0
    2.0000    0.1933    0.0000 C   0  0  0  0  0  0  0  0  0  0  0  0
    7.1112   -0.0951    0.0000 C   0  0  0  0  0  0  0  0  0  0  0  0
    7.1192    0.9465    0.0000 C   0  0  0  0  0  0  0  0  0  0  0  0
    6.2171    1.4673    0.0000 C   0  0  0  0  0  0  0  0  0  0  0  0
    8.0671    1.4745    0.0000 C   0  0  0  0  0  0  0  0  0  0  0  0
    6.2004    2.5522    0.0000 C   0  0  0  0  0  0  0  0  0  0  0  0
    8.0755    2.5594    0.0000 C   0  0  0  0  0  0  0  0  0  0  0  0
    7.1358    3.1019    0.0000 C   0  0  0  0  0  0  0  0  0  0  0  0
    7.0672   -3.1019    0.0000 C   0  0  0  0  0  0  0  0  0  0  0  0
    9.7990    1.4544    0.0000 C   0  0  0  0  0  0  0  0  0  0  0  0
    4.0204    0.3920    0.0000 H   0  0  0  0  0  0  0  0  0  0  0  0
    2.4388   -1.7889    0.0000 H   0  0  0  0  0  0  0  0  0  0  0  0
    3.1294    1.0904    0.0000 H   0  0  0  0  0  0  0  0  0  0  0  0
    5.3351   -2.7219    0.0000 H   0  0  0  0  0  0  0  0  0  0  0  0
    1.4981    0.5573    0.0000 H   0  0  0  0  0  0  0  0  0  0  0  0
    5.6599    2.8560    0.0000 H   0  0  0  0  0  0  0  0  0  0  0  0
    8.6136    2.8674    0.0000 H   0  0  0  0  0  0  0  0  0  0  0  0
    7.1334    3.7219    0.0000 H   0  0  0  0  0  0  0  0  0  0  0  0
    6.4472   -3.1019    0.0000 H   0  0  0  0  0  0  0  0  0  0  0  0
    7.0672   -3.7219    0.0000 H   0  0  0  0  0  0  0  0  0  0  0  0
    7.6872   -3.1019    0.0000 H   0  0  0  0  0  0  0  0  0  0  0  0
   10.1028    0.9140    0.0000 H   0  0  0  0  0  0  0  0  0  0  0  0
   10.3395    1.7582    0.0000 H   0  0  0  0  0  0  0  0  0  0  0  0
    9.4953    1.9949    0.0000 H   0  0  0  0  0  0  0  0  0  0  0  0
  1  8  1  0  0  0  0
  1 10  1  0  0  0  0
  2  8  1  0  0  0  0
  2 16  1  0  0  0  0
  3 11  1  0  0  0  0
  3 19  1  0  0  0  0
  4 15  1  0  0  0  0
  4 24  1  0  0  0  0
  5 17  2  0  0  0  0
  6 20  1  0  0  0  0
  6 25  1  0  0  0  0
  7  8  1  0  0  0  0
  7  9  1  0  0  0  0
  7 12  1  0  0  0  0
  7 26  1  6  0  0  0
  8 27  1  6  0  0  0
  9 10  1  0  0  0  0
  9 11  2  0  0  0  0
 10 14  2  0  0  0  0
 11 13  1  0  0  0  0
 12 16  2  0  0  0  0
 12 28  1  0  0  0  0
 13 15  2  0  0  0  0
 13 17  1  0  0  0  0
 14 15  1  0  0  0  0
 14 29  1  0  0  0  0
 16 30  1  0  0  0  0
 17 18  1  0  0  0  0
 18 19  2  0  0  0  0
 18 20  1  0  0  0  0
 19 21  1  0  0  0  0
 20 22  2  0  0  0  0
 21 23  2  0  0  0  0
 21 31  1  0  0  0  0
 22 23  1  0  0  0  0
 22 32  1  0  0  0  0
 23 33  1  0  0  0  0
 24 34  1  0  0  0  0
 24 35  1  0  0  0  0
 24 36  1  0  0  0  0
 25 37  1  0  0  0  0
 25 38  1  0  0  0  0
 25 39  1  0  0  0  0
M  END
> <PUBCHEM_COMPOUND_CID>
104940

> <PUBCHEM_COMPOUND_CANONICALIZED>
1

> <PUBCHEM_CACTVS_COMPLEXITY>
576

> <PUBCHEM_CACTVS_HBOND_ACCEPTOR>
6

> <PUBCHEM_CACTVS_HBOND_DONOR>
0

> <PUBCHEM_CACTVS_ROTATABLE_BOND>
2

> <PUBCHEM_CACTVS_SUBSKEYS>
AAADccB4OAAAAAAAAAAAAAAAAAAAASIAAAA0YIAAAAAQAEiRQAAAGgAAAAAADQSwmAMyDoAABACIAqBSAAACCAAkIAAIiAEGCMgcJzaENRqiOWCl4BUMqQfI7PzOoAACCAAIAABAAAQQABAAAAAAAAAAAA==

> <PUBCHEM_IUPAC_INCHI>
InChI=1S/C19H14O6/c1-21-10-4-3-5-11-15(10)17(20)16-12(22-2)8-13-14(18(16)24-11)9-6-7-23-19(9)25-13/h3-9,19H,1-2H3/t9-,19+/m0/s1

> <PUBCHEM_IUPAC_INCHIKEY>
JKUJKKGMOZDDJV-ZRNGKTOUSA-N

> <PUBCHEM_XLOGP3_AA>
3.1

> <PUBCHEM_EXACT_MASS>
338.079038

> <PUBCHEM_MOLECULAR_FORMULA>
C19H14O6

> <PUBCHEM_MOLECULAR_WEIGHT>
338.31086

> <PUBCHEM_OPENEYE_CAN_SMILES>
COC1=CC=CC2=C1C(=O)C3=C(C=C4C(=C3O2)C5C=COC5O4)OC

> <PUBCHEM_OPENEYE_ISO_SMILES>
COC1=CC=CC2=C1C(=O)C3=C(C=C4C(=C3O2)[C@@H]5C=CO[C@@H]5O4)OC

> <PUBCHEM_CACTVS_TPSA>
63.2

> <PUBCHEM_MONOISOTOPIC_WEIGHT>
338.079038

> <PUBCHEM_TOTAL_CHARGE>
0

> <PUBCHEM_HEAVY_ATOM_COUNT>
25

> <PUBCHEM_ATOM_DEF_STEREO_COUNT>
2

> <PUBCHEM_ATOM_UDEF_STEREO_COUNT>
0

> <PUBCHEM_BOND_DEF_STEREO_COUNT>
0

> <PUBCHEM_BOND_UDEF_STEREO_COUNT>
0

> <PUBCHEM_ISOTOPIC_ATOM_COUNT>
0

> <PUBCHEM_COMPONENT_COUNT>
1

> <PUBCHEM_CACTVS_TAUTO_COUNT>
1

> <PUBCHEM_COORDINATE_TYPE>
1
5
255

> <PUBCHEM_BONDANNOTATIONS>
10  14  8
11  13  8
13  15  8
13  17  8
14  15  8
17  18  8
18  19  8
18  20  8
19  21  8
20  22  8
21  23  8
22  23  8
3  11  8
3  19  8
7  26  6
8  27  6
9  10  8
9  11  8

$$$$

