47205546
  -OEChem-06241222593D

 35 36  0     1  0  0  0  0  0999 V2000
   -3.3757   -2.0582   -0.9613 F   0  0  0  0  0  0  0  0  0  0  0  0
    1.3703    2.5228    0.7181 O   0  0  0  0  0  0  0  0  0  0  0  0
    2.7624   -0.5981    0.0719 N   0  0  0  0  0  0  0  0  0  0  0  0
    0.8475    1.2523   -1.1547 N   0  0  0  0  0  0  0  0  0  0  0  0
    2.7916   -2.7636   -0.4192 N   0  0  0  0  0  0  0  0  0  0  0  0
    2.9864    0.8963   -0.0718 C   0  0  1  0  0  0  0  0  0  0  0  0
    1.6591    1.6549   -0.1032 C   0  0  0  0  0  0  0  0  0  0  0  0
   -0.4574    1.8179   -1.4112 C   0  0  0  0  0  0  0  0  0  0  0  0
    3.9029    1.4198    1.0368 C   0  0  0  0  0  0  0  0  0  0  0  0
   -1.5445    1.0713   -0.6934 C   0  0  0  0  0  0  0  0  0  0  0  0
    2.1641   -1.2289    1.1261 C   0  0  0  0  0  0  0  0  0  0  0  0
    3.1222   -1.5599   -0.8307 C   0  0  0  0  0  0  0  0  0  0  0  0
   -1.9669   -0.1710   -1.1664 C   0  0  0  0  0  0  0  0  0  0  0  0
   -2.1316    1.6199    0.4468 C   0  0  0  0  0  0  0  0  0  0  0  0
   -3.5636   -0.3165    0.6409 C   0  0  0  0  0  0  0  0  0  0  0  0
   -2.9763   -0.8650   -0.4992 C   0  0  0  0  0  0  0  0  0  0  0  0
   -3.1412    0.9260    1.1138 C   0  0  0  0  0  0  0  0  0  0  0  0
    2.1938   -2.5644    0.8001 C   0  0  0  0  0  0  0  0  0  0  0  0
   -4.6431   -1.0557    1.3568 C   0  0  0  0  0  0  0  0  0  0  0  0
    3.4810    1.0208   -1.0435 H   0  0  0  0  0  0  0  0  0  0  0  0
   -0.6289    1.7811   -2.4931 H   0  0  0  0  0  0  0  0  0  0  0  0
   -0.4532    2.8756   -1.1231 H   0  0  0  0  0  0  0  0  0  0  0  0
    3.4430    1.3168    2.0259 H   0  0  0  0  0  0  0  0  0  0  0  0
    4.8499    0.8696    1.0505 H   0  0  0  0  0  0  0  0  0  0  0  0
    4.1277    2.4808    0.8842 H   0  0  0  0  0  0  0  0  0  0  0  0
    1.1739    0.5252   -1.7844 H   0  0  0  0  0  0  0  0  0  0  0  0
    1.7798   -0.6960    1.9844 H   0  0  0  0  0  0  0  0  0  0  0  0
    3.6177   -1.3268   -1.7632 H   0  0  0  0  0  0  0  0  0  0  0  0
   -1.5165   -0.6087   -2.0533 H   0  0  0  0  0  0  0  0  0  0  0  0
   -1.8112    2.5861    0.8272 H   0  0  0  0  0  0  0  0  0  0  0  0
   -3.5894    1.3665    2.0005 H   0  0  0  0  0  0  0  0  0  0  0  0
    1.8142   -3.3923    1.3809 H   0  0  0  0  0  0  0  0  0  0  0  0
   -5.5439   -1.1015    0.7363 H   0  0  0  0  0  0  0  0  0  0  0  0
   -4.3179   -2.0751    1.5897 H   0  0  0  0  0  0  0  0  0  0  0  0
   -4.9094   -0.5735    2.3033 H   0  0  0  0  0  0  0  0  0  0  0  0
  1 16  1  0  0  0  0
  2  7  2  0  0  0  0
  3  6  1  0  0  0  0
  3 11  1  0  0  0  0
  3 12  1  0  0  0  0
  4  7  1  0  0  0  0
  4  8  1  0  0  0  0
  4 26  1  0  0  0  0
  5 12  2  0  0  0  0
  5 18  1  0  0  0  0
  6  7  1  0  0  0  0
  6  9  1  0  0  0  0
  6 20  1  0  0  0  0
  8 10  1  0  0  0  0
  8 21  1  0  0  0  0
  8 22  1  0  0  0  0
  9 23  1  0  0  0  0
  9 24  1  0  0  0  0
  9 25  1  0  0  0  0
 10 13  2  0  0  0  0
 10 14  1  0  0  0  0
 11 18  2  0  0  0  0
 11 27  1  0  0  0  0
 12 28  1  0  0  0  0
 13 16  1  0  0  0  0
 13 29  1  0  0  0  0
 14 17  2  0  0  0  0
 14 30  1  0  0  0  0
 15 16  2  0  0  0  0
 15 17  1  0  0  0  0
 15 19  1  0  0  0  0
 17 31  1  0  0  0  0
 18 32  1  0  0  0  0
 19 33  1  0  0  0  0
 19 34  1  0  0  0  0
 19 35  1  0  0  0  0
M  END
> <PUBCHEM_COMPOUND_CID>
47205546

> <PUBCHEM_CONFORMER_RMSD>
0.8

> <PUBCHEM_CONFORMER_DIVERSEORDER>
1
59
118
96
25
10
92
128
125
4
103
3
95
53
26
29
84
131
60
2
116
68
12
139
22
94
83
140
34
145
80
50
16
87
91
149
57
28
97
102
109
20
30
85
27
119
19
98
46
144
41
51
15
147
142
93
32
5
54
120
114
133
36
108
18
126
55
107
43
63
64
81
14
82
35
132
106
141
66
24
31
130
72
33
37
69
65
138
44
121
148
71
90
23
62
21
117
105
146
58
124
122
76
129
13
75
45
99
67
88
40
70
100
101
110
112
74
78
8
77
123
49
61
104
143
134
6
47
56
115
17
9
135
136
48
11
137
38
73
111
79
52
127
89
42
113
7
86
39

> <PUBCHEM_MMFF94_PARTIAL_CHARGES>
25
1 -0.19
10 -0.14
11 -0.3
12 0.04
13 -0.15
14 -0.15
15 -0.14
16 0.19
17 -0.15
18 0.08
19 0.14
2 -0.57
26 0.37
27 0.15
28 0.15
29 0.15
3 0.05
30 0.15
31 0.15
32 0.15
4 -0.73
5 -0.57
6 0.32
7 0.57
8 0.44

> <PUBCHEM_EFFECTIVE_ROTOR_COUNT>
5

> <PUBCHEM_PHARMACOPHORE_FEATURES>
5
1 2 acceptor
1 4 donor
3 3 5 12 cation
5 3 5 11 12 18 rings
6 10 13 14 15 16 17 rings

> <PUBCHEM_HEAVY_ATOM_COUNT>
19

> <PUBCHEM_ATOM_DEF_STEREO_COUNT>
0

> <PUBCHEM_ATOM_UDEF_STEREO_COUNT>
1

> <PUBCHEM_BOND_DEF_STEREO_COUNT>
0

> <PUBCHEM_BOND_UDEF_STEREO_COUNT>
0

> <PUBCHEM_ISOTOPIC_ATOM_COUNT>
0

> <PUBCHEM_COMPONENT_COUNT>
1

> <PUBCHEM_CACTVS_TAUTO_COUNT>
2

> <PUBCHEM_CONFORMER_ID>
02D04CAA00000001

> <PUBCHEM_MMFF94_ENERGY>
30.2693

> <PUBCHEM_FEATURE_SELFOVERLAP>
25.371

> <PUBCHEM_SHAPE_FINGERPRINT>
12363563 72 16845299310596883821
12506688 2 18339645667239362768
12553582 1 18272086050473970189
12596599 1 18262517112362435995
12596602 18 17459456772272741451
12633257 1 18043528524082926059
12892183 10 18261385650763160481
13464513 79 18131062693680316818
13533116 47 18408037395495687411
13583140 156 18114189609742475785
14251705 54 18341050808486734090
14251731 5 18270395134750494674
14251757 17 17697924437657322095
14251764 30 17752185435140875230
14713325 29 4961084082760172832
15375462 189 18407758131720447232
15422964 175 18131348588141744269
15635459 17 18060135431686806787
1813 80 16845280636622231277
20291156 8 18338793545458746130
20442098 301 18335143115225225559
20645477 70 18199483094610893189
21427221 339 17897142814457231545
21673915 165 18336549291902710310
22445834 79 18408600344911252781
2255824 54 18197210343752312508
5262128 65 16630237052396474101
6287921 2 18333726922916771134
7097593 13 18261386763043651905

> <PUBCHEM_SHAPE_MULTIPOLES>
362.92
8.03
2.89
1.36
3.12
0.81
-0.02
3.02
2.29
-2
0.01
0.44
-0.04
0.35

> <PUBCHEM_SHAPE_SELFOVERLAP>
762.973

> <PUBCHEM_SHAPE_VOLUME>
207.5

> <PUBCHEM_COORDINATE_TYPE>
2
5
10

$$$$

