430167
  -OEChem-07051212562D

 12 12  0     0  0  0  0  0  0999 V2000
    6.0010   -1.1900    0.0000 Cl  0  0  0  0  0  0  0  0  0  0  0  0
    4.2690    1.8100    0.0000 O   0  0  0  0  0  0  0  0  0  0  0  0
    4.2690   -1.1900    0.0000 N   0  0  0  0  0  0  0  0  0  0  0  0
    3.4030    0.3100    0.0000 N   0  0  0  0  0  0  0  0  0  0  0  0
    5.1350    0.3100    0.0000 N   0  0  0  0  0  0  0  0  0  0  0  0
    2.5369   -1.1900    0.0000 N   0  0  0  0  0  0  0  0  0  0  0  0
    3.4030   -0.6900    0.0000 C   0  0  0  0  0  0  0  0  0  0  0  0
    5.1350   -0.6900    0.0000 C   0  0  0  0  0  0  0  0  0  0  0  0
    4.2690    0.8100    0.0000 C   0  0  0  0  0  0  0  0  0  0  0  0
    4.2690   -1.8100    0.0000 H   0  0  0  0  0  0  0  0  0  0  0  0
    2.0000   -0.8800    0.0000 H   0  0  0  0  0  0  0  0  0  0  0  0
    2.5369   -1.8100    0.0000 H   0  0  0  0  0  0  0  0  0  0  0  0
  1  8  1  0  0  0  0
  2  9  2  0  0  0  0
  3  7  1  0  0  0  0
  3  8  1  0  0  0  0
  3 10  1  0  0  0  0
  4  7  2  0  0  0  0
  4  9  1  0  0  0  0
  5  8  2  0  0  0  0
  5  9  1  0  0  0  0
  6  7  1  0  0  0  0
  6 11  1  0  0  0  0
  6 12  1  0  0  0  0
M  END
> <PUBCHEM_COMPOUND_CID>
430167

> <PUBCHEM_COMPOUND_CANONICALIZED>
1

> <PUBCHEM_CACTVS_COMPLEXITY>
208

> <PUBCHEM_CACTVS_HBOND_ACCEPTOR>
1

> <PUBCHEM_CACTVS_HBOND_DONOR>
2

> <PUBCHEM_CACTVS_ROTATABLE_BOND>
0

> <PUBCHEM_CACTVS_SUBSKEYS>
AAADcQBDoAAEAAAAAAAAAAAAAAAAAAAAAAAgAAAAAAAAAAAAAAAABgIQAAAAAAAAAAABAALAAAAoAAAANAAAAAEAAAABAAAAAACAAAAAAAAAAAAAAAAAAAAAAAAAAAAAAAAAAAAAAAAAAAAAAAAAAAAAAA==

> <PUBCHEM_IUPAC_OPENEYE_NAME>
2-amino-6-chloro-1H-1,3,5-triazin-4-one

> <PUBCHEM_IUPAC_CAS_NAME>
2-amino-6-chloro-1H-1,3,5-triazin-4-one

> <PUBCHEM_IUPAC_NAME>
2-amino-6-chloro-1H-1,3,5-triazin-4-one

> <PUBCHEM_IUPAC_SYSTEMATIC_NAME>
2-azanyl-6-chloranyl-1H-1,3,5-triazin-4-one

> <PUBCHEM_IUPAC_TRADITIONAL_NAME>
2-amino-6-chloro-1H-s-triazin-4-one

> <PUBCHEM_IUPAC_INCHI>
InChI=1S/C3H3ClN4O/c4-1-6-2(5)8-3(9)7-1/h(H3,5,6,7,8,9)

> <PUBCHEM_IUPAC_INCHIKEY>
GHCVXTFBVDVFGE-UHFFFAOYSA-N

> <PUBCHEM_XLOGP3_AA>
-0.2

> <PUBCHEM_EXACT_MASS>
145.999538

> <PUBCHEM_MOLECULAR_FORMULA>
C3H3ClN4O

> <PUBCHEM_MOLECULAR_WEIGHT>
146.53512

> <PUBCHEM_OPENEYE_CAN_SMILES>
C1(=NC(=O)N=C(N1)Cl)N

> <PUBCHEM_OPENEYE_ISO_SMILES>
C1(=NC(=O)N=C(N1)Cl)N

> <PUBCHEM_CACTVS_TPSA>
79.8

> <PUBCHEM_MONOISOTOPIC_WEIGHT>
145.999538

> <PUBCHEM_TOTAL_CHARGE>
0

> <PUBCHEM_HEAVY_ATOM_COUNT>
9

> <PUBCHEM_ATOM_DEF_STEREO_COUNT>
0

> <PUBCHEM_ATOM_UDEF_STEREO_COUNT>
0

> <PUBCHEM_BOND_DEF_STEREO_COUNT>
0

> <PUBCHEM_BOND_UDEF_STEREO_COUNT>
0

> <PUBCHEM_ISOTOPIC_ATOM_COUNT>
0

> <PUBCHEM_COMPONENT_COUNT>
1

> <PUBCHEM_CACTVS_TAUTO_COUNT>
9

> <PUBCHEM_COORDINATE_TYPE>
1
5
255

> <PUBCHEM_BONDANNOTATIONS>
3  7  8
3  8  8
4  7  8
4  9  8
5  8  8
5  9  8

$$$$

