441791
  -OEChem-07051212563D

 55 59  0     1  0  0  0  0  0999 V2000
   -1.3901    1.6134   -1.9137 O   0  0  0  0  0  0  0  0  0  0  0  0
   -0.5773   -2.7283    0.1332 O   0  0  0  0  0  0  0  0  0  0  0  0
   -0.5114    3.0084   -0.2335 O   0  0  0  0  0  0  0  0  0  0  0  0
   -2.4070    1.9912    1.6121 O   0  0  0  0  0  0  0  0  0  0  0  0
    1.6582    2.5499    1.1217 O   0  0  0  0  0  0  0  0  0  0  0  0
    4.0721    1.2139    2.1494 O   0  0  0  0  0  0  0  0  0  0  0  0
   -1.5922   -3.5220    1.9689 O   0  0  0  0  0  0  0  0  0  0  0  0
   -1.1514   -0.5136   -0.8678 C   0  0  2  0  0  0  0  0  0  0  0  0
   -0.3388    0.5408   -0.0690 C   0  0  1  0  0  0  0  0  0  0  0  0
    1.2420    0.5343   -0.3002 C   0  0  2  0  0  0  0  0  0  0  0  0
   -2.5552   -0.7434   -0.2194 C   0  0  2  0  0  0  0  0  0  0  0  0
   -1.1684    1.7818   -0.4965 C   0  0  2  0  0  0  0  0  0  0  0  0
   -0.4940   -1.8767   -1.0423 C   0  0  1  0  0  0  0  0  0  0  0  0
    1.7441   -0.9630   -0.3213 C   0  0  1  0  0  0  0  0  0  0  0  0
   -1.3549    0.2073   -2.2106 C   0  0  0  0  0  0  0  0  0  0  0  0
   -3.4012    0.5638   -0.1504 C   0  0  2  0  0  0  0  0  0  0  0  0
   -2.5467    1.7965    0.2094 C   0  0  1  0  0  0  0  0  0  0  0  0
    0.9955   -1.7885   -1.3840 C   0  0  0  0  0  0  0  0  0  0  0  0
    1.9799    1.1749    0.9367 C   0  0  1  0  0  0  0  0  0  0  0  0
   -2.4150   -1.4591    1.1203 C   0  0  0  0  0  0  0  0  0  0  0  0
    1.6719    1.2904   -1.5872 C   0  0  0  0  0  0  0  0  0  0  0  0
    3.2642   -1.0915   -0.3590 C   0  0  0  0  0  0  0  0  0  0  0  0
    3.5165    1.1012    0.8373 C   0  0  2  0  0  0  0  0  0  0  0  0
   -4.6536    0.4495    0.7223 C   0  0  0  0  0  0  0  0  0  0  0  0
   -1.5175   -2.6611    1.0939 C   0  0  0  0  0  0  0  0  0  0  0  0
    4.0420   -0.1419    0.1904 C   0  0  0  0  0  0  0  0  0  0  0  0
    3.8882   -2.3283   -0.9405 C   0  0  0  0  0  0  0  0  0  0  0  0
   -0.4599    0.3802    1.0078 H   0  0  0  0  0  0  0  0  0  0  0  0
   -3.1107   -1.4320   -0.8757 H   0  0  0  0  0  0  0  0  0  0  0  0
   -0.9953   -2.4355   -1.8428 H   0  0  0  0  0  0  0  0  0  0  0  0
    1.4741   -1.4053    0.6510 H   0  0  0  0  0  0  0  0  0  0  0  0
   -0.5569    0.0303   -2.9335 H   0  0  0  0  0  0  0  0  0  0  0  0
   -2.2856   -0.0747   -2.7148 H   0  0  0  0  0  0  0  0  0  0  0  0
   -3.7754    0.7359   -1.1700 H   0  0  0  0  0  0  0  0  0  0  0  0
   -3.1040    2.6740   -0.1468 H   0  0  0  0  0  0  0  0  0  0  0  0
    1.1509   -1.3798   -2.3869 H   0  0  0  0  0  0  0  0  0  0  0  0
    1.3846   -2.8136   -1.4038 H   0  0  0  0  0  0  0  0  0  0  0  0
    1.6551    0.6671    1.8543 H   0  0  0  0  0  0  0  0  0  0  0  0
   -3.4014   -1.8207    1.4351 H   0  0  0  0  0  0  0  0  0  0  0  0
   -2.0456   -0.7880    1.9017 H   0  0  0  0  0  0  0  0  0  0  0  0
    1.2863    0.8277   -2.4949 H   0  0  0  0  0  0  0  0  0  0  0  0
    1.3480    2.3330   -1.5939 H   0  0  0  0  0  0  0  0  0  0  0  0
    2.7575    1.3144   -1.7193 H   0  0  0  0  0  0  0  0  0  0  0  0
    3.9046    1.9585    0.2734 H   0  0  0  0  0  0  0  0  0  0  0  0
   -4.4121    0.3225    1.7820 H   0  0  0  0  0  0  0  0  0  0  0  0
   -5.2664    1.3528    0.6295 H   0  0  0  0  0  0  0  0  0  0  0  0
   -5.2671   -0.4011    0.4070 H   0  0  0  0  0  0  0  0  0  0  0  0
   -1.1718    3.7211   -0.2349 H   0  0  0  0  0  0  0  0  0  0  0  0
    5.1235   -0.2549    0.1718 H   0  0  0  0  0  0  0  0  0  0  0  0
   -1.8423    2.7713    1.7457 H   0  0  0  0  0  0  0  0  0  0  0  0
    1.9850    3.0521    0.3572 H   0  0  0  0  0  0  0  0  0  0  0  0
    3.5037   -3.2221   -0.4386 H   0  0  0  0  0  0  0  0  0  0  0  0
    4.9777   -2.3360   -0.8252 H   0  0  0  0  0  0  0  0  0  0  0  0
    3.6760   -2.3999   -2.0118 H   0  0  0  0  0  0  0  0  0  0  0  0
    3.7397    2.0425    2.5355 H   0  0  0  0  0  0  0  0  0  0  0  0
  1 12  1  0  0  0  0
  1 15  1  0  0  0  0
  2 13  1  0  0  0  0
  2 25  1  0  0  0  0
  3 12  1  0  0  0  0
  3 48  1  0  0  0  0
  4 17  1  0  0  0  0
  4 50  1  0  0  0  0
  5 19  1  0  0  0  0
  5 51  1  0  0  0  0
  6 23  1  0  0  0  0
  6 55  1  0  0  0  0
  7 25  2  0  0  0  0
  8  9  1  0  0  0  0
  8 11  1  0  0  0  0
  8 13  1  0  0  0  0
  8 15  1  0  0  0  0
  9 10  1  0  0  0  0
  9 12  1  0  0  0  0
  9 28  1  0  0  0  0
 10 14  1  0  0  0  0
 10 19  1  0  0  0  0
 10 21  1  0  0  0  0
 11 16  1  0  0  0  0
 11 20  1  0  0  0  0
 11 29  1  0  0  0  0
 12 17  1  0  0  0  0
 13 18  1  0  0  0  0
 13 30  1  0  0  0  0
 14 18  1  0  0  0  0
 14 22  1  0  0  0  0
 14 31  1  0  0  0  0
 15 32  1  0  0  0  0
 15 33  1  0  0  0  0
 16 17  1  0  0  0  0
 16 24  1  0  0  0  0
 16 34  1  0  0  0  0
 17 35  1  0  0  0  0
 18 36  1  0  0  0  0
 18 37  1  0  0  0  0
 19 23  1  0  0  0  0
 19 38  1  0  0  0  0
 20 25  1  0  0  0  0
 20 39  1  0  0  0  0
 20 40  1  0  0  0  0
 21 41  1  0  0  0  0
 21 42  1  0  0  0  0
 21 43  1  0  0  0  0
 22 26  2  0  0  0  0
 22 27  1  0  0  0  0
 23 26  1  0  0  0  0
 23 44  1  0  0  0  0
 24 45  1  0  0  0  0
 24 46  1  0  0  0  0
 24 47  1  0  0  0  0
 26 49  1  0  0  0  0
 27 52  1  0  0  0  0
 27 53  1  0  0  0  0
 27 54  1  0  0  0  0
M  END
> <PUBCHEM_COMPOUND_CID>
441791

> <PUBCHEM_CONFORMER_RMSD>
0.6

> <PUBCHEM_CONFORMER_DIVERSEORDER>
1

> <PUBCHEM_MMFF94_PARTIAL_CHARGES>
24
1 -0.56
12 0.56
13 0.28
14 0.14
15 0.28
17 0.28
19 0.28
2 -0.43
20 0.06
22 -0.28
23 0.42
25 0.66
26 -0.29
27 0.14
3 -0.68
4 -0.68
48 0.4
49 0.15
5 -0.68
50 0.4
51 0.4
55 0.4
6 -0.68
7 -0.57

> <PUBCHEM_EFFECTIVE_ROTOR_COUNT>
1.8

> <PUBCHEM_PHARMACOPHORE_FEATURES>
14
1 1 acceptor
1 3 acceptor
1 3 donor
1 4 acceptor
1 4 donor
1 5 acceptor
1 5 donor
1 6 acceptor
1 6 donor
1 7 acceptor
6 10 14 19 22 23 26 rings
6 2 8 11 13 20 25 rings
6 8 9 10 13 14 18 rings
8 1 8 9 11 12 15 16 17 rings

> <PUBCHEM_HEAVY_ATOM_COUNT>
27

> <PUBCHEM_ATOM_DEF_STEREO_COUNT>
11

> <PUBCHEM_ATOM_UDEF_STEREO_COUNT>
0

> <PUBCHEM_BOND_DEF_STEREO_COUNT>
0

> <PUBCHEM_BOND_UDEF_STEREO_COUNT>
0

> <PUBCHEM_ISOTOPIC_ATOM_COUNT>
0

> <PUBCHEM_COMPONENT_COUNT>
1

> <PUBCHEM_CACTVS_TAUTO_COUNT>
1

> <PUBCHEM_CONFORMER_ID>
0006BDBF00000001

> <PUBCHEM_MMFF94_ENERGY>
116.4085

> <PUBCHEM_FEATURE_SELFOVERLAP>
71.273

> <PUBCHEM_SHAPE_FINGERPRINT>
10165383 225 17480285112657823356
10366900 7 18334862667056895924
10863032 1 17458356208013805191
10948715 1 17894914082981386365
11578080 2 16371874853868477834
11640471 11 15719105851376784230
12011746 2 18340480187916888279
12035758 1 18412255130183427523
12156800 1 15443740968398266772
12553582 1 17548965668305539498
12633257 1 18341901757440495304
13140716 1 18270117886121563730
13224815 77 18409733937220437412
13402501 40 18335696200008260414
14223421 5 18264768753483506984
14787075 74 18264478671297461303
15209289 33 18192988438107515614
15295992 7 18186794816099175298
16945 1 17907289953940797431
1813 80 17203605952427576589
19049666 15 18336831987098636446
19591789 44 18190459565679710254
20600515 1 17917434151282075871
20691752 17 18343308093216171695
20905425 154 17688305003129562791
21033648 29 18271256030811914516
21330990 113 18129371756376503575
21731516 1 16486702350593385798
2334 1 18261967335527151788
23559900 14 18341041991267210790
238 59 17762651728879202181
2748010 2 18334582360511665780
3493558 16 15001608792868843577
350125 39 18262791998938409836
35225 105 17561362893815368915
392239 28 18337376249744182203
4340502 62 18410572929449553921
598444 67 18341894151064138575
81228 2 18272371914838984095
9709674 26 18336266760511958878
9981440 41 17391113311312316856

> <PUBCHEM_SHAPE_MULTIPOLES>
514.56
6.5
3.27
1.74
2.28
1.14
0.03
-0.43
-2.01
-0.4
-1.01
0.05
0.01
1.53

> <PUBCHEM_SHAPE_SELFOVERLAP>
1128.605

> <PUBCHEM_SHAPE_VOLUME>
270.1

> <PUBCHEM_COORDINATE_TYPE>
2
5
10

$$$$

