4547
  -OEChem-06261200123D

 69 71  0     1  0  0  0  0  0999 V2000
    0.6947    1.4842    0.9626 O   0  0  0  0  0  0  0  0  0  0  0  0
   -4.5516   -1.4919   -0.0011 O   0  0  0  0  0  0  0  0  0  0  0  0
   -5.8816    2.3174   -0.6805 O   0  0  0  0  0  0  0  0  0  0  0  0
   -6.6859    0.2364   -0.2462 O   0  0  0  0  0  0  0  0  0  0  0  0
    2.8211    0.9371   -1.5561 N   0  0  0  0  0  0  0  0  0  0  0  0
    1.2024   -0.7148    1.5046 N   0  0  0  0  0  0  0  0  0  0  0  0
    4.2860    1.0433   -1.6162 C   0  0  0  0  0  0  0  0  0  0  0  0
    2.0648    2.1385   -1.9278 C   0  0  0  0  0  0  0  0  0  0  0  0
    4.7700    2.2467   -0.8103 C   0  0  0  0  0  0  0  0  0  0  0  0
    2.5484    3.3468   -1.1276 C   0  0  0  0  0  0  0  0  0  0  0  0
    4.0577    3.5250   -1.2361 C   0  0  0  0  0  0  0  0  0  0  0  0
    2.3965   -0.8202    0.6914 C   0  0  2  0  0  0  0  0  0  0  0  0
    2.2567   -0.3259   -1.7720 C   0  0  0  0  0  0  0  0  0  0  0  0
    2.0322   -1.2059   -0.7270 C   0  0  0  0  0  0  0  0  0  0  0  0
    3.3947   -1.7849    1.3631 C   0  0  0  0  0  0  0  0  0  0  0  0
    3.8488   -1.3830    2.7821 C   0  0  0  0  0  0  0  0  0  0  0  0
    1.9128   -0.7056   -3.0694 C   0  0  0  0  0  0  0  0  0  0  0  0
    1.4737   -2.4552   -0.9415 C   0  0  0  0  0  0  0  0  0  0  0  0
    4.4683    0.0146    2.8226 C   0  0  0  0  0  0  0  0  0  0  0  0
    4.8574   -2.4077    3.3098 C   0  0  0  0  0  0  0  0  0  0  0  0
    1.3492   -1.9600   -3.3029 C   0  0  0  0  0  0  0  0  0  0  0  0
    1.1297   -2.8348   -2.2389 C   0  0  0  0  0  0  0  0  0  0  0  0
    0.4471    0.4448    1.5686 C   0  0  0  0  0  0  0  0  0  0  0  0
   -0.7471    0.2759    2.4879 C   0  0  0  0  0  0  0  0  0  0  0  0
   -2.0680    0.4777    1.7937 C   0  0  0  0  0  0  0  0  0  0  0  0
   -2.7066   -0.6079    1.2113 C   0  0  0  0  0  0  0  0  0  0  0  0
   -2.6273    1.7468    1.7460 C   0  0  0  0  0  0  0  0  0  0  0  0
   -3.9299   -0.4207    0.5680 C   0  0  0  0  0  0  0  0  0  0  0  0
   -3.8505    1.9342    1.1026 C   0  0  0  0  0  0  0  0  0  0  0  0
   -4.5019    0.8504    0.5137 C   0  0  0  0  0  0  0  0  0  0  0  0
   -5.7784    1.0677   -0.1527 C   0  0  0  0  0  0  0  0  0  0  0  0
   -3.8433   -2.1804   -1.0293 C   0  0  0  0  0  0  0  0  0  0  0  0
   -4.8402   -2.7887   -1.9925 C   0  0  0  0  0  0  0  0  0  0  0  0
    4.6023    1.1367   -2.6625 H   0  0  0  0  0  0  0  0  0  0  0  0
    4.7589    0.1400   -1.2115 H   0  0  0  0  0  0  0  0  0  0  0  0
    2.1841    2.3321   -3.0011 H   0  0  0  0  0  0  0  0  0  0  0  0
    0.9944    1.9941   -1.7376 H   0  0  0  0  0  0  0  0  0  0  0  0
    5.8521    2.3640   -0.9350 H   0  0  0  0  0  0  0  0  0  0  0  0
    4.5865    2.0704    0.2568 H   0  0  0  0  0  0  0  0  0  0  0  0
    2.2818    3.2254   -0.0716 H   0  0  0  0  0  0  0  0  0  0  0  0
    2.0408    4.2506   -1.4828 H   0  0  0  0  0  0  0  0  0  0  0  0
    4.3810    4.3598   -0.6044 H   0  0  0  0  0  0  0  0  0  0  0  0
    4.3291    3.7753   -2.2687 H   0  0  0  0  0  0  0  0  0  0  0  0
    2.8550    0.1708    0.6946 H   0  0  0  0  0  0  0  0  0  0  0  0
    2.9616   -2.7920    1.4245 H   0  0  0  0  0  0  0  0  0  0  0  0
    4.2795   -1.8751    0.7176 H   0  0  0  0  0  0  0  0  0  0  0  0
    2.9820   -1.3940    3.4542 H   0  0  0  0  0  0  0  0  0  0  0  0
    2.0816   -0.0392   -3.9115 H   0  0  0  0  0  0  0  0  0  0  0  0
    0.8779   -1.5520    1.9795 H   0  0  0  0  0  0  0  0  0  0  0  0
    1.2842   -3.1472   -0.1265 H   0  0  0  0  0  0  0  0  0  0  0  0
    5.2739    0.1138    2.0873 H   0  0  0  0  0  0  0  0  0  0  0  0
    4.8882    0.2244    3.8124 H   0  0  0  0  0  0  0  0  0  0  0  0
    3.7228    0.7903    2.6237 H   0  0  0  0  0  0  0  0  0  0  0  0
    5.1575   -2.1663    4.3351 H   0  0  0  0  0  0  0  0  0  0  0  0
    5.7600   -2.4337    2.6899 H   0  0  0  0  0  0  0  0  0  0  0  0
    4.4222   -3.4127    3.3189 H   0  0  0  0  0  0  0  0  0  0  0  0
    1.0818   -2.2560   -4.3130 H   0  0  0  0  0  0  0  0  0  0  0  0
    0.6885   -3.8105   -2.4204 H   0  0  0  0  0  0  0  0  0  0  0  0
   -0.7405   -0.7039    2.9811 H   0  0  0  0  0  0  0  0  0  0  0  0
   -0.6349    1.0045    3.3015 H   0  0  0  0  0  0  0  0  0  0  0  0
   -2.2588   -1.5970    1.2622 H   0  0  0  0  0  0  0  0  0  0  0  0
   -2.1283    2.5971    2.2023 H   0  0  0  0  0  0  0  0  0  0  0  0
   -4.2761    2.9342    1.0878 H   0  0  0  0  0  0  0  0  0  0  0  0
   -3.2353   -2.9706   -0.5756 H   0  0  0  0  0  0  0  0  0  0  0  0
   -3.1829   -1.4972   -1.5778 H   0  0  0  0  0  0  0  0  0  0  0  0
   -5.4652   -2.0101   -2.4423 H   0  0  0  0  0  0  0  0  0  0  0  0
   -5.5142   -3.4744   -1.4684 H   0  0  0  0  0  0  0  0  0  0  0  0
   -4.3298   -3.3361   -2.7899 H   0  0  0  0  0  0  0  0  0  0  0  0
   -6.7444    2.4552   -1.1266 H   0  0  0  0  0  0  0  0  0  0  0  0
  1 23  2  0  0  0  0
  2 28  1  0  0  0  0
  2 32  1  0  0  0  0
  3 31  1  0  0  0  0
  3 69  1  0  0  0  0
  4 31  2  0  0  0  0
  5  7  1  0  0  0  0
  5  8  1  0  0  0  0
  5 13  1  0  0  0  0
  6 12  1  0  0  0  0
  6 23  1  0  0  0  0
  6 49  1  0  0  0  0
  7  9  1  0  0  0  0
  7 34  1  0  0  0  0
  7 35  1  0  0  0  0
  8 10  1  0  0  0  0
  8 36  1  0  0  0  0
  8 37  1  0  0  0  0
  9 11  1  0  0  0  0
  9 38  1  0  0  0  0
  9 39  1  0  0  0  0
 10 11  1  0  0  0  0
 10 40  1  0  0  0  0
 10 41  1  0  0  0  0
 11 42  1  0  0  0  0
 11 43  1  0  0  0  0
 12 14  1  0  0  0  0
 12 15  1  0  0  0  0
 12 44  1  0  0  0  0
 13 14  1  0  0  0  0
 13 17  2  0  0  0  0
 14 18  2  0  0  0  0
 15 16  1  0  0  0  0
 15 45  1  0  0  0  0
 15 46  1  0  0  0  0
 16 19  1  0  0  0  0
 16 20  1  0  0  0  0
 16 47  1  0  0  0  0
 17 21  1  0  0  0  0
 17 48  1  0  0  0  0
 18 22  1  0  0  0  0
 18 50  1  0  0  0  0
 19 51  1  0  0  0  0
 19 52  1  0  0  0  0
 19 53  1  0  0  0  0
 20 54  1  0  0  0  0
 20 55  1  0  0  0  0
 20 56  1  0  0  0  0
 21 22  2  0  0  0  0
 21 57  1  0  0  0  0
 22 58  1  0  0  0  0
 23 24  1  0  0  0  0
 24 25  1  0  0  0  0
 24 59  1  0  0  0  0
 24 60  1  0  0  0  0
 25 26  2  0  0  0  0
 25 27  1  0  0  0  0
 26 28  1  0  0  0  0
 26 61  1  0  0  0  0
 27 29  2  0  0  0  0
 27 62  1  0  0  0  0
 28 30  2  0  0  0  0
 29 30  1  0  0  0  0
 29 63  1  0  0  0  0
 30 31  1  0  0  0  0
 32 33  1  0  0  0  0
 32 64  1  0  0  0  0
 32 65  1  0  0  0  0
 33 66  1  0  0  0  0
 33 67  1  0  0  0  0
 33 68  1  0  0  0  0
M  END
> <PUBCHEM_COMPOUND_CID>
4547

> <PUBCHEM_CONFORMER_RMSD>
1.2

> <PUBCHEM_CONFORMER_DIVERSEORDER>
1
116
105
152
51
100
151
143
161
91
65
153
156
162
94
32
59
149
107
157
133
17
95
71
160
159
128
155
43
96
57
114
164
61
60
70
158
168
136
77
112
86
38
64
9
90
135
108
80
170
138
81
104
106
82
44
89
26
79
150
93
25
165
148
117
141
130
87
111
125
154
131
47
120
58
24
126
68
102
50
88
139
121
99
92
147
35
144
21
122
163
169
145
101
62
55
132
127
41
14
29
6
140
53
110
76
45
67
52
113
13
97
167
118
134
129
23
115
11
124
34
69
103
37
72
42
7
137
8
98
73
119
109
18
40
20
2
15
56
123
146
39
19
31
5
49
54
83
74
12
36
16
46
30
27
22
66
10
85
166
28
84
142
3
4
78
48
63
75
33

> <PUBCHEM_MMFF94_PARTIAL_CHARGES>
34
1 -0.57
12 0.44
13 0.1
14 -0.14
17 -0.15
18 -0.15
2 -0.36
21 -0.15
22 -0.15
23 0.57
24 0.2
25 -0.14
26 -0.15
27 -0.15
28 0.08
29 -0.15
3 -0.65
30 0.09
31 0.63
32 0.28
4 -0.57
48 0.15
49 0.37
5 -0.84
50 0.15
57 0.15
58 0.15
6 -0.73
61 0.15
62 0.15
63 0.15
69 0.5
7 0.37
8 0.37

> <PUBCHEM_EFFECTIVE_ROTOR_COUNT>
12.2

> <PUBCHEM_PHARMACOPHORE_FEATURES>
11
1 1 acceptor
1 2 acceptor
1 3 acceptor
1 4 acceptor
1 5 cation
1 6 donor
3 16 19 20 hydrophobe
3 3 4 31 anion
6 13 14 17 18 21 22 rings
6 25 26 27 28 29 30 rings
6 5 7 8 9 10 11 rings

> <PUBCHEM_HEAVY_ATOM_COUNT>
33

> <PUBCHEM_ATOM_DEF_STEREO_COUNT>
0

> <PUBCHEM_ATOM_UDEF_STEREO_COUNT>
1

> <PUBCHEM_BOND_DEF_STEREO_COUNT>
0

> <PUBCHEM_BOND_UDEF_STEREO_COUNT>
0

> <PUBCHEM_ISOTOPIC_ATOM_COUNT>
0

> <PUBCHEM_COMPONENT_COUNT>
1

> <PUBCHEM_CACTVS_TAUTO_COUNT>
2

> <PUBCHEM_CONFORMER_ID>
000011C300000001

> <PUBCHEM_MMFF94_ENERGY>
98.345

> <PUBCHEM_FEATURE_SELFOVERLAP>
55.88

> <PUBCHEM_SHAPE_FINGERPRINT>
11069576 57 17315060289402820103
11331351 85 17698455647707454026
11488393 25 14273445990725366198
11582403 64 18123735475510988312
12156800 1 17242747372818637636
13617811 41 18113332029923504945
13726171 33 18117538657767281841
14932701 244 17699552651269494667
17809404 112 17240209841631586783
17980427 23 18340778104207723834
21033648 29 15267073518705908077
23419403 2 16701483220476099594
23559900 14 17749941288726289031
3052486 1 17677056745995935326
3493558 16 16902990423702535678
3737641 26 8933906286866366412
376196 1 17979326717830964372
437795 51 13913157921772850832
5081480 168 15625943208847709874
513532 50 18060123358612521238
5895379 119 18121769793054022328

> <PUBCHEM_SHAPE_MULTIPOLES>
645.69
12.78
3.69
3.65
16.93
3.72
-0.76
-2.65
-1.36
0.53
0.65
-7.3
-1.79
2.32

> <PUBCHEM_SHAPE_SELFOVERLAP>
1349.661

> <PUBCHEM_SHAPE_VOLUME>
365

> <PUBCHEM_COORDINATE_TYPE>
2
5
10

$$$$

