12899
  -OEChem-06261207313D

 33 34  0     0  0  0  0  0  0999 V2000
   -3.5469    0.7203    3.5912 Cl  0  0  0  0  0  0  0  0  0  0  0  0
   -2.7740    2.3419   -3.2829 Cl  0  0  0  0  0  0  0  0  0  0  0  0
    2.9051    2.6281    0.4794 O   0  0  0  0  0  0  0  0  0  0  0  0
    4.7120    1.2737    0.3211 O   0  0  0  0  0  0  0  0  0  0  0  0
   -1.8518    0.1317   -0.0288 N   0  0  0  0  0  0  0  0  0  0  0  0
    1.1555    0.5687    0.1171 N   0  0  0  0  0  0  0  0  0  0  0  0
   -0.8849   -0.8814   -0.1591 C   0  0  0  0  0  0  0  0  0  0  0  0
    0.4875   -0.6184   -0.0828 C   0  0  0  0  0  0  0  0  0  0  0  0
    1.4547   -1.6176   -0.2110 C   0  0  0  0  0  0  0  0  0  0  0  0
   -2.8408    0.0756    1.0319 C   0  0  0  0  0  0  0  0  0  0  0  0
   -1.8684    1.2577   -0.9444 C   0  0  0  0  0  0  0  0  0  0  0  0
   -1.2784   -2.2056   -0.3732 C   0  0  0  0  0  0  0  0  0  0  0  0
    2.7246   -0.9888   -0.0808 C   0  0  0  0  0  0  0  0  0  0  0  0
    2.5077    0.3550    0.1197 C   0  0  0  0  0  0  0  0  0  0  0  0
    1.0341   -2.9451   -0.4263 C   0  0  0  0  0  0  0  0  0  0  0  0
   -0.3354   -3.2230   -0.5051 C   0  0  0  0  0  0  0  0  0  0  0  0
   -2.3367    0.7738    2.2851 C   0  0  0  0  0  0  0  0  0  0  0  0
   -2.7376    0.9623   -2.1566 C   0  0  0  0  0  0  0  0  0  0  0  0
    3.4738    1.3912    0.3053 C   0  0  0  0  0  0  0  0  0  0  0  0
   -3.7690    0.5551    0.6953 H   0  0  0  0  0  0  0  0  0  0  0  0
   -3.1119   -0.9611    1.2667 H   0  0  0  0  0  0  0  0  0  0  0  0
   -2.2510    2.1475   -0.4283 H   0  0  0  0  0  0  0  0  0  0  0  0
   -0.8621    1.5226   -1.2849 H   0  0  0  0  0  0  0  0  0  0  0  0
    0.7135    1.4654    0.2646 H   0  0  0  0  0  0  0  0  0  0  0  0
   -2.3331   -2.4607   -0.4515 H   0  0  0  0  0  0  0  0  0  0  0  0
    3.6908   -1.4734   -0.1296 H   0  0  0  0  0  0  0  0  0  0  0  0
    1.7583   -3.7478   -0.5314 H   0  0  0  0  0  0  0  0  0  0  0  0
   -0.6655   -4.2446   -0.6737 H   0  0  0  0  0  0  0  0  0  0  0  0
   -1.4257    0.2985    2.6626 H   0  0  0  0  0  0  0  0  0  0  0  0
   -2.1096    1.8264    2.0894 H   0  0  0  0  0  0  0  0  0  0  0  0
   -2.3616    0.0966   -2.7109 H   0  0  0  0  0  0  0  0  0  0  0  0
   -3.7702    0.7501   -1.8621 H   0  0  0  0  0  0  0  0  0  0  0  0
    3.5851    3.3241    0.6048 H   0  0  0  0  0  0  0  0  0  0  0  0
  1 17  1  0  0  0  0
  2 18  1  0  0  0  0
  3 19  1  0  0  0  0
  3 33  1  0  0  0  0
  4 19  2  0  0  0  0
  5  7  1  0  0  0  0
  5 10  1  0  0  0  0
  5 11  1  0  0  0  0
  6  8  1  0  0  0  0
  6 14  1  0  0  0  0
  6 24  1  0  0  0  0
  7  8  1  0  0  0  0
  7 12  2  0  0  0  0
  8  9  2  0  0  0  0
  9 13  1  0  0  0  0
  9 15  1  0  0  0  0
 10 17  1  0  0  0  0
 10 20  1  0  0  0  0
 10 21  1  0  0  0  0
 11 18  1  0  0  0  0
 11 22  1  0  0  0  0
 11 23  1  0  0  0  0
 12 16  1  0  0  0  0
 12 25  1  0  0  0  0
 13 14  2  0  0  0  0
 13 26  1  0  0  0  0
 14 19  1  0  0  0  0
 15 16  2  0  0  0  0
 15 27  1  0  0  0  0
 16 28  1  0  0  0  0
 17 29  1  0  0  0  0
 17 30  1  0  0  0  0
 18 31  1  0  0  0  0
 18 32  1  0  0  0  0
M  END
> <PUBCHEM_COMPOUND_CID>
12899

> <PUBCHEM_CONFORMER_RMSD>
0.8

> <PUBCHEM_CONFORMER_DIVERSEORDER>
1
15
26
13
19
2
4
12
21
23
28
14
29
25
27
30
16
10
22
8
24
20
3
18
17
6
9
7
31
11
5

> <PUBCHEM_MMFF94_PARTIAL_CHARGES>
24
1 -0.29
10 0.37
11 0.37
12 -0.15
13 -0.15
14 -0.24
15 -0.15
16 -0.15
17 0.29
18 0.29
19 0.81
2 -0.29
24 0.27
25 0.15
26 0.15
27 0.15
28 0.15
3 -0.65
33 0.5
4 -0.57
5 -0.84
6 0.03
7 0.1
8 -0.15

> <PUBCHEM_EFFECTIVE_ROTOR_COUNT>
6

> <PUBCHEM_PHARMACOPHORE_FEATURES>
8
1 3 acceptor
1 4 acceptor
1 5 cation
1 6 cation
1 6 donor
3 3 4 19 anion
5 6 8 9 13 14 rings
6 7 8 9 12 15 16 rings

> <PUBCHEM_HEAVY_ATOM_COUNT>
19

> <PUBCHEM_ATOM_DEF_STEREO_COUNT>
0

> <PUBCHEM_ATOM_UDEF_STEREO_COUNT>
0

> <PUBCHEM_BOND_DEF_STEREO_COUNT>
0

> <PUBCHEM_BOND_UDEF_STEREO_COUNT>
0

> <PUBCHEM_ISOTOPIC_ATOM_COUNT>
0

> <PUBCHEM_COMPONENT_COUNT>
1

> <PUBCHEM_CACTVS_TAUTO_COUNT>
2

> <PUBCHEM_CONFORMER_ID>
0000326300000001

> <PUBCHEM_MMFF94_ENERGY>
48.1475

> <PUBCHEM_FEATURE_SELFOVERLAP>
40.747

> <PUBCHEM_SHAPE_FINGERPRINT>
10871710 139 17267783166315026188
11582403 64 17056161537705922581
11640471 11 17096645607306344017
11725454 13 17415590806409794397
12077114 3 18059592281722400556
12173636 292 17749661887986472234
12549972 3 17344063241184614643
12730499 353 18126581226262367317
13140716 1 18335129913029111938
13294875 104 16049869989025121093
13583140 156 17703515454104922008
14142880 1 18116145584845086705
14468879 13 17987816192741993085
14614273 12 18339369539122623462
14787075 74 17750230306171960683
14817 1 14061268992485382431
15342168 16 18335124380826157665
15534591 1 17313089861291463795
16945 1 18191587660447021614
18186145 218 18333446539372819950
18219364 16 18412267233164098020
20510252 161 17757556257299952874
20600515 1 17469878883598981663
21041028 32 17253967154045247186
21524375 3 18337674109820926058
21639500 275 18193291903406433439
21756936 100 17531231843134896632
22182937 141 17970053466367461746
23419403 2 17840005662017273435
23557571 272 17273962713968192581
23559900 14 18186793661987069886
238 59 18122369005320709485
2748010 2 18200592630370623558
31174 14 17978202161921526427
474 4 18042392681258157019
6049 1 17843100752763286447
621550 5 17119678228556919647
633830 44 17822279215543130396
81228 2 17908134383203196458
9981440 41 18127437697927151321

> <PUBCHEM_SHAPE_MULTIPOLES>
373.05
6.34
3.16
2.73
2.77
0.9
-1.31
-4.56
-2.55
1.11
1.95
-5.46
-1.62
2.54

> <PUBCHEM_SHAPE_SELFOVERLAP>
767.946

> <PUBCHEM_SHAPE_VOLUME>
218.5

> <PUBCHEM_COORDINATE_TYPE>
2
5
10

$$$$

