17396441
  -OEChem-06241222562D

 36 37  0     0  0  0  0  0  0999 V2000
    8.1097    2.2420    0.0000 S   0  0  0  0  0  0  0  0  0  0  0  0
    6.3301   -0.8512    0.0000 O   0  0  0  0  0  0  0  0  0  0  0  0
    2.8660   -1.8512    0.0000 O   0  0  0  0  0  0  0  0  0  0  0  0
    4.5981   -0.8512    0.0000 N   0  0  0  0  0  0  0  0  0  0  0  0
    6.3301    1.1488    0.0000 C   0  0  0  0  0  0  0  0  0  0  0  0
    6.3301    2.1488    0.0000 C   0  0  0  0  0  0  0  0  0  0  0  0
    5.4641    0.6488    0.0000 C   0  0  0  0  0  0  0  0  0  0  0  0
    7.1962    2.6488    0.0000 C   0  0  0  0  0  0  0  0  0  0  0  0
    5.4641   -0.3512    0.0000 C   0  0  0  0  0  0  0  0  0  0  0  0
    4.5981   -1.8512    0.0000 C   0  0  0  0  0  0  0  0  0  0  0  0
    7.3007    3.6433    0.0000 C   0  0  0  0  0  0  0  0  0  0  0  0
    3.7320   -2.3512    0.0000 C   0  0  0  0  0  0  0  0  0  0  0  0
    5.4641   -2.3512    0.0000 C   0  0  0  0  0  0  0  0  0  0  0  0
    8.2788    3.8512    0.0000 C   0  0  0  0  0  0  0  0  0  0  0  0
    8.7788    2.9852    0.0000 C   0  0  0  0  0  0  0  0  0  0  0  0
    3.7320   -3.3512    0.0000 C   0  0  0  0  0  0  0  0  0  0  0  0
    5.4641   -3.3512    0.0000 C   0  0  0  0  0  0  0  0  0  0  0  0
    4.5981   -3.8512    0.0000 C   0  0  0  0  0  0  0  0  0  0  0  0
    2.0000   -2.3512    0.0000 C   0  0  0  0  0  0  0  0  0  0  0  0
    6.5422    0.5662    0.0000 H   0  0  0  0  0  0  0  0  0  0  0  0
    6.9407    1.2564    0.0000 H   0  0  0  0  0  0  0  0  0  0  0  0
    6.1181    2.7314    0.0000 H   0  0  0  0  0  0  0  0  0  0  0  0
    5.7196    2.0411    0.0000 H   0  0  0  0  0  0  0  0  0  0  0  0
    5.2520    1.2314    0.0000 H   0  0  0  0  0  0  0  0  0  0  0  0
    4.8535    0.5411    0.0000 H   0  0  0  0  0  0  0  0  0  0  0  0
    4.0611   -0.5412    0.0000 H   0  0  0  0  0  0  0  0  0  0  0  0
    6.8399    4.0582    0.0000 H   0  0  0  0  0  0  0  0  0  0  0  0
    6.0010   -2.0412    0.0000 H   0  0  0  0  0  0  0  0  0  0  0  0
    8.5310    4.4176    0.0000 H   0  0  0  0  0  0  0  0  0  0  0  0
    9.3954    2.9204    0.0000 H   0  0  0  0  0  0  0  0  0  0  0  0
    3.1951   -3.6612    0.0000 H   0  0  0  0  0  0  0  0  0  0  0  0
    6.0010   -3.6612    0.0000 H   0  0  0  0  0  0  0  0  0  0  0  0
    4.5981   -4.4712    0.0000 H   0  0  0  0  0  0  0  0  0  0  0  0
    1.6900   -1.8143    0.0000 H   0  0  0  0  0  0  0  0  0  0  0  0
    1.4631   -2.6612    0.0000 H   0  0  0  0  0  0  0  0  0  0  0  0
    2.3100   -2.8882    0.0000 H   0  0  0  0  0  0  0  0  0  0  0  0
  1  8  1  0  0  0  0
  1 15  1  0  0  0  0
  2  9  2  0  0  0  0
  3 12  1  0  0  0  0
  3 19  1  0  0  0  0
  4  9  1  0  0  0  0
  4 10  1  0  0  0  0
  4 26  1  0  0  0  0
  5  6  1  0  0  0  0
  5  7  1  0  0  0  0
  5 20  1  0  0  0  0
  5 21  1  0  0  0  0
  6  8  1  0  0  0  0
  6 22  1  0  0  0  0
  6 23  1  0  0  0  0
  7  9  1  0  0  0  0
  7 24  1  0  0  0  0
  7 25  1  0  0  0  0
  8 11  2  0  0  0  0
 10 12  1  0  0  0  0
 10 13  2  0  0  0  0
 11 14  1  0  0  0  0
 11 27  1  0  0  0  0
 12 16  2  0  0  0  0
 13 17  1  0  0  0  0
 13 28  1  0  0  0  0
 14 15  2  0  0  0  0
 14 29  1  0  0  0  0
 15 30  1  0  0  0  0
 16 18  1  0  0  0  0
 16 31  1  0  0  0  0
 17 18  2  0  0  0  0
 17 32  1  0  0  0  0
 18 33  1  0  0  0  0
 19 34  1  0  0  0  0
 19 35  1  0  0  0  0
 19 36  1  0  0  0  0
M  END
> <PUBCHEM_COMPOUND_CID>
17396441

> <PUBCHEM_COMPOUND_CANONICALIZED>
1

> <PUBCHEM_CACTVS_COMPLEXITY>
285

> <PUBCHEM_CACTVS_HBOND_ACCEPTOR>
3

> <PUBCHEM_CACTVS_HBOND_DONOR>
1

> <PUBCHEM_CACTVS_ROTATABLE_BOND>
6

> <PUBCHEM_CACTVS_SUBSKEYS>
AAADceByMABAAAAAAAAAAAAAAAAAASAAAAAwAAAAAAAAAAABwAAAHgQQAAAACAyF0AKyx4LABAiMACVSUACDCIAhKhBIiBkHbIgOJjLksZuFMChk1BH46AeYyICAAAAAAAAAEAAAAAAAAAAgAAAAAAAAAA==

> <PUBCHEM_IUPAC_OPENEYE_NAME>
N-(2-methoxyphenyl)-4-(2-thienyl)butanamide

> <PUBCHEM_IUPAC_CAS_NAME>
N-(2-methoxyphenyl)-4-thiophen-2-ylbutanamide

> <PUBCHEM_IUPAC_NAME>
N-(2-methoxyphenyl)-4-thiophen-2-ylbutanamide

> <PUBCHEM_IUPAC_SYSTEMATIC_NAME>
N-(2-methoxyphenyl)-4-thiophen-2-yl-butanamide

> <PUBCHEM_IUPAC_TRADITIONAL_NAME>
N-(2-methoxyphenyl)-4-(2-thienyl)butyramide

> <PUBCHEM_IUPAC_INCHI>
InChI=1S/C15H17NO2S/c1-18-14-9-3-2-8-13(14)16-15(17)10-4-6-12-7-5-11-19-12/h2-3,5,7-9,11H,4,6,10H2,1H3,(H,16,17)

> <PUBCHEM_IUPAC_INCHIKEY>
WQWIEXUAWPGUKK-UHFFFAOYSA-N

> <PUBCHEM_XLOGP3_AA>
3

> <PUBCHEM_EXACT_MASS>
275.098

> <PUBCHEM_MOLECULAR_FORMULA>
C15H17NO2S

> <PUBCHEM_MOLECULAR_WEIGHT>
275.36598

> <PUBCHEM_OPENEYE_CAN_SMILES>
COC1=CC=CC=C1NC(=O)CCCC2=CC=CS2

> <PUBCHEM_OPENEYE_ISO_SMILES>
COC1=CC=CC=C1NC(=O)CCCC2=CC=CS2

> <PUBCHEM_CACTVS_TPSA>
66.6

> <PUBCHEM_MONOISOTOPIC_WEIGHT>
275.098

> <PUBCHEM_TOTAL_CHARGE>
0

> <PUBCHEM_HEAVY_ATOM_COUNT>
19

> <PUBCHEM_ATOM_DEF_STEREO_COUNT>
0

> <PUBCHEM_ATOM_UDEF_STEREO_COUNT>
0

> <PUBCHEM_BOND_DEF_STEREO_COUNT>
0

> <PUBCHEM_BOND_UDEF_STEREO_COUNT>
0

> <PUBCHEM_ISOTOPIC_ATOM_COUNT>
0

> <PUBCHEM_COMPONENT_COUNT>
1

> <PUBCHEM_CACTVS_TAUTO_COUNT>
3

> <PUBCHEM_COORDINATE_TYPE>
1
5
255

> <PUBCHEM_BONDANNOTATIONS>
1  15  8
1  8  8
10  12  8
10  13  8
11  14  8
12  16  8
13  17  8
14  15  8
16  18  8
17  18  8
8  11  8

$$$$

