3664636
  -OEChem-07051213043D

 41 43  0     1  0  0  0  0  0999 V2000
    0.4938   -0.2882   -0.3223 C   0  0  0  0  0  0  0  0  0  0  0  0
   -0.3958   -1.2764    0.5412 C   0  0  1  0  0  0  0  0  0  0  0  0
    0.1671    1.1584   -0.1641 C   0  0  0  0  0  0  0  0  0  0  0  0
    2.0036   -0.5507   -0.1530 C   0  0  0  0  0  0  0  0  0  0  0  0
   -1.8807   -1.1359    0.2133 C   0  0  0  0  0  0  0  0  0  0  0  0
    0.0119   -2.7524    0.3838 C   0  0  0  0  0  0  0  0  0  0  0  0
    0.3730    2.0399   -1.2254 C   0  0  0  0  0  0  0  0  0  0  0  0
    2.6689    0.1171    0.8419 C   0  0  0  0  0  0  0  0  0  0  0  0
   -0.3447    1.6298    1.0448 C   0  0  0  0  0  0  0  0  0  0  0  0
    2.6057   -1.4392   -1.0051 C   0  0  0  0  0  0  0  0  0  0  0  0
   -2.2492   -0.8760   -1.0882 C   0  0  0  0  0  0  0  0  0  0  0  0
   -2.7992   -1.2745    1.2303 C   0  0  0  0  0  0  0  0  0  0  0  0
    0.0673    3.3929   -1.0777 C   0  0  0  0  0  0  0  0  0  0  0  0
    4.0349   -0.1204    0.9954 C   0  0  0  0  0  0  0  0  0  0  0  0
   -0.6504    2.9828    1.1924 C   0  0  0  0  0  0  0  0  0  0  0  0
    3.9717   -1.6768   -0.8514 C   0  0  0  0  0  0  0  0  0  0  0  0
   -3.6055   -0.7478   -1.3879 C   0  0  0  0  0  0  0  0  0  0  0  0
   -4.1555   -1.1464    0.9305 C   0  0  0  0  0  0  0  0  0  0  0  0
   -0.4445    3.8642    0.1311 C   0  0  0  0  0  0  0  0  0  0  0  0
    4.6861   -1.0173    0.1489 C   0  0  0  0  0  0  0  0  0  0  0  0
   -4.5585   -0.8831   -0.3787 C   0  0  0  0  0  0  0  0  0  0  0  0
    0.3142   -0.5238   -1.3790 H   0  0  0  0  0  0  0  0  0  0  0  0
   -0.2424   -1.0477    1.6039 H   0  0  0  0  0  0  0  0  0  0  0  0
   -0.6702   -3.4086    0.9373 H   0  0  0  0  0  0  0  0  0  0  0  0
   -0.0163   -3.0656   -0.6657 H   0  0  0  0  0  0  0  0  0  0  0  0
    1.0146   -2.9393    0.7793 H   0  0  0  0  0  0  0  0  0  0  0  0
    0.7717    1.6879   -2.1732 H   0  0  0  0  0  0  0  0  0  0  0  0
    2.1914    0.8005    1.5333 H   0  0  0  0  0  0  0  0  0  0  0  0
   -0.4987    0.9917    1.9075 H   0  0  0  0  0  0  0  0  0  0  0  0
    2.0597   -1.9550   -1.7882 H   0  0  0  0  0  0  0  0  0  0  0  0
   -1.5571   -0.8052   -1.9169 H   0  0  0  0  0  0  0  0  0  0  0  0
   -2.4935   -1.4809    2.2514 H   0  0  0  0  0  0  0  0  0  0  0  0
    0.2281    4.0794   -1.9037 H   0  0  0  0  0  0  0  0  0  0  0  0
    4.5904    0.3883    1.7779 H   0  0  0  0  0  0  0  0  0  0  0  0
   -1.0433    3.3516    2.1354 H   0  0  0  0  0  0  0  0  0  0  0  0
    4.4791   -2.3750   -1.5106 H   0  0  0  0  0  0  0  0  0  0  0  0
   -3.9207   -0.5526   -2.4089 H   0  0  0  0  0  0  0  0  0  0  0  0
   -4.8977   -1.2525    1.7163 H   0  0  0  0  0  0  0  0  0  0  0  0
   -0.6812    4.9179    0.2466 H   0  0  0  0  0  0  0  0  0  0  0  0
    5.7493   -1.2034    0.2693 H   0  0  0  0  0  0  0  0  0  0  0  0
   -5.6146   -0.7857   -0.6125 H   0  0  0  0  0  0  0  0  0  0  0  0
  1  2  1  0  0  0  0
  1  3  1  0  0  0  0
  1  4  1  0  0  0  0
  1 22  1  0  0  0  0
  2  5  1  0  0  0  0
  2  6  1  0  0  0  0
  2 23  1  0  0  0  0
  3  7  2  0  0  0  0
  3  9  1  0  0  0  0
  4  8  2  0  0  0  0
  4 10  1  0  0  0  0
  5 11  2  0  0  0  0
  5 12  1  0  0  0  0
  6 24  1  0  0  0  0
  6 25  1  0  0  0  0
  6 26  1  0  0  0  0
  7 13  1  0  0  0  0
  7 27  1  0  0  0  0
  8 14  1  0  0  0  0
  8 28  1  0  0  0  0
  9 15  2  0  0  0  0
  9 29  1  0  0  0  0
 10 16  2  0  0  0  0
 10 30  1  0  0  0  0
 11 17  1  0  0  0  0
 11 31  1  0  0  0  0
 12 18  2  0  0  0  0
 12 32  1  0  0  0  0
 13 19  2  0  0  0  0
 13 33  1  0  0  0  0
 14 20  2  0  0  0  0
 14 34  1  0  0  0  0
 15 19  1  0  0  0  0
 15 35  1  0  0  0  0
 16 20  1  0  0  0  0
 16 36  1  0  0  0  0
 17 21  2  0  0  0  0
 17 37  1  0  0  0  0
 18 21  1  0  0  0  0
 18 38  1  0  0  0  0
 19 39  1  0  0  0  0
 20 40  1  0  0  0  0
 21 41  1  0  0  0  0
M  END
> <PUBCHEM_COMPOUND_CID>
3664636

> <PUBCHEM_CONFORMER_RMSD>
0.6

> <PUBCHEM_CONFORMER_DIVERSEORDER>
1
5
4
2
3

> <PUBCHEM_MMFF94_PARTIAL_CHARGES>
35
1 0.29
10 -0.15
11 -0.15
12 -0.15
13 -0.15
14 -0.15
15 -0.15
16 -0.15
17 -0.15
18 -0.15
19 -0.15
2 0.14
20 -0.15
21 -0.15
27 0.15
28 0.15
29 0.15
3 -0.14
30 0.15
31 0.15
32 0.15
33 0.15
34 0.15
35 0.15
36 0.15
37 0.15
38 0.15
39 0.15
4 -0.14
40 0.15
41 0.15
5 -0.14
7 -0.15
8 -0.15
9 -0.15

> <PUBCHEM_EFFECTIVE_ROTOR_COUNT>
4

> <PUBCHEM_PHARMACOPHORE_FEATURES>
4
1 6 hydrophobe
6 3 7 9 13 15 19 rings
6 4 8 10 14 16 20 rings
6 5 11 12 17 18 21 rings

> <PUBCHEM_HEAVY_ATOM_COUNT>
21

> <PUBCHEM_ATOM_DEF_STEREO_COUNT>
0

> <PUBCHEM_ATOM_UDEF_STEREO_COUNT>
1

> <PUBCHEM_BOND_DEF_STEREO_COUNT>
0

> <PUBCHEM_BOND_UDEF_STEREO_COUNT>
0

> <PUBCHEM_ISOTOPIC_ATOM_COUNT>
0

> <PUBCHEM_COMPONENT_COUNT>
1

> <PUBCHEM_CACTVS_TAUTO_COUNT>
1

> <PUBCHEM_CONFORMER_ID>
0037EAFC00000001

> <PUBCHEM_MMFF94_ENERGY>
74.4525

> <PUBCHEM_FEATURE_SELFOVERLAP>
20.297

> <PUBCHEM_SHAPE_FINGERPRINT>
10006869 2 17835239322577775313
104564 63 18266178512063308035
11578080 2 17097805553366305299
11646440 116 18409441514735962873
12553582 1 18336531734213574094
12788726 201 18341333379144127712
13004483 165 18337681900611818330
13132413 78 18408321090548815081
13134695 92 18189340082670447949
13140716 1 18411132571482007665
13149001 5 18056763135051182251
13294875 104 17611743405753662793
133893 2 17480049417752889942
13544653 18 18335141981427614932
13681431 1 18267864986601331780
13911987 19 18271233937795459014
13965767 371 17102236654341371307
14022347 108 18342730815315628714
14181834 199 18122913022894954125
14955137 171 18337941303994604003
15238133 3 18270379699360530933
15848700 24 18409173190274125918
16752209 62 18271533103752744466
16945 1 18123747552267993173
17138139 8 17471620905766540893
17357779 13 18335995232484047717
17980427 23 14779269674900661105
1813 80 18334845117535714222
18785283 64 17983283838508587513
20510252 161 18338240461424869114
20600515 1 18337100181777738762
21029758 11 18410578361913036383
21033648 29 17894921728281981267
21041028 32 18410283701766905377
21285901 2 18260828245438295870
21304303 282 17265577928125654476
21524375 3 17330828531437839800
21641784 216 18269818922555391980
229495 10 15936976365527563148
23175994 123 18342454825064544991
23402539 116 18335707156258998326
23419403 2 17750825222754959816
23557571 272 18411140277180220684
23558518 356 17912920883762826522
23559900 14 18342737391438040294
266924 87 18196377133060723182
283562 15 18339644559085215490
3027735 51 18194122047380902178
314173 85 18408884040370120794
350125 39 17907292513757363874
6992083 37 17894631414093769879
7364860 26 17978786813917231140
7471813 234 18041849407161795949
7495541 125 17702938124727983779
81228 2 18268421498577916560
9971528 1 18333733481479024803
9981440 41 16813262952615858440

> <PUBCHEM_SHAPE_MULTIPOLES>
432.17
7.32
3.73
1.33
1.07
4.71
-0.07
-6
0.01
-0.42
-0.07
-0.35
0.19
0.31

> <PUBCHEM_SHAPE_SELFOVERLAP>
940.908

> <PUBCHEM_SHAPE_VOLUME>
222.5

> <PUBCHEM_COORDINATE_TYPE>
2
5
10

$$$$

