16069998
  -OEChem-07051212482D

 75 77  0     1  0  0  0  0  0999 V2000
    6.0010   -2.5770    0.0000 O   0  0  0  0  0  0  0  0  0  0  0  0
    7.7331    0.4229    0.0000 O   0  0  0  0  0  0  0  0  0  0  0  0
    5.1350   -1.0770    0.0000 O   0  0  0  0  0  0  0  0  0  0  0  0
    6.0010   -0.5771    0.0000 O   0  0  0  0  0  0  0  0  0  0  0  0
    9.2331    1.2890    0.0000 O   0  0  0  0  0  0  0  0  0  0  0  0
    4.2690   -3.5770    0.0000 O   0  0  0  0  0  0  0  0  0  0  0  0
    2.9030   -0.2110    0.0000 O   0  0  0  0  0  0  0  0  0  0  0  0
    5.2331    3.0210    0.0000 O   0  0  0  0  0  0  0  0  0  0  0  0
    7.7331   -3.5770    0.0000 N   0  0  0  0  0  0  0  0  0  0  0  0
    9.5991   -1.0770    0.0000 N   0  0  0  0  0  0  0  0  0  0  0  0
    2.5369   -2.5770    0.0000 N   0  0  0  0  0  0  0  0  0  0  0  0
    6.7331    2.1550    0.0000 N   0  0  0  0  0  0  0  0  0  0  0  0
   11.2331    3.0210    0.0000 N   0  0  0  0  0  0  0  0  0  0  0  0
    6.8671   -2.0770    0.0000 C   0  0  2  0  0  0  0  0  0  0  0  0
    7.7331   -0.5771    0.0000 C   0  0  1  0  0  0  0  0  0  0  0  0
    6.8671   -1.0770    0.0000 C   0  0  2  0  0  0  0  0  0  0  0  0
    7.7331   -2.5770    0.0000 C   0  0  1  0  0  0  0  0  0  0  0  0
    8.5991   -1.0770    0.0000 C   0  0  2  0  0  0  0  0  0  0  0  0
    8.5991   -2.0770    0.0000 C   0  0  0  0  0  0  0  0  0  0  0  0
    5.1350   -2.0770    0.0000 C   0  0  1  0  0  0  0  0  0  0  0  0
    3.4030   -2.0770    0.0000 C   0  0  2  0  0  0  0  0  0  0  0  0
    4.2690   -2.5770    0.0000 C   0  0  1  0  0  0  0  0  0  0  0  0
    3.4030   -1.0770    0.0000 C   0  0  2  0  0  0  0  0  0  0  0  0
    8.2331    1.2890    0.0000 C   0  0  1  0  0  0  0  0  0  0  0  0
    7.7331    2.1550    0.0000 C   0  0  1  0  0  0  0  0  0  0  0  0
    4.2690   -0.5771    0.0000 C   0  0  0  0  0  0  0  0  0  0  0  0
    8.2331    3.0210    0.0000 C   0  0  0  0  0  0  0  0  0  0  0  0
    9.7331    2.1550    0.0000 C   0  0  1  0  0  0  0  0  0  0  0  0
    9.2331    3.0210    0.0000 C   0  0  0  0  0  0  0  0  0  0  0  0
    2.4030   -1.0770    0.0000 C   0  0  0  0  0  0  0  0  0  0  0  0
   10.7331    2.1550    0.0000 C   0  0  0  0  0  0  0  0  0  0  0  0
    2.5369   -3.5770    0.0000 C   0  0  0  0  0  0  0  0  0  0  0  0
    6.2331    3.0210    0.0000 C   0  0  0  0  0  0  0  0  0  0  0  0
    6.7331    3.8870    0.0000 C   0  0  0  0  0  0  0  0  0  0  0  0
    6.3301   -1.7670    0.0000 H   0  0  0  0  0  0  0  0  0  0  0  0
    8.2700   -0.2671    0.0000 H   0  0  0  0  0  0  0  0  0  0  0  0
    6.3301   -1.3870    0.0000 H   0  0  0  0  0  0  0  0  0  0  0  0
    8.2700   -2.8870    0.0000 H   0  0  0  0  0  0  0  0  0  0  0  0
    8.7596   -0.4782    0.0000 H   0  0  0  0  0  0  0  0  0  0  0  0
    8.8112   -2.6597    0.0000 H   0  0  0  0  0  0  0  0  0  0  0  0
    9.2097   -1.9694    0.0000 H   0  0  0  0  0  0  0  0  0  0  0  0
    5.1350   -2.6970    0.0000 H   0  0  0  0  0  0  0  0  0  0  0  0
    3.4030   -2.6970    0.0000 H   0  0  0  0  0  0  0  0  0  0  0  0
    4.8059   -2.8870    0.0000 H   0  0  0  0  0  0  0  0  0  0  0  0
    7.6131    1.2890    0.0000 H   0  0  0  0  0  0  0  0  0  0  0  0
    7.4231    1.6181    0.0000 H   0  0  0  0  0  0  0  0  0  0  0  0
    4.6675   -0.1021    0.0000 H   0  0  0  0  0  0  0  0  0  0  0  0
    3.8705   -0.1021    0.0000 H   0  0  0  0  0  0  0  0  0  0  0  0
    8.2700   -3.8870    0.0000 H   0  0  0  0  0  0  0  0  0  0  0  0
    7.1962   -3.8870    0.0000 H   0  0  0  0  0  0  0  0  0  0  0  0
    9.9091   -1.6140    0.0000 H   0  0  0  0  0  0  0  0  0  0  0  0
    9.9091   -0.5401    0.0000 H   0  0  0  0  0  0  0  0  0  0  0  0
    8.3408    3.6316    0.0000 H   0  0  0  0  0  0  0  0  0  0  0  0
    7.6505    3.2331    0.0000 H   0  0  0  0  0  0  0  0  0  0  0  0
   10.0431    1.6181    0.0000 H   0  0  0  0  0  0  0  0  0  0  0  0
    9.8157    3.2331    0.0000 H   0  0  0  0  0  0  0  0  0  0  0  0
    9.1254    3.6316    0.0000 H   0  0  0  0  0  0  0  0  0  0  0  0
    6.0010    0.0429    0.0000 H   0  0  0  0  0  0  0  0  0  0  0  0
    2.4030   -0.4571    0.0000 H   0  0  0  0  0  0  0  0  0  0  0  0
    1.7830   -1.0770    0.0000 H   0  0  0  0  0  0  0  0  0  0  0  0
    2.4030   -1.6970    0.0000 H   0  0  0  0  0  0  0  0  0  0  0  0
    2.0000   -2.2670    0.0000 H   0  0  0  0  0  0  0  0  0  0  0  0
    6.4231    1.6181    0.0000 H   0  0  0  0  0  0  0  0  0  0  0  0
    4.8059   -3.8870    0.0000 H   0  0  0  0  0  0  0  0  0  0  0  0
   10.6254    1.5444    0.0000 H   0  0  0  0  0  0  0  0  0  0  0  0
   11.3157    1.9430    0.0000 H   0  0  0  0  0  0  0  0  0  0  0  0
    3.2130    0.3259    0.0000 H   0  0  0  0  0  0  0  0  0  0  0  0
    1.9169   -3.5770    0.0000 H   0  0  0  0  0  0  0  0  0  0  0  0
    2.5369   -4.1970    0.0000 H   0  0  0  0  0  0  0  0  0  0  0  0
    3.1569   -3.5770    0.0000 H   0  0  0  0  0  0  0  0  0  0  0  0
   11.8531    3.0210    0.0000 H   0  0  0  0  0  0  0  0  0  0  0  0
   10.9231    3.5580    0.0000 H   0  0  0  0  0  0  0  0  0  0  0  0
    7.2700    3.5770    0.0000 H   0  0  0  0  0  0  0  0  0  0  0  0
    7.0431    4.4240    0.0000 H   0  0  0  0  0  0  0  0  0  0  0  0
    6.1962    4.1970    0.0000 H   0  0  0  0  0  0  0  0  0  0  0  0
 14  1  1  6  0  0  0
 20  1  1  6  0  0  0
 15  2  1  6  0  0  0
 24  2  1  6  0  0  0
  3 20  1  0  0  0  0
  3 26  1  0  0  0  0
 16  4  1  1  0  0  0
  4 58  1  0  0  0  0
  5 24  1  0  0  0  0
  5 28  1  0  0  0  0
 22  6  1  6  0  0  0
  6 64  1  0  0  0  0
 23  7  1  1  0  0  0
  7 67  1  0  0  0  0
  8 33  2  0  0  0  0
 17  9  1  1  0  0  0
  9 49  1  0  0  0  0
  9 50  1  0  0  0  0
 18 10  1  1  0  0  0
 10 51  1  0  0  0  0
 10 52  1  0  0  0  0
 21 11  1  1  0  0  0
 11 32  1  0  0  0  0
 11 62  1  0  0  0  0
 25 12  1  6  0  0  0
 12 33  1  0  0  0  0
 12 63  1  0  0  0  0
 13 31  1  0  0  0  0
 13 71  1  0  0  0  0
 13 72  1  0  0  0  0
 14 16  1  0  0  0  0
 14 17  1  0  0  0  0
 14 35  1  0  0  0  0
 15 16  1  0  0  0  0
 15 18  1  0  0  0  0
 15 36  1  0  0  0  0
 16 37  1  0  0  0  0
 17 19  1  0  0  0  0
 17 38  1  0  0  0  0
 18 19  1  0  0  0  0
 18 39  1  0  0  0  0
 19 40  1  0  0  0  0
 19 41  1  0  0  0  0
 20 22  1  0  0  0  0
 20 42  1  0  0  0  0
 21 22  1  0  0  0  0
 21 23  1  0  0  0  0
 21 43  1  0  0  0  0
 22 44  1  0  0  0  0
 23 26  1  0  0  0  0
 23 30  1  0  0  0  0
 24 25  1  0  0  0  0
 24 45  1  0  0  0  0
 25 27  1  0  0  0  0
 25 46  1  0  0  0  0
 26 47  1  0  0  0  0
 26 48  1  0  0  0  0
 27 29  1  0  0  0  0
 27 53  1  0  0  0  0
 27 54  1  0  0  0  0
 28 29  1  0  0  0  0
 28 31  1  1  0  0  0
 28 55  1  0  0  0  0
 29 56  1  0  0  0  0
 29 57  1  0  0  0  0
 30 59  1  0  0  0  0
 30 60  1  0  0  0  0
 30 61  1  0  0  0  0
 31 65  1  0  0  0  0
 31 66  1  0  0  0  0
 32 68  1  0  0  0  0
 32 69  1  0  0  0  0
 32 70  1  0  0  0  0
 33 34  1  0  0  0  0
 34 73  1  0  0  0  0
 34 74  1  0  0  0  0
 34 75  1  0  0  0  0
M  END
> <PUBCHEM_COMPOUND_CID>
16069998

> <PUBCHEM_COMPOUND_CANONICALIZED>
1

> <PUBCHEM_CACTVS_COMPLEXITY>
692

> <PUBCHEM_CACTVS_HBOND_ACCEPTOR>
12

> <PUBCHEM_CACTVS_HBOND_DONOR>
8

> <PUBCHEM_CACTVS_ROTATABLE_BOND>
7

> <PUBCHEM_CACTVS_SUBSKEYS>
AAADcfB7vAAAAAAAAAAAAAAAAAAAAAAAAAA0SIAAAAAAAAAAAAAAHgAQCAAADHzxgAcCCALABgAIAAEQEAAAAAAAAAAAAIAIAAATEAIAwAAnQAAHFgCXAAHwcA0MAAAAAAAAAAAAgAAUCACgAAAAAAAAAA==

> <PUBCHEM_IUPAC_OPENEYE_NAME>
N-[(2R,3R,6S)-6-(aminomethyl)-2-[(1R,2S,3S,4R,6S)-4,6-diamino-3-[(2R,3R,4R,5R)-3,5-dihydroxy-5-methyl-4-(methylamino)tetrahydropyran-2-yl]oxy-2-hydroxy-cyclohexoxy]tetrahydropyran-3-yl]acetamide

> <PUBCHEM_IUPAC_CAS_NAME>
N-[(2R,3R,6S)-6-(aminomethyl)-2-[(1R,2S,3S,4R,6S)-4,6-diamino-3-[[(2R,3R,4R,5R)-3,5-dihydroxy-5-methyl-4-(methylamino)-2-oxanyl]oxy]-2-hydroxycyclohexyl]oxy-3-oxanyl]acetamide

> <PUBCHEM_IUPAC_NAME>
N-[(2R,3R,6S)-6-(aminomethyl)-2-[(1R,2S,3S,4R,6S)-4,6-diamino-3-[(2R,3R,4R,5R)-3,5-dihydroxy-5-methyl-4-(methylamino)oxan-2-yl]oxy-2-hydroxycyclohexyl]oxyoxan-3-yl]acetamide

> <PUBCHEM_IUPAC_SYSTEMATIC_NAME>
N-[(2R,3R,6S)-6-(aminomethyl)-2-[(1R,2S,3S,4R,6S)-4,6-bis(azanyl)-3-[(2R,3R,4R,5R)-5-methyl-4-(methylamino)-3,5-bis(oxidanyl)oxan-2-yl]oxy-2-oxidanyl-cyclohexyl]oxy-oxan-3-yl]ethanamide

> <PUBCHEM_IUPAC_TRADITIONAL_NAME>
N-[(2R,3R,6S)-6-(aminomethyl)-2-[(1R,2S,3S,4R,6S)-4,6-diamino-3-[(2R,3R,4R,5R)-3,5-dihydroxy-5-methyl-4-(methylamino)tetrahydropyran-2-yl]oxy-2-hydroxy-cyclohexoxy]tetrahydropyran-3-yl]acetamide

> <PUBCHEM_IUPAC_INCHI>
InChI=1S/C21H41N5O8/c1-9(27)26-13-5-4-10(7-22)32-19(13)33-16-11(23)6-12(24)17(14(16)28)34-20-15(29)18(25-3)21(2,30)8-31-20/h10-20,25,28-30H,4-8,22-24H2,1-3H3,(H,26,27)/t10-,11-,12+,13+,14-,15+,16+,17-,18+,19+,20+,21-/m0/s1

> <PUBCHEM_IUPAC_INCHIKEY>
RLGSXXMFPPOROB-JOYMZIHVSA-N

> <PUBCHEM_XLOGP3_AA>
-4.8

> <PUBCHEM_EXACT_MASS>
491.295513

> <PUBCHEM_MOLECULAR_FORMULA>
C21H41N5O8

> <PUBCHEM_MOLECULAR_WEIGHT>
491.57894

> <PUBCHEM_OPENEYE_CAN_SMILES>
CC(=O)NC1CCC(OC1OC2C(CC(C(C2O)OC3C(C(C(CO3)(C)O)NC)O)N)N)CN

> <PUBCHEM_OPENEYE_ISO_SMILES>
CC(=O)N[C@@H]1CC[C@H](O[C@@H]1O[C@@H]2[C@H](C[C@H]([C@@H]([C@H]2O)O[C@@H]3[C@@H]([C@H]([C@@](CO3)(C)O)NC)O)N)N)CN

> <PUBCHEM_CACTVS_TPSA>
217

> <PUBCHEM_MONOISOTOPIC_WEIGHT>
491.295513

> <PUBCHEM_TOTAL_CHARGE>
0

> <PUBCHEM_HEAVY_ATOM_COUNT>
34

> <PUBCHEM_ATOM_DEF_STEREO_COUNT>
12

> <PUBCHEM_ATOM_UDEF_STEREO_COUNT>
0

> <PUBCHEM_BOND_DEF_STEREO_COUNT>
0

> <PUBCHEM_BOND_UDEF_STEREO_COUNT>
0

> <PUBCHEM_ISOTOPIC_ATOM_COUNT>
0

> <PUBCHEM_COMPONENT_COUNT>
1

> <PUBCHEM_CACTVS_TAUTO_COUNT>
2

> <PUBCHEM_COORDINATE_TYPE>
1
5
255

> <PUBCHEM_BONDANNOTATIONS>
14  1  6
20  1  6
18  10  5
21  11  5
25  12  6
15  2  6
24  2  6
28  31  5
16  4  5
22  6  6
23  7  5
17  9  5

$$$$

