47205503
  -OEChem-06241222593D

 38 40  0     1  0  0  0  0  0999 V2000
   -1.2166    1.4979    0.6867 S   0  0  0  0  0  0  0  0  0  0  0  0
    1.2997   -2.3419   -0.2106 O   0  0  0  0  0  0  0  0  0  0  0  0
   -1.3289   -0.8700   -0.3298 N   0  0  0  0  0  0  0  0  0  0  0  0
    0.7991   -0.1686    0.5542 N   0  0  0  0  0  0  0  0  0  0  0  0
    3.7164    0.1231    0.1373 N   0  0  0  0  0  0  0  0  0  0  0  0
    4.6643    2.1152   -0.1171 N   0  0  0  0  0  0  0  0  0  0  0  0
   -5.7554    0.0359   -0.1016 C   0  0  0  0  0  0  0  0  0  0  0  0
   -5.1259    1.1530    0.7378 C   0  0  0  0  0  0  0  0  0  0  0  0
   -4.9221   -1.2456   -0.2100 C   0  0  0  0  0  0  0  0  0  0  0  0
   -3.9301    1.8426    0.0784 C   0  0  0  0  0  0  0  0  0  0  0  0
   -3.6746   -1.1135   -1.0840 C   0  0  0  0  0  0  0  0  0  0  0  0
   -2.7186    0.9713    0.0525 C   0  0  0  0  0  0  0  0  0  0  0  0
   -2.5917   -0.3126   -0.4476 C   0  0  0  0  0  0  0  0  0  0  0  0
   -0.5270   -0.0079    0.2519 C   0  0  0  0  0  0  0  0  0  0  0  0
    3.0734   -1.0697    0.8221 C   0  0  1  0  0  0  0  0  0  0  0  0
    1.6408   -1.2896    0.3221 C   0  0  0  0  0  0  0  0  0  0  0  0
    3.9303   -2.3258    0.6440 C   0  0  0  0  0  0  0  0  0  0  0  0
    3.9639    0.2515   -1.2003 C   0  0  0  0  0  0  0  0  0  0  0  0
    4.1538    1.2660    0.7468 C   0  0  0  0  0  0  0  0  0  0  0  0
    4.5490    1.4888   -1.3329 C   0  0  0  0  0  0  0  0  0  0  0  0
   -5.9980    0.4111   -1.1033 H   0  0  0  0  0  0  0  0  0  0  0  0
   -6.7114   -0.2307    0.3670 H   0  0  0  0  0  0  0  0  0  0  0  0
   -4.8503    0.7658    1.7268 H   0  0  0  0  0  0  0  0  0  0  0  0
   -5.8985    1.9145    0.9049 H   0  0  0  0  0  0  0  0  0  0  0  0
   -5.5613   -2.0188   -0.6549 H   0  0  0  0  0  0  0  0  0  0  0  0
   -4.6529   -1.6006    0.7927 H   0  0  0  0  0  0  0  0  0  0  0  0
   -3.7203    2.7674    0.6303 H   0  0  0  0  0  0  0  0  0  0  0  0
   -4.1847    2.1424   -0.9455 H   0  0  0  0  0  0  0  0  0  0  0  0
   -3.2922   -2.1203   -1.2939 H   0  0  0  0  0  0  0  0  0  0  0  0
   -3.9348   -0.6709   -2.0530 H   0  0  0  0  0  0  0  0  0  0  0  0
    3.0307   -0.8023    1.8854 H   0  0  0  0  0  0  0  0  0  0  0  0
    1.2176    0.6357    1.0148 H   0  0  0  0  0  0  0  0  0  0  0  0
    3.5070   -3.1657    1.2053 H   0  0  0  0  0  0  0  0  0  0  0  0
    4.9502   -2.1548    1.0051 H   0  0  0  0  0  0  0  0  0  0  0  0
    3.9950   -2.6275   -0.4073 H   0  0  0  0  0  0  0  0  0  0  0  0
    3.7110   -0.5163   -1.9179 H   0  0  0  0  0  0  0  0  0  0  0  0
    4.0749    1.4236    1.8137 H   0  0  0  0  0  0  0  0  0  0  0  0
    4.8923    1.9605   -2.2419 H   0  0  0  0  0  0  0  0  0  0  0  0
  1 12  1  0  0  0  0
  1 14  1  0  0  0  0
  2 16  2  0  0  0  0
  3 13  1  0  0  0  0
  3 14  2  0  0  0  0
  4 14  1  0  0  0  0
  4 16  1  0  0  0  0
  4 32  1  0  0  0  0
  5 15  1  0  0  0  0
  5 18  1  0  0  0  0
  5 19  1  0  0  0  0
  6 19  2  0  0  0  0
  6 20  1  0  0  0  0
  7  8  1  0  0  0  0
  7  9  1  0  0  0  0
  7 21  1  0  0  0  0
  7 22  1  0  0  0  0
  8 10  1  0  0  0  0
  8 23  1  0  0  0  0
  8 24  1  0  0  0  0
  9 11  1  0  0  0  0
  9 25  1  0  0  0  0
  9 26  1  0  0  0  0
 10 12  1  0  0  0  0
 10 27  1  0  0  0  0
 10 28  1  0  0  0  0
 11 13  1  0  0  0  0
 11 29  1  0  0  0  0
 11 30  1  0  0  0  0
 12 13  2  0  0  0  0
 15 16  1  0  0  0  0
 15 17  1  0  0  0  0
 15 31  1  0  0  0  0
 17 33  1  0  0  0  0
 17 34  1  0  0  0  0
 17 35  1  0  0  0  0
 18 20  2  0  0  0  0
 18 36  1  0  0  0  0
 19 37  1  0  0  0  0
 20 38  1  0  0  0  0
M  END
> <PUBCHEM_COMPOUND_CID>
47205503

> <PUBCHEM_CONFORMER_RMSD>
0.8

> <PUBCHEM_CONFORMER_DIVERSEORDER>
2
44
26
28
43
6
24
19
14
23
27
25
35
32
22
15
45
36
5
30
3
8
7
10
4
31
18
33
29
37
16
1
13
9
40
17
39
41
34
42
12
21
38
11
20

> <PUBCHEM_MMFF94_PARTIAL_CHARGES>
20
1 -0.08
10 0.18
11 0.18
12 -0.14
13 0.05
14 0.44
15 0.32
16 0.57
18 -0.3
19 0.04
2 -0.57
20 0.08
3 -0.57
32 0.37
36 0.15
37 0.15
38 0.15
4 -0.49
5 0.05
6 -0.57

> <PUBCHEM_EFFECTIVE_ROTOR_COUNT>
5

> <PUBCHEM_PHARMACOPHORE_FEATURES>
6
1 2 acceptor
1 4 donor
3 5 6 19 cation
5 1 3 12 13 14 rings
5 5 6 18 19 20 rings
7 7 8 9 10 11 12 13 rings

> <PUBCHEM_HEAVY_ATOM_COUNT>
20

> <PUBCHEM_ATOM_DEF_STEREO_COUNT>
0

> <PUBCHEM_ATOM_UDEF_STEREO_COUNT>
1

> <PUBCHEM_BOND_DEF_STEREO_COUNT>
0

> <PUBCHEM_BOND_UDEF_STEREO_COUNT>
0

> <PUBCHEM_ISOTOPIC_ATOM_COUNT>
0

> <PUBCHEM_COMPONENT_COUNT>
1

> <PUBCHEM_CACTVS_TAUTO_COUNT>
3

> <PUBCHEM_CONFORMER_ID>
02D04C7F00000002

> <PUBCHEM_MMFF94_ENERGY>
23.5661

> <PUBCHEM_FEATURE_SELFOVERLAP>
30.473

> <PUBCHEM_SHAPE_MULTIPOLES>
389.65
13.26
2.25
1.02
3.47
0.28
-0.17
-2.73
-1.11
-1.62
0.13
-0.62
-0.09
-1.54

> <PUBCHEM_SHAPE_SELFOVERLAP>
807.898

> <PUBCHEM_SHAPE_VOLUME>
224.3

> <PUBCHEM_COORDINATE_TYPE>
2
5
10

$$$$

