9151
  -OEChem-06261203273D

 27 30  0     0  0  0  0  0  0999 V2000
    1.7396    2.2709    0.0005 S   0  0  0  0  0  0  0  0  0  0  0  0
    0.0606    0.2878    0.0001 C   0  0  0  0  0  0  0  0  0  0  0  0
   -1.2738   -0.2986   -0.0001 C   0  0  0  0  0  0  0  0  0  0  0  0
    1.4229   -0.2884   -0.0001 C   0  0  0  0  0  0  0  0  0  0  0  0
    0.1317    1.6872    0.0001 C   0  0  0  0  0  0  0  0  0  0  0  0
   -2.4180    0.5511   -0.0004 C   0  0  0  0  0  0  0  0  0  0  0  0
    2.4108    0.7035    0.0005 C   0  0  0  0  0  0  0  0  0  0  0  0
   -1.0086    2.5102   -0.0001 C   0  0  0  0  0  0  0  0  0  0  0  0
   -2.2691    1.9312   -0.0007 C   0  0  0  0  0  0  0  0  0  0  0  0
   -1.5186   -1.6923    0.0001 C   0  0  0  0  0  0  0  0  0  0  0  0
    1.8988   -1.6309   -0.0007 C   0  0  0  0  0  0  0  0  0  0  0  0
   -3.7128    0.0068   -0.0003 C   0  0  0  0  0  0  0  0  0  0  0  0
    3.7916    0.4056    0.0005 C   0  0  0  0  0  0  0  0  0  0  0  0
   -2.8148   -2.2177    0.0006 C   0  0  0  0  0  0  0  0  0  0  0  0
    3.2660   -1.9345   -0.0006 C   0  0  0  0  0  0  0  0  0  0  0  0
   -3.9111   -1.3697    0.0006 C   0  0  0  0  0  0  0  0  0  0  0  0
    4.2050   -0.9221    0.0000 C   0  0  0  0  0  0  0  0  0  0  0  0
   -0.9143    3.5933   -0.0001 H   0  0  0  0  0  0  0  0  0  0  0  0
   -3.1379    2.5870   -0.0009 H   0  0  0  0  0  0  0  0  0  0  0  0
   -0.7167   -2.4154    0.0005 H   0  0  0  0  0  0  0  0  0  0  0  0
    1.2220   -2.4759   -0.0013 H   0  0  0  0  0  0  0  0  0  0  0  0
   -4.5873    0.6552   -0.0005 H   0  0  0  0  0  0  0  0  0  0  0  0
    4.5315    1.2019    0.0008 H   0  0  0  0  0  0  0  0  0  0  0  0
   -2.9611   -3.2942    0.0011 H   0  0  0  0  0  0  0  0  0  0  0  0
    3.5858   -2.9728   -0.0011 H   0  0  0  0  0  0  0  0  0  0  0  0
   -4.9177   -1.7764    0.0010 H   0  0  0  0  0  0  0  0  0  0  0  0
    5.2647   -1.1598    0.0000 H   0  0  0  0  0  0  0  0  0  0  0  0
  1  5  1  0  0  0  0
  1  7  1  0  0  0  0
  2  3  1  0  0  0  0
  2  4  1  0  0  0  0
  2  5  2  0  0  0  0
  3  6  1  0  0  0  0
  3 10  2  0  0  0  0
  4  7  1  0  0  0  0
  4 11  2  0  0  0  0
  5  8  1  0  0  0  0
  6  9  1  0  0  0  0
  6 12  2  0  0  0  0
  7 13  2  0  0  0  0
  8  9  2  0  0  0  0
  8 18  1  0  0  0  0
  9 19  1  0  0  0  0
 10 14  1  0  0  0  0
 10 20  1  0  0  0  0
 11 15  1  0  0  0  0
 11 21  1  0  0  0  0
 12 16  1  0  0  0  0
 12 22  1  0  0  0  0
 13 17  1  0  0  0  0
 13 23  1  0  0  0  0
 14 16  2  0  0  0  0
 14 24  1  0  0  0  0
 15 17  2  0  0  0  0
 15 25  1  0  0  0  0
 16 26  1  0  0  0  0
 17 27  1  0  0  0  0
M  END
> <PUBCHEM_COMPOUND_CID>
9151

> <PUBCHEM_CONFORMER_RMSD>
0.4

> <PUBCHEM_CONFORMER_DIVERSEORDER>
1

> <PUBCHEM_MMFF94_PARTIAL_CHARGES>
23
1 -0.08
10 -0.15
11 -0.15
12 -0.15
13 -0.15
14 -0.15
15 -0.15
16 -0.15
17 -0.15
18 0.15
19 0.15
20 0.15
21 0.15
22 0.15
23 0.15
24 0.15
25 0.15
26 0.15
27 0.15
5 0.04
7 0.04
8 -0.15
9 -0.15

> <PUBCHEM_EFFECTIVE_ROTOR_COUNT>
0

> <PUBCHEM_PHARMACOPHORE_FEATURES>
4
5 1 2 4 5 7 rings
6 2 3 5 6 8 9 rings
6 3 6 10 12 14 16 rings
6 4 7 11 13 15 17 rings

> <PUBCHEM_HEAVY_ATOM_COUNT>
17

> <PUBCHEM_ATOM_DEF_STEREO_COUNT>
0

> <PUBCHEM_ATOM_UDEF_STEREO_COUNT>
0

> <PUBCHEM_BOND_DEF_STEREO_COUNT>
0

> <PUBCHEM_BOND_UDEF_STEREO_COUNT>
0

> <PUBCHEM_ISOTOPIC_ATOM_COUNT>
0

> <PUBCHEM_COMPONENT_COUNT>
1

> <PUBCHEM_CACTVS_TAUTO_COUNT>
1

> <PUBCHEM_CONFORMER_ID>
000023BF00000001

> <PUBCHEM_MMFF94_ENERGY>
54.4289

> <PUBCHEM_FEATURE_SELFOVERLAP>
20.432

> <PUBCHEM_SHAPE_FINGERPRINT>
10319926 262 18120400867593143506
10493431 412 17973998754801951425
10608611 8 18409453608873517408
10616163 171 18409164441552558846
10618630 7 18411981347160684638
10967382 1 18122626050375766150
1100329 8 17042608085556562539
11132069 177 18410580582347890040
11806522 49 18413108334084578236
12032990 46 18410853243988392571
12506688 2 18334574629280551368
12553582 1 18411132506999046943
13140716 1 18409442553690696033
13221675 6 18410856559692725490
13583140 156 14057001663172186975
138480 1 15096206559654544865
14115302 16 17989197123247972335
14144814 61 18410012173559561706
14178342 30 18267317585014889896
14223421 5 18409173194695706616
14790565 3 17833262404223079481
15196674 1 18410573985177831406
15375462 189 18273214222307762162
15442244 35 18410291453670853504
15536298 74 18334858264657499240
16752209 62 18269290113001151881
16945 1 18410573989457364196
17804303 29 18335697264806533509
1813 80 17561080293562384269
19107657 46 18410012165011981054
19141452 34 18333447634647788343
200 152 18041288690443539239
20510252 161 18189335838994762009
20645477 70 18197507225071671079
20871998 184 18187366570714272583
21029758 11 18335147509441278705
21267235 1 18411128134743691938
21501502 16 18410848863174803476
21634736 98 18341045233893289254
221490 88 18269548347698996354
22721475 48 18410007732373473440
23184049 29 18410291432227652590
2334 1 18050004398272298533
23366157 5 18059295349385595460
23402539 116 18261683648763362807
23463225 33 18410291384898596807
23557571 272 18187920742313541014
23559900 14 18409175402535854088
2748010 2 18050853221286098733
2871803 45 18341618109215756430
3091708 16 9496375843589124697
335352 9 18338516468760720469
34934 24 18410301289093174763
427121 178 15724130765971793273
5104073 3 18409730668365151984
7364860 26 18264209106328612576
8809292 202 18343017770274736243
9709674 26 18335979878124073350

> <PUBCHEM_SHAPE_MULTIPOLES>
353.7
7.06
2.78
0.62
1.19
0.56
0
-3.22
0
-0.39
0
0.01
0.01
0

> <PUBCHEM_SHAPE_SELFOVERLAP>
797.443

> <PUBCHEM_SHAPE_VOLUME>
184.5

> <PUBCHEM_COORDINATE_TYPE>
2
5
10

$$$$

