5281809
  -OEChem-07051212592D

 41 45  0     0  0  0  0  0  0999 V2000
    5.6252    3.9122    0.0000 O   0  0  0  0  0  0  0  0  0  0  0  0
    5.3782    0.2174    0.0000 O   0  0  0  0  0  0  0  0  0  0  0  0
    2.6853   -1.2266    0.0000 O   0  0  0  0  0  0  0  0  0  0  0  0
    2.0000    0.4055    0.0000 O   0  0  0  0  0  0  0  0  0  0  0  0
    4.1834   -4.5497    0.0000 O   0  0  0  0  0  0  0  0  0  0  0  0
    6.7102    3.9122    0.0000 C   0  0  0  0  0  0  0  0  0  0  0  0
    7.2455    2.9684    0.0000 C   0  0  0  0  0  0  0  0  0  0  0  0
    6.6886    2.0373    0.0000 C   0  0  0  0  0  0  0  0  0  0  0  0
    5.6038    2.0624    0.0000 C   0  0  0  0  0  0  0  0  0  0  0  0
    5.0900    2.9684    0.0000 C   0  0  0  0  0  0  0  0  0  0  0  0
    5.0692    1.1684    0.0000 C   0  0  0  0  0  0  0  0  0  0  0  0
    7.5782    4.4089    0.0000 C   0  0  0  0  0  0  0  0  0  0  0  0
    6.7141    4.9122    0.0000 C   0  0  0  0  0  0  0  0  0  0  0  0
    4.0692    1.1684    0.0000 C   0  0  0  0  0  0  0  0  0  0  0  0
    3.7602    0.2174    0.0000 C   0  0  0  0  0  0  0  0  0  0  0  0
    4.0484    2.9684    0.0000 C   0  0  0  0  0  0  0  0  0  0  0  0
    4.5692   -0.3704    0.0000 C   0  0  0  0  0  0  0  0  0  0  0  0
    3.5345    2.0624    0.0000 C   0  0  0  0  0  0  0  0  0  0  0  0
    4.4763   -1.4079    0.0000 C   0  0  0  0  0  0  0  0  0  0  0  0
    2.8022   -0.1916    0.0000 C   0  0  0  0  0  0  0  0  0  0  0  0
    3.5280   -1.8389    0.0000 C   0  0  0  0  0  0  0  0  0  0  0  0
    5.3686   -2.0252    0.0000 C   0  0  0  0  0  0  0  0  0  0  0  0
    3.4063   -2.9170    0.0000 C   0  0  0  0  0  0  0  0  0  0  0  0
    5.2718   -3.1059    0.0000 C   0  0  0  0  0  0  0  0  0  0  0  0
    4.2840   -3.5548    0.0000 C   0  0  0  0  0  0  0  0  0  0  0  0
    7.7152    2.5638    0.0000 H   0  0  0  0  0  0  0  0  0  0  0  0
    7.7245    3.3620    0.0000 H   0  0  0  0  0  0  0  0  0  0  0  0
    6.5684    1.4290    0.0000 H   0  0  0  0  0  0  0  0  0  0  0  0
    7.2672    1.8148    0.0000 H   0  0  0  0  0  0  0  0  0  0  0  0
    7.8861    3.8707    0.0000 H   0  0  0  0  0  0  0  0  0  0  0  0
    8.1163    4.7168    0.0000 H   0  0  0  0  0  0  0  0  0  0  0  0
    7.3341    4.9098    0.0000 H   0  0  0  0  0  0  0  0  0  0  0  0
    6.7165    5.5322    0.0000 H   0  0  0  0  0  0  0  0  0  0  0  0
    6.0941    4.9146    0.0000 H   0  0  0  0  0  0  0  0  0  0  0  0
    7.2702    4.9470    0.0000 H   0  0  0  0  0  0  0  0  0  0  0  0
    3.7363    3.5042    0.0000 H   0  0  0  0  0  0  0  0  0  0  0  0
    2.9146    2.0552    0.0000 H   0  0  0  0  0  0  0  0  0  0  0  0
    5.9300   -1.7621    0.0000 H   0  0  0  0  0  0  0  0  0  0  0  0
    2.8389   -3.1670    0.0000 H   0  0  0  0  0  0  0  0  0  0  0  0
    5.7776   -3.4645    0.0000 H   0  0  0  0  0  0  0  0  0  0  0  0
    4.6864   -4.9122    0.0000 H   0  0  0  0  0  0  0  0  0  0  0  0
  1  6  1  0  0  0  0
  1 10  1  0  0  0  0
  2 11  1  0  0  0  0
  2 17  1  0  0  0  0
  3 20  1  0  0  0  0
  3 21  1  0  0  0  0
  4 20  2  0  0  0  0
  5 25  1  0  0  0  0
  5 41  1  0  0  0  0
  6  7  1  0  0  0  0
  6 12  1  0  0  0  0
  6 13  1  0  0  0  0
  7  8  1  0  0  0  0
  7 26  1  0  0  0  0
  7 27  1  0  0  0  0
  8  9  1  0  0  0  0
  8 28  1  0  0  0  0
  8 29  1  0  0  0  0
  9 10  2  0  0  0  0
  9 11  1  0  0  0  0
 10 16  1  0  0  0  0
 11 14  2  0  0  0  0
 12 30  1  0  0  0  0
 12 31  1  0  0  0  0
 12 35  1  0  0  0  0
 13 32  1  0  0  0  0
 13 33  1  0  0  0  0
 13 34  1  0  0  0  0
 14 15  1  0  0  0  0
 14 18  1  0  0  0  0
 15 17  2  0  0  0  0
 15 20  1  0  0  0  0
 16 18  2  0  0  0  0
 16 36  1  0  0  0  0
 17 19  1  0  0  0  0
 18 37  1  0  0  0  0
 19 21  2  0  0  0  0
 19 22  1  0  0  0  0
 21 23  1  0  0  0  0
 22 24  2  0  0  0  0
 22 38  1  0  0  0  0
 23 25  2  0  0  0  0
 23 39  1  0  0  0  0
 24 25  1  0  0  0  0
 24 40  1  0  0  0  0
M  END
> <PUBCHEM_COMPOUND_CID>
5281809

> <PUBCHEM_COMPOUND_CANONICALIZED>
1

> <PUBCHEM_CACTVS_COMPLEXITY>
560

> <PUBCHEM_CACTVS_HBOND_ACCEPTOR>
5

> <PUBCHEM_CACTVS_HBOND_DONOR>
1

> <PUBCHEM_CACTVS_ROTATABLE_BOND>
0

> <PUBCHEM_CACTVS_SUBSKEYS>
AAADceB4OAAAAAAAAAAAAAAAAAAAASAAAAA0aIEAAAAAAEiR9AAAGgAACAAADESAmAAyDsAABkCIAqDSCAACCAAkIAAIiAEGCMgMJzaONRqCe2Cl4BUIuYfL7PzOoAACCAAIAABAAAQQABAAAAAAAAAAAA==

> <PUBCHEM_IUPAC_INCHI>
InChI=1S/C20H16O5/c1-20(2)8-7-12-14(25-20)6-5-13-16-18(24-17(12)13)11-4-3-10(21)9-15(11)23-19(16)22/h3-6,9,21H,7-8H2,1-2H3

> <PUBCHEM_IUPAC_INCHIKEY>
GSAVLDZAGYKJSO-UHFFFAOYSA-N

> <PUBCHEM_XLOGP3_AA>
4.1

> <PUBCHEM_EXACT_MASS>
336.099774

> <PUBCHEM_MOLECULAR_FORMULA>
C20H16O5

> <PUBCHEM_MOLECULAR_WEIGHT>
336.33804

> <PUBCHEM_OPENEYE_CAN_SMILES>
CC1(CCC2=C(O1)C=CC3=C2OC4=C3C(=O)OC5=C4C=CC(=C5)O)C

> <PUBCHEM_OPENEYE_ISO_SMILES>
CC1(CCC2=C(O1)C=CC3=C2OC4=C3C(=O)OC5=C4C=CC(=C5)O)C

> <PUBCHEM_CACTVS_TPSA>
68.9

> <PUBCHEM_MONOISOTOPIC_WEIGHT>
336.099774

> <PUBCHEM_TOTAL_CHARGE>
0

> <PUBCHEM_HEAVY_ATOM_COUNT>
25

> <PUBCHEM_ATOM_DEF_STEREO_COUNT>
0

> <PUBCHEM_ATOM_UDEF_STEREO_COUNT>
0

> <PUBCHEM_BOND_DEF_STEREO_COUNT>
0

> <PUBCHEM_BOND_UDEF_STEREO_COUNT>
0

> <PUBCHEM_ISOTOPIC_ATOM_COUNT>
0

> <PUBCHEM_COMPONENT_COUNT>
1

> <PUBCHEM_CACTVS_TAUTO_COUNT>
5

> <PUBCHEM_COORDINATE_TYPE>
1
5
255

> <PUBCHEM_BONDANNOTATIONS>
10  16  8
11  14  8
14  15  8
14  18  8
15  17  8
15  20  8
16  18  8
17  19  8
19  21  8
19  22  8
2  11  8
2  17  8
21  23  8
22  24  8
23  25  8
24  25  8
3  20  8
3  21  8
9  10  8
9  11  8

$$$$

