7066
  -OEChem-06261201433D

 37 38  0     1  0  0  0  0  0999 V2000
    3.2916   -2.5873    1.2608 S   0  0  0  0  0  0  0  0  0  0  0  0
   -0.2672   -0.0555   -0.2523 N   0  0  3  0  0  0  0  0  0  0  0  0
   -3.8142   -1.0521    0.2147 N   0  0  0  0  0  0  0  0  0  0  0  0
    1.1701    1.7862   -0.7199 N   0  0  0  0  0  0  0  0  0  0  0  0
   -1.4073   -0.6326    0.4190 C   0  0  0  0  0  0  0  0  0  0  0  0
   -2.6532   -0.4481   -0.4381 C   0  0  0  0  0  0  0  0  0  0  0  0
    0.5415   -0.9121   -1.1212 C   0  0  0  0  0  0  0  0  0  0  0  0
    0.0799    1.2914   -0.0767 C   0  0  0  0  0  0  0  0  0  0  0  0
    1.7695   -1.4254   -0.4172 C   0  0  0  0  0  0  0  0  0  0  0  0
   -3.5831   -2.4763    0.4533 C   0  0  0  0  0  0  0  0  0  0  0  0
   -5.0152   -0.8581   -0.5968 C   0  0  0  0  0  0  0  0  0  0  0  0
   -0.7214    2.0640    0.7598 C   0  0  0  0  0  0  0  0  0  0  0  0
    3.0806   -1.1860   -0.8819 C   0  0  0  0  0  0  0  0  0  0  0  0
    1.7199   -2.1665    0.7271 C   0  0  0  0  0  0  0  0  0  0  0  0
    4.0170   -1.7669   -0.0555 C   0  0  0  0  0  0  0  0  0  0  0  0
   -0.3901    3.4018    0.9440 C   0  0  0  0  0  0  0  0  0  0  0  0
    1.4611    3.0907   -0.5165 C   0  0  0  0  0  0  0  0  0  0  0  0
    0.7205    3.9327    0.2972 C   0  0  0  0  0  0  0  0  0  0  0  0
   -1.1968   -1.7011    0.5323 H   0  0  0  0  0  0  0  0  0  0  0  0
   -1.5384   -0.2863    1.4504 H   0  0  0  0  0  0  0  0  0  0  0  0
   -2.8412    0.6217   -0.5898 H   0  0  0  0  0  0  0  0  0  0  0  0
   -2.4932   -0.8810   -1.4352 H   0  0  0  0  0  0  0  0  0  0  0  0
    0.8111   -0.3815   -2.0437 H   0  0  0  0  0  0  0  0  0  0  0  0
   -0.0484   -1.7769   -1.4548 H   0  0  0  0  0  0  0  0  0  0  0  0
   -2.8837   -2.6451    1.2780 H   0  0  0  0  0  0  0  0  0  0  0  0
   -3.2287   -3.0020   -0.4410 H   0  0  0  0  0  0  0  0  0  0  0  0
   -4.5119   -2.9639    0.7747 H   0  0  0  0  0  0  0  0  0  0  0  0
   -5.8968   -1.2578   -0.0831 H   0  0  0  0  0  0  0  0  0  0  0  0
   -4.9364   -1.3441   -1.5761 H   0  0  0  0  0  0  0  0  0  0  0  0
   -5.2051    0.2093   -0.7556 H   0  0  0  0  0  0  0  0  0  0  0  0
   -1.6061    1.7113    1.2739 H   0  0  0  0  0  0  0  0  0  0  0  0
    3.3418   -0.6224   -1.7683 H   0  0  0  0  0  0  0  0  0  0  0  0
    0.8583   -2.4965    1.2891 H   0  0  0  0  0  0  0  0  0  0  0  0
    5.0925   -1.7487   -0.1617 H   0  0  0  0  0  0  0  0  0  0  0  0
   -0.9978    4.0317    1.5868 H   0  0  0  0  0  0  0  0  0  0  0  0
    2.3365    3.4556   -1.0435 H   0  0  0  0  0  0  0  0  0  0  0  0
    0.9970    4.9729    0.4252 H   0  0  0  0  0  0  0  0  0  0  0  0
  1 14  1  0  0  0  0
  1 15  1  0  0  0  0
  2  5  1  0  0  0  0
  2  7  1  0  0  0  0
  2  8  1  0  0  0  0
  3  6  1  0  0  0  0
  3 10  1  0  0  0  0
  3 11  1  0  0  0  0
  4  8  1  0  0  0  0
  4 17  2  0  0  0  0
  5  6  1  0  0  0  0
  5 19  1  0  0  0  0
  5 20  1  0  0  0  0
  6 21  1  0  0  0  0
  6 22  1  0  0  0  0
  7  9  1  0  0  0  0
  7 23  1  0  0  0  0
  7 24  1  0  0  0  0
  8 12  2  0  0  0  0
  9 13  1  0  0  0  0
  9 14  2  0  0  0  0
 10 25  1  0  0  0  0
 10 26  1  0  0  0  0
 10 27  1  0  0  0  0
 11 28  1  0  0  0  0
 11 29  1  0  0  0  0
 11 30  1  0  0  0  0
 12 16  1  0  0  0  0
 12 31  1  0  0  0  0
 13 15  2  0  0  0  0
 13 32  1  0  0  0  0
 14 33  1  0  0  0  0
 15 34  1  0  0  0  0
 16 18  2  0  0  0  0
 16 35  1  0  0  0  0
 17 18  1  0  0  0  0
 17 36  1  0  0  0  0
 18 37  1  0  0  0  0
M  END
> <PUBCHEM_COMPOUND_CID>
7066

> <PUBCHEM_CONFORMER_RMSD>
0.8

> <PUBCHEM_CONFORMER_DIVERSEORDER>
2
94
70
125
60
77
101
185
190
58
168
162
35
175
121
130
19
164
177
143
184
176
92
75
107
156
167
149
24
145
166
10
96
144
161
82
28
15
188
4
158
187
135
191
124
119
163
155
182
115
136
142
21
72
78
131
49
150
85
103
98
159
129
99
63
122
153
171
91
173
22
39
73
148
41
120
47
79
140
178
50
89
34
114
46
12
88
87
139
179
147
53
93
3
52
170
11
16
48
37
5
146
45
29
102
116
186
154
95
138
6
169
118
36
55
31
111
68
141
152
64
18
181
108
180
80
160
40
20
23
183
109
7
113
100
66
128
44
69
157
51
42
84
123
174
117
97
112
134
165
137
172
133
67
127
9
54
110
59
17
74
57
104
8
25
71
151
106
189
76
83
132
38
43
81
30
14
13
126
62
33
61
56
32
65
86
1
105
90
26
27

> <PUBCHEM_MMFF94_PARTIAL_CHARGES>
25
1 -0.08
10 0.27
11 0.27
12 -0.15
13 -0.15
14 -0.11
15 -0.11
16 -0.15
17 0.16
18 -0.15
2 -0.84
3 -0.81
31 0.15
32 0.15
33 0.15
34 0.15
35 0.15
36 0.15
37 0.15
4 -0.62
5 0.37
6 0.27
7 0.55
8 0.41
9 -0.18

> <PUBCHEM_EFFECTIVE_ROTOR_COUNT>
6

> <PUBCHEM_PHARMACOPHORE_FEATURES>
5
1 2 cation
1 3 cation
1 4 acceptor
5 1 9 13 14 15 rings
6 4 8 12 16 17 18 rings

> <PUBCHEM_HEAVY_ATOM_COUNT>
18

> <PUBCHEM_ATOM_DEF_STEREO_COUNT>
0

> <PUBCHEM_ATOM_UDEF_STEREO_COUNT>
0

> <PUBCHEM_BOND_DEF_STEREO_COUNT>
0

> <PUBCHEM_BOND_UDEF_STEREO_COUNT>
0

> <PUBCHEM_ISOTOPIC_ATOM_COUNT>
0

> <PUBCHEM_COMPONENT_COUNT>
1

> <PUBCHEM_CACTVS_TAUTO_COUNT>
1

> <PUBCHEM_CONFORMER_ID>
00001B9A00000002

> <PUBCHEM_MMFF94_ENERGY>
51.8695

> <PUBCHEM_FEATURE_SELFOVERLAP>
25.371

> <PUBCHEM_SHAPE_FINGERPRINT>
1100329 8 18266173023343692825
11265709 11 18338513148603281299
11578080 2 17703246077745272444
12549972 3 17988918913274400363
12553582 1 18338218475313798595
12592029 89 17977379430543795113
12707595 3 18411979148549535391
12730499 353 17978784615843638947
12788726 201 18197211662201556443
13004483 165 18194978541290422643
13134695 92 18337119994561998399
13140716 1 18263928902556733104
13294875 104 17681277663513092417
13533116 47 18194120721296317003
136203 1 17977385258740549571
13955234 65 18121779431329419091
14178000 15 18408043996370005665
14178342 30 17693390236314679002
14787075 74 18200024033147462270
15042514 8 17978224190597394411
15842332 3 17627212796265596310
15927050 60 17616249179314265508
18222031 100 18187651314261855007
19591789 44 17473258778063024086
20097449 115 18408044034734405099
20369508 70 18341055133999212999
20567600 347 17549268029908391627
20600515 1 18187357766100192535
20645477 70 18264205812584711935
21029758 11 18411982476879819983
21041028 32 18407759257270910725
21250096 35 18341898523525877779
21452121 199 18408610253237216009
21524375 3 17468750789174256125
21650355 55 18195533816026100458
22112679 90 18118095156268380233
23419403 2 18127719125801465212
23557571 272 18118404170897302390
23558518 356 17546449337250706335
23559900 14 18338246964343478467
257057 1 18339361967095202321
3091708 16 9283851236628893792
3187 122 18123500355995062680
458136 41 17764573340529173753
5902787 121 18411698772957799855
6442390 28 16964061160579720857
6443956 14 18411420570608745872
7164475 11 18051695735188275870
7364860 26 18265331703447484215
7471813 234 18187656786397712981
81228 2 17974279121481238347
81539 233 17980483360717449477

> <PUBCHEM_SHAPE_MULTIPOLES>
359.34
6.77
4.79
1.06
3.95
5.72
-0.06
-8.57
0.12
-0.39
-1.19
-0.42
-0.13
-0.79

> <PUBCHEM_SHAPE_SELFOVERLAP>
731.042

> <PUBCHEM_SHAPE_VOLUME>
212.1

> <PUBCHEM_COORDINATE_TYPE>
2
5
10

$$$$

