5164
  -OEChem-06261200332D

 44 47  0     0  0  0  0  0  0999 V2000
   10.8651    0.3923    0.0000 F   0  0  0  0  0  0  0  0  0  0  0  0
    5.4428    1.6284    0.0000 N   0  0  0  0  0  0  0  0  0  0  0  0
    2.5896    0.7013    0.0000 N   0  0  0  0  0  0  0  0  0  0  0  0
    6.7518    2.5794    0.0000 N   0  0  0  0  0  0  0  0  0  0  0  0
    5.3858   -0.4594    0.0000 N   0  0  0  0  0  0  0  0  0  0  0  0
    6.2518   -1.9594    0.0000 N   0  0  0  0  0  0  0  0  0  0  0  0
    4.5198   -1.9594    0.0000 N   0  0  0  0  0  0  0  0  0  0  0  0
    4.4918    1.3194    0.0000 C   0  0  0  0  0  0  0  0  0  0  0  0
    4.2839    0.3412    0.0000 C   0  0  0  0  0  0  0  0  0  0  0  0
    3.7486    1.9885    0.0000 C   0  0  0  0  0  0  0  0  0  0  0  0
    3.3328    0.0322    0.0000 C   0  0  0  0  0  0  0  0  0  0  0  0
    2.7976    1.6795    0.0000 C   0  0  0  0  0  0  0  0  0  0  0  0
    6.2518    1.0406    0.0000 C   0  0  0  0  0  0  0  0  0  0  0  0
    5.7518    2.5794    0.0000 C   0  0  0  0  0  0  0  0  0  0  0  0
    7.0609    1.6284    0.0000 C   0  0  0  0  0  0  0  0  0  0  0  0
    6.2518    0.0406    0.0000 C   0  0  0  0  0  0  0  0  0  0  0  0
    8.0119    1.3194    0.0000 C   0  0  0  0  0  0  0  0  0  0  0  0
    7.1179   -0.4594    0.0000 C   0  0  0  0  0  0  0  0  0  0  0  0
    8.2198    0.3412    0.0000 C   0  0  0  0  0  0  0  0  0  0  0  0
    8.7551    1.9885    0.0000 C   0  0  0  0  0  0  0  0  0  0  0  0
    7.1179   -1.4594    0.0000 C   0  0  0  0  0  0  0  0  0  0  0  0
    5.3858   -1.4594    0.0000 C   0  0  0  0  0  0  0  0  0  0  0  0
    9.1709    0.0322    0.0000 C   0  0  0  0  0  0  0  0  0  0  0  0
    9.7061    1.6795    0.0000 C   0  0  0  0  0  0  0  0  0  0  0  0
    9.9140    0.7013    0.0000 C   0  0  0  0  0  0  0  0  0  0  0  0
    4.6207    1.9258    0.0000 H   0  0  0  0  0  0  0  0  0  0  0  0
    4.3701   -0.2728    0.0000 H   0  0  0  0  0  0  0  0  0  0  0  0
    4.9035    0.3196    0.0000 H   0  0  0  0  0  0  0  0  0  0  0  0
    4.2372    2.3702    0.0000 H   0  0  0  0  0  0  0  0  0  0  0  0
    3.4576    2.5359    0.0000 H   0  0  0  0  0  0  0  0  0  0  0  0
    2.8442   -0.3495    0.0000 H   0  0  0  0  0  0  0  0  0  0  0  0
    3.6239   -0.5152    0.0000 H   0  0  0  0  0  0  0  0  0  0  0  0
    2.7113    2.2934    0.0000 H   0  0  0  0  0  0  0  0  0  0  0  0
    2.1779    1.7011    0.0000 H   0  0  0  0  0  0  0  0  0  0  0  0
    2.0000    0.5097    0.0000 H   0  0  0  0  0  0  0  0  0  0  0  0
    5.3874    3.0810    0.0000 H   0  0  0  0  0  0  0  0  0  0  0  0
    7.6548   -0.1494    0.0000 H   0  0  0  0  0  0  0  0  0  0  0  0
    7.7591   -0.0737    0.0000 H   0  0  0  0  0  0  0  0  0  0  0  0
    8.6262    2.5949    0.0000 H   0  0  0  0  0  0  0  0  0  0  0  0
    7.6548   -1.7694    0.0000 H   0  0  0  0  0  0  0  0  0  0  0  0
    9.2998   -0.5743    0.0000 H   0  0  0  0  0  0  0  0  0  0  0  0
   10.1669    2.0943    0.0000 H   0  0  0  0  0  0  0  0  0  0  0  0
    4.5198   -2.5794    0.0000 H   0  0  0  0  0  0  0  0  0  0  0  0
    3.9829   -1.6494    0.0000 H   0  0  0  0  0  0  0  0  0  0  0  0
  1 25  1  0  0  0  0
  2  8  1  0  0  0  0
  2 13  1  0  0  0  0
  2 14  1  0  0  0  0
  3 11  1  0  0  0  0
  3 12  1  0  0  0  0
  3 35  1  0  0  0  0
  4 14  2  0  0  0  0
  4 15  1  0  0  0  0
  5 16  2  0  0  0  0
  5 22  1  0  0  0  0
  6 21  1  0  0  0  0
  6 22  2  0  0  0  0
  7 22  1  0  0  0  0
  7 43  1  0  0  0  0
  7 44  1  0  0  0  0
  8  9  1  0  0  0  0
  8 10  1  0  0  0  0
  8 26  1  0  0  0  0
  9 11  1  0  0  0  0
  9 27  1  0  0  0  0
  9 28  1  0  0  0  0
 10 12  1  0  0  0  0
 10 29  1  0  0  0  0
 10 30  1  0  0  0  0
 11 31  1  0  0  0  0
 11 32  1  0  0  0  0
 12 33  1  0  0  0  0
 12 34  1  0  0  0  0
 13 15  2  0  0  0  0
 13 16  1  0  0  0  0
 14 36  1  0  0  0  0
 15 17  1  0  0  0  0
 16 18  1  0  0  0  0
 17 19  2  0  0  0  0
 17 20  1  0  0  0  0
 18 21  2  0  0  0  0
 18 37  1  0  0  0  0
 19 23  1  0  0  0  0
 19 38  1  0  0  0  0
 20 24  2  0  0  0  0
 20 39  1  0  0  0  0
 21 40  1  0  0  0  0
 23 25  2  0  0  0  0
 23 41  1  0  0  0  0
 24 25  1  0  0  0  0
 24 42  1  0  0  0  0
M  END
> <PUBCHEM_COMPOUND_CID>
5164

> <PUBCHEM_COMPOUND_CANONICALIZED>
1

> <PUBCHEM_CACTVS_COMPLEXITY>
424

> <PUBCHEM_CACTVS_HBOND_ACCEPTOR>
6

> <PUBCHEM_CACTVS_HBOND_DONOR>
2

> <PUBCHEM_CACTVS_ROTATABLE_BOND>
3

> <PUBCHEM_CACTVS_SUBSKEYS>
AAADceB7gQAAAAAAAAAAAAAAAAAAAWAAAAA8WIAAAAAAAAAB8AAAHQAQAAAADCjBHgw9kJfMEACgAzRnZACCgC0xEqAJ2KA4dJiIaKLA2dGUJAhokALIyCcQgMAOAAAAAAAAAAAAAAAAAAAAAAAAAAAAAA==

> <PUBCHEM_IUPAC_OPENEYE_NAME>
4-[5-(4-fluorophenyl)-3-(4-piperidyl)imidazol-4-yl]pyrimidin-2-amine

> <PUBCHEM_IUPAC_CAS_NAME>
4-[5-(4-fluorophenyl)-3-(4-piperidinyl)-4-imidazolyl]-2-pyrimidinamine

> <PUBCHEM_IUPAC_NAME>
4-[5-(4-fluorophenyl)-3-piperidin-4-ylimidazol-4-yl]pyrimidin-2-amine

> <PUBCHEM_IUPAC_SYSTEMATIC_NAME>
4-[5-(4-fluorophenyl)-3-piperidin-4-yl-imidazol-4-yl]pyrimidin-2-amine

> <PUBCHEM_IUPAC_TRADITIONAL_NAME>
[4-[5-(4-fluorophenyl)-3-(4-piperidyl)imidazol-4-yl]pyrimidin-2-yl]amine

> <PUBCHEM_IUPAC_INCHI>
InChI=1S/C18H19FN6/c19-13-3-1-12(2-4-13)16-17(15-7-10-22-18(20)24-15)25(11-23-16)14-5-8-21-9-6-14/h1-4,7,10-11,14,21H,5-6,8-9H2,(H2,20,22,24)

> <PUBCHEM_IUPAC_INCHIKEY>
VSPFURGQAYMVAN-UHFFFAOYSA-N

> <PUBCHEM_XLOGP3_AA>
1.4

> <PUBCHEM_EXACT_MASS>
338.165523

> <PUBCHEM_MOLECULAR_FORMULA>
C18H19FN6

> <PUBCHEM_MOLECULAR_WEIGHT>
338.382063

> <PUBCHEM_OPENEYE_CAN_SMILES>
C1CNCCC1N2C=NC(=C2C3=NC(=NC=C3)N)C4=CC=C(C=C4)F

> <PUBCHEM_OPENEYE_ISO_SMILES>
C1CNCCC1N2C=NC(=C2C3=NC(=NC=C3)N)C4=CC=C(C=C4)F

> <PUBCHEM_CACTVS_TPSA>
81.6

> <PUBCHEM_MONOISOTOPIC_WEIGHT>
338.165523

> <PUBCHEM_TOTAL_CHARGE>
0

> <PUBCHEM_HEAVY_ATOM_COUNT>
25

> <PUBCHEM_ATOM_DEF_STEREO_COUNT>
0

> <PUBCHEM_ATOM_UDEF_STEREO_COUNT>
0

> <PUBCHEM_BOND_DEF_STEREO_COUNT>
0

> <PUBCHEM_BOND_UDEF_STEREO_COUNT>
0

> <PUBCHEM_ISOTOPIC_ATOM_COUNT>
0

> <PUBCHEM_COMPONENT_COUNT>
1

> <PUBCHEM_CACTVS_TAUTO_COUNT>
3

> <PUBCHEM_COORDINATE_TYPE>
1
5
255

> <PUBCHEM_BONDANNOTATIONS>
13  15  8
16  18  8
17  19  8
17  20  8
18  21  8
19  23  8
2  13  8
2  14  8
20  24  8
23  25  8
24  25  8
4  14  8
4  15  8
5  16  8
5  22  8
6  21  8
6  22  8

$$$$

