15953793
  -OEChem-07051213092D

116123  0     1  0  0  0  0  0999 V2000
    5.5954   -4.7872    0.0000 O   0  0  0  0  0  0  0  0  0  0  0  0
    3.9300   -3.7060    0.0000 O   0  0  0  0  0  0  0  0  0  0  0  0
   12.0027    0.5920    0.0000 O   0  0  0  0  0  0  0  0  0  0  0  0
   12.8630    2.0953    0.0000 O   0  0  0  0  0  0  0  0  0  0  0  0
   10.2668    1.5853    0.0000 O   0  0  0  0  0  0  0  0  0  0  0  0
   10.2591    3.5853    0.0000 O   0  0  0  0  0  0  0  0  0  0  0  0
   11.9873    4.5920    0.0000 O   0  0  0  0  0  0  0  0  0  0  0  0
    9.3950    3.0820    0.0000 O   0  0  0  0  0  0  0  0  0  0  0  0
   14.5912    3.1020    0.0000 O   0  0  0  0  0  0  0  0  0  0  0  0
    8.5387    0.5786    0.0000 O   0  0  0  0  0  0  0  0  0  0  0  0
    6.8028    1.5720    0.0000 O   0  0  0  0  0  0  0  0  0  0  0  0
    6.7951    3.5719    0.0000 O   0  0  0  0  0  0  0  0  0  0  0  0
    7.6553    5.0753    0.0000 O   0  0  0  0  0  0  0  0  0  0  0  0
    6.6628   -2.5524    0.0000 C   0  0  1  0  0  0  0  0  0  0  0  0
    7.5288   -3.0524    0.0000 C   0  0  2  0  0  0  0  0  0  0  0  0
    8.3948   -2.5524    0.0000 C   0  0  1  0  0  0  0  0  0  0  0  0
    5.9258   -3.2195    0.0000 C   0  0  2  0  0  0  0  0  0  0  0  0
    8.3948   -1.5524    0.0000 C   0  0  1  0  0  0  0  0  0  0  0  0
    6.3309   -4.1273    0.0000 C   0  0  2  0  0  0  0  0  0  0  0  0
    9.2888   -1.0177    0.0000 C   0  0  2  0  0  0  0  0  0  0  0  0
    7.3196   -4.0242    0.0000 C   0  0  0  0  0  0  0  0  0  0  0  0
    6.6628   -1.5524    0.0000 C   0  0  0  0  0  0  0  0  0  0  0  0
    7.5288   -1.0524    0.0000 C   0  0  0  0  0  0  0  0  0  0  0  0
    4.9434   -3.3262    0.0000 C   0  0  1  0  0  0  0  0  0  0  0  0
   10.1949   -1.5316    0.0000 C   0  0  2  0  0  0  0  0  0  0  0  0
    9.2888   -3.0870    0.0000 C   0  0  0  0  0  0  0  0  0  0  0  0
    4.7396   -4.2931    0.0000 C   0  0  1  0  0  0  0  0  0  0  0  0
   10.1949   -2.5732    0.0000 C   0  0  0  0  0  0  0  0  0  0  0  0
    5.7968   -2.0524    0.0000 C   0  0  0  0  0  0  0  0  0  0  0  0
    9.2637    0.0670    0.0000 C   0  0  0  0  0  0  0  0  0  0  0  0
   11.1386   -0.9963    0.0000 C   0  0  0  0  0  0  0  0  0  0  0  0
    8.4189   -0.5244    0.0000 C   0  0  0  0  0  0  0  0  0  0  0  0
   10.1949    0.6239    0.0000 C   0  0  0  0  0  0  0  0  0  0  0  0
    4.2723   -2.5848    0.0000 C   0  0  0  0  0  0  0  0  0  0  0  0
   11.1386    0.0887    0.0000 C   0  0  2  0  0  0  0  0  0  0  0  0
    4.6359   -5.2877    0.0000 C   0  0  0  0  0  0  0  0  0  0  0  0
    3.7227   -5.6953    0.0000 C   0  0  0  0  0  0  0  0  0  0  0  0
    3.0169   -4.1136    0.0000 C   0  0  0  0  0  0  0  0  0  0  0  0
    2.9132   -5.1082    0.0000 C   0  0  1  0  0  0  0  0  0  0  0  0
    2.0000   -5.5157    0.0000 C   0  0  0  0  0  0  0  0  0  0  0  0
   11.9989    1.5920    0.0000 C   0  0  2  0  0  0  0  0  0  0  0  0
   11.1309    2.0886    0.0000 C   0  0  1  0  0  0  0  0  0  0  0  0
   11.1271    3.0886    0.0000 C   0  0  2  0  0  0  0  0  0  0  0  0
   12.8591    3.0953    0.0000 C   0  0  1  0  0  0  0  0  0  0  0  0
   11.9912    3.5920    0.0000 C   0  0  2  0  0  0  0  0  0  0  0  0
   13.7232    3.5986    0.0000 C   0  0  0  0  0  0  0  0  0  0  0  0
    9.3989    2.0820    0.0000 C   0  0  2  0  0  0  0  0  0  0  0  0
    8.5348    1.5786    0.0000 C   0  0  1  0  0  0  0  0  0  0  0  0
    7.6669    2.0753    0.0000 C   0  0  2  0  0  0  0  0  0  0  0  0
    8.5271    3.5786    0.0000 C   0  0  1  0  0  0  0  0  0  0  0  0
    7.6630    3.0753    0.0000 C   0  0  1  0  0  0  0  0  0  0  0  0
    8.5232    4.5786    0.0000 C   0  0  0  0  0  0  0  0  0  0  0  0
    8.2158   -3.5529    0.0000 H   0  0  0  0  0  0  0  0  0  0  0  0
    8.3883   -3.4024    0.0000 H   0  0  0  0  0  0  0  0  0  0  0  0
    5.5777   -2.4440    0.0000 H   0  0  0  0  0  0  0  0  0  0  0  0
    8.3883   -0.7024    0.0000 H   0  0  0  0  0  0  0  0  0  0  0  0
    6.6756   -4.9042    0.0000 H   0  0  0  0  0  0  0  0  0  0  0  0
    7.3187   -4.6442    0.0000 H   0  0  0  0  0  0  0  0  0  0  0  0
    7.9361   -4.0903    0.0000 H   0  0  0  0  0  0  0  0  0  0  0  0
    6.4507   -0.9698    0.0000 H   0  0  0  0  0  0  0  0  0  0  0  0
    6.0522   -1.6600    0.0000 H   0  0  0  0  0  0  0  0  0  0  0  0
    7.9274   -0.5774    0.0000 H   0  0  0  0  0  0  0  0  0  0  0  0
    7.1303   -0.5774    0.0000 H   0  0  0  0  0  0  0  0  0  0  0  0
    4.3448   -3.4879    0.0000 H   0  0  0  0  0  0  0  0  0  0  0  0
   10.9293   -1.9594    0.0000 H   0  0  0  0  0  0  0  0  0  0  0  0
    8.8842   -3.5568    0.0000 H   0  0  0  0  0  0  0  0  0  0  0  0
    9.6824   -3.5661    0.0000 H   0  0  0  0  0  0  0  0  0  0  0  0
   10.4039   -3.1569    0.0000 H   0  0  0  0  0  0  0  0  0  0  0  0
   10.8057   -2.4671    0.0000 H   0  0  0  0  0  0  0  0  0  0  0  0
    6.1068   -1.5155    0.0000 H   0  0  0  0  0  0  0  0  0  0  0  0
    5.2598   -1.7424    0.0000 H   0  0  0  0  0  0  0  0  0  0  0  0
    5.4868   -2.5893    0.0000 H   0  0  0  0  0  0  0  0  0  0  0  0
    9.0412    0.6457    0.0000 H   0  0  0  0  0  0  0  0  0  0  0  0
    8.6555   -0.0532    0.0000 H   0  0  0  0  0  0  0  0  0  0  0  0
   11.3477   -1.5800    0.0000 H   0  0  0  0  0  0  0  0  0  0  0  0
   11.7495   -0.8902    0.0000 H   0  0  0  0  0  0  0  0  0  0  0  0
    8.7248    0.0149    0.0000 H   0  0  0  0  0  0  0  0  0  0  0  0
    7.8796   -0.2186    0.0000 H   0  0  0  0  0  0  0  0  0  0  0  0
    8.1131   -1.0637    0.0000 H   0  0  0  0  0  0  0  0  0  0  0  0
   10.5885    1.1029    0.0000 H   0  0  0  0  0  0  0  0  0  0  0  0
    9.7903    1.0937    0.0000 H   0  0  0  0  0  0  0  0  0  0  0  0
    4.7320   -2.1687    0.0000 H   0  0  0  0  0  0  0  0  0  0  0  0
    3.8562   -2.1251    0.0000 H   0  0  0  0  0  0  0  0  0  0  0  0
    3.8126   -3.0008    0.0000 H   0  0  0  0  0  0  0  0  0  0  0  0
   11.1351    0.7086    0.0000 H   0  0  0  0  0  0  0  0  0  0  0  0
    4.7864   -5.8892    0.0000 H   0  0  0  0  0  0  0  0  0  0  0  0
    5.2544   -5.2440    0.0000 H   0  0  0  0  0  0  0  0  0  0  0  0
    3.2771   -6.1263    0.0000 H   0  0  0  0  0  0  0  0  0  0  0  0
    4.0699   -6.2090    0.0000 H   0  0  0  0  0  0  0  0  0  0  0  0
    2.8664   -3.5121    0.0000 H   0  0  0  0  0  0  0  0  0  0  0  0
    2.3984   -4.1574    0.0000 H   0  0  0  0  0  0  0  0  0  0  0  0
    2.8489   -5.7248    0.0000 H   0  0  0  0  0  0  0  0  0  0  0  0
    1.7473   -4.9495    0.0000 H   0  0  0  0  0  0  0  0  0  0  0  0
    1.4338   -5.7684    0.0000 H   0  0  0  0  0  0  0  0  0  0  0  0
    2.2527   -6.0819    0.0000 H   0  0  0  0  0  0  0  0  0  0  0  0
   11.4631    1.2799    0.0000 H   0  0  0  0  0  0  0  0  0  0  0  0
   10.5928    2.3966    0.0000 H   0  0  0  0  0  0  0  0  0  0  0  0
   11.1247    3.7086    0.0000 H   0  0  0  0  0  0  0  0  0  0  0  0
   13.3972    2.7874    0.0000 H   0  0  0  0  0  0  0  0  0  0  0  0
   11.4530    3.8999    0.0000 H   0  0  0  0  0  0  0  0  0  0  0  0
   14.1199    4.0751    0.0000 H   0  0  0  0  0  0  0  0  0  0  0  0
   13.3229    4.0720    0.0000 H   0  0  0  0  0  0  0  0  0  0  0  0
    9.4013    1.4620    0.0000 H   0  0  0  0  0  0  0  0  0  0  0  0
   10.2567    4.2053    0.0000 H   0  0  0  0  0  0  0  0  0  0  0  0
   12.5231    4.9040    0.0000 H   0  0  0  0  0  0  0  0  0  0  0  0
    7.9991    1.2666    0.0000 H   0  0  0  0  0  0  0  0  0  0  0  0
   15.1269    3.4140    0.0000 H   0  0  0  0  0  0  0  0  0  0  0  0
    7.6692    1.4553    0.0000 H   0  0  0  0  0  0  0  0  0  0  0  0
    9.0628    3.8907    0.0000 H   0  0  0  0  0  0  0  0  0  0  0  0
    7.6606    3.6953    0.0000 H   0  0  0  0  0  0  0  0  0  0  0  0
    8.0029    0.2666    0.0000 H   0  0  0  0  0  0  0  0  0  0  0  0
    9.1342    4.4733    0.0000 H   0  0  0  0  0  0  0  0  0  0  0  0
    8.7330    5.1620    0.0000 H   0  0  0  0  0  0  0  0  0  0  0  0
    6.2646    1.8799    0.0000 H   0  0  0  0  0  0  0  0  0  0  0  0
    6.2593    3.2599    0.0000 H   0  0  0  0  0  0  0  0  0  0  0  0
    7.6529    5.6953    0.0000 H   0  0  0  0  0  0  0  0  0  0  0  0
  1 19  1  0  0  0  0
 27  1  1  1  0  0  0
  2 27  1  0  0  0  0
  2 38  1  0  0  0  0
 35  3  1  6  0  0  0
 41  3  1  1  0  0  0
  4 41  1  0  0  0  0
  4 44  1  0  0  0  0
 42  5  1  6  0  0  0
 47  5  1  1  0  0  0
 43  6  1  1  0  0  0
  6104  1  0  0  0  0
 45  7  1  1  0  0  0
  7105  1  0  0  0  0
  8 47  1  0  0  0  0
  8 50  1  0  0  0  0
  9 46  1  0  0  0  0
  9107  1  0  0  0  0
 48 10  1  6  0  0  0
 10111  1  0  0  0  0
 49 11  1  1  0  0  0
 11114  1  0  0  0  0
 51 12  1  6  0  0  0
 12115  1  0  0  0  0
 13 52  1  0  0  0  0
 13116  1  0  0  0  0
 14 15  1  0  0  0  0
 14 17  1  0  0  0  0
 14 22  1  0  0  0  0
 14 29  1  6  0  0  0
 15 16  1  0  0  0  0
 15 21  1  0  0  0  0
 15 53  1  1  0  0  0
 16 18  1  0  0  0  0
 16 26  1  0  0  0  0
 16 54  1  6  0  0  0
 17 19  1  0  0  0  0
 17 24  1  0  0  0  0
 17 55  1  1  0  0  0
 18 20  1  0  0  0  0
 18 23  1  0  0  0  0
 18 56  1  1  0  0  0
 19 21  1  0  0  0  0
 19 57  1  1  0  0  0
 20 25  1  0  0  0  0
 20 30  1  0  0  0  0
 20 32  1  6  0  0  0
 21 58  1  0  0  0  0
 21 59  1  0  0  0  0
 22 23  1  0  0  0  0
 22 60  1  0  0  0  0
 22 61  1  0  0  0  0
 23 62  1  0  0  0  0
 23 63  1  0  0  0  0
 24 27  1  0  0  0  0
 24 34  1  1  0  0  0
 24 64  1  0  0  0  0
 25 28  1  0  0  0  0
 25 31  1  0  0  0  0
 25 65  1  6  0  0  0
 26 28  1  0  0  0  0
 26 66  1  0  0  0  0
 26 67  1  0  0  0  0
 27 36  1  0  0  0  0
 28 68  1  0  0  0  0
 28 69  1  0  0  0  0
 29 70  1  0  0  0  0
 29 71  1  0  0  0  0
 29 72  1  0  0  0  0
 30 33  1  0  0  0  0
 30 73  1  0  0  0  0
 30 74  1  0  0  0  0
 31 35  1  0  0  0  0
 31 75  1  0  0  0  0
 31 76  1  0  0  0  0
 32 77  1  0  0  0  0
 32 78  1  0  0  0  0
 32 79  1  0  0  0  0
 33 35  1  0  0  0  0
 33 80  1  0  0  0  0
 33 81  1  0  0  0  0
 34 82  1  0  0  0  0
 34 83  1  0  0  0  0
 34 84  1  0  0  0  0
 35 85  1  0  0  0  0
 36 37  1  0  0  0  0
 36 86  1  0  0  0  0
 36 87  1  0  0  0  0
 37 39  1  0  0  0  0
 37 88  1  0  0  0  0
 37 89  1  0  0  0  0
 38 39  1  0  0  0  0
 38 90  1  0  0  0  0
 38 91  1  0  0  0  0
 39 40  1  6  0  0  0
 39 92  1  0  0  0  0
 40 93  1  0  0  0  0
 40 94  1  0  0  0  0
 40 95  1  0  0  0  0
 41 42  1  0  0  0  0
 41 96  1  0  0  0  0
 42 43  1  0  0  0  0
 42 97  1  0  0  0  0
 43 45  1  0  0  0  0
 43 98  1  0  0  0  0
 44 45  1  0  0  0  0
 44 46  1  1  0  0  0
 44 99  1  0  0  0  0
 45100  1  0  0  0  0
 46101  1  0  0  0  0
 46102  1  0  0  0  0
 47 48  1  0  0  0  0
 47103  1  0  0  0  0
 48 49  1  0  0  0  0
 48106  1  0  0  0  0
 49 51  1  0  0  0  0
 49108  1  0  0  0  0
 50 51  1  0  0  0  0
 50 52  1  1  0  0  0
 50109  1  0  0  0  0
 51110  1  0  0  0  0
 52112  1  0  0  0  0
 52113  1  0  0  0  0
M  END
> <PUBCHEM_COMPOUND_CID>
15953793

> <PUBCHEM_COMPOUND_CANONICALIZED>
1

> <PUBCHEM_CACTVS_COMPLEXITY>
1270

> <PUBCHEM_CACTVS_HBOND_ACCEPTOR>
13

> <PUBCHEM_CACTVS_HBOND_DONOR>
7

> <PUBCHEM_CACTVS_ROTATABLE_BOND>
6

> <PUBCHEM_CACTVS_SUBSKEYS>
AAADcfB8PAAAAAAAAAAAAAAAAAAAAaIAAAA0aNECAAASAGDAAAAAGgAACAAADxSwgAMCCAAABgAAAAAAAAAAAAAAAAAAAAAAAAAREAIAAAAiQAAFAAAHAAHA4PwPgAAAAAAAAADAAAYAACAAAYAADAAAAA==

> <PUBCHEM_IUPAC_INCHI>
InChI=1S/C39H64O13/c1-18-7-12-39(47-17-18)19(2)28-25(52-39)14-24-22-6-5-20-13-21(8-10-37(20,3)23(22)9-11-38(24,28)4)48-36-34(32(45)30(43)27(16-41)50-36)51-35-33(46)31(44)29(42)26(15-40)49-35/h18-36,40-46H,5-17H2,1-4H3/t18-,19-,20+,21-,22+,23-,24-,25-,26+,27+,28-,29+,30-,31-,32-,33+,34+,35-,36+,37-,38-,39+/m0/s1

> <PUBCHEM_IUPAC_INCHIKEY>
MMTWXUQMLQGAPC-YXOKLLKRSA-N

> <PUBCHEM_XLOGP3_AA>
3.3

> <PUBCHEM_EXACT_MASS>
740.434692

> <PUBCHEM_MOLECULAR_FORMULA>
C39H64O13

> <PUBCHEM_MOLECULAR_WEIGHT>
740.91766

> <PUBCHEM_OPENEYE_CAN_SMILES>
CC1CCC2(C(C3C(O2)CC4C3(CCC5C4CCC6C5(CCC(C6)OC7C(C(C(C(O7)CO)O)O)OC8C(C(C(C(O8)CO)O)O)O)C)C)C)OC1

> <PUBCHEM_OPENEYE_ISO_SMILES>
C[C@H]1CC[C@@]2([C@H]([C@H]3[C@@H](O2)C[C@@H]4[C@@]3(CC[C@H]5[C@H]4CC[C@H]6[C@@]5(CC[C@@H](C6)O[C@H]7[C@@H]([C@H]([C@H]([C@H](O7)CO)O)O)O[C@H]8[C@@H]([C@H]([C@@H]([C@H](O8)CO)O)O)O)C)C)C)OC1

> <PUBCHEM_CACTVS_TPSA>
197

> <PUBCHEM_MONOISOTOPIC_WEIGHT>
740.434692

> <PUBCHEM_TOTAL_CHARGE>
0

> <PUBCHEM_HEAVY_ATOM_COUNT>
52

> <PUBCHEM_ATOM_DEF_STEREO_COUNT>
22

> <PUBCHEM_ATOM_UDEF_STEREO_COUNT>
0

> <PUBCHEM_BOND_DEF_STEREO_COUNT>
0

> <PUBCHEM_BOND_UDEF_STEREO_COUNT>
0

> <PUBCHEM_ISOTOPIC_ATOM_COUNT>
0

> <PUBCHEM_COMPONENT_COUNT>
1

> <PUBCHEM_CACTVS_TAUTO_COUNT>
1

> <PUBCHEM_COORDINATE_TYPE>
1
5
255

> <PUBCHEM_BONDANNOTATIONS>
27  1  5
48  10  6
49  11  5
51  12  6
14  29  6
15  53  5
16  54  6
17  55  5
18  56  5
19  57  5
20  32  6
24  34  5
25  65  6
35  3  6
41  3  5
39  40  6
44  46  5
42  5  6
47  5  5
50  52  5
43  6  5
45  7  5

$$$$

