4369587
  -OEChem-07051212512D

 17 16  0     1  0  0  0  0  0999 V2000
    3.4030   -0.2015    0.0000 P   0  0  0  0  0  0  0  0  0  0  0  0
    6.0010    0.2985    0.0000 O   0  0  0  0  0  0  0  0  0  0  0  0
    2.5369   -0.7015    0.0000 O   0  0  0  0  0  0  0  0  0  0  0  0
    2.9030    0.6645    0.0000 O   0  0  0  0  0  0  0  0  0  0  0  0
    3.9030   -1.0675    0.0000 O   0  0  0  0  0  0  0  0  0  0  0  0
    4.2690    0.2985    0.0000 C   0  0  0  0  0  0  0  0  0  0  0  0
    5.1350   -0.2015    0.0000 C   0  0  2  0  0  0  0  0  0  0  0  0
    5.1350   -1.2015    0.0000 C   0  0  0  0  0  0  0  0  0  0  0  0
    4.6675    0.7735    0.0000 H   0  0  0  0  0  0  0  0  0  0  0  0
    3.8705    0.7735    0.0000 H   0  0  0  0  0  0  0  0  0  0  0  0
    5.1350    0.4185    0.0000 H   0  0  0  0  0  0  0  0  0  0  0  0
    4.5150   -1.2015    0.0000 H   0  0  0  0  0  0  0  0  0  0  0  0
    5.1350   -1.8215    0.0000 H   0  0  0  0  0  0  0  0  0  0  0  0
    5.7550   -1.2015    0.0000 H   0  0  0  0  0  0  0  0  0  0  0  0
    6.5380   -0.0115    0.0000 H   0  0  0  0  0  0  0  0  0  0  0  0
    2.0000   -0.3915    0.0000 H   0  0  0  0  0  0  0  0  0  0  0  0
    3.2130    1.2015    0.0000 H   0  0  0  0  0  0  0  0  0  0  0  0
  1  3  1  0  0  0  0
  1  4  1  0  0  0  0
  1  5  2  0  0  0  0
  1  6  1  0  0  0  0
  7  2  1  1  0  0  0
  2 15  1  0  0  0  0
  3 16  1  0  0  0  0
  4 17  1  0  0  0  0
  6  7  1  0  0  0  0
  6  9  1  0  0  0  0
  6 10  1  0  0  0  0
  7  8  1  0  0  0  0
  7 11  1  0  0  0  0
  8 12  1  0  0  0  0
  8 13  1  0  0  0  0
  8 14  1  0  0  0  0
M  END
> <PUBCHEM_COMPOUND_CID>
4369587

> <PUBCHEM_COMPOUND_CANONICALIZED>
1

> <PUBCHEM_CACTVS_COMPLEXITY>
106

> <PUBCHEM_CACTVS_HBOND_ACCEPTOR>
4

> <PUBCHEM_CACTVS_HBOND_DONOR>
3

> <PUBCHEM_CACTVS_ROTATABLE_BOND>
2

> <PUBCHEM_CACTVS_SUBSKEYS>
AAADccBAOAIAAAAAAAAAAAAAAAAAAAAAAAAAAAAAAAAAAAAAAAAAGggACCAACBSogAICAAAAAhAAQAAAAIAAAAAAAAAAAAAAAAAAEAAAAAAAAAAAAAAAAAAAAAAAAAAAAAAAAAAAAAAAAAAAAAAAAAAAAA==

> <PUBCHEM_IUPAC_OPENEYE_NAME>
[(2S)-2-hydroxypropyl]phosphonic acid

> <PUBCHEM_IUPAC_CAS_NAME>
[(2S)-2-hydroxypropyl]phosphonic acid

> <PUBCHEM_IUPAC_NAME>
[(2S)-2-hydroxypropyl]phosphonic acid

> <PUBCHEM_IUPAC_SYSTEMATIC_NAME>
[(2S)-2-oxidanylpropyl]phosphonic acid

> <PUBCHEM_IUPAC_TRADITIONAL_NAME>
[(2S)-2-hydroxypropyl]phosphonic acid

> <PUBCHEM_IUPAC_INCHI>
InChI=1S/C3H9O4P/c1-3(4)2-8(5,6)7/h3-4H,2H2,1H3,(H2,5,6,7)/t3-/m0/s1

> <PUBCHEM_IUPAC_INCHIKEY>
ZFVCONUOLQASEW-VKHMYHEASA-N

> <PUBCHEM_XLOGP3_AA>
-1.9

> <PUBCHEM_EXACT_MASS>
140.023845

> <PUBCHEM_MOLECULAR_FORMULA>
C3H9O4P

> <PUBCHEM_MOLECULAR_WEIGHT>
140.074922

> <PUBCHEM_OPENEYE_CAN_SMILES>
CC(CP(=O)(O)O)O

> <PUBCHEM_OPENEYE_ISO_SMILES>
C[C@@H](CP(=O)(O)O)O

> <PUBCHEM_CACTVS_TPSA>
77.8

> <PUBCHEM_MONOISOTOPIC_WEIGHT>
140.023845

> <PUBCHEM_TOTAL_CHARGE>
0

> <PUBCHEM_HEAVY_ATOM_COUNT>
8

> <PUBCHEM_ATOM_DEF_STEREO_COUNT>
1

> <PUBCHEM_ATOM_UDEF_STEREO_COUNT>
0

> <PUBCHEM_BOND_DEF_STEREO_COUNT>
0

> <PUBCHEM_BOND_UDEF_STEREO_COUNT>
0

> <PUBCHEM_ISOTOPIC_ATOM_COUNT>
0

> <PUBCHEM_COMPONENT_COUNT>
1

> <PUBCHEM_CACTVS_TAUTO_COUNT>
1

> <PUBCHEM_COORDINATE_TYPE>
1
5
255

> <PUBCHEM_BONDANNOTATIONS>
7  2  5

$$$$

