582717
  -OEChem-06241222433D

 43 44  0     1  0  0  0  0  0999 V2000
   -0.5486    0.8893    0.7723 S   0  0  0  0  0  0  0  0  0  0  0  0
    3.4068   -1.9136   -0.5209 O   0  0  0  0  0  0  0  0  0  0  0  0
    2.6993    1.7959   -0.5337 O   0  0  0  0  0  0  0  0  0  0  0  0
   -0.1459    2.0734    0.0267 O   0  0  0  0  0  0  0  0  0  0  0  0
   -0.5147    0.9046    2.2279 O   0  0  0  0  0  0  0  0  0  0  0  0
    2.1480   -2.1761    1.4013 O   0  0  0  0  0  0  0  0  0  0  0  0
    2.4518    1.2347    1.6962 O   0  0  0  0  0  0  0  0  0  0  0  0
   -5.9756   -0.6394   -0.9560 O   0  0  0  0  0  0  0  0  0  0  0  0
    0.3592   -0.4474    0.2166 N   0  0  2  0  0  0  0  0  0  0  0  0
    1.8052   -0.2944    0.0266 C   0  0  0  0  0  0  0  0  0  0  0  0
    0.8738   -0.2925   -1.1475 C   0  0  0  0  0  0  0  0  0  0  0  0
    2.4598   -1.5618    0.3912 C   0  0  0  0  0  0  0  0  0  0  0  0
    2.3502    0.9863    0.5033 C   0  0  0  0  0  0  0  0  0  0  0  0
   -2.1553    0.4360    0.2598 C   0  0  0  0  0  0  0  0  0  0  0  0
   -2.9752   -0.3050    1.1109 C   0  0  0  0  0  0  0  0  0  0  0  0
   -2.6191    0.8158   -0.9996 C   0  0  0  0  0  0  0  0  0  0  0  0
    4.0982   -3.1364   -0.2475 C   0  0  0  0  0  0  0  0  0  0  0  0
    3.2406    3.0681   -0.1641 C   0  0  0  0  0  0  0  0  0  0  0  0
   -4.2591   -0.6661    0.7025 C   0  0  0  0  0  0  0  0  0  0  0  0
   -3.9030    0.4546   -1.4080 C   0  0  0  0  0  0  0  0  0  0  0  0
   -4.7231   -0.2862   -0.5570 C   0  0  0  0  0  0  0  0  0  0  0  0
    5.1106   -3.3866   -1.3449 C   0  0  0  0  0  0  0  0  0  0  0  0
    3.5764    3.8446   -1.4195 C   0  0  0  0  0  0  0  0  0  0  0  0
   -6.7602   -1.3977   -0.0368 C   0  0  0  0  0  0  0  0  0  0  0  0
    0.7556   -1.1985   -1.7273 H   0  0  0  0  0  0  0  0  0  0  0  0
    0.6391    0.6206   -1.6708 H   0  0  0  0  0  0  0  0  0  0  0  0
   -2.6310   -0.6166    2.0932 H   0  0  0  0  0  0  0  0  0  0  0  0
   -1.9965    1.3886   -1.6810 H   0  0  0  0  0  0  0  0  0  0  0  0
    3.3790   -3.9623   -0.2117 H   0  0  0  0  0  0  0  0  0  0  0  0
    4.6103   -3.0582    0.7181 H   0  0  0  0  0  0  0  0  0  0  0  0
    4.1472    2.9192    0.4329 H   0  0  0  0  0  0  0  0  0  0  0  0
    2.5028    3.6213    0.4276 H   0  0  0  0  0  0  0  0  0  0  0  0
   -4.8423   -1.2429    1.4121 H   0  0  0  0  0  0  0  0  0  0  0  0
   -4.2585    0.7520   -2.3908 H   0  0  0  0  0  0  0  0  0  0  0  0
    5.6587   -4.3159   -1.1670 H   0  0  0  0  0  0  0  0  0  0  0  0
    5.8260   -2.5598   -1.4048 H   0  0  0  0  0  0  0  0  0  0  0  0
    4.6149   -3.4491   -2.3193 H   0  0  0  0  0  0  0  0  0  0  0  0
    3.9937    4.8250   -1.1733 H   0  0  0  0  0  0  0  0  0  0  0  0
    2.6822    3.9852   -2.0358 H   0  0  0  0  0  0  0  0  0  0  0  0
    4.3003    3.2951   -2.0303 H   0  0  0  0  0  0  0  0  0  0  0  0
   -7.7251   -1.5900   -0.5173 H   0  0  0  0  0  0  0  0  0  0  0  0
   -6.9660   -0.8325    0.8785 H   0  0  0  0  0  0  0  0  0  0  0  0
   -6.3064   -2.3729    0.1706 H   0  0  0  0  0  0  0  0  0  0  0  0
  1  4  2  0  0  0  0
  1  5  2  0  0  0  0
  1  9  1  0  0  0  0
  1 14  1  0  0  0  0
  2 12  1  0  0  0  0
  2 17  1  0  0  0  0
  3 13  1  0  0  0  0
  3 18  1  0  0  0  0
  6 12  2  0  0  0  0
  7 13  2  0  0  0  0
  8 21  1  0  0  0  0
  8 24  1  0  0  0  0
  9 10  1  0  0  0  0
  9 11  1  0  0  0  0
 10 11  1  0  0  0  0
 10 12  1  0  0  0  0
 10 13  1  0  0  0  0
 11 25  1  0  0  0  0
 11 26  1  0  0  0  0
 14 15  2  0  0  0  0
 14 16  1  0  0  0  0
 15 19  1  0  0  0  0
 15 27  1  0  0  0  0
 16 20  2  0  0  0  0
 16 28  1  0  0  0  0
 17 22  1  0  0  0  0
 17 29  1  0  0  0  0
 17 30  1  0  0  0  0
 18 23  1  0  0  0  0
 18 31  1  0  0  0  0
 18 32  1  0  0  0  0
 19 21  2  0  0  0  0
 19 33  1  0  0  0  0
 20 21  1  0  0  0  0
 20 34  1  0  0  0  0
 22 35  1  0  0  0  0
 22 36  1  0  0  0  0
 22 37  1  0  0  0  0
 23 38  1  0  0  0  0
 23 39  1  0  0  0  0
 23 40  1  0  0  0  0
 24 41  1  0  0  0  0
 24 42  1  0  0  0  0
 24 43  1  0  0  0  0
M  END
> <PUBCHEM_COMPOUND_CID>
582717

> <PUBCHEM_CONFORMER_RMSD>
1

> <PUBCHEM_CONFORMER_DIVERSEORDER>
1
2
8
13
14
19
12
18
6
4
11
10
16
5
3
9
17
7
15

> <PUBCHEM_MMFF94_PARTIAL_CHARGES>
28
1 1.45
10 0.23
11 0.03
12 0.72
13 0.72
14 -0.01
15 -0.15
16 -0.15
17 0.28
18 0.28
19 -0.15
2 -0.43
20 -0.15
21 0.08
24 0.28
25 0.1
26 0.1
27 0.15
28 0.15
3 -0.43
33 0.15
34 0.15
4 -0.65
5 -0.65
6 -0.57
7 -0.57
8 -0.36
9 -0.6

> <PUBCHEM_EFFECTIVE_ROTOR_COUNT>
9.6

> <PUBCHEM_PHARMACOPHORE_FEATURES>
6
1 4 acceptor
1 5 acceptor
1 6 acceptor
1 7 acceptor
1 8 acceptor
6 14 15 16 19 20 21 rings

> <PUBCHEM_HEAVY_ATOM_COUNT>
24

> <PUBCHEM_ATOM_DEF_STEREO_COUNT>
0

> <PUBCHEM_ATOM_UDEF_STEREO_COUNT>
0

> <PUBCHEM_BOND_DEF_STEREO_COUNT>
0

> <PUBCHEM_BOND_UDEF_STEREO_COUNT>
0

> <PUBCHEM_ISOTOPIC_ATOM_COUNT>
0

> <PUBCHEM_COMPONENT_COUNT>
1

> <PUBCHEM_CACTVS_TAUTO_COUNT>
1

> <PUBCHEM_CONFORMER_ID>
0008E43D00000001

> <PUBCHEM_MMFF94_ENERGY>
52.0523

> <PUBCHEM_FEATURE_SELFOVERLAP>
30.465

> <PUBCHEM_SHAPE_FINGERPRINT>
10759866 29 18262521360137774647
11961588 58 15697702766810562654
12553582 1 18054503874947674634
12730499 353 18199465472439464961
12916754 54 18409729599466888117
13009979 54 17749945704031550304
133893 2 18266714996755766904
13533116 47 18261112946557749251
13540713 5 18042665342872786297
13911987 19 17981026536394468700
13955234 65 18335705992391153896
15537594 2 17968940756832894055
15961568 22 17131275640662124221
1813 80 18042396018917367910
18186145 218 17418371424219687193
18222031 100 18263364866488528966
193927 3 18187644764526308127
19784866 240 18114743849470182383
20388580 30 18334573594467765382
20645477 70 18411985758377155027
20671657 53 18267021846135225650
21344244 246 18410283715173735518
23557571 272 16987986181839660545
23559900 14 18343027730430210195
23566358 27 18410292471900174814
23598288 3 17532654740041300641
239999 70 18343589524969149682
25147074 1 17968922193277586529
3004659 81 18335989752633506411
312423 11 18260260880516852809
46194498 28 18272938210555767396
465052 167 18113336444179272439
5104073 3 17676203581340164931
5281201 14 18343587364859082157
6025842 7 18339924814006085172
6669772 16 18264759966655867636
7970288 3 18189054376946041311
9709674 26 18272654545541289827

> <PUBCHEM_SHAPE_MULTIPOLES>
451.69
12.01
3.65
1.48
15.22
0.58
-0.27
-7.2
4.01
-9.03
1.33
-0.14
0.21
0.31

> <PUBCHEM_SHAPE_SELFOVERLAP>
926.036

> <PUBCHEM_SHAPE_VOLUME>
263.1

> <PUBCHEM_COORDINATE_TYPE>
2
5
10

$$$$

