114868
  -OEChem-07051213133D

 24 25  0     0  0  0  0  0  0999 V2000
    1.3770    3.1378   -0.5530 Br  0  0  0  0  0  0  0  0  0  0  0  0
   -3.7872    1.7780    0.6669 Cl  0  0  0  0  0  0  0  0  0  0  0  0
    1.6320    0.0696   -0.8348 O   0  0  0  0  0  0  0  0  0  0  0  0
    2.1702   -0.0796    1.4374 O   0  0  0  0  0  0  0  0  0  0  0  0
   -0.2746   -1.8436   -0.4843 N   0  0  0  0  0  0  0  0  0  0  0  0
   -1.9046   -0.1513    0.0510 C   0  0  0  0  0  0  0  0  0  0  0  0
   -0.6001   -0.5488   -0.3095 C   0  0  0  0  0  0  0  0  0  0  0  0
    0.3618    0.4424   -0.4841 C   0  0  0  0  0  0  0  0  0  0  0  0
   -2.2093    1.2095    0.2250 C   0  0  0  0  0  0  0  0  0  0  0  0
   -2.8732   -1.1487    0.2273 C   0  0  0  0  0  0  0  0  0  0  0  0
    0.0593    1.7953   -0.3109 C   0  0  0  0  0  0  0  0  0  0  0  0
   -1.2278    2.1797    0.0440 C   0  0  0  0  0  0  0  0  0  0  0  0
   -2.5407   -2.4836    0.0479 C   0  0  0  0  0  0  0  0  0  0  0  0
   -1.2386   -2.7753   -0.3047 C   0  0  0  0  0  0  0  0  0  0  0  0
    2.4690   -0.1719    0.2568 C   0  0  0  0  0  0  0  0  0  0  0  0
    3.7977   -0.5623   -0.2620 C   0  0  0  0  0  0  0  0  0  0  0  0
    4.7891   -0.8473    0.5871 C   0  0  0  0  0  0  0  0  0  0  0  0
   -3.8983   -0.9207    0.5048 H   0  0  0  0  0  0  0  0  0  0  0  0
   -1.4662    3.2324    0.1791 H   0  0  0  0  0  0  0  0  0  0  0  0
   -3.2767   -3.2680    0.1799 H   0  0  0  0  0  0  0  0  0  0  0  0
   -0.9206   -3.8012   -0.4584 H   0  0  0  0  0  0  0  0  0  0  0  0
    3.9509   -0.6119   -1.3339 H   0  0  0  0  0  0  0  0  0  0  0  0
    5.7640   -1.1335    0.2065 H   0  0  0  0  0  0  0  0  0  0  0  0
    4.6647   -0.8059    1.6636 H   0  0  0  0  0  0  0  0  0  0  0  0
  1 11  1  0  0  0  0
  2  9  1  0  0  0  0
  3  8  1  0  0  0  0
  3 15  1  0  0  0  0
  4 15  2  0  0  0  0
  5  7  1  0  0  0  0
  5 14  2  0  0  0  0
  6  7  2  0  0  0  0
  6  9  1  0  0  0  0
  6 10  1  0  0  0  0
  7  8  1  0  0  0  0
  8 11  2  0  0  0  0
  9 12  2  0  0  0  0
 10 13  2  0  0  0  0
 10 18  1  0  0  0  0
 11 12  1  0  0  0  0
 12 19  1  0  0  0  0
 13 14  1  0  0  0  0
 13 20  1  0  0  0  0
 14 21  1  0  0  0  0
 15 16  1  0  0  0  0
 16 17  2  0  0  0  0
 16 22  1  0  0  0  0
 17 23  1  0  0  0  0
 17 24  1  0  0  0  0
M  END
> <PUBCHEM_COMPOUND_CID>
114868

> <PUBCHEM_CONFORMER_RMSD>
0.6

> <PUBCHEM_CONFORMER_DIVERSEORDER>
1
14
15
7
2
13
16
8
9
11
4
5
10
12
6
3

> <PUBCHEM_MMFF94_PARTIAL_CHARGES>
23
1 -0.11
10 -0.15
11 0.11
12 -0.15
13 -0.15
14 0.16
15 0.71
16 -0.14
17 -0.3
18 0.15
19 0.15
2 -0.18
20 0.15
21 0.15
22 0.15
23 0.15
24 0.15
3 -0.23
4 -0.57
5 -0.62
7 0.31
8 0.08
9 0.18

> <PUBCHEM_EFFECTIVE_ROTOR_COUNT>
3

> <PUBCHEM_PHARMACOPHORE_FEATURES>
6
1 1 hydrophobe
1 17 hydrophobe
1 4 acceptor
1 5 acceptor
6 5 6 7 10 13 14 rings
6 6 7 8 9 11 12 rings

> <PUBCHEM_HEAVY_ATOM_COUNT>
17

> <PUBCHEM_ATOM_DEF_STEREO_COUNT>
0

> <PUBCHEM_ATOM_UDEF_STEREO_COUNT>
0

> <PUBCHEM_BOND_DEF_STEREO_COUNT>
0

> <PUBCHEM_BOND_UDEF_STEREO_COUNT>
0

> <PUBCHEM_ISOTOPIC_ATOM_COUNT>
0

> <PUBCHEM_COMPONENT_COUNT>
1

> <PUBCHEM_CACTVS_TAUTO_COUNT>
1

> <PUBCHEM_CONFORMER_ID>
0001C0B400000001

> <PUBCHEM_MMFF94_ENERGY>
53.4659

> <PUBCHEM_FEATURE_SELFOVERLAP>
30.477

> <PUBCHEM_SHAPE_FINGERPRINT>
10493431 412 18190454046947655737
10967382 1 18194395821670498927
1100329 8 18410289216193865689
11132069 177 18337950202855169396
11680986 33 18265626381032759189
12251169 10 18411696625236482801
13140716 1 18410002213857930801
13172582 1 18411693313990731777
13380535 76 18264204876117921063
13544592 145 17970335139176665350
14178342 30 18119228809261449969
14420673 8 17906738360520210730
14790565 3 18194103338567190332
15042514 8 18412541050161333491
15295992 7 17386019389651597064
15375462 189 17917993910196083000
15442244 35 18339077086251455132
16752209 62 18340498806658326839
16945 1 18338789117706381045
17804303 29 18334292076388258058
193761 8 18194114123435025909
19422 9 18201996612704928614
19591789 44 17761485189886309071
20510252 161 18045502177556894344
20600515 1 18334569191968635740
20871998 184 18260830392948265414
20905425 154 17902499398668556205
21501502 16 18266451019080181149
21650355 55 18339652221433432976
22112679 90 18272080583149446332
23184049 29 18266177219093561671
2334 1 18193830458241272069
23366157 5 17986952938812697220
23402539 116 18262248823167211933
23419403 2 16459470737713995525
23557571 272 18261101951620754620
23558518 356 18269270162661738817
23559900 14 18188488090635545142
25147074 1 18265319626242450357
257057 1 17901676960013622439
2748010 2 17691673907200342333
352729 6 18335967719546132517
43471831 8 18125157396726307483
465052 167 17844785102125682665
5104073 3 18409454683121445674
589210 1 18194398892361541229
6992083 37 18340476846168775928
7364860 26 17977664212914459148
74978 22 18340487776955386005
77492 1 17775276180013854206
81228 2 18265920019245673138
90316 7 18271818976876257944

> <PUBCHEM_SHAPE_MULTIPOLES>
340.94
6.26
3.32
0.86
5.2
0.67
0.11
-1.47
1.65
-1.58
-0.45
0.28
0.06
-0.74

> <PUBCHEM_SHAPE_SELFOVERLAP>
717.375

> <PUBCHEM_SHAPE_VOLUME>
197.4

> <PUBCHEM_COORDINATE_TYPE>
2
5
10

$$$$

