663
  -OEChem-07051212443D

 29 28  0     1  0  0  0  0  0999 V2000
    2.3169   -2.5972    0.0142 S   0  0  0  0  0  0  0  0  0  0  0  0
    4.0461    1.9460   -1.1345 S   0  0  0  0  0  0  0  0  0  0  0  0
   -3.8875    1.1499    0.9327 O   0  0  0  0  0  0  0  0  0  0  0  0
   -5.1069   -0.0907   -0.5740 N   0  0  0  0  0  0  0  0  0  0  0  0
    1.0899   -0.1217    0.3558 C   0  0  0  0  0  0  0  0  0  0  0  0
    2.3901   -0.7743   -0.1563 C   0  0  1  0  0  0  0  0  0  0  0  0
   -0.1786   -0.6248   -0.3467 C   0  0  0  0  0  0  0  0  0  0  0  0
   -1.4274    0.0730    0.2036 C   0  0  0  0  0  0  0  0  0  0  0  0
    3.6038   -0.1999    0.6060 C   0  0  0  0  0  0  0  0  0  0  0  0
   -2.7071   -0.3887   -0.4918 C   0  0  0  0  0  0  0  0  0  0  0  0
    3.8020    1.3189    0.5527 C   0  0  0  0  0  0  0  0  0  0  0  0
   -3.9412    0.3095    0.0381 C   0  0  0  0  0  0  0  0  0  0  0  0
    0.9938   -0.2805    1.4381 H   0  0  0  0  0  0  0  0  0  0  0  0
    1.1366    0.9622    0.2021 H   0  0  0  0  0  0  0  0  0  0  0  0
    2.4938   -0.5731   -1.2276 H   0  0  0  0  0  0  0  0  0  0  0  0
   -0.3070   -1.7031   -0.2103 H   0  0  0  0  0  0  0  0  0  0  0  0
   -0.0976   -0.4386   -1.4245 H   0  0  0  0  0  0  0  0  0  0  0  0
   -1.5070   -0.1179    1.2813 H   0  0  0  0  0  0  0  0  0  0  0  0
   -1.3199    1.1586    0.0851 H   0  0  0  0  0  0  0  0  0  0  0  0
    4.5200   -0.6806    0.2356 H   0  0  0  0  0  0  0  0  0  0  0  0
    3.5261   -0.4798    1.6658 H   0  0  0  0  0  0  0  0  0  0  0  0
   -2.8390   -1.4685   -0.3548 H   0  0  0  0  0  0  0  0  0  0  0  0
   -2.6395   -0.1923   -1.5684 H   0  0  0  0  0  0  0  0  0  0  0  0
    4.6944    1.5803    1.1317 H   0  0  0  0  0  0  0  0  0  0  0  0
    2.9636    1.8493    1.0125 H   0  0  0  0  0  0  0  0  0  0  0  0
    3.4867   -2.8547   -0.5889 H   0  0  0  0  0  0  0  0  0  0  0  0
    5.1412    1.2229   -1.4114 H   0  0  0  0  0  0  0  0  0  0  0  0
   -5.1193   -0.7887   -1.3107 H   0  0  0  0  0  0  0  0  0  0  0  0
   -6.0014    0.3051   -0.3045 H   0  0  0  0  0  0  0  0  0  0  0  0
  1  6  1  0  0  0  0
  1 26  1  0  0  0  0
  2 11  1  0  0  0  0
  2 27  1  0  0  0  0
  3 12  2  0  0  0  0
  4 12  1  0  0  0  0
  4 28  1  0  0  0  0
  4 29  1  0  0  0  0
  5  6  1  0  0  0  0
  5  7  1  0  0  0  0
  5 13  1  0  0  0  0
  5 14  1  0  0  0  0
  6  9  1  0  0  0  0
  6 15  1  0  0  0  0
  7  8  1  0  0  0  0
  7 16  1  0  0  0  0
  7 17  1  0  0  0  0
  8 10  1  0  0  0  0
  8 18  1  0  0  0  0
  8 19  1  0  0  0  0
  9 11  1  0  0  0  0
  9 20  1  0  0  0  0
  9 21  1  0  0  0  0
 10 12  1  0  0  0  0
 10 22  1  0  0  0  0
 10 23  1  0  0  0  0
 11 24  1  0  0  0  0
 11 25  1  0  0  0  0
M  END
> <PUBCHEM_COMPOUND_CID>
663

> <PUBCHEM_CONFORMER_RMSD>
0.8

> <PUBCHEM_CONFORMER_DIVERSEORDER>
1
208
246
239
240
17
119
49
207
10
225
16
252
94
167
130
99
245
29
46
230
11
203
32
129
146
248
58
69
247
123
2
92
229
194
198
33
74
82
150
213
56
227
171
152
85
7
103
174
234
81
23
97
66
134
201
223
112
100
80
87
218
172
235
45
136
20
43
114
253
95
212
109
53
254
233
251
98
34
116
47
67
96
30
57
236
3
238
139
231
226
149
5
31
78
184
151
18
204
217
101
214
159
121
48
108
169
138
75
4
148
224
25
133
190
241
135
175
250
36
15
65
237
140
64
243
13
144
242
117
89
127
63
142
40
55
206
177
93
76
143
72
70
153
41
110
106
137
42
183
88
51
154
59
228
132
12
105
145
232
28
52
62
22
115
102
83
156
202
147
126
222
37
50
77
155
124
249
120
176
35
179
178
79
197
39
21
168
73
107
141
26
205
200
195
90
113
38
86
91
131
158
84
6
9
125
191
199
24
173
128
180
19
71
165
122
14
181
182
196
68
162
193
118
219
170
111
60
8
166
164
192
104
27
185
189
244
188
157
186
220
187
54
160
163
61
210
215
216
221
161
44
209
211

> <PUBCHEM_MMFF94_PARTIAL_CHARGES>
12
1 -0.41
10 0.06
11 0.23
12 0.57
2 -0.41
26 0.18
27 0.18
28 0.37
29 0.37
3 -0.57
4 -0.8
6 0.23

> <PUBCHEM_EFFECTIVE_ROTOR_COUNT>
7

> <PUBCHEM_PHARMACOPHORE_FEATURES>
3
1 3 acceptor
1 4 donor
4 5 7 8 10 hydrophobe

> <PUBCHEM_HEAVY_ATOM_COUNT>
12

> <PUBCHEM_ATOM_DEF_STEREO_COUNT>
0

> <PUBCHEM_ATOM_UDEF_STEREO_COUNT>
1

> <PUBCHEM_BOND_DEF_STEREO_COUNT>
0

> <PUBCHEM_BOND_UDEF_STEREO_COUNT>
0

> <PUBCHEM_ISOTOPIC_ATOM_COUNT>
0

> <PUBCHEM_COMPONENT_COUNT>
1

> <PUBCHEM_CACTVS_TAUTO_COUNT>
2

> <PUBCHEM_CONFORMER_ID>
0000029700000001

> <PUBCHEM_MMFF94_ENERGY>
16.0852

> <PUBCHEM_FEATURE_SELFOVERLAP>
15.223

> <PUBCHEM_SHAPE_FINGERPRINT>
10912923 1 18113902688968260195
12346645 6 18411140251442338134
12616999 72 18260829293589488194
13675066 3 14908189650344604938
14123238 8 18410858741952635381
14123260 362 18188196637590014793
14251764 75 17483936208759637284
14252887 29 17775281702846080459
14415576 193 18410854369665391628
14774955 27 18058448712378404060
15342168 16 18058446504902162692
17834072 33 18335989675239445911
18186145 218 18340486771822301326
20279233 1 17131832092677587739
20645477 70 18260831552463179038
20828058 21 16515405162014031173
2255824 54 18338795736298859558
23048698 100 18261393390193754123
23380061 81 18410853300081566786
23532345 1 18342736329636482970
3060560 45 16805041805253786764
32948 21 6411029620640653467
449060 50 18343580733392478191
449060 62 18411417298228515404
474 4 18271805679583487500
4990 188 16225760801055791764
81539 233 18413390925842768558

> <PUBCHEM_SHAPE_MULTIPOLES>
243.8
10.29
2.01
0.92
9.55
0.79
-0.04
-4.43
-0.41
-3.06
-0.3
-0.29
-0.27
-0.81

> <PUBCHEM_SHAPE_SELFOVERLAP>
428.315

> <PUBCHEM_SHAPE_VOLUME>
161.6

> <PUBCHEM_COORDINATE_TYPE>
2
5
10

$$$$

