5497186
  -OEChem-07051213113D

 57 64  0     1  0  0  0  0  0999 V2000
   -0.8925   -1.9685   -1.5612 O   0  0  0  0  0  0  0  0  0  0  0  0
    0.5051    2.3095   -0.7266 O   0  0  0  0  0  0  0  0  0  0  0  0
   -0.9808   -4.5974   -0.3211 O   0  0  0  0  0  0  0  0  0  0  0  0
    2.9769    1.2226   -0.0156 N   0  0  2  0  0  0  0  0  0  0  0  0
   -3.2299   -0.0331   -1.4368 N   0  0  0  0  0  0  0  0  0  0  0  0
    0.5429   -0.1377   -0.8260 C   0  0  1  0  0  0  0  0  0  0  0  0
    0.5157    1.1207    0.0819 C   0  0  1  0  0  0  0  0  0  0  0  0
    1.8368    1.0776    0.9258 C   0  0  1  0  0  0  0  0  0  0  0  0
   -0.7477   -0.5104   -1.6018 C   0  0  2  0  0  0  0  0  0  0  0  0
    1.7766   -0.1067   -1.7569 C   0  0  0  0  0  0  0  0  0  0  0  0
    0.6116   -1.3419    0.0495 C   0  0  0  0  0  0  0  0  0  0  0  0
   -0.7638    1.2278    0.9613 C   0  0  0  0  0  0  0  0  0  0  0  0
    1.9186   -0.1982    1.8388 C   0  0  0  0  0  0  0  0  0  0  0  0
    3.0893    0.1371   -0.9942 C   0  0  0  0  0  0  0  0  0  0  0  0
    1.2840   -1.4357    1.2551 C   0  0  0  0  0  0  0  0  0  0  0  0
   -1.9553    0.0940   -0.9616 C   0  0  0  0  0  0  0  0  0  0  0  0
   -1.9890    0.8783    0.1742 C   0  0  0  0  0  0  0  0  0  0  0  0
    4.2509    1.4783    0.6481 C   0  0  0  0  0  0  0  0  0  0  0  0
   -0.1724   -2.3573   -0.4577 C   0  0  0  0  0  0  0  0  0  0  0  0
    5.3150    1.8365   -0.3380 C   0  0  0  0  0  0  0  0  0  0  0  0
    6.6983    2.1099    0.1595 C   0  0  0  0  0  0  0  0  0  0  0  0
    6.4091    0.8538   -0.6088 C   0  0  0  0  0  0  0  0  0  0  0  0
   -3.3499    1.2291    0.4070 C   0  0  0  0  0  0  0  0  0  0  0  0
    1.2348   -2.6672    1.9095 C   0  0  0  0  0  0  0  0  0  0  0  0
   -0.2277   -3.5822    0.1686 C   0  0  0  0  0  0  0  0  0  0  0  0
   -4.1040    0.6463   -0.6167 C   0  0  0  0  0  0  0  0  0  0  0  0
    0.4984   -3.7367    1.3578 C   0  0  0  0  0  0  0  0  0  0  0  0
   -4.0177    1.9866    1.3908 C   0  0  0  0  0  0  0  0  0  0  0  0
   -5.4938    0.7870   -0.7036 C   0  0  0  0  0  0  0  0  0  0  0  0
   -5.4073    2.1346    1.3154 C   0  0  0  0  0  0  0  0  0  0  0  0
   -6.1321    1.5432    0.2832 C   0  0  0  0  0  0  0  0  0  0  0  0
    1.8489    1.9653    1.5727 H   0  0  0  0  0  0  0  0  0  0  0  0
   -0.6956   -0.1999   -2.6521 H   0  0  0  0  0  0  0  0  0  0  0  0
    1.6455    0.6874   -2.5038 H   0  0  0  0  0  0  0  0  0  0  0  0
    1.8695   -1.0434   -2.3225 H   0  0  0  0  0  0  0  0  0  0  0  0
   -0.8619    2.2506    1.3464 H   0  0  0  0  0  0  0  0  0  0  0  0
   -0.7225    0.5585    1.8270 H   0  0  0  0  0  0  0  0  0  0  0  0
    1.3829    0.0314    2.7697 H   0  0  0  0  0  0  0  0  0  0  0  0
    2.9481   -0.4238    2.1317 H   0  0  0  0  0  0  0  0  0  0  0  0
    3.4181   -0.7922   -0.5126 H   0  0  0  0  0  0  0  0  0  0  0  0
    3.8405    0.3681   -1.7578 H   0  0  0  0  0  0  0  0  0  0  0  0
    4.1344    2.3337    1.3251 H   0  0  0  0  0  0  0  0  0  0  0  0
    4.5707    0.6290    1.2620 H   0  0  0  0  0  0  0  0  0  0  0  0
    4.9689    2.4812   -1.1380 H   0  0  0  0  0  0  0  0  0  0  0  0
    1.3940    2.4338   -1.0987 H   0  0  0  0  0  0  0  0  0  0  0  0
    6.8983    2.0166    1.2199 H   0  0  0  0  0  0  0  0  0  0  0  0
    7.2718    2.8827   -0.3375 H   0  0  0  0  0  0  0  0  0  0  0  0
    6.7829    0.7849   -1.6232 H   0  0  0  0  0  0  0  0  0  0  0  0
    6.4239   -0.0830   -0.0657 H   0  0  0  0  0  0  0  0  0  0  0  0
   -3.4961   -0.5521   -2.2624 H   0  0  0  0  0  0  0  0  0  0  0  0
    1.7423   -2.8046    2.8606 H   0  0  0  0  0  0  0  0  0  0  0  0
    0.4745   -4.6834    1.8933 H   0  0  0  0  0  0  0  0  0  0  0  0
   -3.4666    2.4539    2.2020 H   0  0  0  0  0  0  0  0  0  0  0  0
   -6.0597    0.3265   -1.5065 H   0  0  0  0  0  0  0  0  0  0  0  0
   -0.8913   -5.3668    0.2671 H   0  0  0  0  0  0  0  0  0  0  0  0
   -5.9255    2.7181    2.0718 H   0  0  0  0  0  0  0  0  0  0  0  0
   -7.2109    1.6708    0.2437 H   0  0  0  0  0  0  0  0  0  0  0  0
  1  9  1  0  0  0  0
  1 19  1  0  0  0  0
  2  7  1  0  0  0  0
  2 45  1  0  0  0  0
  3 25  1  0  0  0  0
  3 55  1  0  0  0  0
  4  8  1  0  0  0  0
  4 14  1  0  0  0  0
  4 18  1  0  0  0  0
  5 16  1  0  0  0  0
  5 26  1  0  0  0  0
  5 50  1  0  0  0  0
  6  7  1  0  0  0  0
  6  9  1  0  0  0  0
  6 10  1  0  0  0  0
  6 11  1  0  0  0  0
  7  8  1  0  0  0  0
  7 12  1  0  0  0  0
  8 13  1  0  0  0  0
  8 32  1  0  0  0  0
  9 16  1  0  0  0  0
  9 33  1  0  0  0  0
 10 14  1  0  0  0  0
 10 34  1  0  0  0  0
 10 35  1  0  0  0  0
 11 15  2  0  0  0  0
 11 19  1  0  0  0  0
 12 17  1  0  0  0  0
 12 36  1  0  0  0  0
 12 37  1  0  0  0  0
 13 15  1  0  0  0  0
 13 38  1  0  0  0  0
 13 39  1  0  0  0  0
 14 40  1  0  0  0  0
 14 41  1  0  0  0  0
 15 24  1  0  0  0  0
 16 17  2  0  0  0  0
 17 23  1  0  0  0  0
 18 20  1  0  0  0  0
 18 42  1  0  0  0  0
 18 43  1  0  0  0  0
 19 25  2  0  0  0  0
 20 21  1  0  0  0  0
 20 22  1  0  0  0  0
 20 44  1  0  0  0  0
 21 22  1  0  0  0  0
 21 46  1  0  0  0  0
 21 47  1  0  0  0  0
 22 48  1  0  0  0  0
 22 49  1  0  0  0  0
 23 26  1  0  0  0  0
 23 28  2  0  0  0  0
 24 27  2  0  0  0  0
 24 51  1  0  0  0  0
 25 27  1  0  0  0  0
 26 29  2  0  0  0  0
 27 52  1  0  0  0  0
 28 30  1  0  0  0  0
 28 53  1  0  0  0  0
 29 31  1  0  0  0  0
 29 54  1  0  0  0  0
 30 31  2  0  0  0  0
 30 56  1  0  0  0  0
 31 57  1  0  0  0  0
M  END
> <PUBCHEM_COMPOUND_CID>
5497186

> <PUBCHEM_CONFORMER_RMSD>
0.8

> <PUBCHEM_CONFORMER_DIVERSEORDER>
1
2

> <PUBCHEM_MMFF94_PARTIAL_CHARGES>
43
1 -0.36
11 -0.14
12 0.18
13 0.14
14 0.27
15 -0.14
16 -0.33
17 -0.18
18 0.37
19 0.08
2 -0.68
20 -0.19
21 -0.2
22 -0.2
24 -0.15
25 0.08
26 -0.15
27 -0.15
28 -0.15
29 -0.15
3 -0.53
30 -0.15
31 -0.15
4 -0.81
44 0.1
45 0.4
46 0.1
47 0.1
48 0.1
49 0.1
5 0.03
50 0.27
51 0.15
52 0.15
53 0.15
54 0.15
55 0.45
56 0.15
57 0.15
6 0.14
7 0.28
8 0.27
9 0.46

> <PUBCHEM_EFFECTIVE_ROTOR_COUNT>
3.8

> <PUBCHEM_PHARMACOPHORE_FEATURES>
14
1 1 acceptor
1 2 acceptor
1 2 donor
1 3 donor
1 4 cation
1 5 cation
1 5 donor
5 1 6 9 11 19 rings
5 5 16 17 23 26 rings
6 11 15 19 24 25 27 rings
6 23 26 28 29 30 31 rings
6 4 6 7 8 10 14 rings
6 6 7 8 11 13 15 rings
6 6 7 9 12 16 17 rings

> <PUBCHEM_HEAVY_ATOM_COUNT>
31

> <PUBCHEM_ATOM_DEF_STEREO_COUNT>
4

> <PUBCHEM_ATOM_UDEF_STEREO_COUNT>
0

> <PUBCHEM_BOND_DEF_STEREO_COUNT>
0

> <PUBCHEM_BOND_UDEF_STEREO_COUNT>
0

> <PUBCHEM_ISOTOPIC_ATOM_COUNT>
0

> <PUBCHEM_COMPONENT_COUNT>
1

> <PUBCHEM_CACTVS_TAUTO_COUNT>
3

> <PUBCHEM_CONFORMER_ID>
0053E16200000001

> <PUBCHEM_MMFF94_ENERGY>
104.478

> <PUBCHEM_FEATURE_SELFOVERLAP>
73.331

> <PUBCHEM_SHAPE_FINGERPRINT>
10165383 225 18341896285678864772
10382601 240 18266170811224109873
10674148 151 18113335332795267448
107951 10 18410009901886307550
10906281 52 18188756272404073388
1100329 8 18268431235369568444
11007060 377 18262519161151630720
11445158 3 17985003728219708998
11823591 26 18341059557472350600
1200032 147 17169807085665864001
12047536 79 17830140840369358729
12156800 1 17057204862456202226
12236239 1 18334296482729804869
12597179 24 18335132077834781110
12788726 201 17693927506193913431
12954195 1 18192436272854339702
12977781 61 17823953707460236846
13140716 1 18341613767157190899
13224815 77 17024044829403609653
13631057 29 18266463114552053487
13782708 43 10951233141974662792
14713325 29 18191020093630564974
14790565 3 18410858797734963008
14840074 17 18131635586372843460
14955137 171 17905327682299923730
15131766 46 15336839632566399228
15849732 13 17632573834584269740
15927050 60 18409449172262712222
16114785 44 17771051701810755138
16992610 120 18270664400079624012
16992727 255 5977293170146768659
17980427 23 16916775228871464735
18608769 82 17894910664751804567
20505436 4 18040717004811435749
20587220 17 11377157592461202439
20739085 24 18270118053593821693
21421861 104 17975407229349632633
21424621 283 18334855017873694392
21756936 100 18335987471646935760
21796203 349 17474358736842997987
22149856 69 16154276156963840713
23419403 2 17758629595228507658
23558518 356 17837491851765838908
23559900 14 16009040483653040625
3009799 131 5256402795322167096
3178227 256 18342165657617304625
3380486 145 16965204094706615262
3411729 13 18337105795289516505
3759504 43 18342738468741095386
38570 142 18334571360683734492
394222 165 18189332536433865243
404807 14 15581423013119893286
404807 78 17986671468832677979
4058900 60 18340768255731890017
4073 2 18264491681840421848
4258327 124 17843672271567380244
4340502 62 18131625703446853833
563151 40 18200872890262583658
6669772 16 18409162242961898142
6823239 73 15575012696947095097

> <PUBCHEM_SHAPE_MULTIPOLES>
610.4
11.48
3.82
1.62
2.17
5.43
-0.12
-13.66
-0.28
0.43
-1.07
-0.18
0.44
-1.34

> <PUBCHEM_SHAPE_SELFOVERLAP>
1410.408

> <PUBCHEM_SHAPE_VOLUME>
310.2

> <PUBCHEM_COORDINATE_TYPE>
2
5
10

$$$$

