115209
  -OEChem-07051213043D

 27 27  0     1  0  0  0  0  0999 V2000
    3.4769    2.7152    0.3117 Cl  0  0  0  0  0  0  0  0  0  0  0  0
    3.9593   -2.6375   -0.1850 Cl  0  0  0  0  0  0  0  0  0  0  0  0
   -3.8644    1.2881    0.0352 O   0  0  0  0  0  0  0  0  0  0  0  0
   -1.3254    1.8876    0.0571 O   0  0  0  0  0  0  0  0  0  0  0  0
   -0.6092   -0.3323   -0.1435 N   0  0  0  0  0  0  0  0  0  0  0  0
   -3.0024    0.1690   -0.1899 C   0  0  2  0  0  0  0  0  0  0  0  0
   -1.5546    0.6876   -0.0827 C   0  0  0  0  0  0  0  0  0  0  0  0
   -3.3147   -0.3672   -1.5906 C   0  0  0  0  0  0  0  0  0  0  0  0
    0.7997   -0.2111   -0.0762 C   0  0  0  0  0  0  0  0  0  0  0  0
   -3.2305   -0.7765    0.9630 C   0  0  0  0  0  0  0  0  0  0  0  0
    1.5813   -1.3514   -0.1551 C   0  0  0  0  0  0  0  0  0  0  0  0
    1.3657    1.0445    0.0668 C   0  0  0  0  0  0  0  0  0  0  0  0
    2.7540    1.1635    0.1330 C   0  0  0  0  0  0  0  0  0  0  0  0
    2.9696   -1.2327   -0.0890 C   0  0  0  0  0  0  0  0  0  0  0  0
    3.5560    0.0248    0.0550 C   0  0  0  0  0  0  0  0  0  0  0  0
   -3.5614   -2.0716    0.8901 C   0  0  0  0  0  0  0  0  0  0  0  0
   -2.7090   -1.2427   -1.8465 H   0  0  0  0  0  0  0  0  0  0  0  0
   -3.1159    0.3999   -2.3487 H   0  0  0  0  0  0  0  0  0  0  0  0
   -4.3741   -0.6320   -1.6851 H   0  0  0  0  0  0  0  0  0  0  0  0
   -0.9495   -1.2838   -0.2611 H   0  0  0  0  0  0  0  0  0  0  0  0
   -3.1121   -0.3540    1.9603 H   0  0  0  0  0  0  0  0  0  0  0  0
    1.1207   -2.3299   -0.2672 H   0  0  0  0  0  0  0  0  0  0  0  0
    0.8036    1.9641    0.1316 H   0  0  0  0  0  0  0  0  0  0  0  0
   -3.7422    1.9159   -0.6975 H   0  0  0  0  0  0  0  0  0  0  0  0
    4.6387    0.1174    0.1068 H   0  0  0  0  0  0  0  0  0  0  0  0
   -3.6985   -2.6501    1.7977 H   0  0  0  0  0  0  0  0  0  0  0  0
   -3.7007   -2.5831   -0.0545 H   0  0  0  0  0  0  0  0  0  0  0  0
  1 13  1  0  0  0  0
  2 14  1  0  0  0  0
  3  6  1  0  0  0  0
  3 24  1  0  0  0  0
  4  7  2  0  0  0  0
  5  7  1  0  0  0  0
  5  9  1  0  0  0  0
  5 20  1  0  0  0  0
  6  7  1  0  0  0  0
  6  8  1  0  0  0  0
  6 10  1  0  0  0  0
  8 17  1  0  0  0  0
  8 18  1  0  0  0  0
  8 19  1  0  0  0  0
  9 11  2  0  0  0  0
  9 12  1  0  0  0  0
 10 16  2  0  0  0  0
 10 21  1  0  0  0  0
 11 14  1  0  0  0  0
 11 22  1  0  0  0  0
 12 13  2  0  0  0  0
 12 23  1  0  0  0  0
 13 15  1  0  0  0  0
 14 15  2  0  0  0  0
 15 25  1  0  0  0  0
 16 26  1  0  0  0  0
 16 27  1  0  0  0  0
M  END
> <PUBCHEM_COMPOUND_CID>
115209

> <PUBCHEM_CONFORMER_RMSD>
0.6

> <PUBCHEM_CONFORMER_DIVERSEORDER>
1
17
15
23
11
16
14
18
19
8
12
10
22
13
4
5
21
2
20
3
7
6
9

> <PUBCHEM_MMFF94_PARTIAL_CHARGES>
23
1 -0.18
10 -0.29
11 -0.15
12 -0.15
13 0.18
14 0.18
15 -0.15
16 -0.3
2 -0.18
20 0.37
21 0.15
22 0.15
23 0.15
24 0.4
25 0.15
26 0.15
27 0.15
3 -0.68
4 -0.57
5 -0.55
6 0.48
7 0.57
9 0.12

> <PUBCHEM_EFFECTIVE_ROTOR_COUNT>
4

> <PUBCHEM_PHARMACOPHORE_FEATURES>
6
1 16 hydrophobe
1 3 acceptor
1 3 donor
1 4 acceptor
1 5 donor
6 9 11 12 13 14 15 rings

> <PUBCHEM_HEAVY_ATOM_COUNT>
16

> <PUBCHEM_ATOM_DEF_STEREO_COUNT>
0

> <PUBCHEM_ATOM_UDEF_STEREO_COUNT>
1

> <PUBCHEM_BOND_DEF_STEREO_COUNT>
0

> <PUBCHEM_BOND_UDEF_STEREO_COUNT>
0

> <PUBCHEM_ISOTOPIC_ATOM_COUNT>
0

> <PUBCHEM_COMPONENT_COUNT>
1

> <PUBCHEM_CACTVS_TAUTO_COUNT>
2

> <PUBCHEM_CONFORMER_ID>
0001C20900000001

> <PUBCHEM_MMFF94_ENERGY>
36.9579

> <PUBCHEM_FEATURE_SELFOVERLAP>
30.457

> <PUBCHEM_SHAPE_FINGERPRINT>
10608611 8 18412829087827031797
11405975 8 18410853299938979929
11552529 35 17896873258258087699
11615757 297 17822005380738285000
12032990 46 18339073899786816958
12500047 106 17916592080167887351
12932764 1 17530969046754729929
13296908 3 18343299254062836467
14289901 80 18188215316328652617
15219456 202 18341048536401399427
15375462 189 17894629201932021441
15375462 6 18411136913915165012
15442244 35 18191305081826953856
17834074 16 18412823590326941282
18186145 218 17846782931162794531
19050596 39 18409729573138038632
19422 9 18040158413548290567
200 152 18041008366296511239
20279233 1 18202006516698955647
20281475 54 18341323465805902238
20645477 56 17988929994089907781
20645477 70 18335428983985375742
20681677 274 18413389847552717874
20693207 138 18201711873162956054
21065198 57 18411697712042251457
21065199 12 18412822460913650715
221490 88 18411694392249023794
22169311 21 18131075926232112071
2255824 54 18408042927239679758
22854114 111 18335424539121485292
22943178 12 18272654536634837459
22959321 4 18410854356379705986
23402655 69 18334580182568055900
23557571 272 17489593333517261621
23559900 14 18339929306916533578
5104073 3 18411135839951516449
6049 1 18202001053226320348
7364860 26 18335140895497383592
8809292 202 18271800276277414939
9709674 26 18410857685048042631

> <PUBCHEM_SHAPE_MULTIPOLES>
316.29
8.53
2.6
0.9
1.99
0.08
-0.15
1.53
0.29
-2.72
0.3
0.89
0.19
0.87

> <PUBCHEM_SHAPE_SELFOVERLAP>
636.294

> <PUBCHEM_SHAPE_VOLUME>
187.4

> <PUBCHEM_COORDINATE_TYPE>
2
5
10

$$$$

