5460437
  -OEChem-07051212583D

 42 45  0     1  0  0  0  0  0999 V2000
    1.4416   -2.2440   -0.5890 O   0  0  0  0  0  0  0  0  0  0  0  0
    3.5503    0.3431   -0.0455 O   0  0  0  0  0  0  0  0  0  0  0  0
   -1.9087    0.4719    0.7870 N   0  0  2  0  0  0  0  0  0  0  0  0
   -0.5868    0.0826    0.2162 C   0  0  1  0  0  0  0  0  0  0  0  0
   -0.7388   -1.0978   -0.8139 C   0  0  1  0  0  0  0  0  0  0  0  0
    0.0774    1.2044   -0.5744 C   0  0  0  0  0  0  0  0  0  0  0  0
    0.3439   -0.2592    1.4347 C   0  0  0  0  0  0  0  0  0  0  0  0
    1.4513    0.8605   -1.0792 C   0  0  2  0  0  0  0  0  0  0  0  0
    0.5922   -1.5310   -1.4810 C   0  0  1  0  0  0  0  0  0  0  0  0
   -1.5130   -2.2838   -0.2238 C   0  0  0  0  0  0  0  0  0  0  0  0
    1.3689   -0.3292   -2.0457 C   0  0  0  0  0  0  0  0  0  0  0  0
    1.6862    0.4980    1.4858 C   0  0  2  0  0  0  0  0  0  0  0  0
   -2.6886   -0.6646    1.2977 C   0  0  0  0  0  0  0  0  0  0  0  0
   -2.8612   -1.8109    0.3054 C   0  0  0  0  0  0  0  0  0  0  0  0
    2.3438    0.5362    0.1113 C   0  0  0  0  0  0  0  0  0  0  0  0
   -2.6981    1.3340   -0.0970 C   0  0  0  0  0  0  0  0  0  0  0  0
   -0.5295    2.3746   -0.8250 C   0  0  0  0  0  0  0  0  0  0  0  0
   -1.9400    2.6304   -0.3997 C   0  0  0  0  0  0  0  0  0  0  0  0
    2.6091   -0.1155    2.5361 C   0  0  0  0  0  0  0  0  0  0  0  0
   -1.3558   -0.7214   -1.6462 H   0  0  0  0  0  0  0  0  0  0  0  0
    0.5177   -1.3384    1.4960 H   0  0  0  0  0  0  0  0  0  0  0  0
   -0.1639   -0.0182    2.3802 H   0  0  0  0  0  0  0  0  0  0  0  0
    1.9025    1.7200   -1.5902 H   0  0  0  0  0  0  0  0  0  0  0  0
    0.3640   -2.2192   -2.3040 H   0  0  0  0  0  0  0  0  0  0  0  0
   -0.9473   -2.7660    0.5810 H   0  0  0  0  0  0  0  0  0  0  0  0
   -1.6753   -3.0465   -0.9947 H   0  0  0  0  0  0  0  0  0  0  0  0
    0.8639    0.0066   -2.9613 H   0  0  0  0  0  0  0  0  0  0  0  0
    2.3805   -0.6411   -2.3336 H   0  0  0  0  0  0  0  0  0  0  0  0
    1.4998    1.5417    1.7721 H   0  0  0  0  0  0  0  0  0  0  0  0
   -3.6741   -0.3249    1.6402 H   0  0  0  0  0  0  0  0  0  0  0  0
   -2.1999   -1.0546    2.1992 H   0  0  0  0  0  0  0  0  0  0  0  0
   -3.4976   -1.4940   -0.5296 H   0  0  0  0  0  0  0  0  0  0  0  0
   -3.3758   -2.6461    0.7942 H   0  0  0  0  0  0  0  0  0  0  0  0
   -3.6450    1.6080    0.3843 H   0  0  0  0  0  0  0  0  0  0  0  0
   -2.9551    0.8236   -1.0334 H   0  0  0  0  0  0  0  0  0  0  0  0
   -0.0177    3.1553   -1.3792 H   0  0  0  0  0  0  0  0  0  0  0  0
   -1.9308    3.2836    0.4811 H   0  0  0  0  0  0  0  0  0  0  0  0
   -2.4656    3.1679   -1.1973 H   0  0  0  0  0  0  0  0  0  0  0  0
    2.1282   -0.1274    3.5197 H   0  0  0  0  0  0  0  0  0  0  0  0
    2.8807   -1.1442    2.2744 H   0  0  0  0  0  0  0  0  0  0  0  0
    3.5377    0.4590    2.6236 H   0  0  0  0  0  0  0  0  0  0  0  0
    2.2257   -2.5282   -1.0888 H   0  0  0  0  0  0  0  0  0  0  0  0
  1  9  1  0  0  0  0
  1 42  1  0  0  0  0
  2 15  2  0  0  0  0
  3  4  1  0  0  0  0
  3 13  1  0  0  0  0
  3 16  1  0  0  0  0
  4  5  1  0  0  0  0
  4  6  1  0  0  0  0
  4  7  1  0  0  0  0
  5  9  1  0  0  0  0
  5 10  1  0  0  0  0
  5 20  1  0  0  0  0
  6  8  1  0  0  0  0
  6 17  2  0  0  0  0
  7 12  1  0  0  0  0
  7 21  1  0  0  0  0
  7 22  1  0  0  0  0
  8 11  1  0  0  0  0
  8 15  1  0  0  0  0
  8 23  1  0  0  0  0
  9 11  1  0  0  0  0
  9 24  1  0  0  0  0
 10 14  1  0  0  0  0
 10 25  1  0  0  0  0
 10 26  1  0  0  0  0
 11 27  1  0  0  0  0
 11 28  1  0  0  0  0
 12 15  1  0  0  0  0
 12 19  1  0  0  0  0
 12 29  1  0  0  0  0
 13 14  1  0  0  0  0
 13 30  1  0  0  0  0
 13 31  1  0  0  0  0
 14 32  1  0  0  0  0
 14 33  1  0  0  0  0
 16 18  1  0  0  0  0
 16 34  1  0  0  0  0
 16 35  1  0  0  0  0
 17 18  1  0  0  0  0
 17 36  1  0  0  0  0
 18 37  1  0  0  0  0
 18 38  1  0  0  0  0
 19 39  1  0  0  0  0
 19 40  1  0  0  0  0
 19 41  1  0  0  0  0
M  END
> <PUBCHEM_COMPOUND_CID>
5460437

> <PUBCHEM_CONFORMER_RMSD>
0.6

> <PUBCHEM_CONFORMER_DIVERSEORDER>
1

> <PUBCHEM_MMFF94_PARTIAL_CHARGES>
15
1 -0.68
12 0.06
13 0.27
15 0.45
16 0.27
17 -0.29
18 0.14
2 -0.57
3 -0.81
36 0.15
4 0.41
42 0.4
6 -0.28
8 0.2
9 0.28

> <PUBCHEM_EFFECTIVE_ROTOR_COUNT>
1.8

> <PUBCHEM_PHARMACOPHORE_FEATURES>
8
1 1 acceptor
1 1 donor
1 2 acceptor
1 3 cation
6 3 4 5 10 13 14 rings
6 3 4 6 16 17 18 rings
6 4 5 6 8 9 11 rings
6 4 6 7 8 12 15 rings

> <PUBCHEM_HEAVY_ATOM_COUNT>
19

> <PUBCHEM_ATOM_DEF_STEREO_COUNT>
5

> <PUBCHEM_ATOM_UDEF_STEREO_COUNT>
0

> <PUBCHEM_BOND_DEF_STEREO_COUNT>
0

> <PUBCHEM_BOND_UDEF_STEREO_COUNT>
0

> <PUBCHEM_ISOTOPIC_ATOM_COUNT>
0

> <PUBCHEM_COMPONENT_COUNT>
1

> <PUBCHEM_CACTVS_TAUTO_COUNT>
2

> <PUBCHEM_CONFORMER_ID>
005351D500000001

> <PUBCHEM_MMFF94_ENERGY>
47.1153

> <PUBCHEM_FEATURE_SELFOVERLAP>
41.898

> <PUBCHEM_SHAPE_FINGERPRINT>
10863032 1 18269829986042544326
10948715 1 18265338480779549660
11680611 10 17775001327502258273
12423570 1 14685325326411131485
12716301 132 18336833081824485256
13140716 1 17976521841950311905
13172582 1 18191856834652694519
13538477 17 17989216961659805305
13898156 1 17346023575959417065
141345 1 17245032333441747564
14142880 1 15222071379490677873
144361 1 17684047393443220439
14617773 55 17631754727905968984
14817 1 14607753608593078460
15852999 172 18191601941218198301
15881359 60 18042703701552078581
16945 1 18336837406798471417
19930374 2 18261689085743793687
20511035 2 18192431002870951791
20691752 17 18269250436178109339
22112679 90 18196926682736883513
2334 1 17471274172829003679
23419403 2 17749952300890540934
23493267 7 17772725351291290165
23559900 14 17615954944011838006
2748010 2 18194097815639018239
3286 77 16733256833758615406
34934 24 17981038609752694229
5845 1 9502530690949084993
81228 2 17173803556665696574

> <PUBCHEM_SHAPE_MULTIPOLES>
374.29
4.05
2.45
1.85
0.34
0.44
0.48
-0.21
1.44
-1.68
-0.77
1.32
-0.38
0.24

> <PUBCHEM_SHAPE_SELFOVERLAP>
810.845

> <PUBCHEM_SHAPE_VOLUME>
201.3

> <PUBCHEM_COORDINATE_TYPE>
2
5
10

$$$$

