279064
  -OEChem-07051213002D

 42 44  0     1  0  0  0  0  0999 V2000
    6.3301   -0.6609    0.0000 O   0  0  0  0  0  0  0  0  0  0  0  0
    5.4641    0.8391    0.0000 O   0  0  0  0  0  0  0  0  0  0  0  0
    2.0000   -0.1609    0.0000 O   0  0  0  0  0  0  0  0  0  0  0  0
    2.0000   -2.1609    0.0000 O   0  0  0  0  0  0  0  0  0  0  0  0
    9.1671    2.6240    0.0000 N   0  0  0  0  0  0  0  0  0  0  0  0
    9.9037    1.6414    0.0000 C   0  0  3  0  0  0  0  0  0  0  0  0
    9.6448    0.6755    0.0000 C   0  0  3  0  0  0  0  0  0  0  0  0
   11.7356    0.8826    0.0000 C   0  0  0  0  0  0  0  0  0  0  0  0
   11.4768   -0.0834    0.0000 C   0  0  0  0  0  0  0  0  0  0  0  0
    7.3007    0.8336    0.0000 C   0  0  0  0  0  0  0  0  0  0  0  0
    8.1097   -0.5677    0.0000 C   0  0  0  0  0  0  0  0  0  0  0  0
    7.1962   -0.1609    0.0000 C   0  0  0  0  0  0  0  0  0  0  0  0
    5.4641   -0.1609    0.0000 C   0  0  0  0  0  0  0  0  0  0  0  0
    4.5981   -0.6609    0.0000 C   0  0  0  0  0  0  0  0  0  0  0  0
    3.7320   -0.1609    0.0000 C   0  0  0  0  0  0  0  0  0  0  0  0
    4.5981   -1.6609    0.0000 C   0  0  0  0  0  0  0  0  0  0  0  0
    2.8660   -0.6609    0.0000 C   0  0  0  0  0  0  0  0  0  0  0  0
    3.7320   -2.1609    0.0000 C   0  0  0  0  0  0  0  0  0  0  0  0
    2.8660   -1.6609    0.0000 C   0  0  0  0  0  0  0  0  0  0  0  0
    2.0000    0.8391    0.0000 C   0  0  0  0  0  0  0  0  0  0  0  0
    2.0000   -3.1609    0.0000 C   0  0  0  0  0  0  0  0  0  0  0  0
    9.8752    1.0220    0.0000 H   0  0  0  0  0  0  0  0  0  0  0  0
    9.7338    0.0619    0.0000 H   0  0  0  0  0  0  0  0  0  0  0  0
   12.3269    0.6961    0.0000 H   0  0  0  0  0  0  0  0  0  0  0  0
   11.9477    1.4652    0.0000 H   0  0  0  0  0  0  0  0  0  0  0  0
   11.2648   -0.6660    0.0000 H   0  0  0  0  0  0  0  0  0  0  0  0
   12.0681   -0.2698    0.0000 H   0  0  0  0  0  0  0  0  0  0  0  0
    7.1984    1.4451    0.0000 H   0  0  0  0  0  0  0  0  0  0  0  0
    6.6810    0.8147    0.0000 H   0  0  0  0  0  0  0  0  0  0  0  0
    7.7720   -1.0876    0.0000 H   0  0  0  0  0  0  0  0  0  0  0  0
    8.5704   -0.9825    0.0000 H   0  0  0  0  0  0  0  0  0  0  0  0
    6.6762    0.1767    0.0000 H   0  0  0  0  0  0  0  0  0  0  0  0
    8.8571    3.1609    0.0000 H   0  0  0  0  0  0  0  0  0  0  0  0
    3.7320    0.4591    0.0000 H   0  0  0  0  0  0  0  0  0  0  0  0
    5.1350   -1.9709    0.0000 H   0  0  0  0  0  0  0  0  0  0  0  0
    3.7320   -2.7809    0.0000 H   0  0  0  0  0  0  0  0  0  0  0  0
    2.6200    0.8391    0.0000 H   0  0  0  0  0  0  0  0  0  0  0  0
    2.0000    1.4591    0.0000 H   0  0  0  0  0  0  0  0  0  0  0  0
    1.3800    0.8391    0.0000 H   0  0  0  0  0  0  0  0  0  0  0  0
    1.3800   -3.1609    0.0000 H   0  0  0  0  0  0  0  0  0  0  0  0
    2.0000   -3.7809    0.0000 H   0  0  0  0  0  0  0  0  0  0  0  0
    2.6200   -3.1609    0.0000 H   0  0  0  0  0  0  0  0  0  0  0  0
  1 12  1  0  0  0  0
  1 13  1  0  0  0  0
  2 13  2  0  0  0  0
  3 17  1  0  0  0  0
  3 20  1  0  0  0  0
  4 19  1  0  0  0  0
  4 21  1  0  0  0  0
  5  6  1  0  0  0  0
  5  7  1  0  0  0  0
  5 33  1  0  0  0  0
  6  8  1  0  0  0  0
  6 10  1  0  0  0  0
  6 22  1  0  0  0  0
  7  9  1  0  0  0  0
  7 11  1  0  0  0  0
  7 23  1  0  0  0  0
  8  9  1  0  0  0  0
  8 24  1  0  0  0  0
  8 25  1  0  0  0  0
  9 26  1  0  0  0  0
  9 27  1  0  0  0  0
 10 12  1  0  0  0  0
 10 28  1  0  0  0  0
 10 29  1  0  0  0  0
 11 12  1  0  0  0  0
 11 30  1  0  0  0  0
 11 31  1  0  0  0  0
 12 32  1  0  0  0  0
 13 14  1  0  0  0  0
 14 15  2  0  0  0  0
 14 16  1  0  0  0  0
 15 17  1  0  0  0  0
 15 34  1  0  0  0  0
 16 18  2  0  0  0  0
 16 35  1  0  0  0  0
 17 19  2  0  0  0  0
 18 19  1  0  0  0  0
 18 36  1  0  0  0  0
 20 37  1  0  0  0  0
 20 38  1  0  0  0  0
 20 39  1  0  0  0  0
 21 40  1  0  0  0  0
 21 41  1  0  0  0  0
 21 42  1  0  0  0  0
M  END
> <PUBCHEM_COMPOUND_CID>
279064

> <PUBCHEM_COMPOUND_CANONICALIZED>
1

> <PUBCHEM_CACTVS_COMPLEXITY>
363

> <PUBCHEM_CACTVS_HBOND_ACCEPTOR>
5

> <PUBCHEM_CACTVS_HBOND_DONOR>
1

> <PUBCHEM_CACTVS_ROTATABLE_BOND>
5

> <PUBCHEM_CACTVS_SUBSKEYS>
AAADceB6OAAAAAAAAAAAAAAAAAAAAWAAAAA8QAAABgAAAAABAAAAHgAQAAAADDzhmAYyDoLABACIAiDSCAACCAAkIAAIiIEOiMgNJjKEtRqGMSIm0BGKqYfa7DzOIAABAAAAQABAAAIAAACAAAAAAAAAAA==

> <PUBCHEM_IUPAC_OPENEYE_NAME>
8-azabicyclo[3.2.1]octan-3-yl 3,4-dimethoxybenzoate

> <PUBCHEM_IUPAC_CAS_NAME>
3,4-dimethoxybenzoic acid 8-azabicyclo[3.2.1]octan-3-yl ester

> <PUBCHEM_IUPAC_NAME>
8-azabicyclo[3.2.1]octan-3-yl 3,4-dimethoxybenzoate

> <PUBCHEM_IUPAC_SYSTEMATIC_NAME>
8-azabicyclo[3.2.1]octan-3-yl 3,4-dimethoxybenzoate

> <PUBCHEM_IUPAC_TRADITIONAL_NAME>
3,4-dimethoxybenzoic acid 8-azabicyclo[3.2.1]octan-3-yl ester

> <PUBCHEM_IUPAC_INCHI>
InChI=1S/C16H21NO4/c1-19-14-6-3-10(7-15(14)20-2)16(18)21-13-8-11-4-5-12(9-13)17-11/h3,6-7,11-13,17H,4-5,8-9H2,1-2H3

> <PUBCHEM_IUPAC_INCHIKEY>
HDLNHIIKSUHARQ-UHFFFAOYSA-N

> <PUBCHEM_XLOGP3>
2.7

> <PUBCHEM_EXACT_MASS>
291.147058

> <PUBCHEM_MOLECULAR_FORMULA>
C16H21NO4

> <PUBCHEM_MOLECULAR_WEIGHT>
291.34224

> <PUBCHEM_OPENEYE_CAN_SMILES>
COC1=C(C=C(C=C1)C(=O)OC2CC3CCC(C2)N3)OC

> <PUBCHEM_OPENEYE_ISO_SMILES>
COC1=C(C=C(C=C1)C(=O)OC2CC3CCC(C2)N3)OC

> <PUBCHEM_CACTVS_TPSA>
56.8

> <PUBCHEM_MONOISOTOPIC_WEIGHT>
291.147058

> <PUBCHEM_TOTAL_CHARGE>
0

> <PUBCHEM_HEAVY_ATOM_COUNT>
21

> <PUBCHEM_ATOM_DEF_STEREO_COUNT>
0

> <PUBCHEM_ATOM_UDEF_STEREO_COUNT>
2

> <PUBCHEM_BOND_DEF_STEREO_COUNT>
0

> <PUBCHEM_BOND_UDEF_STEREO_COUNT>
0

> <PUBCHEM_ISOTOPIC_ATOM_COUNT>
0

> <PUBCHEM_COMPONENT_COUNT>
1

> <PUBCHEM_CACTVS_TAUTO_COUNT>
1

> <PUBCHEM_COORDINATE_TYPE>
1
5
255

> <PUBCHEM_BONDANNOTATIONS>
14  15  8
14  16  8
15  17  8
16  18  8
17  19  8
18  19  8
6  8  3
7  9  3

$$$$

