200238
  -OEChem-07051213003D

 21 21  0     1  0  0  0  0  0999 V2000
   -0.2468   -1.5453   -0.0330 O   0  0  0  0  0  0  0  0  0  0  0  0
    1.8930   -1.2494    0.5688 O   0  0  0  0  0  0  0  0  0  0  0  0
   -0.1581    1.4748    0.4859 C   0  0  0  0  0  0  0  0  0  0  0  0
    0.7700    0.6530   -0.4155 C   0  0  2  0  0  0  0  0  0  0  0  0
   -1.6340    1.3326    0.1211 C   0  0  0  0  0  0  0  0  0  0  0  0
   -2.1855   -0.0827    0.2574 C   0  0  0  0  0  0  0  0  0  0  0  0
   -1.4735   -1.0869   -0.6350 C   0  0  0  0  0  0  0  0  0  0  0  0
    0.8668   -0.7816    0.0805 C   0  0  0  0  0  0  0  0  0  0  0  0
    2.1680    1.2855   -0.4303 C   0  0  0  0  0  0  0  0  0  0  0  0
    0.0942    2.5398    0.4051 H   0  0  0  0  0  0  0  0  0  0  0  0
   -0.0145    1.1977    1.5381 H   0  0  0  0  0  0  0  0  0  0  0  0
    0.4266    0.6498   -1.4557 H   0  0  0  0  0  0  0  0  0  0  0  0
   -1.7902    1.6873   -0.9054 H   0  0  0  0  0  0  0  0  0  0  0  0
   -2.2188    1.9972    0.7689 H   0  0  0  0  0  0  0  0  0  0  0  0
   -2.1214   -0.3983    1.3055 H   0  0  0  0  0  0  0  0  0  0  0  0
   -3.2471   -0.0573   -0.0157 H   0  0  0  0  0  0  0  0  0  0  0  0
   -2.1028   -1.9778   -0.7357 H   0  0  0  0  0  0  0  0  0  0  0  0
   -1.2922   -0.7150   -1.6488 H   0  0  0  0  0  0  0  0  0  0  0  0
    2.5899    1.3504    0.5791 H   0  0  0  0  0  0  0  0  0  0  0  0
    2.8580    0.6950   -1.0433 H   0  0  0  0  0  0  0  0  0  0  0  0
    2.1324    2.2969   -0.8489 H   0  0  0  0  0  0  0  0  0  0  0  0
  1  7  1  0  0  0  0
  1  8  1  0  0  0  0
  2  8  2  0  0  0  0
  3  4  1  0  0  0  0
  3  5  1  0  0  0  0
  3 10  1  0  0  0  0
  3 11  1  0  0  0  0
  4  8  1  0  0  0  0
  4  9  1  0  0  0  0
  4 12  1  0  0  0  0
  5  6  1  0  0  0  0
  5 13  1  0  0  0  0
  5 14  1  0  0  0  0
  6  7  1  0  0  0  0
  6 15  1  0  0  0  0
  6 16  1  0  0  0  0
  7 17  1  0  0  0  0
  7 18  1  0  0  0  0
  9 19  1  0  0  0  0
  9 20  1  0  0  0  0
  9 21  1  0  0  0  0
M  END
> <PUBCHEM_COMPOUND_CID>
200238

> <PUBCHEM_CONFORMER_RMSD>
0.4

> <PUBCHEM_CONFORMER_DIVERSEORDER>
1
4
2
3

> <PUBCHEM_MMFF94_PARTIAL_CHARGES>
5
1 -0.43
2 -0.57
4 0.06
7 0.28
8 0.66

> <PUBCHEM_EFFECTIVE_ROTOR_COUNT>
1.2

> <PUBCHEM_PHARMACOPHORE_FEATURES>
2
1 2 acceptor
7 1 3 4 5 6 7 8 rings

> <PUBCHEM_HEAVY_ATOM_COUNT>
9

> <PUBCHEM_ATOM_DEF_STEREO_COUNT>
0

> <PUBCHEM_ATOM_UDEF_STEREO_COUNT>
1

> <PUBCHEM_BOND_DEF_STEREO_COUNT>
0

> <PUBCHEM_BOND_UDEF_STEREO_COUNT>
0

> <PUBCHEM_ISOTOPIC_ATOM_COUNT>
0

> <PUBCHEM_COMPONENT_COUNT>
1

> <PUBCHEM_CACTVS_TAUTO_COUNT>
1

> <PUBCHEM_CONFORMER_ID>
00030E2E00000001

> <PUBCHEM_MMFF94_ENERGY>
14.9913

> <PUBCHEM_FEATURE_SELFOVERLAP>
10.148

> <PUBCHEM_SHAPE_FINGERPRINT>
12423570 1 9654207452005524743
137420 1 8500692357238503716
16945 1 18267023851563147565
18185500 45 18409732828833856271
21040471 1 18409165489286909737
23552423 10 18342455937155100142
241688 4 16536221451052988673
2748010 2 18410571833520749933
29004967 10 17346876732468423501
5084963 1 18041841856044852067
66348 1 18120939399675875339

> <PUBCHEM_SHAPE_MULTIPOLES>
173.48
2.77
1.85
0.75
0.15
0.03
0.03
-0.27
0.11
0.11
-0.11
0.03
0.01
-0.43

> <PUBCHEM_SHAPE_SELFOVERLAP>
337.71

> <PUBCHEM_SHAPE_VOLUME>
103.5

> <PUBCHEM_COORDINATE_TYPE>
2
5
10

$$$$

