5281929
  -OEChem-07051213013D

 36 36  0     1  0  0  0  0  0999 V2000
    2.1737   -2.0789   -0.1981 O   0  0  0  0  0  0  0  0  0  0  0  0
   -4.2081    0.8012   -0.7184 O   0  0  0  0  0  0  0  0  0  0  0  0
   -3.2733    0.6453    1.3852 O   0  0  0  0  0  0  0  0  0  0  0  0
   -0.8338   -0.2384    0.1333 C   0  0  2  0  0  0  0  0  0  0  0  0
    0.4742   -0.4058   -0.6578 C   0  0  2  0  0  0  0  0  0  0  0  0
   -1.2906   -1.6779    0.3829 C   0  0  0  0  0  0  0  0  0  0  0  0
   -0.0135   -2.4203    0.7556 C   0  0  0  0  0  0  0  0  0  0  0  0
    1.0235   -1.6838   -0.0538 C   0  0  0  0  0  0  0  0  0  0  0  0
   -1.8819    0.5792   -0.6072 C   0  0  0  0  0  0  0  0  0  0  0  0
    1.4257    0.7657   -0.5007 C   0  0  0  0  0  0  0  0  0  0  0  0
    2.7149    0.5298   -1.2330 C   0  0  0  0  0  0  0  0  0  0  0  0
   -3.1746    0.6757    0.1663 C   0  0  0  0  0  0  0  0  0  0  0  0
    3.9205    0.5410   -0.6454 C   0  0  0  0  0  0  0  0  0  0  0  0
    4.1325    0.7909    0.8184 C   0  0  0  0  0  0  0  0  0  0  0  0
   -5.5105    0.9041   -0.1338 C   0  0  0  0  0  0  0  0  0  0  0  0
    4.3213    2.2721    1.1066 C   0  0  0  0  0  0  0  0  0  0  0  0
   -0.6248    0.2289    1.1064 H   0  0  0  0  0  0  0  0  0  0  0  0
    0.2617   -0.6115   -1.7151 H   0  0  0  0  0  0  0  0  0  0  0  0
   -1.7214   -2.1129   -0.5280 H   0  0  0  0  0  0  0  0  0  0  0  0
   -2.0381   -1.7580    1.1780 H   0  0  0  0  0  0  0  0  0  0  0  0
   -0.0598   -3.4749    0.4765 H   0  0  0  0  0  0  0  0  0  0  0  0
    0.2193   -2.3068    1.8182 H   0  0  0  0  0  0  0  0  0  0  0  0
   -2.0848    0.1183   -1.5819 H   0  0  0  0  0  0  0  0  0  0  0  0
   -1.5243    1.5990   -0.7851 H   0  0  0  0  0  0  0  0  0  0  0  0
    1.5680    0.9923    0.5590 H   0  0  0  0  0  0  0  0  0  0  0  0
    0.9634    1.6621   -0.9330 H   0  0  0  0  0  0  0  0  0  0  0  0
    2.6591    0.3583   -2.3050 H   0  0  0  0  0  0  0  0  0  0  0  0
    4.8033    0.3813   -1.2587 H   0  0  0  0  0  0  0  0  0  0  0  0
    3.3338    0.3740    1.4391 H   0  0  0  0  0  0  0  0  0  0  0  0
    5.0390    0.2526    1.1225 H   0  0  0  0  0  0  0  0  0  0  0  0
    3.4245    2.8466    0.8519 H   0  0  0  0  0  0  0  0  0  0  0  0
    4.5278    2.4252    2.1707 H   0  0  0  0  0  0  0  0  0  0  0  0
    5.1626    2.6833    0.5382 H   0  0  0  0  0  0  0  0  0  0  0  0
   -6.2399    0.9977   -0.9428 H   0  0  0  0  0  0  0  0  0  0  0  0
   -5.5720    1.7941    0.4995 H   0  0  0  0  0  0  0  0  0  0  0  0
   -5.7391    0.0024    0.4424 H   0  0  0  0  0  0  0  0  0  0  0  0
  1  8  2  0  0  0  0
  2 12  1  0  0  0  0
  2 15  1  0  0  0  0
  3 12  2  0  0  0  0
  4  5  1  0  0  0  0
  4  6  1  0  0  0  0
  4  9  1  0  0  0  0
  4 17  1  0  0  0  0
  5  8  1  0  0  0  0
  5 10  1  0  0  0  0
  5 18  1  0  0  0  0
  6  7  1  0  0  0  0
  6 19  1  0  0  0  0
  6 20  1  0  0  0  0
  7  8  1  0  0  0  0
  7 21  1  0  0  0  0
  7 22  1  0  0  0  0
  9 12  1  0  0  0  0
  9 23  1  0  0  0  0
  9 24  1  0  0  0  0
 10 11  1  0  0  0  0
 10 25  1  0  0  0  0
 10 26  1  0  0  0  0
 11 13  2  0  0  0  0
 11 27  1  0  0  0  0
 13 14  1  0  0  0  0
 13 28  1  0  0  0  0
 14 16  1  0  0  0  0
 14 29  1  0  0  0  0
 14 30  1  0  0  0  0
 15 34  1  0  0  0  0
 15 35  1  0  0  0  0
 15 36  1  0  0  0  0
 16 31  1  0  0  0  0
 16 32  1  0  0  0  0
 16 33  1  0  0  0  0
M  END
> <PUBCHEM_COMPOUND_CID>
5281929

> <PUBCHEM_CONFORMER_RMSD>
0.8

> <PUBCHEM_CONFORMER_DIVERSEORDER>
1
103
24
92
75
58
101
33
104
76
98
45
93
48
78
106
65
97
39
74
68
72
64
62
56
55
9
23
6
15
67
84
13
50
96
31
95
54
20
46
52
4
91
66
89
105
47
79
88
26
70
49
80
73
99
43
86
22
90
100
35
34
32
44
81
40
3
14
12
69
59
19
63
8
102
38
2
94
42
37
85
18
87
60
77
17
41
29
5
83
11
82
30
53
57
28
36
107
10
71
16
61
27
7
21
51
25

> <PUBCHEM_MMFF94_PARTIAL_CHARGES>
15
1 -0.57
10 0.14
11 -0.29
12 0.66
13 -0.29
14 0.14
15 0.28
2 -0.43
27 0.15
28 0.15
3 -0.57
5 0.06
7 0.06
8 0.45
9 0.06

> <PUBCHEM_EFFECTIVE_ROTOR_COUNT>
6.8

> <PUBCHEM_PHARMACOPHORE_FEATURES>
4
1 1 acceptor
1 16 hydrophobe
1 3 acceptor
5 4 5 6 7 8 rings

> <PUBCHEM_HEAVY_ATOM_COUNT>
16

> <PUBCHEM_ATOM_DEF_STEREO_COUNT>
2

> <PUBCHEM_ATOM_UDEF_STEREO_COUNT>
0

> <PUBCHEM_BOND_DEF_STEREO_COUNT>
1

> <PUBCHEM_BOND_UDEF_STEREO_COUNT>
0

> <PUBCHEM_ISOTOPIC_ATOM_COUNT>
0

> <PUBCHEM_COMPONENT_COUNT>
1

> <PUBCHEM_CACTVS_TAUTO_COUNT>
3

> <PUBCHEM_CONFORMER_ID>
0050988900000001

> <PUBCHEM_MMFF94_ENERGY>
21.1073

> <PUBCHEM_FEATURE_SELFOVERLAP>
20.297

> <PUBCHEM_SHAPE_FINGERPRINT>
11132069 177 18272368646310453421
11543360 7 16370724820381733725
12119455 92 17775007890486424453
122479 349 18262521369223431404
12403259 327 15554438587517322625
12403259 415 18336816490629506304
13380535 76 18343016683616524134
13583140 156 15625941963422868431
13955234 65 18265330788535756043
14251732 14 16299249925395787173
14366163 111 16587743144338764041
14897335 6 18411980264945269479
15061688 2 18188496778826714584
18186145 218 18265316456134307063
20279233 1 17417799682700033521
204376 136 18343578529973911695
20645477 56 18341612577540524404
20645477 70 18269272546806776023
20871998 22 9871754589526463430
212916 134 18340781355345044344
21452121 103 18270125741490186457
21524375 3 18411134740382041070
21618674 25 18335706026761259434
22079108 93 18335416834023730113
23402539 116 18411424981518858933
23500284 214 18334571296528419416
23558518 356 17698441018499918044
23559900 14 18129933581112147854
2748010 2 18199163196504006254
2916195 48 18260555476302472905
328317 168 18259989240630244801
351380 180 18041001730746508416
4072396 5 17489878154231329909
42630746 31 18341896337445052815
4340502 62 18413668015842278395
474 4 18187367580163943000
5104073 3 18199744912023658073
53917941 68 18267321862696834719
7364860 26 18264767843093404318
84936 182 18190460648037979192
90316 7 17489040253451583500

> <PUBCHEM_SHAPE_MULTIPOLES>
311.66
9.3
2.19
1.09
4.84
1.19
0.09
-7.27
0.99
-1.03
0.59
-0.49
-0.26
0.78

> <PUBCHEM_SHAPE_SELFOVERLAP>
618.388

> <PUBCHEM_SHAPE_VOLUME>
186.5

> <PUBCHEM_COORDINATE_TYPE>
2
5
10

$$$$

