47205593
  -OEChem-06241222592D

 35 37  0     0  0  0  0  0  0999 V2000
    8.5878   -0.9515    0.0000 S   0  0  0  0  0  0  0  0  0  0  0  0
    7.0000   -0.0285    0.0000 O   0  0  0  0  0  0  0  0  0  0  0  0
    8.5878   -2.5696    0.0000 N   0  0  0  0  0  0  0  0  0  0  0  0
    7.0000   -1.7606    0.0000 N   0  0  0  0  0  0  0  0  0  0  0  0
    4.0000   -0.0285    0.0000 N   0  0  0  0  0  0  0  0  0  0  0  0
    2.5000    0.8375    0.0000 N   0  0  0  0  0  0  0  0  0  0  0  0
    4.0000    1.7036    0.0000 N   0  0  0  0  0  0  0  0  0  0  0  0
   11.0687   -1.7606    0.0000 C   0  0  0  0  0  0  0  0  0  0  0  0
   10.4851   -0.9558    0.0000 C   0  0  0  0  0  0  0  0  0  0  0  0
   10.4851   -2.5653    0.0000 C   0  0  0  0  0  0  0  0  0  0  0  0
    9.5388   -1.2606    0.0000 C   0  0  0  0  0  0  0  0  0  0  0  0
    9.5388   -2.2606    0.0000 C   0  0  0  0  0  0  0  0  0  0  0  0
    8.0000   -1.7606    0.0000 C   0  0  0  0  0  0  0  0  0  0  0  0
    5.5000   -0.8945    0.0000 C   0  0  0  0  0  0  0  0  0  0  0  0
    6.5000   -0.8945    0.0000 C   0  0  0  0  0  0  0  0  0  0  0  0
    5.0000   -0.0285    0.0000 C   0  0  0  0  0  0  0  0  0  0  0  0
    3.5000    0.8375    0.0000 C   0  0  0  0  0  0  0  0  0  0  0  0
    2.0000    1.7036    0.0000 C   0  0  0  0  0  0  0  0  0  0  0  0
    3.5000    2.5696    0.0000 C   0  0  0  0  0  0  0  0  0  0  0  0
    2.5000    2.5696    0.0000 C   0  0  0  0  0  0  0  0  0  0  0  0
   11.5295   -2.1753    0.0000 H   0  0  0  0  0  0  0  0  0  0  0  0
   11.5295   -1.3458    0.0000 H   0  0  0  0  0  0  0  0  0  0  0  0
   11.0224   -0.6466    0.0000 H   0  0  0  0  0  0  0  0  0  0  0  0
   10.2340   -0.3889    0.0000 H   0  0  0  0  0  0  0  0  0  0  0  0
   10.2340   -3.1322    0.0000 H   0  0  0  0  0  0  0  0  0  0  0  0
   11.0224   -2.8745    0.0000 H   0  0  0  0  0  0  0  0  0  0  0  0
    6.6900   -2.2975    0.0000 H   0  0  0  0  0  0  0  0  0  0  0  0
    4.9174   -1.1066    0.0000 H   0  0  0  0  0  0  0  0  0  0  0  0
    5.6077   -1.5051    0.0000 H   0  0  0  0  0  0  0  0  0  0  0  0
    5.5826    0.1835    0.0000 H   0  0  0  0  0  0  0  0  0  0  0  0
    4.8923    0.5821    0.0000 H   0  0  0  0  0  0  0  0  0  0  0  0
    3.6900   -0.5654    0.0000 H   0  0  0  0  0  0  0  0  0  0  0  0
    1.3800    1.7036    0.0000 H   0  0  0  0  0  0  0  0  0  0  0  0
    3.8100    3.1065    0.0000 H   0  0  0  0  0  0  0  0  0  0  0  0
    2.1900    3.1065    0.0000 H   0  0  0  0  0  0  0  0  0  0  0  0
  1 11  1  0  0  0  0
  1 13  1  0  0  0  0
  2 15  2  0  0  0  0
  3 12  1  0  0  0  0
  3 13  2  0  0  0  0
  4 13  1  0  0  0  0
  4 15  1  0  0  0  0
  4 27  1  0  0  0  0
  5 16  1  0  0  0  0
  5 17  1  0  0  0  0
  5 32  1  0  0  0  0
  6 17  1  0  0  0  0
  6 18  2  0  0  0  0
  7 17  2  0  0  0  0
  7 19  1  0  0  0  0
  8  9  1  0  0  0  0
  8 10  1  0  0  0  0
  8 21  1  0  0  0  0
  8 22  1  0  0  0  0
  9 11  1  0  0  0  0
  9 23  1  0  0  0  0
  9 24  1  0  0  0  0
 10 12  1  0  0  0  0
 10 25  1  0  0  0  0
 10 26  1  0  0  0  0
 11 12  2  0  0  0  0
 14 15  1  0  0  0  0
 14 16  1  0  0  0  0
 14 28  1  0  0  0  0
 14 29  1  0  0  0  0
 16 30  1  0  0  0  0
 16 31  1  0  0  0  0
 18 20  1  0  0  0  0
 18 33  1  0  0  0  0
 19 20  2  0  0  0  0
 19 34  1  0  0  0  0
 20 35  1  0  0  0  0
M  END
> <PUBCHEM_COMPOUND_CID>
47205593

> <PUBCHEM_COMPOUND_CANONICALIZED>
1

> <PUBCHEM_CACTVS_COMPLEXITY>
337

> <PUBCHEM_CACTVS_HBOND_ACCEPTOR>
6

> <PUBCHEM_CACTVS_HBOND_DONOR>
2

> <PUBCHEM_CACTVS_ROTATABLE_BOND>
5

> <PUBCHEM_CACTVS_SUBSKEYS>
AAADccBzoABAAAAAAAAAAAAAAAAAAeIAAAAsAAAAAAAWAAAB4AAAHgQQAAAACAjB1gQ9kZbIEAisATV3dACA8KlxCrkJWLU4ZBiAKIpg2UCEBAgokQJISCIQAAAAAAAAAAAAAAAAAAAAAAAAAAAAAACAAA==

> <PUBCHEM_IUPAC_OPENEYE_NAME>
N-(5,6-dihydro-4H-cyclopenta[d]thiazol-2-yl)-3-(pyrimidin-2-ylamino)propanamide

> <PUBCHEM_IUPAC_CAS_NAME>
N-(5,6-dihydro-4H-cyclopenta[d]thiazol-2-yl)-3-(2-pyrimidinylamino)propanamide

> <PUBCHEM_IUPAC_NAME>
N-(5,6-dihydro-4H-cyclopenta[d][1,3]thiazol-2-yl)-3-(pyrimidin-2-ylamino)propanamide

> <PUBCHEM_IUPAC_SYSTEMATIC_NAME>
N-(5,6-dihydro-4H-cyclopenta[d][1,3]thiazol-2-yl)-3-(pyrimidin-2-ylamino)propanamide

> <PUBCHEM_IUPAC_TRADITIONAL_NAME>
N-(5,6-dihydro-4H-cyclopenta[d]thiazol-2-yl)-3-(2-pyrimidylamino)propionamide

> <PUBCHEM_IUPAC_INCHI>
InChI=1S/C13H15N5OS/c19-11(5-8-16-12-14-6-2-7-15-12)18-13-17-9-3-1-4-10(9)20-13/h2,6-7H,1,3-5,8H2,(H,14,15,16)(H,17,18,19)

> <PUBCHEM_IUPAC_INCHIKEY>
ZJYHHGBPJZVKRW-UHFFFAOYSA-N

> <PUBCHEM_XLOGP3_AA>
2

> <PUBCHEM_EXACT_MASS>
289.099731

> <PUBCHEM_MOLECULAR_FORMULA>
C13H15N5OS

> <PUBCHEM_MOLECULAR_WEIGHT>
289.3561

> <PUBCHEM_OPENEYE_CAN_SMILES>
C1CC2=C(C1)SC(=N2)NC(=O)CCNC3=NC=CC=N3

> <PUBCHEM_OPENEYE_ISO_SMILES>
C1CC2=C(C1)SC(=N2)NC(=O)CCNC3=NC=CC=N3

> <PUBCHEM_CACTVS_TPSA>
108

> <PUBCHEM_MONOISOTOPIC_WEIGHT>
289.099731

> <PUBCHEM_TOTAL_CHARGE>
0

> <PUBCHEM_HEAVY_ATOM_COUNT>
20

> <PUBCHEM_ATOM_DEF_STEREO_COUNT>
0

> <PUBCHEM_ATOM_UDEF_STEREO_COUNT>
0

> <PUBCHEM_BOND_DEF_STEREO_COUNT>
0

> <PUBCHEM_BOND_UDEF_STEREO_COUNT>
0

> <PUBCHEM_ISOTOPIC_ATOM_COUNT>
0

> <PUBCHEM_COMPONENT_COUNT>
1

> <PUBCHEM_CACTVS_TAUTO_COUNT>
10

> <PUBCHEM_COORDINATE_TYPE>
1
5
255

> <PUBCHEM_BONDANNOTATIONS>
1  11  8
1  13  8
11  12  8
18  20  8
19  20  8
3  12  8
3  13  8
6  17  8
6  18  8
7  17  8
7  19  8

$$$$

