134025
  -OEChem-07051212562D

 64 69  0     1  0  0  0  0  0999 V2000
    8.6013    0.9405    0.0000 O   0  0  0  0  0  0  0  0  0  0  0  0
    9.2290   -1.9063    0.0000 O   0  0  0  0  0  0  0  0  0  0  0  0
    6.5827    1.6441    0.0000 O   0  0  0  0  0  0  0  0  0  0  0  0
    8.3147    2.6441    0.0000 O   0  0  0  0  0  0  0  0  0  0  0  0
   10.9425    0.1796    0.0000 O   0  0  0  0  0  0  0  0  0  0  0  0
   10.6807    2.0101    0.0000 O   0  0  0  0  0  0  0  0  0  0  0  0
    3.6399    0.0119    0.0000 O   0  0  0  0  0  0  0  0  0  0  0  0
    9.1807    2.8761    0.0000 O   0  0  0  0  0  0  0  0  0  0  0  0
   10.9905   -1.8589    0.0000 O   0  0  0  0  0  0  0  0  0  0  0  0
    2.0000   -0.8486    0.0000 O   0  0  0  0  0  0  0  0  0  0  0  0
   11.8493   -1.2961    0.0000 O   0  0  0  0  0  0  0  0  0  0  0  0
    8.3147   -0.3559    0.0000 C   0  0  2  0  0  0  0  0  0  0  0  0
    7.4487    0.1441    0.0000 C   0  0  1  0  0  0  0  0  0  0  0  0
    9.1807    0.1441    0.0000 C   0  0  2  0  0  0  0  0  0  0  0  0
    6.5387   -0.3628    0.0000 C   0  0  2  0  0  0  0  0  0  0  0  0
    8.3308   -1.3974    0.0000 C   0  0  1  0  0  0  0  0  0  0  0  0
    9.1807    1.1441    0.0000 C   0  0  1  0  0  0  0  0  0  0  0  0
    6.5306   -1.4044    0.0000 C   0  0  1  0  0  0  0  0  0  0  0  0
    7.4487    1.1441    0.0000 C   0  0  2  0  0  0  0  0  0  0  0  0
    8.2013    0.2477    0.0000 C   0  0  0  0  0  0  0  0  0  0  0  0
    8.3147    1.6441    0.0000 C   0  0  2  0  0  0  0  0  0  0  0  0
    7.4327   -1.9252    0.0000 C   0  0  0  0  0  0  0  0  0  0  0  0
   10.0905   -0.3439    0.0000 C   0  0  2  0  0  0  0  0  0  0  0  0
    5.5952   -1.9541    0.0000 C   0  0  1  0  0  0  0  0  0  0  0  0
    5.6118    0.2013    0.0000 C   0  0  0  0  0  0  0  0  0  0  0  0
    6.2039    0.5795    0.0000 C   0  0  0  0  0  0  0  0  0  0  0  0
    9.6807    2.0101    0.0000 C   0  0  0  0  0  0  0  0  0  0  0  0
   10.1148   -1.3760    0.0000 C   0  0  0  0  0  0  0  0  0  0  0  0
    4.6556   -1.4116    0.0000 C   0  0  0  0  0  0  0  0  0  0  0  0
    4.6640   -0.3266    0.0000 C   0  0  0  0  0  0  0  0  0  0  0  0
    5.5991   -2.9541    0.0000 C   0  0  0  0  0  0  0  0  0  0  0  0
    3.6264   -1.7343    0.0000 C   0  0  0  0  0  0  0  0  0  0  0  0
    3.0000   -0.8563    0.0000 C   0  0  0  0  0  0  0  0  0  0  0  0
   11.8219   -0.2965    0.0000 C   0  0  0  0  0  0  0  0  0  0  0  0
   11.1807    2.8761    0.0000 C   0  0  0  0  0  0  0  0  0  0  0  0
   12.6739    0.2271    0.0000 C   0  0  0  0  0  0  0  0  0  0  0  0
    6.7126    0.5691    0.0000 H   0  0  0  0  0  0  0  0  0  0  0  0
    9.6057   -0.5920    0.0000 H   0  0  0  0  0  0  0  0  0  0  0  0
    8.3375   -2.2474    0.0000 H   0  0  0  0  0  0  0  0  0  0  0  0
    6.5339   -2.2544    0.0000 H   0  0  0  0  0  0  0  0  0  0  0  0
    7.4487    1.7641    0.0000 H   0  0  0  0  0  0  0  0  0  0  0  0
    7.7742    0.6971    0.0000 H   0  0  0  0  0  0  0  0  0  0  0  0
    7.6494   -0.0347    0.0000 H   0  0  0  0  0  0  0  0  0  0  0  0
    7.7778    1.9541    0.0000 H   0  0  0  0  0  0  0  0  0  0  0  0
    7.0354   -2.4012    0.0000 H   0  0  0  0  0  0  0  0  0  0  0  0
    7.8337   -2.3981    0.0000 H   0  0  0  0  0  0  0  0  0  0  0  0
   10.6352   -0.6402    0.0000 H   0  0  0  0  0  0  0  0  0  0  0  0
    5.0589   -2.2651    0.0000 H   0  0  0  0  0  0  0  0  0  0  0  0
    5.6238    0.8212    0.0000 H   0  0  0  0  0  0  0  0  0  0  0  0
    6.7881    0.7871    0.0000 H   0  0  0  0  0  0  0  0  0  0  0  0
    5.9964    1.1638    0.0000 H   0  0  0  0  0  0  0  0  0  0  0  0
    5.6197    0.3720    0.0000 H   0  0  0  0  0  0  0  0  0  0  0  0
    6.5827    2.2641    0.0000 H   0  0  0  0  0  0  0  0  0  0  0  0
    7.7778    2.9541    0.0000 H   0  0  0  0  0  0  0  0  0  0  0  0
    4.9791   -2.9565    0.0000 H   0  0  0  0  0  0  0  0  0  0  0  0
    5.6015   -3.5741    0.0000 H   0  0  0  0  0  0  0  0  0  0  0  0
    6.2191   -2.9517    0.0000 H   0  0  0  0  0  0  0  0  0  0  0  0
    3.4293   -2.3221    0.0000 H   0  0  0  0  0  0  0  0  0  0  0  0
   11.7177    2.5661    0.0000 H   0  0  0  0  0  0  0  0  0  0  0  0
   11.4907    3.4131    0.0000 H   0  0  0  0  0  0  0  0  0  0  0  0
   10.6438    3.1861    0.0000 H   0  0  0  0  0  0  0  0  0  0  0  0
   12.9985   -0.3012    0.0000 H   0  0  0  0  0  0  0  0  0  0  0  0
   13.2022    0.5517    0.0000 H   0  0  0  0  0  0  0  0  0  0  0  0
   12.3493    0.7553    0.0000 H   0  0  0  0  0  0  0  0  0  0  0  0
  1 17  1  0  0  0  0
  1 20  1  0  0  0  0
  2 16  1  0  0  0  0
  2 28  1  0  0  0  0
 19  3  1  1  0  0  0
  3 53  1  0  0  0  0
 21  4  1  6  0  0  0
  4 54  1  0  0  0  0
 23  5  1  1  0  0  0
  5 34  1  0  0  0  0
  6 27  1  0  0  0  0
  6 35  1  0  0  0  0
  7 30  1  0  0  0  0
  7 33  1  0  0  0  0
  8 27  2  0  0  0  0
  9 28  2  0  0  0  0
 10 33  2  0  0  0  0
 11 34  2  0  0  0  0
 12 13  1  0  0  0  0
 12 14  1  0  0  0  0
 12 16  1  0  0  0  0
 12 20  1  1  0  0  0
 13 15  1  0  0  0  0
 13 19  1  0  0  0  0
 13 37  1  6  0  0  0
 14 17  1  0  0  0  0
 14 23  1  0  0  0  0
 14 38  1  1  0  0  0
 15 18  1  0  0  0  0
 15 25  1  0  0  0  0
 15 26  1  1  0  0  0
 16 22  1  0  0  0  0
 16 39  1  1  0  0  0
 17 21  1  0  0  0  0
 17 27  1  1  0  0  0
 18 22  1  0  0  0  0
 18 24  1  0  0  0  0
 18 40  1  6  0  0  0
 19 21  1  0  0  0  0
 19 41  1  0  0  0  0
 20 42  1  0  0  0  0
 20 43  1  0  0  0  0
 21 44  1  0  0  0  0
 22 45  1  0  0  0  0
 22 46  1  0  0  0  0
 23 28  1  0  0  0  0
 23 47  1  0  0  0  0
 24 29  1  0  0  0  0
 24 31  1  6  0  0  0
 24 48  1  0  0  0  0
 25 30  2  0  0  0  0
 25 49  1  0  0  0  0
 26 50  1  0  0  0  0
 26 51  1  0  0  0  0
 26 52  1  0  0  0  0
 29 30  1  0  0  0  0
 29 32  2  0  0  0  0
 31 55  1  0  0  0  0
 31 56  1  0  0  0  0
 31 57  1  0  0  0  0
 32 33  1  0  0  0  0
 32 58  1  0  0  0  0
 34 36  1  0  0  0  0
 35 59  1  0  0  0  0
 35 60  1  0  0  0  0
 35 61  1  0  0  0  0
 36 62  1  0  0  0  0
 36 63  1  0  0  0  0
 36 64  1  0  0  0  0
M  END
> <PUBCHEM_COMPOUND_CID>
134025

> <PUBCHEM_COMPOUND_CANONICALIZED>
1

> <PUBCHEM_CACTVS_COMPLEXITY>
1160

> <PUBCHEM_CACTVS_HBOND_ACCEPTOR>
11

> <PUBCHEM_CACTVS_HBOND_DONOR>
2

> <PUBCHEM_CACTVS_ROTATABLE_BOND>
4

> <PUBCHEM_CACTVS_SUBSKEYS>
AAADceB4PAAAAAAAAAAAAAAAAAAAASIAAAA0YIEABIAAAEjQAAAAGgAACAAAD1SggAICCAAABgCIAiDSCAIACAAgIAAACAFAAEgJFBYAIQQCUAAFoAALoQPK7vzPgAAAAAAAAADAAAYQADCAAAAAAAAAAA==

> <PUBCHEM_IUPAC_INCHI>
InChI=1S/C25H28O11/c1-9-11-5-15(27)35-13(11)7-23(3)12(9)6-14-24-8-33-25(22(31)32-4,20(29)16(28)18(23)24)19(24)17(21(30)36-14)34-10(2)26/h5,7,9,12,14,16-20,28-29H,6,8H2,1-4H3/t9-,12+,14-,16-,17-,18-,19-,20+,23+,24-,25+/m1/s1

> <PUBCHEM_IUPAC_INCHIKEY>
ZZKFDOQILIXHHH-OKNMSMBGSA-N

> <PUBCHEM_XLOGP3_AA>
0.5

> <PUBCHEM_EXACT_MASS>
504.163162

> <PUBCHEM_MOLECULAR_FORMULA>
C25H28O11

> <PUBCHEM_MOLECULAR_WEIGHT>
504.48322

> <PUBCHEM_OPENEYE_CAN_SMILES>
CC1C2CC3C45COC(C4C(C(=O)O3)OC(=O)C)(C(C(C5C2(C=C6C1=CC(=O)O6)C)O)O)C(=O)OC

> <PUBCHEM_OPENEYE_ISO_SMILES>
C[C@H]1[C@@H]2C[C@@H]3[C@@]45CO[C@@]([C@@H]4[C@H](C(=O)O3)OC(=O)C)([C@H]([C@@H]([C@@H]5[C@]2(C=C6C1=CC(=O)O6)C)O)O)C(=O)OC

> <PUBCHEM_CACTVS_TPSA>
155

> <PUBCHEM_MONOISOTOPIC_WEIGHT>
504.163162

> <PUBCHEM_TOTAL_CHARGE>
0

> <PUBCHEM_HEAVY_ATOM_COUNT>
36

> <PUBCHEM_ATOM_DEF_STEREO_COUNT>
11

> <PUBCHEM_ATOM_UDEF_STEREO_COUNT>
0

> <PUBCHEM_BOND_DEF_STEREO_COUNT>
0

> <PUBCHEM_BOND_UDEF_STEREO_COUNT>
0

> <PUBCHEM_ISOTOPIC_ATOM_COUNT>
0

> <PUBCHEM_COMPONENT_COUNT>
1

> <PUBCHEM_CACTVS_TAUTO_COUNT>
2

> <PUBCHEM_COORDINATE_TYPE>
1
5
255

> <PUBCHEM_BONDANNOTATIONS>
12  20  5
13  37  6
14  38  5
15  26  5
16  39  5
17  27  5
18  40  6
24  31  6
19  3  5
21  4  6
23  5  5

$$$$

