445262
  -OEChem-07051213093D

 22 22  0     0  0  0  0  0  0999 V2000
   -2.6044   -1.1675    0.0765 O   0  0  0  0  0  0  0  0  0  0  0  0
   -2.7007    1.0836    0.0430 O   0  0  0  0  0  0  0  0  0  0  0  0
   -0.6434    0.0128   -0.2130 N   0  0  0  0  0  0  0  0  0  0  0  0
    2.8973    0.0056   -0.8194 N   0  0  0  0  0  0  0  0  0  0  0  0
    2.1917   -0.0054    0.4633 C   0  0  0  0  0  0  0  0  0  0  0  0
    1.3238    1.2536    0.6078 C   0  0  0  0  0  0  0  0  0  0  0  0
    1.3157   -1.2616    0.5811 C   0  0  0  0  0  0  0  0  0  0  0  0
    0.1270    1.2493   -0.3434 C   0  0  0  0  0  0  0  0  0  0  0  0
    0.1175   -1.2316   -0.3690 C   0  0  0  0  0  0  0  0  0  0  0  0
   -2.0245    0.0613   -0.0270 C   0  0  0  0  0  0  0  0  0  0  0  0
    2.9413   -0.0163    1.2631 H   0  0  0  0  0  0  0  0  0  0  0  0
    1.9229    2.1578    0.4458 H   0  0  0  0  0  0  0  0  0  0  0  0
    0.9537    1.3038    1.6403 H   0  0  0  0  0  0  0  0  0  0  0  0
    0.9456   -1.3314    1.6126 H   0  0  0  0  0  0  0  0  0  0  0  0
    1.9094   -2.1657    0.3999 H   0  0  0  0  0  0  0  0  0  0  0  0
   -0.5068    2.1188   -0.1410 H   0  0  0  0  0  0  0  0  0  0  0  0
    0.4547    1.3225   -1.3868 H   0  0  0  0  0  0  0  0  0  0  0  0
    0.4456   -1.2822   -1.4136 H   0  0  0  0  0  0  0  0  0  0  0  0
   -0.5124   -2.1069   -0.1871 H   0  0  0  0  0  0  0  0  0  0  0  0
    3.5022   -0.8120   -0.8847 H   0  0  0  0  0  0  0  0  0  0  0  0
    3.5073    0.8206   -0.8677 H   0  0  0  0  0  0  0  0  0  0  0  0
   -3.5745   -1.1027    0.2063 H   0  0  0  0  0  0  0  0  0  0  0  0
  1 10  1  0  0  0  0
  1 22  1  0  0  0  0
  2 10  2  0  0  0  0
  3  8  1  0  0  0  0
  3  9  1  0  0  0  0
  3 10  1  0  0  0  0
  4  5  1  0  0  0  0
  4 20  1  0  0  0  0
  4 21  1  0  0  0  0
  5  6  1  0  0  0  0
  5  7  1  0  0  0  0
  5 11  1  0  0  0  0
  6  8  1  0  0  0  0
  6 12  1  0  0  0  0
  6 13  1  0  0  0  0
  7  9  1  0  0  0  0
  7 14  1  0  0  0  0
  7 15  1  0  0  0  0
  8 16  1  0  0  0  0
  8 17  1  0  0  0  0
  9 18  1  0  0  0  0
  9 19  1  0  0  0  0
M  END
> <PUBCHEM_COMPOUND_CID>
445262

> <PUBCHEM_CONFORMER_RMSD>
0.4

> <PUBCHEM_CONFORMER_DIVERSEORDER>
2
5
6
3
4
1

> <PUBCHEM_MMFF94_PARTIAL_CHARGES>
11
1 -0.65
10 0.78
2 -0.57
20 0.36
21 0.36
22 0.5
3 -0.66
4 -0.99
5 0.27
8 0.3
9 0.3

> <PUBCHEM_EFFECTIVE_ROTOR_COUNT>
2.2

> <PUBCHEM_PHARMACOPHORE_FEATURES>
5
1 2 acceptor
1 4 cation
1 4 donor
3 1 2 10 anion
6 3 5 6 7 8 9 rings

> <PUBCHEM_HEAVY_ATOM_COUNT>
10

> <PUBCHEM_ATOM_DEF_STEREO_COUNT>
0

> <PUBCHEM_ATOM_UDEF_STEREO_COUNT>
0

> <PUBCHEM_BOND_DEF_STEREO_COUNT>
0

> <PUBCHEM_BOND_UDEF_STEREO_COUNT>
0

> <PUBCHEM_ISOTOPIC_ATOM_COUNT>
0

> <PUBCHEM_COMPONENT_COUNT>
1

> <PUBCHEM_CACTVS_TAUTO_COUNT>
1

> <PUBCHEM_CONFORMER_ID>
0006CB4E00000002

> <PUBCHEM_MMFF94_ENERGY>
4.8101

> <PUBCHEM_FEATURE_SELFOVERLAP>
25.371

> <PUBCHEM_SHAPE_FINGERPRINT>
10857977 72 18341342101742696931
12897270 3 18412266146442088844
12932764 1 18411704287737388817
14325111 11 18409450258593168248
14390081 3 18333739021907747953
16945 1 18410298033508029464
21040471 1 18338522932596660906
23552423 10 18271526403339791205
2748010 2 18337680697926049421
29004967 10 18060138760201850600
5084963 1 18188767241159040883

> <PUBCHEM_SHAPE_MULTIPOLES>
184.09
3.83
1.48
0.77
1.14
0.02
-0.01
-0.02
-0.1
0.09
0.09
-0.34
0
0.01

> <PUBCHEM_SHAPE_SELFOVERLAP>
361.297

> <PUBCHEM_SHAPE_VOLUME>
109

> <PUBCHEM_COORDINATE_TYPE>
2
5
10

$$$$

