166766
  -OEChem-07051212553D

 23 23  0     1  0  0  0  0  0999 V2000
    1.3634    1.1490   -1.4973 O   0  0  0  0  0  0  0  0  0  0  0  0
    2.7061    1.6120    0.2702 O   0  0  0  0  0  0  0  0  0  0  0  0
    3.3738   -1.0657    0.3818 N   0  0  0  0  0  0  0  0  0  0  0  0
   -0.8856    0.4702    0.7061 N   0  0  0  0  0  0  0  0  0  0  0  0
   -2.9328   -0.1174   -0.4213 N   0  0  0  0  0  0  0  0  0  0  0  0
   -2.6661    1.9924    0.5702 N   0  0  0  0  0  0  0  0  0  0  0  0
    0.9713   -1.0732    0.8668 C   0  0  0  0  0  0  0  0  0  0  0  0
    2.0586   -0.7016   -0.1521 C   0  0  1  0  0  0  0  0  0  0  0  0
   -0.4210   -0.7530    0.3989 C   0  0  0  0  0  0  0  0  0  0  0  0
    2.0885    0.7967   -0.4034 C   0  0  0  0  0  0  0  0  0  0  0  0
   -1.1265   -1.7033   -0.2998 C   0  0  0  0  0  0  0  0  0  0  0  0
   -2.3946   -1.3251   -0.6903 C   0  0  0  0  0  0  0  0  0  0  0  0
   -2.1353    0.7189    0.2702 C   0  0  0  0  0  0  0  0  0  0  0  0
    1.0335   -2.1412    1.1156 H   0  0  0  0  0  0  0  0  0  0  0  0
    1.1441   -0.5368    1.8106 H   0  0  0  0  0  0  0  0  0  0  0  0
    1.9087   -1.2248   -1.1036 H   0  0  0  0  0  0  0  0  0  0  0  0
   -0.7285   -2.6813   -0.5364 H   0  0  0  0  0  0  0  0  0  0  0  0
    4.0883   -0.8938   -0.3250 H   0  0  0  0  0  0  0  0  0  0  0  0
    3.3993   -2.0669    0.5717 H   0  0  0  0  0  0  0  0  0  0  0  0
   -3.0322   -2.0029   -1.2478 H   0  0  0  0  0  0  0  0  0  0  0  0
    1.3947    2.1158   -1.6606 H   0  0  0  0  0  0  0  0  0  0  0  0
   -3.6002    2.2264    0.2636 H   0  0  0  0  0  0  0  0  0  0  0  0
   -2.1050    2.6554    1.0870 H   0  0  0  0  0  0  0  0  0  0  0  0
  1 10  1  0  0  0  0
  1 21  1  0  0  0  0
  2 10  2  0  0  0  0
  3  8  1  0  0  0  0
  3 18  1  0  0  0  0
  3 19  1  0  0  0  0
  4  9  2  0  0  0  0
  4 13  1  0  0  0  0
  5 12  1  0  0  0  0
  5 13  2  0  0  0  0
  6 13  1  0  0  0  0
  6 22  1  0  0  0  0
  6 23  1  0  0  0  0
  7  8  1  0  0  0  0
  7  9  1  0  0  0  0
  7 14  1  0  0  0  0
  7 15  1  0  0  0  0
  8 10  1  0  0  0  0
  8 16  1  0  0  0  0
  9 11  1  0  0  0  0
 11 12  2  0  0  0  0
 11 17  1  0  0  0  0
 12 20  1  0  0  0  0
M  END
> <PUBCHEM_COMPOUND_CID>
166766

> <PUBCHEM_CONFORMER_RMSD>
0.6

> <PUBCHEM_CONFORMER_DIVERSEORDER>
1
28
8
13
17
22
20
12
21
26
14
5
3
18
24
6
15
27
25
16
10
7
2
9
11
4
23
19

> <PUBCHEM_MMFF94_PARTIAL_CHARGES>
20
1 -0.65
10 0.66
11 -0.15
12 0.16
13 0.72
17 0.15
18 0.36
19 0.36
2 -0.57
20 0.15
21 0.5
22 0.4
23 0.4
3 -0.99
4 -0.62
5 -0.62
6 -0.9
7 0.14
8 0.33
9 0.17

> <PUBCHEM_EFFECTIVE_ROTOR_COUNT>
3

> <PUBCHEM_PHARMACOPHORE_FEATURES>
9
1 1 acceptor
1 2 acceptor
1 3 cation
1 3 donor
1 4 acceptor
1 6 donor
3 1 2 10 anion
4 4 5 6 13 cation
6 4 5 9 11 12 13 rings

> <PUBCHEM_HEAVY_ATOM_COUNT>
13

> <PUBCHEM_ATOM_DEF_STEREO_COUNT>
1

> <PUBCHEM_ATOM_UDEF_STEREO_COUNT>
0

> <PUBCHEM_BOND_DEF_STEREO_COUNT>
0

> <PUBCHEM_BOND_UDEF_STEREO_COUNT>
0

> <PUBCHEM_ISOTOPIC_ATOM_COUNT>
0

> <PUBCHEM_COMPONENT_COUNT>
1

> <PUBCHEM_CACTVS_TAUTO_COUNT>
6

> <PUBCHEM_CONFORMER_ID>
00028B6E00000001

> <PUBCHEM_MMFF94_ENERGY>
26.6033

> <PUBCHEM_FEATURE_SELFOVERLAP>
45.728

> <PUBCHEM_SHAPE_FINGERPRINT>
12162725 195 18408889524885037222
12716758 59 18186522111466697451
12897270 3 18116430341092467102
12932764 1 18188758466577791344
15775835 57 18411691101871642772
16945 1 18337390555636796130
18511873 20 18266738159281876306
19973954 147 18340764841011064098
20653085 51 18337379539224880715
21524375 3 18267016357436118345
230 275 18201435818677214892
23552423 10 18410580603849652275
23557571 272 17824257094716064095
23559900 14 17604435227711920866
353137 74 18340776927244168403
369184 2 18336543824477868819
5084963 1 18131355197742880887
7832392 63 18338234989299157624
8030462 33 18340760434437915590
9939556 21 18408887351642251846

> <PUBCHEM_SHAPE_MULTIPOLES>
235.87
4.85
1.86
0.94
0.87
0.36
-0.15
0.69
-0.15
-0.36
0.04
0.1
0.09
-0.77

> <PUBCHEM_SHAPE_SELFOVERLAP>
484.779

> <PUBCHEM_SHAPE_VOLUME>
133.3

> <PUBCHEM_COORDINATE_TYPE>
2
5
10

$$$$

