19587
  -OEChem-07051213132D

 29 29  0     1  0  0  0  0  0999 V2000
    2.8660   -4.3100    0.0000 Cl  0  0  0  0  0  0  0  0  0  0  0  0
    4.5981   -0.3100    0.0000 O   0  0  0  0  0  0  0  0  0  0  0  0
    3.7320    1.1900    0.0000 N   0  0  0  0  0  0  0  0  0  0  0  0
    2.8660   -0.3100    0.0000 N   0  0  0  0  0  0  0  0  0  0  0  0
    4.5981    1.6900    0.0000 C   0  0  3  0  0  0  0  0  0  0  0  0
    3.7320    0.1900    0.0000 C   0  0  0  0  0  0  0  0  0  0  0  0
    5.4641    1.1900    0.0000 C   0  0  0  0  0  0  0  0  0  0  0  0
    2.8660    1.6900    0.0000 C   0  0  0  0  0  0  0  0  0  0  0  0
    2.8660   -1.3100    0.0000 C   0  0  0  0  0  0  0  0  0  0  0  0
    2.0000   -1.8100    0.0000 C   0  0  0  0  0  0  0  0  0  0  0  0
    3.7320   -1.8100    0.0000 C   0  0  0  0  0  0  0  0  0  0  0  0
    4.5981    2.6900    0.0000 C   0  0  0  0  0  0  0  0  0  0  0  0
    2.0000   -2.8100    0.0000 C   0  0  0  0  0  0  0  0  0  0  0  0
    3.7320   -2.8100    0.0000 C   0  0  0  0  0  0  0  0  0  0  0  0
    2.8660   -3.3100    0.0000 C   0  0  0  0  0  0  0  0  0  0  0  0
    4.5981    3.6900    0.0000 C   0  0  0  0  0  0  0  0  0  0  0  0
    4.5981    0.8400    0.0000 H   0  0  0  0  0  0  0  0  0  0  0  0
    5.1541    0.6531    0.0000 H   0  0  0  0  0  0  0  0  0  0  0  0
    6.0010    0.8800    0.0000 H   0  0  0  0  0  0  0  0  0  0  0  0
    5.7741    1.7269    0.0000 H   0  0  0  0  0  0  0  0  0  0  0  0
    3.1760    2.2269    0.0000 H   0  0  0  0  0  0  0  0  0  0  0  0
    2.3291    2.0000    0.0000 H   0  0  0  0  0  0  0  0  0  0  0  0
    2.5560    1.1531    0.0000 H   0  0  0  0  0  0  0  0  0  0  0  0
    2.3291    0.0000    0.0000 H   0  0  0  0  0  0  0  0  0  0  0  0
    1.4631   -1.5000    0.0000 H   0  0  0  0  0  0  0  0  0  0  0  0
    4.2690   -1.5000    0.0000 H   0  0  0  0  0  0  0  0  0  0  0  0
    1.4631   -3.1200    0.0000 H   0  0  0  0  0  0  0  0  0  0  0  0
    4.2690   -3.1200    0.0000 H   0  0  0  0  0  0  0  0  0  0  0  0
    4.5981    4.3100    0.0000 H   0  0  0  0  0  0  0  0  0  0  0  0
  1 15  1  0  0  0  0
  2  6  2  0  0  0  0
  3  5  1  0  0  0  0
  3  6  1  0  0  0  0
  3  8  1  0  0  0  0
  4  6  1  0  0  0  0
  4  9  1  0  0  0  0
  4 24  1  0  0  0  0
  5  7  1  0  0  0  0
  5 12  1  0  0  0  0
  5 17  1  0  0  0  0
  7 18  1  0  0  0  0
  7 19  1  0  0  0  0
  7 20  1  0  0  0  0
  8 21  1  0  0  0  0
  8 22  1  0  0  0  0
  8 23  1  0  0  0  0
  9 10  2  0  0  0  0
  9 11  1  0  0  0  0
 10 13  1  0  0  0  0
 10 25  1  0  0  0  0
 11 14  2  0  0  0  0
 11 26  1  0  0  0  0
 12 16  3  0  0  0  0
 13 15  2  0  0  0  0
 13 27  1  0  0  0  0
 14 15  1  0  0  0  0
 14 28  1  0  0  0  0
 16 29  1  0  0  0  0
M  END
> <PUBCHEM_COMPOUND_CID>
19587

> <PUBCHEM_COMPOUND_CANONICALIZED>
1

> <PUBCHEM_CACTVS_COMPLEXITY>
289

> <PUBCHEM_CACTVS_HBOND_ACCEPTOR>
1

> <PUBCHEM_CACTVS_HBOND_DONOR>
1

> <PUBCHEM_CACTVS_ROTATABLE_BOND>
2

> <PUBCHEM_CACTVS_SUBSKEYS>
AAADccBzIAAEAAAAAAAAAAAAAAAAAAAAAAAwAAAAAAAAAAABAAAAHgIQAAAACCrBECQzwIPAAADIGCRCUAiCAAAhBwAIiAAIZoiIICLBk5GEIAholgJIyCcQAAAAAABAAAAAAAAAAIAAAAAAAAAAAAAAAA==

> <PUBCHEM_IUPAC_OPENEYE_NAME>
3-(4-chlorophenyl)-1-methyl-1-(1-methylprop-2-ynyl)urea

> <PUBCHEM_IUPAC_CAS_NAME>
1-but-3-yn-2-yl-3-(4-chlorophenyl)-1-methylurea

> <PUBCHEM_IUPAC_NAME>
1-but-3-yn-2-yl-3-(4-chlorophenyl)-1-methylurea

> <PUBCHEM_IUPAC_SYSTEMATIC_NAME>
1-but-3-yn-2-yl-3-(4-chlorophenyl)-1-methyl-urea

> <PUBCHEM_IUPAC_TRADITIONAL_NAME>
3-(4-chlorophenyl)-1-methyl-1-(1-methylprop-2-ynyl)urea

> <PUBCHEM_IUPAC_INCHI>
InChI=1S/C12H13ClN2O/c1-4-9(2)15(3)12(16)14-11-7-5-10(13)6-8-11/h1,5-9H,2-3H3,(H,14,16)

> <PUBCHEM_IUPAC_INCHIKEY>
BYYMILHAKOURNM-UHFFFAOYSA-N

> <PUBCHEM_XLOGP3>
3

> <PUBCHEM_EXACT_MASS>
236.071641

> <PUBCHEM_MOLECULAR_FORMULA>
C12H13ClN2O

> <PUBCHEM_MOLECULAR_WEIGHT>
236.69742

> <PUBCHEM_OPENEYE_CAN_SMILES>
CC(C#C)N(C)C(=O)NC1=CC=C(C=C1)Cl

> <PUBCHEM_OPENEYE_ISO_SMILES>
CC(C#C)N(C)C(=O)NC1=CC=C(C=C1)Cl

> <PUBCHEM_CACTVS_TPSA>
32.3

> <PUBCHEM_MONOISOTOPIC_WEIGHT>
236.071641

> <PUBCHEM_TOTAL_CHARGE>
0

> <PUBCHEM_HEAVY_ATOM_COUNT>
16

> <PUBCHEM_ATOM_DEF_STEREO_COUNT>
0

> <PUBCHEM_ATOM_UDEF_STEREO_COUNT>
1

> <PUBCHEM_BOND_DEF_STEREO_COUNT>
0

> <PUBCHEM_BOND_UDEF_STEREO_COUNT>
0

> <PUBCHEM_ISOTOPIC_ATOM_COUNT>
0

> <PUBCHEM_COMPONENT_COUNT>
1

> <PUBCHEM_CACTVS_TAUTO_COUNT>
2

> <PUBCHEM_COORDINATE_TYPE>
1
5
255

> <PUBCHEM_BONDANNOTATIONS>
10  13  8
11  14  8
13  15  8
14  15  8
5  17  3
9  10  8
9  11  8

$$$$

