23426994
  -OEChem-07051213092D

 92 93  0     1  0  0  0  0  0999 V2000
    7.3671    1.7290    0.0000 O   0  0  0  0  0  0  0  0  0  0  0  0
    5.1350    2.5950    0.0000 O   0  0  0  0  0  0  0  0  0  0  0  0
    4.2690    1.0950    0.0000 O   0  0  0  0  0  0  0  0  0  0  0  0
    7.7331    1.0950    0.0000 O   0  0  0  0  0  0  0  0  0  0  0  0
    2.5369    1.0950    0.0000 O   0  0  0  0  0  0  0  0  0  0  0  0
    2.5369   -0.9050    0.0000 O   0  0  0  0  0  0  0  0  0  0  0  0
    5.1350   -0.4050    0.0000 O   0  0  0  0  0  0  0  0  0  0  0  0
    9.4651   -1.9050    0.0000 O   0  0  0  0  0  0  0  0  0  0  0  0
    6.0010   -4.9050    0.0000 O   0  0  0  0  0  0  0  0  0  0  0  0
    6.0010   -1.9050    0.0000 O   0  0  0  0  0  0  0  0  0  0  0  0
    6.8671    2.5950    0.0000 C   0  0  3  0  0  0  0  0  0  0  0  0
    7.8671    2.5950    0.0000 C   0  0  1  0  0  0  0  0  0  0  0  0
    6.0010    2.0950    0.0000 C   0  0  2  0  0  0  0  0  0  0  0  0
    8.7331    3.0950    0.0000 C   0  0  1  0  0  0  0  0  0  0  0  0
    6.8671    3.5950    0.0000 C   0  0  0  0  0  0  0  0  0  0  0  0
    6.0010    1.0950    0.0000 C   0  0  1  0  0  0  0  0  0  0  0  0
    9.5991    2.5950    0.0000 C   0  0  0  0  0  0  0  0  0  0  0  0
    5.1350    0.5950    0.0000 C   0  0  0  0  0  0  0  0  0  0  0  0
    6.8671    0.5950    0.0000 C   0  0  0  0  0  0  0  0  0  0  0  0
    8.7331    4.0950    0.0000 C   0  0  0  0  0  0  0  0  0  0  0  0
    6.8671   -0.4050    0.0000 C   0  0  1  0  0  0  0  0  0  0  0  0
    7.7331   -0.9050    0.0000 C   0  0  1  0  0  0  0  0  0  0  0  0
    9.5991    4.5950    0.0000 C   0  0  0  0  0  0  0  0  0  0  0  0
    6.0010   -0.9050    0.0000 C   0  0  0  0  0  0  0  0  0  0  0  0
    7.7331   -1.9050    0.0000 C   0  0  0  0  0  0  0  0  0  0  0  0
   10.4651    4.0950    0.0000 C   0  0  0  0  0  0  0  0  0  0  0  0
    3.4030    0.5950    0.0000 C   0  0  0  0  0  0  0  0  0  0  0  0
    3.4030   -0.4050    0.0000 C   0  0  1  0  0  0  0  0  0  0  0  0
    4.2690   -0.9050    0.0000 C   0  0  2  0  0  0  0  0  0  0  0  0
    8.5991   -2.4050    0.0000 C   0  0  0  0  0  0  0  0  0  0  0  0
    4.2690   -1.9050    0.0000 C   0  0  1  0  0  0  0  0  0  0  0  0
    8.5991   -3.4050    0.0000 C   0  0  2  0  0  0  0  0  0  0  0  0
    5.1350   -3.4050    0.0000 C   0  0  1  0  0  0  0  0  0  0  0  0
    5.1350   -2.4050    0.0000 C   0  0  0  0  0  0  0  0  0  0  0  0
    6.0010   -3.9050    0.0000 C   0  0  2  0  0  0  0  0  0  0  0  0
    7.7331   -3.9050    0.0000 C   0  0  0  0  0  0  0  0  0  0  0  0
    3.4030   -2.4050    0.0000 C   0  0  0  0  0  0  0  0  0  0  0  0
    6.8671   -3.4050    0.0000 C   0  0  0  0  0  0  0  0  0  0  0  0
    9.4651   -3.9050    0.0000 C   0  0  0  0  0  0  0  0  0  0  0  0
    4.2690   -3.9050    0.0000 C   0  0  0  0  0  0  0  0  0  0  0  0
    6.8671   -2.4050    0.0000 C   0  0  0  0  0  0  0  0  0  0  0  0
    4.4922    0.3610    0.0000 C   0  0  0  0  0  0  0  0  0  0  0  0
    8.4681    1.9940    0.0000 H   0  0  0  0  0  0  0  0  0  0  0  0
    5.4641    1.7850    0.0000 H   0  0  0  0  0  0  0  0  0  0  0  0
    9.2700    3.4050    0.0000 H   0  0  0  0  0  0  0  0  0  0  0  0
    7.4871    3.5950    0.0000 H   0  0  0  0  0  0  0  0  0  0  0  0
    6.8671    4.2150    0.0000 H   0  0  0  0  0  0  0  0  0  0  0  0
    6.2471    3.5950    0.0000 H   0  0  0  0  0  0  0  0  0  0  0  0
    6.7372    1.5200    0.0000 H   0  0  0  0  0  0  0  0  0  0  0  0
    9.2891    2.0581    0.0000 H   0  0  0  0  0  0  0  0  0  0  0  0
   10.1360    2.2850    0.0000 H   0  0  0  0  0  0  0  0  0  0  0  0
    9.9091    3.1319    0.0000 H   0  0  0  0  0  0  0  0  0  0  0  0
    4.7365    0.1201    0.0000 H   0  0  0  0  0  0  0  0  0  0  0  0
    5.5335    0.1201    0.0000 H   0  0  0  0  0  0  0  0  0  0  0  0
    8.1962    4.4050    0.0000 H   0  0  0  0  0  0  0  0  0  0  0  0
    5.1350    3.2150    0.0000 H   0  0  0  0  0  0  0  0  0  0  0  0
    6.3301   -0.0950    0.0000 H   0  0  0  0  0  0  0  0  0  0  0  0
    8.5702   -1.0526    0.0000 H   0  0  0  0  0  0  0  0  0  0  0  0
    7.9451   -0.3224    0.0000 H   0  0  0  0  0  0  0  0  0  0  0  0
    9.5991    5.2150    0.0000 H   0  0  0  0  0  0  0  0  0  0  0  0
    5.6910   -0.3681    0.0000 H   0  0  0  0  0  0  0  0  0  0  0  0
    5.4641   -1.2150    0.0000 H   0  0  0  0  0  0  0  0  0  0  0  0
    6.3110   -1.4419    0.0000 H   0  0  0  0  0  0  0  0  0  0  0  0
    7.1225   -1.7973    0.0000 H   0  0  0  0  0  0  0  0  0  0  0  0
    7.5210   -2.4876    0.0000 H   0  0  0  0  0  0  0  0  0  0  0  0
   10.1551    3.5581    0.0000 H   0  0  0  0  0  0  0  0  0  0  0  0
   11.0021    3.7850    0.0000 H   0  0  0  0  0  0  0  0  0  0  0  0
   10.7751    4.6319    0.0000 H   0  0  0  0  0  0  0  0  0  0  0  0
    3.4030   -1.0250    0.0000 H   0  0  0  0  0  0  0  0  0  0  0  0
    4.2690   -0.2850    0.0000 H   0  0  0  0  0  0  0  0  0  0  0  0
    4.2690   -2.5250    0.0000 H   0  0  0  0  0  0  0  0  0  0  0  0
    8.5991   -4.0250    0.0000 H   0  0  0  0  0  0  0  0  0  0  0  0
    5.1350   -4.0250    0.0000 H   0  0  0  0  0  0  0  0  0  0  0  0
    6.5380   -4.2150    0.0000 H   0  0  0  0  0  0  0  0  0  0  0  0
    7.7331   -4.5250    0.0000 H   0  0  0  0  0  0  0  0  0  0  0  0
    3.0930   -1.8681    0.0000 H   0  0  0  0  0  0  0  0  0  0  0  0
    2.8660   -2.7150    0.0000 H   0  0  0  0  0  0  0  0  0  0  0  0
    3.7130   -2.9419    0.0000 H   0  0  0  0  0  0  0  0  0  0  0  0
    2.0000   -0.5950    0.0000 H   0  0  0  0  0  0  0  0  0  0  0  0
    9.1551   -4.4419    0.0000 H   0  0  0  0  0  0  0  0  0  0  0  0
   10.0021   -4.2150    0.0000 H   0  0  0  0  0  0  0  0  0  0  0  0
    9.7751   -3.3681    0.0000 H   0  0  0  0  0  0  0  0  0  0  0  0
    3.9590   -3.3681    0.0000 H   0  0  0  0  0  0  0  0  0  0  0  0
    3.7320   -4.2150    0.0000 H   0  0  0  0  0  0  0  0  0  0  0  0
    4.5790   -4.4419    0.0000 H   0  0  0  0  0  0  0  0  0  0  0  0
    7.4871   -2.4050    0.0000 H   0  0  0  0  0  0  0  0  0  0  0  0
    6.8671   -1.7850    0.0000 H   0  0  0  0  0  0  0  0  0  0  0  0
    6.2471   -2.4050    0.0000 H   0  0  0  0  0  0  0  0  0  0  0  0
    4.9672    0.7596    0.0000 H   0  0  0  0  0  0  0  0  0  0  0  0
    4.0937    0.8360    0.0000 H   0  0  0  0  0  0  0  0  0  0  0  0
    4.0173   -0.0375    0.0000 H   0  0  0  0  0  0  0  0  0  0  0  0
    5.4641   -5.2150    0.0000 H   0  0  0  0  0  0  0  0  0  0  0  0
  1 11  1  0  0  0  0
  1 12  1  0  0  0  0
 13  2  1  6  0  0  0
  2 56  1  0  0  0  0
  3 18  1  0  0  0  0
  3 27  1  0  0  0  0
  4 19  2  0  0  0  0
  5 27  2  0  0  0  0
 28  6  1  1  0  0  0
  6 79  1  0  0  0  0
 29  7  1  1  0  0  0
  7 42  1  0  0  0  0
  8 30  2  0  0  0  0
 35  9  1  6  0  0  0
  9 92  1  0  0  0  0
 10 34  2  0  0  0  0
 11 12  1  0  0  0  0
 11 13  1  0  0  0  0
 11 15  1  0  0  0  0
 12 14  1  0  0  0  0
 12 43  1  6  0  0  0
 13 16  1  0  0  0  0
 13 44  1  0  0  0  0
 14 17  1  6  0  0  0
 14 20  1  0  0  0  0
 14 45  1  0  0  0  0
 15 46  1  0  0  0  0
 15 47  1  0  0  0  0
 15 48  1  0  0  0  0
 16 18  1  0  0  0  0
 16 19  1  0  0  0  0
 16 49  1  1  0  0  0
 17 50  1  0  0  0  0
 17 51  1  0  0  0  0
 17 52  1  0  0  0  0
 18 53  1  0  0  0  0
 18 54  1  0  0  0  0
 19 21  1  0  0  0  0
 20 23  2  0  0  0  0
 20 55  1  0  0  0  0
 21 22  1  0  0  0  0
 21 24  1  1  0  0  0
 21 57  1  0  0  0  0
 22 25  1  0  0  0  0
 22 58  1  6  0  0  0
 22 59  1  0  0  0  0
 23 26  1  0  0  0  0
 23 60  1  0  0  0  0
 24 61  1  0  0  0  0
 24 62  1  0  0  0  0
 24 63  1  0  0  0  0
 25 30  1  0  0  0  0
 25 64  1  0  0  0  0
 25 65  1  0  0  0  0
 26 66  1  0  0  0  0
 26 67  1  0  0  0  0
 26 68  1  0  0  0  0
 27 28  1  0  0  0  0
 28 29  1  0  0  0  0
 28 69  1  0  0  0  0
 29 31  1  0  0  0  0
 29 70  1  0  0  0  0
 30 32  1  0  0  0  0
 31 34  1  0  0  0  0
 31 37  1  1  0  0  0
 31 71  1  0  0  0  0
 32 36  1  0  0  0  0
 32 39  1  1  0  0  0
 32 72  1  0  0  0  0
 33 34  1  0  0  0  0
 33 35  1  0  0  0  0
 33 40  1  1  0  0  0
 33 73  1  0  0  0  0
 35 38  1  0  0  0  0
 35 74  1  0  0  0  0
 36 38  2  0  0  0  0
 36 75  1  0  0  0  0
 37 76  1  0  0  0  0
 37 77  1  0  0  0  0
 37 78  1  0  0  0  0
 38 41  1  0  0  0  0
 39 80  1  0  0  0  0
 39 81  1  0  0  0  0
 39 82  1  0  0  0  0
 40 83  1  0  0  0  0
 40 84  1  0  0  0  0
 40 85  1  0  0  0  0
 41 86  1  0  0  0  0
 41 87  1  0  0  0  0
 41 88  1  0  0  0  0
 42 89  1  0  0  0  0
 42 90  1  0  0  0  0
 42 91  1  0  0  0  0
M  END
> <PUBCHEM_COMPOUND_CID>
23426994

> <PUBCHEM_COMPOUND_CANONICALIZED>
1

> <PUBCHEM_CACTVS_COMPLEXITY>
1050

> <PUBCHEM_CACTVS_HBOND_ACCEPTOR>
10

> <PUBCHEM_CACTVS_HBOND_DONOR>
3

> <PUBCHEM_CACTVS_ROTATABLE_BOND>
5

> <PUBCHEM_CACTVS_SUBSKEYS>
AAADcfB8PAAAAAAAAAAAAAAAEgAAAAAAAAAAAAAAAAAAAAAAAAAAGgAACAAADVSggAICCAAABgCIAqDSCAIAAAAgAAAICAFAAAgBFBYAAQACUAAF4AALEAPK7vzuAAAAAAAAAAAAAAAAAAAAAAAAAAAAAA==

> <PUBCHEM_IUPAC_OPENEYE_NAME>
(3R,4S,5S,7R,8R,9E,11S,15R,17R)-3,8-dihydroxy-17-[(S)-hydroxy-[(3R)-2-methyl-3-[(Z,1S)-1-methylbut-2-enyl]oxiran-2-yl]methyl]-4-methoxy-5,7,9,11,15-pentamethyl-1-oxacyclooctadec-9-ene-2,6,12,16-tetrone

> <PUBCHEM_IUPAC_CAS_NAME>
(3R,4S,5S,7R,8R,9E,11S,15R,17R)-3,8-dihydroxy-17-[(S)-hydroxy-[(3R)-2-methyl-3-[(Z,2S)-pent-3-en-2-yl]-2-oxiranyl]methyl]-4-methoxy-5,7,9,11,15-pentamethyl-1-oxacyclooctadec-9-ene-2,6,12,16-tetrone

> <PUBCHEM_IUPAC_NAME>
(3R,4S,5S,7R,8R,9E,11S,15R,17R)-3,8-dihydroxy-17-[(S)-hydroxy-[(3R)-2-methyl-3-[(Z,2S)-pent-3-en-2-yl]oxiran-2-yl]methyl]-4-methoxy-5,7,9,11,15-pentamethyl-1-oxacyclooctadec-9-ene-2,6,12,16-tetrone

> <PUBCHEM_IUPAC_SYSTEMATIC_NAME>
(3R,4S,5S,7R,8R,9E,11S,15R,17R)-4-methoxy-5,7,9,11,15-pentamethyl-17-[(S)-[(3R)-2-methyl-3-[(Z,2S)-pent-3-en-2-yl]oxiran-2-yl]-oxidanyl-methyl]-3,8-bis(oxidanyl)-1-oxacyclooctadec-9-ene-2,6,12,16-tetrone

> <PUBCHEM_IUPAC_TRADITIONAL_NAME>
(3R,4S,5S,7R,8R,9E,11S,15R,17R)-3,8-dihydroxy-17-[(S)-hydroxy-[(3R)-2-methyl-3-[(Z,1S)-1-methylbut-2-enyl]oxiran-2-yl]methyl]-4-methoxy-5,7,9,11,15-pentamethyl-1-oxacyclooctadec-9-ene-2,6,12,16-diquinone

> <PUBCHEM_IUPAC_INCHI>
InChI=1S/C32H50O10/c1-10-11-17(3)30-32(8,42-30)29(38)22-15-41-31(39)27(37)28(40-9)21(7)26(36)20(6)24(34)19(5)14-18(4)23(33)13-12-16(2)25(22)35/h10-11,14,16-18,20-22,24,27-30,34,37-38H,12-13,15H2,1-9H3/b11-10-,19-14+/t16-,17+,18+,20-,21-,22+,24+,27-,28+,29+,30-,32?/m1/s1

> <PUBCHEM_IUPAC_INCHIKEY>
YTOSLGBJMGPGPA-KNAGTILNSA-N

> <PUBCHEM_XLOGP3_AA>
2.3

> <PUBCHEM_EXACT_MASS>
594.340398

> <PUBCHEM_MOLECULAR_FORMULA>
C32H50O10

> <PUBCHEM_MOLECULAR_WEIGHT>
594.7334

> <PUBCHEM_OPENEYE_CAN_SMILES>
CC=CC(C)C1C(O1)(C)C(C2COC(=O)C(C(C(C(=O)C(C(C(=CC(C(=O)CCC(C2=O)C)C)C)O)C)C)OC)O)O

> <PUBCHEM_OPENEYE_ISO_SMILES>
[H][C@]1([C@H](C(=O)[C@H](COC(=O)[C@@H]([C@H]([C@@H](C(=O)[C@@H]([C@H](/C(=C/[C@@H](C(=O)C1)C)/C)O)C)C)OC)O)[C@H](O)C2(O[C@@H]2[C@H](/C=C\C)C)C)C)[H]

> <PUBCHEM_CACTVS_TPSA>
160

> <PUBCHEM_MONOISOTOPIC_WEIGHT>
594.340398

> <PUBCHEM_TOTAL_CHARGE>
0

> <PUBCHEM_HEAVY_ATOM_COUNT>
42

> <PUBCHEM_ATOM_DEF_STEREO_COUNT>
12

> <PUBCHEM_ATOM_UDEF_STEREO_COUNT>
1

> <PUBCHEM_BOND_DEF_STEREO_COUNT>
2

> <PUBCHEM_BOND_UDEF_STEREO_COUNT>
0

> <PUBCHEM_ISOTOPIC_ATOM_COUNT>
0

> <PUBCHEM_COMPONENT_COUNT>
1

> <PUBCHEM_CACTVS_TAUTO_COUNT>
180

> <PUBCHEM_COORDINATE_TYPE>
1
5
255

> <PUBCHEM_BONDANNOTATIONS>
11  15  3
12  43  6
14  17  6
16  49  5
13  2  6
21  24  5
22  58  6
31  37  5
32  39  5
33  40  5
28  6  5
29  7  5
35  9  6

$$$$

