5280696
  -OEChem-07051212493D

 25 24  0     0  0  0  0  0  0999 V2000
   -2.5303   -1.4991    0.1774 O   0  0  0  0  0  0  0  0  0  0  0  0
    2.5472   -1.6689    0.2761 O   0  0  0  0  0  0  0  0  0  0  0  0
    4.8078   -0.3507    0.0916 O   0  0  0  0  0  0  0  0  0  0  0  0
    3.8247    1.6687   -0.2738 O   0  0  0  0  0  0  0  0  0  0  0  0
   -3.6846    0.5880   -0.2193 C   0  0  0  0  0  0  0  0  0  0  0  0
   -4.1145    1.1402    1.1357 C   0  0  0  0  0  0  0  0  0  0  0  0
   -4.8227   -0.1919   -0.8736 C   0  0  0  0  0  0  0  0  0  0  0  0
   -2.4505   -0.2933   -0.0471 C   0  0  0  0  0  0  0  0  0  0  0  0
   -1.1302    0.3976   -0.1438 C   0  0  0  0  0  0  0  0  0  0  0  0
    0.0123   -0.2886   -0.0055 C   0  0  0  0  0  0  0  0  0  0  0  0
    1.3156    0.3402   -0.0905 C   0  0  0  0  0  0  0  0  0  0  0  0
    2.4832   -0.3104    0.0421 C   0  0  0  0  0  0  0  0  0  0  0  0
    3.7418    0.4681   -0.0692 C   0  0  0  0  0  0  0  0  0  0  0  0
   -3.4283    1.4211   -0.8851 H   0  0  0  0  0  0  0  0  0  0  0  0
   -4.3676    0.3329    1.8319 H   0  0  0  0  0  0  0  0  0  0  0  0
   -3.3099    1.7263    1.5927 H   0  0  0  0  0  0  0  0  0  0  0  0
   -4.9894    1.7905    1.0332 H   0  0  0  0  0  0  0  0  0  0  0  0
   -5.6834    0.4589   -1.0594 H   0  0  0  0  0  0  0  0  0  0  0  0
   -4.5025   -0.6136   -1.8326 H   0  0  0  0  0  0  0  0  0  0  0  0
   -5.1563   -1.0228   -0.2421 H   0  0  0  0  0  0  0  0  0  0  0  0
   -1.1372    1.4671   -0.3261 H   0  0  0  0  0  0  0  0  0  0  0  0
   -0.0108   -1.3592    0.1776 H   0  0  0  0  0  0  0  0  0  0  0  0
    1.3109    1.4127   -0.2746 H   0  0  0  0  0  0  0  0  0  0  0  0
    3.4875   -1.9109    0.3342 H   0  0  0  0  0  0  0  0  0  0  0  0
    5.6576    0.1349    0.0238 H   0  0  0  0  0  0  0  0  0  0  0  0
  1  8  2  0  0  0  0
  2 12  1  0  0  0  0
  2 24  1  0  0  0  0
  3 13  1  0  0  0  0
  3 25  1  0  0  0  0
  4 13  2  0  0  0  0
  5  6  1  0  0  0  0
  5  7  1  0  0  0  0
  5  8  1  0  0  0  0
  5 14  1  0  0  0  0
  6 15  1  0  0  0  0
  6 16  1  0  0  0  0
  6 17  1  0  0  0  0
  7 18  1  0  0  0  0
  7 19  1  0  0  0  0
  7 20  1  0  0  0  0
  8  9  1  0  0  0  0
  9 10  2  0  0  0  0
  9 21  1  0  0  0  0
 10 11  1  0  0  0  0
 10 22  1  0  0  0  0
 11 12  2  0  0  0  0
 11 23  1  0  0  0  0
 12 13  1  0  0  0  0
M  END
> <PUBCHEM_COMPOUND_CID>
5280696

> <PUBCHEM_CONFORMER_RMSD>
0.6

> <PUBCHEM_CONFORMER_DIVERSEORDER>
1
21
14
17
35
32
3
34
2
25
33
8
6
24
30
12
7
11
20
16
18
23
10
4
15
28
27
22
9
31
26
19
13
5
29

> <PUBCHEM_MMFF94_PARTIAL_CHARGES>
16
1 -0.57
10 -0.15
11 -0.15
12 0.09
13 0.71
2 -0.53
21 0.15
22 0.15
23 0.15
24 0.45
25 0.5
3 -0.65
4 -0.57
5 0.06
8 0.49
9 -0.14

> <PUBCHEM_EFFECTIVE_ROTOR_COUNT>
4

> <PUBCHEM_PHARMACOPHORE_FEATURES>
6
1 1 acceptor
1 2 donor
1 3 acceptor
1 4 acceptor
3 3 4 13 anion
3 5 6 7 hydrophobe

> <PUBCHEM_HEAVY_ATOM_COUNT>
13

> <PUBCHEM_ATOM_DEF_STEREO_COUNT>
0

> <PUBCHEM_ATOM_UDEF_STEREO_COUNT>
0

> <PUBCHEM_BOND_DEF_STEREO_COUNT>
2

> <PUBCHEM_BOND_UDEF_STEREO_COUNT>
0

> <PUBCHEM_ISOTOPIC_ATOM_COUNT>
0

> <PUBCHEM_COMPONENT_COUNT>
1

> <PUBCHEM_CACTVS_TAUTO_COUNT>
7

> <PUBCHEM_CONFORMER_ID>
005093B800000001

> <PUBCHEM_MMFF94_ENERGY>
19.9063

> <PUBCHEM_FEATURE_SELFOVERLAP>
30.503

> <PUBCHEM_SHAPE_FINGERPRINT>
10014705 185 18131357384450882037
10680689 15 17203608181663198367
10912923 1 18260832613635988499
11062470 55 18411136939415677037
11471102 20 18412829075400871052
13675066 3 17275382118717570437
14123238 8 17988923366543510309
14251718 22 16660651717215790957
14252887 29 17418370328775881064
14445660 50 18411131433499751177
15375358 24 18060138738737654515
17834072 33 18335707100613886007
17834076 25 18334857225064287037
18186145 218 18272650155889475910
19026448 5 18186803612439857187
19050596 39 18412826880551081592
200 152 18113622287068475234
20279233 1 17489867150435375395
20300324 65 17821731624540601937
20645477 56 17917994988285498301
20645477 70 18340773748789645006
20828058 21 16732983124082704501
22485316 2 18202005425603286595
23402539 116 18041005038208657357
23402655 69 18335417946436084060
23557571 272 15574705903291544881
42788 4 18412547613372235917
449060 50 18272366460404175709
449060 62 18411697669446220716
5104073 3 18342458097750393752
77779 3 18410291406368184398

> <PUBCHEM_SHAPE_MULTIPOLES>
244.06
10.59
1.27
0.78
1.07
0.07
-0.05
-1.52
0.41
0.29
-0.14
-0.7
-0.1
-0.7

> <PUBCHEM_SHAPE_SELFOVERLAP>
475.45

> <PUBCHEM_SHAPE_VOLUME>
146.4

> <PUBCHEM_COORDINATE_TYPE>
2
5
10

$$$$

