441225
  -OEChem-07051212523D

 20 20  0     1  0  0  0  0  0999 V2000
   -0.5353   -1.2119    1.4974 O   0  0  0  0  0  0  0  0  0  0  0  0
    1.7339   -1.3685   -1.2552 O   0  0  0  0  0  0  0  0  0  0  0  0
   -0.1637   -0.8341    0.1687 C   0  0  2  0  0  0  0  0  0  0  0  0
    1.3788   -0.8952    0.0448 C   0  0  2  0  0  0  0  0  0  0  0  0
   -0.7592    0.5344   -0.0902 C   0  0  0  0  0  0  0  0  0  0  0  0
    2.0683    0.4225    0.2605 C   0  0  0  0  0  0  0  0  0  0  0  0
   -0.0009    1.6439   -0.0666 C   0  0  0  0  0  0  0  0  0  0  0  0
    1.4105    1.5886    0.2232 C   0  0  0  0  0  0  0  0  0  0  0  0
   -2.1722    0.5968   -0.3745 C   0  0  0  0  0  0  0  0  0  0  0  0
   -2.9603   -0.4766   -0.4080 C   0  0  0  0  0  0  0  0  0  0  0  0
   -0.5668   -1.5847   -0.5202 H   0  0  0  0  0  0  0  0  0  0  0  0
    1.7769   -1.6166    0.7678 H   0  0  0  0  0  0  0  0  0  0  0  0
    3.1387    0.4169    0.4440 H   0  0  0  0  0  0  0  0  0  0  0  0
   -0.4216    2.6281   -0.2504 H   0  0  0  0  0  0  0  0  0  0  0  0
    1.9349    2.5256    0.3749 H   0  0  0  0  0  0  0  0  0  0  0  0
   -2.6092    1.5710   -0.5781 H   0  0  0  0  0  0  0  0  0  0  0  0
   -0.0962   -0.6043    2.1172 H   0  0  0  0  0  0  0  0  0  0  0  0
    1.3290   -0.7754   -1.9114 H   0  0  0  0  0  0  0  0  0  0  0  0
   -4.0151   -0.3460   -0.6349 H   0  0  0  0  0  0  0  0  0  0  0  0
   -2.6484   -1.4944   -0.2151 H   0  0  0  0  0  0  0  0  0  0  0  0
  1  3  1  0  0  0  0
  1 17  1  0  0  0  0
  2  4  1  0  0  0  0
  2 18  1  0  0  0  0
  3  4  1  0  0  0  0
  3  5  1  0  0  0  0
  3 11  1  0  0  0  0
  4  6  1  0  0  0  0
  4 12  1  0  0  0  0
  5  7  2  0  0  0  0
  5  9  1  0  0  0  0
  6  8  2  0  0  0  0
  6 13  1  0  0  0  0
  7  8  1  0  0  0  0
  7 14  1  0  0  0  0
  8 15  1  0  0  0  0
  9 10  2  0  0  0  0
  9 16  1  0  0  0  0
 10 19  1  0  0  0  0
 10 20  1  0  0  0  0
M  END
> <PUBCHEM_COMPOUND_CID>
441225

> <PUBCHEM_CONFORMER_RMSD>
0.4

> <PUBCHEM_CONFORMER_DIVERSEORDER>
1
6
3
4
2
5

> <PUBCHEM_MMFF94_PARTIAL_CHARGES>
18
1 -0.68
10 -0.3
13 0.15
14 0.15
15 0.15
16 0.15
17 0.4
18 0.4
19 0.15
2 -0.68
20 0.15
3 0.42
4 0.42
5 -0.14
6 -0.29
7 -0.15
8 -0.15
9 -0.15

> <PUBCHEM_EFFECTIVE_ROTOR_COUNT>
1.4

> <PUBCHEM_PHARMACOPHORE_FEATURES>
6
1 1 acceptor
1 1 donor
1 10 hydrophobe
1 2 acceptor
1 2 donor
6 3 4 5 6 7 8 rings

> <PUBCHEM_HEAVY_ATOM_COUNT>
10

> <PUBCHEM_ATOM_DEF_STEREO_COUNT>
0

> <PUBCHEM_ATOM_UDEF_STEREO_COUNT>
2

> <PUBCHEM_BOND_DEF_STEREO_COUNT>
0

> <PUBCHEM_BOND_UDEF_STEREO_COUNT>
0

> <PUBCHEM_ISOTOPIC_ATOM_COUNT>
0

> <PUBCHEM_COMPONENT_COUNT>
1

> <PUBCHEM_CACTVS_TAUTO_COUNT>
1

> <PUBCHEM_CONFORMER_ID>
0006BB8900000001

> <PUBCHEM_MMFF94_ENERGY>
18.0256

> <PUBCHEM_FEATURE_SELFOVERLAP>
30.446

> <PUBCHEM_SHAPE_FINGERPRINT>
12138202 97 17916588609386217863
12423570 1 15690971827112915884
12897270 3 18334582325835520077
137420 1 17320649029402208297
14128692 85 17603588555553472615
16945 1 18335710411727884781
18185500 45 17263855074792471235
20201158 50 18411141320324633919
20511035 2 17909837530946129400
21040471 1 18198911313867425424
23211744 25 18057313088269502647
23235685 24 18268721519102351764
23552423 10 18341611585170866461
241688 4 18121497126975763560
2748010 2 17835236744853702804
29004967 10 18186806893452018945
5084963 1 18272661133715394021

> <PUBCHEM_SHAPE_MULTIPOLES>
194.06
3.21
1.67
0.93
1.83
0.23
-0.09
-0.15
0.52
-0.58
0.02
-0.09
-0.39
0.37

> <PUBCHEM_SHAPE_SELFOVERLAP>
394.944

> <PUBCHEM_SHAPE_VOLUME>
111.6

> <PUBCHEM_COORDINATE_TYPE>
2
5
10

$$$$

