225742
  -OEChem-07051213072D

 58 61  0     1  0  0  0  0  0999 V2000
    9.1493    2.2460    0.0000 O   0  0  0  0  0  0  0  0  0  0  0  0
    2.0000   -1.6974    0.0000 O   0  0  0  0  0  0  0  0  0  0  0  0
    7.3931    1.3549    0.0000 C   0  0  1  0  0  0  0  0  0  0  0  0
    7.3931    0.3549    0.0000 C   0  0  2  0  0  0  0  0  0  0  0  0
    6.5271   -0.1451    0.0000 C   0  0  1  0  0  0  0  0  0  0  0  0
    5.6610    0.3549    0.0000 C   0  0  1  0  0  0  0  0  0  0  0  0
    8.3393    1.6596    0.0000 C   0  0  2  0  0  0  0  0  0  0  0  0
    4.7510   -0.1519    0.0000 C   0  0  2  0  0  0  0  0  0  0  0  0
    6.5271    1.8549    0.0000 C   0  0  0  0  0  0  0  0  0  0  0  0
    5.6610    1.3549    0.0000 C   0  0  0  0  0  0  0  0  0  0  0  0
    8.3393    0.0502    0.0000 C   0  0  0  0  0  0  0  0  0  0  0  0
    8.9229    0.8549    0.0000 C   0  0  0  0  0  0  0  0  0  0  0  0
    6.5431   -1.1866    0.0000 C   0  0  0  0  0  0  0  0  0  0  0  0
    4.7430   -1.1936    0.0000 C   0  0  0  0  0  0  0  0  0  0  0  0
    7.3931    2.3549    0.0000 C   0  0  0  0  0  0  0  0  0  0  0  0
    3.8242    0.4121    0.0000 C   0  0  0  0  0  0  0  0  0  0  0  0
    5.6451   -1.7144    0.0000 C   0  0  0  0  0  0  0  0  0  0  0  0
    3.8076   -1.7433    0.0000 C   0  0  0  0  0  0  0  0  0  0  0  0
    8.0319    2.6112    0.0000 C   0  0  0  0  0  0  0  0  0  0  0  0
    4.7587    0.8480    0.0000 C   0  0  0  0  0  0  0  0  0  0  0  0
    2.8763   -0.1158    0.0000 C   0  0  0  0  0  0  0  0  0  0  0  0
    2.8680   -1.2008    0.0000 C   0  0  0  0  0  0  0  0  0  0  0  0
    3.3109   -2.6112    0.0000 C   0  0  0  0  0  0  0  0  0  0  0  0
    4.3109   -2.6074    0.0000 C   0  0  0  0  0  0  0  0  0  0  0  0
    7.4830   -0.4903    0.0000 H   0  0  0  0  0  0  0  0  0  0  0  0
    7.2664   -0.5644    0.0000 H   0  0  0  0  0  0  0  0  0  0  0  0
    6.3972    0.7799    0.0000 H   0  0  0  0  0  0  0  0  0  0  0  0
    6.9256    2.3298    0.0000 H   0  0  0  0  0  0  0  0  0  0  0  0
    6.1285    2.3298    0.0000 H   0  0  0  0  0  0  0  0  0  0  0  0
    5.4490    1.9375    0.0000 H   0  0  0  0  0  0  0  0  0  0  0  0
    5.0504    1.2472    0.0000 H   0  0  0  0  0  0  0  0  0  0  0  0
    8.0883   -0.5167    0.0000 H   0  0  0  0  0  0  0  0  0  0  0  0
    8.8767   -0.2591    0.0000 H   0  0  0  0  0  0  0  0  0  0  0  0
    9.3838    0.4402    0.0000 H   0  0  0  0  0  0  0  0  0  0  0  0
    9.3838    1.2696    0.0000 H   0  0  0  0  0  0  0  0  0  0  0  0
    6.7612   -1.7670    0.0000 H   0  0  0  0  0  0  0  0  0  0  0  0
    7.1523   -1.0711    0.0000 H   0  0  0  0  0  0  0  0  0  0  0  0
    8.0131    2.3549    0.0000 H   0  0  0  0  0  0  0  0  0  0  0  0
    7.3931    2.9749    0.0000 H   0  0  0  0  0  0  0  0  0  0  0  0
    6.7731    2.3549    0.0000 H   0  0  0  0  0  0  0  0  0  0  0  0
    4.2324    0.8788    0.0000 H   0  0  0  0  0  0  0  0  0  0  0  0
    3.4343    0.8942    0.0000 H   0  0  0  0  0  0  0  0  0  0  0  0
    5.6475   -2.3344    0.0000 H   0  0  0  0  0  0  0  0  0  0  0  0
    8.6219    2.8018    0.0000 H   0  0  0  0  0  0  0  0  0  0  0  0
    7.8414    3.2012    0.0000 H   0  0  0  0  0  0  0  0  0  0  0  0
    7.4420    2.4207    0.0000 H   0  0  0  0  0  0  0  0  0  0  0  0
    5.3787    0.8432    0.0000 H   0  0  0  0  0  0  0  0  0  0  0  0
    4.7635    1.4680    0.0000 H   0  0  0  0  0  0  0  0  0  0  0  0
    4.1388    0.8528    0.0000 H   0  0  0  0  0  0  0  0  0  0  0  0
    2.6718    0.4695    0.0000 H   0  0  0  0  0  0  0  0  0  0  0  0
    2.2647   -0.2172    0.0000 H   0  0  0  0  0  0  0  0  0  0  0  0
    9.7153    1.9929    0.0000 H   0  0  0  0  0  0  0  0  0  0  0  0
    2.7728   -2.3033    0.0000 H   0  0  0  0  0  0  0  0  0  0  0  0
    3.0030   -3.1494    0.0000 H   0  0  0  0  0  0  0  0  0  0  0  0
    3.8490   -2.9192    0.0000 H   0  0  0  0  0  0  0  0  0  0  0  0
    3.7752   -2.9194    0.0000 H   0  0  0  0  0  0  0  0  0  0  0  0
    4.6230   -3.1431    0.0000 H   0  0  0  0  0  0  0  0  0  0  0  0
    4.8466   -2.2953    0.0000 H   0  0  0  0  0  0  0  0  0  0  0  0
  7  1  1  1  0  0  0
  1 52  1  0  0  0  0
  2 22  2  0  0  0  0
  3  4  1  0  0  0  0
  3  7  1  0  0  0  0
  3  9  1  0  0  0  0
  3 15  1  1  0  0  0
  4  5  1  0  0  0  0
  4 11  1  0  0  0  0
  4 25  1  6  0  0  0
  5  6  1  0  0  0  0
  5 13  1  0  0  0  0
  5 26  1  1  0  0  0
  6  8  1  0  0  0  0
  6 10  1  0  0  0  0
  6 27  1  6  0  0  0
  7 12  1  0  0  0  0
  7 19  1  0  0  0  0
  8 14  1  0  0  0  0
  8 16  1  0  0  0  0
  8 20  1  1  0  0  0
  9 10  1  0  0  0  0
  9 28  1  0  0  0  0
  9 29  1  0  0  0  0
 10 30  1  0  0  0  0
 10 31  1  0  0  0  0
 11 12  1  0  0  0  0
 11 32  1  0  0  0  0
 11 33  1  0  0  0  0
 12 34  1  0  0  0  0
 12 35  1  0  0  0  0
 13 17  1  0  0  0  0
 13 36  1  0  0  0  0
 13 37  1  0  0  0  0
 14 17  2  0  0  0  0
 14 18  1  0  0  0  0
 15 38  1  0  0  0  0
 15 39  1  0  0  0  0
 15 40  1  0  0  0  0
 16 21  1  0  0  0  0
 16 41  1  0  0  0  0
 16 42  1  0  0  0  0
 17 43  1  0  0  0  0
 18 22  1  0  0  0  0
 18 23  1  0  0  0  0
 18 24  1  0  0  0  0
 19 44  1  0  0  0  0
 19 45  1  0  0  0  0
 19 46  1  0  0  0  0
 20 47  1  0  0  0  0
 20 48  1  0  0  0  0
 20 49  1  0  0  0  0
 21 22  1  0  0  0  0
 21 50  1  0  0  0  0
 21 51  1  0  0  0  0
 23 53  1  0  0  0  0
 23 54  1  0  0  0  0
 23 55  1  0  0  0  0
 24 56  1  0  0  0  0
 24 57  1  0  0  0  0
 24 58  1  0  0  0  0
M  END
> <PUBCHEM_COMPOUND_CID>
225742

> <PUBCHEM_COMPOUND_CANONICALIZED>
1

> <PUBCHEM_CACTVS_COMPLEXITY>
618

> <PUBCHEM_CACTVS_HBOND_ACCEPTOR>
2

> <PUBCHEM_CACTVS_HBOND_DONOR>
1

> <PUBCHEM_CACTVS_ROTATABLE_BOND>
0

> <PUBCHEM_CACTVS_SUBSKEYS>
AAADcfB4MAAAAAAAAAAAAAAAAAAAAYAAAAAwYIAAAAAAAGCAAAAAGgAACAAAD0SAgAACAAAAAgCIAqBSAAAAAAAgAAAACAEAAAgAABIAAAAAQAAEgAAIAAOIyPCPgAAAAAAAAACAAAQAACAAAYAADAAAAA==

> <PUBCHEM_IUPAC_OPENEYE_NAME>
(8R,9S,10R,13S,14S,17S)-17-hydroxy-4,4,10,13,17-pentamethyl-1,2,7,8,9,11,12,14,15,16-decahydrocyclopenta[a]phenanthren-3-one

> <PUBCHEM_IUPAC_CAS_NAME>
(8R,9S,10R,13S,14S,17S)-17-hydroxy-4,4,10,13,17-pentamethyl-1,2,7,8,9,11,12,14,15,16-decahydrocyclopenta[a]phenanthren-3-one

> <PUBCHEM_IUPAC_NAME>
(8R,9S,10R,13S,14S,17S)-17-hydroxy-4,4,10,13,17-pentamethyl-1,2,7,8,9,11,12,14,15,16-decahydrocyclopenta[a]phenanthren-3-one

> <PUBCHEM_IUPAC_SYSTEMATIC_NAME>
(8R,9S,10R,13S,14S,17S)-4,4,10,13,17-pentamethyl-17-oxidanyl-1,2,7,8,9,11,12,14,15,16-decahydrocyclopenta[a]phenanthren-3-one

> <PUBCHEM_IUPAC_TRADITIONAL_NAME>
(8R,9S,10R,13S,14S,17S)-17-hydroxy-4,4,10,13,17-pentamethyl-1,2,7,8,9,11,12,14,15,16-decahydrocyclopenta[a]phenanthren-3-one

> <PUBCHEM_IUPAC_INCHI>
InChI=1S/C22H34O2/c1-19(2)17-7-6-14-15(20(17,3)11-10-18(19)23)8-12-21(4)16(14)9-13-22(21,5)24/h7,14-16,24H,6,8-13H2,1-5H3/t14-,15+,16+,20-,21+,22+/m1/s1

> <PUBCHEM_IUPAC_INCHIKEY>
WSGNVOUHNLZNHQ-OFUYBIASSA-N

> <PUBCHEM_XLOGP3>
4

> <PUBCHEM_EXACT_MASS>
330.25588

> <PUBCHEM_MOLECULAR_FORMULA>
C22H34O2

> <PUBCHEM_MOLECULAR_WEIGHT>
330.50416

> <PUBCHEM_OPENEYE_CAN_SMILES>
CC1(C(=O)CCC2(C1=CCC3C2CCC4(C3CCC4(C)O)C)C)C

> <PUBCHEM_OPENEYE_ISO_SMILES>
C[C@]12CCC(=O)C(C1=CC[C@@H]3[C@@H]2CC[C@]4([C@H]3CC[C@]4(C)O)C)(C)C

> <PUBCHEM_CACTVS_TPSA>
37.3

> <PUBCHEM_MONOISOTOPIC_WEIGHT>
330.25588

> <PUBCHEM_TOTAL_CHARGE>
0

> <PUBCHEM_HEAVY_ATOM_COUNT>
24

> <PUBCHEM_ATOM_DEF_STEREO_COUNT>
6

> <PUBCHEM_ATOM_UDEF_STEREO_COUNT>
0

> <PUBCHEM_BOND_DEF_STEREO_COUNT>
0

> <PUBCHEM_BOND_UDEF_STEREO_COUNT>
0

> <PUBCHEM_ISOTOPIC_ATOM_COUNT>
0

> <PUBCHEM_COMPONENT_COUNT>
1

> <PUBCHEM_CACTVS_TAUTO_COUNT>
2

> <PUBCHEM_COORDINATE_TYPE>
1
5
255

> <PUBCHEM_BONDANNOTATIONS>
7  1  5
3  15  5
4  25  6
5  26  5
6  27  6
8  20  5

$$$$

