440810
  -OEChem-07051212503D

 19 19  0     0  0  0  0  0  0999 V2000
   -1.1984   -2.0898    0.0294 O   0  0  0  0  0  0  0  0  0  0  0  0
   -1.9964    2.0177   -0.0093 O   0  0  0  0  0  0  0  0  0  0  0  0
    1.8809    0.5548   -0.0126 N   0  0  0  0  0  0  0  0  0  0  0  0
   -2.8636   -0.1223    0.0089 N   0  0  0  0  0  0  0  0  0  0  0  0
   -0.5091    0.1902   -0.0071 C   0  0  0  0  0  0  0  0  0  0  0  0
    0.5635    0.9963   -0.0185 C   0  0  0  0  0  0  0  0  0  0  0  0
    2.1041   -0.8140   -0.0264 C   0  0  0  0  0  0  0  0  0  0  0  0
   -0.2745   -1.2841    0.0060 C   0  0  0  0  0  0  0  0  0  0  0  0
    1.1414   -1.7449   -0.0148 C   0  0  0  0  0  0  0  0  0  0  0  0
    2.9918    1.4989    0.0472 C   0  0  0  0  0  0  0  0  0  0  0  0
   -1.8398    0.7973   -0.0029 C   0  0  0  0  0  0  0  0  0  0  0  0
    0.4849    2.0784   -0.0183 H   0  0  0  0  0  0  0  0  0  0  0  0
    3.1510   -1.0971   -0.0317 H   0  0  0  0  0  0  0  0  0  0  0  0
    1.3532   -2.8062   -0.0168 H   0  0  0  0  0  0  0  0  0  0  0  0
    2.7624    2.4171   -0.5051 H   0  0  0  0  0  0  0  0  0  0  0  0
    3.9027    1.0771   -0.3925 H   0  0  0  0  0  0  0  0  0  0  0  0
    3.2028    1.7643    1.0885 H   0  0  0  0  0  0  0  0  0  0  0  0
   -3.8282    0.1936    0.0129 H   0  0  0  0  0  0  0  0  0  0  0  0
   -2.7363   -1.1273    0.0129 H   0  0  0  0  0  0  0  0  0  0  0  0
  1  8  2  0  0  0  0
  2 11  2  0  0  0  0
  3  6  1  0  0  0  0
  3  7  1  0  0  0  0
  3 10  1  0  0  0  0
  4 11  1  0  0  0  0
  4 18  1  0  0  0  0
  4 19  1  0  0  0  0
  5  6  2  0  0  0  0
  5  8  1  0  0  0  0
  5 11  1  0  0  0  0
  6 12  1  0  0  0  0
  7  9  2  0  0  0  0
  7 13  1  0  0  0  0
  8  9  1  0  0  0  0
  9 14  1  0  0  0  0
 10 15  1  0  0  0  0
 10 16  1  0  0  0  0
 10 17  1  0  0  0  0
M  END
> <PUBCHEM_COMPOUND_CID>
440810

> <PUBCHEM_CONFORMER_RMSD>
0.4

> <PUBCHEM_CONFORMER_DIVERSEORDER>
1
2
3
4

> <PUBCHEM_MMFF94_PARTIAL_CHARGES>
16
1 -0.57
10 0.37
11 0.62
12 0.15
13 0.15
14 0.15
18 0.37
19 0.37
2 -0.57
3 -0.57
4 -0.8
5 0.03
6 -0.05
7 -0.05
8 0.54
9 -0.14

> <PUBCHEM_EFFECTIVE_ROTOR_COUNT>
1

> <PUBCHEM_PHARMACOPHORE_FEATURES>
6
1 1 acceptor
1 2 acceptor
1 3 cation
1 4 donor
1 5 anion
6 3 5 6 7 8 9 rings

> <PUBCHEM_HEAVY_ATOM_COUNT>
11

> <PUBCHEM_ATOM_DEF_STEREO_COUNT>
0

> <PUBCHEM_ATOM_UDEF_STEREO_COUNT>
0

> <PUBCHEM_BOND_DEF_STEREO_COUNT>
0

> <PUBCHEM_BOND_UDEF_STEREO_COUNT>
0

> <PUBCHEM_ISOTOPIC_ATOM_COUNT>
0

> <PUBCHEM_COMPONENT_COUNT>
1

> <PUBCHEM_CACTVS_TAUTO_COUNT>
2

> <PUBCHEM_CONFORMER_ID>
0006B9EA00000001

> <PUBCHEM_MMFF94_ENERGY>
28.8357

> <PUBCHEM_FEATURE_SELFOVERLAP>
30.446

> <PUBCHEM_SHAPE_FINGERPRINT>
13380535 21 18337656538988041574
13380535 76 18410297982285082310
14325111 11 18410855494593700513
16945 1 18410854330578182190
193761 8 18410856559877621126
19973954 147 18266176317208666009
20871998 184 18045494218771127950
21040471 1 18410855481813988374
23235685 24 18410863122413361756
23552423 10 18268147737246262471
241688 4 16967447673820702570
2748010 2 18340203119360338789
5084963 1 18114748260100590283
6333449 129 18191871123892941160

> <PUBCHEM_SHAPE_MULTIPOLES>
204.67
3.74
2.15
0.58
0.23
0.33
0
-1.51
-0.03
-0.03
-0.01
0.04
0
0.03

> <PUBCHEM_SHAPE_SELFOVERLAP>
425.321

> <PUBCHEM_SHAPE_VOLUME>
116.3

> <PUBCHEM_COORDINATE_TYPE>
2
5
10

$$$$

