51090981
  -OEChem-06241223013D

 45 46  0     1  0  0  0  0  0999 V2000
   -1.5694   -2.0722   -0.0295 O   0  0  0  0  0  0  0  0  0  0  0  0
    1.1794   -2.4505    1.4824 O   0  0  0  0  0  0  0  0  0  0  0  0
    2.0169    1.8196    0.2925 N   0  0  0  0  0  0  0  0  0  0  0  0
    2.3026   -2.5689   -0.5484 N   0  0  0  0  0  0  0  0  0  0  0  0
    2.9023    2.6427    0.8799 N   0  0  0  0  0  0  0  0  0  0  0  0
    3.2769   -0.2792   -0.4470 C   0  0  1  0  0  0  0  0  0  0  0  0
    2.1689    0.3250    0.4420 C   0  0  0  0  0  0  0  0  0  0  0  0
    3.4467   -1.7833   -0.1742 C   0  0  0  0  0  0  0  0  0  0  0  0
    3.0228   -0.0171   -1.9361 C   0  0  0  0  0  0  0  0  0  0  0  0
    1.2504   -2.8414    0.3205 C   0  0  0  0  0  0  0  0  0  0  0  0
    0.1777   -3.6913   -0.3420 C   0  0  0  0  0  0  0  0  0  0  0  0
    1.0389    2.4680   -0.4028 C   0  0  0  0  0  0  0  0  0  0  0  0
   -1.2144   -3.4277    0.2112 C   0  0  0  0  0  0  0  0  0  0  0  0
    1.3023    3.8084   -0.2600 C   0  0  0  0  0  0  0  0  0  0  0  0
    2.4605    3.8563    0.5388 C   0  0  0  0  0  0  0  0  0  0  0  0
   -2.8697   -1.7786    0.4628 C   0  0  0  0  0  0  0  0  0  0  0  0
   -3.1870   -0.3394    0.1807 C   0  0  0  0  0  0  0  0  0  0  0  0
   -2.8604    0.6431    1.1153 C   0  0  0  0  0  0  0  0  0  0  0  0
   -3.8087    0.0158   -1.0163 C   0  0  0  0  0  0  0  0  0  0  0  0
   -3.1556    1.9810    0.8530 C   0  0  0  0  0  0  0  0  0  0  0  0
   -4.1039    1.3535   -1.2786 C   0  0  0  0  0  0  0  0  0  0  0  0
   -3.7773    2.3361   -0.3440 C   0  0  0  0  0  0  0  0  0  0  0  0
    4.2258    0.2087   -0.1873 H   0  0  0  0  0  0  0  0  0  0  0  0
    1.1798   -0.0780    0.2001 H   0  0  0  0  0  0  0  0  0  0  0  0
    2.3687    0.1644    1.5075 H   0  0  0  0  0  0  0  0  0  0  0  0
    3.6609   -1.9477    0.8882 H   0  0  0  0  0  0  0  0  0  0  0  0
    4.2990   -2.1713   -0.7433 H   0  0  0  0  0  0  0  0  0  0  0  0
    3.0822    1.0519   -2.1640 H   0  0  0  0  0  0  0  0  0  0  0  0
    3.7749   -0.5212   -2.5524 H   0  0  0  0  0  0  0  0  0  0  0  0
    2.0347   -0.3734   -2.2456 H   0  0  0  0  0  0  0  0  0  0  0  0
    2.2760   -2.9389   -1.4940 H   0  0  0  0  0  0  0  0  0  0  0  0
    0.4485   -4.7428   -0.1976 H   0  0  0  0  0  0  0  0  0  0  0  0
    0.1737   -3.4847   -1.4190 H   0  0  0  0  0  0  0  0  0  0  0  0
    0.2569    1.9370   -0.9279 H   0  0  0  0  0  0  0  0  0  0  0  0
   -1.2391   -3.6269    1.2891 H   0  0  0  0  0  0  0  0  0  0  0  0
   -1.9338   -4.0893   -0.2848 H   0  0  0  0  0  0  0  0  0  0  0  0
    0.7373    4.6301   -0.6745 H   0  0  0  0  0  0  0  0  0  0  0  0
    3.0009    4.7249    0.8865 H   0  0  0  0  0  0  0  0  0  0  0  0
   -3.6104   -2.4291   -0.0189 H   0  0  0  0  0  0  0  0  0  0  0  0
   -2.9150   -1.9693    1.5424 H   0  0  0  0  0  0  0  0  0  0  0  0
   -2.3728    0.3792    2.0501 H   0  0  0  0  0  0  0  0  0  0  0  0
   -4.0660   -0.7403   -1.7532 H   0  0  0  0  0  0  0  0  0  0  0  0
   -2.8997    2.7463    1.5799 H   0  0  0  0  0  0  0  0  0  0  0  0
   -4.5874    1.6303   -2.2110 H   0  0  0  0  0  0  0  0  0  0  0  0
   -4.0064    3.3779   -0.5487 H   0  0  0  0  0  0  0  0  0  0  0  0
  1 13  1  0  0  0  0
  1 16  1  0  0  0  0
  2 10  2  0  0  0  0
  3  5  1  0  0  0  0
  3  7  1  0  0  0  0
  3 12  1  0  0  0  0
  4  8  1  0  0  0  0
  4 10  1  0  0  0  0
  4 31  1  0  0  0  0
  5 15  2  0  0  0  0
  6  7  1  0  0  0  0
  6  8  1  0  0  0  0
  6  9  1  0  0  0  0
  6 23  1  0  0  0  0
  7 24  1  0  0  0  0
  7 25  1  0  0  0  0
  8 26  1  0  0  0  0
  8 27  1  0  0  0  0
  9 28  1  0  0  0  0
  9 29  1  0  0  0  0
  9 30  1  0  0  0  0
 10 11  1  0  0  0  0
 11 13  1  0  0  0  0
 11 32  1  0  0  0  0
 11 33  1  0  0  0  0
 12 14  2  0  0  0  0
 12 34  1  0  0  0  0
 13 35  1  0  0  0  0
 13 36  1  0  0  0  0
 14 15  1  0  0  0  0
 14 37  1  0  0  0  0
 15 38  1  0  0  0  0
 16 17  1  0  0  0  0
 16 39  1  0  0  0  0
 16 40  1  0  0  0  0
 17 18  2  0  0  0  0
 17 19  1  0  0  0  0
 18 20  1  0  0  0  0
 18 41  1  0  0  0  0
 19 21  2  0  0  0  0
 19 42  1  0  0  0  0
 20 22  2  0  0  0  0
 20 43  1  0  0  0  0
 21 22  1  0  0  0  0
 21 44  1  0  0  0  0
 22 45  1  0  0  0  0
M  END
> <PUBCHEM_COMPOUND_CID>
51090981

> <PUBCHEM_CONFORMER_RMSD>
1.2

> <PUBCHEM_CONFORMER_DIVERSEORDER>
1
68
73
24
26
81
114
122
66
30
87
23
44
35
13
22
107
118
96
79
64
121
14
41
120
100
72
62
17
20
63
47
48
3
56
104
77
71
83
52
58
112
111
53
116
92
42
19
85
49
54
60
101
6
40
97
99
95
8
119
57
43
29
117
80
113
2
109
34
28
75
103
39
31
93
70
61
32
25
82
51
5
89
50
16
76
7
4
36
67
15
94
11
18
90
55
88
86
108
9
38
115
21
12
106
102
65
45
69
46
84
59
10
37
78
91
98
27
33
105
110
74

> <PUBCHEM_MMFF94_PARTIAL_CHARGES>
29
1 -0.56
10 0.57
11 0.06
12 -0.3
13 0.28
14 -0.15
15 0.14
16 0.42
17 -0.14
18 -0.15
19 -0.15
2 -0.57
20 -0.15
21 -0.15
22 -0.15
3 0.31
31 0.37
34 0.15
37 0.15
38 0.15
4 -0.73
41 0.15
42 0.15
43 0.15
44 0.15
45 0.15
5 -0.71
7 0.26
8 0.3

> <PUBCHEM_EFFECTIVE_ROTOR_COUNT>
10

> <PUBCHEM_PHARMACOPHORE_FEATURES>
7
1 1 acceptor
1 2 acceptor
1 4 donor
1 5 acceptor
1 9 hydrophobe
5 3 5 12 14 15 rings
6 17 18 19 20 21 22 rings

> <PUBCHEM_HEAVY_ATOM_COUNT>
22

> <PUBCHEM_ATOM_DEF_STEREO_COUNT>
0

> <PUBCHEM_ATOM_UDEF_STEREO_COUNT>
1

> <PUBCHEM_BOND_DEF_STEREO_COUNT>
0

> <PUBCHEM_BOND_UDEF_STEREO_COUNT>
0

> <PUBCHEM_ISOTOPIC_ATOM_COUNT>
0

> <PUBCHEM_COMPONENT_COUNT>
1

> <PUBCHEM_CACTVS_TAUTO_COUNT>
2

> <PUBCHEM_CONFORMER_ID>
030B962500000001

> <PUBCHEM_MMFF94_ENERGY>
32.8832

> <PUBCHEM_FEATURE_SELFOVERLAP>
35.52

> <PUBCHEM_SHAPE_FINGERPRINT>
10670039 82 17403728957442980020
11221954 11 18049435942535164406
11370993 70 18266752281018664681
12038231 1 18410572907225670033
12539773 59 17532096166949418241
12553582 1 18194113251345518888
12788726 201 17547288268996300722
12978246 48 18339365145465726521
13122387 1 18410571751895278689
13773456 30 18195267554235574085
14466204 15 18411987936395248266
17093844 170 18194128640540290712
19930381 70 18411705396255948873
20567600 299 18264778838019323157
20621476 13 18339086011193548269
21860390 5 18117841229191249743
22113638 7 18336836410440223671
22749437 52 18338242561394961777
238 59 18410573972488323035
3014063 31 17546449341666616133
463206 1 18122902289935146593
5939293 188 18338241586400826114

> <PUBCHEM_SHAPE_MULTIPOLES>
426.07
7.68
5.78
1.19
4.67
0.44
0.24
2.7
1.43
-3.11
-0.77
0
0.12
0.69

> <PUBCHEM_SHAPE_SELFOVERLAP>
870.15

> <PUBCHEM_SHAPE_VOLUME>
245.8

> <PUBCHEM_COORDINATE_TYPE>
2
5
10

$$$$

