161158
  -OEChem-07051212512D

 25 25  0     1  0  0  0  0  0999 V2000
    4.5981   -2.1550    0.0000 O   0  0  0  0  0  0  0  0  0  0  0  0
    6.3301    2.8450    0.0000 O   0  0  0  0  0  0  0  0  0  0  0  0
    4.5981    2.8450    0.0000 O   0  0  0  0  0  0  0  0  0  0  0  0
    6.3301   -2.1550    0.0000 O   0  0  0  0  0  0  0  0  0  0  0  0
    2.8660   -3.1550    0.0000 O   0  0  0  0  0  0  0  0  0  0  0  0
    2.0000   -1.6550    0.0000 O   0  0  0  0  0  0  0  0  0  0  0  0
    6.3301    0.8450    0.0000 N   0  0  0  0  0  0  0  0  0  0  0  0
    4.5981    0.8450    0.0000 C   0  0  0  0  0  0  0  0  0  0  0  0
    5.4641    1.3450    0.0000 C   0  0  1  0  0  0  0  0  0  0  0  0
    4.5981   -0.1550    0.0000 C   0  0  0  0  0  0  0  0  0  0  0  0
    3.7320   -0.6550    0.0000 C   0  0  0  0  0  0  0  0  0  0  0  0
    5.4641   -0.6550    0.0000 C   0  0  0  0  0  0  0  0  0  0  0  0
    5.4641    2.3450    0.0000 C   0  0  0  0  0  0  0  0  0  0  0  0
    3.7320   -1.6550    0.0000 C   0  0  0  0  0  0  0  0  0  0  0  0
    5.4641   -1.6550    0.0000 C   0  0  0  0  0  0  0  0  0  0  0  0
    2.8660   -2.1550    0.0000 C   0  0  0  0  0  0  0  0  0  0  0  0
    4.3860    1.4276    0.0000 H   0  0  0  0  0  0  0  0  0  0  0  0
    3.9875    0.7373    0.0000 H   0  0  0  0  0  0  0  0  0  0  0  0
    5.4641    0.7250    0.0000 H   0  0  0  0  0  0  0  0  0  0  0  0
    3.1951   -0.3450    0.0000 H   0  0  0  0  0  0  0  0  0  0  0  0
    6.0010   -0.3450    0.0000 H   0  0  0  0  0  0  0  0  0  0  0  0
    6.8671    1.1550    0.0000 H   0  0  0  0  0  0  0  0  0  0  0  0
    6.3301    0.2250    0.0000 H   0  0  0  0  0  0  0  0  0  0  0  0
    6.3301    3.4650    0.0000 H   0  0  0  0  0  0  0  0  0  0  0  0
    2.3291   -3.4650    0.0000 H   0  0  0  0  0  0  0  0  0  0  0  0
  1 14  1  0  0  0  0
  1 15  1  0  0  0  0
  2 13  1  0  0  0  0
  2 24  1  0  0  0  0
  3 13  2  0  0  0  0
  4 15  2  0  0  0  0
  5 16  1  0  0  0  0
  5 25  1  0  0  0  0
  6 16  2  0  0  0  0
  9  7  1  1  0  0  0
  7 22  1  0  0  0  0
  7 23  1  0  0  0  0
  8  9  1  0  0  0  0
  8 10  1  0  0  0  0
  8 17  1  0  0  0  0
  8 18  1  0  0  0  0
  9 13  1  0  0  0  0
  9 19  1  0  0  0  0
 10 11  1  0  0  0  0
 10 12  2  0  0  0  0
 11 14  2  0  0  0  0
 11 20  1  0  0  0  0
 12 15  1  0  0  0  0
 12 21  1  0  0  0  0
 14 16  1  0  0  0  0
M  END
> <PUBCHEM_COMPOUND_CID>
161158

> <PUBCHEM_COMPOUND_CANONICALIZED>
1

> <PUBCHEM_CACTVS_COMPLEXITY>
408

> <PUBCHEM_CACTVS_HBOND_ACCEPTOR>
7

> <PUBCHEM_CACTVS_HBOND_DONOR>
3

> <PUBCHEM_CACTVS_ROTATABLE_BOND>
4

> <PUBCHEM_CACTVS_SUBSKEYS>
AAADccByOAAAAAAAAAAAAAAAAAAAAAAAAAAgAAAAAAAAAAAAAAAAHgAQCAAADCzBgAQACABABgCIAiDSCAIACAAgIAAACIHAAEgLBBIAoQQCUAAEkAALsYKIAAAAAAAAAAAAAAAAAAAAAAAAAAAAAAAAAA==

> <PUBCHEM_IUPAC_OPENEYE_NAME>
4-[(2S)-2-amino-2-carboxy-ethyl]-6-oxo-pyran-2-carboxylic acid

> <PUBCHEM_IUPAC_CAS_NAME>
4-[(2S)-2-amino-2-carboxyethyl]-6-oxo-2-pyrancarboxylic acid

> <PUBCHEM_IUPAC_NAME>
4-[(2S)-2-amino-2-carboxyethyl]-6-oxopyran-2-carboxylic acid

> <PUBCHEM_IUPAC_SYSTEMATIC_NAME>
4-[(2S)-2-azanyl-3-oxidanyl-3-oxidanylidene-propyl]-6-oxidanylidene-pyran-2-carboxylic acid

> <PUBCHEM_IUPAC_TRADITIONAL_NAME>
4-[(2S)-2-amino-2-carboxy-ethyl]-6-keto-pyran-2-carboxylic acid

> <PUBCHEM_IUPAC_INCHI>
InChI=1S/C9H9NO6/c10-5(8(12)13)1-4-2-6(9(14)15)16-7(11)3-4/h2-3,5H,1,10H2,(H,12,13)(H,14,15)/t5-/m0/s1

> <PUBCHEM_IUPAC_INCHIKEY>
KQZBVNZAEQASKU-YFKPBYRVSA-N

> <PUBCHEM_XLOGP3_AA>
-3.3

> <PUBCHEM_EXACT_MASS>
227.042987

> <PUBCHEM_MOLECULAR_FORMULA>
C9H9NO6

> <PUBCHEM_MOLECULAR_WEIGHT>
227.17086

> <PUBCHEM_OPENEYE_CAN_SMILES>
C1=C(C=C(OC1=O)C(=O)O)CC(C(=O)O)N

> <PUBCHEM_OPENEYE_ISO_SMILES>
C1=C(C=C(OC1=O)C(=O)O)C[C@@H](C(=O)O)N

> <PUBCHEM_CACTVS_TPSA>
127

> <PUBCHEM_MONOISOTOPIC_WEIGHT>
227.042987

> <PUBCHEM_TOTAL_CHARGE>
0

> <PUBCHEM_HEAVY_ATOM_COUNT>
16

> <PUBCHEM_ATOM_DEF_STEREO_COUNT>
1

> <PUBCHEM_ATOM_UDEF_STEREO_COUNT>
0

> <PUBCHEM_BOND_DEF_STEREO_COUNT>
0

> <PUBCHEM_BOND_UDEF_STEREO_COUNT>
0

> <PUBCHEM_ISOTOPIC_ATOM_COUNT>
0

> <PUBCHEM_COMPONENT_COUNT>
1

> <PUBCHEM_CACTVS_TAUTO_COUNT>
1

> <PUBCHEM_COORDINATE_TYPE>
1
5
255

> <PUBCHEM_BONDANNOTATIONS>
1  14  8
1  15  8
10  11  8
10  12  8
11  14  8
12  15  8
9  7  5

$$$$

