86211
  -OEChem-07051213123D

 47 49  0     1  0  0  0  0  0999 V2000
   -6.5330   -0.0925   -0.3421 Cl  0  0  0  0  0  0  0  0  0  0  0  0
    1.7639    0.1097    1.6071 O   0  0  0  0  0  0  0  0  0  0  0  0
    1.7174    2.1427   -0.4307 N   0  0  0  0  0  0  0  0  0  0  0  0
    0.7308    2.5131   -1.2487 N   0  0  0  0  0  0  0  0  0  0  0  0
    1.2080    4.1199    0.3080 N   0  0  0  0  0  0  0  0  0  0  0  0
    1.6537   -0.2446    0.2343 C   0  0  1  0  0  0  0  0  0  0  0  0
    2.2257   -1.6576    0.0164 C   0  0  1  0  0  0  0  0  0  0  0  0
    0.1806   -0.4153   -0.2016 C   0  0  1  0  0  0  0  0  0  0  0  0
    1.5715   -2.1345   -1.2841 C   0  0  0  0  0  0  0  0  0  0  0  0
    0.2688   -1.3393   -1.4259 C   0  0  0  0  0  0  0  0  0  0  0  0
    3.7454   -1.7632   -0.0110 C   0  0  0  0  0  0  0  0  0  0  0  0
    2.3543    0.8437   -0.5890 C   0  0  0  0  0  0  0  0  0  0  0  0
   -0.7285   -1.0172    0.8748 C   0  0  0  0  0  0  0  0  0  0  0  0
    4.3405   -1.2426    1.2942 C   0  0  0  0  0  0  0  0  0  0  0  0
    4.1762   -3.2054   -0.2626 C   0  0  0  0  0  0  0  0  0  0  0  0
   -2.1838   -0.7847    0.5688 C   0  0  0  0  0  0  0  0  0  0  0  0
    2.0017    3.0900    0.4898 C   0  0  0  0  0  0  0  0  0  0  0  0
   -2.8081    0.3604    1.0437 C   0  0  0  0  0  0  0  0  0  0  0  0
   -2.8822   -1.7194   -0.1833 C   0  0  0  0  0  0  0  0  0  0  0  0
   -4.1570    0.5752    0.7612 C   0  0  0  0  0  0  0  0  0  0  0  0
   -4.2312   -1.5047   -0.4660 C   0  0  0  0  0  0  0  0  0  0  0  0
    0.4540    3.7236   -0.7593 C   0  0  0  0  0  0  0  0  0  0  0  0
   -4.8687   -0.3572    0.0062 C   0  0  0  0  0  0  0  0  0  0  0  0
    1.8639   -2.3005    0.8334 H   0  0  0  0  0  0  0  0  0  0  0  0
   -0.2824    0.5257   -0.4971 H   0  0  0  0  0  0  0  0  0  0  0  0
    1.3679   -3.2105   -1.2491 H   0  0  0  0  0  0  0  0  0  0  0  0
    2.2076   -1.9480   -2.1574 H   0  0  0  0  0  0  0  0  0  0  0  0
    0.3258   -0.7304   -2.3372 H   0  0  0  0  0  0  0  0  0  0  0  0
   -0.5789   -2.0109   -1.5615 H   0  0  0  0  0  0  0  0  0  0  0  0
    4.1540   -1.1628   -0.8332 H   0  0  0  0  0  0  0  0  0  0  0  0
    2.3661    0.6187   -1.6616 H   0  0  0  0  0  0  0  0  0  0  0  0
    3.3918    0.9940   -0.2740 H   0  0  0  0  0  0  0  0  0  0  0  0
   -0.5281   -0.5758    1.8582 H   0  0  0  0  0  0  0  0  0  0  0  0
   -0.5435   -2.0919    0.9998 H   0  0  0  0  0  0  0  0  0  0  0  0
    1.1802    0.8673    1.7785 H   0  0  0  0  0  0  0  0  0  0  0  0
    3.8935   -1.7371    2.1637 H   0  0  0  0  0  0  0  0  0  0  0  0
    5.4181   -1.4408    1.3258 H   0  0  0  0  0  0  0  0  0  0  0  0
    4.2271   -0.1631    1.4143 H   0  0  0  0  0  0  0  0  0  0  0  0
    3.7713   -3.8815    0.4984 H   0  0  0  0  0  0  0  0  0  0  0  0
    5.2681   -3.2922   -0.2373 H   0  0  0  0  0  0  0  0  0  0  0  0
    3.8505   -3.5630   -1.2443 H   0  0  0  0  0  0  0  0  0  0  0  0
    2.7665    2.9930    1.2474 H   0  0  0  0  0  0  0  0  0  0  0  0
   -2.2623    1.0946    1.6297 H   0  0  0  0  0  0  0  0  0  0  0  0
   -2.4116   -2.6320   -0.5358 H   0  0  0  0  0  0  0  0  0  0  0  0
   -4.6404    1.4741    1.1350 H   0  0  0  0  0  0  0  0  0  0  0  0
   -4.7748   -2.2430   -1.0502 H   0  0  0  0  0  0  0  0  0  0  0  0
   -0.3226    4.3356   -1.1933 H   0  0  0  0  0  0  0  0  0  0  0  0
  1 23  1  0  0  0  0
  2  6  1  0  0  0  0
  2 35  1  0  0  0  0
  3  4  1  0  0  0  0
  3 12  1  0  0  0  0
  3 17  1  0  0  0  0
  4 22  2  0  0  0  0
  5 17  2  0  0  0  0
  5 22  1  0  0  0  0
  6  7  1  0  0  0  0
  6  8  1  0  0  0  0
  6 12  1  0  0  0  0
  7  9  1  0  0  0  0
  7 11  1  0  0  0  0
  7 24  1  0  0  0  0
  8 10  1  0  0  0  0
  8 13  1  0  0  0  0
  8 25  1  0  0  0  0
  9 10  1  0  0  0  0
  9 26  1  0  0  0  0
  9 27  1  0  0  0  0
 10 28  1  0  0  0  0
 10 29  1  0  0  0  0
 11 14  1  0  0  0  0
 11 15  1  0  0  0  0
 11 30  1  0  0  0  0
 12 31  1  0  0  0  0
 12 32  1  0  0  0  0
 13 16  1  0  0  0  0
 13 33  1  0  0  0  0
 13 34  1  0  0  0  0
 14 36  1  0  0  0  0
 14 37  1  0  0  0  0
 14 38  1  0  0  0  0
 15 39  1  0  0  0  0
 15 40  1  0  0  0  0
 15 41  1  0  0  0  0
 16 18  2  0  0  0  0
 16 19  1  0  0  0  0
 17 42  1  0  0  0  0
 18 20  1  0  0  0  0
 18 43  1  0  0  0  0
 19 21  2  0  0  0  0
 19 44  1  0  0  0  0
 20 23  2  0  0  0  0
 20 45  1  0  0  0  0
 21 23  1  0  0  0  0
 21 46  1  0  0  0  0
 22 47  1  0  0  0  0
M  END
> <PUBCHEM_COMPOUND_CID>
86211

> <PUBCHEM_CONFORMER_RMSD>
0.8

> <PUBCHEM_CONFORMER_DIVERSEORDER>
1
32
38
60
41
36
49
35
43
65
45
9
55
8
13
73
48
33
23
21
66
72
14
69
68
71
46
54
20
4
56
59
58
25
42
47
28
61
53
6
62
52
67
34
63
3
57
30
40
12
27
70
31
24
64
19
16
29
50
44
18
5
39
15
26
37
10
22
11
2
51
17
7

> <PUBCHEM_MMFF94_PARTIAL_CHARGES>
23
1 -0.18
12 0.26
13 0.14
16 -0.14
17 0.04
18 -0.15
19 -0.15
2 -0.68
20 -0.15
21 -0.15
22 0.37
23 0.18
3 0.31
35 0.4
4 -0.71
42 0.15
43 0.15
44 0.15
45 0.15
46 0.15
47 0.15
5 -0.57
6 0.28

> <PUBCHEM_EFFECTIVE_ROTOR_COUNT>
6

> <PUBCHEM_PHARMACOPHORE_FEATURES>
8
1 2 acceptor
1 2 donor
3 11 14 15 hydrophobe
3 3 5 17 cation
3 4 5 22 cation
5 3 4 5 17 22 rings
5 6 7 8 9 10 rings
6 16 18 19 20 21 23 rings

> <PUBCHEM_HEAVY_ATOM_COUNT>
23

> <PUBCHEM_ATOM_DEF_STEREO_COUNT>
0

> <PUBCHEM_ATOM_UDEF_STEREO_COUNT>
3

> <PUBCHEM_BOND_DEF_STEREO_COUNT>
0

> <PUBCHEM_BOND_UDEF_STEREO_COUNT>
0

> <PUBCHEM_ISOTOPIC_ATOM_COUNT>
0

> <PUBCHEM_COMPONENT_COUNT>
1

> <PUBCHEM_CACTVS_TAUTO_COUNT>
1

> <PUBCHEM_CONFORMER_ID>
000150C300000001

> <PUBCHEM_MMFF94_ENERGY>
63.1969

> <PUBCHEM_FEATURE_SELFOVERLAP>
43.36

> <PUBCHEM_SHAPE_FINGERPRINT>
10937287 8 17617941327082431669
11405975 8 18411695462023266219
11475781 23 13985211294332349683
116883 192 18194392531920742086
12166972 35 18259705614449555499
12293681 25 16887232773104911142
12516196 113 18341049705002379674
12633257 1 17559131881685685097
12788726 201 18056471979793095578
13004483 165 18195256730791342130
13009979 54 17969203668169595867
13134695 92 18413386536048315796
13583140 156 18131345311572581075
138480 1 18410853252620999380
13899415 180 18340496667453364279
13965767 371 17978256883857498472
14178000 15 18410008857850317792
14790565 3 18052531081043243796
14863182 85 16515675671723419367
15420108 30 17974305226788387712
1601671 61 18408600340937869964
17349148 13 18040435520828623739
17357779 13 18193008229253590260
17492 89 18338796685523828099
17844677 252 18412255130974717859
17980427 23 17967249827807434417
1813 80 18336538434394399222
18222031 100 18336260245168033094
18335252 114 18340779243007241821
18681886 176 18113899299869934758
192875 21 18334574659577366083
20715895 44 18334860576146625817
20739085 24 18335425660223955286
21033648 29 17203061703247091245
21041028 32 18339928220258198244
2132832 1 18187364363591965865
21478907 32 18053102014950042834
21524375 3 17613422360135402916
21641784 216 17843377804530058886
21860390 5 18410569557267068413
22289505 5 18343019991020813333
23402539 116 18263648544608999367
23419403 2 17752230489283947792
23558518 356 18050863112691513234
23559900 14 18409168784012466963
283562 15 18055348304595052578
3060560 45 18188196616273128942
345986 75 17486514842741201210
4409770 3 17765437938556834828
474 4 18268991977930741657
5104073 3 18340478964500218283
5895379 119 17968922219342912641
7164475 11 18053935436648677342
7364860 26 18338231557630811608
81228 2 17766255941190910146
9709674 26 18269269076415418779
9777508 108 17543916058539558408
9971528 1 18408888459812490154
9981440 41 17690566281988935169

> <PUBCHEM_SHAPE_MULTIPOLES>
454.39
9.8
4.08
1.19
13.88
5.17
-0.03
-5.79
-0.87
-4.64
0.88
-0.4
-0.06
-0.24

> <PUBCHEM_SHAPE_SELFOVERLAP>
955.934

> <PUBCHEM_SHAPE_VOLUME>
260.1

> <PUBCHEM_COORDINATE_TYPE>
2
5
10

$$$$

