75049
  -OEChem-07051212453D

 11 10  0     0  0  0  0  0  0999 V2000
   -1.4269   -0.8542   -0.3166 O   0  0  0  0  0  0  0  0  0  0  0  0
    1.3790   -0.8579    0.2134 O   0  0  0  0  0  0  0  0  0  0  0  0
   -0.0256    1.0897   -0.1634 C   0  0  0  0  0  0  0  0  0  0  0  0
   -1.1890    0.3237    0.4433 C   0  0  0  0  0  0  0  0  0  0  0  0
    1.2625    0.2987   -0.1767 C   0  0  0  0  0  0  0  0  0  0  0  0
   -0.2441    1.3530   -1.2041 H   0  0  0  0  0  0  0  0  0  0  0  0
    0.1527    2.0108    0.4002 H   0  0  0  0  0  0  0  0  0  0  0  0
   -0.9701    0.0227    1.4725 H   0  0  0  0  0  0  0  0  0  0  0  0
   -2.1000    0.9298    0.4452 H   0  0  0  0  0  0  0  0  0  0  0  0
    2.1340    0.8399   -0.5841 H   0  0  0  0  0  0  0  0  0  0  0  0
   -1.6449   -0.5791   -1.2235 H   0  0  0  0  0  0  0  0  0  0  0  0
  1  4  1  0  0  0  0
  1 11  1  0  0  0  0
  2  5  2  0  0  0  0
  3  4  1  0  0  0  0
  3  5  1  0  0  0  0
  3  6  1  0  0  0  0
  3  7  1  0  0  0  0
  4  8  1  0  0  0  0
  4  9  1  0  0  0  0
  5 10  1  0  0  0  0
M  END
> <PUBCHEM_COMPOUND_CID>
75049

> <PUBCHEM_CONFORMER_RMSD>
0.4

> <PUBCHEM_CONFORMER_DIVERSEORDER>
1
5
2
6
4
3

> <PUBCHEM_MMFF94_PARTIAL_CHARGES>
7
1 -0.68
10 0.06
11 0.4
2 -0.57
3 0.06
4 0.28
5 0.45

> <PUBCHEM_EFFECTIVE_ROTOR_COUNT>
2

> <PUBCHEM_PHARMACOPHORE_FEATURES>
3
1 1 acceptor
1 1 donor
1 2 acceptor

> <PUBCHEM_HEAVY_ATOM_COUNT>
5

> <PUBCHEM_ATOM_DEF_STEREO_COUNT>
0

> <PUBCHEM_ATOM_UDEF_STEREO_COUNT>
0

> <PUBCHEM_BOND_DEF_STEREO_COUNT>
0

> <PUBCHEM_BOND_UDEF_STEREO_COUNT>
0

> <PUBCHEM_ISOTOPIC_ATOM_COUNT>
0

> <PUBCHEM_COMPONENT_COUNT>
1

> <PUBCHEM_CACTVS_TAUTO_COUNT>
2

> <PUBCHEM_CONFORMER_ID>
0001252900000001

> <PUBCHEM_MMFF94_ENERGY>
0.9774

> <PUBCHEM_FEATURE_SELFOVERLAP>
15.226

> <PUBCHEM_SHAPE_FINGERPRINT>
139733 1 8935000369164005513
16714656 1 18049421927903559190
20096714 4 18337941333663333136
21015797 1 9150911437498517472
29004967 10 17988914535869398729
5943 1 15030407742326044321

> <PUBCHEM_SHAPE_MULTIPOLES>
91.16
1.89
1.11
0.66
0.02
0.04
0.01
-0.43
0.03
-0.01
-0.05
-0.06
0.02
-0.17

> <PUBCHEM_SHAPE_SELFOVERLAP>
157.604

> <PUBCHEM_SHAPE_VOLUME>
60.1

> <PUBCHEM_COORDINATE_TYPE>
2
5
10

$$$$

