13949
  -OEChem-06241222413D

 31 32  0     0  0  0  0  0  0999 V2000
   -3.6985   -0.7850   -0.0008 O   0  0  0  0  0  0  0  0  0  0  0  0
    3.8115    2.6838    0.0011 O   0  0  0  0  0  0  0  0  0  0  0  0
    5.5288   -1.6119    0.0022 O   0  0  0  0  0  0  0  0  0  0  0  0
   -7.0259    0.2907    0.0033 O   0  5  0  0  0  0  0  0  0  0  0  0
   -6.1425   -1.7190    0.0004 O   0  0  0  0  0  0  0  0  0  0  0  0
    0.9159   -0.9652   -0.0023 N   0  0  0  0  0  0  0  0  0  0  0  0
   -0.1529   -0.1450   -0.0020 N   0  0  0  0  0  0  0  0  0  0  0  0
    3.2322   -1.3311   -0.0010 N   0  0  0  0  0  0  0  0  0  0  0  0
    2.3415    0.8970   -0.0017 N   0  0  0  0  0  0  0  0  0  0  0  0
   -6.0058   -0.4599    0.0014 N   0  3  0  0  0  0  0  0  0  0  0  0
    4.7163    0.5543   -0.0003 N   0  0  0  0  0  0  0  0  0  0  0  0
   -2.5538   -0.0525   -0.0014 C   0  0  0  0  0  0  0  0  0  0  0  0
   -2.8411    1.2926   -0.0005 C   0  0  0  0  0  0  0  0  0  0  0  0
   -4.7277    0.1020    0.0001 C   0  0  0  0  0  0  0  0  0  0  0  0
   -4.2529    1.3930    0.0004 C   0  0  0  0  0  0  0  0  0  0  0  0
   -1.3144   -0.7517   -0.0025 C   0  0  0  0  0  0  0  0  0  0  0  0
    2.2191   -0.4440   -0.0017 C   0  0  0  0  0  0  0  0  0  0  0  0
    3.6150    1.3225   -0.0011 C   0  0  0  0  0  0  0  0  0  0  0  0
    4.4481   -0.7614   -0.0005 C   0  0  0  0  0  0  0  0  0  0  0  0
    2.6448    3.4938    0.0026 C   0  0  0  0  0  0  0  0  0  0  0  0
    5.2422   -3.0031    0.0041 C   0  0  0  0  0  0  0  0  0  0  0  0
   -2.1278    2.1047   -0.0006 H   0  0  0  0  0  0  0  0  0  0  0  0
   -4.8444    2.2977    0.0013 H   0  0  0  0  0  0  0  0  0  0  0  0
   -1.3663   -1.8563   -0.0032 H   0  0  0  0  0  0  0  0  0  0  0  0
    0.8118   -1.9730   -0.0019 H   0  0  0  0  0  0  0  0  0  0  0  0
    2.0468    3.3252   -0.8994 H   0  0  0  0  0  0  0  0  0  0  0  0
    2.0470    3.3222    0.9041 H   0  0  0  0  0  0  0  0  0  0  0  0
    2.9615    4.5411    0.0042 H   0  0  0  0  0  0  0  0  0  0  0  0
    4.6933   -3.2936   -0.8979 H   0  0  0  0  0  0  0  0  0  0  0  0
    4.6910   -3.2907    0.9057 H   0  0  0  0  0  0  0  0  0  0  0  0
    6.1938   -3.5431    0.0062 H   0  0  0  0  0  0  0  0  0  0  0  0
  1 12  1  0  0  0  0
  1 14  1  0  0  0  0
  2 18  1  0  0  0  0
  2 20  1  0  0  0  0
  3 19  1  0  0  0  0
  3 21  1  0  0  0  0
  4 10  1  0  0  0  0
  5 10  2  0  0  0  0
  6  7  1  0  0  0  0
  6 17  1  0  0  0  0
  6 25  1  0  0  0  0
  7 16  2  0  0  0  0
  8 17  2  0  0  0  0
  8 19  1  0  0  0  0
  9 17  1  0  0  0  0
  9 18  2  0  0  0  0
 10 14  1  0  0  0  0
 11 18  1  0  0  0  0
 11 19  2  0  0  0  0
 12 13  2  0  0  0  0
 12 16  1  0  0  0  0
 13 15  1  0  0  0  0
 13 22  1  0  0  0  0
 14 15  2  0  0  0  0
 15 23  1  0  0  0  0
 16 24  1  0  0  0  0
 20 26  1  0  0  0  0
 20 27  1  0  0  0  0
 20 28  1  0  0  0  0
 21 29  1  0  0  0  0
 21 30  1  0  0  0  0
 21 31  1  0  0  0  0
M  CHG  2   4  -1  10   1
M  END
> <PUBCHEM_COMPOUND_CID>
13949

> <PUBCHEM_CONFORMER_RMSD>
0.8

> <PUBCHEM_CONFORMER_DIVERSEORDER>
1
13
14
17
16
19
6
15
11
3
12
9
8
20
7
18
5
4
10
2

> <PUBCHEM_MMFF94_PARTIAL_CHARGES>
25
1 -0.28
10 0.96
11 -0.62
12 0.05
13 -0.15
14 0.22
15 -0.15
16 0.47
17 0.72
18 0.7
19 0.7
2 -0.36
20 0.28
21 0.28
22 0.15
23 0.15
24 0.06
25 0.4
3 -0.36
4 -0.52
5 -0.52
6 -0.46
7 -0.49
8 -0.62
9 -0.62

> <PUBCHEM_EFFECTIVE_ROTOR_COUNT>
6

> <PUBCHEM_PHARMACOPHORE_FEATURES>
9
1 1 acceptor
1 4 acceptor
1 4 anion
1 5 acceptor
1 6 donor
1 7 acceptor
4 6 8 9 17 cation
5 1 12 13 14 15 rings
6 8 9 11 17 18 19 rings

> <PUBCHEM_HEAVY_ATOM_COUNT>
21

> <PUBCHEM_ATOM_DEF_STEREO_COUNT>
0

> <PUBCHEM_ATOM_UDEF_STEREO_COUNT>
0

> <PUBCHEM_BOND_DEF_STEREO_COUNT>
0

> <PUBCHEM_BOND_UDEF_STEREO_COUNT>
1

> <PUBCHEM_ISOTOPIC_ATOM_COUNT>
0

> <PUBCHEM_COMPONENT_COUNT>
1

> <PUBCHEM_CACTVS_TAUTO_COUNT>
3

> <PUBCHEM_CONFORMER_ID>
0000367D00000001

> <PUBCHEM_MMFF94_ENERGY>
51.9033

> <PUBCHEM_FEATURE_SELFOVERLAP>
45.761

> <PUBCHEM_SHAPE_FINGERPRINT>
10366900 7 17275100669231284016
10411042 1 18194401315873050402
10595046 47 18335139739818741741
11045977 3 18131345289464377859
11287383 113 18410292489190631459
12107183 9 17689998259879350363
12166972 35 18186802500033006000
12236239 1 18261111876862816519
12403259 415 17846225466299439557
12616971 3 17822017497178533477
13081056 2 18342177765034743805
13167372 99 18260543472296064225
13167823 11 18409452483513152975
13533116 47 18412261718410012372
14170010 4 18408888426133071352
1420 363 18130782365692275299
14251764 18 18343867714933961306
14341114 176 18413102853606172673
14863182 85 16225760852964704142
15196674 1 18410856572672962661
17834072 33 18408605833974207807
17844677 252 18409160039337388569
18222031 100 16487254369802473559
18335252 98 18198898120244889635
20645477 70 18409447024973742678
21065198 57 18412542081143375626
21267235 1 18409724092733459999
21315759 40 17530686515849229607
21315763 129 18409729603456030261
21315763 28 18409449203001715853
21315764 268 18413394228535612293
21478907 32 17907296908189376594
21709351 56 18337116760293433967
221357 26 18341895220674557948
22224240 67 9799396799356101718
23402539 116 18410578384063327231
23559900 14 18413111636993602387
3004659 81 18413389856221663232
351380 180 18412263938976715161
3545911 37 18411698755566427420
4073 2 18059288760583919594
4214541 1 18410856598737736805
465052 167 18334292106738457278
5104073 3 18409444787116024889
54446538 1 18408323306735946729
9971528 1 17917710188693046340
9981440 41 17690005535918531424

> <PUBCHEM_SHAPE_MULTIPOLES>
372.94
16.58
2.8
0.57
16.13
1.53
0
-5.62
-0.02
-5.04
0
-0.02
0.01
0

> <PUBCHEM_SHAPE_SELFOVERLAP>
787.845

> <PUBCHEM_SHAPE_VOLUME>
206.1

> <PUBCHEM_COORDINATE_TYPE>
2
5
10

$$$$

