188038
  -OEChem-07051212572D

 41 43  0     0  0  0  0  0  0999 V2000
    8.4530   -1.0477    0.0000 O   0  0  0  0  0  0  0  0  0  0  0  0
    9.7260   -2.8030    0.0000 O   0  0  0  0  0  0  0  0  0  0  0  0
    8.1424   -3.6077    0.0000 N   0  0  0  0  0  0  0  0  0  0  0  0
    5.4641   -0.3030    0.0000 C   0  0  0  0  0  0  0  0  0  0  0  0
    5.4641    0.6970    0.0000 C   0  0  0  0  0  0  0  0  0  0  0  0
    6.3301   -0.8030    0.0000 C   0  0  0  0  0  0  0  0  0  0  0  0
    4.5981    1.1970    0.0000 C   0  0  0  0  0  0  0  0  0  0  0  0
    6.3301   -1.8030    0.0000 C   0  0  0  0  0  0  0  0  0  0  0  0
    4.5981    2.1970    0.0000 C   0  0  0  0  0  0  0  0  0  0  0  0
    7.1962   -2.3030    0.0000 C   0  0  0  0  0  0  0  0  0  0  0  0
    7.1962   -3.3030    0.0000 C   0  0  0  0  0  0  0  0  0  0  0  0
    5.4641   -2.3030    0.0000 C   0  0  0  0  0  0  0  0  0  0  0  0
    3.7320    2.6970    0.0000 C   0  0  0  0  0  0  0  0  0  0  0  0
    8.1424   -1.9982    0.0000 C   0  0  0  0  0  0  0  0  0  0  0  0
    6.3301   -3.8030    0.0000 C   0  0  0  0  0  0  0  0  0  0  0  0
    5.4641   -3.3030    0.0000 C   0  0  0  0  0  0  0  0  0  0  0  0
    8.7260   -2.8030    0.0000 C   0  0  0  0  0  0  0  0  0  0  0  0
    3.7320    3.6970    0.0000 C   0  0  0  0  0  0  0  0  0  0  0  0
    2.8660    2.1970    0.0000 C   0  0  0  0  0  0  0  0  0  0  0  0
    2.8660    4.1970    0.0000 C   0  0  0  0  0  0  0  0  0  0  0  0
    2.0000    2.6970    0.0000 C   0  0  0  0  0  0  0  0  0  0  0  0
    2.0000    3.6970    0.0000 C   0  0  0  0  0  0  0  0  0  0  0  0
    4.8535   -0.1953    0.0000 H   0  0  0  0  0  0  0  0  0  0  0  0
    5.2520   -0.8856    0.0000 H   0  0  0  0  0  0  0  0  0  0  0  0
    6.0747    0.5894    0.0000 H   0  0  0  0  0  0  0  0  0  0  0  0
    5.6762    1.2796    0.0000 H   0  0  0  0  0  0  0  0  0  0  0  0
    6.9407   -0.9106    0.0000 H   0  0  0  0  0  0  0  0  0  0  0  0
    6.5422   -0.2204    0.0000 H   0  0  0  0  0  0  0  0  0  0  0  0
    3.9875    1.3047    0.0000 H   0  0  0  0  0  0  0  0  0  0  0  0
    4.3860    0.6144    0.0000 H   0  0  0  0  0  0  0  0  0  0  0  0
    5.2087    2.0894    0.0000 H   0  0  0  0  0  0  0  0  0  0  0  0
    4.8101    2.7796    0.0000 H   0  0  0  0  0  0  0  0  0  0  0  0
    4.9272   -1.9930    0.0000 H   0  0  0  0  0  0  0  0  0  0  0  0
    6.3301   -4.4230    0.0000 H   0  0  0  0  0  0  0  0  0  0  0  0
    8.3350   -4.1970    0.0000 H   0  0  0  0  0  0  0  0  0  0  0  0
    4.9272   -3.6130    0.0000 H   0  0  0  0  0  0  0  0  0  0  0  0
    4.2690    4.0070    0.0000 H   0  0  0  0  0  0  0  0  0  0  0  0
    2.8660    1.5770    0.0000 H   0  0  0  0  0  0  0  0  0  0  0  0
    2.8660    4.8170    0.0000 H   0  0  0  0  0  0  0  0  0  0  0  0
    1.4631    2.3870    0.0000 H   0  0  0  0  0  0  0  0  0  0  0  0
    1.4631    4.0070    0.0000 H   0  0  0  0  0  0  0  0  0  0  0  0
  1 14  2  0  0  0  0
  2 17  2  0  0  0  0
  3 11  1  0  0  0  0
  3 17  1  0  0  0  0
  3 35  1  0  0  0  0
  4  5  1  0  0  0  0
  4  6  1  0  0  0  0
  4 23  1  0  0  0  0
  4 24  1  0  0  0  0
  5  7  1  0  0  0  0
  5 25  1  0  0  0  0
  5 26  1  0  0  0  0
  6  8  1  0  0  0  0
  6 27  1  0  0  0  0
  6 28  1  0  0  0  0
  7  9  1  0  0  0  0
  7 29  1  0  0  0  0
  7 30  1  0  0  0  0
  8 10  2  0  0  0  0
  8 12  1  0  0  0  0
  9 13  1  0  0  0  0
  9 31  1  0  0  0  0
  9 32  1  0  0  0  0
 10 11  1  0  0  0  0
 10 14  1  0  0  0  0
 11 15  2  0  0  0  0
 12 16  2  0  0  0  0
 12 33  1  0  0  0  0
 13 18  2  0  0  0  0
 13 19  1  0  0  0  0
 14 17  1  0  0  0  0
 15 16  1  0  0  0  0
 15 34  1  0  0  0  0
 16 36  1  0  0  0  0
 18 20  1  0  0  0  0
 18 37  1  0  0  0  0
 19 21  2  0  0  0  0
 19 38  1  0  0  0  0
 20 22  2  0  0  0  0
 20 39  1  0  0  0  0
 21 22  1  0  0  0  0
 21 40  1  0  0  0  0
 22 41  1  0  0  0  0
M  END
> <PUBCHEM_COMPOUND_CID>
188038

> <PUBCHEM_COMPOUND_CANONICALIZED>
1

> <PUBCHEM_CACTVS_COMPLEXITY>
400

> <PUBCHEM_CACTVS_HBOND_ACCEPTOR>
2

> <PUBCHEM_CACTVS_HBOND_DONOR>
1

> <PUBCHEM_CACTVS_ROTATABLE_BOND>
6

> <PUBCHEM_CACTVS_SUBSKEYS>
AAADceB6MAAAAAAAAAAAAAAAAAAAAWAAAAAwYAAAAAAAAFgBQAAAHgAQAAAADAyBmAAwwILAAACIAqVSUACCAAAlAgAIiAGAZMgIIDrAlbGEIYhglADIyUcciMCOgAAAQAASAAAAAACAACQAAAAAAAAAAA==

> <PUBCHEM_IUPAC_OPENEYE_NAME>
4-(5-phenylpentyl)indoline-2,3-dione

> <PUBCHEM_IUPAC_CAS_NAME>
4-(5-phenylpentyl)-1H-indole-2,3-dione

> <PUBCHEM_IUPAC_NAME>
4-(5-phenylpentyl)-1H-indole-2,3-dione

> <PUBCHEM_IUPAC_SYSTEMATIC_NAME>
4-(5-phenylpentyl)-1H-indole-2,3-dione

> <PUBCHEM_IUPAC_TRADITIONAL_NAME>
4-(5-phenylpentyl)isatin

> <PUBCHEM_IUPAC_INCHI>
InChI=1S/C19H19NO2/c21-18-17-15(12-7-13-16(17)20-19(18)22)11-6-2-5-10-14-8-3-1-4-9-14/h1,3-4,7-9,12-13H,2,5-6,10-11H2,(H,20,21,22)

> <PUBCHEM_IUPAC_INCHIKEY>
FHHUFXFTSWTUMR-UHFFFAOYSA-N

> <PUBCHEM_XLOGP3_AA>
4.6

> <PUBCHEM_EXACT_MASS>
293.141579

> <PUBCHEM_MOLECULAR_FORMULA>
C19H19NO2

> <PUBCHEM_MOLECULAR_WEIGHT>
293.35966

> <PUBCHEM_OPENEYE_CAN_SMILES>
C1=CC=C(C=C1)CCCCCC2=C3C(=CC=C2)NC(=O)C3=O

> <PUBCHEM_OPENEYE_ISO_SMILES>
C1=CC=C(C=C1)CCCCCC2=C3C(=CC=C2)NC(=O)C3=O

> <PUBCHEM_CACTVS_TPSA>
46.2

> <PUBCHEM_MONOISOTOPIC_WEIGHT>
293.141579

> <PUBCHEM_TOTAL_CHARGE>
0

> <PUBCHEM_HEAVY_ATOM_COUNT>
22

> <PUBCHEM_ATOM_DEF_STEREO_COUNT>
0

> <PUBCHEM_ATOM_UDEF_STEREO_COUNT>
0

> <PUBCHEM_BOND_DEF_STEREO_COUNT>
0

> <PUBCHEM_BOND_UDEF_STEREO_COUNT>
0

> <PUBCHEM_ISOTOPIC_ATOM_COUNT>
0

> <PUBCHEM_COMPONENT_COUNT>
1

> <PUBCHEM_CACTVS_TAUTO_COUNT>
121

> <PUBCHEM_COORDINATE_TYPE>
1
5
255

> <PUBCHEM_BONDANNOTATIONS>
10  11  8
11  15  8
12  16  8
13  18  8
13  19  8
15  16  8
18  20  8
19  21  8
20  22  8
21  22  8
8  10  8
8  12  8

$$$$

