441068
  -OEChem-07051212513D

 44 46  0     1  0  0  0  0  0999 V2000
    3.8965    1.6404    0.5926 O   0  0  0  0  0  0  0  0  0  0  0  0
    2.8781    1.5698   -1.9898 O   0  0  0  0  0  0  0  0  0  0  0  0
   -1.9698    2.7837   -0.3427 O   0  0  0  0  0  0  0  0  0  0  0  0
   -4.1003    1.9403    1.2310 O   0  0  0  0  0  0  0  0  0  0  0  0
   -0.4748   -3.0700    0.2752 N   0  0  0  0  0  0  0  0  0  0  0  0
    0.1011   -2.3509   -0.8783 C   0  0  2  0  0  0  0  0  0  0  0  0
    1.0967   -1.2667   -0.4854 C   0  0  0  0  0  0  0  0  0  0  0  0
    1.6517   -1.2483    0.8107 C   0  0  0  0  0  0  0  0  0  0  0  0
    1.2231   -2.2591    1.8432 C   0  0  0  0  0  0  0  0  0  0  0  0
    0.5697   -3.4835    1.2088 C   0  0  0  0  0  0  0  0  0  0  0  0
   -1.0809   -1.8200   -1.6998 C   0  0  0  0  0  0  0  0  0  0  0  0
    1.5419   -0.3168   -1.4188 C   0  0  0  0  0  0  0  0  0  0  0  0
   -1.8820   -0.8169   -0.9211 C   0  0  0  0  0  0  0  0  0  0  0  0
    2.5798   -0.2579    1.1643 C   0  0  0  0  0  0  0  0  0  0  0  0
    2.4756    0.6577   -1.0611 C   0  0  0  0  0  0  0  0  0  0  0  0
    2.9892    0.6914    0.2312 C   0  0  0  0  0  0  0  0  0  0  0  0
   -1.5519    0.5313   -0.9928 C   0  0  0  0  0  0  0  0  0  0  0  0
   -2.9456   -1.2469   -0.1366 C   0  0  0  0  0  0  0  0  0  0  0  0
   -2.2965    1.4631   -0.2696 C   0  0  0  0  0  0  0  0  0  0  0  0
   -3.6899   -0.3149    0.5868 C   0  0  0  0  0  0  0  0  0  0  0  0
   -3.3655    1.0401    0.5203 C   0  0  0  0  0  0  0  0  0  0  0  0
    3.3822    2.8616    1.1209 C   0  0  0  0  0  0  0  0  0  0  0  0
   -1.0287    3.2724    0.6110 C   0  0  0  0  0  0  0  0  0  0  0  0
    0.6486   -3.0771   -1.4947 H   0  0  0  0  0  0  0  0  0  0  0  0
    2.0895   -2.5851    2.4308 H   0  0  0  0  0  0  0  0  0  0  0  0
    0.5164   -1.7728    2.5275 H   0  0  0  0  0  0  0  0  0  0  0  0
    1.3152   -4.1049    0.6965 H   0  0  0  0  0  0  0  0  0  0  0  0
    0.1266   -4.1017    1.9973 H   0  0  0  0  0  0  0  0  0  0  0  0
   -1.7329   -2.6517   -2.0036 H   0  0  0  0  0  0  0  0  0  0  0  0
   -0.7496   -1.3775   -2.6472 H   0  0  0  0  0  0  0  0  0  0  0  0
   -0.9790   -3.8912   -0.0586 H   0  0  0  0  0  0  0  0  0  0  0  0
    1.1847   -0.3394   -2.4452 H   0  0  0  0  0  0  0  0  0  0  0  0
    2.9882   -0.2332    2.1722 H   0  0  0  0  0  0  0  0  0  0  0  0
   -0.7595    0.8896   -1.6400 H   0  0  0  0  0  0  0  0  0  0  0  0
   -3.2183   -2.2971   -0.0827 H   0  0  0  0  0  0  0  0  0  0  0  0
   -4.5217   -0.6580    1.1964 H   0  0  0  0  0  0  0  0  0  0  0  0
    3.5528    2.1436   -1.5877 H   0  0  0  0  0  0  0  0  0  0  0  0
    2.8353    2.6750    2.0506 H   0  0  0  0  0  0  0  0  0  0  0  0
    2.7284    3.3541    0.3941 H   0  0  0  0  0  0  0  0  0  0  0  0
    4.2253    3.5232    1.3375 H   0  0  0  0  0  0  0  0  0  0  0  0
   -4.7959    1.4668    1.7187 H   0  0  0  0  0  0  0  0  0  0  0  0
   -0.0717    2.7511    0.5071 H   0  0  0  0  0  0  0  0  0  0  0  0
   -1.4133    3.1518    1.6286 H   0  0  0  0  0  0  0  0  0  0  0  0
   -0.8691    4.3372    0.4209 H   0  0  0  0  0  0  0  0  0  0  0  0
  1 16  1  0  0  0  0
  1 22  1  0  0  0  0
  2 15  1  0  0  0  0
  2 37  1  0  0  0  0
  3 19  1  0  0  0  0
  3 23  1  0  0  0  0
  4 21  1  0  0  0  0
  4 41  1  0  0  0  0
  5  6  1  0  0  0  0
  5 10  1  0  0  0  0
  5 31  1  0  0  0  0
  6  7  1  0  0  0  0
  6 11  1  0  0  0  0
  6 24  1  0  0  0  0
  7  8  1  0  0  0  0
  7 12  2  0  0  0  0
  8  9  1  0  0  0  0
  8 14  2  0  0  0  0
  9 10  1  0  0  0  0
  9 25  1  0  0  0  0
  9 26  1  0  0  0  0
 10 27  1  0  0  0  0
 10 28  1  0  0  0  0
 11 13  1  0  0  0  0
 11 29  1  0  0  0  0
 11 30  1  0  0  0  0
 12 15  1  0  0  0  0
 12 32  1  0  0  0  0
 13 17  2  0  0  0  0
 13 18  1  0  0  0  0
 14 16  1  0  0  0  0
 14 33  1  0  0  0  0
 15 16  2  0  0  0  0
 17 19  1  0  0  0  0
 17 34  1  0  0  0  0
 18 20  2  0  0  0  0
 18 35  1  0  0  0  0
 19 21  2  0  0  0  0
 20 21  1  0  0  0  0
 20 36  1  0  0  0  0
 22 38  1  0  0  0  0
 22 39  1  0  0  0  0
 22 40  1  0  0  0  0
 23 42  1  0  0  0  0
 23 43  1  0  0  0  0
 23 44  1  0  0  0  0
M  END
> <PUBCHEM_COMPOUND_CID>
441068

> <PUBCHEM_CONFORMER_RMSD>
0.8

> <PUBCHEM_CONFORMER_DIVERSEORDER>
1
14
16
2
20
8
13
17
18
3
11
5
4
7
9
19
12
10
6
15
21

> <PUBCHEM_MMFF94_PARTIAL_CHARGES>
31
1 -0.36
10 0.27
11 0.14
12 -0.15
13 -0.14
14 -0.15
15 0.08
16 0.08
17 -0.15
18 -0.15
19 0.08
2 -0.53
20 -0.15
21 0.08
22 0.28
23 0.28
3 -0.36
31 0.36
32 0.15
33 0.15
34 0.15
35 0.15
36 0.15
37 0.45
4 -0.53
41 0.45
5 -0.9
6 0.41
7 -0.14
8 -0.14
9 0.14

> <PUBCHEM_EFFECTIVE_ROTOR_COUNT>
4.8

> <PUBCHEM_PHARMACOPHORE_FEATURES>
9
1 1 acceptor
1 2 donor
1 3 acceptor
1 4 donor
1 5 cation
1 5 donor
6 13 17 18 19 20 21 rings
6 5 6 7 8 9 10 rings
6 7 8 12 14 15 16 rings

> <PUBCHEM_HEAVY_ATOM_COUNT>
23

> <PUBCHEM_ATOM_DEF_STEREO_COUNT>
1

> <PUBCHEM_ATOM_UDEF_STEREO_COUNT>
0

> <PUBCHEM_BOND_DEF_STEREO_COUNT>
0

> <PUBCHEM_BOND_UDEF_STEREO_COUNT>
0

> <PUBCHEM_ISOTOPIC_ATOM_COUNT>
0

> <PUBCHEM_COMPONENT_COUNT>
1

> <PUBCHEM_CACTVS_TAUTO_COUNT>
8

> <PUBCHEM_CONFORMER_ID>
0006BAEC00000001

> <PUBCHEM_MMFF94_ENERGY>
80.7027

> <PUBCHEM_FEATURE_SELFOVERLAP>
45.69

> <PUBCHEM_SHAPE_FINGERPRINT>
10165383 225 16733533919431912391
10498660 4 18333452036730732781
1100329 8 17764027965709112883
11221954 11 17826798027749958856
11640471 11 18190482573819657719
12422481 6 17691438577632368226
12633257 1 17979915231286696675
12788726 201 17480565062947653358
128993 33 18040995197773911257
13140716 1 18410574028370201499
13965767 371 18269275836124107045
14223421 5 18128531768258137367
14251757 17 17463663722650873174
14713325 29 17695021606822228134
14787075 74 17840577103332665831
14955137 171 18121497131503378538
15664445 248 7272545394475610907
17093844 170 15384440217372033592
18981168 100 16588883385347343927
20510252 161 17482004332659156618
20715895 44 17623024790993534973
21524375 3 18409163316096995670
21731228 192 18412268332749513882
21756936 100 18128241308431675884
21864079 5 18113618997398040985
23419403 2 16033432191126307318
23557571 272 17761208817916204502
23559900 14 17829039163613184655
35225 105 17558529327965089954
3797600 57 17415816038499522209
392239 28 18125157126470266683
427121 178 18339912758112123426
5939293 188 17471578101514968541
7097593 13 17838906180518072603

> <PUBCHEM_SHAPE_MULTIPOLES>
444.87
6.15
4.02
1.63
0.89
0.16
0.21
4.65
-1.39
-0.24
-1.35
-0.67
-0.37
-0.78

> <PUBCHEM_SHAPE_SELFOVERLAP>
959.649

> <PUBCHEM_SHAPE_VOLUME>
244

> <PUBCHEM_COORDINATE_TYPE>
2
5
10

$$$$

