585946
  -OEChem-06241222452D

 44 46  0     1  0  0  0  0  0999 V2000
    4.4404    6.1123    0.0000 Cl  0  0  0  0  0  0  0  0  0  0  0  0
    5.8424   -1.3335    0.0000 O   0  0  0  0  0  0  0  0  0  0  0  0
    2.0000    0.6310    0.0000 O   0  0  0  0  0  0  0  0  0  0  0  0
    4.0823   -5.6123    0.0000 O   0  0  0  0  0  0  0  0  0  0  0  0
    4.0823   -1.6123    0.0000 N   0  0  0  0  0  0  0  0  0  0  0  0
    3.4013    1.6491    0.0000 N   0  0  0  0  0  0  0  0  0  0  0  0
    3.5823   -0.0735    0.0000 C   0  0  3  0  0  0  0  0  0  0  0  0
    3.2733   -1.0245    0.0000 C   0  0  0  0  0  0  0  0  0  0  0  0
    4.5823   -0.0735    0.0000 C   0  0  0  0  0  0  0  0  0  0  0  0
    4.8913   -1.0245    0.0000 C   0  0  0  0  0  0  0  0  0  0  0  0
    2.9945    0.7356    0.0000 C   0  0  0  0  0  0  0  0  0  0  0  0
    4.0823   -2.6123    0.0000 C   0  0  0  0  0  0  0  0  0  0  0  0
    3.2163   -3.1123    0.0000 C   0  0  0  0  0  0  0  0  0  0  0  0
    4.9483   -3.1123    0.0000 C   0  0  0  0  0  0  0  0  0  0  0  0
    2.8135    2.4581    0.0000 C   0  0  0  0  0  0  0  0  0  0  0  0
    3.2163   -4.1123    0.0000 C   0  0  0  0  0  0  0  0  0  0  0  0
    4.9483   -4.1123    0.0000 C   0  0  0  0  0  0  0  0  0  0  0  0
    3.2202    3.3717    0.0000 C   0  0  0  0  0  0  0  0  0  0  0  0
    4.0823   -4.6123    0.0000 C   0  0  0  0  0  0  0  0  0  0  0  0
    4.2147    3.4762    0.0000 C   0  0  0  0  0  0  0  0  0  0  0  0
    2.6324    4.1807    0.0000 C   0  0  0  0  0  0  0  0  0  0  0  0
    4.6215    4.3897    0.0000 C   0  0  0  0  0  0  0  0  0  0  0  0
    3.0392    5.0942    0.0000 C   0  0  0  0  0  0  0  0  0  0  0  0
    4.0337    5.1988    0.0000 C   0  0  0  0  0  0  0  0  0  0  0  0
    3.2163   -6.1123    0.0000 C   0  0  0  0  0  0  0  0  0  0  0  0
    2.9699   -0.1704    0.0000 H   0  0  0  0  0  0  0  0  0  0  0  0
    2.7069   -0.7723    0.0000 H   0  0  0  0  0  0  0  0  0  0  0  0
    2.9633   -1.5614    0.0000 H   0  0  0  0  0  0  0  0  0  0  0  0
    5.1888    0.0554    0.0000 H   0  0  0  0  0  0  0  0  0  0  0  0
    4.5175    0.5431    0.0000 H   0  0  0  0  0  0  0  0  0  0  0  0
    4.0179    1.7139    0.0000 H   0  0  0  0  0  0  0  0  0  0  0  0
    2.6794   -2.8023    0.0000 H   0  0  0  0  0  0  0  0  0  0  0  0
    5.4853   -2.8023    0.0000 H   0  0  0  0  0  0  0  0  0  0  0  0
    2.2995    2.8048    0.0000 H   0  0  0  0  0  0  0  0  0  0  0  0
    2.3828    2.0121    0.0000 H   0  0  0  0  0  0  0  0  0  0  0  0
    2.6794   -4.4223    0.0000 H   0  0  0  0  0  0  0  0  0  0  0  0
    5.4853   -4.4223    0.0000 H   0  0  0  0  0  0  0  0  0  0  0  0
    4.5792    2.9746    0.0000 H   0  0  0  0  0  0  0  0  0  0  0  0
    2.0158    4.1159    0.0000 H   0  0  0  0  0  0  0  0  0  0  0  0
    5.2381    4.4546    0.0000 H   0  0  0  0  0  0  0  0  0  0  0  0
    2.6747    5.5958    0.0000 H   0  0  0  0  0  0  0  0  0  0  0  0
    2.9063   -5.5754    0.0000 H   0  0  0  0  0  0  0  0  0  0  0  0
    2.6794   -6.4223    0.0000 H   0  0  0  0  0  0  0  0  0  0  0  0
    3.5263   -6.6492    0.0000 H   0  0  0  0  0  0  0  0  0  0  0  0
  1 24  1  0  0  0  0
  2 10  2  0  0  0  0
  3 11  2  0  0  0  0
  4 19  1  0  0  0  0
  4 25  1  0  0  0  0
  5  8  1  0  0  0  0
  5 10  1  0  0  0  0
  5 12  1  0  0  0  0
  6 11  1  0  0  0  0
  6 15  1  0  0  0  0
  6 31  1  0  0  0  0
  7  8  1  0  0  0  0
  7  9  1  0  0  0  0
  7 11  1  0  0  0  0
  7 26  1  0  0  0  0
  8 27  1  0  0  0  0
  8 28  1  0  0  0  0
  9 10  1  0  0  0  0
  9 29  1  0  0  0  0
  9 30  1  0  0  0  0
 12 13  2  0  0  0  0
 12 14  1  0  0  0  0
 13 16  1  0  0  0  0
 13 32  1  0  0  0  0
 14 17  2  0  0  0  0
 14 33  1  0  0  0  0
 15 18  1  0  0  0  0
 15 34  1  0  0  0  0
 15 35  1  0  0  0  0
 16 19  2  0  0  0  0
 16 36  1  0  0  0  0
 17 19  1  0  0  0  0
 17 37  1  0  0  0  0
 18 20  2  0  0  0  0
 18 21  1  0  0  0  0
 20 22  1  0  0  0  0
 20 38  1  0  0  0  0
 21 23  2  0  0  0  0
 21 39  1  0  0  0  0
 22 24  2  0  0  0  0
 22 40  1  0  0  0  0
 23 24  1  0  0  0  0
 23 41  1  0  0  0  0
 25 42  1  0  0  0  0
 25 43  1  0  0  0  0
 25 44  1  0  0  0  0
M  END
> <PUBCHEM_COMPOUND_CID>
585946

> <PUBCHEM_COMPOUND_CANONICALIZED>
1

> <PUBCHEM_CACTVS_COMPLEXITY>
471

> <PUBCHEM_CACTVS_HBOND_ACCEPTOR>
3

> <PUBCHEM_CACTVS_HBOND_DONOR>
1

> <PUBCHEM_CACTVS_ROTATABLE_BOND>
5

> <PUBCHEM_CACTVS_SUBSKEYS>
AAADceB7MAAEAAAAAAAAAAAAAAAAAWAAAAAwYAAAAAAAAAABQAAAHgIQAAAADQ7BmCYyxoPABACIAiVSUACCCAAhJwAIiIEObogMJjrF85uEMChk1hHI6Ae1wAAOBEAAAAAAAAAIgAAAAAAAAAAAAAAAAA==

> <PUBCHEM_IUPAC_OPENEYE_NAME>
N-[(4-chlorophenyl)methyl]-1-(4-methoxyphenyl)-5-oxo-pyrrolidine-3-carboxamide

> <PUBCHEM_IUPAC_CAS_NAME>
N-[(4-chlorophenyl)methyl]-1-(4-methoxyphenyl)-5-oxo-3-pyrrolidinecarboxamide

> <PUBCHEM_IUPAC_NAME>
N-[(4-chlorophenyl)methyl]-1-(4-methoxyphenyl)-5-oxopyrrolidine-3-carboxamide

> <PUBCHEM_IUPAC_SYSTEMATIC_NAME>
N-[(4-chlorophenyl)methyl]-1-(4-methoxyphenyl)-5-oxidanylidene-pyrrolidine-3-carboxamide

> <PUBCHEM_IUPAC_TRADITIONAL_NAME>
N-(4-chlorobenzyl)-5-keto-1-(4-methoxyphenyl)pyrrolidine-3-carboxamide

> <PUBCHEM_IUPAC_INCHI>
InChI=1S/C19H19ClN2O3/c1-25-17-8-6-16(7-9-17)22-12-14(10-18(22)23)19(24)21-11-13-2-4-15(20)5-3-13/h2-9,14H,10-12H2,1H3,(H,21,24)

> <PUBCHEM_IUPAC_INCHIKEY>
HEKCSBSHMYQXKA-UHFFFAOYSA-N

> <PUBCHEM_XLOGP3_AA>
2.4

> <PUBCHEM_EXACT_MASS>
358.10842

> <PUBCHEM_MOLECULAR_FORMULA>
C19H19ClN2O3

> <PUBCHEM_MOLECULAR_WEIGHT>
358.81876

> <PUBCHEM_OPENEYE_CAN_SMILES>
COC1=CC=C(C=C1)N2CC(CC2=O)C(=O)NCC3=CC=C(C=C3)Cl

> <PUBCHEM_OPENEYE_ISO_SMILES>
COC1=CC=C(C=C1)N2CC(CC2=O)C(=O)NCC3=CC=C(C=C3)Cl

> <PUBCHEM_CACTVS_TPSA>
58.6

> <PUBCHEM_MONOISOTOPIC_WEIGHT>
358.10842

> <PUBCHEM_TOTAL_CHARGE>
0

> <PUBCHEM_HEAVY_ATOM_COUNT>
25

> <PUBCHEM_ATOM_DEF_STEREO_COUNT>
0

> <PUBCHEM_ATOM_UDEF_STEREO_COUNT>
1

> <PUBCHEM_BOND_DEF_STEREO_COUNT>
0

> <PUBCHEM_BOND_UDEF_STEREO_COUNT>
0

> <PUBCHEM_ISOTOPIC_ATOM_COUNT>
0

> <PUBCHEM_COMPONENT_COUNT>
1

> <PUBCHEM_CACTVS_TAUTO_COUNT>
4

> <PUBCHEM_COORDINATE_TYPE>
1
5
255

> <PUBCHEM_BONDANNOTATIONS>
12  13  8
12  14  8
13  16  8
14  17  8
16  19  8
17  19  8
18  20  8
18  21  8
20  22  8
21  23  8
22  24  8
23  24  8
7  11  3

$$$$

