442536
  -OEChem-07051212583D

 25 26  0     1  0  0  0  0  0999 V2000
    2.8589   -0.8593   -0.2778 O   0  0  0  0  0  0  0  0  0  0  0  0
    3.2005    1.2879    0.3327 O   0  0  0  0  0  0  0  0  0  0  0  0
   -3.4695   -1.2949    0.3449 O   0  0  0  0  0  0  0  0  0  0  0  0
   -0.8942    2.0607    0.2098 N   0  0  0  0  0  0  0  0  0  0  0  0
   -1.9240    1.0326    0.1119 C   0  0  2  0  0  0  0  0  0  0  0  0
    0.0273   -0.5862    0.1601 C   0  0  0  0  0  0  0  0  0  0  0  0
   -1.3069   -0.3608    0.1766 C   0  0  0  0  0  0  0  0  0  0  0  0
    0.7210   -1.9191    0.1907 C   0  0  0  0  0  0  0  0  0  0  0  0
    0.9459    0.5501    0.1132 C   0  0  0  0  0  0  0  0  0  0  0  0
    1.9309   -1.8660   -0.7248 C   0  0  0  0  0  0  0  0  0  0  0  0
    0.4483    1.7952    0.1582 C   0  0  0  0  0  0  0  0  0  0  0  0
   -2.6954    1.2513   -1.1907 C   0  0  0  0  0  0  0  0  0  0  0  0
    2.4191    0.3806    0.0691 C   0  0  0  0  0  0  0  0  0  0  0  0
   -2.2621   -1.4720    0.3260 C   0  0  0  0  0  0  0  0  0  0  0  0
   -2.6039    1.1659    0.9619 H   0  0  0  0  0  0  0  0  0  0  0  0
    1.0385   -2.1282    1.2196 H   0  0  0  0  0  0  0  0  0  0  0  0
    0.0845   -2.7408   -0.1451 H   0  0  0  0  0  0  0  0  0  0  0  0
   -1.1741    3.0352    0.2492 H   0  0  0  0  0  0  0  0  0  0  0  0
    2.4593   -2.8246   -0.6997 H   0  0  0  0  0  0  0  0  0  0  0  0
    1.6626   -1.6597   -1.7678 H   0  0  0  0  0  0  0  0  0  0  0  0
    1.0556    2.6922    0.1555 H   0  0  0  0  0  0  0  0  0  0  0  0
   -3.0896    2.2732   -1.2367 H   0  0  0  0  0  0  0  0  0  0  0  0
   -2.0479    1.1142   -2.0649 H   0  0  0  0  0  0  0  0  0  0  0  0
   -3.5450    0.5706   -1.2932 H   0  0  0  0  0  0  0  0  0  0  0  0
   -1.8485   -2.4826    0.4430 H   0  0  0  0  0  0  0  0  0  0  0  0
  1 10  1  0  0  0  0
  1 13  1  0  0  0  0
  2 13  2  0  0  0  0
  3 14  2  0  0  0  0
  4  5  1  0  0  0  0
  4 11  1  0  0  0  0
  4 18  1  0  0  0  0
  5  7  1  0  0  0  0
  5 12  1  0  0  0  0
  5 15  1  0  0  0  0
  6  7  2  0  0  0  0
  6  8  1  0  0  0  0
  6  9  1  0  0  0  0
  7 14  1  0  0  0  0
  8 10  1  0  0  0  0
  8 16  1  0  0  0  0
  8 17  1  0  0  0  0
  9 11  2  0  0  0  0
  9 13  1  0  0  0  0
 10 19  1  0  0  0  0
 10 20  1  0  0  0  0
 11 21  1  0  0  0  0
 12 22  1  0  0  0  0
 12 23  1  0  0  0  0
 12 24  1  0  0  0  0
 14 25  1  0  0  0  0
M  END
> <PUBCHEM_COMPOUND_CID>
442536

> <PUBCHEM_CONFORMER_RMSD>
0.6

> <PUBCHEM_CONFORMER_DIVERSEORDER>
2
3
1
4

> <PUBCHEM_MMFF94_PARTIAL_CHARGES>
16
1 -0.43
10 0.28
11 -0.05
13 0.71
14 0.5
18 0.4
2 -0.57
21 0.15
25 0.06
3 -0.57
4 -0.87
5 0.51
6 -0.14
7 -0.12
8 0.14
9 0.01

> <PUBCHEM_EFFECTIVE_ROTOR_COUNT>
2

> <PUBCHEM_PHARMACOPHORE_FEATURES>
6
1 2 acceptor
1 3 acceptor
1 4 cation
1 4 donor
6 1 6 8 9 10 13 rings
6 4 5 6 7 9 11 rings

> <PUBCHEM_HEAVY_ATOM_COUNT>
14

> <PUBCHEM_ATOM_DEF_STEREO_COUNT>
0

> <PUBCHEM_ATOM_UDEF_STEREO_COUNT>
1

> <PUBCHEM_BOND_DEF_STEREO_COUNT>
0

> <PUBCHEM_BOND_UDEF_STEREO_COUNT>
0

> <PUBCHEM_ISOTOPIC_ATOM_COUNT>
0

> <PUBCHEM_COMPONENT_COUNT>
1

> <PUBCHEM_CACTVS_TAUTO_COUNT>
5

> <PUBCHEM_CONFORMER_ID>
0006C0A800000002

> <PUBCHEM_MMFF94_ENERGY>
34.0436

> <PUBCHEM_FEATURE_SELFOVERLAP>
30.472

> <PUBCHEM_SHAPE_FINGERPRINT>
10608611 8 18411985783936033701
10967382 1 18265893545030369819
11132069 177 18192713349625835482
11206711 2 18342453721025789735
12138202 97 18130802195313363085
12423570 1 16812087720303397901
12524768 44 18265613371418089855
12897270 3 18337672017881254422
13140716 1 18338516464212526170
13380535 21 18337942497768184465
13897977 150 18410015467667888148
14251717 144 18191870016124130023
14614273 12 18201728357442149077
15219456 202 18410012147668457999
161256 15 18335973220818924974
16945 1 18122904501785151826
17844478 74 18201429247451176675
193761 8 18265892643108239290
19973954 147 18337104687119226378
20201158 50 18265055902011873334
20588541 1 18196084448113582563
21501502 16 18338230569703879082
22802520 49 18189891100914388798
2334 1 18410854356400843970
23419403 2 16609206869722603536
23552423 10 18271517693188299846
23559900 14 18192993940905263694
25 1 17550956222876010229
2748010 2 18410291423637795894
528886 8 18337396040351906472
8809292 202 18270111434869954978

> <PUBCHEM_SHAPE_MULTIPOLES>
265.52
4.57
2.31
0.78
0.14
0.07
-0.15
0.36
-0.37
0.11
0.02
0.22
-0.03
0.75

> <PUBCHEM_SHAPE_SELFOVERLAP>
565.867

> <PUBCHEM_SHAPE_VOLUME>
145.5

> <PUBCHEM_COORDINATE_TYPE>
2
5
10

$$$$

