9217
  -OEChem-06261203313D

 22 24  0     0  0  0  0  0  0999 V2000
    0.0000   -1.9159    0.0099 S   0  0  0  0  0  0  0  0  0  0  0  0
    0.0000    1.2635    0.0113 O   0  0  0  0  0  0  0  0  0  0  0  0
    1.3639   -0.7888    0.0033 C   0  0  0  0  0  0  0  0  0  0  0  0
   -1.3639   -0.7888    0.0031 C   0  0  0  0  0  0  0  0  0  0  0  0
    1.1980    0.5955    0.0048 C   0  0  0  0  0  0  0  0  0  0  0  0
   -1.1979    0.5955    0.0046 C   0  0  0  0  0  0  0  0  0  0  0  0
    2.6622   -1.3221   -0.0031 C   0  0  0  0  0  0  0  0  0  0  0  0
   -2.6621   -1.3222   -0.0034 C   0  0  0  0  0  0  0  0  0  0  0  0
    2.3234    1.4322    0.0000 C   0  0  0  0  0  0  0  0  0  0  0  0
   -2.3234    1.4321   -0.0001 C   0  0  0  0  0  0  0  0  0  0  0  0
    3.7785   -0.4851   -0.0084 C   0  0  0  0  0  0  0  0  0  0  0  0
   -3.7785   -0.4850   -0.0083 C   0  0  0  0  0  0  0  0  0  0  0  0
    3.6088    0.8945   -0.0070 C   0  0  0  0  0  0  0  0  0  0  0  0
   -3.6089    0.8945   -0.0067 C   0  0  0  0  0  0  0  0  0  0  0  0
    2.8221   -2.3985   -0.0042 H   0  0  0  0  0  0  0  0  0  0  0  0
   -2.8220   -2.3986   -0.0046 H   0  0  0  0  0  0  0  0  0  0  0  0
    2.2016    2.5129    0.0012 H   0  0  0  0  0  0  0  0  0  0  0  0
   -2.2017    2.5129    0.0013 H   0  0  0  0  0  0  0  0  0  0  0  0
    4.7773   -0.9113   -0.0135 H   0  0  0  0  0  0  0  0  0  0  0  0
   -4.7772   -0.9113   -0.0133 H   0  0  0  0  0  0  0  0  0  0  0  0
    4.4738    1.5509   -0.0110 H   0  0  0  0  0  0  0  0  0  0  0  0
   -4.4739    1.5508   -0.0105 H   0  0  0  0  0  0  0  0  0  0  0  0
  1  3  1  0  0  0  0
  1  4  1  0  0  0  0
  2  5  1  0  0  0  0
  2  6  1  0  0  0  0
  3  5  1  0  0  0  0
  3  7  2  0  0  0  0
  4  6  1  0  0  0  0
  4  8  2  0  0  0  0
  5  9  2  0  0  0  0
  6 10  2  0  0  0  0
  7 11  1  0  0  0  0
  7 15  1  0  0  0  0
  8 12  1  0  0  0  0
  8 16  1  0  0  0  0
  9 13  1  0  0  0  0
  9 17  1  0  0  0  0
 10 14  1  0  0  0  0
 10 18  1  0  0  0  0
 11 13  2  0  0  0  0
 11 19  1  0  0  0  0
 12 14  2  0  0  0  0
 12 20  1  0  0  0  0
 13 21  1  0  0  0  0
 14 22  1  0  0  0  0
M  END
> <PUBCHEM_COMPOUND_CID>
9217

> <PUBCHEM_CONFORMER_RMSD>
0.4

> <PUBCHEM_CONFORMER_DIVERSEORDER>
1

> <PUBCHEM_MMFF94_PARTIAL_CHARGES>
22
1 -0.2
10 -0.15
11 -0.15
12 -0.15
13 -0.15
14 -0.15
15 0.15
16 0.15
17 0.15
18 0.15
19 0.15
2 -0.17
20 0.15
21 0.15
22 0.15
3 0.1
4 0.1
5 0.08
6 0.08
7 -0.15
8 -0.15
9 -0.15

> <PUBCHEM_EFFECTIVE_ROTOR_COUNT>
0.4

> <PUBCHEM_PHARMACOPHORE_FEATURES>
4
1 2 acceptor
6 1 2 3 4 5 6 rings
6 3 5 7 9 11 13 rings
6 4 6 8 10 12 14 rings

> <PUBCHEM_HEAVY_ATOM_COUNT>
14

> <PUBCHEM_ATOM_DEF_STEREO_COUNT>
0

> <PUBCHEM_ATOM_UDEF_STEREO_COUNT>
0

> <PUBCHEM_BOND_DEF_STEREO_COUNT>
0

> <PUBCHEM_BOND_UDEF_STEREO_COUNT>
0

> <PUBCHEM_ISOTOPIC_ATOM_COUNT>
0

> <PUBCHEM_COMPONENT_COUNT>
1

> <PUBCHEM_CACTVS_TAUTO_COUNT>
1

> <PUBCHEM_CONFORMER_ID>
0000240100000001

> <PUBCHEM_MMFF94_ENERGY>
42.5776

> <PUBCHEM_FEATURE_SELFOVERLAP>
20.336

> <PUBCHEM_SHAPE_FINGERPRINT>
10608611 8 18410578383198352000
10967382 1 18410574006657988098
11132069 177 18409454686656821850
11471102 20 18410579499936945134
12032990 46 18410568487598749411
13221675 6 18410856559640003938
13380535 76 18410856559645460578
13897977 150 18410858780296163213
14144814 61 18410856572545829584
14325111 11 18410573985162156544
15196674 1 18410855464423226535
15219456 202 18409448093839824375
15309172 13 18335693945055465067
15442244 35 18194120948121975146
15536298 74 18334576849957952238
15775835 57 18410852165888252263
16945 1 18195246839164485623
17802600 8 18410863161004594980
18186145 218 18409444829780821516
18522853 276 18407762534051272304
193761 8 17618223244302844130
200 152 18041007228430845253
20201158 50 18409448111035758155
20510252 161 18260546731817370409
20528008 55 18409172099394416189
20645476 183 17844228662825749678
20645477 70 18337113466111916791
21267235 1 18410846668330522631
21501502 16 18410856559639802567
221490 88 18340477881635637530
2334 1 18410856529575024993
23402539 116 18334305253047248622
23402655 69 18335986440696646309
23463225 33 18413108381081318126
23559900 14 18334016120892896258
2748010 2 18411136935110173343
2871803 45 18342184340967375047
3312278 4 18408601461565618737
335352 9 18122344850250582598
474 4 17058923339380422476
5104073 3 18410575093253014505
528886 8 18410298020638964906
53812653 166 18334581222097568256
69090 78 18334018276470866591
7364860 26 18264207092057756334
8809292 202 18272083877152173907
9709674 26 18409725140811339158

> <PUBCHEM_SHAPE_MULTIPOLES>
286.09
6.81
1.85
0.62
0
0.23
0
-0.66
-0.03
0
0
0
0.02
0

> <PUBCHEM_SHAPE_SELFOVERLAP>
624.098

> <PUBCHEM_SHAPE_VOLUME>
155

> <PUBCHEM_COORDINATE_TYPE>
2
5
10

$$$$

