46174003
  -OEChem-07051213112D

 98102  0     1  0  0  0  0  0999 V2000
   13.7953   -1.1550    0.0000 O   0  0  0  0  0  0  0  0  0  0  0  0
   12.0632   -1.1550    0.0000 O   0  0  0  0  0  0  0  0  0  0  0  0
   14.6613    0.3450    0.0000 O   0  0  0  0  0  0  0  0  0  0  0  0
   16.3933   -1.6550    0.0000 O   0  0  0  0  0  0  0  0  0  0  0  0
   13.7953    0.8450    0.0000 O   0  0  0  0  0  0  0  0  0  0  0  0
   12.0632    1.8450    0.0000 O   0  0  0  0  0  0  0  0  0  0  0  0
   10.3312    0.8450    0.0000 O   0  0  0  0  0  0  0  0  0  0  0  0
   18.1934    0.3658    0.0000 O   0  0  0  0  0  0  0  0  0  0  0  0
   10.3312   -2.1550    0.0000 O   0  0  0  0  0  0  0  0  0  0  0  0
    4.2690    0.3450    0.0000 O   0  0  0  0  0  0  0  0  0  0  0  0
   17.2757    1.8796    0.0000 O   0  0  0  0  0  0  0  0  0  0  0  0
    6.0010    0.3450    0.0000 O   0  0  0  0  0  0  0  0  0  0  0  0
    4.2690    3.3450    0.0000 O   0  0  0  0  0  0  0  0  0  0  0  0
    2.5369    2.3450    0.0000 O   0  0  0  0  0  0  0  0  0  0  0  0
    6.0010    2.3450    0.0000 O   0  0  0  0  0  0  0  0  0  0  0  0
    9.4651   -0.6550    0.0000 O   0  0  0  0  0  0  0  0  0  0  0  0
   12.9292    2.3450    0.0000 O   0  0  0  0  0  0  0  0  0  0  0  0
   10.3312    1.8450    0.0000 O   0  0  0  0  0  0  0  0  0  0  0  0
    2.5369   -0.6550    0.0000 O   0  0  0  0  0  0  0  0  0  0  0  0
    7.7331   -0.6550    0.0000 O   0  0  0  0  0  0  0  0  0  0  0  0
    8.5991   -2.1550    0.0000 O   0  0  0  0  0  0  0  0  0  0  0  0
   16.3933   -0.6550    0.0000 C   0  0  1  0  0  0  0  0  0  0  0  0
   15.5273   -1.1550    0.0000 C   0  0  2  0  0  0  0  0  0  0  0  0
   12.9292    0.3450    0.0000 C   0  0  2  0  0  0  0  0  0  0  0  0
   12.0632    0.8450    0.0000 C   0  0  2  0  0  0  0  0  0  0  0  0
   12.9292   -0.6550    0.0000 C   0  0  2  0  0  0  0  0  0  0  0  0
   11.1972    0.3450    0.0000 C   0  0  1  0  0  0  0  0  0  0  0  0
   14.6613   -0.6550    0.0000 C   0  0  2  0  0  0  0  0  0  0  0  0
   11.1972   -0.6550    0.0000 C   0  0  1  0  0  0  0  0  0  0  0  0
   17.2873   -1.1897    0.0000 C   0  0  0  0  0  0  0  0  0  0  0  0
   16.3933    0.3450    0.0000 C   0  0  0  0  0  0  0  0  0  0  0  0
   18.1934   -0.6758    0.0000 C   0  0  0  0  0  0  0  0  0  0  0  0
   10.3312   -1.1550    0.0000 C   0  0  0  0  0  0  0  0  0  0  0  0
   15.5273   -2.1550    0.0000 C   0  0  0  0  0  0  0  0  0  0  0  0
   15.5273    0.8450    0.0000 C   0  0  0  0  0  0  0  0  0  0  0  0
   17.2873    0.8797    0.0000 C   0  0  0  0  0  0  0  0  0  0  0  0
    4.2690    2.3450    0.0000 C   0  0  1  0  0  0  0  0  0  0  0  0
    3.4030    1.8450    0.0000 C   0  0  1  0  0  0  0  0  0  0  0  0
    5.1350    1.8450    0.0000 C   0  0  2  0  0  0  0  0  0  0  0  0
    3.4030    0.8450    0.0000 C   0  0  1  0  0  0  0  0  0  0  0  0
    5.1350    0.8450    0.0000 C   0  0  1  0  0  0  0  0  0  0  0  0
   14.6613   -2.6550    0.0000 C   0  0  0  0  0  0  0  0  0  0  0  0
    9.4651    0.3450    0.0000 C   0  0  0  0  0  0  0  0  0  0  0  0
   13.7953    1.8450    0.0000 C   0  0  0  0  0  0  0  0  0  0  0  0
   11.1972    2.3450    0.0000 C   0  0  0  0  0  0  0  0  0  0  0  0
    2.5369    0.3450    0.0000 C   0  0  0  0  0  0  0  0  0  0  0  0
    8.5991    0.8450    0.0000 C   0  0  0  0  0  0  0  0  0  0  0  0
    6.8671    0.8450    0.0000 C   0  0  0  0  0  0  0  0  0  0  0  0
   14.6613    2.3450    0.0000 C   0  0  0  0  0  0  0  0  0  0  0  0
   11.1972    3.3450    0.0000 C   0  0  0  0  0  0  0  0  0  0  0  0
    7.7331    0.3450    0.0000 C   0  0  0  0  0  0  0  0  0  0  0  0
    9.4651   -2.6550    0.0000 C   0  0  0  0  0  0  0  0  0  0  0  0
    8.5991    1.8450    0.0000 C   0  0  0  0  0  0  0  0  0  0  0  0
    6.8671    1.8450    0.0000 C   0  0  0  0  0  0  0  0  0  0  0  0
    7.7331    2.3450    0.0000 C   0  0  0  0  0  0  0  0  0  0  0  0
    9.4651   -3.6550    0.0000 C   0  0  0  0  0  0  0  0  0  0  0  0
   16.0643   -1.4650    0.0000 H   0  0  0  0  0  0  0  0  0  0  0  0
   12.9292    0.9650    0.0000 H   0  0  0  0  0  0  0  0  0  0  0  0
   12.6002    1.1550    0.0000 H   0  0  0  0  0  0  0  0  0  0  0  0
   12.9292   -1.2750    0.0000 H   0  0  0  0  0  0  0  0  0  0  0  0
   10.6603    0.0350    0.0000 H   0  0  0  0  0  0  0  0  0  0  0  0
   14.1244   -0.3450    0.0000 H   0  0  0  0  0  0  0  0  0  0  0  0
   11.1972   -1.2750    0.0000 H   0  0  0  0  0  0  0  0  0  0  0  0
   16.8827   -1.6594    0.0000 H   0  0  0  0  0  0  0  0  0  0  0  0
   17.6809   -1.6687    0.0000 H   0  0  0  0  0  0  0  0  0  0  0  0
   18.4024   -1.2595    0.0000 H   0  0  0  0  0  0  0  0  0  0  0  0
   18.8042   -0.5697    0.0000 H   0  0  0  0  0  0  0  0  0  0  0  0
   10.1191   -0.5724    0.0000 H   0  0  0  0  0  0  0  0  0  0  0  0
    9.7206   -1.2627    0.0000 H   0  0  0  0  0  0  0  0  0  0  0  0
   16.0643   -2.4650    0.0000 H   0  0  0  0  0  0  0  0  0  0  0  0
   15.5273    1.4650    0.0000 H   0  0  0  0  0  0  0  0  0  0  0  0
   16.9303   -1.9650    0.0000 H   0  0  0  0  0  0  0  0  0  0  0  0
    4.8059    2.6550    0.0000 H   0  0  0  0  0  0  0  0  0  0  0  0
    3.4030    2.4650    0.0000 H   0  0  0  0  0  0  0  0  0  0  0  0
    5.1350    2.4650    0.0000 H   0  0  0  0  0  0  0  0  0  0  0  0
    3.4030    0.2250    0.0000 H   0  0  0  0  0  0  0  0  0  0  0  0
    5.1350    0.2250    0.0000 H   0  0  0  0  0  0  0  0  0  0  0  0
   14.1244   -2.3450    0.0000 H   0  0  0  0  0  0  0  0  0  0  0  0
   14.6613   -3.2750    0.0000 H   0  0  0  0  0  0  0  0  0  0  0  0
    2.3249    0.9276    0.0000 H   0  0  0  0  0  0  0  0  0  0  0  0
    1.9264    0.2373    0.0000 H   0  0  0  0  0  0  0  0  0  0  0  0
    3.7320    3.6550    0.0000 H   0  0  0  0  0  0  0  0  0  0  0  0
    2.0000    2.0350    0.0000 H   0  0  0  0  0  0  0  0  0  0  0  0
   14.9713    1.8081    0.0000 H   0  0  0  0  0  0  0  0  0  0  0  0
   15.1982    2.6550    0.0000 H   0  0  0  0  0  0  0  0  0  0  0  0
   14.3513    2.8819    0.0000 H   0  0  0  0  0  0  0  0  0  0  0  0
   11.8172    3.3450    0.0000 H   0  0  0  0  0  0  0  0  0  0  0  0
   11.1972    3.9650    0.0000 H   0  0  0  0  0  0  0  0  0  0  0  0
   10.5772    3.3450    0.0000 H   0  0  0  0  0  0  0  0  0  0  0  0
    6.0010    2.9650    0.0000 H   0  0  0  0  0  0  0  0  0  0  0  0
    9.1360    2.1550    0.0000 H   0  0  0  0  0  0  0  0  0  0  0  0
    6.3301    2.1550    0.0000 H   0  0  0  0  0  0  0  0  0  0  0  0
    7.7331    2.9650    0.0000 H   0  0  0  0  0  0  0  0  0  0  0  0
    2.0000   -0.9650    0.0000 H   0  0  0  0  0  0  0  0  0  0  0  0
    8.8451   -3.6550    0.0000 H   0  0  0  0  0  0  0  0  0  0  0  0
    9.4651   -4.2750    0.0000 H   0  0  0  0  0  0  0  0  0  0  0  0
   10.0851   -3.6550    0.0000 H   0  0  0  0  0  0  0  0  0  0  0  0
    7.1962   -0.9650    0.0000 H   0  0  0  0  0  0  0  0  0  0  0  0
 26  1  1  6  0  0  0
 28  1  1  6  0  0  0
  2 26  1  0  0  0  0
  2 29  1  0  0  0  0
  3 28  1  0  0  0  0
  3 35  1  0  0  0  0
 22  4  1  6  0  0  0
  4 72  1  0  0  0  0
 24  5  1  1  0  0  0
  5 44  1  0  0  0  0
 25  6  1  6  0  0  0
  6 45  1  0  0  0  0
 27  7  1  1  0  0  0
  7 43  1  0  0  0  0
  8 32  1  0  0  0  0
  8 36  1  0  0  0  0
  9 33  1  0  0  0  0
  9 52  1  0  0  0  0
 10 40  1  0  0  0  0
 10 41  1  0  0  0  0
 11 36  2  0  0  0  0
 41 12  1  6  0  0  0
 12 48  1  0  0  0  0
 37 13  1  6  0  0  0
 13 82  1  0  0  0  0
 38 14  1  1  0  0  0
 14 83  1  0  0  0  0
 39 15  1  1  0  0  0
 15 90  1  0  0  0  0
 16 43  2  0  0  0  0
 17 44  2  0  0  0  0
 18 45  2  0  0  0  0
 19 46  1  0  0  0  0
 19 94  1  0  0  0  0
 20 51  1  0  0  0  0
 20 98  1  0  0  0  0
 21 52  2  0  0  0  0
 22 23  1  0  0  0  0
 22 30  1  0  0  0  0
 22 31  1  0  0  0  0
 23 28  1  0  0  0  0
 23 34  1  1  0  0  0
 23 57  1  0  0  0  0
 24 25  1  0  0  0  0
 24 26  1  0  0  0  0
 24 58  1  0  0  0  0
 25 27  1  0  0  0  0
 25 59  1  0  0  0  0
 26 60  1  0  0  0  0
 27 29  1  0  0  0  0
 27 61  1  0  0  0  0
 28 62  1  0  0  0  0
 29 33  1  6  0  0  0
 29 63  1  0  0  0  0
 30 32  1  0  0  0  0
 30 64  1  0  0  0  0
 30 65  1  0  0  0  0
 31 35  2  0  0  0  0
 31 36  1  0  0  0  0
 32 66  1  0  0  0  0
 32 67  1  0  0  0  0
 33 68  1  0  0  0  0
 33 69  1  0  0  0  0
 34 42  2  0  0  0  0
 34 70  1  0  0  0  0
 35 71  1  0  0  0  0
 37 38  1  0  0  0  0
 37 39  1  0  0  0  0
 37 73  1  0  0  0  0
 38 40  1  0  0  0  0
 38 74  1  0  0  0  0
 39 41  1  0  0  0  0
 39 75  1  0  0  0  0
 40 46  1  6  0  0  0
 40 76  1  0  0  0  0
 41 77  1  0  0  0  0
 42 78  1  0  0  0  0
 42 79  1  0  0  0  0
 43 47  1  0  0  0  0
 44 49  1  0  0  0  0
 45 50  1  0  0  0  0
 46 80  1  0  0  0  0
 46 81  1  0  0  0  0
 47 51  2  0  0  0  0
 47 53  1  0  0  0  0
 48 51  1  0  0  0  0
 48 54  2  0  0  0  0
 49 84  1  0  0  0  0
 49 85  1  0  0  0  0
 49 86  1  0  0  0  0
 50 87  1  0  0  0  0
 50 88  1  0  0  0  0
 50 89  1  0  0  0  0
 52 56  1  0  0  0  0
 53 55  2  0  0  0  0
 53 91  1  0  0  0  0
 54 55  1  0  0  0  0
 54 92  1  0  0  0  0
 55 93  1  0  0  0  0
 56 95  1  0  0  0  0
 56 96  1  0  0  0  0
 56 97  1  0  0  0  0
M  END
> <PUBCHEM_COMPOUND_CID>
46174003

> <PUBCHEM_COMPOUND_CANONICALIZED>
1

> <PUBCHEM_CACTVS_COMPLEXITY>
1500

> <PUBCHEM_CACTVS_HBOND_ACCEPTOR>
21

> <PUBCHEM_CACTVS_HBOND_DONOR>
6

> <PUBCHEM_CACTVS_ROTATABLE_BOND>
16

> <PUBCHEM_CACTVS_SUBSKEYS>
AAADcfB8PgAAAAAAAAAAAAAAAAAAAAAAAAA0SJECAAAAAACBAAAAGgAACAAADVSwmAMyDoAABgCIAiDSCAACCAAkIAAIiAEGiMgdNzaGNRqieWOl4BEPuYfK7DyOgAABAAAIQAAAAAIAABCAAAAAAAAAAA==

> <PUBCHEM_IUPAC_OPENEYE_NAME>
[(2R,3R,4S,5R,6S)-6-[[(3S,4R,4aR)-4a-hydroxy-8-oxo-4-vinyl-3,4,5,6-tetrahydropyrano[3,4-c]pyran-3-yl]oxy]-4,5-diacetoxy-2-(acetoxymethyl)tetrahydropyran-3-yl] 2-hydroxy-3-[(2S,3R,4S,5S,6R)-3,4,5-trihydroxy-6-(hydroxymethyl)tetrahydropyran-2-yl]oxy-benzoate

> <PUBCHEM_IUPAC_CAS_NAME>
2-hydroxy-3-[[(2S,3R,4S,5S,6R)-3,4,5-trihydroxy-6-(hydroxymethyl)-2-oxanyl]oxy]benzoic acid [(2R,3R,4S,5R,6S)-4,5-diacetyloxy-2-(acetyloxymethyl)-6-[[(3S,4R,4aR)-4-ethenyl-4a-hydroxy-8-oxo-3,4,5,6-tetrahydropyrano[3,4-c]pyran-3-yl]oxy]-3-oxanyl] ester

> <PUBCHEM_IUPAC_NAME>
[(2R,3R,4S,5R,6S)-4,5-diacetyloxy-2-(acetyloxymethyl)-6-[[(3S,4R,4aR)-4-ethenyl-4a-hydroxy-8-oxo-3,4,5,6-tetrahydropyrano[3,4-c]pyran-3-yl]oxy]oxan-3-yl] 2-hydroxy-3-[(2S,3R,4S,5S,6R)-3,4,5-trihydroxy-6-(hydroxymethyl)oxan-2-yl]oxybenzoate

> <PUBCHEM_IUPAC_SYSTEMATIC_NAME>
[(2R,3R,4S,5R,6S)-4,5-diacetyloxy-2-(acetyloxymethyl)-6-[[(3S,4R,4aR)-4-ethenyl-4a-oxidanyl-8-oxidanylidene-3,4,5,6-tetrahydropyrano[3,4-c]pyran-3-yl]oxy]oxan-3-yl] 3-[(2S,3R,4S,5S,6R)-6-(hydroxymethyl)-3,4,5-tris(oxidanyl)oxan-2-yl]oxy-2-oxidanyl-benzoate

> <PUBCHEM_IUPAC_TRADITIONAL_NAME>
2-hydroxy-3-[(2S,3R,4S,5S,6R)-3,4,5-trihydroxy-6-methylol-tetrahydropyran-2-yl]oxy-benzoic acid [(2R,3R,4S,5R,6S)-6-[[(3S,4R,4aR)-4a-hydroxy-8-keto-4-vinyl-3,4,5,6-tetrahydropyrano[3,4-c]pyran-3-yl]oxy]-4,5-diacetoxy-2-(acetoxymethyl)tetrahydropyran-3-yl] ester

> <PUBCHEM_IUPAC_INCHI>
InChI=1S/C35H42O21/c1-5-18-32(49-12-19-31(45)47-10-9-35(18,19)46)56-34-29(51-16(4)39)28(50-15(3)38)27(22(54-34)13-48-14(2)37)55-30(44)17-7-6-8-20(23(17)40)52-33-26(43)25(42)24(41)21(11-36)53-33/h5-8,12,18,21-22,24-29,32-34,36,40-43,46H,1,9-11,13H2,2-4H3/t18-,21+,22+,24+,25-,26+,27+,28-,29+,32-,33+,34-,35+/m0/s1

> <PUBCHEM_IUPAC_INCHIKEY>
XINNQYBYFFJBAM-OBOKACSWSA-N

> <PUBCHEM_XLOGP3_AA>
-0.6

> <PUBCHEM_EXACT_MASS>
798.221858

> <PUBCHEM_MOLECULAR_FORMULA>
C35H42O21

> <PUBCHEM_MOLECULAR_WEIGHT>
798.69538

> <PUBCHEM_OPENEYE_CAN_SMILES>
CC(=O)OCC1C(C(C(C(O1)OC2C(C3(CCOC(=O)C3=CO2)O)C=C)OC(=O)C)OC(=O)C)OC(=O)C4=C(C(=CC=C4)OC5C(C(C(C(O5)CO)O)O)O)O

> <PUBCHEM_OPENEYE_ISO_SMILES>
CC(=O)OC[C@@H]1[C@H]([C@@H]([C@H]([C@@H](O1)O[C@H]2[C@@H]([C@@]3(CCOC(=O)C3=CO2)O)C=C)OC(=O)C)OC(=O)C)OC(=O)C4=C(C(=CC=C4)O[C@H]5[C@@H]([C@H]([C@@H]([C@H](O5)CO)O)O)O)O

> <PUBCHEM_CACTVS_TPSA>
299

> <PUBCHEM_MONOISOTOPIC_WEIGHT>
798.221858

> <PUBCHEM_TOTAL_CHARGE>
0

> <PUBCHEM_HEAVY_ATOM_COUNT>
56

> <PUBCHEM_ATOM_DEF_STEREO_COUNT>
13

> <PUBCHEM_ATOM_UDEF_STEREO_COUNT>
0

> <PUBCHEM_BOND_DEF_STEREO_COUNT>
0

> <PUBCHEM_BOND_UDEF_STEREO_COUNT>
0

> <PUBCHEM_ISOTOPIC_ATOM_COUNT>
0

> <PUBCHEM_COMPONENT_COUNT>
1

> <PUBCHEM_CACTVS_TAUTO_COUNT>
4

> <PUBCHEM_COORDINATE_TYPE>
1
5
255

> <PUBCHEM_BONDANNOTATIONS>
26  1  6
28  1  6
41  12  6
37  13  6
38  14  5
39  15  5
23  34  5
29  33  6
22  4  6
40  46  6
47  51  8
47  53  8
48  51  8
48  54  8
24  5  5
53  55  8
54  55  8
25  6  6
27  7  5

$$$$

