17395321
  -OEChem-06241222493D

 39 41  0     0  0  0  0  0  0999 V2000
    4.1496    1.4764   -0.4668 O   0  0  0  0  0  0  0  0  0  0  0  0
    4.7008   -1.3763    0.2512 O   0  0  0  0  0  0  0  0  0  0  0  0
   -0.7402    1.8718    0.3676 O   0  0  0  0  0  0  0  0  0  0  0  0
   -3.3084   -2.4592   -0.3312 O   0  0  0  0  0  0  0  0  0  0  0  0
   -1.5266   -0.3136    0.0033 N   0  0  0  0  0  0  0  0  0  0  0  0
    6.2988    0.3402   -0.3932 C   0  0  0  0  0  0  0  0  0  0  0  0
    5.3735    1.3565    0.2580 C   0  0  0  0  0  0  0  0  0  0  0  0
    5.5673   -0.9320   -0.7925 C   0  0  0  0  0  0  0  0  0  0  0  0
    3.2027    0.5459   -0.1202 C   0  0  0  0  0  0  0  0  0  0  0  0
    3.4635   -0.7834    0.2397 C   0  0  0  0  0  0  0  0  0  0  0  0
    0.8316    0.1673    0.2198 C   0  0  0  0  0  0  0  0  0  0  0  0
    1.8811    1.0056   -0.1552 C   0  0  0  0  0  0  0  0  0  0  0  0
    2.4078   -1.6107    0.6397 C   0  0  0  0  0  0  0  0  0  0  0  0
    1.0960   -1.1375    0.6276 C   0  0  0  0  0  0  0  0  0  0  0  0
   -0.5367    0.6591    0.1963 C   0  0  0  0  0  0  0  0  0  0  0  0
   -2.9099   -0.1118   -0.0332 C   0  0  0  0  0  0  0  0  0  0  0  0
   -3.7819   -1.1878   -0.1999 C   0  0  0  0  0  0  0  0  0  0  0  0
   -5.6647    0.3231   -0.1020 C   0  0  0  0  0  0  0  0  0  0  0  0
   -3.4153    1.1815    0.0994 C   0  0  0  0  0  0  0  0  0  0  0  0
   -5.1594   -0.9703   -0.2344 C   0  0  0  0  0  0  0  0  0  0  0  0
   -4.7926    1.3990    0.0648 C   0  0  0  0  0  0  0  0  0  0  0  0
   -7.1372    0.5562   -0.1389 C   0  0  0  0  0  0  0  0  0  0  0  0
    7.1077    0.1079    0.3090 H   0  0  0  0  0  0  0  0  0  0  0  0
    6.7623    0.7692   -1.2890 H   0  0  0  0  0  0  0  0  0  0  0  0
    5.1860    1.1188    1.3141 H   0  0  0  0  0  0  0  0  0  0  0  0
    5.8572    2.3397    0.2504 H   0  0  0  0  0  0  0  0  0  0  0  0
    5.0185   -0.8075   -1.7360 H   0  0  0  0  0  0  0  0  0  0  0  0
    6.3001   -1.7269   -0.9714 H   0  0  0  0  0  0  0  0  0  0  0  0
    1.6851    2.0306   -0.4638 H   0  0  0  0  0  0  0  0  0  0  0  0
    2.6013   -2.6344    0.9512 H   0  0  0  0  0  0  0  0  0  0  0  0
    0.3196   -1.8135    0.9731 H   0  0  0  0  0  0  0  0  0  0  0  0
   -1.2453   -1.2770   -0.1557 H   0  0  0  0  0  0  0  0  0  0  0  0
   -2.8244    2.0756    0.2233 H   0  0  0  0  0  0  0  0  0  0  0  0
   -5.8410   -1.8072   -0.3662 H   0  0  0  0  0  0  0  0  0  0  0  0
   -5.1756    2.4112    0.1653 H   0  0  0  0  0  0  0  0  0  0  0  0
   -7.4687    0.7018   -1.1717 H   0  0  0  0  0  0  0  0  0  0  0  0
   -7.6813   -0.2928    0.2890 H   0  0  0  0  0  0  0  0  0  0  0  0
   -7.4136    1.4405    0.4454 H   0  0  0  0  0  0  0  0  0  0  0  0
   -4.0585   -3.0691   -0.4367 H   0  0  0  0  0  0  0  0  0  0  0  0
  1  7  1  0  0  0  0
  1  9  1  0  0  0  0
  2  8  1  0  0  0  0
  2 10  1  0  0  0  0
  3 15  2  0  0  0  0
  4 17  1  0  0  0  0
  4 39  1  0  0  0  0
  5 15  1  0  0  0  0
  5 16  1  0  0  0  0
  5 32  1  0  0  0  0
  6  7  1  0  0  0  0
  6  8  1  0  0  0  0
  6 23  1  0  0  0  0
  6 24  1  0  0  0  0
  7 25  1  0  0  0  0
  7 26  1  0  0  0  0
  8 27  1  0  0  0  0
  8 28  1  0  0  0  0
  9 10  2  0  0  0  0
  9 12  1  0  0  0  0
 10 13  1  0  0  0  0
 11 12  2  0  0  0  0
 11 14  1  0  0  0  0
 11 15  1  0  0  0  0
 12 29  1  0  0  0  0
 13 14  2  0  0  0  0
 13 30  1  0  0  0  0
 14 31  1  0  0  0  0
 16 17  2  0  0  0  0
 16 19  1  0  0  0  0
 17 20  1  0  0  0  0
 18 20  2  0  0  0  0
 18 21  1  0  0  0  0
 18 22  1  0  0  0  0
 19 21  2  0  0  0  0
 19 33  1  0  0  0  0
 20 34  1  0  0  0  0
 21 35  1  0  0  0  0
 22 36  1  0  0  0  0
 22 37  1  0  0  0  0
 22 38  1  0  0  0  0
M  END
> <PUBCHEM_COMPOUND_CID>
17395321

> <PUBCHEM_CONFORMER_RMSD>
0.6

> <PUBCHEM_CONFORMER_DIVERSEORDER>
2
30
32
1
26
9
11
20
25
31
12
34
21
16
23
19
14
10
5
6
33
4
17
22
28
13
24
7
3
18
29
15
8
27

> <PUBCHEM_MMFF94_PARTIAL_CHARGES>
29
1 -0.36
10 0.08
11 0.09
12 -0.15
13 -0.15
14 -0.15
15 0.54
16 0.12
17 0.08
18 -0.14
19 -0.15
2 -0.36
20 -0.15
21 -0.15
22 0.14
29 0.15
3 -0.57
30 0.15
31 0.15
32 0.37
33 0.15
34 0.15
35 0.15
39 0.45
4 -0.53
5 -0.55
7 0.28
8 0.28
9 0.08

> <PUBCHEM_EFFECTIVE_ROTOR_COUNT>
4

> <PUBCHEM_PHARMACOPHORE_FEATURES>
8
1 1 acceptor
1 2 acceptor
1 3 acceptor
1 4 donor
1 5 donor
6 16 17 18 19 20 21 rings
6 9 10 11 12 13 14 rings
7 1 2 6 7 8 9 10 rings

> <PUBCHEM_HEAVY_ATOM_COUNT>
22

> <PUBCHEM_ATOM_DEF_STEREO_COUNT>
0

> <PUBCHEM_ATOM_UDEF_STEREO_COUNT>
0

> <PUBCHEM_BOND_DEF_STEREO_COUNT>
0

> <PUBCHEM_BOND_UDEF_STEREO_COUNT>
0

> <PUBCHEM_ISOTOPIC_ATOM_COUNT>
0

> <PUBCHEM_COMPONENT_COUNT>
1

> <PUBCHEM_CACTVS_TAUTO_COUNT>
18

> <PUBCHEM_CONFORMER_ID>
01096E7900000002

> <PUBCHEM_MMFF94_ENERGY>
82.7693

> <PUBCHEM_FEATURE_SELFOVERLAP>
40.612

> <PUBCHEM_SHAPE_FINGERPRINT>
10595046 47 18411138021742186841
10968037 39 18412545410238538325
11315181 36 17530680988073137745
11524674 6 16443347572387317535
12107183 9 17618505819033932329
12236239 1 18410012147599840749
12516196 113 17967536765713728345
12788726 201 17822571732880857241
12916748 109 10303815401469353763
13167823 11 18411420604862846271
13288520 33 18333732408385975869
13533116 47 17749671895292277494
14251764 18 18333731313211409441
14341114 176 18410570682606606061
14528608 73 18412825772496952950
14617045 38 18411979183046105403
14933364 13 18410290311251939109
15183329 4 18408885161277398771
15196674 1 18411138021779311530
15250474 111 18339378404067731499
15788980 27 18341891887631937851
17834072 33 18410012143310141706
17844677 252 18335413573695698704
18608769 82 18272083843763302091
18681886 176 18334581209449874304
200 152 18407760343559877104
20645477 70 18338234968225377702
20681677 155 18413672400819485931
21267235 1 18410287004765275307
221357 26 18408321112224124596
23035841 295 18408603681852766051
23402539 116 18410014316901268780
23402655 69 18412827984094133906
23536379 177 18408603677499757040
23559900 14 18261400996818381305
239999 70 18334010601891783950
29717793 49 18040713688505910780
300161 21 18412550903069186713
3004659 81 18412544331969755342
34797466 226 17676201360472936988
3545911 37 18412826889246641033
4073 2 18059851714979858362
4214541 1 18410293623083122465
4325135 7 18413951689620679204
4340502 62 15698001838394399122
4463277 17 18410012143531843729
5104073 3 18411420609157600154
542803 24 17489869336483895741
6328613 192 18335419071686406377
7495541 125 17458349611308055032

> <PUBCHEM_SHAPE_MULTIPOLES>
424.29
17.01
1.81
0.71
4.5
0.34
0
-1.33
-2.37
0.06
0.04
-0.3
0.07
-0.36

> <PUBCHEM_SHAPE_SELFOVERLAP>
923.379

> <PUBCHEM_SHAPE_VOLUME>
230.1

> <PUBCHEM_COORDINATE_TYPE>
2
5
10

$$$$

