163911
  -OEChem-07051213153D

 38 41  0     1  0  0  0  0  0999 V2000
   -1.2325   -1.4110   -0.6900 O   0  0  0  0  0  0  0  0  0  0  0  0
   -2.1552   -0.2419    1.1927 O   0  0  0  0  0  0  0  0  0  0  0  0
   -0.4438    1.6880    2.3938 O   0  0  0  0  0  0  0  0  0  0  0  0
   -1.7854    2.1046   -1.5981 O   0  0  0  0  0  0  0  0  0  0  0  0
    1.0904   -1.9475    0.9739 O   0  0  0  0  0  0  0  0  0  0  0  0
   -1.6326   -2.5092    1.3379 O   0  0  0  0  0  0  0  0  0  0  0  0
    1.3989   -1.8510   -1.6580 O   0  0  0  0  0  0  0  0  0  0  0  0
    1.9062    0.8155    0.8631 N   0  0  0  0  0  0  0  0  0  0  0  0
    2.9310    0.0054   -1.1440 N   0  0  0  0  0  0  0  0  0  0  0  0
    4.1659    0.9954    0.5638 N   0  0  0  0  0  0  0  0  0  0  0  0
    0.5552    0.4266    0.5256 C   0  0  2  0  0  0  0  0  0  0  0  0
    0.4541    0.3353   -1.0193 C   0  0  2  0  0  0  0  0  0  0  0  0
   -0.9638   -0.1728   -1.3718 C   0  0  2  0  0  0  0  0  0  0  0  0
   -0.4656    1.5018    0.9792 C   0  0  1  0  0  0  0  0  0  0  0  0
   -1.8869    1.0334    0.5854 C   0  0  1  0  0  0  0  0  0  0  0  0
   -2.0274    0.8628   -0.9393 C   0  0  1  0  0  0  0  0  0  0  0  0
    0.1730   -0.8930    1.2262 C   0  0  1  0  0  0  0  0  0  0  0  0
   -1.2434   -1.2667    0.7466 C   0  0  1  0  0  0  0  0  0  0  0  0
    1.6240   -0.4463   -1.6644 C   0  0  2  0  0  0  0  0  0  0  0  0
   -3.4388    0.4048   -1.3303 C   0  0  0  0  0  0  0  0  0  0  0  0
    2.9767    0.5659    0.0267 C   0  0  0  0  0  0  0  0  0  0  0  0
    0.5672    1.3560   -1.4173 H   0  0  0  0  0  0  0  0  0  0  0  0
   -1.0252   -0.3534   -2.4512 H   0  0  0  0  0  0  0  0  0  0  0  0
   -0.2328    2.4732    0.5266 H   0  0  0  0  0  0  0  0  0  0  0  0
   -2.6258    1.7457    0.9702 H   0  0  0  0  0  0  0  0  0  0  0  0
    0.1638   -0.7638    2.3160 H   0  0  0  0  0  0  0  0  0  0  0  0
    1.6191   -0.1743   -2.7274 H   0  0  0  0  0  0  0  0  0  0  0  0
    2.0711    1.1975    1.7898 H   0  0  0  0  0  0  0  0  0  0  0  0
   -4.1791    1.1584   -1.0381 H   0  0  0  0  0  0  0  0  0  0  0  0
   -3.5217    0.2960   -2.4178 H   0  0  0  0  0  0  0  0  0  0  0  0
   -3.7215   -0.5473   -0.8715 H   0  0  0  0  0  0  0  0  0  0  0  0
   -1.0997    2.3726    2.6098 H   0  0  0  0  0  0  0  0  0  0  0  0
   -1.8126    1.9454   -2.5571 H   0  0  0  0  0  0  0  0  0  0  0  0
    1.9615   -1.6584    1.2942 H   0  0  0  0  0  0  0  0  0  0  0  0
   -2.5295   -2.6954    1.0126 H   0  0  0  0  0  0  0  0  0  0  0  0
    2.2205   -2.2660   -1.9707 H   0  0  0  0  0  0  0  0  0  0  0  0
    4.2074    1.4361    1.4762 H   0  0  0  0  0  0  0  0  0  0  0  0
    5.0393    0.8817    0.0609 H   0  0  0  0  0  0  0  0  0  0  0  0
  1 13  1  0  0  0  0
  1 18  1  0  0  0  0
  2 15  1  0  0  0  0
  2 18  1  0  0  0  0
  3 14  1  0  0  0  0
  3 32  1  0  0  0  0
  4 16  1  0  0  0  0
  4 33  1  0  0  0  0
  5 17  1  0  0  0  0
  5 34  1  0  0  0  0
  6 18  1  0  0  0  0
  6 35  1  0  0  0  0
  7 19  1  0  0  0  0
  7 36  1  0  0  0  0
  8 11  1  0  0  0  0
  8 21  1  0  0  0  0
  8 28  1  0  0  0  0
  9 19  1  0  0  0  0
  9 21  2  0  0  0  0
 10 21  1  0  0  0  0
 10 37  1  0  0  0  0
 10 38  1  0  0  0  0
 11 12  1  0  0  0  0
 11 14  1  0  0  0  0
 11 17  1  0  0  0  0
 12 13  1  0  0  0  0
 12 19  1  0  0  0  0
 12 22  1  0  0  0  0
 13 16  1  0  0  0  0
 13 23  1  0  0  0  0
 14 15  1  0  0  0  0
 14 24  1  0  0  0  0
 15 16  1  0  0  0  0
 15 25  1  0  0  0  0
 16 20  1  0  0  0  0
 17 18  1  0  0  0  0
 17 26  1  0  0  0  0
 19 27  1  0  0  0  0
 20 29  1  0  0  0  0
 20 30  1  0  0  0  0
 20 31  1  0  0  0  0
M  END
> <PUBCHEM_COMPOUND_CID>
163911

> <PUBCHEM_CONFORMER_RMSD>
0.6

> <PUBCHEM_CONFORMER_DIVERSEORDER>
1

> <PUBCHEM_MMFF94_PARTIAL_CHARGES>
27
1 -0.56
10 -0.85
11 0.37
13 0.28
14 0.28
15 0.28
16 0.28
17 0.28
18 0.84
19 0.53
2 -0.56
21 0.55
28 0.4
3 -0.68
32 0.4
33 0.4
34 0.4
35 0.4
36 0.4
37 0.4
38 0.4
4 -0.68
5 -0.68
6 -0.68
7 -0.68
8 -0.82
9 -0.7

> <PUBCHEM_EFFECTIVE_ROTOR_COUNT>
1.4

> <PUBCHEM_PHARMACOPHORE_FEATURES>
20
1 1 acceptor
1 10 donor
1 2 acceptor
1 3 acceptor
1 3 donor
1 4 acceptor
1 4 donor
1 5 acceptor
1 5 donor
1 6 acceptor
1 6 donor
1 7 acceptor
1 7 donor
1 8 donor
4 8 9 10 21 cation
6 1 11 12 13 17 18 rings
6 1 2 13 15 16 18 rings
6 11 12 13 14 15 16 rings
6 2 11 14 15 17 18 rings
6 8 9 11 12 19 21 rings

> <PUBCHEM_HEAVY_ATOM_COUNT>
21

> <PUBCHEM_ATOM_DEF_STEREO_COUNT>
8

> <PUBCHEM_ATOM_UDEF_STEREO_COUNT>
1

> <PUBCHEM_BOND_DEF_STEREO_COUNT>
0

> <PUBCHEM_BOND_UDEF_STEREO_COUNT>
0

> <PUBCHEM_ISOTOPIC_ATOM_COUNT>
0

> <PUBCHEM_COMPONENT_COUNT>
1

> <PUBCHEM_CACTVS_TAUTO_COUNT>
3

> <PUBCHEM_CONFORMER_ID>
0002804700000001

> <PUBCHEM_MMFF94_ENERGY>
81.2314

> <PUBCHEM_FEATURE_SELFOVERLAP>
115.113

> <PUBCHEM_SHAPE_FINGERPRINT>
10863032 1 17988376964919816859
10948715 1 17560536099841985581
12011746 2 12679191564636044669
12138202 97 18410297990621712230
12423570 1 9895031654460912417
12491281 212 17313655061654981584
13024252 1 12535357782891334185
13172582 1 13542465388512452020
13583140 156 18195549021012299008
14181834 199 17771360938992297362
144361 1 16153709850989262367
14817 1 12953132911301558097
15309172 13 13110969742330657200
15852999 172 18342177795057362622
15906896 17 16558740205346769409
16945 1 18131061628349105349
18981168 100 17559093587698887548
19765921 60 18264778833798520761
20511035 2 16699478955979506915
21501502 16 17023741354807713548
22344851 262 17275113833406077710
23236772 104 15574706967767908566
23402539 116 18130243578887037181
23419403 2 17829614963686586945
23559900 14 18342460327556019680
2748010 2 17316218933961231720
4340502 62 18271807960485278877

> <PUBCHEM_SHAPE_MULTIPOLES>
376.14
4.27
1.94
1.93
2.46
0.98
-0.26
-1.47
0.46
-0.98
-0.05
0.16
-0.24
0.5

> <PUBCHEM_SHAPE_SELFOVERLAP>
837.739

> <PUBCHEM_SHAPE_VOLUME>
187.8

> <PUBCHEM_COORDINATE_TYPE>
2
5
10

$$$$

