9504
  -OEChem-06261203463D

 19 19  0     0  0  0  0  0  0999 V2000
    4.2198   -0.0776    0.0057 F   0  0  0  0  0  0  0  0  0  0  0  0
    1.8801   -1.2984   -0.0022 O   0  0  0  0  0  0  0  0  0  0  0  0
    0.7188    0.7529   -0.0009 N   0  0  0  0  0  0  0  0  0  0  0  0
   -0.6238    0.3732   -0.0001 C   0  0  0  0  0  0  0  0  0  0  0  0
   -1.6236    1.3460    0.0003 C   0  0  0  0  0  0  0  0  0  0  0  0
   -0.9664   -0.9790    0.0000 C   0  0  0  0  0  0  0  0  0  0  0  0
   -2.9659    0.9667    0.0008 C   0  0  0  0  0  0  0  0  0  0  0  0
   -2.3088   -1.3583    0.0004 C   0  0  0  0  0  0  0  0  0  0  0  0
   -3.3085   -0.3854    0.0008 C   0  0  0  0  0  0  0  0  0  0  0  0
    1.8514   -0.0722   -0.0020 C   0  0  0  0  0  0  0  0  0  0  0  0
    3.1270    0.7321   -0.0028 C   0  0  0  0  0  0  0  0  0  0  0  0
    0.8858    1.7570   -0.0011 H   0  0  0  0  0  0  0  0  0  0  0  0
   -1.3712    2.4034    0.0001 H   0  0  0  0  0  0  0  0  0  0  0  0
   -0.2500   -1.7885   -0.0003 H   0  0  0  0  0  0  0  0  0  0  0  0
   -3.7444    1.7241    0.0011 H   0  0  0  0  0  0  0  0  0  0  0  0
   -2.5772   -2.4108    0.0005 H   0  0  0  0  0  0  0  0  0  0  0  0
   -4.3536   -0.6807    0.0011 H   0  0  0  0  0  0  0  0  0  0  0  0
    3.1682    1.3659    0.8874 H   0  0  0  0  0  0  0  0  0  0  0  0
    3.1736    1.3546   -0.9006 H   0  0  0  0  0  0  0  0  0  0  0  0
  1 11  1  0  0  0  0
  2 10  2  0  0  0  0
  3  4  1  0  0  0  0
  3 10  1  0  0  0  0
  3 12  1  0  0  0  0
  4  5  2  0  0  0  0
  4  6  1  0  0  0  0
  5  7  1  0  0  0  0
  5 13  1  0  0  0  0
  6  8  2  0  0  0  0
  6 14  1  0  0  0  0
  7  9  2  0  0  0  0
  7 15  1  0  0  0  0
  8  9  1  0  0  0  0
  8 16  1  0  0  0  0
  9 17  1  0  0  0  0
 10 11  1  0  0  0  0
 11 18  1  0  0  0  0
 11 19  1  0  0  0  0
M  END
> <PUBCHEM_COMPOUND_CID>
9504

> <PUBCHEM_CONFORMER_RMSD>
0.6

> <PUBCHEM_CONFORMER_DIVERSEORDER>
1
4
2
3

> <PUBCHEM_MMFF94_PARTIAL_CHARGES>
17
1 -0.34
10 0.57
11 0.4
12 0.37
13 0.15
14 0.15
15 0.15
16 0.15
17 0.15
2 -0.57
3 -0.55
4 0.12
5 -0.15
6 -0.15
7 -0.15
8 -0.15
9 -0.15

> <PUBCHEM_EFFECTIVE_ROTOR_COUNT>
3

> <PUBCHEM_PHARMACOPHORE_FEATURES>
3
1 2 acceptor
1 3 donor
6 4 5 6 7 8 9 rings

> <PUBCHEM_HEAVY_ATOM_COUNT>
11

> <PUBCHEM_ATOM_DEF_STEREO_COUNT>
0

> <PUBCHEM_ATOM_UDEF_STEREO_COUNT>
0

> <PUBCHEM_BOND_DEF_STEREO_COUNT>
0

> <PUBCHEM_BOND_UDEF_STEREO_COUNT>
0

> <PUBCHEM_ISOTOPIC_ATOM_COUNT>
0

> <PUBCHEM_COMPONENT_COUNT>
1

> <PUBCHEM_CACTVS_TAUTO_COUNT>
2

> <PUBCHEM_CONFORMER_ID>
0000252000000001

> <PUBCHEM_MMFF94_ENERGY>
26.5942

> <PUBCHEM_FEATURE_SELFOVERLAP>
15.223

> <PUBCHEM_SHAPE_FINGERPRINT>
10608611 8 18408609158047195520
11062470 55 18410856551049867981
12932764 1 17240494605925108707
13024252 1 15626224615700717721
13380535 76 18410856572614823494
14144814 61 18411982481053169320
14325111 11 18410574023964535781
15775835 57 18341610459947353241
20201158 50 18335138695688138055
20645464 45 18040991847730925983
20871998 184 18187641345890498879
23402539 116 18187090546800081829
23402655 69 18263378039469497125
23463225 33 18342178903338149242
23552423 10 18200593588438389517
3312278 4 18410572872955485683
369184 2 18333732429338520897
6333449 129 18408325484162832085
75552 356 18411417284953164911

> <PUBCHEM_SHAPE_MULTIPOLES>
208.25
6.14
1.38
0.59
4.47
0.1
0
-0.11
-0.01
-0.62
0
-0.07
-0.01
0

> <PUBCHEM_SHAPE_SELFOVERLAP>
428.111

> <PUBCHEM_SHAPE_VOLUME>
119

> <PUBCHEM_COORDINATE_TYPE>
2
5
10

$$$$

