447123
  -OEChem-07051213042D

 41 40  0     1  0  0  0  0  0999 V2000
    7.7331   -0.5950    0.0000 S   0  0  0  0  0  0  0  0  0  0  0  0
    6.8671   -0.0950    0.0000 O   0  0  0  0  0  0  0  0  0  0  0  0
    9.4651    2.4050    0.0000 O   0  0  0  0  0  0  0  0  0  0  0  0
    2.5369    1.4050    0.0000 O   0  0  0  0  0  0  0  0  0  0  0  0
    3.4030   -0.0950    0.0000 O   0  0  0  0  0  0  0  0  0  0  0  0
    6.8671   -2.0950    0.0000 O   0  0  0  0  0  0  0  0  0  0  0  0
   12.9292    1.4050    0.0000 O   0  0  0  0  0  0  0  0  0  0  0  0
   12.0632   -0.0950    0.0000 O   0  0  0  0  0  0  0  0  0  0  0  0
    7.7331    1.4050    0.0000 N   0  0  0  0  0  0  0  0  0  0  0  0
   10.3312    0.9050    0.0000 N   0  0  0  0  0  0  0  0  0  0  0  0
    4.2690    2.4050    0.0000 N   0  0  0  0  0  0  0  0  0  0  0  0
    8.5991    0.9050    0.0000 C   0  0  1  0  0  0  0  0  0  0  0  0
    5.1350    0.9050    0.0000 C   0  0  0  0  0  0  0  0  0  0  0  0
    6.0010    1.4050    0.0000 C   0  0  0  0  0  0  0  0  0  0  0  0
    4.2690    1.4050    0.0000 C   0  0  1  0  0  0  0  0  0  0  0  0
    6.8671    0.9050    0.0000 C   0  0  0  0  0  0  0  0  0  0  0  0
    8.5991   -0.0950    0.0000 C   0  0  0  0  0  0  0  0  0  0  0  0
    9.4651    1.4050    0.0000 C   0  0  0  0  0  0  0  0  0  0  0  0
    3.4030    0.9050    0.0000 C   0  0  0  0  0  0  0  0  0  0  0  0
   11.1972    1.4050    0.0000 C   0  0  0  0  0  0  0  0  0  0  0  0
    7.7331   -1.5950    0.0000 C   0  0  0  0  0  0  0  0  0  0  0  0
   12.0632    0.9050    0.0000 C   0  0  0  0  0  0  0  0  0  0  0  0
    8.5991    1.5250    0.0000 H   0  0  0  0  0  0  0  0  0  0  0  0
    4.7365    0.4301    0.0000 H   0  0  0  0  0  0  0  0  0  0  0  0
    5.5335    0.4301    0.0000 H   0  0  0  0  0  0  0  0  0  0  0  0
    6.3996    1.8800    0.0000 H   0  0  0  0  0  0  0  0  0  0  0  0
    5.6025    1.8800    0.0000 H   0  0  0  0  0  0  0  0  0  0  0  0
    4.8059    1.7150    0.0000 H   0  0  0  0  0  0  0  0  0  0  0  0
    7.7331    2.0250    0.0000 H   0  0  0  0  0  0  0  0  0  0  0  0
    8.8112   -0.6776    0.0000 H   0  0  0  0  0  0  0  0  0  0  0  0
    9.2097    0.0127    0.0000 H   0  0  0  0  0  0  0  0  0  0  0  0
   10.3312    0.2850    0.0000 H   0  0  0  0  0  0  0  0  0  0  0  0
    3.7320    2.7150    0.0000 H   0  0  0  0  0  0  0  0  0  0  0  0
    4.8059    2.7150    0.0000 H   0  0  0  0  0  0  0  0  0  0  0  0
   11.5957    1.8800    0.0000 H   0  0  0  0  0  0  0  0  0  0  0  0
   10.7987    1.8800    0.0000 H   0  0  0  0  0  0  0  0  0  0  0  0
    7.9451   -2.1776    0.0000 H   0  0  0  0  0  0  0  0  0  0  0  0
    8.3437   -1.4873    0.0000 H   0  0  0  0  0  0  0  0  0  0  0  0
    2.0000    1.0950    0.0000 H   0  0  0  0  0  0  0  0  0  0  0  0
    6.8671   -2.7150    0.0000 H   0  0  0  0  0  0  0  0  0  0  0  0
   13.4662    1.0950    0.0000 H   0  0  0  0  0  0  0  0  0  0  0  0
  1 17  1  0  0  0  0
  1 21  1  0  0  0  0
  2 16  2  0  0  0  0
  3 18  2  0  0  0  0
  4 19  1  0  0  0  0
  4 39  1  0  0  0  0
  5 19  2  0  0  0  0
  6 21  1  0  0  0  0
  6 40  1  0  0  0  0
  7 22  1  0  0  0  0
  7 41  1  0  0  0  0
  8 22  2  0  0  0  0
 12  9  1  6  0  0  0
  9 16  1  0  0  0  0
  9 29  1  0  0  0  0
 10 18  1  0  0  0  0
 10 20  1  0  0  0  0
 10 32  1  0  0  0  0
 15 11  1  1  0  0  0
 11 33  1  0  0  0  0
 11 34  1  0  0  0  0
 12 17  1  0  0  0  0
 12 18  1  0  0  0  0
 12 23  1  0  0  0  0
 13 14  1  0  0  0  0
 13 15  1  0  0  0  0
 13 24  1  0  0  0  0
 13 25  1  0  0  0  0
 14 16  1  0  0  0  0
 14 26  1  0  0  0  0
 14 27  1  0  0  0  0
 15 19  1  0  0  0  0
 15 28  1  0  0  0  0
 17 30  1  0  0  0  0
 17 31  1  0  0  0  0
 20 22  1  0  0  0  0
 20 35  1  0  0  0  0
 20 36  1  0  0  0  0
 21 37  1  0  0  0  0
 21 38  1  0  0  0  0
M  END
> <PUBCHEM_COMPOUND_CID>
447123

> <PUBCHEM_COMPOUND_CANONICALIZED>
1

> <PUBCHEM_CACTVS_COMPLEXITY>
419

> <PUBCHEM_CACTVS_HBOND_ACCEPTOR>
9

> <PUBCHEM_CACTVS_HBOND_DONOR>
6

> <PUBCHEM_CACTVS_ROTATABLE_BOND>
11

> <PUBCHEM_CACTVS_SUBSKEYS>
AAADceBzOABAAAAAAAAAAAAAAAAAAAAAAAAAAAAAAAAAAAAAAAAAHgQQCAAACCjFwAaACALAAggIAAGQGAAAAAAAABAAAIGIAAACUBIggCAUQAAEFgCQAACcFwIAAAAAAAAAAAAAAAAAAAAAAAAAAAAAAA==

> <PUBCHEM_IUPAC_OPENEYE_NAME>
(2S)-2-amino-5-[[(1R)-2-(carboxymethylamino)-1-(hydroxymethylsulfanylmethyl)-2-oxo-ethyl]amino]-5-oxo-pentanoic acid

> <PUBCHEM_IUPAC_CAS_NAME>
(2S)-2-amino-5-[[(2R)-1-(carboxymethylamino)-3-(hydroxymethylthio)-1-oxopropan-2-yl]amino]-5-oxopentanoic acid

> <PUBCHEM_IUPAC_NAME>
(2S)-2-amino-5-[[(2R)-1-(carboxymethylamino)-3-(hydroxymethylsulfanyl)-1-oxopropan-2-yl]amino]-5-oxopentanoic acid

> <PUBCHEM_IUPAC_SYSTEMATIC_NAME>
(2S)-2-azanyl-5-[[(2R)-3-(hydroxymethylsulfanyl)-1-(2-hydroxy-2-oxoethylamino)-1-oxidanylidene-propan-2-yl]amino]-5-oxidanylidene-pentanoic acid

> <PUBCHEM_IUPAC_TRADITIONAL_NAME>
(2S)-2-amino-5-[[(1R)-2-(carboxymethylamino)-2-keto-1-[(methylolthio)methyl]ethyl]amino]-5-keto-valeric acid

> <PUBCHEM_IUPAC_INCHI>
InChI=1S/C11H19N3O7S/c12-6(11(20)21)1-2-8(16)14-7(4-22-5-15)10(19)13-3-9(17)18/h6-7,15H,1-5,12H2,(H,13,19)(H,14,16)(H,17,18)(H,20,21)/t6-,7-/m0/s1

> <PUBCHEM_IUPAC_INCHIKEY>
PIUSLWSYOYFRFR-BQBZGAKWSA-N

> <PUBCHEM_XLOGP3_AA>
-4.7

> <PUBCHEM_EXACT_MASS>
337.094371

> <PUBCHEM_MOLECULAR_FORMULA>
C11H19N3O7S

> <PUBCHEM_MOLECULAR_WEIGHT>
337.34946

> <PUBCHEM_OPENEYE_CAN_SMILES>
C(CC(=O)NC(CSCO)C(=O)NCC(=O)O)C(C(=O)O)N

> <PUBCHEM_OPENEYE_ISO_SMILES>
C(CC(=O)N[C@@H](CSCO)C(=O)NCC(=O)O)[C@@H](C(=O)O)N

> <PUBCHEM_CACTVS_TPSA>
204

> <PUBCHEM_MONOISOTOPIC_WEIGHT>
337.094371

> <PUBCHEM_TOTAL_CHARGE>
0

> <PUBCHEM_HEAVY_ATOM_COUNT>
22

> <PUBCHEM_ATOM_DEF_STEREO_COUNT>
2

> <PUBCHEM_ATOM_UDEF_STEREO_COUNT>
0

> <PUBCHEM_BOND_DEF_STEREO_COUNT>
0

> <PUBCHEM_BOND_UDEF_STEREO_COUNT>
0

> <PUBCHEM_ISOTOPIC_ATOM_COUNT>
0

> <PUBCHEM_COMPONENT_COUNT>
1

> <PUBCHEM_CACTVS_TAUTO_COUNT>
4

> <PUBCHEM_COORDINATE_TYPE>
1
5
255

> <PUBCHEM_BONDANNOTATIONS>
15  11  5
12  9  6

$$$$

