276389
  -OEChem-07051213003D

 75 79  0     1  0  0  0  0  0999 V2000
   -0.1827    0.5272   -0.9235 O   0  0  0  0  0  0  0  0  0  0  0  0
   -1.5396   -0.9832   -3.2576 O   0  0  0  0  0  0  0  0  0  0  0  0
    5.7692    0.5123   -0.5871 O   0  0  0  0  0  0  0  0  0  0  0  0
    5.4738    1.0916    1.7319 O   0  0  0  0  0  0  0  0  0  0  0  0
   -1.1812    1.6492   -2.6696 O   0  0  0  0  0  0  0  0  0  0  0  0
   -3.0359    2.6982   -1.1023 O   0  0  0  0  0  0  0  0  0  0  0  0
   -5.5040   -0.7444    0.7749 O   0  0  0  0  0  0  0  0  0  0  0  0
    0.6941    3.6858    0.3077 O   0  0  0  0  0  0  0  0  0  0  0  0
   -1.2142    4.7789   -0.3935 O   0  0  0  0  0  0  0  0  0  0  0  0
   -0.3205   -2.5988    0.7981 N   0  0  1  0  0  0  0  0  0  0  0  0
    0.3487   -2.6308   -0.5198 C   0  0  1  0  0  0  0  0  0  0  0  0
    1.2775   -1.4800   -1.0336 C   0  0  1  0  0  0  0  0  0  0  0  0
    1.0568   -3.9939   -0.5404 C   0  0  0  0  0  0  0  0  0  0  0  0
    0.3624   -0.4704   -1.7691 C   0  0  1  0  0  0  0  0  0  0  0  0
   -0.8171   -3.9798    0.9956 C   0  0  0  0  0  0  0  0  0  0  0  0
    0.2032   -4.9001    0.3397 C   0  0  0  0  0  0  0  0  0  0  0  0
   -0.7255   -2.5562   -1.6079 C   0  0  0  0  0  0  0  0  0  0  0  0
    2.3407   -0.8246   -0.1791 C   0  0  0  0  0  0  0  0  0  0  0  0
    0.5356   -2.2350    1.9317 C   0  0  0  0  0  0  0  0  0  0  0  0
   -0.7109   -1.3829   -2.2513 C   0  0  0  0  0  0  0  0  0  0  0  0
    0.9056   -0.7593    1.9384 C   0  0  0  0  0  0  0  0  0  0  0  0
    2.1735   -0.4766    1.1818 C   0  0  0  0  0  0  0  0  0  0  0  0
    3.5581   -0.4961   -0.8220 C   0  0  0  0  0  0  0  0  0  0  0  0
    3.2139    0.1803    1.8752 C   0  0  0  0  0  0  0  0  0  0  0  0
    4.5522    0.1384   -0.1083 C   0  0  0  0  0  0  0  0  0  0  0  0
    4.3842    0.4684    1.2084 C   0  0  0  0  0  0  0  0  0  0  0  0
   -1.1333    1.3425   -1.4844 C   0  0  0  0  0  0  0  0  0  0  0  0
   -2.1336    1.8201   -0.4315 C   0  0  2  0  0  0  0  0  0  0  0  0
   -2.8181   -1.5887   -3.1436 C   0  0  0  0  0  0  0  0  0  0  0  0
   -2.9437    0.6415    0.1492 C   0  0  0  0  0  0  0  0  0  0  0  0
    6.3511    1.1143    0.5873 C   0  0  0  0  0  0  0  0  0  0  0  0
   -1.3747    2.6064    0.6514 C   0  0  0  0  0  0  0  0  0  0  0  0
   -3.9695    1.0625    1.2206 C   0  0  0  0  0  0  0  0  0  0  0  0
   -4.7745   -0.1073    1.8258 C   0  0  0  0  0  0  0  0  0  0  0  0
   -0.6494    3.8209    0.1188 C   0  0  0  0  0  0  0  0  0  0  0  0
   -3.8772   -1.1504    2.4955 C   0  0  0  0  0  0  0  0  0  0  0  0
   -5.7883    0.4369    2.8379 C   0  0  0  0  0  0  0  0  0  0  0  0
    1.4931    4.7829   -0.1457 C   0  0  0  0  0  0  0  0  0  0  0  0
    1.8535   -1.9722   -1.8402 H   0  0  0  0  0  0  0  0  0  0  0  0
    1.1576   -4.4119   -1.5486 H   0  0  0  0  0  0  0  0  0  0  0  0
    2.0647   -3.9205   -0.1130 H   0  0  0  0  0  0  0  0  0  0  0  0
    0.9135    0.0017   -2.5919 H   0  0  0  0  0  0  0  0  0  0  0  0
   -0.9937   -4.2421    2.0451 H   0  0  0  0  0  0  0  0  0  0  0  0
   -1.7883   -4.0844    0.4962 H   0  0  0  0  0  0  0  0  0  0  0  0
   -0.2938   -5.6762   -0.2519 H   0  0  0  0  0  0  0  0  0  0  0  0
    0.8307   -5.3954    1.0888 H   0  0  0  0  0  0  0  0  0  0  0  0
   -1.4148   -3.3670   -1.8011 H   0  0  0  0  0  0  0  0  0  0  0  0
   -0.0477   -2.3983    2.8484 H   0  0  0  0  0  0  0  0  0  0  0  0
    1.4246   -2.8735    2.0151 H   0  0  0  0  0  0  0  0  0  0  0  0
    0.0900   -0.1400    1.5555 H   0  0  0  0  0  0  0  0  0  0  0  0
    1.0310   -0.4534    2.9857 H   0  0  0  0  0  0  0  0  0  0  0  0
    3.7171   -0.7316   -1.8707 H   0  0  0  0  0  0  0  0  0  0  0  0
    3.1028    0.4593    2.9188 H   0  0  0  0  0  0  0  0  0  0  0  0
   -2.7923   -2.6234   -3.5026 H   0  0  0  0  0  0  0  0  0  0  0  0
   -3.5035   -1.0379   -3.7958 H   0  0  0  0  0  0  0  0  0  0  0  0
   -3.2250   -1.5405   -2.1281 H   0  0  0  0  0  0  0  0  0  0  0  0
   -3.4818    0.1588   -0.6729 H   0  0  0  0  0  0  0  0  0  0  0  0
   -2.2533   -0.0989    0.5647 H   0  0  0  0  0  0  0  0  0  0  0  0
    7.2716    0.5752    0.8393 H   0  0  0  0  0  0  0  0  0  0  0  0
    6.6040    2.1562    0.3593 H   0  0  0  0  0  0  0  0  0  0  0  0
   -0.6718    1.9667    1.1943 H   0  0  0  0  0  0  0  0  0  0  0  0
   -2.0620    3.0168    1.3998 H   0  0  0  0  0  0  0  0  0  0  0  0
   -3.4629    1.5793    2.0423 H   0  0  0  0  0  0  0  0  0  0  0  0
   -4.6665    1.7768    0.7642 H   0  0  0  0  0  0  0  0  0  0  0  0
   -2.5316    3.4361   -1.4836 H   0  0  0  0  0  0  0  0  0  0  0  0
   -4.4836   -1.9280    2.9749 H   0  0  0  0  0  0  0  0  0  0  0  0
   -3.2346   -0.6987    3.2581 H   0  0  0  0  0  0  0  0  0  0  0  0
   -3.2471   -1.6747    1.7700 H   0  0  0  0  0  0  0  0  0  0  0  0
   -6.4149   -0.3705    3.2339 H   0  0  0  0  0  0  0  0  0  0  0  0
   -6.4708    1.1498    2.3612 H   0  0  0  0  0  0  0  0  0  0  0  0
   -5.2933    0.9363    3.6772 H   0  0  0  0  0  0  0  0  0  0  0  0
   -4.8808   -1.2548    0.2312 H   0  0  0  0  0  0  0  0  0  0  0  0
    1.3694    4.9211   -1.2240 H   0  0  0  0  0  0  0  0  0  0  0  0
    1.2251    5.6955    0.3951 H   0  0  0  0  0  0  0  0  0  0  0  0
    2.5408    4.5475    0.0599 H   0  0  0  0  0  0  0  0  0  0  0  0
  1 14  1  0  0  0  0
  1 27  1  0  0  0  0
  2 20  1  0  0  0  0
  2 29  1  0  0  0  0
  3 25  1  0  0  0  0
  3 31  1  0  0  0  0
  4 26  1  0  0  0  0
  4 31  1  0  0  0  0
  5 27  2  0  0  0  0
  6 28  1  0  0  0  0
  6 65  1  0  0  0  0
  7 34  1  0  0  0  0
  7 72  1  0  0  0  0
  8 35  1  0  0  0  0
  8 38  1  0  0  0  0
  9 35  2  0  0  0  0
 10 11  1  0  0  0  0
 10 15  1  0  0  0  0
 10 19  1  0  0  0  0
 11 12  1  0  0  0  0
 11 13  1  0  0  0  0
 11 17  1  0  0  0  0
 12 14  1  0  0  0  0
 12 18  1  0  0  0  0
 12 39  1  0  0  0  0
 13 16  1  0  0  0  0
 13 40  1  0  0  0  0
 13 41  1  0  0  0  0
 14 20  1  0  0  0  0
 14 42  1  0  0  0  0
 15 16  1  0  0  0  0
 15 43  1  0  0  0  0
 15 44  1  0  0  0  0
 16 45  1  0  0  0  0
 16 46  1  0  0  0  0
 17 20  2  0  0  0  0
 17 47  1  0  0  0  0
 18 22  1  0  0  0  0
 18 23  2  0  0  0  0
 19 21  1  0  0  0  0
 19 48  1  0  0  0  0
 19 49  1  0  0  0  0
 21 22  1  0  0  0  0
 21 50  1  0  0  0  0
 21 51  1  0  0  0  0
 22 24  2  0  0  0  0
 23 25  1  0  0  0  0
 23 52  1  0  0  0  0
 24 26  1  0  0  0  0
 24 53  1  0  0  0  0
 25 26  2  0  0  0  0
 27 28  1  0  0  0  0
 28 30  1  0  0  0  0
 28 32  1  0  0  0  0
 29 54  1  0  0  0  0
 29 55  1  0  0  0  0
 29 56  1  0  0  0  0
 30 33  1  0  0  0  0
 30 57  1  0  0  0  0
 30 58  1  0  0  0  0
 31 59  1  0  0  0  0
 31 60  1  0  0  0  0
 32 35  1  0  0  0  0
 32 61  1  0  0  0  0
 32 62  1  0  0  0  0
 33 34  1  0  0  0  0
 33 63  1  0  0  0  0
 33 64  1  0  0  0  0
 34 36  1  0  0  0  0
 34 37  1  0  0  0  0
 36 66  1  0  0  0  0
 36 67  1  0  0  0  0
 36 68  1  0  0  0  0
 37 69  1  0  0  0  0
 37 70  1  0  0  0  0
 37 71  1  0  0  0  0
 38 73  1  0  0  0  0
 38 74  1  0  0  0  0
 38 75  1  0  0  0  0
M  END
> <PUBCHEM_COMPOUND_CID>
276389

> <PUBCHEM_CONFORMER_RMSD>
1.2

> <PUBCHEM_CONFORMER_DIVERSEORDER>
1
2
84
94
34
88
85
49
3
7
42
56
89
25
69
37
19
60
98
36
74
45
97
62
35
99
72
66
82
15
53
44
101
24
77
81
9
31
91
13
64
40
47
29
59
41
11
61
86
79
70
57
71
16
46
95
27
58
52
87
78
39
26
38
73
5
18
67
68
51
80
30
28
50
22
63
23
17
90
32
33
8
83
92
10
4
75
43
12
6
96
54
100
55
14
65
48
20
21
93
76

> <PUBCHEM_MMFF94_PARTIAL_CHARGES>
37
1 -0.43
10 -0.81
11 0.41
12 0.14
14 0.42
15 0.27
17 -0.29
18 -0.14
19 0.27
2 -0.36
20 -0.06
21 0.14
22 -0.14
23 -0.15
24 -0.15
25 0.08
26 0.08
27 0.66
28 0.34
29 0.28
3 -0.36
31 0.56
32 0.06
34 0.28
35 0.66
38 0.28
4 -0.36
47 0.15
5 -0.57
52 0.15
53 0.15
6 -0.68
65 0.4
7 -0.68
72 0.4
8 -0.43
9 -0.57

> <PUBCHEM_EFFECTIVE_ROTOR_COUNT>
11.8

> <PUBCHEM_PHARMACOPHORE_FEATURES>
16
1 10 cation
1 2 acceptor
1 3 acceptor
1 4 acceptor
1 5 acceptor
1 6 acceptor
1 6 donor
1 7 acceptor
1 7 donor
1 9 acceptor
3 34 36 37 hydrophobe
5 10 11 13 15 16 rings
5 11 12 14 17 20 rings
5 3 4 25 26 31 rings
6 18 22 23 24 25 26 rings
7 10 11 12 18 19 21 22 rings

> <PUBCHEM_HEAVY_ATOM_COUNT>
38

> <PUBCHEM_ATOM_DEF_STEREO_COUNT>
4

> <PUBCHEM_ATOM_UDEF_STEREO_COUNT>
0

> <PUBCHEM_BOND_DEF_STEREO_COUNT>
0

> <PUBCHEM_BOND_UDEF_STEREO_COUNT>
0

> <PUBCHEM_ISOTOPIC_ATOM_COUNT>
0

> <PUBCHEM_COMPONENT_COUNT>
1

> <PUBCHEM_CACTVS_TAUTO_COUNT>
1

> <PUBCHEM_CONFORMER_ID>
000437A500000001

> <PUBCHEM_MMFF94_ENERGY>
116.3778

> <PUBCHEM_FEATURE_SELFOVERLAP>
81.506

> <PUBCHEM_SHAPE_FINGERPRINT>
10006869 2 18191590967745393149
10032420 55 17489041374358985153
10165383 225 17385437752031849488
1100329 8 18267302023731080621
11115154 58 16520223076561135975
11578080 2 18048865584079773177
12156800 1 17830141672421433343
12608794 3 18266750086121318209
12758862 65 17842526631905754673
12788726 201 18194149381079937318
12977781 61 16055212382881336587
13636023 51 18045209703674763153
14068700 675 12679459768153533910
15219462 58 17909259527332400127
17809404 112 18129365164292853251
20764821 26 18053391998541881672
21756936 100 18341342141088375560
21927370 108 18121513357778851606
23419403 2 17245502903065639982
23559900 14 17698430371640034199
3493558 16 17758952628260931963
35225 105 18130242487960114562
392239 28 18343294847352551217
439807 62 15265626493544090305
469060 322 18264510441381494135
5252454 2 17749682886081510986
6703917 75 18265588001911377542
9896288 288 18192711370295349712

> <PUBCHEM_SHAPE_MULTIPOLES>
724.22
9.43
5.63
2.8
4.16
1.48
-0.93
3.95
6.76
-0.56
-0.53
-2.79
-1.02
0.37

> <PUBCHEM_SHAPE_SELFOVERLAP>
1560.561

> <PUBCHEM_SHAPE_VOLUME>
398.6

> <PUBCHEM_COORDINATE_TYPE>
2
5
10

$$$$

