17395642
  -OEChem-06241222512D

 58 61  0     1  0  0  0  0  0999 V2000
    2.8924    5.3364    0.0000 Cl  0  0  0  0  0  0  0  0  0  0  0  0
    5.2531    1.4087    0.0000 O   0  0  0  0  0  0  0  0  0  0  0  0
    5.5637    2.3592    0.0000 O   0  0  0  0  0  0  0  0  0  0  0  0
    4.6318   -0.4923    0.0000 N   0  0  0  0  0  0  0  0  0  0  0  0
    4.6783   -4.7471    0.0000 N   0  0  0  0  0  0  0  0  0  0  0  0
    3.6067    1.9468    0.0000 N   0  0  0  0  0  0  0  0  0  0  0  0
    4.9889   -2.1871    0.0000 C   0  0  3  0  0  0  0  0  0  0  0  0
    4.6783   -3.1377    0.0000 C   0  0  0  0  0  0  0  0  0  0  0  0
    4.3211   -1.4428    0.0000 C   0  0  0  0  0  0  0  0  0  0  0  0
    5.9674   -1.9809    0.0000 C   0  0  0  0  0  0  0  0  0  0  0  0
    3.7320   -3.4424    0.0000 C   0  0  0  0  0  0  0  0  0  0  0  0
    3.7320   -4.4424    0.0000 C   0  0  0  0  0  0  0  0  0  0  0  0
    5.2619   -3.9424    0.0000 C   0  0  0  0  0  0  0  0  0  0  0  0
    3.9639    0.2520    0.0000 C   0  0  3  0  0  0  0  0  0  0  0  0
    2.8660   -2.9424    0.0000 C   0  0  0  0  0  0  0  0  0  0  0  0
    6.6353   -2.7252    0.0000 C   0  0  0  0  0  0  0  0  0  0  0  0
    6.2781   -1.0304    0.0000 C   0  0  0  0  0  0  0  0  0  0  0  0
    2.8660   -4.9424    0.0000 C   0  0  0  0  0  0  0  0  0  0  0  0
    2.9854    0.0458    0.0000 C   0  0  0  0  0  0  0  0  0  0  0  0
    4.2746    1.2025    0.0000 C   0  0  0  0  0  0  0  0  0  0  0  0
    2.0000   -3.4424    0.0000 C   0  0  0  0  0  0  0  0  0  0  0  0
    2.0000   -4.4424    0.0000 C   0  0  0  0  0  0  0  0  0  0  0  0
    7.6138   -2.5190    0.0000 C   0  0  0  0  0  0  0  0  0  0  0  0
    7.2566   -0.8242    0.0000 C   0  0  0  0  0  0  0  0  0  0  0  0
    7.9244   -1.5685    0.0000 C   0  0  0  0  0  0  0  0  0  0  0  0
    3.9174    2.8973    0.0000 C   0  0  0  0  0  0  0  0  0  0  0  0
    4.8959    3.1035    0.0000 C   0  0  0  0  0  0  0  0  0  0  0  0
    3.2496    3.6416    0.0000 C   0  0  0  0  0  0  0  0  0  0  0  0
    5.2066    4.0541    0.0000 C   0  0  0  0  0  0  0  0  0  0  0  0
    3.5602    4.5922    0.0000 C   0  0  0  0  0  0  0  0  0  0  0  0
    4.5387    4.7984    0.0000 C   0  0  0  0  0  0  0  0  0  0  0  0
    6.5422    2.5655    0.0000 C   0  0  0  0  0  0  0  0  0  0  0  0
    5.1815   -1.5978    0.0000 H   0  0  0  0  0  0  0  0  0  0  0  0
    3.7742   -1.1508    0.0000 H   0  0  0  0  0  0  0  0  0  0  0  0
    3.9385   -1.9307    0.0000 H   0  0  0  0  0  0  0  0  0  0  0  0
    5.2384   -0.3645    0.0000 H   0  0  0  0  0  0  0  0  0  0  0  0
    5.8819   -3.9424    0.0000 H   0  0  0  0  0  0  0  0  0  0  0  0
    3.7713   -0.3373    0.0000 H   0  0  0  0  0  0  0  0  0  0  0  0
    4.8709   -5.3364    0.0000 H   0  0  0  0  0  0  0  0  0  0  0  0
    2.8660   -2.3224    0.0000 H   0  0  0  0  0  0  0  0  0  0  0  0
    6.4427   -3.3146    0.0000 H   0  0  0  0  0  0  0  0  0  0  0  0
    5.8640   -0.5689    0.0000 H   0  0  0  0  0  0  0  0  0  0  0  0
    2.8660   -5.5624    0.0000 H   0  0  0  0  0  0  0  0  0  0  0  0
    2.8575    0.6524    0.0000 H   0  0  0  0  0  0  0  0  0  0  0  0
    2.3787   -0.0821    0.0000 H   0  0  0  0  0  0  0  0  0  0  0  0
    3.1133   -0.5609    0.0000 H   0  0  0  0  0  0  0  0  0  0  0  0
    1.4631   -3.1324    0.0000 H   0  0  0  0  0  0  0  0  0  0  0  0
    1.4631   -4.7524    0.0000 H   0  0  0  0  0  0  0  0  0  0  0  0
    8.0279   -2.9805    0.0000 H   0  0  0  0  0  0  0  0  0  0  0  0
    7.4492   -0.2349    0.0000 H   0  0  0  0  0  0  0  0  0  0  0  0
    8.5311   -1.4406    0.0000 H   0  0  0  0  0  0  0  0  0  0  0  0
    3.0000    1.8190    0.0000 H   0  0  0  0  0  0  0  0  0  0  0  0
    2.6429    3.5138    0.0000 H   0  0  0  0  0  0  0  0  0  0  0  0
    5.8132    4.1819    0.0000 H   0  0  0  0  0  0  0  0  0  0  0  0
    4.7313    5.3877    0.0000 H   0  0  0  0  0  0  0  0  0  0  0  0
    6.6701    1.9588    0.0000 H   0  0  0  0  0  0  0  0  0  0  0  0
    7.1489    2.6933    0.0000 H   0  0  0  0  0  0  0  0  0  0  0  0
    6.4144    3.1721    0.0000 H   0  0  0  0  0  0  0  0  0  0  0  0
  1 30  1  0  0  0  0
  2 20  2  0  0  0  0
  3 27  1  0  0  0  0
  3 32  1  0  0  0  0
  4  9  1  0  0  0  0
  4 14  1  0  0  0  0
  4 36  1  0  0  0  0
  5 12  1  0  0  0  0
  5 13  1  0  0  0  0
  5 39  1  0  0  0  0
  6 20  1  0  0  0  0
  6 26  1  0  0  0  0
  6 52  1  0  0  0  0
  7  8  1  0  0  0  0
  7  9  1  0  0  0  0
  7 10  1  0  0  0  0
  7 33  1  0  0  0  0
  8 11  1  0  0  0  0
  8 13  2  0  0  0  0
  9 34  1  0  0  0  0
  9 35  1  0  0  0  0
 10 16  2  0  0  0  0
 10 17  1  0  0  0  0
 11 12  1  0  0  0  0
 11 15  2  0  0  0  0
 12 18  2  0  0  0  0
 13 37  1  0  0  0  0
 14 19  1  0  0  0  0
 14 20  1  0  0  0  0
 14 38  1  0  0  0  0
 15 21  1  0  0  0  0
 15 40  1  0  0  0  0
 16 23  1  0  0  0  0
 16 41  1  0  0  0  0
 17 24  2  0  0  0  0
 17 42  1  0  0  0  0
 18 22  1  0  0  0  0
 18 43  1  0  0  0  0
 19 44  1  0  0  0  0
 19 45  1  0  0  0  0
 19 46  1  0  0  0  0
 21 22  2  0  0  0  0
 21 47  1  0  0  0  0
 22 48  1  0  0  0  0
 23 25  2  0  0  0  0
 23 49  1  0  0  0  0
 24 25  1  0  0  0  0
 24 50  1  0  0  0  0
 25 51  1  0  0  0  0
 26 27  2  0  0  0  0
 26 28  1  0  0  0  0
 27 29  1  0  0  0  0
 28 30  2  0  0  0  0
 28 53  1  0  0  0  0
 29 31  2  0  0  0  0
 29 54  1  0  0  0  0
 30 31  1  0  0  0  0
 31 55  1  0  0  0  0
 32 56  1  0  0  0  0
 32 57  1  0  0  0  0
 32 58  1  0  0  0  0
M  END
> <PUBCHEM_COMPOUND_CID>
17395642

> <PUBCHEM_COMPOUND_CANONICALIZED>
1

> <PUBCHEM_CACTVS_COMPLEXITY>
600

> <PUBCHEM_CACTVS_HBOND_ACCEPTOR>
3

> <PUBCHEM_CACTVS_HBOND_DONOR>
3

> <PUBCHEM_CACTVS_ROTATABLE_BOND>
8

> <PUBCHEM_CACTVS_SUBSKEYS>
AAADceB7MAAEAAAAAAAAAAAAAAAAAWAAAAAwYMAAAAAAAFgB9AAAHgIQAAAADS7BniY+xvLJlACoAzV3VACCiCAxJyAI2aG/bpgOZuLFs7uVMChk1BHY6AeQwMAOgCAAAAICEAAAQAAABAQgAAAAAAAAAA==

> <PUBCHEM_IUPAC_OPENEYE_NAME>
N-(5-chloro-2-methoxy-phenyl)-2-[[2-(1H-indol-3-yl)-2-phenyl-ethyl]amino]propanamide

> <PUBCHEM_IUPAC_CAS_NAME>
N-(5-chloro-2-methoxyphenyl)-2-[[2-(1H-indol-3-yl)-2-phenylethyl]amino]propanamide

> <PUBCHEM_IUPAC_NAME>
N-(5-chloro-2-methoxyphenyl)-2-[[2-(1H-indol-3-yl)-2-phenylethyl]amino]propanamide

> <PUBCHEM_IUPAC_SYSTEMATIC_NAME>
N-(5-chloranyl-2-methoxy-phenyl)-2-[[2-(1H-indol-3-yl)-2-phenyl-ethyl]amino]propanamide

> <PUBCHEM_IUPAC_TRADITIONAL_NAME>
N-(5-chloro-2-methoxy-phenyl)-2-[[2-(1H-indol-3-yl)-2-phenyl-ethyl]amino]propionamide

> <PUBCHEM_IUPAC_INCHI>
InChI=1S/C26H26ClN3O2/c1-17(26(31)30-24-14-19(27)12-13-25(24)32-2)28-15-21(18-8-4-3-5-9-18)22-16-29-23-11-7-6-10-20(22)23/h3-14,16-17,21,28-29H,15H2,1-2H3,(H,30,31)

> <PUBCHEM_IUPAC_INCHIKEY>
LKQUJEYSMGDJAM-UHFFFAOYSA-N

> <PUBCHEM_XLOGP3_AA>
5.2

> <PUBCHEM_EXACT_MASS>
447.171355

> <PUBCHEM_MOLECULAR_FORMULA>
C26H26ClN3O2

> <PUBCHEM_MOLECULAR_WEIGHT>
447.95654

> <PUBCHEM_OPENEYE_CAN_SMILES>
CC(C(=O)NC1=C(C=CC(=C1)Cl)OC)NCC(C2=CC=CC=C2)C3=CNC4=CC=CC=C43

> <PUBCHEM_OPENEYE_ISO_SMILES>
CC(C(=O)NC1=C(C=CC(=C1)Cl)OC)NCC(C2=CC=CC=C2)C3=CNC4=CC=CC=C43

> <PUBCHEM_CACTVS_TPSA>
66.2

> <PUBCHEM_MONOISOTOPIC_WEIGHT>
447.171355

> <PUBCHEM_TOTAL_CHARGE>
0

> <PUBCHEM_HEAVY_ATOM_COUNT>
32

> <PUBCHEM_ATOM_DEF_STEREO_COUNT>
0

> <PUBCHEM_ATOM_UDEF_STEREO_COUNT>
2

> <PUBCHEM_BOND_DEF_STEREO_COUNT>
0

> <PUBCHEM_BOND_UDEF_STEREO_COUNT>
0

> <PUBCHEM_ISOTOPIC_ATOM_COUNT>
0

> <PUBCHEM_COMPONENT_COUNT>
1

> <PUBCHEM_CACTVS_TAUTO_COUNT>
3

> <PUBCHEM_COORDINATE_TYPE>
1
5
255

> <PUBCHEM_BONDANNOTATIONS>
10  16  8
10  17  8
11  12  8
11  15  8
12  18  8
14  19  3
15  21  8
16  23  8
17  24  8
18  22  8
21  22  8
23  25  8
24  25  8
26  27  8
26  28  8
27  29  8
28  30  8
29  31  8
30  31  8
5  12  8
5  13  8
7  9  3
8  11  8
8  13  8

$$$$

