440269
  -OEChem-07051212493D

 20 19  0     1  0  0  0  0  0999 V2000
   -1.8500   -1.2245    0.2805 O   0  0  0  0  0  0  0  0  0  0  0  0
    0.6403   -1.6865   -0.5902 O   0  0  0  0  0  0  0  0  0  0  0  0
    2.6688   -0.2317   -0.4670 O   0  0  0  0  0  0  0  0  0  0  0  0
    1.4670    1.4411    0.5508 O   0  0  0  0  0  0  0  0  0  0  0  0
   -0.9406   -0.1399    0.4556 C   0  0  1  0  0  0  0  0  0  0  0  0
   -1.4830    1.0765   -0.3134 C   0  0  0  0  0  0  0  0  0  0  0  0
   -0.8557    0.1654    1.9514 C   0  0  0  0  0  0  0  0  0  0  0  0
    0.4098   -0.5964   -0.0850 C   0  0  0  0  0  0  0  0  0  0  0  0
   -1.6268    0.8471   -1.8151 C   0  0  0  0  0  0  0  0  0  0  0  0
    1.5702    0.3487    0.0323 C   0  0  0  0  0  0  0  0  0  0  0  0
   -2.4808    1.3225    0.0734 H   0  0  0  0  0  0  0  0  0  0  0  0
   -0.8591    1.9621   -0.1536 H   0  0  0  0  0  0  0  0  0  0  0  0
   -0.3536   -0.6489    2.4872 H   0  0  0  0  0  0  0  0  0  0  0  0
   -1.8593    0.2498    2.3846 H   0  0  0  0  0  0  0  0  0  0  0  0
   -0.3188    1.0920    2.1713 H   0  0  0  0  0  0  0  0  0  0  0  0
   -0.6567    0.6650   -2.2872 H   0  0  0  0  0  0  0  0  0  0  0  0
   -2.0649    1.7324   -2.2873 H   0  0  0  0  0  0  0  0  0  0  0  0
   -2.2813   -0.0036   -2.0286 H   0  0  0  0  0  0  0  0  0  0  0  0
   -1.5586   -1.9579    0.8492 H   0  0  0  0  0  0  0  0  0  0  0  0
    3.4597    0.3440   -0.3932 H   0  0  0  0  0  0  0  0  0  0  0  0
  1  5  1  0  0  0  0
  1 19  1  0  0  0  0
  2  8  2  0  0  0  0
  3 10  1  0  0  0  0
  3 20  1  0  0  0  0
  4 10  2  0  0  0  0
  5  6  1  0  0  0  0
  5  7  1  0  0  0  0
  5  8  1  0  0  0  0
  6  9  1  0  0  0  0
  6 11  1  0  0  0  0
  6 12  1  0  0  0  0
  7 13  1  0  0  0  0
  7 14  1  0  0  0  0
  7 15  1  0  0  0  0
  8 10  1  0  0  0  0
  9 16  1  0  0  0  0
  9 17  1  0  0  0  0
  9 18  1  0  0  0  0
M  END
> <PUBCHEM_COMPOUND_CID>
440269

> <PUBCHEM_CONFORMER_RMSD>
0.6

> <PUBCHEM_CONFORMER_DIVERSEORDER>
2
22
5
16
7
20
24
19
12
21
8
17
9
15
1
11
4
23
18
3
13
6
10
14

> <PUBCHEM_MMFF94_PARTIAL_CHARGES>
9
1 -0.68
10 0.72
19 0.4
2 -0.57
20 0.5
3 -0.65
4 -0.57
5 0.34
8 0.51

> <PUBCHEM_EFFECTIVE_ROTOR_COUNT>
3

> <PUBCHEM_PHARMACOPHORE_FEATURES>
7
1 1 acceptor
1 1 donor
1 2 acceptor
1 3 acceptor
1 4 acceptor
1 9 hydrophobe
3 3 4 10 anion

> <PUBCHEM_HEAVY_ATOM_COUNT>
10

> <PUBCHEM_ATOM_DEF_STEREO_COUNT>
0

> <PUBCHEM_ATOM_UDEF_STEREO_COUNT>
1

> <PUBCHEM_BOND_DEF_STEREO_COUNT>
0

> <PUBCHEM_BOND_UDEF_STEREO_COUNT>
0

> <PUBCHEM_ISOTOPIC_ATOM_COUNT>
0

> <PUBCHEM_COMPONENT_COUNT>
1

> <PUBCHEM_CACTVS_TAUTO_COUNT>
1

> <PUBCHEM_CONFORMER_ID>
0006B7CD00000002

> <PUBCHEM_MMFF94_ENERGY>
15.3558

> <PUBCHEM_FEATURE_SELFOVERLAP>
35.599

> <PUBCHEM_SHAPE_FINGERPRINT>
13024252 1 15841557327358696098
137420 1 9220696169535235659
16945 1 18337401529425670573
18185500 45 17023191585955897308
21040471 1 17202498872909286085
23211744 25 17026319554998184693
24536 1 17895188943497503746
5084963 1 18341323393023430426
54338 74 16271649975260566301

> <PUBCHEM_SHAPE_MULTIPOLES>
182.32
2.66
1.5
1.35
1.09
0.02
-0.19
0.78
0.1
-1.05
0.28
0.2
-0.12
-0.16

> <PUBCHEM_SHAPE_SELFOVERLAP>
354

> <PUBCHEM_SHAPE_VOLUME>
110.1

> <PUBCHEM_COORDINATE_TYPE>
2
5
10

$$$$

