440466
  -OEChem-07051212492D

 77 80  0     1  0  0  0  0  0999 V2000
    2.5357   -2.5981    0.0000 O   0  0  0  0  0  0  0  0  0  0  0  0
    3.4831   -4.1473    0.0000 O   0  0  0  0  0  0  0  0  0  0  0  0
    5.2151   -4.1406    0.0000 O   0  0  0  0  0  0  0  0  0  0  0  0
    7.9288    0.4542    0.0000 C   0  0  1  0  0  0  0  0  0  0  0  0
    7.9288   -0.5458    0.0000 C   0  0  2  0  0  0  0  0  0  0  0  0
    6.1968   -0.5458    0.0000 C   0  0  2  0  0  0  0  0  0  0  0  0
    5.2868   -1.0526    0.0000 C   0  0  2  0  0  0  0  0  0  0  0  0
    8.8750    0.7590    0.0000 C   0  0  2  0  0  0  0  0  0  0  0  0
    7.0628   -1.0458    0.0000 C   0  0  0  0  0  0  0  0  0  0  0  0
    7.0628    0.9542    0.0000 C   0  0  0  0  0  0  0  0  0  0  0  0
    5.2787   -2.0942    0.0000 C   0  0  1  0  0  0  0  0  0  0  0  0
    6.1968    0.4542    0.0000 C   0  0  0  0  0  0  0  0  0  0  0  0
    8.8750   -0.8505    0.0000 C   0  0  0  0  0  0  0  0  0  0  0  0
    9.4586   -0.0458    0.0000 C   0  0  0  0  0  0  0  0  0  0  0  0
    4.3599   -0.4885    0.0000 C   0  0  0  0  0  0  0  0  0  0  0  0
    9.1857    1.7095    0.0000 C   0  0  1  0  0  0  0  0  0  0  0  0
    6.1808   -2.6150    0.0000 C   0  0  0  0  0  0  0  0  0  0  0  0
    4.3433   -2.6439    0.0000 C   0  0  1  0  0  0  0  0  0  0  0  0
    7.9288    1.4542    0.0000 C   0  0  0  0  0  0  0  0  0  0  0  0
    7.0789   -2.0873    0.0000 C   0  0  0  0  0  0  0  0  0  0  0  0
    5.2945   -0.0526    0.0000 C   0  0  0  0  0  0  0  0  0  0  0  0
    3.4120   -1.0165    0.0000 C   0  0  0  0  0  0  0  0  0  0  0  0
    3.4037   -2.1014    0.0000 C   0  0  2  0  0  0  0  0  0  0  0  0
   10.1642    1.9157    0.0000 C   0  0  0  0  0  0  0  0  0  0  0  0
    8.5179    2.4538    0.0000 C   0  0  0  0  0  0  0  0  0  0  0  0
    4.3472   -3.6439    0.0000 C   0  0  0  0  0  0  0  0  0  0  0  0
   10.4749    2.8662    0.0000 C   0  0  0  0  0  0  0  0  0  0  0  0
   11.4534    3.0724    0.0000 C   0  0  0  0  0  0  0  0  0  0  0  0
   11.7640    4.0230    0.0000 C   0  0  0  0  0  0  0  0  0  0  0  0
   12.7425    4.2292    0.0000 C   0  0  0  0  0  0  0  0  0  0  0  0
   11.0962    4.7673    0.0000 C   0  0  0  0  0  0  0  0  0  0  0  0
    8.0188   -1.3910    0.0000 H   0  0  0  0  0  0  0  0  0  0  0  0
    6.9329   -0.1208    0.0000 H   0  0  0  0  0  0  0  0  0  0  0  0
    9.7148    0.8908    0.0000 H   0  0  0  0  0  0  0  0  0  0  0  0
    7.4613    1.4292    0.0000 H   0  0  0  0  0  0  0  0  0  0  0  0
    6.6643    1.4292    0.0000 H   0  0  0  0  0  0  0  0  0  0  0  0
    5.2820   -2.9442    0.0000 H   0  0  0  0  0  0  0  0  0  0  0  0
    5.9847    1.0368    0.0000 H   0  0  0  0  0  0  0  0  0  0  0  0
    5.5862    0.3466    0.0000 H   0  0  0  0  0  0  0  0  0  0  0  0
    8.6240   -1.4174    0.0000 H   0  0  0  0  0  0  0  0  0  0  0  0
    9.4124   -1.1597    0.0000 H   0  0  0  0  0  0  0  0  0  0  0  0
    9.9195   -0.4605    0.0000 H   0  0  0  0  0  0  0  0  0  0  0  0
    9.9195    0.3690    0.0000 H   0  0  0  0  0  0  0  0  0  0  0  0
    4.7681   -0.0219    0.0000 H   0  0  0  0  0  0  0  0  0  0  0  0
    3.9700   -0.0065    0.0000 H   0  0  0  0  0  0  0  0  0  0  0  0
    9.3783    2.2988    0.0000 H   0  0  0  0  0  0  0  0  0  0  0  0
    5.7835   -3.0910    0.0000 H   0  0  0  0  0  0  0  0  0  0  0  0
    6.5818   -3.0879    0.0000 H   0  0  0  0  0  0  0  0  0  0  0  0
    3.8070   -2.9550    0.0000 H   0  0  0  0  0  0  0  0  0  0  0  0
    8.5488    1.4542    0.0000 H   0  0  0  0  0  0  0  0  0  0  0  0
    7.9288    2.0742    0.0000 H   0  0  0  0  0  0  0  0  0  0  0  0
    7.3088    1.4542    0.0000 H   0  0  0  0  0  0  0  0  0  0  0  0
    7.6193   -2.3910    0.0000 H   0  0  0  0  0  0  0  0  0  0  0  0
    5.9145   -0.0574    0.0000 H   0  0  0  0  0  0  0  0  0  0  0  0
    5.2993    0.5673    0.0000 H   0  0  0  0  0  0  0  0  0  0  0  0
    4.6745   -0.0479    0.0000 H   0  0  0  0  0  0  0  0  0  0  0  0
    3.2075   -0.4312    0.0000 H   0  0  0  0  0  0  0  0  0  0  0  0
    2.8004   -1.1179    0.0000 H   0  0  0  0  0  0  0  0  0  0  0  0
    2.8686   -1.7883    0.0000 H   0  0  0  0  0  0  0  0  0  0  0  0
   10.1848    1.2960    0.0000 H   0  0  0  0  0  0  0  0  0  0  0  0
   10.7780    1.8284    0.0000 H   0  0  0  0  0  0  0  0  0  0  0  0
    8.9793    2.8678    0.0000 H   0  0  0  0  0  0  0  0  0  0  0  0
    8.1038    2.9152    0.0000 H   0  0  0  0  0  0  0  0  0  0  0  0
    8.0564    2.0397    0.0000 H   0  0  0  0  0  0  0  0  0  0  0  0
   10.4543    3.4859    0.0000 H   0  0  0  0  0  0  0  0  0  0  0  0
    9.8611    2.9536    0.0000 H   0  0  0  0  0  0  0  0  0  0  0  0
    2.0000   -2.2860    0.0000 H   0  0  0  0  0  0  0  0  0  0  0  0
   11.4739    2.4528    0.0000 H   0  0  0  0  0  0  0  0  0  0  0  0
   12.0672    2.9851    0.0000 H   0  0  0  0  0  0  0  0  0  0  0  0
    3.4855   -4.7673    0.0000 H   0  0  0  0  0  0  0  0  0  0  0  0
   11.9567    4.6123    0.0000 H   0  0  0  0  0  0  0  0  0  0  0  0
   12.8704    3.6225    0.0000 H   0  0  0  0  0  0  0  0  0  0  0  0
   13.3492    4.3570    0.0000 H   0  0  0  0  0  0  0  0  0  0  0  0
   12.6147    4.8358    0.0000 H   0  0  0  0  0  0  0  0  0  0  0  0
   11.5577    5.1813    0.0000 H   0  0  0  0  0  0  0  0  0  0  0  0
   10.6821    5.2287    0.0000 H   0  0  0  0  0  0  0  0  0  0  0  0
   10.6347    4.3532    0.0000 H   0  0  0  0  0  0  0  0  0  0  0  0
 23  1  1  1  0  0  0
  1 67  1  0  0  0  0
  2 26  1  0  0  0  0
  2 70  1  0  0  0  0
  3 26  2  0  0  0  0
  4  5  1  0  0  0  0
  4  8  1  0  0  0  0
  4 10  1  0  0  0  0
  4 19  1  1  0  0  0
  5  9  1  0  0  0  0
  5 13  1  0  0  0  0
  5 32  1  6  0  0  0
  6  7  1  0  0  0  0
  6  9  1  0  0  0  0
  6 12  1  0  0  0  0
  6 33  1  6  0  0  0
  7 11  1  0  0  0  0
  7 15  1  0  0  0  0
  7 21  1  1  0  0  0
  8 14  1  0  0  0  0
  8 16  1  0  0  0  0
  8 34  1  6  0  0  0
  9 20  2  0  0  0  0
 10 12  1  0  0  0  0
 10 35  1  0  0  0  0
 10 36  1  0  0  0  0
 11 17  1  0  0  0  0
 11 18  1  0  0  0  0
 11 37  1  6  0  0  0
 12 38  1  0  0  0  0
 12 39  1  0  0  0  0
 13 14  1  0  0  0  0
 13 40  1  0  0  0  0
 13 41  1  0  0  0  0
 14 42  1  0  0  0  0
 14 43  1  0  0  0  0
 15 22  1  0  0  0  0
 15 44  1  0  0  0  0
 15 45  1  0  0  0  0
 16 24  1  0  0  0  0
 16 25  1  6  0  0  0
 16 46  1  0  0  0  0
 17 20  1  0  0  0  0
 17 47  1  0  0  0  0
 17 48  1  0  0  0  0
 18 23  1  0  0  0  0
 18 26  1  6  0  0  0
 18 49  1  0  0  0  0
 19 50  1  0  0  0  0
 19 51  1  0  0  0  0
 19 52  1  0  0  0  0
 20 53  1  0  0  0  0
 21 54  1  0  0  0  0
 21 55  1  0  0  0  0
 21 56  1  0  0  0  0
 22 23  1  0  0  0  0
 22 57  1  0  0  0  0
 22 58  1  0  0  0  0
 23 59  1  0  0  0  0
 24 27  1  0  0  0  0
 24 60  1  0  0  0  0
 24 61  1  0  0  0  0
 25 62  1  0  0  0  0
 25 63  1  0  0  0  0
 25 64  1  0  0  0  0
 27 28  1  0  0  0  0
 27 65  1  0  0  0  0
 27 66  1  0  0  0  0
 28 29  1  0  0  0  0
 28 68  1  0  0  0  0
 28 69  1  0  0  0  0
 29 30  1  0  0  0  0
 29 31  1  0  0  0  0
 29 71  1  0  0  0  0
 30 72  1  0  0  0  0
 30 73  1  0  0  0  0
 30 74  1  0  0  0  0
 31 75  1  0  0  0  0
 31 76  1  0  0  0  0
 31 77  1  0  0  0  0
M  END
> <PUBCHEM_COMPOUND_CID>
440466

> <PUBCHEM_COMPOUND_CANONICALIZED>
1

> <PUBCHEM_CACTVS_COMPLEXITY>
711

> <PUBCHEM_CACTVS_HBOND_ACCEPTOR>
3

> <PUBCHEM_CACTVS_HBOND_DONOR>
2

> <PUBCHEM_CACTVS_ROTATABLE_BOND>
6

> <PUBCHEM_CACTVS_SUBSKEYS>
AAADcfB4MAAAAAAAAAAAAAAAAAAAAYAAAAAwYIAAAAAAAGCAAAAAGgAACAAADxSggAICCAAAAgCIAiDSCAAAAAAgAAAACAEAAAgAEBYAAQAAQAAFoAAIAAOIyPCPgAAAAAAAAADAAAYAADAAAQAACAAAAA==

> <PUBCHEM_IUPAC_OPENEYE_NAME>
(3S,4S,5S,9R,10S,13R,14R,17R)-17-[(1R)-1,5-dimethylhexyl]-3-hydroxy-10,13-dimethyl-2,3,4,5,6,9,11,12,14,15,16,17-dodecahydro-1H-cyclopenta[a]phenanthrene-4-carboxylic acid

> <PUBCHEM_IUPAC_CAS_NAME>
(3S,4S,5S,9R,10S,13R,14R,17R)-3-hydroxy-10,13-dimethyl-17-[(2R)-6-methylheptan-2-yl]-2,3,4,5,6,9,11,12,14,15,16,17-dodecahydro-1H-cyclopenta[a]phenanthrene-4-carboxylic acid

> <PUBCHEM_IUPAC_NAME>
(3S,4S,5S,9R,10S,13R,14R,17R)-3-hydroxy-10,13-dimethyl-17-[(2R)-6-methylheptan-2-yl]-2,3,4,5,6,9,11,12,14,15,16,17-dodecahydro-1H-cyclopenta[a]phenanthrene-4-carboxylic acid

> <PUBCHEM_IUPAC_SYSTEMATIC_NAME>
(3S,4S,5S,9R,10S,13R,14R,17R)-10,13-dimethyl-17-[(2R)-6-methylheptan-2-yl]-3-oxidanyl-2,3,4,5,6,9,11,12,14,15,16,17-dodecahydro-1H-cyclopenta[a]phenanthrene-4-carboxylic acid

> <PUBCHEM_IUPAC_TRADITIONAL_NAME>
(3S,4S,5S,9R,10S,13R,14R,17R)-17-[(1R)-1,5-dimethylhexyl]-3-hydroxy-10,13-dimethyl-2,3,4,5,6,9,11,12,14,15,16,17-dodecahydro-1H-cyclopenta[a]phenanthrene-4-carboxylic acid

> <PUBCHEM_IUPAC_INCHI>
InChI=1S/C28H46O3/c1-17(2)7-6-8-18(3)20-11-12-21-19-9-10-23-25(26(30)31)24(29)14-16-28(23,5)22(19)13-15-27(20,21)4/h9,17-18,20-25,29H,6-8,10-16H2,1-5H3,(H,30,31)/t18-,20-,21+,22+,23+,24+,25+,27-,28-/m1/s1

> <PUBCHEM_IUPAC_INCHIKEY>
FXBZYWGMTFSORP-QPCSTCLVSA-N

> <PUBCHEM_XLOGP3_AA>
8

> <PUBCHEM_EXACT_MASS>
430.344695

> <PUBCHEM_MOLECULAR_FORMULA>
C28H46O3

> <PUBCHEM_MOLECULAR_WEIGHT>
430.66304

> <PUBCHEM_OPENEYE_CAN_SMILES>
CC(C)CCCC(C)C1CCC2C1(CCC3C2=CCC4C3(CCC(C4C(=O)O)O)C)C

> <PUBCHEM_OPENEYE_ISO_SMILES>
C[C@H](CCCC(C)C)[C@H]1CC[C@@H]2[C@@]1(CC[C@H]3C2=CC[C@@H]4[C@@]3(CC[C@@H]([C@H]4C(=O)O)O)C)C

> <PUBCHEM_CACTVS_TPSA>
57.5

> <PUBCHEM_MONOISOTOPIC_WEIGHT>
430.344695

> <PUBCHEM_TOTAL_CHARGE>
0

> <PUBCHEM_HEAVY_ATOM_COUNT>
31

> <PUBCHEM_ATOM_DEF_STEREO_COUNT>
9

> <PUBCHEM_ATOM_UDEF_STEREO_COUNT>
0

> <PUBCHEM_BOND_DEF_STEREO_COUNT>
0

> <PUBCHEM_BOND_UDEF_STEREO_COUNT>
0

> <PUBCHEM_ISOTOPIC_ATOM_COUNT>
0

> <PUBCHEM_COMPONENT_COUNT>
1

> <PUBCHEM_CACTVS_TAUTO_COUNT>
1

> <PUBCHEM_COORDINATE_TYPE>
1
5
255

> <PUBCHEM_BONDANNOTATIONS>
23  1  5
11  37  6
16  25  6
18  26  6
4  19  5
5  32  6
6  33  6
7  21  5
8  34  6

$$$$

