92735
  -OEChem-07051213002D

 50 52  0     1  0  0  0  0  0999 V2000
    8.0622    0.1550    0.0000 O   0  0  0  0  0  0  0  0  0  0  0  0
    6.3301   -1.8450    0.0000 O   0  0  0  0  0  0  0  0  0  0  0  0
    9.7942    0.1550    0.0000 O   0  0  0  0  0  0  0  0  0  0  0  0
    8.0622   -2.8450    0.0000 O   0  0  0  0  0  0  0  0  0  0  0  0
    9.7942   -1.8450    0.0000 O   0  0  0  0  0  0  0  0  0  0  0  0
    5.4641   -0.3450    0.0000 O   0  0  0  0  0  0  0  0  0  0  0  0
    4.5981    1.1550    0.0000 O   0  0  0  0  0  0  0  0  0  0  0  0
   12.3923    1.6550    0.0000 O   0  0  0  0  0  0  0  0  0  0  0  0
    7.1962   -1.3450    0.0000 C   0  0  1  0  0  0  0  0  0  0  0  0
    8.0622   -1.8450    0.0000 C   0  0  1  0  0  0  0  0  0  0  0  0
    7.1962   -0.3450    0.0000 C   0  0  1  0  0  0  0  0  0  0  0  0
    8.9282   -1.3450    0.0000 C   0  0  2  0  0  0  0  0  0  0  0  0
    8.9282   -0.3450    0.0000 C   0  0  1  0  0  0  0  0  0  0  0  0
    6.3301    0.1550    0.0000 C   0  0  0  0  0  0  0  0  0  0  0  0
    9.7942    1.1550    0.0000 C   0  0  0  0  0  0  0  0  0  0  0  0
   10.6603    1.6550    0.0000 C   0  0  0  0  0  0  0  0  0  0  0  0
    8.9282    1.6550    0.0000 C   0  0  0  0  0  0  0  0  0  0  0  0
    4.5981    0.1550    0.0000 C   0  0  0  0  0  0  0  0  0  0  0  0
   10.6603    2.6550    0.0000 C   0  0  0  0  0  0  0  0  0  0  0  0
   11.5263    1.1550    0.0000 C   0  0  0  0  0  0  0  0  0  0  0  0
    8.9282    2.6550    0.0000 C   0  0  0  0  0  0  0  0  0  0  0  0
    3.7320   -0.3450    0.0000 C   0  0  0  0  0  0  0  0  0  0  0  0
    9.7942    3.1550    0.0000 C   0  0  0  0  0  0  0  0  0  0  0  0
    2.8660    0.1550    0.0000 C   0  0  0  0  0  0  0  0  0  0  0  0
    3.7320   -1.3450    0.0000 C   0  0  0  0  0  0  0  0  0  0  0  0
    2.0000   -0.3450    0.0000 C   0  0  0  0  0  0  0  0  0  0  0  0
    2.8660   -1.8450    0.0000 C   0  0  0  0  0  0  0  0  0  0  0  0
    2.0000   -1.3450    0.0000 C   0  0  0  0  0  0  0  0  0  0  0  0
    6.6592   -1.0350    0.0000 H   0  0  0  0  0  0  0  0  0  0  0  0
    7.5252   -2.1550    0.0000 H   0  0  0  0  0  0  0  0  0  0  0  0
    7.1962    0.2750    0.0000 H   0  0  0  0  0  0  0  0  0  0  0  0
    9.4651   -1.0350    0.0000 H   0  0  0  0  0  0  0  0  0  0  0  0
    9.4651   -0.6550    0.0000 H   0  0  0  0  0  0  0  0  0  0  0  0
    6.7287    0.6299    0.0000 H   0  0  0  0  0  0  0  0  0  0  0  0
    5.9316    0.6299    0.0000 H   0  0  0  0  0  0  0  0  0  0  0  0
    6.3301   -2.4650    0.0000 H   0  0  0  0  0  0  0  0  0  0  0  0
    7.5252   -3.1550    0.0000 H   0  0  0  0  0  0  0  0  0  0  0  0
    9.7942   -2.4650    0.0000 H   0  0  0  0  0  0  0  0  0  0  0  0
    8.3913    1.3450    0.0000 H   0  0  0  0  0  0  0  0  0  0  0  0
   11.1972    2.9650    0.0000 H   0  0  0  0  0  0  0  0  0  0  0  0
   11.1278    0.6801    0.0000 H   0  0  0  0  0  0  0  0  0  0  0  0
   11.9248    0.6801    0.0000 H   0  0  0  0  0  0  0  0  0  0  0  0
    8.3913    2.9650    0.0000 H   0  0  0  0  0  0  0  0  0  0  0  0
    9.7942    3.7750    0.0000 H   0  0  0  0  0  0  0  0  0  0  0  0
    2.8660    0.7750    0.0000 H   0  0  0  0  0  0  0  0  0  0  0  0
    4.2690   -1.6550    0.0000 H   0  0  0  0  0  0  0  0  0  0  0  0
   12.9292    1.3450    0.0000 H   0  0  0  0  0  0  0  0  0  0  0  0
    1.4631   -0.0350    0.0000 H   0  0  0  0  0  0  0  0  0  0  0  0
    2.8660   -2.4650    0.0000 H   0  0  0  0  0  0  0  0  0  0  0  0
    1.4631   -1.6550    0.0000 H   0  0  0  0  0  0  0  0  0  0  0  0
  1 11  1  0  0  0  0
  1 13  1  0  0  0  0
  9  2  1  6  0  0  0
  2 36  1  0  0  0  0
 13  3  1  1  0  0  0
  3 15  1  0  0  0  0
 10  4  1  1  0  0  0
  4 37  1  0  0  0  0
 12  5  1  6  0  0  0
  5 38  1  0  0  0  0
  6 14  1  0  0  0  0
  6 18  1  0  0  0  0
  7 18  2  0  0  0  0
  8 20  1  0  0  0  0
  8 47  1  0  0  0  0
  9 10  1  0  0  0  0
  9 11  1  0  0  0  0
  9 29  1  0  0  0  0
 10 12  1  0  0  0  0
 10 30  1  0  0  0  0
 11 14  1  1  0  0  0
 11 31  1  0  0  0  0
 12 13  1  0  0  0  0
 12 32  1  0  0  0  0
 13 33  1  0  0  0  0
 14 34  1  0  0  0  0
 14 35  1  0  0  0  0
 15 16  1  0  0  0  0
 15 17  2  0  0  0  0
 16 19  2  0  0  0  0
 16 20  1  0  0  0  0
 17 21  1  0  0  0  0
 17 39  1  0  0  0  0
 18 22  1  0  0  0  0
 19 23  1  0  0  0  0
 19 40  1  0  0  0  0
 20 41  1  0  0  0  0
 20 42  1  0  0  0  0
 21 23  2  0  0  0  0
 21 43  1  0  0  0  0
 22 24  2  0  0  0  0
 22 25  1  0  0  0  0
 23 44  1  0  0  0  0
 24 26  1  0  0  0  0
 24 45  1  0  0  0  0
 25 27  2  0  0  0  0
 25 46  1  0  0  0  0
 26 28  2  0  0  0  0
 26 48  1  0  0  0  0
 27 28  1  0  0  0  0
 27 49  1  0  0  0  0
 28 50  1  0  0  0  0
M  END
> <PUBCHEM_COMPOUND_CID>
92735

> <PUBCHEM_COMPOUND_CANONICALIZED>
1

> <PUBCHEM_CACTVS_COMPLEXITY>
495

> <PUBCHEM_CACTVS_HBOND_ACCEPTOR>
8

> <PUBCHEM_CACTVS_HBOND_DONOR>
4

> <PUBCHEM_CACTVS_ROTATABLE_BOND>
7

> <PUBCHEM_CACTVS_SUBSKEYS>
AAADceB4PAAAAAAAAAAAAAAAAAAAAAAAAAA0YIAAAAAAAAABQAAAGgAACAAADBSwmAMwDoAABgCIAiDSCAACCAAkIAAIiAEGCMgdNzKENRqieSClwBEPuYfI6CyOAAAAAAAIAAAAAAAAABAAAAAAAAAAAA==

> <PUBCHEM_IUPAC_OPENEYE_NAME>
[(2R,3S,4S,5R,6S)-3,4,5-trihydroxy-6-[2-(hydroxymethyl)phenoxy]tetrahydropyran-2-yl]methyl benzoate

> <PUBCHEM_IUPAC_CAS_NAME>
benzoic acid [(2R,3S,4S,5R,6S)-3,4,5-trihydroxy-6-[2-(hydroxymethyl)phenoxy]-2-oxanyl]methyl ester

> <PUBCHEM_IUPAC_NAME>
[(2R,3S,4S,5R,6S)-3,4,5-trihydroxy-6-[2-(hydroxymethyl)phenoxy]oxan-2-yl]methyl benzoate

> <PUBCHEM_IUPAC_SYSTEMATIC_NAME>
[(2R,3S,4S,5R,6S)-6-[2-(hydroxymethyl)phenoxy]-3,4,5-tris(oxidanyl)oxan-2-yl]methyl benzoate

> <PUBCHEM_IUPAC_TRADITIONAL_NAME>
benzoic acid [(2R,3S,4S,5R,6S)-3,4,5-trihydroxy-6-(2-methylolphenoxy)tetrahydropyran-2-yl]methyl ester

> <PUBCHEM_IUPAC_INCHI>
InChI=1S/C20H22O8/c21-10-13-8-4-5-9-14(13)27-20-18(24)17(23)16(22)15(28-20)11-26-19(25)12-6-2-1-3-7-12/h1-9,15-18,20-24H,10-11H2/t15-,16-,17+,18-,20-/m1/s1

> <PUBCHEM_IUPAC_INCHIKEY>
HHSKNLJWHGXWPK-BFMVXSJESA-N

> <PUBCHEM_XLOGP3>
0.5

> <PUBCHEM_EXACT_MASS>
390.131468

> <PUBCHEM_MOLECULAR_FORMULA>
C20H22O8

> <PUBCHEM_MOLECULAR_WEIGHT>
390.38388

> <PUBCHEM_OPENEYE_CAN_SMILES>
C1=CC=C(C=C1)C(=O)OCC2C(C(C(C(O2)OC3=CC=CC=C3CO)O)O)O

> <PUBCHEM_OPENEYE_ISO_SMILES>
C1=CC=C(C=C1)C(=O)OC[C@@H]2[C@H]([C@@H]([C@H]([C@@H](O2)OC3=CC=CC=C3CO)O)O)O

> <PUBCHEM_CACTVS_TPSA>
126

> <PUBCHEM_MONOISOTOPIC_WEIGHT>
390.131468

> <PUBCHEM_TOTAL_CHARGE>
0

> <PUBCHEM_HEAVY_ATOM_COUNT>
28

> <PUBCHEM_ATOM_DEF_STEREO_COUNT>
5

> <PUBCHEM_ATOM_UDEF_STEREO_COUNT>
0

> <PUBCHEM_BOND_DEF_STEREO_COUNT>
0

> <PUBCHEM_BOND_UDEF_STEREO_COUNT>
0

> <PUBCHEM_ISOTOPIC_ATOM_COUNT>
0

> <PUBCHEM_COMPONENT_COUNT>
1

> <PUBCHEM_CACTVS_TAUTO_COUNT>
1

> <PUBCHEM_COORDINATE_TYPE>
1
5
255

> <PUBCHEM_BONDANNOTATIONS>
11  14  5
15  16  8
15  17  8
16  19  8
17  21  8
19  23  8
9  2  6
21  23  8
22  24  8
22  25  8
24  26  8
25  27  8
26  28  8
27  28  8
13  3  5
10  4  5
12  5  6

$$$$

