11660
  -OEChem-06261205573D

 11 10  0     0  0  0  0  0  0999 V2000
   -1.4545    0.9715    0.0007 Cl  0  0  0  0  0  0  0  0  0  0  0  0
    1.4549    0.9709   -0.0002 Cl  0  0  0  0  0  0  0  0  0  0  0  0
    0.0000   -0.0736    0.0000 C   0  0  0  0  0  0  0  0  0  0  0  0
    0.0003   -0.9347    1.2592 C   0  0  0  0  0  0  0  0  0  0  0  0
   -0.0007   -0.9341   -1.2596 C   0  0  0  0  0  0  0  0  0  0  0  0
    0.0008   -0.3221    2.1683 H   0  0  0  0  0  0  0  0  0  0  0  0
   -0.8828   -1.5830    1.2966 H   0  0  0  0  0  0  0  0  0  0  0  0
    0.8832   -1.5834    1.2959 H   0  0  0  0  0  0  0  0  0  0  0  0
    0.8821   -1.5827   -1.2973 H   0  0  0  0  0  0  0  0  0  0  0  0
   -0.0009   -0.3210   -2.1685 H   0  0  0  0  0  0  0  0  0  0  0  0
   -0.8840   -1.5823   -1.2966 H   0  0  0  0  0  0  0  0  0  0  0  0
  1  3  1  0  0  0  0
  2  3  1  0  0  0  0
  3  4  1  0  0  0  0
  3  5  1  0  0  0  0
  4  6  1  0  0  0  0
  4  7  1  0  0  0  0
  4  8  1  0  0  0  0
  5  9  1  0  0  0  0
  5 10  1  0  0  0  0
  5 11  1  0  0  0  0
M  END
> <PUBCHEM_COMPOUND_CID>
11660

> <PUBCHEM_CONFORMER_RMSD>
0.4

> <PUBCHEM_CONFORMER_DIVERSEORDER>
1

> <PUBCHEM_MMFF94_PARTIAL_CHARGES>
3
1 -0.29
2 -0.29
3 0.58

> <PUBCHEM_EFFECTIVE_ROTOR_COUNT>
0

> <PUBCHEM_PHARMACOPHORE_FEATURES>
1
3 3 4 5 hydrophobe

> <PUBCHEM_HEAVY_ATOM_COUNT>
5

> <PUBCHEM_ATOM_DEF_STEREO_COUNT>
0

> <PUBCHEM_ATOM_UDEF_STEREO_COUNT>
0

> <PUBCHEM_BOND_DEF_STEREO_COUNT>
0

> <PUBCHEM_BOND_UDEF_STEREO_COUNT>
0

> <PUBCHEM_ISOTOPIC_ATOM_COUNT>
0

> <PUBCHEM_COMPONENT_COUNT>
1

> <PUBCHEM_CACTVS_TAUTO_COUNT>
1

> <PUBCHEM_CONFORMER_ID>
00002D8C00000001

> <PUBCHEM_MMFF94_ENERGY>
5.4017

> <PUBCHEM_FEATURE_SELFOVERLAP>
5.074

> <PUBCHEM_SHAPE_FINGERPRINT>
20096714 4 18410580603749191584
21015797 1 7195968639294576418
5943 1 8716866230104922183

> <PUBCHEM_SHAPE_MULTIPOLES>
106.64
1.52
1.37
1.24
0
0.04
0
0.85
0
0
0
0
-0.58
0

> <PUBCHEM_SHAPE_SELFOVERLAP>
169.35

> <PUBCHEM_SHAPE_VOLUME>
78.1

> <PUBCHEM_COORDINATE_TYPE>
2
5
10

$$$$

