5282279
  -OEChem-07051213042D

 51 54  0     1  0  0  0  0  0999 V2000
    5.0000    2.4892    0.0000 Cl  0  0  0  0  0  0  0  0  0  0  0  0
    2.0000    0.7571    0.0000 Cl  0  0  0  0  0  0  0  0  0  0  0  0
    8.8104   -2.6577    0.0000 O   0  0  0  0  0  0  0  0  0  0  0  0
    8.0000    0.7571    0.0000 O   0  0  0  0  0  0  0  0  0  0  0  0
   10.4088   -2.0984    0.0000 N   0  0  0  0  0  0  0  0  0  0  0  0
    9.4339   -0.0740    0.0000 N   0  0  0  0  0  0  0  0  0  0  0  0
    8.0000   -0.9749    0.0000 N   0  0  0  0  0  0  0  0  0  0  0  0
   11.1906   -1.4749    0.0000 C   0  0  0  0  0  0  0  0  0  0  0  0
   11.1906   -0.4749    0.0000 C   0  0  0  0  0  0  0  0  0  0  0  0
    9.0000   -0.9749    0.0000 C   0  0  1  0  0  0  0  0  0  0  0  0
   10.4088    0.1486    0.0000 C   0  0  0  0  0  0  0  0  0  0  0  0
    9.4339   -1.8759    0.0000 C   0  0  0  0  0  0  0  0  0  0  0  0
   10.6313    1.1235    0.0000 C   0  0  0  0  0  0  0  0  0  0  0  0
   12.0846   -2.0096    0.0000 C   0  0  0  0  0  0  0  0  0  0  0  0
   12.0846    0.0597    0.0000 C   0  0  0  0  0  0  0  0  0  0  0  0
   10.6313   -3.0734    0.0000 C   0  0  0  0  0  0  0  0  0  0  0  0
   12.9907   -1.4957    0.0000 C   0  0  0  0  0  0  0  0  0  0  0  0
   12.9907   -0.4541    0.0000 C   0  0  0  0  0  0  0  0  0  0  0  0
   11.5869    1.4182    0.0000 C   0  0  0  0  0  0  0  0  0  0  0  0
    9.8983    1.8037    0.0000 C   0  0  0  0  0  0  0  0  0  0  0  0
    7.5000   -0.1089    0.0000 C   0  0  0  0  0  0  0  0  0  0  0  0
   11.8094    2.3932    0.0000 C   0  0  0  0  0  0  0  0  0  0  0  0
   10.1208    2.7786    0.0000 C   0  0  0  0  0  0  0  0  0  0  0  0
   11.0764    3.0734    0.0000 C   0  0  0  0  0  0  0  0  0  0  0  0
    6.5000   -0.1089    0.0000 C   0  0  0  0  0  0  0  0  0  0  0  0
    6.0000    0.7571    0.0000 C   0  0  0  0  0  0  0  0  0  0  0  0
    5.0000    0.7571    0.0000 C   0  0  0  0  0  0  0  0  0  0  0  0
    4.5000    1.6232    0.0000 C   0  0  0  0  0  0  0  0  0  0  0  0
    4.5000   -0.1089    0.0000 C   0  0  0  0  0  0  0  0  0  0  0  0
    3.5000    1.6232    0.0000 C   0  0  0  0  0  0  0  0  0  0  0  0
    3.5000   -0.1089    0.0000 C   0  0  0  0  0  0  0  0  0  0  0  0
    3.0000    0.7571    0.0000 C   0  0  0  0  0  0  0  0  0  0  0  0
    8.6701   -0.4500    0.0000 H   0  0  0  0  0  0  0  0  0  0  0  0
   12.0774   -2.6296    0.0000 H   0  0  0  0  0  0  0  0  0  0  0  0
   12.0774    0.6797    0.0000 H   0  0  0  0  0  0  0  0  0  0  0  0
   10.0269   -3.2113    0.0000 H   0  0  0  0  0  0  0  0  0  0  0  0
   10.7693   -3.6778    0.0000 H   0  0  0  0  0  0  0  0  0  0  0  0
   11.2358   -2.9354    0.0000 H   0  0  0  0  0  0  0  0  0  0  0  0
    7.6900   -1.5119    0.0000 H   0  0  0  0  0  0  0  0  0  0  0  0
   13.5264   -1.8078    0.0000 H   0  0  0  0  0  0  0  0  0  0  0  0
   13.5264   -0.1420    0.0000 H   0  0  0  0  0  0  0  0  0  0  0  0
   12.0414    0.9965    0.0000 H   0  0  0  0  0  0  0  0  0  0  0  0
    9.3058    1.6209    0.0000 H   0  0  0  0  0  0  0  0  0  0  0  0
   12.4019    2.5759    0.0000 H   0  0  0  0  0  0  0  0  0  0  0  0
    9.6663    3.2003    0.0000 H   0  0  0  0  0  0  0  0  0  0  0  0
   11.2143    3.6778    0.0000 H   0  0  0  0  0  0  0  0  0  0  0  0
    6.1900   -0.6458    0.0000 H   0  0  0  0  0  0  0  0  0  0  0  0
    6.3100    1.2941    0.0000 H   0  0  0  0  0  0  0  0  0  0  0  0
    4.8100   -0.6458    0.0000 H   0  0  0  0  0  0  0  0  0  0  0  0
    3.1900    2.1601    0.0000 H   0  0  0  0  0  0  0  0  0  0  0  0
    3.1900   -0.6458    0.0000 H   0  0  0  0  0  0  0  0  0  0  0  0
  1 28  1  0  0  0  0
  2 32  1  0  0  0  0
  3 12  2  0  0  0  0
  4 21  2  0  0  0  0
  5  8  1  0  0  0  0
  5 12  1  0  0  0  0
  5 16  1  0  0  0  0
  6 10  1  0  0  0  0
  6 11  2  0  0  0  0
 10  7  1  6  0  0  0
  7 21  1  0  0  0  0
  7 39  1  0  0  0  0
  8  9  1  0  0  0  0
  8 14  2  0  0  0  0
  9 11  1  0  0  0  0
  9 15  2  0  0  0  0
 10 12  1  0  0  0  0
 10 33  1  0  0  0  0
 11 13  1  0  0  0  0
 13 19  2  0  0  0  0
 13 20  1  0  0  0  0
 14 17  1  0  0  0  0
 14 34  1  0  0  0  0
 15 18  1  0  0  0  0
 15 35  1  0  0  0  0
 16 36  1  0  0  0  0
 16 37  1  0  0  0  0
 16 38  1  0  0  0  0
 17 18  2  0  0  0  0
 17 40  1  0  0  0  0
 18 41  1  0  0  0  0
 19 22  1  0  0  0  0
 19 42  1  0  0  0  0
 20 23  2  0  0  0  0
 20 43  1  0  0  0  0
 21 25  1  0  0  0  0
 22 24  2  0  0  0  0
 22 44  1  0  0  0  0
 23 24  1  0  0  0  0
 23 45  1  0  0  0  0
 24 46  1  0  0  0  0
 25 26  2  0  0  0  0
 25 47  1  0  0  0  0
 26 27  1  0  0  0  0
 26 48  1  0  0  0  0
 27 28  2  0  0  0  0
 27 29  1  0  0  0  0
 28 30  1  0  0  0  0
 29 31  2  0  0  0  0
 29 49  1  0  0  0  0
 30 32  2  0  0  0  0
 30 50  1  0  0  0  0
 31 32  1  0  0  0  0
 31 51  1  0  0  0  0
M  END
> <PUBCHEM_COMPOUND_CID>
5282279

> <PUBCHEM_COMPOUND_CANONICALIZED>
1

> <PUBCHEM_CACTVS_COMPLEXITY>
750

> <PUBCHEM_CACTVS_HBOND_ACCEPTOR>
3

> <PUBCHEM_CACTVS_HBOND_DONOR>
1

> <PUBCHEM_CACTVS_ROTATABLE_BOND>
4

> <PUBCHEM_CACTVS_SUBSKEYS>
AAADceB7MAAGAAAAAAAAAAAAAAAAAAAAAAAwYMAABAAAAAABUAAAHgIQAAAADArBmCQzwIPAAACoAyVyVACCAAAhBwAIiICoZtiIYKLBk7GUIAhglwLIyYcQgMAOBAAAAACDAAAIAAAAAQYAAAAAAAAAAA==

> <PUBCHEM_IUPAC_OPENEYE_NAME>
(E)-3-(2,4-dichlorophenyl)-N-[(3R)-1-methyl-2-oxo-5-phenyl-3H-1,4-benzodiazepin-3-yl]prop-2-enamide

> <PUBCHEM_IUPAC_CAS_NAME>
(E)-3-(2,4-dichlorophenyl)-N-[(3R)-1-methyl-2-oxo-5-phenyl-3H-1,4-benzodiazepin-3-yl]-2-propenamide

> <PUBCHEM_IUPAC_NAME>
(E)-3-(2,4-dichlorophenyl)-N-[(3R)-1-methyl-2-oxo-5-phenyl-3H-1,4-benzodiazepin-3-yl]prop-2-enamide

> <PUBCHEM_IUPAC_SYSTEMATIC_NAME>
(E)-3-(2,4-dichlorophenyl)-N-[(3R)-1-methyl-2-oxidanylidene-5-phenyl-3H-1,4-benzodiazepin-3-yl]prop-2-enamide

> <PUBCHEM_IUPAC_TRADITIONAL_NAME>
(E)-3-(2,4-dichlorophenyl)-N-[(3R)-2-keto-1-methyl-5-phenyl-3H-1,4-benzodiazepin-3-yl]acrylamide

> <PUBCHEM_IUPAC_INCHI>
InChI=1S/C25H19Cl2N3O2/c1-30-21-10-6-5-9-19(21)23(17-7-3-2-4-8-17)29-24(25(30)32)28-22(31)14-12-16-11-13-18(26)15-20(16)27/h2-15,24H,1H3,(H,28,31)/b14-12+/t24-/m1/s1

> <PUBCHEM_IUPAC_INCHIKEY>
BYULDQRRUINTAA-SWDTZWKESA-N

> <PUBCHEM_XLOGP3_AA>
5.4

> <PUBCHEM_EXACT_MASS>
463.085432

> <PUBCHEM_MOLECULAR_FORMULA>
C25H19Cl2N3O2

> <PUBCHEM_MOLECULAR_WEIGHT>
464.34326

> <PUBCHEM_OPENEYE_CAN_SMILES>
CN1C2=CC=CC=C2C(=NC(C1=O)NC(=O)C=CC3=C(C=C(C=C3)Cl)Cl)C4=CC=CC=C4

> <PUBCHEM_OPENEYE_ISO_SMILES>
CN1C2=CC=CC=C2C(=N[C@H](C1=O)NC(=O)/C=C/C3=C(C=C(C=C3)Cl)Cl)C4=CC=CC=C4

> <PUBCHEM_CACTVS_TPSA>
61.8

> <PUBCHEM_MONOISOTOPIC_WEIGHT>
463.085432

> <PUBCHEM_TOTAL_CHARGE>
0

> <PUBCHEM_HEAVY_ATOM_COUNT>
32

> <PUBCHEM_ATOM_DEF_STEREO_COUNT>
1

> <PUBCHEM_ATOM_UDEF_STEREO_COUNT>
0

> <PUBCHEM_BOND_DEF_STEREO_COUNT>
1

> <PUBCHEM_BOND_UDEF_STEREO_COUNT>
0

> <PUBCHEM_ISOTOPIC_ATOM_COUNT>
0

> <PUBCHEM_COMPONENT_COUNT>
1

> <PUBCHEM_CACTVS_TAUTO_COUNT>
6

> <PUBCHEM_COORDINATE_TYPE>
1
5
255

> <PUBCHEM_BONDANNOTATIONS>
13  19  8
13  20  8
14  17  8
15  18  8
17  18  8
19  22  8
20  23  8
22  24  8
23  24  8
27  28  8
27  29  8
28  30  8
29  31  8
30  32  8
31  32  8
10  7  6
8  14  8
8  9  8
9  15  8

$$$$

