34239
  -OEChem-07051213133D

 27 28  0     0  0  0  0  0  0999 V2000
   -2.7711   -2.0645    1.7733 Cl  0  0  0  0  0  0  0  0  0  0  0  0
    2.7684   -2.0650   -1.7733 Cl  0  0  0  0  0  0  0  0  0  0  0  0
   -0.0010    1.7975   -0.0001 O   0  0  0  0  0  0  0  0  0  0  0  0
   -4.7661   -1.0593   -0.2932 N   0  0  0  0  0  0  0  0  0  0  0  0
    4.7636   -1.0599    0.2932 N   0  0  0  0  0  0  0  0  0  0  0  0
   -1.1640    1.0935   -0.0662 C   0  0  0  0  0  0  0  0  0  0  0  0
    1.1821    1.0810    0.0671 C   0  0  0  0  0  0  0  0  0  0  0  0
   -1.3674    0.0017    0.7778 C   0  0  0  0  0  0  0  0  0  0  0  0
    1.3650    0.0015   -0.7779 C   0  0  0  0  0  0  0  0  0  0  0  0
   -2.1524    1.4640   -0.9780 C   0  0  0  0  0  0  0  0  0  0  0  0
    2.1502    1.4638    0.9777 C   0  0  0  0  0  0  0  0  0  0  0  0
   -3.5477   -0.3493   -0.2019 C   0  0  0  0  0  0  0  0  0  0  0  0
    3.5453   -0.3497    0.2018 C   0  0  0  0  0  0  0  0  0  0  0  0
   -2.5593   -0.7197    0.7100 C   0  0  0  0  0  0  0  0  0  0  0  0
    2.5568   -0.7200   -0.7101 C   0  0  0  0  0  0  0  0  0  0  0  0
   -3.3442    0.7425   -1.0458 C   0  0  0  0  0  0  0  0  0  0  0  0
    3.3419    0.7421    1.0456 C   0  0  0  0  0  0  0  0  0  0  0  0
   -0.6142   -0.2822    1.5095 H   0  0  0  0  0  0  0  0  0  0  0  0
    0.6102   -0.2791   -1.5081 H   0  0  0  0  0  0  0  0  0  0  0  0
   -1.9993    2.3133   -1.6382 H   0  0  0  0  0  0  0  0  0  0  0  0
    1.9929    2.3133    1.6353 H   0  0  0  0  0  0  0  0  0  0  0  0
   -4.1058    1.0426   -1.7612 H   0  0  0  0  0  0  0  0  0  0  0  0
    4.1035    1.0422    1.7610 H   0  0  0  0  0  0  0  0  0  0  0  0
   -4.9292   -1.8551    0.3093 H   0  0  0  0  0  0  0  0  0  0  0  0
   -5.4700   -0.7777   -0.9625 H   0  0  0  0  0  0  0  0  0  0  0  0
    4.9266   -1.8557   -0.3094 H   0  0  0  0  0  0  0  0  0  0  0  0
    5.4676   -0.7784    0.9624 H   0  0  0  0  0  0  0  0  0  0  0  0
  1 14  1  0  0  0  0
  2 15  1  0  0  0  0
  3  6  1  0  0  0  0
  3  7  1  0  0  0  0
  4 12  1  0  0  0  0
  4 24  1  0  0  0  0
  4 25  1  0  0  0  0
  5 13  1  0  0  0  0
  5 26  1  0  0  0  0
  5 27  1  0  0  0  0
  6  8  2  0  0  0  0
  6 10  1  0  0  0  0
  7  9  2  0  0  0  0
  7 11  1  0  0  0  0
  8 14  1  0  0  0  0
  8 18  1  0  0  0  0
  9 15  1  0  0  0  0
  9 19  1  0  0  0  0
 10 16  2  0  0  0  0
 10 20  1  0  0  0  0
 11 17  2  0  0  0  0
 11 21  1  0  0  0  0
 12 14  2  0  0  0  0
 12 16  1  0  0  0  0
 13 15  2  0  0  0  0
 13 17  1  0  0  0  0
 16 22  1  0  0  0  0
 17 23  1  0  0  0  0
M  END
> <PUBCHEM_COMPOUND_CID>
34239

> <PUBCHEM_CONFORMER_RMSD>
0.6

> <PUBCHEM_CONFORMER_DIVERSEORDER>
1
4
10
5
8
11
2
3
6
9
7

> <PUBCHEM_MMFF94_PARTIAL_CHARGES>
27
1 -0.18
10 -0.15
11 -0.15
12 0.1
13 0.1
14 0.18
15 0.18
16 -0.15
17 -0.15
18 0.15
19 0.15
2 -0.18
20 0.15
21 0.15
22 0.15
23 0.15
24 0.4
25 0.4
26 0.4
27 0.4
3 -0.17
4 -0.9
5 -0.9
6 0.08
7 0.08
8 -0.15
9 -0.15

> <PUBCHEM_EFFECTIVE_ROTOR_COUNT>
2

> <PUBCHEM_PHARMACOPHORE_FEATURES>
7
1 3 acceptor
1 4 cation
1 4 donor
1 5 cation
1 5 donor
6 6 8 10 12 14 16 rings
6 7 9 11 13 15 17 rings

> <PUBCHEM_HEAVY_ATOM_COUNT>
17

> <PUBCHEM_ATOM_DEF_STEREO_COUNT>
0

> <PUBCHEM_ATOM_UDEF_STEREO_COUNT>
0

> <PUBCHEM_BOND_DEF_STEREO_COUNT>
0

> <PUBCHEM_BOND_UDEF_STEREO_COUNT>
0

> <PUBCHEM_ISOTOPIC_ATOM_COUNT>
0

> <PUBCHEM_COMPONENT_COUNT>
1

> <PUBCHEM_CACTVS_TAUTO_COUNT>
1

> <PUBCHEM_CONFORMER_ID>
000085BF00000001

> <PUBCHEM_MMFF94_ENERGY>
74.6782

> <PUBCHEM_FEATURE_SELFOVERLAP>
35.52

> <PUBCHEM_SHAPE_FINGERPRINT>
10366900 7 18334008380850197362
11471102 22 17894631478528575148
11543360 7 17417799639697678276
11582403 64 16609217705683166965
12363563 72 18411130338040380558
12500047 106 17845384395295686156
12596602 18 15647342896342940815
13296908 3 18410857659151664193
13693222 15 17748826310625744360
13965767 371 14565020019727570091
14115302 16 17060341794909859603
14252887 29 18113897173939945666
14289901 80 17385444327605583481
14386348 63 18410853265400087911
15375358 24 18410302405795383625
15375462 189 16443071594557028170
15635459 17 18335417980358446646
16752209 62 17489320689241192049
19049666 15 18264770046057763892
19107657 162 18411415090093105315
19141452 34 18336263432587524615
19862831 5 15697997426988309589
200 152 17603596235187164605
20279233 1 18410575084663078915
204376 136 17605852321752972312
20603629 256 16806164496799317502
20645476 183 15267344015899165633
20645477 70 18260553311696432310
20871999 31 17774999098387955404
23402539 116 18131082557914890109
23403322 49 18341335586266934610
23557571 272 18343585156897992252
23559900 14 18201727262579247656
26918003 58 17894635859310736593
3060560 45 13901911133137886368
3082319 5 15770053917219557985
33824 294 18114186324044527846
474 4 15793728511843164952
7097593 13 14636253040158104326
74978 22 16056873598536265773
77492 1 15719395022776659681
81228 2 18267014136521905553
8809292 202 18273214188100815995
9709674 26 18411699880921724999

> <PUBCHEM_SHAPE_MULTIPOLES>
337.76
8.38
1.97
1.42
0.02
0.43
0
3.31
0
0
0
0
0.58
2

> <PUBCHEM_SHAPE_SELFOVERLAP>
713.157

> <PUBCHEM_SHAPE_VOLUME>
192.4

> <PUBCHEM_COORDINATE_TYPE>
2
5
10

$$$$

