440145
  -OEChem-07051212482D

 95 99  0     1  0  0  0  0  0999 V2000
    6.0061   -3.0354    0.0000 O   0  0  0  0  0  0  0  0  0  0  0  0
    4.2740   -3.0287    0.0000 O   0  0  0  0  0  0  0  0  0  0  0  0
    6.0138   -1.0354    0.0000 O   0  0  0  0  0  0  0  0  0  0  0  0
    4.2856   -0.0287    0.0000 O   0  0  0  0  0  0  0  0  0  0  0  0
    2.5497   -1.0221    0.0000 O   0  0  0  0  0  0  0  0  0  0  0  0
    2.5381   -4.0220    0.0000 O   0  0  0  0  0  0  0  0  0  0  0  0
   11.3991    0.0169    0.0000 C   0  0  1  0  0  0  0  0  0  0  0  0
   11.3991   -0.9831    0.0000 C   0  0  2  0  0  0  0  0  0  0  0  0
   10.5331   -1.4831    0.0000 C   0  0  1  0  0  0  0  0  0  0  0  0
    9.6671   -0.9831    0.0000 C   0  0  1  0  0  0  0  0  0  0  0  0
   12.3454    0.3217    0.0000 C   0  0  2  0  0  0  0  0  0  0  0  0
   10.5331    0.5169    0.0000 C   0  0  0  0  0  0  0  0  0  0  0  0
    8.7571   -1.4899    0.0000 C   0  0  2  0  0  0  0  0  0  0  0  0
   12.3454   -1.2878    0.0000 C   0  0  0  0  0  0  0  0  0  0  0  0
    9.6671    0.0169    0.0000 C   0  0  0  0  0  0  0  0  0  0  0  0
   12.9290   -0.4831    0.0000 C   0  0  0  0  0  0  0  0  0  0  0  0
   10.5492   -2.5246    0.0000 C   0  0  0  0  0  0  0  0  0  0  0  0
   12.6560    1.2722    0.0000 C   0  0  1  0  0  0  0  0  0  0  0  0
   11.3991    1.0169    0.0000 C   0  0  0  0  0  0  0  0  0  0  0  0
    8.7491   -2.5315    0.0000 C   0  0  0  0  0  0  0  0  0  0  0  0
    7.8302   -0.9258    0.0000 C   0  0  0  0  0  0  0  0  0  0  0  0
    9.6511   -3.0523    0.0000 C   0  0  0  0  0  0  0  0  0  0  0  0
    8.7648   -0.4899    0.0000 C   0  0  0  0  0  0  0  0  0  0  0  0
    7.8136   -3.0812    0.0000 C   0  0  0  0  0  0  0  0  0  0  0  0
    6.8824   -1.4538    0.0000 C   0  0  0  0  0  0  0  0  0  0  0  0
   13.6345    1.4784    0.0000 C   0  0  0  0  0  0  0  0  0  0  0  0
    6.8740   -2.5387    0.0000 C   0  0  2  0  0  0  0  0  0  0  0  0
   11.9882    2.0165    0.0000 C   0  0  0  0  0  0  0  0  0  0  0  0
   13.9452    2.4289    0.0000 C   0  0  0  0  0  0  0  0  0  0  0  0
   14.9237    2.6351    0.0000 C   0  0  0  0  0  0  0  0  0  0  0  0
    5.1420   -2.5321    0.0000 C   0  0  2  0  0  0  0  0  0  0  0  0
   15.2344    3.5857    0.0000 C   0  0  0  0  0  0  0  0  0  0  0  0
    5.1458   -1.5321    0.0000 C   0  0  1  0  0  0  0  0  0  0  0  0
    4.2817   -1.0287    0.0000 C   0  0  2  0  0  0  0  0  0  0  0  0
    3.4099   -2.5254    0.0000 C   0  0  1  0  0  0  0  0  0  0  0  0
   16.2129    3.7919    0.0000 C   0  0  0  0  0  0  0  0  0  0  0  0
   14.5665    4.3300    0.0000 C   0  0  0  0  0  0  0  0  0  0  0  0
    3.4138   -1.5254    0.0000 C   0  0  1  0  0  0  0  0  0  0  0  0
    2.5420   -3.0220    0.0000 C   0  0  0  0  0  0  0  0  0  0  0  0
   11.4891   -1.8283    0.0000 H   0  0  0  0  0  0  0  0  0  0  0  0
   11.2725   -1.9024    0.0000 H   0  0  0  0  0  0  0  0  0  0  0  0
   10.4032   -0.5581    0.0000 H   0  0  0  0  0  0  0  0  0  0  0  0
   13.1851    0.4535    0.0000 H   0  0  0  0  0  0  0  0  0  0  0  0
   10.9316    0.9919    0.0000 H   0  0  0  0  0  0  0  0  0  0  0  0
   10.1346    0.9919    0.0000 H   0  0  0  0  0  0  0  0  0  0  0  0
   12.0943   -1.8547    0.0000 H   0  0  0  0  0  0  0  0  0  0  0  0
   12.8827   -1.5970    0.0000 H   0  0  0  0  0  0  0  0  0  0  0  0
    9.4550    0.5995    0.0000 H   0  0  0  0  0  0  0  0  0  0  0  0
    9.0565   -0.0907    0.0000 H   0  0  0  0  0  0  0  0  0  0  0  0
   13.3898   -0.8978    0.0000 H   0  0  0  0  0  0  0  0  0  0  0  0
   13.3898   -0.0683    0.0000 H   0  0  0  0  0  0  0  0  0  0  0  0
   10.7672   -3.1050    0.0000 H   0  0  0  0  0  0  0  0  0  0  0  0
   11.1583   -2.4091    0.0000 H   0  0  0  0  0  0  0  0  0  0  0  0
   12.0493    1.1443    0.0000 H   0  0  0  0  0  0  0  0  0  0  0  0
   12.0191    1.0169    0.0000 H   0  0  0  0  0  0  0  0  0  0  0  0
   11.3991    1.6369    0.0000 H   0  0  0  0  0  0  0  0  0  0  0  0
   10.7791    1.0169    0.0000 H   0  0  0  0  0  0  0  0  0  0  0  0
    8.2385   -0.4592    0.0000 H   0  0  0  0  0  0  0  0  0  0  0  0
    7.4403   -0.4438    0.0000 H   0  0  0  0  0  0  0  0  0  0  0  0
    9.6535   -3.6723    0.0000 H   0  0  0  0  0  0  0  0  0  0  0  0
    9.3848   -0.4947    0.0000 H   0  0  0  0  0  0  0  0  0  0  0  0
    8.7696    0.1300    0.0000 H   0  0  0  0  0  0  0  0  0  0  0  0
    8.1448   -0.4852    0.0000 H   0  0  0  0  0  0  0  0  0  0  0  0
    7.4163   -3.5572    0.0000 H   0  0  0  0  0  0  0  0  0  0  0  0
    8.2146   -3.5541    0.0000 H   0  0  0  0  0  0  0  0  0  0  0  0
    6.6778   -0.8685    0.0000 H   0  0  0  0  0  0  0  0  0  0  0  0
    6.2707   -1.5552    0.0000 H   0  0  0  0  0  0  0  0  0  0  0  0
   13.6551    0.8587    0.0000 H   0  0  0  0  0  0  0  0  0  0  0  0
   14.2483    1.3911    0.0000 H   0  0  0  0  0  0  0  0  0  0  0  0
    6.3389   -2.2256    0.0000 H   0  0  0  0  0  0  0  0  0  0  0  0
   12.4496    2.4306    0.0000 H   0  0  0  0  0  0  0  0  0  0  0  0
   11.5741    2.4780    0.0000 H   0  0  0  0  0  0  0  0  0  0  0  0
   11.5267    1.6024    0.0000 H   0  0  0  0  0  0  0  0  0  0  0  0
   13.9246    3.0486    0.0000 H   0  0  0  0  0  0  0  0  0  0  0  0
   13.3314    2.5163    0.0000 H   0  0  0  0  0  0  0  0  0  0  0  0
   14.9443    2.0155    0.0000 H   0  0  0  0  0  0  0  0  0  0  0  0
   15.5375    2.5478    0.0000 H   0  0  0  0  0  0  0  0  0  0  0  0
    5.6801   -2.2241    0.0000 H   0  0  0  0  0  0  0  0  0  0  0  0
   15.4270    4.1750    0.0000 H   0  0  0  0  0  0  0  0  0  0  0  0
    5.1482   -0.9121    0.0000 H   0  0  0  0  0  0  0  0  0  0  0  0
    4.8198   -0.7208    0.0000 H   0  0  0  0  0  0  0  0  0  0  0  0
    3.4075   -3.1454    0.0000 H   0  0  0  0  0  0  0  0  0  0  0  0
    2.8757   -1.8333    0.0000 H   0  0  0  0  0  0  0  0  0  0  0  0
   16.3407    3.1852    0.0000 H   0  0  0  0  0  0  0  0  0  0  0  0
   16.8195    3.9197    0.0000 H   0  0  0  0  0  0  0  0  0  0  0  0
   16.0850    4.3986    0.0000 H   0  0  0  0  0  0  0  0  0  0  0  0
   15.0280    4.7440    0.0000 H   0  0  0  0  0  0  0  0  0  0  0  0
   14.1525    4.7914    0.0000 H   0  0  0  0  0  0  0  0  0  0  0  0
   14.1050    3.9159    0.0000 H   0  0  0  0  0  0  0  0  0  0  0  0
    6.0162   -0.4154    0.0000 H   0  0  0  0  0  0  0  0  0  0  0  0
    2.3322   -2.4386    0.0000 H   0  0  0  0  0  0  0  0  0  0  0  0
    1.9310   -3.1274    0.0000 H   0  0  0  0  0  0  0  0  0  0  0  0
    3.7498    0.2833    0.0000 H   0  0  0  0  0  0  0  0  0  0  0  0
    2.0116   -1.3300    0.0000 H   0  0  0  0  0  0  0  0  0  0  0  0
    2.0000   -4.3300    0.0000 H   0  0  0  0  0  0  0  0  0  0  0  0
 27  1  1  1  0  0  0
 31  1  1  6  0  0  0
  2 31  1  0  0  0  0
  2 35  1  0  0  0  0
 33  3  1  1  0  0  0
  3 90  1  0  0  0  0
 34  4  1  6  0  0  0
  4 93  1  0  0  0  0
 38  5  1  1  0  0  0
  5 94  1  0  0  0  0
  6 39  1  0  0  0  0
  6 95  1  0  0  0  0
  7  8  1  0  0  0  0
  7 11  1  0  0  0  0
  7 12  1  0  0  0  0
  7 19  1  1  0  0  0
  8  9  1  0  0  0  0
  8 14  1  0  0  0  0
  8 40  1  6  0  0  0
  9 10  1  0  0  0  0
  9 17  1  0  0  0  0
  9 41  1  1  0  0  0
 10 13  1  0  0  0  0
 10 15  1  0  0  0  0
 10 42  1  6  0  0  0
 11 16  1  0  0  0  0
 11 18  1  0  0  0  0
 11 43  1  6  0  0  0
 12 15  1  0  0  0  0
 12 44  1  0  0  0  0
 12 45  1  0  0  0  0
 13 20  1  0  0  0  0
 13 21  1  0  0  0  0
 13 23  1  1  0  0  0
 14 16  1  0  0  0  0
 14 46  1  0  0  0  0
 14 47  1  0  0  0  0
 15 48  1  0  0  0  0
 15 49  1  0  0  0  0
 16 50  1  0  0  0  0
 16 51  1  0  0  0  0
 17 22  1  0  0  0  0
 17 52  1  0  0  0  0
 17 53  1  0  0  0  0
 18 26  1  0  0  0  0
 18 28  1  6  0  0  0
 18 54  1  0  0  0  0
 19 55  1  0  0  0  0
 19 56  1  0  0  0  0
 19 57  1  0  0  0  0
 20 22  2  0  0  0  0
 20 24  1  0  0  0  0
 21 25  1  0  0  0  0
 21 58  1  0  0  0  0
 21 59  1  0  0  0  0
 22 60  1  0  0  0  0
 23 61  1  0  0  0  0
 23 62  1  0  0  0  0
 23 63  1  0  0  0  0
 24 27  1  0  0  0  0
 24 64  1  0  0  0  0
 24 65  1  0  0  0  0
 25 27  1  0  0  0  0
 25 66  1  0  0  0  0
 25 67  1  0  0  0  0
 26 29  1  0  0  0  0
 26 68  1  0  0  0  0
 26 69  1  0  0  0  0
 27 70  1  0  0  0  0
 28 71  1  0  0  0  0
 28 72  1  0  0  0  0
 28 73  1  0  0  0  0
 29 30  1  0  0  0  0
 29 74  1  0  0  0  0
 29 75  1  0  0  0  0
 30 32  1  0  0  0  0
 30 76  1  0  0  0  0
 30 77  1  0  0  0  0
 31 33  1  0  0  0  0
 31 78  1  0  0  0  0
 32 36  1  0  0  0  0
 32 37  1  0  0  0  0
 32 79  1  0  0  0  0
 33 34  1  0  0  0  0
 33 80  1  0  0  0  0
 34 38  1  0  0  0  0
 34 81  1  0  0  0  0
 35 38  1  0  0  0  0
 35 39  1  6  0  0  0
 35 82  1  0  0  0  0
 36 84  1  0  0  0  0
 36 85  1  0  0  0  0
 36 86  1  0  0  0  0
 37 87  1  0  0  0  0
 37 88  1  0  0  0  0
 37 89  1  0  0  0  0
 38 83  1  0  0  0  0
 39 91  1  0  0  0  0
 39 92  1  0  0  0  0
M  END
> <PUBCHEM_COMPOUND_CID>
440145

> <PUBCHEM_COMPOUND_CANONICALIZED>
1

> <PUBCHEM_CACTVS_COMPLEXITY>
874

> <PUBCHEM_CACTVS_HBOND_ACCEPTOR>
6

> <PUBCHEM_CACTVS_HBOND_DONOR>
4

> <PUBCHEM_CACTVS_ROTATABLE_BOND>
8

> <PUBCHEM_CACTVS_SUBSKEYS>
AAADcfB8OAAAAAAAAAAAAAAAAAAAAYAAAAA0YIEAAAAAAGCAAAAAGgAACAAADxSwgAMCCAAABgCAAiBCAAAAAAAgAAAACAAAAAgREAIAAQAiQAAFwAAPAAPA4PwPgAAAAAAAAADAAAQAACAAAQAACAAAAA==

> <PUBCHEM_IUPAC_OPENEYE_NAME>
(2R,3R,4S,5S,6R)-2-[[(3S,8S,9S,10R,13R,14S,17R)-17-[(1R)-1,5-dimethylhexyl]-10,13-dimethyl-2,3,4,7,8,9,11,12,14,15,16,17-dodecahydro-1H-cyclopenta[a]phenanthren-3-yl]oxy]-6-(hydroxymethyl)tetrahydropyran-3,4,5-triol

> <PUBCHEM_IUPAC_CAS_NAME>
(2R,3R,4S,5S,6R)-2-[[(3S,8S,9S,10R,13R,14S,17R)-10,13-dimethyl-17-[(2R)-6-methylheptan-2-yl]-2,3,4,7,8,9,11,12,14,15,16,17-dodecahydro-1H-cyclopenta[a]phenanthren-3-yl]oxy]-6-(hydroxymethyl)oxane-3,4,5-triol

> <PUBCHEM_IUPAC_NAME>
(2R,3R,4S,5S,6R)-2-[[(3S,8S,9S,10R,13R,14S,17R)-10,13-dimethyl-17-[(2R)-6-methylheptan-2-yl]-2,3,4,7,8,9,11,12,14,15,16,17-dodecahydro-1H-cyclopenta[a]phenanthren-3-yl]oxy]-6-(hydroxymethyl)oxane-3,4,5-triol

> <PUBCHEM_IUPAC_SYSTEMATIC_NAME>
(2R,3R,4S,5S,6R)-2-[[(3S,8S,9S,10R,13R,14S,17R)-10,13-dimethyl-17-[(2R)-6-methylheptan-2-yl]-2,3,4,7,8,9,11,12,14,15,16,17-dodecahydro-1H-cyclopenta[a]phenanthren-3-yl]oxy]-6-(hydroxymethyl)oxane-3,4,5-triol

> <PUBCHEM_IUPAC_TRADITIONAL_NAME>
(2R,3R,4S,5S,6R)-2-[[(3S,8S,9S,10R,13R,14S,17R)-17-[(1R)-1,5-dimethylhexyl]-10,13-dimethyl-2,3,4,7,8,9,11,12,14,15,16,17-dodecahydro-1H-cyclopenta[a]phenanthren-3-yl]oxy]-6-methylol-tetrahydropyran-3,4,5-triol

> <PUBCHEM_IUPAC_INCHI>
InChI=1S/C33H56O6/c1-19(2)7-6-8-20(3)24-11-12-25-23-10-9-21-17-22(13-15-32(21,4)26(23)14-16-33(24,25)5)38-31-30(37)29(36)28(35)27(18-34)39-31/h9,19-20,22-31,34-37H,6-8,10-18H2,1-5H3/t20-,22+,23+,24-,25+,26+,27-,28-,29+,30-,31-,32+,33-/m1/s1

> <PUBCHEM_IUPAC_INCHIKEY>
FSMCJUNYLQOAIM-UQBZCTSOSA-N

> <PUBCHEM_XLOGP3_AA>
6.9

> <PUBCHEM_EXACT_MASS>
548.40769

> <PUBCHEM_MOLECULAR_FORMULA>
C33H56O6

> <PUBCHEM_MOLECULAR_WEIGHT>
548.79414

> <PUBCHEM_OPENEYE_CAN_SMILES>
CC(C)CCCC(C)C1CCC2C1(CCC3C2CC=C4C3(CCC(C4)OC5C(C(C(C(O5)CO)O)O)O)C)C

> <PUBCHEM_OPENEYE_ISO_SMILES>
C[C@H](CCCC(C)C)[C@H]1CC[C@@H]2[C@@]1(CC[C@H]3[C@H]2CC=C4[C@@]3(CC[C@@H](C4)O[C@H]5[C@@H]([C@H]([C@@H]([C@H](O5)CO)O)O)O)C)C

> <PUBCHEM_CACTVS_TPSA>
99.4

> <PUBCHEM_MONOISOTOPIC_WEIGHT>
548.40769

> <PUBCHEM_TOTAL_CHARGE>
0

> <PUBCHEM_HEAVY_ATOM_COUNT>
39

> <PUBCHEM_ATOM_DEF_STEREO_COUNT>
13

> <PUBCHEM_ATOM_UDEF_STEREO_COUNT>
0

> <PUBCHEM_BOND_DEF_STEREO_COUNT>
0

> <PUBCHEM_BOND_UDEF_STEREO_COUNT>
0

> <PUBCHEM_ISOTOPIC_ATOM_COUNT>
0

> <PUBCHEM_COMPONENT_COUNT>
1

> <PUBCHEM_CACTVS_TAUTO_COUNT>
1

> <PUBCHEM_COORDINATE_TYPE>
1
5
255

> <PUBCHEM_BONDANNOTATIONS>
27  1  5
31  1  6
10  42  6
11  43  6
13  23  5
18  28  6
33  3  5
35  39  6
34  4  6
38  5  5
7  19  5
8  40  6
9  41  5

$$$$

