697993
  -OEChem-07051213053D

 15 16  0     0  0  0  0  0  0999 V2000
   -1.3166   -1.5477   -0.0002 S   0  0  0  0  0  0  0  0  0  0  0  0
   -3.7713    0.2707    0.0006 S   0  0  0  0  0  0  0  0  0  0  0  0
   -1.1804    1.0406   -0.0002 N   0  0  0  0  0  0  0  0  0  0  0  0
    0.1509    0.6094   -0.0003 C   0  0  0  0  0  0  0  0  0  0  0  0
    0.2808   -0.7778   -0.0002 C   0  0  0  0  0  0  0  0  0  0  0  0
    1.2565    1.4430    0.0000 C   0  0  0  0  0  0  0  0  0  0  0  0
    1.5302   -1.3737    0.0001 C   0  0  0  0  0  0  0  0  0  0  0  0
   -2.1277    0.0312   -0.0003 C   0  0  0  0  0  0  0  0  0  0  0  0
    2.5210    0.8512    0.0002 C   0  0  0  0  0  0  0  0  0  0  0  0
    2.6568   -0.5468    0.0003 C   0  0  0  0  0  0  0  0  0  0  0  0
   -1.4203    2.0259    0.0000 H   0  0  0  0  0  0  0  0  0  0  0  0
    1.1536    2.5228    0.0000 H   0  0  0  0  0  0  0  0  0  0  0  0
    1.6436   -2.4528    0.0003 H   0  0  0  0  0  0  0  0  0  0  0  0
    3.4095    1.4766    0.0003 H   0  0  0  0  0  0  0  0  0  0  0  0
    3.6495   -0.9889    0.0005 H   0  0  0  0  0  0  0  0  0  0  0  0
  1  5  1  0  0  0  0
  1  8  1  0  0  0  0
  2  8  2  0  0  0  0
  3  4  1  0  0  0  0
  3  8  1  0  0  0  0
  3 11  1  0  0  0  0
  4  5  1  0  0  0  0
  4  6  2  0  0  0  0
  5  7  2  0  0  0  0
  6  9  1  0  0  0  0
  6 12  1  0  0  0  0
  7 10  1  0  0  0  0
  7 13  1  0  0  0  0
  9 10  2  0  0  0  0
  9 14  1  0  0  0  0
 10 15  1  0  0  0  0
M  END
> <PUBCHEM_COMPOUND_CID>
697993

> <PUBCHEM_CONFORMER_RMSD>
0.4

> <PUBCHEM_CONFORMER_DIVERSEORDER>
1

> <PUBCHEM_MMFF94_PARTIAL_CHARGES>
15
1 -0.24
10 -0.15
11 0.37
12 0.15
13 0.15
14 0.15
15 0.15
2 -0.38
3 -0.55
4 0.12
5 0.1
6 -0.15
7 -0.15
8 0.58
9 -0.15

> <PUBCHEM_EFFECTIVE_ROTOR_COUNT>
0

> <PUBCHEM_PHARMACOPHORE_FEATURES>
3
1 2 acceptor
5 1 3 4 5 8 rings
6 4 5 6 7 9 10 rings

> <PUBCHEM_HEAVY_ATOM_COUNT>
10

> <PUBCHEM_ATOM_DEF_STEREO_COUNT>
0

> <PUBCHEM_ATOM_UDEF_STEREO_COUNT>
0

> <PUBCHEM_BOND_DEF_STEREO_COUNT>
0

> <PUBCHEM_BOND_UDEF_STEREO_COUNT>
0

> <PUBCHEM_ISOTOPIC_ATOM_COUNT>
0

> <PUBCHEM_COMPONENT_COUNT>
1

> <PUBCHEM_CACTVS_TAUTO_COUNT>
2

> <PUBCHEM_CONFORMER_ID>
000AA68900000001

> <PUBCHEM_MMFF94_ENERGY>
19.872

> <PUBCHEM_FEATURE_SELFOVERLAP>
15.289

> <PUBCHEM_SHAPE_FINGERPRINT>
10219947 1 18411697707852798549
11471102 20 18411142454512439829
12897270 3 18410573963697720268
12932764 1 17346609564243962699
13380535 76 18410295787345992363
14325111 11 18410856551493070565
15775835 57 18410289173006367557
16945 1 18410856572593289222
17844478 74 17989481935873097237
20201158 50 18411136956653847835
20645477 70 18338241574106709719
20871998 22 17974004252280871214
21040471 1 18194402195570751588
21501502 16 18267587913960681751
23235685 24 18410862040070930209
23402655 69 18335711554869635437
23552423 10 18199468774968531134
2748010 2 18194398883829232574
29004967 10 18342735226014432808
5084963 1 18187649153739687427
528886 8 18410016502744216762
53812653 166 18261680264055125760

> <PUBCHEM_SHAPE_MULTIPOLES>
208.51
4.76
1.58
0.63
2.91
0.22
0
-0.55
0
-0.34
0
0.03
0.02
0

> <PUBCHEM_SHAPE_SELFOVERLAP>
426.737

> <PUBCHEM_SHAPE_VOLUME>
122.7

> <PUBCHEM_COORDINATE_TYPE>
2
5
10

$$$$

