7847012
  -OEChem-06241222483D

 52 54  0     0  0  0  0  0  0999 V2000
    4.3543    0.3347    0.0972 S   0  0  0  0  0  0  0  0  0  0  0  0
    0.8616   -3.3521    0.1489 O   0  0  0  0  0  0  0  0  0  0  0  0
   -0.9624   -1.7421    1.6815 O   0  0  0  0  0  0  0  0  0  0  0  0
    1.1946   -2.3410   -1.8976 O   0  0  0  0  0  0  0  0  0  0  0  0
   -1.7103   -1.2567   -0.4949 N   0  0  0  0  0  0  0  0  0  0  0  0
    1.9913   -0.1636    1.0032 N   0  0  0  0  0  0  0  0  0  0  0  0
   -2.3280    0.0081   -0.3497 C   0  0  0  0  0  0  0  0  0  0  0  0
   -3.4100    0.1606    0.5174 C   0  0  0  0  0  0  0  0  0  0  0  0
   -1.8544    1.1027   -1.0731 C   0  0  0  0  0  0  0  0  0  0  0  0
   -3.9403   -0.9929    1.3060 C   0  0  0  0  0  0  0  0  0  0  0  0
   -0.6968    0.9714   -2.0092 C   0  0  0  0  0  0  0  0  0  0  0  0
   -4.0181    1.4077    0.6612 C   0  0  0  0  0  0  0  0  0  0  0  0
   -2.4625    2.3498   -0.9293 C   0  0  0  0  0  0  0  0  0  0  0  0
   -3.5444    2.5022   -0.0622 C   0  0  0  0  0  0  0  0  0  0  0  0
    3.4300   -2.1611    0.8004 C   0  0  0  0  0  0  0  0  0  0  0  0
   -5.4636   -1.0637    1.2726 C   0  0  0  0  0  0  0  0  0  0  0  0
   -1.1366    0.6095   -3.4243 C   0  0  0  0  0  0  0  0  0  0  0  0
    3.0796   -2.9390   -0.4816 C   0  0  0  0  0  0  0  0  0  0  0  0
    3.1386   -0.7158    0.6838 C   0  0  0  0  0  0  0  0  0  0  0  0
   -1.0966   -2.0165    0.4929 C   0  0  0  0  0  0  0  0  0  0  0  0
   -0.5537   -3.3157   -0.0614 C   0  0  0  0  0  0  0  0  0  0  0  0
    3.2743    1.6671    0.2744 C   0  0  0  0  0  0  0  0  0  0  0  0
    2.0537    1.2030    0.7738 C   0  0  0  0  0  0  0  0  0  0  0  0
    1.6199   -2.8267   -0.8586 C   0  0  0  0  0  0  0  0  0  0  0  0
    3.4916    3.0253   -0.0084 C   0  0  0  0  0  0  0  0  0  0  0  0
    1.0155    2.1333    0.9973 C   0  0  0  0  0  0  0  0  0  0  0  0
    2.4477    3.9249    0.2217 C   0  0  0  0  0  0  0  0  0  0  0  0
    1.2249    3.4868    0.7180 C   0  0  0  0  0  0  0  0  0  0  0  0
   -3.6021   -1.9559    0.9147 H   0  0  0  0  0  0  0  0  0  0  0  0
   -3.5932   -0.9193    2.3430 H   0  0  0  0  0  0  0  0  0  0  0  0
   -0.1455    1.9201   -2.0462 H   0  0  0  0  0  0  0  0  0  0  0  0
    0.0331    0.2409   -1.6434 H   0  0  0  0  0  0  0  0  0  0  0  0
   -4.8457    1.5685    1.3449 H   0  0  0  0  0  0  0  0  0  0  0  0
   -2.1042    3.2119   -1.4858 H   0  0  0  0  0  0  0  0  0  0  0  0
   -1.4072   -1.4671   -1.4430 H   0  0  0  0  0  0  0  0  0  0  0  0
   -4.0139    3.4747    0.0537 H   0  0  0  0  0  0  0  0  0  0  0  0
    4.4868   -2.3309    1.0404 H   0  0  0  0  0  0  0  0  0  0  0  0
    2.8606   -2.5686    1.6452 H   0  0  0  0  0  0  0  0  0  0  0  0
   -5.9330   -0.2521    1.8366 H   0  0  0  0  0  0  0  0  0  0  0  0
   -5.7988   -2.0000    1.7326 H   0  0  0  0  0  0  0  0  0  0  0  0
   -5.8460   -1.0402    0.2462 H   0  0  0  0  0  0  0  0  0  0  0  0
   -1.6665   -0.3482   -3.4490 H   0  0  0  0  0  0  0  0  0  0  0  0
   -0.2641    0.5307   -4.0808 H   0  0  0  0  0  0  0  0  0  0  0  0
   -1.8042    1.3726   -3.8386 H   0  0  0  0  0  0  0  0  0  0  0  0
    3.6729   -2.5674   -1.3257 H   0  0  0  0  0  0  0  0  0  0  0  0
    3.3233   -4.0009   -0.3635 H   0  0  0  0  0  0  0  0  0  0  0  0
   -0.8155   -3.4828   -1.1119 H   0  0  0  0  0  0  0  0  0  0  0  0
   -0.9972   -4.1369    0.5119 H   0  0  0  0  0  0  0  0  0  0  0  0
    4.4437    3.3744   -0.3962 H   0  0  0  0  0  0  0  0  0  0  0  0
    0.0587    1.8024    1.3906 H   0  0  0  0  0  0  0  0  0  0  0  0
    2.5950    4.9805    0.0093 H   0  0  0  0  0  0  0  0  0  0  0  0
    0.4242    4.2006    0.8911 H   0  0  0  0  0  0  0  0  0  0  0  0
  1 19  1  0  0  0  0
  1 22  1  0  0  0  0
  2 21  1  0  0  0  0
  2 24  1  0  0  0  0
  3 20  2  0  0  0  0
  4 24  2  0  0  0  0
  5  7  1  0  0  0  0
  5 20  1  0  0  0  0
  5 35  1  0  0  0  0
  6 19  2  0  0  0  0
  6 23  1  0  0  0  0
  7  8  2  0  0  0  0
  7  9  1  0  0  0  0
  8 10  1  0  0  0  0
  8 12  1  0  0  0  0
  9 11  1  0  0  0  0
  9 13  2  0  0  0  0
 10 16  1  0  0  0  0
 10 29  1  0  0  0  0
 10 30  1  0  0  0  0
 11 17  1  0  0  0  0
 11 31  1  0  0  0  0
 11 32  1  0  0  0  0
 12 14  2  0  0  0  0
 12 33  1  0  0  0  0
 13 14  1  0  0  0  0
 13 34  1  0  0  0  0
 14 36  1  0  0  0  0
 15 18  1  0  0  0  0
 15 19  1  0  0  0  0
 15 37  1  0  0  0  0
 15 38  1  0  0  0  0
 16 39  1  0  0  0  0
 16 40  1  0  0  0  0
 16 41  1  0  0  0  0
 17 42  1  0  0  0  0
 17 43  1  0  0  0  0
 17 44  1  0  0  0  0
 18 24  1  0  0  0  0
 18 45  1  0  0  0  0
 18 46  1  0  0  0  0
 20 21  1  0  0  0  0
 21 47  1  0  0  0  0
 21 48  1  0  0  0  0
 22 23  1  0  0  0  0
 22 25  2  0  0  0  0
 23 26  2  0  0  0  0
 25 27  1  0  0  0  0
 25 49  1  0  0  0  0
 26 28  1  0  0  0  0
 26 50  1  0  0  0  0
 27 28  2  0  0  0  0
 27 51  1  0  0  0  0
 28 52  1  0  0  0  0
M  END
> <PUBCHEM_COMPOUND_CID>
7847012

> <PUBCHEM_CONFORMER_RMSD>
1

> <PUBCHEM_CONFORMER_DIVERSEORDER>
3
168
33
161
137
13
40
125
172
27
55
29
16
42
150
23
174
39
113
72
102
45
183
36
173
91
50
92
78
157
141
149
123
181
132
104
160
87
7
182
187
105
43
24
153
38
77
84
180
18
85
142
159
116
148
151
1
68
2
47
52
81
34
147
156
112
14
128
188
8
31
165
115
97
176
64
146
162
22
124
53
127
169
88
86
177
145
108
62
37
74
111
184
179
66
166
109
170
98
63
136
21
190
164
131
67
134
158
139
167
61
75
126
19
163
101
99
114
171
175
80
69
83
178
30
140
138
130
119
186
79
100
35
143
94
107
58
51
48
17
60
82
56
96
133
185
129
93
155
70
95
5
152
117
121
32
4
73
90
46
25
110
65
120
154
28
49
76
135
89
106
118
144
15
57
26
59
41
103
10
189
71
44
20
54
9
122
11
6
12

> <PUBCHEM_MMFF94_PARTIAL_CHARGES>
34
1 -0.08
10 0.14
11 0.14
12 -0.15
13 -0.15
14 -0.15
15 0.18
18 0.06
19 0.2
2 -0.43
20 0.57
21 0.34
22 0.04
23 0.23
24 0.66
25 -0.15
26 -0.15
27 -0.15
28 -0.15
3 -0.57
33 0.15
34 0.15
35 0.37
36 0.15
4 -0.57
49 0.15
5 -0.55
50 0.15
51 0.15
52 0.15
6 -0.57
7 0.12
8 -0.14
9 -0.14

> <PUBCHEM_EFFECTIVE_ROTOR_COUNT>
10

> <PUBCHEM_PHARMACOPHORE_FEATURES>
9
1 16 hydrophobe
1 17 hydrophobe
1 3 acceptor
1 4 acceptor
1 5 donor
1 6 acceptor
5 1 6 19 22 23 rings
6 22 23 25 26 27 28 rings
6 7 8 9 12 13 14 rings

> <PUBCHEM_HEAVY_ATOM_COUNT>
28

> <PUBCHEM_ATOM_DEF_STEREO_COUNT>
0

> <PUBCHEM_ATOM_UDEF_STEREO_COUNT>
0

> <PUBCHEM_BOND_DEF_STEREO_COUNT>
0

> <PUBCHEM_BOND_UDEF_STEREO_COUNT>
0

> <PUBCHEM_ISOTOPIC_ATOM_COUNT>
0

> <PUBCHEM_COMPONENT_COUNT>
1

> <PUBCHEM_CACTVS_TAUTO_COUNT>
4

> <PUBCHEM_CONFORMER_ID>
0077BC6400000003

> <PUBCHEM_MMFF94_ENERGY>
69.1541

> <PUBCHEM_FEATURE_SELFOVERLAP>
45.74

> <PUBCHEM_SHAPE_FINGERPRINT>
10165383 225 18193828258938493768
10871710 139 17472978402677289918
1100329 8 15455933761702241402
12156800 1 16824384392034189576
12553582 1 18191883416580167124
12633257 1 18339651053049263506
12788726 201 16324825381152660500
128993 33 18191597345603438284
12925494 130 18193556907738192617
13122387 1 18409740547096127300
13402501 40 18341047501303894154
151778 21 18409163273168441200
17093844 170 17904495339281035584
18785283 64 18410568483414487274
19930381 70 18410012143642639841
20691752 17 16988269980340846035
20764821 26 18267024045153238914
21860390 5 18115588299900794422
238 59 17836976378538754444
35225 105 16810097183081140950
3524813 1 17985546890593698135
469060 322 16338106528138553892
5081480 168 17316171886994915006
6287921 2 18342731871502595317

> <PUBCHEM_SHAPE_MULTIPOLES>
552.51
8.17
4.93
1.8
4.03
0.02
1.64
1.17
-3.06
-3.58
-0.12
1.06
-0.01
1.38

> <PUBCHEM_SHAPE_SELFOVERLAP>
1162.077

> <PUBCHEM_SHAPE_VOLUME>
312.1

> <PUBCHEM_COORDINATE_TYPE>
2
5
10

$$$$

