9543290
  -OEChem-07051213112D

 31 34  0     0  0  0  0  0  0999 V2000
    3.0000    2.3392    0.0000 S   0  0  0  0  0  0  0  0  0  0  0  0
    3.0074    1.3392    0.0000 O   0  0  0  0  0  0  0  0  0  0  0  0
    2.9926    3.3392    0.0000 O   0  0  0  0  0  0  0  0  0  0  0  0
    2.0000    2.3318    0.0000 O   0  0  0  0  0  0  0  0  0  0  0  0
    4.0000    2.3466    0.0000 O   0  0  0  0  0  0  0  0  0  0  0  0
    4.7444   -0.6460    0.0000 C   0  0  0  0  0  0  0  0  0  0  0  0
    4.7444   -1.6460    0.0000 C   0  0  0  0  0  0  0  0  0  0  0  0
    3.8783   -0.1461    0.0000 C   0  0  0  0  0  0  0  0  0  0  0  0
    5.6383   -0.1114    0.0000 C   0  0  0  0  0  0  0  0  0  0  0  0
    3.8783   -2.1460    0.0000 C   0  0  0  0  0  0  0  0  0  0  0  0
    5.6383   -2.1807    0.0000 C   0  0  0  0  0  0  0  0  0  0  0  0
    3.8771    0.8457    0.0000 C   0  0  0  0  0  0  0  0  0  0  0  0
    3.0123   -0.6460    0.0000 C   0  0  0  0  0  0  0  0  0  0  0  0
    3.0123   -1.6460    0.0000 C   0  0  0  0  0  0  0  0  0  0  0  0
    6.5444   -0.6252    0.0000 C   0  0  0  0  0  0  0  0  0  0  0  0
    6.5444   -1.6669    0.0000 C   0  0  0  0  0  0  0  0  0  0  0  0
    5.6005    0.8796    0.0000 C   0  0  0  0  0  0  0  0  0  0  0  0
    3.8771   -3.1378    0.0000 C   0  0  0  0  0  0  0  0  0  0  0  0
    5.6005   -3.1717    0.0000 C   0  0  0  0  0  0  0  0  0  0  0  0
    4.7291    1.3531    0.0000 C   0  0  0  0  0  0  0  0  0  0  0  0
    4.7291   -3.6452    0.0000 C   0  0  0  0  0  0  0  0  0  0  0  0
    2.4754   -0.3360    0.0000 H   0  0  0  0  0  0  0  0  0  0  0  0
    2.4754   -1.9560    0.0000 H   0  0  0  0  0  0  0  0  0  0  0  0
    7.0801   -0.3132    0.0000 H   0  0  0  0  0  0  0  0  0  0  0  0
    7.0801   -1.9789    0.0000 H   0  0  0  0  0  0  0  0  0  0  0  0
    6.1272    1.2066    0.0000 H   0  0  0  0  0  0  0  0  0  0  0  0
    3.3379   -3.4438    0.0000 H   0  0  0  0  0  0  0  0  0  0  0  0
    6.1272   -3.4987    0.0000 H   0  0  0  0  0  0  0  0  0  0  0  0
    4.7169    1.9730    0.0000 H   0  0  0  0  0  0  0  0  0  0  0  0
    4.7169   -4.2651    0.0000 H   0  0  0  0  0  0  0  0  0  0  0  0
    2.4534    3.6452    0.0000 H   0  0  0  0  0  0  0  0  0  0  0  0
  1  2  1  0  0  0  0
  1  3  1  0  0  0  0
  1  4  2  0  0  0  0
  1  5  2  0  0  0  0
  2 12  1  0  0  0  0
  3 31  1  0  0  0  0
  6  7  1  0  0  0  0
  6  8  1  0  0  0  0
  6  9  2  0  0  0  0
  7 10  1  0  0  0  0
  7 11  2  0  0  0  0
  8 12  2  0  0  0  0
  8 13  1  0  0  0  0
  9 15  1  0  0  0  0
  9 17  1  0  0  0  0
 10 14  1  0  0  0  0
 10 18  2  0  0  0  0
 11 16  1  0  0  0  0
 11 19  1  0  0  0  0
 12 20  1  0  0  0  0
 13 14  2  0  0  0  0
 13 22  1  0  0  0  0
 14 23  1  0  0  0  0
 15 16  2  0  0  0  0
 15 24  1  0  0  0  0
 16 25  1  0  0  0  0
 17 20  2  0  0  0  0
 17 26  1  0  0  0  0
 18 21  1  0  0  0  0
 18 27  1  0  0  0  0
 19 21  2  0  0  0  0
 19 28  1  0  0  0  0
 20 29  1  0  0  0  0
 21 30  1  0  0  0  0
M  END
> <PUBCHEM_COMPOUND_CID>
9543290

> <PUBCHEM_COMPOUND_CANONICALIZED>
1

> <PUBCHEM_CACTVS_COMPLEXITY>
497

> <PUBCHEM_CACTVS_HBOND_ACCEPTOR>
4

> <PUBCHEM_CACTVS_HBOND_DONOR>
1

> <PUBCHEM_CACTVS_ROTATABLE_BOND>
2

> <PUBCHEM_CACTVS_SUBSKEYS>
AAADccB4OABAAAAAAAAAAAAAAAAAAAAAAAAwYMGAAAAAAADBVAAAGgAACAAADASAmAAwBsAAAICAAiBCADACAAAgIAAIiAAGCIgIJiKAERKAMAAkwBEIiAeAwPAO4AADAAAYAADAAAYAADAAAAAAAAAAAA==

> <PUBCHEM_IUPAC_OPENEYE_NAME>
pyren-1-yl hydrogen sulfate

> <PUBCHEM_IUPAC_CAS_NAME>
sulfuric acid 1-pyrenyl ester

> <PUBCHEM_IUPAC_NAME>
pyren-1-yl hydrogen sulfate

> <PUBCHEM_IUPAC_SYSTEMATIC_NAME>
pyren-1-yl hydrogen sulfate

> <PUBCHEM_IUPAC_TRADITIONAL_NAME>
sulfuric acid pyren-1-yl ester

> <PUBCHEM_IUPAC_INCHI>
InChI=1S/C16H10O4S/c17-21(18,19)20-14-9-7-12-5-4-10-2-1-3-11-6-8-13(14)16(12)15(10)11/h1-9H,(H,17,18,19)

> <PUBCHEM_IUPAC_INCHIKEY>
PPWRGGIIPLXGJL-UHFFFAOYSA-N

> <PUBCHEM_XLOGP3_AA>
4.1

> <PUBCHEM_EXACT_MASS>
298.02998

> <PUBCHEM_MOLECULAR_FORMULA>
C16H10O4S

> <PUBCHEM_MOLECULAR_WEIGHT>
298.3132

> <PUBCHEM_OPENEYE_CAN_SMILES>
C1=CC2=C3C(=C1)C=CC4=C(C=CC(=C43)C=C2)OS(=O)(=O)O

> <PUBCHEM_OPENEYE_ISO_SMILES>
C1=CC2=C3C(=C1)C=CC4=C(C=CC(=C43)C=C2)OS(=O)(=O)O

> <PUBCHEM_CACTVS_TPSA>
72

> <PUBCHEM_MONOISOTOPIC_WEIGHT>
298.02998

> <PUBCHEM_TOTAL_CHARGE>
0

> <PUBCHEM_HEAVY_ATOM_COUNT>
21

> <PUBCHEM_ATOM_DEF_STEREO_COUNT>
0

> <PUBCHEM_ATOM_UDEF_STEREO_COUNT>
0

> <PUBCHEM_BOND_DEF_STEREO_COUNT>
0

> <PUBCHEM_BOND_UDEF_STEREO_COUNT>
0

> <PUBCHEM_ISOTOPIC_ATOM_COUNT>
0

> <PUBCHEM_COMPONENT_COUNT>
1

> <PUBCHEM_CACTVS_TAUTO_COUNT>
1

> <PUBCHEM_COORDINATE_TYPE>
1
5
255

> <PUBCHEM_BONDANNOTATIONS>
10  14  8
10  18  8
11  16  8
11  19  8
12  20  8
13  14  8
15  16  8
17  20  8
18  21  8
19  21  8
6  7  8
6  8  8
6  9  8
7  10  8
7  11  8
8  12  8
8  13  8
9  15  8
9  17  8

$$$$

