17395437
  -OEChem-06241222502D

 44 46  0     0  0  0  0  0  0999 V2000
    5.4935    0.2727    0.0000 S   0  0  0  0  0  0  0  0  0  0  0  0
    7.5771    0.3340    0.0000 O   0  0  0  0  0  0  0  0  0  0  0  0
    7.5771   -1.3981    0.0000 N   0  0  0  0  0  0  0  0  0  0  0  0
    3.5962    0.2770    0.0000 N   0  0  0  0  0  0  0  0  0  0  0  0
    3.0084   -0.5321    0.0000 N   0  0  0  0  0  0  0  0  0  0  0  0
    8.5771   -1.3981    0.0000 C   0  0  0  0  0  0  0  0  0  0  0  0
    4.5472   -1.0321    0.0000 C   0  0  0  0  0  0  0  0  0  0  0  0
    4.5472   -0.0321    0.0000 C   0  0  0  0  0  0  0  0  0  0  0  0
    9.0771   -2.2641    0.0000 C   0  0  0  0  0  0  0  0  0  0  0  0
    6.0771   -0.5321    0.0000 C   0  0  0  0  0  0  0  0  0  0  0  0
    5.4935   -1.3368    0.0000 C   0  0  0  0  0  0  0  0  0  0  0  0
    3.5962   -1.3411    0.0000 C   0  0  0  0  0  0  0  0  0  0  0  0
   10.0771   -2.2641    0.0000 C   0  0  0  0  0  0  0  0  0  0  0  0
    7.0771   -0.5321    0.0000 C   0  0  0  0  0  0  0  0  0  0  0  0
    3.2872    1.2280    0.0000 C   0  0  0  0  0  0  0  0  0  0  0  0
    7.0771   -2.2641    0.0000 C   0  0  0  0  0  0  0  0  0  0  0  0
    3.2872   -2.2921    0.0000 C   0  0  0  0  0  0  0  0  0  0  0  0
   10.5771   -3.1301    0.0000 C   0  0  0  0  0  0  0  0  0  0  0  0
    3.9563    1.9712    0.0000 C   0  0  0  0  0  0  0  0  0  0  0  0
    2.3090    1.4359    0.0000 C   0  0  0  0  0  0  0  0  0  0  0  0
    3.6473    2.9222    0.0000 C   0  0  0  0  0  0  0  0  0  0  0  0
    2.0000    2.3870    0.0000 C   0  0  0  0  0  0  0  0  0  0  0  0
    2.6691    3.1301    0.0000 C   0  0  0  0  0  0  0  0  0  0  0  0
    9.1597   -1.1860    0.0000 H   0  0  0  0  0  0  0  0  0  0  0  0
    8.4694   -0.7875    0.0000 H   0  0  0  0  0  0  0  0  0  0  0  0
    8.4945   -2.4762    0.0000 H   0  0  0  0  0  0  0  0  0  0  0  0
    9.1847   -2.8747    0.0000 H   0  0  0  0  0  0  0  0  0  0  0  0
    5.6861   -1.9261    0.0000 H   0  0  0  0  0  0  0  0  0  0  0  0
   10.6597   -2.0520    0.0000 H   0  0  0  0  0  0  0  0  0  0  0  0
    9.9694   -1.6535    0.0000 H   0  0  0  0  0  0  0  0  0  0  0  0
    6.5401   -1.9541    0.0000 H   0  0  0  0  0  0  0  0  0  0  0  0
    6.7671   -2.8010    0.0000 H   0  0  0  0  0  0  0  0  0  0  0  0
    7.6140   -2.5741    0.0000 H   0  0  0  0  0  0  0  0  0  0  0  0
    2.6975   -2.1005    0.0000 H   0  0  0  0  0  0  0  0  0  0  0  0
    3.0956   -2.8818    0.0000 H   0  0  0  0  0  0  0  0  0  0  0  0
    3.8768   -2.4837    0.0000 H   0  0  0  0  0  0  0  0  0  0  0  0
   10.0401   -3.4401    0.0000 H   0  0  0  0  0  0  0  0  0  0  0  0
   10.8871   -3.6671    0.0000 H   0  0  0  0  0  0  0  0  0  0  0  0
   11.1140   -2.8201    0.0000 H   0  0  0  0  0  0  0  0  0  0  0  0
    4.5628    1.8423    0.0000 H   0  0  0  0  0  0  0  0  0  0  0  0
    1.8942    0.9752    0.0000 H   0  0  0  0  0  0  0  0  0  0  0  0
    4.0621    3.3830    0.0000 H   0  0  0  0  0  0  0  0  0  0  0  0
    1.3936    2.5159    0.0000 H   0  0  0  0  0  0  0  0  0  0  0  0
    2.4775    3.7198    0.0000 H   0  0  0  0  0  0  0  0  0  0  0  0
  1  8  1  0  0  0  0
  1 10  1  0  0  0  0
  2 14  2  0  0  0  0
  3  6  1  0  0  0  0
  3 14  1  0  0  0  0
  3 16  1  0  0  0  0
  4  5  1  0  0  0  0
  4  8  1  0  0  0  0
  4 15  1  0  0  0  0
  5 12  2  0  0  0  0
  6  9  1  0  0  0  0
  6 24  1  0  0  0  0
  6 25  1  0  0  0  0
  7  8  2  0  0  0  0
  7 11  1  0  0  0  0
  7 12  1  0  0  0  0
  9 13  1  0  0  0  0
  9 26  1  0  0  0  0
  9 27  1  0  0  0  0
 10 11  2  0  0  0  0
 10 14  1  0  0  0  0
 11 28  1  0  0  0  0
 12 17  1  0  0  0  0
 13 18  1  0  0  0  0
 13 29  1  0  0  0  0
 13 30  1  0  0  0  0
 15 19  2  0  0  0  0
 15 20  1  0  0  0  0
 16 31  1  0  0  0  0
 16 32  1  0  0  0  0
 16 33  1  0  0  0  0
 17 34  1  0  0  0  0
 17 35  1  0  0  0  0
 17 36  1  0  0  0  0
 18 37  1  0  0  0  0
 18 38  1  0  0  0  0
 18 39  1  0  0  0  0
 19 21  1  0  0  0  0
 19 40  1  0  0  0  0
 20 22  2  0  0  0  0
 20 41  1  0  0  0  0
 21 23  2  0  0  0  0
 21 42  1  0  0  0  0
 22 23  1  0  0  0  0
 22 43  1  0  0  0  0
 23 44  1  0  0  0  0
M  END
> <PUBCHEM_COMPOUND_CID>
17395437

> <PUBCHEM_COMPOUND_CANONICALIZED>
1

> <PUBCHEM_CACTVS_COMPLEXITY>
413

> <PUBCHEM_CACTVS_HBOND_ACCEPTOR>
3

> <PUBCHEM_CACTVS_HBOND_DONOR>
0

> <PUBCHEM_CACTVS_ROTATABLE_BOND>
5

> <PUBCHEM_CACTVS_SUBSKEYS>
AAADceB7IABAAAAAAAAAAAAAAAAAAWJAAAAwAAAAAAAWAAAB/AAAHgQIAAAADAjB3gQywdMIAAiuAyVyVACTFKBlChhYmDk4ZNgIIPLg1dGEpQxgjgDoyYcYCQAeAAAAAAAAAAAAAAAAAAAAAAAAAAAAAA==

> <PUBCHEM_IUPAC_OPENEYE_NAME>
N-butyl-N,3-dimethyl-1-phenyl-thieno[2,3-c]pyrazole-5-carboxamide

> <PUBCHEM_IUPAC_CAS_NAME>
N-butyl-N,3-dimethyl-1-phenyl-5-thieno[2,3-c]pyrazolecarboxamide

> <PUBCHEM_IUPAC_NAME>
N-butyl-N,3-dimethyl-1-phenylthieno[2,3-c]pyrazole-5-carboxamide

> <PUBCHEM_IUPAC_SYSTEMATIC_NAME>
N-butyl-N,3-dimethyl-1-phenyl-thieno[2,3-c]pyrazole-5-carboxamide

> <PUBCHEM_IUPAC_TRADITIONAL_NAME>
N-butyl-N,3-dimethyl-1-phenyl-thieno[2,3-c]pyrazole-5-carboxamide

> <PUBCHEM_IUPAC_INCHI>
InChI=1S/C18H21N3OS/c1-4-5-11-20(3)17(22)16-12-15-13(2)19-21(18(15)23-16)14-9-7-6-8-10-14/h6-10,12H,4-5,11H2,1-3H3

> <PUBCHEM_IUPAC_INCHIKEY>
GADUDNXVUTZIPL-UHFFFAOYSA-N

> <PUBCHEM_XLOGP3_AA>
4.7

> <PUBCHEM_EXACT_MASS>
327.140533

> <PUBCHEM_MOLECULAR_FORMULA>
C18H21N3OS

> <PUBCHEM_MOLECULAR_WEIGHT>
327.44384

> <PUBCHEM_OPENEYE_CAN_SMILES>
CCCCN(C)C(=O)C1=CC2=C(S1)N(N=C2C)C3=CC=CC=C3

> <PUBCHEM_OPENEYE_ISO_SMILES>
CCCCN(C)C(=O)C1=CC2=C(S1)N(N=C2C)C3=CC=CC=C3

> <PUBCHEM_CACTVS_TPSA>
66.4

> <PUBCHEM_MONOISOTOPIC_WEIGHT>
327.140533

> <PUBCHEM_TOTAL_CHARGE>
0

> <PUBCHEM_HEAVY_ATOM_COUNT>
23

> <PUBCHEM_ATOM_DEF_STEREO_COUNT>
0

> <PUBCHEM_ATOM_UDEF_STEREO_COUNT>
0

> <PUBCHEM_BOND_DEF_STEREO_COUNT>
0

> <PUBCHEM_BOND_UDEF_STEREO_COUNT>
0

> <PUBCHEM_ISOTOPIC_ATOM_COUNT>
0

> <PUBCHEM_COMPONENT_COUNT>
1

> <PUBCHEM_CACTVS_TAUTO_COUNT>
1

> <PUBCHEM_COORDINATE_TYPE>
1
5
255

> <PUBCHEM_BONDANNOTATIONS>
1  10  8
1  8  8
10  11  8
15  19  8
15  20  8
19  21  8
20  22  8
21  23  8
22  23  8
4  5  8
4  8  8
5  12  8
7  11  8
7  12  8
7  8  8

$$$$

