3034765
  -OEChem-07051212553D

 42 42  0     1  0  0  0  0  0999 V2000
    0.0832   -1.6212    1.5193 S   0  0  0  0  0  0  0  0  0  0  0  0
   -2.6718    2.6159    0.4848 S   0  0  0  0  0  0  0  0  0  0  0  0
    1.1756   -0.3056   -0.5347 O   0  0  0  0  0  0  0  0  0  0  0  0
    5.0810   -0.8006    0.6448 O   0  0  0  0  0  0  0  0  0  0  0  0
    4.4064    1.1718   -1.4131 O   0  0  0  0  0  0  0  0  0  0  0  0
    2.9621   -1.0293    2.5889 O   0  0  0  0  0  0  0  0  0  0  0  0
    0.3635    1.2606   -2.6391 O   0  0  0  0  0  0  0  0  0  0  0  0
   -2.6616    0.9864    0.5872 O   0  0  0  0  0  0  0  0  0  0  0  0
   -4.1524    2.9281   -0.1216 O   0  0  0  0  0  0  0  0  0  0  0  0
   -1.6951    3.0190   -0.5099 O   0  0  0  0  0  0  0  0  0  0  0  0
   -2.6248    3.1581    1.8299 O   0  0  0  0  0  0  0  0  0  0  0  0
   -1.4037    0.5068    0.9625 N   0  0  0  0  0  0  0  0  0  0  0  0
    3.8291   -0.1192    0.5431 C   0  0  1  0  0  0  0  0  0  0  0  0
    3.5223    0.1652   -0.9277 C   0  0  1  0  0  0  0  0  0  0  0  0
    2.7549   -1.0087    1.1770 C   0  0  2  0  0  0  0  0  0  0  0  0
    2.0792    0.6484   -1.0938 C   0  0  1  0  0  0  0  0  0  0  0  0
    1.3522   -0.4733    0.8718 C   0  0  2  0  0  0  0  0  0  0  0  0
    1.7085    0.8247   -2.5629 C   0  0  0  0  0  0  0  0  0  0  0  0
   -1.3971   -0.7866    1.0433 C   0  0  0  0  0  0  0  0  0  0  0  0
   -2.5797   -1.6988    0.7646 C   0  0  0  0  0  0  0  0  0  0  0  0
   -2.6378   -2.1400   -0.7005 C   0  0  0  0  0  0  0  0  0  0  0  0
   -3.8036   -3.0411   -0.9881 C   0  0  0  0  0  0  0  0  0  0  0  0
   -3.6905   -4.2606   -1.5258 C   0  0  0  0  0  0  0  0  0  0  0  0
    3.9407    0.8197    1.0996 H   0  0  0  0  0  0  0  0  0  0  0  0
    3.6930   -0.7426   -1.5202 H   0  0  0  0  0  0  0  0  0  0  0  0
    2.8798   -2.0333    0.8024 H   0  0  0  0  0  0  0  0  0  0  0  0
    1.9274    1.6117   -0.5879 H   0  0  0  0  0  0  0  0  0  0  0  0
    1.2053    0.4880    1.3796 H   0  0  0  0  0  0  0  0  0  0  0  0
    1.7847   -0.1199   -3.1116 H   0  0  0  0  0  0  0  0  0  0  0  0
    2.3406    1.5699   -3.0541 H   0  0  0  0  0  0  0  0  0  0  0  0
    5.2413   -0.9754    1.5880 H   0  0  0  0  0  0  0  0  0  0  0  0
    5.3145    0.8544   -1.2703 H   0  0  0  0  0  0  0  0  0  0  0  0
    2.2648   -1.5858    2.9759 H   0  0  0  0  0  0  0  0  0  0  0  0
   -0.1877    0.5952   -2.1926 H   0  0  0  0  0  0  0  0  0  0  0  0
   -2.5140   -2.5819    1.4131 H   0  0  0  0  0  0  0  0  0  0  0  0
   -3.5097   -1.1920    1.0473 H   0  0  0  0  0  0  0  0  0  0  0  0
   -2.7210   -1.2533   -1.3414 H   0  0  0  0  0  0  0  0  0  0  0  0
   -1.6944   -2.6269   -0.9774 H   0  0  0  0  0  0  0  0  0  0  0  0
   -4.7962   -2.6628   -0.7580 H   0  0  0  0  0  0  0  0  0  0  0  0
   -4.5737   -4.8600   -1.7177 H   0  0  0  0  0  0  0  0  0  0  0  0
   -2.7242   -4.6807   -1.7819 H   0  0  0  0  0  0  0  0  0  0  0  0
   -4.8966    2.4524    0.3165 H   0  0  0  0  0  0  0  0  0  0  0  0
  1 17  1  0  0  0  0
  1 19  1  0  0  0  0
  2  8  1  0  0  0  0
  2  9  1  0  0  0  0
  2 10  2  0  0  0  0
  2 11  2  0  0  0  0
  3 16  1  0  0  0  0
  3 17  1  0  0  0  0
  4 13  1  0  0  0  0
  4 31  1  0  0  0  0
  5 14  1  0  0  0  0
  5 32  1  0  0  0  0
  6 15  1  0  0  0  0
  6 33  1  0  0  0  0
  7 18  1  0  0  0  0
  7 34  1  0  0  0  0
  8 12  1  0  0  0  0
  9 42  1  0  0  0  0
 12 19  2  0  0  0  0
 13 14  1  0  0  0  0
 13 15  1  0  0  0  0
 13 24  1  0  0  0  0
 14 16  1  0  0  0  0
 14 25  1  0  0  0  0
 15 17  1  0  0  0  0
 15 26  1  0  0  0  0
 16 18  1  0  0  0  0
 16 27  1  0  0  0  0
 17 28  1  0  0  0  0
 18 29  1  0  0  0  0
 18 30  1  0  0  0  0
 19 20  1  0  0  0  0
 20 21  1  0  0  0  0
 20 35  1  0  0  0  0
 20 36  1  0  0  0  0
 21 22  1  0  0  0  0
 21 37  1  0  0  0  0
 21 38  1  0  0  0  0
 22 23  2  0  0  0  0
 22 39  1  0  0  0  0
 23 40  1  0  0  0  0
 23 41  1  0  0  0  0
M  END
> <PUBCHEM_COMPOUND_CID>
3034765

> <PUBCHEM_CONFORMER_RMSD>
1

> <PUBCHEM_CONFORMER_DIVERSEORDER>
1
68
35
20
67
76
74
54
29
44
59
50
39
18
77
71
75
8
22
4
78
51
56
82
6
80
24
45
5
63
32
79
70
10
13
38
57
52
58
43
81
17
48
30
19
33
3
37
2
41
42
66
40
9
65
64
27
11
62
69
60
72
61
16
47
7
21
34
23
46
73
31
55
25
12
14
28
26
53
49
36
15

> <PUBCHEM_MMFF94_PARTIAL_CHARGES>
31
1 -0.37
10 -0.65
11 -0.65
12 -0.51
13 0.28
14 0.28
15 0.28
16 0.28
17 0.51
18 0.28
19 0.53
2 1.67
20 0.06
21 0.14
22 -0.29
23 -0.3
3 -0.56
31 0.4
32 0.4
33 0.4
34 0.4
39 0.15
4 -0.68
40 0.15
41 0.15
42 0.5
5 -0.68
6 -0.68
7 -0.68
8 -0.12
9 -0.68

> <PUBCHEM_EFFECTIVE_ROTOR_COUNT>
9.2

> <PUBCHEM_PHARMACOPHORE_FEATURES>
16
1 10 acceptor
1 11 acceptor
1 12 acceptor
1 23 hydrophobe
1 3 acceptor
1 4 acceptor
1 4 donor
1 5 acceptor
1 5 donor
1 6 acceptor
1 6 donor
1 7 acceptor
1 7 donor
1 9 acceptor
4 2 9 10 11 anion
6 3 13 14 15 16 17 rings

> <PUBCHEM_HEAVY_ATOM_COUNT>
23

> <PUBCHEM_ATOM_DEF_STEREO_COUNT>
5

> <PUBCHEM_ATOM_UDEF_STEREO_COUNT>
0

> <PUBCHEM_BOND_DEF_STEREO_COUNT>
0

> <PUBCHEM_BOND_UDEF_STEREO_COUNT>
1

> <PUBCHEM_ISOTOPIC_ATOM_COUNT>
0

> <PUBCHEM_COMPONENT_COUNT>
1

> <PUBCHEM_CACTVS_TAUTO_COUNT>
1

> <PUBCHEM_CONFORMER_ID>
002E4E8D00000001

> <PUBCHEM_MMFF94_ENERGY>
39.4523

> <PUBCHEM_FEATURE_SELFOVERLAP>
81.267

> <PUBCHEM_SHAPE_FINGERPRINT>
11582403 64 16014712984088364666
11640471 11 18200019784802269184
12553582 1 18193554467927632499
12788726 201 18411413974024243571
13583140 156 17386020485232689058
14004458 79 18261958449392829451
1813 80 17826227390095370735
18219364 16 15913040950652274578
19026451 147 17832703470126623847
192875 21 18130227030172596214
20261772 1 17559947900124126880
20600515 1 17534633611958328147
20739085 24 16414896640041170116
21524375 3 18125436660258753561
23419403 2 17476694884975478805
23557571 272 17894917329987153473
23598288 3 18341606023710561739
23598291 2 18131069346537692410
633830 44 17631709644172345822
6438718 38 18268128981229634433
7164475 11 18410863143972938667
7471813 234 18197502826655700222
7615 1 18202291311643247098

> <PUBCHEM_SHAPE_MULTIPOLES>
423.22
8.46
4.09
2.27
3.49
1.39
-0.65
-3.23
-1.27
-8.54
-0.47
1.22
-0.03
-3.29

> <PUBCHEM_SHAPE_SELFOVERLAP>
814.635

> <PUBCHEM_SHAPE_VOLUME>
257.5

> <PUBCHEM_COORDINATE_TYPE>
2
5
10

$$$$

