10478277
  -OEChem-07051213102D

 57 60  0     1  0  0  0  0  0999 V2000
    9.0602   -0.9496    0.0000 O   0  0  0  0  0  0  0  0  0  0  0  0
    8.1884    0.5471    0.0000 O   0  0  0  0  0  0  0  0  0  0  0  0
    7.2901   -3.0084    0.0000 O   0  0  0  0  0  0  0  0  0  0  0  0
   10.7884    0.0571    0.0000 O   0  0  0  0  0  0  0  0  0  0  0  0
   10.7807    2.0571    0.0000 O   0  0  0  0  0  0  0  0  0  0  0  0
    9.0448    3.0504    0.0000 O   0  0  0  0  0  0  0  0  0  0  0  0
    7.3128    3.0437    0.0000 O   0  0  0  0  0  0  0  0  0  0  0  0
    5.5301    0.0263    0.0000 O   0  0  0  0  0  0  0  0  0  0  0  0
    3.7702   -3.0084    0.0000 O   0  0  0  0  0  0  0  0  0  0  0  0
    3.7817    0.0609    0.0000 O   0  0  0  0  0  0  0  0  0  0  0  0
    8.1962   -1.4529    0.0000 C   0  0  2  0  0  0  0  0  0  0  0  0
    8.1962   -2.4945    0.0000 C   0  0  0  0  0  0  0  0  0  0  0  0
    9.0564    0.0504    0.0000 C   0  0  2  0  0  0  0  0  0  0  0  0
    9.9205    0.5538    0.0000 C   0  0  1  0  0  0  0  0  0  0  0  0
    9.9166    1.5538    0.0000 C   0  0  2  0  0  0  0  0  0  0  0  0
    7.2901   -0.9391    0.0000 C   0  0  0  0  0  0  0  0  0  0  0  0
    9.0487    2.0504    0.0000 C   0  0  1  0  0  0  0  0  0  0  0  0
    8.1846    1.5471    0.0000 C   0  0  1  0  0  0  0  0  0  0  0  0
    6.3961   -1.4737    0.0000 C   0  0  0  0  0  0  0  0  0  0  0  0
    9.1962   -2.4984    0.0000 C   0  0  0  0  0  0  0  0  0  0  0  0
    8.6928   -3.3625    0.0000 C   0  0  0  0  0  0  0  0  0  0  0  0
    6.3961   -2.4737    0.0000 C   0  0  0  0  0  0  0  0  0  0  0  0
    7.3166    2.0437    0.0000 C   0  0  0  0  0  0  0  0  0  0  0  0
    5.5301   -0.9737    0.0000 C   0  0  0  0  0  0  0  0  0  0  0  0
    5.5301   -2.9737    0.0000 C   0  0  0  0  0  0  0  0  0  0  0  0
    4.6641   -1.4737    0.0000 C   0  0  0  0  0  0  0  0  0  0  0  0
    4.6641   -2.4737    0.0000 C   0  0  0  0  0  0  0  0  0  0  0  0
    3.7702   -0.9391    0.0000 C   0  0  0  0  0  0  0  0  0  0  0  0
    2.8641   -1.4529    0.0000 C   0  0  0  0  0  0  0  0  0  0  0  0
    2.8641   -2.4945    0.0000 C   0  0  0  0  0  0  0  0  0  0  0  0
    2.0000   -2.9979    0.0000 C   0  0  0  0  0  0  0  0  0  0  0  0
    8.1926   -0.8329    0.0000 H   0  0  0  0  0  0  0  0  0  0  0  0
    8.5207   -0.2616    0.0000 H   0  0  0  0  0  0  0  0  0  0  0  0
   10.4562    0.8658    0.0000 H   0  0  0  0  0  0  0  0  0  0  0  0
    9.9142    2.1738    0.0000 H   0  0  0  0  0  0  0  0  0  0  0  0
    7.6837   -0.4600    0.0000 H   0  0  0  0  0  0  0  0  0  0  0  0
    6.8855   -0.4693    0.0000 H   0  0  0  0  0  0  0  0  0  0  0  0
    8.5106    2.3583    0.0000 H   0  0  0  0  0  0  0  0  0  0  0  0
    7.6489    1.2350    0.0000 H   0  0  0  0  0  0  0  0  0  0  0  0
    9.1938   -3.1184    0.0000 H   0  0  0  0  0  0  0  0  0  0  0  0
    9.8162   -2.5008    0.0000 H   0  0  0  0  0  0  0  0  0  0  0  0
    9.1985   -1.8784    0.0000 H   0  0  0  0  0  0  0  0  0  0  0  0
    8.1547   -3.6704    0.0000 H   0  0  0  0  0  0  0  0  0  0  0  0
    9.0008   -3.9006    0.0000 H   0  0  0  0  0  0  0  0  0  0  0  0
    9.2310   -3.0546    0.0000 H   0  0  0  0  0  0  0  0  0  0  0  0
    6.7057    2.1490    0.0000 H   0  0  0  0  0  0  0  0  0  0  0  0
    7.1068    1.4603    0.0000 H   0  0  0  0  0  0  0  0  0  0  0  0
   11.3242    0.3692    0.0000 H   0  0  0  0  0  0  0  0  0  0  0  0
    5.5301   -3.5937    0.0000 H   0  0  0  0  0  0  0  0  0  0  0  0
   10.7783    2.6771    0.0000 H   0  0  0  0  0  0  0  0  0  0  0  0
    9.5806    3.3625    0.0000 H   0  0  0  0  0  0  0  0  0  0  0  0
    6.7747    3.3517    0.0000 H   0  0  0  0  0  0  0  0  0  0  0  0
    4.9932    0.3363    0.0000 H   0  0  0  0  0  0  0  0  0  0  0  0
    2.3284   -1.1408    0.0000 H   0  0  0  0  0  0  0  0  0  0  0  0
    1.6879   -2.4621    0.0000 H   0  0  0  0  0  0  0  0  0  0  0  0
    1.4643   -3.3099    0.0000 H   0  0  0  0  0  0  0  0  0  0  0  0
    2.3121   -3.5336    0.0000 H   0  0  0  0  0  0  0  0  0  0  0  0
 11  1  1  6  0  0  0
 13  1  1  6  0  0  0
  2 13  1  0  0  0  0
  2 18  1  0  0  0  0
  3 12  1  0  0  0  0
  3 22  1  0  0  0  0
 14  4  1  1  0  0  0
  4 48  1  0  0  0  0
 15  5  1  6  0  0  0
  5 50  1  0  0  0  0
 17  6  1  1  0  0  0
  6 51  1  0  0  0  0
  7 23  1  0  0  0  0
  7 52  1  0  0  0  0
  8 24  1  0  0  0  0
  8 53  1  0  0  0  0
  9 27  1  0  0  0  0
  9 30  1  0  0  0  0
 10 28  2  0  0  0  0
 11 12  1  0  0  0  0
 11 16  1  0  0  0  0
 11 32  1  0  0  0  0
 12 20  1  0  0  0  0
 12 21  1  0  0  0  0
 13 14  1  0  0  0  0
 13 33  1  0  0  0  0
 14 15  1  0  0  0  0
 14 34  1  0  0  0  0
 15 17  1  0  0  0  0
 15 35  1  0  0  0  0
 16 19  1  0  0  0  0
 16 36  1  0  0  0  0
 16 37  1  0  0  0  0
 17 18  1  0  0  0  0
 17 38  1  0  0  0  0
 18 23  1  6  0  0  0
 18 39  1  0  0  0  0
 19 22  2  0  0  0  0
 19 24  1  0  0  0  0
 20 40  1  0  0  0  0
 20 41  1  0  0  0  0
 20 42  1  0  0  0  0
 21 43  1  0  0  0  0
 21 44  1  0  0  0  0
 21 45  1  0  0  0  0
 22 25  1  0  0  0  0
 23 46  1  0  0  0  0
 23 47  1  0  0  0  0
 24 26  2  0  0  0  0
 25 27  2  0  0  0  0
 25 49  1  0  0  0  0
 26 27  1  0  0  0  0
 26 28  1  0  0  0  0
 28 29  1  0  0  0  0
 29 30  2  0  0  0  0
 29 54  1  0  0  0  0
 30 31  1  0  0  0  0
 31 55  1  0  0  0  0
 31 56  1  0  0  0  0
 31 57  1  0  0  0  0
M  END
> <PUBCHEM_COMPOUND_CID>
10478277

> <PUBCHEM_COMPOUND_CANONICALIZED>
1

> <PUBCHEM_CACTVS_COMPLEXITY>
723

> <PUBCHEM_CACTVS_HBOND_ACCEPTOR>
10

> <PUBCHEM_CACTVS_HBOND_DONOR>
5

> <PUBCHEM_CACTVS_ROTATABLE_BOND>
3

> <PUBCHEM_CACTVS_SUBSKEYS>
AAADceB4PAAAAAAAAAAAAAAAAAAAAAAAAAA0SIEAAAAAAACRAAAAGgAACAAADFSwmAMyDoAABgCIAqBSAAACCAAkIAAAiAEGCMgdNzaGNRqieWCl4BUPuQfI7PzOIAACCAAIAABAAAQQABAAAAAAAAAAAA==

> <PUBCHEM_IUPAC_OPENEYE_NAME>
(3S)-5-hydroxy-2,2,8-trimethyl-3-[(2S,3R,4S,5S,6R)-3,4,5-trihydroxy-6-(hydroxymethyl)tetrahydropyran-2-yl]oxy-3,4-dihydropyrano[3,2-g]chromen-6-one

> <PUBCHEM_IUPAC_CAS_NAME>
(3S)-5-hydroxy-2,2,8-trimethyl-3-[[(2S,3R,4S,5S,6R)-3,4,5-trihydroxy-6-(hydroxymethyl)-2-oxanyl]oxy]-3,4-dihydropyrano[3,2-g][1]benzopyran-6-one

> <PUBCHEM_IUPAC_NAME>
(3S)-5-hydroxy-2,2,8-trimethyl-3-[(2S,3R,4S,5S,6R)-3,4,5-trihydroxy-6-(hydroxymethyl)oxan-2-yl]oxy-3,4-dihydropyrano[3,2-g]chromen-6-one

> <PUBCHEM_IUPAC_SYSTEMATIC_NAME>
(3S)-3-[(2S,3R,4S,5S,6R)-6-(hydroxymethyl)-3,4,5-tris(oxidanyl)oxan-2-yl]oxy-2,2,8-trimethyl-5-oxidanyl-3,4-dihydropyrano[3,2-g]chromen-6-one

> <PUBCHEM_IUPAC_TRADITIONAL_NAME>
(3S)-5-hydroxy-2,2,8-trimethyl-3-[(2S,3R,4S,5S,6R)-3,4,5-trihydroxy-6-methylol-tetrahydropyran-2-yl]oxy-3,4-dihydropyrano[3,2-g]chromen-6-one

> <PUBCHEM_IUPAC_INCHI>
InChI=1S/C21H26O10/c1-8-4-10(23)15-12(28-8)6-11-9(16(15)24)5-14(21(2,3)31-11)30-20-19(27)18(26)17(25)13(7-22)29-20/h4,6,13-14,17-20,22,24-27H,5,7H2,1-3H3/t13-,14+,17-,18+,19-,20+/m1/s1

> <PUBCHEM_IUPAC_INCHIKEY>
QVUPQEXKTXSMKX-JJDILSOYSA-N

> <PUBCHEM_XLOGP3_AA>
0.5

> <PUBCHEM_EXACT_MASS>
438.152597

> <PUBCHEM_MOLECULAR_FORMULA>
C21H26O10

> <PUBCHEM_MOLECULAR_WEIGHT>
438.42514

> <PUBCHEM_OPENEYE_CAN_SMILES>
CC1=CC(=O)C2=C(C3=C(C=C2O1)OC(C(C3)OC4C(C(C(C(O4)CO)O)O)O)(C)C)O

> <PUBCHEM_OPENEYE_ISO_SMILES>
CC1=CC(=O)C2=C(C3=C(C=C2O1)OC([C@H](C3)O[C@H]4[C@@H]([C@H]([C@@H]([C@H](O4)CO)O)O)O)(C)C)O

> <PUBCHEM_CACTVS_TPSA>
155

> <PUBCHEM_MONOISOTOPIC_WEIGHT>
438.152597

> <PUBCHEM_TOTAL_CHARGE>
0

> <PUBCHEM_HEAVY_ATOM_COUNT>
31

> <PUBCHEM_ATOM_DEF_STEREO_COUNT>
6

> <PUBCHEM_ATOM_UDEF_STEREO_COUNT>
0

> <PUBCHEM_BOND_DEF_STEREO_COUNT>
0

> <PUBCHEM_BOND_UDEF_STEREO_COUNT>
0

> <PUBCHEM_ISOTOPIC_ATOM_COUNT>
0

> <PUBCHEM_COMPONENT_COUNT>
1

> <PUBCHEM_CACTVS_TAUTO_COUNT>
14

> <PUBCHEM_COORDINATE_TYPE>
1
5
255

> <PUBCHEM_BONDANNOTATIONS>
11  1  6
13  1  6
18  23  6
19  22  8
19  24  8
22  25  8
24  26  8
25  27  8
26  27  8
26  28  8
28  29  8
29  30  8
14  4  5
15  5  6
17  6  5
9  27  8
9  30  8

$$$$

