5319022
  -OEChem-07051213093D

 28 29  0     0  0  0  0  0  0999 V2000
   -0.5532    1.3599   -0.1809 O   0  0  0  0  0  0  0  0  0  0  0  0
    1.1494    2.8881    0.0887 O   0  0  0  0  0  0  0  0  0  0  0  0
    0.8047   -0.4989   -0.0966 C   0  0  0  0  0  0  0  0  0  0  0  0
    1.2922   -1.9099   -0.0981 C   0  0  0  0  0  0  0  0  0  0  0  0
    1.6097    0.5466    0.0442 C   0  0  0  0  0  0  0  0  0  0  0  0
    2.8272   -2.0419    0.0796 C   0  0  0  0  0  0  0  0  0  0  0  0
   -0.5321   -0.0334   -0.2376 C   0  0  0  0  0  0  0  0  0  0  0  0
    3.0227    0.4566    0.2096 C   0  0  0  0  0  0  0  0  0  0  0  0
    3.6025   -0.7531    0.2271 C   0  0  0  0  0  0  0  0  0  0  0  0
   -1.6429   -0.7571   -0.4024 C   0  0  0  0  0  0  0  0  0  0  0  0
   -3.0166   -0.1684   -0.5425 C   0  0  0  0  0  0  0  0  0  0  0  0
    0.7589    1.7362   -0.0077 C   0  0  0  0  0  0  0  0  0  0  0  0
   -3.9614   -0.6991    0.5361 C   0  0  0  0  0  0  0  0  0  0  0  0
   -5.3611   -0.1253    0.3804 C   0  0  0  0  0  0  0  0  0  0  0  0
    0.7968   -2.4690    0.7055 H   0  0  0  0  0  0  0  0  0  0  0  0
    1.0052   -2.3953   -1.0393 H   0  0  0  0  0  0  0  0  0  0  0  0
    3.2342   -2.5904   -0.7790 H   0  0  0  0  0  0  0  0  0  0  0  0
    3.0265   -2.6647    0.9607 H   0  0  0  0  0  0  0  0  0  0  0  0
    3.6088    1.3613    0.3182 H   0  0  0  0  0  0  0  0  0  0  0  0
    4.6789   -0.8264    0.3527 H   0  0  0  0  0  0  0  0  0  0  0  0
   -1.5758   -1.8416   -0.4514 H   0  0  0  0  0  0  0  0  0  0  0  0
   -2.9944    0.9266   -0.5016 H   0  0  0  0  0  0  0  0  0  0  0  0
   -3.4039   -0.4377   -1.5328 H   0  0  0  0  0  0  0  0  0  0  0  0
   -3.5769   -0.4421    1.5307 H   0  0  0  0  0  0  0  0  0  0  0  0
   -4.0162   -1.7935    0.4854 H   0  0  0  0  0  0  0  0  0  0  0  0
   -5.3492    0.9662    0.4631 H   0  0  0  0  0  0  0  0  0  0  0  0
   -6.0206   -0.5177    1.1610 H   0  0  0  0  0  0  0  0  0  0  0  0
   -5.7886   -0.3921   -0.5914 H   0  0  0  0  0  0  0  0  0  0  0  0
  1  7  1  0  0  0  0
  1 12  1  0  0  0  0
  2 12  2  0  0  0  0
  3  4  1  0  0  0  0
  3  5  2  0  0  0  0
  3  7  1  0  0  0  0
  4  6  1  0  0  0  0
  4 15  1  0  0  0  0
  4 16  1  0  0  0  0
  5  8  1  0  0  0  0
  5 12  1  0  0  0  0
  6  9  1  0  0  0  0
  6 17  1  0  0  0  0
  6 18  1  0  0  0  0
  7 10  2  0  0  0  0
  8  9  2  0  0  0  0
  8 19  1  0  0  0  0
  9 20  1  0  0  0  0
 10 11  1  0  0  0  0
 10 21  1  0  0  0  0
 11 13  1  0  0  0  0
 11 22  1  0  0  0  0
 11 23  1  0  0  0  0
 13 14  1  0  0  0  0
 13 24  1  0  0  0  0
 13 25  1  0  0  0  0
 14 26  1  0  0  0  0
 14 27  1  0  0  0  0
 14 28  1  0  0  0  0
M  END
> <PUBCHEM_COMPOUND_CID>
5319022

> <PUBCHEM_CONFORMER_RMSD>
0.6

> <PUBCHEM_CONFORMER_DIVERSEORDER>
1
5
3
4
2

> <PUBCHEM_MMFF94_PARTIAL_CHARGES>
15
1 -0.23
10 -0.29
11 0.14
12 0.71
19 0.15
2 -0.57
20 0.15
21 0.15
3 -0.14
4 0.14
5 0.01
6 0.14
7 0.08
8 -0.15
9 -0.29

> <PUBCHEM_EFFECTIVE_ROTOR_COUNT>
2.6

> <PUBCHEM_PHARMACOPHORE_FEATURES>
4
1 14 hydrophobe
1 2 acceptor
5 1 3 5 7 12 rings
6 3 4 5 6 8 9 rings

> <PUBCHEM_HEAVY_ATOM_COUNT>
14

> <PUBCHEM_ATOM_DEF_STEREO_COUNT>
0

> <PUBCHEM_ATOM_UDEF_STEREO_COUNT>
0

> <PUBCHEM_BOND_DEF_STEREO_COUNT>
1

> <PUBCHEM_BOND_UDEF_STEREO_COUNT>
0

> <PUBCHEM_ISOTOPIC_ATOM_COUNT>
0

> <PUBCHEM_COMPONENT_COUNT>
1

> <PUBCHEM_CACTVS_TAUTO_COUNT>
1

> <PUBCHEM_CONFORMER_ID>
0051296E00000001

> <PUBCHEM_MMFF94_ENERGY>
14.7261

> <PUBCHEM_FEATURE_SELFOVERLAP>
20.371

> <PUBCHEM_SHAPE_FINGERPRINT>
10219947 1 18407761430186726302
10967382 1 18410578353476108590
11471102 20 18411141316282789871
12032990 46 18339360872047308014
12251169 10 18334856100284158375
12346645 6 18260545615094172743
13140716 1 18122352280776080696
13380536 305 18266736883755931548
14251717 144 18410576175817296471
14252887 29 18187922919371940630
15375462 189 18341620325461274131
15442244 35 18336261353401106985
15501101 241 18272091565254078813
16945 1 18337966596929818300
18785283 64 18057318379754146605
193761 8 17690285906945682254
20559304 39 18408317774538527033
20645477 70 18411426098643190711
20871998 22 18190174766372127158
21267235 1 18337665412338052430
2255824 54 18265614286277993460
23598291 2 17969791774094493189
2748010 2 18192727841204058436
42 15 18412823599470542883
54173680 148 17690000458939677870
7364860 26 18336548205286657344
84936 182 17680993989703206057
8809292 202 18131066000710689747

> <PUBCHEM_SHAPE_MULTIPOLES>
276.37
7.55
2.12
0.68
10.33
0.96
0
-2.39
-1.37
-1.83
-0.03
0.21
-0.05
0.07

> <PUBCHEM_SHAPE_SELFOVERLAP>
582.288

> <PUBCHEM_SHAPE_VOLUME>
157.3

> <PUBCHEM_COORDINATE_TYPE>
2
5
10

$$$$

