19509
  -OEChem-07051213112D

 16 16  0     0  0  0  0  0  0999 V2000
    5.1350   -1.0000    0.0000 N   0  0  0  0  0  0  0  0  0  0  0  0
    2.5369   -0.5000    0.0000 N   0  0  0  0  0  0  0  0  0  0  0  0
    4.2690   -0.5000    0.0000 C   0  0  0  0  0  0  0  0  0  0  0  0
    3.4030   -1.0000    0.0000 C   0  0  0  0  0  0  0  0  0  0  0  0
    4.2690    0.5000    0.0000 C   0  0  0  0  0  0  0  0  0  0  0  0
    5.1350    1.0000    0.0000 C   0  0  0  0  0  0  0  0  0  0  0  0
    6.0010    0.5000    0.0000 C   0  0  0  0  0  0  0  0  0  0  0  0
    6.0010   -0.5000    0.0000 C   0  0  0  0  0  0  0  0  0  0  0  0
    3.0044   -1.4750    0.0000 H   0  0  0  0  0  0  0  0  0  0  0  0
    3.8015   -1.4750    0.0000 H   0  0  0  0  0  0  0  0  0  0  0  0
    3.7320    0.8100    0.0000 H   0  0  0  0  0  0  0  0  0  0  0  0
    5.1350    1.6200    0.0000 H   0  0  0  0  0  0  0  0  0  0  0  0
    6.5380    0.8100    0.0000 H   0  0  0  0  0  0  0  0  0  0  0  0
    6.5380   -0.8100    0.0000 H   0  0  0  0  0  0  0  0  0  0  0  0
    2.0000   -0.8100    0.0000 H   0  0  0  0  0  0  0  0  0  0  0  0
    2.5369    0.1200    0.0000 H   0  0  0  0  0  0  0  0  0  0  0  0
  1  3  1  0  0  0  0
  1  8  2  0  0  0  0
  2  4  1  0  0  0  0
  2 15  1  0  0  0  0
  2 16  1  0  0  0  0
  3  4  1  0  0  0  0
  3  5  2  0  0  0  0
  4  9  1  0  0  0  0
  4 10  1  0  0  0  0
  5  6  1  0  0  0  0
  5 11  1  0  0  0  0
  6  7  2  0  0  0  0
  6 12  1  0  0  0  0
  7  8  1  0  0  0  0
  7 13  1  0  0  0  0
  8 14  1  0  0  0  0
M  END
> <PUBCHEM_COMPOUND_CID>
19509

> <PUBCHEM_COMPOUND_CANONICALIZED>
1

> <PUBCHEM_CACTVS_COMPLEXITY>
63.5

> <PUBCHEM_CACTVS_HBOND_ACCEPTOR>
2

> <PUBCHEM_CACTVS_HBOND_DONOR>
1

> <PUBCHEM_CACTVS_ROTATABLE_BOND>
1

> <PUBCHEM_CACTVS_SUBSKEYS>
AAADccBjAAAAAAAAAAAAAAAAAAAAAAAAAAAsAAAAAAAAAAABgAAAHAAQAAAACAjBFgQ8gJJIEACgATRnRACCgCAxAiAI2KA4ZJgIYOLAkZGUIAhggADIyAcQAAAAAAAAAAAAAAAAAAAAAAAAAAAAAAAAAA==

> <PUBCHEM_IUPAC_OPENEYE_NAME>
2-pyridylmethanamine

> <PUBCHEM_IUPAC_CAS_NAME>
2-pyridinylmethanamine

> <PUBCHEM_IUPAC_NAME>
pyridin-2-ylmethanamine

> <PUBCHEM_IUPAC_SYSTEMATIC_NAME>
pyridin-2-ylmethanamine

> <PUBCHEM_IUPAC_TRADITIONAL_NAME>
2-pyridylmethylamine

> <PUBCHEM_IUPAC_INCHI>
InChI=1S/C6H8N2/c7-5-6-3-1-2-4-8-6/h1-4H,5,7H2

> <PUBCHEM_IUPAC_INCHIKEY>
WOXFMYVTSLAQMO-UHFFFAOYSA-N

> <PUBCHEM_XLOGP3>
-0.2

> <PUBCHEM_EXACT_MASS>
108.068748

> <PUBCHEM_MOLECULAR_FORMULA>
C6H8N2

> <PUBCHEM_MOLECULAR_WEIGHT>
108.14112

> <PUBCHEM_OPENEYE_CAN_SMILES>
C1=CC=NC(=C1)CN

> <PUBCHEM_OPENEYE_ISO_SMILES>
C1=CC=NC(=C1)CN

> <PUBCHEM_CACTVS_TPSA>
38.9

> <PUBCHEM_MONOISOTOPIC_WEIGHT>
108.068748

> <PUBCHEM_TOTAL_CHARGE>
0

> <PUBCHEM_HEAVY_ATOM_COUNT>
8

> <PUBCHEM_ATOM_DEF_STEREO_COUNT>
0

> <PUBCHEM_ATOM_UDEF_STEREO_COUNT>
0

> <PUBCHEM_BOND_DEF_STEREO_COUNT>
0

> <PUBCHEM_BOND_UDEF_STEREO_COUNT>
0

> <PUBCHEM_ISOTOPIC_ATOM_COUNT>
0

> <PUBCHEM_COMPONENT_COUNT>
1

> <PUBCHEM_CACTVS_TAUTO_COUNT>
1

> <PUBCHEM_COORDINATE_TYPE>
1
5
255

> <PUBCHEM_BONDANNOTATIONS>
1  3  8
1  8  8
3  5  8
5  6  8
6  7  8
7  8  8

$$$$

