442468
  -OEChem-07051212583D

 41 45  0     1  0  0  0  0  0999 V2000
    2.0126    1.3377    0.9110 O   0  0  0  0  0  0  0  0  0  0  0  0
   -0.4992   -2.3590   -1.0479 O   0  0  0  0  0  0  0  0  0  0  0  0
    3.6871    0.8793   -0.5317 O   0  0  0  0  0  0  0  0  0  0  0  0
   -1.9824    0.1680   -0.9373 N   0  0  2  0  0  0  0  0  0  0  0  0
   -0.6452    0.0036   -0.3474 C   0  0  2  0  0  0  0  0  0  0  0  0
   -0.4326   -1.4754    0.0873 C   0  0  2  0  0  0  0  0  0  0  0  0
    1.0441   -1.4057    0.5443 C   0  0  1  0  0  0  0  0  0  0  0  0
    1.7121   -0.5452   -0.5986 C   0  0  1  0  0  0  0  0  0  0  0  0
   -0.4488    1.0061    0.8581 C   0  0  1  0  0  0  0  0  0  0  0  0
    0.5271    0.1299   -1.3526 C   0  0  0  0  0  0  0  0  0  0  0  0
    0.8800    0.7983    1.6216 C   0  0  1  0  0  0  0  0  0  0  0  0
    1.1547   -0.6774    1.8851 C   0  0  0  0  0  0  0  0  0  0  0  0
   -0.6434    2.4589    0.3925 C   0  0  0  0  0  0  0  0  0  0  0  0
    2.5871    0.5923   -0.0712 C   0  0  0  0  0  0  0  0  0  0  0  0
   -1.5099   -1.9544    1.0050 C   0  0  0  0  0  0  0  0  0  0  0  0
   -2.2038    1.5436   -1.4088 C   0  0  0  0  0  0  0  0  0  0  0  0
    2.5339   -1.4269   -1.5465 C   0  0  0  0  0  0  0  0  0  0  0  0
   -1.9716    2.6258   -0.3454 C   0  0  0  0  0  0  0  0  0  0  0  0
   -3.0673   -0.2834   -0.0318 C   0  0  0  0  0  0  0  0  0  0  0  0
   -2.7347   -1.4161    0.9144 C   0  0  0  0  0  0  0  0  0  0  0  0
    1.4853   -2.4069    0.6125 H   0  0  0  0  0  0  0  0  0  0  0  0
   -1.2336    0.8103    1.6017 H   0  0  0  0  0  0  0  0  0  0  0  0
    0.7408    1.1636   -1.6424 H   0  0  0  0  0  0  0  0  0  0  0  0
    0.3010   -0.4019   -2.2866 H   0  0  0  0  0  0  0  0  0  0  0  0
    0.8407    1.3353    2.5762 H   0  0  0  0  0  0  0  0  0  0  0  0
    0.4608   -1.0847    2.6272 H   0  0  0  0  0  0  0  0  0  0  0  0
    2.1685   -0.8061    2.2844 H   0  0  0  0  0  0  0  0  0  0  0  0
    0.1735    2.7767   -0.2642 H   0  0  0  0  0  0  0  0  0  0  0  0
   -0.6220    3.1337    1.2567 H   0  0  0  0  0  0  0  0  0  0  0  0
   -1.3176   -2.7783    1.6835 H   0  0  0  0  0  0  0  0  0  0  0  0
   -3.2198    1.6396   -1.8119 H   0  0  0  0  0  0  0  0  0  0  0  0
   -1.5398    1.7361   -2.2607 H   0  0  0  0  0  0  0  0  0  0  0  0
    3.3908   -1.8669   -1.0237 H   0  0  0  0  0  0  0  0  0  0  0  0
    1.9394   -2.2476   -1.9598 H   0  0  0  0  0  0  0  0  0  0  0  0
    2.9255   -0.8467   -2.3900 H   0  0  0  0  0  0  0  0  0  0  0  0
   -2.7891    2.6145    0.3847 H   0  0  0  0  0  0  0  0  0  0  0  0
   -2.0018    3.6138   -0.8196 H   0  0  0  0  0  0  0  0  0  0  0  0
   -3.9119   -0.5994   -0.6555 H   0  0  0  0  0  0  0  0  0  0  0  0
   -3.4329    0.5371    0.5957 H   0  0  0  0  0  0  0  0  0  0  0  0
   -1.3226   -2.1684   -1.5296 H   0  0  0  0  0  0  0  0  0  0  0  0
   -3.5293   -1.7867    1.5550 H   0  0  0  0  0  0  0  0  0  0  0  0
  1 11  1  0  0  0  0
  1 14  1  0  0  0  0
  2  6  1  0  0  0  0
  2 40  1  0  0  0  0
  3 14  2  0  0  0  0
  4  5  1  0  0  0  0
  4 16  1  0  0  0  0
  4 19  1  0  0  0  0
  5  6  1  0  0  0  0
  5  9  1  0  0  0  0
  5 10  1  0  0  0  0
  6  7  1  0  0  0  0
  6 15  1  0  0  0  0
  7  8  1  0  0  0  0
  7 12  1  0  0  0  0
  7 21  1  0  0  0  0
  8 10  1  0  0  0  0
  8 14  1  0  0  0  0
  8 17  1  0  0  0  0
  9 11  1  0  0  0  0
  9 13  1  0  0  0  0
  9 22  1  0  0  0  0
 10 23  1  0  0  0  0
 10 24  1  0  0  0  0
 11 12  1  0  0  0  0
 11 25  1  0  0  0  0
 12 26  1  0  0  0  0
 12 27  1  0  0  0  0
 13 18  1  0  0  0  0
 13 28  1  0  0  0  0
 13 29  1  0  0  0  0
 15 20  2  0  0  0  0
 15 30  1  0  0  0  0
 16 18  1  0  0  0  0
 16 31  1  0  0  0  0
 16 32  1  0  0  0  0
 17 33  1  0  0  0  0
 17 34  1  0  0  0  0
 17 35  1  0  0  0  0
 18 36  1  0  0  0  0
 18 37  1  0  0  0  0
 19 20  1  0  0  0  0
 19 38  1  0  0  0  0
 19 39  1  0  0  0  0
 20 41  1  0  0  0  0
M  END
> <PUBCHEM_COMPOUND_CID>
442468

> <PUBCHEM_CONFORMER_RMSD>
0.6

> <PUBCHEM_CONFORMER_DIVERSEORDER>
1

> <PUBCHEM_MMFF94_PARTIAL_CHARGES>
16
1 -0.43
11 0.28
14 0.66
15 -0.29
16 0.27
19 0.41
2 -0.68
20 -0.29
3 -0.57
30 0.15
4 -0.81
40 0.4
41 0.15
5 0.27
6 0.42
8 0.06

> <PUBCHEM_EFFECTIVE_ROTOR_COUNT>
1.4

> <PUBCHEM_PHARMACOPHORE_FEATURES>
7
1 2 acceptor
1 2 donor
1 3 acceptor
1 4 cation
10 1 5 6 7 8 9 10 11 12 14 rings
6 4 5 6 15 19 20 rings
6 4 5 9 13 16 18 rings

> <PUBCHEM_HEAVY_ATOM_COUNT>
20

> <PUBCHEM_ATOM_DEF_STEREO_COUNT>
5

> <PUBCHEM_ATOM_UDEF_STEREO_COUNT>
1

> <PUBCHEM_BOND_DEF_STEREO_COUNT>
0

> <PUBCHEM_BOND_UDEF_STEREO_COUNT>
0

> <PUBCHEM_ISOTOPIC_ATOM_COUNT>
0

> <PUBCHEM_COMPONENT_COUNT>
1

> <PUBCHEM_CACTVS_TAUTO_COUNT>
1

> <PUBCHEM_CONFORMER_ID>
0006C06400000001

> <PUBCHEM_MMFF94_ENERGY>
76.6463

> <PUBCHEM_FEATURE_SELFOVERLAP>
35.616

> <PUBCHEM_SHAPE_FINGERPRINT>
10863032 1 17988368160342348666
10948715 1 17917716850097657644
11640471 11 16774080699649232757
12011746 2 18338802196018713503
12403814 3 18264767658298455904
12423570 1 13063786292520813051
12491281 212 17702369835660266684
12716301 132 18341348741910037817
13140716 1 17977674108155294513
13299463 15 18114176496774024668
13538477 17 17561096777805154051
13898156 1 17132119051942367771
141345 1 17341222107428094731
144361 1 17605292686896702377
14761567 1 17976536431579838799
14787075 74 17413579550244247170
14817 1 12814054607240591979
15490181 8 17979363276085568649
15557651 10 18040436551219555923
15881359 60 16381747201122496575
16945 1 18058182630231698258
17357779 13 18266187132495467447
18981168 100 18268993257308860345
19049666 15 18336261357421735174
19868273 325 18123194497913836599
20510252 161 18271801298400126665
20511035 2 17979104839171223579
21330990 113 17903031751422400371
22802520 49 18261104235730933668
2334 1 18337116764409351521
23419403 2 17096658784429765746
23493267 7 18272093815743140648
23559900 14 17974568298094739222
25 1 17904477755194497005
2748010 2 18335426797894357949
353137 74 18413106164804619776
528886 8 17749948839294489522
81228 2 18200858617969590625

> <PUBCHEM_SHAPE_MULTIPOLES>
389
4.01
2.5
1.56
0.76
0.36
0.12
0.48
-0.84
-1.22
0.09
0.41
-0.14
0.76

> <PUBCHEM_SHAPE_SELFOVERLAP>
877.132

> <PUBCHEM_SHAPE_VOLUME>
201.2

> <PUBCHEM_COORDINATE_TYPE>
2
5
10

$$$$

