215338
  -OEChem-07051212573D

 67 73  0     1  0  0  0  0  0999 V2000
    2.7718    2.1951   -0.2942 N   0  0  1  0  0  0  0  0  0  0  0  0
    3.1824   -1.4411    0.4980 N   0  0  0  0  0  0  0  0  0  0  0  0
   -1.9738    0.4265    2.0179 N   0  0  0  0  0  0  0  0  0  0  0  0
   -3.7619   -0.4491   -1.1592 N   0  0  0  0  0  0  0  0  0  0  0  0
   -0.0593    1.7379    0.2975 C   0  0  2  0  0  0  0  0  0  0  0  0
    0.4434    3.0398   -0.3684 C   0  0  2  0  0  0  0  0  0  0  0  0
    2.3576    0.9828    0.4633 C   0  0  1  0  0  0  0  0  0  0  0  0
    0.9356    0.5916    0.0419 C   0  0  0  0  0  0  0  0  0  0  0  0
    1.9035    3.3314    0.0316 C   0  0  0  0  0  0  0  0  0  0  0  0
   -1.4522    1.3276   -0.1857 C   0  0  0  0  0  0  0  0  0  0  0  0
    3.3500   -0.1137    0.2221 C   0  0  0  0  0  0  0  0  0  0  0  0
    4.1965    2.5239   -0.0700 C   0  0  0  0  0  0  0  0  0  0  0  0
   -1.9624    0.1032    0.5704 C   0  0  2  0  0  0  0  0  0  0  0  0
   -0.4313    4.2473   -0.0193 C   0  0  0  0  0  0  0  0  0  0  0  0
    4.6297    0.0695   -0.2582 C   0  0  0  0  0  0  0  0  0  0  0  0
    5.1239    1.4222   -0.6355 C   0  0  0  0  0  0  0  0  0  0  0  0
   -3.3310   -0.3098    0.1296 C   0  0  0  0  0  0  0  0  0  0  0  0
    5.2599   -1.2029   -0.3067 C   0  0  0  0  0  0  0  0  0  0  0  0
    0.0112    5.4825   -0.7765 C   0  0  0  0  0  0  0  0  0  0  0  0
    4.3305   -2.1328    0.1723 C   0  0  0  0  0  0  0  0  0  0  0  0
   -4.3596   -0.6787    0.9712 C   0  0  0  0  0  0  0  0  0  0  0  0
   -2.6897   -0.5838    2.8168 C   0  0  0  0  0  0  0  0  0  0  0  0
   -4.1877   -0.6522    2.4497 C   0  0  0  0  0  0  0  0  0  0  0  0
   -5.4751   -1.0284    0.1639 C   0  0  0  0  0  0  0  0  0  0  0  0
   -5.0737   -0.8755   -1.1679 C   0  0  0  0  0  0  0  0  0  0  0  0
    6.5309   -1.6606   -0.7078 C   0  0  0  0  0  0  0  0  0  0  0  0
    4.6144   -3.4999    0.2690 C   0  0  0  0  0  0  0  0  0  0  0  0
    6.8263   -3.0255   -0.6171 C   0  0  0  0  0  0  0  0  0  0  0  0
   -6.7888   -1.4638    0.4298 C   0  0  0  0  0  0  0  0  0  0  0  0
    5.8814   -3.9292   -0.1358 C   0  0  0  0  0  0  0  0  0  0  0  0
   -5.9264   -1.1386   -2.2461 C   0  0  0  0  0  0  0  0  0  0  0  0
   -7.6513   -1.7285   -0.6400 C   0  0  0  0  0  0  0  0  0  0  0  0
   -7.2246   -1.5674   -1.9565 C   0  0  0  0  0  0  0  0  0  0  0  0
   -0.0818    1.9298    1.3785 H   0  0  0  0  0  0  0  0  0  0  0  0
    0.4114    2.8944   -1.4583 H   0  0  0  0  0  0  0  0  0  0  0  0
    2.3674    1.2018    1.5410 H   0  0  0  0  0  0  0  0  0  0  0  0
    0.9177    0.3023   -1.0180 H   0  0  0  0  0  0  0  0  0  0  0  0
    0.6542   -0.2951    0.6178 H   0  0  0  0  0  0  0  0  0  0  0  0
    2.2673    4.1971   -0.5313 H   0  0  0  0  0  0  0  0  0  0  0  0
    1.9702    3.5816    1.0988 H   0  0  0  0  0  0  0  0  0  0  0  0
   -1.4185    1.1227   -1.2638 H   0  0  0  0  0  0  0  0  0  0  0  0
   -2.1718    2.1434   -0.0555 H   0  0  0  0  0  0  0  0  0  0  0  0
    4.3890    2.6614    1.0027 H   0  0  0  0  0  0  0  0  0  0  0  0
    4.4562    3.4656   -0.5688 H   0  0  0  0  0  0  0  0  0  0  0  0
   -1.3153   -0.7641    0.4035 H   0  0  0  0  0  0  0  0  0  0  0  0
   -0.4149    4.4447    1.0590 H   0  0  0  0  0  0  0  0  0  0  0  0
   -1.4735    4.0627   -0.2942 H   0  0  0  0  0  0  0  0  0  0  0  0
    6.1432    1.5765   -0.2648 H   0  0  0  0  0  0  0  0  0  0  0  0
    5.1521    1.4943   -1.7298 H   0  0  0  0  0  0  0  0  0  0  0  0
    2.3471   -1.8609    0.8822 H   0  0  0  0  0  0  0  0  0  0  0  0
   -2.4238    1.3317    2.1593 H   0  0  0  0  0  0  0  0  0  0  0  0
    0.9468    5.8932   -0.3863 H   0  0  0  0  0  0  0  0  0  0  0  0
    0.1309    5.2820   -1.8459 H   0  0  0  0  0  0  0  0  0  0  0  0
   -0.7432    6.2700   -0.6702 H   0  0  0  0  0  0  0  0  0  0  0  0
   -2.5879   -0.3395    3.8799 H   0  0  0  0  0  0  0  0  0  0  0  0
   -2.2161   -1.5633    2.6724 H   0  0  0  0  0  0  0  0  0  0  0  0
   -4.7060    0.2270    2.8513 H   0  0  0  0  0  0  0  0  0  0  0  0
   -4.6364   -1.5416    2.9055 H   0  0  0  0  0  0  0  0  0  0  0  0
   -3.2095   -0.2671   -1.9859 H   0  0  0  0  0  0  0  0  0  0  0  0
    7.2782   -0.9678   -1.0843 H   0  0  0  0  0  0  0  0  0  0  0  0
    3.8802   -4.2048    0.6445 H   0  0  0  0  0  0  0  0  0  0  0  0
    7.8051   -3.3831   -0.9255 H   0  0  0  0  0  0  0  0  0  0  0  0
   -7.1354   -1.5945    1.4510 H   0  0  0  0  0  0  0  0  0  0  0  0
    6.1323   -4.9850   -0.0732 H   0  0  0  0  0  0  0  0  0  0  0  0
   -5.5956   -1.0148   -3.2719 H   0  0  0  0  0  0  0  0  0  0  0  0
   -8.6655   -2.0639   -0.4399 H   0  0  0  0  0  0  0  0  0  0  0  0
   -7.9111   -1.7793   -2.7724 H   0  0  0  0  0  0  0  0  0  0  0  0
  1  7  1  0  0  0  0
  1  9  1  0  0  0  0
  1 12  1  0  0  0  0
  2 11  1  0  0  0  0
  2 20  1  0  0  0  0
  2 50  1  0  0  0  0
  3 13  1  0  0  0  0
  3 22  1  0  0  0  0
  3 51  1  0  0  0  0
  4 17  1  0  0  0  0
  4 25  1  0  0  0  0
  4 59  1  0  0  0  0
  5  6  1  0  0  0  0
  5  8  1  0  0  0  0
  5 10  1  0  0  0  0
  5 34  1  0  0  0  0
  6  9  1  0  0  0  0
  6 14  1  0  0  0  0
  6 35  1  0  0  0  0
  7  8  1  0  0  0  0
  7 11  1  0  0  0  0
  7 36  1  0  0  0  0
  8 37  1  0  0  0  0
  8 38  1  0  0  0  0
  9 39  1  0  0  0  0
  9 40  1  0  0  0  0
 10 13  1  0  0  0  0
 10 41  1  0  0  0  0
 10 42  1  0  0  0  0
 11 15  2  0  0  0  0
 12 16  1  0  0  0  0
 12 43  1  0  0  0  0
 12 44  1  0  0  0  0
 13 17  1  0  0  0  0
 13 45  1  0  0  0  0
 14 19  1  0  0  0  0
 14 46  1  0  0  0  0
 14 47  1  0  0  0  0
 15 16  1  0  0  0  0
 15 18  1  0  0  0  0
 16 48  1  0  0  0  0
 16 49  1  0  0  0  0
 17 21  2  0  0  0  0
 18 20  1  0  0  0  0
 18 26  2  0  0  0  0
 19 52  1  0  0  0  0
 19 53  1  0  0  0  0
 19 54  1  0  0  0  0
 20 27  2  0  0  0  0
 21 23  1  0  0  0  0
 21 24  1  0  0  0  0
 22 23  1  0  0  0  0
 22 55  1  0  0  0  0
 22 56  1  0  0  0  0
 23 57  1  0  0  0  0
 23 58  1  0  0  0  0
 24 25  1  0  0  0  0
 24 29  2  0  0  0  0
 25 31  2  0  0  0  0
 26 28  1  0  0  0  0
 26 60  1  0  0  0  0
 27 30  1  0  0  0  0
 27 61  1  0  0  0  0
 28 30  2  0  0  0  0
 28 62  1  0  0  0  0
 29 32  1  0  0  0  0
 29 63  1  0  0  0  0
 30 64  1  0  0  0  0
 31 33  1  0  0  0  0
 31 65  1  0  0  0  0
 32 33  2  0  0  0  0
 32 66  1  0  0  0  0
 33 67  1  0  0  0  0
M  END
> <PUBCHEM_COMPOUND_CID>
215338

> <PUBCHEM_CONFORMER_RMSD>
0.8

> <PUBCHEM_CONFORMER_DIVERSEORDER>
1
2
3

> <PUBCHEM_MMFF94_PARTIAL_CHARGES>
36
1 -0.81
11 -0.33
12 0.27
13 0.45
15 -0.18
16 0.18
17 -0.33
2 0.03
20 -0.15
21 -0.18
22 0.27
23 0.18
25 -0.15
26 -0.15
27 -0.15
28 -0.15
29 -0.15
3 -0.9
30 -0.15
31 -0.15
32 -0.15
33 -0.15
4 0.03
50 0.27
51 0.36
59 0.27
60 0.15
61 0.15
62 0.15
63 0.15
64 0.15
65 0.15
66 0.15
67 0.15
7 0.45
9 0.27

> <PUBCHEM_EFFECTIVE_ROTOR_COUNT>
5

> <PUBCHEM_PHARMACOPHORE_FEATURES>
15
1 1 cation
1 19 hydrophobe
1 2 cation
1 2 donor
1 3 cation
1 3 donor
1 4 cation
1 4 donor
5 2 11 15 18 20 rings
5 4 17 21 24 25 rings
6 1 5 6 7 8 9 rings
6 1 7 11 12 15 16 rings
6 18 20 26 27 28 30 rings
6 24 25 29 31 32 33 rings
6 3 13 17 21 22 23 rings

> <PUBCHEM_HEAVY_ATOM_COUNT>
33

> <PUBCHEM_ATOM_DEF_STEREO_COUNT>
4

> <PUBCHEM_ATOM_UDEF_STEREO_COUNT>
0

> <PUBCHEM_BOND_DEF_STEREO_COUNT>
0

> <PUBCHEM_BOND_UDEF_STEREO_COUNT>
0

> <PUBCHEM_ISOTOPIC_ATOM_COUNT>
0

> <PUBCHEM_COMPONENT_COUNT>
1

> <PUBCHEM_CACTVS_TAUTO_COUNT>
1

> <PUBCHEM_CONFORMER_ID>
0003492A00000001

> <PUBCHEM_MMFF94_ENERGY>
65.9468

> <PUBCHEM_FEATURE_SELFOVERLAP>
76.489

> <PUBCHEM_SHAPE_FINGERPRINT>
10319926 262 15068610609083072939
10411042 1 18410575128177436276
10622 236 18333732446270470563
10693767 8 18336837415526095327
11135609 149 18264794119634827725
11135926 11 18126265477404818992
11409948 41 18190197693725276983
11410812 94 16486419923036308734
11991303 11 17697315479450359837
12166972 35 18114184090919886425
12202916 173 18058181527153611016
12236239 1 17749664087653390433
12342043 65 17271697539726594755
12633046 712 17914872302501605481
13533116 47 18260268503687995504
1361 2 18410015390300675571
1361 87 17846200168683999810
13782708 43 17703221790354300171
13835254 42 18333454248465752568
13911852 28 18409730676939462900
13989917 61 18339357444590293402
14068700 675 17894632560918200593
14340393 91 18340213010733656349
14347332 77 18339360893943890764
14931854 50 17632015346479649578
15183329 4 15267063653314157919
15188451 53 17167866370011550079
15320294 125 17240204314198315487
15361156 5 18198887292547953036
15419008 47 17918279757713070253
15510800 12 18201718457664299722
15629462 23 18264218066337852389
15968369 26 17913484637101868336
17492 89 18267022937637031212
18393751 57 7709453931605078945
19301676 85 18341611542501957403
19304144 158 16339738229580904244
19315092 285 17894349982103415592
19841028 212 18334861593342251235
20028762 73 18040997379934679726
20775438 99 18049185283574736919
21033650 10 16128373826046803885
21133410 171 17483158011971579682
21133410 58 18339370665074617775
21458453 9 6049590582246702645
21703447 108 18411992377502345208
22002106 203 18336273457158089090
22311459 1 18193841444662711276
23522609 53 17897977249072588689
23559900 14 18198625428592317929
23569914 152 17693971839331607671
23569943 247 18338234981100328339
24771750 20 17339547203375049669
25025965 108 18122356936944201522
25269216 80 14764049131264125859
255183 451 18408882958270347844
34797466 226 16845006814881336981
3534868 343 18341883066413808212
3882209 13 17268660963109887010
4015057 19 18342452596087197873
4046055 4 18272369819085556236
437795 70 17703801336003220517
437815 12 18272089405186228637
44880568 143 17346604062791634941
45266715 3 18131075926928795978
46194498 28 16986856952969244153
50009960 94 17627239193536278474
513202 73 18337104691203236333
5309563 4 18338796818519296174
5372103 7 16270785729926770004
613672 6 18272654524056053848
6201460 15 17607264072634000422
6695519 79 16967992460742584457
7970288 3 18409449197905609950
9555976 147 17241313806913427449
96874 4 17967821543768709815

> <PUBCHEM_SHAPE_MULTIPOLES>
659.2
19.78
5.17
1.64
11.63
5.61
-0.68
-23.92
6.86
-7.64
1.23
3.73
-0.63
-0.72

> <PUBCHEM_SHAPE_SELFOVERLAP>
1468.994

> <PUBCHEM_SHAPE_VOLUME>
345.7

> <PUBCHEM_COORDINATE_TYPE>
2
5
10

$$$$

