656527
  -OEChem-07051212553D

 45 45  0     1  0  0  0  0  0999 V2000
    0.2711    0.9805   -2.0221 S   0  0  0  0  0  0  0  0  0  0  0  0
   -2.0056   -3.1862   -0.0041 S   0  0  0  0  0  0  0  0  0  0  0  0
    1.2912    0.4934    0.3997 O   0  0  0  0  0  0  0  0  0  0  0  0
    5.2040    1.2497   -0.6041 O   0  0  0  0  0  0  0  0  0  0  0  0
    4.5706   -0.1390    1.8959 O   0  0  0  0  0  0  0  0  0  0  0  0
    3.3046    0.5765   -2.6683 O   0  0  0  0  0  0  0  0  0  0  0  0
    0.4635   -0.5201    2.8139 O   0  0  0  0  0  0  0  0  0  0  0  0
   -2.1967   -1.6674   -0.5719 O   0  0  0  0  0  0  0  0  0  0  0  0
   -3.4933   -3.5502    0.5545 O   0  0  0  0  0  0  0  0  0  0  0  0
   -1.1088   -3.1381    1.1359 O   0  0  0  0  0  0  0  0  0  0  0  0
   -1.7296   -4.0636   -1.1260 O   0  0  0  0  0  0  0  0  0  0  0  0
   -0.9774   -1.1152   -0.9732 N   0  0  0  0  0  0  0  0  0  0  0  0
    4.0500    0.4347   -0.3902 C   0  0  1  0  0  0  0  0  0  0  0  0
    3.6209    0.5340    1.0741 C   0  0  1  0  0  0  0  0  0  0  0  0
    2.9452    0.9245   -1.3316 C   0  0  2  0  0  0  0  0  0  0  0  0
    2.2452   -0.1060    1.2774 C   0  0  1  0  0  0  0  0  0  0  0  0
    1.6006    0.2812   -0.9776 C   0  0  2  0  0  0  0  0  0  0  0  0
    1.7389    0.0849    2.7037 C   0  0  0  0  0  0  0  0  0  0  0  0
   -1.1307    0.0902   -1.4237 C   0  0  0  0  0  0  0  0  0  0  0  0
   -2.4458    0.8440   -1.5114 C   0  0  0  0  0  0  0  0  0  0  0  0
   -2.7993    1.5780   -0.2148 C   0  0  0  0  0  0  0  0  0  0  0  0
   -4.1581    2.2816   -0.2763 C   0  0  0  0  0  0  0  0  0  0  0  0
   -4.5008    2.9149    1.0406 C   0  0  0  0  0  0  0  0  0  0  0  0
   -4.7597    4.2177    1.1994 C   0  0  0  0  0  0  0  0  0  0  0  0
    4.3507   -0.5899   -0.6392 H   0  0  0  0  0  0  0  0  0  0  0  0
    3.6057    1.5861    1.3832 H   0  0  0  0  0  0  0  0  0  0  0  0
    2.8830    2.0188   -1.2778 H   0  0  0  0  0  0  0  0  0  0  0  0
    2.2772   -1.1846    1.0711 H   0  0  0  0  0  0  0  0  0  0  0  0
    1.6372   -0.7959   -1.1833 H   0  0  0  0  0  0  0  0  0  0  0  0
    1.6243    1.1487    2.9376 H   0  0  0  0  0  0  0  0  0  0  0  0
    2.4107   -0.3761    3.4340 H   0  0  0  0  0  0  0  0  0  0  0  0
    4.9759    2.1651   -0.3683 H   0  0  0  0  0  0  0  0  0  0  0  0
    4.5866   -1.0750    1.6325 H   0  0  0  0  0  0  0  0  0  0  0  0
    3.3488   -0.3932   -2.7254 H   0  0  0  0  0  0  0  0  0  0  0  0
   -3.2446    0.1402   -1.7723 H   0  0  0  0  0  0  0  0  0  0  0  0
   -2.4020    1.5656   -2.3364 H   0  0  0  0  0  0  0  0  0  0  0  0
    0.1582   -0.3823    3.7267 H   0  0  0  0  0  0  0  0  0  0  0  0
   -2.0140    2.3108    0.0125 H   0  0  0  0  0  0  0  0  0  0  0  0
   -2.7919    0.8597    0.6158 H   0  0  0  0  0  0  0  0  0  0  0  0
   -4.9389    1.5519   -0.5217 H   0  0  0  0  0  0  0  0  0  0  0  0
   -4.1503    3.0262   -1.0813 H   0  0  0  0  0  0  0  0  0  0  0  0
   -4.5562    2.2642    1.9095 H   0  0  0  0  0  0  0  0  0  0  0  0
   -5.0099    4.6126    2.1779 H   0  0  0  0  0  0  0  0  0  0  0  0
   -4.7267    4.9086    0.3644 H   0  0  0  0  0  0  0  0  0  0  0  0
   -3.5879   -4.4490    0.9487 H   0  0  0  0  0  0  0  0  0  0  0  0
  1 17  1  0  0  0  0
  1 19  1  0  0  0  0
  2  8  1  0  0  0  0
  2  9  1  0  0  0  0
  2 10  2  0  0  0  0
  2 11  2  0  0  0  0
  3 16  1  0  0  0  0
  3 17  1  0  0  0  0
  4 13  1  0  0  0  0
  4 32  1  0  0  0  0
  5 14  1  0  0  0  0
  5 33  1  0  0  0  0
  6 15  1  0  0  0  0
  6 34  1  0  0  0  0
  7 18  1  0  0  0  0
  7 37  1  0  0  0  0
  8 12  1  0  0  0  0
  9 45  1  0  0  0  0
 12 19  2  0  0  0  0
 13 14  1  0  0  0  0
 13 15  1  0  0  0  0
 13 25  1  0  0  0  0
 14 16  1  0  0  0  0
 14 26  1  0  0  0  0
 15 17  1  0  0  0  0
 15 27  1  0  0  0  0
 16 18  1  0  0  0  0
 16 28  1  0  0  0  0
 17 29  1  0  0  0  0
 18 30  1  0  0  0  0
 18 31  1  0  0  0  0
 19 20  1  0  0  0  0
 20 21  1  0  0  0  0
 20 35  1  0  0  0  0
 20 36  1  0  0  0  0
 21 22  1  0  0  0  0
 21 38  1  0  0  0  0
 21 39  1  0  0  0  0
 22 23  1  0  0  0  0
 22 40  1  0  0  0  0
 22 41  1  0  0  0  0
 23 24  2  0  0  0  0
 23 42  1  0  0  0  0
 24 43  1  0  0  0  0
 24 44  1  0  0  0  0
M  END
> <PUBCHEM_COMPOUND_CID>
656527

> <PUBCHEM_CONFORMER_RMSD>
1

> <PUBCHEM_CONFORMER_DIVERSEORDER>
1
24
32
6
21
31
30
2
23
27
11
22
12
13
26
29
25
9
17
20
4
7
14
15
28
3
16
33
18
8
5
10
19

> <PUBCHEM_MMFF94_PARTIAL_CHARGES>
31
1 -0.37
10 -0.65
11 -0.65
12 -0.51
13 0.28
14 0.28
15 0.28
16 0.28
17 0.51
18 0.28
19 0.53
2 1.67
20 0.06
22 0.14
23 -0.29
24 -0.3
3 -0.56
32 0.4
33 0.4
34 0.4
37 0.4
4 -0.68
42 0.15
43 0.15
44 0.15
45 0.5
5 -0.68
6 -0.68
7 -0.68
8 -0.12
9 -0.68

> <PUBCHEM_EFFECTIVE_ROTOR_COUNT>
10.2

> <PUBCHEM_PHARMACOPHORE_FEATURES>
17
1 10 acceptor
1 11 acceptor
1 12 acceptor
1 24 hydrophobe
1 3 acceptor
1 4 acceptor
1 4 donor
1 5 acceptor
1 5 donor
1 6 acceptor
1 6 donor
1 7 acceptor
1 7 donor
1 9 acceptor
4 2 9 10 11 anion
4 20 21 22 23 hydrophobe
6 3 13 14 15 16 17 rings

> <PUBCHEM_HEAVY_ATOM_COUNT>
24

> <PUBCHEM_ATOM_DEF_STEREO_COUNT>
5

> <PUBCHEM_ATOM_UDEF_STEREO_COUNT>
0

> <PUBCHEM_BOND_DEF_STEREO_COUNT>
0

> <PUBCHEM_BOND_UDEF_STEREO_COUNT>
1

> <PUBCHEM_ISOTOPIC_ATOM_COUNT>
0

> <PUBCHEM_COMPONENT_COUNT>
1

> <PUBCHEM_CACTVS_TAUTO_COUNT>
1

> <PUBCHEM_CONFORMER_ID>
000A048F00000001

> <PUBCHEM_MMFF94_ENERGY>
42.7605

> <PUBCHEM_FEATURE_SELFOVERLAP>
86.342

> <PUBCHEM_SHAPE_FINGERPRINT>
11070050 100 18045766043747674065
12549972 3 17894905256945218030
12596599 1 17845672394866010534
12596602 18 18130216164259454081
12788726 201 18125708003402441791
14251757 17 15936706950983043833
15842332 3 17846493674011351372
20600515 1 17690040801809959365
21618674 53 18060421313394869388
21634736 98 17058947541631813638
23558518 356 17484779546798785828
345986 75 17914342277799422771
563151 248 18059851809500520962
6438718 38 17987499473004792307
6786 2 18264764536242854075

> <PUBCHEM_SHAPE_MULTIPOLES>
443.8
9.34
4.33
2.51
0.18
4.82
0.72
-9.56
2.12
8.62
0.83
-1.89
-0.42
-1.71

> <PUBCHEM_SHAPE_SELFOVERLAP>
852.362

> <PUBCHEM_SHAPE_VOLUME>
270.3

> <PUBCHEM_COORDINATE_TYPE>
2
5
10

$$$$

