23724764
  -OEChem-07051213083D

 19 19  0     1  0  0  0  0  0999 V2000
    0.5792    2.2993    0.4069 F   0  0  0  0  0  0  0  0  0  0  0  0
    0.5047   -0.4489    1.6615 O   0  0  0  0  0  0  0  0  0  0  0  0
   -0.4109   -2.4764    0.2403 O   0  0  0  0  0  0  0  0  0  0  0  0
    1.5840    0.2679   -1.6432 O   0  0  0  0  0  0  0  0  0  0  0  0
    2.7074   -0.4296    0.2135 O   0  0  0  0  0  0  0  0  0  0  0  0
    0.3034   -0.1528    0.2848 C   0  0  1  0  0  0  0  0  0  0  0  0
   -0.5994   -1.2136   -0.3980 C   0  0  2  0  0  0  0  0  0  0  0  0
   -0.2460    1.2456    0.2095 C   0  0  0  0  0  0  0  0  0  0  0  0
   -2.0643   -0.8550   -0.3818 C   0  0  0  0  0  0  0  0  0  0  0  0
    1.6651   -0.1316   -0.3505 C   0  0  0  0  0  0  0  0  0  0  0  0
   -1.5419    1.4874   -0.0339 C   0  0  0  0  0  0  0  0  0  0  0  0
   -2.4812    0.4076   -0.2092 C   0  0  0  0  0  0  0  0  0  0  0  0
   -0.3182   -1.3521   -1.4493 H   0  0  0  0  0  0  0  0  0  0  0  0
   -2.7958   -1.6396   -0.5518 H   0  0  0  0  0  0  0  0  0  0  0  0
   -1.9198    2.5029   -0.0735 H   0  0  0  0  0  0  0  0  0  0  0  0
   -3.5379    0.6500   -0.2238 H   0  0  0  0  0  0  0  0  0  0  0  0
    0.7748   -1.3807    1.7301 H   0  0  0  0  0  0  0  0  0  0  0  0
   -0.9523   -3.1328   -0.2309 H   0  0  0  0  0  0  0  0  0  0  0  0
    2.4639    0.2892   -2.0761 H   0  0  0  0  0  0  0  0  0  0  0  0
  1  8  1  0  0  0  0
  2  6  1  0  0  0  0
  2 17  1  0  0  0  0
  3  7  1  0  0  0  0
  3 18  1  0  0  0  0
  4 10  1  0  0  0  0
  4 19  1  0  0  0  0
  5 10  2  0  0  0  0
  6  7  1  0  0  0  0
  6  8  1  0  0  0  0
  6 10  1  0  0  0  0
  7  9  1  0  0  0  0
  7 13  1  0  0  0  0
  8 11  2  0  0  0  0
  9 12  2  0  0  0  0
  9 14  1  0  0  0  0
 11 12  1  0  0  0  0
 11 15  1  0  0  0  0
 12 16  1  0  0  0  0
M  END
> <PUBCHEM_COMPOUND_CID>
23724764

> <PUBCHEM_CONFORMER_RMSD>
0.4

> <PUBCHEM_CONFORMER_DIVERSEORDER>
3
4
2
6
1
5

> <PUBCHEM_MMFF94_PARTIAL_CHARGES>
18
1 -0.15
10 0.66
11 -0.15
12 -0.15
14 0.15
15 0.15
16 0.15
17 0.4
18 0.4
19 0.5
2 -0.68
3 -0.68
4 -0.65
5 -0.57
6 0.48
7 0.42
8 0.01
9 -0.29

> <PUBCHEM_EFFECTIVE_ROTOR_COUNT>
1.4

> <PUBCHEM_PHARMACOPHORE_FEATURES>
8
1 2 acceptor
1 2 donor
1 3 acceptor
1 3 donor
1 4 acceptor
1 5 acceptor
3 4 5 10 anion
6 6 7 8 9 11 12 rings

> <PUBCHEM_HEAVY_ATOM_COUNT>
12

> <PUBCHEM_ATOM_DEF_STEREO_COUNT>
2

> <PUBCHEM_ATOM_UDEF_STEREO_COUNT>
0

> <PUBCHEM_BOND_DEF_STEREO_COUNT>
0

> <PUBCHEM_BOND_UDEF_STEREO_COUNT>
0

> <PUBCHEM_ISOTOPIC_ATOM_COUNT>
0

> <PUBCHEM_COMPONENT_COUNT>
1

> <PUBCHEM_CACTVS_TAUTO_COUNT>
1

> <PUBCHEM_CONFORMER_ID>
016A02DC00000003

> <PUBCHEM_MMFF94_ENERGY>
16.9691

> <PUBCHEM_FEATURE_SELFOVERLAP>
40.679

> <PUBCHEM_SHAPE_FINGERPRINT>
12423570 1 16241513190292449014
12716758 59 18409447011766645582
13024252 1 16843577419616060678
137420 1 7907439433811287818
161256 15 17690827974467481963
16945 1 18338794511773575261
18185500 45 18267028438867671133
21040471 1 18119536693585459025
23552423 10 17982172218903962325
23559900 14 18188493605431672774
241688 4 18267307521653171073
2748010 2 18194129516840083077
29004967 10 15502378953983252598
369184 2 18261395584905971022
4369600 1 18335714874388711941
5084963 1 17561085786983668191
528886 8 18336266859295816881

> <PUBCHEM_SHAPE_MULTIPOLES>
216.2
2.81
1.93
1.02
0.18
0.09
0
-0.02
0.45
-0.42
-0.21
0.4
0.03
-0.12

> <PUBCHEM_SHAPE_SELFOVERLAP>
454.503

> <PUBCHEM_SHAPE_VOLUME>
121.3

> <PUBCHEM_COORDINATE_TYPE>
2
5
10

$$$$

