82153
  -OEChem-07051212523D

 62 66  0     1  0  0  0  0  0999 V2000
   -3.7151    2.6509   -1.4982 F   0  0  0  0  0  0  0  0  0  0  0  0
    2.8683    0.4674    1.2260 O   0  0  0  0  0  0  0  0  0  0  0  0
    3.4258    2.2879   -0.1516 O   0  0  0  0  0  0  0  0  0  0  0  0
   -0.7581   -2.8021   -0.7295 O   0  0  0  0  0  0  0  0  0  0  0  0
    4.9253   -0.6609   -1.0407 O   0  0  0  0  0  0  0  0  0  0  0  0
    5.2867   -2.5933    0.8921 O   0  0  0  0  0  0  0  0  0  0  0  0
   -6.2678    0.4790    2.0806 O   0  0  0  0  0  0  0  0  0  0  0  0
    1.4655   -0.6465   -0.4848 C   0  0  1  0  0  0  0  0  0  0  0  0
    0.5960    0.6266   -0.5855 C   0  0  2  0  0  0  0  0  0  0  0  0
   -0.8501    0.3465   -1.0167 C   0  0  1  0  0  0  0  0  0  0  0  0
    2.8276   -0.0023   -0.1191 C   0  0  1  0  0  0  0  0  0  0  0  0
   -1.5168   -0.5924    0.0506 C   0  0  2  0  0  0  0  0  0  0  0  0
    2.9007    1.2585   -0.9847 C   0  0  1  0  0  0  0  0  0  0  0  0
    1.4538    1.5838   -1.4160 C   0  0  0  0  0  0  0  0  0  0  0  0
    0.8376   -1.5475    0.5957 C   0  0  0  0  0  0  0  0  0  0  0  0
   -0.6525   -1.8634    0.3318 C   0  0  2  0  0  0  0  0  0  0  0  0
   -3.0478   -0.8450   -0.2511 C   0  0  1  0  0  0  0  0  0  0  0  0
   -1.6329    1.6610   -1.1630 C   0  0  0  0  0  0  0  0  0  0  0  0
    1.5991   -1.4078   -1.8322 C   0  0  0  0  0  0  0  0  0  0  0  0
   -3.1076    1.4288   -1.4581 C   0  0  1  0  0  0  0  0  0  0  0  0
    3.4215    1.7862    1.1863 C   0  0  0  0  0  0  0  0  0  0  0  0
    4.0005   -0.9255   -0.2738 C   0  0  0  0  0  0  0  0  0  0  0  0
   -3.7160    0.5275   -0.4128 C   0  0  0  0  0  0  0  0  0  0  0  0
   -3.3087   -1.6612   -1.5374 C   0  0  0  0  0  0  0  0  0  0  0  0
   -3.6781   -1.6351    0.8866 C   0  0  0  0  0  0  0  0  0  0  0  0
    3.9752   -2.1876    0.5620 C   0  0  0  0  0  0  0  0  0  0  0  0
    4.8549    1.7338    1.7015 C   0  0  0  0  0  0  0  0  0  0  0  0
    2.5788    2.7158    2.0548 C   0  0  0  0  0  0  0  0  0  0  0  0
   -4.7463    0.9439    0.3404 C   0  0  0  0  0  0  0  0  0  0  0  0
   -4.7021   -1.2229    1.6397 C   0  0  0  0  0  0  0  0  0  0  0  0
   -5.3172    0.0959    1.4071 C   0  0  0  0  0  0  0  0  0  0  0  0
    0.5243    1.0780    0.4163 H   0  0  0  0  0  0  0  0  0  0  0  0
   -0.8557   -0.1455   -1.9942 H   0  0  0  0  0  0  0  0  0  0  0  0
   -1.4875   -0.0270    0.9982 H   0  0  0  0  0  0  0  0  0  0  0  0
    3.5318    1.1775   -1.8752 H   0  0  0  0  0  0  0  0  0  0  0  0
    1.3229    1.3776   -2.4843 H   0  0  0  0  0  0  0  0  0  0  0  0
    1.1907    2.6306   -1.2335 H   0  0  0  0  0  0  0  0  0  0  0  0
    0.9071   -1.0619    1.5769 H   0  0  0  0  0  0  0  0  0  0  0  0
    1.3760   -2.4963    0.6683 H   0  0  0  0  0  0  0  0  0  0  0  0
   -1.0375   -2.3631    1.2277 H   0  0  0  0  0  0  0  0  0  0  0  0
   -1.2075    2.2715   -1.9686 H   0  0  0  0  0  0  0  0  0  0  0  0
   -1.5372    2.2651   -0.2505 H   0  0  0  0  0  0  0  0  0  0  0  0
    2.0872   -2.3777   -1.6939 H   0  0  0  0  0  0  0  0  0  0  0  0
    0.6379   -1.6073   -2.3096 H   0  0  0  0  0  0  0  0  0  0  0  0
    2.1931   -0.8540   -2.5670 H   0  0  0  0  0  0  0  0  0  0  0  0
   -3.2342    0.9897   -2.4528 H   0  0  0  0  0  0  0  0  0  0  0  0
   -2.7218   -1.3047   -2.3891 H   0  0  0  0  0  0  0  0  0  0  0  0
   -3.0842   -2.7256   -1.4091 H   0  0  0  0  0  0  0  0  0  0  0  0
   -4.3655   -1.6073   -1.8312 H   0  0  0  0  0  0  0  0  0  0  0  0
   -3.2835   -2.6285    1.0885 H   0  0  0  0  0  0  0  0  0  0  0  0
   -0.2497   -3.5922   -0.4795 H   0  0  0  0  0  0  0  0  0  0  0  0
    3.4846   -2.9956    0.0161 H   0  0  0  0  0  0  0  0  0  0  0  0
    3.4597   -2.0094    1.5077 H   0  0  0  0  0  0  0  0  0  0  0  0
    5.4830    1.1076    1.0596 H   0  0  0  0  0  0  0  0  0  0  0  0
    5.3092    2.7305    1.7102 H   0  0  0  0  0  0  0  0  0  0  0  0
    4.8995    1.3101    2.7102 H   0  0  0  0  0  0  0  0  0  0  0  0
    2.5235    2.3537    3.0867 H   0  0  0  0  0  0  0  0  0  0  0  0
    2.9786    3.7354    2.0506 H   0  0  0  0  0  0  0  0  0  0  0  0
    1.5524    2.7739    1.6772 H   0  0  0  0  0  0  0  0  0  0  0  0
   -5.1935    1.9235    0.2105 H   0  0  0  0  0  0  0  0  0  0  0  0
   -5.1107   -1.8463    2.4265 H   0  0  0  0  0  0  0  0  0  0  0  0
    5.7332   -2.8409    0.0644 H   0  0  0  0  0  0  0  0  0  0  0  0
  1 20  1  0  0  0  0
  2 11  1  0  0  0  0
  2 21  1  0  0  0  0
  3 13  1  0  0  0  0
  3 21  1  0  0  0  0
  4 16  1  0  0  0  0
  4 51  1  0  0  0  0
  5 22  2  0  0  0  0
  6 26  1  0  0  0  0
  6 62  1  0  0  0  0
  7 31  2  0  0  0  0
  8  9  1  0  0  0  0
  8 11  1  0  0  0  0
  8 15  1  0  0  0  0
  8 19  1  0  0  0  0
  9 10  1  0  0  0  0
  9 14  1  0  0  0  0
  9 32  1  0  0  0  0
 10 12  1  0  0  0  0
 10 18  1  0  0  0  0
 10 33  1  0  0  0  0
 11 13  1  0  0  0  0
 11 22  1  0  0  0  0
 12 16  1  0  0  0  0
 12 17  1  0  0  0  0
 12 34  1  0  0  0  0
 13 14  1  0  0  0  0
 13 35  1  0  0  0  0
 14 36  1  0  0  0  0
 14 37  1  0  0  0  0
 15 16  1  0  0  0  0
 15 38  1  0  0  0  0
 15 39  1  0  0  0  0
 16 40  1  0  0  0  0
 17 23  1  0  0  0  0
 17 24  1  0  0  0  0
 17 25  1  0  0  0  0
 18 20  1  0  0  0  0
 18 41  1  0  0  0  0
 18 42  1  0  0  0  0
 19 43  1  0  0  0  0
 19 44  1  0  0  0  0
 19 45  1  0  0  0  0
 20 23  1  0  0  0  0
 20 46  1  0  0  0  0
 21 27  1  0  0  0  0
 21 28  1  0  0  0  0
 22 26  1  0  0  0  0
 23 29  2  0  0  0  0
 24 47  1  0  0  0  0
 24 48  1  0  0  0  0
 24 49  1  0  0  0  0
 25 30  2  0  0  0  0
 25 50  1  0  0  0  0
 26 52  1  0  0  0  0
 26 53  1  0  0  0  0
 27 54  1  0  0  0  0
 27 55  1  0  0  0  0
 27 56  1  0  0  0  0
 28 57  1  0  0  0  0
 28 58  1  0  0  0  0
 28 59  1  0  0  0  0
 29 31  1  0  0  0  0
 29 60  1  0  0  0  0
 30 31  1  0  0  0  0
 30 61  1  0  0  0  0
M  END
> <PUBCHEM_COMPOUND_CID>
82153

> <PUBCHEM_CONFORMER_RMSD>
0.8

> <PUBCHEM_CONFORMER_DIVERSEORDER>
1
2

> <PUBCHEM_MMFF94_PARTIAL_CHARGES>
25
1 -0.34
11 0.34
13 0.28
16 0.28
17 0.28
2 -0.56
20 0.48
21 0.56
22 0.45
23 -0.28
25 -0.29
26 0.34
29 -0.14
3 -0.56
30 -0.14
31 0.54
4 -0.68
5 -0.57
50 0.15
51 0.4
6 -0.68
60 0.15
61 0.15
62 0.4
7 -0.57

> <PUBCHEM_EFFECTIVE_ROTOR_COUNT>
3.6

> <PUBCHEM_PHARMACOPHORE_FEATURES>
14
1 2 acceptor
1 3 acceptor
1 4 acceptor
1 4 donor
1 5 acceptor
1 6 acceptor
1 6 donor
1 7 acceptor
3 21 27 28 hydrophobe
5 2 3 11 13 21 rings
5 8 9 11 13 14 rings
6 10 12 17 18 20 23 rings
6 17 23 25 29 30 31 rings
6 8 9 10 12 15 16 rings

> <PUBCHEM_HEAVY_ATOM_COUNT>
31

> <PUBCHEM_ATOM_DEF_STEREO_COUNT>
9

> <PUBCHEM_ATOM_UDEF_STEREO_COUNT>
0

> <PUBCHEM_BOND_DEF_STEREO_COUNT>
0

> <PUBCHEM_BOND_UDEF_STEREO_COUNT>
0

> <PUBCHEM_ISOTOPIC_ATOM_COUNT>
0

> <PUBCHEM_COMPONENT_COUNT>
1

> <PUBCHEM_CACTVS_TAUTO_COUNT>
3

> <PUBCHEM_CONFORMER_ID>
000140E900000001

> <PUBCHEM_MMFF94_ENERGY>
104.6517

> <PUBCHEM_FEATURE_SELFOVERLAP>
71.807

> <PUBCHEM_SHAPE_FINGERPRINT>
10076449 9 18339069498088956070
10319926 262 18059583532541605440
10675989 125 16106155204706569124
1100329 8 16466436551660070188
11370993 144 18187641397350523721
11405975 8 18333170569948369587
11545043 162 17988646349447505753
11552529 35 17606128273069398527
11578080 2 17971185937737843064
11595378 159 17203337692796547925
12035758 1 18336558204714301834
12236239 1 15285360651691067190
12403259 415 18411419522552316772
12422481 6 18201429303607628241
12553582 1 17846780676600428565
12633257 1 18040151829258164323
12788726 201 16660907937874791360
12925494 130 18196656422490222689
13140716 1 18270400610891728573
13224815 77 18271813380348917277
13583140 156 18339092569603464494
13675066 3 18413672400571228029
13782708 43 18409724071797245891
14178342 30 17774729765568867733
14341114 176 18060410339747990871
14790565 3 17408501966993563356
14950920 106 18334565842104511899
15238133 3 16732975461992774723
15475509 84 18189047771417676464
17349148 13 17385723621050429618
17980427 23 15864370042478873608
1813 80 16200145457404916567
18608769 82 18130777924363885842
20691752 17 17917437479750004142
21033648 144 18114754737096090492
21033648 29 18411150133598025657
21033650 10 5111734603883149067
21792934 111 18131346445802318353
22122407 14 17459449179065792881
22182313 1 18129958852382700108
23559900 14 18131074869585566606
268830 7 17749108859470860329
2838139 119 15359401602251633696
350125 39 18341886424338526782
392239 28 18335991873962508545
460360 51 16414379885901520091
474 4 17386288683874618289
508706 21 17916881208718570373
5104073 3 18334294232399057363
5252454 2 18044095653208617280
5265222 85 18271509941564128910
6086070 43 17822871817392022844
633830 44 16805599239852164468

> <PUBCHEM_SHAPE_MULTIPOLES>
595.48
11.77
2.85
1.85
4.65
0.01
0.26
-0.64
5.57
-1.96
0.23
0.64
-0.61
1.23

> <PUBCHEM_SHAPE_SELFOVERLAP>
1303.671

> <PUBCHEM_SHAPE_VOLUME>
325.2

> <PUBCHEM_COORDINATE_TYPE>
2
5
10

$$$$

