17395890
  -OEChem-06241222533D

 49 50  0     0  0  0  0  0  0999 V2000
   -3.4700   -0.5594    1.5829 O   0  0  0  0  0  0  0  0  0  0  0  0
   -1.2387   -2.6123   -1.4364 O   0  0  0  0  0  0  0  0  0  0  0  0
    3.1538   -1.4413   -1.9398 O   0  0  0  0  0  0  0  0  0  0  0  0
   -1.4011   -1.4749    1.0390 N   0  0  0  0  0  0  0  0  0  0  0  0
    2.0748   -0.8371    0.0426 N   0  0  0  0  0  0  0  0  0  0  0  0
    0.9663   -2.0171   -1.6723 N   0  0  0  0  0  0  0  0  0  0  0  0
    0.8910   -0.2396    2.0752 N   0  0  0  0  0  0  0  0  0  0  0  0
   -2.1566    0.6637    0.0510 C   0  0  0  0  0  0  0  0  0  0  0  0
   -2.1514    1.9615    0.8619 C   0  0  0  0  0  0  0  0  0  0  0  0
   -3.2118    0.6997   -1.0566 C   0  0  0  0  0  0  0  0  0  0  0  0
   -1.9934    3.1864   -0.0350 C   0  0  0  0  0  0  0  0  0  0  0  0
   -3.0511    1.9275   -1.9491 C   0  0  0  0  0  0  0  0  0  0  0  0
   -3.0493    3.2183   -1.1357 C   0  0  0  0  0  0  0  0  0  0  0  0
   -2.4069   -0.5046    0.9578 C   0  0  0  0  0  0  0  0  0  0  0  0
   -0.2122   -1.4255    0.3468 C   0  0  0  0  0  0  0  0  0  0  0  0
    0.9061   -0.8345    0.8289 C   0  0  0  0  0  0  0  0  0  0  0  0
   -1.5925   -2.6349    1.9083 C   0  0  0  0  0  0  0  0  0  0  0  0
    3.2820   -0.1966    0.5689 C   0  0  0  0  0  0  0  0  0  0  0  0
   -0.2292   -2.0733   -0.9895 C   0  0  0  0  0  0  0  0  0  0  0  0
    3.3698    1.2784    0.1914 C   0  0  0  0  0  0  0  0  0  0  0  0
    2.1440   -1.4263   -1.2309 C   0  0  0  0  0  0  0  0  0  0  0  0
    4.6435    1.9448    0.7163 C   0  0  0  0  0  0  0  0  0  0  0  0
    4.7329    3.3972    0.2743 C   0  0  0  0  0  0  0  0  0  0  0  0
   -1.1862    0.6022   -0.4474 H   0  0  0  0  0  0  0  0  0  0  0  0
   -3.0830    2.0571    1.4348 H   0  0  0  0  0  0  0  0  0  0  0  0
   -1.3388    1.9408    1.5982 H   0  0  0  0  0  0  0  0  0  0  0  0
   -3.1440   -0.2083   -1.6683 H   0  0  0  0  0  0  0  0  0  0  0  0
   -4.2203    0.7038   -0.6228 H   0  0  0  0  0  0  0  0  0  0  0  0
   -2.0634    4.0975    0.5699 H   0  0  0  0  0  0  0  0  0  0  0  0
   -0.9940    3.1801   -0.4875 H   0  0  0  0  0  0  0  0  0  0  0  0
   -2.1125    1.8490   -2.5115 H   0  0  0  0  0  0  0  0  0  0  0  0
   -3.8623    1.9567   -2.6852 H   0  0  0  0  0  0  0  0  0  0  0  0
   -4.0392    3.3684   -0.6873 H   0  0  0  0  0  0  0  0  0  0  0  0
   -2.8658    4.0716   -1.7983 H   0  0  0  0  0  0  0  0  0  0  0  0
   -0.7972   -2.6629    2.6600 H   0  0  0  0  0  0  0  0  0  0  0  0
   -1.5572   -3.5479    1.3053 H   0  0  0  0  0  0  0  0  0  0  0  0
   -2.5557   -2.5971    2.4241 H   0  0  0  0  0  0  0  0  0  0  0  0
    3.3729   -0.3535    1.6489 H   0  0  0  0  0  0  0  0  0  0  0  0
    4.1528   -0.7106    0.1411 H   0  0  0  0  0  0  0  0  0  0  0  0
    3.3309    1.3771   -0.9009 H   0  0  0  0  0  0  0  0  0  0  0  0
    2.4943    1.8138    0.5793 H   0  0  0  0  0  0  0  0  0  0  0  0
    0.9902   -2.4506   -2.5911 H   0  0  0  0  0  0  0  0  0  0  0  0
    4.6629    1.8961    1.8111 H   0  0  0  0  0  0  0  0  0  0  0  0
    5.5239    1.4038    0.3505 H   0  0  0  0  0  0  0  0  0  0  0  0
    0.0313   -0.2386    2.6110 H   0  0  0  0  0  0  0  0  0  0  0  0
    1.6635    0.3294    2.3899 H   0  0  0  0  0  0  0  0  0  0  0  0
    4.7496    3.4750   -0.8176 H   0  0  0  0  0  0  0  0  0  0  0  0
    5.6483    3.8554    0.6615 H   0  0  0  0  0  0  0  0  0  0  0  0
    3.8801    3.9736    0.6472 H   0  0  0  0  0  0  0  0  0  0  0  0
  1 14  2  0  0  0  0
  2 19  2  0  0  0  0
  3 21  2  0  0  0  0
  4 14  1  0  0  0  0
  4 15  1  0  0  0  0
  4 17  1  0  0  0  0
  5 16  1  0  0  0  0
  5 18  1  0  0  0  0
  5 21  1  0  0  0  0
  6 19  1  0  0  0  0
  6 21  1  0  0  0  0
  6 42  1  0  0  0  0
  7 16  1  0  0  0  0
  7 45  1  0  0  0  0
  7 46  1  0  0  0  0
  8  9  1  0  0  0  0
  8 10  1  0  0  0  0
  8 14  1  0  0  0  0
  8 24  1  0  0  0  0
  9 11  1  0  0  0  0
  9 25  1  0  0  0  0
  9 26  1  0  0  0  0
 10 12  1  0  0  0  0
 10 27  1  0  0  0  0
 10 28  1  0  0  0  0
 11 13  1  0  0  0  0
 11 29  1  0  0  0  0
 11 30  1  0  0  0  0
 12 13  1  0  0  0  0
 12 31  1  0  0  0  0
 12 32  1  0  0  0  0
 13 33  1  0  0  0  0
 13 34  1  0  0  0  0
 15 16  2  0  0  0  0
 15 19  1  0  0  0  0
 17 35  1  0  0  0  0
 17 36  1  0  0  0  0
 17 37  1  0  0  0  0
 18 20  1  0  0  0  0
 18 38  1  0  0  0  0
 18 39  1  0  0  0  0
 20 22  1  0  0  0  0
 20 40  1  0  0  0  0
 20 41  1  0  0  0  0
 22 23  1  0  0  0  0
 22 43  1  0  0  0  0
 22 44  1  0  0  0  0
 23 47  1  0  0  0  0
 23 48  1  0  0  0  0
 23 49  1  0  0  0  0
M  END
> <PUBCHEM_COMPOUND_CID>
17395890

> <PUBCHEM_CONFORMER_RMSD>
0.8

> <PUBCHEM_CONFORMER_DIVERSEORDER>
1
63
73
116
74
88
113
38
19
104
30
11
105
98
86
108
13
107
68
71
120
65
102
75
70
111
72
58
81
117
57
79
52
82
93
36
92
100
28
48
87
54
41
39
115
6
37
21
44
83
110
25
101
46
27
94
17
50
96
59
76
95
80
14
26
118
109
112
9
106
24
91
119
31
62
45
33
67
64
49
78
114
66
35
85
97
22
103
3
90
20
16
55
34
4
42
2
84
12
15
99
8
43
56
23
5
89
7
18
69
51
61
32
29
47
53
40
10
60
77

> <PUBCHEM_MMFF94_PARTIAL_CHARGES>
18
1 -0.57
14 0.57
15 0.12
16 0.21
17 0.3
18 0.3
19 0.62
2 -0.57
21 0.69
3 -0.57
4 -0.47
42 0.37
45 0.4
46 0.4
5 -0.47
6 -0.49
7 -0.9
8 0.06

> <PUBCHEM_EFFECTIVE_ROTOR_COUNT>
7.2

> <PUBCHEM_PHARMACOPHORE_FEATURES>
9
1 1 acceptor
1 2 acceptor
1 23 hydrophobe
1 3 acceptor
1 6 donor
1 7 cation
1 7 donor
6 5 6 15 16 19 21 rings
6 8 9 10 11 12 13 rings

> <PUBCHEM_HEAVY_ATOM_COUNT>
23

> <PUBCHEM_ATOM_DEF_STEREO_COUNT>
0

> <PUBCHEM_ATOM_UDEF_STEREO_COUNT>
0

> <PUBCHEM_BOND_DEF_STEREO_COUNT>
0

> <PUBCHEM_BOND_UDEF_STEREO_COUNT>
0

> <PUBCHEM_ISOTOPIC_ATOM_COUNT>
0

> <PUBCHEM_COMPONENT_COUNT>
1

> <PUBCHEM_CACTVS_TAUTO_COUNT>
8

> <PUBCHEM_CONFORMER_ID>
010970B200000001

> <PUBCHEM_MMFF94_ENERGY>
67.4185

> <PUBCHEM_FEATURE_SELFOVERLAP>
45.669

> <PUBCHEM_SHAPE_FINGERPRINT>
10670039 82 17910663282092266660
10764073 3 14604487650989446314
10871710 139 17832710067523450916
11045515 52 17617397085895515942
11221954 11 18338517542318155120
11640471 11 17202200922828242531
12403814 3 18118960295910333194
13103583 49 12174771978179138989
13134695 92 17332823036867298991
13583140 156 18272089439541173122
13994607 96 18128542561263312052
14251764 30 4966749749745104717
14251764 38 18338526347170157316
14957384 54 18270697457904310824
15342168 16 17895458276759833585
17492 54 18048912656847068789
17980427 23 17476399404347488025
18186145 218 17896314899307733286
18981168 100 17268044163171849105
20600515 1 17841688752685564667
21095088 737 18263379009251397524
22907989 373 17897462604710478636
22956985 138 15540078626815056114
23114952 82 17823115943812857238
23557571 272 18200011955055815098
238 59 17750536098493884732
3187 122 17912920591483140593
469060 322 17829331280907269174
9862522 239 18263656069497405024
9925002 15 16600115652296584070
9981440 41 18337972124579297258

> <PUBCHEM_SHAPE_MULTIPOLES>
435.8
7.44
4.08
1.9
7.37
2.4
-0.25
7.34
0.04
-0.45
-0.55
-0.6
-0.99
2.31

> <PUBCHEM_SHAPE_SELFOVERLAP>
893.704

> <PUBCHEM_SHAPE_VOLUME>
248.3

> <PUBCHEM_COORDINATE_TYPE>
2
5
10

$$$$

