6211
  -OEChem-07051212453D

 13 13  0     0  0  0  0  0  0999 V2000
   -2.3762   -1.2792    0.0014 O   0  0  0  0  0  0  0  0  0  0  0  0
    2.3768   -1.2780    0.0008 O   0  0  0  0  0  0  0  0  0  0  0  0
   -0.0007    2.6521   -0.0003 O   0  0  0  0  0  0  0  0  0  0  0  0
   -1.1730    0.6766   -0.0003 N   0  0  0  0  0  0  0  0  0  0  0  0
    1.1727    0.6772    0.0008 N   0  0  0  0  0  0  0  0  0  0  0  0
    0.0004   -1.4689   -0.0027 C   0  0  0  0  0  0  0  0  0  0  0  0
   -1.2895   -0.7002    0.0002 C   0  0  0  0  0  0  0  0  0  0  0  0
    1.2899   -0.6996    0.0003 C   0  0  0  0  0  0  0  0  0  0  0  0
   -0.0004    1.4199   -0.0002 C   0  0  0  0  0  0  0  0  0  0  0  0
    0.0005   -2.1120    0.8848 H   0  0  0  0  0  0  0  0  0  0  0  0
    0.0006   -2.1050   -0.8951 H   0  0  0  0  0  0  0  0  0  0  0  0
   -2.0416    1.2042    0.0002 H   0  0  0  0  0  0  0  0  0  0  0  0
    2.0410    1.2052    0.0019 H   0  0  0  0  0  0  0  0  0  0  0  0
  1  7  2  0  0  0  0
  2  8  2  0  0  0  0
  3  9  2  0  0  0  0
  4  7  1  0  0  0  0
  4  9  1  0  0  0  0
  4 12  1  0  0  0  0
  5  8  1  0  0  0  0
  5  9  1  0  0  0  0
  5 13  1  0  0  0  0
  6  7  1  0  0  0  0
  6  8  1  0  0  0  0
  6 10  1  0  0  0  0
  6 11  1  0  0  0  0
M  END
> <PUBCHEM_COMPOUND_CID>
6211

> <PUBCHEM_CONFORMER_RMSD>
0.4

> <PUBCHEM_CONFORMER_DIVERSEORDER>
1

> <PUBCHEM_MMFF94_PARTIAL_CHARGES>
11
1 -0.57
12 0.37
13 0.37
2 -0.57
3 -0.57
4 -0.49
5 -0.49
6 0.12
7 0.57
8 0.57
9 0.69

> <PUBCHEM_EFFECTIVE_ROTOR_COUNT>
0.6

> <PUBCHEM_PHARMACOPHORE_FEATURES>
7
1 1 acceptor
1 2 acceptor
1 3 acceptor
1 4 donor
1 5 donor
1 6 anion
6 4 5 6 7 8 9 rings

> <PUBCHEM_HEAVY_ATOM_COUNT>
9

> <PUBCHEM_ATOM_DEF_STEREO_COUNT>
0

> <PUBCHEM_ATOM_UDEF_STEREO_COUNT>
0

> <PUBCHEM_BOND_DEF_STEREO_COUNT>
0

> <PUBCHEM_BOND_UDEF_STEREO_COUNT>
0

> <PUBCHEM_ISOTOPIC_ATOM_COUNT>
0

> <PUBCHEM_COMPONENT_COUNT>
1

> <PUBCHEM_CACTVS_TAUTO_COUNT>
5

> <PUBCHEM_CONFORMER_ID>
0000184300000001

> <PUBCHEM_MMFF94_ENERGY>
16.1155

> <PUBCHEM_FEATURE_SELFOVERLAP>
35.561

> <PUBCHEM_SHAPE_FINGERPRINT>
18185500 45 18410291384904105303
21040471 1 16825306611469589893
23552423 10 18056468685263204246
23552449 1 18337959020502084398
241688 4 18410574023806183194
2748010 2 18410016537056417388
29004967 10 18340768117971033779

> <PUBCHEM_SHAPE_MULTIPOLES>
157.65
2.32
2.28
0.56
0
1.47
0
-1.4
0
0
0
0
-0.02
0

> <PUBCHEM_SHAPE_SELFOVERLAP>
323.238

> <PUBCHEM_SHAPE_VOLUME>
88.9

> <PUBCHEM_COORDINATE_TYPE>
2
5
10

$$$$

