6450275
  -OEChem-07051213082D

 50 52  0     1  0  0  0  0  0999 V2000
    6.0531   -0.0604    0.0000 O   0  0  0  0  0  0  0  0  0  0  0  0
    8.3673   -1.3428    0.0000 O   0  0  0  0  0  0  0  0  0  0  0  0
    8.9887    0.5582    0.0000 O   0  0  0  0  0  0  0  0  0  0  0  0
    7.6530    2.0468    0.0000 O   0  0  0  0  0  0  0  0  0  0  0  0
    6.0066    2.5849    0.0000 O   0  0  0  0  0  0  0  0  0  0  0  0
    2.0000    2.9400    0.0000 O   0  0  0  0  0  0  0  0  0  0  0  0
    6.4103   -1.7553    0.0000 N   0  0  0  0  0  0  0  0  0  0  0  0
    6.4103   -3.3647    0.0000 N   0  0  0  0  0  0  0  0  0  0  0  0
    4.5981   -0.5600    0.0000 N   0  0  0  0  0  0  0  0  0  0  0  0
    4.5981   -3.5600    0.0000 N   0  0  0  0  0  0  0  0  0  0  0  0
    3.7320   -2.0600    0.0000 N   0  0  0  0  0  0  0  0  0  0  0  0
    7.6995   -0.5985    0.0000 C   0  0  2  0  0  0  0  0  0  0  0  0
    8.0102    0.3520    0.0000 C   0  0  2  0  0  0  0  0  0  0  0  0
    6.7210   -0.8047    0.0000 C   0  0  1  0  0  0  0  0  0  0  0  0
    7.3423    1.0963    0.0000 C   0  0  1  0  0  0  0  0  0  0  0  0
    6.3638    0.8901    0.0000 C   0  0  1  0  0  0  0  0  0  0  0  0
    5.6960    1.6344    0.0000 C   0  0  0  0  0  0  0  0  0  0  0  0
    5.4641   -2.0600    0.0000 C   0  0  0  0  0  0  0  0  0  0  0  0
    6.9939   -2.5600    0.0000 C   0  0  0  0  0  0  0  0  0  0  0  0
    5.4641   -3.0600    0.0000 C   0  0  0  0  0  0  0  0  0  0  0  0
    4.5981   -1.5600    0.0000 C   0  0  0  0  0  0  0  0  0  0  0  0
    3.7320   -3.0600    0.0000 C   0  0  0  0  0  0  0  0  0  0  0  0
    3.7320   -0.0600    0.0000 C   0  0  0  0  0  0  0  0  0  0  0  0
    3.7320    0.9400    0.0000 C   0  0  0  0  0  0  0  0  0  0  0  0
    2.8660    1.4400    0.0000 C   0  0  0  0  0  0  0  0  0  0  0  0
    2.8660    2.4400    0.0000 C   0  0  0  0  0  0  0  0  0  0  0  0
    2.0000    0.9400    0.0000 C   0  0  0  0  0  0  0  0  0  0  0  0
    7.5069   -1.1878    0.0000 H   0  0  0  0  0  0  0  0  0  0  0  0
    8.4242   -0.1095    0.0000 H   0  0  0  0  0  0  0  0  0  0  0  0
    6.1143   -0.9326    0.0000 H   0  0  0  0  0  0  0  0  0  0  0  0
    7.9490    1.2242    0.0000 H   0  0  0  0  0  0  0  0  0  0  0  0
    5.7571    0.7622    0.0000 H   0  0  0  0  0  0  0  0  0  0  0  0
    5.1490    1.9264    0.0000 H   0  0  0  0  0  0  0  0  0  0  0  0
    5.3134    1.1465    0.0000 H   0  0  0  0  0  0  0  0  0  0  0  0
    8.9740   -1.2150    0.0000 H   0  0  0  0  0  0  0  0  0  0  0  0
    9.1813    1.1475    0.0000 H   0  0  0  0  0  0  0  0  0  0  0  0
    8.2596    2.1747    0.0000 H   0  0  0  0  0  0  0  0  0  0  0  0
    7.6139   -2.5600    0.0000 H   0  0  0  0  0  0  0  0  0  0  0  0
    5.5926    3.0464    0.0000 H   0  0  0  0  0  0  0  0  0  0  0  0
    5.1350   -0.2500    0.0000 H   0  0  0  0  0  0  0  0  0  0  0  0
    3.1951   -3.3700    0.0000 H   0  0  0  0  0  0  0  0  0  0  0  0
    3.1215    0.0477    0.0000 H   0  0  0  0  0  0  0  0  0  0  0  0
    3.5200   -0.6426    0.0000 H   0  0  0  0  0  0  0  0  0  0  0  0
    4.2690    1.2500    0.0000 H   0  0  0  0  0  0  0  0  0  0  0  0
    3.4766    2.3323    0.0000 H   0  0  0  0  0  0  0  0  0  0  0  0
    3.0781    3.0226    0.0000 H   0  0  0  0  0  0  0  0  0  0  0  0
    1.6900    1.4769    0.0000 H   0  0  0  0  0  0  0  0  0  0  0  0
    1.4631    0.6300    0.0000 H   0  0  0  0  0  0  0  0  0  0  0  0
    2.3100    0.4031    0.0000 H   0  0  0  0  0  0  0  0  0  0  0  0
    2.0000    3.5600    0.0000 H   0  0  0  0  0  0  0  0  0  0  0  0
  1 14  1  0  0  0  0
  1 16  1  0  0  0  0
 12  2  1  1  0  0  0
  2 35  1  0  0  0  0
 13  3  1  6  0  0  0
  3 36  1  0  0  0  0
 15  4  1  1  0  0  0
  4 37  1  0  0  0  0
  5 17  1  0  0  0  0
  5 39  1  0  0  0  0
  6 26  1  0  0  0  0
  6 50  1  0  0  0  0
 14  7  1  6  0  0  0
  7 18  1  0  0  0  0
  7 19  1  0  0  0  0
  8 19  2  0  0  0  0
  8 20  1  0  0  0  0
  9 21  1  0  0  0  0
  9 23  1  0  0  0  0
  9 40  1  0  0  0  0
 10 20  1  0  0  0  0
 10 22  2  0  0  0  0
 11 21  2  0  0  0  0
 11 22  1  0  0  0  0
 12 13  1  0  0  0  0
 12 14  1  0  0  0  0
 12 28  1  0  0  0  0
 13 15  1  0  0  0  0
 13 29  1  0  0  0  0
 14 30  1  0  0  0  0
 15 16  1  0  0  0  0
 15 31  1  0  0  0  0
 16 17  1  6  0  0  0
 16 32  1  0  0  0  0
 17 33  1  0  0  0  0
 17 34  1  0  0  0  0
 18 20  2  0  0  0  0
 18 21  1  0  0  0  0
 19 38  1  0  0  0  0
 22 41  1  0  0  0  0
 23 24  1  0  0  0  0
 23 42  1  0  0  0  0
 23 43  1  0  0  0  0
 24 25  2  0  0  0  0
 24 44  1  0  0  0  0
 25 26  1  0  0  0  0
 25 27  1  0  0  0  0
 26 45  1  0  0  0  0
 26 46  1  0  0  0  0
 27 47  1  0  0  0  0
 27 48  1  0  0  0  0
 27 49  1  0  0  0  0
M  END
> <PUBCHEM_COMPOUND_CID>
6450275

> <PUBCHEM_COMPOUND_CANONICALIZED>
1

> <PUBCHEM_CACTVS_COMPLEXITY>
526

> <PUBCHEM_CACTVS_HBOND_ACCEPTOR>
10

> <PUBCHEM_CACTVS_HBOND_DONOR>
6

> <PUBCHEM_CACTVS_ROTATABLE_BOND>
6

> <PUBCHEM_CACTVS_SUBSKEYS>
AAADceB7uAAAAAAAAAAAAAAAAAAAAWAAAAAsSAAAAAAAAFgB+AAAHgAQCAAADBzhlwYH8L/MFgCgAyZjZACAgC0REKABWKAoVBCDXAJAyUAeVAgPEALTECHwcAYAAAAAAAAAAAAAAAAAAAAAAAAAAAAAAA==

> <PUBCHEM_IUPAC_OPENEYE_NAME>
(2R,3S,4S,5R,6R)-2-(hydroxymethyl)-6-[6-[[(E)-4-hydroxy-3-methyl-but-2-enyl]amino]purin-7-yl]tetrahydropyran-3,4,5-triol

> <PUBCHEM_IUPAC_CAS_NAME>
(2R,3S,4S,5R,6R)-2-(hydroxymethyl)-6-[6-[[(E)-4-hydroxy-3-methylbut-2-enyl]amino]-7-purinyl]oxane-3,4,5-triol

> <PUBCHEM_IUPAC_NAME>
(2R,3S,4S,5R,6R)-2-(hydroxymethyl)-6-[6-[[(E)-4-hydroxy-3-methylbut-2-enyl]amino]purin-7-yl]oxane-3,4,5-triol

> <PUBCHEM_IUPAC_SYSTEMATIC_NAME>
(2R,3S,4S,5R,6R)-2-(hydroxymethyl)-6-[6-[[(E)-3-methyl-4-oxidanyl-but-2-enyl]amino]purin-7-yl]oxane-3,4,5-triol

> <PUBCHEM_IUPAC_TRADITIONAL_NAME>
(2R,3R,4S,5S,6R)-2-[6-[[(E)-4-hydroxy-3-methyl-but-2-enyl]amino]purin-7-yl]-6-methylol-tetrahydropyran-3,4,5-triol

> <PUBCHEM_IUPAC_INCHI>
InChI=1S/C16H23N5O6/c1-8(4-22)2-3-17-14-10-15(19-6-18-14)20-7-21(10)16-13(26)12(25)11(24)9(5-23)27-16/h2,6-7,9,11-13,16,22-26H,3-5H2,1H3,(H,17,18,19)/b8-2+/t9-,11-,12+,13-,16-/m1/s1

> <PUBCHEM_IUPAC_INCHIKEY>
HTDHRCLVWUEXIS-HNVSNYHQSA-N

> <PUBCHEM_XLOGP3_AA>
-1.6

> <PUBCHEM_EXACT_MASS>
381.164833

> <PUBCHEM_MOLECULAR_FORMULA>
C16H23N5O6

> <PUBCHEM_MOLECULAR_WEIGHT>
381.38372

> <PUBCHEM_OPENEYE_CAN_SMILES>
CC(=CCNC1=NC=NC2=C1N(C=N2)C3C(C(C(C(O3)CO)O)O)O)CO

> <PUBCHEM_OPENEYE_ISO_SMILES>
C/C(=C\CNC1=NC=NC2=C1N(C=N2)[C@H]3[C@@H]([C@H]([C@@H]([C@H](O3)CO)O)O)O)/CO

> <PUBCHEM_CACTVS_TPSA>
166

> <PUBCHEM_MONOISOTOPIC_WEIGHT>
381.164833

> <PUBCHEM_TOTAL_CHARGE>
0

> <PUBCHEM_HEAVY_ATOM_COUNT>
27

> <PUBCHEM_ATOM_DEF_STEREO_COUNT>
5

> <PUBCHEM_ATOM_UDEF_STEREO_COUNT>
0

> <PUBCHEM_BOND_DEF_STEREO_COUNT>
1

> <PUBCHEM_BOND_UDEF_STEREO_COUNT>
0

> <PUBCHEM_ISOTOPIC_ATOM_COUNT>
0

> <PUBCHEM_COMPONENT_COUNT>
1

> <PUBCHEM_CACTVS_TAUTO_COUNT>
3

> <PUBCHEM_COORDINATE_TYPE>
1
5
255

> <PUBCHEM_BONDANNOTATIONS>
10  20  8
10  22  8
11  21  8
11  22  8
16  17  6
18  20  8
18  21  8
12  2  5
13  3  6
15  4  5
14  7  6
7  18  8
7  19  8
8  19  8
8  20  8

$$$$

