585938
  -OEChem-06241222453D

 33 34  0     1  0  0  0  0  0999 V2000
    2.8319    2.2187   -0.3950 O   0  0  0  0  0  0  0  0  0  0  0  0
    2.6394   -0.6239   -0.7633 O   0  0  0  0  0  0  0  0  0  0  0  0
   -0.7545   -0.5117   -0.8675 N   0  0  0  0  0  0  0  0  0  0  0  0
   -2.7702    0.7959    0.5795 N   0  0  0  0  0  0  0  0  0  0  0  0
    0.5790    1.5013   -0.9524 C   0  0  0  0  0  0  0  0  0  0  0  0
    1.7315    1.4372    0.0741 C   0  0  1  0  0  0  0  0  0  0  0  0
   -0.6575    0.7880   -0.5237 C   0  0  0  0  0  0  0  0  0  0  0  0
   -1.6477    1.4302    0.1870 C   0  0  0  0  0  0  0  0  0  0  0  0
    2.2218    0.0296    0.3297 C   0  0  0  0  0  0  0  0  0  0  0  0
   -1.8770   -1.1460   -0.4748 C   0  0  0  0  0  0  0  0  0  0  0  0
   -2.8671   -0.5038    0.2358 C   0  0  0  0  0  0  0  0  0  0  0  0
   -1.5274    2.8677    0.5620 C   0  0  0  0  0  0  0  0  0  0  0  0
    2.3175   -0.6959    1.4598 C   0  0  0  0  0  0  0  0  0  0  0  0
   -1.9959   -2.5842   -0.8481 C   0  0  0  0  0  0  0  0  0  0  0  0
   -4.1037   -1.2172    0.6643 C   0  0  0  0  0  0  0  0  0  0  0  0
    2.8508   -1.9400    1.0465 C   0  0  0  0  0  0  0  0  0  0  0  0
    3.0292   -1.8459   -0.3141 C   0  0  0  0  0  0  0  0  0  0  0  0
    0.9208    1.0697   -1.9042 H   0  0  0  0  0  0  0  0  0  0  0  0
    0.3733    2.5474   -1.2090 H   0  0  0  0  0  0  0  0  0  0  0  0
    1.4045    1.8787    1.0227 H   0  0  0  0  0  0  0  0  0  0  0  0
   -1.5163    3.5028   -0.3291 H   0  0  0  0  0  0  0  0  0  0  0  0
   -2.3841    3.1786    1.1706 H   0  0  0  0  0  0  0  0  0  0  0  0
   -0.6279    3.0507    1.1563 H   0  0  0  0  0  0  0  0  0  0  0  0
    2.0464   -0.3963    2.4616 H   0  0  0  0  0  0  0  0  0  0  0  0
    3.5029    2.2349    0.3090 H   0  0  0  0  0  0  0  0  0  0  0  0
   -2.0744   -3.2117    0.0451 H   0  0  0  0  0  0  0  0  0  0  0  0
   -2.8691   -2.7485   -1.4870 H   0  0  0  0  0  0  0  0  0  0  0  0
   -1.1127   -2.9149   -1.4056 H   0  0  0  0  0  0  0  0  0  0  0  0
   -4.7700   -0.5437    1.2144 H   0  0  0  0  0  0  0  0  0  0  0  0
   -4.6568   -1.5907   -0.2032 H   0  0  0  0  0  0  0  0  0  0  0  0
   -3.8596   -2.0525    1.3279 H   0  0  0  0  0  0  0  0  0  0  0  0
    3.0764   -2.7982    1.6629 H   0  0  0  0  0  0  0  0  0  0  0  0
    3.4022   -2.5237   -1.0680 H   0  0  0  0  0  0  0  0  0  0  0  0
  1  6  1  0  0  0  0
  1 25  1  0  0  0  0
  2  9  1  0  0  0  0
  2 17  1  0  0  0  0
  3  7  2  0  0  0  0
  3 10  1  0  0  0  0
  4  8  2  0  0  0  0
  4 11  1  0  0  0  0
  5  6  1  0  0  0  0
  5  7  1  0  0  0  0
  5 18  1  0  0  0  0
  5 19  1  0  0  0  0
  6  9  1  0  0  0  0
  6 20  1  0  0  0  0
  7  8  1  0  0  0  0
  8 12  1  0  0  0  0
  9 13  2  0  0  0  0
 10 11  2  0  0  0  0
 10 14  1  0  0  0  0
 11 15  1  0  0  0  0
 12 21  1  0  0  0  0
 12 22  1  0  0  0  0
 12 23  1  0  0  0  0
 13 16  1  0  0  0  0
 13 24  1  0  0  0  0
 14 26  1  0  0  0  0
 14 27  1  0  0  0  0
 14 28  1  0  0  0  0
 15 29  1  0  0  0  0
 15 30  1  0  0  0  0
 15 31  1  0  0  0  0
 16 17  2  0  0  0  0
 16 32  1  0  0  0  0
 17 33  1  0  0  0  0
M  END
> <PUBCHEM_COMPOUND_CID>
585938

> <PUBCHEM_CONFORMER_RMSD>
0.6

> <PUBCHEM_CONFORMER_DIVERSEORDER>
3
54
37
42
26
61
57
18
51
2
19
44
17
60
39
4
58
35
14
12
8
6
13
47
52
63
20
59
27
40
31
29
62
43
55
33
45
48
50
16
30
23
21
7
5
53
46
56
1
11
34
28
41
64
15
9
32
22
36
49
10
25
38
24

> <PUBCHEM_MMFF94_PARTIAL_CHARGES>
21
1 -0.68
10 0.17
11 0.17
12 0.14
13 -0.15
14 0.14
15 0.14
16 -0.15
17 -0.01
2 -0.28
24 0.15
25 0.4
3 -0.62
32 0.15
33 0.15
4 -0.62
5 0.14
6 0.46
7 0.17
8 0.17
9 -0.04

> <PUBCHEM_EFFECTIVE_ROTOR_COUNT>
3

> <PUBCHEM_PHARMACOPHORE_FEATURES>
7
1 1 acceptor
1 1 donor
1 2 acceptor
1 3 acceptor
1 4 acceptor
5 2 9 13 16 17 rings
6 3 4 7 8 10 11 rings

> <PUBCHEM_HEAVY_ATOM_COUNT>
17

> <PUBCHEM_ATOM_DEF_STEREO_COUNT>
0

> <PUBCHEM_ATOM_UDEF_STEREO_COUNT>
1

> <PUBCHEM_BOND_DEF_STEREO_COUNT>
0

> <PUBCHEM_BOND_UDEF_STEREO_COUNT>
0

> <PUBCHEM_ISOTOPIC_ATOM_COUNT>
0

> <PUBCHEM_COMPONENT_COUNT>
1

> <PUBCHEM_CACTVS_TAUTO_COUNT>
2

> <PUBCHEM_CONFORMER_ID>
0008F0D200000003

> <PUBCHEM_MMFF94_ENERGY>
31.9722

> <PUBCHEM_FEATURE_SELFOVERLAP>
35.527

> <PUBCHEM_SHAPE_FINGERPRINT>
10618630 7 18413109446307210019
11578080 2 17631748161217771028
12251169 10 18335143093871812214
12382932 28 18191594051115271195
12553582 1 18264493888377159767
13140716 1 18337104674487967617
14178342 30 17757846532506040283
15076042 46 18334856160060389505
15279307 12 18194395598179355278
15375462 189 18195244417145744129
16752209 62 18338526364481232901
16945 1 18335143149642927789
17804303 29 18188484799820125782
19422 9 18129088099582689354
20291156 8 18413387622706943323
20361792 2 17632301215270629174
20442098 301 18408045104239407494
20559304 39 18409446964485140536
20645477 70 18270690774782529375
21731516 1 17987806344376403098
22445834 79 18411698747008128321
23184049 29 18410299133156911116
23463225 33 18409726240601976615
23598294 1 18261658346795056561
34934 24 18191023396328293493
352729 6 18191298489152848901
465052 167 18057021692635893433
7097593 13 18339363092576873354
7364860 26 18336263449345270724
74978 22 18340493386224983012

> <PUBCHEM_SHAPE_MULTIPOLES>
328.15
5.99
2.92
1.08
0.55
0.61
-0.12
-2.73
-1.27
0.19
0.11
-0.27
-0.22
-0.78

> <PUBCHEM_SHAPE_SELFOVERLAP>
696.279

> <PUBCHEM_SHAPE_VOLUME>
186

> <PUBCHEM_COORDINATE_TYPE>
2
5
10

$$$$

