17396236
  -OEChem-06241222553D

 54 56  0     0  0  0  0  0  0999 V2000
   -4.7916   -1.4678   -0.7638 S   0  0  0  0  0  0  0  0  0  0  0  0
   -1.0421    3.5291    0.0780 S   0  0  0  0  0  0  0  0  0  0  0  0
   -6.0216   -1.2190   -0.0333 O   0  0  0  0  0  0  0  0  0  0  0  0
   -4.8282   -1.7532   -2.1871 O   0  0  0  0  0  0  0  0  0  0  0  0
   -0.5481    3.9688   -1.2205 O   0  0  0  0  0  0  0  0  0  0  0  0
   -1.7483    4.4763    0.9303 O   0  0  0  0  0  0  0  0  0  0  0  0
   -3.8901   -2.6676    0.0312 N   0  0  0  0  0  0  0  0  0  0  0  0
    0.2613    2.8658    0.9624 N   0  0  0  0  0  0  0  0  0  0  0  0
   -2.5142   -2.9601   -0.4672 C   0  0  0  0  0  0  0  0  0  0  0  0
   -3.8575   -2.6389    1.5194 C   0  0  0  0  0  0  0  0  0  0  0  0
   -1.6358   -2.9750    0.7766 C   0  0  0  0  0  0  0  0  0  0  0  0
   -2.5913   -3.4027    1.8734 C   0  0  0  0  0  0  0  0  0  0  0  0
   -3.7414   -0.0655   -0.5272 C   0  0  0  0  0  0  0  0  0  0  0  0
   -3.8977    0.7423    0.5992 C   0  0  0  0  0  0  0  0  0  0  0  0
   -2.7551    0.2321   -1.4676 C   0  0  0  0  0  0  0  0  0  0  0  0
   -2.0812    2.1453   -0.1554 C   0  0  0  0  0  0  0  0  0  0  0  0
    2.4924    1.8718    0.8956 C   0  0  0  0  0  0  0  0  0  0  0  0
    1.0607    1.7771    0.3827 C   0  0  0  0  0  0  0  0  0  0  0  0
   -3.0676    1.8479    0.7850 C   0  0  0  0  0  0  0  0  0  0  0  0
   -1.9251    1.3375   -1.2818 C   0  0  0  0  0  0  0  0  0  0  0  0
    3.3625    0.7507    0.3263 C   0  0  0  0  0  0  0  0  0  0  0  0
    4.8087    0.8696    0.8121 C   0  0  0  0  0  0  0  0  0  0  0  0
    5.6830   -0.2107    0.2286 C   0  0  0  0  0  0  0  0  0  0  0  0
    5.8305   -1.4258    0.8977 C   0  0  0  0  0  0  0  0  0  0  0  0
    6.3444    0.0042   -0.9807 C   0  0  0  0  0  0  0  0  0  0  0  0
    6.6394   -2.4257    0.3579 C   0  0  0  0  0  0  0  0  0  0  0  0
    7.1532   -0.9958   -1.5206 C   0  0  0  0  0  0  0  0  0  0  0  0
    7.3007   -2.2107   -0.8512 C   0  0  0  0  0  0  0  0  0  0  0  0
   -2.5408   -3.9584   -0.9201 H   0  0  0  0  0  0  0  0  0  0  0  0
   -2.1337   -2.2764   -1.2221 H   0  0  0  0  0  0  0  0  0  0  0  0
   -3.7930   -1.6217    1.9090 H   0  0  0  0  0  0  0  0  0  0  0  0
   -4.7449   -3.1269    1.9316 H   0  0  0  0  0  0  0  0  0  0  0  0
   -0.7784   -3.6459    0.6744 H   0  0  0  0  0  0  0  0  0  0  0  0
   -1.2581   -1.9658    0.9810 H   0  0  0  0  0  0  0  0  0  0  0  0
   -2.2235   -3.1633    2.8749 H   0  0  0  0  0  0  0  0  0  0  0  0
   -2.7694   -4.4833    1.8192 H   0  0  0  0  0  0  0  0  0  0  0  0
   -4.6608    0.5333    1.3432 H   0  0  0  0  0  0  0  0  0  0  0  0
   -2.6222   -0.3712   -2.3609 H   0  0  0  0  0  0  0  0  0  0  0  0
    2.4981    1.8235    1.9918 H   0  0  0  0  0  0  0  0  0  0  0  0
    2.9160    2.8463    0.6218 H   0  0  0  0  0  0  0  0  0  0  0  0
    1.0634    1.8423   -0.7100 H   0  0  0  0  0  0  0  0  0  0  0  0
    0.6175    0.8192    0.6747 H   0  0  0  0  0  0  0  0  0  0  0  0
    3.3349    0.7874   -0.7702 H   0  0  0  0  0  0  0  0  0  0  0  0
    2.9479   -0.2220    0.6199 H   0  0  0  0  0  0  0  0  0  0  0  0
   -3.2032    2.4592    1.6727 H   0  0  0  0  0  0  0  0  0  0  0  0
   -1.1644    1.5504   -2.0275 H   0  0  0  0  0  0  0  0  0  0  0  0
    0.2114    2.8898    1.9887 H   0  0  0  0  0  0  0  0  0  0  0  0
    5.2176    1.8525    0.5450 H   0  0  0  0  0  0  0  0  0  0  0  0
    4.8442    0.8185    1.9078 H   0  0  0  0  0  0  0  0  0  0  0  0
    5.3189   -1.6058    1.8395 H   0  0  0  0  0  0  0  0  0  0  0  0
    6.2357    0.9458   -1.5124 H   0  0  0  0  0  0  0  0  0  0  0  0
    6.7539   -3.3719    0.8785 H   0  0  0  0  0  0  0  0  0  0  0  0
    7.6677   -0.8288   -2.4623 H   0  0  0  0  0  0  0  0  0  0  0  0
    7.9303   -2.9894   -1.2717 H   0  0  0  0  0  0  0  0  0  0  0  0
  1  3  2  0  0  0  0
  1  4  2  0  0  0  0
  1  7  1  0  0  0  0
  1 13  1  0  0  0  0
  2  5  2  0  0  0  0
  2  6  2  0  0  0  0
  2  8  1  0  0  0  0
  2 16  1  0  0  0  0
  7  9  1  0  0  0  0
  7 10  1  0  0  0  0
  8 18  1  0  0  0  0
  8 47  1  0  0  0  0
  9 11  1  0  0  0  0
  9 29  1  0  0  0  0
  9 30  1  0  0  0  0
 10 12  1  0  0  0  0
 10 31  1  0  0  0  0
 10 32  1  0  0  0  0
 11 12  1  0  0  0  0
 11 33  1  0  0  0  0
 11 34  1  0  0  0  0
 12 35  1  0  0  0  0
 12 36  1  0  0  0  0
 13 14  2  0  0  0  0
 13 15  1  0  0  0  0
 14 19  1  0  0  0  0
 14 37  1  0  0  0  0
 15 20  2  0  0  0  0
 15 38  1  0  0  0  0
 16 19  2  0  0  0  0
 16 20  1  0  0  0  0
 17 18  1  0  0  0  0
 17 21  1  0  0  0  0
 17 39  1  0  0  0  0
 17 40  1  0  0  0  0
 18 41  1  0  0  0  0
 18 42  1  0  0  0  0
 19 45  1  0  0  0  0
 20 46  1  0  0  0  0
 21 22  1  0  0  0  0
 21 43  1  0  0  0  0
 21 44  1  0  0  0  0
 22 23  1  0  0  0  0
 22 48  1  0  0  0  0
 22 49  1  0  0  0  0
 23 24  2  0  0  0  0
 23 25  1  0  0  0  0
 24 26  1  0  0  0  0
 24 50  1  0  0  0  0
 25 27  2  0  0  0  0
 25 51  1  0  0  0  0
 26 28  2  0  0  0  0
 26 52  1  0  0  0  0
 27 28  1  0  0  0  0
 27 53  1  0  0  0  0
 28 54  1  0  0  0  0
M  END
> <PUBCHEM_COMPOUND_CID>
17396236

> <PUBCHEM_CONFORMER_RMSD>
1.2

> <PUBCHEM_CONFORMER_DIVERSEORDER>
1
73
3
103
86
38
94
52
4
75
101
56
50
66
95
12
6
41
11
59
15
97
28
74
19
104
92
14
45
76
91
36
79
48
33
20
7
34
81
32
57
25
21
102
78
35
105
85
8
39
18
68
30
13
64
99
82
71
90
106
72
44
69
60
27
51
49
58
23
80
31
77
46
98
87
83
55
29
89
84
2
70
10
62
107
24
9
43
16
5
42
63
17
22
54
100
40
53
61
26
67
37
96
47
93
65
88

> <PUBCHEM_MMFF94_PARTIAL_CHARGES>
34
1 1.45
10 0.36
13 -0.01
14 -0.15
15 -0.15
16 -0.01
18 0.36
19 -0.15
2 1.45
20 -0.15
22 0.14
23 -0.14
24 -0.15
25 -0.15
26 -0.15
27 -0.15
28 -0.15
3 -0.65
37 0.15
38 0.15
4 -0.65
45 0.15
46 0.15
47 0.42
5 -0.65
50 0.15
51 0.15
52 0.15
53 0.15
54 0.15
6 -0.65
7 -0.85
8 -0.91
9 0.36

> <PUBCHEM_EFFECTIVE_ROTOR_COUNT>
10

> <PUBCHEM_PHARMACOPHORE_FEATURES>
8
1 3 acceptor
1 4 acceptor
1 5 acceptor
1 6 acceptor
1 8 donor
5 7 9 10 11 12 rings
6 13 14 15 16 19 20 rings
6 23 24 25 26 27 28 rings

> <PUBCHEM_HEAVY_ATOM_COUNT>
28

> <PUBCHEM_ATOM_DEF_STEREO_COUNT>
0

> <PUBCHEM_ATOM_UDEF_STEREO_COUNT>
0

> <PUBCHEM_BOND_DEF_STEREO_COUNT>
0

> <PUBCHEM_BOND_UDEF_STEREO_COUNT>
0

> <PUBCHEM_ISOTOPIC_ATOM_COUNT>
0

> <PUBCHEM_COMPONENT_COUNT>
1

> <PUBCHEM_CACTVS_TAUTO_COUNT>
1

> <PUBCHEM_CONFORMER_ID>
0109720C00000001

> <PUBCHEM_MMFF94_ENERGY>
35.6989

> <PUBCHEM_FEATURE_SELFOVERLAP>
40.63

> <PUBCHEM_SHAPE_FINGERPRINT>
10305334 12 18189328142919737113
11056379 131 18340206418207127412
11387372 6 18337943580290016281
117089 54 18267578018419835570
11756154 5 18412550890500958706
1361 4 18335982047963207670
1361 87 18200032832949973818
14150023 24 17760362588726282297
14251757 5 18341896324718445642
14461889 52 18261967271920177592
14866123 147 18335700581244388713
14931854 50 18272385169493168583
14950920 106 14418431931500998766
15001296 14 18129952174199054728
15183329 4 18344147003883737922
15799311 1 18266442365390797726
15927050 60 18048044257679047917
17627616 140 17985838248380263442
19958102 18 18202008728855442298
20501277 246 17826524271156781072
21196832 93 18340760461051848470
23379529 103 18339923701968459536
23559900 14 18122355579817768865
395649 100 18342731932893212266
4435113 14 17896867937183673750
484985 159 18335425728833181869
5365585 94 18412266099461179898
54324442 115 18270392777315311330
7970288 3 18336834078277912414
8863177 126 18260269651299046144
9896288 288 18118672460657309049

> <PUBCHEM_SHAPE_MULTIPOLES>
550.49
18.04
5.32
1.53
37.16
2.23
-0.26
-15.46
-4.33
-4.83
1.42
-0.65
-0.57
0.88

> <PUBCHEM_SHAPE_SELFOVERLAP>
1123.05

> <PUBCHEM_SHAPE_VOLUME>
317.9

> <PUBCHEM_COORDINATE_TYPE>
2
5
10

$$$$

