17756769
  -OEChem-07051213083D

 57 59  0     1  0  0  0  0  0999 V2000
    1.6037   -3.3542    0.5273 P   0  0  2  0  0  0  0  0  0  0  0  0
    3.3823   -1.0904    1.1346 P   0  0  1  0  0  0  0  0  0  0  0  0
   -2.4829   -2.0785   -0.0534 O   0  0  0  0  0  0  0  0  0  0  0  0
   -3.5202   -2.2025   -2.8639 O   0  0  0  0  0  0  0  0  0  0  0  0
   -3.4597    0.4790   -2.3696 O   0  0  0  0  0  0  0  0  0  0  0  0
    1.1662    1.6155    0.2948 O   0  0  0  0  0  0  0  0  0  0  0  0
    0.0516   -3.2880    0.0759 O   0  0  0  0  0  0  0  0  0  0  0  0
    3.0577    0.4908    1.1123 O   0  0  0  0  0  0  0  0  0  0  0  0
    2.6622    1.8867   -2.9140 O   0  0  0  0  0  0  0  0  0  0  0  0
    3.6755    3.1232    0.3464 O   0  0  0  0  0  0  0  0  0  0  0  0
    1.9720   -1.8028    0.7921 O   0  0  0  0  0  0  0  0  0  0  0  0
   -4.8263    1.2419    0.5569 O   0  0  0  0  0  0  0  0  0  0  0  0
    2.3939   -3.6865   -0.8446 O   0  0  0  0  0  0  0  0  0  0  0  0
    4.2598   -1.3449   -0.2006 O   0  0  0  0  0  0  0  0  0  0  0  0
    1.9097   -4.2734    1.6735 O   0  0  0  0  0  0  0  0  0  0  0  0
    4.0261   -1.5768    2.4006 O   0  0  0  0  0  0  0  0  0  0  0  0
   -1.8269    2.6233    3.7725 O   0  0  0  0  0  0  0  0  0  0  0  0
   -2.7966    0.0988    0.7376 N   0  0  0  0  0  0  0  0  0  0  0  0
    0.5613    3.7931   -2.6491 N   0  0  0  0  0  0  0  0  0  0  0  0
   -3.3310    1.9289    2.1572 N   0  0  0  0  0  0  0  0  0  0  0  0
   -2.2950   -1.6556   -2.3767 C   0  0  1  0  0  0  0  0  0  0  0  0
   -2.5516   -0.3435   -1.6661 C   0  0  2  0  0  0  0  0  0  0  0  0
   -1.8039   -2.5428   -1.2409 C   0  0  1  0  0  0  0  0  0  0  0  0
   -3.1015   -0.8113   -0.3296 C   0  0  1  0  0  0  0  0  0  0  0  0
   -0.3038   -2.4386   -1.0010 C   0  0  0  0  0  0  0  0  0  0  0  0
    2.6926    2.8273   -1.8402 C   0  0  1  0  0  0  0  0  0  0  0  0
    1.2654    3.2766   -1.4784 C   0  0  2  0  0  0  0  0  0  0  0  0
    3.3611    2.1437   -0.6437 C   0  0  2  0  0  0  0  0  0  0  0  0
    2.4458    1.0715   -0.0366 C   0  0  2  0  0  0  0  0  0  0  0  0
    0.4780    2.1240   -0.8513 C   0  0  0  0  0  0  0  0  0  0  0  0
   -3.7315    1.0952    1.1045 C   0  0  0  0  0  0  0  0  0  0  0  0
   -1.5835   -0.0003    1.4087 C   0  0  0  0  0  0  0  0  0  0  0  0
   -1.2158    0.8017    2.4102 C   0  0  0  0  0  0  0  0  0  0  0  0
   -2.1346    1.8689    2.8546 C   0  0  0  0  0  0  0  0  0  0  0  0
   -1.6057   -1.5661   -3.2211 H   0  0  0  0  0  0  0  0  0  0  0  0
   -1.6115    0.2009   -1.5480 H   0  0  0  0  0  0  0  0  0  0  0  0
   -2.0876   -3.5928   -1.3746 H   0  0  0  0  0  0  0  0  0  0  0  0
   -4.1859   -0.9676   -0.3794 H   0  0  0  0  0  0  0  0  0  0  0  0
    0.0051   -1.4149   -0.7761 H   0  0  0  0  0  0  0  0  0  0  0  0
    0.2217   -2.7641   -1.9040 H   0  0  0  0  0  0  0  0  0  0  0  0
    3.2768    3.6957   -2.1682 H   0  0  0  0  0  0  0  0  0  0  0  0
    1.3442    4.0803   -0.7348 H   0  0  0  0  0  0  0  0  0  0  0  0
    4.3071    1.6726   -0.9358 H   0  0  0  0  0  0  0  0  0  0  0  0
    2.2814    0.2819   -0.7805 H   0  0  0  0  0  0  0  0  0  0  0  0
    0.3202    1.3081   -1.5656 H   0  0  0  0  0  0  0  0  0  0  0  0
   -0.5062    2.4693   -0.5168 H   0  0  0  0  0  0  0  0  0  0  0  0
   -3.3126   -3.0585   -3.2762 H   0  0  0  0  0  0  0  0  0  0  0  0
   -3.6338    1.2601   -1.8174 H   0  0  0  0  0  0  0  0  0  0  0  0
   -0.8970   -0.7746    1.1005 H   0  0  0  0  0  0  0  0  0  0  0  0
   -0.3572    4.1381   -2.3735 H   0  0  0  0  0  0  0  0  0  0  0  0
    1.0678    4.5915   -3.0293 H   0  0  0  0  0  0  0  0  0  0  0  0
    3.5825    1.6612   -3.1328 H   0  0  0  0  0  0  0  0  0  0  0  0
    4.2744    3.7709   -0.0626 H   0  0  0  0  0  0  0  0  0  0  0  0
   -3.9873    2.6523    2.4376 H   0  0  0  0  0  0  0  0  0  0  0  0
   -0.2608    0.6944    2.9099 H   0  0  0  0  0  0  0  0  0  0  0  0
    2.3419   -3.0620   -1.5986 H   0  0  0  0  0  0  0  0  0  0  0  0
    4.6818   -2.2208   -0.3306 H   0  0  0  0  0  0  0  0  0  0  0  0
  1  7  1  0  0  0  0
  1 11  1  0  0  0  0
  1 13  1  0  0  0  0
  1 15  2  0  0  0  0
  2  8  1  0  0  0  0
  2 11  1  0  0  0  0
  2 14  1  0  0  0  0
  2 16  2  0  0  0  0
  3 23  1  0  0  0  0
  3 24  1  0  0  0  0
  4 21  1  0  0  0  0
  4 47  1  0  0  0  0
  5 22  1  0  0  0  0
  5 48  1  0  0  0  0
  6 29  1  0  0  0  0
  6 30  1  0  0  0  0
  7 25  1  0  0  0  0
  8 29  1  0  0  0  0
  9 26  1  0  0  0  0
  9 52  1  0  0  0  0
 10 28  1  0  0  0  0
 10 53  1  0  0  0  0
 12 31  2  0  0  0  0
 13 56  1  0  0  0  0
 14 57  1  0  0  0  0
 17 34  2  0  0  0  0
 18 24  1  0  0  0  0
 18 31  1  0  0  0  0
 18 32  1  0  0  0  0
 19 27  1  0  0  0  0
 19 50  1  0  0  0  0
 19 51  1  0  0  0  0
 20 31  1  0  0  0  0
 20 34  1  0  0  0  0
 20 54  1  0  0  0  0
 21 22  1  0  0  0  0
 21 23  1  0  0  0  0
 21 35  1  0  0  0  0
 22 24  1  0  0  0  0
 22 36  1  0  0  0  0
 23 25  1  0  0  0  0
 23 37  1  0  0  0  0
 24 38  1  0  0  0  0
 25 39  1  0  0  0  0
 25 40  1  0  0  0  0
 26 27  1  0  0  0  0
 26 28  1  0  0  0  0
 26 41  1  0  0  0  0
 27 30  1  0  0  0  0
 27 42  1  0  0  0  0
 28 29  1  0  0  0  0
 28 43  1  0  0  0  0
 29 44  1  0  0  0  0
 30 45  1  0  0  0  0
 30 46  1  0  0  0  0
 32 33  2  0  0  0  0
 32 49  1  0  0  0  0
 33 34  1  0  0  0  0
 33 55  1  0  0  0  0
M  END
> <PUBCHEM_COMPOUND_CID>
17756769

> <PUBCHEM_CONFORMER_RMSD>
1.4

> <PUBCHEM_CONFORMER_DIVERSEORDER>
1
76
42
95
20
11
13
68
2
84
70
4
63
75
61
24
65
64
16
94
72
71
87
73
80
67
52
57
91
83
21
3
74
41
59
82
23
98
97
37
44
69
43
51
46
14
29
79
56
30
34
86
77
48
31
19
50
53
78
81
49
60
54
88
47
33
38
58
89
8
62
90
15
18
55
92
26
6
93
35
12
17
10
85
45
9
5
66
28
7
32
27
25
36
39
40
22
96

> <PUBCHEM_MMFF94_PARTIAL_CHARGES>
45
1 1.51
10 -0.68
11 -0.54
12 -0.57
13 -0.77
14 -0.77
15 -0.7
16 -0.7
17 -0.57
18 -0.47
19 -0.99
2 1.51
20 -0.49
21 0.28
22 0.28
23 0.28
24 0.58
25 0.28
26 0.28
27 0.27
28 0.28
29 0.56
3 -0.56
30 0.28
31 0.69
32 -0.04
33 -0.14
34 0.62
4 -0.68
47 0.4
48 0.4
49 0.15
5 -0.68
50 0.36
51 0.36
52 0.4
53 0.4
54 0.37
55 0.15
56 0.5
57 0.5
6 -0.56
7 -0.55
8 -0.55
9 -0.68

> <PUBCHEM_EFFECTIVE_ROTOR_COUNT>
10.2

> <PUBCHEM_PHARMACOPHORE_FEATURES>
22
1 10 acceptor
1 10 donor
1 12 acceptor
1 13 acceptor
1 14 acceptor
1 15 acceptor
1 16 acceptor
1 17 acceptor
1 19 cation
1 19 donor
1 20 donor
1 3 acceptor
1 4 acceptor
1 4 donor
1 5 acceptor
1 5 donor
1 6 acceptor
1 9 acceptor
1 9 donor
5 3 21 22 23 24 rings
6 18 20 31 32 33 34 rings
6 6 26 27 28 29 30 rings

> <PUBCHEM_HEAVY_ATOM_COUNT>
34

> <PUBCHEM_ATOM_DEF_STEREO_COUNT>
8

> <PUBCHEM_ATOM_UDEF_STEREO_COUNT>
0

> <PUBCHEM_BOND_DEF_STEREO_COUNT>
0

> <PUBCHEM_BOND_UDEF_STEREO_COUNT>
0

> <PUBCHEM_ISOTOPIC_ATOM_COUNT>
0

> <PUBCHEM_COMPONENT_COUNT>
1

> <PUBCHEM_CACTVS_TAUTO_COUNT>
3

> <PUBCHEM_CONFORMER_ID>
010EF26100000001

> <PUBCHEM_MMFF94_ENERGY>
39.9159

> <PUBCHEM_FEATURE_SELFOVERLAP>
111.678

> <PUBCHEM_SHAPE_FINGERPRINT>
10369192 42 16052900969074200740
11513181 2 16735519856501440783
12156800 1 7697966976678029939
12422481 6 17689707988994883473
12539773 59 17968959525265094831
12553582 1 18200036277993578538
12788726 201 17898836951490743267
133893 2 18131347475676532374
13965767 371 17827646077532333634
14114206 34 17898563177475225717
14840074 17 18270673273149071904
15276724 80 18269285715883835322
19311894 1 17910654494387946012
20739085 24 18272649052436510032
21860390 5 18057019510169975768
238 59 17485662458983214548
3380486 145 17907878532380701872
3493558 16 18267868475038254133
35225 105 17119124804492470030
4409770 3 15815641159751337467
469060 322 18126594394542529530
50150288 127 15817835153911415689
513202 73 17552356996622105410
5951187 136 15359941758022103793

> <PUBCHEM_SHAPE_MULTIPOLES>
604.42
7.45
5.29
3.31
0.15
2.17
0.49
-1.34
0.26
-3.61
-0.67
1.87
-1.93
-4.71

> <PUBCHEM_SHAPE_SELFOVERLAP>
1232.51

> <PUBCHEM_SHAPE_VOLUME>
351

> <PUBCHEM_COORDINATE_TYPE>
2
5
10

$$$$

