3031829
  -OEChem-07051213093D

 23 22  0     1  0  0  0  0  0999 V2000
    1.7849   -1.9868   -1.0186 O   0  0  0  0  0  0  0  0  0  0  0  0
    1.5703   -1.6898    1.2194 O   0  0  0  0  0  0  0  0  0  0  0  0
   -2.9191    0.6363    0.9966 O   0  0  0  0  0  0  0  0  0  0  0  0
   -2.6925    0.2296   -1.2285 O   0  0  0  0  0  0  0  0  0  0  0  0
    0.1376   -0.4052   -0.2487 C   0  0  2  0  0  0  0  0  0  0  0  0
    0.4985    1.0104    0.2330 C   0  0  0  0  0  0  0  0  0  0  0  0
    1.7945    1.5328   -0.3946 C   0  0  0  0  0  0  0  0  0  0  0  0
   -1.2060   -0.8798    0.3205 C   0  0  0  0  0  0  0  0  0  0  0  0
    1.2276   -1.4128    0.0760 C   0  0  0  0  0  0  0  0  0  0  0  0
    2.1380    2.9229    0.1183 C   0  0  0  0  0  0  0  0  0  0  0  0
   -2.3336    0.0425   -0.0734 C   0  0  0  0  0  0  0  0  0  0  0  0
    0.0435   -0.3661   -1.3430 H   0  0  0  0  0  0  0  0  0  0  0  0
   -0.3089    1.7115   -0.0083 H   0  0  0  0  0  0  0  0  0  0  0  0
    0.6042    1.0090    1.3256 H   0  0  0  0  0  0  0  0  0  0  0  0
    2.6303    0.8625   -0.1660 H   0  0  0  0  0  0  0  0  0  0  0  0
    1.6916    1.5648   -1.4854 H   0  0  0  0  0  0  0  0  0  0  0  0
   -1.4536   -1.8872   -0.0344 H   0  0  0  0  0  0  0  0  0  0  0  0
   -1.1548   -0.9448    1.4145 H   0  0  0  0  0  0  0  0  0  0  0  0
    3.0642    3.2790   -0.3435 H   0  0  0  0  0  0  0  0  0  0  0  0
    1.3433    3.6368   -0.1205 H   0  0  0  0  0  0  0  0  0  0  0  0
    2.2802    2.9166    1.2037 H   0  0  0  0  0  0  0  0  0  0  0  0
    2.4821   -2.6335   -0.7780 H   0  0  0  0  0  0  0  0  0  0  0  0
   -3.6531    1.2299    0.7295 H   0  0  0  0  0  0  0  0  0  0  0  0
  1  9  1  0  0  0  0
  1 22  1  0  0  0  0
  2  9  2  0  0  0  0
  3 11  1  0  0  0  0
  3 23  1  0  0  0  0
  4 11  2  0  0  0  0
  5  6  1  0  0  0  0
  5  8  1  0  0  0  0
  5  9  1  0  0  0  0
  5 12  1  0  0  0  0
  6  7  1  0  0  0  0
  6 13  1  0  0  0  0
  6 14  1  0  0  0  0
  7 10  1  0  0  0  0
  7 15  1  0  0  0  0
  7 16  1  0  0  0  0
  8 11  1  0  0  0  0
  8 17  1  0  0  0  0
  8 18  1  0  0  0  0
 10 19  1  0  0  0  0
 10 20  1  0  0  0  0
 10 21  1  0  0  0  0
M  END
> <PUBCHEM_COMPOUND_CID>
3031829

> <PUBCHEM_CONFORMER_RMSD>
0.6

> <PUBCHEM_CONFORMER_DIVERSEORDER>
1
27
30
44
19
42
22
37
14
38
39
31
2
43
15
36
18
20
24
26
32
8
34
5
3
9
25
21
13
33
12
35
6
28
4
7
41
11
16
10
29
23
40
17

> <PUBCHEM_MMFF94_PARTIAL_CHARGES>
10
1 -0.65
11 0.66
2 -0.57
22 0.5
23 0.5
3 -0.65
4 -0.57
5 0.06
8 0.06
9 0.66

> <PUBCHEM_EFFECTIVE_ROTOR_COUNT>
5

> <PUBCHEM_PHARMACOPHORE_FEATURES>
8
1 1 acceptor
1 10 hydrophobe
1 2 acceptor
1 3 acceptor
1 4 acceptor
3 1 2 9 anion
3 3 4 11 anion
4 5 6 7 8 hydrophobe

> <PUBCHEM_HEAVY_ATOM_COUNT>
11

> <PUBCHEM_ATOM_DEF_STEREO_COUNT>
0

> <PUBCHEM_ATOM_UDEF_STEREO_COUNT>
0

> <PUBCHEM_BOND_DEF_STEREO_COUNT>
0

> <PUBCHEM_BOND_UDEF_STEREO_COUNT>
0

> <PUBCHEM_ISOTOPIC_ATOM_COUNT>
0

> <PUBCHEM_COMPONENT_COUNT>
1

> <PUBCHEM_CACTVS_TAUTO_COUNT>
1

> <PUBCHEM_CONFORMER_ID>
002E431500000001

> <PUBCHEM_MMFF94_ENERGY>
9.7485

> <PUBCHEM_FEATURE_SELFOVERLAP>
40.712

> <PUBCHEM_SHAPE_FINGERPRINT>
1 1 18339644421624961652
12932764 1 17917705846897925403
19021347 4 18052535465692149642
20653091 64 18411139151477023443
20711985 327 18266472077368013570
20711985 344 17402049397195809758
20871998 184 17113242348859660900
21028194 46 18054790585315425708
21040471 1 17979914904621430596
21524375 3 18051417270941071368
23211744 41 18056477253300323552
23552423 10 18335140903691744343
2748010 2 18123740959730440732
305870 269 18270127781758135080
81228 2 17402898220256621696

> <PUBCHEM_SHAPE_MULTIPOLES>
202.9
3.85
2.56
0.99
1.68
0.33
-0.02
-2.6
-0.11
-2.44
0.08
0.23
0.2
0.01

> <PUBCHEM_SHAPE_SELFOVERLAP>
383.519

> <PUBCHEM_SHAPE_VOLUME>
125.4

> <PUBCHEM_COORDINATE_TYPE>
2
5
10

$$$$

