91613
  -OEChem-07051213113D

 20 20  0     0  0  0  0  0  0999 V2000
   -0.6926   -0.7703    0.3046 N   0  0  0  0  0  0  0  0  0  0  0  0
   -1.8527    1.0331   -0.2730 N   0  0  0  0  0  0  0  0  0  0  0  0
    3.8621   -0.4014   -0.1959 N   0  0  0  0  0  0  0  0  0  0  0  0
    1.6124    0.0952    0.6787 C   0  0  0  0  0  0  0  0  0  0  0  0
    0.1585    0.2728    0.3166 C   0  0  0  0  0  0  0  0  0  0  0  0
    2.4617   -0.2092   -0.5570 C   0  0  0  0  0  0  0  0  0  0  0  0
   -1.9084   -0.2629   -0.0603 C   0  0  0  0  0  0  0  0  0  0  0  0
   -0.5439    1.3704   -0.0346 C   0  0  0  0  0  0  0  0  0  0  0  0
   -3.0971   -1.1277   -0.1791 C   0  0  0  0  0  0  0  0  0  0  0  0
    1.9707    1.0111    1.1659 H   0  0  0  0  0  0  0  0  0  0  0  0
    1.7080   -0.7133    1.4150 H   0  0  0  0  0  0  0  0  0  0  0  0
    2.3894    0.6092   -1.2823 H   0  0  0  0  0  0  0  0  0  0  0  0
    2.0980   -1.1130   -1.0593 H   0  0  0  0  0  0  0  0  0  0  0  0
   -0.4837   -1.7369    0.5196 H   0  0  0  0  0  0  0  0  0  0  0  0
   -0.2011    2.3898   -0.1345 H   0  0  0  0  0  0  0  0  0  0  0  0
   -3.9719   -0.5434   -0.4810 H   0  0  0  0  0  0  0  0  0  0  0  0
   -2.9357   -1.9077   -0.9298 H   0  0  0  0  0  0  0  0  0  0  0  0
   -3.3246   -1.6078    0.7778 H   0  0  0  0  0  0  0  0  0  0  0  0
    3.9387   -1.1595    0.4814 H   0  0  0  0  0  0  0  0  0  0  0  0
    4.2094    0.4317    0.2779 H   0  0  0  0  0  0  0  0  0  0  0  0
  1  5  1  0  0  0  0
  1  7  1  0  0  0  0
  1 14  1  0  0  0  0
  2  7  2  0  0  0  0
  2  8  1  0  0  0  0
  3  6  1  0  0  0  0
  3 19  1  0  0  0  0
  3 20  1  0  0  0  0
  4  5  1  0  0  0  0
  4  6  1  0  0  0  0
  4 10  1  0  0  0  0
  4 11  1  0  0  0  0
  5  8  2  0  0  0  0
  6 12  1  0  0  0  0
  6 13  1  0  0  0  0
  7  9  1  0  0  0  0
  8 15  1  0  0  0  0
  9 16  1  0  0  0  0
  9 17  1  0  0  0  0
  9 18  1  0  0  0  0
M  END
> <PUBCHEM_COMPOUND_CID>
91613

> <PUBCHEM_CONFORMER_RMSD>
0.4

> <PUBCHEM_CONFORMER_DIVERSEORDER>
2
4
11
6
12
1
9
10
5
7
3
8

> <PUBCHEM_MMFF94_PARTIAL_CHARGES>
13
1 0.03
14 0.27
15 0.15
19 0.36
2 -0.57
20 0.36
3 -0.99
4 0.18
5 -0.33
6 0.27
7 0.01
8 0.08
9 0.18

> <PUBCHEM_EFFECTIVE_ROTOR_COUNT>
2

> <PUBCHEM_PHARMACOPHORE_FEATURES>
5
1 1 donor
1 3 cation
1 3 donor
3 1 2 7 cation
5 1 2 5 7 8 rings

> <PUBCHEM_HEAVY_ATOM_COUNT>
9

> <PUBCHEM_ATOM_DEF_STEREO_COUNT>
0

> <PUBCHEM_ATOM_UDEF_STEREO_COUNT>
0

> <PUBCHEM_BOND_DEF_STEREO_COUNT>
0

> <PUBCHEM_BOND_UDEF_STEREO_COUNT>
0

> <PUBCHEM_ISOTOPIC_ATOM_COUNT>
0

> <PUBCHEM_COMPONENT_COUNT>
1

> <PUBCHEM_CACTVS_TAUTO_COUNT>
2

> <PUBCHEM_CONFORMER_ID>
000165DD00000002

> <PUBCHEM_MMFF94_ENERGY>
0.2729

> <PUBCHEM_FEATURE_SELFOVERLAP>
25.371

> <PUBCHEM_SHAPE_FINGERPRINT>
12897270 3 18343022194285976406
12932764 1 18059861700599369144
14128692 85 18341048497910295509
14325111 11 18412262874135912650
20653085 51 14691469397650862079
21040471 1 17980214289596045329
21293036 1 17703791379498589063
23552423 10 17843974864338797459
29004967 10 16877662370276698112
369184 2 6483348898292776956

> <PUBCHEM_SHAPE_MULTIPOLES>
170.27
5
1.16
0.72
2.86
0.23
0.02
-1.88
-0.74
-0.66
-0.06
0.16
0
0.11

> <PUBCHEM_SHAPE_SELFOVERLAP>
340.829

> <PUBCHEM_SHAPE_VOLUME>
101.1

> <PUBCHEM_COORDINATE_TYPE>
2
5
10

$$$$

