5282023
  -OEChem-07051213023D

 89 92  0     1  0  0  0  0  0999 V2000
   -3.3384    1.2714   -0.0527 O   0  0  0  0  0  0  0  0  0  0  0  0
   -2.9912   -0.5188    1.5075 O   0  0  0  0  0  0  0  0  0  0  0  0
    0.8350    0.9789    0.9516 O   0  0  0  0  0  0  0  0  0  0  0  0
    3.5864    1.0203   -1.4687 O   0  0  0  0  0  0  0  0  0  0  0  0
    0.9549    2.5883   -0.6950 O   0  0  0  0  0  0  0  0  0  0  0  0
   -0.3381   -5.3050   -1.8736 O   0  0  0  0  0  0  0  0  0  0  0  0
    6.7611    2.9734   -0.6742 O   0  0  0  0  0  0  0  0  0  0  0  0
   -2.9388    0.9003    1.2812 C   0  0  1  0  0  0  0  0  0  0  0  0
   -1.4988    1.4064    1.4826 C   0  0  0  0  0  0  0  0  0  0  0  0
   -4.7449    1.1293   -0.2878 C   0  0  1  0  0  0  0  0  0  0  0  0
   -0.5182    0.6356    0.5997 C   0  0  2  0  0  0  0  0  0  0  0  0
   -2.1404   -1.2836    0.6423 C   0  0  1  0  0  0  0  0  0  0  0  0
   -0.6845   -0.8609    0.8350 C   0  0  0  0  0  0  0  0  0  0  0  0
   -5.5038    2.1647    0.5682 C   0  0  2  0  0  0  0  0  0  0  0  0
   -4.9662    1.3308   -1.7830 C   0  0  1  0  0  0  0  0  0  0  0  0
   -3.8383    1.5428    2.3098 C   0  0  0  0  0  0  0  0  0  0  0  0
   -4.9940    2.1374    1.9854 C   0  0  0  0  0  0  0  0  0  0  0  0
   -2.3571   -2.7683    0.9775 C   0  0  0  0  0  0  0  0  0  0  0  0
   -4.5186    2.7457   -2.1968 C   0  0  0  0  0  0  0  0  0  0  0  0
   -7.0136    1.9218    0.5420 C   0  0  0  0  0  0  0  0  0  0  0  0
   -4.2359    0.2398   -2.5710 C   0  0  0  0  0  0  0  0  0  0  0  0
    2.9224    2.0350    0.6493 C   0  0  2  0  0  0  0  0  0  0  0  0
    3.8077    0.9603   -0.0455 C   0  0  2  0  0  0  0  0  0  0  0  0
    1.4622    1.9370    0.2089 C   0  0  0  0  0  0  0  0  0  0  0  0
   -1.5461   -3.6800    0.0957 C   0  0  0  0  0  0  0  0  0  0  0  0
    5.2945    1.2872    0.1823 C   0  0  0  0  0  0  0  0  0  0  0  0
   -4.7633    3.0617   -3.6655 C   0  0  0  0  0  0  0  0  0  0  0  0
    3.4022    3.4420    0.3917 C   0  0  0  0  0  0  0  0  0  0  0  0
    3.5051   -0.4816    0.4345 C   0  0  0  0  0  0  0  0  0  0  0  0
   -0.5946   -4.5641    0.4629 C   0  0  0  0  0  0  0  0  0  0  0  0
    4.6257    3.7766   -0.0446 C   0  0  0  0  0  0  0  0  0  0  0  0
    5.6421    2.7024   -0.2395 C   0  0  0  0  0  0  0  0  0  0  0  0
    0.2018   -5.3875   -0.5534 C   0  0  2  0  0  0  0  0  0  0  0  0
    1.7251   -5.0788   -0.5540 C   0  0  2  0  0  0  0  0  0  0  0  0
    2.9533   -1.4130   -0.3765 C   0  0  0  0  0  0  0  0  0  0  0  0
    3.8725   -0.7900    1.8711 C   0  0  0  0  0  0  0  0  0  0  0  0
   -0.2316   -4.8365    1.9016 C   0  0  0  0  0  0  0  0  0  0  0  0
    5.0453    5.1870   -0.3158 C   0  0  0  0  0  0  0  0  0  0  0  0
    2.0255   -3.6315   -0.8857 C   0  0  0  0  0  0  0  0  0  0  0  0
    2.6654   -2.7970   -0.0501 C   0  0  0  0  0  0  0  0  0  0  0  0
    2.4684   -5.9795   -1.5476 C   0  0  0  0  0  0  0  0  0  0  0  0
   -1.1887    1.2872    2.5300 H   0  0  0  0  0  0  0  0  0  0  0  0
   -1.4217    2.4772    1.2539 H   0  0  0  0  0  0  0  0  0  0  0  0
   -5.0508    0.1096   -0.0144 H   0  0  0  0  0  0  0  0  0  0  0  0
   -0.7056    0.8487   -0.4603 H   0  0  0  0  0  0  0  0  0  0  0  0
   -2.4472   -1.1090   -0.3965 H   0  0  0  0  0  0  0  0  0  0  0  0
   -0.3494   -1.1043    1.8523 H   0  0  0  0  0  0  0  0  0  0  0  0
   -0.0233   -1.4042    0.1536 H   0  0  0  0  0  0  0  0  0  0  0  0
   -5.3135    3.1922    0.2491 H   0  0  0  0  0  0  0  0  0  0  0  0
   -6.0344    1.2238   -2.0066 H   0  0  0  0  0  0  0  0  0  0  0  0
   -3.5300    1.5233    3.3517 H   0  0  0  0  0  0  0  0  0  0  0  0
   -5.5811    2.6162    2.7638 H   0  0  0  0  0  0  0  0  0  0  0  0
   -3.4192   -3.0110    0.8434 H   0  0  0  0  0  0  0  0  0  0  0  0
   -2.1632   -2.9218    2.0430 H   0  0  0  0  0  0  0  0  0  0  0  0
   -3.4546    2.8987   -1.9817 H   0  0  0  0  0  0  0  0  0  0  0  0
   -5.0715    3.5117   -1.6492 H   0  0  0  0  0  0  0  0  0  0  0  0
   -7.5355    2.6136    1.2133 H   0  0  0  0  0  0  0  0  0  0  0  0
   -7.4248    2.0767   -0.4600 H   0  0  0  0  0  0  0  0  0  0  0  0
   -7.2605    0.9023    0.8587 H   0  0  0  0  0  0  0  0  0  0  0  0
   -3.1484    0.3555   -2.5131 H   0  0  0  0  0  0  0  0  0  0  0  0
   -4.5189    0.2624   -3.6282 H   0  0  0  0  0  0  0  0  0  0  0  0
   -4.4931   -0.7553   -2.1918 H   0  0  0  0  0  0  0  0  0  0  0  0
    2.9385    1.9231    1.7407 H   0  0  0  0  0  0  0  0  0  0  0  0
   -1.7586   -3.5569   -0.9648 H   0  0  0  0  0  0  0  0  0  0  0  0
    5.9237    0.6095   -0.4089 H   0  0  0  0  0  0  0  0  0  0  0  0
    5.5836    1.1924    1.2352 H   0  0  0  0  0  0  0  0  0  0  0  0
   -4.5262    4.1111   -3.8694 H   0  0  0  0  0  0  0  0  0  0  0  0
   -5.8106    2.8929   -3.9352 H   0  0  0  0  0  0  0  0  0  0  0  0
   -4.1328    2.4507   -4.3180 H   0  0  0  0  0  0  0  0  0  0  0  0
    2.6901    4.2421    0.5878 H   0  0  0  0  0  0  0  0  0  0  0  0
    0.0719   -6.4387   -0.2604 H   0  0  0  0  0  0  0  0  0  0  0  0
    4.2704    0.4872   -1.9093 H   0  0  0  0  0  0  0  0  0  0  0  0
    2.1203   -5.3105    0.4441 H   0  0  0  0  0  0  0  0  0  0  0  0
    2.6783   -1.1378   -1.3923 H   0  0  0  0  0  0  0  0  0  0  0  0
    4.9204   -1.1006    1.9328 H   0  0  0  0  0  0  0  0  0  0  0  0
    3.2505   -1.5755    2.3091 H   0  0  0  0  0  0  0  0  0  0  0  0
    3.7396    0.0803    2.5191 H   0  0  0  0  0  0  0  0  0  0  0  0
   -0.0674   -5.9086    2.0568 H   0  0  0  0  0  0  0  0  0  0  0  0
   -1.0133   -4.5471    2.6072 H   0  0  0  0  0  0  0  0  0  0  0  0
    0.6864   -4.3055    2.1714 H   0  0  0  0  0  0  0  0  0  0  0  0
    4.2382    5.9002   -0.1176 H   0  0  0  0  0  0  0  0  0  0  0  0
    5.3402    5.3027   -1.3638 H   0  0  0  0  0  0  0  0  0  0  0  0
    5.8946    5.4627    0.3179 H   0  0  0  0  0  0  0  0  0  0  0  0
    1.6930   -3.2730   -1.8579 H   0  0  0  0  0  0  0  0  0  0  0  0
    2.9905   -3.1775    0.9124 H   0  0  0  0  0  0  0  0  0  0  0  0
    2.2493   -7.0350   -1.3539 H   0  0  0  0  0  0  0  0  0  0  0  0
    2.2005   -5.7601   -2.5870 H   0  0  0  0  0  0  0  0  0  0  0  0
    3.5523   -5.8448   -1.4538 H   0  0  0  0  0  0  0  0  0  0  0  0
   -0.0200   -6.0746   -2.3750 H   0  0  0  0  0  0  0  0  0  0  0  0
  1  8  1  0  0  0  0
  1 10  1  0  0  0  0
  2  8  1  0  0  0  0
  2 12  1  0  0  0  0
  3 11  1  0  0  0  0
  3 24  1  0  0  0  0
  4 23  1  0  0  0  0
  4 72  1  0  0  0  0
  5 24  2  0  0  0  0
  6 33  1  0  0  0  0
  6 89  1  0  0  0  0
  7 32  2  0  0  0  0
  8  9  1  0  0  0  0
  8 16  1  0  0  0  0
  9 11  1  0  0  0  0
  9 42  1  0  0  0  0
  9 43  1  0  0  0  0
 10 14  1  0  0  0  0
 10 15  1  0  0  0  0
 10 44  1  0  0  0  0
 11 13  1  0  0  0  0
 11 45  1  0  0  0  0
 12 13  1  0  0  0  0
 12 18  1  0  0  0  0
 12 46  1  0  0  0  0
 13 47  1  0  0  0  0
 13 48  1  0  0  0  0
 14 17  1  0  0  0  0
 14 20  1  0  0  0  0
 14 49  1  0  0  0  0
 15 19  1  0  0  0  0
 15 21  1  0  0  0  0
 15 50  1  0  0  0  0
 16 17  2  0  0  0  0
 16 51  1  0  0  0  0
 17 52  1  0  0  0  0
 18 25  1  0  0  0  0
 18 53  1  0  0  0  0
 18 54  1  0  0  0  0
 19 27  1  0  0  0  0
 19 55  1  0  0  0  0
 19 56  1  0  0  0  0
 20 57  1  0  0  0  0
 20 58  1  0  0  0  0
 20 59  1  0  0  0  0
 21 60  1  0  0  0  0
 21 61  1  0  0  0  0
 21 62  1  0  0  0  0
 22 23  1  0  0  0  0
 22 24  1  0  0  0  0
 22 28  1  0  0  0  0
 22 63  1  0  0  0  0
 23 26  1  0  0  0  0
 23 29  1  0  0  0  0
 25 30  2  0  0  0  0
 25 64  1  0  0  0  0
 26 32  1  0  0  0  0
 26 65  1  0  0  0  0
 26 66  1  0  0  0  0
 27 67  1  0  0  0  0
 27 68  1  0  0  0  0
 27 69  1  0  0  0  0
 28 31  2  0  0  0  0
 28 70  1  0  0  0  0
 29 35  2  0  0  0  0
 29 36  1  0  0  0  0
 30 33  1  0  0  0  0
 30 37  1  0  0  0  0
 31 32  1  0  0  0  0
 31 38  1  0  0  0  0
 33 34  1  0  0  0  0
 33 71  1  0  0  0  0
 34 39  1  0  0  0  0
 34 41  1  0  0  0  0
 34 73  1  0  0  0  0
 35 40  1  0  0  0  0
 35 74  1  0  0  0  0
 36 75  1  0  0  0  0
 36 76  1  0  0  0  0
 36 77  1  0  0  0  0
 37 78  1  0  0  0  0
 37 79  1  0  0  0  0
 37 80  1  0  0  0  0
 38 81  1  0  0  0  0
 38 82  1  0  0  0  0
 38 83  1  0  0  0  0
 39 40  2  0  0  0  0
 39 84  1  0  0  0  0
 40 85  1  0  0  0  0
 41 86  1  0  0  0  0
 41 87  1  0  0  0  0
 41 88  1  0  0  0  0
M  END
> <PUBCHEM_COMPOUND_CID>
5282023

> <PUBCHEM_CONFORMER_RMSD>
0.8

> <PUBCHEM_CONFORMER_DIVERSEORDER>
1
2

> <PUBCHEM_MMFF94_PARTIAL_CHARGES>
42
1 -0.56
10 0.28
11 0.28
12 0.28
14 0.14
16 -0.29
17 -0.29
18 0.14
2 -0.56
22 0.2
23 0.42
24 0.66
25 -0.29
26 0.06
28 -0.29
29 -0.28
3 -0.43
30 -0.28
31 -0.12
32 0.49
33 0.42
34 0.14
35 -0.15
36 0.14
37 0.14
38 0.14
39 -0.29
4 -0.68
40 -0.15
5 -0.57
51 0.15
52 0.15
6 -0.68
64 0.15
7 -0.57
70 0.15
72 0.4
74 0.15
8 0.7
84 0.15
85 0.15
89 0.4

> <PUBCHEM_EFFECTIVE_ROTOR_COUNT>
4.2

> <PUBCHEM_PHARMACOPHORE_FEATURES>
13
1 1 acceptor
1 2 acceptor
1 21 hydrophobe
1 27 hydrophobe
1 4 acceptor
1 4 donor
1 5 acceptor
1 6 acceptor
1 6 donor
1 7 acceptor
6 1 8 10 14 16 17 rings
6 2 8 9 11 12 13 rings
6 22 23 26 28 31 32 rings

> <PUBCHEM_HEAVY_ATOM_COUNT>
41

> <PUBCHEM_ATOM_DEF_STEREO_COUNT>
9

> <PUBCHEM_ATOM_UDEF_STEREO_COUNT>
1

> <PUBCHEM_BOND_DEF_STEREO_COUNT>
3

> <PUBCHEM_BOND_UDEF_STEREO_COUNT>
0

> <PUBCHEM_ISOTOPIC_ATOM_COUNT>
0

> <PUBCHEM_COMPONENT_COUNT>
1

> <PUBCHEM_CACTVS_TAUTO_COUNT>
7

> <PUBCHEM_CONFORMER_ID>
005098E700000001

> <PUBCHEM_MMFF94_ENERGY>
84.4652

> <PUBCHEM_FEATURE_SELFOVERLAP>
66.003

> <PUBCHEM_SHAPE_FINGERPRINT>
10290309 65 18263626399367335594
10675989 125 18337665446476232201
11062273 29 18052822743280479957
11093857 51 18261971737795219234
11135609 187 18408887343569438289
11135926 11 18409440419345495088
11285246 1 17757304512297706439
11434127 23 17753035112689324852
12106331 60 17405712481046089320
12788726 201 18048325444191557451
14040222 75 17412489174212798688
14117953 113 18337390573586850522
14415360 78 18411410731165731870
15274700 147 16331301539222468772
15400415 2 18335973173543286416
15439362 3 18265889332190030017
16993438 75 18050845524963388554
21033648 144 18272373040315750261
23559900 14 18265042708046894282
25019877 29 18339349757531464653
3882209 13 17119187945023642330
4403749 210 18121220883997661616
504843 32 18267019453917452732
5309563 4 17544747284671504522
6036956 94 17908136577588067284
6669772 16 18409725192709330967
6898599 12 18123745353440351564

> <PUBCHEM_SHAPE_MULTIPOLES>
802.68
13.66
8.94
2.23
6.01
12.88
-1.23
-20.17
-2.49
-10.3
-3.02
3.99
-0.57
1.62

> <PUBCHEM_SHAPE_SELFOVERLAP>
1669.29

> <PUBCHEM_SHAPE_VOLUME>
450.8

> <PUBCHEM_COORDINATE_TYPE>
2
5
10

$$$$

