160139
  -OEChem-07051212512D

 43 44  0     1  0  0  0  0  0999 V2000
    3.7320   -0.7934    0.0000 S   0  0  0  0  0  0  0  0  0  0  0  0
    6.3120    1.4193    0.0000 O   0  0  0  0  0  0  0  0  0  0  0  0
    7.5393    0.2162    0.0000 O   0  0  0  0  0  0  0  0  0  0  0  0
    2.8660    2.7066    0.0000 O   0  0  0  0  0  0  0  0  0  0  0  0
    4.5981    2.7066    0.0000 O   0  0  0  0  0  0  0  0  0  0  0  0
   12.2948   -2.1044    0.0000 O   0  0  0  0  0  0  0  0  0  0  0  0
   11.0675   -3.3266    0.0000 O   0  0  0  0  0  0  0  0  0  0  0  0
    4.5981    0.7066    0.0000 N   0  0  0  0  0  0  0  0  0  0  0  0
    6.3120   -1.0061    0.0000 N   0  0  0  0  0  0  0  0  0  0  0  0
   10.8835   -0.6873    0.0000 N   0  0  0  0  0  0  0  0  0  0  0  0
    4.5981   -0.2934    0.0000 C   0  0  1  0  0  0  0  0  0  0  0  0
    5.6064   -0.2975    0.0000 C   0  0  1  0  0  0  0  0  0  0  0  0
    5.6064    0.7108    0.0000 C   0  0  0  0  0  0  0  0  0  0  0  0
    3.7320    1.2066    0.0000 C   0  0  0  0  0  0  0  0  0  0  0  0
    2.8660   -0.2934    0.0000 C   0  0  0  0  0  0  0  0  0  0  0  0
    2.8660    0.7066    0.0000 C   0  0  0  0  0  0  0  0  0  0  0  0
    7.2785   -0.7492    0.0000 C   0  0  0  0  0  0  0  0  0  0  0  0
    7.9841   -1.4578    0.0000 C   0  0  0  0  0  0  0  0  0  0  0  0
    2.0000    1.2066    0.0000 C   0  0  0  0  0  0  0  0  0  0  0  0
    8.9506   -1.2010    0.0000 C   0  0  0  0  0  0  0  0  0  0  0  0
    3.7320    2.2066    0.0000 C   0  0  0  0  0  0  0  0  0  0  0  0
    9.6562   -1.9095    0.0000 C   0  0  0  0  0  0  0  0  0  0  0  0
   10.6227   -1.6527    0.0000 C   0  0  2  0  0  0  0  0  0  0  0  0
   11.3283   -2.3612    0.0000 C   0  0  0  0  0  0  0  0  0  0  0  0
    4.8164   -1.1148    0.0000 H   0  0  0  0  0  0  0  0  0  0  0  0
    5.3673   -0.8696    0.0000 H   0  0  0  0  0  0  0  0  0  0  0  0
    6.1503   -1.6046    0.0000 H   0  0  0  0  0  0  0  0  0  0  0  0
    2.2554   -0.1857    0.0000 H   0  0  0  0  0  0  0  0  0  0  0  0
    2.6540   -0.8760    0.0000 H   0  0  0  0  0  0  0  0  0  0  0  0
    7.4755   -1.8124    0.0000 H   0  0  0  0  0  0  0  0  0  0  0  0
    8.2450   -2.0202    0.0000 H   0  0  0  0  0  0  0  0  0  0  0  0
    9.4592   -0.8464    0.0000 H   0  0  0  0  0  0  0  0  0  0  0  0
    8.6897   -0.6385    0.0000 H   0  0  0  0  0  0  0  0  0  0  0  0
    2.3100    1.7436    0.0000 H   0  0  0  0  0  0  0  0  0  0  0  0
    1.4631    1.5166    0.0000 H   0  0  0  0  0  0  0  0  0  0  0  0
    1.6900    0.6697    0.0000 H   0  0  0  0  0  0  0  0  0  0  0  0
    9.1476   -2.2641    0.0000 H   0  0  0  0  0  0  0  0  0  0  0  0
    9.9171   -2.4720    0.0000 H   0  0  0  0  0  0  0  0  0  0  0  0
   11.2219   -1.4934    0.0000 H   0  0  0  0  0  0  0  0  0  0  0  0
    2.8660    3.3266    0.0000 H   0  0  0  0  0  0  0  0  0  0  0  0
   11.4827   -0.5281    0.0000 H   0  0  0  0  0  0  0  0  0  0  0  0
   10.4460   -0.2480    0.0000 H   0  0  0  0  0  0  0  0  0  0  0  0
   12.7323   -2.5437    0.0000 H   0  0  0  0  0  0  0  0  0  0  0  0
  1 11  1  0  0  0  0
  1 15  1  0  0  0  0
  2 13  2  0  0  0  0
  3 17  2  0  0  0  0
  4 21  1  0  0  0  0
  4 40  1  0  0  0  0
  5 21  2  0  0  0  0
  6 24  1  0  0  0  0
  6 43  1  0  0  0  0
  7 24  2  0  0  0  0
  8 11  1  0  0  0  0
  8 13  1  0  0  0  0
  8 14  1  0  0  0  0
 12  9  1  1  0  0  0
  9 17  1  0  0  0  0
  9 27  1  0  0  0  0
 23 10  1  1  0  0  0
 10 41  1  0  0  0  0
 10 42  1  0  0  0  0
 11 12  1  0  0  0  0
 11 25  1  6  0  0  0
 12 13  1  0  0  0  0
 12 26  1  0  0  0  0
 14 16  2  0  0  0  0
 14 21  1  0  0  0  0
 15 16  1  0  0  0  0
 15 28  1  0  0  0  0
 15 29  1  0  0  0  0
 16 19  1  0  0  0  0
 17 18  1  0  0  0  0
 18 20  1  0  0  0  0
 18 30  1  0  0  0  0
 18 31  1  0  0  0  0
 19 34  1  0  0  0  0
 19 35  1  0  0  0  0
 19 36  1  0  0  0  0
 20 22  1  0  0  0  0
 20 32  1  0  0  0  0
 20 33  1  0  0  0  0
 22 23  1  0  0  0  0
 22 37  1  0  0  0  0
 22 38  1  0  0  0  0
 23 24  1  0  0  0  0
 23 39  1  0  0  0  0
M  END
> <PUBCHEM_COMPOUND_CID>
160139

> <PUBCHEM_COMPOUND_CANONICALIZED>
1

> <PUBCHEM_CACTVS_COMPLEXITY>
620

> <PUBCHEM_CACTVS_HBOND_ACCEPTOR>
8

> <PUBCHEM_CACTVS_HBOND_DONOR>
4

> <PUBCHEM_CACTVS_ROTATABLE_BOND>
7

> <PUBCHEM_CACTVS_SUBSKEYS>
AAADceBzOABAAAAAAAAAAAAAAABYAAAAAAAgAAAAAAAQAAAAAAAAHgQQCAAADCjFwASCCAPAAgiIAgXQWAAAAABAABAACIGIAEACRBoggCAUUAAEFgCwEQGYSQAQAAAAAAAAAAAAAAAAAAAAAAAAAAAAAA==

> <PUBCHEM_IUPAC_OPENEYE_NAME>
(6R,7R)-7-[[(5R)-5-amino-5-carboxy-pentanoyl]amino]-3-methyl-8-oxo-5-thia-1-azabicyclo[4.2.0]oct-2-ene-2-carboxylic acid

> <PUBCHEM_IUPAC_CAS_NAME>
(6R,7R)-7-[[(5R)-5-amino-5-carboxy-1-oxopentyl]amino]-3-methyl-8-oxo-5-thia-1-azabicyclo[4.2.0]oct-2-ene-2-carboxylic acid

> <PUBCHEM_IUPAC_NAME>
(6R,7R)-7-[[(5R)-5-amino-5-carboxypentanoyl]amino]-3-methyl-8-oxo-5-thia-1-azabicyclo[4.2.0]oct-2-ene-2-carboxylic acid

> <PUBCHEM_IUPAC_SYSTEMATIC_NAME>
(6R,7R)-7-[[(5R)-5-azanyl-6-oxidanyl-6-oxidanylidene-hexanoyl]amino]-3-methyl-8-oxidanylidene-5-thia-1-azabicyclo[4.2.0]oct-2-ene-2-carboxylic acid

> <PUBCHEM_IUPAC_TRADITIONAL_NAME>
(6R,7R)-7-[[(5R)-5-amino-5-carboxy-pentanoyl]amino]-8-keto-3-methyl-5-thia-1-azabicyclo[4.2.0]oct-2-ene-2-carboxylic acid

> <PUBCHEM_IUPAC_INCHI>
InChI=1S/C14H19N3O6S/c1-6-5-24-12-9(11(19)17(12)10(6)14(22)23)16-8(18)4-2-3-7(15)13(20)21/h7,9,12H,2-5,15H2,1H3,(H,16,18)(H,20,21)(H,22,23)/t7-,9-,12-/m1/s1

> <PUBCHEM_IUPAC_INCHIKEY>
NNQIJOYQWYKBOW-JWKOBGCHSA-N

> <PUBCHEM_XLOGP3>
-0.8

> <PUBCHEM_EXACT_MASS>
357.099456

> <PUBCHEM_MOLECULAR_FORMULA>
C14H19N3O6S

> <PUBCHEM_MOLECULAR_WEIGHT>
357.38216

> <PUBCHEM_OPENEYE_CAN_SMILES>
CC1=C(N2C(C(C2=O)NC(=O)CCCC(C(=O)O)N)SC1)C(=O)O

> <PUBCHEM_OPENEYE_ISO_SMILES>
CC1=C(N2[C@@H]([C@@H](C2=O)NC(=O)CCC[C@H](C(=O)O)N)SC1)C(=O)O

> <PUBCHEM_CACTVS_TPSA>
175

> <PUBCHEM_MONOISOTOPIC_WEIGHT>
357.099456

> <PUBCHEM_TOTAL_CHARGE>
0

> <PUBCHEM_HEAVY_ATOM_COUNT>
24

> <PUBCHEM_ATOM_DEF_STEREO_COUNT>
3

> <PUBCHEM_ATOM_UDEF_STEREO_COUNT>
0

> <PUBCHEM_BOND_DEF_STEREO_COUNT>
0

> <PUBCHEM_BOND_UDEF_STEREO_COUNT>
0

> <PUBCHEM_ISOTOPIC_ATOM_COUNT>
0

> <PUBCHEM_COMPONENT_COUNT>
1

> <PUBCHEM_CACTVS_TAUTO_COUNT>
4

> <PUBCHEM_COORDINATE_TYPE>
1
5
255

> <PUBCHEM_BONDANNOTATIONS>
23  10  5
11  25  6
12  9  5

$$$$

