854160
  -OEChem-06241222472D

 53 56  0     1  0  0  0  0  0999 V2000
    6.5469   -1.8973    0.0000 O   0  0  0  0  0  0  0  0  0  0  0  0
    7.7820    2.3894    0.0000 O   0  0  0  0  0  0  0  0  0  0  0  0
    2.9755    1.1912    0.0000 O   0  0  0  0  0  0  0  0  0  0  0  0
    3.9271    1.6342    0.0000 O   0  0  0  0  0  0  0  0  0  0  0  0
    5.6591   -0.3658    0.0000 C   0  0  2  0  0  0  0  0  0  0  0  0
    4.7931    0.1342    0.0000 C   0  0  2  0  0  0  0  0  0  0  0  0
    3.8831   -0.3727    0.0000 C   0  0  1  0  0  0  0  0  0  0  0  0
    6.5251    0.1342    0.0000 C   0  0  1  0  0  0  0  0  0  0  0  0
    6.5251    1.1342    0.0000 C   0  0  1  0  0  0  0  0  0  0  0  0
    3.8751   -1.4143    0.0000 C   0  0  1  0  0  0  0  0  0  0  0  0
    5.6752   -1.4074    0.0000 C   0  0  2  0  0  0  0  0  0  0  0  0
    4.7771   -1.9351    0.0000 C   0  0  0  0  0  0  0  0  0  0  0  0
    7.4714   -0.1706    0.0000 C   0  0  0  0  0  0  0  0  0  0  0  0
    5.6591    1.6342    0.0000 C   0  0  0  0  0  0  0  0  0  0  0  0
    7.4714    1.4389    0.0000 C   0  0  2  0  0  0  0  0  0  0  0  0
    2.9562    0.1914    0.0000 C   0  0  2  0  0  0  0  0  0  0  0  0
    4.7931    1.1342    0.0000 C   0  0  0  0  0  0  0  0  0  0  0  0
    8.0550    0.6342    0.0000 C   0  0  0  0  0  0  0  0  0  0  0  0
    2.9396   -1.9640    0.0000 C   0  0  0  0  0  0  0  0  0  0  0  0
    3.8908    0.6273    0.0000 C   0  0  0  0  0  0  0  0  0  0  0  0
    6.5251    2.1342    0.0000 C   0  0  0  0  0  0  0  0  0  0  0  0
    2.0084   -0.3366    0.0000 C   0  0  0  0  0  0  0  0  0  0  0  0
    2.0000   -1.4215    0.0000 C   0  0  0  0  0  0  0  0  0  0  0  0
    6.3550   -0.7605    0.0000 H   0  0  0  0  0  0  0  0  0  0  0  0
    5.4859    0.5342    0.0000 H   0  0  0  0  0  0  0  0  0  0  0  0
    6.6098   -0.6614    0.0000 H   0  0  0  0  0  0  0  0  0  0  0  0
    3.8781   -2.2143    0.0000 H   0  0  0  0  0  0  0  0  0  0  0  0
    6.2079   -1.0901    0.0000 H   0  0  0  0  0  0  0  0  0  0  0  0
    4.3798   -2.4111    0.0000 H   0  0  0  0  0  0  0  0  0  0  0  0
    5.1781   -2.4080    0.0000 H   0  0  0  0  0  0  0  0  0  0  0  0
    7.2203   -0.7375    0.0000 H   0  0  0  0  0  0  0  0  0  0  0  0
    8.0087   -0.4798    0.0000 H   0  0  0  0  0  0  0  0  0  0  0  0
    5.2606    2.1091    0.0000 H   0  0  0  0  0  0  0  0  0  0  0  0
    6.0576    2.1091    0.0000 H   0  0  0  0  0  0  0  0  0  0  0  0
    8.0838    1.5351    0.0000 H   0  0  0  0  0  0  0  0  0  0  0  0
    3.4996    0.4899    0.0000 H   0  0  0  0  0  0  0  0  0  0  0  0
    8.5158    0.2194    0.0000 H   0  0  0  0  0  0  0  0  0  0  0  0
    8.5158    1.0489    0.0000 H   0  0  0  0  0  0  0  0  0  0  0  0
    3.3406   -2.4369    0.0000 H   0  0  0  0  0  0  0  0  0  0  0  0
    2.5423   -2.4400    0.0000 H   0  0  0  0  0  0  0  0  0  0  0  0
    3.2708    0.6321    0.0000 H   0  0  0  0  0  0  0  0  0  0  0  0
    3.8956    1.2473    0.0000 H   0  0  0  0  0  0  0  0  0  0  0  0
    4.5108    0.6225    0.0000 H   0  0  0  0  0  0  0  0  0  0  0  0
    5.9051    2.1342    0.0000 H   0  0  0  0  0  0  0  0  0  0  0  0
    7.1451    2.1342    0.0000 H   0  0  0  0  0  0  0  0  0  0  0  0
    6.5251    2.7542    0.0000 H   0  0  0  0  0  0  0  0  0  0  0  0
    1.8038    0.2487    0.0000 H   0  0  0  0  0  0  0  0  0  0  0  0
    1.3967   -0.4379    0.0000 H   0  0  0  0  0  0  0  0  0  0  0  0
    1.3900   -1.3107    0.0000 H   0  0  0  0  0  0  0  0  0  0  0  0
    1.7865   -2.0036    0.0000 H   0  0  0  0  0  0  0  0  0  0  0  0
    6.5541   -2.5173    0.0000 H   0  0  0  0  0  0  0  0  0  0  0  0
    8.3887    2.5173    0.0000 H   0  0  0  0  0  0  0  0  0  0  0  0
    2.4447    1.5115    0.0000 H   0  0  0  0  0  0  0  0  0  0  0  0
 11  1  1  1  0  0  0
  1 51  1  0  0  0  0
 15  2  1  1  0  0  0
  2 52  1  0  0  0  0
 16  3  1  6  0  0  0
  3 53  1  0  0  0  0
  4 17  2  0  0  0  0
  5  6  1  0  0  0  0
  5  8  1  0  0  0  0
  5 11  1  0  0  0  0
  5 24  1  1  0  0  0
  6  7  1  0  0  0  0
  6 17  1  0  0  0  0
  6 25  1  1  0  0  0
  7 10  1  0  0  0  0
  7 16  1  0  0  0  0
  7 20  1  6  0  0  0
  8  9  1  0  0  0  0
  8 13  1  0  0  0  0
  8 26  1  6  0  0  0
  9 14  1  0  0  0  0
  9 15  1  0  0  0  0
  9 21  1  6  0  0  0
 10 12  1  0  0  0  0
 10 19  1  0  0  0  0
 10 27  1  6  0  0  0
 11 12  1  0  0  0  0
 11 28  1  0  0  0  0
 12 29  1  0  0  0  0
 12 30  1  0  0  0  0
 13 18  1  0  0  0  0
 13 31  1  0  0  0  0
 13 32  1  0  0  0  0
 14 17  1  0  0  0  0
 14 33  1  0  0  0  0
 14 34  1  0  0  0  0
 15 18  1  0  0  0  0
 15 35  1  0  0  0  0
 16 22  1  0  0  0  0
 16 36  1  0  0  0  0
 18 37  1  0  0  0  0
 18 38  1  0  0  0  0
 19 23  1  0  0  0  0
 19 39  1  0  0  0  0
 19 40  1  0  0  0  0
 20 41  1  0  0  0  0
 20 42  1  0  0  0  0
 20 43  1  0  0  0  0
 21 44  1  0  0  0  0
 21 45  1  0  0  0  0
 21 46  1  0  0  0  0
 22 23  1  0  0  0  0
 22 47  1  0  0  0  0
 22 48  1  0  0  0  0
 23 49  1  0  0  0  0
 23 50  1  0  0  0  0
M  END
> <PUBCHEM_COMPOUND_CID>
854160

> <PUBCHEM_COMPOUND_CANONICALIZED>
1

> <PUBCHEM_CACTVS_COMPLEXITY>
520

> <PUBCHEM_CACTVS_HBOND_ACCEPTOR>
4

> <PUBCHEM_CACTVS_HBOND_DONOR>
3

> <PUBCHEM_CACTVS_ROTATABLE_BOND>
0

> <PUBCHEM_CACTVS_SUBSKEYS>
AAADceB4OAAAAAAAAAAAAAAAAAAAAYAAAAAwYMAAAAAAAGDAAAAAGgAACAAADxSggAICAAAAAgAIAIAQAAAAAAAAAAAAAAEAAAAAEBIAAAAAQAAEAAAAAAGK6PSPgAAAAAAAAADAAAYAADAAAIAADAAAAA==

> <PUBCHEM_IUPAC_OPENEYE_NAME>
(1S,5R,7S,8S,9R,10R,13R,14S,17S)-1,7,17-trihydroxy-10,13-dimethyl-1,2,3,4,5,6,7,8,9,12,14,15,16,17-tetradecahydrocyclopenta[a]phenanthren-11-one

> <PUBCHEM_IUPAC_CAS_NAME>
(1S,5R,7S,8S,9R,10R,13R,14S,17S)-1,7,17-trihydroxy-10,13-dimethyl-1,2,3,4,5,6,7,8,9,12,14,15,16,17-tetradecahydrocyclopenta[a]phenanthren-11-one

> <PUBCHEM_IUPAC_NAME>
(1S,5R,7S,8S,9R,10R,13R,14S,17S)-1,7,17-trihydroxy-10,13-dimethyl-1,2,3,4,5,6,7,8,9,12,14,15,16,17-tetradecahydrocyclopenta[a]phenanthren-11-one

> <PUBCHEM_IUPAC_SYSTEMATIC_NAME>
(1S,5R,7S,8S,9R,10R,13R,14S,17S)-10,13-dimethyl-1,7,17-tris(oxidanyl)-1,2,3,4,5,6,7,8,9,12,14,15,16,17-tetradecahydrocyclopenta[a]phenanthren-11-one

> <PUBCHEM_IUPAC_TRADITIONAL_NAME>
(1S,5R,7S,8S,9R,10R,13R,14S,17S)-1,7,17-trihydroxy-10,13-dimethyl-1,2,3,4,5,6,7,8,9,12,14,15,16,17-tetradecahydrocyclopenta[a]phenanthren-11-one

> <PUBCHEM_IUPAC_INCHI>
InChI=1S/C19H30O4/c1-18-9-13(21)17-16(11(18)6-7-14(18)22)12(20)8-10-4-3-5-15(23)19(10,17)2/h10-12,14-17,20,22-23H,3-9H2,1-2H3/t10-,11+,12+,14+,15+,16-,17-,18-,19+/m1/s1

> <PUBCHEM_IUPAC_INCHIKEY>
JCLCQDRWBQUMGJ-HNHYEBGOSA-N

> <PUBCHEM_XLOGP3_AA>
1.6

> <PUBCHEM_EXACT_MASS>
322.214409

> <PUBCHEM_MOLECULAR_FORMULA>
C19H30O4

> <PUBCHEM_MOLECULAR_WEIGHT>
322.4391

> <PUBCHEM_OPENEYE_CAN_SMILES>
CC12CC(=O)C3C(C1CCC2O)C(CC4C3(C(CCC4)O)C)O

> <PUBCHEM_OPENEYE_ISO_SMILES>
C[C@@]12CC(=O)[C@@H]3[C@H]([C@@H]1CC[C@@H]2O)[C@H](C[C@@H]4[C@]3([C@H](CCC4)O)C)O

> <PUBCHEM_CACTVS_TPSA>
77.8

> <PUBCHEM_MONOISOTOPIC_WEIGHT>
322.214409

> <PUBCHEM_TOTAL_CHARGE>
0

> <PUBCHEM_HEAVY_ATOM_COUNT>
23

> <PUBCHEM_ATOM_DEF_STEREO_COUNT>
9

> <PUBCHEM_ATOM_UDEF_STEREO_COUNT>
0

> <PUBCHEM_BOND_DEF_STEREO_COUNT>
0

> <PUBCHEM_BOND_UDEF_STEREO_COUNT>
0

> <PUBCHEM_ISOTOPIC_ATOM_COUNT>
0

> <PUBCHEM_COMPONENT_COUNT>
1

> <PUBCHEM_CACTVS_TAUTO_COUNT>
3

> <PUBCHEM_COORDINATE_TYPE>
1
5
255

> <PUBCHEM_BONDANNOTATIONS>
11  1  5
10  27  6
15  2  5
16  3  6
5  24  5
6  25  5
7  20  6
8  26  6
9  21  6

$$$$

