92249
  -OEChem-07051212452D

 22 23  0     0  0  0  0  0  0999 V2000
    6.0290    1.2420    0.0000 O   0  0  0  0  0  0  0  0  0  0  0  0
    7.7991    1.2314    0.0000 O   0  0  0  0  0  0  0  0  0  0  0  0
    2.5369    1.2073    0.0000 N   0  0  0  0  0  0  0  0  0  0  0  0
    5.1350   -0.2927    0.0000 C   0  0  0  0  0  0  0  0  0  0  0  0
    6.0290   -0.8274    0.0000 C   0  0  0  0  0  0  0  0  0  0  0  0
    5.1350    0.7073    0.0000 C   0  0  0  0  0  0  0  0  0  0  0  0
    4.2690   -0.7927    0.0000 C   0  0  0  0  0  0  0  0  0  0  0  0
    4.2690    1.2073    0.0000 C   0  0  0  0  0  0  0  0  0  0  0  0
    3.4030    0.7073    0.0000 C   0  0  0  0  0  0  0  0  0  0  0  0
    6.9350   -0.3135    0.0000 C   0  0  0  0  0  0  0  0  0  0  0  0
    3.4030   -0.2927    0.0000 C   0  0  0  0  0  0  0  0  0  0  0  0
    6.0174   -1.8273    0.0000 C   0  0  0  0  0  0  0  0  0  0  0  0
    6.9350    0.7281    0.0000 C   0  0  0  0  0  0  0  0  0  0  0  0
    4.2690   -1.4127    0.0000 H   0  0  0  0  0  0  0  0  0  0  0  0
    4.2690    1.8273    0.0000 H   0  0  0  0  0  0  0  0  0  0  0  0
    7.4708   -0.6256    0.0000 H   0  0  0  0  0  0  0  0  0  0  0  0
    2.8660   -0.6027    0.0000 H   0  0  0  0  0  0  0  0  0  0  0  0
    5.3974   -1.8201    0.0000 H   0  0  0  0  0  0  0  0  0  0  0  0
    6.0102   -2.4473    0.0000 H   0  0  0  0  0  0  0  0  0  0  0  0
    6.6374   -1.8345    0.0000 H   0  0  0  0  0  0  0  0  0  0  0  0
    2.0000    0.8973    0.0000 H   0  0  0  0  0  0  0  0  0  0  0  0
    2.5369    1.8273    0.0000 H   0  0  0  0  0  0  0  0  0  0  0  0
  1  6  1  0  0  0  0
  1 13  1  0  0  0  0
  2 13  2  0  0  0  0
  3  9  1  0  0  0  0
  3 21  1  0  0  0  0
  3 22  1  0  0  0  0
  4  5  1  0  0  0  0
  4  6  2  0  0  0  0
  4  7  1  0  0  0  0
  5 10  2  0  0  0  0
  5 12  1  0  0  0  0
  6  8  1  0  0  0  0
  7 11  2  0  0  0  0
  7 14  1  0  0  0  0
  8  9  2  0  0  0  0
  8 15  1  0  0  0  0
  9 11  1  0  0  0  0
 10 13  1  0  0  0  0
 10 16  1  0  0  0  0
 11 17  1  0  0  0  0
 12 18  1  0  0  0  0
 12 19  1  0  0  0  0
 12 20  1  0  0  0  0
M  END
> <PUBCHEM_COMPOUND_CID>
92249

> <PUBCHEM_COMPOUND_CANONICALIZED>
1

> <PUBCHEM_CACTVS_COMPLEXITY>
260

> <PUBCHEM_CACTVS_HBOND_ACCEPTOR>
3

> <PUBCHEM_CACTVS_HBOND_DONOR>
1

> <PUBCHEM_CACTVS_ROTATABLE_BOND>
0

> <PUBCHEM_CACTVS_SUBSKEYS>
AAADccByMAAAAAAAAAAAAAAAAAAAAAAAAAAwQAAAAAAAAACBAAAAHgAQAAAADAyBmAAyzoBABACIAiTSSACCCAAgIgAIiAAGbMgMJiKEsZuCOiDm0BkI6QeQ0KEOCAAAAgAIAAAQAAAEABAAAAAAAAAAAA==

> <PUBCHEM_IUPAC_OPENEYE_NAME>
7-amino-4-methyl-chromen-2-one

> <PUBCHEM_IUPAC_CAS_NAME>
7-amino-4-methyl-1-benzopyran-2-one

> <PUBCHEM_IUPAC_NAME>
7-amino-4-methylchromen-2-one

> <PUBCHEM_IUPAC_SYSTEMATIC_NAME>
7-azanyl-4-methyl-chromen-2-one

> <PUBCHEM_IUPAC_TRADITIONAL_NAME>
7-amino-4-methyl-coumarin

> <PUBCHEM_IUPAC_INCHI>
InChI=1S/C10H9NO2/c1-6-4-10(12)13-9-5-7(11)2-3-8(6)9/h2-5H,11H2,1H3

> <PUBCHEM_IUPAC_INCHIKEY>
GLNDAGDHSLMOKX-UHFFFAOYSA-N

> <PUBCHEM_XLOGP3>
1.6

> <PUBCHEM_EXACT_MASS>
175.063329

> <PUBCHEM_MOLECULAR_FORMULA>
C10H9NO2

> <PUBCHEM_MOLECULAR_WEIGHT>
175.18396

> <PUBCHEM_OPENEYE_CAN_SMILES>
CC1=CC(=O)OC2=C1C=CC(=C2)N

> <PUBCHEM_OPENEYE_ISO_SMILES>
CC1=CC(=O)OC2=C1C=CC(=C2)N

> <PUBCHEM_CACTVS_TPSA>
52.3

> <PUBCHEM_MONOISOTOPIC_WEIGHT>
175.063329

> <PUBCHEM_TOTAL_CHARGE>
0

> <PUBCHEM_HEAVY_ATOM_COUNT>
13

> <PUBCHEM_ATOM_DEF_STEREO_COUNT>
0

> <PUBCHEM_ATOM_UDEF_STEREO_COUNT>
0

> <PUBCHEM_BOND_DEF_STEREO_COUNT>
0

> <PUBCHEM_BOND_UDEF_STEREO_COUNT>
0

> <PUBCHEM_ISOTOPIC_ATOM_COUNT>
0

> <PUBCHEM_COMPONENT_COUNT>
1

> <PUBCHEM_CACTVS_TAUTO_COUNT>
7

> <PUBCHEM_COORDINATE_TYPE>
1
5
255

> <PUBCHEM_BONDANNOTATIONS>
1  13  8
1  6  8
10  13  8
4  5  8
4  6  8
4  7  8
5  10  8
6  8  8
7  11  8
8  9  8
9  11  8

$$$$

