5290
  -OEChem-06261200373D

 45 48  0     1  0  0  0  0  0999 V2000
    4.6377   -1.3892   -0.0103 O   0  0  0  0  0  0  0  0  0  0  0  0
   -5.9264    0.0410   -0.0134 O   0  0  0  0  0  0  0  0  0  0  0  0
   -4.5472    2.2252    1.0076 O   0  0  0  0  0  0  0  0  0  0  0  0
    6.0883    0.9252   -0.3666 O   0  0  0  0  0  0  0  0  0  0  0  0
    0.3774   -1.2698   -0.2590 N   0  0  2  0  0  0  0  0  0  0  0  0
   -0.2406   -0.1098    0.4292 C   0  0  1  0  0  0  0  0  0  0  0  0
    0.4269    1.1688   -0.1349 C   0  0  0  0  0  0  0  0  0  0  0  0
   -0.3530   -2.5098    0.0170 C   0  0  0  0  0  0  0  0  0  0  0  0
   -1.7613   -0.0597    0.2943 C   0  0  0  0  0  0  0  0  0  0  0  0
    1.7901   -1.4086    0.1344 C   0  0  0  0  0  0  0  0  0  0  0  0
   -1.7447   -2.4232   -0.6043 C   0  0  0  0  0  0  0  0  0  0  0  0
   -2.4741   -1.1777   -0.1790 C   0  0  0  0  0  0  0  0  0  0  0  0
    1.9336    1.0938   -0.1793 C   0  0  0  0  0  0  0  0  0  0  0  0
    2.5855   -0.1454   -0.0835 C   0  0  0  0  0  0  0  0  0  0  0  0
   -2.4860    1.0701    0.7093 C   0  0  0  0  0  0  0  0  0  0  0  0
    3.9849   -0.1970   -0.1358 C   0  0  0  0  0  0  0  0  0  0  0  0
   -3.8712   -1.1254   -0.2931 C   0  0  0  0  0  0  0  0  0  0  0  0
    2.6879    2.2601   -0.3655 C   0  0  0  0  0  0  0  0  0  0  0  0
   -3.8776    1.1089    0.6053 C   0  0  0  0  0  0  0  0  0  0  0  0
   -4.5693    0.0147    0.0973 C   0  0  0  0  0  0  0  0  0  0  0  0
    4.7277    0.9702   -0.3106 C   0  0  0  0  0  0  0  0  0  0  0  0
    4.0796    2.1972   -0.4286 C   0  0  0  0  0  0  0  0  0  0  0  0
    4.9995   -1.7913    1.3082 C   0  0  0  0  0  0  0  0  0  0  0  0
   -6.4677    0.5316   -1.2386 C   0  0  0  0  0  0  0  0  0  0  0  0
   -0.0318   -0.1829    1.5074 H   0  0  0  0  0  0  0  0  0  0  0  0
    0.1507    2.0324    0.4820 H   0  0  0  0  0  0  0  0  0  0  0  0
    0.0677    1.3629   -1.1549 H   0  0  0  0  0  0  0  0  0  0  0  0
   -0.4227   -2.6939    1.0976 H   0  0  0  0  0  0  0  0  0  0  0  0
    0.1642   -3.3689   -0.4277 H   0  0  0  0  0  0  0  0  0  0  0  0
    2.2327   -2.2104   -0.4695 H   0  0  0  0  0  0  0  0  0  0  0  0
    1.8673   -1.6921    1.1918 H   0  0  0  0  0  0  0  0  0  0  0  0
   -2.3166   -3.3108   -0.3085 H   0  0  0  0  0  0  0  0  0  0  0  0
   -1.6683   -2.4243   -1.6991 H   0  0  0  0  0  0  0  0  0  0  0  0
   -1.9711    1.9319    1.1260 H   0  0  0  0  0  0  0  0  0  0  0  0
   -4.4157   -1.9833   -0.6813 H   0  0  0  0  0  0  0  0  0  0  0  0
    2.1936    3.2236   -0.4603 H   0  0  0  0  0  0  0  0  0  0  0  0
    4.6457    3.1142   -0.5687 H   0  0  0  0  0  0  0  0  0  0  0  0
   -5.5014    2.0678    0.9040 H   0  0  0  0  0  0  0  0  0  0  0  0
    6.4307    1.8272   -0.4895 H   0  0  0  0  0  0  0  0  0  0  0  0
    5.4239   -2.7975    1.2542 H   0  0  0  0  0  0  0  0  0  0  0  0
    4.1283   -1.8160    1.9695 H   0  0  0  0  0  0  0  0  0  0  0  0
    5.7572   -1.1156    1.7173 H   0  0  0  0  0  0  0  0  0  0  0  0
   -6.1721   -0.1141   -2.0715 H   0  0  0  0  0  0  0  0  0  0  0  0
   -6.1387    1.5588   -1.4254 H   0  0  0  0  0  0  0  0  0  0  0  0
   -7.5582    0.5228   -1.1590 H   0  0  0  0  0  0  0  0  0  0  0  0
  1 16  1  0  0  0  0
  1 23  1  0  0  0  0
  2 20  1  0  0  0  0
  2 24  1  0  0  0  0
  3 19  1  0  0  0  0
  3 38  1  0  0  0  0
  4 21  1  0  0  0  0
  4 39  1  0  0  0  0
  5  6  1  0  0  0  0
  5  8  1  0  0  0  0
  5 10  1  0  0  0  0
  6  7  1  0  0  0  0
  6  9  1  0  0  0  0
  6 25  1  0  0  0  0
  7 13  1  0  0  0  0
  7 26  1  0  0  0  0
  7 27  1  0  0  0  0
  8 11  1  0  0  0  0
  8 28  1  0  0  0  0
  8 29  1  0  0  0  0
  9 12  1  0  0  0  0
  9 15  2  0  0  0  0
 10 14  1  0  0  0  0
 10 30  1  0  0  0  0
 10 31  1  0  0  0  0
 11 12  1  0  0  0  0
 11 32  1  0  0  0  0
 11 33  1  0  0  0  0
 12 17  2  0  0  0  0
 13 14  2  0  0  0  0
 13 18  1  0  0  0  0
 14 16  1  0  0  0  0
 15 19  1  0  0  0  0
 15 34  1  0  0  0  0
 16 21  2  0  0  0  0
 17 20  1  0  0  0  0
 17 35  1  0  0  0  0
 18 22  2  0  0  0  0
 18 36  1  0  0  0  0
 19 20  2  0  0  0  0
 21 22  1  0  0  0  0
 22 37  1  0  0  0  0
 23 40  1  0  0  0  0
 23 41  1  0  0  0  0
 23 42  1  0  0  0  0
 24 43  1  0  0  0  0
 24 44  1  0  0  0  0
 24 45  1  0  0  0  0
M  END
> <PUBCHEM_COMPOUND_CID>
5290

> <PUBCHEM_CONFORMER_RMSD>
0.6

> <PUBCHEM_CONFORMER_DIVERSEORDER>
2
7
5
6
9
10
12
3
8
11
4
1

> <PUBCHEM_MMFF94_PARTIAL_CHARGES>
30
1 -0.36
10 0.41
11 0.14
12 -0.14
13 -0.14
14 -0.14
15 -0.15
16 0.08
17 -0.15
18 -0.15
19 0.08
2 -0.36
20 0.08
21 0.08
22 -0.15
23 0.28
24 0.28
3 -0.53
34 0.15
35 0.15
36 0.15
37 0.15
38 0.45
39 0.45
4 -0.53
5 -0.81
6 0.41
7 0.14
8 0.27
9 -0.14

> <PUBCHEM_EFFECTIVE_ROTOR_COUNT>
2.8

> <PUBCHEM_PHARMACOPHORE_FEATURES>
9
1 1 acceptor
1 2 acceptor
1 3 donor
1 4 donor
1 5 cation
6 13 14 16 18 21 22 rings
6 5 6 7 10 13 14 rings
6 5 6 8 9 11 12 rings
6 9 12 15 17 19 20 rings

> <PUBCHEM_HEAVY_ATOM_COUNT>
24

> <PUBCHEM_ATOM_DEF_STEREO_COUNT>
0

> <PUBCHEM_ATOM_UDEF_STEREO_COUNT>
1

> <PUBCHEM_BOND_DEF_STEREO_COUNT>
0

> <PUBCHEM_BOND_UDEF_STEREO_COUNT>
0

> <PUBCHEM_ISOTOPIC_ATOM_COUNT>
0

> <PUBCHEM_COMPONENT_COUNT>
1

> <PUBCHEM_CACTVS_TAUTO_COUNT>
8

> <PUBCHEM_CONFORMER_ID>
000014AA00000002

> <PUBCHEM_MMFF94_ENERGY>
87.4623

> <PUBCHEM_FEATURE_SELFOVERLAP>
45.735

> <PUBCHEM_SHAPE_FINGERPRINT>
10411042 1 17836087045758798218
10595046 47 18337389327270738325
10616163 171 18263358084587352382
10763959 59 17703792535040503909
11578080 2 17025167224084175282
12107183 9 18050565441513598064
12236239 1 18412827988810970939
12403260 363 18409450323228856265
12788726 201 17967523601528242224
12838862 33 18338535065711006212
13140716 1 18411979156806524178
13167823 11 18410291385125573474
13533116 47 17894630392007597606
13583140 156 17632291251268295161
13785724 45 17834676372403515898
14739800 52 17969798384477098960
14767858 380 18187658977337475495
14790565 3 18410005563520841353
15183329 4 18408884048664552428
15196674 1 18410854322025385255
15420108 30 16891153648964992728
17349148 13 18040714774985021240
17492 89 18337387133081384286
18335252 114 18341626936101622045
200 152 18186520999444616609
20028762 73 18261116317664595254
20511986 3 18336842883377633012
20612939 158 18343018895709018556
20715895 44 18120936367740876577
21033648 144 18272097045505670229
21033648 29 16702312256079409613
21033650 10 16879880093672742320
21267235 1 18408875235840183747
21421861 104 17917161567668214514
21859007 373 17914922999626167789
23402539 116 18187930534601696661
23559900 14 18041564607411270368
23569917 315 18334857246904420047
25147074 1 18338531758586311758
2838139 119 18129391548134729189
300161 21 18336550430501411016
3004659 81 18410852183838384750
335352 9 18410853266228243966
345986 75 17843423996892829696
34797466 226 16515682204605896800
34934 24 18339362955786649130
350125 39 18409448090083167705
3545911 37 18410007706614362133
3680242 22 18340203111102850362
4017518 198 17676202490693545374
4073 2 17845929611424101322
4214541 1 18337106778573302645
474 4 18130501942354746041
5104073 3 18411697668913283178
543358 83 18413105040261419542
6328613 192 18269545062661289252
633830 44 17560523884991698058
9709674 26 18261382309199502446

> <PUBCHEM_SHAPE_MULTIPOLES>
465.45
13.6
2.49
0.87
3.83
0.35
0.06
-3.57
-0.99
-1.07
0.03
0.31
-0.03
-1.44

> <PUBCHEM_SHAPE_SELFOVERLAP>
1021.861

> <PUBCHEM_SHAPE_VOLUME>
251.5

> <PUBCHEM_COORDINATE_TYPE>
2
5
10

$$$$

