11046
  -OEChem-06261205162D

 17 17  0     0  0  0  0  0  0999 V2000
    4.2320    1.9330    0.0000 Cl  0  0  0  0  0  0  0  0  0  0  0  0
    2.5000   -1.0670    0.0000 N   0  0  0  0  0  0  0  0  0  0  0  0
    2.0000   -1.9330    0.0000 C   0  0  0  0  0  0  0  0  0  0  0  0
    3.0000   -1.9330    0.0000 C   0  0  0  0  0  0  0  0  0  0  0  0
    2.5000   -0.0670    0.0000 C   0  0  0  0  0  0  0  0  0  0  0  0
    3.3660    0.4330    0.0000 C   0  0  0  0  0  0  0  0  0  0  0  0
    3.3660    1.4330    0.0000 C   0  0  0  0  0  0  0  0  0  0  0  0
    3.1077   -2.5436    0.0000 H   0  0  0  0  0  0  0  0  0  0  0  0
    3.5826   -1.7210    0.0000 H   0  0  0  0  0  0  0  0  0  0  0  0
    1.4174   -1.7210    0.0000 H   0  0  0  0  0  0  0  0  0  0  0  0
    1.8923   -2.5436    0.0000 H   0  0  0  0  0  0  0  0  0  0  0  0
    2.2880    0.5156    0.0000 H   0  0  0  0  0  0  0  0  0  0  0  0
    1.8894   -0.1746    0.0000 H   0  0  0  0  0  0  0  0  0  0  0  0
    3.5781   -0.1496    0.0000 H   0  0  0  0  0  0  0  0  0  0  0  0
    3.9766    0.5407    0.0000 H   0  0  0  0  0  0  0  0  0  0  0  0
    3.1540    2.0156    0.0000 H   0  0  0  0  0  0  0  0  0  0  0  0
    2.7554    1.3254    0.0000 H   0  0  0  0  0  0  0  0  0  0  0  0
  1  7  1  0  0  0  0
  2  3  1  0  0  0  0
  2  4  1  0  0  0  0
  2  5  1  0  0  0  0
  3  4  1  0  0  0  0
  3 10  1  0  0  0  0
  3 11  1  0  0  0  0
  4  8  1  0  0  0  0
  4  9  1  0  0  0  0
  5  6  1  0  0  0  0
  5 12  1  0  0  0  0
  5 13  1  0  0  0  0
  6  7  1  0  0  0  0
  6 14  1  0  0  0  0
  6 15  1  0  0  0  0
  7 16  1  0  0  0  0
  7 17  1  0  0  0  0
M  END
> <PUBCHEM_COMPOUND_CID>
11046

> <PUBCHEM_COMPOUND_CANONICALIZED>
1

> <PUBCHEM_CACTVS_COMPLEXITY>
52

> <PUBCHEM_CACTVS_HBOND_ACCEPTOR>
1

> <PUBCHEM_CACTVS_HBOND_DONOR>
0

> <PUBCHEM_CACTVS_ROTATABLE_BOND>
3

> <PUBCHEM_CACTVS_SUBSKEYS>
AAADccBiAAAEAAAAAAAAAAAAFgAAAAAAAAAAAAAAAAAAAAAAAAAAHAIAAAAACAPBAEQAAAMAAAAAAAAAAAAAAAAAAAAAAAAIAgAAAAAAAAAEAAAAAACAAAAAAAAAAAAAAAAAAAAAAAAAAAAAAAAAAAAAAA==

> <PUBCHEM_IUPAC_OPENEYE_NAME>
1-(3-chloropropyl)aziridine

> <PUBCHEM_IUPAC_CAS_NAME>
1-(3-chloropropyl)aziridine

> <PUBCHEM_IUPAC_NAME>
1-(3-chloropropyl)aziridine

> <PUBCHEM_IUPAC_SYSTEMATIC_NAME>
1-(3-chloranylpropyl)aziridine

> <PUBCHEM_IUPAC_TRADITIONAL_NAME>
1-(3-chloropropyl)ethylenimine

> <PUBCHEM_IUPAC_INCHI>
InChI=1S/C5H10ClN/c6-2-1-3-7-4-5-7/h1-5H2

> <PUBCHEM_IUPAC_INCHIKEY>
ADZCNZIQLIAEDW-UHFFFAOYSA-N

> <PUBCHEM_XLOGP3_AA>
1

> <PUBCHEM_EXACT_MASS>
119.050177

> <PUBCHEM_MOLECULAR_FORMULA>
C5H10ClN

> <PUBCHEM_MOLECULAR_WEIGHT>
119.5926

> <PUBCHEM_OPENEYE_CAN_SMILES>
C1CN1CCCCl

> <PUBCHEM_OPENEYE_ISO_SMILES>
C1CN1CCCCl

> <PUBCHEM_CACTVS_TPSA>
3

> <PUBCHEM_MONOISOTOPIC_WEIGHT>
119.050177

> <PUBCHEM_TOTAL_CHARGE>
0

> <PUBCHEM_HEAVY_ATOM_COUNT>
7

> <PUBCHEM_ATOM_DEF_STEREO_COUNT>
0

> <PUBCHEM_ATOM_UDEF_STEREO_COUNT>
0

> <PUBCHEM_BOND_DEF_STEREO_COUNT>
0

> <PUBCHEM_BOND_UDEF_STEREO_COUNT>
0

> <PUBCHEM_ISOTOPIC_ATOM_COUNT>
0

> <PUBCHEM_COMPONENT_COUNT>
1

> <PUBCHEM_CACTVS_TAUTO_COUNT>
1

> <PUBCHEM_COORDINATE_TYPE>
1
5
255

$$$$

