197759
  -OEChem-07051213063D

 53 56  0     1  0  0  0  0  0999 V2000
    2.8394   -2.9896    0.0074 F   0  0  0  0  0  0  0  0  0  0  0  0
   -5.6464    0.1091   -0.6728 O   0  0  0  0  0  0  0  0  0  0  0  0
    5.9485    0.6318    1.0018 O   0  0  0  0  0  0  0  0  0  0  0  0
   -1.5198   -0.8780    0.3831 C   0  0  2  0  0  0  0  0  0  0  0  0
   -2.4392    0.2824   -0.0537 C   0  0  1  0  0  0  0  0  0  0  0  0
   -0.1344   -0.8191   -0.2683 C   0  0  1  0  0  0  0  0  0  0  0  0
    0.5525    0.5248    0.1293 C   0  0  1  0  0  0  0  0  0  0  0  0
    2.0102    0.6654   -0.4588 C   0  0  2  0  0  0  0  0  0  0  0  0
   -3.7200   -0.1100    0.7155 C   0  0  2  0  0  0  0  0  0  0  0  0
   -1.7879    1.5933    0.4068 C   0  0  0  0  0  0  0  0  0  0  0  0
   -0.3629    1.7476   -0.1548 C   0  0  0  0  0  0  0  0  0  0  0  0
   -2.3867   -2.1145    0.1715 C   0  0  0  0  0  0  0  0  0  0  0  0
    0.7387   -2.0008    0.1642 C   0  0  0  0  0  0  0  0  0  0  0  0
   -3.7984   -1.6438    0.5658 C   0  0  0  0  0  0  0  0  0  0  0  0
    2.8132   -0.6087   -0.1556 C   0  0  0  0  0  0  0  0  0  0  0  0
   -2.7018    0.3355   -1.5815 C   0  0  0  0  0  0  0  0  0  0  0  0
    2.1256   -1.9213   -0.4559 C   0  0  1  0  0  0  0  0  0  0  0  0
    2.6885    1.8963    0.2108 C   0  0  0  0  0  0  0  0  0  0  0  0
    1.9973    0.8737   -1.9903 C   0  0  0  0  0  0  0  0  0  0  0  0
   -4.9629    0.5745    0.2378 C   0  0  0  0  0  0  0  0  0  0  0  0
    4.1966    1.9375    0.0251 C   0  0  0  0  0  0  0  0  0  0  0  0
    4.0673   -0.6031    0.3271 C   0  0  0  0  0  0  0  0  0  0  0  0
    4.8187    0.6588    0.5178 C   0  0  0  0  0  0  0  0  0  0  0  0
   -5.3363    1.8584    0.9279 C   0  0  0  0  0  0  0  0  0  0  0  0
   -1.3592   -0.8024    1.4720 H   0  0  0  0  0  0  0  0  0  0  0  0
   -0.2452   -0.8716   -1.3567 H   0  0  0  0  0  0  0  0  0  0  0  0
    0.6634    0.4910    1.2257 H   0  0  0  0  0  0  0  0  0  0  0  0
   -3.6041    0.1096    1.7859 H   0  0  0  0  0  0  0  0  0  0  0  0
   -1.7384    1.6268    1.5028 H   0  0  0  0  0  0  0  0  0  0  0  0
   -2.3866    2.4563    0.0955 H   0  0  0  0  0  0  0  0  0  0  0  0
   -0.4231    1.9347   -1.2315 H   0  0  0  0  0  0  0  0  0  0  0  0
    0.0703    2.6502    0.2899 H   0  0  0  0  0  0  0  0  0  0  0  0
   -2.0624   -2.9570    0.7907 H   0  0  0  0  0  0  0  0  0  0  0  0
   -2.3685   -2.4441   -0.8732 H   0  0  0  0  0  0  0  0  0  0  0  0
    0.2774   -2.9504   -0.1322 H   0  0  0  0  0  0  0  0  0  0  0  0
    0.8259   -2.0382    1.2581 H   0  0  0  0  0  0  0  0  0  0  0  0
   -4.5244   -1.9849   -0.1794 H   0  0  0  0  0  0  0  0  0  0  0  0
   -4.0949   -2.0931    1.5211 H   0  0  0  0  0  0  0  0  0  0  0  0
   -3.3202    1.2032   -1.8389 H   0  0  0  0  0  0  0  0  0  0  0  0
   -1.7824    0.4270   -2.1658 H   0  0  0  0  0  0  0  0  0  0  0  0
   -3.2213   -0.5550   -1.9492 H   0  0  0  0  0  0  0  0  0  0  0  0
    2.0532   -2.0464   -1.5421 H   0  0  0  0  0  0  0  0  0  0  0  0
    2.4803    1.8862    1.2900 H   0  0  0  0  0  0  0  0  0  0  0  0
    2.2665    2.8309   -0.1777 H   0  0  0  0  0  0  0  0  0  0  0  0
    1.5782    1.8484   -2.2615 H   0  0  0  0  0  0  0  0  0  0  0  0
    3.0093    0.8346   -2.4101 H   0  0  0  0  0  0  0  0  0  0  0  0
    1.4106    0.1088   -2.5085 H   0  0  0  0  0  0  0  0  0  0  0  0
    4.6073    2.7706    0.6062 H   0  0  0  0  0  0  0  0  0  0  0  0
    4.4750    2.0840   -1.0232 H   0  0  0  0  0  0  0  0  0  0  0  0
    4.6051   -1.5199    0.5430 H   0  0  0  0  0  0  0  0  0  0  0  0
   -5.4194    1.6900    2.0045 H   0  0  0  0  0  0  0  0  0  0  0  0
   -4.5918    2.6287    0.7220 H   0  0  0  0  0  0  0  0  0  0  0  0
   -6.3063    2.2019    0.5568 H   0  0  0  0  0  0  0  0  0  0  0  0
  1 17  1  0  0  0  0
  2 20  2  0  0  0  0
  3 23  2  0  0  0  0
  4  5  1  0  0  0  0
  4  6  1  0  0  0  0
  4 12  1  0  0  0  0
  4 25  1  0  0  0  0
  5  9  1  0  0  0  0
  5 10  1  0  0  0  0
  5 16  1  0  0  0  0
  6  7  1  0  0  0  0
  6 13  1  0  0  0  0
  6 26  1  0  0  0  0
  7  8  1  0  0  0  0
  7 11  1  0  0  0  0
  7 27  1  0  0  0  0
  8 15  1  0  0  0  0
  8 18  1  0  0  0  0
  8 19  1  0  0  0  0
  9 14  1  0  0  0  0
  9 20  1  0  0  0  0
  9 28  1  0  0  0  0
 10 11  1  0  0  0  0
 10 29  1  0  0  0  0
 10 30  1  0  0  0  0
 11 31  1  0  0  0  0
 11 32  1  0  0  0  0
 12 14  1  0  0  0  0
 12 33  1  0  0  0  0
 12 34  1  0  0  0  0
 13 17  1  0  0  0  0
 13 35  1  0  0  0  0
 13 36  1  0  0  0  0
 14 37  1  0  0  0  0
 14 38  1  0  0  0  0
 15 17  1  0  0  0  0
 15 22  2  0  0  0  0
 16 39  1  0  0  0  0
 16 40  1  0  0  0  0
 16 41  1  0  0  0  0
 17 42  1  0  0  0  0
 18 21  1  0  0  0  0
 18 43  1  0  0  0  0
 18 44  1  0  0  0  0
 19 45  1  0  0  0  0
 19 46  1  0  0  0  0
 19 47  1  0  0  0  0
 20 24  1  0  0  0  0
 21 23  1  0  0  0  0
 21 48  1  0  0  0  0
 21 49  1  0  0  0  0
 22 23  1  0  0  0  0
 22 50  1  0  0  0  0
 24 51  1  0  0  0  0
 24 52  1  0  0  0  0
 24 53  1  0  0  0  0
M  END
> <PUBCHEM_COMPOUND_CID>
197759

> <PUBCHEM_CONFORMER_RMSD>
0.6

> <PUBCHEM_CONFORMER_DIVERSEORDER>
1
2

> <PUBCHEM_MMFF94_PARTIAL_CHARGES>
13
1 -0.34
15 -0.28
17 0.48
2 -0.57
20 0.45
21 0.06
22 -0.14
23 0.49
24 0.06
3 -0.57
50 0.15
8 0.14
9 0.06

> <PUBCHEM_EFFECTIVE_ROTOR_COUNT>
2.8

> <PUBCHEM_PHARMACOPHORE_FEATURES>
6
1 2 acceptor
1 3 acceptor
5 4 5 9 12 14 rings
6 4 5 6 7 10 11 rings
6 6 7 8 13 15 17 rings
6 8 15 18 21 22 23 rings

> <PUBCHEM_HEAVY_ATOM_COUNT>
24

> <PUBCHEM_ATOM_DEF_STEREO_COUNT>
7

> <PUBCHEM_ATOM_UDEF_STEREO_COUNT>
0

> <PUBCHEM_BOND_DEF_STEREO_COUNT>
0

> <PUBCHEM_BOND_UDEF_STEREO_COUNT>
0

> <PUBCHEM_ISOTOPIC_ATOM_COUNT>
0

> <PUBCHEM_COMPONENT_COUNT>
1

> <PUBCHEM_CACTVS_TAUTO_COUNT>
6

> <PUBCHEM_CONFORMER_ID>
0003047F00000001

> <PUBCHEM_MMFF94_ENERGY>
71.608

> <PUBCHEM_FEATURE_SELFOVERLAP>
30.542

> <PUBCHEM_SHAPE_FINGERPRINT>
10411042 1 17761490696362261534
10906281 52 18129362870252730936
10967382 1 18410853274290605422
11089746 13 17676212355114428688
11132069 177 18343577426325637055
11578080 2 16843622697509871046
12011746 2 18410569587948920076
12107183 9 17613146790928505601
12236239 1 17676209095634781239
12403260 363 18195252104905231782
12403814 3 17704072872351390989
12633257 1 17203609242161534802
12788726 201 17168417285398108737
13073987 5 18335414704036404185
13140716 1 18267023851921973752
13224815 77 18411416189604707087
13583140 156 17895195450773877403
13675066 3 18059568079655306667
14178342 30 18340483353239102931
14223421 5 18339080492540205630
14341114 176 18411696604241376050
14790565 3 18051964823664207196
15196674 1 18411134701727315795
15375358 24 18409162203948067251
15536298 74 18335977653204101446
15788980 27 16774080648452470757
15840311 113 18118953936055895225
16945 1 18410854399740842206
17349148 13 18130508548367777724
17980427 23 18129943360710087148
1813 80 16988555827240661238
19784866 9 18409448072676211592
200 152 18186525384606147935
20511986 3 18115322162547702937
20645477 56 18131073748984256709
20645477 70 18186517734810581719
20715895 44 18271530917857243933
21033648 29 18129402473698378788
21267235 1 18411127048111600410
21304253 335 18339916112745442789
21421861 104 18058736934790733626
21452121 103 18409448119810218354
21859007 373 17416138402124482933
22182313 1 17845100734365141357
23402539 116 18262244326093664844
23557571 272 18115580444316263638
23559900 14 18408882953986020466
26918003 58 18341615897233700609
296302 2 17967249793073156127
335352 9 18410572899189623726
34797466 226 15791729646647976609
34934 24 18408044013470779539
350125 39 18412825751455282812
3545911 37 18412543219072078814
3633792 109 18339652247799323037
3680242 22 18342176721431330154
42630746 31 18407760348139680974
4340502 62 18413101762932477459
474 4 18409729534725991048
5104073 3 18341604954242665067
633830 44 18187643553566953724
7364860 26 18335979865566024086
7495541 125 13614228270357843045
9709674 26 18337103557427179375

> <PUBCHEM_SHAPE_MULTIPOLES>
474.9
11.23
2.42
1.06
1.99
0.89
-0.43
-3.34
2.54
-0.55
0.22
0.02
-0.25
-0.04

> <PUBCHEM_SHAPE_SELFOVERLAP>
1020.058

> <PUBCHEM_SHAPE_VOLUME>
264.6

> <PUBCHEM_COORDINATE_TYPE>
2
5
10

$$$$

