9485
  -OEChem-06261203452D

 33 32  0     0  0  0  0  0  0999 V2000
    3.7320    0.2500    0.0000 N   0  0  0  0  0  0  0  0  0  0  0  0
    5.4641    0.2500    0.0000 N   0  0  0  0  0  0  0  0  0  0  0  0
    4.5981    1.7500    0.0000 N   0  0  0  0  0  0  0  0  0  0  0  0
    2.8660    0.7500    0.0000 C   0  0  0  0  0  0  0  0  0  0  0  0
    3.7320   -0.7500    0.0000 C   0  0  0  0  0  0  0  0  0  0  0  0
    2.8660    1.7500    0.0000 C   0  0  0  0  0  0  0  0  0  0  0  0
    2.8660   -1.2500    0.0000 C   0  0  0  0  0  0  0  0  0  0  0  0
    2.8660   -2.2500    0.0000 C   0  0  0  0  0  0  0  0  0  0  0  0
    2.0000   -0.7500    0.0000 C   0  0  0  0  0  0  0  0  0  0  0  0
    2.0000    2.2500    0.0000 C   0  0  0  0  0  0  0  0  0  0  0  0
    3.7320    2.2500    0.0000 C   0  0  0  0  0  0  0  0  0  0  0  0
    4.5981    0.7500    0.0000 C   0  0  0  0  0  0  0  0  0  0  0  0
    3.9441   -1.3326    0.0000 H   0  0  0  0  0  0  0  0  0  0  0  0
    4.3426   -0.6423    0.0000 H   0  0  0  0  0  0  0  0  0  0  0  0
    2.2554    0.8577    0.0000 H   0  0  0  0  0  0  0  0  0  0  0  0
    2.6540    0.1674    0.0000 H   0  0  0  0  0  0  0  0  0  0  0  0
    2.8660   -0.6300    0.0000 H   0  0  0  0  0  0  0  0  0  0  0  0
    2.8660    2.3700    0.0000 H   0  0  0  0  0  0  0  0  0  0  0  0
    4.0420    1.7131    0.0000 H   0  0  0  0  0  0  0  0  0  0  0  0
    4.2690    2.5600    0.0000 H   0  0  0  0  0  0  0  0  0  0  0  0
    3.4220    2.7869    0.0000 H   0  0  0  0  0  0  0  0  0  0  0  0
    2.3100    2.7869    0.0000 H   0  0  0  0  0  0  0  0  0  0  0  0
    1.4631    2.5600    0.0000 H   0  0  0  0  0  0  0  0  0  0  0  0
    1.6900    1.7131    0.0000 H   0  0  0  0  0  0  0  0  0  0  0  0
    2.3100   -0.2131    0.0000 H   0  0  0  0  0  0  0  0  0  0  0  0
    1.4631   -0.4400    0.0000 H   0  0  0  0  0  0  0  0  0  0  0  0
    1.6900   -1.2869    0.0000 H   0  0  0  0  0  0  0  0  0  0  0  0
    2.2460   -2.2500    0.0000 H   0  0  0  0  0  0  0  0  0  0  0  0
    2.8660   -2.8700    0.0000 H   0  0  0  0  0  0  0  0  0  0  0  0
    3.4860   -2.2500    0.0000 H   0  0  0  0  0  0  0  0  0  0  0  0
    6.0010    0.5600    0.0000 H   0  0  0  0  0  0  0  0  0  0  0  0
    5.4641   -0.3700    0.0000 H   0  0  0  0  0  0  0  0  0  0  0  0
    5.1350    2.0600    0.0000 H   0  0  0  0  0  0  0  0  0  0  0  0
  1  4  1  0  0  0  0
  1  5  1  0  0  0  0
  1 12  1  0  0  0  0
  2 12  1  0  0  0  0
  2 31  1  0  0  0  0
  2 32  1  0  0  0  0
  3 12  2  0  0  0  0
  3 33  1  0  0  0  0
  4  6  1  0  0  0  0
  4 15  1  0  0  0  0
  4 16  1  0  0  0  0
  5  7  1  0  0  0  0
  5 13  1  0  0  0  0
  5 14  1  0  0  0  0
  6 10  1  0  0  0  0
  6 11  1  0  0  0  0
  6 18  1  0  0  0  0
  7  8  1  0  0  0  0
  7  9  1  0  0  0  0
  7 17  1  0  0  0  0
  8 28  1  0  0  0  0
  8 29  1  0  0  0  0
  8 30  1  0  0  0  0
  9 25  1  0  0  0  0
  9 26  1  0  0  0  0
  9 27  1  0  0  0  0
 10 22  1  0  0  0  0
 10 23  1  0  0  0  0
 10 24  1  0  0  0  0
 11 19  1  0  0  0  0
 11 20  1  0  0  0  0
 11 21  1  0  0  0  0
M  END
> <PUBCHEM_COMPOUND_CID>
9485

> <PUBCHEM_COMPOUND_CANONICALIZED>
1

> <PUBCHEM_CACTVS_COMPLEXITY>
131

> <PUBCHEM_CACTVS_HBOND_ACCEPTOR>
1

> <PUBCHEM_CACTVS_HBOND_DONOR>
2

> <PUBCHEM_CACTVS_ROTATABLE_BOND>
5

> <PUBCHEM_CACTVS_SUBSKEYS>
AAADceBzAAAAAAAAAAAAAAAAAAAAAAAAAAAAAAAAAAAAAAAAAAAAHAAQAAAADQDBAAQDAANAAAAgAAAAIAAAAACAAAABAAAIAACAAAAACAAEAAAAAAKAAAAAAAAAAAAAAAAAAAAAAAAAAAAAAAAAAAAAAA==

> <PUBCHEM_IUPAC_OPENEYE_NAME>
1,1-diisobutylguanidine

> <PUBCHEM_IUPAC_CAS_NAME>
1,1-bis(2-methylpropyl)guanidine

> <PUBCHEM_IUPAC_NAME>
1,1-bis(2-methylpropyl)guanidine

> <PUBCHEM_IUPAC_SYSTEMATIC_NAME>
1,1-bis(2-methylpropyl)guanidine

> <PUBCHEM_IUPAC_TRADITIONAL_NAME>
1,1-diisobutylguanidine

> <PUBCHEM_IUPAC_INCHI>
InChI=1S/C9H21N3/c1-7(2)5-12(9(10)11)6-8(3)4/h7-8H,5-6H2,1-4H3,(H3,10,11)

> <PUBCHEM_IUPAC_INCHIKEY>
WALDZXWGTQALJM-UHFFFAOYSA-N

> <PUBCHEM_XLOGP3_AA>
1.9

> <PUBCHEM_EXACT_MASS>
171.173548

> <PUBCHEM_MOLECULAR_FORMULA>
C9H21N3

> <PUBCHEM_MOLECULAR_WEIGHT>
171.28314

> <PUBCHEM_OPENEYE_CAN_SMILES>
CC(C)CN(CC(C)C)C(=N)N

> <PUBCHEM_OPENEYE_ISO_SMILES>
CC(C)CN(CC(C)C)C(=N)N

> <PUBCHEM_CACTVS_TPSA>
53.1

> <PUBCHEM_MONOISOTOPIC_WEIGHT>
171.173548

> <PUBCHEM_TOTAL_CHARGE>
0

> <PUBCHEM_HEAVY_ATOM_COUNT>
12

> <PUBCHEM_ATOM_DEF_STEREO_COUNT>
0

> <PUBCHEM_ATOM_UDEF_STEREO_COUNT>
0

> <PUBCHEM_BOND_DEF_STEREO_COUNT>
0

> <PUBCHEM_BOND_UDEF_STEREO_COUNT>
0

> <PUBCHEM_ISOTOPIC_ATOM_COUNT>
0

> <PUBCHEM_COMPONENT_COUNT>
1

> <PUBCHEM_CACTVS_TAUTO_COUNT>
1

> <PUBCHEM_COORDINATE_TYPE>
1
5
255

$$$$

