9234
  -OEChem-06261203312D

 17 18  0     0  0  0  0  0  0999 V2000
    3.7543    1.4743    0.0000 O   0  0  0  0  0  0  0  0  0  0  0  0
    4.4909    0.4917    0.0000 C   0  0  0  0  0  0  0  0  0  0  0  0
    4.2320   -0.4743    0.0000 C   0  0  0  0  0  0  0  0  0  0  0  0
    2.0000   -0.6082    0.0000 C   0  0  0  0  0  0  0  0  0  0  0  0
    2.5000   -1.4743    0.0000 C   0  0  0  0  0  0  0  0  0  0  0  0
    6.0640   -1.2331    0.0000 C   0  0  0  0  0  0  0  0  0  0  0  0
    6.3228   -0.2672    0.0000 C   0  0  0  0  0  0  0  0  0  0  0  0
    4.2726   -1.0929    0.0000 H   0  0  0  0  0  0  0  0  0  0  0  0
    4.4980   -0.1283    0.0000 H   0  0  0  0  0  0  0  0  0  0  0  0
    1.7294   -0.0504    0.0000 H   0  0  0  0  0  0  0  0  0  0  0  0
    1.4523   -0.8988    0.0000 H   0  0  0  0  0  0  0  0  0  0  0  0
    1.9631   -1.7843    0.0000 H   0  0  0  0  0  0  0  0  0  0  0  0
    2.8100   -2.0112    0.0000 H   0  0  0  0  0  0  0  0  0  0  0  0
    5.8520   -1.8157    0.0000 H   0  0  0  0  0  0  0  0  0  0  0  0
    6.6553   -1.4195    0.0000 H   0  0  0  0  0  0  0  0  0  0  0  0
    6.9141   -0.4536    0.0000 H   0  0  0  0  0  0  0  0  0  0  0  0
    6.5349    0.3154    0.0000 H   0  0  0  0  0  0  0  0  0  0  0  0
  1  2  1  0  0  0  0
  1  3  1  0  0  0  0
  2  4  1  0  0  0  0
  2  7  1  0  0  0  0
  2  9  1  0  0  0  0
  3  5  1  0  0  0  0
  3  6  1  0  0  0  0
  3  8  1  0  0  0  0
  4  5  1  0  0  0  0
  4 10  1  0  0  0  0
  4 11  1  0  0  0  0
  5 12  1  0  0  0  0
  5 13  1  0  0  0  0
  6  7  1  0  0  0  0
  6 14  1  0  0  0  0
  6 15  1  0  0  0  0
  7 16  1  0  0  0  0
  7 17  1  0  0  0  0
M  END
> <PUBCHEM_COMPOUND_CID>
9234

> <PUBCHEM_COMPOUND_CANONICALIZED>
1

> <PUBCHEM_CACTVS_COMPLEXITY>
62.2

> <PUBCHEM_CACTVS_HBOND_ACCEPTOR>
1

> <PUBCHEM_CACTVS_HBOND_DONOR>
0

> <PUBCHEM_CACTVS_ROTATABLE_BOND>
0

> <PUBCHEM_CACTVS_SUBSKEYS>
AAADccBgIAAAAAAAAAAAAAAAAAAAASJAAAAwAAAAAAAAAAAAAAAAGgAAAAAACBSggAIAAAAABAAAAAAAAAAAAAAAAAAAAAAAAAAAAAIAAAACAAAEAAAAAAGAQAAAAAAAAAAAAAAAAAAAAAAAAAAAAAAAAA==

> <PUBCHEM_IUPAC_OPENEYE_NAME>
7-oxabicyclo[2.2.1]heptane

> <PUBCHEM_IUPAC_CAS_NAME>
7-oxabicyclo[2.2.1]heptane

> <PUBCHEM_IUPAC_NAME>
7-oxabicyclo[2.2.1]heptane

> <PUBCHEM_IUPAC_SYSTEMATIC_NAME>
7-oxabicyclo[2.2.1]heptane

> <PUBCHEM_IUPAC_TRADITIONAL_NAME>
7-oxabicyclo[2.2.1]heptane

> <PUBCHEM_IUPAC_INCHI>
InChI=1S/C6H10O/c1-2-6-4-3-5(1)7-6/h5-6H,1-4H2

> <PUBCHEM_IUPAC_INCHIKEY>
YPWFNLSXQIGJCK-UHFFFAOYSA-N

> <PUBCHEM_XLOGP3_AA>
1.2

> <PUBCHEM_EXACT_MASS>
98.073165

> <PUBCHEM_MOLECULAR_FORMULA>
C6H10O

> <PUBCHEM_MOLECULAR_WEIGHT>
98.143

> <PUBCHEM_OPENEYE_CAN_SMILES>
C1CC2CCC1O2

> <PUBCHEM_OPENEYE_ISO_SMILES>
C1CC2CCC1O2

> <PUBCHEM_CACTVS_TPSA>
9.2

> <PUBCHEM_MONOISOTOPIC_WEIGHT>
98.073165

> <PUBCHEM_TOTAL_CHARGE>
0

> <PUBCHEM_HEAVY_ATOM_COUNT>
7

> <PUBCHEM_ATOM_DEF_STEREO_COUNT>
0

> <PUBCHEM_ATOM_UDEF_STEREO_COUNT>
0

> <PUBCHEM_BOND_DEF_STEREO_COUNT>
0

> <PUBCHEM_BOND_UDEF_STEREO_COUNT>
0

> <PUBCHEM_ISOTOPIC_ATOM_COUNT>
0

> <PUBCHEM_COMPONENT_COUNT>
1

> <PUBCHEM_CACTVS_TAUTO_COUNT>
1

> <PUBCHEM_COORDINATE_TYPE>
1
5
255

$$$$

