89640
  -OEChem-07051212463D

 50 52  0     1  0  0  0  0  0999 V2000
    0.3913   -0.1734   -0.7699 O   0  0  0  0  0  0  0  0  0  0  0  0
   -0.6171    0.2539    1.3205 O   0  0  0  0  0  0  0  0  0  0  0  0
   -5.0755    2.2293   -0.8661 O   0  0  0  0  0  0  0  0  0  0  0  0
    2.2935    0.9539   -0.0251 O   0  0  0  0  0  0  0  0  0  0  0  0
    1.9031   -2.5585   -0.9525 O   0  0  0  0  0  0  0  0  0  0  0  0
    4.7603   -2.0164   -1.4250 O   0  0  0  0  0  0  0  0  0  0  0  0
    5.7598   -0.1057    0.5003 O   0  0  0  0  0  0  0  0  0  0  0  0
   -3.6576   -2.9353   -0.1693 O   0  0  0  0  0  0  0  0  0  0  0  0
   -3.6256   -2.5566    2.0858 O   0  0  0  0  0  0  0  0  0  0  0  0
    3.1322    3.0376    1.5596 O   0  0  0  0  0  0  0  0  0  0  0  0
   -1.7869    0.8516   -0.7836 C   0  0  1  0  0  0  0  0  0  0  0  0
   -2.6069   -0.4535   -0.7394 C   0  0  2  0  0  0  0  0  0  0  0  0
   -2.7150    1.9422   -0.1842 C   0  0  2  0  0  0  0  0  0  0  0  0
   -4.1401    1.3584   -0.2574 C   0  0  2  0  0  0  0  0  0  0  0  0
   -4.0140    0.0592   -1.0476 C   0  0  0  0  0  0  0  0  0  0  0  0
   -0.4569    0.7076   -0.0317 C   0  0  2  0  0  0  0  0  0  0  0  0
   -2.4504   -1.1312    0.5910 C   0  0  0  0  0  0  0  0  0  0  0  0
   -2.5291    3.2839   -0.8868 C   0  0  0  0  0  0  0  0  0  0  0  0
    1.6613   -0.3192   -0.1352 C   0  0  2  0  0  0  0  0  0  0  0  0
   -1.5370   -0.7487    1.4918 C   0  0  0  0  0  0  0  0  0  0  0  0
    2.5072   -1.2658   -0.9868 C   0  0  1  0  0  0  0  0  0  0  0  0
    3.9385   -1.3604   -0.4581 C   0  0  2  0  0  0  0  0  0  0  0  0
    4.5264    0.0274   -0.2014 C   0  0  1  0  0  0  0  0  0  0  0  0
    3.5628    0.8808    0.6266 C   0  0  1  0  0  0  0  0  0  0  0  0
   -3.2999   -2.2685    0.9482 C   0  0  0  0  0  0  0  0  0  0  0  0
    4.0754    2.3075    0.7965 C   0  0  0  0  0  0  0  0  0  0  0  0
   -1.5802    1.0823   -1.8385 H   0  0  0  0  0  0  0  0  0  0  0  0
   -2.2689   -1.1386   -1.5266 H   0  0  0  0  0  0  0  0  0  0  0  0
   -2.4734    2.0954    0.8757 H   0  0  0  0  0  0  0  0  0  0  0  0
   -4.4925    1.1443    0.7590 H   0  0  0  0  0  0  0  0  0  0  0  0
   -4.1140    0.2616   -2.1222 H   0  0  0  0  0  0  0  0  0  0  0  0
   -4.8145   -0.6409   -0.7889 H   0  0  0  0  0  0  0  0  0  0  0  0
    0.0115    1.6978    0.0126 H   0  0  0  0  0  0  0  0  0  0  0  0
   -2.7796    3.2173   -1.9510 H   0  0  0  0  0  0  0  0  0  0  0  0
   -3.1647    4.0516   -0.4335 H   0  0  0  0  0  0  0  0  0  0  0  0
   -1.4909    3.6222   -0.8063 H   0  0  0  0  0  0  0  0  0  0  0  0
    1.5174   -0.7540    0.8625 H   0  0  0  0  0  0  0  0  0  0  0  0
   -1.4198   -1.1832    2.4757 H   0  0  0  0  0  0  0  0  0  0  0  0
    2.5097   -0.9447   -2.0352 H   0  0  0  0  0  0  0  0  0  0  0  0
   -5.9244    1.7577   -0.9173 H   0  0  0  0  0  0  0  0  0  0  0  0
    3.9854   -1.9695    0.4531 H   0  0  0  0  0  0  0  0  0  0  0  0
    4.7400    0.5058   -1.1662 H   0  0  0  0  0  0  0  0  0  0  0  0
    3.4185    0.4507    1.6272 H   0  0  0  0  0  0  0  0  0  0  0  0
    4.1760    2.8043   -0.1742 H   0  0  0  0  0  0  0  0  0  0  0  0
    5.0352    2.3357    1.3197 H   0  0  0  0  0  0  0  0  0  0  0  0
    1.8965   -2.8640   -0.0293 H   0  0  0  0  0  0  0  0  0  0  0  0
    4.3629   -2.8867   -1.6001 H   0  0  0  0  0  0  0  0  0  0  0  0
    6.2315    0.7415    0.4365 H   0  0  0  0  0  0  0  0  0  0  0  0
   -4.2304   -3.7065    0.0289 H   0  0  0  0  0  0  0  0  0  0  0  0
    3.4745    3.9432    1.6493 H   0  0  0  0  0  0  0  0  0  0  0  0
  1 16  1  0  0  0  0
  1 19  1  0  0  0  0
  2 16  1  0  0  0  0
  2 20  1  0  0  0  0
  3 14  1  0  0  0  0
  3 40  1  0  0  0  0
  4 19  1  0  0  0  0
  4 24  1  0  0  0  0
  5 21  1  0  0  0  0
  5 46  1  0  0  0  0
  6 22  1  0  0  0  0
  6 47  1  0  0  0  0
  7 23  1  0  0  0  0
  7 48  1  0  0  0  0
  8 25  1  0  0  0  0
  8 49  1  0  0  0  0
  9 25  2  0  0  0  0
 10 26  1  0  0  0  0
 10 50  1  0  0  0  0
 11 12  1  0  0  0  0
 11 13  1  0  0  0  0
 11 16  1  0  0  0  0
 11 27  1  0  0  0  0
 12 15  1  0  0  0  0
 12 17  1  0  0  0  0
 12 28  1  0  0  0  0
 13 14  1  0  0  0  0
 13 18  1  0  0  0  0
 13 29  1  0  0  0  0
 14 15  1  0  0  0  0
 14 30  1  0  0  0  0
 15 31  1  0  0  0  0
 15 32  1  0  0  0  0
 16 33  1  0  0  0  0
 17 20  2  0  0  0  0
 17 25  1  0  0  0  0
 18 34  1  0  0  0  0
 18 35  1  0  0  0  0
 18 36  1  0  0  0  0
 19 21  1  0  0  0  0
 19 37  1  0  0  0  0
 20 38  1  0  0  0  0
 21 22  1  0  0  0  0
 21 39  1  0  0  0  0
 22 23  1  0  0  0  0
 22 41  1  0  0  0  0
 23 24  1  0  0  0  0
 23 42  1  0  0  0  0
 24 26  1  0  0  0  0
 24 43  1  0  0  0  0
 26 44  1  0  0  0  0
 26 45  1  0  0  0  0
M  END
> <PUBCHEM_COMPOUND_CID>
89640

> <PUBCHEM_CONFORMER_RMSD>
0.8

> <PUBCHEM_CONFORMER_DIVERSEORDER>
1
53
46
55
13
59
7
11
23
79
38
61
8
33
75
24
20
31
9
34
43
25
83
21
82
62
69
84
6
60
78
72
27
77
57
70
73
37
56
68
3
80
71
28
40
5
4
47
63
51
2
32
49
26
76
35
18
19
52
74
10
39
85
12
67
50
41
15
17
48
22
64
36
65
42
16
44
66
54
30
14
45
58
29
81

> <PUBCHEM_MMFF94_PARTIAL_CHARGES>
29
1 -0.56
10 -0.68
12 0.14
14 0.28
16 0.56
17 -0.12
19 0.56
2 -0.36
20 -0.07
21 0.28
22 0.28
23 0.28
24 0.28
25 0.71
26 0.28
3 -0.68
38 0.15
4 -0.56
40 0.4
46 0.4
47 0.4
48 0.4
49 0.5
5 -0.68
50 0.4
6 -0.68
7 -0.68
8 -0.65
9 -0.57

> <PUBCHEM_EFFECTIVE_ROTOR_COUNT>
6.2

> <PUBCHEM_PHARMACOPHORE_FEATURES>
19
1 1 acceptor
1 10 acceptor
1 10 donor
1 2 acceptor
1 3 acceptor
1 3 donor
1 4 acceptor
1 5 acceptor
1 5 donor
1 6 acceptor
1 6 donor
1 7 acceptor
1 7 donor
1 8 acceptor
1 9 acceptor
3 8 9 25 anion
5 11 12 13 14 15 rings
6 2 11 12 16 17 20 rings
6 4 19 21 22 23 24 rings

> <PUBCHEM_HEAVY_ATOM_COUNT>
26

> <PUBCHEM_ATOM_DEF_STEREO_COUNT>
10

> <PUBCHEM_ATOM_UDEF_STEREO_COUNT>
0

> <PUBCHEM_BOND_DEF_STEREO_COUNT>
0

> <PUBCHEM_BOND_UDEF_STEREO_COUNT>
0

> <PUBCHEM_ISOTOPIC_ATOM_COUNT>
0

> <PUBCHEM_COMPONENT_COUNT>
1

> <PUBCHEM_CACTVS_TAUTO_COUNT>
1

> <PUBCHEM_CONFORMER_ID>
00015E2800000001

> <PUBCHEM_MMFF94_ENERGY>
76.3739

> <PUBCHEM_FEATURE_SELFOVERLAP>
96.816

> <PUBCHEM_SHAPE_FINGERPRINT>
10319926 262 18271261460330598056
10366900 7 18411140255436553804
1100329 8 16680348725357005128
11370993 144 18188196680681813825
11405975 8 18411983576454485288
11545043 162 18343863295201617434
11578080 2 18261664888235990057
12236239 1 15123787409826775492
12403259 415 18335698287583782480
12788726 201 17899419967383919257
13224815 77 17967809440460444934
133893 2 15576103493706511037
13583140 156 18261110768544957174
14178342 30 17988923383475713019
14251764 38 18270965648257570268
15375358 24 18410294747937344870
15961568 22 17916025655755762052
17349148 13 16128381436918425298
17980427 23 17560235817414405068
200 152 17458350770368826591
20645477 56 18342458188008315005
20645477 70 17604431937376244718
20681677 76 18335701620182855592
21033648 29 18189349991423971816
21065198 57 18410856585678644828
21065201 7 18060139838470737458
221490 88 18334852819023966398
22393880 68 18412542150105867814
23557571 272 18201717302096141363
23559900 14 18412546526608567876
3380486 145 18191297187972235921
4015057 19 18114760286315467821
4073 2 18343018900441868258
469060 322 17684671834422417295
4921388 177 18060133237259198611
5104073 3 18411421691784946080
5283173 99 18411706512546675117
6913067 236 18046079158925365330
7399639 24 18192436260053483152
9709674 26 18408887355831510039

> <PUBCHEM_SHAPE_MULTIPOLES>
476.37
11.02
3.33
1.36
7.31
0.53
0.38
0.44
-0.6
-1.92
0.33
-0.2
-0.35
3.35

> <PUBCHEM_SHAPE_SELFOVERLAP>
1005.669

> <PUBCHEM_SHAPE_VOLUME>
261.5

> <PUBCHEM_COORDINATE_TYPE>
2
5
10

$$$$

