9433
  -OEChem-06261203422D

 54 55  0     0  0  0  0  0  0999 V2000
    7.9379    4.6200    0.0000 O   0  0  0  0  0  0  0  0  0  0  0  0
    7.9379   11.2369    0.0000 O   0  0  0  0  0  0  0  0  0  0  0  0
    6.2058    1.6200    0.0000 O   0  0  0  0  0  0  0  0  0  0  0  0
    6.2058    8.2369    0.0000 O   0  0  0  0  0  0  0  0  0  0  0  0
    7.9379    1.6200    0.0000 N   0  0  0  0  0  0  0  0  0  0  0  0
    7.9379    8.2369    0.0000 N   0  0  0  0  0  0  0  0  0  0  0  0
    7.0718    3.1200    0.0000 N   0  0  0  0  0  0  0  0  0  0  0  0
    7.0718    9.7369    0.0000 N   0  0  0  0  0  0  0  0  0  0  0  0
    9.7501    3.4247    0.0000 N   0  0  0  0  0  0  0  0  0  0  0  0
    9.7501   10.0417    0.0000 N   0  0  0  0  0  0  0  0  0  0  0  0
    9.7501    8.4322    0.0000 N   0  0  0  0  0  0  0  0  0  0  0  0
    9.7501    1.8153    0.0000 N   0  0  0  0  0  0  0  0  0  0  0  0
    0.5369    5.3685    0.0000 N   0  0  0  0  0  0  0  0  0  0  0  0
    3.1350    5.8685    0.0000 N   0  0  0  0  0  0  0  0  0  0  0  0
    8.8039    2.1200    0.0000 C   0  0  0  0  0  0  0  0  0  0  0  0
    8.8039    8.7369    0.0000 C   0  0  0  0  0  0  0  0  0  0  0  0
    8.8039    3.1200    0.0000 C   0  0  0  0  0  0  0  0  0  0  0  0
    8.8039    9.7369    0.0000 C   0  0  0  0  0  0  0  0  0  0  0  0
    7.9379    3.6200    0.0000 C   0  0  0  0  0  0  0  0  0  0  0  0
    7.9379   10.2369    0.0000 C   0  0  0  0  0  0  0  0  0  0  0  0
    7.0718    2.1200    0.0000 C   0  0  0  0  0  0  0  0  0  0  0  0
    7.0718    8.7369    0.0000 C   0  0  0  0  0  0  0  0  0  0  0  0
    7.9379    0.6200    0.0000 C   0  0  0  0  0  0  0  0  0  0  0  0
    7.9379    7.2369    0.0000 C   0  0  0  0  0  0  0  0  0  0  0  0
    6.2058    3.6200    0.0000 C   0  0  0  0  0  0  0  0  0  0  0  0
    6.2058   10.2369    0.0000 C   0  0  0  0  0  0  0  0  0  0  0  0
   10.3337    2.6200    0.0000 C   0  0  0  0  0  0  0  0  0  0  0  0
   10.3337    9.2369    0.0000 C   0  0  0  0  0  0  0  0  0  0  0  0
    1.4030    5.8685    0.0000 C   0  0  0  0  0  0  0  0  0  0  0  0
    2.2690    5.3685    0.0000 C   0  0  0  0  0  0  0  0  0  0  0  0
    9.9427    4.0140    0.0000 H   0  0  0  0  0  0  0  0  0  0  0  0
    9.9427   10.6310    0.0000 H   0  0  0  0  0  0  0  0  0  0  0  0
    7.3179    0.6200    0.0000 H   0  0  0  0  0  0  0  0  0  0  0  0
    7.9379    0.0000    0.0000 H   0  0  0  0  0  0  0  0  0  0  0  0
    8.5579    0.6200    0.0000 H   0  0  0  0  0  0  0  0  0  0  0  0
    7.3179    7.2369    0.0000 H   0  0  0  0  0  0  0  0  0  0  0  0
    7.9379    6.6169    0.0000 H   0  0  0  0  0  0  0  0  0  0  0  0
    8.5579    7.2369    0.0000 H   0  0  0  0  0  0  0  0  0  0  0  0
    6.5158   10.7739    0.0000 H   0  0  0  0  0  0  0  0  0  0  0  0
    5.6689   10.5469    0.0000 H   0  0  0  0  0  0  0  0  0  0  0  0
    5.8958    9.7000    0.0000 H   0  0  0  0  0  0  0  0  0  0  0  0
    6.5158    4.1569    0.0000 H   0  0  0  0  0  0  0  0  0  0  0  0
    5.6689    3.9300    0.0000 H   0  0  0  0  0  0  0  0  0  0  0  0
    5.8958    3.0831    0.0000 H   0  0  0  0  0  0  0  0  0  0  0  0
   10.9537    2.6200    0.0000 H   0  0  0  0  0  0  0  0  0  0  0  0
   10.9537    9.2369    0.0000 H   0  0  0  0  0  0  0  0  0  0  0  0
    1.8015    6.3434    0.0000 H   0  0  0  0  0  0  0  0  0  0  0  0
    1.0044    6.3434    0.0000 H   0  0  0  0  0  0  0  0  0  0  0  0
    1.8705    4.8935    0.0000 H   0  0  0  0  0  0  0  0  0  0  0  0
    2.6675    4.8935    0.0000 H   0  0  0  0  0  0  0  0  0  0  0  0
    0.0000    5.6785    0.0000 H   0  0  0  0  0  0  0  0  0  0  0  0
    0.5369    4.7485    0.0000 H   0  0  0  0  0  0  0  0  0  0  0  0
    3.6720    5.5585    0.0000 H   0  0  0  0  0  0  0  0  0  0  0  0
    3.1350    6.4885    0.0000 H   0  0  0  0  0  0  0  0  0  0  0  0
  1 19  2  0  0  0  0
  2 20  2  0  0  0  0
  3 21  2  0  0  0  0
  4 22  2  0  0  0  0
  5 15  1  0  0  0  0
  5 21  1  0  0  0  0
  5 23  1  0  0  0  0
  6 16  1  0  0  0  0
  6 22  1  0  0  0  0
  6 24  1  0  0  0  0
  7 19  1  0  0  0  0
  7 21  1  0  0  0  0
  7 25  1  0  0  0  0
  8 20  1  0  0  0  0
  8 22  1  0  0  0  0
  8 26  1  0  0  0  0
  9 17  1  0  0  0  0
  9 27  1  0  0  0  0
  9 31  1  0  0  0  0
 10 18  1  0  0  0  0
 10 28  1  0  0  0  0
 10 32  1  0  0  0  0
 11 16  1  0  0  0  0
 11 28  2  0  0  0  0
 12 15  1  0  0  0  0
 12 27  2  0  0  0  0
 13 29  1  0  0  0  0
 13 51  1  0  0  0  0
 13 52  1  0  0  0  0
 14 30  1  0  0  0  0
 14 53  1  0  0  0  0
 14 54  1  0  0  0  0
 15 17  2  0  0  0  0
 16 18  2  0  0  0  0
 17 19  1  0  0  0  0
 18 20  1  0  0  0  0
 23 33  1  0  0  0  0
 23 34  1  0  0  0  0
 23 35  1  0  0  0  0
 24 36  1  0  0  0  0
 24 37  1  0  0  0  0
 24 38  1  0  0  0  0
 25 42  1  0  0  0  0
 25 43  1  0  0  0  0
 25 44  1  0  0  0  0
 26 39  1  0  0  0  0
 26 40  1  0  0  0  0
 26 41  1  0  0  0  0
 27 45  1  0  0  0  0
 28 46  1  0  0  0  0
 29 30  1  0  0  0  0
 29 47  1  0  0  0  0
 29 48  1  0  0  0  0
 30 49  1  0  0  0  0
 30 50  1  0  0  0  0
M  END
> <PUBCHEM_COMPOUND_CID>
9433

> <PUBCHEM_COMPOUND_CANONICALIZED>
1

> <PUBCHEM_CACTVS_COMPLEXITY>
273

> <PUBCHEM_CACTVS_HBOND_ACCEPTOR>
8

> <PUBCHEM_CACTVS_HBOND_DONOR>
4

> <PUBCHEM_CACTVS_ROTATABLE_BOND>
1

> <PUBCHEM_CACTVS_SUBSKEYS>
AAADceB7+AAAAAAAAAAAAAAAAAAAAWLAAAAsWAAAAAAAAFgB4AAAHgAQAAAACAjBlgQHsBfJkACoAQdxdACAgC2XEKABUYGoVECASAhASCAUAIgIFyJAAGAAAAAAAAAAAAAAAAAAAAAAAAAAAAAAAAAAAA==

> <PUBCHEM_IUPAC_OPENEYE_NAME>
1,3-dimethyl-7H-purine-2,6-dione; ethane-1,2-diamine

> <PUBCHEM_IUPAC_CAS_NAME>
1,3-dimethyl-7H-purine-2,6-dione; ethane-1,2-diamine

> <PUBCHEM_IUPAC_NAME>
1,3-dimethyl-7H-purine-2,6-dione; ethane-1,2-diamine

> <PUBCHEM_IUPAC_SYSTEMATIC_NAME>
1,3-dimethyl-7H-purine-2,6-dione; ethane-1,2-diamine

> <PUBCHEM_IUPAC_TRADITIONAL_NAME>
2-aminoethylamine; theophylline

> <PUBCHEM_IUPAC_INCHI>
InChI=1S/2C7H8N4O2.C2H8N2/c2*1-10-5-4(8-3-9-5)6(12)11(2)7(10)13;3-1-2-4/h2*3H,1-2H3,(H,8,9);1-4H2

> <PUBCHEM_IUPAC_INCHIKEY>
FQPFAHBPWDRTLU-UHFFFAOYSA-N

> <PUBCHEM_EXACT_MASS>
420.198199

> <PUBCHEM_MOLECULAR_FORMULA>
C16H24N10O4

> <PUBCHEM_MOLECULAR_WEIGHT>
420.42636

> <PUBCHEM_OPENEYE_CAN_SMILES>
CN1C2=C(C(=O)N(C1=O)C)NC=N2.CN1C2=C(C(=O)N(C1=O)C)NC=N2.C(CN)N

> <PUBCHEM_OPENEYE_ISO_SMILES>
CN1C2=C(C(=O)N(C1=O)C)NC=N2.CN1C2=C(C(=O)N(C1=O)C)NC=N2.C(CN)N

> <PUBCHEM_CACTVS_TPSA>
191

> <PUBCHEM_MONOISOTOPIC_WEIGHT>
420.198199

> <PUBCHEM_TOTAL_CHARGE>
0

> <PUBCHEM_HEAVY_ATOM_COUNT>
30

> <PUBCHEM_ATOM_DEF_STEREO_COUNT>
0

> <PUBCHEM_ATOM_UDEF_STEREO_COUNT>
0

> <PUBCHEM_BOND_DEF_STEREO_COUNT>
0

> <PUBCHEM_BOND_UDEF_STEREO_COUNT>
0

> <PUBCHEM_ISOTOPIC_ATOM_COUNT>
0

> <PUBCHEM_COMPONENT_COUNT>
3

> <PUBCHEM_CACTVS_TAUTO_COUNT>
10

> <PUBCHEM_COORDINATE_TYPE>
1
5
255

> <PUBCHEM_BONDANNOTATIONS>
10  18  8
10  28  8
11  16  8
11  28  8
12  15  8
12  27  8
15  17  8
16  18  8
17  19  8
18  20  8
5  15  8
5  21  8
6  16  8
6  22  8
7  19  8
7  21  8
8  20  8
8  22  8
9  17  8
9  27  8

$$$$

