12226
  -OEChem-06261206413D

  9  8  0     0  0  0  0  0  0999 V2000
   -0.6411   -0.1366    0.0001 N   0  3  0  0  0  0  0  0  0  0  0  0
    0.6926   -0.6438   -0.0001 C   0  0  0  0  0  0  0  0  0  0  0  0
    1.6832    0.5009    0.0000 C   0  0  0  0  0  0  0  0  0  0  0  0
   -1.7346    0.2795   -0.0001 C   0  5  0  0  0  0  0  0  0  0  0  0
    0.8365   -1.2707    0.8862 H   0  0  0  0  0  0  0  0  0  0  0  0
    0.8364   -1.2705   -0.8864 H   0  0  0  0  0  0  0  0  0  0  0  0
    2.7091    0.1208   -0.0001 H   0  0  0  0  0  0  0  0  0  0  0  0
    1.5499    1.1332   -0.8840 H   0  0  0  0  0  0  0  0  0  0  0  0
    1.5500    1.1329    0.8843 H   0  0  0  0  0  0  0  0  0  0  0  0
  1  2  1  0  0  0  0
  1  4  3  0  0  0  0
  2  3  1  0  0  0  0
  2  5  1  0  0  0  0
  2  6  1  0  0  0  0
  3  7  1  0  0  0  0
  3  8  1  0  0  0  0
  3  9  1  0  0  0  0
M  CHG  2   1   1   4  -1
M  END
> <PUBCHEM_COMPOUND_CID>
12226

> <PUBCHEM_CONFORMER_RMSD>
0.4

> <PUBCHEM_CONFORMER_DIVERSEORDER>
1

> <PUBCHEM_MMFF94_PARTIAL_CHARGES>
3
1 0.1
2 0.27
4 -0.37

> <PUBCHEM_EFFECTIVE_ROTOR_COUNT>
0

> <PUBCHEM_PHARMACOPHORE_FEATURES>
0

> <PUBCHEM_HEAVY_ATOM_COUNT>
4

> <PUBCHEM_ATOM_DEF_STEREO_COUNT>
0

> <PUBCHEM_ATOM_UDEF_STEREO_COUNT>
0

> <PUBCHEM_BOND_DEF_STEREO_COUNT>
0

> <PUBCHEM_BOND_UDEF_STEREO_COUNT>
0

> <PUBCHEM_ISOTOPIC_ATOM_COUNT>
0

> <PUBCHEM_COMPONENT_COUNT>
1

> <PUBCHEM_CACTVS_TAUTO_COUNT>
1

> <PUBCHEM_CONFORMER_ID>
00002FC200000001

> <PUBCHEM_MMFF94_ENERGY>
-1.8696

> <PUBCHEM_FEATURE_SELFOVERLAP>
0

> <PUBCHEM_SHAPE_FINGERPRINT>
139733 1 9294415327300675522
20096714 4 18409448059633209720
21015797 1 10086765174716840306
5460574 1 9223234048187726913

> <PUBCHEM_SHAPE_MULTIPOLES>
77.34
2.36
0.8
0.6
0.27
0.03
0
-0.49
0
-0.16
0
-0.01
0
0

> <PUBCHEM_SHAPE_SELFOVERLAP>
127.141

> <PUBCHEM_SHAPE_VOLUME>
53.7

> <PUBCHEM_COORDINATE_TYPE>
2
5
10

$$$$

