12655
  -OEChem-06261207123D

 32 32  0     1  0  0  0  0  0999 V2000
    1.8348   -0.5326    0.8632 O   0  0  0  0  0  0  0  0  0  0  0  0
    2.2424    0.6306   -1.1083 O   0  0  0  0  0  0  0  0  0  0  0  0
    3.8413    0.5410    0.5703 N   0  0  0  0  0  0  0  0  0  0  0  0
   -2.9152    0.5179    0.4011 C   0  0  1  0  0  0  0  0  0  0  0  0
   -2.7426    1.9360   -0.1801 C   0  0  0  0  0  0  0  0  0  0  0  0
   -1.7252   -0.3870    0.1313 C   0  0  0  0  0  0  0  0  0  0  0  0
   -3.2043    0.5905    1.9053 C   0  0  0  0  0  0  0  0  0  0  0  0
   -2.6289    1.9501   -1.6997 C   0  0  0  0  0  0  0  0  0  0  0  0
   -0.4873   -0.0320    0.6304 C   0  0  0  0  0  0  0  0  0  0  0  0
   -1.9144   -1.5397   -0.6055 C   0  0  0  0  0  0  0  0  0  0  0  0
    0.6052   -0.8631    0.3827 C   0  0  0  0  0  0  0  0  0  0  0  0
   -0.8219   -2.3707   -0.8533 C   0  0  0  0  0  0  0  0  0  0  0  0
    0.4380   -2.0324   -0.3592 C   0  0  0  0  0  0  0  0  0  0  0  0
    2.6176    0.2578   -0.0006 C   0  0  0  0  0  0  0  0  0  0  0  0
    4.8604    1.3336   -0.0775 C   0  0  0  0  0  0  0  0  0  0  0  0
   -3.8066    0.0786   -0.0679 H   0  0  0  0  0  0  0  0  0  0  0  0
   -1.8668    2.4369    0.2490 H   0  0  0  0  0  0  0  0  0  0  0  0
   -3.6133    2.5428    0.0993 H   0  0  0  0  0  0  0  0  0  0  0  0
   -2.4001    1.0886    2.4577 H   0  0  0  0  0  0  0  0  0  0  0  0
   -4.1274    1.1505    2.0915 H   0  0  0  0  0  0  0  0  0  0  0  0
   -3.3321   -0.4116    2.3301 H   0  0  0  0  0  0  0  0  0  0  0  0
   -2.5907    2.9821   -2.0630 H   0  0  0  0  0  0  0  0  0  0  0  0
   -1.7203    1.4447   -2.0405 H   0  0  0  0  0  0  0  0  0  0  0  0
   -3.4919    1.4609   -2.1624 H   0  0  0  0  0  0  0  0  0  0  0  0
   -0.3443    0.8753    1.2098 H   0  0  0  0  0  0  0  0  0  0  0  0
   -2.8899   -1.8134   -0.9957 H   0  0  0  0  0  0  0  0  0  0  0  0
   -0.9520   -3.2811   -1.4311 H   0  0  0  0  0  0  0  0  0  0  0  0
    1.2848   -2.6843   -0.5559 H   0  0  0  0  0  0  0  0  0  0  0  0
    4.0365    0.1714    1.4956 H   0  0  0  0  0  0  0  0  0  0  0  0
    5.7529    0.7138   -0.1916 H   0  0  0  0  0  0  0  0  0  0  0  0
    5.0917    2.1847    0.5675 H   0  0  0  0  0  0  0  0  0  0  0  0
    4.5279    1.6888   -1.0556 H   0  0  0  0  0  0  0  0  0  0  0  0
  1 11  1  0  0  0  0
  1 14  1  0  0  0  0
  2 14  2  0  0  0  0
  3 14  1  0  0  0  0
  3 15  1  0  0  0  0
  3 29  1  0  0  0  0
  4  5  1  0  0  0  0
  4  6  1  0  0  0  0
  4  7  1  0  0  0  0
  4 16  1  0  0  0  0
  5  8  1  0  0  0  0
  5 17  1  0  0  0  0
  5 18  1  0  0  0  0
  6  9  2  0  0  0  0
  6 10  1  0  0  0  0
  7 19  1  0  0  0  0
  7 20  1  0  0  0  0
  7 21  1  0  0  0  0
  8 22  1  0  0  0  0
  8 23  1  0  0  0  0
  8 24  1  0  0  0  0
  9 11  1  0  0  0  0
  9 25  1  0  0  0  0
 10 12  2  0  0  0  0
 10 26  1  0  0  0  0
 11 13  2  0  0  0  0
 12 13  1  0  0  0  0
 12 27  1  0  0  0  0
 13 28  1  0  0  0  0
 15 30  1  0  0  0  0
 15 31  1  0  0  0  0
 15 32  1  0  0  0  0
M  END
> <PUBCHEM_COMPOUND_CID>
12655

> <PUBCHEM_CONFORMER_RMSD>
0.6

> <PUBCHEM_CONFORMER_DIVERSEORDER>
1
221
173
177
137
87
16
289
295
191
25
113
310
273
187
195
147
140
83
268
46
233
158
193
149
260
110
279
144
172
109
56
168
281
267
120
198
215
57
157
290
280
4
313
248
219
30
264
77
263
259
63
61
236
287
23
200
97
15
153
125
60
220
107
115
305
104
251
29
8
101
139
218
138
68
39
189
142
24
283
36
108
131
231
306
258
41
309
210
32
171
145
197
27
11
55
297
100
203
89
243
58
93
201
150
54
135
166
213
37
293
190
127
74
282
246
105
194
126
299
301
265
141
288
38
148
78
103
303
255
185
242
169
6
146
307
49
232
116
214
164
91
170
134
269
180
20
284
50
178
81
33
207
238
229
314
237
19
163
35
245
114
51
106
165
274
129
253
199
186
184
96
122
234
179
276
95
82
176
28
205
300
298
75
133
217
62
102
294
223
192
226
132
123
212
70
183
275
117
308
271
99
285
40
79
111
302
34
216
202
42
182
143
241
312
48
52
88
14
257
76
261
121
174
80
262
204
65
277
84
188
5
3
112
249
18
247
44
152
124
21
167
272
291
43
64
154
17
292
130
94
208
161
250
85
239
196
13
128
119
7
22
98
286
73
71
156
136
10
2
311
47
53
230
266
69
12
9
31
59
45
162
92
278
72
159
222
118
181
175
211
270
90
67
254
227
252
66
296
256
228
209
155
160
86
235
206
151
244
240
225
26
224
304

> <PUBCHEM_MMFF94_PARTIAL_CHARGES>
17
1 -0.23
10 -0.15
11 0.08
12 -0.15
13 -0.15
14 0.78
15 0.3
2 -0.57
25 0.15
26 0.15
27 0.15
28 0.15
29 0.37
3 -0.73
4 0.14
6 -0.14
9 -0.15

> <PUBCHEM_EFFECTIVE_ROTOR_COUNT>
5

> <PUBCHEM_PHARMACOPHORE_FEATURES>
5
1 2 acceptor
1 3 donor
1 7 hydrophobe
1 8 hydrophobe
6 6 9 10 11 12 13 rings

> <PUBCHEM_HEAVY_ATOM_COUNT>
15

> <PUBCHEM_ATOM_DEF_STEREO_COUNT>
0

> <PUBCHEM_ATOM_UDEF_STEREO_COUNT>
1

> <PUBCHEM_BOND_DEF_STEREO_COUNT>
0

> <PUBCHEM_BOND_UDEF_STEREO_COUNT>
0

> <PUBCHEM_ISOTOPIC_ATOM_COUNT>
0

> <PUBCHEM_COMPONENT_COUNT>
1

> <PUBCHEM_CACTVS_TAUTO_COUNT>
2

> <PUBCHEM_CONFORMER_ID>
0000316F00000001

> <PUBCHEM_MMFF94_ENERGY>
34.4499

> <PUBCHEM_FEATURE_SELFOVERLAP>
25.371

> <PUBCHEM_SHAPE_FINGERPRINT>
11206711 2 18042707038810596591
11221954 11 17769099286740153589
11543360 7 14346090689254228576
12138202 97 17748829583675784238
12173636 292 17822282509493071609
12202030 40 7419784269078959701
12403814 3 18271522014252518969
12892183 10 17203609289754503928
13675066 3 18131631197263939360
14614273 12 18408889520853996103
15279308 16 18059572563617182777
15342168 16 18189045564126128833
15375462 478 17561076995227915237
15775835 57 18410573985272848584
16945 1 18060125536224509747
1741750 31 18114178631605074578
17834072 32 18411985771151748484
18186145 218 18113890598413502820
20645477 56 18262231128112805800
21296965 12 18271530896234194605
21524375 3 18410009927133780603
22959321 28 17917136239370525425
23402539 116 18116722798438223839
23419403 2 14946532133883690867
23557571 272 17677603164704383164
25 1 17676762166878689226
27216 239 18202846565084150553
2748010 2 18125712637561092085
305870 269 18271812366736992602
4175511 318 18334577910646095516
6049 1 17768788090789577667
633830 44 17604416530853786528
81228 2 18046069250684194371

> <PUBCHEM_SHAPE_MULTIPOLES>
291.97
6.85
2.27
1.31
8.04
0.64
-0.05
-5.08
-0.69
-1
0.95
-1.16
-0.43
0.1

> <PUBCHEM_SHAPE_SELFOVERLAP>
591.32

> <PUBCHEM_SHAPE_VOLUME>
169.6

> <PUBCHEM_COORDINATE_TYPE>
2
5
10

$$$$

