255702
  -OEChem-07051213063D

 52 55  0     1  0  0  0  0  0999 V2000
   -4.3888   -0.7170    0.1266 O   0  0  0  0  0  0  0  0  0  0  0  0
    4.5949    0.8104    0.0681 O   0  0  0  0  0  0  0  0  0  0  0  0
    6.5673   -0.2127   -0.4000 O   0  0  0  0  0  0  0  0  0  0  0  0
   -5.8818    0.4536   -1.1918 O   0  0  0  0  0  0  0  0  0  0  0  0
   -1.1342    0.8877   -0.2161 C   0  0  2  0  0  0  0  0  0  0  0  0
   -1.9533   -0.3421    0.2258 C   0  0  2  0  0  0  0  0  0  0  0  0
    0.3039    0.8605    0.3116 C   0  0  1  0  0  0  0  0  0  0  0  0
    1.0107   -0.4232   -0.2450 C   0  0  1  0  0  0  0  0  0  0  0  0
    2.5101   -0.4907    0.2056 C   0  0  1  0  0  0  0  0  0  0  0  0
   -1.2897   -1.5947   -0.3620 C   0  0  0  0  0  0  0  0  0  0  0  0
    0.1876   -1.7047    0.0602 C   0  0  0  0  0  0  0  0  0  0  0  0
   -3.3103    0.0264   -0.4078 C   0  0  2  0  0  0  0  0  0  0  0  0
   -2.0392    2.0648    0.1386 C   0  0  0  0  0  0  0  0  0  0  0  0
    1.0688    2.1388   -0.0658 C   0  0  0  0  0  0  0  0  0  0  0  0
   -3.4609    1.5351   -0.1255 C   0  0  0  0  0  0  0  0  0  0  0  0
    3.1915    0.8185   -0.2574 C   0  0  1  0  0  0  0  0  0  0  0  0
    2.5407    2.0675    0.3282 C   0  0  0  0  0  0  0  0  0  0  0  0
   -2.1005   -0.5057    1.7598 C   0  0  0  0  0  0  0  0  0  0  0  0
    2.6496   -0.7233    1.7277 C   0  0  0  0  0  0  0  0  0  0  0  0
    3.2977   -1.5871   -0.4826 C   0  0  0  0  0  0  0  0  0  0  0  0
    4.5985   -1.4525   -0.7734 C   0  0  0  0  0  0  0  0  0  0  0  0
    5.3423   -0.2414   -0.3687 C   0  0  0  0  0  0  0  0  0  0  0  0
   -5.6335   -0.4026   -0.3537 C   0  0  0  0  0  0  0  0  0  0  0  0
   -6.6713   -1.2655    0.2976 C   0  0  0  0  0  0  0  0  0  0  0  0
   -1.0650    0.8819   -1.3171 H   0  0  0  0  0  0  0  0  0  0  0  0
    0.2778    0.8161    1.4056 H   0  0  0  0  0  0  0  0  0  0  0  0
    1.0142   -0.3307   -1.3432 H   0  0  0  0  0  0  0  0  0  0  0  0
   -1.3361   -1.5660   -1.4585 H   0  0  0  0  0  0  0  0  0  0  0  0
   -1.8294   -2.4985   -0.0545 H   0  0  0  0  0  0  0  0  0  0  0  0
    0.2368   -1.9433    1.1271 H   0  0  0  0  0  0  0  0  0  0  0  0
    0.6186   -2.5633   -0.4656 H   0  0  0  0  0  0  0  0  0  0  0  0
   -3.2690   -0.1425   -1.4932 H   0  0  0  0  0  0  0  0  0  0  0  0
   -1.8229    2.9473   -0.4721 H   0  0  0  0  0  0  0  0  0  0  0  0
   -1.9282    2.3536    1.1897 H   0  0  0  0  0  0  0  0  0  0  0  0
    0.6131    3.0089    0.4208 H   0  0  0  0  0  0  0  0  0  0  0  0
    0.9953    2.3081   -1.1477 H   0  0  0  0  0  0  0  0  0  0  0  0
   -4.1113    1.7418    0.7320 H   0  0  0  0  0  0  0  0  0  0  0  0
   -3.8924    2.0477   -0.9925 H   0  0  0  0  0  0  0  0  0  0  0  0
    3.1286    0.9110   -1.3532 H   0  0  0  0  0  0  0  0  0  0  0  0
    3.0649    2.9607   -0.0334 H   0  0  0  0  0  0  0  0  0  0  0  0
    2.6509    2.0879    1.4187 H   0  0  0  0  0  0  0  0  0  0  0  0
   -1.1388   -0.6097    2.2690 H   0  0  0  0  0  0  0  0  0  0  0  0
   -2.6150    0.3421    2.2231 H   0  0  0  0  0  0  0  0  0  0  0  0
   -2.6839   -1.4031    1.9968 H   0  0  0  0  0  0  0  0  0  0  0  0
    2.2888   -1.7169    2.0168 H   0  0  0  0  0  0  0  0  0  0  0  0
    3.6937   -0.6633    2.0564 H   0  0  0  0  0  0  0  0  0  0  0  0
    2.0930    0.0103    2.3168 H   0  0  0  0  0  0  0  0  0  0  0  0
    2.8105   -2.5248   -0.7285 H   0  0  0  0  0  0  0  0  0  0  0  0
    5.1543   -2.2568   -1.2414 H   0  0  0  0  0  0  0  0  0  0  0  0
   -6.6664   -1.0983    1.3776 H   0  0  0  0  0  0  0  0  0  0  0  0
   -6.4751   -2.3161    0.0694 H   0  0  0  0  0  0  0  0  0  0  0  0
   -7.6590   -1.0021   -0.0917 H   0  0  0  0  0  0  0  0  0  0  0  0
  1 12  1  0  0  0  0
  1 23  1  0  0  0  0
  2 16  1  0  0  0  0
  2 22  1  0  0  0  0
  3 22  2  0  0  0  0
  4 23  2  0  0  0  0
  5  6  1  0  0  0  0
  5  7  1  0  0  0  0
  5 13  1  0  0  0  0
  5 25  1  0  0  0  0
  6 10  1  0  0  0  0
  6 12  1  0  0  0  0
  6 18  1  0  0  0  0
  7  8  1  0  0  0  0
  7 14  1  0  0  0  0
  7 26  1  0  0  0  0
  8  9  1  0  0  0  0
  8 11  1  0  0  0  0
  8 27  1  0  0  0  0
  9 16  1  0  0  0  0
  9 19  1  0  0  0  0
  9 20  1  0  0  0  0
 10 11  1  0  0  0  0
 10 28  1  0  0  0  0
 10 29  1  0  0  0  0
 11 30  1  0  0  0  0
 11 31  1  0  0  0  0
 12 15  1  0  0  0  0
 12 32  1  0  0  0  0
 13 15  1  0  0  0  0
 13 33  1  0  0  0  0
 13 34  1  0  0  0  0
 14 17  1  0  0  0  0
 14 35  1  0  0  0  0
 14 36  1  0  0  0  0
 15 37  1  0  0  0  0
 15 38  1  0  0  0  0
 16 17  1  0  0  0  0
 16 39  1  0  0  0  0
 17 40  1  0  0  0  0
 17 41  1  0  0  0  0
 18 42  1  0  0  0  0
 18 43  1  0  0  0  0
 18 44  1  0  0  0  0
 19 45  1  0  0  0  0
 19 46  1  0  0  0  0
 19 47  1  0  0  0  0
 20 21  2  0  0  0  0
 20 48  1  0  0  0  0
 21 22  1  0  0  0  0
 21 49  1  0  0  0  0
 23 24  1  0  0  0  0
 24 50  1  0  0  0  0
 24 51  1  0  0  0  0
 24 52  1  0  0  0  0
M  END
> <PUBCHEM_COMPOUND_CID>
255702

> <PUBCHEM_CONFORMER_RMSD>
0.6

> <PUBCHEM_CONFORMER_DIVERSEORDER>
1
2

> <PUBCHEM_MMFF94_PARTIAL_CHARGES>
14
1 -0.43
12 0.28
16 0.28
2 -0.43
20 -0.29
21 -0.14
22 0.71
23 0.66
24 0.06
3 -0.57
4 -0.57
48 0.15
49 0.15
9 0.14

> <PUBCHEM_EFFECTIVE_ROTOR_COUNT>
3.6

> <PUBCHEM_PHARMACOPHORE_FEATURES>
6
1 3 acceptor
1 4 acceptor
5 5 6 12 13 15 rings
6 2 9 16 20 21 22 rings
6 5 6 7 8 10 11 rings
6 7 8 9 14 16 17 rings

> <PUBCHEM_HEAVY_ATOM_COUNT>
24

> <PUBCHEM_ATOM_DEF_STEREO_COUNT>
7

> <PUBCHEM_ATOM_UDEF_STEREO_COUNT>
0

> <PUBCHEM_BOND_DEF_STEREO_COUNT>
0

> <PUBCHEM_BOND_UDEF_STEREO_COUNT>
0

> <PUBCHEM_ISOTOPIC_ATOM_COUNT>
0

> <PUBCHEM_COMPONENT_COUNT>
1

> <PUBCHEM_CACTVS_TAUTO_COUNT>
1

> <PUBCHEM_CONFORMER_ID>
0003E6D600000001

> <PUBCHEM_MMFF94_ENERGY>
81.9909

> <PUBCHEM_FEATURE_SELFOVERLAP>
30.544

> <PUBCHEM_SHAPE_FINGERPRINT>
10 15 18339369565994896176
10366900 7 17846494846183962489
11089746 13 13398627234385480927
11315181 36 17988635290376320868
11578080 2 16590011303783360250
11963148 33 18410018710743815191
12011746 2 18342738524396335294
12166972 35 17822009796017673048
12236239 1 17775288287141747322
12403259 415 18040726882513887201
12516196 113 18187366532291772672
12788726 201 18341618160934842553
13288520 33 18334012800730312605
13402501 40 18411699889442951556
13533116 47 17749108863929409848
13583140 156 16988838376344479953
13685833 64 18333447647068336710
13862211 1 18410294735099980430
15099037 51 18411418414455684845
15142383 8 13840259325434705307
15183329 4 18272660082097246565
15196674 1 18337390547120591148
17349148 13 17603301553249075405
18681886 176 18409172086546684592
200 152 18040435503722165905
20028762 73 18113904827678026943
20645477 70 18411700963290536804
21150785 3 14405182838388882659
21236236 1 18334855069639947281
21267235 1 18408879633459193135
21279426 13 18267585899736805135
21285901 2 18337950207619402022
21682296 61 18115296912050452414
221357 26 18408324401599211828
22393880 68 18271251624275292837
23402539 116 18259706713877124773
23522609 53 18119778440136690329
23559900 14 18412267198957243145
2871803 45 18272090508613080336
3004659 81 18272655631735745749
335352 9 18409729530172450823
34797466 226 17385998443740107412
350125 39 18408884057666339777
3545911 37 18335420158186115806
4340502 62 16415479358948320362
46194498 28 18201718436184169220
465052 167 18260824878257652175
474 4 17417520312410604004
484989 97 18198898115976601371
5104073 3 18261958560418258857
542803 24 14189576342842914191
9709674 26 18340485556330466019

> <PUBCHEM_SHAPE_MULTIPOLES>
470.43
13.36
2
1
5.87
0.64
-0.38
-3.45
2.59
-0.24
0.05
0.08
-0.19
0.51

> <PUBCHEM_SHAPE_SELFOVERLAP>
1008.203

> <PUBCHEM_SHAPE_VOLUME>
257.5

> <PUBCHEM_COORDINATE_TYPE>
2
5
10

$$$$

