27423
  -OEChem-07051213053D

 41 40  0     0  0  0  0  0  0999 V2000
   -2.4476   -0.8201    0.1666 O   0  0  0  0  0  0  0  0  0  0  0  0
    2.4572   -0.8208    0.1791 O   0  0  0  0  0  0  0  0  0  0  0  0
    0.0048    1.5744   -0.0211 O   0  0  0  0  0  0  0  0  0  0  0  0
   -3.7057   -1.2227   -1.7295 O   0  0  0  0  0  0  0  0  0  0  0  0
    3.7061   -1.2293   -1.7219 O   0  0  0  0  0  0  0  0  0  0  0  0
   -0.0121    3.2214    1.5998 O   0  0  0  0  0  0  0  0  0  0  0  0
   -0.0039   -0.8546    0.3455 C   0  0  0  0  0  0  0  0  0  0  0  0
   -0.0228   -1.8682    1.5290 C   0  0  0  0  0  0  0  0  0  0  0  0
   -1.2460   -1.0279   -0.5642 C   0  0  0  0  0  0  0  0  0  0  0  0
    1.2519   -1.0265   -0.5463 C   0  0  0  0  0  0  0  0  0  0  0  0
   -0.0092    0.5640    0.9797 C   0  0  0  0  0  0  0  0  0  0  0  0
   -0.0289   -3.3411    1.1383 C   0  0  0  0  0  0  0  0  0  0  0  0
   -3.6054   -0.9495   -0.5439 C   0  0  0  0  0  0  0  0  0  0  0  0
    3.6115   -0.9542   -0.5361 C   0  0  0  0  0  0  0  0  0  0  0  0
    0.0015    2.8607    0.4335 C   0  0  0  0  0  0  0  0  0  0  0  0
   -4.7351   -0.6981    0.3746 C   0  0  0  0  0  0  0  0  0  0  0  0
    4.7461   -0.7085    0.3779 C   0  0  0  0  0  0  0  0  0  0  0  0
    0.0153    3.7591   -0.7394 C   0  0  0  0  0  0  0  0  0  0  0  0
   -5.9911   -0.7619   -0.0767 C   0  0  0  0  0  0  0  0  0  0  0  0
    6.0000   -0.7802   -0.0778 C   0  0  0  0  0  0  0  0  0  0  0  0
    0.0134    5.0840   -0.5674 C   0  0  0  0  0  0  0  0  0  0  0  0
   -0.9019   -1.6814    2.1592 H   0  0  0  0  0  0  0  0  0  0  0  0
    0.8503   -1.6932    2.1710 H   0  0  0  0  0  0  0  0  0  0  0  0
   -1.2096   -0.3030   -1.3878 H   0  0  0  0  0  0  0  0  0  0  0  0
   -1.2599   -2.0287   -1.0118 H   0  0  0  0  0  0  0  0  0  0  0  0
    1.2195   -0.3053   -1.3736 H   0  0  0  0  0  0  0  0  0  0  0  0
    1.2668   -2.0280   -0.9927 H   0  0  0  0  0  0  0  0  0  0  0  0
    0.8707    0.6914    1.6234 H   0  0  0  0  0  0  0  0  0  0  0  0
   -0.9013    0.6964    1.6051 H   0  0  0  0  0  0  0  0  0  0  0  0
    0.8599   -3.6122    0.5622 H   0  0  0  0  0  0  0  0  0  0  0  0
   -0.0333   -3.9609    2.0414 H   0  0  0  0  0  0  0  0  0  0  0  0
   -0.9182   -3.6043    0.5595 H   0  0  0  0  0  0  0  0  0  0  0  0
   -4.5294   -0.4627    1.4128 H   0  0  0  0  0  0  0  0  0  0  0  0
    4.5455   -0.4708    1.4166 H   0  0  0  0  0  0  0  0  0  0  0  0
    0.0268    3.3283   -1.7343 H   0  0  0  0  0  0  0  0  0  0  0  0
   -6.8202   -0.5770    0.5983 H   0  0  0  0  0  0  0  0  0  0  0  0
   -6.2287   -0.9948   -1.1088 H   0  0  0  0  0  0  0  0  0  0  0  0
    6.8326   -0.5996    0.5939 H   0  0  0  0  0  0  0  0  0  0  0  0
    6.2324   -1.0155   -1.1105 H   0  0  0  0  0  0  0  0  0  0  0  0
    0.0236    5.7431   -1.4292 H   0  0  0  0  0  0  0  0  0  0  0  0
    0.0020    5.5445    0.4144 H   0  0  0  0  0  0  0  0  0  0  0  0
  1  9  1  0  0  0  0
  1 13  1  0  0  0  0
  2 10  1  0  0  0  0
  2 14  1  0  0  0  0
  3 11  1  0  0  0  0
  3 15  1  0  0  0  0
  4 13  2  0  0  0  0
  5 14  2  0  0  0  0
  6 15  2  0  0  0  0
  7  8  1  0  0  0  0
  7  9  1  0  0  0  0
  7 10  1  0  0  0  0
  7 11  1  0  0  0  0
  8 12  1  0  0  0  0
  8 22  1  0  0  0  0
  8 23  1  0  0  0  0
  9 24  1  0  0  0  0
  9 25  1  0  0  0  0
 10 26  1  0  0  0  0
 10 27  1  0  0  0  0
 11 28  1  0  0  0  0
 11 29  1  0  0  0  0
 12 30  1  0  0  0  0
 12 31  1  0  0  0  0
 12 32  1  0  0  0  0
 13 16  1  0  0  0  0
 14 17  1  0  0  0  0
 15 18  1  0  0  0  0
 16 19  2  0  0  0  0
 16 33  1  0  0  0  0
 17 20  2  0  0  0  0
 17 34  1  0  0  0  0
 18 21  2  0  0  0  0
 18 35  1  0  0  0  0
 19 36  1  0  0  0  0
 19 37  1  0  0  0  0
 20 38  1  0  0  0  0
 20 39  1  0  0  0  0
 21 40  1  0  0  0  0
 21 41  1  0  0  0  0
M  END
> <PUBCHEM_COMPOUND_CID>
27423

> <PUBCHEM_CONFORMER_RMSD>
1

> <PUBCHEM_CONFORMER_DIVERSEORDER>
1
26
27
4
8
15
31
39
40
23
10
37
30
36
22
13
17
19
9
24
6
34
20
32
5
7
3
14
35
21
16
11
18
29
28
38
33
25
12
2

> <PUBCHEM_MMFF94_PARTIAL_CHARGES>
27
1 -0.43
10 0.28
11 0.28
13 0.71
14 0.71
15 0.71
16 -0.14
17 -0.14
18 -0.14
19 -0.3
2 -0.43
20 -0.3
21 -0.3
3 -0.43
33 0.15
34 0.15
35 0.15
36 0.15
37 0.15
38 0.15
39 0.15
4 -0.57
40 0.15
41 0.15
5 -0.57
6 -0.57
9 0.28

> <PUBCHEM_EFFECTIVE_ROTOR_COUNT>
13

> <PUBCHEM_PHARMACOPHORE_FEATURES>
7
1 12 hydrophobe
1 19 hydrophobe
1 20 hydrophobe
1 21 hydrophobe
1 4 acceptor
1 5 acceptor
1 6 acceptor

> <PUBCHEM_HEAVY_ATOM_COUNT>
21

> <PUBCHEM_ATOM_DEF_STEREO_COUNT>
0

> <PUBCHEM_ATOM_UDEF_STEREO_COUNT>
0

> <PUBCHEM_BOND_DEF_STEREO_COUNT>
0

> <PUBCHEM_BOND_UDEF_STEREO_COUNT>
0

> <PUBCHEM_ISOTOPIC_ATOM_COUNT>
0

> <PUBCHEM_COMPONENT_COUNT>
1

> <PUBCHEM_CACTVS_TAUTO_COUNT>
1

> <PUBCHEM_CONFORMER_ID>
00006B1F00000001

> <PUBCHEM_MMFF94_ENERGY>
46.3541

> <PUBCHEM_FEATURE_SELFOVERLAP>
35.52

> <PUBCHEM_SHAPE_FINGERPRINT>
102385 1 17691965964470379955
10366900 7 17846223242081600771
10906281 52 18264187172262700814
11045515 52 18410014342449708356
11578080 2 17414414109682038124
12617007 42 18261386720125088335
12788726 201 18342181124073644538
13149001 5 18127125282053545555
13590594 115 18410289216642265161
14347332 77 18192711370363927934
14943834 7 17622451957396978315
15048467 5 16587743139812097339
15439362 3 18123193403156833029
15775530 1 17694213370537724875
167882 2 18050848823371852756
1813 80 18188196663433457423
18769570 83 18409726304994824689
187816 3 18342737420859356666
18785283 64 17981603767287442785
20197701 30 10663816360632935997
20238998 120 18333733528502931273
20600515 1 18337377263108420098
20642791 239 17913182305679611628
21285901 2 18040988596572929022
21524375 3 17474930504289625128
21641784 216 18341034311944976156
23402539 116 18335703857829636006
23419403 2 17823722848140339328
23557571 272 18260826046762881214
23558518 356 17911510218981693034
23559900 14 18342175515263288426
266924 87 18196376037912627814
283562 15 18269554004281545722
3178227 256 18341035338837896091
3250762 1 17694214470007076571
469060 322 18269542991637590280
68521 5 18338516447201494140
7164475 11 18195810901905203406
7495541 125 18200585879178406147
81228 2 18264750208078441080

> <PUBCHEM_SHAPE_MULTIPOLES>
396.95
9.62
4.86
1.28
0.11
9.5
-0.02
-7.4
-2.38
0.03
0.46
-0.01
-0.22
0

> <PUBCHEM_SHAPE_SELFOVERLAP>
776.491

> <PUBCHEM_SHAPE_VOLUME>
235.1

> <PUBCHEM_COORDINATE_TYPE>
2
5
10

$$$$

