6336010
  -OEChem-07051213113D

 21 20  0     1  0  0  0  0  0999 V2000
    2.1895    1.1766    0.3781 P   0  3  0  0  0  0  0  0  0  0  0  0
   -0.2526   -0.3683    1.6954 O   0  0  0  0  0  0  0  0  0  0  0  0
    0.7550   -1.9150   -1.3737 O   0  0  0  0  0  0  0  0  0  0  0  0
    1.1847   -2.4222    0.7984 O   0  0  0  0  0  0  0  0  0  0  0  0
    2.3322    2.6884   -0.1712 O   0  0  0  0  0  0  0  0  0  0  0  0
   -3.4123    0.6125   -1.1269 O   0  0  0  0  0  0  0  0  0  0  0  0
    2.9430    0.4959   -0.6671 O   0  0  0  0  0  0  0  0  0  0  0  0
   -2.5684    1.2349    0.8844 O   0  0  0  0  0  0  0  0  0  0  0  0
   -0.1695   -0.4526    0.2730 C   0  0  2  0  0  0  0  0  0  0  0  0
    0.4815    0.8304   -0.2732 C   0  0  0  0  0  0  0  0  0  0  0  0
   -1.5882   -0.6658   -0.2996 C   0  0  0  0  0  0  0  0  0  0  0  0
    0.6578   -1.6996   -0.0366 C   0  0  0  0  0  0  0  0  0  0  0  0
   -2.5527    0.4848   -0.0809 C   0  0  0  0  0  0  0  0  0  0  0  0
    0.4965    0.8269   -1.3698 H   0  0  0  0  0  0  0  0  0  0  0  0
   -0.1167    1.6947    0.0378 H   0  0  0  0  0  0  0  0  0  0  0  0
   -2.0518   -1.5494    0.1571 H   0  0  0  0  0  0  0  0  0  0  0  0
   -1.5263   -0.8467   -1.3801 H   0  0  0  0  0  0  0  0  0  0  0  0
    0.6339   -0.1551    2.0338 H   0  0  0  0  0  0  0  0  0  0  0  0
    1.2896   -2.7117   -1.5778 H   0  0  0  0  0  0  0  0  0  0  0  0
    1.8065    3.3073    0.3793 H   0  0  0  0  0  0  0  0  0  0  0  0
   -4.0321    1.3623   -1.0004 H   0  0  0  0  0  0  0  0  0  0  0  0
  1  5  1  0  0  0  0
  1  7  2  0  0  0  0
  1 10  1  0  0  0  0
  2  9  1  0  0  0  0
  2 18  1  0  0  0  0
  3 12  1  0  0  0  0
  3 19  1  0  0  0  0
  4 12  2  0  0  0  0
  5 20  1  0  0  0  0
  6 13  1  0  0  0  0
  6 21  1  0  0  0  0
  8 13  2  0  0  0  0
  9 10  1  0  0  0  0
  9 11  1  0  0  0  0
  9 12  1  0  0  0  0
 10 14  1  0  0  0  0
 10 15  1  0  0  0  0
 11 13  1  0  0  0  0
 11 16  1  0  0  0  0
 11 17  1  0  0  0  0
M  CHG  1   1   1
M  END
> <PUBCHEM_COMPOUND_CID>
6336010

> <PUBCHEM_CONFORMER_RMSD>
0.6

> <PUBCHEM_CONFORMER_DIVERSEORDER>
1
21
116
111
90
39
51
113
64
58
25
117
135
144
137
104
2
27
127
112
142
53
121
148
50
56
122
92
69
146
88
133
35
26
130
11
126
79
63
103
42
86
46
57
107
91
75
62
52
145
97
6
143
59
37
19
65
22
82
81
5
106
99
28
89
108
93
9
54
47
131
61
120
83
60
68
102
110
34
20
7
124
67
141
77
73
36
98
70
138
119
4
23
125
129
43
40
74
45
13
139
114
18
10
134
118
44
24
101
128
95
147
149
31
49
94
123
14
29
85
132
136
105
30
17
12
100
115
8
55
71
96
72
3
15
87
32
48
78
33
66
140
38
109
84
41
16
76
80

> <PUBCHEM_EFFECTIVE_ROTOR_COUNT>
5

> <PUBCHEM_PHARMACOPHORE_FEATURES>
8
1 2 acceptor
1 2 donor
1 3 acceptor
1 4 acceptor
1 6 acceptor
1 8 acceptor
3 3 4 12 anion
3 6 8 13 anion

> <PUBCHEM_HEAVY_ATOM_COUNT>
13

> <PUBCHEM_ATOM_DEF_STEREO_COUNT>
0

> <PUBCHEM_ATOM_UDEF_STEREO_COUNT>
1

> <PUBCHEM_BOND_DEF_STEREO_COUNT>
0

> <PUBCHEM_BOND_UDEF_STEREO_COUNT>
0

> <PUBCHEM_ISOTOPIC_ATOM_COUNT>
0

> <PUBCHEM_COMPONENT_COUNT>
1

> <PUBCHEM_CACTVS_TAUTO_COUNT>
1

> <PUBCHEM_CONFORMER_ID>
0060AE0A00000001

> <PUBCHEM_MMFF94_ENERGY>
16.862

> <PUBCHEM_FEATURE_SELFOVERLAP>
40.722

> <PUBCHEM_SHAPE_FINGERPRINT>
1 1 18411985749670942180
12423570 1 11790972923150750651
14817 1 16236522661896800626
15775835 57 18129954377053566716
16945 1 18341617056890525840
170605 34 18272657844092075193
18186145 218 18261385611960644540
20653085 51 18263631888388182952
20711985 327 18049733115237637850
21028194 46 18201717297706468629
21524375 3 18337958874394159524
23552423 10 18043252555612998047
2748010 2 18267293232107189988
305870 269 18342466919412771840
5084963 1 18117827811834131410
81228 2 17474387972183402762

> <PUBCHEM_SHAPE_MULTIPOLES>
230.3
4.15
2.33
1.11
1.49
0.5
0.13
-2.77
-0.83
-1.52
-0.04
0.18
0.24
-0.12

> <PUBCHEM_SHAPE_SELFOVERLAP>
440.134

> <PUBCHEM_SHAPE_VOLUME>
141.8

> <PUBCHEM_COORDINATE_TYPE>
2
5
10

$$$$

