9724
  -OEChem-06261203592D

 32 31  0     0  0  0  0  0  0999 V2000
    6.5380    3.2615    0.0000 Br  0  5  0  0  0  0  0  0  0  0  0  0
    1.4030    3.6200    0.0000 O   0  0  0  0  0  0  0  0  0  0  0  0
    3.1350    5.6200    0.0000 N   0  3  0  0  0  0  0  0  0  0  0  0
    2.2690    5.1200    0.0000 C   0  0  0  0  0  0  0  0  0  0  0  0
    4.0010    6.1200    0.0000 C   0  0  0  0  0  0  0  0  0  0  0  0
    2.6350    6.4860    0.0000 C   0  0  0  0  0  0  0  0  0  0  0  0
    3.6350    4.7540    0.0000 C   0  0  0  0  0  0  0  0  0  0  0  0
    2.2690    4.1200    0.0000 C   0  0  0  0  0  0  0  0  0  0  0  0
    1.4030    2.6200    0.0000 C   0  0  0  0  0  0  0  0  0  0  0  0
    0.5369    2.1200    0.0000 C   0  0  0  0  0  0  0  0  0  0  0  0
    2.2690    2.1200    0.0000 C   0  0  0  0  0  0  0  0  0  0  0  0
    0.5369    1.1200    0.0000 C   0  0  0  0  0  0  0  0  0  0  0  0
    2.2690    1.1200    0.0000 C   0  0  0  0  0  0  0  0  0  0  0  0
    1.4030    0.6200    0.0000 C   0  0  0  0  0  0  0  0  0  0  0  0
    2.0569    5.7026    0.0000 H   0  0  0  0  0  0  0  0  0  0  0  0
    1.6584    5.0123    0.0000 H   0  0  0  0  0  0  0  0  0  0  0  0
    4.3110    5.5831    0.0000 H   0  0  0  0  0  0  0  0  0  0  0  0
    3.1720    6.7960    0.0000 H   0  0  0  0  0  0  0  0  0  0  0  0
    2.3250    7.0230    0.0000 H   0  0  0  0  0  0  0  0  0  0  0  0
    2.0981    6.1760    0.0000 H   0  0  0  0  0  0  0  0  0  0  0  0
    3.0981    4.4440    0.0000 H   0  0  0  0  0  0  0  0  0  0  0  0
    3.9450    4.2170    0.0000 H   0  0  0  0  0  0  0  0  0  0  0  0
    4.1720    5.0640    0.0000 H   0  0  0  0  0  0  0  0  0  0  0  0
    4.5380    6.4300    0.0000 H   0  0  0  0  0  0  0  0  0  0  0  0
    3.6910    6.6569    0.0000 H   0  0  0  0  0  0  0  0  0  0  0  0
    2.4810    3.5374    0.0000 H   0  0  0  0  0  0  0  0  0  0  0  0
    2.8796    4.2277    0.0000 H   0  0  0  0  0  0  0  0  0  0  0  0
    0.0000    2.4300    0.0000 H   0  0  0  0  0  0  0  0  0  0  0  0
    2.8059    2.4300    0.0000 H   0  0  0  0  0  0  0  0  0  0  0  0
    0.0000    0.8100    0.0000 H   0  0  0  0  0  0  0  0  0  0  0  0
    2.8059    0.8100    0.0000 H   0  0  0  0  0  0  0  0  0  0  0  0
    1.4030    0.0000    0.0000 H   0  0  0  0  0  0  0  0  0  0  0  0
  2  8  1  0  0  0  0
  2  9  1  0  0  0  0
  3  4  1  0  0  0  0
  3  5  1  0  0  0  0
  3  6  1  0  0  0  0
  3  7  1  0  0  0  0
  4  8  1  0  0  0  0
  4 15  1  0  0  0  0
  4 16  1  0  0  0  0
  5 17  1  0  0  0  0
  5 24  1  0  0  0  0
  5 25  1  0  0  0  0
  6 18  1  0  0  0  0
  6 19  1  0  0  0  0
  6 20  1  0  0  0  0
  7 21  1  0  0  0  0
  7 22  1  0  0  0  0
  7 23  1  0  0  0  0
  8 26  1  0  0  0  0
  8 27  1  0  0  0  0
  9 10  2  0  0  0  0
  9 11  1  0  0  0  0
 10 12  1  0  0  0  0
 10 28  1  0  0  0  0
 11 13  2  0  0  0  0
 11 29  1  0  0  0  0
 12 14  2  0  0  0  0
 12 30  1  0  0  0  0
 13 14  1  0  0  0  0
 13 31  1  0  0  0  0
 14 32  1  0  0  0  0
M  CHG  2   1  -1   3   1
M  END
> <PUBCHEM_COMPOUND_CID>
9724

> <PUBCHEM_COMPOUND_CANONICALIZED>
1

> <PUBCHEM_CACTVS_COMPLEXITY>
134

> <PUBCHEM_CACTVS_HBOND_ACCEPTOR>
2

> <PUBCHEM_CACTVS_HBOND_DONOR>
0

> <PUBCHEM_CACTVS_ROTATABLE_BOND>
4

> <PUBCHEM_CACTVS_SUBSKEYS>
AAADceByIAAAEAAAAAAAAAAAAAAAAAAAAAAwAAAAAAAAAAABAAAAHgAAAAAACAThkAYyBoMABACAACBCAAACCAAgIAAIiAAOCIgOJiKEMRqDOCCkwBEYqAeAQAAAAAAAAAAAAAAAAAAAAAAAAAAAAAAAAA==

> <PUBCHEM_IUPAC_OPENEYE_NAME>
trimethyl(2-phenoxyethyl)ammonium bromide

> <PUBCHEM_IUPAC_CAS_NAME>
trimethyl(2-phenoxyethyl)ammonium bromide

> <PUBCHEM_IUPAC_NAME>
trimethyl(2-phenoxyethyl)azanium bromide

> <PUBCHEM_IUPAC_SYSTEMATIC_NAME>
trimethyl(2-phenoxyethyl)azanium bromide

> <PUBCHEM_IUPAC_TRADITIONAL_NAME>
trimethyl(2-phenoxyethyl)ammonium bromide

> <PUBCHEM_IUPAC_INCHI>
InChI=1S/C11H18NO.BrH/c1-12(2,3)9-10-13-11-7-5-4-6-8-11;/h4-8H,9-10H2,1-3H3;1H/q+1;/p-1

> <PUBCHEM_IUPAC_INCHIKEY>
FXCYSFBPSZWZJS-UHFFFAOYSA-M

> <PUBCHEM_EXACT_MASS>
259.057176

> <PUBCHEM_MOLECULAR_FORMULA>
C11H18BrNO

> <PUBCHEM_MOLECULAR_WEIGHT>
260.17072

> <PUBCHEM_OPENEYE_CAN_SMILES>
C[N+](C)(C)CCOC1=CC=CC=C1.[Br-]

> <PUBCHEM_OPENEYE_ISO_SMILES>
C[N+](C)(C)CCOC1=CC=CC=C1.[Br-]

> <PUBCHEM_CACTVS_TPSA>
9.2

> <PUBCHEM_MONOISOTOPIC_WEIGHT>
259.057176

> <PUBCHEM_TOTAL_CHARGE>
0

> <PUBCHEM_HEAVY_ATOM_COUNT>
14

> <PUBCHEM_ATOM_DEF_STEREO_COUNT>
0

> <PUBCHEM_ATOM_UDEF_STEREO_COUNT>
0

> <PUBCHEM_BOND_DEF_STEREO_COUNT>
0

> <PUBCHEM_BOND_UDEF_STEREO_COUNT>
0

> <PUBCHEM_ISOTOPIC_ATOM_COUNT>
0

> <PUBCHEM_COMPONENT_COUNT>
2

> <PUBCHEM_CACTVS_TAUTO_COUNT>
1

> <PUBCHEM_COORDINATE_TYPE>
1
5
255

> <PUBCHEM_BONDANNOTATIONS>
10  12  8
11  13  8
12  14  8
13  14  8
9  10  8
9  11  8

$$$$

