17396474
  -OEChem-06241222563D

 63 66  0     1  0  0  0  0  0999 V2000
    2.9165    1.1520   -1.2038 O   0  0  0  0  0  0  0  0  0  0  0  0
    0.2078    0.4950    0.3596 N   0  0  0  0  0  0  0  0  0  0  0  0
   -3.8961   -0.9175    0.3140 N   0  0  0  0  0  0  0  0  0  0  0  0
   -3.3881   -1.9998    0.9279 N   0  0  0  0  0  0  0  0  0  0  0  0
    3.0904   -0.4421    0.5090 N   0  0  0  0  0  0  0  0  0  0  0  0
   -1.9730   -0.2126    1.0729 C   0  0  0  0  0  0  0  0  0  0  0  0
   -0.7755    0.6123    1.4189 C   0  0  0  0  0  0  0  0  0  0  0  0
    1.4077    1.2886    0.6862 C   0  0  2  0  0  0  0  0  0  0  0  0
   -3.0873    0.1793    0.3720 C   0  0  0  0  0  0  0  0  0  0  0  0
   -2.2133   -1.5630    1.3895 C   0  0  0  0  0  0  0  0  0  0  0  0
    1.2462    2.7458    0.4125 C   0  0  0  0  0  0  0  0  0  0  0  0
    2.5660    0.6823   -0.1243 C   0  0  0  0  0  0  0  0  0  0  0  0
   -3.4389    1.4795   -0.2344 C   0  0  0  0  0  0  0  0  0  0  0  0
   -5.1448   -0.9940   -0.3033 C   0  0  0  0  0  0  0  0  0  0  0  0
   -1.3414   -2.4843    2.1395 C   0  0  0  0  0  0  0  0  0  0  0  0
    0.4073    3.1735   -0.6166 C   0  0  0  0  0  0  0  0  0  0  0  0
    1.9347    3.6811    1.1854 C   0  0  0  0  0  0  0  0  0  0  0  0
    4.1574   -1.2614    0.0693 C   0  0  0  0  0  0  0  0  0  0  0  0
    4.5629   -2.3687    0.8146 C   0  0  0  0  0  0  0  0  0  0  0  0
   -5.2631   -0.7447   -1.6706 C   0  0  0  0  0  0  0  0  0  0  0  0
   -6.2746   -1.3231    0.4458 C   0  0  0  0  0  0  0  0  0  0  0  0
    4.8059   -0.9497   -1.1257 C   0  0  0  0  0  0  0  0  0  0  0  0
    0.2566    4.5365   -0.8726 C   0  0  0  0  0  0  0  0  0  0  0  0
    1.7838    5.0439    0.9294 C   0  0  0  0  0  0  0  0  0  0  0  0
    5.8600   -1.7451   -1.5752 C   0  0  0  0  0  0  0  0  0  0  0  0
    0.9450    5.4716   -0.0996 C   0  0  0  0  0  0  0  0  0  0  0  0
    5.6170   -3.1640    0.3651 C   0  0  0  0  0  0  0  0  0  0  0  0
    6.2654   -2.8523   -0.8297 C   0  0  0  0  0  0  0  0  0  0  0  0
   -6.5111   -0.8241   -2.2888 C   0  0  0  0  0  0  0  0  0  0  0  0
   -7.5225   -1.4027   -0.1724 C   0  0  0  0  0  0  0  0  0  0  0  0
    3.8862   -2.7270    2.0977 C   0  0  0  0  0  0  0  0  0  0  0  0
   -7.6406   -1.1532   -1.5397 C   0  0  0  0  0  0  0  0  0  0  0  0
    6.5535   -1.4122   -2.8527 C   0  0  0  0  0  0  0  0  0  0  0  0
   -1.0837    1.6525    1.5730 H   0  0  0  0  0  0  0  0  0  0  0  0
   -0.3647    0.2593    2.3734 H   0  0  0  0  0  0  0  0  0  0  0  0
    1.6536    1.1529    1.7496 H   0  0  0  0  0  0  0  0  0  0  0  0
    0.4755   -0.4873    0.2795 H   0  0  0  0  0  0  0  0  0  0  0  0
   -3.2402    1.4723   -1.3107 H   0  0  0  0  0  0  0  0  0  0  0  0
   -4.4907    1.7358   -0.0712 H   0  0  0  0  0  0  0  0  0  0  0  0
   -2.8484    2.2926    0.1996 H   0  0  0  0  0  0  0  0  0  0  0  0
   -0.3424   -2.5212    1.6927 H   0  0  0  0  0  0  0  0  0  0  0  0
   -1.7384   -3.5049    2.1492 H   0  0  0  0  0  0  0  0  0  0  0  0
   -1.2400   -2.1544    3.1784 H   0  0  0  0  0  0  0  0  0  0  0  0
    2.6575   -0.7149    1.3871 H   0  0  0  0  0  0  0  0  0  0  0  0
   -0.1307    2.4719   -1.2481 H   0  0  0  0  0  0  0  0  0  0  0  0
    2.5933    3.3615    1.9886 H   0  0  0  0  0  0  0  0  0  0  0  0
   -4.3936   -0.5030   -2.2767 H   0  0  0  0  0  0  0  0  0  0  0  0
   -6.2016   -1.5171    1.5132 H   0  0  0  0  0  0  0  0  0  0  0  0
    4.5503   -0.1081   -1.7527 H   0  0  0  0  0  0  0  0  0  0  0  0
   -0.3938    4.8698   -1.6760 H   0  0  0  0  0  0  0  0  0  0  0  0
    2.3203    5.7721    1.5306 H   0  0  0  0  0  0  0  0  0  0  0  0
    0.8284    6.5327   -0.2997 H   0  0  0  0  0  0  0  0  0  0  0  0
    5.9456   -4.0304    0.9329 H   0  0  0  0  0  0  0  0  0  0  0  0
    7.0841   -3.4818   -1.1683 H   0  0  0  0  0  0  0  0  0  0  0  0
   -6.6027   -0.6336   -3.3541 H   0  0  0  0  0  0  0  0  0  0  0  0
   -8.4023   -1.6581    0.4109 H   0  0  0  0  0  0  0  0  0  0  0  0
    4.3238   -3.6231    2.5512 H   0  0  0  0  0  0  0  0  0  0  0  0
    2.8250   -2.9375    1.9278 H   0  0  0  0  0  0  0  0  0  0  0  0
    3.9867   -1.9152    2.8257 H   0  0  0  0  0  0  0  0  0  0  0  0
   -8.6121   -1.2158   -2.0211 H   0  0  0  0  0  0  0  0  0  0  0  0
    5.9018   -1.6341   -3.7039 H   0  0  0  0  0  0  0  0  0  0  0  0
    6.8243   -0.3513   -2.8779 H   0  0  0  0  0  0  0  0  0  0  0  0
    7.4785   -1.9859   -2.9742 H   0  0  0  0  0  0  0  0  0  0  0  0
  1 12  2  0  0  0  0
  2  7  1  0  0  0  0
  2  8  1  0  0  0  0
  2 37  1  0  0  0  0
  3  4  1  0  0  0  0
  3  9  1  0  0  0  0
  3 14  1  0  0  0  0
  4 10  2  0  0  0  0
  5 12  1  0  0  0  0
  5 18  1  0  0  0  0
  5 44  1  0  0  0  0
  6  7  1  0  0  0  0
  6  9  2  0  0  0  0
  6 10  1  0  0  0  0
  7 34  1  0  0  0  0
  7 35  1  0  0  0  0
  8 11  1  0  0  0  0
  8 12  1  0  0  0  0
  8 36  1  0  0  0  0
  9 13  1  0  0  0  0
 10 15  1  0  0  0  0
 11 16  2  0  0  0  0
 11 17  1  0  0  0  0
 13 38  1  0  0  0  0
 13 39  1  0  0  0  0
 13 40  1  0  0  0  0
 14 20  2  0  0  0  0
 14 21  1  0  0  0  0
 15 41  1  0  0  0  0
 15 42  1  0  0  0  0
 15 43  1  0  0  0  0
 16 23  1  0  0  0  0
 16 45  1  0  0  0  0
 17 24  2  0  0  0  0
 17 46  1  0  0  0  0
 18 19  2  0  0  0  0
 18 22  1  0  0  0  0
 19 27  1  0  0  0  0
 19 31  1  0  0  0  0
 20 29  1  0  0  0  0
 20 47  1  0  0  0  0
 21 30  2  0  0  0  0
 21 48  1  0  0  0  0
 22 25  2  0  0  0  0
 22 49  1  0  0  0  0
 23 26  2  0  0  0  0
 23 50  1  0  0  0  0
 24 26  1  0  0  0  0
 24 51  1  0  0  0  0
 25 28  1  0  0  0  0
 25 33  1  0  0  0  0
 26 52  1  0  0  0  0
 27 28  2  0  0  0  0
 27 53  1  0  0  0  0
 28 54  1  0  0  0  0
 29 32  2  0  0  0  0
 29 55  1  0  0  0  0
 30 32  1  0  0  0  0
 30 56  1  0  0  0  0
 31 57  1  0  0  0  0
 31 58  1  0  0  0  0
 31 59  1  0  0  0  0
 32 60  1  0  0  0  0
 33 61  1  0  0  0  0
 33 62  1  0  0  0  0
 33 63  1  0  0  0  0
M  END
> <PUBCHEM_COMPOUND_CID>
17396474

> <PUBCHEM_CONFORMER_RMSD>
1

> <PUBCHEM_CONFORMER_DIVERSEORDER>
1
117
223
279
108
284
125
9
240
218
250
242
8
40
99
277
70
12
50
193
295
106
274
300
140
176
113
251
232
64
246
150
80
26
143
138
257
65
302
94
170
152
90
269
255
54
69
23
101
174
124
67
130
126
265
234
15
44
192
83
221
226
84
63
244
165
163
131
76
228
42
294
160
291
4
159
68
272
96
186
243
289
74
137
88
229
252
245
116
187
299
285
57
273
16
17
211
66
58
114
14
62
210
29
292
282
185
144
93
301
169
92
288
146
162
189
227
220
231
142
180
267
115
247
167
168
32
139
43
41
290
270
203
212
197
206
254
111
283
236
188
239
77
112
237
175
61
51
224
21
91
52
59
205
56
157
136
100
297
27
209
281
261
118
271
275
81
161
147
219
253
225
156
217
268
135
207
230
119
199
39
55
293
134
47
71
148
89
241
177
105
278
249
213
195
19
222
296
53
72
34
145
235
2
141
13
191
128
158
280
46
200
127
166
183
31
287
5
201
154
7
95
266
194
120
103
30
38
263
123
132
208
178
33
181
198
258
264
216
155
133
60
109
204
190
121
104
262
28
182
151
164
25
82
10
6
110
129
276
260
86
214
78
85
107
20
45
11
233
171
102
286
215
37
256
173
48
24
79
179
259
87
238
35
22
3
172
18
153
36
149
196
202
122
49
73
184
97
248
298
75
98

> <PUBCHEM_MMFF94_PARTIAL_CHARGES>
48
1 -0.57
10 0.11
11 -0.14
12 0.57
13 0.18
14 -0.02
15 0.18
16 -0.15
17 -0.15
18 0.12
19 -0.14
2 -0.9
20 -0.15
21 -0.15
22 -0.15
23 -0.15
24 -0.15
25 -0.14
26 -0.15
27 -0.15
28 -0.15
29 -0.15
3 0.59
30 -0.15
31 0.14
32 -0.15
33 0.14
37 0.36
4 -0.71
44 0.37
45 0.15
46 0.15
47 0.15
48 0.15
49 0.15
5 -0.55
50 0.15
51 0.15
52 0.15
53 0.15
54 0.15
55 0.15
56 0.15
6 -0.18
60 0.15
7 0.45
8 0.47
9 -0.33

> <PUBCHEM_EFFECTIVE_ROTOR_COUNT>
8

> <PUBCHEM_PHARMACOPHORE_FEATURES>
9
1 1 acceptor
1 2 cation
1 2 donor
1 4 acceptor
1 5 donor
5 3 4 6 9 10 rings
6 11 16 17 23 24 26 rings
6 14 20 21 29 30 32 rings
6 18 19 22 25 27 28 rings

> <PUBCHEM_HEAVY_ATOM_COUNT>
33

> <PUBCHEM_ATOM_DEF_STEREO_COUNT>
0

> <PUBCHEM_ATOM_UDEF_STEREO_COUNT>
1

> <PUBCHEM_BOND_DEF_STEREO_COUNT>
0

> <PUBCHEM_BOND_UDEF_STEREO_COUNT>
0

> <PUBCHEM_ISOTOPIC_ATOM_COUNT>
0

> <PUBCHEM_COMPONENT_COUNT>
1

> <PUBCHEM_CACTVS_TAUTO_COUNT>
2

> <PUBCHEM_CONFORMER_ID>
010972FA00000001

> <PUBCHEM_MMFF94_ENERGY>
102.497

> <PUBCHEM_FEATURE_SELFOVERLAP>
45.67

> <PUBCHEM_SHAPE_FINGERPRINT>
11093857 51 17697869276770730652
11115154 58 18341607157239380745
11135609 149 18265078901614894117
11331351 85 17823961519393727089
11377469 6 18041000674115709403
11720765 8 18411143502173873329
12166972 35 17894911823644122051
12633046 712 18057296454351769857
12788726 201 18054502775815575656
13533116 47 18338519634410132089
13540713 4 17913763921597610587
13631057 29 18268704078242125226
14068700 675 18040150742747340553
14150023 79 18121788231665284400
14931854 50 17988636445707387930
15021287 119 18335124415892524897
15183329 4 17917712443735849795
15968369 26 17981881952868077608
19311894 1 18193843879993518825
20775438 99 17979375070335224279
2132832 1 18114177536631293513
23536364 44 18199483219407901597
23559900 14 18340769217872792059
255183 313 17687162593601368472
255183 451 18333447633956971637
32027 91 18410855417706406003
3729539 64 18059581325551485715
376196 1 17407128664322965577
4017518 198 17755577141504433648
4066623 53 18202008737355836460
437815 12 18410856576993946829
44317340 157 18195248820194227499
44880168 125 17609474374799886394
504843 32 17041197940588759340
508180 173 18272939357993088993
5219985 13 9583508815975108944
54076057 255 15195290820023774159
6695519 79 17037802665676414777
6697151 62 18409173181905536139

> <PUBCHEM_SHAPE_MULTIPOLES>
653.33
18.23
6
2
16.29
11.41
0.64
-23.15
11.49
-7.29
-1.07
-0.77
-1.31
0.68

> <PUBCHEM_SHAPE_SELFOVERLAP>
1413.532

> <PUBCHEM_SHAPE_VOLUME>
359.6

> <PUBCHEM_COORDINATE_TYPE>
2
5
10

$$$$

