5280335
  -OEChem-07051212443D

 58 57  0     1  0  0  0  0  0999 V2000
   -6.7268    1.5015   -1.2866 O   0  0  0  0  0  0  0  0  0  0  0  0
   -9.4130   -1.7284   -0.8186 O   0  0  0  0  0  0  0  0  0  0  0  0
   -9.1581    0.9047    0.1618 N   0  0  0  0  0  0  0  0  0  0  0  0
    3.1954    0.4046    0.2393 C   0  0  0  0  0  0  0  0  0  0  0  0
    4.4842   -0.4186    0.2951 C   0  0  0  0  0  0  0  0  0  0  0  0
    1.9631   -0.4814    0.4416 C   0  0  0  0  0  0  0  0  0  0  0  0
    5.7462    0.4065    0.0273 C   0  0  0  0  0  0  0  0  0  0  0  0
    0.6761    0.3458    0.4182 C   0  0  0  0  0  0  0  0  0  0  0  0
    7.0278   -0.4295    0.0101 C   0  0  0  0  0  0  0  0  0  0  0  0
   -0.5892   -0.4887    0.6388 C   0  0  0  0  0  0  0  0  0  0  0  0
    8.2564    0.4457   -0.2485 C   0  0  0  0  0  0  0  0  0  0  0  0
   -1.9126    0.2825    0.6035 C   0  0  0  0  0  0  0  0  0  0  0  0
    9.5348   -0.3923   -0.3039 C   0  0  0  0  0  0  0  0  0  0  0  0
   -3.1334   -0.5928    0.8923 C   0  0  0  0  0  0  0  0  0  0  0  0
   10.7657    0.4856   -0.5287 C   0  0  0  0  0  0  0  0  0  0  0  0
   -4.3988    0.2141    0.8511 C   0  0  0  0  0  0  0  0  0  0  0  0
   -6.7151    0.8519   -0.0090 C   0  0  1  0  0  0  0  0  0  0  0  0
   -7.9999    0.0007    0.1340 C   0  0  2  0  0  0  0  0  0  0  0  0
   -5.4482    0.0436    0.0318 C   0  0  0  0  0  0  0  0  0  0  0  0
   12.0420   -0.3401   -0.5509 C   0  0  0  0  0  0  0  0  0  0  0  0
   -8.1966   -1.0155   -0.9986 C   0  0  0  0  0  0  0  0  0  0  0  0
    3.1257    0.9131   -0.7299 H   0  0  0  0  0  0  0  0  0  0  0  0
    3.2263    1.1823    1.0118 H   0  0  0  0  0  0  0  0  0  0  0  0
    4.4260   -1.2265   -0.4451 H   0  0  0  0  0  0  0  0  0  0  0  0
    4.5688   -0.8967    1.2788 H   0  0  0  0  0  0  0  0  0  0  0  0
    1.9227   -1.2450   -0.3445 H   0  0  0  0  0  0  0  0  0  0  0  0
    2.0412   -1.0074    1.4006 H   0  0  0  0  0  0  0  0  0  0  0  0
    5.6400    0.9194   -0.9367 H   0  0  0  0  0  0  0  0  0  0  0  0
    5.8307    1.1874    0.7933 H   0  0  0  0  0  0  0  0  0  0  0  0
    0.7279    1.1217    1.1920 H   0  0  0  0  0  0  0  0  0  0  0  0
    0.5964    0.8646   -0.5451 H   0  0  0  0  0  0  0  0  0  0  0  0
    7.1398   -0.9490    0.9693 H   0  0  0  0  0  0  0  0  0  0  0  0
    6.9513   -1.1985   -0.7680 H   0  0  0  0  0  0  0  0  0  0  0  0
   -0.6260   -1.2796   -0.1212 H   0  0  0  0  0  0  0  0  0  0  0  0
   -0.5056   -0.9965    1.6082 H   0  0  0  0  0  0  0  0  0  0  0  0
    8.1322    0.9857   -1.1950 H   0  0  0  0  0  0  0  0  0  0  0  0
    8.3426    1.1985    0.5445 H   0  0  0  0  0  0  0  0  0  0  0  0
   -1.8650    1.0978    1.3371 H   0  0  0  0  0  0  0  0  0  0  0  0
   -2.0215    0.7539   -0.3818 H   0  0  0  0  0  0  0  0  0  0  0  0
    9.6484   -0.9492    0.6343 H   0  0  0  0  0  0  0  0  0  0  0  0
    9.4568   -1.1313   -1.1106 H   0  0  0  0  0  0  0  0  0  0  0  0
   -3.1786   -1.4137    0.1668 H   0  0  0  0  0  0  0  0  0  0  0  0
   -3.0392   -1.0469    1.8856 H   0  0  0  0  0  0  0  0  0  0  0  0
   10.6689    1.0264   -1.4773 H   0  0  0  0  0  0  0  0  0  0  0  0
   10.8386    1.2363    0.2669 H   0  0  0  0  0  0  0  0  0  0  0  0
   -4.4634    1.0110    1.5904 H   0  0  0  0  0  0  0  0  0  0  0  0
   -6.6954    1.6318    0.7625 H   0  0  0  0  0  0  0  0  0  0  0  0
   -7.9810   -0.5351    1.0914 H   0  0  0  0  0  0  0  0  0  0  0  0
   -5.3637   -0.7485   -0.7102 H   0  0  0  0  0  0  0  0  0  0  0  0
   12.1852   -0.8670    0.3979 H   0  0  0  0  0  0  0  0  0  0  0  0
   12.0153   -1.0818   -1.3555 H   0  0  0  0  0  0  0  0  0  0  0  0
   12.9094    0.3073   -0.7141 H   0  0  0  0  0  0  0  0  0  0  0  0
   -7.3870   -1.7509   -1.0100 H   0  0  0  0  0  0  0  0  0  0  0  0
   -8.2342   -0.5255   -1.9777 H   0  0  0  0  0  0  0  0  0  0  0  0
  -10.0095    0.3625    0.3036 H   0  0  0  0  0  0  0  0  0  0  0  0
   -9.0816    1.5340    0.9599 H   0  0  0  0  0  0  0  0  0  0  0  0
   -5.9597    2.0988   -1.3213 H   0  0  0  0  0  0  0  0  0  0  0  0
   -9.4876   -2.3576   -1.5563 H   0  0  0  0  0  0  0  0  0  0  0  0
  1 17  1  0  0  0  0
  1 57  1  0  0  0  0
  2 21  1  0  0  0  0
  2 58  1  0  0  0  0
  3 18  1  0  0  0  0
  3 55  1  0  0  0  0
  3 56  1  0  0  0  0
  4  5  1  0  0  0  0
  4  6  1  0  0  0  0
  4 22  1  0  0  0  0
  4 23  1  0  0  0  0
  5  7  1  0  0  0  0
  5 24  1  0  0  0  0
  5 25  1  0  0  0  0
  6  8  1  0  0  0  0
  6 26  1  0  0  0  0
  6 27  1  0  0  0  0
  7  9  1  0  0  0  0
  7 28  1  0  0  0  0
  7 29  1  0  0  0  0
  8 10  1  0  0  0  0
  8 30  1  0  0  0  0
  8 31  1  0  0  0  0
  9 11  1  0  0  0  0
  9 32  1  0  0  0  0
  9 33  1  0  0  0  0
 10 12  1  0  0  0  0
 10 34  1  0  0  0  0
 10 35  1  0  0  0  0
 11 13  1  0  0  0  0
 11 36  1  0  0  0  0
 11 37  1  0  0  0  0
 12 14  1  0  0  0  0
 12 38  1  0  0  0  0
 12 39  1  0  0  0  0
 13 15  1  0  0  0  0
 13 40  1  0  0  0  0
 13 41  1  0  0  0  0
 14 16  1  0  0  0  0
 14 42  1  0  0  0  0
 14 43  1  0  0  0  0
 15 20  1  0  0  0  0
 15 44  1  0  0  0  0
 15 45  1  0  0  0  0
 16 19  2  0  0  0  0
 16 46  1  0  0  0  0
 17 18  1  0  0  0  0
 17 19  1  0  0  0  0
 17 47  1  0  0  0  0
 18 21  1  0  0  0  0
 18 48  1  0  0  0  0
 19 49  1  0  0  0  0
 20 50  1  0  0  0  0
 20 51  1  0  0  0  0
 20 52  1  0  0  0  0
 21 53  1  0  0  0  0
 21 54  1  0  0  0  0
M  END
> <PUBCHEM_COMPOUND_CID>
5280335

> <PUBCHEM_CONFORMER_RMSD>
1.4

> <PUBCHEM_CONFORMER_DIVERSEORDER>
1
86
46
32
52
25
10
21
19
72
35
43
13
60
93
31
17
57
44
67
47
27
8
37
45
53
94
30
55
63
14
90
18
34
74
85
76
54
73
82
7
65
87
92
61
5
3
66
41
64
15
59
11
20
58
80
6
71
22
84
68
42
81
38
50
89
9
62
69
24
51
78
95
16
29
26
91
75
40
83
33
12
77
88
70
4
2
28
56
48
96
79
39
36
49
23

> <PUBCHEM_MMFF94_PARTIAL_CHARGES>
15
1 -0.68
14 0.14
16 -0.29
17 0.42
18 0.27
19 -0.29
2 -0.68
21 0.28
3 -0.99
46 0.15
49 0.15
55 0.36
56 0.36
57 0.4
58 0.4

> <PUBCHEM_EFFECTIVE_ROTOR_COUNT>
15

> <PUBCHEM_PHARMACOPHORE_FEATURES>
7
1 1 acceptor
1 1 donor
1 2 acceptor
1 2 donor
1 20 hydrophobe
1 3 cation
1 3 donor

> <PUBCHEM_HEAVY_ATOM_COUNT>
21

> <PUBCHEM_ATOM_DEF_STEREO_COUNT>
2

> <PUBCHEM_ATOM_UDEF_STEREO_COUNT>
0

> <PUBCHEM_BOND_DEF_STEREO_COUNT>
1

> <PUBCHEM_BOND_UDEF_STEREO_COUNT>
0

> <PUBCHEM_ISOTOPIC_ATOM_COUNT>
0

> <PUBCHEM_COMPONENT_COUNT>
1

> <PUBCHEM_CACTVS_TAUTO_COUNT>
1

> <PUBCHEM_CONFORMER_ID>
0050924F00000001

> <PUBCHEM_MMFF94_ENERGY>
4.6737

> <PUBCHEM_FEATURE_SELFOVERLAP>
35.526

> <PUBCHEM_SHAPE_FINGERPRINT>
12498461 61 7132422546501822061
14123256 10 16587742040637449325
14202775 3 17240475915035156798
14251764 18 17418099832141839001
14251764 46 18410572885645098130
14251920 1 6843922759708965569
14344974 52 18260551079115291736
15247644 1 16081084879651705054
15510794 2 18260824900276158214
155225 1 16630527344998733933
1818759 1 15574711396016308654
21095086 128 14996280341189451764
21150785 3 18407478860568127851
21362267 2 16128094426467375596
232437 2 17967813851708453462
23528940 14 13768219255955421101
23581129 1 18411980264828965112
246663 6 14490471984597116792
335352 9 18273214184143432674
33684 2 17967812756739518056
636775 8 17967814913029911271
67123 10 18410575080373386370
8209 1 18412262843612257920

> <PUBCHEM_SHAPE_MULTIPOLES>
415.45
46.83
1.03
0.91
54.97
0.1
0.07
2.63
14.99
-2.08
0.22
-1
0.01
-0.43

> <PUBCHEM_SHAPE_SELFOVERLAP>
760.576

> <PUBCHEM_SHAPE_VOLUME>
263.3

> <PUBCHEM_COORDINATE_TYPE>
2
5
10

$$$$

