35699
  -OEChem-07051213133D

 28 28  0     0  0  0  0  0  0999 V2000
   -0.1035   -2.1921    0.2658 O   0  0  0  0  0  0  0  0  0  0  0  0
    0.9429    2.0053    0.2907 O   0  0  0  0  0  0  0  0  0  0  0  0
    1.3016   -0.3479    0.0610 N   0  0  0  0  0  0  0  0  0  0  0  0
   -0.9644   -0.0774    0.6143 N   0  0  0  0  0  0  0  0  0  0  0  0
    3.0390    1.1070   -0.2234 N   0  0  0  0  0  0  0  0  0  0  0  0
   -3.3321    0.0709   -0.0860 C   0  0  0  0  0  0  0  0  0  0  0  0
    2.4478   -1.1424   -0.3533 C   0  0  0  0  0  0  0  0  0  0  0  0
   -2.3119   -0.5113    0.8987 C   0  0  0  0  0  0  0  0  0  0  0  0
    3.6307   -0.1972   -0.3193 C   0  0  0  0  0  0  0  0  0  0  0  0
    0.0576   -0.9703    0.3134 C   0  0  0  0  0  0  0  0  0  0  0  0
    1.6670    1.0429    0.0717 C   0  0  0  0  0  0  0  0  0  0  0  0
   -3.0084   -0.3874   -1.5084 C   0  0  0  0  0  0  0  0  0  0  0  0
   -3.3663    1.5997   -0.0253 C   0  0  0  0  0  0  0  0  0  0  0  0
   -4.3247   -0.3077    0.1869 H   0  0  0  0  0  0  0  0  0  0  0  0
    2.2522   -1.5062   -1.3685 H   0  0  0  0  0  0  0  0  0  0  0  0
    2.5769   -2.0110    0.3003 H   0  0  0  0  0  0  0  0  0  0  0  0
   -2.5419   -0.1770    1.9167 H   0  0  0  0  0  0  0  0  0  0  0  0
   -2.3698   -1.6051    0.8963 H   0  0  0  0  0  0  0  0  0  0  0  0
    4.2486   -0.3525    0.5704 H   0  0  0  0  0  0  0  0  0  0  0  0
    4.2568   -0.2625   -1.2127 H   0  0  0  0  0  0  0  0  0  0  0  0
   -0.7472    0.9084    0.7117 H   0  0  0  0  0  0  0  0  0  0  0  0
    3.5627    1.9755   -0.2671 H   0  0  0  0  0  0  0  0  0  0  0  0
   -3.7879   -0.0549   -2.2025 H   0  0  0  0  0  0  0  0  0  0  0  0
   -2.9594   -1.4801   -1.5649 H   0  0  0  0  0  0  0  0  0  0  0  0
   -2.0553    0.0164   -1.8661 H   0  0  0  0  0  0  0  0  0  0  0  0
   -2.4265    2.0476   -0.3643 H   0  0  0  0  0  0  0  0  0  0  0  0
   -3.5605    1.9438    0.9959 H   0  0  0  0  0  0  0  0  0  0  0  0
   -4.1662    1.9886   -0.6649 H   0  0  0  0  0  0  0  0  0  0  0  0
  1 10  2  0  0  0  0
  2 11  2  0  0  0  0
  3  7  1  0  0  0  0
  3 10  1  0  0  0  0
  3 11  1  0  0  0  0
  4  8  1  0  0  0  0
  4 10  1  0  0  0  0
  4 21  1  0  0  0  0
  5  9  1  0  0  0  0
  5 11  1  0  0  0  0
  5 22  1  0  0  0  0
  6  8  1  0  0  0  0
  6 12  1  0  0  0  0
  6 13  1  0  0  0  0
  6 14  1  0  0  0  0
  7  9  1  0  0  0  0
  7 15  1  0  0  0  0
  7 16  1  0  0  0  0
  8 17  1  0  0  0  0
  8 18  1  0  0  0  0
  9 19  1  0  0  0  0
  9 20  1  0  0  0  0
 12 23  1  0  0  0  0
 12 24  1  0  0  0  0
 12 25  1  0  0  0  0
 13 26  1  0  0  0  0
 13 27  1  0  0  0  0
 13 28  1  0  0  0  0
M  END
> <PUBCHEM_COMPOUND_CID>
35699

> <PUBCHEM_CONFORMER_RMSD>
0.6

> <PUBCHEM_CONFORMER_DIVERSEORDER>
1
7
10
4
3
9
8
6
2
5

> <PUBCHEM_MMFF94_PARTIAL_CHARGES>
12
1 -0.57
10 0.69
11 0.69
2 -0.57
21 0.37
22 0.37
3 -0.42
4 -0.73
5 -0.73
7 0.3
8 0.3
9 0.3

> <PUBCHEM_EFFECTIVE_ROTOR_COUNT>
4.8

> <PUBCHEM_PHARMACOPHORE_FEATURES>
6
1 1 acceptor
1 2 acceptor
1 4 donor
1 5 donor
3 6 12 13 hydrophobe
5 3 5 7 9 11 rings

> <PUBCHEM_HEAVY_ATOM_COUNT>
13

> <PUBCHEM_ATOM_DEF_STEREO_COUNT>
0

> <PUBCHEM_ATOM_UDEF_STEREO_COUNT>
0

> <PUBCHEM_BOND_DEF_STEREO_COUNT>
0

> <PUBCHEM_BOND_UDEF_STEREO_COUNT>
0

> <PUBCHEM_ISOTOPIC_ATOM_COUNT>
0

> <PUBCHEM_COMPONENT_COUNT>
1

> <PUBCHEM_CACTVS_TAUTO_COUNT>
4

> <PUBCHEM_CONFORMER_ID>
00008B7300000001

> <PUBCHEM_MMFF94_ENERGY>
18.3852

> <PUBCHEM_FEATURE_SELFOVERLAP>
30.446

> <PUBCHEM_SHAPE_FINGERPRINT>
10608611 8 18340483353065198568
11401426 45 18260834821307129336
12251169 10 10159694733621759743
124424 183 18060142041857538642
12932764 1 17675926478080725419
14250199 8 18337114462692080885
14325111 11 18412259523676384475
15279308 100 18340480084848105430
15775835 57 18335137600851259941
18186145 218 18409162225106405630
20201158 50 18412542132476955960
20606313 2 18409729586001685452
21119208 17 17821449084100629261
22959321 8 18129958844204143997
23402539 116 18261398879488759086
23402655 69 18260828232421511701
25 1 18270962461449358579
2748010 2 17831853552180966984
81228 2 17341521952207407715

> <PUBCHEM_SHAPE_MULTIPOLES>
240.85
6.42
1.75
0.91
0.73
0.2
0.21
1.25
1.34
-0.2
-0.14
0.69
-0.15
0.01

> <PUBCHEM_SHAPE_SELFOVERLAP>
473.513

> <PUBCHEM_SHAPE_VOLUME>
144.2

> <PUBCHEM_COORDINATE_TYPE>
2
5
10

$$$$

