10089
  -OEChem-06261204182D

 55 57  0     1  0  0  0  0  0999 V2000
    2.1736   -1.5863    0.0000 O   0  0  0  0  0  0  0  0  0  0  0  0
    7.9115    0.8660    0.0000 O   0  0  0  0  0  0  0  0  0  0  0  0
    3.7057   -0.3008    0.0000 N   0  0  0  0  0  0  0  0  0  0  0  0
    6.4115    0.0000    0.0000 C   0  0  0  0  0  0  0  0  0  0  0  0
    4.4718    0.3420    0.0000 C   0  0  3  0  0  0  0  0  0  0  0  0
    5.4115    0.0000    0.0000 C   0  0  0  0  0  0  0  0  0  0  0  0
    3.8793   -1.2855    0.0000 C   0  0  0  0  0  0  0  0  0  0  0  0
    2.7660    0.0413    0.0000 C   0  0  0  0  0  0  0  0  0  0  0  0
    6.4115   -1.0000    0.0000 C   0  0  0  0  0  0  0  0  0  0  0  0
    6.4115    1.0000    0.0000 C   0  0  0  0  0  0  0  0  0  0  0  0
    7.4115    0.0000    0.0000 C   0  0  0  0  0  0  0  0  0  0  0  0
    4.2981    1.3268    0.0000 C   0  0  0  0  0  0  0  0  0  0  0  0
    3.1133   -1.9283    0.0000 C   0  0  0  0  0  0  0  0  0  0  0  0
    2.0000   -0.6015    0.0000 C   0  0  0  0  0  0  0  0  0  0  0  0
    7.9115   -0.8660    0.0000 C   0  0  0  0  0  0  0  0  0  0  0  0
    7.2775    1.5000    0.0000 C   0  0  0  0  0  0  0  0  0  0  0  0
    5.5454   -1.5000    0.0000 C   0  0  0  0  0  0  0  0  0  0  0  0
    5.5454    1.5000    0.0000 C   0  0  0  0  0  0  0  0  0  0  0  0
    7.2775   -1.5000    0.0000 C   0  0  0  0  0  0  0  0  0  0  0  0
    8.9115   -0.8660    0.0000 C   0  0  0  0  0  0  0  0  0  0  0  0
    7.2775    2.5000    0.0000 C   0  0  0  0  0  0  0  0  0  0  0  0
    5.5454   -2.5000    0.0000 C   0  0  0  0  0  0  0  0  0  0  0  0
    5.5454    2.5000    0.0000 C   0  0  0  0  0  0  0  0  0  0  0  0
    7.2775   -2.5000    0.0000 C   0  0  0  0  0  0  0  0  0  0  0  0
    6.4115    3.0000    0.0000 C   0  0  0  0  0  0  0  0  0  0  0  0
    6.4115   -3.0000    0.0000 C   0  0  0  0  0  0  0  0  0  0  0  0
    3.8892    0.5541    0.0000 H   0  0  0  0  0  0  0  0  0  0  0  0
    4.9860   -0.4510    0.0000 H   0  0  0  0  0  0  0  0  0  0  0  0
    5.5191    0.6106    0.0000 H   0  0  0  0  0  0  0  0  0  0  0  0
    4.1893   -1.8224    0.0000 H   0  0  0  0  0  0  0  0  0  0  0  0
    4.4619   -1.0735    0.0000 H   0  0  0  0  0  0  0  0  0  0  0  0
    3.0760    0.5782    0.0000 H   0  0  0  0  0  0  0  0  0  0  0  0
    2.2911    0.4398    0.0000 H   0  0  0  0  0  0  0  0  0  0  0  0
    4.9087    1.4345    0.0000 H   0  0  0  0  0  0  0  0  0  0  0  0
    4.1905    1.9374    0.0000 H   0  0  0  0  0  0  0  0  0  0  0  0
    3.6876    1.2192    0.0000 H   0  0  0  0  0  0  0  0  0  0  0  0
    2.8033   -2.4652    0.0000 H   0  0  0  0  0  0  0  0  0  0  0  0
    3.5882   -2.3268    0.0000 H   0  0  0  0  0  0  0  0  0  0  0  0
    1.6900   -0.0646    0.0000 H   0  0  0  0  0  0  0  0  0  0  0  0
    1.4174   -0.8136    0.0000 H   0  0  0  0  0  0  0  0  0  0  0  0
    7.3289   -1.0781    0.0000 H   0  0  0  0  0  0  0  0  0  0  0  0
    8.0191   -1.4766    0.0000 H   0  0  0  0  0  0  0  0  0  0  0  0
    7.8144    1.1900    0.0000 H   0  0  0  0  0  0  0  0  0  0  0  0
    5.0085   -1.1900    0.0000 H   0  0  0  0  0  0  0  0  0  0  0  0
    5.0085    1.1900    0.0000 H   0  0  0  0  0  0  0  0  0  0  0  0
    7.8144   -1.1900    0.0000 H   0  0  0  0  0  0  0  0  0  0  0  0
    8.9115   -1.4860    0.0000 H   0  0  0  0  0  0  0  0  0  0  0  0
    9.5315   -0.8660    0.0000 H   0  0  0  0  0  0  0  0  0  0  0  0
    8.9115   -0.2460    0.0000 H   0  0  0  0  0  0  0  0  0  0  0  0
    5.0085   -2.8100    0.0000 H   0  0  0  0  0  0  0  0  0  0  0  0
    7.8144    2.8100    0.0000 H   0  0  0  0  0  0  0  0  0  0  0  0
    5.0085    2.8100    0.0000 H   0  0  0  0  0  0  0  0  0  0  0  0
    7.8144   -2.8100    0.0000 H   0  0  0  0  0  0  0  0  0  0  0  0
    6.4115    3.6200    0.0000 H   0  0  0  0  0  0  0  0  0  0  0  0
    6.4115   -3.6200    0.0000 H   0  0  0  0  0  0  0  0  0  0  0  0
  1 13  1  0  0  0  0
  1 14  1  0  0  0  0
  2 11  2  0  0  0  0
  3  5  1  0  0  0  0
  3  7  1  0  0  0  0
  3  8  1  0  0  0  0
  4  6  1  0  0  0  0
  4  9  1  0  0  0  0
  4 10  1  0  0  0  0
  4 11  1  0  0  0  0
  5  6  1  0  0  0  0
  5 12  1  0  0  0  0
  5 27  1  0  0  0  0
  6 28  1  0  0  0  0
  6 29  1  0  0  0  0
  7 13  1  0  0  0  0
  7 30  1  0  0  0  0
  7 31  1  0  0  0  0
  8 14  1  0  0  0  0
  8 32  1  0  0  0  0
  8 33  1  0  0  0  0
  9 17  2  0  0  0  0
  9 19  1  0  0  0  0
 10 16  2  0  0  0  0
 10 18  1  0  0  0  0
 11 15  1  0  0  0  0
 12 34  1  0  0  0  0
 12 35  1  0  0  0  0
 12 36  1  0  0  0  0
 13 37  1  0  0  0  0
 13 38  1  0  0  0  0
 14 39  1  0  0  0  0
 14 40  1  0  0  0  0
 15 20  1  0  0  0  0
 15 41  1  0  0  0  0
 15 42  1  0  0  0  0
 16 21  1  0  0  0  0
 16 43  1  0  0  0  0
 17 22  1  0  0  0  0
 17 44  1  0  0  0  0
 18 23  2  0  0  0  0
 18 45  1  0  0  0  0
 19 24  2  0  0  0  0
 19 46  1  0  0  0  0
 20 47  1  0  0  0  0
 20 48  1  0  0  0  0
 20 49  1  0  0  0  0
 21 25  2  0  0  0  0
 21 51  1  0  0  0  0
 22 26  2  0  0  0  0
 22 50  1  0  0  0  0
 23 25  1  0  0  0  0
 23 52  1  0  0  0  0
 24 26  1  0  0  0  0
 24 53  1  0  0  0  0
 25 54  1  0  0  0  0
 26 55  1  0  0  0  0
M  END
> <PUBCHEM_COMPOUND_CID>
10089

> <PUBCHEM_COMPOUND_CANONICALIZED>
1

> <PUBCHEM_CACTVS_COMPLEXITY>
414

> <PUBCHEM_CACTVS_HBOND_ACCEPTOR>
3

> <PUBCHEM_CACTVS_HBOND_DONOR>
0

> <PUBCHEM_CACTVS_ROTATABLE_BOND>
7

> <PUBCHEM_CACTVS_SUBSKEYS>
AAADceB6MAAAAAAAAAAAAAAAAAAAAAAAAAA8YIAAAAAAAAABQAAAHgAAAAAADizhmAYyAIMABACIAqBSAAACAAAgAAAIiAEIAIgKIDKAlRCHIAAggACYiAcciMCPgAAAAAAAAAAAAAAAAAAAAAAAAAAAAA==

> <PUBCHEM_IUPAC_OPENEYE_NAME>
6-morpholino-4,4-diphenyl-heptan-3-one

> <PUBCHEM_IUPAC_CAS_NAME>
6-(4-morpholinyl)-4,4-diphenyl-3-heptanone

> <PUBCHEM_IUPAC_NAME>
6-morpholin-4-yl-4,4-diphenylheptan-3-one

> <PUBCHEM_IUPAC_SYSTEMATIC_NAME>
6-morpholin-4-yl-4,4-diphenyl-heptan-3-one

> <PUBCHEM_IUPAC_TRADITIONAL_NAME>
6-morpholino-4,4-diphenyl-heptan-3-one

> <PUBCHEM_IUPAC_INCHI>
InChI=1S/C23H29NO2/c1-3-22(25)23(20-10-6-4-7-11-20,21-12-8-5-9-13-21)18-19(2)24-14-16-26-17-15-24/h4-13,19H,3,14-18H2,1-2H3

> <PUBCHEM_IUPAC_INCHIKEY>
LOXCOAXRHYDLOW-UHFFFAOYSA-N

> <PUBCHEM_XLOGP3>
3.6

> <PUBCHEM_EXACT_MASS>
351.219829

> <PUBCHEM_MOLECULAR_FORMULA>
C23H29NO2

> <PUBCHEM_MOLECULAR_WEIGHT>
351.48186

> <PUBCHEM_OPENEYE_CAN_SMILES>
CCC(=O)C(CC(C)N1CCOCC1)(C2=CC=CC=C2)C3=CC=CC=C3

> <PUBCHEM_OPENEYE_ISO_SMILES>
CCC(=O)C(CC(C)N1CCOCC1)(C2=CC=CC=C2)C3=CC=CC=C3

> <PUBCHEM_CACTVS_TPSA>
29.5

> <PUBCHEM_MONOISOTOPIC_WEIGHT>
351.219829

> <PUBCHEM_TOTAL_CHARGE>
0

> <PUBCHEM_HEAVY_ATOM_COUNT>
26

> <PUBCHEM_ATOM_DEF_STEREO_COUNT>
0

> <PUBCHEM_ATOM_UDEF_STEREO_COUNT>
1

> <PUBCHEM_BOND_DEF_STEREO_COUNT>
0

> <PUBCHEM_BOND_UDEF_STEREO_COUNT>
0

> <PUBCHEM_ISOTOPIC_ATOM_COUNT>
0

> <PUBCHEM_COMPONENT_COUNT>
1

> <PUBCHEM_CACTVS_TAUTO_COUNT>
2

> <PUBCHEM_COORDINATE_TYPE>
1
5
255

> <PUBCHEM_BONDANNOTATIONS>
10  16  8
10  18  8
16  21  8
17  22  8
18  23  8
19  24  8
21  25  8
22  26  8
23  25  8
24  26  8
5  12  3
9  17  8
9  19  8

$$$$

