96227
  -OEChem-07051213052D

 28 29  0     0  0  0  0  0  0999 V2000
   10.3972    1.5068    0.0000 O   0  0  0  0  0  0  0  0  0  0  0  0
    2.5369   -0.0173    0.0000 O   0  0  0  0  0  0  0  0  0  0  0  0
    3.4030   -1.5173    0.0000 O   0  0  0  0  0  0  0  0  0  0  0  0
    6.0010   -0.0173    0.0000 C   0  0  0  0  0  0  0  0  0  0  0  0
    5.1350   -0.5173    0.0000 C   0  0  0  0  0  0  0  0  0  0  0  0
    7.7331   -0.0173    0.0000 C   0  0  0  0  0  0  0  0  0  0  0  0
    7.7331    0.9827    0.0000 C   0  0  0  0  0  0  0  0  0  0  0  0
    6.8671   -0.5173    0.0000 C   0  0  0  0  0  0  0  0  0  0  0  0
    6.0010    0.9827    0.0000 C   0  0  0  0  0  0  0  0  0  0  0  0
    4.2690   -0.0173    0.0000 C   0  0  0  0  0  0  0  0  0  0  0  0
    6.8671    1.4827    0.0000 C   0  0  0  0  0  0  0  0  0  0  0  0
    8.6270   -0.5520    0.0000 C   0  0  0  0  0  0  0  0  0  0  0  0
    8.6270    1.5173    0.0000 C   0  0  0  0  0  0  0  0  0  0  0  0
    9.5331    1.0035    0.0000 C   0  0  0  0  0  0  0  0  0  0  0  0
    9.5331   -0.0381    0.0000 C   0  0  0  0  0  0  0  0  0  0  0  0
    3.4030   -0.5173    0.0000 C   0  0  0  0  0  0  0  0  0  0  0  0
    4.7365   -0.9923    0.0000 H   0  0  0  0  0  0  0  0  0  0  0  0
    5.5335   -0.9923    0.0000 H   0  0  0  0  0  0  0  0  0  0  0  0
    6.8671   -1.1373    0.0000 H   0  0  0  0  0  0  0  0  0  0  0  0
    5.4641    1.2927    0.0000 H   0  0  0  0  0  0  0  0  0  0  0  0
    4.6675    0.4576    0.0000 H   0  0  0  0  0  0  0  0  0  0  0  0
    3.8705    0.4576    0.0000 H   0  0  0  0  0  0  0  0  0  0  0  0
    6.8671    2.1027    0.0000 H   0  0  0  0  0  0  0  0  0  0  0  0
    8.6199   -1.1720    0.0000 H   0  0  0  0  0  0  0  0  0  0  0  0
    8.6199    2.1373    0.0000 H   0  0  0  0  0  0  0  0  0  0  0  0
   10.0688   -0.3502    0.0000 H   0  0  0  0  0  0  0  0  0  0  0  0
   10.9353    1.1989    0.0000 H   0  0  0  0  0  0  0  0  0  0  0  0
    2.0000   -0.3273    0.0000 H   0  0  0  0  0  0  0  0  0  0  0  0
  1 14  1  0  0  0  0
  1 27  1  0  0  0  0
  2 16  1  0  0  0  0
  2 28  1  0  0  0  0
  3 16  2  0  0  0  0
  4  5  1  0  0  0  0
  4  8  2  0  0  0  0
  4  9  1  0  0  0  0
  5 10  1  0  0  0  0
  5 17  1  0  0  0  0
  5 18  1  0  0  0  0
  6  7  2  0  0  0  0
  6  8  1  0  0  0  0
  6 12  1  0  0  0  0
  7 11  1  0  0  0  0
  7 13  1  0  0  0  0
  8 19  1  0  0  0  0
  9 11  2  0  0  0  0
  9 20  1  0  0  0  0
 10 16  1  0  0  0  0
 10 21  1  0  0  0  0
 10 22  1  0  0  0  0
 11 23  1  0  0  0  0
 12 15  2  0  0  0  0
 12 24  1  0  0  0  0
 13 14  2  0  0  0  0
 13 25  1  0  0  0  0
 14 15  1  0  0  0  0
 15 26  1  0  0  0  0
M  END
> <PUBCHEM_COMPOUND_CID>
96227

> <PUBCHEM_COMPOUND_CANONICALIZED>
1

> <PUBCHEM_CACTVS_COMPLEXITY>
252

> <PUBCHEM_CACTVS_HBOND_ACCEPTOR>
3

> <PUBCHEM_CACTVS_HBOND_DONOR>
2

> <PUBCHEM_CACTVS_ROTATABLE_BOND>
3

> <PUBCHEM_CACTVS_SUBSKEYS>
AAADccBwMAAAAAAAAAAAAAAAAAAAAAAAAAAwYAAAAAAAAADBUAAAGgAACAAADASAmAAwDsAAAgCIAiDSCAACAAAgIAAIiAEGCIgIJjKCERKAcAAkwBEImAeIyPCO4AADAAAQAADAAAYAACAAAAAAAAAAAA==

> <PUBCHEM_IUPAC_OPENEYE_NAME>
3-(6-hydroxy-2-naphthyl)propanoic acid

> <PUBCHEM_IUPAC_CAS_NAME>
3-(6-hydroxy-2-naphthalenyl)propanoic acid

> <PUBCHEM_IUPAC_NAME>
3-(6-hydroxynaphthalen-2-yl)propanoic acid

> <PUBCHEM_IUPAC_SYSTEMATIC_NAME>
3-(6-oxidanylnaphthalen-2-yl)propanoic acid

> <PUBCHEM_IUPAC_TRADITIONAL_NAME>
3-(6-hydroxy-2-naphthyl)propionic acid

> <PUBCHEM_IUPAC_INCHI>
InChI=1S/C13H12O3/c14-12-5-4-10-7-9(2-6-13(15)16)1-3-11(10)8-12/h1,3-5,7-8,14H,2,6H2,(H,15,16)

> <PUBCHEM_IUPAC_INCHIKEY>
NHGXZNWPADXVOA-UHFFFAOYSA-N

> <PUBCHEM_XLOGP3>
2.6

> <PUBCHEM_EXACT_MASS>
216.078644

> <PUBCHEM_MOLECULAR_FORMULA>
C13H12O3

> <PUBCHEM_MOLECULAR_WEIGHT>
216.23258

> <PUBCHEM_OPENEYE_CAN_SMILES>
C1=CC2=C(C=CC(=C2)O)C=C1CCC(=O)O

> <PUBCHEM_OPENEYE_ISO_SMILES>
C1=CC2=C(C=CC(=C2)O)C=C1CCC(=O)O

> <PUBCHEM_CACTVS_TPSA>
57.5

> <PUBCHEM_MONOISOTOPIC_WEIGHT>
216.078644

> <PUBCHEM_TOTAL_CHARGE>
0

> <PUBCHEM_HEAVY_ATOM_COUNT>
16

> <PUBCHEM_ATOM_DEF_STEREO_COUNT>
0

> <PUBCHEM_ATOM_UDEF_STEREO_COUNT>
0

> <PUBCHEM_BOND_DEF_STEREO_COUNT>
0

> <PUBCHEM_BOND_UDEF_STEREO_COUNT>
0

> <PUBCHEM_ISOTOPIC_ATOM_COUNT>
0

> <PUBCHEM_COMPONENT_COUNT>
1

> <PUBCHEM_CACTVS_TAUTO_COUNT>
3

> <PUBCHEM_COORDINATE_TYPE>
1
5
255

> <PUBCHEM_BONDANNOTATIONS>
12  15  8
13  14  8
14  15  8
4  8  8
4  9  8
6  12  8
6  7  8
6  8  8
7  11  8
7  13  8
9  11  8

$$$$

