12154
  -OEChem-06261206363D

 18 18  0     0  0  0  0  0  0999 V2000
    3.0996    0.4888   -1.1091 O   0  0  0  0  0  0  0  0  0  0  0  0
    1.0932    0.5034    0.8122 N   0  0  0  0  0  0  0  0  0  0  0  0
    2.0252   -0.4817    0.7238 N   0  0  0  0  0  0  0  0  0  0  0  0
   -0.2268    0.2400    0.3907 C   0  0  0  0  0  0  0  0  0  0  0  0
   -1.1186    1.2939    0.1923 C   0  0  0  0  0  0  0  0  0  0  0  0
   -0.6400   -1.0740    0.1715 C   0  0  0  0  0  0  0  0  0  0  0  0
   -2.4239    1.0338   -0.2253 C   0  0  0  0  0  0  0  0  0  0  0  0
   -1.9452   -1.3342   -0.2462 C   0  0  0  0  0  0  0  0  0  0  0  0
   -2.8371   -0.2802   -0.4446 C   0  0  0  0  0  0  0  0  0  0  0  0
    2.9735   -0.3899   -0.2653 C   0  0  0  0  0  0  0  0  0  0  0  0
   -0.8084    2.3222    0.3595 H   0  0  0  0  0  0  0  0  0  0  0  0
    0.0208   -1.9232    0.3212 H   0  0  0  0  0  0  0  0  0  0  0  0
    1.4113    1.4557    0.9388 H   0  0  0  0  0  0  0  0  0  0  0  0
   -3.1185    1.8543   -0.3797 H   0  0  0  0  0  0  0  0  0  0  0  0
   -2.2680   -2.3573   -0.4156 H   0  0  0  0  0  0  0  0  0  0  0  0
   -3.8535   -0.4828   -0.7694 H   0  0  0  0  0  0  0  0  0  0  0  0
    1.9924   -1.2138    1.4246 H   0  0  0  0  0  0  0  0  0  0  0  0
    3.6665   -1.2459   -0.2162 H   0  0  0  0  0  0  0  0  0  0  0  0
  1 10  2  0  0  0  0
  2  3  1  0  0  0  0
  2  4  1  0  0  0  0
  2 13  1  0  0  0  0
  3 10  1  0  0  0  0
  3 17  1  0  0  0  0
  4  5  2  0  0  0  0
  4  6  1  0  0  0  0
  5  7  1  0  0  0  0
  5 11  1  0  0  0  0
  6  8  2  0  0  0  0
  6 12  1  0  0  0  0
  7  9  2  0  0  0  0
  7 14  1  0  0  0  0
  8  9  1  0  0  0  0
  8 15  1  0  0  0  0
  9 16  1  0  0  0  0
 10 18  1  0  0  0  0
M  END
> <PUBCHEM_COMPOUND_CID>
12154

> <PUBCHEM_CONFORMER_RMSD>
0.6

> <PUBCHEM_CONFORMER_DIVERSEORDER>
2
5
6
3
7
1
4

> <PUBCHEM_MMFF94_PARTIAL_CHARGES>
18
1 -0.57
10 0.57
11 0.15
12 0.15
13 0.4
14 0.15
15 0.15
16 0.15
17 0.37
18 0.06
2 -0.52
3 -0.41
4 0.1
5 -0.15
6 -0.15
7 -0.15
8 -0.15
9 -0.15

> <PUBCHEM_EFFECTIVE_ROTOR_COUNT>
3

> <PUBCHEM_PHARMACOPHORE_FEATURES>
4
1 1 acceptor
1 2 donor
1 3 donor
6 4 5 6 7 8 9 rings

> <PUBCHEM_HEAVY_ATOM_COUNT>
10

> <PUBCHEM_ATOM_DEF_STEREO_COUNT>
0

> <PUBCHEM_ATOM_UDEF_STEREO_COUNT>
0

> <PUBCHEM_BOND_DEF_STEREO_COUNT>
0

> <PUBCHEM_BOND_UDEF_STEREO_COUNT>
0

> <PUBCHEM_ISOTOPIC_ATOM_COUNT>
0

> <PUBCHEM_COMPONENT_COUNT>
1

> <PUBCHEM_CACTVS_TAUTO_COUNT>
2

> <PUBCHEM_CONFORMER_ID>
00002F7A00000002

> <PUBCHEM_MMFF94_ENERGY>
30.6069

> <PUBCHEM_FEATURE_SELFOVERLAP>
21.899

> <PUBCHEM_SHAPE_FINGERPRINT>
11206711 2 18338251422202683069
12716758 59 18261960738024718995
12897270 3 18410854335136874134
12932764 1 18408609157883184730
14390081 3 13398639358909202847
15310529 11 17203617016236885489
15775835 57 17846493759736695060
16945 1 18335432274278158947
20201158 50 17748826340954305190
20279233 1 17458634418926159918
20645464 45 17750257861943419818
20645476 183 18060140946398616103
20653085 51 16844461594616210365
21040471 1 18193291890706063193
23552423 10 18270972228014975217
2748010 2 18049178678420625859
29004967 10 16153715305587224363
3248919 1 17632303375628701162
369184 2 6194838172514396899
528716 315 18342447102407274950

> <PUBCHEM_SHAPE_MULTIPOLES>
189.96
4.8
1.29
0.85
2.97
0.04
0.06
0.08
1.33
-0.75
0
0.39
-0.05
-0.16

> <PUBCHEM_SHAPE_SELFOVERLAP>
388.411

> <PUBCHEM_SHAPE_VOLUME>
108.9

> <PUBCHEM_COORDINATE_TYPE>
2
5
10

$$$$

