1147
  -OEChem-07051212453D

 13 12  0     0  0  0  0  0  0999 V2000
    0.0000    0.0000   -0.6880 S   0  3  0  0  0  0  0  0  0  0  0  0
    0.8809    1.2852    0.2294 C   0  0  0  0  0  0  0  0  0  0  0  0
   -1.5536    0.1202    0.2293 C   0  0  0  0  0  0  0  0  0  0  0  0
    0.6726   -1.4054    0.2293 C   0  0  0  0  0  0  0  0  0  0  0  0
    1.9378    1.2530   -0.0472 H   0  0  0  0  0  0  0  0  0  0  0  0
    0.7836    1.1433    1.3085 H   0  0  0  0  0  0  0  0  0  0  0  0
    0.4698    2.2592   -0.0473 H   0  0  0  0  0  0  0  0  0  0  0  0
   -2.0542    1.0515   -0.0474 H   0  0  0  0  0  0  0  0  0  0  0  0
   -1.3821    0.1069    1.3085 H   0  0  0  0  0  0  0  0  0  0  0  0
   -2.1914   -0.7230   -0.0474 H   0  0  0  0  0  0  0  0  0  0  0  0
    0.1165   -2.3046   -0.0474 H   0  0  0  0  0  0  0  0  0  0  0  0
    0.5983   -1.2504    1.3085 H   0  0  0  0  0  0  0  0  0  0  0  0
    1.7219   -1.5362   -0.0472 H   0  0  0  0  0  0  0  0  0  0  0  0
  1  2  1  0  0  0  0
  1  3  1  0  0  0  0
  1  4  1  0  0  0  0
  2  5  1  0  0  0  0
  2  6  1  0  0  0  0
  2  7  1  0  0  0  0
  3  8  1  0  0  0  0
  3  9  1  0  0  0  0
  3 10  1  0  0  0  0
  4 11  1  0  0  0  0
  4 12  1  0  0  0  0
  4 13  1  0  0  0  0
M  CHG  1   1   1
M  END
> <PUBCHEM_COMPOUND_CID>
1147

> <PUBCHEM_CONFORMER_RMSD>
0.4

> <PUBCHEM_CONFORMER_DIVERSEORDER>
1

> <PUBCHEM_EFFECTIVE_ROTOR_COUNT>
0

> <PUBCHEM_PHARMACOPHORE_FEATURES>
0

> <PUBCHEM_HEAVY_ATOM_COUNT>
4

> <PUBCHEM_ATOM_DEF_STEREO_COUNT>
0

> <PUBCHEM_ATOM_UDEF_STEREO_COUNT>
0

> <PUBCHEM_BOND_DEF_STEREO_COUNT>
0

> <PUBCHEM_BOND_UDEF_STEREO_COUNT>
0

> <PUBCHEM_ISOTOPIC_ATOM_COUNT>
0

> <PUBCHEM_COMPONENT_COUNT>
1

> <PUBCHEM_CACTVS_TAUTO_COUNT>
1

> <PUBCHEM_CONFORMER_ID>
0000047B00000001

> <PUBCHEM_MMFF94_ENERGY>
4.5845

> <PUBCHEM_FEATURE_SELFOVERLAP>
0

> <PUBCHEM_SHAPE_FINGERPRINT>
139733 1 8284752473979030239
20096714 4 18115019684854049017
21015797 1 9942712714596092655
5943 1 13847228077043614012

> <PUBCHEM_SHAPE_MULTIPOLES>
86.17
1.51
1.51
0.81
0.51
0.44
-0.11
-0.44
0.21
-0.51
0.21
0
0
0

> <PUBCHEM_SHAPE_SELFOVERLAP>
125.103

> <PUBCHEM_SHAPE_VOLUME>
66.8

> <PUBCHEM_COORDINATE_TYPE>
2
5
10

$$$$

