91749
  -OEChem-07051213133D

 23 24  0     0  0  0  0  0  0999 V2000
    3.6060    1.1338   -0.0486 Cl  0  0  0  0  0  0  0  0  0  0  0  0
    1.6237   -2.1792   -1.0223 O   0  0  0  0  0  0  0  0  0  0  0  0
    2.7201   -1.7365    0.9080 O   0  0  0  0  0  0  0  0  0  0  0  0
   -0.8480   -1.3580    0.0646 N   0  0  0  0  0  0  0  0  0  0  0  0
   -0.9098    1.0499   -0.0102 C   0  0  0  0  0  0  0  0  0  0  0  0
   -0.2086   -0.1737    0.0229 C   0  0  0  0  0  0  0  0  0  0  0  0
    1.1829   -0.1317    0.0111 C   0  0  0  0  0  0  0  0  0  0  0  0
   -2.3105    1.0082    0.0017 C   0  0  0  0  0  0  0  0  0  0  0  0
   -2.9721   -0.2105    0.0447 C   0  0  0  0  0  0  0  0  0  0  0  0
   -0.2101    2.2678   -0.0536 C   0  0  0  0  0  0  0  0  0  0  0  0
    1.8787    1.0789   -0.0321 C   0  0  0  0  0  0  0  0  0  0  0  0
    1.1818    2.2804   -0.0645 C   0  0  0  0  0  0  0  0  0  0  0  0
   -2.2007   -1.3546    0.0746 C   0  0  0  0  0  0  0  0  0  0  0  0
   -4.4568   -0.2813    0.0581 C   0  0  0  0  0  0  0  0  0  0  0  0
    1.9233   -1.3934    0.0456 C   0  0  0  0  0  0  0  0  0  0  0  0
   -2.8844    1.9326   -0.0244 H   0  0  0  0  0  0  0  0  0  0  0  0
   -0.7461    3.2140   -0.0793 H   0  0  0  0  0  0  0  0  0  0  0  0
    1.7038    3.2329   -0.0987 H   0  0  0  0  0  0  0  0  0  0  0  0
   -2.6525   -2.3413    0.1071 H   0  0  0  0  0  0  0  0  0  0  0  0
   -4.8069   -1.2036    0.5340 H   0  0  0  0  0  0  0  0  0  0  0  0
   -4.8840    0.5538    0.6236 H   0  0  0  0  0  0  0  0  0  0  0  0
   -4.8450   -0.2486   -0.9648 H   0  0  0  0  0  0  0  0  0  0  0  0
    2.1176   -3.0265   -1.0026 H   0  0  0  0  0  0  0  0  0  0  0  0
  1 11  1  0  0  0  0
  2 15  1  0  0  0  0
  2 23  1  0  0  0  0
  3 15  2  0  0  0  0
  4  6  1  0  0  0  0
  4 13  2  0  0  0  0
  5  6  2  0  0  0  0
  5  8  1  0  0  0  0
  5 10  1  0  0  0  0
  6  7  1  0  0  0  0
  7 11  2  0  0  0  0
  7 15  1  0  0  0  0
  8  9  2  0  0  0  0
  8 16  1  0  0  0  0
  9 13  1  0  0  0  0
  9 14  1  0  0  0  0
 10 12  2  0  0  0  0
 10 17  1  0  0  0  0
 11 12  1  0  0  0  0
 12 18  1  0  0  0  0
 13 19  1  0  0  0  0
 14 20  1  0  0  0  0
 14 21  1  0  0  0  0
 14 22  1  0  0  0  0
M  END
> <PUBCHEM_COMPOUND_CID>
91749

> <PUBCHEM_CONFORMER_RMSD>
0.4

> <PUBCHEM_CONFORMER_DIVERSEORDER>
1
2

> <PUBCHEM_MMFF94_PARTIAL_CHARGES>
19
1 -0.18
10 -0.15
11 0.18
12 -0.15
13 0.16
14 0.14
15 0.63
16 0.15
17 0.15
18 0.15
19 0.15
2 -0.65
23 0.5
3 -0.57
4 -0.62
6 0.31
7 0.09
8 -0.15
9 -0.14

> <PUBCHEM_EFFECTIVE_ROTOR_COUNT>
1

> <PUBCHEM_PHARMACOPHORE_FEATURES>
6
1 2 acceptor
1 3 acceptor
1 4 acceptor
3 2 3 15 anion
6 4 5 6 8 9 13 rings
6 5 6 7 10 11 12 rings

> <PUBCHEM_HEAVY_ATOM_COUNT>
15

> <PUBCHEM_ATOM_DEF_STEREO_COUNT>
0

> <PUBCHEM_ATOM_UDEF_STEREO_COUNT>
0

> <PUBCHEM_BOND_DEF_STEREO_COUNT>
0

> <PUBCHEM_BOND_UDEF_STEREO_COUNT>
0

> <PUBCHEM_ISOTOPIC_ATOM_COUNT>
0

> <PUBCHEM_COMPONENT_COUNT>
1

> <PUBCHEM_CACTVS_TAUTO_COUNT>
1

> <PUBCHEM_CONFORMER_ID>
0001666500000001

> <PUBCHEM_MMFF94_ENERGY>
47.7262

> <PUBCHEM_FEATURE_SELFOVERLAP>
30.541

> <PUBCHEM_SHAPE_FINGERPRINT>
10967382 1 18410855434368920521
10980938 120 18409726240375227117
11132069 177 18338803295161336032
11471102 20 18411141307756230245
11578080 2 16843339032358036006
12346645 6 18334856091245707511
12382932 28 18410012108987378880
12524768 44 18409162242375971607
13140716 1 18050567335441493385
13221675 6 18337386046000029317
13380535 76 18339923705878278811
14144814 61 18408881845705025729
14576447 43 18044390322678185759
14790565 3 16749848830064777668
15219456 202 18342182184682633565
15442244 35 18337669831996335825
15536298 74 18334293175720557216
16945 1 18339927000239650465
17990270 104 18408882966359206495
193761 8 18194400215422484324
20201158 50 18340486677512121985
20511035 2 17695621858002066420
20559304 39 18409729551710681377
20588541 1 18341047419710110197
20645476 183 17269462142224590396
20645477 70 18410579496301672759
20871998 22 18263641942869764590
21267235 1 18411410726538409242
21501502 16 18338232781570059328
21501925 9 18339371845572497035
2334 1 18339079392717698637
23402655 69 18335991909002339101
23463225 33 18412829075163468144
23552423 10 18269272353100431869
23559900 14 16820523242738718006
2748010 2 18267589185313303469
3060560 45 18114175302984256558
34934 24 18410017593708133853
4072396 5 18269293308367312072
528886 8 18337393716790624928
53812653 166 18335985246790806928
53812654 25 18187657906925286519
7364860 26 18334574625006656872
81228 2 17906164405909978296
8809292 202 18057602070991595315

> <PUBCHEM_SHAPE_MULTIPOLES>
293.84
5.63
2.4
0.7
3.13
0.02
0.02
-0.45
-0.26
-1.4
0.12
-0.18
-0.17
-0.06

> <PUBCHEM_SHAPE_SELFOVERLAP>
638.014

> <PUBCHEM_SHAPE_VOLUME>
162.1

> <PUBCHEM_COORDINATE_TYPE>
2
5
10

$$$$

