114652
  -OEChem-07051213153D

102108  0     1  0  0  0  0  0999 V2000
    6.6984   -2.4972   -0.7879 O   0  0  0  0  0  0  0  0  0  0  0  0
    0.3180   -2.8242    0.3318 O   0  0  0  0  0  0  0  0  0  0  0  0
   -1.1673   -0.6417   -0.5804 O   0  0  0  0  0  0  0  0  0  0  0  0
    1.7305   -1.8434    3.2147 O   0  0  0  0  0  0  0  0  0  0  0  0
    8.4062    3.8515    1.1091 O   0  0  0  0  0  0  0  0  0  0  0  0
   -2.8010    0.4128   -1.9406 O   0  0  0  0  0  0  0  0  0  0  0  0
   10.5179    3.6964    0.2077 O   0  0  0  0  0  0  0  0  0  0  0  0
   -3.7888   -2.2188   -2.5395 O   0  0  0  0  0  0  0  0  0  0  0  0
   -5.0159   -2.5490   -0.0637 O   0  0  0  0  0  0  0  0  0  0  0  0
   -5.4452    0.1891    0.6181 O   0  0  0  0  0  0  0  0  0  0  0  0
   -7.1424    1.6087   -0.1227 O   0  0  0  0  0  0  0  0  0  0  0  0
   -7.3793   -1.3954    1.9436 O   0  0  0  0  0  0  0  0  0  0  0  0
   -9.7533    0.1748    2.7046 O   0  0  0  0  0  0  0  0  0  0  0  0
  -10.7622    1.6498    0.4325 O   0  0  0  0  0  0  0  0  0  0  0  0
   -7.8649    3.2752   -2.1731 O   0  0  0  0  0  0  0  0  0  0  0  0
    5.8465   -1.3626   -0.5677 C   0  0  1  0  0  0  0  0  0  0  0  0
    4.4724   -1.9050   -0.0653 C   0  0  1  0  0  0  0  0  0  0  0  0
    6.5275   -0.3388    0.4190 C   0  0  1  0  0  0  0  0  0  0  0  0
    3.5434   -0.7739    0.4469 C   0  0  1  0  0  0  0  0  0  0  0  0
    2.1280   -1.2925    0.8887 C   0  0  2  0  0  0  0  0  0  0  0  0
    1.4790   -2.1805   -0.2191 C   0  0  1  0  0  0  0  0  0  0  0  0
    6.5572    0.9928   -0.3980 C   0  0  2  0  0  0  0  0  0  0  0  0
    5.7226   -0.1826    1.7232 C   0  0  0  0  0  0  0  0  0  0  0  0
    4.2323    0.0894    1.5324 C   0  0  0  0  0  0  0  0  0  0  0  0
    5.7685   -0.6310   -1.9306 C   0  0  0  0  0  0  0  0  0  0  0  0
    3.7911   -2.7851   -1.1325 C   0  0  0  0  0  0  0  0  0  0  0  0
    2.4270   -3.2968   -0.6926 C   0  0  0  0  0  0  0  0  0  0  0  0
    6.7603    0.5188   -1.8329 C   0  0  0  0  0  0  0  0  0  0  0  0
    1.1633   -0.1286    1.2538 C   0  0  0  0  0  0  0  0  0  0  0  0
    1.0050   -1.3293   -1.4277 C   0  0  0  0  0  0  0  0  0  0  0  0
    7.9603   -0.7777    0.8200 C   0  0  0  0  0  0  0  0  0  0  0  0
    0.7180    0.7016    0.0504 C   0  0  0  0  0  0  0  0  0  0  0  0
    0.0937   -0.1612   -1.0395 C   0  0  2  0  0  0  0  0  0  0  0  0
    2.2885   -2.1156    2.1569 C   0  0  0  0  0  0  0  0  0  0  0  0
    7.5503    2.0251    0.0262 C   0  0  0  0  0  0  0  0  0  0  0  0
    7.1965    3.0972    0.9785 C   0  0  0  0  0  0  0  0  0  0  0  0
    8.8178    2.1277   -0.3647 C   0  0  0  0  0  0  0  0  0  0  0  0
   -2.0874   -0.7951   -1.6555 C   0  0  2  0  0  0  0  0  0  0  0  0
    9.3731    3.2943    0.3233 C   0  0  0  0  0  0  0  0  0  0  0  0
   -3.0578   -1.9335   -1.3459 C   0  0  1  0  0  0  0  0  0  0  0  0
   -4.0218   -1.5399   -0.2254 C   0  0  1  0  0  0  0  0  0  0  0  0
   -3.6511    0.8567   -0.8783 C   0  0  2  0  0  0  0  0  0  0  0  0
   -4.7034   -0.2061   -0.5332 C   0  0  2  0  0  0  0  0  0  0  0  0
   -4.2890    2.1657   -1.3352 C   0  0  0  0  0  0  0  0  0  0  0  0
   -6.8393    0.2909    0.3293 C   0  0  2  0  0  0  0  0  0  0  0  0
   -7.6099   -0.0266    1.6108 C   0  0  1  0  0  0  0  0  0  0  0  0
   -9.1100    0.2058    1.4297 C   0  0  2  0  0  0  0  0  0  0  0  0
   -8.5227    1.7705   -0.4537 C   0  0  1  0  0  0  0  0  0  0  0  0
   -9.3859    1.5685    0.7938 C   0  0  1  0  0  0  0  0  0  0  0  0
   -8.6944    3.1688   -1.0389 C   0  0  0  0  0  0  0  0  0  0  0  0
    4.6941   -2.5773    0.7756 H   0  0  0  0  0  0  0  0  0  0  0  0
    3.3809   -0.1013   -0.4037 H   0  0  0  0  0  0  0  0  0  0  0  0
    5.5680    1.4696   -0.3729 H   0  0  0  0  0  0  0  0  0  0  0  0
    6.1495    0.6051    2.3537 H   0  0  0  0  0  0  0  0  0  0  0  0
    5.8187   -1.1067    2.3106 H   0  0  0  0  0  0  0  0  0  0  0  0
    4.0817    1.1475    1.2832 H   0  0  0  0  0  0  0  0  0  0  0  0
    3.7591   -0.0363    2.5122 H   0  0  0  0  0  0  0  0  0  0  0  0
    4.7743   -0.2047   -2.1037 H   0  0  0  0  0  0  0  0  0  0  0  0
    6.0046   -1.2780   -2.7825 H   0  0  0  0  0  0  0  0  0  0  0  0
    4.4279   -3.6481   -1.3626 H   0  0  0  0  0  0  0  0  0  0  0  0
    3.6758   -2.2376   -2.0734 H   0  0  0  0  0  0  0  0  0  0  0  0
    1.9619   -3.8547   -1.5160 H   0  0  0  0  0  0  0  0  0  0  0  0
    2.5561   -4.0413    0.1033 H   0  0  0  0  0  0  0  0  0  0  0  0
    7.7729    0.1476   -2.0252 H   0  0  0  0  0  0  0  0  0  0  0  0
    6.5412    1.3011   -2.5674 H   0  0  0  0  0  0  0  0  0  0  0  0
    1.6203    0.5465    1.9874 H   0  0  0  0  0  0  0  0  0  0  0  0
    0.2617   -0.5133    1.7497 H   0  0  0  0  0  0  0  0  0  0  0  0
    0.4686   -1.9862   -2.1235 H   0  0  0  0  0  0  0  0  0  0  0  0
    1.8653   -0.9214   -1.9690 H   0  0  0  0  0  0  0  0  0  0  0  0
    8.6366   -0.8397   -0.0382 H   0  0  0  0  0  0  0  0  0  0  0  0
    7.9446   -1.7631    1.3010 H   0  0  0  0  0  0  0  0  0  0  0  0
    8.4040   -0.0890    1.5478 H   0  0  0  0  0  0  0  0  0  0  0  0
   -0.0102    1.4468    0.3933 H   0  0  0  0  0  0  0  0  0  0  0  0
    1.5725    1.2540   -0.3561 H   0  0  0  0  0  0  0  0  0  0  0  0
   -0.0564    0.4867   -1.9138 H   0  0  0  0  0  0  0  0  0  0  0  0
    7.4767   -2.2124   -1.2956 H   0  0  0  0  0  0  0  0  0  0  0  0
    2.9422   -3.0002    2.0984 H   0  0  0  0  0  0  0  0  0  0  0  0
   -0.3573   -2.1546    0.5245 H   0  0  0  0  0  0  0  0  0  0  0  0
    6.9146    2.7172    1.9630 H   0  0  0  0  0  0  0  0  0  0  0  0
    6.4097    3.7521    0.5929 H   0  0  0  0  0  0  0  0  0  0  0  0
    9.3739    1.5051   -1.0435 H   0  0  0  0  0  0  0  0  0  0  0  0
   -1.5602   -1.0572   -2.5815 H   0  0  0  0  0  0  0  0  0  0  0  0
   -2.5232   -2.8479   -1.0667 H   0  0  0  0  0  0  0  0  0  0  0  0
   -3.4782   -1.4724    0.7252 H   0  0  0  0  0  0  0  0  0  0  0  0
   -3.0342    1.0817    0.0014 H   0  0  0  0  0  0  0  0  0  0  0  0
   -5.3566   -0.3434   -1.4057 H   0  0  0  0  0  0  0  0  0  0  0  0
   -4.1206   -1.3816   -2.9050 H   0  0  0  0  0  0  0  0  0  0  0  0
   -4.8348    2.6523   -0.5230 H   0  0  0  0  0  0  0  0  0  0  0  0
   -4.9701    1.9999   -2.1768 H   0  0  0  0  0  0  0  0  0  0  0  0
   -3.5187    2.8607   -1.6880 H   0  0  0  0  0  0  0  0  0  0  0  0
   -5.5932   -2.2749    0.6692 H   0  0  0  0  0  0  0  0  0  0  0  0
   -7.1279   -0.4448   -0.4349 H   0  0  0  0  0  0  0  0  0  0  0  0
   -7.2233    0.5749    2.4428 H   0  0  0  0  0  0  0  0  0  0  0  0
   -9.5597   -0.6019    0.8404 H   0  0  0  0  0  0  0  0  0  0  0  0
   -8.7816    1.0421   -1.2345 H   0  0  0  0  0  0  0  0  0  0  0  0
   -9.1923    2.3625    1.5254 H   0  0  0  0  0  0  0  0  0  0  0  0
   -7.8919   -1.5888    2.7471 H   0  0  0  0  0  0  0  0  0  0  0  0
   -9.7304    3.3549   -1.3379 H   0  0  0  0  0  0  0  0  0  0  0  0
   -8.3819    3.9334   -0.3199 H   0  0  0  0  0  0  0  0  0  0  0  0
   -9.3575    0.8679    3.2601 H   0  0  0  0  0  0  0  0  0  0  0  0
  -10.9412    0.9572   -0.2261 H   0  0  0  0  0  0  0  0  0  0  0  0
   -7.9787    4.1717   -2.5316 H   0  0  0  0  0  0  0  0  0  0  0  0
  1 16  1  0  0  0  0
  1 76  1  0  0  0  0
  2 21  1  0  0  0  0
  2 78  1  0  0  0  0
  3 33  1  0  0  0  0
  3 38  1  0  0  0  0
  4 34  2  0  0  0  0
  5 36  1  0  0  0  0
  5 39  1  0  0  0  0
  6 38  1  0  0  0  0
  6 42  1  0  0  0  0
  7 39  2  0  0  0  0
  8 40  1  0  0  0  0
  8 87  1  0  0  0  0
  9 41  1  0  0  0  0
  9 91  1  0  0  0  0
 10 43  1  0  0  0  0
 10 45  1  0  0  0  0
 11 45  1  0  0  0  0
 11 48  1  0  0  0  0
 12 46  1  0  0  0  0
 12 97  1  0  0  0  0
 13 47  1  0  0  0  0
 13100  1  0  0  0  0
 14 49  1  0  0  0  0
 14101  1  0  0  0  0
 15 50  1  0  0  0  0
 15102  1  0  0  0  0
 16 17  1  0  0  0  0
 16 18  1  0  0  0  0
 16 25  1  0  0  0  0
 17 19  1  0  0  0  0
 17 26  1  0  0  0  0
 17 51  1  0  0  0  0
 18 22  1  0  0  0  0
 18 23  1  0  0  0  0
 18 31  1  0  0  0  0
 19 20  1  0  0  0  0
 19 24  1  0  0  0  0
 19 52  1  0  0  0  0
 20 21  1  0  0  0  0
 20 29  1  0  0  0  0
 20 34  1  0  0  0  0
 21 27  1  0  0  0  0
 21 30  1  0  0  0  0
 22 28  1  0  0  0  0
 22 35  1  0  0  0  0
 22 53  1  0  0  0  0
 23 24  1  0  0  0  0
 23 54  1  0  0  0  0
 23 55  1  0  0  0  0
 24 56  1  0  0  0  0
 24 57  1  0  0  0  0
 25 28  1  0  0  0  0
 25 58  1  0  0  0  0
 25 59  1  0  0  0  0
 26 27  1  0  0  0  0
 26 60  1  0  0  0  0
 26 61  1  0  0  0  0
 27 62  1  0  0  0  0
 27 63  1  0  0  0  0
 28 64  1  0  0  0  0
 28 65  1  0  0  0  0
 29 32  1  0  0  0  0
 29 66  1  0  0  0  0
 29 67  1  0  0  0  0
 30 33  1  0  0  0  0
 30 68  1  0  0  0  0
 30 69  1  0  0  0  0
 31 70  1  0  0  0  0
 31 71  1  0  0  0  0
 31 72  1  0  0  0  0
 32 33  1  0  0  0  0
 32 73  1  0  0  0  0
 32 74  1  0  0  0  0
 33 75  1  0  0  0  0
 34 77  1  0  0  0  0
 35 36  1  0  0  0  0
 35 37  2  0  0  0  0
 36 79  1  0  0  0  0
 36 80  1  0  0  0  0
 37 39  1  0  0  0  0
 37 81  1  0  0  0  0
 38 40  1  0  0  0  0
 38 82  1  0  0  0  0
 40 41  1  0  0  0  0
 40 83  1  0  0  0  0
 41 43  1  0  0  0  0
 41 84  1  0  0  0  0
 42 43  1  0  0  0  0
 42 44  1  0  0  0  0
 42 85  1  0  0  0  0
 43 86  1  0  0  0  0
 44 88  1  0  0  0  0
 44 89  1  0  0  0  0
 44 90  1  0  0  0  0
 45 46  1  0  0  0  0
 45 92  1  0  0  0  0
 46 47  1  0  0  0  0
 46 93  1  0  0  0  0
 47 49  1  0  0  0  0
 47 94  1  0  0  0  0
 48 49  1  0  0  0  0
 48 50  1  0  0  0  0
 48 95  1  0  0  0  0
 49 96  1  0  0  0  0
 50 98  1  0  0  0  0
 50 99  1  0  0  0  0
M  END
> <PUBCHEM_COMPOUND_CID>
114652

> <PUBCHEM_CONFORMER_RMSD>
1.2

> <PUBCHEM_CONFORMER_DIVERSEORDER>
1
45
29
60
18
63
56
19
31
66
55
68
62
38
39
26
71
57
69
61
30
67
11
51
58
72
43
22
59
36
4
52
50
65
9
53
6
8
32
13
49
27
15
33
44
21
20
47
54
28
37
3
70
23
24
10
17
25
7
42
5
40
12
16
35
64
48
46
34
2
41
14

> <PUBCHEM_MMFF94_PARTIAL_CHARGES>
46
1 -0.68
10 -0.56
100 0.4
101 0.4
102 0.4
11 -0.56
12 -0.68
13 -0.68
14 -0.68
15 -0.68
16 0.28
2 -0.68
20 0.06
21 0.28
22 0.14
3 -0.56
33 0.28
34 0.45
35 -0.28
36 0.42
37 -0.14
38 0.56
39 0.71
4 -0.57
40 0.28
41 0.28
42 0.28
43 0.28
45 0.56
46 0.28
47 0.28
48 0.28
49 0.28
5 -0.43
50 0.28
6 -0.56
7 -0.57
76 0.4
77 0.06
78 0.4
8 -0.68
81 0.15
87 0.4
9 -0.68
91 0.4
97 0.4

> <PUBCHEM_EFFECTIVE_ROTOR_COUNT>
12

> <PUBCHEM_PHARMACOPHORE_FEATURES>
29
1 1 acceptor
1 1 donor
1 10 acceptor
1 11 acceptor
1 12 acceptor
1 12 donor
1 13 acceptor
1 13 donor
1 14 acceptor
1 14 donor
1 15 acceptor
1 15 donor
1 2 acceptor
1 2 donor
1 3 acceptor
1 4 acceptor
1 6 acceptor
1 7 acceptor
1 8 acceptor
1 8 donor
1 9 acceptor
1 9 donor
5 16 18 22 25 28 rings
5 5 35 36 37 39 rings
6 11 45 46 47 48 49 rings
6 16 17 18 19 23 24 rings
6 17 19 20 21 26 27 rings
6 20 21 29 30 32 33 rings
6 6 38 40 41 42 43 rings

> <PUBCHEM_HEAVY_ATOM_COUNT>
50

> <PUBCHEM_ATOM_DEF_STEREO_COUNT>
18

> <PUBCHEM_ATOM_UDEF_STEREO_COUNT>
0

> <PUBCHEM_BOND_DEF_STEREO_COUNT>
0

> <PUBCHEM_BOND_UDEF_STEREO_COUNT>
0

> <PUBCHEM_ISOTOPIC_ATOM_COUNT>
0

> <PUBCHEM_COMPONENT_COUNT>
1

> <PUBCHEM_CACTVS_TAUTO_COUNT>
1

> <PUBCHEM_CONFORMER_ID>
0001BFDC00000001

> <PUBCHEM_MMFF94_ENERGY>
171.7935

> <PUBCHEM_FEATURE_SELFOVERLAP>
147.543

> <PUBCHEM_SHAPE_FINGERPRINT>
10 15 18341050809272847475
10055352 69 18408889503763979421
10625338 86 18338796823484416813
11115154 58 15791734105224742914
11181472 205 17531515589959382947
11578821 258 18334011714125660249
11607047 141 18129668638134798018
11607047 74 7708870104280934770
11672396 43 12247684880567673343
12013929 112 13768197320444505513
12098696 120 18409164411276882173
13782708 43 9655574132475258310
13947947 19 17530690909600643621
14040221 8 15213566936644827064
14040222 275 15719111353224499601
14117953 113 5184061501683131819
14617042 71 18334572421841947484
14664723 55 17822282501029536060
14747281 78 18334009464115626136
15183329 4 13912321278933120590
15198563 99 14490456596315359106
15320295 40 11383838138346084847
15347590 135 16487262070763607777
15840311 113 18335978744526559566
16992787 43 18260827081919097504
19302320 297 18059576829317040236
19315958 150 18335979856981663111
21895431 317 11383849155575983608
22149856 69 17131834312859051610
23576562 1 14996865207717426185
24771293 8 18270405988733881740
25269216 80 16950852371039212830
3711267 37 18187358857064376521
3918712 181 18408608050372816584
3986486 107 15213296413776737800
4353968 344 7853588898053026899
4403749 210 18413106161565206883
5265222 85 18408042896948354327
5937810 71 18187931646892861365
6081469 158 7853570193628831851
6086070 43 15575009338183163515
6201320 82 18122053206127165212
9962374 69 14764051330593361667

> <PUBCHEM_SHAPE_MULTIPOLES>
940.94
36.7
3.91
2.1
36.43
2.03
-0.5
37.42
-7.93
-5.62
0.53
1.82
-0.55
2.45

> <PUBCHEM_SHAPE_SELFOVERLAP>
2022.587

> <PUBCHEM_SHAPE_VOLUME>
511.8

> <PUBCHEM_COORDINATE_TYPE>
2
5
10

$$$$

