51090954
  -OEChem-06241223012D

 49 52  0     0  0  0  0  0  0999 V2000
    7.1962   -2.2500    0.0000 O   0  0  0  0  0  0  0  0  0  0  0  0
    3.7320    0.7500    0.0000 N   0  0  0  0  0  0  0  0  0  0  0  0
    6.3301   -0.7500    0.0000 N   0  0  0  0  0  0  0  0  0  0  0  0
    8.9282   -1.2500    0.0000 N   0  0  0  0  0  0  0  0  0  0  0  0
    4.5981    0.2500    0.0000 C   0  0  0  0  0  0  0  0  0  0  0  0
    5.4641    0.7500    0.0000 C   0  0  0  0  0  0  0  0  0  0  0  0
    4.5981   -0.7500    0.0000 C   0  0  0  0  0  0  0  0  0  0  0  0
    3.7320    1.7500    0.0000 C   0  0  0  0  0  0  0  0  0  0  0  0
    2.8660    0.2500    0.0000 C   0  0  0  0  0  0  0  0  0  0  0  0
    6.3301    0.2500    0.0000 C   0  0  0  0  0  0  0  0  0  0  0  0
    5.4641   -1.2500    0.0000 C   0  0  0  0  0  0  0  0  0  0  0  0
    2.8660    2.2500    0.0000 C   0  0  0  0  0  0  0  0  0  0  0  0
    2.0000    0.7500    0.0000 C   0  0  0  0  0  0  0  0  0  0  0  0
    2.0000    1.7500    0.0000 C   0  0  0  0  0  0  0  0  0  0  0  0
    7.1962   -1.2500    0.0000 C   0  0  0  0  0  0  0  0  0  0  0  0
    8.0622   -0.7500    0.0000 C   0  0  0  0  0  0  0  0  0  0  0  0
    8.0622    0.2500    0.0000 C   0  0  0  0  0  0  0  0  0  0  0  0
    9.7942   -0.7500    0.0000 C   0  0  0  0  0  0  0  0  0  0  0  0
    8.9282    0.7500    0.0000 C   0  0  0  0  0  0  0  0  0  0  0  0
    9.7942    0.2500    0.0000 C   0  0  0  0  0  0  0  0  0  0  0  0
   10.6882   -1.2847    0.0000 C   0  0  0  0  0  0  0  0  0  0  0  0
   10.6882    0.7847    0.0000 C   0  0  0  0  0  0  0  0  0  0  0  0
   11.5942   -0.7708    0.0000 C   0  0  0  0  0  0  0  0  0  0  0  0
   11.5942    0.2708    0.0000 C   0  0  0  0  0  0  0  0  0  0  0  0
    4.5981    0.8700    0.0000 H   0  0  0  0  0  0  0  0  0  0  0  0
    3.9875   -0.6423    0.0000 H   0  0  0  0  0  0  0  0  0  0  0  0
    4.3860   -1.3326    0.0000 H   0  0  0  0  0  0  0  0  0  0  0  0
    5.8626    1.2250    0.0000 H   0  0  0  0  0  0  0  0  0  0  0  0
    5.0656    1.2250    0.0000 H   0  0  0  0  0  0  0  0  0  0  0  0
    2.4675   -0.2249    0.0000 H   0  0  0  0  0  0  0  0  0  0  0  0
    3.2646   -0.2249    0.0000 H   0  0  0  0  0  0  0  0  0  0  0  0
    4.3426    1.6423    0.0000 H   0  0  0  0  0  0  0  0  0  0  0  0
    3.9441    2.3326    0.0000 H   0  0  0  0  0  0  0  0  0  0  0  0
    5.0656   -1.7250    0.0000 H   0  0  0  0  0  0  0  0  0  0  0  0
    6.9407    0.1423    0.0000 H   0  0  0  0  0  0  0  0  0  0  0  0
    6.5422    0.8326    0.0000 H   0  0  0  0  0  0  0  0  0  0  0  0
    5.8626   -1.7250    0.0000 H   0  0  0  0  0  0  0  0  0  0  0  0
    1.3894    0.8577    0.0000 H   0  0  0  0  0  0  0  0  0  0  0  0
    1.7880    0.1674    0.0000 H   0  0  0  0  0  0  0  0  0  0  0  0
    3.2646    2.7250    0.0000 H   0  0  0  0  0  0  0  0  0  0  0  0
    2.4675    2.7250    0.0000 H   0  0  0  0  0  0  0  0  0  0  0  0
    1.7880    2.3326    0.0000 H   0  0  0  0  0  0  0  0  0  0  0  0
    1.3894    1.6423    0.0000 H   0  0  0  0  0  0  0  0  0  0  0  0
    7.5252    0.5600    0.0000 H   0  0  0  0  0  0  0  0  0  0  0  0
    8.9282    1.3700    0.0000 H   0  0  0  0  0  0  0  0  0  0  0  0
   10.6810   -1.9046    0.0000 H   0  0  0  0  0  0  0  0  0  0  0  0
   10.6810    1.4046    0.0000 H   0  0  0  0  0  0  0  0  0  0  0  0
   12.1300   -1.0829    0.0000 H   0  0  0  0  0  0  0  0  0  0  0  0
   12.1300    0.5829    0.0000 H   0  0  0  0  0  0  0  0  0  0  0  0
  1 15  2  0  0  0  0
  2  5  1  0  0  0  0
  2  8  1  0  0  0  0
  2  9  1  0  0  0  0
  3 10  1  0  0  0  0
  3 11  1  0  0  0  0
  3 15  1  0  0  0  0
  4 16  2  0  0  0  0
  4 18  1  0  0  0  0
  5  6  1  0  0  0  0
  5  7  1  0  0  0  0
  5 25  1  0  0  0  0
  6 10  1  0  0  0  0
  6 28  1  0  0  0  0
  6 29  1  0  0  0  0
  7 11  1  0  0  0  0
  7 26  1  0  0  0  0
  7 27  1  0  0  0  0
  8 12  1  0  0  0  0
  8 32  1  0  0  0  0
  8 33  1  0  0  0  0
  9 13  1  0  0  0  0
  9 30  1  0  0  0  0
  9 31  1  0  0  0  0
 10 35  1  0  0  0  0
 10 36  1  0  0  0  0
 11 34  1  0  0  0  0
 11 37  1  0  0  0  0
 12 14  1  0  0  0  0
 12 40  1  0  0  0  0
 12 41  1  0  0  0  0
 13 14  1  0  0  0  0
 13 38  1  0  0  0  0
 13 39  1  0  0  0  0
 14 42  1  0  0  0  0
 14 43  1  0  0  0  0
 15 16  1  0  0  0  0
 16 17  1  0  0  0  0
 17 19  2  0  0  0  0
 17 44  1  0  0  0  0
 18 20  1  0  0  0  0
 18 21  2  0  0  0  0
 19 20  1  0  0  0  0
 19 45  1  0  0  0  0
 20 22  2  0  0  0  0
 21 23  1  0  0  0  0
 21 46  1  0  0  0  0
 22 24  1  0  0  0  0
 22 47  1  0  0  0  0
 23 24  2  0  0  0  0
 23 48  1  0  0  0  0
 24 49  1  0  0  0  0
M  END
> <PUBCHEM_COMPOUND_CID>
51090954

> <PUBCHEM_COMPOUND_CANONICALIZED>
1

> <PUBCHEM_CACTVS_COMPLEXITY>
427

> <PUBCHEM_CACTVS_HBOND_ACCEPTOR>
3

> <PUBCHEM_CACTVS_HBOND_DONOR>
0

> <PUBCHEM_CACTVS_ROTATABLE_BOND>
2

> <PUBCHEM_CACTVS_SUBSKEYS>
AAADceB7IAAAAAAAAAAAAAAAAAAAAAAAAAA8WLEAAAAAAACx8AAAHgAAAAAADCjBngQwwPMIEACoAyVyVACCgCAnAiAImCG4ZNgIYPLA1bGUIQhghgDIyYcYiICOAAAAAAACAAAAAAAAAAQAAAAAAAAAAA==

> <PUBCHEM_IUPAC_OPENEYE_NAME>
[4-(1-piperidyl)-1-piperidyl]-(2-quinolyl)methanone

> <PUBCHEM_IUPAC_CAS_NAME>
[4-(1-piperidinyl)-1-piperidinyl]-(2-quinolinyl)methanone

> <PUBCHEM_IUPAC_NAME>
(4-piperidin-1-ylpiperidin-1-yl)-quinolin-2-ylmethanone

> <PUBCHEM_IUPAC_SYSTEMATIC_NAME>
(4-piperidin-1-ylpiperidin-1-yl)-quinolin-2-yl-methanone

> <PUBCHEM_IUPAC_TRADITIONAL_NAME>
(4-piperidinopiperidino)-(2-quinolyl)methanone

> <PUBCHEM_IUPAC_INCHI>
InChI=1S/C20H25N3O/c24-20(19-9-8-16-6-2-3-7-18(16)21-19)23-14-10-17(11-15-23)22-12-4-1-5-13-22/h2-3,6-9,17H,1,4-5,10-15H2

> <PUBCHEM_IUPAC_INCHIKEY>
OGOXDCDHDRZWBR-UHFFFAOYSA-N

> <PUBCHEM_XLOGP3_AA>
3.4

> <PUBCHEM_EXACT_MASS>
323.199762

> <PUBCHEM_MOLECULAR_FORMULA>
C20H25N3O

> <PUBCHEM_MOLECULAR_WEIGHT>
323.432

> <PUBCHEM_OPENEYE_CAN_SMILES>
C1CCN(CC1)C2CCN(CC2)C(=O)C3=NC4=CC=CC=C4C=C3

> <PUBCHEM_OPENEYE_ISO_SMILES>
C1CCN(CC1)C2CCN(CC2)C(=O)C3=NC4=CC=CC=C4C=C3

> <PUBCHEM_CACTVS_TPSA>
36.4

> <PUBCHEM_MONOISOTOPIC_WEIGHT>
323.199762

> <PUBCHEM_TOTAL_CHARGE>
0

> <PUBCHEM_HEAVY_ATOM_COUNT>
24

> <PUBCHEM_ATOM_DEF_STEREO_COUNT>
0

> <PUBCHEM_ATOM_UDEF_STEREO_COUNT>
0

> <PUBCHEM_BOND_DEF_STEREO_COUNT>
0

> <PUBCHEM_BOND_UDEF_STEREO_COUNT>
0

> <PUBCHEM_ISOTOPIC_ATOM_COUNT>
0

> <PUBCHEM_COMPONENT_COUNT>
1

> <PUBCHEM_CACTVS_TAUTO_COUNT>
1

> <PUBCHEM_COORDINATE_TYPE>
1
5
255

> <PUBCHEM_BONDANNOTATIONS>
16  17  8
17  19  8
18  20  8
18  21  8
19  20  8
20  22  8
21  23  8
22  24  8
23  24  8
4  16  8
4  18  8

$$$$

