5281779
  -OEChem-07051212593D

 32 35  0     0  0  0  0  0  0999 V2000
   -0.5720    2.2021    0.0190 O   0  0  0  0  0  0  0  0  0  0  0  0
   -4.6650   -1.4319   -0.0186 O   0  0  0  0  0  0  0  0  0  0  0  0
   -5.1943    0.9189   -0.0354 O   0  0  0  0  0  0  0  0  0  0  0  0
   -2.0078   -2.4413    0.0181 O   0  0  0  0  0  0  0  0  0  0  0  0
    0.4997   -1.7382    0.0782 O   0  0  0  0  0  0  0  0  0  0  0  0
    6.7210   -0.5214   -0.0499 O   0  0  0  0  0  0  0  0  0  0  0  0
   -1.2302   -0.1424    0.0187 C   0  0  0  0  0  0  0  0  0  0  0  0
   -1.5394    1.2285    0.0096 C   0  0  0  0  0  0  0  0  0  0  0  0
   -3.5498   -0.6511   -0.0081 C   0  0  0  0  0  0  0  0  0  0  0  0
   -2.2463   -1.1051    0.0103 C   0  0  0  0  0  0  0  0  0  0  0  0
   -3.8524    0.6917   -0.0172 C   0  0  0  0  0  0  0  0  0  0  0  0
    0.1855   -0.5554    0.0408 C   0  0  0  0  0  0  0  0  0  0  0  0
    1.1964    0.5373    0.0290 C   0  0  0  0  0  0  0  0  0  0  0  0
   -2.8689    1.6594   -0.0088 C   0  0  0  0  0  0  0  0  0  0  0  0
    2.6420    0.2597    0.0086 C   0  0  0  0  0  0  0  0  0  0  0  0
   -5.7026   -0.4306   -0.0366 C   0  0  0  0  0  0  0  0  0  0  0  0
    0.7406    1.7988    0.0181 C   0  0  0  0  0  0  0  0  0  0  0  0
    3.3505    0.1453    1.2064 C   0  0  0  0  0  0  0  0  0  0  0  0
    3.3091    0.1104   -1.2090 C   0  0  0  0  0  0  0  0  0  0  0  0
    4.7203   -0.1170    1.1866 C   0  0  0  0  0  0  0  0  0  0  0  0
    4.6790   -0.1520   -1.2287 C   0  0  0  0  0  0  0  0  0  0  0  0
    5.3845   -0.2657   -0.0309 C   0  0  0  0  0  0  0  0  0  0  0  0
   -3.1197    2.7145   -0.0159 H   0  0  0  0  0  0  0  0  0  0  0  0
   -6.3374   -0.5672    0.8464 H   0  0  0  0  0  0  0  0  0  0  0  0
   -6.3138   -0.5746   -0.9350 H   0  0  0  0  0  0  0  0  0  0  0  0
    1.3843    2.6699    0.0046 H   0  0  0  0  0  0  0  0  0  0  0  0
    2.8468    0.2577    2.1636 H   0  0  0  0  0  0  0  0  0  0  0  0
    2.7730    0.1955   -2.1513 H   0  0  0  0  0  0  0  0  0  0  0  0
   -1.0545   -2.6167    0.0147 H   0  0  0  0  0  0  0  0  0  0  0  0
    5.2586   -0.2035    2.1267 H   0  0  0  0  0  0  0  0  0  0  0  0
    5.1909   -0.2669   -2.1802 H   0  0  0  0  0  0  0  0  0  0  0  0
    7.0462   -0.5672    0.8656 H   0  0  0  0  0  0  0  0  0  0  0  0
  1  8  1  0  0  0  0
  1 17  1  0  0  0  0
  2  9  1  0  0  0  0
  2 16  1  0  0  0  0
  3 11  1  0  0  0  0
  3 16  1  0  0  0  0
  4 10  1  0  0  0  0
  4 29  1  0  0  0  0
  5 12  2  0  0  0  0
  6 22  1  0  0  0  0
  6 32  1  0  0  0  0
  7  8  1  0  0  0  0
  7 10  2  0  0  0  0
  7 12  1  0  0  0  0
  8 14  2  0  0  0  0
  9 10  1  0  0  0  0
  9 11  2  0  0  0  0
 11 14  1  0  0  0  0
 12 13  1  0  0  0  0
 13 15  1  0  0  0  0
 13 17  2  0  0  0  0
 14 23  1  0  0  0  0
 15 18  2  0  0  0  0
 15 19  1  0  0  0  0
 16 24  1  0  0  0  0
 16 25  1  0  0  0  0
 17 26  1  0  0  0  0
 18 20  1  0  0  0  0
 18 27  1  0  0  0  0
 19 21  2  0  0  0  0
 19 28  1  0  0  0  0
 20 22  2  0  0  0  0
 20 30  1  0  0  0  0
 21 22  1  0  0  0  0
 21 31  1  0  0  0  0
M  END
> <PUBCHEM_COMPOUND_CID>
5281779

> <PUBCHEM_CONFORMER_RMSD>
0.6

> <PUBCHEM_CONFORMER_DIVERSEORDER>
1
2

> <PUBCHEM_MMFF94_PARTIAL_CHARGES>
30
1 -0.16
10 0.08
11 0.08
12 0.47
13 -0.01
14 -0.15
15 0.03
16 0.56
17 -0.07
18 -0.15
19 -0.15
2 -0.36
20 -0.15
21 -0.15
22 0.08
23 0.15
26 0.15
27 0.15
28 0.15
29 0.45
3 -0.36
30 0.15
31 0.15
32 0.45
4 -0.53
5 -0.57
6 -0.53
7 0.09
8 0.08
9 0.08

> <PUBCHEM_EFFECTIVE_ROTOR_COUNT>
1.6

> <PUBCHEM_PHARMACOPHORE_FEATURES>
10
1 1 acceptor
1 2 acceptor
1 3 acceptor
1 4 donor
1 5 acceptor
1 6 donor
5 2 3 9 11 16 rings
6 1 7 8 12 13 17 rings
6 15 18 19 20 21 22 rings
6 7 8 9 10 11 14 rings

> <PUBCHEM_HEAVY_ATOM_COUNT>
22

> <PUBCHEM_ATOM_DEF_STEREO_COUNT>
0

> <PUBCHEM_ATOM_UDEF_STEREO_COUNT>
0

> <PUBCHEM_BOND_DEF_STEREO_COUNT>
0

> <PUBCHEM_BOND_UDEF_STEREO_COUNT>
0

> <PUBCHEM_ISOTOPIC_ATOM_COUNT>
0

> <PUBCHEM_COMPONENT_COUNT>
1

> <PUBCHEM_CACTVS_TAUTO_COUNT>
10

> <PUBCHEM_CONFORMER_ID>
005097F300000001

> <PUBCHEM_MMFF94_ENERGY>
67.8313

> <PUBCHEM_FEATURE_SELFOVERLAP>
50.929

> <PUBCHEM_SHAPE_FINGERPRINT>
10 15 17894927205082227538
11045977 3 18041287594810491840
11315181 36 18260263044985236720
11524674 6 16877665664770322854
11578080 2 5110633890091909257
11646440 116 18186792566042441913
11963148 33 18341900653967463027
12011746 2 18410298016924207381
12107183 9 17267521907685762152
12236239 1 17775003501283100764
12403259 415 18334306374113438288
12403814 3 17418095446774650941
12788726 201 18200598110875929272
13140716 1 18266179427102403897
13288520 33 18409729560522155493
13402501 40 18186797006817456414
13533116 47 17632304514454398538
13862211 1 18410577262660144279
14386348 63 17967247603119785782
15042514 8 18266458711947129731
15099037 51 18410572873113643783
15196674 1 18338517435154832841
15788980 27 17632859737075981268
16988056 13 14742977450279742468
17349148 13 18413107259952481188
17804303 29 18408887308792909745
17844677 252 18186798080517283792
1813 80 17275101777870923158
18681886 176 18342176640380975192
19141452 34 17604151436924697311
19489759 90 18333169483537687665
200 152 16487258789708988092
20028762 73 18041844983140558911
20374829 77 18409729551684294605
21033648 29 16878520019226681241
21033650 10 17913466185885324884
21267235 1 18411976928388572707
21279426 13 18118962726750702158
2297311 6 18334288790838795764
23175994 123 17312821567696232193
23402539 116 18334863805212699687
23536379 177 16200436883435768597
23557571 272 18187359961155411468
23559900 14 18335139752957240968
26918003 58 16515685533236998162
3004659 81 18201998824823991868
335352 9 18411139126355988261
34797466 226 17967801714511151348
3545911 37 18409166631790460450
4340502 62 14923940128853760973
5104073 3 18337386020773707665
5385378 56 18264198292107448123
542803 24 17489868241467669326
559249 180 18201444726233736602
8863177 126 17771893945013986971

> <PUBCHEM_SHAPE_MULTIPOLES>
417.53
13
1.71
0.88
5.67
0.02
-0.01
-2.3
-0.24
-1.64
0.02
1.16
0
0.03

> <PUBCHEM_SHAPE_SELFOVERLAP>
952.085

> <PUBCHEM_SHAPE_VOLUME>
216.1

> <PUBCHEM_COORDINATE_TYPE>
2
5
10

$$$$

