21860
  -OEChem-07051212473D

 18 19  0     0  0  0  0  0  0999 V2000
    1.8733   -1.9375    0.0009 O   0  0  0  0  0  0  0  0  0  0  0  0
    3.1120    0.8181    0.0003 O   0  0  0  0  0  0  0  0  0  0  0  0
    0.8545    1.4245   -0.0001 N   0  0  0  0  0  0  0  0  0  0  0  0
   -0.1845   -0.5499   -0.0003 C   0  0  0  0  0  0  0  0  0  0  0  0
   -0.3881    0.8317    0.0000 C   0  0  0  0  0  0  0  0  0  0  0  0
    1.2222   -0.7646   -0.0004 C   0  0  0  0  0  0  0  0  0  0  0  0
    1.8340    0.4679   -0.0004 C   0  0  0  0  0  0  0  0  0  0  0  0
   -1.3074   -1.4009   -0.0006 C   0  0  0  0  0  0  0  0  0  0  0  0
   -1.6638    1.4071    0.0002 C   0  0  0  0  0  0  0  0  0  0  0  0
   -2.5895   -0.8396    0.0001 C   0  0  0  0  0  0  0  0  0  0  0  0
   -2.7626    0.5432    0.0004 C   0  0  0  0  0  0  0  0  0  0  0  0
    1.0199    2.4214    0.0001 H   0  0  0  0  0  0  0  0  0  0  0  0
   -1.1876   -2.4806   -0.0010 H   0  0  0  0  0  0  0  0  0  0  0  0
   -1.7996    2.4834    0.0004 H   0  0  0  0  0  0  0  0  0  0  0  0
   -3.4594   -1.4911    0.0002 H   0  0  0  0  0  0  0  0  0  0  0  0
   -3.7674    0.9578    0.0008 H   0  0  0  0  0  0  0  0  0  0  0  0
    2.8364   -1.8033    0.0011 H   0  0  0  0  0  0  0  0  0  0  0  0
    3.6427    0.0036    0.0002 H   0  0  0  0  0  0  0  0  0  0  0  0
  1  6  1  0  0  0  0
  1 17  1  0  0  0  0
  2  7  1  0  0  0  0
  2 18  1  0  0  0  0
  3  5  1  0  0  0  0
  3  7  1  0  0  0  0
  3 12  1  0  0  0  0
  4  5  1  0  0  0  0
  4  6  1  0  0  0  0
  4  8  2  0  0  0  0
  5  9  2  0  0  0  0
  6  7  2  0  0  0  0
  8 10  1  0  0  0  0
  8 13  1  0  0  0  0
  9 11  1  0  0  0  0
  9 14  1  0  0  0  0
 10 11  2  0  0  0  0
 10 15  1  0  0  0  0
 11 16  1  0  0  0  0
M  END
> <PUBCHEM_COMPOUND_CID>
21860

> <PUBCHEM_CONFORMER_RMSD>
0.4

> <PUBCHEM_CONFORMER_DIVERSEORDER>
1

> <PUBCHEM_MMFF94_PARTIAL_CHARGES>
17
1 -0.51
10 -0.15
11 -0.15
12 0.27
13 0.15
14 0.15
15 0.15
16 0.15
17 0.45
18 0.45
2 -0.51
3 0.03
5 -0.15
6 0.06
7 -0.09
8 -0.15
9 -0.15

> <PUBCHEM_EFFECTIVE_ROTOR_COUNT>
0

> <PUBCHEM_PHARMACOPHORE_FEATURES>
6
1 1 donor
1 2 donor
1 3 cation
1 3 donor
5 3 4 5 6 7 rings
6 4 5 8 9 10 11 rings

> <PUBCHEM_HEAVY_ATOM_COUNT>
11

> <PUBCHEM_ATOM_DEF_STEREO_COUNT>
0

> <PUBCHEM_ATOM_UDEF_STEREO_COUNT>
0

> <PUBCHEM_BOND_DEF_STEREO_COUNT>
0

> <PUBCHEM_BOND_UDEF_STEREO_COUNT>
0

> <PUBCHEM_ISOTOPIC_ATOM_COUNT>
0

> <PUBCHEM_COMPONENT_COUNT>
1

> <PUBCHEM_CACTVS_TAUTO_COUNT>
3

> <PUBCHEM_CONFORMER_ID>
0000556400000001

> <PUBCHEM_MMFF94_ENERGY>
16.3509

> <PUBCHEM_FEATURE_SELFOVERLAP>
30.582

> <PUBCHEM_SHAPE_FINGERPRINT>
12423570 1 6120489144725688531
12524768 44 18337386153453443463
12897270 3 18338517443470272557
13380535 21 18338783593919209995
13380535 76 18411705369800453370
14325111 11 18410575110559730085
16945 1 18338798918557778885
193761 8 14807977295856430723
19973954 147 18410853304244567713
20201158 50 18412267198967682059
21040471 1 18410574015274400389
21501502 16 18409731802241830899
23402655 69 18336562602882184493
23463225 33 18343026601286334616
23552423 10 18271803557479311663
2748010 2 18339360893511328741
29004967 10 18342172237295523051
369184 2 18410576205950204091
5084963 1 18116158950894035931
528886 8 18410297969120378363
53812653 166 18261396619872049768
7364860 26 18261674878356072766

> <PUBCHEM_SHAPE_MULTIPOLES>
209.66
3.89
1.71
0.59
0.38
0.29
0
-0.22
0
0.14
0
-0.05
0
0

> <PUBCHEM_SHAPE_SELFOVERLAP>
465.316

> <PUBCHEM_SHAPE_VOLUME>
112.6

> <PUBCHEM_COORDINATE_TYPE>
2
5
10

$$$$

