8962
  -OEChem-06261203163D

 15 16  0     0  0  0  0  0  0999 V2000
   -3.0951    0.6471    0.0017 S   0  0  0  0  0  0  0  0  0  0  0  0
    2.7390    0.8777    0.0034 O   0  0  0  0  0  0  0  0  0  0  0  0
    1.3678    0.7763   -0.0025 N   0  0  0  0  0  0  0  0  0  0  0  0
    1.2362   -1.6845    0.0001 N   0  0  0  0  0  0  0  0  0  0  0  0
   -1.0598   -1.7925   -0.0001 N   0  0  0  0  0  0  0  0  0  0  0  0
   -0.6829    1.9437    0.0000 N   0  0  0  0  0  0  0  0  0  0  0  0
    0.8050   -0.4612   -0.0014 C   0  0  0  0  0  0  0  0  0  0  0  0
   -0.6707   -0.4836   -0.0010 C   0  0  0  0  0  0  0  0  0  0  0  0
   -1.3331    0.6954   -0.0001 C   0  0  0  0  0  0  0  0  0  0  0  0
    0.6223    1.9206   -0.0008 C   0  0  0  0  0  0  0  0  0  0  0  0
    0.0713   -2.4391    0.0007 C   0  0  0  0  0  0  0  0  0  0  0  0
    1.2079    2.8537   -0.0002 H   0  0  0  0  0  0  0  0  0  0  0  0
    0.1236   -3.5384    0.0016 H   0  0  0  0  0  0  0  0  0  0  0  0
    2.9463    0.8889   -0.9469 H   0  0  0  0  0  0  0  0  0  0  0  0
   -3.2625   -0.6840    0.0010 H   0  0  0  0  0  0  0  0  0  0  0  0
  1  9  1  0  0  0  0
  1 15  1  0  0  0  0
  2  3  1  0  0  0  0
  2 14  1  0  0  0  0
  3  7  1  0  0  0  0
  3 10  1  0  0  0  0
  4  7  2  0  0  0  0
  4 11  1  0  0  0  0
  5  8  1  0  0  0  0
  5 11  2  0  0  0  0
  6  9  1  0  0  0  0
  6 10  2  0  0  0  0
  7  8  1  0  0  0  0
  8  9  2  0  0  0  0
 10 12  1  0  0  0  0
 11 13  1  0  0  0  0
M  END
> <PUBCHEM_COMPOUND_CID>
8962

> <PUBCHEM_CONFORMER_RMSD>
0.4

> <PUBCHEM_CONFORMER_DIVERSEORDER>
1

> <PUBCHEM_MMFF94_PARTIAL_CHARGES>
15
1 -0.28
10 0.44
11 0.6
12 0.06
13 0.06
14 0.4
15 0.18
2 -0.38
3 -0.12
4 -0.66
5 -0.62
6 -0.62
7 0.49
8 0.19
9 0.27

> <PUBCHEM_EFFECTIVE_ROTOR_COUNT>
0

> <PUBCHEM_PHARMACOPHORE_FEATURES>
5
3 3 4 7 cation
3 3 6 10 cation
3 4 5 11 cation
5 4 5 7 8 11 rings
6 3 6 7 8 9 10 rings

> <PUBCHEM_HEAVY_ATOM_COUNT>
11

> <PUBCHEM_ATOM_DEF_STEREO_COUNT>
0

> <PUBCHEM_ATOM_UDEF_STEREO_COUNT>
0

> <PUBCHEM_BOND_DEF_STEREO_COUNT>
0

> <PUBCHEM_BOND_UDEF_STEREO_COUNT>
0

> <PUBCHEM_ISOTOPIC_ATOM_COUNT>
0

> <PUBCHEM_COMPONENT_COUNT>
1

> <PUBCHEM_CACTVS_TAUTO_COUNT>
3

> <PUBCHEM_CONFORMER_ID>
0000230200000001

> <PUBCHEM_MMFF94_ENERGY>
36.5879

> <PUBCHEM_FEATURE_SELFOVERLAP>
25.94

> <PUBCHEM_SHAPE_FINGERPRINT>
12423570 1 17390772380655122606
16945 1 18410575106201381317
18185500 45 17113817951523056999
193761 8 17618222806295716965
21040471 1 18338797814577168965
23552423 10 17908980251131115461
241688 4 17114101621180583491
2748010 2 18410567370960142991
5084963 1 17825958292696916411
528862 383 18271250524684244907
66348 1 18267017443582588265

> <PUBCHEM_SHAPE_MULTIPOLES>
204.43
2.98
2.53
0.58
1.68
0.47
0
-0.56
0
-0.87
0
0.06
0.01
0

> <PUBCHEM_SHAPE_SELFOVERLAP>
437.179

> <PUBCHEM_SHAPE_VOLUME>
116

> <PUBCHEM_COORDINATE_TYPE>
2
5
10

$$$$

