443277
  -OEChem-07051213012D

 27 29  0     0  0  0  0  0  0999 V2000
    3.6158   -1.4434    0.0000 Cl  0  0  0  0  0  0  0  0  0  0  0  0
    3.2601    1.9045    0.0000 S   0  0  0  0  0  0  0  0  0  0  0  0
    4.5388    0.1444    0.0000 O   0  0  0  0  0  0  0  0  0  0  0  0
    5.8479    1.0955    0.0000 N   0  0  0  0  0  0  0  0  0  0  0  0
    6.1569    0.1444    0.0000 N   0  0  0  0  0  0  0  0  0  0  0  0
    4.2601    1.9045    0.0000 C   0  0  0  0  0  0  0  0  0  0  0  0
    5.3479   -1.4434    0.0000 C   0  0  0  0  0  0  0  0  0  0  0  0
    4.8479    1.0955    0.0000 C   0  0  0  0  0  0  0  0  0  0  0  0
    5.3479   -0.4434    0.0000 C   0  0  0  0  0  0  0  0  0  0  0  0
    2.9511    2.8556    0.0000 C   0  0  0  0  0  0  0  0  0  0  0  0
    4.5691    2.8556    0.0000 C   0  0  0  0  0  0  0  0  0  0  0  0
    3.7601    3.4434    0.0000 C   0  0  0  0  0  0  0  0  0  0  0  0
    4.4818   -1.9434    0.0000 C   0  0  0  0  0  0  0  0  0  0  0  0
    6.2139   -1.9434    0.0000 C   0  0  0  0  0  0  0  0  0  0  0  0
    2.0000    3.1646    0.0000 C   0  0  0  0  0  0  0  0  0  0  0  0
    4.4818   -2.9434    0.0000 C   0  0  0  0  0  0  0  0  0  0  0  0
    6.2139   -2.9434    0.0000 C   0  0  0  0  0  0  0  0  0  0  0  0
    5.3479   -3.4434    0.0000 C   0  0  0  0  0  0  0  0  0  0  0  0
    5.1588    3.0472    0.0000 H   0  0  0  0  0  0  0  0  0  0  0  0
    3.7601    4.0634    0.0000 H   0  0  0  0  0  0  0  0  0  0  0  0
    6.7508   -1.6334    0.0000 H   0  0  0  0  0  0  0  0  0  0  0  0
    2.1916    3.7542    0.0000 H   0  0  0  0  0  0  0  0  0  0  0  0
    1.4103    3.3562    0.0000 H   0  0  0  0  0  0  0  0  0  0  0  0
    1.8084    2.5749    0.0000 H   0  0  0  0  0  0  0  0  0  0  0  0
    3.9449   -3.2534    0.0000 H   0  0  0  0  0  0  0  0  0  0  0  0
    6.7508   -3.2534    0.0000 H   0  0  0  0  0  0  0  0  0  0  0  0
    5.3479   -4.0634    0.0000 H   0  0  0  0  0  0  0  0  0  0  0  0
  1 13  1  0  0  0  0
  2  6  1  0  0  0  0
  2 10  1  0  0  0  0
  3  8  1  0  0  0  0
  3  9  1  0  0  0  0
  4  5  1  0  0  0  0
  4  8  2  0  0  0  0
  5  9  2  0  0  0  0
  6  8  1  0  0  0  0
  6 11  2  0  0  0  0
  7  9  1  0  0  0  0
  7 13  1  0  0  0  0
  7 14  2  0  0  0  0
 10 12  2  0  0  0  0
 10 15  1  0  0  0  0
 11 12  1  0  0  0  0
 11 19  1  0  0  0  0
 12 20  1  0  0  0  0
 13 16  2  0  0  0  0
 14 17  1  0  0  0  0
 14 21  1  0  0  0  0
 15 22  1  0  0  0  0
 15 23  1  0  0  0  0
 15 24  1  0  0  0  0
 16 18  1  0  0  0  0
 16 25  1  0  0  0  0
 17 18  2  0  0  0  0
 17 26  1  0  0  0  0
 18 27  1  0  0  0  0
M  END
> <PUBCHEM_COMPOUND_CID>
443277

> <PUBCHEM_COMPOUND_CANONICALIZED>
1

> <PUBCHEM_CACTVS_COMPLEXITY>
294

> <PUBCHEM_CACTVS_HBOND_ACCEPTOR>
4

> <PUBCHEM_CACTVS_HBOND_DONOR>
0

> <PUBCHEM_CACTVS_ROTATABLE_BOND>
2

> <PUBCHEM_CACTVS_SUBSKEYS>
AAADccBzIABEAAAAAAAAAAAAAAAAAWJAAAAwAAAAAAAAAAAB8AAAHgYIAAAADAKB2iAyAYAABEiuAiFyEACTAIAsDRBaiDkgDtgIJrKhtxmKMQBkyAEorYeYyCCOAAAAAAABAAAAAAAAAAIAAAAAAAAAAA==

> <PUBCHEM_IUPAC_OPENEYE_NAME>
2-(2-chlorophenyl)-5-(5-methyl-2-thienyl)-1,3,4-oxadiazole

> <PUBCHEM_IUPAC_CAS_NAME>
2-(2-chlorophenyl)-5-(5-methyl-2-thiophenyl)-1,3,4-oxadiazole

> <PUBCHEM_IUPAC_NAME>
2-(2-chlorophenyl)-5-(5-methylthiophen-2-yl)-1,3,4-oxadiazole

> <PUBCHEM_IUPAC_SYSTEMATIC_NAME>
2-(2-chlorophenyl)-5-(5-methylthiophen-2-yl)-1,3,4-oxadiazole

> <PUBCHEM_IUPAC_TRADITIONAL_NAME>
2-(2-chlorophenyl)-5-(5-methyl-2-thienyl)-1,3,4-oxadiazole

> <PUBCHEM_IUPAC_INCHI>
InChI=1S/C13H9ClN2OS/c1-8-6-7-11(18-8)13-16-15-12(17-13)9-4-2-3-5-10(9)14/h2-7H,1H3

> <PUBCHEM_IUPAC_INCHIKEY>
YYYQPKTVZBOSKG-UHFFFAOYSA-N

> <PUBCHEM_XLOGP3_AA>
3.8

> <PUBCHEM_EXACT_MASS>
276.012412

> <PUBCHEM_MOLECULAR_FORMULA>
C13H9ClN2OS

> <PUBCHEM_MOLECULAR_WEIGHT>
276.74136

> <PUBCHEM_OPENEYE_CAN_SMILES>
CC1=CC=C(S1)C2=NN=C(O2)C3=CC=CC=C3Cl

> <PUBCHEM_OPENEYE_ISO_SMILES>
CC1=CC=C(S1)C2=NN=C(O2)C3=CC=CC=C3Cl

> <PUBCHEM_CACTVS_TPSA>
67.2

> <PUBCHEM_MONOISOTOPIC_WEIGHT>
276.012412

> <PUBCHEM_TOTAL_CHARGE>
0

> <PUBCHEM_HEAVY_ATOM_COUNT>
18

> <PUBCHEM_ATOM_DEF_STEREO_COUNT>
0

> <PUBCHEM_ATOM_UDEF_STEREO_COUNT>
0

> <PUBCHEM_BOND_DEF_STEREO_COUNT>
0

> <PUBCHEM_BOND_UDEF_STEREO_COUNT>
0

> <PUBCHEM_ISOTOPIC_ATOM_COUNT>
0

> <PUBCHEM_COMPONENT_COUNT>
1

> <PUBCHEM_CACTVS_TAUTO_COUNT>
1

> <PUBCHEM_COORDINATE_TYPE>
1
5
255

> <PUBCHEM_BONDANNOTATIONS>
10  12  8
11  12  8
13  16  8
14  17  8
16  18  8
17  18  8
2  10  8
2  6  8
3  8  8
3  9  8
4  5  8
4  8  8
5  9  8
6  11  8
7  13  8
7  14  8

$$$$

