14463
  -OEChem-07051212493D

 17 16  0     1  0  0  0  0  0999 V2000
    0.2887   -1.5762   -1.0515 O   0  0  0  0  0  0  0  0  0  0  0  0
   -0.8611    1.9760    0.2161 O   0  0  0  0  0  0  0  0  0  0  0  0
    2.0366    0.5916    1.1992 O   0  0  0  0  0  0  0  0  0  0  0  0
   -2.0568    0.5451   -1.0734 O   0  0  0  0  0  0  0  0  0  0  0  0
    2.1641    0.3618   -1.0599 O   0  0  0  0  0  0  0  0  0  0  0  0
   -1.7517   -1.3877    0.9136 N   0  0  0  0  0  0  0  0  0  0  0  0
   -0.7288   -0.3460    0.7734 C   0  0  1  0  0  0  0  0  0  0  0  0
    0.5547   -0.9626    0.2023 C   0  0  2  0  0  0  0  0  0  0  0  0
   -1.3006    0.7376   -0.1297 C   0  0  0  0  0  0  0  0  0  0  0  0
    1.6550    0.0606    0.0101 C   0  0  0  0  0  0  0  0  0  0  0  0
   -0.5520    0.0902    1.7631 H   0  0  0  0  0  0  0  0  0  0  0  0
    0.9421   -1.7462    0.8637 H   0  0  0  0  0  0  0  0  0  0  0  0
   -1.4094   -2.1152    1.5408 H   0  0  0  0  0  0  0  0  0  0  0  0
   -1.8999   -1.8454    0.0143 H   0  0  0  0  0  0  0  0  0  0  0  0
   -0.0549   -0.8993   -1.6587 H   0  0  0  0  0  0  0  0  0  0  0  0
   -1.2249    2.6706   -0.3735 H   0  0  0  0  0  0  0  0  0  0  0  0
    2.7582    1.2475    1.0923 H   0  0  0  0  0  0  0  0  0  0  0  0
  1  8  1  0  0  0  0
  1 15  1  0  0  0  0
  2  9  1  0  0  0  0
  2 16  1  0  0  0  0
  3 10  1  0  0  0  0
  3 17  1  0  0  0  0
  4  9  2  0  0  0  0
  5 10  2  0  0  0  0
  6  7  1  0  0  0  0
  6 13  1  0  0  0  0
  6 14  1  0  0  0  0
  7  8  1  0  0  0  0
  7  9  1  0  0  0  0
  7 11  1  0  0  0  0
  8 10  1  0  0  0  0
  8 12  1  0  0  0  0
M  END
> <PUBCHEM_COMPOUND_CID>
14463

> <PUBCHEM_CONFORMER_RMSD>
0.6

> <PUBCHEM_CONFORMER_DIVERSEORDER>
1
6
12
4
5
11
10
3
2
9
8
7

> <PUBCHEM_MMFF94_PARTIAL_CHARGES>
15
1 -0.68
10 0.66
13 0.36
14 0.36
15 0.4
16 0.5
17 0.5
2 -0.65
3 -0.65
4 -0.57
5 -0.57
6 -0.99
7 0.33
8 0.34
9 0.66

> <PUBCHEM_EFFECTIVE_ROTOR_COUNT>
3

> <PUBCHEM_PHARMACOPHORE_FEATURES>
10
1 1 acceptor
1 1 donor
1 2 acceptor
1 3 acceptor
1 4 acceptor
1 5 acceptor
1 6 cation
1 6 donor
3 2 4 9 anion
3 3 5 10 anion

> <PUBCHEM_HEAVY_ATOM_COUNT>
10

> <PUBCHEM_ATOM_DEF_STEREO_COUNT>
2

> <PUBCHEM_ATOM_UDEF_STEREO_COUNT>
0

> <PUBCHEM_BOND_DEF_STEREO_COUNT>
0

> <PUBCHEM_BOND_UDEF_STEREO_COUNT>
0

> <PUBCHEM_ISOTOPIC_ATOM_COUNT>
0

> <PUBCHEM_COMPONENT_COUNT>
1

> <PUBCHEM_CACTVS_TAUTO_COUNT>
1

> <PUBCHEM_CONFORMER_ID>
0000387F00000001

> <PUBCHEM_MMFF94_ENERGY>
7.6817

> <PUBCHEM_FEATURE_SELFOVERLAP>
50.871

> <PUBCHEM_SHAPE_FINGERPRINT>
12897270 3 17969238861316306773
137420 1 17118657542373905875
21040471 1 18199468942329824408
21922407 69 13971670717260410065
23235685 24 18270392909820226861
24536 1 18270955876979592196
5084963 1 18056772137207182276

> <PUBCHEM_SHAPE_MULTIPOLES>
171.47
2.66
1.54
1.12
0.55
0.06
-0.07
0.47
-0.14
-0.56
0.04
0.14
-0.09
0.36

> <PUBCHEM_SHAPE_SELFOVERLAP>
333.345

> <PUBCHEM_SHAPE_VOLUME>
102.6

> <PUBCHEM_COORDINATE_TYPE>
2
5
10

$$$$

