10503
  -OEChem-06261204373D

 80 85  0     1  0  0  0  0  0999 V2000
   -3.5364   -1.5811   -0.0431 O   0  0  0  0  0  0  0  0  0  0  0  0
    0.5141    1.7982   -1.9018 O   0  0  0  0  0  0  0  0  0  0  0  0
    4.6250    0.3075    0.0206 O   0  0  0  0  0  0  0  0  0  0  0  0
    1.4564    3.5289   -0.0792 O   0  0  0  0  0  0  0  0  0  0  0  0
   -8.0619   -1.1292   -1.1162 O   0  0  0  0  0  0  0  0  0  0  0  0
    5.5705   -1.8651   -0.1056 O   0  0  0  0  0  0  0  0  0  0  0  0
   -7.8107   -3.3289   -0.4880 O   0  0  0  0  0  0  0  0  0  0  0  0
    7.3746    1.1895    0.2648 O   0  0  0  0  0  0  0  0  0  0  0  0
    8.4246   -2.1468   -0.6777 O   0  0  0  0  0  0  0  0  0  0  0  0
   -3.1184   -0.3162    0.4887 C   0  0  1  0  0  0  0  0  0  0  0  0
   -1.5785   -0.1646    0.3063 C   0  0  2  0  0  0  0  0  0  0  0  0
   -3.9942    0.8430   -0.0676 C   0  0  1  0  0  0  0  0  0  0  0  0
   -1.0585    1.2479    0.6909 C   0  0  1  0  0  0  0  0  0  0  0  0
    0.5002    1.3856    0.5121 C   0  0  2  0  0  0  0  0  0  0  0  0
    0.9938    0.9064   -0.8873 C   0  0  1  0  0  0  0  0  0  0  0  0
   -5.3424    0.6619    0.7065 C   0  0  2  0  0  0  0  0  0  0  0  0
   -3.3759    2.2167    0.3050 C   0  0  0  0  0  0  0  0  0  0  0  0
   -1.8889    2.3303   -0.0359 C   0  0  0  0  0  0  0  0  0  0  0  0
   -3.5100   -0.3808    1.9860 C   0  0  0  0  0  0  0  0  0  0  0  0
   -1.0849   -0.5747   -1.0952 C   0  0  0  0  0  0  0  0  0  0  0  0
    0.4366   -0.4952   -1.2149 C   0  0  0  0  0  0  0  0  0  0  0  0
   -4.9169    0.2142    2.1120 C   0  0  0  0  0  0  0  0  0  0  0  0
    1.2272    0.5851    1.6351 C   0  0  0  0  0  0  0  0  0  0  0  0
    2.5340    0.8890   -0.9929 C   0  0  0  0  0  0  0  0  0  0  0  0
   -4.2403    0.8267   -1.5911 C   0  0  0  0  0  0  0  0  0  0  0  0
    2.7513    0.6071    1.5031 C   0  0  0  0  0  0  0  0  0  0  0  0
    3.2169    0.1217    0.1364 C   0  0  2  0  0  0  0  0  0  0  0  0
    0.8673    2.8390    0.7463 C   0  0  0  0  0  0  0  0  0  0  0  0
   -6.3128   -0.3264    0.1237 C   0  0  0  0  0  0  0  0  0  0  0  0
   -7.3798    0.0911   -0.8085 C   0  0  0  0  0  0  0  0  0  0  0  0
   -6.3538   -1.6374    0.3457 C   0  0  0  0  0  0  0  0  0  0  0  0
    5.2121   -0.6812   -0.8196 C   0  0  2  0  0  0  0  0  0  0  0  0
   -7.4706   -2.1592   -0.4436 C   0  0  0  0  0  0  0  0  0  0  0  0
    6.4202   -0.0970   -1.5549 C   0  0  0  0  0  0  0  0  0  0  0  0
    7.6201    0.1034   -0.6240 C   0  0  2  0  0  0  0  0  0  0  0  0
    6.6022   -1.6639    0.8677 C   0  0  2  0  0  0  0  0  0  0  0  0
    7.8904   -1.1568    0.1990 C   0  0  1  0  0  0  0  0  0  0  0  0
    6.7970   -2.9887    1.5974 C   0  0  0  0  0  0  0  0  0  0  0  0
   -1.1252   -0.8913    0.9949 H   0  0  0  0  0  0  0  0  0  0  0  0
   -1.2540    1.3986    1.7618 H   0  0  0  0  0  0  0  0  0  0  0  0
   -5.8694    1.6218    0.7923 H   0  0  0  0  0  0  0  0  0  0  0  0
   -3.9226    3.0220   -0.2028 H   0  0  0  0  0  0  0  0  0  0  0  0
   -3.4900    2.4190    1.3772 H   0  0  0  0  0  0  0  0  0  0  0  0
   -1.5628    3.3308    0.2692 H   0  0  0  0  0  0  0  0  0  0  0  0
   -1.7544    2.2814   -1.1190 H   0  0  0  0  0  0  0  0  0  0  0  0
   -3.5027   -1.4082    2.3687 H   0  0  0  0  0  0  0  0  0  0  0  0
   -2.8323    0.1975    2.6216 H   0  0  0  0  0  0  0  0  0  0  0  0
   -1.5312    0.0484   -1.8724 H   0  0  0  0  0  0  0  0  0  0  0  0
   -1.3867   -1.6053   -1.3156 H   0  0  0  0  0  0  0  0  0  0  0  0
    0.8728   -1.2603   -0.5639 H   0  0  0  0  0  0  0  0  0  0  0  0
    0.7054   -0.7701   -2.2432 H   0  0  0  0  0  0  0  0  0  0  0  0
   -4.8646    1.0921    2.7696 H   0  0  0  0  0  0  0  0  0  0  0  0
   -5.6090   -0.4742    2.6089 H   0  0  0  0  0  0  0  0  0  0  0  0
    0.9616    0.9898    2.6206 H   0  0  0  0  0  0  0  0  0  0  0  0
    0.9034   -0.4610    1.6406 H   0  0  0  0  0  0  0  0  0  0  0  0
    2.9389    1.9076   -1.0406 H   0  0  0  0  0  0  0  0  0  0  0  0
    2.8258    0.4683   -1.9647 H   0  0  0  0  0  0  0  0  0  0  0  0
   -3.3407    1.0755   -2.1576 H   0  0  0  0  0  0  0  0  0  0  0  0
   -4.9900    1.5749   -1.8717 H   0  0  0  0  0  0  0  0  0  0  0  0
   -4.5762   -0.1507   -1.9507 H   0  0  0  0  0  0  0  0  0  0  0  0
    3.1999   -0.0190    2.2845 H   0  0  0  0  0  0  0  0  0  0  0  0
    3.1366    1.6176    1.6901 H   0  0  0  0  0  0  0  0  0  0  0  0
    2.9793   -0.9480    0.0716 H   0  0  0  0  0  0  0  0  0  0  0  0
   -2.9872   -2.2750    0.3601 H   0  0  0  0  0  0  0  0  0  0  0  0
    0.5751    3.2625    1.7237 H   0  0  0  0  0  0  0  0  0  0  0  0
    0.8341    1.4788   -2.7627 H   0  0  0  0  0  0  0  0  0  0  0  0
   -8.0875    0.7821   -0.3410 H   0  0  0  0  0  0  0  0  0  0  0  0
   -7.0073    0.5219   -1.7395 H   0  0  0  0  0  0  0  0  0  0  0  0
   -5.7385   -2.2507    0.9801 H   0  0  0  0  0  0  0  0  0  0  0  0
    4.4999   -0.9902   -1.5941 H   0  0  0  0  0  0  0  0  0  0  0  0
    6.7155   -0.7888   -2.3530 H   0  0  0  0  0  0  0  0  0  0  0  0
    6.1434    0.8611   -2.0100 H   0  0  0  0  0  0  0  0  0  0  0  0
    8.4972    0.3672   -1.2252 H   0  0  0  0  0  0  0  0  0  0  0  0
    6.2483   -0.9329    1.6049 H   0  0  0  0  0  0  0  0  0  0  0  0
    8.6383   -0.9549    0.9749 H   0  0  0  0  0  0  0  0  0  0  0  0
    7.5811   -2.9118    2.3566 H   0  0  0  0  0  0  0  0  0  0  0  0
    7.0557   -3.7937    0.9012 H   0  0  0  0  0  0  0  0  0  0  0  0
    5.8653   -3.2910    2.0883 H   0  0  0  0  0  0  0  0  0  0  0  0
    6.5175    1.0511    0.7003 H   0  0  0  0  0  0  0  0  0  0  0  0
    9.2595   -1.8017   -1.0373 H   0  0  0  0  0  0  0  0  0  0  0  0
  1 10  1  0  0  0  0
  1 64  1  0  0  0  0
  2 15  1  0  0  0  0
  2 66  1  0  0  0  0
  3 27  1  0  0  0  0
  3 32  1  0  0  0  0
  4 28  2  0  0  0  0
  5 30  1  0  0  0  0
  5 33  1  0  0  0  0
  6 32  1  0  0  0  0
  6 36  1  0  0  0  0
  7 33  2  0  0  0  0
  8 35  1  0  0  0  0
  8 79  1  0  0  0  0
  9 37  1  0  0  0  0
  9 80  1  0  0  0  0
 10 11  1  0  0  0  0
 10 12  1  0  0  0  0
 10 19  1  0  0  0  0
 11 13  1  0  0  0  0
 11 20  1  0  0  0  0
 11 39  1  0  0  0  0
 12 16  1  0  0  0  0
 12 17  1  0  0  0  0
 12 25  1  0  0  0  0
 13 14  1  0  0  0  0
 13 18  1  0  0  0  0
 13 40  1  0  0  0  0
 14 15  1  0  0  0  0
 14 23  1  0  0  0  0
 14 28  1  0  0  0  0
 15 21  1  0  0  0  0
 15 24  1  0  0  0  0
 16 22  1  0  0  0  0
 16 29  1  0  0  0  0
 16 41  1  0  0  0  0
 17 18  1  0  0  0  0
 17 42  1  0  0  0  0
 17 43  1  0  0  0  0
 18 44  1  0  0  0  0
 18 45  1  0  0  0  0
 19 22  1  0  0  0  0
 19 46  1  0  0  0  0
 19 47  1  0  0  0  0
 20 21  1  0  0  0  0
 20 48  1  0  0  0  0
 20 49  1  0  0  0  0
 21 50  1  0  0  0  0
 21 51  1  0  0  0  0
 22 52  1  0  0  0  0
 22 53  1  0  0  0  0
 23 26  1  0  0  0  0
 23 54  1  0  0  0  0
 23 55  1  0  0  0  0
 24 27  1  0  0  0  0
 24 56  1  0  0  0  0
 24 57  1  0  0  0  0
 25 58  1  0  0  0  0
 25 59  1  0  0  0  0
 25 60  1  0  0  0  0
 26 27  1  0  0  0  0
 26 61  1  0  0  0  0
 26 62  1  0  0  0  0
 27 63  1  0  0  0  0
 28 65  1  0  0  0  0
 29 30  1  0  0  0  0
 29 31  2  0  0  0  0
 30 67  1  0  0  0  0
 30 68  1  0  0  0  0
 31 33  1  0  0  0  0
 31 69  1  0  0  0  0
 32 34  1  0  0  0  0
 32 70  1  0  0  0  0
 34 35  1  0  0  0  0
 34 71  1  0  0  0  0
 34 72  1  0  0  0  0
 35 37  1  0  0  0  0
 35 73  1  0  0  0  0
 36 37  1  0  0  0  0
 36 38  1  0  0  0  0
 36 74  1  0  0  0  0
 37 75  1  0  0  0  0
 38 76  1  0  0  0  0
 38 77  1  0  0  0  0
 38 78  1  0  0  0  0
M  END
> <PUBCHEM_COMPOUND_CID>
10503

> <PUBCHEM_CONFORMER_RMSD>
1

> <PUBCHEM_CONFORMER_DIVERSEORDER>
9
165
190
10
8
64
159
29
69
78
203
16
144
155
115
176
172
213
129
92
63
154
89
123
42
158
102
80
153
84
48
57
35
106
163
83
109
58
93
204
140
126
27
142
90
173
118
181
53
171
147
150
85
168
211
146
179
127
137
12
131
1
34
160
166
212
201
54
62
174
124
207
114
193
99
88
145
17
177
206
59
117
76
60
38
214
178
205
49
14
185
194
111
4
86
70
189
28
195
187
2
65
183
112
68
67
161
24
46
130
128
104
136
199
55
82
91
167
122
151
7
51
110
148
81
105
74
45
132
186
5
135
197
180
61
134
184
139
21
141
18
37
47
169
156
77
52
182
31
50
175
94
87
108
44
56
164
32
188
116
75
15
138
202
103
121
143
209
40
71
11
13
79
200
73
208
192
162
66
95
100
41
125
33
113
3
170
191
26
72
149
196
210
20
96
36
101
43
97
30
120
19
22
107
133
6
119
98
152
25
198
157
23
39

> <PUBCHEM_MMFF94_PARTIAL_CHARGES>
29
1 -0.68
10 0.28
14 0.06
15 0.28
16 0.14
2 -0.68
27 0.28
28 0.45
29 -0.28
3 -0.56
30 0.42
31 -0.14
32 0.56
33 0.71
35 0.28
36 0.28
37 0.28
4 -0.57
5 -0.43
6 -0.56
64 0.4
65 0.06
66 0.4
69 0.15
7 -0.57
79 0.4
8 -0.68
80 0.4
9 -0.68

> <PUBCHEM_EFFECTIVE_ROTOR_COUNT>
7.8

> <PUBCHEM_PHARMACOPHORE_FEATURES>
18
1 1 acceptor
1 1 donor
1 2 acceptor
1 2 donor
1 3 acceptor
1 4 acceptor
1 6 acceptor
1 7 acceptor
1 8 acceptor
1 8 donor
1 9 acceptor
1 9 donor
5 10 12 16 19 22 rings
5 5 29 30 31 33 rings
6 10 11 12 13 17 18 rings
6 11 13 14 15 20 21 rings
6 14 15 23 24 26 27 rings
6 6 32 34 35 36 37 rings

> <PUBCHEM_HEAVY_ATOM_COUNT>
38

> <PUBCHEM_ATOM_DEF_STEREO_COUNT>
8

> <PUBCHEM_ATOM_UDEF_STEREO_COUNT>
4

> <PUBCHEM_BOND_DEF_STEREO_COUNT>
0

> <PUBCHEM_BOND_UDEF_STEREO_COUNT>
0

> <PUBCHEM_ISOTOPIC_ATOM_COUNT>
0

> <PUBCHEM_COMPONENT_COUNT>
1

> <PUBCHEM_CACTVS_TAUTO_COUNT>
1

> <PUBCHEM_CONFORMER_ID>
0000290700000009

> <PUBCHEM_MMFF94_ENERGY>
131.2666

> <PUBCHEM_FEATURE_SELFOVERLAP>
91.656

> <PUBCHEM_SHAPE_FINGERPRINT>
10 15 7060373734452642957
10369192 42 9151172043619326329
11135609 99 18114745928086680543
11181472 205 9727367848291546966
11456790 92 17023172796460967627
11672396 43 18187362074458916011
12035758 1 16660370294195445204
12166972 35 18040433257454679897
12516196 113 18260545636933109888
12539765 74 10519987084657456232
12645989 146 18341049640841088301
13383668 362 17679317273204031608
13685833 64 18259984872964808072
13782708 43 18261109698786850843
13811026 1 18186521003607572373
14068700 675 18335136492528645225
14251764 18 17821727226119356060
14849402 71 4750575803726786546
14931854 50 17346323704385133833
15183329 4 16056878053013236584
15198563 99 16630248120948709246
15392192 104 17022901221341084734
15849732 13 18187082840832297796
16728433 281 15122411968489604975
16994733 274 9727637198143357055
17980427 23 6266603300744216208
18393751 57 5039945247959669868
20105231 36 18129936773486367003
2026 5 18270119144785294034
21033650 10 17489875968968890757
21130935 74 17023453274192842982
21987483 16 17825958022715792419
23522609 53 18121182524885566289
23559900 14 17560512898893083961
23569917 315 18187641359050383303
23569943 247 18267305528467457146
23576562 1 16271072702045289687
249057 25 18272354387025026964
249057 3 16415474931142784823
2747138 104 16515682260508770850
2838139 119 10807928237632145058
3178227 256 16225764103885505774
3383291 50 17385443206936436191
3633792 109 17275106149767685525
3711267 37 10591759913299523102
4093350 32 12535358899794315504
4340502 62 5978396023222066493
44802255 64 14117803501617496979
504579 68 16702305641924868251
5219985 9 18411696604173310880
5718773 13 18408324372009174827
5758199 1 6771866272675425804
9953998 17 14201116800315012487
9962374 69 17676779656581481423

> <PUBCHEM_SHAPE_MULTIPOLES>
729.2
24.67
2.75
1.56
14.49
0.12
-0.25
20.36
2.78
-0.21
-0.22
-0.12
0.02
-1.38

> <PUBCHEM_SHAPE_SELFOVERLAP>
1578.324

> <PUBCHEM_SHAPE_VOLUME>
394.7

> <PUBCHEM_COORDINATE_TYPE>
2
5
10

$$$$

