91665
  -OEChem-07051213122D

 24 26  0     0  0  0  0  0  0999 V2000
    6.3981    0.5454    0.0000 O   0  0  0  0  0  0  0  0  0  0  0  0
    4.6660    0.5454    0.0000 N   0  0  0  0  0  0  0  0  0  0  0  0
    3.8000    0.0454    0.0000 C   0  0  0  0  0  0  0  0  0  0  0  0
    4.3009    1.4697    0.0000 C   0  0  0  0  0  0  0  0  0  0  0  0
    3.3073    1.4893    0.0000 C   0  0  0  0  0  0  0  0  0  0  0  0
    2.9061    0.5800    0.0000 C   0  0  0  0  0  0  0  0  0  0  0  0
    3.8000   -0.9546    0.0000 C   0  0  0  0  0  0  0  0  0  0  0  0
    4.6660   -1.4546    0.0000 C   0  0  0  0  0  0  0  0  0  0  0  0
    5.5321   -0.9546    0.0000 C   0  0  0  0  0  0  0  0  0  0  0  0
    5.5321    0.0454    0.0000 C   0  0  0  0  0  0  0  0  0  0  0  0
    2.0000    0.0662    0.0000 C   0  0  0  0  0  0  0  0  0  0  0  0
    2.9061   -1.4893    0.0000 C   0  0  0  0  0  0  0  0  0  0  0  0
    2.0000   -0.9754    0.0000 C   0  0  0  0  0  0  0  0  0  0  0  0
    4.9025    1.6196    0.0000 H   0  0  0  0  0  0  0  0  0  0  0  0
    4.2315    2.0858    0.0000 H   0  0  0  0  0  0  0  0  0  0  0  0
    3.4010    2.1022    0.0000 H   0  0  0  0  0  0  0  0  0  0  0  0
    2.7121    1.6628    0.0000 H   0  0  0  0  0  0  0  0  0  0  0  0
    4.2675   -1.9296    0.0000 H   0  0  0  0  0  0  0  0  0  0  0  0
    5.0646   -1.9296    0.0000 H   0  0  0  0  0  0  0  0  0  0  0  0
    5.7441   -1.5372    0.0000 H   0  0  0  0  0  0  0  0  0  0  0  0
    6.1426   -0.8470    0.0000 H   0  0  0  0  0  0  0  0  0  0  0  0
    1.4643    0.3783    0.0000 H   0  0  0  0  0  0  0  0  0  0  0  0
    2.9132   -2.1092    0.0000 H   0  0  0  0  0  0  0  0  0  0  0  0
    1.4643   -1.2875    0.0000 H   0  0  0  0  0  0  0  0  0  0  0  0
  1 10  2  0  0  0  0
  2  3  1  0  0  0  0
  2  4  1  0  0  0  0
  2 10  1  0  0  0  0
  3  6  1  0  0  0  0
  3  7  2  0  0  0  0
  4  5  1  0  0  0  0
  4 14  1  0  0  0  0
  4 15  1  0  0  0  0
  5  6  1  0  0  0  0
  5 16  1  0  0  0  0
  5 17  1  0  0  0  0
  6 11  2  0  0  0  0
  7  8  1  0  0  0  0
  7 12  1  0  0  0  0
  8  9  1  0  0  0  0
  8 18  1  0  0  0  0
  8 19  1  0  0  0  0
  9 10  1  0  0  0  0
  9 20  1  0  0  0  0
  9 21  1  0  0  0  0
 11 13  1  0  0  0  0
 11 22  1  0  0  0  0
 12 13  2  0  0  0  0
 12 23  1  0  0  0  0
 13 24  1  0  0  0  0
M  END
> <PUBCHEM_COMPOUND_CID>
91665

> <PUBCHEM_COMPOUND_CANONICALIZED>
1

> <PUBCHEM_CACTVS_COMPLEXITY>
238

> <PUBCHEM_CACTVS_HBOND_ACCEPTOR>
1

> <PUBCHEM_CACTVS_HBOND_DONOR>
0

> <PUBCHEM_CACTVS_ROTATABLE_BOND>
0

> <PUBCHEM_CACTVS_SUBSKEYS>
AAADccByIAAAAAAAAAAAAAAAAAAAAWAAAAA8QAAAAAAAAFixAAAAHgAAAAAADAjBmAQwwIMAAACIAiVSUACCAAAhAAAIiAEIRIgIIDLAkZGEIAhghgDIyAcYicCeAAACAAACAAAAAAQAAAQAAAAAAAAAAA==

> <PUBCHEM_IUPAC_INCHI>
InChI=1S/C11H11NO/c13-10-5-4-8-2-1-3-9-6-7-12(10)11(8)9/h1-3H,4-7H2

> <PUBCHEM_IUPAC_INCHIKEY>
XRJLAOUDSILTFT-UHFFFAOYSA-N

> <PUBCHEM_XLOGP3>
1.6

> <PUBCHEM_EXACT_MASS>
173.084064

> <PUBCHEM_MOLECULAR_FORMULA>
C11H11NO

> <PUBCHEM_MOLECULAR_WEIGHT>
173.21114

> <PUBCHEM_OPENEYE_CAN_SMILES>
C1CC(=O)N2CCC3=CC=CC1=C32

> <PUBCHEM_OPENEYE_ISO_SMILES>
C1CC(=O)N2CCC3=CC=CC1=C32

> <PUBCHEM_CACTVS_TPSA>
20.3

> <PUBCHEM_MONOISOTOPIC_WEIGHT>
173.084064

> <PUBCHEM_TOTAL_CHARGE>
0

> <PUBCHEM_HEAVY_ATOM_COUNT>
13

> <PUBCHEM_ATOM_DEF_STEREO_COUNT>
0

> <PUBCHEM_ATOM_UDEF_STEREO_COUNT>
0

> <PUBCHEM_BOND_DEF_STEREO_COUNT>
0

> <PUBCHEM_BOND_UDEF_STEREO_COUNT>
0

> <PUBCHEM_ISOTOPIC_ATOM_COUNT>
0

> <PUBCHEM_COMPONENT_COUNT>
1

> <PUBCHEM_CACTVS_TAUTO_COUNT>
2

> <PUBCHEM_COORDINATE_TYPE>
1
5
255

> <PUBCHEM_BONDANNOTATIONS>
11  13  8
12  13  8
3  6  8
3  7  8
6  11  8
7  12  8

$$$$

