643733
  -OEChem-07051212553D

 33 33  0     0  0  0  0  0  0999 V2000
    0.6047    1.1160    0.0079 O   0  0  0  0  0  0  0  0  0  0  0  0
    4.1093    1.5170    0.0211 O   0  0  0  0  0  0  0  0  0  0  0  0
   -3.8556   -1.1527    0.1621 O   0  0  0  0  0  0  0  0  0  0  0  0
   -4.5425    1.0463   -0.0097 O   0  0  0  0  0  0  0  0  0  0  0  0
   -0.3753    2.0567   -0.0315 C   0  0  0  0  0  0  0  0  0  0  0  0
    1.7504    1.8088   -0.0068 C   0  0  0  0  0  0  0  0  0  0  0  0
    0.1684    3.3195   -0.0703 C   0  0  0  0  0  0  0  0  0  0  0  0
    1.5725    3.1434   -0.0535 C   0  0  0  0  0  0  0  0  0  0  0  0
   -1.7468    1.7127   -0.0299 C   0  0  0  0  0  0  0  0  0  0  0  0
    0.3295   -3.0196    0.2487 C   0  0  0  0  0  0  0  0  0  0  0  0
    2.9868    1.0214    0.0291 C   0  0  0  0  0  0  0  0  0  0  0  0
   -0.2101   -2.8148   -1.1582 C   0  0  0  0  0  0  0  0  0  0  0  0
    1.6658   -3.7021    0.2284 C   0  0  0  0  0  0  0  0  0  0  0  0
   -2.2138    0.4463    0.0482 C   0  0  0  0  0  0  0  0  0  0  0  0
    2.8329   -3.0462    0.1687 C   0  0  0  0  0  0  0  0  0  0  0  0
    2.9290   -0.4281    0.0779 C   0  0  0  0  0  0  0  0  0  0  0  0
   -3.6734    0.1918    0.0604 C   0  0  0  0  0  0  0  0  0  0  0  0
    2.8869   -1.6278    0.1194 C   0  0  0  0  0  0  0  0  0  0  0  0
   -5.2189   -1.5884    0.1881 C   0  0  0  0  0  0  0  0  0  0  0  0
   -0.3709    4.2561   -0.1063 H   0  0  0  0  0  0  0  0  0  0  0  0
    2.3309    3.9128   -0.0738 H   0  0  0  0  0  0  0  0  0  0  0  0
    0.3607   -2.0636    0.7826 H   0  0  0  0  0  0  0  0  0  0  0  0
   -0.3668   -3.6512    0.8137 H   0  0  0  0  0  0  0  0  0  0  0  0
   -2.4562    2.5350   -0.0915 H   0  0  0  0  0  0  0  0  0  0  0  0
   -0.2340   -3.7576   -1.7157 H   0  0  0  0  0  0  0  0  0  0  0  0
   -1.2324   -2.4270   -1.1210 H   0  0  0  0  0  0  0  0  0  0  0  0
    0.4012   -2.1018   -1.7211 H   0  0  0  0  0  0  0  0  0  0  0  0
    1.6742   -4.7887    0.2470 H   0  0  0  0  0  0  0  0  0  0  0  0
   -1.5448   -0.4029    0.1232 H   0  0  0  0  0  0  0  0  0  0  0  0
    3.7649   -3.6011    0.1496 H   0  0  0  0  0  0  0  0  0  0  0  0
   -5.7252   -1.3032   -0.7390 H   0  0  0  0  0  0  0  0  0  0  0  0
   -5.7347   -1.1667    1.0560 H   0  0  0  0  0  0  0  0  0  0  0  0
   -5.2258   -2.6785    0.2709 H   0  0  0  0  0  0  0  0  0  0  0  0
  1  5  1  0  0  0  0
  1  6  1  0  0  0  0
  2 11  2  0  0  0  0
  3 17  1  0  0  0  0
  3 19  1  0  0  0  0
  4 17  2  0  0  0  0
  5  7  2  0  0  0  0
  5  9  1  0  0  0  0
  6  8  2  0  0  0  0
  6 11  1  0  0  0  0
  7  8  1  0  0  0  0
  7 20  1  0  0  0  0
  8 21  1  0  0  0  0
  9 14  2  0  0  0  0
  9 24  1  0  0  0  0
 10 12  1  0  0  0  0
 10 13  1  0  0  0  0
 10 22  1  0  0  0  0
 10 23  1  0  0  0  0
 11 16  1  0  0  0  0
 12 25  1  0  0  0  0
 12 26  1  0  0  0  0
 12 27  1  0  0  0  0
 13 15  2  0  0  0  0
 13 28  1  0  0  0  0
 14 17  1  0  0  0  0
 14 29  1  0  0  0  0
 15 18  1  0  0  0  0
 15 30  1  0  0  0  0
 16 18  3  0  0  0  0
 19 31  1  0  0  0  0
 19 32  1  0  0  0  0
 19 33  1  0  0  0  0
M  END
> <PUBCHEM_COMPOUND_CID>
643733

> <PUBCHEM_CONFORMER_RMSD>
0.8

> <PUBCHEM_CONFORMER_DIVERSEORDER>
1
23
9
14
11
13
25
3
27
12
7
26
8
18
15
4
24
20
22
5
6
21
17
2
16
19
10

> <PUBCHEM_MMFF94_PARTIAL_CHARGES>
24
1 -0.28
10 0.14
11 0.76
13 -0.29
14 -0.14
15 -0.09
16 -0.1
17 0.71
18 -0.06
19 0.28
2 -0.57
20 0.15
21 0.15
24 0.15
28 0.15
29 0.15
3 -0.43
30 0.15
4 -0.57
5 0.09
6 0.05
7 -0.15
8 -0.15
9 -0.11

> <PUBCHEM_EFFECTIVE_ROTOR_COUNT>
5

> <PUBCHEM_PHARMACOPHORE_FEATURES>
5
1 1 acceptor
1 12 hydrophobe
1 2 acceptor
1 4 acceptor
5 1 5 6 7 8 rings

> <PUBCHEM_HEAVY_ATOM_COUNT>
19

> <PUBCHEM_ATOM_DEF_STEREO_COUNT>
0

> <PUBCHEM_ATOM_UDEF_STEREO_COUNT>
0

> <PUBCHEM_BOND_DEF_STEREO_COUNT>
2

> <PUBCHEM_BOND_UDEF_STEREO_COUNT>
0

> <PUBCHEM_ISOTOPIC_ATOM_COUNT>
0

> <PUBCHEM_COMPONENT_COUNT>
1

> <PUBCHEM_CACTVS_TAUTO_COUNT>
1

> <PUBCHEM_CONFORMER_ID>
0009D29500000001

> <PUBCHEM_MMFF94_ENERGY>
19.3528

> <PUBCHEM_FEATURE_SELFOVERLAP>
25.371

> <PUBCHEM_SHAPE_FINGERPRINT>
10616163 171 18121216747247056382
10967382 1 18410856551392752842
1100329 8 18121501254835090608
12038231 1 18339080522378649515
12553582 1 18049996998048935298
13140716 1 17976548208649430248
138480 1 18339080509424889970
14251705 54 18339362001465444755
14790565 3 18267576919198592068
14863182 85 18342167839702900460
14916288 52 17761774370166275886
15003188 3 15443540015146856756
15110567 62 18340482275424202131
15352361 1 18267586999111607219
19591789 44 18194962946142260278
19930381 70 18412265055810870915
20028762 73 17972036938126476151
20645477 70 18271813363469962153
21197605 99 17834103157541580203
23184049 29 17834110132061066198
23559900 14 18195819693798314272
33824 294 18411139104295608560
338550 245 17908703934494575543
4283 87 18263090941847858871
5283384 97 18263658290254038311
5309563 4 18338233868534369263
6443956 14 18340766065203565005

> <PUBCHEM_SHAPE_MULTIPOLES>
367.53
7.81
5.2
0.68
9.54
1.64
-0.09
2.65
0.69
-3.24
-0.15
-0.01
0.25
-0.1

> <PUBCHEM_SHAPE_SELFOVERLAP>
755.137

> <PUBCHEM_SHAPE_VOLUME>
211.6

> <PUBCHEM_COORDINATE_TYPE>
2
5
10

$$$$

