1787
  -OEChem-07051212512D

 48 50  0     1  0  0  0  0  0999 V2000
    5.6859    0.2500    0.0000 O   0  0  0  0  0  0  0  0  0  0  0  0
    4.8768    4.8378    0.0000 O   0  0  0  0  0  0  0  0  0  0  0  0
    3.8968   -4.8378    0.0000 O   0  0  0  0  0  0  0  0  0  0  0  0
    6.4949    4.8378    0.0000 N   0  0  0  0  0  0  0  0  0  0  0  0
    3.5878   -5.7888    0.0000 N   0  0  0  0  0  0  0  0  0  0  0  0
    3.9538   -1.7500    0.0000 C   0  0  0  0  0  0  0  0  0  0  0  0
    3.9538   -2.7500    0.0000 C   0  0  0  0  0  0  0  0  0  0  0  0
    4.8198   -1.2500    0.0000 C   0  0  0  0  0  0  0  0  0  0  0  0
    3.0878   -3.2500    0.0000 C   0  0  0  0  0  0  0  0  0  0  0  0
    4.8198   -0.2500    0.0000 C   0  0  0  0  0  0  0  0  0  0  0  0
    6.1859    5.7888    0.0000 C   0  0  3  0  0  0  0  0  0  0  0  0
    5.1859    5.7888    0.0000 C   0  0  0  0  0  0  0  0  0  0  0  0
    3.0878   -4.2500    0.0000 C   0  0  0  0  0  0  0  0  0  0  0  0
    5.6859    4.2500    0.0000 C   0  0  0  0  0  0  0  0  0  0  0  0
    5.6859    3.2500    0.0000 C   0  0  0  0  0  0  0  0  0  0  0  0
    6.7736    6.5979    0.0000 C   0  0  0  0  0  0  0  0  0  0  0  0
    5.6859    1.2500    0.0000 C   0  0  0  0  0  0  0  0  0  0  0  0
    2.2788   -4.8378    0.0000 C   0  0  0  0  0  0  0  0  0  0  0  0
    4.8198    2.7500    0.0000 C   0  0  0  0  0  0  0  0  0  0  0  0
    6.5519    2.7500    0.0000 C   0  0  0  0  0  0  0  0  0  0  0  0
    4.8198    1.7500    0.0000 C   0  0  0  0  0  0  0  0  0  0  0  0
    6.5519    1.7500    0.0000 C   0  0  0  0  0  0  0  0  0  0  0  0
    2.5878   -5.7888    0.0000 C   0  0  0  0  0  0  0  0  0  0  0  0
    2.0000   -6.5979    0.0000 C   0  0  0  0  0  0  0  0  0  0  0  0
    3.7418   -1.1674    0.0000 H   0  0  0  0  0  0  0  0  0  0  0  0
    3.3432   -1.8577    0.0000 H   0  0  0  0  0  0  0  0  0  0  0  0
    4.1659   -3.3326    0.0000 H   0  0  0  0  0  0  0  0  0  0  0  0
    4.5644   -2.6423    0.0000 H   0  0  0  0  0  0  0  0  0  0  0  0
    5.0319   -1.8326    0.0000 H   0  0  0  0  0  0  0  0  0  0  0  0
    5.4304   -1.1423    0.0000 H   0  0  0  0  0  0  0  0  0  0  0  0
    2.8757   -2.6674    0.0000 H   0  0  0  0  0  0  0  0  0  0  0  0
    2.4772   -3.3577    0.0000 H   0  0  0  0  0  0  0  0  0  0  0  0
    4.6078    0.3326    0.0000 H   0  0  0  0  0  0  0  0  0  0  0  0
    4.2093   -0.3577    0.0000 H   0  0  0  0  0  0  0  0  0  0  0  0
    7.0254    5.6559    0.0000 H   0  0  0  0  0  0  0  0  0  0  0  0
    5.2507    6.4054    0.0000 H   0  0  0  0  0  0  0  0  0  0  0  0
    4.5794    5.9178    0.0000 H   0  0  0  0  0  0  0  0  0  0  0  0
    7.2752    6.2334    0.0000 H   0  0  0  0  0  0  0  0  0  0  0  0
    7.1381    7.0994    0.0000 H   0  0  0  0  0  0  0  0  0  0  0  0
    6.2721    6.9623    0.0000 H   0  0  0  0  0  0  0  0  0  0  0  0
    1.6891   -4.6462    0.0000 H   0  0  0  0  0  0  0  0  0  0  0  0
    4.2829    3.0600    0.0000 H   0  0  0  0  0  0  0  0  0  0  0  0
    7.0888    3.0600    0.0000 H   0  0  0  0  0  0  0  0  0  0  0  0
    4.2829    1.4400    0.0000 H   0  0  0  0  0  0  0  0  0  0  0  0
    7.0888    1.4400    0.0000 H   0  0  0  0  0  0  0  0  0  0  0  0
    1.4984   -6.2334    0.0000 H   0  0  0  0  0  0  0  0  0  0  0  0
    1.6356   -7.0994    0.0000 H   0  0  0  0  0  0  0  0  0  0  0  0
    2.5016   -6.9623    0.0000 H   0  0  0  0  0  0  0  0  0  0  0  0
  1 10  1  0  0  0  0
  1 17  1  0  0  0  0
  2 12  1  0  0  0  0
  2 14  1  0  0  0  0
  3  5  1  0  0  0  0
  3 13  1  0  0  0  0
  4 11  1  0  0  0  0
  4 14  2  0  0  0  0
  5 23  2  0  0  0  0
  6  7  1  0  0  0  0
  6  8  1  0  0  0  0
  6 25  1  0  0  0  0
  6 26  1  0  0  0  0
  7  9  1  0  0  0  0
  7 27  1  0  0  0  0
  7 28  1  0  0  0  0
  8 10  1  0  0  0  0
  8 29  1  0  0  0  0
  8 30  1  0  0  0  0
  9 13  1  0  0  0  0
  9 31  1  0  0  0  0
  9 32  1  0  0  0  0
 10 33  1  0  0  0  0
 10 34  1  0  0  0  0
 11 12  1  0  0  0  0
 11 16  1  0  0  0  0
 11 35  1  0  0  0  0
 12 36  1  0  0  0  0
 12 37  1  0  0  0  0
 13 18  2  0  0  0  0
 14 15  1  0  0  0  0
 15 19  2  0  0  0  0
 15 20  1  0  0  0  0
 16 38  1  0  0  0  0
 16 39  1  0  0  0  0
 16 40  1  0  0  0  0
 17 21  2  0  0  0  0
 17 22  1  0  0  0  0
 18 23  1  0  0  0  0
 18 41  1  0  0  0  0
 19 21  1  0  0  0  0
 19 42  1  0  0  0  0
 20 22  2  0  0  0  0
 20 43  1  0  0  0  0
 21 44  1  0  0  0  0
 22 45  1  0  0  0  0
 23 24  1  0  0  0  0
 24 46  1  0  0  0  0
 24 47  1  0  0  0  0
 24 48  1  0  0  0  0
M  END
> <PUBCHEM_COMPOUND_CID>
1787

> <PUBCHEM_COMPOUND_CANONICALIZED>
1

> <PUBCHEM_CACTVS_COMPLEXITY>
407

> <PUBCHEM_CACTVS_HBOND_ACCEPTOR>
5

> <PUBCHEM_CACTVS_HBOND_DONOR>
0

> <PUBCHEM_CACTVS_ROTATABLE_BOND>
8

> <PUBCHEM_CACTVS_SUBSKEYS>
AAADceB7MAAAAAAAAAAAAAAAAAAAAWIAAAAwAAAAAAAAAAABwAAAHgAEAAAADCzhngYyhpIQBACpA6RyRgCCCAAkIgAomCE2bNoOJrqEsZqDOaDmwBkI6UeY6KwOIAAAAAAAAABAAAAAAAAAAAAAAAAAAA==

> <PUBCHEM_IUPAC_OPENEYE_NAME>
3-methyl-5-[5-[4-(4-methyl-4,5-dihydrooxazol-2-yl)phenoxy]pentyl]isoxazole

> <PUBCHEM_IUPAC_CAS_NAME>
3-methyl-5-[5-[4-(4-methyl-4,5-dihydrooxazol-2-yl)phenoxy]pentyl]isoxazole

> <PUBCHEM_IUPAC_NAME>
3-methyl-5-[5-[4-(4-methyl-4,5-dihydro-1,3-oxazol-2-yl)phenoxy]pentyl]-1,2-oxazole

> <PUBCHEM_IUPAC_SYSTEMATIC_NAME>
3-methyl-5-[5-[4-(4-methyl-4,5-dihydro-1,3-oxazol-2-yl)phenoxy]pentyl]-1,2-oxazole

> <PUBCHEM_IUPAC_TRADITIONAL_NAME>
3-methyl-5-[5-[4-(4-methyl-2-oxazolin-2-yl)phenoxy]pentyl]isoxazole

> <PUBCHEM_IUPAC_INCHI>
InChI=1S/C19H24N2O3/c1-14-12-18(24-21-14)6-4-3-5-11-22-17-9-7-16(8-10-17)19-20-15(2)13-23-19/h7-10,12,15H,3-6,11,13H2,1-2H3

> <PUBCHEM_IUPAC_INCHIKEY>
UXIYKMARWUSIKU-UHFFFAOYSA-N

> <PUBCHEM_XLOGP3_AA>
3.7

> <PUBCHEM_EXACT_MASS>
328.178693

> <PUBCHEM_MOLECULAR_FORMULA>
C19H24N2O3

> <PUBCHEM_MOLECULAR_WEIGHT>
328.40546

> <PUBCHEM_OPENEYE_CAN_SMILES>
CC1COC(=N1)C2=CC=C(C=C2)OCCCCCC3=CC(=NO3)C

> <PUBCHEM_OPENEYE_ISO_SMILES>
CC1COC(=N1)C2=CC=C(C=C2)OCCCCCC3=CC(=NO3)C

> <PUBCHEM_CACTVS_TPSA>
56.8

> <PUBCHEM_MONOISOTOPIC_WEIGHT>
328.178693

> <PUBCHEM_TOTAL_CHARGE>
0

> <PUBCHEM_HEAVY_ATOM_COUNT>
24

> <PUBCHEM_ATOM_DEF_STEREO_COUNT>
0

> <PUBCHEM_ATOM_UDEF_STEREO_COUNT>
1

> <PUBCHEM_BOND_DEF_STEREO_COUNT>
0

> <PUBCHEM_BOND_UDEF_STEREO_COUNT>
0

> <PUBCHEM_ISOTOPIC_ATOM_COUNT>
0

> <PUBCHEM_COMPONENT_COUNT>
1

> <PUBCHEM_CACTVS_TAUTO_COUNT>
1

> <PUBCHEM_COORDINATE_TYPE>
1
5
255

> <PUBCHEM_BONDANNOTATIONS>
11  35  3
13  18  8
15  19  8
15  20  8
17  21  8
17  22  8
18  23  8
19  21  8
20  22  8
3  13  8
3  5  8
5  23  8

$$$$

