92629
  -OEChem-07051213143D

 25 24  0     1  0  0  0  0  0999 V2000
   -0.3136    0.3890   -0.4179 O   0  0  0  0  0  0  0  0  0  0  0  0
    3.0290   -0.9165    0.1379 O   0  0  0  0  0  0  0  0  0  0  0  0
   -1.6206    0.0029    0.0089 C   0  0  0  0  0  0  0  0  0  0  0  0
    0.6773   -0.4798    0.1075 C   0  0  0  0  0  0  0  0  0  0  0  0
   -1.6692    0.0566    1.5352 C   0  0  0  0  0  0  0  0  0  0  0  0
   -2.6133    0.9935   -0.5955 C   0  0  0  0  0  0  0  0  0  0  0  0
   -1.8989   -1.4123   -0.4956 C   0  0  0  0  0  0  0  0  0  0  0  0
    2.0459   -0.0210   -0.3794 C   0  0  1  0  0  0  0  0  0  0  0  0
    2.3633    1.3876    0.0990 C   0  0  0  0  0  0  0  0  0  0  0  0
    0.5508   -1.5113   -0.2351 H   0  0  0  0  0  0  0  0  0  0  0  0
    0.7018   -0.4841    1.2016 H   0  0  0  0  0  0  0  0  0  0  0  0
   -1.2049    0.9733    1.9165 H   0  0  0  0  0  0  0  0  0  0  0  0
   -2.7067    0.0309    1.8889 H   0  0  0  0  0  0  0  0  0  0  0  0
   -1.1696   -0.7925    2.0135 H   0  0  0  0  0  0  0  0  0  0  0  0
   -2.5463    0.9919   -1.6896 H   0  0  0  0  0  0  0  0  0  0  0  0
   -2.3864    2.0162   -0.2731 H   0  0  0  0  0  0  0  0  0  0  0  0
   -3.6449    0.7617   -0.3115 H   0  0  0  0  0  0  0  0  0  0  0  0
   -1.3801   -2.1857    0.0804 H   0  0  0  0  0  0  0  0  0  0  0  0
   -2.9673   -1.6462   -0.4184 H   0  0  0  0  0  0  0  0  0  0  0  0
   -1.6029   -1.5261   -1.5447 H   0  0  0  0  0  0  0  0  0  0  0  0
    2.0860   -0.0524   -1.4740 H   0  0  0  0  0  0  0  0  0  0  0  0
    3.3690    1.6815   -0.2212 H   0  0  0  0  0  0  0  0  0  0  0  0
    1.6523    2.1208   -0.2932 H   0  0  0  0  0  0  0  0  0  0  0  0
    2.3566    1.4420    1.1933 H   0  0  0  0  0  0  0  0  0  0  0  0
    3.8948   -0.6246   -0.1949 H   0  0  0  0  0  0  0  0  0  0  0  0
  1  3  1  0  0  0  0
  1  4  1  0  0  0  0
  2  8  1  0  0  0  0
  2 25  1  0  0  0  0
  3  5  1  0  0  0  0
  3  6  1  0  0  0  0
  3  7  1  0  0  0  0
  4  8  1  0  0  0  0
  4 10  1  0  0  0  0
  4 11  1  0  0  0  0
  5 12  1  0  0  0  0
  5 13  1  0  0  0  0
  5 14  1  0  0  0  0
  6 15  1  0  0  0  0
  6 16  1  0  0  0  0
  6 17  1  0  0  0  0
  7 18  1  0  0  0  0
  7 19  1  0  0  0  0
  7 20  1  0  0  0  0
  8  9  1  0  0  0  0
  8 21  1  0  0  0  0
  9 22  1  0  0  0  0
  9 23  1  0  0  0  0
  9 24  1  0  0  0  0
M  END
> <PUBCHEM_COMPOUND_CID>
92629

> <PUBCHEM_CONFORMER_RMSD>
0.6

> <PUBCHEM_CONFORMER_DIVERSEORDER>
2
3
1

> <PUBCHEM_MMFF94_PARTIAL_CHARGES>
6
1 -0.56
2 -0.68
25 0.4
3 0.28
4 0.28
8 0.28

> <PUBCHEM_EFFECTIVE_ROTOR_COUNT>
3

> <PUBCHEM_PHARMACOPHORE_FEATURES>
4
1 1 acceptor
1 2 acceptor
1 2 donor
4 3 5 6 7 hydrophobe

> <PUBCHEM_HEAVY_ATOM_COUNT>
9

> <PUBCHEM_ATOM_DEF_STEREO_COUNT>
0

> <PUBCHEM_ATOM_UDEF_STEREO_COUNT>
1

> <PUBCHEM_BOND_DEF_STEREO_COUNT>
0

> <PUBCHEM_BOND_UDEF_STEREO_COUNT>
0

> <PUBCHEM_ISOTOPIC_ATOM_COUNT>
0

> <PUBCHEM_COMPONENT_COUNT>
1

> <PUBCHEM_CACTVS_TAUTO_COUNT>
1

> <PUBCHEM_CONFORMER_ID>
000169D500000002

> <PUBCHEM_MMFF94_ENERGY>
24.8158

> <PUBCHEM_FEATURE_SELFOVERLAP>
20.297

> <PUBCHEM_SHAPE_FINGERPRINT>
10857977 72 17203036379392023873
12897270 3 18335705992190524708
12932741 1 17131832032299846114
12932764 1 18340195324136939372
14325111 11 18411703162345187564
14390081 3 18342744004801284053
15310529 11 18336550408583495535
19973954 147 18341612590188231316
20645464 45 17203613648882519528
20653085 51 18340769338100506741
23235687 12 18260258646890986310
23552423 10 18342460309442402478
24536 1 17385713712233485911
29004967 10 17846770785143026512
3248919 1 17385719205718223118
369184 2 18411135818624372107
5084963 1 18334014960581884714

> <PUBCHEM_SHAPE_MULTIPOLES>
173.48
4.47
1.29
0.98
2
0.01
-0.36
-0.28
0.23
0.03
0.16
-0.59
-0.06
0

> <PUBCHEM_SHAPE_SELFOVERLAP>
317.205

> <PUBCHEM_SHAPE_VOLUME>
113.2

> <PUBCHEM_COORDINATE_TYPE>
2
5
10

$$$$

