11953936
  -OEChem-07051212572D

 67 69  0     1  0  0  0  0  0999 V2000
    7.9942    3.6052    0.0000 O   0  0  0  0  0  0  0  0  0  0  0  0
    3.5836    2.9095    0.0000 O   0  0  0  0  0  0  0  0  0  0  0  0
    5.3958    0.1047    0.0000 O   0  0  0  0  0  0  0  0  0  0  0  0
    5.7619    2.4708    0.0000 O   0  0  0  0  0  0  0  0  0  0  0  0
    2.0000    2.1047    0.0000 O   0  0  0  0  0  0  0  0  0  0  0  0
    7.9939   -0.3953    0.0000 O   0  0  0  0  0  0  0  0  0  0  0  0
    3.5298   -1.3953    0.0000 O   0  0  0  0  0  0  0  0  0  0  0  0
    6.2619   -0.3953    0.0000 O   0  0  0  0  0  0  0  0  0  0  0  0
    3.5298   -0.3953    0.0000 O   0  0  0  0  0  0  0  0  0  0  0  0
    3.6638   -2.8953    0.0000 O   0  0  0  0  0  0  0  0  0  0  0  0
    6.5783    4.2216    0.0000 O   0  0  0  0  0  0  0  0  0  0  0  0
    4.5298   -4.3953    0.0000 O   0  0  0  0  0  0  0  0  0  0  0  0
    4.5298    1.6047    0.0000 C   0  0  2  0  0  0  0  0  0  0  0  0
    7.1279    3.1047    0.0000 C   0  0  2  0  0  0  0  0  0  0  0  0
    7.9939    2.6047    0.0000 C   0  0  1  0  0  0  0  0  0  0  0  0
    5.3958    1.1047    0.0000 C   0  0  1  0  0  0  0  0  0  0  0  0
    4.5298    2.6047    0.0000 C   0  0  1  0  0  0  0  0  0  0  0  0
    6.2619    1.6047    0.0000 C   0  0  2  0  0  0  0  0  0  0  0  0
    6.2619    2.6047    0.0000 C   0  0  0  0  0  0  0  0  0  0  0  0
    5.3958    3.1047    0.0000 C   0  0  0  0  0  0  0  0  0  0  0  0
    7.9939    1.6047    0.0000 C   0  0  0  0  0  0  0  0  0  0  0  0
    3.5836    1.3000    0.0000 C   0  0  0  0  0  0  0  0  0  0  0  0
    7.1279    1.1047    0.0000 C   0  0  0  0  0  0  0  0  0  0  0  0
    3.0000    2.1047    0.0000 C   0  0  0  0  0  0  0  0  0  0  0  0
    6.6476    2.1452    0.0000 C   0  0  0  0  0  0  0  0  0  0  0  0
    7.1279    0.1047    0.0000 C   0  0  0  0  0  0  0  0  0  0  0  0
    4.5298   -0.3953    0.0000 C   0  0  0  0  0  0  0  0  0  0  0  0
    2.8394    0.6321    0.0000 C   0  0  0  0  0  0  0  0  0  0  0  0
    4.5298   -1.3953    0.0000 C   0  0  1  0  0  0  0  0  0  0  0  0
    4.5298   -2.3953    0.0000 C   0  0  2  0  0  0  0  0  0  0  0  0
    5.9355    3.4556    0.0000 C   0  0  0  0  0  0  0  0  0  0  0  0
    5.5298   -1.3953    0.0000 C   0  0  0  0  0  0  0  0  0  0  0  0
    5.3958   -2.8953    0.0000 C   0  0  0  0  0  0  0  0  0  0  0  0
    5.5935    4.3953    0.0000 C   0  0  0  0  0  0  0  0  0  0  0  0
    7.9939   -1.3953    0.0000 C   0  0  0  0  0  0  0  0  0  0  0  0
    3.6638   -3.8953    0.0000 C   0  0  0  0  0  0  0  0  0  0  0  0
    2.7978   -4.3953    0.0000 C   0  0  0  0  0  0  0  0  0  0  0  0
    4.4399    0.7595    0.0000 H   0  0  0  0  0  0  0  0  0  0  0  0
    6.8178    3.6416    0.0000 H   0  0  0  0  0  0  0  0  0  0  0  0
    8.6139    2.6047    0.0000 H   0  0  0  0  0  0  0  0  0  0  0  0
    5.9328    0.7947    0.0000 H   0  0  0  0  0  0  0  0  0  0  0  0
    4.4399    3.4500    0.0000 H   0  0  0  0  0  0  0  0  0  0  0  0
    6.7003    2.0431    0.0000 H   0  0  0  0  0  0  0  0  0  0  0  0
    5.0858    3.6417    0.0000 H   0  0  0  0  0  0  0  0  0  0  0  0
    8.5309    1.2947    0.0000 H   0  0  0  0  0  0  0  0  0  0  0  0
    6.1728    1.7466    0.0000 H   0  0  0  0  0  0  0  0  0  0  0  0
    7.0462    1.6703    0.0000 H   0  0  0  0  0  0  0  0  0  0  0  0
    7.1225    2.5438    0.0000 H   0  0  0  0  0  0  0  0  0  0  0  0
    2.2500    0.8247    0.0000 H   0  0  0  0  0  0  0  0  0  0  0  0
    2.9672    0.0254    0.0000 H   0  0  0  0  0  0  0  0  0  0  0  0
    4.5298   -3.0153    0.0000 H   0  0  0  0  0  0  0  0  0  0  0  0
    5.5298   -2.0153    0.0000 H   0  0  0  0  0  0  0  0  0  0  0  0
    6.1498   -1.3953    0.0000 H   0  0  0  0  0  0  0  0  0  0  0  0
    5.5298   -0.7753    0.0000 H   0  0  0  0  0  0  0  0  0  0  0  0
    5.0858   -3.4322    0.0000 H   0  0  0  0  0  0  0  0  0  0  0  0
    5.9328   -3.2053    0.0000 H   0  0  0  0  0  0  0  0  0  0  0  0
    5.7058   -2.3583    0.0000 H   0  0  0  0  0  0  0  0  0  0  0  0
    3.2198   -1.9322    0.0000 H   0  0  0  0  0  0  0  0  0  0  0  0
    6.1761    4.6073    0.0000 H   0  0  0  0  0  0  0  0  0  0  0  0
    5.3815    4.9779    0.0000 H   0  0  0  0  0  0  0  0  0  0  0  0
    5.0109    4.1832    0.0000 H   0  0  0  0  0  0  0  0  0  0  0  0
    7.3739   -1.3953    0.0000 H   0  0  0  0  0  0  0  0  0  0  0  0
    7.9939   -2.0153    0.0000 H   0  0  0  0  0  0  0  0  0  0  0  0
    8.6139   -1.3953    0.0000 H   0  0  0  0  0  0  0  0  0  0  0  0
    2.4878   -3.8583    0.0000 H   0  0  0  0  0  0  0  0  0  0  0  0
    2.2608   -4.7053    0.0000 H   0  0  0  0  0  0  0  0  0  0  0  0
    3.1078   -4.9322    0.0000 H   0  0  0  0  0  0  0  0  0  0  0  0
 14  1  1  6  0  0  0
 15  1  1  6  0  0  0
  2 17  1  0  0  0  0
  2 24  1  0  0  0  0
 16  3  1  1  0  0  0
  3 27  1  0  0  0  0
 18  4  1  1  0  0  0
  4 31  1  0  0  0  0
  5 24  2  0  0  0  0
  6 26  1  0  0  0  0
  6 35  1  0  0  0  0
 29  7  1  6  0  0  0
  7 58  1  0  0  0  0
  8 26  2  0  0  0  0
  9 27  2  0  0  0  0
 30 10  1  6  0  0  0
 10 36  1  0  0  0  0
 11 31  2  0  0  0  0
 12 36  2  0  0  0  0
 13 16  1  0  0  0  0
 13 17  1  0  0  0  0
 13 22  1  0  0  0  0
 13 38  1  6  0  0  0
 14 15  1  0  0  0  0
 14 19  1  0  0  0  0
 14 39  1  0  0  0  0
 15 21  1  0  0  0  0
 15 40  1  0  0  0  0
 16 18  1  0  0  0  0
 16 41  1  0  0  0  0
 17 20  1  0  0  0  0
 17 42  1  1  0  0  0
 18 23  1  0  0  0  0
 18 43  1  0  0  0  0
 19 20  2  0  0  0  0
 19 25  1  0  0  0  0
 20 44  1  0  0  0  0
 21 23  2  0  0  0  0
 21 45  1  0  0  0  0
 22 24  1  0  0  0  0
 22 28  2  0  0  0  0
 23 26  1  0  0  0  0
 25 46  1  0  0  0  0
 25 47  1  0  0  0  0
 25 48  1  0  0  0  0
 27 29  1  0  0  0  0
 28 49  1  0  0  0  0
 28 50  1  0  0  0  0
 29 30  1  0  0  0  0
 29 32  1  0  0  0  0
 30 33  1  0  0  0  0
 30 51  1  0  0  0  0
 31 34  1  0  0  0  0
 32 52  1  0  0  0  0
 32 53  1  0  0  0  0
 32 54  1  0  0  0  0
 33 55  1  0  0  0  0
 33 56  1  0  0  0  0
 33 57  1  0  0  0  0
 34 59  1  0  0  0  0
 34 60  1  0  0  0  0
 34 61  1  0  0  0  0
 35 62  1  0  0  0  0
 35 63  1  0  0  0  0
 35 64  1  0  0  0  0
 36 37  1  0  0  0  0
 37 65  1  0  0  0  0
 37 66  1  0  0  0  0
 37 67  1  0  0  0  0
M  END
> <PUBCHEM_COMPOUND_CID>
11953936

> <PUBCHEM_COMPOUND_CANONICALIZED>
1

> <PUBCHEM_CACTVS_COMPLEXITY>
1090

> <PUBCHEM_CACTVS_HBOND_ACCEPTOR>
12

> <PUBCHEM_CACTVS_HBOND_DONOR>
1

> <PUBCHEM_CACTVS_ROTATABLE_BOND>
10

> <PUBCHEM_CACTVS_SUBSKEYS>
AAADceB4PAAAAAAAAAAAAAAAEgAAASAAAAAAAAAAAAAAAACAAAAAGgAACAAADVSggAICCAAABgCIAiDSCAIAAAAgAAAACAFAAEgBBBYAIQACUAAF4AALIYPK7DzOAAAAAAAAAAAAAAAAAAAAAAAAAAAAAA==

> <PUBCHEM_IUPAC_INCHI>
InChI=1S/C25H30O12/c1-10-8-16-18(11(2)22(28)36-16)21(37-24(30)25(6,31)12(3)33-13(4)26)20(34-14(5)27)15(23(29)32-7)9-17-19(10)35-17/h8-9,12,16-21,31H,2H2,1,3-7H3/b10-8+,15-9+/t12-,16+,17+,18-,19-,20-,21-,25+/m0/s1

> <PUBCHEM_IUPAC_INCHIKEY>
MMVDOOAKJHDAMB-FINAXWQVSA-N

> <PUBCHEM_XLOGP3_AA>
0.2

> <PUBCHEM_EXACT_MASS>
522.173726

> <PUBCHEM_MOLECULAR_FORMULA>
C25H30O12

> <PUBCHEM_MOLECULAR_WEIGHT>
522.4985

> <PUBCHEM_OPENEYE_CAN_SMILES>
CC1=CC2C(C(C(C(=CC3C1O3)C(=O)OC)OC(=O)C)OC(=O)C(C)(C(C)OC(=O)C)O)C(=C)C(=O)O2

> <PUBCHEM_OPENEYE_ISO_SMILES>
C/C/1=C\[C@@H]2[C@@H]([C@@H]([C@H](/C(=C\[C@@H]3[C@H]1O3)/C(=O)OC)OC(=O)C)OC(=O)[C@@](C)([C@H](C)OC(=O)C)O)C(=C)C(=O)O2

> <PUBCHEM_CACTVS_TPSA>
164

> <PUBCHEM_MONOISOTOPIC_WEIGHT>
522.173726

> <PUBCHEM_TOTAL_CHARGE>
0

> <PUBCHEM_HEAVY_ATOM_COUNT>
37

> <PUBCHEM_ATOM_DEF_STEREO_COUNT>
8

> <PUBCHEM_ATOM_UDEF_STEREO_COUNT>
0

> <PUBCHEM_BOND_DEF_STEREO_COUNT>
2

> <PUBCHEM_BOND_UDEF_STEREO_COUNT>
0

> <PUBCHEM_ISOTOPIC_ATOM_COUNT>
0

> <PUBCHEM_COMPONENT_COUNT>
1

> <PUBCHEM_CACTVS_TAUTO_COUNT>
1

> <PUBCHEM_COORDINATE_TYPE>
1
5
255

> <PUBCHEM_BONDANNOTATIONS>
14  1  6
15  1  6
30  10  6
13  38  6
17  42  5
16  3  5
18  4  5
29  7  6

$$$$

