7847035
  -OEChem-06241222483D

 38 40  0     0  0  0  0  0  0999 V2000
    5.8072    2.2226   -1.1288 Br  0  0  0  0  0  0  0  0  0  0  0  0
   -3.7775    0.4400   -1.2598 S   0  0  0  0  0  0  0  0  0  0  0  0
   -0.6485   -1.9836   -0.5479 O   0  0  0  0  0  0  0  0  0  0  0  0
   -1.1419   -3.7274    0.8794 O   0  0  0  0  0  0  0  0  0  0  0  0
    0.9561   -0.1105   -1.5682 O   0  0  0  0  0  0  0  0  0  0  0  0
   -2.6877   -0.1053    1.0133 N   0  0  0  0  0  0  0  0  0  0  0  0
   -3.8154   -2.0305   -0.0462 C   0  0  0  0  0  0  0  0  0  0  0  0
   -2.7797   -2.9378   -0.7361 C   0  0  0  0  0  0  0  0  0  0  0  0
   -3.3769   -0.6196    0.0217 C   0  0  0  0  0  0  0  0  0  0  0  0
   -2.9650    1.7215   -0.4410 C   0  0  0  0  0  0  0  0  0  0  0  0
   -2.4436    1.2371    0.7625 C   0  0  0  0  0  0  0  0  0  0  0  0
   -1.4471   -2.9594   -0.0224 C   0  0  0  0  0  0  0  0  0  0  0  0
   -2.8009    3.0592   -0.8350 C   0  0  0  0  0  0  0  0  0  0  0  0
   -1.7332    2.1249    1.5993 C   0  0  0  0  0  0  0  0  0  0  0  0
    0.6561   -1.8766    0.0308 C   0  0  0  0  0  0  0  0  0  0  0  0
   -2.0939    3.9169    0.0114 C   0  0  0  0  0  0  0  0  0  0  0  0
   -1.5662    3.4580    1.2132 C   0  0  0  0  0  0  0  0  0  0  0  0
    2.8105   -0.4553   -0.1587 C   0  0  0  0  0  0  0  0  0  0  0  0
    1.4329   -0.7612   -0.6412 C   0  0  0  0  0  0  0  0  0  0  0  0
    3.5164    0.5561   -0.7700 C   0  0  0  0  0  0  0  0  0  0  0  0
    3.3248   -1.1983    0.8799 C   0  0  0  0  0  0  0  0  0  0  0  0
    4.8054    0.8397   -0.3189 C   0  0  0  0  0  0  0  0  0  0  0  0
    4.6139   -0.9147    1.3310 C   0  0  0  0  0  0  0  0  0  0  0  0
    5.3542    0.1042    0.7316 C   0  0  0  0  0  0  0  0  0  0  0  0
   -3.9811   -2.3949    0.9758 H   0  0  0  0  0  0  0  0  0  0  0  0
   -4.7772   -2.1232   -0.5649 H   0  0  0  0  0  0  0  0  0  0  0  0
   -3.1530   -3.9682   -0.7682 H   0  0  0  0  0  0  0  0  0  0  0  0
   -2.6240   -2.6398   -1.7803 H   0  0  0  0  0  0  0  0  0  0  0  0
   -3.2101    3.4246   -1.7719 H   0  0  0  0  0  0  0  0  0  0  0  0
   -1.3160    1.7767    2.5400 H   0  0  0  0  0  0  0  0  0  0  0  0
    0.5406   -1.6417    1.0942 H   0  0  0  0  0  0  0  0  0  0  0  0
    1.1852   -2.8231   -0.1225 H   0  0  0  0  0  0  0  0  0  0  0  0
   -1.9553    4.9563   -0.2749 H   0  0  0  0  0  0  0  0  0  0  0  0
   -1.0188    4.1395    1.8585 H   0  0  0  0  0  0  0  0  0  0  0  0
    3.0927    1.1316   -1.5883 H   0  0  0  0  0  0  0  0  0  0  0  0
    2.7866   -1.9994    1.3731 H   0  0  0  0  0  0  0  0  0  0  0  0
    5.0419   -1.4873    2.1487 H   0  0  0  0  0  0  0  0  0  0  0  0
    6.3571    0.3126    1.0954 H   0  0  0  0  0  0  0  0  0  0  0  0
  1 22  1  0  0  0  0
  2  9  1  0  0  0  0
  2 10  1  0  0  0  0
  3 12  1  0  0  0  0
  3 15  1  0  0  0  0
  4 12  2  0  0  0  0
  5 19  2  0  0  0  0
  6  9  2  0  0  0  0
  6 11  1  0  0  0  0
  7  8  1  0  0  0  0
  7  9  1  0  0  0  0
  7 25  1  0  0  0  0
  7 26  1  0  0  0  0
  8 12  1  0  0  0  0
  8 27  1  0  0  0  0
  8 28  1  0  0  0  0
 10 11  1  0  0  0  0
 10 13  2  0  0  0  0
 11 14  2  0  0  0  0
 13 16  1  0  0  0  0
 13 29  1  0  0  0  0
 14 17  1  0  0  0  0
 14 30  1  0  0  0  0
 15 19  1  0  0  0  0
 15 31  1  0  0  0  0
 15 32  1  0  0  0  0
 16 17  2  0  0  0  0
 16 33  1  0  0  0  0
 17 34  1  0  0  0  0
 18 19  1  0  0  0  0
 18 20  2  0  0  0  0
 18 21  1  0  0  0  0
 20 22  1  0  0  0  0
 20 35  1  0  0  0  0
 21 23  2  0  0  0  0
 21 36  1  0  0  0  0
 22 24  2  0  0  0  0
 23 24  1  0  0  0  0
 23 37  1  0  0  0  0
 24 38  1  0  0  0  0
M  END
> <PUBCHEM_COMPOUND_CID>
7847035

> <PUBCHEM_CONFORMER_RMSD>
1.2

> <PUBCHEM_CONFORMER_DIVERSEORDER>
1
2
207
163
151
99
69
118
29
160
50
183
64
43
132
79
13
108
194
27
166
104
185
129
86
200
120
20
63
208
107
214
34
75
195
31
173
217
17
25
28
138
6
14
61
205
15
81
51
97
177
7
92
193
10
122
178
112
181
32
23
125
26
9
135
87
22
182
142
202
141
184
216
161
40
65
140
47
187
198
126
157
35
175
158
210
186
46
18
45
91
106
48
133
131
109
72
84
114
144
127
44
168
33
145
119
152
89
169
218
57
30
12
90
123
199
101
150
212
136
192
103
188
189
3
111
62
121
21
98
115
170
42
54
82
67
215
149
130
165
88
196
8
39
167
60
53
110
70
37
174
154
176
19
4
206
219
105
85
58
201
55
155
159
59
76
128
146
56
78
66
49
11
41
96
68
179
5
156
147
164
74
102
80
24
211
180
73
137
16
204
172
213
95
71
139
190
203
124
209
36
171
191
77
197
153
93
94
100
162
143
148
134
113
116
38
83
117
52

> <PUBCHEM_MMFF94_PARTIAL_CHARGES>
32
1 -0.11
10 0.04
11 0.23
12 0.66
13 -0.15
14 -0.15
15 0.34
16 -0.15
17 -0.15
18 0.09
19 0.42
2 -0.08
20 -0.15
21 -0.15
22 0.11
23 -0.15
24 -0.15
29 0.15
3 -0.43
30 0.15
33 0.15
34 0.15
35 0.15
36 0.15
37 0.15
38 0.15
4 -0.57
5 -0.57
6 -0.57
7 0.18
8 0.06
9 0.2

> <PUBCHEM_EFFECTIVE_ROTOR_COUNT>
7

> <PUBCHEM_PHARMACOPHORE_FEATURES>
7
1 1 hydrophobe
1 4 acceptor
1 5 acceptor
1 6 acceptor
5 2 6 9 10 11 rings
6 10 11 13 14 16 17 rings
6 18 20 21 22 23 24 rings

> <PUBCHEM_HEAVY_ATOM_COUNT>
24

> <PUBCHEM_ATOM_DEF_STEREO_COUNT>
0

> <PUBCHEM_ATOM_UDEF_STEREO_COUNT>
0

> <PUBCHEM_BOND_DEF_STEREO_COUNT>
0

> <PUBCHEM_BOND_UDEF_STEREO_COUNT>
0

> <PUBCHEM_ISOTOPIC_ATOM_COUNT>
0

> <PUBCHEM_COMPONENT_COUNT>
1

> <PUBCHEM_CACTVS_TAUTO_COUNT>
4

> <PUBCHEM_CONFORMER_ID>
0077BC7B00000001

> <PUBCHEM_MMFF94_ENERGY>
46.2535

> <PUBCHEM_FEATURE_SELFOVERLAP>
35.591

> <PUBCHEM_SHAPE_FINGERPRINT>
100830 39 18409167710877317224
10366900 7 17967257481085656468
10670039 82 18335690634178947164
10937287 8 17902507422015754601
11370993 70 18122913293636214025
11595378 159 18341326713249519014
12107183 9 17982745361448150546
12596602 18 17632018550741211978
12655364 131 17331443102983552458
12788726 201 18339924814175312442
13994607 96 18261398836154185693
14081887 123 18335145280020585538
14251757 5 18339360747725326162
14251764 38 18265052625109939030
14739800 52 18265065643889582544
15463212 79 18343026626528676673
17818456 19 18338807822447399178
20511986 3 17846230967910212060
20567600 299 16176792229536423365
21133410 230 15466887432014664824
21591340 35 16888631356174630640
22749437 52 18266459995445492804
22956985 138 16613071167800394170
3117164 225 18124608719724859658
341906 21 18335426759814431578
4366758 6 17620509081722495761
445580 37 18268982108623670020
469060 322 18266157492889475283
550186 7 18260538996945313038
9981440 41 18196658604032175627

> <PUBCHEM_SHAPE_MULTIPOLES>
481.11
10.99
4.64
1.34
16.63
1.15
0.1
3.07
-1.13
-5.11
0.48
0.23
0.46
-1.55

> <PUBCHEM_SHAPE_SELFOVERLAP>
1010.895

> <PUBCHEM_SHAPE_VOLUME>
276.3

> <PUBCHEM_COORDINATE_TYPE>
2
5
10

$$$$

