251112
  -OEChem-07051213063D

 51 53  0     0  0  0  0  0  0999 V2000
    0.3610   -0.4740    0.1078 O   0  0  0  0  0  0  0  0  0  0  0  0
   -3.4115    2.5103   -0.4447 O   0  0  0  0  0  0  0  0  0  0  0  0
   -1.3581   -2.5126    0.5888 O   0  0  0  0  0  0  0  0  0  0  0  0
   -5.0904    0.4168    0.0468 O   0  0  0  0  0  0  0  0  0  0  0  0
   -4.0810   -2.0931    0.5630 O   0  0  0  0  0  0  0  0  0  0  0  0
    2.1706   -2.0632   -0.8397 O   0  0  0  0  0  0  0  0  0  0  0  0
   -0.9368    3.3081   -0.6727 O   0  0  0  0  0  0  0  0  0  0  0  0
    5.8948    1.6602    0.7971 O   0  0  0  0  0  0  0  0  0  0  0  0
   -1.4955    1.0657   -0.1797 C   0  0  0  0  0  0  0  0  0  0  0  0
   -0.9839   -0.2043    0.0815 C   0  0  0  0  0  0  0  0  0  0  0  0
   -2.8753    1.2824   -0.1930 C   0  0  0  0  0  0  0  0  0  0  0  0
   -1.8515   -1.2676    0.3318 C   0  0  0  0  0  0  0  0  0  0  0  0
    1.2475    0.5621   -0.1436 C   0  0  0  0  0  0  0  0  0  0  0  0
   -3.7409    0.2171    0.0575 C   0  0  0  0  0  0  0  0  0  0  0  0
   -3.2304   -1.0553    0.3193 C   0  0  0  0  0  0  0  0  0  0  0  0
   -0.5579    2.1690   -0.4386 C   0  0  0  0  0  0  0  0  0  0  0  0
    2.6683    0.1638   -0.0840 C   0  0  0  0  0  0  0  0  0  0  0  0
    0.8783    1.8270   -0.4008 C   0  0  0  0  0  0  0  0  0  0  0  0
    3.0756   -1.1279   -0.4319 C   0  0  0  0  0  0  0  0  0  0  0  0
    3.6220    1.0990    0.3292 C   0  0  0  0  0  0  0  0  0  0  0  0
    4.9701    0.7461    0.3941 C   0  0  0  0  0  0  0  0  0  0  0  0
    4.4237   -1.4807   -0.3672 C   0  0  0  0  0  0  0  0  0  0  0  0
    5.3708   -0.5437    0.0459 C   0  0  0  0  0  0  0  0  0  0  0  0
   -3.6359    3.3608    0.6774 C   0  0  0  0  0  0  0  0  0  0  0  0
   -1.1537   -3.3711   -0.5309 C   0  0  0  0  0  0  0  0  0  0  0  0
   -5.7593    0.2436   -1.2000 C   0  0  0  0  0  0  0  0  0  0  0  0
   -4.4544   -2.3181    1.9203 C   0  0  0  0  0  0  0  0  0  0  0  0
    2.6791   -3.3525   -1.1737 C   0  0  0  0  0  0  0  0  0  0  0  0
    7.2549    1.2318    0.8400 C   0  0  0  0  0  0  0  0  0  0  0  0
    1.5707    2.6333   -0.6123 H   0  0  0  0  0  0  0  0  0  0  0  0
    3.3457    2.1061    0.6318 H   0  0  0  0  0  0  0  0  0  0  0  0
    4.8108   -2.4615   -0.6207 H   0  0  0  0  0  0  0  0  0  0  0  0
    6.4007   -0.8833    0.0738 H   0  0  0  0  0  0  0  0  0  0  0  0
   -4.5101    3.0157    1.2379 H   0  0  0  0  0  0  0  0  0  0  0  0
   -2.7640    3.3952    1.3387 H   0  0  0  0  0  0  0  0  0  0  0  0
   -3.8353    4.3704    0.3079 H   0  0  0  0  0  0  0  0  0  0  0  0
   -0.5911   -4.2459   -0.1941 H   0  0  0  0  0  0  0  0  0  0  0  0
   -0.5830   -2.8669   -1.3170 H   0  0  0  0  0  0  0  0  0  0  0  0
   -2.1169   -3.7059   -0.9282 H   0  0  0  0  0  0  0  0  0  0  0  0
   -5.6404   -0.7824   -1.5622 H   0  0  0  0  0  0  0  0  0  0  0  0
   -6.8244    0.4383   -1.0469 H   0  0  0  0  0  0  0  0  0  0  0  0
   -5.3784    0.9505   -1.9439 H   0  0  0  0  0  0  0  0  0  0  0  0
   -4.9748   -1.4452    2.3269 H   0  0  0  0  0  0  0  0  0  0  0  0
   -3.5743   -2.5474    2.5294 H   0  0  0  0  0  0  0  0  0  0  0  0
   -5.1331   -3.1747    1.9511 H   0  0  0  0  0  0  0  0  0  0  0  0
    3.3596   -3.3099   -2.0310 H   0  0  0  0  0  0  0  0  0  0  0  0
    1.8264   -3.9668   -1.4807 H   0  0  0  0  0  0  0  0  0  0  0  0
    3.1280   -3.8474   -0.3057 H   0  0  0  0  0  0  0  0  0  0  0  0
    7.4008    0.4274    1.5690 H   0  0  0  0  0  0  0  0  0  0  0  0
    7.8515    2.0841    1.1814 H   0  0  0  0  0  0  0  0  0  0  0  0
    7.6236    0.9621   -0.1555 H   0  0  0  0  0  0  0  0  0  0  0  0
  1 10  1  0  0  0  0
  1 13  1  0  0  0  0
  2 11  1  0  0  0  0
  2 24  1  0  0  0  0
  3 12  1  0  0  0  0
  3 25  1  0  0  0  0
  4 14  1  0  0  0  0
  4 26  1  0  0  0  0
  5 15  1  0  0  0  0
  5 27  1  0  0  0  0
  6 19  1  0  0  0  0
  6 28  1  0  0  0  0
  7 16  2  0  0  0  0
  8 21  1  0  0  0  0
  8 29  1  0  0  0  0
  9 10  2  0  0  0  0
  9 11  1  0  0  0  0
  9 16  1  0  0  0  0
 10 12  1  0  0  0  0
 11 14  2  0  0  0  0
 12 15  2  0  0  0  0
 13 17  1  0  0  0  0
 13 18  2  0  0  0  0
 14 15  1  0  0  0  0
 16 18  1  0  0  0  0
 17 19  2  0  0  0  0
 17 20  1  0  0  0  0
 18 30  1  0  0  0  0
 19 22  1  0  0  0  0
 20 21  2  0  0  0  0
 20 31  1  0  0  0  0
 21 23  1  0  0  0  0
 22 23  2  0  0  0  0
 22 32  1  0  0  0  0
 23 33  1  0  0  0  0
 24 34  1  0  0  0  0
 24 35  1  0  0  0  0
 24 36  1  0  0  0  0
 25 37  1  0  0  0  0
 25 38  1  0  0  0  0
 25 39  1  0  0  0  0
 26 40  1  0  0  0  0
 26 41  1  0  0  0  0
 26 42  1  0  0  0  0
 27 43  1  0  0  0  0
 27 44  1  0  0  0  0
 27 45  1  0  0  0  0
 28 46  1  0  0  0  0
 28 47  1  0  0  0  0
 28 48  1  0  0  0  0
 29 49  1  0  0  0  0
 29 50  1  0  0  0  0
 29 51  1  0  0  0  0
M  END
> <PUBCHEM_COMPOUND_CID>
251112

> <PUBCHEM_CONFORMER_RMSD>
0.8

> <PUBCHEM_CONFORMER_DIVERSEORDER>
9
10
4
5
3
6
12
17
13
1
2
7
11
8
15
14
16

> <PUBCHEM_MMFF94_PARTIAL_CHARGES>
33
1 -0.16
10 0.08
11 0.08
12 0.08
13 0.05
14 0.08
15 0.08
16 0.47
17 0.03
18 -0.14
19 0.08
2 -0.36
20 -0.15
21 0.08
22 -0.15
23 -0.15
24 0.28
25 0.28
26 0.28
27 0.28
28 0.28
29 0.28
3 -0.36
30 0.15
31 0.15
32 0.15
33 0.15
4 -0.36
5 -0.36
6 -0.36
7 -0.57
8 -0.36
9 0.09

> <PUBCHEM_EFFECTIVE_ROTOR_COUNT>
7

> <PUBCHEM_PHARMACOPHORE_FEATURES>
11
1 1 acceptor
1 2 acceptor
1 3 acceptor
1 4 acceptor
1 5 acceptor
1 6 acceptor
1 7 acceptor
1 8 acceptor
6 1 9 10 13 16 18 rings
6 17 19 20 21 22 23 rings
6 9 10 11 12 14 15 rings

> <PUBCHEM_HEAVY_ATOM_COUNT>
29

> <PUBCHEM_ATOM_DEF_STEREO_COUNT>
0

> <PUBCHEM_ATOM_UDEF_STEREO_COUNT>
0

> <PUBCHEM_BOND_DEF_STEREO_COUNT>
0

> <PUBCHEM_BOND_UDEF_STEREO_COUNT>
0

> <PUBCHEM_ISOTOPIC_ATOM_COUNT>
0

> <PUBCHEM_COMPONENT_COUNT>
1

> <PUBCHEM_CACTVS_TAUTO_COUNT>
1

> <PUBCHEM_CONFORMER_ID>
0003D4E800000009

> <PUBCHEM_MMFF94_ENERGY>
150.6052

> <PUBCHEM_FEATURE_SELFOVERLAP>
55.893

> <PUBCHEM_SHAPE_FINGERPRINT>
10 15 18339088086675758432
10319926 262 18339377361339199226
10411042 1 17980199691414033243
105312 117 17416984974743530047
10675989 125 17262173926089222693
10906281 52 18269821082470020100
11135609 187 18269005352870949525
12035758 1 18270665512153945379
12166972 35 6266898000152025954
12422481 6 18122309567954122035
12553582 1 18195232339465982655
12838862 33 18269858487493266261
13140716 1 17906445533131695875
13402501 40 18409449176614805098
13583140 156 17967256377247724776
140371 6 18341323444410661533
14790565 3 17256802824988728417
15196674 1 18337954609639347212
17980427 23 17846213316274997748
1813 80 17346596361767774468
19591789 44 18051408771321884621
20642791 13 18411416220017494839
20775438 99 16890932136423133239
21033648 29 18040727969087846472
21236236 1 18336829788065084669
21267235 1 18341885299083468947
22122407 14 16588016883958199209
22182313 1 18337374024476725943
23402539 116 18409455752067349735
23559900 14 18337961090655761449
283562 15 18338240478853346609
335352 9 18342740694188516725
3380486 145 18336535015436537771
3383291 50 18201435831910939947
34934 24 18412270514677465138
4073 2 18413103987588282928
5104073 3 18339359772931034010
5265222 85 18264201415017813412
6004065 56 18189910738037518805
9709674 26 18264765635268931870

> <PUBCHEM_SHAPE_MULTIPOLES>
549.85
13.35
3.79
1.01
12.14
0.67
-0.17
-2.49
-2.61
-2.05
0.27
-0.59
0.4
2.11

> <PUBCHEM_SHAPE_SELFOVERLAP>
1193.395

> <PUBCHEM_SHAPE_VOLUME>
301.6

> <PUBCHEM_COORDINATE_TYPE>
2
5
10

$$$$

