108119
  -OEChem-07051213083D

 39 40  0     0  0  0  0  0  0999 V2000
    0.0540    0.9142   -1.4823 O   0  5  0  0  0  0  0  0  0  0  0  0
   -3.3487   -3.1141    1.6620 O   0  5  0  0  0  0  0  0  0  0  0  0
   -4.3651    3.0101   -1.6322 O   0  5  0  0  0  0  0  0  0  0  0  0
   -5.3984   -2.3652    1.4228 O   0  0  0  0  0  0  0  0  0  0  0  0
   -6.1079    1.9092   -0.8776 O   0  0  0  0  0  0  0  0  0  0  0  0
    3.8150    2.9801    1.9318 O   0  5  0  0  0  0  0  0  0  0  0  0
    3.8928   -3.0068   -1.7480 O   0  5  0  0  0  0  0  0  0  0  0  0
    5.7342    2.2153    1.1897 O   0  0  0  0  0  0  0  0  0  0  0  0
    5.7886   -1.9633   -1.3795 O   0  0  0  0  0  0  0  0  0  0  0  0
   -0.3691    0.2712   -0.4605 N   0  3  0  0  0  0  0  0  0  0  0  0
    0.3696   -0.2700    0.4352 N   0  0  0  0  0  0  0  0  0  0  0  0
   -4.1615   -2.2513    1.2545 N   0  3  0  0  0  0  0  0  0  0  0  0
   -4.8712    2.0247   -1.0457 N   0  3  0  0  0  0  0  0  0  0  0  0
    4.4899    2.1250    1.3116 N   0  3  0  0  0  0  0  0  0  0  0  0
    4.5444   -2.0550   -1.2572 N   0  3  0  0  0  0  0  0  0  0  0  0
   -4.5260   -0.1143    0.1056 C   0  0  0  0  0  0  0  0  0  0  0  0
   -1.8058    0.1382   -0.2644 C   0  0  0  0  0  0  0  0  0  0  0  0
   -3.6630   -1.1031    0.5783 C   0  0  0  0  0  0  0  0  0  0  0  0
   -4.0126    1.0022   -0.5544 C   0  0  0  0  0  0  0  0  0  0  0  0
    4.5269    0.0356    0.0267 C   0  0  0  0  0  0  0  0  0  0  0  0
   -2.2866   -0.9753    0.3910 C   0  0  0  0  0  0  0  0  0  0  0  0
   -2.6361    1.1300   -0.7414 C   0  0  0  0  0  0  0  0  0  0  0  0
    3.8210    1.0141    0.7266 C   0  0  0  0  0  0  0  0  0  0  0  0
    3.8482   -1.0446   -0.5377 C   0  0  0  0  0  0  0  0  0  0  0  0
    1.7577   -0.1674    0.2980 C   0  0  0  0  0  0  0  0  0  0  0  0
    2.4364    0.9125    0.8623 C   0  0  0  0  0  0  0  0  0  0  0  0
    2.4636   -1.1460   -0.4019 C   0  0  0  0  0  0  0  0  0  0  0  0
   -6.0047   -0.2513    0.3073 C   0  0  0  0  0  0  0  0  0  0  0  0
    6.0144    0.1454   -0.1203 C   0  0  0  0  0  0  0  0  0  0  0  0
   -1.6032   -1.7442    0.7402 H   0  0  0  0  0  0  0  0  0  0  0  0
   -2.2137    1.9955   -1.2442 H   0  0  0  0  0  0  0  0  0  0  0  0
    1.8582    1.6589    1.4026 H   0  0  0  0  0  0  0  0  0  0  0  0
    1.9060   -1.9763   -0.8298 H   0  0  0  0  0  0  0  0  0  0  0  0
   -6.7407    0.2078   -0.3409 H   0  0  0  0  0  0  0  0  0  0  0  0
   -6.3175   -1.2576    0.0078 H   0  0  0  0  0  0  0  0  0  0  0  0
   -6.2851   -0.0307    1.3425 H   0  0  0  0  0  0  0  0  0  0  0  0
    6.5324   -0.5455    0.5527 H   0  0  0  0  0  0  0  0  0  0  0  0
    6.2898   -0.0251   -1.1666 H   0  0  0  0  0  0  0  0  0  0  0  0
    6.5426    1.0909   -0.1025 H   0  0  0  0  0  0  0  0  0  0  0  0
  1 10  1  0  0  0  0
  2 12  1  0  0  0  0
  3 13  1  0  0  0  0
  4 12  2  0  0  0  0
  5 13  2  0  0  0  0
  6 14  1  0  0  0  0
  7 15  1  0  0  0  0
  8 14  2  0  0  0  0
  9 15  2  0  0  0  0
 10 11  2  0  0  0  0
 10 17  1  0  0  0  0
 11 25  1  0  0  0  0
 12 18  1  0  0  0  0
 13 19  1  0  0  0  0
 14 23  1  0  0  0  0
 15 24  1  0  0  0  0
 16 18  2  0  0  0  0
 16 19  1  0  0  0  0
 16 28  1  0  0  0  0
 17 21  2  0  0  0  0
 17 22  1  0  0  0  0
 18 21  1  0  0  0  0
 19 22  2  0  0  0  0
 20 23  2  0  0  0  0
 20 24  1  0  0  0  0
 20 29  1  0  0  0  0
 21 30  1  0  0  0  0
 22 31  1  0  0  0  0
 23 26  1  0  0  0  0
 24 27  2  0  0  0  0
 25 26  2  0  0  0  0
 25 27  1  0  0  0  0
 26 32  1  0  0  0  0
 27 33  1  0  0  0  0
 28 34  1  0  0  0  0
 28 35  1  0  0  0  0
 28 36  1  0  0  0  0
 29 37  1  0  0  0  0
 29 38  1  0  0  0  0
 29 39  1  0  0  0  0
M  CHG  8   1  -1   2  -1   3  -1   6  -1   7  -1  10   1  12   1  13   1
M  CHG  2  14   1  15   1
M  END
> <PUBCHEM_COMPOUND_CID>
108119

> <PUBCHEM_CONFORMER_RMSD>
0.8

> <PUBCHEM_CONFORMER_DIVERSEORDER>
1
2
3

> <PUBCHEM_MMFF94_PARTIAL_CHARGES>
33
1 -0.63
10 0.87
11 -0.39
12 0.91
13 0.91
14 0.91
15 0.91
16 -0.14
17 -0.03
18 0.13
19 0.13
2 -0.52
20 -0.14
21 -0.15
22 -0.15
23 0.13
24 0.13
25 0.18
26 -0.15
27 -0.15
28 0.14
29 0.14
3 -0.52
30 0.15
31 0.15
32 0.15
33 0.15
4 -0.52
5 -0.52
6 -0.52
7 -0.52
8 -0.52
9 -0.52

> <PUBCHEM_EFFECTIVE_ROTOR_COUNT>
6

> <PUBCHEM_PHARMACOPHORE_FEATURES>
15
1 1 anion
1 2 acceptor
1 2 anion
1 3 acceptor
1 3 anion
1 4 acceptor
1 5 acceptor
1 6 acceptor
1 6 anion
1 7 acceptor
1 7 anion
1 8 acceptor
1 9 acceptor
6 16 17 18 19 21 22 rings
6 20 23 24 25 26 27 rings

> <PUBCHEM_HEAVY_ATOM_COUNT>
29

> <PUBCHEM_ATOM_DEF_STEREO_COUNT>
0

> <PUBCHEM_ATOM_UDEF_STEREO_COUNT>
0

> <PUBCHEM_BOND_DEF_STEREO_COUNT>
0

> <PUBCHEM_BOND_UDEF_STEREO_COUNT>
0

> <PUBCHEM_ISOTOPIC_ATOM_COUNT>
0

> <PUBCHEM_COMPONENT_COUNT>
1

> <PUBCHEM_CACTVS_TAUTO_COUNT>
1

> <PUBCHEM_CONFORMER_ID>
0001A65700000001

> <PUBCHEM_MMFF94_ENERGY>
160.8732

> <PUBCHEM_FEATURE_SELFOVERLAP>
76.444

> <PUBCHEM_SHAPE_FINGERPRINT>
10319926 262 18200893823985464544
10369192 42 18122347883384600324
10411042 1 17842548545573417707
10673678 19 18268137666572074316
10835480 77 18335424577328019016
11045977 3 18410292535970924734
11370993 144 18260257564823030531
11497681 19 17678747735114384223
11545043 162 18413102870490681867
12236239 1 15626506098950845374
12403259 415 18410291410663119219
12507560 40 18408887317350942445
12616971 3 16370722638643725217
12730499 353 18261106336740061626
13583140 156 18259988154034836447
13782708 43 18409727361272748134
13955234 65 17967816025289102698
14341114 176 18334570222480672873
15081414 286 18333449820570442704
15131766 46 16952260798749292961
15348495 7 18410293588216832888
17349148 13 15482681160369614008
17844677 252 18202558462635090665
17913733 40 17823138922093606562
20567600 75 18335421279124958167
20645477 70 17894911866878787630
21033648 29 18261689090165589385
21033650 10 17560509720226875344
21065201 7 18202565089795878915
21623969 137 18187641388972072742
21792961 116 18261666091491289182
22061861 79 18113901605966387454
22122407 14 17240472581908088809
22393880 68 18343300400619099362
2303208 19 18410282618881161407
23557571 272 18272649039018806324
23559900 14 18342173405516169188
239999 70 18341892957764564522
3178227 256 18114458977975856338
34797466 226 18408322172553253205
3882209 13 17187857415635198491
397830 11 18337953376740906529
4015057 19 17967827045758472169
4073 2 18342174466541922170
5104073 3 18411984680050019320
5364581 5 18055077562351568857
6697151 62 17971489630807534278
6823239 73 18343015597506444572
90127 26 18409452492086789057
9995097 60 18408041797051156144

> <PUBCHEM_SHAPE_MULTIPOLES>
514.1
16.69
3.06
1.48
0.36
0.23
0.04
-1.08
-0.04
0.23
0.24
-0.37
0.01
6.06

> <PUBCHEM_SHAPE_SELFOVERLAP>
1122.537

> <PUBCHEM_SHAPE_VOLUME>
279.7

> <PUBCHEM_COORDINATE_TYPE>
2
5
10

$$$$

