5280530
  -OEChem-07051212472D

 96 97  0     1  0  0  0  0  0999 V2000
    4.2690    4.7035    0.0000 P   0  0  0  0  0  0  0  0  0  0  0  0
   12.0106    0.8051    0.0000 O   0  0  0  0  0  0  0  0  0  0  0  0
    7.7331   -1.2965    0.0000 O   0  0  0  0  0  0  0  0  0  0  0  0
   11.1972   -0.2965    0.0000 O   0  0  0  0  0  0  0  0  0  0  0  0
    4.2690    1.7035    0.0000 O   0  0  0  0  0  0  0  0  0  0  0  0
    5.1350   -1.7965    0.0000 O   0  0  0  0  0  0  0  0  0  0  0  0
    5.1350    4.2035    0.0000 O   0  0  0  0  0  0  0  0  0  0  0  0
    6.8671    4.2035    0.0000 O   0  0  0  0  0  0  0  0  0  0  0  0
   10.3312    3.2035    0.0000 O   0  0  0  0  0  0  0  0  0  0  0  0
    9.4651    4.7035    0.0000 O   0  0  0  0  0  0  0  0  0  0  0  0
    3.4030    5.2035    0.0000 O   0  0  0  0  0  0  0  0  0  0  0  0
    4.7690    5.5695    0.0000 O   0  0  0  0  0  0  0  0  0  0  0  0
    3.7690    3.8375    0.0000 O   0  0  0  0  0  0  0  0  0  0  0  0
   12.8660    3.7566    0.0000 O   0  0  0  0  0  0  0  0  0  0  0  0
    9.1915    1.8311    0.0000 N   0  0  0  0  0  0  0  0  0  0  0  0
    9.4651   -0.2965    0.0000 N   0  0  0  0  0  0  0  0  0  0  0  0
    6.8671    0.2035    0.0000 N   0  0  0  0  0  0  0  0  0  0  0  0
   10.8972    2.1319    0.0000 N   0  0  0  0  0  0  0  0  0  0  0  0
    4.2690   -0.2965    0.0000 N   0  0  0  0  0  0  0  0  0  0  0  0
    6.0010    1.7035    0.0000 N   0  0  0  0  0  0  0  0  0  0  0  0
    9.7839    3.4587    0.0000 N   0  0  0  0  0  0  0  0  0  0  0  0
    2.5369   -3.2965    0.0000 N   0  0  0  0  0  0  0  0  0  0  0  0
    9.4651    1.7035    0.0000 N   0  0  0  0  0  0  0  0  0  0  0  0
    7.7331    2.7035    0.0000 N   0  0  0  0  0  0  0  0  0  0  0  0
    5.1350   -5.7965    0.0000 N   0  0  0  0  0  0  0  0  0  0  0  0
   11.5392    2.6432    0.0000 N   0  0  0  0  0  0  0  0  0  0  0  0
   13.1668    2.0508    0.0000 N   0  0  0  0  0  0  0  0  0  0  0  0
    9.3652    0.8463    0.0000 C   0  0  1  0  0  0  0  0  0  0  0  0
    8.5991    0.2035    0.0000 C   0  0  1  0  0  0  0  0  0  0  0  0
   10.3049    0.5043    0.0000 C   0  0  0  0  0  0  0  0  0  0  0  0
   11.0709    1.1471    0.0000 C   0  0  2  0  0  0  0  0  0  0  0  0
    7.7331   -0.2965    0.0000 C   0  0  0  0  0  0  0  0  0  0  0  0
    9.9576    2.4739    0.0000 C   0  0  0  0  0  0  0  0  0  0  0  0
    5.1350    0.2035    0.0000 C   0  0  1  0  0  0  0  0  0  0  0  0
    6.0010   -0.2965    0.0000 C   0  0  0  0  0  0  0  0  0  0  0  0
    3.4030   -2.7965    0.0000 C   0  0  2  0  0  0  0  0  0  0  0  0
   10.3312    0.2035    0.0000 C   0  0  0  0  0  0  0  0  0  0  0  0
    3.4030   -1.7965    0.0000 C   0  0  0  0  0  0  0  0  0  0  0  0
    5.1350    1.2035    0.0000 C   0  0  0  0  0  0  0  0  0  0  0  0
    4.2690   -3.2965    0.0000 C   0  0  0  0  0  0  0  0  0  0  0  0
    4.2690   -1.2965    0.0000 C   0  0  0  0  0  0  0  0  0  0  0  0
    6.0010    2.7035    0.0000 C   0  0  1  0  0  0  0  0  0  0  0  0
    4.2690   -4.2965    0.0000 C   0  0  0  0  0  0  0  0  0  0  0  0
   10.3312    1.2035    0.0000 C   0  0  0  0  0  0  0  0  0  0  0  0
    8.5991    3.2035    0.0000 C   0  0  2  0  0  0  0  0  0  0  0  0
    5.1350    3.2035    0.0000 C   0  0  0  0  0  0  0  0  0  0  0  0
    6.8671    3.2035    0.0000 C   0  0  0  0  0  0  0  0  0  0  0  0
    5.1350   -4.7965    0.0000 C   0  0  0  0  0  0  0  0  0  0  0  0
    9.4651    2.7035    0.0000 C   0  0  0  0  0  0  0  0  0  0  0  0
   11.1972    1.7035    0.0000 C   0  0  0  0  0  0  0  0  0  0  0  0
    8.5991    4.2035    0.0000 C   0  0  0  0  0  0  0  0  0  0  0  0
   12.5240    2.8169    0.0000 C   0  0  0  0  0  0  0  0  0  0  0  0
    8.5664    1.1370    0.0000 H   0  0  0  0  0  0  0  0  0  0  0  0
    8.1116    0.8998    0.0000 H   0  0  0  0  0  0  0  0  0  0  0  0
    9.9948   -0.0326    0.0000 H   0  0  0  0  0  0  0  0  0  0  0  0
   10.7798    0.1058    0.0000 H   0  0  0  0  0  0  0  0  0  0  0  0
   11.1786    0.5365    0.0000 H   0  0  0  0  0  0  0  0  0  0  0  0
    8.6089    2.0432    0.0000 H   0  0  0  0  0  0  0  0  0  0  0  0
    9.4651   -0.9165    0.0000 H   0  0  0  0  0  0  0  0  0  0  0  0
    5.1350   -0.4165    0.0000 H   0  0  0  0  0  0  0  0  0  0  0  0
    5.6025   -0.7714    0.0000 H   0  0  0  0  0  0  0  0  0  0  0  0
    6.3996   -0.7714    0.0000 H   0  0  0  0  0  0  0  0  0  0  0  0
    6.8671    0.8235    0.0000 H   0  0  0  0  0  0  0  0  0  0  0  0
    3.4030   -3.4165    0.0000 H   0  0  0  0  0  0  0  0  0  0  0  0
    3.7320    0.0135    0.0000 H   0  0  0  0  0  0  0  0  0  0  0  0
    3.1909   -1.2139    0.0000 H   0  0  0  0  0  0  0  0  0  0  0  0
    2.7924   -1.9041    0.0000 H   0  0  0  0  0  0  0  0  0  0  0  0
    4.8796   -3.4041    0.0000 H   0  0  0  0  0  0  0  0  0  0  0  0
    4.4810   -2.7139    0.0000 H   0  0  0  0  0  0  0  0  0  0  0  0
   12.1182    0.1945    0.0000 H   0  0  0  0  0  0  0  0  0  0  0  0
    5.4641    2.3935    0.0000 H   0  0  0  0  0  0  0  0  0  0  0  0
    6.5380    1.3935    0.0000 H   0  0  0  0  0  0  0  0  0  0  0  0
   10.2589    3.8572    0.0000 H   0  0  0  0  0  0  0  0  0  0  0  0
    9.2013    3.6708    0.0000 H   0  0  0  0  0  0  0  0  0  0  0  0
    3.6584   -4.1888    0.0000 H   0  0  0  0  0  0  0  0  0  0  0  0
    4.0569   -4.8791    0.0000 H   0  0  0  0  0  0  0  0  0  0  0  0
    8.0622    3.5135    0.0000 H   0  0  0  0  0  0  0  0  0  0  0  0
    4.5244    3.3112    0.0000 H   0  0  0  0  0  0  0  0  0  0  0  0
    4.9230    2.6209    0.0000 H   0  0  0  0  0  0  0  0  0  0  0  0
    2.5369   -3.9165    0.0000 H   0  0  0  0  0  0  0  0  0  0  0  0
    2.0000   -2.9865    0.0000 H   0  0  0  0  0  0  0  0  0  0  0  0
    5.7456   -4.9041    0.0000 H   0  0  0  0  0  0  0  0  0  0  0  0
    5.3471   -4.2139    0.0000 H   0  0  0  0  0  0  0  0  0  0  0  0
    7.7331    2.0835    0.0000 H   0  0  0  0  0  0  0  0  0  0  0  0
    8.9902    1.3050    0.0000 H   0  0  0  0  0  0  0  0  0  0  0  0
   11.7341    1.3935    0.0000 H   0  0  0  0  0  0  0  0  0  0  0  0
    8.3871    4.7861    0.0000 H   0  0  0  0  0  0  0  0  0  0  0  0
    7.9885    4.0959    0.0000 H   0  0  0  0  0  0  0  0  0  0  0  0
    5.6720   -6.1065    0.0000 H   0  0  0  0  0  0  0  0  0  0  0  0
    4.5981   -6.1065    0.0000 H   0  0  0  0  0  0  0  0  0  0  0  0
   11.1407    3.1182    0.0000 H   0  0  0  0  0  0  0  0  0  0  0  0
    9.4651    5.3235    0.0000 H   0  0  0  0  0  0  0  0  0  0  0  0
    3.4030    5.8235    0.0000 H   0  0  0  0  0  0  0  0  0  0  0  0
    4.4590    6.1065    0.0000 H   0  0  0  0  0  0  0  0  0  0  0  0
   13.7774    2.1585    0.0000 H   0  0  0  0  0  0  0  0  0  0  0  0
   12.9548    1.4682    0.0000 H   0  0  0  0  0  0  0  0  0  0  0  0
  1  7  1  0  0  0  0
  1 11  1  0  0  0  0
  1 12  1  0  0  0  0
  1 13  2  0  0  0  0
 31  2  1  1  0  0  0
  2 70  1  0  0  0  0
  3 32  2  0  0  0  0
  4 37  2  0  0  0  0
  5 39  2  0  0  0  0
  6 41  2  0  0  0  0
  7 46  1  0  0  0  0
  8 47  2  0  0  0  0
  9 49  2  0  0  0  0
 10 51  1  0  0  0  0
 10 92  1  0  0  0  0
 11 93  1  0  0  0  0
 12 94  1  0  0  0  0
 14 52  2  0  0  0  0
 15 28  1  0  0  0  0
 15 33  1  0  0  0  0
 15 58  1  0  0  0  0
 16 29  1  0  0  0  0
 16 37  1  0  0  0  0
 16 59  1  0  0  0  0
 17 32  1  0  0  0  0
 17 35  1  0  0  0  0
 17 63  1  0  0  0  0
 18 31  1  0  0  0  0
 18 33  2  0  0  0  0
 34 19  1  6  0  0  0
 19 41  1  0  0  0  0
 19 65  1  0  0  0  0
 20 39  1  0  0  0  0
 20 42  1  0  0  0  0
 20 72  1  0  0  0  0
 21 33  1  0  0  0  0
 21 73  1  0  0  0  0
 21 74  1  0  0  0  0
 36 22  1  6  0  0  0
 22 80  1  0  0  0  0
 22 81  1  0  0  0  0
 23 44  1  0  0  0  0
 23 49  1  0  0  0  0
 23 85  1  0  0  0  0
 24 45  1  0  0  0  0
 24 47  1  0  0  0  0
 24 84  1  0  0  0  0
 25 48  1  0  0  0  0
 25 89  1  0  0  0  0
 25 90  1  0  0  0  0
 26 50  1  0  0  0  0
 26 52  1  0  0  0  0
 26 91  1  0  0  0  0
 27 52  1  0  0  0  0
 27 95  1  0  0  0  0
 27 96  1  0  0  0  0
 28 29  1  0  0  0  0
 28 30  1  0  0  0  0
 28 53  1  1  0  0  0
 29 32  1  0  0  0  0
 29 54  1  1  0  0  0
 30 31  1  0  0  0  0
 30 55  1  0  0  0  0
 30 56  1  0  0  0  0
 31 57  1  0  0  0  0
 34 35  1  0  0  0  0
 34 39  1  0  0  0  0
 34 60  1  0  0  0  0
 35 61  1  0  0  0  0
 35 62  1  0  0  0  0
 36 38  1  0  0  0  0
 36 40  1  0  0  0  0
 36 64  1  0  0  0  0
 37 44  1  0  0  0  0
 38 41  1  0  0  0  0
 38 66  1  0  0  0  0
 38 67  1  0  0  0  0
 40 43  1  0  0  0  0
 40 68  1  0  0  0  0
 40 69  1  0  0  0  0
 42 46  1  1  0  0  0
 42 47  1  0  0  0  0
 42 71  1  0  0  0  0
 43 48  1  0  0  0  0
 43 75  1  0  0  0  0
 43 76  1  0  0  0  0
 44 50  2  0  0  0  0
 45 49  1  0  0  0  0
 45 51  1  1  0  0  0
 45 77  1  0  0  0  0
 46 78  1  0  0  0  0
 46 79  1  0  0  0  0
 48 82  1  0  0  0  0
 48 83  1  0  0  0  0
 50 86  1  0  0  0  0
 51 87  1  0  0  0  0
 51 88  1  0  0  0  0
M  END
> <PUBCHEM_COMPOUND_CID>
5280530

> <PUBCHEM_COMPOUND_CANONICALIZED>
1

> <PUBCHEM_CACTVS_COMPLEXITY>
1460

> <PUBCHEM_CACTVS_HBOND_ACCEPTOR>
16

> <PUBCHEM_CACTVS_HBOND_DONOR>
16

> <PUBCHEM_CACTVS_ROTATABLE_BOND>
12

> <PUBCHEM_CACTVS_SUBSKEYS>
AAADcfB7/AIAAAAAAAAAAAAAAAAAAAAAAAAgAAAAAAAAAAAAAAAAHgAQCCAACCjhgAYBAALAAxCoQAVWdICAAAEAAgABAIGIAECCUB4AyCAUQAAGNgKQAMG4HQIAAAAAAAAAAAAAAAAAAAAAAAAAAAAAAA==

> <PUBCHEM_IUPAC_OPENEYE_NAME>
[(2S,5S,8Z,11S,15S)-11-[(4S,6R)-2-amino-4-hydroxy-1,4,5,6-tetrahydropyrimidin-6-yl]-15-[[(3S)-3,6-diaminohexanoyl]amino]-5-(hydroxymethyl)-3,6,9,12,16-pentaoxo-8-(ureidomethylene)-1,4,7,10,13-pentazacyclohexadec-2-yl]methyl dihydrogen phosphate

> <PUBCHEM_IUPAC_CAS_NAME>
[(2S,5S,8Z,11S,15S)-11-[(4S,6R)-2-amino-4-hydroxy-1,4,5,6-tetrahydropyrimidin-6-yl]-8-[(carbamoylamino)methylidene]-15-[[(3S)-3,6-diamino-1-oxohexyl]amino]-5-(hydroxymethyl)-3,6,9,12,16-pentaoxo-1,4,7,10,13-pentazacyclohexadec-2-yl]methyl dihydrogen phosphate

> <PUBCHEM_IUPAC_NAME>
[(2S,5S,8Z,11S,15S)-11-[(4S,6R)-2-amino-4-hydroxy-1,4,5,6-tetrahydropyrimidin-6-yl]-8-[(carbamoylamino)methylidene]-15-[[(3S)-3,6-diaminohexanoyl]amino]-5-(hydroxymethyl)-3,6,9,12,16-pentaoxo-1,4,7,10,13-pentazacyclohexadec-2-yl]methyl dihydrogen phosphate

> <PUBCHEM_IUPAC_SYSTEMATIC_NAME>
[(2S,5S,8Z,11S,15S)-8-[(aminocarbonylamino)methylidene]-11-[(4S,6R)-2-azanyl-4-oxidanyl-1,4,5,6-tetrahydropyrimidin-6-yl]-15-[[(3S)-3,6-bis(azanyl)hexanoyl]amino]-5-(hydroxymethyl)-3,6,9,12,16-pentakis(oxidanylidene)-1,4,7,10,13-pentazacyclohexadec-2-yl]methyl dihydrogen phosphate

> <PUBCHEM_IUPAC_TRADITIONAL_NAME>
[(2S,5S,8Z,11S,15S)-11-[(4S,6R)-2-amino-4-hydroxy-1,4,5,6-tetrahydropyrimidin-6-yl]-15-[[(3S)-3,6-diaminohexanoyl]amino]-3,6,9,12,16-pentaketo-5-methylol-8-(ureidomethylene)-1,4,7,10,13-pentazacyclohexadec-2-yl]methyl dihydrogen phosphate

> <PUBCHEM_IUPAC_INCHI>
InChI=1S/C25H44N13O13P/c26-3-1-2-10(27)4-16(40)32-12-6-30-23(46)18(11-5-17(41)37-24(28)36-11)38-20(43)13(7-31-25(29)47)33-21(44)14(8-39)34-22(45)15(35-19(12)42)9-51-52(48,49)50/h7,10-12,14-15,17-18,39,41H,1-6,8-9,26-27H2,(H,30,46)(H,32,40)(H,33,44)(H,34,45)(H,35,42)(H,38,43)(H3,28,36,37)(H3,29,31,47)(H2,48,49,50)/b13-7-/t10-,11+,12-,14-,15-,17-,18-/m0/s1

> <PUBCHEM_IUPAC_INCHIKEY>
KFNFRHMHJQINPB-GHXCTMGLSA-N

> <PUBCHEM_XLOGP3_AA>
-10.9

> <PUBCHEM_EXACT_MASS>
765.291915

> <PUBCHEM_MOLECULAR_FORMULA>
C25H44N13O13P

> <PUBCHEM_MOLECULAR_WEIGHT>
765.669922

> <PUBCHEM_OPENEYE_CAN_SMILES>
C1C(NC(=NC1O)N)C2C(=O)NCC(C(=O)NC(C(=O)NC(C(=O)NC(=CNC(=O)N)C(=O)N2)CO)COP(=O)(O)O)NC(=O)CC(CCCN)N

> <PUBCHEM_OPENEYE_ISO_SMILES>
C1[C@@H](NC(=N[C@H]1O)N)[C@H]2C(=O)NC[C@@H](C(=O)N[C@H](C(=O)N[C@H](C(=O)N/C(=C\NC(=O)N)/C(=O)N2)CO)COP(=O)(O)O)NC(=O)C[C@H](CCCN)N

> <PUBCHEM_CACTVS_TPSA>
439

> <PUBCHEM_MONOISOTOPIC_WEIGHT>
765.291915

> <PUBCHEM_TOTAL_CHARGE>
0

> <PUBCHEM_HEAVY_ATOM_COUNT>
52

> <PUBCHEM_ATOM_DEF_STEREO_COUNT>
7

> <PUBCHEM_ATOM_UDEF_STEREO_COUNT>
0

> <PUBCHEM_BOND_DEF_STEREO_COUNT>
1

> <PUBCHEM_BOND_UDEF_STEREO_COUNT>
0

> <PUBCHEM_ISOTOPIC_ATOM_COUNT>
0

> <PUBCHEM_COMPONENT_COUNT>
1

> <PUBCHEM_CACTVS_TAUTO_COUNT>
1001

> <PUBCHEM_COORDINATE_TYPE>
1
5
255

> <PUBCHEM_BONDANNOTATIONS>
34  19  6
31  2  5
36  22  6
28  53  5
29  54  5
42  46  5
45  51  5

$$$$

