23657850
  -OEChem-07051213083D

 27 26  0     0  0  0  0  0  0999 V2000
    0.4948    0.3033    0.0811 N   0  0  0  0  0  0  0  0  0  0  0  0
   -4.3318   -1.3405   -0.1309 N   0  0  0  0  0  0  0  0  0  0  0  0
    4.6223   -0.3592   -0.8958 N   0  0  0  0  0  0  0  0  0  0  0  0
   -2.9898    0.7430   -0.1226 C   0  0  0  0  0  0  0  0  0  0  0  0
   -1.6282    1.3991   -0.3502 C   0  0  0  0  0  0  0  0  0  0  0  0
    2.6358   -0.8085    0.4689 C   0  0  0  0  0  0  0  0  0  0  0  0
    1.3812   -0.2275    1.1127 C   0  0  0  0  0  0  0  0  0  0  0  0
   -3.0234   -0.7612   -0.4091 C   0  0  0  0  0  0  0  0  0  0  0  0
    3.4254    0.2402   -0.3162 C   0  0  0  0  0  0  0  0  0  0  0  0
   -0.5863    0.8112    0.5621 C   0  0  0  0  0  0  0  0  0  0  0  0
   -3.2963    0.9138    0.9180 H   0  0  0  0  0  0  0  0  0  0  0  0
   -3.7294    1.2500   -0.7549 H   0  0  0  0  0  0  0  0  0  0  0  0
   -1.3158    1.2874   -1.3939 H   0  0  0  0  0  0  0  0  0  0  0  0
   -1.6976    2.4688   -0.1258 H   0  0  0  0  0  0  0  0  0  0  0  0
    3.2692   -1.2395    1.2543 H   0  0  0  0  0  0  0  0  0  0  0  0
    2.3498   -1.6298   -0.2009 H   0  0  0  0  0  0  0  0  0  0  0  0
    0.8756   -1.0212    1.6765 H   0  0  0  0  0  0  0  0  0  0  0  0
    1.6673    0.5626    1.8184 H   0  0  0  0  0  0  0  0  0  0  0  0
   -2.7637   -0.9422   -1.4581 H   0  0  0  0  0  0  0  0  0  0  0  0
   -2.2824   -1.2818    0.2061 H   0  0  0  0  0  0  0  0  0  0  0  0
    2.8171    0.6642   -1.1220 H   0  0  0  0  0  0  0  0  0  0  0  0
    3.7215    1.0606    0.3462 H   0  0  0  0  0  0  0  0  0  0  0  0
   -0.7900    0.8535    1.6474 H   0  0  0  0  0  0  0  0  0  0  0  0
   -4.3291   -2.3251   -0.3939 H   0  0  0  0  0  0  0  0  0  0  0  0
   -5.0365   -0.8904   -0.7135 H   0  0  0  0  0  0  0  0  0  0  0  0
    5.1125    0.3378   -1.4547 H   0  0  0  0  0  0  0  0  0  0  0  0
    4.3565   -1.1048   -1.5379 H   0  0  0  0  0  0  0  0  0  0  0  0
  1  7  1  0  0  0  0
  1 10  2  0  0  0  0
  2  8  1  0  0  0  0
  2 24  1  0  0  0  0
  2 25  1  0  0  0  0
  3  9  1  0  0  0  0
  3 26  1  0  0  0  0
  3 27  1  0  0  0  0
  4  5  1  0  0  0  0
  4  8  1  0  0  0  0
  4 11  1  0  0  0  0
  4 12  1  0  0  0  0
  5 10  1  0  0  0  0
  5 13  1  0  0  0  0
  5 14  1  0  0  0  0
  6  7  1  0  0  0  0
  6  9  1  0  0  0  0
  6 15  1  0  0  0  0
  6 16  1  0  0  0  0
  7 17  1  0  0  0  0
  7 18  1  0  0  0  0
  8 19  1  0  0  0  0
  8 20  1  0  0  0  0
  9 21  1  0  0  0  0
  9 22  1  0  0  0  0
 10 23  1  0  0  0  0
M  END
> <PUBCHEM_COMPOUND_CID>
23657850

> <PUBCHEM_CONFORMER_RMSD>
0.6

> <PUBCHEM_CONFORMER_DIVERSEORDER>
1
198
9
186
182
18
292
173
205
22
256
5
146
39
161
286
66
84
97
229
88
284
79
74
301
15
31
282
263
73
254
4
152
280
314
28
16
315
91
115
138
40
187
184
44
244
199
134
295
307
180
285
11
170
218
237
281
276
54
316
60
174
87
100
175
75
261
71
325
163
303
43
245
200
72
202
318
96
228
222
171
214
13
251
309
178
76
19
206
77
156
235
10
308
275
6
241
29
319
30
149
168
238
48
129
25
203
65
208
264
20
311
197
83
265
38
220
55
225
26
252
176
294
201
324
7
136
253
313
117
42
317
216
300
36
271
257
17
142
179
226
249
204
195
46
212
213
242
50
290
59
266
321
12
23
299
53
172
221
259
67
32
217
41
52
130
92
192
312
169
93
177
189
268
298
101
33
304
94
162
288
107
185
37
98
323
64
296
196
164
297
231
267
89
110
82
320
207
215
70
232
86
95
236
255
112
90
291
133
131
3
114
248
27
310
258
279
127
63
49
140
45
230
137
193
85
21
158
302
14
289
102
51
58
224
69
181
143
80
56
118
135
147
104
273
145
260
209
148
109
188
223
269
57
287
159
111
262
283
119
105
278
120
154
125
126
124
246
81
293
106
183
234
233
194
35
227
113
8
155
277
322
190
108
160
123
103
166
305
240
165
68
157
167
211
99
47
210
122
61
153
272
144
34
191
151
121
150
274
306
270
78
116
128
243
24
132
247
219
2
239
139
250
62
141

> <PUBCHEM_MMFF94_PARTIAL_CHARGES>
13
1 -0.7
10 0.33
2 -0.99
23 0.06
24 0.36
25 0.36
26 0.36
27 0.36
3 -0.99
5 0.06
7 0.25
8 0.27
9 0.27

> <PUBCHEM_EFFECTIVE_ROTOR_COUNT>
6

> <PUBCHEM_PHARMACOPHORE_FEATURES>
5
1 1 acceptor
1 2 cation
1 2 donor
1 3 cation
1 3 donor

> <PUBCHEM_HEAVY_ATOM_COUNT>
10

> <PUBCHEM_ATOM_DEF_STEREO_COUNT>
0

> <PUBCHEM_ATOM_UDEF_STEREO_COUNT>
0

> <PUBCHEM_BOND_DEF_STEREO_COUNT>
0

> <PUBCHEM_BOND_UDEF_STEREO_COUNT>
0

> <PUBCHEM_ISOTOPIC_ATOM_COUNT>
0

> <PUBCHEM_COMPONENT_COUNT>
1

> <PUBCHEM_CACTVS_TAUTO_COUNT>
1

> <PUBCHEM_CONFORMER_ID>
0168FD7A00000001

> <PUBCHEM_MMFF94_ENERGY>
-1.1023

> <PUBCHEM_FEATURE_SELFOVERLAP>
25.371

> <PUBCHEM_SHAPE_FINGERPRINT>
124424 183 11095881566596298126
12932764 1 18272097148590588545
15501527 24 17917426480264769686
18342897 14 8718824289058865234
18342897 55 16415197905351331498
18511873 20 6411292442405397198
20281407 28 18334303067267578011
20339313 130 16732987509555706456
20724930 31 17676207957494892962
20765181 27 13614517484881321848
20871999 31 18059585697927763605
21061003 4 16950006924170497177
21293036 1 17060622187465114857
21499 59 16487249980709789850
23402539 116 18131356349416446116
23402655 69 17775007954536783916
42627469 27 7276833493570349333
528716 315 18272088305474036609
53428517 58 16415477134202583843
548570 60 12895356585823273478
6430166 295 8214150650590000011

> <PUBCHEM_SHAPE_MULTIPOLES>
190.85
8.39
1.24
0.89
2.19
0.01
0.09
-2.75
-2.48
-1.19
-0.05
0.52
-0.03
-0.19

> <PUBCHEM_SHAPE_SELFOVERLAP>
339.996

> <PUBCHEM_SHAPE_VOLUME>
120.5

> <PUBCHEM_COORDINATE_TYPE>
2
5
10

$$$$

