11864
  -OEChem-06261206133D

 17 16  0     1  0  0  0  0  0999 V2000
   -0.8891    2.1364    0.1430 O   0  0  0  0  0  0  0  0  0  0  0  0
   -1.7119   -0.9755    0.9661 O   0  5  0  0  0  0  0  0  0  0  0  0
   -1.2040   -0.8927   -1.1763 O   0  0  0  0  0  0  0  0  0  0  0  0
   -0.9735   -0.6702    0.0201 N   0  3  0  0  0  0  0  0  0  0  0  0
    0.2868    0.0431    0.3435 C   0  0  1  0  0  0  0  0  0  0  0  0
    1.4533   -0.8099   -0.1539 C   0  0  0  0  0  0  0  0  0  0  0  0
    0.2232    1.3978   -0.3514 C   0  0  0  0  0  0  0  0  0  0  0  0
    2.8153   -0.2291    0.2089 C   0  0  0  0  0  0  0  0  0  0  0  0
    0.3169    0.1616    1.4332 H   0  0  0  0  0  0  0  0  0  0  0  0
    1.3819   -1.8151    0.2821 H   0  0  0  0  0  0  0  0  0  0  0  0
    1.4120   -0.9433   -1.2427 H   0  0  0  0  0  0  0  0  0  0  0  0
    1.1199    1.9921   -0.1519 H   0  0  0  0  0  0  0  0  0  0  0  0
    0.1176    1.3140   -1.4385 H   0  0  0  0  0  0  0  0  0  0  0  0
    2.8903   -0.0475    1.2857 H   0  0  0  0  0  0  0  0  0  0  0  0
    3.0058    0.7107   -0.3172 H   0  0  0  0  0  0  0  0  0  0  0  0
    3.6077   -0.9304   -0.0720 H   0  0  0  0  0  0  0  0  0  0  0  0
   -0.7639    2.2488    1.1008 H   0  0  0  0  0  0  0  0  0  0  0  0
  1  7  1  0  0  0  0
  1 17  1  0  0  0  0
  2  4  1  0  0  0  0
  3  4  2  0  0  0  0
  4  5  1  0  0  0  0
  5  6  1  0  0  0  0
  5  7  1  0  0  0  0
  5  9  1  0  0  0  0
  6  8  1  0  0  0  0
  6 10  1  0  0  0  0
  6 11  1  0  0  0  0
  7 12  1  0  0  0  0
  7 13  1  0  0  0  0
  8 14  1  0  0  0  0
  8 15  1  0  0  0  0
  8 16  1  0  0  0  0
M  CHG  2   2  -1   4   1
M  END
> <PUBCHEM_COMPOUND_CID>
11864

> <PUBCHEM_CONFORMER_RMSD>
0.6

> <PUBCHEM_CONFORMER_DIVERSEORDER>
1
16
14
5
12
6
15
11
10
13
8
9
17
2
7
4
3

> <PUBCHEM_MMFF94_PARTIAL_CHARGES>
7
1 -0.68
17 0.4
2 -0.52
3 -0.52
4 0.8
5 0.24
7 0.28

> <PUBCHEM_EFFECTIVE_ROTOR_COUNT>
3

> <PUBCHEM_PHARMACOPHORE_FEATURES>
6
1 1 acceptor
1 1 donor
1 2 acceptor
1 2 anion
1 3 acceptor
1 8 hydrophobe

> <PUBCHEM_HEAVY_ATOM_COUNT>
8

> <PUBCHEM_ATOM_DEF_STEREO_COUNT>
0

> <PUBCHEM_ATOM_UDEF_STEREO_COUNT>
1

> <PUBCHEM_BOND_DEF_STEREO_COUNT>
0

> <PUBCHEM_BOND_UDEF_STEREO_COUNT>
0

> <PUBCHEM_ISOTOPIC_ATOM_COUNT>
0

> <PUBCHEM_COMPONENT_COUNT>
1

> <PUBCHEM_CACTVS_TAUTO_COUNT>
2

> <PUBCHEM_CONFORMER_ID>
00002E5800000001

> <PUBCHEM_MMFF94_ENERGY>
8.6379

> <PUBCHEM_FEATURE_SELFOVERLAP>
30.525

> <PUBCHEM_SHAPE_FINGERPRINT>
16714656 1 18336264660098526964
21040471 1 17835798973495049036
23552449 1 18336835289870432328
24536 1 18131071592895005486
29004967 10 18341889637206406794
5943 1 16123816329011647903

> <PUBCHEM_SHAPE_MULTIPOLES>
142.05
2.65
1.65
0.85
1.96
0.97
-0.08
-0.63
0.28
-0.8
-0.01
-0.29
-0.21
0.02

> <PUBCHEM_SHAPE_SELFOVERLAP>
259.533

> <PUBCHEM_SHAPE_VOLUME>
90.8

> <PUBCHEM_COORDINATE_TYPE>
2
5
10

$$$$

