65553
  -OEChem-07051212503D

 59 62  0     1  0  0  0  0  0999 V2000
   -0.0679    1.7963   -1.7962 O   0  0  0  0  0  0  0  0  0  0  0  0
    4.8149    0.8550    2.5039 O   0  0  0  0  0  0  0  0  0  0  0  0
   -5.2089   -0.3521   -0.3753 O   0  0  0  0  0  0  0  0  0  0  0  0
   -6.0295    1.9735    0.6911 O   0  0  0  0  0  0  0  0  0  0  0  0
    1.0440    0.2633   -0.1631 C   0  0  1  0  0  0  0  0  0  0  0  0
    0.3712   -1.1074   -0.4846 C   0  0  2  0  0  0  0  0  0  0  0  0
   -0.9678   -1.1767    0.2671 C   0  0  1  0  0  0  0  0  0  0  0  0
   -1.9622   -0.0677   -0.1300 C   0  0  2  0  0  0  0  0  0  0  0  0
    2.5104    0.4055   -0.7457 C   0  0  2  0  0  0  0  0  0  0  0  0
    3.3728   -0.8662   -0.4149 C   0  0  2  0  0  0  0  0  0  0  0  0
    0.0854    1.4730   -0.4212 C   0  0  2  0  0  0  0  0  0  0  0  0
   -1.3163    1.2902    0.2017 C   0  0  0  0  0  0  0  0  0  0  0  0
    1.2740   -2.2701   -0.0551 C   0  0  0  0  0  0  0  0  0  0  0  0
   -3.1398   -0.4540    0.7987 C   0  0  2  0  0  0  0  0  0  0  0  0
   -1.8114   -2.4454    0.1943 C   0  0  0  0  0  0  0  0  0  0  0  0
    2.6454   -2.1847   -0.6991 C   0  0  0  0  0  0  0  0  0  0  0  0
   -3.1842   -1.9964    0.7319 C   0  0  0  0  0  0  0  0  0  0  0  0
    3.1676    1.6750   -0.1047 C   0  0  0  0  0  0  0  0  0  0  0  0
    3.9250   -0.7963    1.0155 C   0  0  0  0  0  0  0  0  0  0  0  0
   -2.4127   -0.1307   -1.6124 C   0  0  0  0  0  0  0  0  0  0  0  0
    2.5347    0.5691   -2.2846 C   0  0  0  0  0  0  0  0  0  0  0  0
    4.6603    1.5086    0.1731 C   0  0  0  0  0  0  0  0  0  0  0  0
    4.9124    0.3685    1.1666 C   0  0  1  0  0  0  0  0  0  0  0  0
   -4.4476    0.1775    0.4327 C   0  0  0  0  0  0  0  0  0  0  0  0
   -4.7701    1.4923    1.1104 C   0  0  0  0  0  0  0  0  0  0  0  0
    1.1702    0.2573    0.9318 H   0  0  0  0  0  0  0  0  0  0  0  0
    0.1999   -1.1887   -1.5635 H   0  0  0  0  0  0  0  0  0  0  0  0
   -0.7228   -1.0471    1.3357 H   0  0  0  0  0  0  0  0  0  0  0  0
    4.2543   -0.8793   -1.0736 H   0  0  0  0  0  0  0  0  0  0  0  0
    0.5274    2.3627    0.0424 H   0  0  0  0  0  0  0  0  0  0  0  0
   -1.2154    1.3851    1.2909 H   0  0  0  0  0  0  0  0  0  0  0  0
   -1.9726    2.1039   -0.1270 H   0  0  0  0  0  0  0  0  0  0  0  0
    0.8148   -3.2239   -0.3410 H   0  0  0  0  0  0  0  0  0  0  0  0
    1.3789   -2.2889    1.0366 H   0  0  0  0  0  0  0  0  0  0  0  0
   -2.9140   -0.1785    1.8383 H   0  0  0  0  0  0  0  0  0  0  0  0
   -1.8980   -2.8136   -0.8337 H   0  0  0  0  0  0  0  0  0  0  0  0
   -1.3962   -3.2548    0.8033 H   0  0  0  0  0  0  0  0  0  0  0  0
    2.5348   -2.3091   -1.7837 H   0  0  0  0  0  0  0  0  0  0  0  0
    3.2579   -3.0297   -0.3615 H   0  0  0  0  0  0  0  0  0  0  0  0
    2.6863    1.9129    0.8529 H   0  0  0  0  0  0  0  0  0  0  0  0
    3.0116    2.5537   -0.7423 H   0  0  0  0  0  0  0  0  0  0  0  0
   -3.3490   -2.4037    1.7366 H   0  0  0  0  0  0  0  0  0  0  0  0
   -3.9814   -2.3956    0.0966 H   0  0  0  0  0  0  0  0  0  0  0  0
    3.1111   -0.7092    1.7453 H   0  0  0  0  0  0  0  0  0  0  0  0
    4.4469   -1.7274    1.2705 H   0  0  0  0  0  0  0  0  0  0  0  0
   -3.0413    0.7312   -1.8641 H   0  0  0  0  0  0  0  0  0  0  0  0
   -1.5672   -0.1182   -2.3044 H   0  0  0  0  0  0  0  0  0  0  0  0
   -2.9887   -1.0319   -1.8453 H   0  0  0  0  0  0  0  0  0  0  0  0
    2.1432    1.5384   -2.6046 H   0  0  0  0  0  0  0  0  0  0  0  0
    3.5591    0.5190   -2.6721 H   0  0  0  0  0  0  0  0  0  0  0  0
    1.9543   -0.2101   -2.7873 H   0  0  0  0  0  0  0  0  0  0  0  0
    5.1796    1.3021   -0.7705 H   0  0  0  0  0  0  0  0  0  0  0  0
    5.0626    2.4511    0.5622 H   0  0  0  0  0  0  0  0  0  0  0  0
    5.9369    0.0020    1.0333 H   0  0  0  0  0  0  0  0  0  0  0  0
   -0.6133    2.5989   -1.8560 H   0  0  0  0  0  0  0  0  0  0  0  0
   -4.0189    2.2380    0.8466 H   0  0  0  0  0  0  0  0  0  0  0  0
   -4.7867    1.3552    2.1952 H   0  0  0  0  0  0  0  0  0  0  0  0
    5.4792    1.5570    2.6102 H   0  0  0  0  0  0  0  0  0  0  0  0
   -6.7023    1.3464    1.0069 H   0  0  0  0  0  0  0  0  0  0  0  0
  1 11  1  0  0  0  0
  1 55  1  0  0  0  0
  2 23  1  0  0  0  0
  2 58  1  0  0  0  0
  3 24  2  0  0  0  0
  4 25  1  0  0  0  0
  4 59  1  0  0  0  0
  5  6  1  0  0  0  0
  5  9  1  0  0  0  0
  5 11  1  0  0  0  0
  5 26  1  0  0  0  0
  6  7  1  0  0  0  0
  6 13  1  0  0  0  0
  6 27  1  0  0  0  0
  7  8  1  0  0  0  0
  7 15  1  0  0  0  0
  7 28  1  0  0  0  0
  8 12  1  0  0  0  0
  8 14  1  0  0  0  0
  8 20  1  0  0  0  0
  9 10  1  0  0  0  0
  9 18  1  0  0  0  0
  9 21  1  0  0  0  0
 10 16  1  0  0  0  0
 10 19  1  0  0  0  0
 10 29  1  0  0  0  0
 11 12  1  0  0  0  0
 11 30  1  0  0  0  0
 12 31  1  0  0  0  0
 12 32  1  0  0  0  0
 13 16  1  0  0  0  0
 13 33  1  0  0  0  0
 13 34  1  0  0  0  0
 14 17  1  0  0  0  0
 14 24  1  0  0  0  0
 14 35  1  0  0  0  0
 15 17  1  0  0  0  0
 15 36  1  0  0  0  0
 15 37  1  0  0  0  0
 16 38  1  0  0  0  0
 16 39  1  0  0  0  0
 17 42  1  0  0  0  0
 17 43  1  0  0  0  0
 18 22  1  0  0  0  0
 18 40  1  0  0  0  0
 18 41  1  0  0  0  0
 19 23  1  0  0  0  0
 19 44  1  0  0  0  0
 19 45  1  0  0  0  0
 20 46  1  0  0  0  0
 20 47  1  0  0  0  0
 20 48  1  0  0  0  0
 21 49  1  0  0  0  0
 21 50  1  0  0  0  0
 21 51  1  0  0  0  0
 22 23  1  0  0  0  0
 22 52  1  0  0  0  0
 22 53  1  0  0  0  0
 23 54  1  0  0  0  0
 24 25  1  0  0  0  0
 25 56  1  0  0  0  0
 25 57  1  0  0  0  0
M  END
> <PUBCHEM_COMPOUND_CID>
65553

> <PUBCHEM_CONFORMER_RMSD>
0.8

> <PUBCHEM_CONFORMER_DIVERSEORDER>
1
2
3

> <PUBCHEM_MMFF94_PARTIAL_CHARGES>
12
1 -0.68
11 0.28
14 0.06
2 -0.68
23 0.28
24 0.45
25 0.34
3 -0.57
4 -0.68
55 0.4
58 0.4
59 0.4

> <PUBCHEM_EFFECTIVE_ROTOR_COUNT>
4.2

> <PUBCHEM_PHARMACOPHORE_FEATURES>
11
1 1 acceptor
1 1 donor
1 2 acceptor
1 2 donor
1 3 acceptor
1 4 acceptor
1 4 donor
5 7 8 14 15 17 rings
6 5 6 7 8 11 12 rings
6 5 6 9 10 13 16 rings
6 9 10 18 19 22 23 rings

> <PUBCHEM_HEAVY_ATOM_COUNT>
25

> <PUBCHEM_ATOM_DEF_STEREO_COUNT>
9

> <PUBCHEM_ATOM_UDEF_STEREO_COUNT>
0

> <PUBCHEM_BOND_DEF_STEREO_COUNT>
0

> <PUBCHEM_BOND_UDEF_STEREO_COUNT>
0

> <PUBCHEM_ISOTOPIC_ATOM_COUNT>
0

> <PUBCHEM_COMPONENT_COUNT>
1

> <PUBCHEM_CACTVS_TAUTO_COUNT>
4

> <PUBCHEM_CONFORMER_ID>
0001001100000001

> <PUBCHEM_MMFF94_ENERGY>
91.9386

> <PUBCHEM_FEATURE_SELFOVERLAP>
55.931

> <PUBCHEM_SHAPE_FINGERPRINT>
10062212 137 18201157629176782691
10906281 52 18058995221307395868
11089746 13 17458627843183523776
11112241 14 17604728658964688257
11132069 177 18341891874647088422
11796584 16 14836405843365898281
11961588 58 5111994067690382130
12236239 1 17894915161482427479
12403814 3 17560803204280000247
12422481 6 18200881780422334248
12553582 1 18271230656144558269
12633257 1 17703790292887888763
12788726 201 17749377209128280928
13140716 1 18342735221693715394
13224815 77 18411135810150781038
13533116 47 18114739468197332495
13583140 156 17095808711422642227
13692114 37 17195746892685192309
14178342 30 18339359647902715219
14223421 5 18339927112367677782
14251764 30 14189283855855302833
14341114 328 18059581243893690506
14739800 52 17458638851195240890
14790565 3 17980748343205172036
15142383 8 15626234540874254077
15163728 17 15648156664392262849
15196674 1 18411131420472749187
15209294 21 18333448750990982969
15238133 3 18411691114793552421
15375358 24 18335415751333437687
15536298 74 18334849554221327342
15840311 113 18117267276533870257
1601671 61 18341601603714440956
16945 1 18409161108699804006
17349148 13 18272095984638211270
17980427 23 18200037222912608620
1813 80 16773792601911897830
19784866 240 14620522276260941752
20511986 3 18188224186032146229
20715895 44 18270121343887033885
21033648 29 18113901524425358082
21304253 335 18338225068267601901
21421861 104 17846224409848397674
21452121 103 18333732450713384082
21475661 188 17531258201391747864
21756936 100 17607820405102620344
21859007 373 17416137289791393189
22149856 69 18192123020427203187
22182313 1 17986679374895986797
22950370 63 10231754496433594843
23503953 91 18343579633611786185
23559900 14 18261377967266627926
2838139 119 16732984275355785465
296302 2 17022620857837821478
312423 11 6555150314774691092
335352 9 18339916125250679655
34797466 226 16587739846209984353
34934 24 18408039611129223247
350125 39 18338229479436300686
3680242 22 18272934972219050066
394222 165 17271707392371307308
4072396 5 18343872112273616586
4340502 62 18333729139314529097
46194498 28 11383827186828067042
474 4 18334012761822269482
495365 180 17749669687773883694
5104073 3 18201716211026762179
6004065 56 18190474774770828605
633830 44 18260825969369009260
653340 110 18194682807128135065
6786 2 5377095507876903726
7064713 232 18409733928524942730
9777508 108 17764871690085237773

> <PUBCHEM_SHAPE_MULTIPOLES>
491.01
10.88
2.35
1.52
5.07
0.68
-0.13
-4.16
4.67
0.48
0.05
-1.31
-0.46
-0.01

> <PUBCHEM_SHAPE_SELFOVERLAP>
1038.502

> <PUBCHEM_SHAPE_VOLUME>
271.9

> <PUBCHEM_COORDINATE_TYPE>
2
5
10

$$$$

