8199
  -OEChem-06261202383D

 35 34  0     0  0  0  0  0  0999 V2000
    0.0702   -0.2729   -0.0323 O   0  0  0  0  0  0  0  0  0  0  0  0
    3.6467    0.3664   -0.0051 O   0  0  0  0  0  0  0  0  0  0  0  0
    7.2013   -0.3820    0.0340 O   0  0  0  0  0  0  0  0  0  0  0  0
   -3.6137    0.4650   -0.0040 C   0  0  0  0  0  0  0  0  0  0  0  0
   -2.3238   -0.3535   -0.0312 C   0  0  0  0  0  0  0  0  0  0  0  0
   -4.8808   -0.3948   -0.0113 C   0  0  0  0  0  0  0  0  0  0  0  0
   -6.1717    0.4249   -0.0091 C   0  0  0  0  0  0  0  0  0  0  0  0
   -1.0928    0.5423    0.0103 C   0  0  0  0  0  0  0  0  0  0  0  0
   -7.3981   -0.4729    0.0569 C   0  0  0  0  0  0  0  0  0  0  0  0
    1.2570    0.5084    0.0036 C   0  0  0  0  0  0  0  0  0  0  0  0
    2.4589   -0.4161   -0.0204 C   0  0  0  0  0  0  0  0  0  0  0  0
    4.8087   -0.4511   -0.0041 C   0  0  0  0  0  0  0  0  0  0  0  0
    6.0382    0.4365    0.0125 C   0  0  0  0  0  0  0  0  0  0  0  0
   -3.6327    1.1374   -0.8708 H   0  0  0  0  0  0  0  0  0  0  0  0
   -3.6205    1.1012    0.8898 H   0  0  0  0  0  0  0  0  0  0  0  0
   -2.2917   -0.9790   -0.9318 H   0  0  0  0  0  0  0  0  0  0  0  0
   -2.2976   -1.0475    0.8180 H   0  0  0  0  0  0  0  0  0  0  0  0
   -4.8673   -1.0527    0.8668 H   0  0  0  0  0  0  0  0  0  0  0  0
   -4.8687   -1.0461   -0.8941 H   0  0  0  0  0  0  0  0  0  0  0  0
   -6.2204    1.0427   -0.9130 H   0  0  0  0  0  0  0  0  0  0  0  0
   -6.1779    1.1050    0.8505 H   0  0  0  0  0  0  0  0  0  0  0  0
   -1.0943    1.2230   -0.8491 H   0  0  0  0  0  0  0  0  0  0  0  0
   -1.0914    1.1361    0.9319 H   0  0  0  0  0  0  0  0  0  0  0  0
    1.2794    1.1240    0.9111 H   0  0  0  0  0  0  0  0  0  0  0  0
    1.2893    1.1855   -0.8585 H   0  0  0  0  0  0  0  0  0  0  0  0
   -8.3104    0.1317    0.0549 H   0  0  0  0  0  0  0  0  0  0  0  0
   -7.3934   -1.0777    0.9694 H   0  0  0  0  0  0  0  0  0  0  0  0
   -7.4361   -1.1485   -0.8037 H   0  0  0  0  0  0  0  0  0  0  0  0
    2.4328   -1.0832    0.8498 H   0  0  0  0  0  0  0  0  0  0  0  0
    2.4315   -1.0419   -0.9207 H   0  0  0  0  0  0  0  0  0  0  0  0
    4.8227   -1.0913   -0.8945 H   0  0  0  0  0  0  0  0  0  0  0  0
    4.8099   -1.1059    0.8758 H   0  0  0  0  0  0  0  0  0  0  0  0
    6.0652    1.0783   -0.8744 H   0  0  0  0  0  0  0  0  0  0  0  0
    6.0374    1.0836    0.8959 H   0  0  0  0  0  0  0  0  0  0  0  0
    7.9688    0.2149    0.0442 H   0  0  0  0  0  0  0  0  0  0  0  0
  1  8  1  0  0  0  0
  1 10  1  0  0  0  0
  2 11  1  0  0  0  0
  2 12  1  0  0  0  0
  3 13  1  0  0  0  0
  3 35  1  0  0  0  0
  4  5  1  0  0  0  0
  4  6  1  0  0  0  0
  4 14  1  0  0  0  0
  4 15  1  0  0  0  0
  5  8  1  0  0  0  0
  5 16  1  0  0  0  0
  5 17  1  0  0  0  0
  6  7  1  0  0  0  0
  6 18  1  0  0  0  0
  6 19  1  0  0  0  0
  7  9  1  0  0  0  0
  7 20  1  0  0  0  0
  7 21  1  0  0  0  0
  8 22  1  0  0  0  0
  8 23  1  0  0  0  0
  9 26  1  0  0  0  0
  9 27  1  0  0  0  0
  9 28  1  0  0  0  0
 10 11  1  0  0  0  0
 10 24  1  0  0  0  0
 10 25  1  0  0  0  0
 11 29  1  0  0  0  0
 11 30  1  0  0  0  0
 12 13  1  0  0  0  0
 12 31  1  0  0  0  0
 12 32  1  0  0  0  0
 13 33  1  0  0  0  0
 13 34  1  0  0  0  0
M  END
> <PUBCHEM_COMPOUND_CID>
8199

> <PUBCHEM_CONFORMER_RMSD>
0.8

> <PUBCHEM_CONFORMER_DIVERSEORDER>
2
60
145
139
385
306
132
46
227
125
25
17
366
219
380
249
285
14
300
425
212
388
246
109
209
59
355
20
97
197
32
276
104
310
65
415
43
84
62
280
38
361
283
295
240
328
34
8
106
238
362
223
387
158
179
152
396
231
254
171
211
115
293
83
111
397
419
386
80
175
363
256
10
426
373
398
121
242
89
167
141
302
225
57
286
82
279
296
304
117
18
40
374
163
342
221
371
282
22
351
381
326
160
365
66
418
268
192
156
313
350
16
228
140
220
199
183
379
120
312
248
173
200
409
76
401
153
105
108
399
411
165
47
150
202
87
424
148
390
273
329
144
402
205
138
377
123
5
88
230
288
94
357
53
118
261
321
316
161
404
349
187
423
226
146
15
375
234
51
70
24
26
358
107
395
353
159
263
427
41
71
172
243
181
44
359
49
102
344
149
289
110
413
147
367
129
30
391
324
50
55
92
37
339
69
135
79
169
101
318
407
383
185
393
417
208
103
98
384
299
305
364
237
210
233
201
77
215
232
86
131
184
48
389
188
28
421
270
262
100
95
272
416
247
403
414
203
116
405
36
333
259
394
42
1
378
422
267
236
137
337
114
327
198
3
412
13
346
287
400
168
315
354
182
360
372
352
54
340
91
194
345
369
255
325
266
12
224
204
124
229
275
180
122
4
68
170
298
157
174
61
85
301
319
176
113
408
39
314
239
278
130
126
260
244
7
177
330
162
336
277
191
21
6
370
73
292
376
245
133
142
218
207
297
143
196
64
206
269
81
241
90
178
93
29
96
11
410
186
271
217
67
56
213
52
193
166
58
112
9
128
45
119
303
332
264
265
250
75
253
164
406
356
154
31
284
343
235
35
63
274
252
334
251
190
78
189
291
341
195
320
151
99
335
311
27
33
323
214
308
136
19
317
322
216
257
382
309
392
281
368
155
307
294
72
338
258
347
134
348
420
331
290
23
74
222
127

> <PUBCHEM_MMFF94_PARTIAL_CHARGES>
9
1 -0.56
10 0.28
11 0.28
12 0.28
13 0.28
2 -0.56
3 -0.68
35 0.4
8 0.28

> <PUBCHEM_EFFECTIVE_ROTOR_COUNT>
10

> <PUBCHEM_PHARMACOPHORE_FEATURES>
6
1 1 acceptor
1 2 acceptor
1 3 acceptor
1 3 donor
1 9 hydrophobe
4 4 5 6 7 hydrophobe

> <PUBCHEM_HEAVY_ATOM_COUNT>
13

> <PUBCHEM_ATOM_DEF_STEREO_COUNT>
0

> <PUBCHEM_ATOM_UDEF_STEREO_COUNT>
0

> <PUBCHEM_BOND_DEF_STEREO_COUNT>
0

> <PUBCHEM_BOND_UDEF_STEREO_COUNT>
0

> <PUBCHEM_ISOTOPIC_ATOM_COUNT>
0

> <PUBCHEM_COMPONENT_COUNT>
1

> <PUBCHEM_CACTVS_TAUTO_COUNT>
1

> <PUBCHEM_CONFORMER_ID>
0000200700000002

> <PUBCHEM_MMFF94_ENERGY>
10.5163

> <PUBCHEM_FEATURE_SELFOVERLAP>
30.446

> <PUBCHEM_SHAPE_FINGERPRINT>
10968037 39 18341895191110576407
12091667 2 17989487425305382165
13533116 47 14201671013777420574
1420 363 18333447646825607207
14251764 18 18334857225285839691
14251764 46 18410856563934769866
17834076 25 18410856563940038117
18006028 8 18113901559117723577
21130983 4 6338954477392675594
22224240 67 16515409564292297446
23402539 116 17821453452414769757
23521765 1 18335420170664673285
33684 2 18272371979769447411
42788 4 18411419513967442373
8209 1 18410856559639796077

> <PUBCHEM_SHAPE_MULTIPOLES>
249.93
21.12
0.78
0.6
1.75
0.02
0
-1.87
0.31
-0.11
0
-0.09
0
0.01

> <PUBCHEM_SHAPE_SELFOVERLAP>
445.385

> <PUBCHEM_SHAPE_VOLUME>
162.8

> <PUBCHEM_COORDINATE_TYPE>
2
5
10

$$$$

