442827
  -OEChem-07051212592D

 54 59  0     1  0  0  0  0  0999 V2000
    6.2719   -1.3914    0.0000 O   0  0  0  0  0  0  0  0  0  0  0  0
   11.7432    1.6112    0.0000 O   0  0  0  0  0  0  0  0  0  0  0  0
    6.4811    1.5804    0.0000 O   0  0  0  0  0  0  0  0  0  0  0  0
   10.0112    1.6046    0.0000 O   0  0  0  0  0  0  0  0  0  0  0  0
   11.7548   -1.3887    0.0000 O   0  0  0  0  0  0  0  0  0  0  0  0
   13.4830   -0.3821    0.0000 O   0  0  0  0  0  0  0  0  0  0  0  0
   10.0189   -0.3954    0.0000 O   0  0  0  0  0  0  0  0  0  0  0  0
    2.2123   -1.4081    0.0000 O   0  0  0  0  0  0  0  0  0  0  0  0
    2.8914   -2.9300    0.0000 O   0  0  0  0  0  0  0  0  0  0  0  0
   13.4714    2.6179    0.0000 O   0  0  0  0  0  0  0  0  0  0  0  0
    5.6151    0.0804    0.0000 C   0  0  2  0  0  0  0  0  0  0  0  0
    6.4811   -0.4196    0.0000 C   0  0  2  0  0  0  0  0  0  0  0  0
    4.8780   -0.5867    0.0000 C   0  0  0  0  0  0  0  0  0  0  0  0
   11.7510   -0.3887    0.0000 C   0  0  1  0  0  0  0  0  0  0  0  0
    5.6151    1.0804    0.0000 C   0  0  0  0  0  0  0  0  0  0  0  0
   12.6150    0.1146    0.0000 C   0  0  1  0  0  0  0  0  0  0  0  0
    7.3471    0.0804    0.0000 C   0  0  0  0  0  0  0  0  0  0  0  0
   10.8830    0.1079    0.0000 C   0  0  2  0  0  0  0  0  0  0  0  0
   12.6112    1.1146    0.0000 C   0  0  1  0  0  0  0  0  0  0  0  0
   10.8792    1.1079    0.0000 C   0  0  1  0  0  0  0  0  0  0  0  0
    5.2832   -1.4944    0.0000 C   0  0  0  0  0  0  0  0  0  0  0  0
    7.3471    1.0804    0.0000 C   0  0  0  0  0  0  0  0  0  0  0  0
    3.8499   -0.4635    0.0000 C   0  0  0  0  0  0  0  0  0  0  0  0
    8.2410   -0.4542    0.0000 C   0  0  0  0  0  0  0  0  0  0  0  0
   13.4753    1.6179    0.0000 C   0  0  0  0  0  0  0  0  0  0  0  0
    9.1471    1.1012    0.0000 C   0  0  0  0  0  0  0  0  0  0  0  0
    8.2410    1.6151    0.0000 C   0  0  0  0  0  0  0  0  0  0  0  0
    4.6882   -2.3420    0.0000 C   0  0  0  0  0  0  0  0  0  0  0  0
    3.2356   -1.2970    0.0000 C   0  0  0  0  0  0  0  0  0  0  0  0
    9.1471    0.0596    0.0000 C   0  0  0  0  0  0  0  0  0  0  0  0
    3.6576   -2.2426    0.0000 C   0  0  0  0  0  0  0  0  0  0  0  0
    2.0000   -2.4153    0.0000 C   0  0  0  0  0  0  0  0  0  0  0  0
    4.8381    0.4251    0.0000 H   0  0  0  0  0  0  0  0  0  0  0  0
    7.1681   -0.9201    0.0000 H   0  0  0  0  0  0  0  0  0  0  0  0
   11.2152   -0.7008    0.0000 H   0  0  0  0  0  0  0  0  0  0  0  0
   12.6174   -0.5054    0.0000 H   0  0  0  0  0  0  0  0  0  0  0  0
    5.4030    1.6630    0.0000 H   0  0  0  0  0  0  0  0  0  0  0  0
    5.0045    0.9728    0.0000 H   0  0  0  0  0  0  0  0  0  0  0  0
   10.8854   -0.5121    0.0000 H   0  0  0  0  0  0  0  0  0  0  0  0
   12.6088    1.7346    0.0000 H   0  0  0  0  0  0  0  0  0  0  0  0
   10.8768    1.7279    0.0000 H   0  0  0  0  0  0  0  0  0  0  0  0
    3.6038    0.1056    0.0000 H   0  0  0  0  0  0  0  0  0  0  0  0
    8.2339   -1.0742    0.0000 H   0  0  0  0  0  0  0  0  0  0  0  0
   13.6896    1.0361    0.0000 H   0  0  0  0  0  0  0  0  0  0  0  0
   14.0854    1.7279    0.0000 H   0  0  0  0  0  0  0  0  0  0  0  0
    8.2339    2.2350    0.0000 H   0  0  0  0  0  0  0  0  0  0  0  0
    4.9474   -2.9052    0.0000 H   0  0  0  0  0  0  0  0  0  0  0  0
    9.6828   -0.2525    0.0000 H   0  0  0  0  0  0  0  0  0  0  0  0
   12.2929   -1.6967    0.0000 H   0  0  0  0  0  0  0  0  0  0  0  0
   14.0187   -0.0700    0.0000 H   0  0  0  0  0  0  0  0  0  0  0  0
   10.0213   -1.0154    0.0000 H   0  0  0  0  0  0  0  0  0  0  0  0
    1.4101   -2.2244    0.0000 H   0  0  0  0  0  0  0  0  0  0  0  0
    1.7482   -2.9819    0.0000 H   0  0  0  0  0  0  0  0  0  0  0  0
   14.0072    2.9300    0.0000 H   0  0  0  0  0  0  0  0  0  0  0  0
  1 12  1  0  0  0  0
  1 21  1  0  0  0  0
  2 19  1  0  0  0  0
  2 20  1  0  0  0  0
  3 15  1  0  0  0  0
  3 22  1  0  0  0  0
 20  4  1  6  0  0  0
  4 26  1  0  0  0  0
 14  5  1  6  0  0  0
  5 49  1  0  0  0  0
 16  6  1  1  0  0  0
  6 50  1  0  0  0  0
 18  7  1  1  0  0  0
  7 51  1  0  0  0  0
  8 29  1  0  0  0  0
  8 32  1  0  0  0  0
  9 31  1  0  0  0  0
  9 32  1  0  0  0  0
 10 25  1  0  0  0  0
 10 54  1  0  0  0  0
 11 12  1  0  0  0  0
 11 13  1  0  0  0  0
 11 15  1  0  0  0  0
 11 33  1  1  0  0  0
 12 17  1  0  0  0  0
 12 34  1  1  0  0  0
 13 21  1  0  0  0  0
 13 23  2  0  0  0  0
 14 16  1  0  0  0  0
 14 18  1  0  0  0  0
 14 35  1  0  0  0  0
 15 37  1  0  0  0  0
 15 38  1  0  0  0  0
 16 19  1  0  0  0  0
 16 36  1  0  0  0  0
 17 22  2  0  0  0  0
 17 24  1  0  0  0  0
 18 20  1  0  0  0  0
 18 39  1  0  0  0  0
 19 25  1  6  0  0  0
 19 40  1  0  0  0  0
 20 41  1  0  0  0  0
 21 28  2  0  0  0  0
 22 27  1  0  0  0  0
 23 29  1  0  0  0  0
 23 42  1  0  0  0  0
 24 30  2  0  0  0  0
 24 43  1  0  0  0  0
 25 44  1  0  0  0  0
 25 45  1  0  0  0  0
 26 27  2  0  0  0  0
 26 30  1  0  0  0  0
 27 46  1  0  0  0  0
 28 31  1  0  0  0  0
 28 47  1  0  0  0  0
 29 31  2  0  0  0  0
 30 48  1  0  0  0  0
 32 52  1  0  0  0  0
 32 53  1  0  0  0  0
M  END
> <PUBCHEM_COMPOUND_CID>
442827

> <PUBCHEM_COMPOUND_CANONICALIZED>
1

> <PUBCHEM_CACTVS_COMPLEXITY>
679

> <PUBCHEM_CACTVS_HBOND_ACCEPTOR>
10

> <PUBCHEM_CACTVS_HBOND_DONOR>
4

> <PUBCHEM_CACTVS_ROTATABLE_BOND>
3

> <PUBCHEM_CACTVS_SUBSKEYS>
AAADceB4PAAAAAAAAAAAAAAAAAAAASJAAAA0aIEAAAAAAEiRQAAAGgAACAAADRSwmAMwDoAABgCAAiBCAAACCAAgIAAIiAAGiIgdNyKEMRqieCKlwBUPqAfA4PwOoQABCAAIQABCAAIQABCAAAAAAAAAAA==

> <PUBCHEM_IUPAC_INCHI>
InChI=1S/C22H22O10/c23-6-17-18(24)19(25)20(26)22(32-17)30-9-1-2-10-13(3-9)27-7-12-11-4-15-16(29-8-28-15)5-14(11)31-21(10)12/h1-5,12,17-26H,6-8H2/t12-,17+,18+,19-,20+,21-,22+/m0/s1

> <PUBCHEM_IUPAC_INCHIKEY>
VGSYCWGXBYZLLE-QEEQPWONSA-N

> <PUBCHEM_XLOGP3_AA>
0.6

> <PUBCHEM_EXACT_MASS>
446.121297

> <PUBCHEM_MOLECULAR_FORMULA>
C22H22O10

> <PUBCHEM_MOLECULAR_WEIGHT>
446.40408

> <PUBCHEM_OPENEYE_CAN_SMILES>
C1C2C(C3=C(O1)C=C(C=C3)OC4C(C(C(C(O4)CO)O)O)O)OC5=CC6=C(C=C25)OCO6

> <PUBCHEM_OPENEYE_ISO_SMILES>
C1[C@@H]2[C@H](C3=C(O1)C=C(C=C3)O[C@H]4[C@@H]([C@H]([C@@H]([C@H](O4)CO)O)O)O)OC5=CC6=C(C=C25)OCO6

> <PUBCHEM_CACTVS_TPSA>
136

> <PUBCHEM_MONOISOTOPIC_WEIGHT>
446.121297

> <PUBCHEM_TOTAL_CHARGE>
0

> <PUBCHEM_HEAVY_ATOM_COUNT>
32

> <PUBCHEM_ATOM_DEF_STEREO_COUNT>
7

> <PUBCHEM_ATOM_UDEF_STEREO_COUNT>
0

> <PUBCHEM_BOND_DEF_STEREO_COUNT>
0

> <PUBCHEM_BOND_UDEF_STEREO_COUNT>
0

> <PUBCHEM_ISOTOPIC_ATOM_COUNT>
0

> <PUBCHEM_COMPONENT_COUNT>
1

> <PUBCHEM_CACTVS_TAUTO_COUNT>
1

> <PUBCHEM_COORDINATE_TYPE>
1
5
255

> <PUBCHEM_BONDANNOTATIONS>
11  33  5
12  34  5
13  21  8
13  23  8
17  22  8
17  24  8
19  25  6
21  28  8
22  27  8
23  29  8
24  30  8
26  27  8
26  30  8
28  31  8
29  31  8
20  4  6
14  5  6
16  6  5
18  7  5

$$$$

