9931
  -OEChem-06261204122D

 46 48  0     0  0  0  0  0  0999 V2000
    3.8611    0.0526    0.0000 O   0  0  0  0  0  0  0  0  0  0  0  0
    8.8675    0.7728    0.0000 N   0  0  0  0  0  0  0  0  0  0  0  0
    6.4302   -0.2564    0.0000 C   0  0  0  0  0  0  0  0  0  0  0  0
    7.1733    0.4127    0.0000 C   0  0  0  0  0  0  0  0  0  0  0  0
    5.4791    0.0526    0.0000 C   0  0  0  0  0  0  0  0  0  0  0  0
    8.1244    0.1037    0.0000 C   0  0  0  0  0  0  0  0  0  0  0  0
    4.6701   -0.5352    0.0000 C   0  0  0  0  0  0  0  0  0  0  0  0
    5.1701    1.0036    0.0000 C   0  0  0  0  0  0  0  0  0  0  0  0
    4.1701    1.0036    0.0000 C   0  0  0  0  0  0  0  0  0  0  0  0
    4.6701   -1.5352    0.0000 C   0  0  0  0  0  0  0  0  0  0  0  0
    3.5823    1.8126    0.0000 C   0  0  0  0  0  0  0  0  0  0  0  0
    9.8186    0.4638    0.0000 C   0  0  0  0  0  0  0  0  0  0  0  0
    8.6596    1.7510    0.0000 C   0  0  0  0  0  0  0  0  0  0  0  0
    3.8041   -2.0352    0.0000 C   0  0  0  0  0  0  0  0  0  0  0  0
    5.5361   -2.0352    0.0000 C   0  0  0  0  0  0  0  0  0  0  0  0
    3.9890    2.7262    0.0000 C   0  0  0  0  0  0  0  0  0  0  0  0
    2.5878    1.7081    0.0000 C   0  0  0  0  0  0  0  0  0  0  0  0
    3.8041   -3.0352    0.0000 C   0  0  0  0  0  0  0  0  0  0  0  0
    5.5361   -3.0352    0.0000 C   0  0  0  0  0  0  0  0  0  0  0  0
    4.6701   -3.5352    0.0000 C   0  0  0  0  0  0  0  0  0  0  0  0
    3.4013    3.5352    0.0000 C   0  0  0  0  0  0  0  0  0  0  0  0
    2.0000    2.5171    0.0000 C   0  0  0  0  0  0  0  0  0  0  0  0
    2.4067    3.4307    0.0000 C   0  0  0  0  0  0  0  0  0  0  0  0
    6.1391   -0.8039    0.0000 H   0  0  0  0  0  0  0  0  0  0  0  0
    6.9187   -0.6382    0.0000 H   0  0  0  0  0  0  0  0  0  0  0  0
    7.4644    0.9601    0.0000 H   0  0  0  0  0  0  0  0  0  0  0  0
    6.6847    0.7944    0.0000 H   0  0  0  0  0  0  0  0  0  0  0  0
    7.8333   -0.4438    0.0000 H   0  0  0  0  0  0  0  0  0  0  0  0
    8.6129   -0.2780    0.0000 H   0  0  0  0  0  0  0  0  0  0  0  0
    5.5345    1.5052    0.0000 H   0  0  0  0  0  0  0  0  0  0  0  0
    9.6270   -0.1259    0.0000 H   0  0  0  0  0  0  0  0  0  0  0  0
   10.4082    0.2722    0.0000 H   0  0  0  0  0  0  0  0  0  0  0  0
    9.2660    1.8798    0.0000 H   0  0  0  0  0  0  0  0  0  0  0  0
    8.5307    2.3574    0.0000 H   0  0  0  0  0  0  0  0  0  0  0  0
    8.0532    1.6220    0.0000 H   0  0  0  0  0  0  0  0  0  0  0  0
   10.0102    1.0534    0.0000 H   0  0  0  0  0  0  0  0  0  0  0  0
    3.2671   -1.7252    0.0000 H   0  0  0  0  0  0  0  0  0  0  0  0
    6.0730   -1.7252    0.0000 H   0  0  0  0  0  0  0  0  0  0  0  0
    4.6056    2.7910    0.0000 H   0  0  0  0  0  0  0  0  0  0  0  0
    2.3356    1.1417    0.0000 H   0  0  0  0  0  0  0  0  0  0  0  0
    3.2671   -3.3452    0.0000 H   0  0  0  0  0  0  0  0  0  0  0  0
    6.0730   -3.3452    0.0000 H   0  0  0  0  0  0  0  0  0  0  0  0
    4.6701   -4.1552    0.0000 H   0  0  0  0  0  0  0  0  0  0  0  0
    3.6534    4.1016    0.0000 H   0  0  0  0  0  0  0  0  0  0  0  0
    1.3834    2.4523    0.0000 H   0  0  0  0  0  0  0  0  0  0  0  0
    2.0423    3.9323    0.0000 H   0  0  0  0  0  0  0  0  0  0  0  0
  1  7  1  0  0  0  0
  1  9  1  0  0  0  0
  2  6  1  0  0  0  0
  2 12  1  0  0  0  0
  2 13  1  0  0  0  0
  3  4  1  0  0  0  0
  3  5  1  0  0  0  0
  3 24  1  0  0  0  0
  3 25  1  0  0  0  0
  4  6  1  0  0  0  0
  4 26  1  0  0  0  0
  4 27  1  0  0  0  0
  5  7  2  0  0  0  0
  5  8  1  0  0  0  0
  6 28  1  0  0  0  0
  6 29  1  0  0  0  0
  7 10  1  0  0  0  0
  8  9  2  0  0  0  0
  8 30  1  0  0  0  0
  9 11  1  0  0  0  0
 10 14  2  0  0  0  0
 10 15  1  0  0  0  0
 11 16  2  0  0  0  0
 11 17  1  0  0  0  0
 12 31  1  0  0  0  0
 12 32  1  0  0  0  0
 12 36  1  0  0  0  0
 13 33  1  0  0  0  0
 13 34  1  0  0  0  0
 13 35  1  0  0  0  0
 14 18  1  0  0  0  0
 14 37  1  0  0  0  0
 15 19  2  0  0  0  0
 15 38  1  0  0  0  0
 16 21  1  0  0  0  0
 16 39  1  0  0  0  0
 17 22  2  0  0  0  0
 17 40  1  0  0  0  0
 18 20  2  0  0  0  0
 18 41  1  0  0  0  0
 19 20  1  0  0  0  0
 19 42  1  0  0  0  0
 20 43  1  0  0  0  0
 21 23  2  0  0  0  0
 21 44  1  0  0  0  0
 22 23  1  0  0  0  0
 22 45  1  0  0  0  0
 23 46  1  0  0  0  0
M  END
> <PUBCHEM_COMPOUND_CID>
9931

> <PUBCHEM_COMPOUND_CANONICALIZED>
1

> <PUBCHEM_CACTVS_COMPLEXITY>
331

> <PUBCHEM_CACTVS_HBOND_ACCEPTOR>
2

> <PUBCHEM_CACTVS_HBOND_DONOR>
0

> <PUBCHEM_CACTVS_ROTATABLE_BOND>
6

> <PUBCHEM_CACTVS_SUBSKEYS>
AAADceB6IAAAAAAAAAAAAAAAAAAAASAAAAAwYAAAAAAAAAAB0AAAHgAAAAAADATBmAQyBIMABECIAqBSAAACCAAkIAAIiAEOCMgMJjKEtRqGOSCkwBEIqYeY2fKOAAAAAAAAAAAAAAAAAAAAAAAAAAAAAA==

> <PUBCHEM_IUPAC_OPENEYE_NAME>
3-(2,5-diphenyl-3-furyl)-N,N-dimethyl-propan-1-amine

> <PUBCHEM_IUPAC_CAS_NAME>
3-(2,5-diphenyl-3-furanyl)-N,N-dimethyl-1-propanamine

> <PUBCHEM_IUPAC_NAME>
3-(2,5-diphenylfuran-3-yl)-N,N-dimethylpropan-1-amine

> <PUBCHEM_IUPAC_SYSTEMATIC_NAME>
3-(2,5-diphenylfuran-3-yl)-N,N-dimethyl-propan-1-amine

> <PUBCHEM_IUPAC_TRADITIONAL_NAME>
3-(2,5-diphenyl-3-furyl)propyl-dimethyl-amine

> <PUBCHEM_IUPAC_INCHI>
InChI=1S/C21H23NO/c1-22(2)15-9-14-19-16-20(17-10-5-3-6-11-17)23-21(19)18-12-7-4-8-13-18/h3-8,10-13,16H,9,14-15H2,1-2H3

> <PUBCHEM_IUPAC_INCHIKEY>
ZKJABCBIEOGIGT-UHFFFAOYSA-N

> <PUBCHEM_XLOGP3_AA>
5

> <PUBCHEM_EXACT_MASS>
305.177964

> <PUBCHEM_MOLECULAR_FORMULA>
C21H23NO

> <PUBCHEM_MOLECULAR_WEIGHT>
305.41342

> <PUBCHEM_OPENEYE_CAN_SMILES>
CN(C)CCCC1=C(OC(=C1)C2=CC=CC=C2)C3=CC=CC=C3

> <PUBCHEM_OPENEYE_ISO_SMILES>
CN(C)CCCC1=C(OC(=C1)C2=CC=CC=C2)C3=CC=CC=C3

> <PUBCHEM_CACTVS_TPSA>
16.4

> <PUBCHEM_MONOISOTOPIC_WEIGHT>
305.177964

> <PUBCHEM_TOTAL_CHARGE>
0

> <PUBCHEM_HEAVY_ATOM_COUNT>
23

> <PUBCHEM_ATOM_DEF_STEREO_COUNT>
0

> <PUBCHEM_ATOM_UDEF_STEREO_COUNT>
0

> <PUBCHEM_BOND_DEF_STEREO_COUNT>
0

> <PUBCHEM_BOND_UDEF_STEREO_COUNT>
0

> <PUBCHEM_ISOTOPIC_ATOM_COUNT>
0

> <PUBCHEM_COMPONENT_COUNT>
1

> <PUBCHEM_CACTVS_TAUTO_COUNT>
1

> <PUBCHEM_COORDINATE_TYPE>
1
5
255

> <PUBCHEM_BONDANNOTATIONS>
1  7  8
1  9  8
10  14  8
10  15  8
11  16  8
11  17  8
14  18  8
15  19  8
16  21  8
17  22  8
18  20  8
19  20  8
21  23  8
22  23  8
5  7  8
5  8  8
8  9  8

$$$$

