11267
  -OEChem-06261205273D

 14 13  0     1  0  0  0  0  0999 V2000
    0.5020    1.5638    0.2195 O   0  0  0  0  0  0  0  0  0  0  0  0
   -1.5002   -1.3937    0.2738 O   0  0  0  0  0  0  0  0  0  0  0  0
   -1.9486    0.7146   -0.4517 O   0  0  0  0  0  0  0  0  0  0  0  0
    2.6170   -0.3343   -0.0508 N   0  0  0  0  0  0  0  0  0  0  0  0
    0.2614    0.1776    0.4236 C   0  0  2  0  0  0  0  0  0  0  0  0
    1.2380   -0.6258   -0.4329 C   0  0  0  0  0  0  0  0  0  0  0  0
   -1.1697   -0.1022    0.0184 C   0  0  0  0  0  0  0  0  0  0  0  0
    0.3807   -0.0377    1.4914 H   0  0  0  0  0  0  0  0  0  0  0  0
    1.0581   -1.7013   -0.3323 H   0  0  0  0  0  0  0  0  0  0  0  0
    1.1148   -0.3715   -1.4920 H   0  0  0  0  0  0  0  0  0  0  0  0
    2.7527   -0.5627    0.9335 H   0  0  0  0  0  0  0  0  0  0  0  0
    2.7864    0.6681   -0.1296 H   0  0  0  0  0  0  0  0  0  0  0  0
   -0.0595    2.0535    0.8445 H   0  0  0  0  0  0  0  0  0  0  0  0
   -2.4296   -1.5890    0.0283 H   0  0  0  0  0  0  0  0  0  0  0  0
  1  5  1  0  0  0  0
  1 13  1  0  0  0  0
  2  7  1  0  0  0  0
  2 14  1  0  0  0  0
  3  7  2  0  0  0  0
  4  6  1  0  0  0  0
  4 11  1  0  0  0  0
  4 12  1  0  0  0  0
  5  6  1  0  0  0  0
  5  7  1  0  0  0  0
  5  8  1  0  0  0  0
  6  9  1  0  0  0  0
  6 10  1  0  0  0  0
M  END
> <PUBCHEM_COMPOUND_CID>
11267

> <PUBCHEM_CONFORMER_RMSD>
0.4

> <PUBCHEM_CONFORMER_DIVERSEORDER>
1
9
11
5
8
6
4
12
3
10
2
7

> <PUBCHEM_MMFF94_PARTIAL_CHARGES>
11
1 -0.68
11 0.36
12 0.36
13 0.4
14 0.5
2 -0.65
3 -0.57
4 -0.99
5 0.34
6 0.27
7 0.66

> <PUBCHEM_EFFECTIVE_ROTOR_COUNT>
2

> <PUBCHEM_PHARMACOPHORE_FEATURES>
7
1 1 acceptor
1 1 donor
1 2 acceptor
1 3 acceptor
1 4 cation
1 4 donor
3 2 3 7 anion

> <PUBCHEM_HEAVY_ATOM_COUNT>
7

> <PUBCHEM_ATOM_DEF_STEREO_COUNT>
0

> <PUBCHEM_ATOM_UDEF_STEREO_COUNT>
1

> <PUBCHEM_BOND_DEF_STEREO_COUNT>
0

> <PUBCHEM_BOND_UDEF_STEREO_COUNT>
0

> <PUBCHEM_ISOTOPIC_ATOM_COUNT>
0

> <PUBCHEM_COMPONENT_COUNT>
1

> <PUBCHEM_CACTVS_TAUTO_COUNT>
1

> <PUBCHEM_CONFORMER_ID>
00002C0300000001

> <PUBCHEM_MMFF94_ENERGY>
0.6347

> <PUBCHEM_FEATURE_SELFOVERLAP>
35.588

> <PUBCHEM_SHAPE_FINGERPRINT>
139733 1 10519983751271742618
16714656 1 18270116945333782853
20096714 4 18343025501442540229
21040471 1 18198068173279961153
24536 1 18264222326232408553
29004967 10 18186795881340585818
5460574 1 9439396934728548294

> <PUBCHEM_SHAPE_MULTIPOLES>
121.47
2.7
1.24
0.66
0.91
0.15
-0.01
-0.41
-0.26
-0.23
0.08
-0.02
-0.01
0.22

> <PUBCHEM_SHAPE_SELFOVERLAP>
223.927

> <PUBCHEM_SHAPE_VOLUME>
76.7

> <PUBCHEM_COORDINATE_TYPE>
2
5
10

$$$$

