63123
  -OEChem-07051213003D

 33 35  0     0  0  0  0  0  0999 V2000
    1.8244   -2.8838   -0.1092 O   0  0  0  0  0  0  0  0  0  0  0  0
    0.5842    0.8562    0.7428 N   0  0  0  0  0  0  0  0  0  0  0  0
    0.2008   -1.5140    0.7277 N   0  0  0  0  0  0  0  0  0  0  0  0
   -0.1650   -0.2925    0.9879 C   0  0  0  0  0  0  0  0  0  0  0  0
    1.8611    0.7004    0.1604 C   0  0  0  0  0  0  0  0  0  0  0  0
   -1.5400   -0.1652    1.6154 C   0  0  0  0  0  0  0  0  0  0  0  0
    2.3116   -0.5969   -0.1441 C   0  0  0  0  0  0  0  0  0  0  0  0
   -2.5820   -0.0215    0.5548 C   0  0  0  0  0  0  0  0  0  0  0  0
    0.1393    2.2132    1.0493 C   0  0  0  0  0  0  0  0  0  0  0  0
    2.7243    1.7695   -0.1387 C   0  0  0  0  0  0  0  0  0  0  0  0
    1.4299   -1.7531    0.1576 C   0  0  0  0  0  0  0  0  0  0  0  0
    3.5693   -0.8192   -0.7224 C   0  0  0  0  0  0  0  0  0  0  0  0
    3.9799    1.5514   -0.7151 C   0  0  0  0  0  0  0  0  0  0  0  0
   -3.1948   -1.1553    0.0244 C   0  0  0  0  0  0  0  0  0  0  0  0
   -2.9387    1.2459    0.0982 C   0  0  0  0  0  0  0  0  0  0  0  0
    4.4015    0.2590   -1.0063 C   0  0  0  0  0  0  0  0  0  0  0  0
   -4.1678   -1.0211   -0.9660 C   0  0  0  0  0  0  0  0  0  0  0  0
   -3.9117    1.3802   -0.8923 C   0  0  0  0  0  0  0  0  0  0  0  0
   -4.5263    0.2467   -1.4243 C   0  0  0  0  0  0  0  0  0  0  0  0
   -1.5969    0.6328    2.3583 H   0  0  0  0  0  0  0  0  0  0  0  0
   -1.7381   -1.0784    2.1944 H   0  0  0  0  0  0  0  0  0  0  0  0
   -0.1034    2.7541    0.1283 H   0  0  0  0  0  0  0  0  0  0  0  0
    0.9149    2.7670    1.5919 H   0  0  0  0  0  0  0  0  0  0  0  0
   -0.7220    2.2676    1.7129 H   0  0  0  0  0  0  0  0  0  0  0  0
    2.4440    2.8012    0.0544 H   0  0  0  0  0  0  0  0  0  0  0  0
    3.9155   -1.8219   -0.9571 H   0  0  0  0  0  0  0  0  0  0  0  0
    4.6258    2.3958   -0.9383 H   0  0  0  0  0  0  0  0  0  0  0  0
   -2.9244   -2.1490    0.3713 H   0  0  0  0  0  0  0  0  0  0  0  0
   -2.5050    2.1481    0.5113 H   0  0  0  0  0  0  0  0  0  0  0  0
    5.3762    0.0918   -1.4546 H   0  0  0  0  0  0  0  0  0  0  0  0
   -4.6464   -1.9036   -1.3804 H   0  0  0  0  0  0  0  0  0  0  0  0
   -4.1963    2.3674   -1.2443 H   0  0  0  0  0  0  0  0  0  0  0  0
   -5.2850    0.3512   -2.1943 H   0  0  0  0  0  0  0  0  0  0  0  0
  1 11  2  0  0  0  0
  2  4  1  0  0  0  0
  2  5  1  0  0  0  0
  2  9  1  0  0  0  0
  3  4  2  0  0  0  0
  3 11  1  0  0  0  0
  4  6  1  0  0  0  0
  5  7  1  0  0  0  0
  5 10  2  0  0  0  0
  6  8  1  0  0  0  0
  6 20  1  0  0  0  0
  6 21  1  0  0  0  0
  7 11  1  0  0  0  0
  7 12  2  0  0  0  0
  8 14  2  0  0  0  0
  8 15  1  0  0  0  0
  9 22  1  0  0  0  0
  9 23  1  0  0  0  0
  9 24  1  0  0  0  0
 10 13  1  0  0  0  0
 10 25  1  0  0  0  0
 12 16  1  0  0  0  0
 12 26  1  0  0  0  0
 13 16  2  0  0  0  0
 13 27  1  0  0  0  0
 14 17  1  0  0  0  0
 14 28  1  0  0  0  0
 15 18  2  0  0  0  0
 15 29  1  0  0  0  0
 16 30  1  0  0  0  0
 17 19  2  0  0  0  0
 17 31  1  0  0  0  0
 18 19  1  0  0  0  0
 18 32  1  0  0  0  0
 19 33  1  0  0  0  0
M  END
> <PUBCHEM_COMPOUND_CID>
63123

> <PUBCHEM_CONFORMER_RMSD>
0.6

> <PUBCHEM_CONFORMER_DIVERSEORDER>
3
9
2
7
8
4
5
6
1

> <PUBCHEM_MMFF94_PARTIAL_CHARGES>
28
1 -0.57
10 -0.15
11 0.69
12 -0.15
13 -0.15
14 -0.15
15 -0.15
16 -0.15
17 -0.15
18 -0.15
19 -0.15
2 -0.52
25 0.15
26 0.15
27 0.15
28 0.15
29 0.15
3 -0.66
30 0.15
31 0.15
32 0.15
33 0.15
4 0.44
5 0.1
6 0.2
7 0.09
8 -0.14
9 0.37

> <PUBCHEM_EFFECTIVE_ROTOR_COUNT>
2

> <PUBCHEM_PHARMACOPHORE_FEATURES>
5
1 1 acceptor
1 3 donor
6 2 3 4 5 7 11 rings
6 5 7 10 12 13 16 rings
6 8 14 15 17 18 19 rings

> <PUBCHEM_HEAVY_ATOM_COUNT>
19

> <PUBCHEM_ATOM_DEF_STEREO_COUNT>
0

> <PUBCHEM_ATOM_UDEF_STEREO_COUNT>
0

> <PUBCHEM_BOND_DEF_STEREO_COUNT>
0

> <PUBCHEM_BOND_UDEF_STEREO_COUNT>
0

> <PUBCHEM_ISOTOPIC_ATOM_COUNT>
0

> <PUBCHEM_COMPONENT_COUNT>
1

> <PUBCHEM_CACTVS_TAUTO_COUNT>
1

> <PUBCHEM_CONFORMER_ID>
0000F69300000003

> <PUBCHEM_MMFF94_ENERGY>
65.1572

> <PUBCHEM_FEATURE_SELFOVERLAP>
25.396

> <PUBCHEM_SHAPE_FINGERPRINT>
10498660 4 17489320706452859661
10756046 5 18194402422929997605
11543360 7 18409733950068324943
11640471 11 14548749399842094921
11796584 16 14491293397440844756
12363563 72 14851610964307895939
12553582 1 18113898282125807081
12670546 177 18409167709980012125
12707595 3 16515694329340381699
12730499 353 18202277022661638499
12788726 201 17315067999154537377
12892183 10 9727626207147615695
13004483 165 16691354771926250971
13103583 49 8718560440369176359
13464514 151 18130787909909407553
13583140 156 16845007893039752960
13675066 3 12319739163248885568
14251745 187 18273220776660223853
14576447 43 18113624464717433143
15163728 17 16557881503971888486
15209294 21 13038904387439423070
15210252 30 17988926677690035517
16752209 62 16732988677960558919
16945 1 18265592421195484738
17349148 13 18340209686808329490
1813 80 14201393859178937769
18186145 218 18340759390687068072
19862831 5 18113337513852299833
200 152 18114177553605141264
20645477 70 18336258024432414814
21065199 12 9007056872665342967
221357 26 18408046195720367581
22393880 68 18335143089450101838
23114952 82 18200316665910903959
231179 274 17275389802266467364
23402539 116 17968083249173908728
23402655 69 18410572920147586189
23493267 7 17489297552041443864
23557571 272 17203312383002431755
23559900 14 18338804540950057770
238 59 18337678490381184189
25 1 18343014510399554064
2748010 2 17905319624597683904
2838139 119 17274820204184013060
2871803 45 18335140877679237101
3060560 45 18411140212639692814
3082319 5 18408889555229272685
3323516 105 18334861567497892777
3472631 163 16415483727341393695
4028521 119 17917999386384919373
4280585 95 17539116668794364150
4371632 12 4890204121374025416
474 4 17489867133360923525
543358 83 18265048222520716193
633830 44 17971441140378647432
6786 2 14714566503249816179
7471813 234 18121790679717222882
7970288 3 16009032748511419287

> <PUBCHEM_SHAPE_MULTIPOLES>
375.18
8.83
2.21
1.25
2.51
0.41
0.06
-1.17
-4.91
-1
0.11
0.66
-0.14
0.02

> <PUBCHEM_SHAPE_SELFOVERLAP>
822.972

> <PUBCHEM_SHAPE_VOLUME>
201.7

> <PUBCHEM_COORDINATE_TYPE>
2
5
10

$$$$

