46
  -OEChem-07051212493D

 27 26  0     1  0  0  0  0  0999 V2000
   -4.4357   -0.0187    0.1157 P   0  0  0  0  0  0  0  0  0  0  0  0
    0.6843    1.0939   -1.0234 O   0  0  0  0  0  0  0  0  0  0  0  0
   -0.4993   -1.4614   -0.8939 O   0  0  0  0  0  0  0  0  0  0  0  0
   -2.9468   -0.6413    0.1921 O   0  0  0  0  0  0  0  0  0  0  0  0
    3.2663    1.5846    0.0919 O   0  0  0  0  0  0  0  0  0  0  0  0
   -4.4096    0.8794   -1.2289 O   0  0  0  0  0  0  0  0  0  0  0  0
   -4.4209    1.0832    1.2992 O   0  0  0  0  0  0  0  0  0  0  0  0
   -5.5498   -1.0209    0.1965 O   0  0  0  0  0  0  0  0  0  0  0  0
    5.5606    0.5335    0.0694 O   0  0  0  0  0  0  0  0  0  0  0  0
    4.6346   -1.5642    0.1498 O   0  0  0  0  0  0  0  0  0  0  0  0
    0.7052    0.3295    0.1817 C   0  0  1  0  0  0  0  0  0  0  0  0
   -0.5458   -0.5613    0.2134 C   0  0  1  0  0  0  0  0  0  0  0  0
    1.9972   -0.4990    0.2222 C   0  0  0  0  0  0  0  0  0  0  0  0
   -1.8384    0.2504    0.1215 C   0  0  0  0  0  0  0  0  0  0  0  0
    3.2389    0.3645    0.1502 C   0  0  0  0  0  0  0  0  0  0  0  0
    4.5592   -0.3522    0.1425 C   0  0  0  0  0  0  0  0  0  0  0  0
    0.6942    1.0315    1.0243 H   0  0  0  0  0  0  0  0  0  0  0  0
   -0.5514   -1.1717    1.1239 H   0  0  0  0  0  0  0  0  0  0  0  0
    2.0357   -1.0882    1.1445 H   0  0  0  0  0  0  0  0  0  0  0  0
    2.0375   -1.1736   -0.6409 H   0  0  0  0  0  0  0  0  0  0  0  0
   -1.8936    0.9720    0.9421 H   0  0  0  0  0  0  0  0  0  0  0  0
   -1.8969    0.7791   -0.8345 H   0  0  0  0  0  0  0  0  0  0  0  0
   -1.3023   -2.0089   -0.8582 H   0  0  0  0  0  0  0  0  0  0  0  0
    0.0450    1.8164   -0.9053 H   0  0  0  0  0  0  0  0  0  0  0  0
   -5.2365    1.3174   -1.5231 H   0  0  0  0  0  0  0  0  0  0  0  0
   -5.2542    1.5491    1.5243 H   0  0  0  0  0  0  0  0  0  0  0  0
    6.4396    0.0994    0.0374 H   0  0  0  0  0  0  0  0  0  0  0  0
  1  4  1  0  0  0  0
  1  6  1  0  0  0  0
  1  7  1  0  0  0  0
  1  8  2  0  0  0  0
  2 11  1  0  0  0  0
  2 24  1  0  0  0  0
  3 12  1  0  0  0  0
  3 23  1  0  0  0  0
  4 14  1  0  0  0  0
  5 15  2  0  0  0  0
  6 25  1  0  0  0  0
  7 26  1  0  0  0  0
  9 16  1  0  0  0  0
  9 27  1  0  0  0  0
 10 16  2  0  0  0  0
 11 12  1  0  0  0  0
 11 13  1  0  0  0  0
 11 17  1  0  0  0  0
 12 14  1  0  0  0  0
 12 18  1  0  0  0  0
 13 15  1  0  0  0  0
 13 19  1  0  0  0  0
 13 20  1  0  0  0  0
 14 21  1  0  0  0  0
 14 22  1  0  0  0  0
 15 16  1  0  0  0  0
M  END
> <PUBCHEM_COMPOUND_CID>
46

> <PUBCHEM_CONFORMER_RMSD>
0.8

> <PUBCHEM_CONFORMER_DIVERSEORDER>
1
143
52
44
189
142
107
2
157
117
11
206
16
180
76
156
13
126
86
99
70
150
90
147
196
33
187
60
192
186
213
69
201
35
105
91
171
21
128
202
74
209
34
80
58
177
151
127
133
47
41
7
22
84
190
12
77
10
212
165
148
113
79
176
17
64
135
181
49
8
108
68
154
48
28
160
40
50
3
197
203
75
56
106
15
174
153
161
72
81
182
200
67
100
5
211
83
89
122
193
66
103
141
92
9
73
164
162
131
137
98
198
109
140
26
178
121
183
102
138
130
204
55
146
37
94
19
54
116
179
29
205
25
110
46
194
163
210
199
172
82
175
159
169
104
85
4
45
207
149
30
134
36
115
111
167
119
123
166
32
101
188
27
184
43
57
51
132
152
170
31
112
87
145
139
208
124
195
185
39
63
20
158
78
88
173
136
120
53
155
61
6
23
168
14
42
93
191
118
95
71
97
125
65
59
114
62
96
24
129
144
38
18

> <PUBCHEM_MMFF94_PARTIAL_CHARGES>
21
1 1.51
10 -0.57
11 0.28
12 0.28
13 0.06
14 0.28
15 0.51
16 0.72
2 -0.68
23 0.4
24 0.4
25 0.5
26 0.5
27 0.5
3 -0.68
4 -0.55
5 -0.57
6 -0.77
7 -0.77
8 -0.7
9 -0.65

> <PUBCHEM_EFFECTIVE_ROTOR_COUNT>
7

> <PUBCHEM_PHARMACOPHORE_FEATURES>
12
1 10 acceptor
1 2 acceptor
1 2 donor
1 3 acceptor
1 3 donor
1 5 acceptor
1 6 acceptor
1 7 acceptor
1 8 acceptor
1 9 acceptor
3 9 10 16 anion
4 1 6 7 8 anion

> <PUBCHEM_HEAVY_ATOM_COUNT>
16

> <PUBCHEM_ATOM_DEF_STEREO_COUNT>
0

> <PUBCHEM_ATOM_UDEF_STEREO_COUNT>
2

> <PUBCHEM_BOND_DEF_STEREO_COUNT>
0

> <PUBCHEM_BOND_UDEF_STEREO_COUNT>
0

> <PUBCHEM_ISOTOPIC_ATOM_COUNT>
0

> <PUBCHEM_COMPONENT_COUNT>
1

> <PUBCHEM_CACTVS_TAUTO_COUNT>
2

> <PUBCHEM_CONFORMER_ID>
0000002E00000001

> <PUBCHEM_MMFF94_ENERGY>
-5.9046

> <PUBCHEM_FEATURE_SELFOVERLAP>
61.009

> <PUBCHEM_SHAPE_FINGERPRINT>
10680689 15 17561362885858092161
11401426 45 5617536293926462075
13167823 11 18335423443614921367
13533116 47 16515681191505441598
13675066 3 18060137613387560084
14123238 8 18410573980861771595
1420 363 17847055571935246051
14573314 32 17418097662640223759
15048467 5 18259985942818035248
17834072 33 18410013199872310927
17834076 25 17458061560298479442
17844677 252 17489584571425405021
187816 3 16153423939380218579
200 152 18040999548533499753
20645477 70 18408884075015098558
220451 1 15213016046532064862
23402539 116 17022905665951961409
23402655 69 18333450928723894782
23557571 272 14404916824682832694
23559900 14 17822296730583242088
265663 24 17022907856152953007
366044 4 18186519895163618719
42 15 18413105074009299706
42788 4 18411982459810408882
522135 26 18342457041536571690
90127 26 17346596374399793085

> <PUBCHEM_SHAPE_MULTIPOLES>
280.3
12.64
1.27
0.85
1.87
0.05
-0.06
0.2
1.12
-0.36
-0.08
0.73
-0.15
-0.1

> <PUBCHEM_SHAPE_SELFOVERLAP>
534.199

> <PUBCHEM_SHAPE_VOLUME>
171.3

> <PUBCHEM_COORDINATE_TYPE>
2
5
10

$$$$

