111037
  -OEChem-07051213033D

 34 34  0     1  0  0  0  0  0999 V2000
    1.5189   -0.5650   -0.1486 O   0  0  0  0  0  0  0  0  0  0  0  0
    3.6933    0.1921    0.0393 O   0  0  0  0  0  0  0  0  0  0  0  0
   -0.4964    0.6899    0.2095 C   0  0  1  0  0  0  0  0  0  0  0  0
    1.0301    0.7292    0.2075 C   0  0  0  0  0  0  0  0  0  0  0  0
   -1.0447    0.4024   -1.1918 C   0  0  0  0  0  0  0  0  0  0  0  0
   -1.0137   -0.3583    1.2077 C   0  0  0  0  0  0  0  0  0  0  0  0
   -2.5765    0.4171   -1.2012 C   0  0  0  0  0  0  0  0  0  0  0  0
   -3.1974   -0.2962   -0.0264 C   0  0  0  0  0  0  0  0  0  0  0  0
   -2.4764   -0.6542    1.0500 C   0  0  0  0  0  0  0  0  0  0  0  0
    1.5688    1.0874    1.5922 C   0  0  0  0  0  0  0  0  0  0  0  0
    1.5416    1.7171   -0.8393 C   0  0  0  0  0  0  0  0  0  0  0  0
   -4.6667   -0.5815   -0.1277 C   0  0  0  0  0  0  0  0  0  0  0  0
    2.8770   -0.6891   -0.1936 C   0  0  0  0  0  0  0  0  0  0  0  0
    3.2421   -2.0911   -0.5774 C   0  0  0  0  0  0  0  0  0  0  0  0
   -0.8775    1.6745    0.5192 H   0  0  0  0  0  0  0  0  0  0  0  0
   -0.6961   -0.5780   -1.5420 H   0  0  0  0  0  0  0  0  0  0  0  0
   -0.7074    1.1403   -1.9269 H   0  0  0  0  0  0  0  0  0  0  0  0
   -0.8539    0.0022    2.2308 H   0  0  0  0  0  0  0  0  0  0  0  0
   -0.4748   -1.3084    1.1152 H   0  0  0  0  0  0  0  0  0  0  0  0
   -2.9207   -0.0385   -2.1375 H   0  0  0  0  0  0  0  0  0  0  0  0
   -2.9296    1.4560   -1.2004 H   0  0  0  0  0  0  0  0  0  0  0  0
   -2.9547   -1.1852    1.8689 H   0  0  0  0  0  0  0  0  0  0  0  0
    2.5992    1.4546    1.5900 H   0  0  0  0  0  0  0  0  0  0  0  0
    0.9778    1.8945    2.0414 H   0  0  0  0  0  0  0  0  0  0  0  0
    1.5443    0.2280    2.2721 H   0  0  0  0  0  0  0  0  0  0  0  0
    1.5415    1.2898   -1.8487 H   0  0  0  0  0  0  0  0  0  0  0  0
    2.5623    2.0656   -0.6531 H   0  0  0  0  0  0  0  0  0  0  0  0
    0.9310    2.6282   -0.8483 H   0  0  0  0  0  0  0  0  0  0  0  0
   -5.2259    0.3515   -0.2517 H   0  0  0  0  0  0  0  0  0  0  0  0
   -5.0525   -1.0850    0.7650 H   0  0  0  0  0  0  0  0  0  0  0  0
   -4.8703   -1.2264   -0.9886 H   0  0  0  0  0  0  0  0  0  0  0  0
    2.8403   -2.3206   -1.5675 H   0  0  0  0  0  0  0  0  0  0  0  0
    2.8556   -2.7914    0.1673 H   0  0  0  0  0  0  0  0  0  0  0  0
    4.3312   -2.1856   -0.6127 H   0  0  0  0  0  0  0  0  0  0  0  0
  1  4  1  0  0  0  0
  1 13  1  0  0  0  0
  2 13  2  0  0  0  0
  3  4  1  0  0  0  0
  3  5  1  0  0  0  0
  3  6  1  0  0  0  0
  3 15  1  0  0  0  0
  4 10  1  0  0  0  0
  4 11  1  0  0  0  0
  5  7  1  0  0  0  0
  5 16  1  0  0  0  0
  5 17  1  0  0  0  0
  6  9  1  0  0  0  0
  6 18  1  0  0  0  0
  6 19  1  0  0  0  0
  7  8  1  0  0  0  0
  7 20  1  0  0  0  0
  7 21  1  0  0  0  0
  8  9  2  0  0  0  0
  8 12  1  0  0  0  0
  9 22  1  0  0  0  0
 10 23  1  0  0  0  0
 10 24  1  0  0  0  0
 10 25  1  0  0  0  0
 11 26  1  0  0  0  0
 11 27  1  0  0  0  0
 11 28  1  0  0  0  0
 12 29  1  0  0  0  0
 12 30  1  0  0  0  0
 12 31  1  0  0  0  0
 13 14  1  0  0  0  0
 14 32  1  0  0  0  0
 14 33  1  0  0  0  0
 14 34  1  0  0  0  0
M  END
> <PUBCHEM_COMPOUND_CID>
111037

> <PUBCHEM_CONFORMER_RMSD>
0.6

> <PUBCHEM_CONFORMER_DIVERSEORDER>
1
4
6
3
5
2

> <PUBCHEM_MMFF94_PARTIAL_CHARGES>
11
1 -0.43
12 0.14
13 0.66
14 0.06
2 -0.57
22 0.15
4 0.28
6 0.14
7 0.14
8 -0.28
9 -0.29

> <PUBCHEM_EFFECTIVE_ROTOR_COUNT>
3.8

> <PUBCHEM_PHARMACOPHORE_FEATURES>
3
1 2 acceptor
3 4 10 11 hydrophobe
6 3 5 6 7 8 9 rings

> <PUBCHEM_HEAVY_ATOM_COUNT>
14

> <PUBCHEM_ATOM_DEF_STEREO_COUNT>
0

> <PUBCHEM_ATOM_UDEF_STEREO_COUNT>
1

> <PUBCHEM_BOND_DEF_STEREO_COUNT>
0

> <PUBCHEM_BOND_UDEF_STEREO_COUNT>
0

> <PUBCHEM_ISOTOPIC_ATOM_COUNT>
0

> <PUBCHEM_COMPONENT_COUNT>
1

> <PUBCHEM_CACTVS_TAUTO_COUNT>
1

> <PUBCHEM_CONFORMER_ID>
0001B1BD00000001

> <PUBCHEM_MMFF94_ENERGY>
29.4448

> <PUBCHEM_FEATURE_SELFOVERLAP>
15.223

> <PUBCHEM_SHAPE_FINGERPRINT>
10130415 120 16153430515323016011
10465860 71 17131822196703601310
11769659 78 18187085095632144430
12251169 10 15140685782226808482
12932764 1 17603588487119039945
13296908 3 18339363075491969094
13538477 17 16226335789702349421
13571099 22 18409446986007306851
13581323 91 14996283630200743323
13705890 14 18272651272818440726
14144814 61 16660641864523812592
14344429 50 17095520656545380664
14350558 41 18334572443015590598
15219456 202 17988075569758427164
15375462 189 17603591832935324438
15477762 27 18411980252155085766
16945 1 18339624677697153584
1813 80 17750776909416381324
18186145 218 17561092384559980013
200 152 18333170578474786147
20201158 50 18273493476797001402
20233049 118 16630536136791501108
20279233 1 18202843244973911786
20281407 28 18408881854073427110
20361792 2 17894633685941350708
20388701 513 14635141373957425355
20523700 14 15410897340505887907
20559304 39 16008741394640454280
20645477 70 18413388713776446455
20671657 53 18270391806461680534
20871999 31 17631721785522502990
21119208 17 14764629724320576106
21501925 9 15574432111620624681
22445834 79 17312821597476068711
22485316 2 18333453140315742543
2255824 54 17676774150127692784
22802520 49 17632002070756297153
228727 97 15554444132340941189
231179 274 9799695887329067850
23402539 116 17131846368874404222
23526113 38 18201716275683457794
23557571 272 16915359014607612616
23559900 14 17203607074083894936
2748010 2 16843589475810845761
3286 77 18186523189793379099
474 4 17243033249746866160
4990 188 17918276441829693579
528886 8 13398627247296665392
633830 44 17918001555659694111
7364860 26 18128813041081930212
77492 1 16877943819341225577
90316 7 15792011237541189211

> <PUBCHEM_SHAPE_MULTIPOLES>
276.37
6.79
1.46
1.28
2.82
0.23
0.21
2.71
-0.78
-1.47
-0.22
0.18
-0.23
0.66

> <PUBCHEM_SHAPE_SELFOVERLAP>
553.299

> <PUBCHEM_SHAPE_VOLUME>
162.2

> <PUBCHEM_COORDINATE_TYPE>
2
5
10

$$$$

