5021
  -OEChem-06261200283D

 40 43  0     1  0  0  0  0  0999 V2000
    2.5410    1.7593    0.6454 O   0  0  0  0  0  0  0  0  0  0  0  0
    4.6017    0.0332    0.5542 O   0  0  0  0  0  0  0  0  0  0  0  0
   -3.0542   -1.6038   -0.1264 N   0  0  2  0  0  0  0  0  0  0  0  0
   -1.6893   -1.1222    0.2113 C   0  0  2  0  0  0  0  0  0  0  0  0
   -1.5209    0.3873    0.0074 C   0  0  0  0  0  0  0  0  0  0  0  0
   -0.6089   -1.8589   -0.6127 C   0  0  0  0  0  0  0  0  0  0  0  0
   -2.6527    1.2249   -0.0339 C   0  0  0  0  0  0  0  0  0  0  0  0
   -4.0601   -0.7791    0.5619 C   0  0  0  0  0  0  0  0  0  0  0  0
   -4.0385    0.6440    0.0120 C   0  0  0  0  0  0  0  0  0  0  0  0
   -0.2163    0.9377   -0.0744 C   0  0  0  0  0  0  0  0  0  0  0  0
    0.7758   -1.3379   -0.2984 C   0  0  0  0  0  0  0  0  0  0  0  0
    0.9585    0.0369   -0.0352 C   0  0  0  0  0  0  0  0  0  0  0  0
   -3.2547   -3.0090    0.2429 C   0  0  0  0  0  0  0  0  0  0  0  0
   -2.4930    2.6054   -0.1868 C   0  0  0  0  0  0  0  0  0  0  0  0
   -0.0958    2.3310   -0.2251 C   0  0  0  0  0  0  0  0  0  0  0  0
    1.8699   -2.2168   -0.3117 C   0  0  0  0  0  0  0  0  0  0  0  0
    2.2614    0.4793    0.2560 C   0  0  0  0  0  0  0  0  0  0  0  0
   -1.2204    3.1551   -0.2786 C   0  0  0  0  0  0  0  0  0  0  0  0
    3.3447   -0.4043    0.2581 C   0  0  0  0  0  0  0  0  0  0  0  0
    3.1502   -1.7498   -0.0313 C   0  0  0  0  0  0  0  0  0  0  0  0
    5.4017    0.4875   -0.5349 C   0  0  0  0  0  0  0  0  0  0  0  0
   -1.5032   -1.3038    1.2812 H   0  0  0  0  0  0  0  0  0  0  0  0
   -0.7866   -1.7368   -1.6895 H   0  0  0  0  0  0  0  0  0  0  0  0
   -0.6309   -2.9316   -0.3918 H   0  0  0  0  0  0  0  0  0  0  0  0
   -3.8845   -0.7736    1.6464 H   0  0  0  0  0  0  0  0  0  0  0  0
   -5.0677   -1.1828    0.4009 H   0  0  0  0  0  0  0  0  0  0  0  0
   -4.6862    1.2723    0.6352 H   0  0  0  0  0  0  0  0  0  0  0  0
   -4.4470    0.6513   -1.0067 H   0  0  0  0  0  0  0  0  0  0  0  0
   -3.0414   -3.1929    1.3020 H   0  0  0  0  0  0  0  0  0  0  0  0
   -2.6336   -3.6750   -0.3629 H   0  0  0  0  0  0  0  0  0  0  0  0
   -4.2886   -3.3158    0.0452 H   0  0  0  0  0  0  0  0  0  0  0  0
   -3.3609    3.2573   -0.2425 H   0  0  0  0  0  0  0  0  0  0  0  0
    0.8582    2.8255   -0.3683 H   0  0  0  0  0  0  0  0  0  0  0  0
    1.7268   -3.2710   -0.5351 H   0  0  0  0  0  0  0  0  0  0  0  0
   -1.1010    4.2267   -0.4111 H   0  0  0  0  0  0  0  0  0  0  0  0
    3.9881   -2.4413   -0.0341 H   0  0  0  0  0  0  0  0  0  0  0  0
    3.4835    1.8315    0.8732 H   0  0  0  0  0  0  0  0  0  0  0  0
    4.9113    1.3125   -1.0614 H   0  0  0  0  0  0  0  0  0  0  0  0
    5.6013   -0.3342   -1.2300 H   0  0  0  0  0  0  0  0  0  0  0  0
    6.3541    0.8456   -0.1346 H   0  0  0  0  0  0  0  0  0  0  0  0
  1 17  1  0  0  0  0
  1 37  1  0  0  0  0
  2 19  1  0  0  0  0
  2 21  1  0  0  0  0
  3  4  1  0  0  0  0
  3  8  1  0  0  0  0
  3 13  1  0  0  0  0
  4  5  1  0  0  0  0
  4  6  1  0  0  0  0
  4 22  1  0  0  0  0
  5  7  2  0  0  0  0
  5 10  1  0  0  0  0
  6 11  1  0  0  0  0
  6 23  1  0  0  0  0
  6 24  1  0  0  0  0
  7  9  1  0  0  0  0
  7 14  1  0  0  0  0
  8  9  1  0  0  0  0
  8 25  1  0  0  0  0
  8 26  1  0  0  0  0
  9 27  1  0  0  0  0
  9 28  1  0  0  0  0
 10 12  1  0  0  0  0
 10 15  2  0  0  0  0
 11 12  2  0  0  0  0
 11 16  1  0  0  0  0
 12 17  1  0  0  0  0
 13 29  1  0  0  0  0
 13 30  1  0  0  0  0
 13 31  1  0  0  0  0
 14 18  2  0  0  0  0
 14 32  1  0  0  0  0
 15 18  1  0  0  0  0
 15 33  1  0  0  0  0
 16 20  2  0  0  0  0
 16 34  1  0  0  0  0
 17 19  2  0  0  0  0
 18 35  1  0  0  0  0
 19 20  1  0  0  0  0
 20 36  1  0  0  0  0
 21 38  1  0  0  0  0
 21 39  1  0  0  0  0
 21 40  1  0  0  0  0
M  END
> <PUBCHEM_COMPOUND_CID>
5021

> <PUBCHEM_CONFORMER_RMSD>
0.6

> <PUBCHEM_CONFORMER_DIVERSEORDER>
1
4
2
6
5
3

> <PUBCHEM_MMFF94_PARTIAL_CHARGES>
25
1 -0.53
11 -0.14
13 0.27
14 -0.15
15 -0.15
16 -0.15
17 0.08
18 -0.15
19 0.08
2 -0.36
20 -0.15
21 0.28
3 -0.81
32 0.15
33 0.15
34 0.15
35 0.15
36 0.15
37 0.45
4 0.41
5 -0.14
6 0.14
7 -0.14
8 0.27
9 0.14

> <PUBCHEM_EFFECTIVE_ROTOR_COUNT>
1.8

> <PUBCHEM_PHARMACOPHORE_FEATURES>
7
1 1 donor
1 2 acceptor
1 3 cation
6 11 12 16 17 19 20 rings
6 3 4 5 7 8 9 rings
6 4 5 6 10 11 12 rings
6 5 7 10 14 15 18 rings

> <PUBCHEM_HEAVY_ATOM_COUNT>
21

> <PUBCHEM_ATOM_DEF_STEREO_COUNT>
0

> <PUBCHEM_ATOM_UDEF_STEREO_COUNT>
1

> <PUBCHEM_BOND_DEF_STEREO_COUNT>
0

> <PUBCHEM_BOND_UDEF_STEREO_COUNT>
0

> <PUBCHEM_ISOTOPIC_ATOM_COUNT>
0

> <PUBCHEM_COMPONENT_COUNT>
1

> <PUBCHEM_CACTVS_TAUTO_COUNT>
9

> <PUBCHEM_CONFORMER_ID>
0000139D00000001

> <PUBCHEM_MMFF94_ENERGY>
76.8085

> <PUBCHEM_FEATURE_SELFOVERLAP>
35.608

> <PUBCHEM_SHAPE_FINGERPRINT>
10319926 262 18265635332599192794
10366900 7 18114474421665493697
10411042 1 18195245503736235159
10493431 412 18119238704861032929
10498660 4 18412261770287243332
10608611 8 18264774435593396652
10616163 171 18410291410826786014
10670039 82 18342726417901893572
10759866 29 18200590419153627090
10906281 52 18336532920146787197
10967382 1 17906172854332084911
11132069 177 18408888451095649667
11578080 2 4677165728913950209
12011746 2 18408608075767918357
12035759 4 18056450929646623460
12173636 292 18051977218749516933
12236239 1 17775565338913878084
12390115 104 18043516425060326889
12403259 226 18336551632596446736
12553582 1 18339644421641006571
12633257 1 17904482148834933419
12730499 353 17118607411949261269
12788726 201 18272092716210362441
13140716 1 18337388219491130929
138480 1 15817066135874508741
14223421 5 18409168843672016786
14787075 74 18059289838662655162
14790565 3 18194674865939118588
15196674 1 18337677528171333802
15442244 35 18124036994630824338
16087824 20 18411139165564757157
16945 1 18266461095099454463
17357779 13 18266761133293980215
17492 89 18269837673776392618
17804303 29 18335419036819947336
1813 80 17489862747961931069
19591789 44 18121778331385319676
19784866 170 18409161117089492598
20510252 161 18263363766633659369
21029758 27 18268987600915844911
21267235 1 18338790126849739075
21421861 104 18058453290607885034
21501502 16 18267026239844461050
221490 88 18192706963458131886
2334 1 18337953389947710951
23402539 116 18410301289230643279
23557571 272 18334285500803845238
23559900 14 17975137857638682566
238 59 16688264057830878093
2748010 2 18408886248020136911
335352 9 17905609156917197975
34934 24 18412549838081197899
350125 39 18337390440416724568
474 4 17131254776528196508
5104073 3 18265898132435114528
7097593 13 17554063408228927514
81228 2 18272358824100179001
8809292 202 18267301117645981467
9709674 26 18263645232835884006

> <PUBCHEM_SHAPE_MULTIPOLES>
415.45
8.08
3.28
0.71
6.09
0.44
0
-0.9
0.52
-2.38
-0.24
0.1
-0.02
0.4

> <PUBCHEM_SHAPE_SELFOVERLAP>
921.537

> <PUBCHEM_SHAPE_VOLUME>
221.5

> <PUBCHEM_COORDINATE_TYPE>
2
5
10

$$$$

