47205514
  -OEChem-06241222592D

 38 40  0     1  0  0  0  0  0999 V2000
    3.7320    3.4055    0.0000 O   0  0  0  0  0  0  0  0  0  0  0  0
    2.8660   -0.0945    0.0000 O   0  0  0  0  0  0  0  0  0  0  0  0
    3.7320    1.4055    0.0000 N   0  0  0  0  0  0  0  0  0  0  0  0
    6.1808   -0.4309    0.0000 N   0  0  0  0  0  0  0  0  0  0  0  0
    2.8660    1.9055    0.0000 C   0  0  0  0  0  0  0  0  0  0  0  0
    2.8660    2.9055    0.0000 C   0  0  3  0  0  0  0  0  0  0  0  0
    4.5981    1.9055    0.0000 C   0  0  0  0  0  0  0  0  0  0  0  0
    4.5981    2.9055    0.0000 C   0  0  0  0  0  0  0  0  0  0  0  0
    3.7320    0.4055    0.0000 C   0  0  0  0  0  0  0  0  0  0  0  0
    2.0000    3.4055    0.0000 C   0  0  0  0  0  0  0  0  0  0  0  0
    4.5981   -0.0945    0.0000 C   0  0  0  0  0  0  0  0  0  0  0  0
    4.7026   -1.0891    0.0000 C   0  0  0  0  0  0  0  0  0  0  0  0
    5.5116    0.3122    0.0000 C   0  0  0  0  0  0  0  0  0  0  0  0
    3.9595   -1.7582    0.0000 C   0  0  0  0  0  0  0  0  0  0  0  0
    5.6808   -1.2970    0.0000 C   0  0  0  0  0  0  0  0  0  0  0  0
    3.0084   -1.4492    0.0000 C   0  0  0  0  0  0  0  0  0  0  0  0
    4.1674   -2.7363    0.0000 C   0  0  0  0  0  0  0  0  0  0  0  0
    2.2653   -2.1183    0.0000 C   0  0  0  0  0  0  0  0  0  0  0  0
    3.4242   -3.4055    0.0000 C   0  0  0  0  0  0  0  0  0  0  0  0
    2.4732   -3.0964    0.0000 C   0  0  0  0  0  0  0  0  0  0  0  0
    2.2554    2.0131    0.0000 H   0  0  0  0  0  0  0  0  0  0  0  0
    2.6540    1.3229    0.0000 H   0  0  0  0  0  0  0  0  0  0  0  0
    2.8660    3.5255    0.0000 H   0  0  0  0  0  0  0  0  0  0  0  0
    4.8101    1.3229    0.0000 H   0  0  0  0  0  0  0  0  0  0  0  0
    5.2087    2.0131    0.0000 H   0  0  0  0  0  0  0  0  0  0  0  0
    5.2087    2.7978    0.0000 H   0  0  0  0  0  0  0  0  0  0  0  0
    4.8101    3.4881    0.0000 H   0  0  0  0  0  0  0  0  0  0  0  0
    2.3100    3.9424    0.0000 H   0  0  0  0  0  0  0  0  0  0  0  0
    1.4631    3.7155    0.0000 H   0  0  0  0  0  0  0  0  0  0  0  0
    1.6900    2.8685    0.0000 H   0  0  0  0  0  0  0  0  0  0  0  0
    5.6405    0.9187    0.0000 H   0  0  0  0  0  0  0  0  0  0  0  0
    5.9329   -1.8634    0.0000 H   0  0  0  0  0  0  0  0  0  0  0  0
    6.7974   -0.3661    0.0000 H   0  0  0  0  0  0  0  0  0  0  0  0
    2.8795   -0.8427    0.0000 H   0  0  0  0  0  0  0  0  0  0  0  0
    4.7570   -2.9279    0.0000 H   0  0  0  0  0  0  0  0  0  0  0  0
    1.6756   -1.9267    0.0000 H   0  0  0  0  0  0  0  0  0  0  0  0
    3.5531   -4.0119    0.0000 H   0  0  0  0  0  0  0  0  0  0  0  0
    2.0124   -3.5113    0.0000 H   0  0  0  0  0  0  0  0  0  0  0  0
  1  6  1  0  0  0  0
  1  8  1  0  0  0  0
  2  9  2  0  0  0  0
  3  5  1  0  0  0  0
  3  7  1  0  0  0  0
  3  9  1  0  0  0  0
  4 13  1  0  0  0  0
  4 15  1  0  0  0  0
  4 33  1  0  0  0  0
  5  6  1  0  0  0  0
  5 21  1  0  0  0  0
  5 22  1  0  0  0  0
  6 10  1  0  0  0  0
  6 23  1  0  0  0  0
  7  8  1  0  0  0  0
  7 24  1  0  0  0  0
  7 25  1  0  0  0  0
  8 26  1  0  0  0  0
  8 27  1  0  0  0  0
  9 11  1  0  0  0  0
 10 28  1  0  0  0  0
 10 29  1  0  0  0  0
 10 30  1  0  0  0  0
 11 12  1  0  0  0  0
 11 13  2  0  0  0  0
 12 14  1  0  0  0  0
 12 15  2  0  0  0  0
 13 31  1  0  0  0  0
 14 16  2  0  0  0  0
 14 17  1  0  0  0  0
 15 32  1  0  0  0  0
 16 18  1  0  0  0  0
 16 34  1  0  0  0  0
 17 19  2  0  0  0  0
 17 35  1  0  0  0  0
 18 20  2  0  0  0  0
 18 36  1  0  0  0  0
 19 20  1  0  0  0  0
 19 37  1  0  0  0  0
 20 38  1  0  0  0  0
M  END
> <PUBCHEM_COMPOUND_CID>
47205514

> <PUBCHEM_COMPOUND_CANONICALIZED>
1

> <PUBCHEM_CACTVS_COMPLEXITY>
341

> <PUBCHEM_CACTVS_HBOND_ACCEPTOR>
2

> <PUBCHEM_CACTVS_HBOND_DONOR>
1

> <PUBCHEM_CACTVS_ROTATABLE_BOND>
2

> <PUBCHEM_CACTVS_SUBSKEYS>
AAADceB7MAAAAAAAAAAAAAAAAAAAAWAAAAA8QAAAAAAAAAABwAAAHgAQAAAADBThmgY+gJPJlACoAjF3VACCgCA1ACAI2aEoRNgKIHrA1ZGHIYhghgDYyccciMCOgAAAAAAAAAAAAAAAAAAAAAAAAAAAAA==

> <PUBCHEM_IUPAC_OPENEYE_NAME>
(2-methylmorpholin-4-yl)-(4-phenyl-1H-pyrrol-3-yl)methanone

> <PUBCHEM_IUPAC_CAS_NAME>
(2-methyl-4-morpholinyl)-(4-phenyl-1H-pyrrol-3-yl)methanone

> <PUBCHEM_IUPAC_NAME>
(2-methylmorpholin-4-yl)-(4-phenyl-1H-pyrrol-3-yl)methanone

> <PUBCHEM_IUPAC_SYSTEMATIC_NAME>
(2-methylmorpholin-4-yl)-(4-phenyl-1H-pyrrol-3-yl)methanone

> <PUBCHEM_IUPAC_TRADITIONAL_NAME>
(2-methylmorpholino)-(4-phenyl-1H-pyrrol-3-yl)methanone

> <PUBCHEM_IUPAC_INCHI>
InChI=1S/C16H18N2O2/c1-12-11-18(7-8-20-12)16(19)15-10-17-9-14(15)13-5-3-2-4-6-13/h2-6,9-10,12,17H,7-8,11H2,1H3

> <PUBCHEM_IUPAC_INCHIKEY>
ZNWGIUQJJBLDFX-UHFFFAOYSA-N

> <PUBCHEM_XLOGP3_AA>
1.9

> <PUBCHEM_EXACT_MASS>
270.136828

> <PUBCHEM_MOLECULAR_FORMULA>
C16H18N2O2

> <PUBCHEM_MOLECULAR_WEIGHT>
270.32632

> <PUBCHEM_OPENEYE_CAN_SMILES>
CC1CN(CCO1)C(=O)C2=CNC=C2C3=CC=CC=C3

> <PUBCHEM_OPENEYE_ISO_SMILES>
CC1CN(CCO1)C(=O)C2=CNC=C2C3=CC=CC=C3

> <PUBCHEM_CACTVS_TPSA>
45.3

> <PUBCHEM_MONOISOTOPIC_WEIGHT>
270.136828

> <PUBCHEM_TOTAL_CHARGE>
0

> <PUBCHEM_HEAVY_ATOM_COUNT>
20

> <PUBCHEM_ATOM_DEF_STEREO_COUNT>
0

> <PUBCHEM_ATOM_UDEF_STEREO_COUNT>
1

> <PUBCHEM_BOND_DEF_STEREO_COUNT>
0

> <PUBCHEM_BOND_UDEF_STEREO_COUNT>
0

> <PUBCHEM_ISOTOPIC_ATOM_COUNT>
0

> <PUBCHEM_COMPONENT_COUNT>
1

> <PUBCHEM_CACTVS_TAUTO_COUNT>
3

> <PUBCHEM_COORDINATE_TYPE>
1
5
255

> <PUBCHEM_BONDANNOTATIONS>
11  12  8
11  13  8
12  15  8
14  16  8
14  17  8
16  18  8
17  19  8
18  20  8
19  20  8
4  13  8
4  15  8
6  10  3

$$$$

