11954106
  -OEChem-07051213062D

 60 65  0     1  0  0  0  0  0999 V2000
    4.2742   -4.1642    0.0000 O   0  0  0  0  0  0  0  0  0  0  0  0
    3.9933    3.8030    0.0000 N   0  0  0  0  0  0  0  0  0  0  0  0
    2.9021   -0.7381    0.0000 C   0  0  2  0  0  0  0  0  0  0  0  0
    3.8001   -0.2103    0.0000 C   0  0  1  0  0  0  0  0  0  0  0  0
    2.8937   -1.8230    0.0000 C   0  0  1  0  0  0  0  0  0  0  0  0
    3.8334   -2.3655    0.0000 C   0  0  2  0  0  0  0  0  0  0  0  0
    3.7841    0.8312    0.0000 C   0  0  2  0  0  0  0  0  0  0  0  0
    2.9180    1.3312    0.0000 C   0  0  1  0  0  0  0  0  0  0  0  0
    4.7520   -0.7309    0.0000 C   0  0  0  0  0  0  0  0  0  0  0  0
    4.7688   -1.8158    0.0000 C   0  0  0  0  0  0  0  0  0  0  0  0
    2.0000   -0.2173    0.0000 C   0  0  0  0  0  0  0  0  0  0  0  0
    2.0941   -2.5468    0.0000 C   0  0  0  0  0  0  0  0  0  0  0  0
    3.6064   -3.4200    0.0000 C   0  0  2  0  0  0  0  0  0  0  0  0
    2.0080    0.8243    0.0000 C   0  0  0  0  0  0  0  0  0  0  0  0
    2.5336   -3.5318    0.0000 C   0  0  0  0  0  0  0  0  0  0  0  0
    4.6501    1.3312    0.0000 C   0  0  0  0  0  0  0  0  0  0  0  0
    2.9180    2.3312    0.0000 C   0  0  0  0  0  0  0  0  0  0  0  0
    4.6994   -2.8655    0.0000 C   0  0  0  0  0  0  0  0  0  0  0  0
    4.6501    0.3312    0.0000 C   0  0  0  0  0  0  0  0  0  0  0  0
    4.6501    2.3312    0.0000 C   0  0  0  0  0  0  0  0  0  0  0  0
    3.7841    2.8312    0.0000 C   0  0  0  0  0  0  0  0  0  0  0  0
    5.3871    2.9983    0.0000 C   0  0  0  0  0  0  0  0  0  0  0  0
    4.9820    3.9061    0.0000 C   0  0  0  0  0  0  0  0  0  0  0  0
    6.4152    2.8751    0.0000 C   0  0  0  0  0  0  0  0  0  0  0  0
    5.5769    4.7536    0.0000 C   0  0  0  0  0  0  0  0  0  0  0  0
    7.0296    3.7086    0.0000 C   0  0  0  0  0  0  0  0  0  0  0  0
    6.6076    4.6542    0.0000 C   0  0  0  0  0  0  0  0  0  0  0  0
    2.1643   -1.1602    0.0000 H   0  0  0  0  0  0  0  0  0  0  0  0
    4.5279    0.2288    0.0000 H   0  0  0  0  0  0  0  0  0  0  0  0
    2.1181   -1.4753    0.0000 H   0  0  0  0  0  0  0  0  0  0  0  0
    2.1852    1.7618    0.0000 H   0  0  0  0  0  0  0  0  0  0  0  0
    5.3645   -0.8276    0.0000 H   0  0  0  0  0  0  0  0  0  0  0  0
    4.9521   -0.1441    0.0000 H   0  0  0  0  0  0  0  0  0  0  0  0
    4.9868   -2.3962    0.0000 H   0  0  0  0  0  0  0  0  0  0  0  0
    5.3779   -1.7003    0.0000 H   0  0  0  0  0  0  0  0  0  0  0  0
    1.3900   -0.1065    0.0000 H   0  0  0  0  0  0  0  0  0  0  0  0
    1.7864   -0.7993    0.0000 H   0  0  0  0  0  0  0  0  0  0  0  0
    1.7286   -2.0460    0.0000 H   0  0  0  0  0  0  0  0  0  0  0  0
    1.5576   -2.8576    0.0000 H   0  0  0  0  0  0  0  0  0  0  0  0
    3.3834   -3.9985    0.0000 H   0  0  0  0  0  0  0  0  0  0  0  0
    1.8035    1.4096    0.0000 H   0  0  0  0  0  0  0  0  0  0  0  0
    1.3964    0.7230    0.0000 H   0  0  0  0  0  0  0  0  0  0  0  0
    1.9440   -3.7235    0.0000 H   0  0  0  0  0  0  0  0  0  0  0  0
    2.6623   -4.1382    0.0000 H   0  0  0  0  0  0  0  0  0  0  0  0
    4.8621    0.7486    0.0000 H   0  0  0  0  0  0  0  0  0  0  0  0
    5.2607    1.4388    0.0000 H   0  0  0  0  0  0  0  0  0  0  0  0
    2.7060    2.9138    0.0000 H   0  0  0  0  0  0  0  0  0  0  0  0
    2.3074    2.2235    0.0000 H   0  0  0  0  0  0  0  0  0  0  0  0
    4.3894   -3.4025    0.0000 H   0  0  0  0  0  0  0  0  0  0  0  0
    5.2363   -3.1755    0.0000 H   0  0  0  0  0  0  0  0  0  0  0  0
    5.0094   -2.3286    0.0000 H   0  0  0  0  0  0  0  0  0  0  0  0
    4.3401   -0.2057    0.0000 H   0  0  0  0  0  0  0  0  0  0  0  0
    5.1870    0.0212    0.0000 H   0  0  0  0  0  0  0  0  0  0  0  0
    4.9601    0.8681    0.0000 H   0  0  0  0  0  0  0  0  0  0  0  0
    4.0816   -4.7536    0.0000 H   0  0  0  0  0  0  0  0  0  0  0  0
    3.5792    4.2645    0.0000 H   0  0  0  0  0  0  0  0  0  0  0  0
    6.6613    2.3060    0.0000 H   0  0  0  0  0  0  0  0  0  0  0  0
    5.3177    5.3168    0.0000 H   0  0  0  0  0  0  0  0  0  0  0  0
    7.6460    3.6419    0.0000 H   0  0  0  0  0  0  0  0  0  0  0  0
    6.9696    5.1575    0.0000 H   0  0  0  0  0  0  0  0  0  0  0  0
 13  1  1  1  0  0  0
  1 55  1  0  0  0  0
  2 21  1  0  0  0  0
  2 23  1  0  0  0  0
  2 56  1  0  0  0  0
  3  4  1  0  0  0  0
  3  5  1  0  0  0  0
  3 11  1  0  0  0  0
  3 28  1  1  0  0  0
  4  7  1  0  0  0  0
  4  9  1  0  0  0  0
  4 29  1  6  0  0  0
  5  6  1  0  0  0  0
  5 12  1  0  0  0  0
  5 30  1  6  0  0  0
  6 10  1  0  0  0  0
  6 13  1  0  0  0  0
  6 18  1  1  0  0  0
  7  8  1  0  0  0  0
  7 16  1  0  0  0  0
  7 19  1  1  0  0  0
  8 14  1  0  0  0  0
  8 17  1  0  0  0  0
  8 31  1  6  0  0  0
  9 10  1  0  0  0  0
  9 32  1  0  0  0  0
  9 33  1  0  0  0  0
 10 34  1  0  0  0  0
 10 35  1  0  0  0  0
 11 14  1  0  0  0  0
 11 36  1  0  0  0  0
 11 37  1  0  0  0  0
 12 15  1  0  0  0  0
 12 38  1  0  0  0  0
 12 39  1  0  0  0  0
 13 15  1  0  0  0  0
 13 40  1  0  0  0  0
 14 41  1  0  0  0  0
 14 42  1  0  0  0  0
 15 43  1  0  0  0  0
 15 44  1  0  0  0  0
 16 20  1  0  0  0  0
 16 45  1  0  0  0  0
 16 46  1  0  0  0  0
 17 21  1  0  0  0  0
 17 47  1  0  0  0  0
 17 48  1  0  0  0  0
 18 49  1  0  0  0  0
 18 50  1  0  0  0  0
 18 51  1  0  0  0  0
 19 52  1  0  0  0  0
 19 53  1  0  0  0  0
 19 54  1  0  0  0  0
 20 21  2  0  0  0  0
 20 22  1  0  0  0  0
 22 23  1  0  0  0  0
 22 24  2  0  0  0  0
 23 25  2  0  0  0  0
 24 26  1  0  0  0  0
 24 57  1  0  0  0  0
 25 27  1  0  0  0  0
 25 58  1  0  0  0  0
 26 27  2  0  0  0  0
 26 59  1  0  0  0  0
 27 60  1  0  0  0  0
M  END
> <PUBCHEM_COMPOUND_CID>
11954106

> <PUBCHEM_COMPOUND_CANONICALIZED>
1

> <PUBCHEM_CACTVS_COMPLEXITY>
605

> <PUBCHEM_CACTVS_HBOND_ACCEPTOR>
1

> <PUBCHEM_CACTVS_HBOND_DONOR>
2

> <PUBCHEM_CACTVS_ROTATABLE_BOND>
0

> <PUBCHEM_CACTVS_SUBSKEYS>
AAADcfB6IAAAAAAAAAAAAAAAAAAAAeIAAAAwYMGAAAAAAHjB8AAAHgAQCAAADxyhngIywPLJkgCgAyRiRACCgCAhAiAImSAwZJgIMOLAkZGEYAhkkADIyAeQwPAPgAAAAAACAACQAASAACQAAIAADAAAAA==

> <PUBCHEM_IUPAC_INCHI>
InChI=1S/C25H33NO/c1-24-12-11-20-17(19(24)9-10-23(24)27)8-7-15-13-22-18(14-25(15,20)2)16-5-3-4-6-21(16)26-22/h3-6,15,17,19-20,23,26-27H,7-14H2,1-2H3/t15-,17-,19-,20-,23-,24-,25-/m0/s1

> <PUBCHEM_IUPAC_INCHIKEY>
XAPHYNIJAGNNNA-YFTOQCAPSA-N

> <PUBCHEM_XLOGP3_AA>
6.1

> <PUBCHEM_EXACT_MASS>
363.256215

> <PUBCHEM_MOLECULAR_FORMULA>
C25H33NO

> <PUBCHEM_MOLECULAR_WEIGHT>
363.53562

> <PUBCHEM_OPENEYE_CAN_SMILES>
CC12CCC3C(C1CCC2O)CCC4C3(CC5=C(C4)NC6=CC=CC=C56)C

> <PUBCHEM_OPENEYE_ISO_SMILES>
C[C@]12CC[C@H]3[C@H]([C@@H]1CC[C@@H]2O)CC[C@@H]4[C@@]3(CC5=C(C4)NC6=CC=CC=C56)C

> <PUBCHEM_CACTVS_TPSA>
36

> <PUBCHEM_MONOISOTOPIC_WEIGHT>
363.256215

> <PUBCHEM_TOTAL_CHARGE>
0

> <PUBCHEM_HEAVY_ATOM_COUNT>
27

> <PUBCHEM_ATOM_DEF_STEREO_COUNT>
7

> <PUBCHEM_ATOM_UDEF_STEREO_COUNT>
0

> <PUBCHEM_BOND_DEF_STEREO_COUNT>
0

> <PUBCHEM_BOND_UDEF_STEREO_COUNT>
0

> <PUBCHEM_ISOTOPIC_ATOM_COUNT>
0

> <PUBCHEM_COMPONENT_COUNT>
1

> <PUBCHEM_CACTVS_TAUTO_COUNT>
1

> <PUBCHEM_COORDINATE_TYPE>
1
5
255

> <PUBCHEM_BONDANNOTATIONS>
13  1  5
2  21  8
2  23  8
20  21  8
20  22  8
22  23  8
22  24  8
23  25  8
24  26  8
25  27  8
26  27  8
3  28  5
4  29  6
5  30  6
6  18  5
7  19  5
8  31  6

$$$$

