3975
  -OEChem-06251223482D

 50 51  0     1  0  0  0  0  0999 V2000
    2.8660   -4.8450    0.0000 O   0  0  0  0  0  0  0  0  0  0  0  0
    2.0000   -3.3450    0.0000 O   0  0  0  0  0  0  0  0  0  0  0  0
    5.4641   -2.3450    0.0000 O   0  0  0  0  0  0  0  0  0  0  0  0
    5.4641   -6.3450    0.0000 O   0  0  0  0  0  0  0  0  0  0  0  0
    6.3301   -4.8450    0.0000 O   0  0  0  0  0  0  0  0  0  0  0  0
    6.3301    2.1550    0.0000 O   0  0  0  0  0  0  0  0  0  0  0  0
    7.1962    6.6550    0.0000 O   0  0  0  0  0  0  0  0  0  0  0  0
    3.7320   -2.3450    0.0000 N   0  0  0  0  0  0  0  0  0  0  0  0
    4.5981    2.1550    0.0000 N   0  0  0  0  0  0  0  0  0  0  0  0
    5.4641    3.6550    0.0000 N   0  0  0  0  0  0  0  0  0  0  0  0
    7.1962    3.6550    0.0000 N   0  0  0  0  0  0  0  0  0  0  0  0
    8.0622    5.1550    0.0000 N   0  0  0  0  0  0  0  0  0  0  0  0
    5.4641    5.6550    0.0000 N   0  0  0  0  0  0  0  0  0  0  0  0
    8.9282    3.6550    0.0000 N   0  0  0  0  0  0  0  0  0  0  0  0
    3.7320   -3.3450    0.0000 C   0  0  3  0  0  0  0  0  0  0  0  0
    4.5981   -3.8450    0.0000 C   0  0  0  0  0  0  0  0  0  0  0  0
    4.5981   -4.8450    0.0000 C   0  0  0  0  0  0  0  0  0  0  0  0
    2.8660   -3.8450    0.0000 C   0  0  0  0  0  0  0  0  0  0  0  0
    4.5981   -1.8450    0.0000 C   0  0  0  0  0  0  0  0  0  0  0  0
    4.5981   -0.8450    0.0000 C   0  0  0  0  0  0  0  0  0  0  0  0
    5.4641   -5.3450    0.0000 C   0  0  0  0  0  0  0  0  0  0  0  0
    5.4641   -0.3450    0.0000 C   0  0  0  0  0  0  0  0  0  0  0  0
    3.7320   -0.3450    0.0000 C   0  0  0  0  0  0  0  0  0  0  0  0
    4.5981    1.1550    0.0000 C   0  0  0  0  0  0  0  0  0  0  0  0
    5.4641    0.6550    0.0000 C   0  0  0  0  0  0  0  0  0  0  0  0
    3.7320    0.6550    0.0000 C   0  0  0  0  0  0  0  0  0  0  0  0
    6.3301    4.1550    0.0000 C   0  0  0  0  0  0  0  0  0  0  0  0
    5.4641    2.6550    0.0000 C   0  0  0  0  0  0  0  0  0  0  0  0
    6.3301    5.1550    0.0000 C   0  0  0  0  0  0  0  0  0  0  0  0
    8.0622    4.1550    0.0000 C   0  0  0  0  0  0  0  0  0  0  0  0
    7.1962    5.6550    0.0000 C   0  0  0  0  0  0  0  0  0  0  0  0
    4.2690   -3.0350    0.0000 H   0  0  0  0  0  0  0  0  0  0  0  0
    5.2087   -3.9527    0.0000 H   0  0  0  0  0  0  0  0  0  0  0  0
    4.8101   -3.2624    0.0000 H   0  0  0  0  0  0  0  0  0  0  0  0
    3.9875   -4.7373    0.0000 H   0  0  0  0  0  0  0  0  0  0  0  0
    4.3860   -5.4276    0.0000 H   0  0  0  0  0  0  0  0  0  0  0  0
    3.1951   -2.0350    0.0000 H   0  0  0  0  0  0  0  0  0  0  0  0
    6.0010   -0.6550    0.0000 H   0  0  0  0  0  0  0  0  0  0  0  0
    3.1951   -0.6550    0.0000 H   0  0  0  0  0  0  0  0  0  0  0  0
    6.0010    0.9650    0.0000 H   0  0  0  0  0  0  0  0  0  0  0  0
    3.1951    0.9650    0.0000 H   0  0  0  0  0  0  0  0  0  0  0  0
    4.0611    2.4650    0.0000 H   0  0  0  0  0  0  0  0  0  0  0  0
    2.3291   -5.1550    0.0000 H   0  0  0  0  0  0  0  0  0  0  0  0
    4.9272    3.9650    0.0000 H   0  0  0  0  0  0  0  0  0  0  0  0
    7.1962    3.0350    0.0000 H   0  0  0  0  0  0  0  0  0  0  0  0
    6.0010   -6.6550    0.0000 H   0  0  0  0  0  0  0  0  0  0  0  0
    5.4641    6.2750    0.0000 H   0  0  0  0  0  0  0  0  0  0  0  0
    4.9272    5.3450    0.0000 H   0  0  0  0  0  0  0  0  0  0  0  0
    9.4651    3.9650    0.0000 H   0  0  0  0  0  0  0  0  0  0  0  0
    8.9282    3.0350    0.0000 H   0  0  0  0  0  0  0  0  0  0  0  0
  1 18  1  0  0  0  0
  1 43  1  0  0  0  0
  2 18  2  0  0  0  0
  3 19  2  0  0  0  0
  4 21  1  0  0  0  0
  4 46  1  0  0  0  0
  5 21  2  0  0  0  0
  6 28  2  0  0  0  0
  7 31  2  0  0  0  0
  8 15  1  0  0  0  0
  8 19  1  0  0  0  0
  8 37  1  0  0  0  0
  9 24  1  0  0  0  0
  9 28  1  0  0  0  0
  9 42  1  0  0  0  0
 10 27  1  0  0  0  0
 10 28  1  0  0  0  0
 10 44  1  0  0  0  0
 11 27  1  0  0  0  0
 11 30  1  0  0  0  0
 11 45  1  0  0  0  0
 12 30  2  0  0  0  0
 12 31  1  0  0  0  0
 13 29  1  0  0  0  0
 13 47  1  0  0  0  0
 13 48  1  0  0  0  0
 14 30  1  0  0  0  0
 14 49  1  0  0  0  0
 14 50  1  0  0  0  0
 15 16  1  0  0  0  0
 15 18  1  0  0  0  0
 15 32  1  0  0  0  0
 16 17  1  0  0  0  0
 16 33  1  0  0  0  0
 16 34  1  0  0  0  0
 17 21  1  0  0  0  0
 17 35  1  0  0  0  0
 17 36  1  0  0  0  0
 19 20  1  0  0  0  0
 20 22  2  0  0  0  0
 20 23  1  0  0  0  0
 22 25  1  0  0  0  0
 22 38  1  0  0  0  0
 23 26  2  0  0  0  0
 23 39  1  0  0  0  0
 24 25  2  0  0  0  0
 24 26  1  0  0  0  0
 25 40  1  0  0  0  0
 26 41  1  0  0  0  0
 27 29  2  0  0  0  0
 29 31  1  0  0  0  0
M  END
> <PUBCHEM_COMPOUND_CID>
3975

> <PUBCHEM_COMPOUND_CANONICALIZED>
1

> <PUBCHEM_CACTVS_COMPLEXITY>
831

> <PUBCHEM_CACTVS_HBOND_ACCEPTOR>
8

> <PUBCHEM_CACTVS_HBOND_DONOR>
8

> <PUBCHEM_CACTVS_ROTATABLE_BOND>
8

> <PUBCHEM_CACTVS_SUBSKEYS>
AAADceB7uAAAAAAAAAAAAAAAAAAAAAAAAAAwQAAAAAAAAAABAAAAHgAQCAAADCjBmAQxyILAAgCoAiXSfACCAAElAgAJiIGIZMiKYDLAlbGEYQhslwLYyee8rwCeCAAAAAAAAAAQAAAAAAAAAAAAAAAAAA==

> <PUBCHEM_IUPAC_OPENEYE_NAME>
2-[[4-[(2,5-diamino-4-oxo-1H-pyrimidin-6-yl)carbamoylamino]benzoyl]amino]pentanedioic acid

> <PUBCHEM_IUPAC_CAS_NAME>
2-[[[4-[[[(2,5-diamino-4-oxo-1H-pyrimidin-6-yl)amino]-oxomethyl]amino]phenyl]-oxomethyl]amino]pentanedioic acid

> <PUBCHEM_IUPAC_NAME>
2-[[4-[(2,5-diamino-4-oxo-1H-pyrimidin-6-yl)carbamoylamino]benzoyl]amino]pentanedioic acid

> <PUBCHEM_IUPAC_SYSTEMATIC_NAME>
2-[[4-[[2,5-bis(azanyl)-4-oxidanylidene-1H-pyrimidin-6-yl]carbamoylamino]phenyl]carbonylamino]pentanedioic acid

> <PUBCHEM_IUPAC_TRADITIONAL_NAME>
2-[[4-[(2,5-diamino-4-keto-1H-pyrimidin-6-yl)carbamoylamino]benzoyl]amino]glutaric acid

> <PUBCHEM_IUPAC_INCHI>
InChI=1S/C17H19N7O7/c18-11-12(22-16(19)24-14(11)28)23-17(31)20-8-3-1-7(2-4-8)13(27)21-9(15(29)30)5-6-10(25)26/h1-4,9H,5-6,18H2,(H,21,27)(H,25,26)(H,29,30)(H5,19,20,22,23,24,28,31)

> <PUBCHEM_IUPAC_INCHIKEY>
SZHRIPFGZWWRKW-UHFFFAOYSA-N

> <PUBCHEM_XLOGP3_AA>
-2.2

> <PUBCHEM_EXACT_MASS>
433.134596

> <PUBCHEM_MOLECULAR_FORMULA>
C17H19N7O7

> <PUBCHEM_MOLECULAR_WEIGHT>
433.37546

> <PUBCHEM_OPENEYE_CAN_SMILES>
C1=CC(=CC=C1C(=O)NC(CCC(=O)O)C(=O)O)NC(=O)NC2=C(C(=O)N=C(N2)N)N

> <PUBCHEM_OPENEYE_ISO_SMILES>
C1=CC(=CC=C1C(=O)NC(CCC(=O)O)C(=O)O)NC(=O)NC2=C(C(=O)N=C(N2)N)N

> <PUBCHEM_CACTVS_TPSA>
238

> <PUBCHEM_MONOISOTOPIC_WEIGHT>
433.134596

> <PUBCHEM_TOTAL_CHARGE>
0

> <PUBCHEM_HEAVY_ATOM_COUNT>
31

> <PUBCHEM_ATOM_DEF_STEREO_COUNT>
0

> <PUBCHEM_ATOM_UDEF_STEREO_COUNT>
1

> <PUBCHEM_BOND_DEF_STEREO_COUNT>
0

> <PUBCHEM_BOND_UDEF_STEREO_COUNT>
0

> <PUBCHEM_ISOTOPIC_ATOM_COUNT>
0

> <PUBCHEM_COMPONENT_COUNT>
1

> <PUBCHEM_CACTVS_TAUTO_COUNT>
269

> <PUBCHEM_COORDINATE_TYPE>
1
5
255

> <PUBCHEM_BONDANNOTATIONS>
11  27  8
11  30  8
12  30  8
12  31  8
15  16  3
20  22  8
20  23  8
22  25  8
23  26  8
24  25  8
24  26  8
27  29  8
29  31  8

$$$$

