440240
  -OEChem-07051212493D

 45 46  0     1  0  0  0  0  0999 V2000
   -0.2547    0.7131    0.0536 O   0  0  0  0  0  0  0  0  0  0  0  0
   -1.7825   -0.7390   -1.0317 O   0  0  0  0  0  0  0  0  0  0  0  0
    3.6213   -0.7369    0.1763 O   0  0  0  0  0  0  0  0  0  0  0  0
    1.9797    2.5392   -0.0890 O   0  0  0  0  0  0  0  0  0  0  0  0
   -1.8364    2.9173   -0.6634 O   0  0  0  0  0  0  0  0  0  0  0  0
    1.0753   -1.4761    1.1575 O   0  0  0  0  0  0  0  0  0  0  0  0
   -4.4366    2.1186    0.3250 O   0  0  0  0  0  0  0  0  0  0  0  0
   -4.3713   -0.4654    1.5783 O   0  0  0  0  0  0  0  0  0  0  0  0
    2.9015   -2.9008   -0.3791 O   0  0  0  0  0  0  0  0  0  0  0  0
    5.8428    0.8515    0.3858 O   0  0  0  0  0  0  0  0  0  0  0  0
   -1.8145   -3.3582   -0.2625 O   0  0  0  0  0  0  0  0  0  0  0  0
    1.0336    0.3462   -0.4325 C   0  0  1  0  0  0  0  0  0  0  0  0
    2.0993    1.1714    0.2936 C   0  0  1  0  0  0  0  0  0  0  0  0
   -1.2485    0.5847   -0.9613 C   0  0  1  0  0  0  0  0  0  0  0  0
   -2.3752    1.6085   -0.8130 C   0  0  1  0  0  0  0  0  0  0  0  0
    1.2674   -1.1497   -0.2225 C   0  0  1  0  0  0  0  0  0  0  0  0
   -3.2724    1.2910    0.3818 C   0  0  2  0  0  0  0  0  0  0  0  0
   -3.7208   -0.1713    0.3443 C   0  0  1  0  0  0  0  0  0  0  0  0
    3.5043    0.6689   -0.0667 C   0  0  1  0  0  0  0  0  0  0  0  0
   -2.5272   -1.1126    0.1332 C   0  0  1  0  0  0  0  0  0  0  0  0
    2.7036   -1.5081   -0.6026 C   0  0  1  0  0  0  0  0  0  0  0  0
    4.5787    1.3684    0.7598 C   0  0  0  0  0  0  0  0  0  0  0  0
   -2.9673   -2.5606   -0.0648 C   0  0  0  0  0  0  0  0  0  0  0  0
    1.1243    0.5798   -1.5022 H   0  0  0  0  0  0  0  0  0  0  0  0
    1.9321    1.1258    1.3760 H   0  0  0  0  0  0  0  0  0  0  0  0
   -0.8007    0.7929   -1.9408 H   0  0  0  0  0  0  0  0  0  0  0  0
   -2.9906    1.6119   -1.7213 H   0  0  0  0  0  0  0  0  0  0  0  0
    0.5580   -1.7569   -0.7895 H   0  0  0  0  0  0  0  0  0  0  0  0
   -2.7637    1.5277    1.3244 H   0  0  0  0  0  0  0  0  0  0  0  0
   -4.4543   -0.3107   -0.4604 H   0  0  0  0  0  0  0  0  0  0  0  0
    3.7235    0.8508   -1.1277 H   0  0  0  0  0  0  0  0  0  0  0  0
   -1.8567   -1.0827    1.0022 H   0  0  0  0  0  0  0  0  0  0  0  0
    2.8909   -1.3214   -1.6662 H   0  0  0  0  0  0  0  0  0  0  0  0
    4.4451    1.1812    1.8305 H   0  0  0  0  0  0  0  0  0  0  0  0
    4.5821    2.4486    0.5885 H   0  0  0  0  0  0  0  0  0  0  0  0
   -3.6063   -2.6691   -0.9474 H   0  0  0  0  0  0  0  0  0  0  0  0
   -3.5057   -2.9396    0.8086 H   0  0  0  0  0  0  0  0  0  0  0  0
    2.1305    2.5984   -1.0478 H   0  0  0  0  0  0  0  0  0  0  0  0
   -1.2463    2.9082    0.1096 H   0  0  0  0  0  0  0  0  0  0  0  0
    1.8159   -1.1056    1.6664 H   0  0  0  0  0  0  0  0  0  0  0  0
   -4.9252    1.9978    1.1564 H   0  0  0  0  0  0  0  0  0  0  0  0
   -5.2003    0.0410    1.6043 H   0  0  0  0  0  0  0  0  0  0  0  0
    2.3932   -3.1561    0.4091 H   0  0  0  0  0  0  0  0  0  0  0  0
    5.8265   -0.1081    0.5426 H   0  0  0  0  0  0  0  0  0  0  0  0
   -1.3774   -3.0446   -1.0725 H   0  0  0  0  0  0  0  0  0  0  0  0
  1 12  1  0  0  0  0
  1 14  1  0  0  0  0
  2 14  1  0  0  0  0
  2 20  1  0  0  0  0
  3 19  1  0  0  0  0
  3 21  1  0  0  0  0
  4 13  1  0  0  0  0
  4 38  1  0  0  0  0
  5 15  1  0  0  0  0
  5 39  1  0  0  0  0
  6 16  1  0  0  0  0
  6 40  1  0  0  0  0
  7 17  1  0  0  0  0
  7 41  1  0  0  0  0
  8 18  1  0  0  0  0
  8 42  1  0  0  0  0
  9 21  1  0  0  0  0
  9 43  1  0  0  0  0
 10 22  1  0  0  0  0
 10 44  1  0  0  0  0
 11 23  1  0  0  0  0
 11 45  1  0  0  0  0
 12 13  1  0  0  0  0
 12 16  1  0  0  0  0
 12 24  1  0  0  0  0
 13 19  1  0  0  0  0
 13 25  1  0  0  0  0
 14 15  1  0  0  0  0
 14 26  1  0  0  0  0
 15 17  1  0  0  0  0
 15 27  1  0  0  0  0
 16 21  1  0  0  0  0
 16 28  1  0  0  0  0
 17 18  1  0  0  0  0
 17 29  1  0  0  0  0
 18 20  1  0  0  0  0
 18 30  1  0  0  0  0
 19 22  1  0  0  0  0
 19 31  1  0  0  0  0
 20 23  1  0  0  0  0
 20 32  1  0  0  0  0
 21 33  1  0  0  0  0
 22 34  1  0  0  0  0
 22 35  1  0  0  0  0
 23 36  1  0  0  0  0
 23 37  1  0  0  0  0
M  END
> <PUBCHEM_COMPOUND_CID>
440240

> <PUBCHEM_CONFORMER_RMSD>
0.8

> <PUBCHEM_CONFORMER_DIVERSEORDER>
1
14
60
36
65
61
8
19
68
58
10
59
63
48
27
29
50
21
52
64
6
28
43
3
39
33
17
5
57
2
9
66
44
41
42
56
67
46
37
45
24
49
11
15
51
12
18
30
54
53
7
34
35
16
38
4
55
31
23
40
25
26
62
22
20
13
47
32

> <PUBCHEM_MMFF94_PARTIAL_CHARGES>
31
1 -0.56
10 -0.68
11 -0.68
12 0.28
13 0.28
14 0.56
15 0.28
16 0.28
17 0.28
18 0.28
19 0.28
2 -0.56
20 0.28
21 0.56
22 0.28
23 0.28
3 -0.56
38 0.4
39 0.4
4 -0.68
40 0.4
41 0.4
42 0.4
43 0.4
44 0.4
45 0.4
5 -0.68
6 -0.68
7 -0.68
8 -0.68
9 -0.68

> <PUBCHEM_EFFECTIVE_ROTOR_COUNT>
6.4

> <PUBCHEM_PHARMACOPHORE_FEATURES>
21
1 1 acceptor
1 10 acceptor
1 10 donor
1 11 acceptor
1 11 donor
1 2 acceptor
1 3 acceptor
1 4 acceptor
1 4 donor
1 5 acceptor
1 5 donor
1 6 acceptor
1 6 donor
1 7 acceptor
1 7 donor
1 8 acceptor
1 8 donor
1 9 acceptor
1 9 donor
6 2 14 15 17 18 20 rings
6 3 12 13 16 19 21 rings

> <PUBCHEM_HEAVY_ATOM_COUNT>
23

> <PUBCHEM_ATOM_DEF_STEREO_COUNT>
10

> <PUBCHEM_ATOM_UDEF_STEREO_COUNT>
0

> <PUBCHEM_BOND_DEF_STEREO_COUNT>
0

> <PUBCHEM_BOND_UDEF_STEREO_COUNT>
0

> <PUBCHEM_ISOTOPIC_ATOM_COUNT>
0

> <PUBCHEM_COMPONENT_COUNT>
1

> <PUBCHEM_CACTVS_TAUTO_COUNT>
1

> <PUBCHEM_CONFORMER_ID>
0006B7B000000001

> <PUBCHEM_MMFF94_ENERGY>
65.7674

> <PUBCHEM_FEATURE_SELFOVERLAP>
106.686

> <PUBCHEM_SHAPE_FINGERPRINT>
10366900 7 18041856012183063803
10616163 171 18337671897543490718
1100329 8 15384435819341035005
11552529 35 17895193234565847927
12173636 292 18268151031813492973
12251169 10 18409444761309284085
12500047 106 18408890637471535921
12507560 40 18410287056057047393
12553582 1 18270108003480963223
12633257 1 18262228928973596985
13140716 1 18052535474071100552
13583140 156 17822016363170244225
14081887 123 18409173181631352873
14178342 30 18340491075511140854
14223421 5 18410294670627699557
15196674 1 18410293648341093431
15209289 33 18131634452453536856
17804303 29 18267854159336704559
1813 80 17203601584435378125
19591789 44 18123467443286087463
20510252 161 18334857277147480081
21065199 12 18411414050927291041
21673915 165 18339643343387904962
221490 88 18339636862725373446
23402539 116 17988653938929011388
23557571 272 18260822662112393676
23559900 14 18189902096632475406
34934 24 18408891762489301380
350125 39 18193557757872262472
3545911 37 18407759244085412736
5104073 3 18340483481972117001
6287921 2 18198053690745737252
9709674 26 18408603669015636039

> <PUBCHEM_SHAPE_MULTIPOLES>
408.77
9.27
3.14
0.94
5.14
1.13
-0.09
-2.06
-2.42
-1.21
0.37
-0.41
-0.01
0.57

> <PUBCHEM_SHAPE_SELFOVERLAP>
836.654

> <PUBCHEM_SHAPE_VOLUME>
230.9

> <PUBCHEM_COORDINATE_TYPE>
2
5
10

$$$$

