9470
  -OEChem-06261203443D

 30 31  0     1  0  0  0  0  0999 V2000
   -1.0938   -2.1523   -0.5448 O   0  0  0  0  0  0  0  0  0  0  0  0
    1.3313   -0.8531    0.3096 N   0  0  0  0  0  0  0  0  0  0  0  0
    3.7088   -1.0059    0.3220 N   0  0  0  0  0  0  0  0  0  0  0  0
   -1.1443   -1.0441    0.3637 C   0  0  1  0  0  0  0  0  0  0  0  0
    0.0746   -0.1303    0.1273 C   0  0  0  0  0  0  0  0  0  0  0  0
   -2.4357   -0.3215    0.1778 C   0  0  0  0  0  0  0  0  0  0  0  0
   -3.0388    0.3186    1.2606 C   0  0  0  0  0  0  0  0  0  0  0  0
   -3.0402   -0.2852   -1.0788 C   0  0  0  0  0  0  0  0  0  0  0  0
    2.5658   -0.2703    0.1360 C   0  0  0  0  0  0  0  0  0  0  0  0
   -4.2464    0.9946    1.0869 C   0  0  0  0  0  0  0  0  0  0  0  0
   -4.2478    0.3910   -1.2524 C   0  0  0  0  0  0  0  0  0  0  0  0
   -4.8509    1.0309   -0.1695 C   0  0  0  0  0  0  0  0  0  0  0  0
    2.6268    1.0833   -0.2342 C   0  0  0  0  0  0  0  0  0  0  0  0
    3.8668    1.6860   -0.4146 C   0  0  0  0  0  0  0  0  0  0  0  0
    4.8960   -0.3859    0.1376 C   0  0  0  0  0  0  0  0  0  0  0  0
    5.0279    0.9443   -0.2272 C   0  0  0  0  0  0  0  0  0  0  0  0
   -1.0893   -1.4732    1.3720 H   0  0  0  0  0  0  0  0  0  0  0  0
    0.0252    0.7191    0.8200 H   0  0  0  0  0  0  0  0  0  0  0  0
    0.0298    0.2510   -0.9011 H   0  0  0  0  0  0  0  0  0  0  0  0
    1.3055   -1.8305    0.5756 H   0  0  0  0  0  0  0  0  0  0  0  0
   -2.5766    0.2992    2.2440 H   0  0  0  0  0  0  0  0  0  0  0  0
   -2.5861   -0.7622   -1.9430 H   0  0  0  0  0  0  0  0  0  0  0  0
   -1.8454   -2.7358   -0.3424 H   0  0  0  0  0  0  0  0  0  0  0  0
   -4.7156    1.4934    1.9298 H   0  0  0  0  0  0  0  0  0  0  0  0
   -4.7171    0.4224   -2.2314 H   0  0  0  0  0  0  0  0  0  0  0  0
   -5.7907    1.5582   -0.3050 H   0  0  0  0  0  0  0  0  0  0  0  0
    1.7444    1.6953   -0.3890 H   0  0  0  0  0  0  0  0  0  0  0  0
    3.9292    2.7317   -0.7006 H   0  0  0  0  0  0  0  0  0  0  0  0
    5.7708   -1.0078    0.2960 H   0  0  0  0  0  0  0  0  0  0  0  0
    6.0052    1.3933   -0.3623 H   0  0  0  0  0  0  0  0  0  0  0  0
  1  4  1  0  0  0  0
  1 23  1  0  0  0  0
  2  5  1  0  0  0  0
  2  9  1  0  0  0  0
  2 20  1  0  0  0  0
  3  9  1  0  0  0  0
  3 15  2  0  0  0  0
  4  5  1  0  0  0  0
  4  6  1  0  0  0  0
  4 17  1  0  0  0  0
  5 18  1  0  0  0  0
  5 19  1  0  0  0  0
  6  7  2  0  0  0  0
  6  8  1  0  0  0  0
  7 10  1  0  0  0  0
  7 21  1  0  0  0  0
  8 11  2  0  0  0  0
  8 22  1  0  0  0  0
  9 13  2  0  0  0  0
 10 12  2  0  0  0  0
 10 24  1  0  0  0  0
 11 12  1  0  0  0  0
 11 25  1  0  0  0  0
 12 26  1  0  0  0  0
 13 14  1  0  0  0  0
 13 27  1  0  0  0  0
 14 16  2  0  0  0  0
 14 28  1  0  0  0  0
 15 16  1  0  0  0  0
 15 29  1  0  0  0  0
 16 30  1  0  0  0  0
M  END
> <PUBCHEM_COMPOUND_CID>
9470

> <PUBCHEM_CONFORMER_RMSD>
0.6

> <PUBCHEM_CONFORMER_DIVERSEORDER>
1
52
13
8
20
32
28
14
26
9
45
23
51
42
21
5
33
38
50
43
48
37
31
36
30
6
41
34
22
2
15
35
47
29
49
17
18
27
7
11
39
3
19
25
40
24
46
12
53
56
10
16
44
54
4
55

> <PUBCHEM_MMFF94_PARTIAL_CHARGES>
27
1 -0.68
10 -0.15
11 -0.15
12 -0.15
13 -0.15
14 -0.15
15 0.16
16 -0.15
2 -0.87
20 0.4
21 0.15
22 0.15
23 0.4
24 0.15
25 0.15
26 0.15
27 0.15
28 0.15
29 0.15
3 -0.62
30 0.15
4 0.42
5 0.37
6 -0.14
7 -0.15
8 -0.15
9 0.41

> <PUBCHEM_EFFECTIVE_ROTOR_COUNT>
4

> <PUBCHEM_PHARMACOPHORE_FEATURES>
7
1 1 acceptor
1 1 donor
1 2 cation
1 2 donor
1 3 acceptor
6 3 9 13 14 15 16 rings
6 6 7 8 10 11 12 rings

> <PUBCHEM_HEAVY_ATOM_COUNT>
16

> <PUBCHEM_ATOM_DEF_STEREO_COUNT>
0

> <PUBCHEM_ATOM_UDEF_STEREO_COUNT>
1

> <PUBCHEM_BOND_DEF_STEREO_COUNT>
0

> <PUBCHEM_BOND_UDEF_STEREO_COUNT>
0

> <PUBCHEM_ISOTOPIC_ATOM_COUNT>
0

> <PUBCHEM_COMPONENT_COUNT>
1

> <PUBCHEM_CACTVS_TAUTO_COUNT>
2

> <PUBCHEM_CONFORMER_ID>
000024FE00000001

> <PUBCHEM_MMFF94_ENERGY>
49.6703

> <PUBCHEM_FEATURE_SELFOVERLAP>
35.522

> <PUBCHEM_SHAPE_FINGERPRINT>
10014705 185 18271248231092606951
11046707 91 11383831550261332779
11089746 13 18040439871957289120
12236239 1 18113901575985966491
12596602 18 13614516355368545292
128620 24 6916261840722211184
13675066 3 17275101725935487774
14123260 362 18187077347832798537
1420 369 9439407934208625008
14252887 29 11167950177642266640
15239154 128 18271804597104055444
17834072 33 18335143055195962239
17834072 8 18410568505464278214
17870717 6 14923939042469913493
1813 80 9367063419244144403
18186145 218 18273493468570946778
19489759 90 16587742053300831224
200 152 8430316826980649035
20300324 65 17168145637480409937
20325693 3 16298385765022123573
20432913 95 8790887393038622220
204376 136 18413106169379311315
20645477 56 17775568632441800007
20645477 70 18341050808924973714
21033648 29 17774737406083754277
21033650 10 16806981377903609872
212847 35 18409167714570638224
21652331 79 18202566189286732524
231179 274 18131635603441461858
23402539 116 17821731653924923504
23402655 69 18410291368494194172
23403322 49 6916264031366697645
23559900 14 17676490523746673050
2838139 119 17986128507319208701
300161 21 18261116253555836552
3268164 11 16515687775236554169
351380 3 10231754487490505280
3545911 37 18343016675258282346
474 4 18335982060083315643
4921388 177 15574715760061719133
5104073 3 18200597991117459392
542803 24 18186518808536515992
5924683 9 16987990592913550795
633830 44 18261383516185357319
90127 26 17418091022763176348
9971528 1 18259986007337152160

> <PUBCHEM_SHAPE_MULTIPOLES>
313.44
12.13
1.47
1.02
4.5
0.15
0.01
-4.37
0.51
0.51
0.12
-1.28
-0.09
-0.6

> <PUBCHEM_SHAPE_SELFOVERLAP>
660.969

> <PUBCHEM_SHAPE_VOLUME>
174.6

> <PUBCHEM_COORDINATE_TYPE>
2
5
10

$$$$

