5533
  -OEChem-07051212533D

 48 51  0     0  0  0  0  0  0999 V2000
    7.5278    1.7428    1.4701 Cl  0  0  0  0  0  0  0  0  0  0  0  0
   -5.2348   -2.0684   -0.1907 O   0  0  0  0  0  0  0  0  0  0  0  0
    0.2688   -0.9158    0.6862 N   0  0  0  0  0  0  0  0  0  0  0  0
    3.0131   -0.3393    0.1430 N   0  0  0  0  0  0  0  0  0  0  0  0
   -3.1704   -0.9567   -0.4653 N   0  0  0  0  0  0  0  0  0  0  0  0
   -4.9820    0.2619   -0.1781 N   0  0  0  0  0  0  0  0  0  0  0  0
   -2.7699    0.3609   -0.4947 N   0  0  0  0  0  0  0  0  0  0  0  0
    0.9612    0.1534    1.4162 C   0  0  0  0  0  0  0  0  0  0  0  0
    1.2091   -2.0000    0.3782 C   0  0  0  0  0  0  0  0  0  0  0  0
    2.1098    0.7304    0.5856 C   0  0  0  0  0  0  0  0  0  0  0  0
    2.3671   -1.4952   -0.4862 C   0  0  0  0  0  0  0  0  0  0  0  0
   -0.8599   -1.4217    1.4666 C   0  0  0  0  0  0  0  0  0  0  0  0
   -1.6434   -2.4972    0.7085 C   0  0  0  0  0  0  0  0  0  0  0  0
   -2.2285   -2.0308   -0.6231 C   0  0  0  0  0  0  0  0  0  0  0  0
    4.3176    0.0110   -0.2228 C   0  0  0  0  0  0  0  0  0  0  0  0
    5.1874    0.6337    0.6948 C   0  0  0  0  0  0  0  0  0  0  0  0
    4.8012   -0.2496   -1.5206 C   0  0  0  0  0  0  0  0  0  0  0  0
   -4.5628   -1.0499   -0.2664 C   0  0  0  0  0  0  0  0  0  0  0  0
   -3.8666    1.0303   -0.3224 C   0  0  0  0  0  0  0  0  0  0  0  0
    6.4880    0.9813    0.3296 C   0  0  0  0  0  0  0  0  0  0  0  0
    6.1018    0.0984   -1.8859 C   0  0  0  0  0  0  0  0  0  0  0  0
    6.9452    0.7136   -0.9608 C   0  0  0  0  0  0  0  0  0  0  0  0
   -6.2418    0.7548    0.0142 C   0  0  0  0  0  0  0  0  0  0  0  0
   -4.0372    2.4991   -0.2665 C   0  0  0  0  0  0  0  0  0  0  0  0
   -6.4200    2.0830    0.0680 C   0  0  0  0  0  0  0  0  0  0  0  0
   -5.2808    2.9699   -0.0774 C   0  0  0  0  0  0  0  0  0  0  0  0
    1.3512   -0.2187    2.3732 H   0  0  0  0  0  0  0  0  0  0  0  0
    0.2613    0.9671    1.6426 H   0  0  0  0  0  0  0  0  0  0  0  0
    0.7396   -2.8001   -0.2009 H   0  0  0  0  0  0  0  0  0  0  0  0
    1.6051   -2.4465    1.3003 H   0  0  0  0  0  0  0  0  0  0  0  0
    1.7138    1.2545   -0.2939 H   0  0  0  0  0  0  0  0  0  0  0  0
    2.6324    1.4749    1.1971 H   0  0  0  0  0  0  0  0  0  0  0  0
    3.0828   -2.3174   -0.6113 H   0  0  0  0  0  0  0  0  0  0  0  0
    1.9923   -1.2173   -1.4798 H   0  0  0  0  0  0  0  0  0  0  0  0
   -0.5149   -1.8466    2.4189 H   0  0  0  0  0  0  0  0  0  0  0  0
   -1.5364   -0.5990    1.7270 H   0  0  0  0  0  0  0  0  0  0  0  0
   -1.0539   -3.4074    0.5600 H   0  0  0  0  0  0  0  0  0  0  0  0
   -2.4749   -2.8062    1.3574 H   0  0  0  0  0  0  0  0  0  0  0  0
   -1.4478   -1.7175   -1.3242 H   0  0  0  0  0  0  0  0  0  0  0  0
   -2.7611   -2.8729   -1.0800 H   0  0  0  0  0  0  0  0  0  0  0  0
    4.8432    0.8347    1.7079 H   0  0  0  0  0  0  0  0  0  0  0  0
    4.1695   -0.7161   -2.2723 H   0  0  0  0  0  0  0  0  0  0  0  0
    6.4570   -0.1071   -2.8915 H   0  0  0  0  0  0  0  0  0  0  0  0
    7.9558    0.9799   -1.2599 H   0  0  0  0  0  0  0  0  0  0  0  0
   -7.0524    0.0445    0.1160 H   0  0  0  0  0  0  0  0  0  0  0  0
   -3.1748    3.1429   -0.3768 H   0  0  0  0  0  0  0  0  0  0  0  0
   -7.4011    2.5174    0.2188 H   0  0  0  0  0  0  0  0  0  0  0  0
   -5.4652    4.0376   -0.0281 H   0  0  0  0  0  0  0  0  0  0  0  0
  1 20  1  0  0  0  0
  2 18  2  0  0  0  0
  3  8  1  0  0  0  0
  3  9  1  0  0  0  0
  3 12  1  0  0  0  0
  4 10  1  0  0  0  0
  4 11  1  0  0  0  0
  4 15  1  0  0  0  0
  5  7  1  0  0  0  0
  5 14  1  0  0  0  0
  5 18  1  0  0  0  0
  6 18  1  0  0  0  0
  6 19  1  0  0  0  0
  6 23  1  0  0  0  0
  7 19  2  0  0  0  0
  8 10  1  0  0  0  0
  8 27  1  0  0  0  0
  8 28  1  0  0  0  0
  9 11  1  0  0  0  0
  9 29  1  0  0  0  0
  9 30  1  0  0  0  0
 10 31  1  0  0  0  0
 10 32  1  0  0  0  0
 11 33  1  0  0  0  0
 11 34  1  0  0  0  0
 12 13  1  0  0  0  0
 12 35  1  0  0  0  0
 12 36  1  0  0  0  0
 13 14  1  0  0  0  0
 13 37  1  0  0  0  0
 13 38  1  0  0  0  0
 14 39  1  0  0  0  0
 14 40  1  0  0  0  0
 15 16  2  0  0  0  0
 15 17  1  0  0  0  0
 16 20  1  0  0  0  0
 16 41  1  0  0  0  0
 17 21  2  0  0  0  0
 17 42  1  0  0  0  0
 19 24  1  0  0  0  0
 20 22  2  0  0  0  0
 21 22  1  0  0  0  0
 21 43  1  0  0  0  0
 22 44  1  0  0  0  0
 23 25  2  0  0  0  0
 23 45  1  0  0  0  0
 24 26  2  0  0  0  0
 24 46  1  0  0  0  0
 25 26  1  0  0  0  0
 25 47  1  0  0  0  0
 26 48  1  0  0  0  0
M  END
> <PUBCHEM_COMPOUND_CID>
5533

> <PUBCHEM_CONFORMER_RMSD>
0.8

> <PUBCHEM_CONFORMER_DIVERSEORDER>
1
52
304
55
179
333
262
341
83
29
243
335
54
156
323
165
46
253
82
201
26
61
37
337
235
18
320
309
191
218
174
347
185
316
352
233
288
101
296
45
126
303
47
263
340
42
283
267
98
275
147
28
317
244
216
207
334
41
170
63
79
199
306
344
93
242
99
31
312
292
115
271
348
122
56
237
224
231
330
324
39
331
117
270
305
112
50
187
196
359
332
24
281
229
212
163
208
190
157
144
129
325
140
217
183
266
214
100
265
236
119
193
182
131
81
211
173
142
111
277
206
225
118
167
254
22
205
351
123
34
287
70
315
345
164
125
255
291
197
192
264
346
68
269
322
171
338
71
227
53
261
49
257
238
138
67
215
248
80
300
230
151
92
298
301
259
96
110
65
175
72
168
239
307
97
40
260
107
220
339
209
213
232
350
78
357
153
43
250
210
154
349
149
329
27
95
251
162
130
313
85
180
148
356
87
23
188
319
272
328
134
152
38
32
59
310
76
252
302
91
116
159
127
143
132
58
221
86
120
245
158
128
297
19
88
314
194
146
308
69
327
178
36
294
77
141
2
33
74
150
358
121
195
60
90
311
226
184
282
284
133
94
279
169
256
113
160
109
135
186
176
75
73
13
66
299
342
293
280
8
145
268
57
278
247
108
219
177
189
276
321
44
64
89
155
274
30
136
222
354
103
285
35
202
241
84
124
104
318
21
106
102
240
137
234
10
353
228
249
161
114
204
6
5
258
12
139
105
273
246
343
7
336
355
326
200
20
9
48
289
223
181
3
166
172
203
198
295
11
290
15
4
14
17
25
62
51
286
16

> <PUBCHEM_MMFF94_PARTIAL_CHARGES>
33
1 -0.18
10 0.37
11 0.37
12 0.27
14 0.3
15 0.1
16 -0.15
17 -0.15
18 0.69
19 0.5
2 -0.57
20 0.18
21 -0.15
22 -0.15
23 -0.04
24 -0.14
25 -0.15
26 -0.15
3 -0.81
4 -0.84
41 0.15
42 0.15
43 0.15
44 0.15
45 0.15
46 0.15
47 0.15
48 0.15
5 -0.3
6 -0.23
7 -0.51
8 0.27
9 0.27

> <PUBCHEM_EFFECTIVE_ROTOR_COUNT>
6.2

> <PUBCHEM_PHARMACOPHORE_FEATURES>
7
1 2 acceptor
1 3 cation
1 4 cation
5 5 6 7 18 19 rings
6 15 16 17 20 21 22 rings
6 3 4 8 9 10 11 rings
6 6 19 23 24 25 26 rings

> <PUBCHEM_HEAVY_ATOM_COUNT>
26

> <PUBCHEM_ATOM_DEF_STEREO_COUNT>
0

> <PUBCHEM_ATOM_UDEF_STEREO_COUNT>
0

> <PUBCHEM_BOND_DEF_STEREO_COUNT>
0

> <PUBCHEM_BOND_UDEF_STEREO_COUNT>
0

> <PUBCHEM_ISOTOPIC_ATOM_COUNT>
0

> <PUBCHEM_COMPONENT_COUNT>
1

> <PUBCHEM_CACTVS_TAUTO_COUNT>
1

> <PUBCHEM_CONFORMER_ID>
0000159D00000001

> <PUBCHEM_MMFF94_ENERGY>
71.2741

> <PUBCHEM_FEATURE_SELFOVERLAP>
35.642

> <PUBCHEM_SHAPE_FINGERPRINT>
10 15 12319448862689401422
10087517 78 18343588425462874637
10280341 67 18338812211440330089
10411042 1 17907297647024764307
10670039 82 18412832374051669045
10835480 77 17822013086627318216
11475781 23 18261110790558045452
11497681 19 16879928326999469663
11823591 26 17988649618408410339
12293681 160 18040433317119901314
12390115 104 18336540612448804723
12788726 201 17386848485722214769
12838862 33 18200610167419016469
12895836 83 18260551134401610631
12895837 130 18336827477066289540
13073987 5 18272091603819698434
13690498 29 17314240964547065007
13914758 101 18412546527262728290
14294032 229 17988643068879346412
14556957 393 15719379608529516760
14840074 17 17131825473974723189
14931854 50 18114470075649720089
15183329 4 17603579772419230986
1577012 14 18202849863296975194
17913733 40 14979960276422531472
18608769 82 18410853219015499011
18769570 83 18131072619534685452
20281389 69 18343023306861977640
21033648 29 18189064118595402584
21304304 249 9655283848531329177
21315759 40 17131841915057018010
21424621 283 18272089396585718746
21756936 100 18343868801392194187
21859007 373 18335147462528987232
22393880 68 17894920594115371134
23198884 109 18413385427794077622
23559900 14 17676777487006104489
23569914 152 17030205530086603446
249057 25 17346315934631507478
2838139 119 18412548686887135020
3009799 131 17749107773418971946
312425 54 11311789400720131877
3610482 184 18059282193594650846
392239 28 15267049346751298725
4073 2 18202277004996920978
4098825 35 18336542819318832982
44249763 50 17968109564501652958
445580 204 18342457045103636129
5104073 3 17988645232835637595
5283173 99 18335421257845592768
5385378 56 17917434271958242498
543368 44 18411703223134372509
636775 72 18337677421304443936
7808743 9 18341898515288728003

> <PUBCHEM_SHAPE_MULTIPOLES>
506.16
20.81
2.68
1.27
12.48
0.25
-0.05
13.91
-2.6
-4.34
0.28
2.29
-0.03
1.09

> <PUBCHEM_SHAPE_SELFOVERLAP>
1075.234

> <PUBCHEM_SHAPE_VOLUME>
283.7

> <PUBCHEM_COORDINATE_TYPE>
2
5
10

$$$$

