9476
  -OEChem-06261203443D

 43 44  0     1  0  0  0  0  0999 V2000
   -0.8881    1.3575    0.2915 O   0  0  0  0  0  0  0  0  0  0  0  0
   -4.4582   -0.9520    1.1418 O   0  0  0  0  0  0  0  0  0  0  0  0
   -2.9924    3.2160   -0.2423 O   0  0  0  0  0  0  0  0  0  0  0  0
   -5.2310    1.7130    0.4126 O   0  0  0  0  0  0  0  0  0  0  0  0
   -3.3575   -2.5012   -1.8441 O   0  0  0  0  0  0  0  0  0  0  0  0
   -4.3446   -3.3156    0.0423 O   0  0  0  0  0  0  0  0  0  0  0  0
   -0.3738    0.1975    2.2222 O   0  0  0  0  0  0  0  0  0  0  0  0
    5.8165    1.3691   -1.8304 O   0  0  0  0  0  0  0  0  0  0  0  0
    7.4706   -0.6310   -0.8362 O   0  0  0  0  0  0  0  0  0  0  0  0
   -3.8279   -0.9583   -0.1333 C   0  0  2  0  0  0  0  0  0  0  0  0
   -2.2687    0.9966    0.3385 C   0  0  2  0  0  0  0  0  0  0  0  0
   -2.3767   -0.4900   -0.0077 C   0  0  0  0  0  0  0  0  0  0  0  0
   -4.6303   -0.0797   -1.1043 C   0  0  0  0  0  0  0  0  0  0  0  0
   -3.0516    1.8531   -0.6596 C   0  0  1  0  0  0  0  0  0  0  0  0
   -4.5146    1.4157   -0.7864 C   0  0  2  0  0  0  0  0  0  0  0  0
   -3.8866   -2.3834   -0.6018 C   0  0  0  0  0  0  0  0  0  0  0  0
   -0.0713    0.6710    1.1384 C   0  0  0  0  0  0  0  0  0  0  0  0
    1.2683    0.5964    0.5120 C   0  0  0  0  0  0  0  0  0  0  0  0
    2.2596   -0.0453    1.1469 C   0  0  0  0  0  0  0  0  0  0  0  0
    3.6287   -0.1962    0.6234 C   0  0  0  0  0  0  0  0  0  0  0  0
    4.0766    0.6663   -0.3640 C   0  0  0  0  0  0  0  0  0  0  0  0
    4.4411   -1.1983    1.1287 C   0  0  0  0  0  0  0  0  0  0  0  0
    5.3726    0.5225   -0.8598 C   0  0  0  0  0  0  0  0  0  0  0  0
    5.7368   -1.3420    0.6330 C   0  0  0  0  0  0  0  0  0  0  0  0
    6.2026   -0.4816   -0.3612 C   0  0  0  0  0  0  0  0  0  0  0  0
   -2.6338    1.1942    1.3546 H   0  0  0  0  0  0  0  0  0  0  0  0
   -1.8264   -0.6761   -0.9405 H   0  0  0  0  0  0  0  0  0  0  0  0
   -1.8755   -1.1043    0.7494 H   0  0  0  0  0  0  0  0  0  0  0  0
   -5.6889   -0.3679   -1.0616 H   0  0  0  0  0  0  0  0  0  0  0  0
   -4.2904   -0.2324   -2.1362 H   0  0  0  0  0  0  0  0  0  0  0  0
   -2.5610    1.7999   -1.6397 H   0  0  0  0  0  0  0  0  0  0  0  0
   -5.0021    1.9982   -1.5760 H   0  0  0  0  0  0  0  0  0  0  0  0
   -3.8932   -1.4410    1.7643 H   0  0  0  0  0  0  0  0  0  0  0  0
   -3.4877    3.7427   -0.8926 H   0  0  0  0  0  0  0  0  0  0  0  0
   -4.8741    1.1625    1.1290 H   0  0  0  0  0  0  0  0  0  0  0  0
   -3.3854   -3.4266   -2.1683 H   0  0  0  0  0  0  0  0  0  0  0  0
    1.3800    1.0541   -0.4639 H   0  0  0  0  0  0  0  0  0  0  0  0
    2.0778   -0.5094    2.1137 H   0  0  0  0  0  0  0  0  0  0  0  0
    3.4682    1.4729   -0.7618 H   0  0  0  0  0  0  0  0  0  0  0  0
    4.0922   -1.8773    1.9022 H   0  0  0  0  0  0  0  0  0  0  0  0
    6.3730   -2.1285    1.0301 H   0  0  0  0  0  0  0  0  0  0  0  0
    6.7318    1.1256   -2.0534 H   0  0  0  0  0  0  0  0  0  0  0  0
    7.8958   -1.3747   -0.3755 H   0  0  0  0  0  0  0  0  0  0  0  0
  1 11  1  0  0  0  0
  1 17  1  0  0  0  0
  2 10  1  0  0  0  0
  2 33  1  0  0  0  0
  3 14  1  0  0  0  0
  3 34  1  0  0  0  0
  4 15  1  0  0  0  0
  4 35  1  0  0  0  0
  5 16  1  0  0  0  0
  5 36  1  0  0  0  0
  6 16  2  0  0  0  0
  7 17  2  0  0  0  0
  8 23  1  0  0  0  0
  8 42  1  0  0  0  0
  9 25  1  0  0  0  0
  9 43  1  0  0  0  0
 10 12  1  0  0  0  0
 10 13  1  0  0  0  0
 10 16  1  0  0  0  0
 11 12  1  0  0  0  0
 11 14  1  0  0  0  0
 11 26  1  0  0  0  0
 12 27  1  0  0  0  0
 12 28  1  0  0  0  0
 13 15  1  0  0  0  0
 13 29  1  0  0  0  0
 13 30  1  0  0  0  0
 14 15  1  0  0  0  0
 14 31  1  0  0  0  0
 15 32  1  0  0  0  0
 17 18  1  0  0  0  0
 18 19  2  0  0  0  0
 18 37  1  0  0  0  0
 19 20  1  0  0  0  0
 19 38  1  0  0  0  0
 20 21  2  0  0  0  0
 20 22  1  0  0  0  0
 21 23  1  0  0  0  0
 21 39  1  0  0  0  0
 22 24  2  0  0  0  0
 22 40  1  0  0  0  0
 23 25  2  0  0  0  0
 24 25  1  0  0  0  0
 24 41  1  0  0  0  0
M  END
> <PUBCHEM_COMPOUND_CID>
9476

> <PUBCHEM_CONFORMER_RMSD>
0.8

> <PUBCHEM_CONFORMER_DIVERSEORDER>
2
175
108
118
49
122
27
139
9
79
141
164
93
7
87
97
146
106
121
148
147
134
116
109
42
123
86
57
65
117
29
95
98
136
167
58
89
154
80
81
23
16
158
84
54
43
3
74
170
78
132
105
62
172
39
129
142
82
135
6
143
19
48
83
25
46
70
150
77
94
14
75
124
155
128
60
174
102
151
165
145
45
125
67
114
91
152
160
5
168
28
96
171
159
34
173
163
110
90
68
115
41
76
52
119
153
149
12
71
33
127
85
112
8
18
101
56
103
26
59
35
99
130
30
161
162
17
137
72
166
32
44
107
1
24
92
144
53
133
51
55
131
13
40
73
66
140
64
50
126
37
100
10
111
138
156
22
11
113
21
88
47
61
38
69
15
20
36
169
157
104
4
31
120
63

> <PUBCHEM_MMFF94_PARTIAL_CHARGES>
34
1 -0.43
10 0.34
11 0.28
14 0.28
15 0.28
16 0.66
17 0.71
18 -0.14
19 -0.18
2 -0.68
20 0.03
21 -0.15
22 -0.15
23 0.08
24 -0.15
25 0.08
3 -0.68
33 0.4
34 0.4
35 0.4
36 0.5
37 0.15
38 0.15
39 0.15
4 -0.68
40 0.15
41 0.15
42 0.45
43 0.45
5 -0.65
6 -0.57
7 -0.57
8 -0.53
9 -0.53

> <PUBCHEM_EFFECTIVE_ROTOR_COUNT>
6.2

> <PUBCHEM_PHARMACOPHORE_FEATURES>
14
1 2 acceptor
1 2 donor
1 3 acceptor
1 3 donor
1 4 acceptor
1 4 donor
1 5 acceptor
1 6 acceptor
1 7 acceptor
1 8 donor
1 9 donor
3 5 6 16 anion
6 10 11 12 13 14 15 rings
6 20 21 22 23 24 25 rings

> <PUBCHEM_HEAVY_ATOM_COUNT>
25

> <PUBCHEM_ATOM_DEF_STEREO_COUNT>
4

> <PUBCHEM_ATOM_UDEF_STEREO_COUNT>
0

> <PUBCHEM_BOND_DEF_STEREO_COUNT>
0

> <PUBCHEM_BOND_UDEF_STEREO_COUNT>
1

> <PUBCHEM_ISOTOPIC_ATOM_COUNT>
0

> <PUBCHEM_COMPONENT_COUNT>
1

> <PUBCHEM_CACTVS_TAUTO_COUNT>
10

> <PUBCHEM_CONFORMER_ID>
0000250400000002

> <PUBCHEM_MMFF94_ENERGY>
67.4094

> <PUBCHEM_FEATURE_SELFOVERLAP>
71.127

> <PUBCHEM_SHAPE_FINGERPRINT>
10595046 47 18201719548743942492
11315181 36 16443070499525179361
11524674 6 17095245826220583815
11796584 16 18187366553872201502
12236239 1 17917992810320587848
12616971 3 17560530598268181712
12821665 9 18200307702636170396
12969540 114 15339124541417447778
13167823 11 18272374204409636626
13673619 4 18041840602209892139
13690498 29 18339082597106024215
13785724 45 8861018622238237284
14251751 18 18260270716028721242
14251757 5 18339923710321478466
14528608 73 17989203738225445740
15183329 4 18202567302173398114
15250474 111 18200328713468879506
15537594 2 18409728456568361491
15799311 1 18188758548287898922
16990350 14 16528335723526569080
16992828 155 17343507992135202973
16994733 274 13685482156742523695
17844677 252 18186524293489854544
17870717 6 18260270758925620797
18927931 339 18408604756006124863
193927 3 16950276291803166480
20281389 69 12535626073067447982
21033648 144 16415476013685721998
21054139 6 18342460331693088906
21307412 95 18191321390472587407
21623969 137 16081087070095392814
220451 1 18341611559770133202
22393880 68 18410017632779493186
2303208 19 17603586314181858930
23198884 109 17489587874281388810
23402539 116 17847062203069312704
23559900 14 18188223030206519976
25122255 55 17749664177789876582
2838139 119 16845856789389438476
29717793 49 18411131481530303590
3004659 81 18341898541343570010
312425 54 5833718976156167502
314173 85 16298105397688202400
3610482 184 18059561512307608332
4015057 19 17560792192095096984
44062 13 18333737909521728759
44317340 157 18202558467478930964
484985 159 17676200252725082043
497634 4 17060338522482552435
531348 171 18341051933710202018
633830 44 17203049698254362328
7918774 8 16877653548814727326

> <PUBCHEM_SHAPE_MULTIPOLES>
461.66
17.27
2.53
1.41
21.72
0.71
-0.04
3.12
5.48
-4.74
0.62
0.47
0.11
-1.36

> <PUBCHEM_SHAPE_SELFOVERLAP>
981.884

> <PUBCHEM_SHAPE_VOLUME>
254.1

> <PUBCHEM_COORDINATE_TYPE>
2
5
10

$$$$

