8656
  -OEChem-06261202583D

 25 25  0     0  0  0  0  0  0999 V2000
    2.9344    1.1839    0.0021 O   0  0  0  0  0  0  0  0  0  0  0  0
    1.4284   -0.6294   -0.0003 N   0  0  0  0  0  0  0  0  0  0  0  0
   -0.9969   -0.7761    0.0000 C   0  0  0  0  0  0  0  0  0  0  0  0
   -2.2398   -0.1430    0.0001 C   0  0  0  0  0  0  0  0  0  0  0  0
    0.1729   -0.0161   -0.0003 C   0  0  0  0  0  0  0  0  0  0  0  0
    0.0994    1.3769   -0.0006 C   0  0  0  0  0  0  0  0  0  0  0  0
   -2.3131    1.2500   -0.0001 C   0  0  0  0  0  0  0  0  0  0  0  0
   -0.9233   -2.2708    0.0004 C   0  0  0  0  0  0  0  0  0  0  0  0
   -1.1435    2.0100   -0.0004 C   0  0  0  0  0  0  0  0  0  0  0  0
   -3.5076   -0.9327    0.0005 C   0  0  0  0  0  0  0  0  0  0  0  0
    2.6877   -0.0178   -0.0007 C   0  0  0  0  0  0  0  0  0  0  0  0
    3.8014   -1.0348   -0.0006 C   0  0  0  0  0  0  0  0  0  0  0  0
    0.9538    2.0380   -0.0012 H   0  0  0  0  0  0  0  0  0  0  0  0
   -3.2729    1.7599    0.0000 H   0  0  0  0  0  0  0  0  0  0  0  0
   -0.3932   -2.6212   -0.8925 H   0  0  0  0  0  0  0  0  0  0  0  0
   -0.3926   -2.6208    0.8931 H   0  0  0  0  0  0  0  0  0  0  0  0
   -1.8893   -2.7795    0.0009 H   0  0  0  0  0  0  0  0  0  0  0  0
   -1.2019    3.0946   -0.0007 H   0  0  0  0  0  0  0  0  0  0  0  0
   -3.5786   -1.5558    0.8981 H   0  0  0  0  0  0  0  0  0  0  0  0
   -4.3874   -0.2790    0.0004 H   0  0  0  0  0  0  0  0  0  0  0  0
   -3.5788   -1.5562   -0.8969 H   0  0  0  0  0  0  0  0  0  0  0  0
    1.4320   -1.6456   -0.0004 H   0  0  0  0  0  0  0  0  0  0  0  0
    3.7425   -1.6473    0.9036 H   0  0  0  0  0  0  0  0  0  0  0  0
    4.7686   -0.5252   -0.0223 H   0  0  0  0  0  0  0  0  0  0  0  0
    3.7189   -1.6758   -0.8829 H   0  0  0  0  0  0  0  0  0  0  0  0
  1 11  2  0  0  0  0
  2  5  1  0  0  0  0
  2 11  1  0  0  0  0
  2 22  1  0  0  0  0
  3  4  2  0  0  0  0
  3  5  1  0  0  0  0
  3  8  1  0  0  0  0
  4  7  1  0  0  0  0
  4 10  1  0  0  0  0
  5  6  2  0  0  0  0
  6  9  1  0  0  0  0
  6 13  1  0  0  0  0
  7  9  2  0  0  0  0
  7 14  1  0  0  0  0
  8 15  1  0  0  0  0
  8 16  1  0  0  0  0
  8 17  1  0  0  0  0
  9 18  1  0  0  0  0
 10 19  1  0  0  0  0
 10 20  1  0  0  0  0
 10 21  1  0  0  0  0
 11 12  1  0  0  0  0
 12 23  1  0  0  0  0
 12 24  1  0  0  0  0
 12 25  1  0  0  0  0
M  END
> <PUBCHEM_COMPOUND_CID>
8656

> <PUBCHEM_CONFORMER_RMSD>
0.6

> <PUBCHEM_CONFORMER_DIVERSEORDER>
1
2
3

> <PUBCHEM_MMFF94_PARTIAL_CHARGES>
16
1 -0.57
10 0.14
11 0.57
12 0.06
13 0.15
14 0.15
18 0.15
2 -0.55
22 0.37
3 -0.14
4 -0.14
5 0.12
6 -0.15
7 -0.15
8 0.14
9 -0.15

> <PUBCHEM_EFFECTIVE_ROTOR_COUNT>
2

> <PUBCHEM_PHARMACOPHORE_FEATURES>
3
1 1 acceptor
1 2 donor
6 3 4 5 6 7 9 rings

> <PUBCHEM_HEAVY_ATOM_COUNT>
12

> <PUBCHEM_ATOM_DEF_STEREO_COUNT>
0

> <PUBCHEM_ATOM_UDEF_STEREO_COUNT>
0

> <PUBCHEM_BOND_DEF_STEREO_COUNT>
0

> <PUBCHEM_BOND_UDEF_STEREO_COUNT>
0

> <PUBCHEM_ISOTOPIC_ATOM_COUNT>
0

> <PUBCHEM_COMPONENT_COUNT>
1

> <PUBCHEM_CACTVS_TAUTO_COUNT>
2

> <PUBCHEM_CONFORMER_ID>
000021D000000001

> <PUBCHEM_MMFF94_ENERGY>
37.6319

> <PUBCHEM_FEATURE_SELFOVERLAP>
15.223

> <PUBCHEM_SHAPE_FINGERPRINT>
11132069 177 18334863830708157689
12032990 46 18411976932224694995
12716758 59 18410016554378704994
12932764 1 17489311935871008780
13024252 1 15051726521369576781
13380535 76 18122911090602710893
14144814 61 18340207492022090026
14325111 11 18410574015401046404
14614273 12 18127977618735163765
15775835 57 18057318590423419136
16945 1 18338797797508069573
193761 8 17546165199631057667
20510252 161 18261111897863179152
20711985 365 18411419531310802964
20871998 184 18260264118716543695
23402539 116 18334586741114823423
23463225 33 18341050817224420146
23552423 10 17910673159577329101
23559900 14 18262243334858344866
2748010 2 18266455589004089703
369184 2 18410293622618872848
43471831 8 18198908187168618731
6333449 129 18337112357799097685

> <PUBCHEM_SHAPE_MULTIPOLES>
236.1
5.41
2.04
0.6
3.6
0.02
0
1.09
0
-0.72
0
-0.03
0.01
0

> <PUBCHEM_SHAPE_SELFOVERLAP>
485.417

> <PUBCHEM_SHAPE_VOLUME>
137.3

> <PUBCHEM_COORDINATE_TYPE>
2
5
10

$$$$

