11954121
  -OEChem-07051213073D

 45 46  0     0  0  0  0  0  0999 V2000
   -4.6016   -2.5323   -0.3877 O   0  0  0  0  0  0  0  0  0  0  0  0
    4.6872   -2.4034    0.3478 O   0  0  0  0  0  0  0  0  0  0  0  0
   -0.0068    0.7124    0.0492 C   0  0  0  0  0  0  0  0  0  0  0  0
    0.1572    1.6240   -1.2366 C   0  0  0  0  0  0  0  0  0  0  0  0
   -0.2416    1.6863    1.2638 C   0  0  0  0  0  0  0  0  0  0  0  0
   -1.2781   -0.1849   -0.0714 C   0  0  0  0  0  0  0  0  0  0  0  0
    1.2853   -0.1448    0.1312 C   0  0  0  0  0  0  0  0  0  0  0  0
    1.3846    2.5525   -1.2677 C   0  0  0  0  0  0  0  0  0  0  0  0
   -1.4640    2.6179    1.1922 C   0  0  0  0  0  0  0  0  0  0  0  0
   -1.5246   -1.0638    0.9384 C   0  0  0  0  0  0  0  0  0  0  0  0
    1.5650   -0.9753   -0.9154 C   0  0  0  0  0  0  0  0  0  0  0  0
   -2.0540   -0.0281   -1.1791 C   0  0  0  0  0  0  0  0  0  0  0  0
    2.0634   -0.0168    1.2456 C   0  0  0  0  0  0  0  0  0  0  0  0
    1.4530    3.3255   -2.5783 C   0  0  0  0  0  0  0  0  0  0  0  0
   -1.5855    3.4624    2.4536 C   0  0  0  0  0  0  0  0  0  0  0  0
   -2.6605   -1.8662    0.8298 C   0  0  0  0  0  0  0  0  0  0  0  0
    2.7254   -1.7460   -0.8410 C   0  0  0  0  0  0  0  0  0  0  0  0
   -3.1899   -0.8305   -1.2876 C   0  0  0  0  0  0  0  0  0  0  0  0
    3.2237   -0.7873    1.3198 C   0  0  0  0  0  0  0  0  0  0  0  0
   -3.4931   -1.7496   -0.2832 C   0  0  0  0  0  0  0  0  0  0  0  0
    3.5548   -1.6519    0.2765 C   0  0  0  0  0  0  0  0  0  0  0  0
   -0.7216    2.2647   -1.3771 H   0  0  0  0  0  0  0  0  0  0  0  0
    0.2186    1.0057   -2.1427 H   0  0  0  0  0  0  0  0  0  0  0  0
    0.6404    2.3228    1.4094 H   0  0  0  0  0  0  0  0  0  0  0  0
   -0.3351    1.1031    2.1906 H   0  0  0  0  0  0  0  0  0  0  0  0
    1.3407    3.2737   -0.4458 H   0  0  0  0  0  0  0  0  0  0  0  0
    2.3129    1.9836   -1.1561 H   0  0  0  0  0  0  0  0  0  0  0  0
   -1.3847    3.3003    0.3411 H   0  0  0  0  0  0  0  0  0  0  0  0
   -2.3866    2.0417    1.0704 H   0  0  0  0  0  0  0  0  0  0  0  0
   -0.8838   -1.1665    1.8070 H   0  0  0  0  0  0  0  0  0  0  0  0
    0.9270   -1.0751   -1.7862 H   0  0  0  0  0  0  0  0  0  0  0  0
   -1.8867    0.6589   -1.9955 H   0  0  0  0  0  0  0  0  0  0  0  0
    1.8481    0.6327    2.0833 H   0  0  0  0  0  0  0  0  0  0  0  0
    0.5593    3.9420   -2.7176 H   0  0  0  0  0  0  0  0  0  0  0  0
    2.3252    3.9868   -2.5822 H   0  0  0  0  0  0  0  0  0  0  0  0
    1.5394    2.6453   -3.4316 H   0  0  0  0  0  0  0  0  0  0  0  0
   -1.7083    2.8302    3.3388 H   0  0  0  0  0  0  0  0  0  0  0  0
   -2.4559    4.1224    2.3850 H   0  0  0  0  0  0  0  0  0  0  0  0
   -0.6970    4.0858    2.5958 H   0  0  0  0  0  0  0  0  0  0  0  0
   -2.8852   -2.5787    1.6190 H   0  0  0  0  0  0  0  0  0  0  0  0
    2.9705   -2.4181   -1.6591 H   0  0  0  0  0  0  0  0  0  0  0  0
   -3.8358   -0.7358   -2.1565 H   0  0  0  0  0  0  0  0  0  0  0  0
    3.8657   -0.7113    2.1933 H   0  0  0  0  0  0  0  0  0  0  0  0
   -4.6561   -3.1077    0.3945 H   0  0  0  0  0  0  0  0  0  0  0  0
    4.7593   -2.9422   -0.4588 H   0  0  0  0  0  0  0  0  0  0  0  0
  1 20  1  0  0  0  0
  1 44  1  0  0  0  0
  2 21  1  0  0  0  0
  2 45  1  0  0  0  0
  3  4  1  0  0  0  0
  3  5  1  0  0  0  0
  3  6  1  0  0  0  0
  3  7  1  0  0  0  0
  4  8  1  0  0  0  0
  4 22  1  0  0  0  0
  4 23  1  0  0  0  0
  5  9  1  0  0  0  0
  5 24  1  0  0  0  0
  5 25  1  0  0  0  0
  6 10  2  0  0  0  0
  6 12  1  0  0  0  0
  7 11  2  0  0  0  0
  7 13  1  0  0  0  0
  8 14  1  0  0  0  0
  8 26  1  0  0  0  0
  8 27  1  0  0  0  0
  9 15  1  0  0  0  0
  9 28  1  0  0  0  0
  9 29  1  0  0  0  0
 10 16  1  0  0  0  0
 10 30  1  0  0  0  0
 11 17  1  0  0  0  0
 11 31  1  0  0  0  0
 12 18  2  0  0  0  0
 12 32  1  0  0  0  0
 13 19  2  0  0  0  0
 13 33  1  0  0  0  0
 14 34  1  0  0  0  0
 14 35  1  0  0  0  0
 14 36  1  0  0  0  0
 15 37  1  0  0  0  0
 15 38  1  0  0  0  0
 15 39  1  0  0  0  0
 16 20  2  0  0  0  0
 16 40  1  0  0  0  0
 17 21  2  0  0  0  0
 17 41  1  0  0  0  0
 18 20  1  0  0  0  0
 18 42  1  0  0  0  0
 19 21  1  0  0  0  0
 19 43  1  0  0  0  0
M  END
> <PUBCHEM_COMPOUND_CID>
11954121

> <PUBCHEM_CONFORMER_RMSD>
0.8

> <PUBCHEM_CONFORMER_DIVERSEORDER>
1
4
2
3

> <PUBCHEM_MMFF94_PARTIAL_CHARGES>
25
1 -0.53
10 -0.15
11 -0.15
12 -0.15
13 -0.15
16 -0.15
17 -0.15
18 -0.15
19 -0.15
2 -0.53
20 0.08
21 0.08
3 0.29
30 0.15
31 0.15
32 0.15
33 0.15
40 0.15
41 0.15
42 0.15
43 0.15
44 0.45
45 0.45
6 -0.14
7 -0.14

> <PUBCHEM_EFFECTIVE_ROTOR_COUNT>
6

> <PUBCHEM_PHARMACOPHORE_FEATURES>
7
1 1 donor
1 14 hydrophobe
1 15 hydrophobe
1 2 donor
5 3 4 5 8 9 hydrophobe
6 6 10 12 16 18 20 rings
6 7 11 13 17 19 21 rings

> <PUBCHEM_HEAVY_ATOM_COUNT>
21

> <PUBCHEM_ATOM_DEF_STEREO_COUNT>
0

> <PUBCHEM_ATOM_UDEF_STEREO_COUNT>
0

> <PUBCHEM_BOND_DEF_STEREO_COUNT>
0

> <PUBCHEM_BOND_UDEF_STEREO_COUNT>
0

> <PUBCHEM_ISOTOPIC_ATOM_COUNT>
0

> <PUBCHEM_COMPONENT_COUNT>
1

> <PUBCHEM_CACTVS_TAUTO_COUNT>
3

> <PUBCHEM_CONFORMER_ID>
00B667C900000001

> <PUBCHEM_MMFF94_ENERGY>
70.4578

> <PUBCHEM_FEATURE_SELFOVERLAP>
35.52

> <PUBCHEM_SHAPE_FINGERPRINT>
10756046 70 17983263162109484109
11582403 64 15528090998997488069
12293681 160 17542475272626023932
12363563 72 18408888421031547531
12532896 13 17465659400500447089
12592029 89 17414437186911149652
12788726 201 18190158213868628017
13009979 54 18336254717254563496
13134695 92 18043551438007627045
13140716 1 18259703406709888209
133893 2 17702362001993931612
13533116 47 18050284766219313155
13544653 18 18261969478299211414
13681431 1 18271528593862926004
14178342 30 18118399777087853050
14863182 85 18044374920587825806
14943834 7 18194934461882879477
15163728 17 16484141497823634877
15502722 9 17771907138446313325
16945 1 17898288552670359793
1813 80 18343017808982163302
18915476 22 17557404510300295889
20388580 30 18341615862984868535
20600515 1 18057631843715505784
20645477 70 17986118401008037311
20671657 53 18060149729569494918
21452121 199 18339931406775557619
22112679 90 18056175081282609892
23114952 82 17845092857410847199
23419403 2 17906778818172537712
23559900 14 17987249841116431351
266924 1 18194375871363422837
266924 78 17414680256152895949
5104073 3 17971207060989125946
6138700 20 17916299438915108772
6442390 28 17328864812414164412
6443956 14 18334864883381651819
68419 9 18118932928257663157
6992083 37 18124580127409911024
7364860 26 17986111803431219100
81228 2 18267866275043644937
9925002 15 18266721640632681060

> <PUBCHEM_SHAPE_MULTIPOLES>
420.43
6.29
3.88
2.01
0.44
3.1
-0.1
-7.19
0.06
-0.44
0.04
0.03
2.23
-2.11

> <PUBCHEM_SHAPE_SELFOVERLAP>
885.331

> <PUBCHEM_SHAPE_VOLUME>
237.2

> <PUBCHEM_COORDINATE_TYPE>
2
5
10

$$$$

