5283853
  -OEChem-07051213103D

 69 72  0     1  0  0  0  0  0999 V2000
   -1.3506    2.8686    1.4795 O   0  0  0  0  0  0  0  0  0  0  0  0
   -3.5461    2.7089   -0.1826 O   0  0  0  0  0  0  0  0  0  0  0  0
   -4.9431   -2.7624    2.0362 O   0  0  0  0  0  0  0  0  0  0  0  0
    6.6109   -1.7495    2.2939 O   0  0  0  0  0  0  0  0  0  0  0  0
    7.3959   -0.0190    1.0505 O   0  0  0  0  0  0  0  0  0  0  0  0
   -1.0980    1.0060   -0.0700 C   0  0  1  0  0  0  0  0  0  0  0  0
    0.4063    0.8137    0.2192 C   0  0  1  0  0  0  0  0  0  0  0  0
    1.1858    0.2372   -0.9863 C   0  0  1  0  0  0  0  0  0  0  0  0
   -1.7017   -0.3836   -0.4543 C   0  0  1  0  0  0  0  0  0  0  0  0
   -3.2547   -0.3542   -0.7280 C   0  0  2  0  0  0  0  0  0  0  0  0
    2.6110    0.2131   -0.3822 C   0  0  2  0  0  0  0  0  0  0  0  0
   -4.0254    0.4230    0.4046 C   0  0  2  0  0  0  0  0  0  0  0  0
    0.6132   -1.1495   -1.3041 C   0  0  0  0  0  0  0  0  0  0  0  0
   -0.8951   -1.0821   -1.5841 C   0  0  0  0  0  0  0  0  0  0  0  0
   -1.8616    1.5821    1.1370 C   0  0  2  0  0  0  0  0  0  0  0  0
    1.2650    2.0023    0.6502 C   0  0  0  0  0  0  0  0  0  0  0  0
   -3.3539    1.7322    0.8454 C   0  0  1  0  0  0  0  0  0  0  0  0
    2.7118    1.5599    0.3653 C   0  0  0  0  0  0  0  0  0  0  0  0
   -3.7690   -1.8357   -0.7975 C   0  0  0  0  0  0  0  0  0  0  0  0
    1.1326    1.1289   -2.2528 C   0  0  0  0  0  0  0  0  0  0  0  0
   -4.2909   -0.5006    1.6034 C   0  0  0  0  0  0  0  0  0  0  0  0
    3.7605   -0.0118   -1.3542 C   0  0  1  0  0  0  0  0  0  0  0  0
   -3.5650    0.3171   -2.0896 C   0  0  0  0  0  0  0  0  0  0  0  0
   -5.1859   -2.0098   -0.2561 C   0  0  0  0  0  0  0  0  0  0  0  0
   -5.2559   -1.6310    1.2262 C   0  0  1  0  0  0  0  0  0  0  0  0
    5.1076    0.0378   -0.6045 C   0  0  0  0  0  0  0  0  0  0  0  0
    3.5660   -1.3363   -2.0998 C   0  0  0  0  0  0  0  0  0  0  0  0
    5.2129   -0.9711    0.5409 C   0  0  0  0  0  0  0  0  0  0  0  0
    6.5173   -0.8344    1.2937 C   0  0  0  0  0  0  0  0  0  0  0  0
   -1.2008    1.7086   -0.9039 H   0  0  0  0  0  0  0  0  0  0  0  0
    0.4669    0.0878    1.0477 H   0  0  0  0  0  0  0  0  0  0  0  0
   -1.5605   -1.0181    0.4349 H   0  0  0  0  0  0  0  0  0  0  0  0
    2.6082   -0.5858    0.3711 H   0  0  0  0  0  0  0  0  0  0  0  0
   -5.0111    0.7086    0.0070 H   0  0  0  0  0  0  0  0  0  0  0  0
    0.7846   -1.8360   -0.4652 H   0  0  0  0  0  0  0  0  0  0  0  0
    1.0639   -1.6075   -2.1843 H   0  0  0  0  0  0  0  0  0  0  0  0
   -1.0541   -0.5692   -2.5378 H   0  0  0  0  0  0  0  0  0  0  0  0
   -1.2565   -2.1071   -1.7247 H   0  0  0  0  0  0  0  0  0  0  0  0
   -1.7141    0.9322    2.0079 H   0  0  0  0  0  0  0  0  0  0  0  0
    1.1377    2.2374    1.7117 H   0  0  0  0  0  0  0  0  0  0  0  0
    1.0234    2.9027    0.0744 H   0  0  0  0  0  0  0  0  0  0  0  0
   -3.8637    2.1348    1.7291 H   0  0  0  0  0  0  0  0  0  0  0  0
    3.2160    2.3301   -0.2296 H   0  0  0  0  0  0  0  0  0  0  0  0
    3.2721    1.4467    1.2998 H   0  0  0  0  0  0  0  0  0  0  0  0
   -3.1125   -2.4951   -0.2145 H   0  0  0  0  0  0  0  0  0  0  0  0
   -3.7295   -2.2113   -1.8274 H   0  0  0  0  0  0  0  0  0  0  0  0
    1.6116    2.1011   -2.0994 H   0  0  0  0  0  0  0  0  0  0  0  0
    1.6342    0.6529   -3.1009 H   0  0  0  0  0  0  0  0  0  0  0  0
    0.1097    1.3343   -2.5795 H   0  0  0  0  0  0  0  0  0  0  0  0
   -3.3512   -0.9099    1.9944 H   0  0  0  0  0  0  0  0  0  0  0  0
   -4.7317    0.0634    2.4352 H   0  0  0  0  0  0  0  0  0  0  0  0
    3.7968    0.7904   -2.1017 H   0  0  0  0  0  0  0  0  0  0  0  0
   -3.0964    1.2997   -2.1854 H   0  0  0  0  0  0  0  0  0  0  0  0
   -3.2143   -0.2880   -2.9323 H   0  0  0  0  0  0  0  0  0  0  0  0
   -4.6442    0.4466   -2.2289 H   0  0  0  0  0  0  0  0  0  0  0  0
   -5.8700   -1.3774   -0.8346 H   0  0  0  0  0  0  0  0  0  0  0  0
   -5.5051   -3.0482   -0.4028 H   0  0  0  0  0  0  0  0  0  0  0  0
   -6.2832   -1.3361    1.4700 H   0  0  0  0  0  0  0  0  0  0  0  0
   -1.8287    3.1746    2.2690 H   0  0  0  0  0  0  0  0  0  0  0  0
    5.9218   -0.1437   -1.3189 H   0  0  0  0  0  0  0  0  0  0  0  0
    5.2830    1.0503   -0.2201 H   0  0  0  0  0  0  0  0  0  0  0  0
   -3.1020    3.5248    0.1046 H   0  0  0  0  0  0  0  0  0  0  0  0
    3.2233   -2.1431   -1.4448 H   0  0  0  0  0  0  0  0  0  0  0  0
    2.8917   -1.2267   -2.9512 H   0  0  0  0  0  0  0  0  0  0  0  0
    4.5186   -1.6640   -2.5337 H   0  0  0  0  0  0  0  0  0  0  0  0
   -5.5906   -3.4583    1.8313 H   0  0  0  0  0  0  0  0  0  0  0  0
    4.4279   -0.8185    1.2857 H   0  0  0  0  0  0  0  0  0  0  0  0
    5.1515   -1.9931    0.1533 H   0  0  0  0  0  0  0  0  0  0  0  0
    7.4564   -1.6690    2.7847 H   0  0  0  0  0  0  0  0  0  0  0  0
  1 15  1  0  0  0  0
  1 59  1  0  0  0  0
  2 17  1  0  0  0  0
  2 62  1  0  0  0  0
  3 25  1  0  0  0  0
  3 66  1  0  0  0  0
  4 29  1  0  0  0  0
  4 69  1  0  0  0  0
  5 29  2  0  0  0  0
  6  7  1  0  0  0  0
  6  9  1  0  0  0  0
  6 15  1  0  0  0  0
  6 30  1  0  0  0  0
  7  8  1  0  0  0  0
  7 16  1  0  0  0  0
  7 31  1  0  0  0  0
  8 11  1  0  0  0  0
  8 13  1  0  0  0  0
  8 20  1  0  0  0  0
  9 10  1  0  0  0  0
  9 14  1  0  0  0  0
  9 32  1  0  0  0  0
 10 12  1  0  0  0  0
 10 19  1  0  0  0  0
 10 23  1  0  0  0  0
 11 18  1  0  0  0  0
 11 22  1  0  0  0  0
 11 33  1  0  0  0  0
 12 17  1  0  0  0  0
 12 21  1  0  0  0  0
 12 34  1  0  0  0  0
 13 14  1  0  0  0  0
 13 35  1  0  0  0  0
 13 36  1  0  0  0  0
 14 37  1  0  0  0  0
 14 38  1  0  0  0  0
 15 17  1  0  0  0  0
 15 39  1  0  0  0  0
 16 18  1  0  0  0  0
 16 40  1  0  0  0  0
 16 41  1  0  0  0  0
 17 42  1  0  0  0  0
 18 43  1  0  0  0  0
 18 44  1  0  0  0  0
 19 24  1  0  0  0  0
 19 45  1  0  0  0  0
 19 46  1  0  0  0  0
 20 47  1  0  0  0  0
 20 48  1  0  0  0  0
 20 49  1  0  0  0  0
 21 25  1  0  0  0  0
 21 50  1  0  0  0  0
 21 51  1  0  0  0  0
 22 26  1  0  0  0  0
 22 27  1  0  0  0  0
 22 52  1  0  0  0  0
 23 53  1  0  0  0  0
 23 54  1  0  0  0  0
 23 55  1  0  0  0  0
 24 25  1  0  0  0  0
 24 56  1  0  0  0  0
 24 57  1  0  0  0  0
 25 58  1  0  0  0  0
 26 28  1  0  0  0  0
 26 60  1  0  0  0  0
 26 61  1  0  0  0  0
 27 63  1  0  0  0  0
 27 64  1  0  0  0  0
 27 65  1  0  0  0  0
 28 29  1  0  0  0  0
 28 67  1  0  0  0  0
 28 68  1  0  0  0  0
M  END
> <PUBCHEM_COMPOUND_CID>
5283853

> <PUBCHEM_CONFORMER_RMSD>
0.8

> <PUBCHEM_CONFORMER_DIVERSEORDER>
6
9
11
1
8
2
10
5
3
7
4

> <PUBCHEM_MMFF94_PARTIAL_CHARGES>
14
1 -0.68
15 0.28
17 0.28
2 -0.68
25 0.28
28 0.06
29 0.66
3 -0.68
4 -0.65
5 -0.57
59 0.4
62 0.4
66 0.4
69 0.5

> <PUBCHEM_EFFECTIVE_ROTOR_COUNT>
6.2

> <PUBCHEM_PHARMACOPHORE_FEATURES>
14
1 1 acceptor
1 1 donor
1 2 acceptor
1 2 donor
1 27 hydrophobe
1 3 acceptor
1 3 donor
1 4 acceptor
1 5 acceptor
3 4 5 29 anion
5 7 8 11 16 18 rings
6 10 12 19 21 24 25 rings
6 6 7 8 9 13 14 rings
6 6 9 10 12 15 17 rings

> <PUBCHEM_HEAVY_ATOM_COUNT>
29

> <PUBCHEM_ATOM_DEF_STEREO_COUNT>
11

> <PUBCHEM_ATOM_UDEF_STEREO_COUNT>
0

> <PUBCHEM_BOND_DEF_STEREO_COUNT>
0

> <PUBCHEM_BOND_UDEF_STEREO_COUNT>
0

> <PUBCHEM_ISOTOPIC_ATOM_COUNT>
0

> <PUBCHEM_COMPONENT_COUNT>
1

> <PUBCHEM_CACTVS_TAUTO_COUNT>
1

> <PUBCHEM_CONFORMER_ID>
0050A00D00000006

> <PUBCHEM_MMFF94_ENERGY>
109.9309

> <PUBCHEM_FEATURE_SELFOVERLAP>
71.214

> <PUBCHEM_SHAPE_FINGERPRINT>
10 15 18040437677197138048
10319926 262 17896598574019843118
11796584 16 17845944034246190010
12035758 1 17530682091647669650
12166972 35 17988359273960412348
12236239 1 18201718462043389724
12403259 415 16732974367113821628
12422481 6 17458886220095044447
12596602 18 18343022194766135312
12633257 1 17458623359058286212
12892183 10 17968656137718472798
13140716 1 17751360577632817679
13224815 77 18041550361299901653
13540713 4 17532919722121652644
13583140 156 18271535264052449965
13782708 43 17775284937204679698
14211702 104 18343578573262000610
14251751 18 17846498102086132082
14790565 3 17105370971087742153
15183329 4 12103567507207739728
15188451 53 18343302539718222555
15685185 35 17620182141330513460
15788980 27 17131830988802154726
17349148 13 18272355465124380766
17980427 23 15502378898101594896
1813 80 18202274836639323324
18927931 339 18260827098882097813
19377110 9 18334010567394726384
200 152 15266779902373610023
20567600 247 17132121247293298370
20775438 99 15835908947581325779
21033648 29 17676482899436066753
21637258 2 17632582639045387730
21756936 100 6194547919099215580
22122407 14 5184062678278032170
22182313 1 17459731791517967381
23559900 14 18040995163251045357
23569914 152 14185971091297300882
268830 7 14707203374674243654
2838139 119 5689302539422778026
3383291 50 18410857638242149114
350125 39 18041549261355990893
392239 28 18040715827120341530
4015057 19 15625928820992053364
4258327 124 7132712804121591843
5104073 3 18261387823763424616
531348 171 16916515864170258847

> <PUBCHEM_SHAPE_MULTIPOLES>
567.46
14.6
2.44
2.06
17.83
0.9
0.16
-7.36
8.99
-2.54
0.59
0.66
-0.83
0.23

> <PUBCHEM_SHAPE_SELFOVERLAP>
1191.047

> <PUBCHEM_SHAPE_VOLUME>
318.2

> <PUBCHEM_COORDINATE_TYPE>
2
5
10

$$$$

