16248
  -OEChem-07051213123D

 30 30  0     0  0  0  0  0  0999 V2000
    3.8771    0.0006   -0.0805 S   0  0  0  0  0  0  0  0  0  0  0  0
   -1.9796   -0.0007    0.9483 O   0  0  0  0  0  0  0  0  0  0  0  0
   -2.3370    0.0025   -1.3491 O   0  0  0  0  0  0  0  0  0  0  0  0
   -4.1234   -0.0003    0.1310 N   0  0  0  0  0  0  0  0  0  0  0  0
    1.4213    1.2076    0.3512 C   0  0  0  0  0  0  0  0  0  0  0  0
    1.4218   -1.2085    0.3502 C   0  0  0  0  0  0  0  0  0  0  0  0
    2.1085   -0.0002    0.2299 C   0  0  0  0  0  0  0  0  0  0  0  0
    0.0475    1.2074    0.5927 C   0  0  0  0  0  0  0  0  0  0  0  0
    0.0479   -1.2086    0.5916 C   0  0  0  0  0  0  0  0  0  0  0  0
   -0.6391   -0.0007    0.7128 C   0  0  0  0  0  0  0  0  0  0  0  0
    2.1059    2.5325    0.2320 C   0  0  0  0  0  0  0  0  0  0  0  0
    2.1068   -2.5328    0.2296 C   0  0  0  0  0  0  0  0  0  0  0  0
    3.9202    0.0015   -1.8924 C   0  0  0  0  0  0  0  0  0  0  0  0
   -2.7857   -0.0002   -0.2066 C   0  0  0  0  0  0  0  0  0  0  0  0
   -5.1922    0.0001   -0.8406 C   0  0  0  0  0  0  0  0  0  0  0  0
   -0.5001    2.1419    0.6895 H   0  0  0  0  0  0  0  0  0  0  0  0
   -0.4995   -2.1433    0.6876 H   0  0  0  0  0  0  0  0  0  0  0  0
    2.8984    2.6308    0.9812 H   0  0  0  0  0  0  0  0  0  0  0  0
    2.5253    2.6659   -0.7702 H   0  0  0  0  0  0  0  0  0  0  0  0
    1.4122    3.3646    0.3988 H   0  0  0  0  0  0  0  0  0  0  0  0
    2.5259   -2.6652   -0.7728 H   0  0  0  0  0  0  0  0  0  0  0  0
    2.8996   -2.6315    0.9784 H   0  0  0  0  0  0  0  0  0  0  0  0
    1.4135   -3.3653    0.3959 H   0  0  0  0  0  0  0  0  0  0  0  0
    3.4257    0.8922   -2.2883 H   0  0  0  0  0  0  0  0  0  0  0  0
    3.4264   -0.8893   -2.2891 H   0  0  0  0  0  0  0  0  0  0  0  0
    4.9607    0.0020   -2.2273 H   0  0  0  0  0  0  0  0  0  0  0  0
   -4.3700   -0.0018    1.1159 H   0  0  0  0  0  0  0  0  0  0  0  0
   -4.8033    0.0053   -1.8615 H   0  0  0  0  0  0  0  0  0  0  0  0
   -5.8054    0.8887   -0.6725 H   0  0  0  0  0  0  0  0  0  0  0  0
   -5.7997   -0.8938   -0.6795 H   0  0  0  0  0  0  0  0  0  0  0  0
  1  7  1  0  0  0  0
  1 13  1  0  0  0  0
  2 10  1  0  0  0  0
  2 14  1  0  0  0  0
  3 14  2  0  0  0  0
  4 14  1  0  0  0  0
  4 15  1  0  0  0  0
  4 27  1  0  0  0  0
  5  7  2  0  0  0  0
  5  8  1  0  0  0  0
  5 11  1  0  0  0  0
  6  7  1  0  0  0  0
  6  9  2  0  0  0  0
  6 12  1  0  0  0  0
  8 10  2  0  0  0  0
  8 16  1  0  0  0  0
  9 10  1  0  0  0  0
  9 17  1  0  0  0  0
 11 18  1  0  0  0  0
 11 19  1  0  0  0  0
 11 20  1  0  0  0  0
 12 21  1  0  0  0  0
 12 22  1  0  0  0  0
 12 23  1  0  0  0  0
 13 24  1  0  0  0  0
 13 25  1  0  0  0  0
 13 26  1  0  0  0  0
 15 28  1  0  0  0  0
 15 29  1  0  0  0  0
 15 30  1  0  0  0  0
M  END
> <PUBCHEM_COMPOUND_CID>
16248

> <PUBCHEM_CONFORMER_RMSD>
0.6

> <PUBCHEM_CONFORMER_DIVERSEORDER>
1
23
24
19
8
21
5
15
9
25
17
16
26
7
12
20
14
10
27
2
22
11
13
28
3
18
6
4

> <PUBCHEM_MMFF94_PARTIAL_CHARGES>
18
1 -0.33
10 0.08
11 0.14
12 0.14
13 0.23
14 0.78
15 0.3
16 0.15
17 0.15
2 -0.23
27 0.37
3 -0.57
4 -0.73
5 -0.14
6 -0.14
7 0.1
8 -0.15
9 -0.15

> <PUBCHEM_EFFECTIVE_ROTOR_COUNT>
4

> <PUBCHEM_PHARMACOPHORE_FEATURES>
4
1 13 hydrophobe
1 3 acceptor
1 4 donor
6 5 6 7 8 9 10 rings

> <PUBCHEM_HEAVY_ATOM_COUNT>
15

> <PUBCHEM_ATOM_DEF_STEREO_COUNT>
0

> <PUBCHEM_ATOM_UDEF_STEREO_COUNT>
0

> <PUBCHEM_BOND_DEF_STEREO_COUNT>
0

> <PUBCHEM_BOND_UDEF_STEREO_COUNT>
0

> <PUBCHEM_ISOTOPIC_ATOM_COUNT>
0

> <PUBCHEM_COMPONENT_COUNT>
1

> <PUBCHEM_CACTVS_TAUTO_COUNT>
2

> <PUBCHEM_CONFORMER_ID>
00003F7800000001

> <PUBCHEM_MMFF94_ENERGY>
43.2149

> <PUBCHEM_FEATURE_SELFOVERLAP>
20.297

> <PUBCHEM_SHAPE_FINGERPRINT>
10498660 4 16414651504482012685
11031198 65 18273213101442649294
11206711 2 18339915021845023764
11471102 20 18411704283104869992
11769659 78 15936682766011137438
11796584 16 14996553036409205581
12616999 72 18272088313916674422
12730499 353 18272929402131796003
13380536 305 18339080393798305280
14251717 144 18409450297327027786
14350558 41 15936399053203634196
14576447 43 18260277330241713303
14911166 2 18410848850664045236
14993402 34 18186798093159124470
15477762 27 18336271218555980947
16945 1 18410566293329202586
18186145 218 18409732828981783193
20645476 183 18113626664162818655
20645477 70 18113620049728117933
20671657 53 18261108612466352936
21119208 17 17967251992354822613
21256008 61 18113053839873497588
21501502 16 18125156284413972584
21637258 2 16009028457949827262
22112679 90 17972309891976949786
22182313 1 18051116005007969866
22289505 5 18271537501751802653
2255824 54 18335143055327811440
22713019 99 18187074058093617158
23114952 82 17845369032461672670
2334 1 17977659806393876352
23402539 116 16486978366830466347
23402655 69 18339932601420161141
23419403 2 17125129525892704864
23526113 38 18059852921538478162
23557571 272 16987985125425223283
23559900 14 18264750110117301844
23590187 302 18410295813163048189
23598291 2 17897997186463237379
25 1 18343585131296473650
25147074 1 18123177176801128266
2748010 2 18051119303553441712
2838139 119 16343131417005911526
29717793 49 17530688702024526301
3060560 45 18408325475673319430
3071541 37 18273212019380052522
4072396 5 18271261481731373402
42630746 31 18261120621115752472
4990 188 18260263027662669831

> <PUBCHEM_SHAPE_MULTIPOLES>
295.82
7.89
1.9
1.15
8.86
0
-0.53
0
-3.6
-1.99
0.4
-0.38
0
0

> <PUBCHEM_SHAPE_SELFOVERLAP>
590.113

> <PUBCHEM_SHAPE_VOLUME>
178.3

> <PUBCHEM_COORDINATE_TYPE>
2
5
10

$$$$

