442366
  -OEChem-07051212573D

 85 91  0     1  0  0  0  0  0999 V2000
    3.2954    0.9002    0.3379 O   0  0  0  0  0  0  0  0  0  0  0  0
    4.4278    3.4481    0.0919 O   0  0  0  0  0  0  0  0  0  0  0  0
    2.2173   -1.3353   -3.7700 O   0  0  0  0  0  0  0  0  0  0  0  0
    2.9848    0.9457   -2.4438 O   0  0  0  0  0  0  0  0  0  0  0  0
   -3.8968   -1.8859    0.7608 O   0  0  0  0  0  0  0  0  0  0  0  0
   -6.3621   -0.8835    0.2586 O   0  0  0  0  0  0  0  0  0  0  0  0
    2.4092   -3.8617    1.8872 N   0  0  2  0  0  0  0  0  0  0  0  0
   -1.9128    4.2235    0.8662 N   0  0  2  0  0  0  0  0  0  0  0  0
    2.2827   -3.9602    0.4059 C   0  0  2  0  0  0  0  0  0  0  0  0
   -1.2161    2.9614    0.5230 C   0  0  2  0  0  0  0  0  0  0  0  0
    2.4182   -2.6182   -0.3310 C   0  0  0  0  0  0  0  0  0  0  0  0
    0.2956    3.0859    0.3958 C   0  0  0  0  0  0  0  0  0  0  0  0
    2.7859   -1.4433    0.3549 C   0  0  0  0  0  0  0  0  0  0  0  0
    3.4373   -2.8933    2.2836 C   0  0  0  0  0  0  0  0  0  0  0  0
    3.0274   -1.4954    1.8384 C   0  0  0  0  0  0  0  0  0  0  0  0
   -1.3886    5.3652    0.1044 C   0  0  0  0  0  0  0  0  0  0  0  0
    0.9173    4.3365    0.2506 C   0  0  0  0  0  0  0  0  0  0  0  0
    0.1100    5.6057    0.3003 C   0  0  0  0  0  0  0  0  0  0  0  0
    0.9791   -4.7221    0.0051 C   0  0  0  0  0  0  0  0  0  0  0  0
   -1.8207    2.3601   -0.7746 C   0  0  0  0  0  0  0  0  0  0  0  0
    2.8937   -0.2281   -0.3477 C   0  0  0  0  0  0  0  0  0  0  0  0
    1.0835    1.9211    0.4189 C   0  0  0  0  0  0  0  0  0  0  0  0
    2.2514   -2.5537   -1.7264 C   0  0  0  0  0  0  0  0  0  0  0  0
    2.4704    2.0017    0.2784 C   0  0  0  0  0  0  0  0  0  0  0  0
    2.7164   -5.1582    2.5043 C   0  0  0  0  0  0  0  0  0  0  0  0
    2.3131    4.4065    0.1378 C   0  0  0  0  0  0  0  0  0  0  0  0
   -1.9094    4.4783    2.3072 C   0  0  0  0  0  0  0  0  0  0  0  0
   -0.3243   -3.9805    0.2094 C   0  0  0  0  0  0  0  0  0  0  0  0
   -3.0385    1.5102   -0.5013 C   0  0  0  0  0  0  0  0  0  0  0  0
    2.7032   -0.1819   -1.7305 C   0  0  0  0  0  0  0  0  0  0  0  0
    3.0866    3.2457    0.1531 C   0  0  0  0  0  0  0  0  0  0  0  0
    2.3831   -1.3474   -2.4166 C   0  0  0  0  0  0  0  0  0  0  0  0
   -2.8716    0.2173    0.0168 C   0  0  0  0  0  0  0  0  0  0  0  0
   -1.0784   -3.5719   -0.9021 C   0  0  0  0  0  0  0  0  0  0  0  0
   -0.8193   -3.7151    1.4940 C   0  0  0  0  0  0  0  0  0  0  0  0
   -4.3296    1.9860   -0.7490 C   0  0  0  0  0  0  0  0  0  0  0  0
   -3.9784   -0.6055    0.2503 C   0  0  0  0  0  0  0  0  0  0  0  0
   -2.7278   -2.5798    0.5503 C   0  0  0  0  0  0  0  0  0  0  0  0
   -2.2803   -2.8840   -0.7363 C   0  0  0  0  0  0  0  0  0  0  0  0
   -2.0168   -3.0181    1.6660 C   0  0  0  0  0  0  0  0  0  0  0  0
   -5.4366    1.1754   -0.4916 C   0  0  0  0  0  0  0  0  0  0  0  0
   -5.2632   -0.1166    0.0075 C   0  0  0  0  0  0  0  0  0  0  0  0
    5.1155    3.6525    1.3276 C   0  0  0  0  0  0  0  0  0  0  0  0
    0.9023   -1.0806   -4.2599 C   0  0  0  0  0  0  0  0  0  0  0  0
   -6.8357   -1.7066   -0.8055 C   0  0  0  0  0  0  0  0  0  0  0  0
    3.1325   -4.5599    0.0458 H   0  0  0  0  0  0  0  0  0  0  0  0
   -1.3942    2.2496    1.3421 H   0  0  0  0  0  0  0  0  0  0  0  0
    4.4159   -3.1635    1.8636 H   0  0  0  0  0  0  0  0  0  0  0  0
    3.5449   -2.8761    3.3754 H   0  0  0  0  0  0  0  0  0  0  0  0
    3.8279   -0.8020    2.1213 H   0  0  0  0  0  0  0  0  0  0  0  0
    2.1127   -1.1801    2.3559 H   0  0  0  0  0  0  0  0  0  0  0  0
   -1.9434    6.2771    0.3593 H   0  0  0  0  0  0  0  0  0  0  0  0
   -1.5864    5.2066   -0.9629 H   0  0  0  0  0  0  0  0  0  0  0  0
    0.2846    6.0872    1.2705 H   0  0  0  0  0  0  0  0  0  0  0  0
    0.4593    6.2957   -0.4773 H   0  0  0  0  0  0  0  0  0  0  0  0
    0.9035   -5.6826    0.5278 H   0  0  0  0  0  0  0  0  0  0  0  0
    1.0548   -5.0190   -1.0495 H   0  0  0  0  0  0  0  0  0  0  0  0
   -1.0923    1.7201   -1.2919 H   0  0  0  0  0  0  0  0  0  0  0  0
   -2.0642    3.1347   -1.5121 H   0  0  0  0  0  0  0  0  0  0  0  0
    0.6012    0.9562    0.5568 H   0  0  0  0  0  0  0  0  0  0  0  0
    2.0254   -3.4537   -2.2931 H   0  0  0  0  0  0  0  0  0  0  0  0
    1.9128   -5.8835    2.3526 H   0  0  0  0  0  0  0  0  0  0  0  0
    2.8127   -5.0520    3.5913 H   0  0  0  0  0  0  0  0  0  0  0  0
    3.6495   -5.5861    2.1207 H   0  0  0  0  0  0  0  0  0  0  0  0
    2.7953    5.3786    0.0537 H   0  0  0  0  0  0  0  0  0  0  0  0
   -0.9015    4.5539    2.7283 H   0  0  0  0  0  0  0  0  0  0  0  0
   -2.4379    3.6762    2.8349 H   0  0  0  0  0  0  0  0  0  0  0  0
   -2.4487    5.4042    2.5359 H   0  0  0  0  0  0  0  0  0  0  0  0
   -1.8637   -0.1285    0.2325 H   0  0  0  0  0  0  0  0  0  0  0  0
   -0.7331   -3.7863   -1.9106 H   0  0  0  0  0  0  0  0  0  0  0  0
   -0.2812   -4.0507    2.3758 H   0  0  0  0  0  0  0  0  0  0  0  0
   -4.4826    2.9879   -1.1413 H   0  0  0  0  0  0  0  0  0  0  0  0
   -2.8479   -2.5795   -1.6111 H   0  0  0  0  0  0  0  0  0  0  0  0
   -2.3797   -2.8109    2.6689 H   0  0  0  0  0  0  0  0  0  0  0  0
   -6.4355    1.5592   -0.6827 H   0  0  0  0  0  0  0  0  0  0  0  0
    2.8573    0.7588   -3.3898 H   0  0  0  0  0  0  0  0  0  0  0  0
    4.9753    2.7934    1.9914 H   0  0  0  0  0  0  0  0  0  0  0  0
    4.7647    4.5673    1.8157 H   0  0  0  0  0  0  0  0  0  0  0  0
    6.1821    3.7578    1.1114 H   0  0  0  0  0  0  0  0  0  0  0  0
    0.5427   -0.1059   -3.9148 H   0  0  0  0  0  0  0  0  0  0  0  0
    0.2155   -1.8692   -3.9368 H   0  0  0  0  0  0  0  0  0  0  0  0
    0.9387   -1.0738   -5.3527 H   0  0  0  0  0  0  0  0  0  0  0  0
   -6.0645   -2.4185   -1.1162 H   0  0  0  0  0  0  0  0  0  0  0  0
   -7.1438   -1.0915   -1.6569 H   0  0  0  0  0  0  0  0  0  0  0  0
   -7.7035   -2.2660   -0.4458 H   0  0  0  0  0  0  0  0  0  0  0  0
  1 21  1  0  0  0  0
  1 24  1  0  0  0  0
  2 31  1  0  0  0  0
  2 43  1  0  0  0  0
  3 32  1  0  0  0  0
  3 44  1  0  0  0  0
  4 30  1  0  0  0  0
  4 76  1  0  0  0  0
  5 37  1  0  0  0  0
  5 38  1  0  0  0  0
  6 42  1  0  0  0  0
  6 45  1  0  0  0  0
  7  9  1  0  0  0  0
  7 14  1  0  0  0  0
  7 25  1  0  0  0  0
  8 10  1  0  0  0  0
  8 16  1  0  0  0  0
  8 27  1  0  0  0  0
  9 11  1  0  0  0  0
  9 19  1  0  0  0  0
  9 46  1  0  0  0  0
 10 12  1  0  0  0  0
 10 20  1  0  0  0  0
 10 47  1  0  0  0  0
 11 13  1  0  0  0  0
 11 23  2  0  0  0  0
 12 17  1  0  0  0  0
 12 22  2  0  0  0  0
 13 15  1  0  0  0  0
 13 21  2  0  0  0  0
 14 15  1  0  0  0  0
 14 48  1  0  0  0  0
 14 49  1  0  0  0  0
 15 50  1  0  0  0  0
 15 51  1  0  0  0  0
 16 18  1  0  0  0  0
 16 52  1  0  0  0  0
 16 53  1  0  0  0  0
 17 18  1  0  0  0  0
 17 26  2  0  0  0  0
 18 54  1  0  0  0  0
 18 55  1  0  0  0  0
 19 28  1  0  0  0  0
 19 56  1  0  0  0  0
 19 57  1  0  0  0  0
 20 29  1  0  0  0  0
 20 58  1  0  0  0  0
 20 59  1  0  0  0  0
 21 30  1  0  0  0  0
 22 24  1  0  0  0  0
 22 60  1  0  0  0  0
 23 32  1  0  0  0  0
 23 61  1  0  0  0  0
 24 31  2  0  0  0  0
 25 62  1  0  0  0  0
 25 63  1  0  0  0  0
 25 64  1  0  0  0  0
 26 31  1  0  0  0  0
 26 65  1  0  0  0  0
 27 66  1  0  0  0  0
 27 67  1  0  0  0  0
 27 68  1  0  0  0  0
 28 34  2  0  0  0  0
 28 35  1  0  0  0  0
 29 33  2  0  0  0  0
 29 36  1  0  0  0  0
 30 32  2  0  0  0  0
 33 37  1  0  0  0  0
 33 69  1  0  0  0  0
 34 39  1  0  0  0  0
 34 70  1  0  0  0  0
 35 40  2  0  0  0  0
 35 71  1  0  0  0  0
 36 41  2  0  0  0  0
 36 72  1  0  0  0  0
 37 42  2  0  0  0  0
 38 39  2  0  0  0  0
 38 40  1  0  0  0  0
 39 73  1  0  0  0  0
 40 74  1  0  0  0  0
 41 42  1  0  0  0  0
 41 75  1  0  0  0  0
 43 77  1  0  0  0  0
 43 78  1  0  0  0  0
 43 79  1  0  0  0  0
 44 80  1  0  0  0  0
 44 81  1  0  0  0  0
 44 82  1  0  0  0  0
 45 83  1  0  0  0  0
 45 84  1  0  0  0  0
 45 85  1  0  0  0  0
M  END
> <PUBCHEM_COMPOUND_CID>
442366

> <PUBCHEM_CONFORMER_RMSD>
1

> <PUBCHEM_CONFORMER_DIVERSEORDER>
1
5
2
3
4

> <PUBCHEM_MMFF94_PARTIAL_CHARGES>
56
1 -0.17
10 0.41
11 -0.14
12 -0.14
13 -0.14
14 0.27
15 0.14
16 0.27
17 -0.14
18 0.14
19 0.14
2 -0.36
20 0.14
21 0.08
22 -0.15
23 -0.15
24 0.08
25 0.27
26 -0.15
27 0.27
28 -0.14
29 -0.14
3 -0.36
30 0.08
31 0.08
32 0.08
33 -0.15
34 -0.15
35 -0.15
36 -0.15
37 0.08
38 0.08
39 -0.15
4 -0.53
40 -0.15
41 -0.15
42 0.08
43 0.28
44 0.28
45 0.28
5 -0.17
6 -0.36
60 0.15
61 0.15
65 0.15
69 0.15
7 -0.81
70 0.15
71 0.15
72 0.15
73 0.15
74 0.15
75 0.15
76 0.45
8 -0.81
9 0.41

> <PUBCHEM_EFFECTIVE_ROTOR_COUNT>
5

> <PUBCHEM_PHARMACOPHORE_FEATURES>
14
1 1 acceptor
1 2 acceptor
1 3 acceptor
1 4 donor
1 5 acceptor
1 6 acceptor
1 7 cation
1 8 cation
6 11 13 21 23 30 32 rings
6 12 17 22 24 26 31 rings
6 28 34 35 38 39 40 rings
6 29 33 36 37 41 42 rings
6 7 9 11 13 14 15 rings
6 8 10 12 16 17 18 rings

> <PUBCHEM_HEAVY_ATOM_COUNT>
45

> <PUBCHEM_ATOM_DEF_STEREO_COUNT>
2

> <PUBCHEM_ATOM_UDEF_STEREO_COUNT>
0

> <PUBCHEM_BOND_DEF_STEREO_COUNT>
0

> <PUBCHEM_BOND_UDEF_STEREO_COUNT>
0

> <PUBCHEM_ISOTOPIC_ATOM_COUNT>
0

> <PUBCHEM_COMPONENT_COUNT>
1

> <PUBCHEM_CACTVS_TAUTO_COUNT>
7

> <PUBCHEM_CONFORMER_ID>
0006BFFE00000001

> <PUBCHEM_MMFF94_ENERGY>
190.8079

> <PUBCHEM_FEATURE_SELFOVERLAP>
71.093

> <PUBCHEM_SHAPE_FINGERPRINT>
10290309 65 18341344331042518941
10439779 11 17979363284448896963
10675989 125 18339084899272116617
10677394 353 18269011894469476458
13122387 1 18266735964400802123
131258 38 17916879022375345723
1361 2 18265337218681384035
14279260 333 16322607662475025480
144659 178 17691689304525833192
14725015 67 18337672039609421879
15274700 256 18337951320924468358
15274700 259 17414444094337160893
15320467 1 18195249910372031497
15484559 13 18047464530686933796
15815584 197 18195513810031531961
20764821 26 18338808809804242659
22121540 332 17900564551206289906
354706 109 17469344538507417297
3882209 13 17835840686317706579
4394409 98 16759449764986783605
45266715 3 18123484782849959151
4756261 7 18196115415750836650

> <PUBCHEM_SHAPE_MULTIPOLES>
880.9
9.74
9.5
2.48
5.21
6.06
2.29
-6.67
-2.31
4.61
-2.88
-3.32
-0.49
-2.27

> <PUBCHEM_SHAPE_SELFOVERLAP>
1939.343

> <PUBCHEM_SHAPE_VOLUME>
474.6

> <PUBCHEM_COORDINATE_TYPE>
2
5
10

$$$$

