441036
  -OEChem-07051212513D

 24 24  0     1  0  0  0  0  0999 V2000
    0.7393    1.1265   -0.3381 O   0  0  0  0  0  0  0  0  0  0  0  0
   -0.4351   -1.3927   -1.2432 O   0  0  0  0  0  0  0  0  0  0  0  0
    1.3821   -0.0401    1.6239 O   0  0  0  0  0  0  0  0  0  0  0  0
   -2.5905   -1.2035    0.5422 O   0  0  0  0  0  0  0  0  0  0  0  0
   -2.0354    0.8946   -1.2132 O   0  0  0  0  0  0  0  0  0  0  0  0
    3.3145    0.1823   -0.3797 O   0  0  0  0  0  0  0  0  0  0  0  0
   -0.1936   -1.0825    0.1287 C   0  0  1  0  0  0  0  0  0  0  0  0
    1.0321   -0.1549    0.2412 C   0  0  1  0  0  0  0  0  0  0  0  0
   -1.4285   -0.4061    0.7377 C   0  0  1  0  0  0  0  0  0  0  0  0
   -1.6520    0.9901    0.1581 C   0  0  1  0  0  0  0  0  0  0  0  0
   -0.3682    1.8079    0.2591 C   0  0  0  0  0  0  0  0  0  0  0  0
    2.2354   -0.7216   -0.5168 C   0  0  0  0  0  0  0  0  0  0  0  0
   -0.0157   -2.0336    0.6435 H   0  0  0  0  0  0  0  0  0  0  0  0
   -1.2854   -0.3149    1.8211 H   0  0  0  0  0  0  0  0  0  0  0  0
   -2.4686    1.4997    0.6813 H   0  0  0  0  0  0  0  0  0  0  0  0
   -0.4825    2.7536   -0.2810 H   0  0  0  0  0  0  0  0  0  0  0  0
   -0.1278    2.0439    1.3017 H   0  0  0  0  0  0  0  0  0  0  0  0
    2.0375   -0.8373   -1.5869 H   0  0  0  0  0  0  0  0  0  0  0  0
    2.5497   -1.6843   -0.1020 H   0  0  0  0  0  0  0  0  0  0  0  0
   -0.5289   -0.5559   -1.7291 H   0  0  0  0  0  0  0  0  0  0  0  0
    2.3253    0.1883    1.6782 H   0  0  0  0  0  0  0  0  0  0  0  0
   -2.6354   -1.4383   -0.4002 H   0  0  0  0  0  0  0  0  0  0  0  0
   -2.8990    0.4492   -1.2446 H   0  0  0  0  0  0  0  0  0  0  0  0
    3.0292    1.0389   -0.7413 H   0  0  0  0  0  0  0  0  0  0  0  0
  1  8  1  0  0  0  0
  1 11  1  0  0  0  0
  2  7  1  0  0  0  0
  2 20  1  0  0  0  0
  3  8  1  0  0  0  0
  3 21  1  0  0  0  0
  4  9  1  0  0  0  0
  4 22  1  0  0  0  0
  5 10  1  0  0  0  0
  5 23  1  0  0  0  0
  6 12  1  0  0  0  0
  6 24  1  0  0  0  0
  7  8  1  0  0  0  0
  7  9  1  0  0  0  0
  7 13  1  0  0  0  0
  8 12  1  0  0  0  0
  9 10  1  0  0  0  0
  9 14  1  0  0  0  0
 10 11  1  0  0  0  0
 10 15  1  0  0  0  0
 11 16  1  0  0  0  0
 11 17  1  0  0  0  0
 12 18  1  0  0  0  0
 12 19  1  0  0  0  0
M  END
> <PUBCHEM_COMPOUND_CID>
441036

> <PUBCHEM_CONFORMER_RMSD>
0.6

> <PUBCHEM_CONFORMER_DIVERSEORDER>
1
2
4
3

> <PUBCHEM_MMFF94_PARTIAL_CHARGES>
17
1 -0.56
10 0.28
11 0.28
12 0.28
2 -0.68
20 0.4
21 0.4
22 0.4
23 0.4
24 0.4
3 -0.68
4 -0.68
5 -0.68
6 -0.68
7 0.28
8 0.56
9 0.28

> <PUBCHEM_EFFECTIVE_ROTOR_COUNT>
2.2

> <PUBCHEM_PHARMACOPHORE_FEATURES>
12
1 1 acceptor
1 2 acceptor
1 2 donor
1 3 acceptor
1 3 donor
1 4 acceptor
1 4 donor
1 5 acceptor
1 5 donor
1 6 acceptor
1 6 donor
6 1 7 8 9 10 11 rings

> <PUBCHEM_HEAVY_ATOM_COUNT>
12

> <PUBCHEM_ATOM_DEF_STEREO_COUNT>
3

> <PUBCHEM_ATOM_UDEF_STEREO_COUNT>
1

> <PUBCHEM_BOND_DEF_STEREO_COUNT>
0

> <PUBCHEM_BOND_UDEF_STEREO_COUNT>
0

> <PUBCHEM_ISOTOPIC_ATOM_COUNT>
0

> <PUBCHEM_COMPONENT_COUNT>
1

> <PUBCHEM_CACTVS_TAUTO_COUNT>
1

> <PUBCHEM_CONFORMER_ID>
0006BACC00000001

> <PUBCHEM_MMFF94_ENERGY>
32.3392

> <PUBCHEM_FEATURE_SELFOVERLAP>
60.971

> <PUBCHEM_SHAPE_FINGERPRINT>
12138202 97 18129951199130903471
12423570 1 13161732209904545867
12897270 3 18338228375270931484
13024252 1 16558457639073812432
161256 15 18125720080570870577
16945 1 18197777910726374920
21040471 1 17981332497010570169
21922407 69 16988848314534708512
22802520 49 17972862933309112646
23235685 24 18266176313035128473
23552423 10 18059284495765686378
241688 4 16033523673866103091
2748010 2 18337958891590021833
29004967 10 18261382365023033802
369184 2 17418088845293696648
5084963 1 18333724693802000515
528886 8 18335133254006739665

> <PUBCHEM_SHAPE_MULTIPOLES>
211.74
3.34
1.54
1.09
1.55
0.22
0.06
-0.23
-0.28
-0.58
-0.13
-0.05
-0.09
0.26

> <PUBCHEM_SHAPE_SELFOVERLAP>
426.535

> <PUBCHEM_SHAPE_VOLUME>
122.1

> <PUBCHEM_COORDINATE_TYPE>
2
5
10

$$$$

