17396028
  -OEChem-06241222543D

 43 47  0     0  0  0  0  0  0999 V2000
   -4.6437   -2.3139   -0.9326 S   0  0  0  0  0  0  0  0  0  0  0  0
    6.4951   -1.2480   -0.4379 S   0  0  0  0  0  0  0  0  0  0  0  0
   -0.9444    0.0396    0.8437 N   0  0  0  0  0  0  0  0  0  0  0  0
    1.8321    0.4266    0.2953 N   0  0  0  0  0  0  0  0  0  0  0  0
    3.5034    1.9680   -0.3826 N   0  0  0  0  0  0  0  0  0  0  0  0
    5.8014    1.3021   -0.7754 N   0  0  0  0  0  0  0  0  0  0  0  0
   -0.1295   -1.0632    0.3199 C   0  0  0  0  0  0  0  0  0  0  0  0
   -0.1278    0.8939    1.7149 C   0  0  0  0  0  0  0  0  0  0  0  0
    1.0548   -0.5346   -0.4930 C   0  0  0  0  0  0  0  0  0  0  0  0
    1.0556    1.4884    0.9477 C   0  0  0  0  0  0  0  0  0  0  0  0
   -2.1016   -0.4785    1.5725 C   0  0  0  0  0  0  0  0  0  0  0  0
    3.1573    0.7038   -0.0585 C   0  0  0  0  0  0  0  0  0  0  0  0
   -3.1970   -0.8898    0.6270 C   0  0  0  0  0  0  0  0  0  0  0  0
   -4.2398   -0.0129    0.1754 C   0  0  0  0  0  0  0  0  0  0  0  0
    4.1150   -0.3154   -0.0781 C   0  0  0  0  0  0  0  0  0  0  0  0
   -3.2998   -2.1570    0.1042 C   0  0  0  0  0  0  0  0  0  0  0  0
   -5.1134   -0.6718   -0.6954 C   0  0  0  0  0  0  0  0  0  0  0  0
    5.4017    0.0591   -0.4432 C   0  0  0  0  0  0  0  0  0  0  0  0
   -4.4916    1.3483    0.4728 C   0  0  0  0  0  0  0  0  0  0  0  0
    4.0538   -1.7156    0.2077 C   0  0  0  0  0  0  0  0  0  0  0  0
   -6.2181   -0.0123   -1.2689 C   0  0  0  0  0  0  0  0  0  0  0  0
    4.7901    2.1869   -0.7174 C   0  0  0  0  0  0  0  0  0  0  0  0
   -5.5867    2.0054   -0.0944 C   0  0  0  0  0  0  0  0  0  0  0  0
    5.2726   -2.3395    0.0522 C   0  0  0  0  0  0  0  0  0  0  0  0
   -6.4396    1.3303   -0.9559 C   0  0  0  0  0  0  0  0  0  0  0  0
   -0.7083   -1.7026   -0.3527 H   0  0  0  0  0  0  0  0  0  0  0  0
    0.2437   -1.6967    1.1361 H   0  0  0  0  0  0  0  0  0  0  0  0
    0.2408    0.3247    2.5790 H   0  0  0  0  0  0  0  0  0  0  0  0
   -0.7300    1.7247    2.1025 H   0  0  0  0  0  0  0  0  0  0  0  0
    1.6483   -1.3839   -0.8411 H   0  0  0  0  0  0  0  0  0  0  0  0
    0.6854   -0.0295   -1.3957 H   0  0  0  0  0  0  0  0  0  0  0  0
    0.6980    2.2000    0.1925 H   0  0  0  0  0  0  0  0  0  0  0  0
    1.6817    2.0420    1.6587 H   0  0  0  0  0  0  0  0  0  0  0  0
   -2.5098    0.2895    2.2426 H   0  0  0  0  0  0  0  0  0  0  0  0
   -1.8266   -1.3155    2.2292 H   0  0  0  0  0  0  0  0  0  0  0  0
   -2.6564   -3.0067    0.2862 H   0  0  0  0  0  0  0  0  0  0  0  0
   -3.8362    1.9005    1.1417 H   0  0  0  0  0  0  0  0  0  0  0  0
    3.1730   -2.2520    0.5360 H   0  0  0  0  0  0  0  0  0  0  0  0
   -6.8910   -0.5328   -1.9443 H   0  0  0  0  0  0  0  0  0  0  0  0
    5.0423    3.2100   -0.9734 H   0  0  0  0  0  0  0  0  0  0  0  0
   -5.7688    3.0503    0.1408 H   0  0  0  0  0  0  0  0  0  0  0  0
    5.5030   -3.3838    0.2090 H   0  0  0  0  0  0  0  0  0  0  0  0
   -7.2884    1.8496   -1.3924 H   0  0  0  0  0  0  0  0  0  0  0  0
  1 16  1  0  0  0  0
  1 17  1  0  0  0  0
  2 18  1  0  0  0  0
  2 24  1  0  0  0  0
  3  7  1  0  0  0  0
  3  8  1  0  0  0  0
  3 11  1  0  0  0  0
  4  9  1  0  0  0  0
  4 10  1  0  0  0  0
  4 12  1  0  0  0  0
  5 12  1  0  0  0  0
  5 22  2  0  0  0  0
  6 18  2  0  0  0  0
  6 22  1  0  0  0  0
  7  9  1  0  0  0  0
  7 26  1  0  0  0  0
  7 27  1  0  0  0  0
  8 10  1  0  0  0  0
  8 28  1  0  0  0  0
  8 29  1  0  0  0  0
  9 30  1  0  0  0  0
  9 31  1  0  0  0  0
 10 32  1  0  0  0  0
 10 33  1  0  0  0  0
 11 13  1  0  0  0  0
 11 34  1  0  0  0  0
 11 35  1  0  0  0  0
 12 15  2  0  0  0  0
 13 14  1  0  0  0  0
 13 16  2  0  0  0  0
 14 17  1  0  0  0  0
 14 19  2  0  0  0  0
 15 18  1  0  0  0  0
 15 20  1  0  0  0  0
 16 36  1  0  0  0  0
 17 21  2  0  0  0  0
 19 23  1  0  0  0  0
 19 37  1  0  0  0  0
 20 24  2  0  0  0  0
 20 38  1  0  0  0  0
 21 25  1  0  0  0  0
 21 39  1  0  0  0  0
 22 40  1  0  0  0  0
 23 25  2  0  0  0  0
 23 41  1  0  0  0  0
 24 42  1  0  0  0  0
 25 43  1  0  0  0  0
M  END
> <PUBCHEM_COMPOUND_CID>
17396028

> <PUBCHEM_CONFORMER_RMSD>
0.8

> <PUBCHEM_CONFORMER_DIVERSEORDER>
1
56
45
58
10
55
26
19
31
67
12
72
47
65
59
21
32
33
51
27
15
71
34
8
62
25
68
17
52
9
28
49
44
7
29
63
43
5
70
24
64
23
6
54
3
20
39
4
38
42
60
50
37
2
46
22
18
36
35
30
57
69
53
61
66
16
40
48
13
14
41
11

> <PUBCHEM_MMFF94_PARTIAL_CHARGES>
31
1 -0.08
10 0.37
11 0.45
12 0.41
13 -0.18
16 -0.11
17 0.04
18 0.3
19 -0.15
2 -0.08
20 -0.15
21 -0.15
22 0.47
23 -0.15
24 -0.11
25 -0.15
3 -0.81
36 0.15
37 0.15
38 0.15
39 0.15
4 -0.84
40 0.15
41 0.15
42 0.15
43 0.15
5 -0.62
6 -0.57
7 0.27
8 0.27
9 0.37

> <PUBCHEM_EFFECTIVE_ROTOR_COUNT>
4.2

> <PUBCHEM_PHARMACOPHORE_FEATURES>
9
1 3 cation
1 4 cation
1 6 acceptor
3 5 6 22 cation
5 1 13 14 16 17 rings
5 2 15 18 20 24 rings
6 14 17 19 21 23 25 rings
6 3 4 7 8 9 10 rings
6 5 6 12 15 18 22 rings

> <PUBCHEM_HEAVY_ATOM_COUNT>
25

> <PUBCHEM_ATOM_DEF_STEREO_COUNT>
0

> <PUBCHEM_ATOM_UDEF_STEREO_COUNT>
0

> <PUBCHEM_BOND_DEF_STEREO_COUNT>
0

> <PUBCHEM_BOND_UDEF_STEREO_COUNT>
0

> <PUBCHEM_ISOTOPIC_ATOM_COUNT>
0

> <PUBCHEM_COMPONENT_COUNT>
1

> <PUBCHEM_CACTVS_TAUTO_COUNT>
1

> <PUBCHEM_CONFORMER_ID>
0109713C00000001

> <PUBCHEM_MMFF94_ENERGY>
67.2789

> <PUBCHEM_FEATURE_SELFOVERLAP>
45.813

> <PUBCHEM_SHAPE_FINGERPRINT>
10 15 11024108763534760863
10595046 47 18338516326757605247
10613725 11 18411702114536671635
10670039 82 18271252724567967229
10815517 723 17774155841752888485
10835480 77 18342456994086677280
11315181 36 17167582691785000371
11719270 70 17821731667153126750
11796584 16 18334292076357181214
12236239 1 18186798072180108086
12670543 26 18410856572667187841
13690498 29 18116720608632799767
14251752 14 18409169930435925247
15003188 33 18411698802842872137
15183329 4 18341614845040325659
15274700 147 15756792415615089868
15716309 27 8286200548341822245
15788980 27 18410571777765296435
16126227 98 9870592406332711194
17349148 13 16805593746631034810
17844677 252 18270672070025608811
17857418 61 18333448763992059362
18222031 100 16370723721202434968
18608769 82 18341326688160827627
20028762 73 18187081793779104382
20511986 3 18261401018424858826
21279426 13 18411976979369290330
21781055 127 17386850698616958739
22061861 79 18412546517823402654
22079108 93 7060371514445096404
22393880 68 18261119530484222491
23198884 109 18413392038587100615
23536379 177 18342175570137455523
23559900 14 18114192882681135393
23569943 247 16915959545688931650
2838139 119 18342459283472940973
29717793 49 18261106405222207166
3004659 81 18410576201971975466
3383291 50 14129353836749329397
3459 83 18413386566187309837
3633792 109 18410571816942131072
38570 142 17703509991159735585
4015057 19 18340483357381265353
4073 2 17917142802344610114
4098825 35 18413105053130809259
439807 62 18261957324301925919
44062 13 18041567945038715631
504579 68 18335688447977199084
5283173 99 18410856594290061689
531348 171 18335139800201881351
559249 180 18333734641173455415
6328613 192 18342455941276143661
633830 44 17632297834920442275
960060 61 18411135814614254600

> <PUBCHEM_SHAPE_MULTIPOLES>
502.26
18.65
2.43
1.16
1.04
0.24
-0.22
-0.26
7.04
0.33
0.3
-0.79
-0.14
-0.66

> <PUBCHEM_SHAPE_SELFOVERLAP>
1087.242

> <PUBCHEM_SHAPE_VOLUME>
278

> <PUBCHEM_COORDINATE_TYPE>
2
5
10

$$$$

