164634
  -OEChem-07051212553D

 24 25  0     0  0  0  0  0  0999 V2000
    3.1788   -0.9077    0.6510 O   0  0  0  0  0  0  0  0  0  0  0  0
   -2.1663    0.5298    0.4330 C   0  0  0  0  0  0  0  0  0  0  0  0
   -1.1070    1.3462    1.0934 C   0  0  0  0  0  0  0  0  0  0  0  0
   -2.6855    0.9262   -0.7995 C   0  0  0  0  0  0  0  0  0  0  0  0
   -2.6380   -0.6298    1.0480 C   0  0  0  0  0  0  0  0  0  0  0  0
   -3.6765    0.1630   -1.4169 C   0  0  0  0  0  0  0  0  0  0  0  0
   -3.6288   -1.3931    0.4305 C   0  0  0  0  0  0  0  0  0  0  0  0
   -4.1481   -0.9967   -0.8019 C   0  0  0  0  0  0  0  0  0  0  0  0
    0.2518    0.9269    0.7056 C   0  0  0  0  0  0  0  0  0  0  0  0
    2.6644    0.1517   -0.0091 C   0  0  0  0  0  0  0  0  0  0  0  0
    3.5239    0.6283   -0.9530 C   0  0  0  0  0  0  0  0  0  0  0  0
    4.6684   -0.2007   -0.8764 C   0  0  0  0  0  0  0  0  0  0  0  0
    1.3536    0.5750    0.3815 C   0  0  0  0  0  0  0  0  0  0  0  0
    4.4091   -1.1192    0.1140 C   0  0  0  0  0  0  0  0  0  0  0  0
   -1.2143    1.2833    2.1837 H   0  0  0  0  0  0  0  0  0  0  0  0
   -1.2484    2.4068    0.8495 H   0  0  0  0  0  0  0  0  0  0  0  0
   -2.3258    1.8268   -1.2902 H   0  0  0  0  0  0  0  0  0  0  0  0
   -2.2410   -0.9507    2.0075 H   0  0  0  0  0  0  0  0  0  0  0  0
   -4.0805    0.4714   -2.3767 H   0  0  0  0  0  0  0  0  0  0  0  0
   -3.9959   -2.2964    0.9091 H   0  0  0  0  0  0  0  0  0  0  0  0
   -4.9194   -1.5911   -1.2828 H   0  0  0  0  0  0  0  0  0  0  0  0
    3.3632    1.4640   -1.6193 H   0  0  0  0  0  0  0  0  0  0  0  0
    5.5696   -0.1369   -1.4690 H   0  0  0  0  0  0  0  0  0  0  0  0
    4.9669   -1.9434    0.5341 H   0  0  0  0  0  0  0  0  0  0  0  0
  1 10  1  0  0  0  0
  1 14  1  0  0  0  0
  2  3  1  0  0  0  0
  2  4  2  0  0  0  0
  2  5  1  0  0  0  0
  3  9  1  0  0  0  0
  3 15  1  0  0  0  0
  3 16  1  0  0  0  0
  4  6  1  0  0  0  0
  4 17  1  0  0  0  0
  5  7  2  0  0  0  0
  5 18  1  0  0  0  0
  6  8  2  0  0  0  0
  6 19  1  0  0  0  0
  7  8  1  0  0  0  0
  7 20  1  0  0  0  0
  8 21  1  0  0  0  0
  9 13  3  0  0  0  0
 10 11  2  0  0  0  0
 10 13  1  0  0  0  0
 11 12  1  0  0  0  0
 11 22  1  0  0  0  0
 12 14  2  0  0  0  0
 12 23  1  0  0  0  0
 14 24  1  0  0  0  0
M  END
> <PUBCHEM_COMPOUND_CID>
164634

> <PUBCHEM_CONFORMER_RMSD>
0.4

> <PUBCHEM_CONFORMER_DIVERSEORDER>
1
2
3

> <PUBCHEM_MMFF94_PARTIAL_CHARGES>
22
1 -0.28
10 0.16
11 -0.15
12 -0.15
13 -0.02
14 -0.01
17 0.15
18 0.15
19 0.15
2 -0.14
20 0.15
21 0.15
22 0.15
23 0.15
24 0.15
3 0.34
4 -0.15
5 -0.15
6 -0.15
7 -0.15
8 -0.15
9 -0.2

> <PUBCHEM_EFFECTIVE_ROTOR_COUNT>
1

> <PUBCHEM_PHARMACOPHORE_FEATURES>
3
1 1 acceptor
5 1 10 11 12 14 rings
6 2 4 5 6 7 8 rings

> <PUBCHEM_HEAVY_ATOM_COUNT>
14

> <PUBCHEM_ATOM_DEF_STEREO_COUNT>
0

> <PUBCHEM_ATOM_UDEF_STEREO_COUNT>
0

> <PUBCHEM_BOND_DEF_STEREO_COUNT>
0

> <PUBCHEM_BOND_UDEF_STEREO_COUNT>
0

> <PUBCHEM_ISOTOPIC_ATOM_COUNT>
0

> <PUBCHEM_COMPONENT_COUNT>
1

> <PUBCHEM_CACTVS_TAUTO_COUNT>
1

> <PUBCHEM_CONFORMER_ID>
0002831A00000001

> <PUBCHEM_MMFF94_ENERGY>
17.9937

> <PUBCHEM_FEATURE_SELFOVERLAP>
15.223

> <PUBCHEM_SHAPE_FINGERPRINT>
10498660 4 14477249244945237207
11046707 91 17675924300331911073
11127187 94 18341898472317897523
11543360 7 17703788085364148580
12251169 10 5256400621651860617
12363563 72 17967249784441127552
12707595 3 18114184111898915688
12892183 10 5689597199204885829
13675066 3 7637405112148458968
14123260 362 13470687061732302647
1420 369 17530682108505863526
14252887 29 15791728624999245316
15239191 94 17675923196577979008
1741750 31 12895351088165141721
17870717 6 18341607148612191647
1798214 20 18410860966497917798
18186145 218 15339114650129149576
18915474 69 18410289186228873086
193927 3 17821720615842966822
200 152 18412825798150816176
20281475 54 18187921820002309136
20300324 65 16702302330420576725
20325693 3 17775288270589411383
20432913 95 16370442263205113806
204376 136 11095887072839719993
20645477 56 13398619563326022297
20671657 53 18408040688886790608
20871999 31 17703794700114827341
21065199 12 5761658078855806916
21650355 55 4678811792494373611
22646028 1 18260829310779744402
22646028 28 18040152915910997702
22926399 37 13901918799707295775
23402539 116 18335697286808942648
23402655 69 17132113576281006868
23403322 49 18334579044580868895
23500284 214 11959731590194610413
23557571 272 14476662131532156513
23559900 14 18339932536642607264
27216 239 9511461134953659239
351380 3 17967811630656681599
4028521 119 15267350625632281383
42 15 14201393885107022636
4921388 177 17060330808626363307
53428517 29 6122506804323301115
5924683 9 6266885879975895133
90316 7 14273724132638865051
93112 12 17561081401753558476

> <PUBCHEM_SHAPE_MULTIPOLES>
282.24
10.37
1.33
1.23
6.03
0.01
0.19
4.24
2.6
-0.51
-0.23
-0.63
-0.04
-0.12

> <PUBCHEM_SHAPE_SELFOVERLAP>
602.78

> <PUBCHEM_SHAPE_VOLUME>
156.8

> <PUBCHEM_COORDINATE_TYPE>
2
5
10

$$$$

