440995
  -OEChem-07051212443D

 45 46  0     1  0  0  0  0  0999 V2000
   -0.0229   -0.8150   -0.7674 O   0  0  0  0  0  0  0  0  0  0  0  0
    1.3923    0.7383    0.2490 O   0  0  0  0  0  0  0  0  0  0  0  0
   -3.3886   -0.7489    0.6753 O   0  0  0  0  0  0  0  0  0  0  0  0
   -0.7998    1.9588   -1.0079 O   0  0  0  0  0  0  0  0  0  0  0  0
    2.1004   -2.7017   -0.7891 O   0  0  0  0  0  0  0  0  0  0  0  0
    4.7194   -1.4747   -0.8285 O   0  0  0  0  0  0  0  0  0  0  0  0
    3.9522    1.1954   -0.9330 O   0  0  0  0  0  0  0  0  0  0  0  0
   -3.6986    2.1805   -1.4862 O   0  0  0  0  0  0  0  0  0  0  0  0
   -5.1972    0.6998    0.4031 O   0  0  0  0  0  0  0  0  0  0  0  0
   -2.7280   -3.3492    1.2737 O   0  0  0  0  0  0  0  0  0  0  0  0
    1.4497    2.8796    1.9670 O   0  0  0  0  0  0  0  0  0  0  0  0
   -1.1602   -0.2387   -0.1307 C   0  0  1  0  0  0  0  0  0  0  0  0
   -1.7265    0.8718   -1.0158 C   0  0  1  0  0  0  0  0  0  0  0  0
    1.1533   -0.6504    0.0241 C   0  0  2  0  0  0  0  0  0  0  0  0
   -2.2088   -1.3265    0.1134 C   0  0  1  0  0  0  0  0  0  0  0  0
    2.3201   -1.2924   -0.7297 C   0  0  1  0  0  0  0  0  0  0  0  0
    3.6427   -1.0193   -0.0138 C   0  0  2  0  0  0  0  0  0  0  0  0
    3.8055    0.4704    0.2897 C   0  0  2  0  0  0  0  0  0  0  0  0
   -3.0818    1.3546   -0.4988 C   0  0  2  0  0  0  0  0  0  0  0  0
    2.5673    0.9868    1.0309 C   0  0  1  0  0  0  0  0  0  0  0  0
   -4.0156    0.1803   -0.2057 C   0  0  1  0  0  0  0  0  0  0  0  0
   -1.7064   -2.3865    1.0886 C   0  0  0  0  0  0  0  0  0  0  0  0
    2.6314    2.4872    1.2919 C   0  0  0  0  0  0  0  0  0  0  0  0
   -0.8997    0.2071    0.8410 H   0  0  0  0  0  0  0  0  0  0  0  0
   -1.8089    0.5401   -2.0582 H   0  0  0  0  0  0  0  0  0  0  0  0
    0.9984   -1.1605    0.9843 H   0  0  0  0  0  0  0  0  0  0  0  0
   -2.4783   -1.8288   -0.8257 H   0  0  0  0  0  0  0  0  0  0  0  0
    2.3638   -0.9369   -1.7663 H   0  0  0  0  0  0  0  0  0  0  0  0
    3.6852   -1.5921    0.9211 H   0  0  0  0  0  0  0  0  0  0  0  0
    4.7178    0.6405    0.8712 H   0  0  0  0  0  0  0  0  0  0  0  0
    2.4478    0.4668    1.9905 H   0  0  0  0  0  0  0  0  0  0  0  0
   -2.9417    1.9739    0.3959 H   0  0  0  0  0  0  0  0  0  0  0  0
   -4.3179   -0.3225   -1.1332 H   0  0  0  0  0  0  0  0  0  0  0  0
   -1.4720   -1.9544    2.0671 H   0  0  0  0  0  0  0  0  0  0  0  0
   -0.8203   -2.9015    0.7073 H   0  0  0  0  0  0  0  0  0  0  0  0
    2.6820    3.0637    0.3627 H   0  0  0  0  0  0  0  0  0  0  0  0
    3.4927    2.7455    1.9149 H   0  0  0  0  0  0  0  0  0  0  0  0
    0.0455    1.6245   -1.3535 H   0  0  0  0  0  0  0  0  0  0  0  0
    1.2402   -2.8440   -1.2201 H   0  0  0  0  0  0  0  0  0  0  0  0
    4.5671   -2.4175   -1.0125 H   0  0  0  0  0  0  0  0  0  0  0  0
    3.0990    1.1850   -1.3985 H   0  0  0  0  0  0  0  0  0  0  0  0
   -4.5603    2.4617   -1.1337 H   0  0  0  0  0  0  0  0  0  0  0  0
   -5.9095    0.0597    0.2348 H   0  0  0  0  0  0  0  0  0  0  0  0
   -3.5127   -2.8843    1.6112 H   0  0  0  0  0  0  0  0  0  0  0  0
    0.6947    2.6344    1.4049 H   0  0  0  0  0  0  0  0  0  0  0  0
  1 12  1  0  0  0  0
  1 14  1  0  0  0  0
  2 14  1  0  0  0  0
  2 20  1  0  0  0  0
  3 15  1  0  0  0  0
  3 21  1  0  0  0  0
  4 13  1  0  0  0  0
  4 38  1  0  0  0  0
  5 16  1  0  0  0  0
  5 39  1  0  0  0  0
  6 17  1  0  0  0  0
  6 40  1  0  0  0  0
  7 18  1  0  0  0  0
  7 41  1  0  0  0  0
  8 19  1  0  0  0  0
  8 42  1  0  0  0  0
  9 21  1  0  0  0  0
  9 43  1  0  0  0  0
 10 22  1  0  0  0  0
 10 44  1  0  0  0  0
 11 23  1  0  0  0  0
 11 45  1  0  0  0  0
 12 13  1  0  0  0  0
 12 15  1  0  0  0  0
 12 24  1  0  0  0  0
 13 19  1  0  0  0  0
 13 25  1  0  0  0  0
 14 16  1  0  0  0  0
 14 26  1  0  0  0  0
 15 22  1  0  0  0  0
 15 27  1  0  0  0  0
 16 17  1  0  0  0  0
 16 28  1  0  0  0  0
 17 18  1  0  0  0  0
 17 29  1  0  0  0  0
 18 20  1  0  0  0  0
 18 30  1  0  0  0  0
 19 21  1  0  0  0  0
 19 32  1  0  0  0  0
 20 23  1  0  0  0  0
 20 31  1  0  0  0  0
 21 33  1  0  0  0  0
 22 34  1  0  0  0  0
 22 35  1  0  0  0  0
 23 36  1  0  0  0  0
 23 37  1  0  0  0  0
M  END
> <PUBCHEM_COMPOUND_CID>
440995

> <PUBCHEM_CONFORMER_RMSD>
0.8

> <PUBCHEM_CONFORMER_DIVERSEORDER>
1
66
56
58
41
40
77
8
28
26
35
73
75
39
74
54
44
65
59
23
60
46
51
55
25
48
45
31
64
67
69
50
14
13
79
15
76
32
61
72
52
18
63
27
53
68
12
33
4
7
5
78
71
70
42
29
22
2
17
36
20
49
62
6
43
37
3
30
9
47
16
34
10
38
21
57
24
11
19

> <PUBCHEM_MMFF94_PARTIAL_CHARGES>
31
1 -0.56
10 -0.68
11 -0.68
12 0.28
13 0.28
14 0.56
15 0.28
16 0.28
17 0.28
18 0.28
19 0.28
2 -0.56
20 0.28
21 0.56
22 0.28
23 0.28
3 -0.56
38 0.4
39 0.4
4 -0.68
40 0.4
41 0.4
42 0.4
43 0.4
44 0.4
45 0.4
5 -0.68
6 -0.68
7 -0.68
8 -0.68
9 -0.68

> <PUBCHEM_EFFECTIVE_ROTOR_COUNT>
6.4

> <PUBCHEM_PHARMACOPHORE_FEATURES>
21
1 1 acceptor
1 10 acceptor
1 10 donor
1 11 acceptor
1 11 donor
1 2 acceptor
1 3 acceptor
1 4 acceptor
1 4 donor
1 5 acceptor
1 5 donor
1 6 acceptor
1 6 donor
1 7 acceptor
1 7 donor
1 8 acceptor
1 8 donor
1 9 acceptor
1 9 donor
6 2 14 16 17 18 20 rings
6 3 12 13 15 19 21 rings

> <PUBCHEM_HEAVY_ATOM_COUNT>
23

> <PUBCHEM_ATOM_DEF_STEREO_COUNT>
9

> <PUBCHEM_ATOM_UDEF_STEREO_COUNT>
1

> <PUBCHEM_BOND_DEF_STEREO_COUNT>
0

> <PUBCHEM_BOND_UDEF_STEREO_COUNT>
0

> <PUBCHEM_ISOTOPIC_ATOM_COUNT>
0

> <PUBCHEM_COMPONENT_COUNT>
1

> <PUBCHEM_CACTVS_TAUTO_COUNT>
1

> <PUBCHEM_CONFORMER_ID>
0006BAA300000001

> <PUBCHEM_MMFF94_ENERGY>
63.9739

> <PUBCHEM_FEATURE_SELFOVERLAP>
106.698

> <PUBCHEM_SHAPE_FINGERPRINT>
10366900 7 18336831905050821493
10608611 8 18409736135847962840
11471102 20 18186524315080091950
11552529 35 17897156914967265387
11595378 159 16773806908479940365
12236239 1 15575001697071775519
12403259 415 18343025540503746421
12500047 106 18272373108929465743
12633257 1 18411427210496096514
12670545 47 18337393742628851025
12788726 201 17973727179919536586
12969540 114 17986976170659462751
13134695 92 17603310362565025584
13140716 1 18338526231163212504
13402501 40 18410856576819665262
13544592 145 18411416245571280587
13583140 156 18261392183123470382
14178342 30 17988371355571651162
14223421 5 18266743484751238018
14866123 147 16245182939358354642
15219456 202 18409451392459168822
15295992 7 18260549996076658001
18186145 218 18336835289769932673
18219364 16 17969508095725816816
19049666 15 18338238270511616986
20510252 161 18341331210217655285
20645477 56 18343579659872258735
20645477 70 17821726161126034590
20681677 76 18262524675794439419
21033648 29 18271818955459801069
221357 26 18189058749390819333
23175994 123 18041273369809929916
23557571 272 18057604265862568155
23559900 14 18342736312815407534
2748010 2 18265064526480400420
3524813 1 18339929306557869821
49207404 50 18191873314289280768
495365 180 17968111797420371560
5104073 3 18411419479655353050
6049 1 18337389323160257616
633830 44 18194412314730180829
7399639 24 17831304895572810546
7808743 9 18131347471276291100
81228 2 18059296440343978099
8809292 202 18413106186427188226
9709674 26 18337957796447194927

> <PUBCHEM_SHAPE_MULTIPOLES>
408.77
8.72
3.09
1.3
1.41
0.53
0.24
-0.76
-0.54
0.11
0.94
-0.09
-0.43
2.57

> <PUBCHEM_SHAPE_SELFOVERLAP>
837.421

> <PUBCHEM_SHAPE_VOLUME>
230.2

> <PUBCHEM_COORDINATE_TYPE>
2
5
10

$$$$

