5281623
  -OEChem-07051212582D

 30 32  0     0  0  0  0  0  0999 V2000
    6.3981   -1.0000    0.0000 O   0  0  0  0  0  0  0  0  0  0  0  0
    2.8680   -1.0241    0.0000 O   0  0  0  0  0  0  0  0  0  0  0  0
    4.6497    2.0346    0.0000 O   0  0  0  0  0  0  0  0  0  0  0  0
    6.3981    2.0000    0.0000 O   0  0  0  0  0  0  0  0  0  0  0  0
    8.1465    2.0346    0.0000 O   0  0  0  0  0  0  0  0  0  0  0  0
    8.1465   -2.0346    0.0000 O   0  0  0  0  0  0  0  0  0  0  0  0
    5.5320    0.5000    0.0000 C   0  0  0  0  0  0  0  0  0  0  0  0
    7.2641    0.5000    0.0000 C   0  0  0  0  0  0  0  0  0  0  0  0
    5.5320   -0.5000    0.0000 C   0  0  0  0  0  0  0  0  0  0  0  0
    7.2641   -0.5000    0.0000 C   0  0  0  0  0  0  0  0  0  0  0  0
    6.3981    1.0000    0.0000 C   0  0  0  0  0  0  0  0  0  0  0  0
    4.6381    1.0347    0.0000 C   0  0  0  0  0  0  0  0  0  0  0  0
    8.1580    1.0347    0.0000 C   0  0  0  0  0  0  0  0  0  0  0  0
    4.6381   -1.0347    0.0000 C   0  0  0  0  0  0  0  0  0  0  0  0
    8.1580   -1.0347    0.0000 C   0  0  0  0  0  0  0  0  0  0  0  0
    3.7320   -0.5208    0.0000 C   0  0  0  0  0  0  0  0  0  0  0  0
    3.7320    0.5208    0.0000 C   0  0  0  0  0  0  0  0  0  0  0  0
    9.0641    0.5208    0.0000 C   0  0  0  0  0  0  0  0  0  0  0  0
    9.0641   -0.5208    0.0000 C   0  0  0  0  0  0  0  0  0  0  0  0
    2.0000   -0.5275    0.0000 C   0  0  0  0  0  0  0  0  0  0  0  0
    4.6453   -1.6546    0.0000 H   0  0  0  0  0  0  0  0  0  0  0  0
    3.1963    0.8329    0.0000 H   0  0  0  0  0  0  0  0  0  0  0  0
    9.5998    0.8329    0.0000 H   0  0  0  0  0  0  0  0  0  0  0  0
    9.5998   -0.8329    0.0000 H   0  0  0  0  0  0  0  0  0  0  0  0
    4.1164    2.3508    0.0000 H   0  0  0  0  0  0  0  0  0  0  0  0
    8.6798    2.3508    0.0000 H   0  0  0  0  0  0  0  0  0  0  0  0
    8.6798   -2.3508    0.0000 H   0  0  0  0  0  0  0  0  0  0  0  0
    2.3079    0.0106    0.0000 H   0  0  0  0  0  0  0  0  0  0  0  0
    1.4619   -0.2196    0.0000 H   0  0  0  0  0  0  0  0  0  0  0  0
    1.6921   -1.0656    0.0000 H   0  0  0  0  0  0  0  0  0  0  0  0
  1  9  1  0  0  0  0
  1 10  1  0  0  0  0
  2 16  1  0  0  0  0
  2 20  1  0  0  0  0
  3 12  1  0  0  0  0
  3 25  1  0  0  0  0
  4 11  2  0  0  0  0
  5 13  1  0  0  0  0
  5 26  1  0  0  0  0
  6 15  1  0  0  0  0
  6 27  1  0  0  0  0
  7  9  1  0  0  0  0
  7 11  1  0  0  0  0
  7 12  2  0  0  0  0
  8 10  1  0  0  0  0
  8 11  1  0  0  0  0
  8 13  2  0  0  0  0
  9 14  2  0  0  0  0
 10 15  2  0  0  0  0
 12 17  1  0  0  0  0
 13 18  1  0  0  0  0
 14 16  1  0  0  0  0
 14 21  1  0  0  0  0
 15 19  1  0  0  0  0
 16 17  2  0  0  0  0
 17 22  1  0  0  0  0
 18 19  2  0  0  0  0
 18 23  1  0  0  0  0
 19 24  1  0  0  0  0
 20 28  1  0  0  0  0
 20 29  1  0  0  0  0
 20 30  1  0  0  0  0
M  END
> <PUBCHEM_COMPOUND_CID>
5281623

> <PUBCHEM_COMPOUND_CANONICALIZED>
1

> <PUBCHEM_CACTVS_COMPLEXITY>
386

> <PUBCHEM_CACTVS_HBOND_ACCEPTOR>
6

> <PUBCHEM_CACTVS_HBOND_DONOR>
3

> <PUBCHEM_CACTVS_ROTATABLE_BOND>
1

> <PUBCHEM_CACTVS_SUBSKEYS>
AAADccBwOAAAAAAAAAAAAAAAAAAAAAAAAAA0YIAAAAAAAACRQAAAGgAACAAADASAmAIyBoAABgCIAqBSAAACCAAkIAAIiAEGiMgNJzaGNRqCeWOl4BULuQfK7PzOIQABCAAIQABCAAIQABCAAAAAAAAAAA==

> <PUBCHEM_IUPAC_OPENEYE_NAME>
1,5,8-trihydroxy-3-methoxy-xanthen-9-one

> <PUBCHEM_IUPAC_CAS_NAME>
1,5,8-trihydroxy-3-methoxy-9-xanthenone

> <PUBCHEM_IUPAC_NAME>
1,5,8-trihydroxy-3-methoxyxanthen-9-one

> <PUBCHEM_IUPAC_SYSTEMATIC_NAME>
3-methoxy-1,5,8-tris(oxidanyl)xanthen-9-one

> <PUBCHEM_IUPAC_TRADITIONAL_NAME>
1,5,8-trihydroxy-3-methoxy-xanthone

> <PUBCHEM_IUPAC_INCHI>
InChI=1S/C14H10O6/c1-19-6-4-9(17)11-10(5-6)20-14-8(16)3-2-7(15)12(14)13(11)18/h2-5,15-17H,1H3

> <PUBCHEM_IUPAC_INCHIKEY>
JDIORNFCMMYMLF-UHFFFAOYSA-N

> <PUBCHEM_XLOGP3_AA>
2.4

> <PUBCHEM_EXACT_MASS>
274.047738

> <PUBCHEM_MOLECULAR_FORMULA>
C14H10O6

> <PUBCHEM_MOLECULAR_WEIGHT>
274.2256

> <PUBCHEM_OPENEYE_CAN_SMILES>
COC1=CC(=C2C(=C1)OC3=C(C=CC(=C3C2=O)O)O)O

> <PUBCHEM_OPENEYE_ISO_SMILES>
COC1=CC(=C2C(=C1)OC3=C(C=CC(=C3C2=O)O)O)O

> <PUBCHEM_CACTVS_TPSA>
96.2

> <PUBCHEM_MONOISOTOPIC_WEIGHT>
274.047738

> <PUBCHEM_TOTAL_CHARGE>
0

> <PUBCHEM_HEAVY_ATOM_COUNT>
20

> <PUBCHEM_ATOM_DEF_STEREO_COUNT>
0

> <PUBCHEM_ATOM_UDEF_STEREO_COUNT>
0

> <PUBCHEM_BOND_DEF_STEREO_COUNT>
0

> <PUBCHEM_BOND_UDEF_STEREO_COUNT>
0

> <PUBCHEM_ISOTOPIC_ATOM_COUNT>
0

> <PUBCHEM_COMPONENT_COUNT>
1

> <PUBCHEM_CACTVS_TAUTO_COUNT>
43

> <PUBCHEM_COORDINATE_TYPE>
1
5
255

> <PUBCHEM_BONDANNOTATIONS>
1  10  8
1  9  8
10  15  8
12  17  8
13  18  8
14  16  8
15  19  8
16  17  8
18  19  8
7  11  8
7  12  8
7  9  8
8  10  8
8  11  8
8  13  8
9  14  8

$$$$

