46173798
  -OEChem-07051213032D

 51 55  0     1  0  0  0  0  0999 V2000
    5.0414   -1.3650    0.0000 O   0  0  0  0  0  0  0  0  0  0  0  0
    5.8934    3.0182    0.0000 O   0  0  0  0  0  0  0  0  0  0  0  0
    6.7568   -0.9455    0.0000 O   0  0  0  0  0  0  0  0  0  0  0  0
    6.0575   -2.5300    0.0000 O   0  0  0  0  0  0  0  0  0  0  0  0
    4.6745   -3.2009    0.0000 O   0  0  0  0  0  0  0  0  0  0  0  0
    5.1708   -0.1474    0.0000 C   0  0  1  0  0  0  0  0  0  0  0  0
    3.5848   -0.4338    0.0000 C   0  0  1  0  0  0  0  0  0  0  0  0
    4.2699    0.2865    0.0000 C   0  0  2  0  0  0  0  0  0  0  0  0
    4.0566   -1.3088    0.0000 C   0  0  2  0  0  0  0  0  0  0  0  0
    5.0349   -1.1321    0.0000 C   0  0  2  0  0  0  0  0  0  0  0  0
    5.0640    1.0294    0.0000 C   0  0  0  0  0  0  0  0  0  0  0  0
    3.5267   -2.1984    0.0000 C   0  0  3  0  0  0  0  0  0  0  0  0
    5.6708    2.0433    0.0000 C   0  0  2  0  0  0  0  0  0  0  0  0
    6.0718    0.2865    0.0000 C   0  0  0  0  0  0  0  0  0  0  0  0
    4.0474    1.2614    0.0000 C   0  0  0  0  0  0  0  0  0  0  0  0
    2.5503   -0.3878    0.0000 C   0  0  0  0  0  0  0  0  0  0  0  0
    4.5781   -0.4848    0.0000 C   0  0  0  0  0  0  0  0  0  0  0  0
    4.6708    2.0433    0.0000 C   0  0  0  0  0  0  0  0  0  0  0  0
    6.2943    1.2614    0.0000 C   0  0  0  0  0  0  0  0  0  0  0  0
    2.4915   -2.1763    0.0000 C   0  0  0  0  0  0  0  0  0  0  0  0
    2.0000   -1.2649    0.0000 C   0  0  0  0  0  0  0  0  0  0  0  0
    5.9497   -1.5359    0.0000 C   0  0  0  0  0  0  0  0  0  0  0  0
    4.5212   -2.2128    0.0000 C   0  0  0  0  0  0  0  0  0  0  0  0
    3.5088   -3.1982    0.0000 C   0  0  0  0  0  0  0  0  0  0  0  0
    7.2693    1.4840    0.0000 C   0  0  0  0  0  0  0  0  0  0  0  0
    3.5041    0.6553    0.0000 H   0  0  0  0  0  0  0  0  0  0  0  0
    4.0319   -2.1584    0.0000 H   0  0  0  0  0  0  0  0  0  0  0  0
    4.9616   -1.7478    0.0000 H   0  0  0  0  0  0  0  0  0  0  0  0
    4.6562    1.4964    0.0000 H   0  0  0  0  0  0  0  0  0  0  0  0
    4.4940    0.7856    0.0000 H   0  0  0  0  0  0  0  0  0  0  0  0
    6.2098   -0.3180    0.0000 H   0  0  0  0  0  0  0  0  0  0  0  0
    6.6918    0.2865    0.0000 H   0  0  0  0  0  0  0  0  0  0  0  0
    3.6608    1.7462    0.0000 H   0  0  0  0  0  0  0  0  0  0  0  0
    3.4888    0.9924    0.0000 H   0  0  0  0  0  0  0  0  0  0  0  0
    2.6835    0.2178    0.0000 H   0  0  0  0  0  0  0  0  0  0  0  0
    1.9765   -0.1530    0.0000 H   0  0  0  0  0  0  0  0  0  0  0  0
    5.1693   -0.2981    0.0000 H   0  0  0  0  0  0  0  0  0  0  0  0
    4.4994    0.1301    0.0000 H   0  0  0  0  0  0  0  0  0  0  0  0
    4.8088    2.6477    0.0000 H   0  0  0  0  0  0  0  0  0  0  0  0
    4.1123    2.3123    0.0000 H   0  0  0  0  0  0  0  0  0  0  0  0
    1.9034   -2.3728    0.0000 H   0  0  0  0  0  0  0  0  0  0  0  0
    2.5845   -2.7892    0.0000 H   0  0  0  0  0  0  0  0  0  0  0  0
    1.5390   -0.8503    0.0000 H   0  0  0  0  0  0  0  0  0  0  0  0
    1.5127   -1.6482    0.0000 H   0  0  0  0  0  0  0  0  0  0  0  0
    2.8889   -3.1871    0.0000 H   0  0  0  0  0  0  0  0  0  0  0  0
    3.4977   -3.8181    0.0000 H   0  0  0  0  0  0  0  0  0  0  0  0
    4.1287   -3.2093    0.0000 H   0  0  0  0  0  0  0  0  0  0  0  0
    6.4858    3.2009    0.0000 H   0  0  0  0  0  0  0  0  0  0  0  0
    7.6910    1.0295    0.0000 H   0  0  0  0  0  0  0  0  0  0  0  0
    7.4520    2.0764    0.0000 H   0  0  0  0  0  0  0  0  0  0  0  0
    7.3240   -1.1958    0.0000 H   0  0  0  0  0  0  0  0  0  0  0  0
  1 17  1  0  0  0  0
  1 23  1  0  0  0  0
 13  2  1  6  0  0  0
  2 48  1  0  0  0  0
  3 22  1  0  0  0  0
  3 51  1  0  0  0  0
  4 22  2  0  0  0  0
  5 23  2  0  0  0  0
  6  8  1  0  0  0  0
  6 10  1  0  0  0  0
  6 11  1  6  0  0  0
  6 14  1  0  0  0  0
  7  8  1  0  0  0  0
  7  9  1  0  0  0  0
  7 16  1  6  0  0  0
  7 17  1  0  0  0  0
  8 15  1  0  0  0  0
  8 26  1  1  0  0  0
  9 10  1  0  0  0  0
  9 12  1  0  0  0  0
  9 27  1  1  0  0  0
 10 22  1  1  0  0  0
 10 28  1  0  0  0  0
 11 13  1  0  0  0  0
 11 29  1  0  0  0  0
 11 30  1  0  0  0  0
 12 20  1  0  0  0  0
 12 23  1  0  0  0  0
 12 24  1  0  0  0  0
 13 18  1  0  0  0  0
 13 19  1  0  0  0  0
 14 19  1  0  0  0  0
 14 31  1  0  0  0  0
 14 32  1  0  0  0  0
 15 18  1  0  0  0  0
 15 33  1  0  0  0  0
 15 34  1  0  0  0  0
 16 21  1  0  0  0  0
 16 35  1  0  0  0  0
 16 36  1  0  0  0  0
 17 37  1  0  0  0  0
 17 38  1  0  0  0  0
 18 39  1  0  0  0  0
 18 40  1  0  0  0  0
 19 25  2  0  0  0  0
 20 21  1  0  0  0  0
 20 41  1  0  0  0  0
 20 42  1  0  0  0  0
 21 43  1  0  0  0  0
 21 44  1  0  0  0  0
 24 45  1  0  0  0  0
 24 46  1  0  0  0  0
 24 47  1  0  0  0  0
 25 49  1  0  0  0  0
 25 50  1  0  0  0  0
M  END
> <PUBCHEM_COMPOUND_CID>
46173798

> <PUBCHEM_COMPOUND_CANONICALIZED>
1

> <PUBCHEM_CACTVS_COMPLEXITY>
715

> <PUBCHEM_CACTVS_HBOND_ACCEPTOR>
5

> <PUBCHEM_CACTVS_HBOND_DONOR>
2

> <PUBCHEM_CACTVS_ROTATABLE_BOND>
1

> <PUBCHEM_CACTVS_SUBSKEYS>
AAADceB4OAAAAAAAAAAAAAAAAAAAAYMAAAA0YIAABgASAGjAAAAAGgAACAAAD0SggAICCAAABgCIAgDSCAAAAAAgAAAAAAEAAAgABBIAAQACQAAEgAAAEAGI7vzPgAAAAAAAAADAAAYAACAAAYAACAAAAA==

> <PUBCHEM_IUPAC_INCHI>
InChI=1S/C20H26O5/c1-11-8-19-9-20(11,24)7-4-12(19)18-6-3-5-17(2,16(23)25-10-18)14(18)13(19)15(21)22/h12-14,24H,1,3-10H2,2H3,(H,21,22)/t12-,13+,14+,17?,18+,19-,20-/m0/s1

> <PUBCHEM_IUPAC_INCHIKEY>
KSBJAONOPKRVRR-LTBFQOKQSA-N

> <PUBCHEM_XLOGP3_AA>
1.6

> <PUBCHEM_EXACT_MASS>
346.178024

> <PUBCHEM_MOLECULAR_FORMULA>
C20H26O5

> <PUBCHEM_MOLECULAR_WEIGHT>
346.41744

> <PUBCHEM_OPENEYE_CAN_SMILES>
CC12CCCC3(C1C(C45C3CCC(C4)(C(=C)C5)O)C(=O)O)COC2=O

> <PUBCHEM_OPENEYE_ISO_SMILES>
CC12CCC[C@@]3([C@@H]1[C@@H]([C@]45[C@H]3CC[C@](C4)(C(=C)C5)O)C(=O)O)COC2=O

> <PUBCHEM_CACTVS_TPSA>
83.8

> <PUBCHEM_MONOISOTOPIC_WEIGHT>
346.178024

> <PUBCHEM_TOTAL_CHARGE>
0

> <PUBCHEM_HEAVY_ATOM_COUNT>
25

> <PUBCHEM_ATOM_DEF_STEREO_COUNT>
6

> <PUBCHEM_ATOM_UDEF_STEREO_COUNT>
1

> <PUBCHEM_BOND_DEF_STEREO_COUNT>
0

> <PUBCHEM_BOND_UDEF_STEREO_COUNT>
0

> <PUBCHEM_ISOTOPIC_ATOM_COUNT>
0

> <PUBCHEM_COMPONENT_COUNT>
1

> <PUBCHEM_CACTVS_TAUTO_COUNT>
1

> <PUBCHEM_COORDINATE_TYPE>
1
5
255

> <PUBCHEM_BONDANNOTATIONS>
10  22  5
12  24  3
13  2  6
6  11  6
7  16  6
8  26  5
9  27  5

$$$$

