11954101
  -OEChem-07051213063D

 46 49  0     1  0  0  0  0  0999 V2000
   -5.0239    1.6211   -0.4453 O   0  0  0  0  0  0  0  0  0  0  0  0
    5.7841    0.3282    0.0027 O   0  0  0  0  0  0  0  0  0  0  0  0
   -2.7764    0.5979   -0.2304 C   0  0  2  0  0  0  0  0  0  0  0  0
   -2.0861    1.7844    0.4781 C   0  0  0  0  0  0  0  0  0  0  0  0
   -4.2793    0.5930    0.2040 C   0  0  2  0  0  0  0  0  0  0  0  0
   -2.0622   -0.6912    0.2014 C   0  0  0  0  0  0  0  0  0  0  0  0
   -0.5845   -0.6654    0.1942 C   0  0  0  0  0  0  0  0  0  0  0  0
   -0.5766    1.8472    0.2433 C   0  0  0  0  0  0  0  0  0  0  0  0
    0.1086    0.5001    0.1995 C   0  0  0  0  0  0  0  0  0  0  0  0
   -4.9595   -0.7371   -0.1053 C   0  0  0  0  0  0  0  0  0  0  0  0
   -2.6632    0.7586   -1.7672 C   0  0  0  0  0  0  0  0  0  0  0  0
   -4.2579   -1.8820    0.6089 C   0  0  0  0  0  0  0  0  0  0  0  0
   -2.7627   -1.7773    0.5894 C   0  0  0  0  0  0  0  0  0  0  0  0
    0.1433   -1.9956    0.1311 C   0  0  0  0  0  0  0  0  0  0  0  0
    1.6021    0.4777    0.1689 C   0  0  0  0  0  0  0  0  0  0  0  0
    1.4803   -1.9188   -0.6007 C   0  0  0  0  0  0  0  0  0  0  0  0
    2.2710   -0.7094   -0.1917 C   0  0  0  0  0  0  0  0  0  0  0  0
    2.3858    1.6059    0.4670 C   0  0  0  0  0  0  0  0  0  0  0  0
    3.6728   -0.7513   -0.2525 C   0  0  0  0  0  0  0  0  0  0  0  0
    3.7823    1.5534    0.4182 C   0  0  0  0  0  0  0  0  0  0  0  0
    4.4259    0.3756    0.0595 C   0  0  0  0  0  0  0  0  0  0  0  0
    6.3761   -0.9149   -0.3731 C   0  0  0  0  0  0  0  0  0  0  0  0
   -2.2565    1.7085    1.5619 H   0  0  0  0  0  0  0  0  0  0  0  0
   -2.5281    2.7398    0.1694 H   0  0  0  0  0  0  0  0  0  0  0  0
   -4.3621    0.7716    1.2846 H   0  0  0  0  0  0  0  0  0  0  0  0
   -0.1652    2.4678    1.0473 H   0  0  0  0  0  0  0  0  0  0  0  0
   -0.3818    2.3705   -0.7016 H   0  0  0  0  0  0  0  0  0  0  0  0
   -4.9743   -0.9158   -1.1876 H   0  0  0  0  0  0  0  0  0  0  0  0
   -6.0149   -0.7013    0.1924 H   0  0  0  0  0  0  0  0  0  0  0  0
   -3.1865   -0.0456   -2.2954 H   0  0  0  0  0  0  0  0  0  0  0  0
   -3.0902    1.7107   -2.1012 H   0  0  0  0  0  0  0  0  0  0  0  0
   -1.6254    0.7379   -2.1167 H   0  0  0  0  0  0  0  0  0  0  0  0
   -4.5620   -2.8301    0.1508 H   0  0  0  0  0  0  0  0  0  0  0  0
   -4.5833   -1.9162    1.6558 H   0  0  0  0  0  0  0  0  0  0  0  0
   -2.2523   -2.6692    0.9436 H   0  0  0  0  0  0  0  0  0  0  0  0
    0.2990   -2.3537    1.1574 H   0  0  0  0  0  0  0  0  0  0  0  0
   -0.4516   -2.7544   -0.3912 H   0  0  0  0  0  0  0  0  0  0  0  0
    1.3109   -1.8672   -1.6839 H   0  0  0  0  0  0  0  0  0  0  0  0
    2.0438   -2.8382   -0.4009 H   0  0  0  0  0  0  0  0  0  0  0  0
   -4.6719    2.4763   -0.1477 H   0  0  0  0  0  0  0  0  0  0  0  0
    1.9376    2.5546    0.7473 H   0  0  0  0  0  0  0  0  0  0  0  0
    4.1178   -1.6930   -0.5579 H   0  0  0  0  0  0  0  0  0  0  0  0
    4.3596    2.4424    0.6583 H   0  0  0  0  0  0  0  0  0  0  0  0
    6.1463   -1.7053    0.3494 H   0  0  0  0  0  0  0  0  0  0  0  0
    7.4619   -0.7733   -0.3571 H   0  0  0  0  0  0  0  0  0  0  0  0
    6.1057   -1.1957   -1.3967 H   0  0  0  0  0  0  0  0  0  0  0  0
  1  5  1  0  0  0  0
  1 40  1  0  0  0  0
  2 21  1  0  0  0  0
  2 22  1  0  0  0  0
  3  4  1  0  0  0  0
  3  5  1  0  0  0  0
  3  6  1  0  0  0  0
  3 11  1  0  0  0  0
  4  8  1  0  0  0  0
  4 23  1  0  0  0  0
  4 24  1  0  0  0  0
  5 10  1  0  0  0  0
  5 25  1  0  0  0  0
  6  7  1  0  0  0  0
  6 13  2  0  0  0  0
  7  9  2  0  0  0  0
  7 14  1  0  0  0  0
  8  9  1  0  0  0  0
  8 26  1  0  0  0  0
  8 27  1  0  0  0  0
  9 15  1  0  0  0  0
 10 12  1  0  0  0  0
 10 28  1  0  0  0  0
 10 29  1  0  0  0  0
 11 30  1  0  0  0  0
 11 31  1  0  0  0  0
 11 32  1  0  0  0  0
 12 13  1  0  0  0  0
 12 33  1  0  0  0  0
 12 34  1  0  0  0  0
 13 35  1  0  0  0  0
 14 16  1  0  0  0  0
 14 36  1  0  0  0  0
 14 37  1  0  0  0  0
 15 17  2  0  0  0  0
 15 18  1  0  0  0  0
 16 17  1  0  0  0  0
 16 38  1  0  0  0  0
 16 39  1  0  0  0  0
 17 19  1  0  0  0  0
 18 20  2  0  0  0  0
 18 41  1  0  0  0  0
 19 21  2  0  0  0  0
 19 42  1  0  0  0  0
 20 21  1  0  0  0  0
 20 43  1  0  0  0  0
 22 44  1  0  0  0  0
 22 45  1  0  0  0  0
 22 46  1  0  0  0  0
M  END
> <PUBCHEM_COMPOUND_CID>
11954101

> <PUBCHEM_CONFORMER_RMSD>
0.6

> <PUBCHEM_CONFORMER_DIVERSEORDER>
3
1
2

> <PUBCHEM_MMFF94_PARTIAL_CHARGES>
24
1 -0.68
12 0.14
13 -0.29
14 0.14
15 0.03
16 0.14
17 -0.14
18 -0.15
19 -0.15
2 -0.36
20 -0.15
21 0.08
22 0.28
3 0.14
35 0.15
40 0.4
41 0.15
42 0.15
43 0.15
5 0.28
6 -0.14
7 -0.14
8 0.14
9 -0.17

> <PUBCHEM_EFFECTIVE_ROTOR_COUNT>
2.4

> <PUBCHEM_PHARMACOPHORE_FEATURES>
7
1 1 acceptor
1 1 donor
1 2 acceptor
6 15 17 18 19 20 21 rings
6 3 4 6 7 8 9 rings
6 3 5 6 10 12 13 rings
6 7 9 14 15 16 17 rings

> <PUBCHEM_HEAVY_ATOM_COUNT>
22

> <PUBCHEM_ATOM_DEF_STEREO_COUNT>
2

> <PUBCHEM_ATOM_UDEF_STEREO_COUNT>
0

> <PUBCHEM_BOND_DEF_STEREO_COUNT>
0

> <PUBCHEM_BOND_UDEF_STEREO_COUNT>
0

> <PUBCHEM_ISOTOPIC_ATOM_COUNT>
0

> <PUBCHEM_COMPONENT_COUNT>
1

> <PUBCHEM_CACTVS_TAUTO_COUNT>
1

> <PUBCHEM_CONFORMER_ID>
00B667B500000003

> <PUBCHEM_MMFF94_ENERGY>
65.9773

> <PUBCHEM_FEATURE_SELFOVERLAP>
35.58

> <PUBCHEM_SHAPE_FINGERPRINT>
10 15 18336557002487475760
11315181 36 18409443692173826320
11488393 25 17314773308468738990
11578080 2 16986607600042547431
12011746 2 18410294717814330564
12166972 35 17988920051024359412
12236239 1 17704071794214307640
12403259 226 18336268942429250360
12403259 415 18335424521910000368
12403814 3 17418096529433314157
12596602 18 14764338319500744644
12788726 201 17970071251801213089
13214271 11 18408041801847238055
13224815 77 18335138691408845659
13288520 33 18410290306861792387
13402501 40 18410292493031872634
13583140 156 17272604705085538680
13862211 1 18335422331176070222
14341114 176 18412539886604718600
15196674 1 18410292476100001224
15375358 24 18410294718210014755
15788980 27 17676207966021530548
16945 1 18267025153244109027
16988056 13 14316013926512746117
17349148 13 18410299111892954384
18681886 176 18409732825156314544
19489759 90 17775287157554760122
19591789 44 18264770952327745739
200 152 17676207974294993080
20645477 56 18130509725405211773
21033648 29 18261686882578662648
21267235 1 18410283688359718699
21279426 13 18337951315689679198
21682296 61 17823123696540524454
21709351 56 18412831269759914101
23402539 116 18408608045544735718
23557571 272 18341325634848698479
23559900 14 18409733971495799152
26918003 58 18408041814199506864
3004659 81 18343579664837139070
335352 9 18409729573137999828
34934 24 18411141380997585963
350125 39 18410007715795374280
351380 180 18408604751695164186
3545911 37 18412261752917391801
4214541 1 18412262835112110857
474229 33 18408603647714794590
5104073 3 18409730659769884200
542803 24 15913327996401904804
6138700 20 18338231678655183086
9709674 26 18335133241354154295

> <PUBCHEM_SHAPE_MULTIPOLES>
441.01
11.73
2.16
0.87
8.38
0.15
0.24
0.65
0.63
-0.82
-0.2
-0.46
-0.07
0.99

> <PUBCHEM_SHAPE_SELFOVERLAP>
963.449

> <PUBCHEM_SHAPE_VOLUME>
237.2

> <PUBCHEM_COORDINATE_TYPE>
2
5
10

$$$$

