11317
  -OEChem-07051213053D

 24 25  0     0  0  0  0  0  0999 V2000
    0.3085   -0.4481    0.0000 C   0  0  0  0  0  0  0  0  0  0  0  0
   -1.0561   -0.7798   -0.0001 C   0  0  0  0  0  0  0  0  0  0  0  0
    0.6896    0.9148   -0.0001 C   0  0  0  0  0  0  0  0  0  0  0  0
   -2.0310    0.2180   -0.0002 C   0  0  0  0  0  0  0  0  0  0  0  0
   -0.3054    1.9061   -0.0002 C   0  0  0  0  0  0  0  0  0  0  0  0
   -1.6564    1.5584   -0.0003 C   0  0  0  0  0  0  0  0  0  0  0  0
    1.3034   -1.4395    0.0002 C   0  0  0  0  0  0  0  0  0  0  0  0
   -1.5047   -2.2113   -0.0007 C   0  0  0  0  0  0  0  0  0  0  0  0
    2.0543    1.2464    0.0000 C   0  0  0  0  0  0  0  0  0  0  0  0
   -3.4862   -0.1217    0.0010 C   0  0  0  0  0  0  0  0  0  0  0  0
    2.6547   -1.0919    0.0002 C   0  0  0  0  0  0  0  0  0  0  0  0
    3.0293    0.2485    0.0001 C   0  0  0  0  0  0  0  0  0  0  0  0
   -0.0353    2.9601   -0.0002 H   0  0  0  0  0  0  0  0  0  0  0  0
   -2.4027    2.3486   -0.0002 H   0  0  0  0  0  0  0  0  0  0  0  0
    1.0625   -2.4992    0.0003 H   0  0  0  0  0  0  0  0  0  0  0  0
   -2.5848   -2.3673   -0.0016 H   0  0  0  0  0  0  0  0  0  0  0  0
   -1.1257   -2.7213   -0.8937 H   0  0  0  0  0  0  0  0  0  0  0  0
   -1.1270   -2.7218    0.8925 H   0  0  0  0  0  0  0  0  0  0  0  0
    2.3702    2.2876    0.0000 H   0  0  0  0  0  0  0  0  0  0  0  0
   -3.7557   -0.6864    0.8997 H   0  0  0  0  0  0  0  0  0  0  0  0
   -3.7573   -0.6859   -0.8974 H   0  0  0  0  0  0  0  0  0  0  0  0
   -4.1077    0.7814    0.0018 H   0  0  0  0  0  0  0  0  0  0  0  0
    3.4147   -1.8679    0.0004 H   0  0  0  0  0  0  0  0  0  0  0  0
    4.0813    0.5183    0.0002 H   0  0  0  0  0  0  0  0  0  0  0  0
  1  2  1  0  0  0  0
  1  3  1  0  0  0  0
  1  7  2  0  0  0  0
  2  4  2  0  0  0  0
  2  8  1  0  0  0  0
  3  5  1  0  0  0  0
  3  9  2  0  0  0  0
  4  6  1  0  0  0  0
  4 10  1  0  0  0  0
  5  6  2  0  0  0  0
  5 13  1  0  0  0  0
  6 14  1  0  0  0  0
  7 11  1  0  0  0  0
  7 15  1  0  0  0  0
  8 16  1  0  0  0  0
  8 17  1  0  0  0  0
  8 18  1  0  0  0  0
  9 12  1  0  0  0  0
  9 19  1  0  0  0  0
 10 20  1  0  0  0  0
 10 21  1  0  0  0  0
 10 22  1  0  0  0  0
 11 12  2  0  0  0  0
 11 23  1  0  0  0  0
 12 24  1  0  0  0  0
M  END
> <PUBCHEM_COMPOUND_CID>
11317

> <PUBCHEM_CONFORMER_RMSD>
0.4

> <PUBCHEM_CONFORMER_DIVERSEORDER>
1

> <PUBCHEM_MMFF94_PARTIAL_CHARGES>
16
10 0.14
11 -0.15
12 -0.15
13 0.15
14 0.15
15 0.15
19 0.15
2 -0.14
23 0.15
24 0.15
4 -0.14
5 -0.15
6 -0.15
7 -0.15
8 0.14
9 -0.15

> <PUBCHEM_EFFECTIVE_ROTOR_COUNT>
0

> <PUBCHEM_PHARMACOPHORE_FEATURES>
2
6 1 2 3 4 5 6 rings
6 1 3 7 9 11 12 rings

> <PUBCHEM_HEAVY_ATOM_COUNT>
12

> <PUBCHEM_ATOM_DEF_STEREO_COUNT>
0

> <PUBCHEM_ATOM_UDEF_STEREO_COUNT>
0

> <PUBCHEM_BOND_DEF_STEREO_COUNT>
0

> <PUBCHEM_BOND_UDEF_STEREO_COUNT>
0

> <PUBCHEM_ISOTOPIC_ATOM_COUNT>
0

> <PUBCHEM_COMPONENT_COUNT>
1

> <PUBCHEM_CACTVS_TAUTO_COUNT>
1

> <PUBCHEM_CONFORMER_ID>
00002C3500000001

> <PUBCHEM_MMFF94_ENERGY>
39.7557

> <PUBCHEM_FEATURE_SELFOVERLAP>
10.175

> <PUBCHEM_SHAPE_FINGERPRINT>
10967382 1 18410575067488510470
11132069 177 18337397045638069312
11206711 2 18268709583335235805
11471102 20 18411142445948963453
12032990 46 18411693292579127411
12382932 28 18336830784016923586
12423570 1 5086437444157326252
12524768 44 18408317804471370983
13380535 76 18409732854509136750
14325111 11 18410574032470249729
16945 1 18410856564035107076
17844478 74 18060410327053038537
193761 8 17762336916418813797
20201158 50 18411139138444369706
20510252 161 18187928442557426456
20588541 1 18409445873378694575
20871998 184 18187643566087858551
21501502 16 18409167671172299254
2334 1 17978509728412713378
23402539 116 18262532462770412535
23402655 69 18335712658602397013
23463225 33 18413108372528280776
23552423 10 18199748055280179124
23559900 14 18262233456744943622
2748010 2 18050006588711004748
369184 2 18410013260006978408
5084963 1 18115030834530880499
528886 8 18409735019267287786
53812653 166 18189058599024603720
7364860 26 18333731295725955372
8809292 202 18343297046397204314

> <PUBCHEM_SHAPE_MULTIPOLES>
246.95
4.38
2.08
0.62
0.18
0.19
0
0.35
0
0.28
0
0
0
0

> <PUBCHEM_SHAPE_SELFOVERLAP>
539.039

> <PUBCHEM_SHAPE_VOLUME>
127.3

> <PUBCHEM_COORDINATE_TYPE>
2
5
10

$$$$

