54680783
  -OEChem-07051213093D

 32 33  0     1  0  0  0  0  0999 V2000
    2.9269    1.5833    0.1004 O   0  0  0  0  0  0  0  0  0  0  0  0
   -2.2476   -2.1589   -0.4559 O   0  0  0  0  0  0  0  0  0  0  0  0
   -1.1349    2.4025    0.4630 O   0  0  0  0  0  0  0  0  0  0  0  0
   -3.9854   -0.4937    0.3420 O   0  0  0  0  0  0  0  0  0  0  0  0
   -3.6460    1.6216   -0.4585 O   0  0  0  0  0  0  0  0  0  0  0  0
    2.4646   -0.8560    0.2549 C   0  0  2  0  0  0  0  0  0  0  0  0
    3.3025    0.2800   -0.3757 C   0  0  1  0  0  0  0  0  0  0  0  0
    0.9771   -0.5812    0.1032 C   0  0  0  0  0  0  0  0  0  0  0  0
    0.6315    0.8276    0.1759 C   0  0  0  0  0  0  0  0  0  0  0  0
    0.0096   -1.5105   -0.0593 C   0  0  0  0  0  0  0  0  0  0  0  0
    2.8171   -1.0313    1.7394 C   0  0  0  0  0  0  0  0  0  0  0  0
    3.2737    0.2703   -1.9075 C   0  0  0  0  0  0  0  0  0  0  0  0
    1.5730    1.7825    0.2099 C   0  0  0  0  0  0  0  0  0  0  0  0
   -0.7953    1.2454    0.2374 C   0  0  0  0  0  0  0  0  0  0  0  0
   -1.3997   -1.1028   -0.1757 C   0  0  0  0  0  0  0  0  0  0  0  0
   -1.8098    0.1737   -0.0144 C   0  0  0  0  0  0  0  0  0  0  0  0
    0.2786   -2.9960   -0.0990 C   0  0  0  0  0  0  0  0  0  0  0  0
   -3.2358    0.5433   -0.0799 C   0  0  0  0  0  0  0  0  0  0  0  0
    2.7377   -1.7830   -0.2630 H   0  0  0  0  0  0  0  0  0  0  0  0
    4.3505    0.1440   -0.0800 H   0  0  0  0  0  0  0  0  0  0  0  0
    2.6113   -0.1279    2.3235 H   0  0  0  0  0  0  0  0  0  0  0  0
    3.8805   -1.2676    1.8549 H   0  0  0  0  0  0  0  0  0  0  0  0
    2.2470   -1.8539    2.1852 H   0  0  0  0  0  0  0  0  0  0  0  0
    2.2680    0.4453   -2.3028 H   0  0  0  0  0  0  0  0  0  0  0  0
    3.6389   -0.6833   -2.3010 H   0  0  0  0  0  0  0  0  0  0  0  0
    3.9065    1.0735   -2.3008 H   0  0  0  0  0  0  0  0  0  0  0  0
    1.3756    2.8401    0.3255 H   0  0  0  0  0  0  0  0  0  0  0  0
   -0.4031   -3.5409    0.5642 H   0  0  0  0  0  0  0  0  0  0  0  0
    1.2839   -3.2562    0.2424 H   0  0  0  0  0  0  0  0  0  0  0  0
    0.1748   -3.3829   -1.1183 H   0  0  0  0  0  0  0  0  0  0  0  0
   -1.8282   -2.7415   -1.1099 H   0  0  0  0  0  0  0  0  0  0  0  0
   -4.9449   -0.2912    0.3150 H   0  0  0  0  0  0  0  0  0  0  0  0
  1  7  1  0  0  0  0
  1 13  1  0  0  0  0
  2 15  1  0  0  0  0
  2 31  1  0  0  0  0
  3 14  2  0  0  0  0
  4 18  1  0  0  0  0
  4 32  1  0  0  0  0
  5 18  2  0  0  0  0
  6  7  1  0  0  0  0
  6  8  1  0  0  0  0
  6 11  1  0  0  0  0
  6 19  1  0  0  0  0
  7 12  1  0  0  0  0
  7 20  1  0  0  0  0
  8  9  1  0  0  0  0
  8 10  2  0  0  0  0
  9 13  2  0  0  0  0
  9 14  1  0  0  0  0
 10 15  1  0  0  0  0
 10 17  1  0  0  0  0
 11 21  1  0  0  0  0
 11 22  1  0  0  0  0
 11 23  1  0  0  0  0
 12 24  1  0  0  0  0
 12 25  1  0  0  0  0
 12 26  1  0  0  0  0
 13 27  1  0  0  0  0
 14 16  1  0  0  0  0
 15 16  2  0  0  0  0
 16 18  1  0  0  0  0
 17 28  1  0  0  0  0
 17 29  1  0  0  0  0
 17 30  1  0  0  0  0
M  END
> <PUBCHEM_COMPOUND_CID>
54680783

> <PUBCHEM_CONFORMER_RMSD>
0.6

> <PUBCHEM_CONFORMER_DIVERSEORDER>
2
1

> <PUBCHEM_MMFF94_PARTIAL_CHARGES>
19
1 -0.36
10 -0.14
13 -0.07
14 0.54
15 0.08
16 0.03
17 0.14
18 0.71
2 -0.53
27 0.15
3 -0.57
31 0.45
32 0.5
4 -0.65
5 -0.57
6 0.14
7 0.28
8 -0.14
9 0.01

> <PUBCHEM_EFFECTIVE_ROTOR_COUNT>
1.6

> <PUBCHEM_PHARMACOPHORE_FEATURES>
9
1 1 acceptor
1 16 anion
1 2 donor
1 3 acceptor
1 4 acceptor
1 5 acceptor
3 4 5 18 anion
6 1 6 7 8 9 13 rings
6 8 9 10 14 15 16 rings

> <PUBCHEM_HEAVY_ATOM_COUNT>
18

> <PUBCHEM_ATOM_DEF_STEREO_COUNT>
2

> <PUBCHEM_ATOM_UDEF_STEREO_COUNT>
0

> <PUBCHEM_BOND_DEF_STEREO_COUNT>
0

> <PUBCHEM_BOND_UDEF_STEREO_COUNT>
0

> <PUBCHEM_ISOTOPIC_ATOM_COUNT>
0

> <PUBCHEM_COMPONENT_COUNT>
1

> <PUBCHEM_CACTVS_TAUTO_COUNT>
11

> <PUBCHEM_CONFORMER_ID>
03425CCF00000002

> <PUBCHEM_MMFF94_ENERGY>
52.9345

> <PUBCHEM_FEATURE_SELFOVERLAP>
46.077

> <PUBCHEM_SHAPE_FINGERPRINT>
10062212 137 18340782523597371083
10411042 1 16464173762112153927
10759866 29 18060413625492924366
10967382 1 18409450297268888499
10980938 120 18341611542210572507
11132069 177 18261401047909218906
11680986 33 17688319305333832371
12236239 1 17988643030339918002
13140716 1 18336553733046484003
13172582 1 18338249248569468458
13221675 6 18410290324046949338
13538477 17 18342182158960295970
14144814 61 18409729586117957561
14289901 80 16845282839592203377
14790565 3 18263625373129283553
15196674 1 18410294717904111617
15309172 13 18336537283290111099
15375462 175 18335415807194178538
15775835 57 18273211993525534428
16752209 62 18263645224193201641
16945 1 18335140946319423587
1813 80 17273141435034193370
18186145 218 18260823795783487897
193761 8 17688589785257367297
19591789 44 18337103484692504983
20233049 118 18412823603554559276
20510252 161 18188486852877673617
20559304 39 18340773744763216026
20645476 183 18059844026819469774
21267235 1 18410567366691620835
21501502 16 18340497655248239387
22802520 49 18041540491322585214
22854114 111 18202283602103064736
2334 1 18192719942590402299
23402539 116 18261681398258612876
23419403 2 15099952419665675752
23463225 33 18270407203603048962
23493267 7 17917700310130881449
23526113 38 17385712639203805452
23557571 272 17750243499926475882
23559900 14 18259979363260356236
25 1 18340205288492740613
2748010 2 18263928730794594049
3060560 45 18408886260746751060
335352 9 18193840563940259935
474 4 17130977660600386940
528886 8 18408608041186464866
537710 114 18411697694925874037
633830 44 18113614612300034365
7097593 13 17771645690923781346
7364860 26 18120093033352434614
81228 2 17761499084342992435

> <PUBCHEM_SHAPE_MULTIPOLES>
341.08
5.84
2.51
1.05
2.13
0.79
-0.09
-1.19
-0.63
0.46
0.07
-1.15
0.09
-0.45

> <PUBCHEM_SHAPE_SELFOVERLAP>
734.803

> <PUBCHEM_SHAPE_VOLUME>
186

> <PUBCHEM_COORDINATE_TYPE>
2
5
10

$$$$

