11016
  -OEChem-07051213143D

 23 25  0     0  0  0  0  0  0999 V2000
   -0.1182    0.0292   -0.2650 P   0  0  0  0  0  0  0  0  0  0  0  0
   -0.3096   -0.3532   -1.7142 O   0  0  0  0  0  0  0  0  0  0  0  0
    0.5125    1.5523   -0.0530 N   0  0  0  0  0  0  0  0  0  0  0  0
    0.9123   -0.9794    0.5621 N   0  0  0  0  0  0  0  0  0  0  0  0
   -1.5249    0.0216    0.6201 N   0  0  0  0  0  0  0  0  0  0  0  0
    1.8661    1.7657   -0.5461 C   0  0  0  0  0  0  0  0  0  0  0  0
    1.5834    1.6819    0.9255 C   0  0  0  0  0  0  0  0  0  0  0  0
    0.5851   -2.3982    0.5383 C   0  0  0  0  0  0  0  0  0  0  0  0
    1.7466   -1.8594   -0.2445 C   0  0  0  0  0  0  0  0  0  0  0  0
   -2.5343    0.9993    0.2378 C   0  0  0  0  0  0  0  0  0  0  0  0
   -2.7189   -0.4598   -0.0611 C   0  0  0  0  0  0  0  0  0  0  0  0
    2.0609    2.7416   -0.9699 H   0  0  0  0  0  0  0  0  0  0  0  0
    2.3644    0.9387   -1.0313 H   0  0  0  0  0  0  0  0  0  0  0  0
    1.9896    0.8491    1.4768 H   0  0  0  0  0  0  0  0  0  0  0  0
    1.5816    2.6092    1.4868 H   0  0  0  0  0  0  0  0  0  0  0  0
   -0.2991   -2.7040   -0.0036 H   0  0  0  0  0  0  0  0  0  0  0  0
    0.7940   -2.9423    1.4490 H   0  0  0  0  0  0  0  0  0  0  0  0
    2.7423   -2.0373    0.1395 H   0  0  0  0  0  0  0  0  0  0  0  0
    1.6675   -1.8142   -1.3208 H   0  0  0  0  0  0  0  0  0  0  0  0
   -2.3151    1.6620   -0.5880 H   0  0  0  0  0  0  0  0  0  0  0  0
   -3.1033    1.4279    1.0511 H   0  0  0  0  0  0  0  0  0  0  0  0
   -3.4124   -1.0184    0.5534 H   0  0  0  0  0  0  0  0  0  0  0  0
   -2.6471   -0.7856   -1.0883 H   0  0  0  0  0  0  0  0  0  0  0  0
  1  2  2  0  0  0  0
  1  3  1  0  0  0  0
  1  4  1  0  0  0  0
  1  5  1  0  0  0  0
  3  6  1  0  0  0  0
  3  7  1  0  0  0  0
  4  8  1  0  0  0  0
  4  9  1  0  0  0  0
  5 10  1  0  0  0  0
  5 11  1  0  0  0  0
  6  7  1  0  0  0  0
  6 12  1  0  0  0  0
  6 13  1  0  0  0  0
  7 14  1  0  0  0  0
  7 15  1  0  0  0  0
  8  9  1  0  0  0  0
  8 16  1  0  0  0  0
  8 17  1  0  0  0  0
  9 18  1  0  0  0  0
  9 19  1  0  0  0  0
 10 11  1  0  0  0  0
 10 20  1  0  0  0  0
 10 21  1  0  0  0  0
 11 22  1  0  0  0  0
 11 23  1  0  0  0  0
M  END
> <PUBCHEM_COMPOUND_CID>
11016

> <PUBCHEM_CONFORMER_RMSD>
0.6

> <PUBCHEM_CONFORMER_DIVERSEORDER>
1
5
4
3
2

> <PUBCHEM_MMFF94_PARTIAL_CHARGES>
23
1 1.5
10 -0.04
11 -0.04
12 0.1
13 0.1
14 0.1
15 0.1
16 0.1
17 0.1
18 0.1
19 0.1
2 -0.7
20 0.1
21 0.1
22 0.1
23 0.1
3 -0.58
4 -0.58
5 -0.58
6 -0.04
7 -0.04
8 -0.04
9 -0.04

> <PUBCHEM_EFFECTIVE_ROTOR_COUNT>
4.8

> <PUBCHEM_PHARMACOPHORE_FEATURES>
1
1 2 acceptor

> <PUBCHEM_HEAVY_ATOM_COUNT>
11

> <PUBCHEM_ATOM_DEF_STEREO_COUNT>
0

> <PUBCHEM_ATOM_UDEF_STEREO_COUNT>
0

> <PUBCHEM_BOND_DEF_STEREO_COUNT>
0

> <PUBCHEM_BOND_UDEF_STEREO_COUNT>
0

> <PUBCHEM_ISOTOPIC_ATOM_COUNT>
0

> <PUBCHEM_COMPONENT_COUNT>
1

> <PUBCHEM_CACTVS_TAUTO_COUNT>
1

> <PUBCHEM_CONFORMER_ID>
00002B0800000001

> <PUBCHEM_MMFF94_ENERGY>
27.9932

> <PUBCHEM_FEATURE_SELFOVERLAP>
5.074

> <PUBCHEM_SHAPE_FINGERPRINT>
1 1 18339361868453223412
10702982 57 18118692015020024742
137420 1 13301640563471292480
15775835 57 18042401339996861697
16945 1 18269550714020020641
20645477 70 18408889538624864991
20653091 64 18336254751772466689
20711985 344 16964055663063409527
21040471 1 18123468272156766264
21061003 4 18125174963406143066
23211744 41 17970618585205851705
23526114 1 18411415133047942717
23552423 10 18411418436326127683
23595355 12 18341611482255103646
305870 269 18337401447811048000
5084963 1 17972021566285139697
528862 383 18342186548274272402
54338 74 17689997164456993545
68419 9 17315386680862610117
7364860 26 18333731342511406467
81228 2 17257932022881075002

> <PUBCHEM_SHAPE_MULTIPOLES>
209.41
3.14
2.46
1.01
2.26
0.67
-0.26
-0.66
0.18
-1.77
0.32
-0.11
-0.03
-0.05

> <PUBCHEM_SHAPE_SELFOVERLAP>
403.89

> <PUBCHEM_SHAPE_VOLUME>
130.8

> <PUBCHEM_COORDINATE_TYPE>
2
5
10

$$$$

