17395915
  -OEChem-06241222532D

 43 45  0     0  0  0  0  0  0999 V2000
    5.4641   -3.5352    0.0000 O   0  0  0  0  0  0  0  0  0  0  0  0
    3.7320   -4.5352    0.0000 O   0  0  0  0  0  0  0  0  0  0  0  0
    4.0981    2.5036    0.0000 O   0  0  0  0  0  0  0  0  0  0  0  0
    5.4641   -0.5352    0.0000 O   0  0  0  0  0  0  0  0  0  0  0  0
    3.7320   -0.5352    0.0000 N   0  0  0  0  0  0  0  0  0  0  0  0
    3.7891    1.5526    0.0000 N   0  0  0  0  0  0  0  0  0  0  0  0
    3.7320   -1.5352    0.0000 C   0  0  0  0  0  0  0  0  0  0  0  0
    2.8660   -2.0352    0.0000 C   0  0  0  0  0  0  0  0  0  0  0  0
    4.5981   -2.0352    0.0000 C   0  0  0  0  0  0  0  0  0  0  0  0
    2.8660   -3.0352    0.0000 C   0  0  0  0  0  0  0  0  0  0  0  0
    4.5981   -3.0352    0.0000 C   0  0  0  0  0  0  0  0  0  0  0  0
    3.7320   -3.5352    0.0000 C   0  0  0  0  0  0  0  0  0  0  0  0
    2.0000   -1.5352    0.0000 C   0  0  0  0  0  0  0  0  0  0  0  0
    4.5981   -0.0352    0.0000 C   0  0  0  0  0  0  0  0  0  0  0  0
    4.5981    0.9648    0.0000 C   0  0  0  0  0  0  0  0  0  0  0  0
    5.0981    2.5036    0.0000 C   0  0  0  0  0  0  0  0  0  0  0  0
    5.6859    3.3126    0.0000 C   0  0  0  0  0  0  0  0  0  0  0  0
    5.4071    1.5526    0.0000 C   0  0  0  0  0  0  0  0  0  0  0  0
    6.6804    3.2081    0.0000 C   0  0  0  0  0  0  0  0  0  0  0  0
    5.2791    4.2262    0.0000 C   0  0  0  0  0  0  0  0  0  0  0  0
    7.2682    4.0171    0.0000 C   0  0  0  0  0  0  0  0  0  0  0  0
    5.8669    5.0352    0.0000 C   0  0  0  0  0  0  0  0  0  0  0  0
    6.8614    4.9307    0.0000 C   0  0  0  0  0  0  0  0  0  0  0  0
    6.3301   -3.0352    0.0000 C   0  0  0  0  0  0  0  0  0  0  0  0
    2.8660   -5.0352    0.0000 C   0  0  0  0  0  0  0  0  0  0  0  0
    5.1350   -1.7252    0.0000 H   0  0  0  0  0  0  0  0  0  0  0  0
    2.3291   -3.3452    0.0000 H   0  0  0  0  0  0  0  0  0  0  0  0
    3.1951   -0.2252    0.0000 H   0  0  0  0  0  0  0  0  0  0  0  0
    2.3100   -0.9983    0.0000 H   0  0  0  0  0  0  0  0  0  0  0  0
    1.4631   -1.2252    0.0000 H   0  0  0  0  0  0  0  0  0  0  0  0
    1.6900   -2.0722    0.0000 H   0  0  0  0  0  0  0  0  0  0  0  0
    5.9967    1.3610    0.0000 H   0  0  0  0  0  0  0  0  0  0  0  0
    6.9326    2.6417    0.0000 H   0  0  0  0  0  0  0  0  0  0  0  0
    4.6625    4.2910    0.0000 H   0  0  0  0  0  0  0  0  0  0  0  0
    7.8848    3.9523    0.0000 H   0  0  0  0  0  0  0  0  0  0  0  0
    5.6147    5.6016    0.0000 H   0  0  0  0  0  0  0  0  0  0  0  0
    7.2259    5.4323    0.0000 H   0  0  0  0  0  0  0  0  0  0  0  0
    6.6401   -3.5722    0.0000 H   0  0  0  0  0  0  0  0  0  0  0  0
    6.8671   -2.7252    0.0000 H   0  0  0  0  0  0  0  0  0  0  0  0
    6.0201   -2.4983    0.0000 H   0  0  0  0  0  0  0  0  0  0  0  0
    2.5560   -4.4983    0.0000 H   0  0  0  0  0  0  0  0  0  0  0  0
    2.3291   -5.3452    0.0000 H   0  0  0  0  0  0  0  0  0  0  0  0
    3.1760   -5.5722    0.0000 H   0  0  0  0  0  0  0  0  0  0  0  0
  1 11  1  0  0  0  0
  1 24  1  0  0  0  0
  2 12  1  0  0  0  0
  2 25  1  0  0  0  0
  3  6  1  0  0  0  0
  3 16  1  0  0  0  0
  4 14  2  0  0  0  0
  5  7  1  0  0  0  0
  5 14  1  0  0  0  0
  5 28  1  0  0  0  0
  6 15  2  0  0  0  0
  7  8  1  0  0  0  0
  7  9  2  0  0  0  0
  8 10  2  0  0  0  0
  8 13  1  0  0  0  0
  9 11  1  0  0  0  0
  9 26  1  0  0  0  0
 10 12  1  0  0  0  0
 10 27  1  0  0  0  0
 11 12  2  0  0  0  0
 13 29  1  0  0  0  0
 13 30  1  0  0  0  0
 13 31  1  0  0  0  0
 14 15  1  0  0  0  0
 15 18  1  0  0  0  0
 16 17  1  0  0  0  0
 16 18  2  0  0  0  0
 17 19  2  0  0  0  0
 17 20  1  0  0  0  0
 18 32  1  0  0  0  0
 19 21  1  0  0  0  0
 19 33  1  0  0  0  0
 20 22  2  0  0  0  0
 20 34  1  0  0  0  0
 21 23  2  0  0  0  0
 21 35  1  0  0  0  0
 22 23  1  0  0  0  0
 22 36  1  0  0  0  0
 23 37  1  0  0  0  0
 24 38  1  0  0  0  0
 24 39  1  0  0  0  0
 24 40  1  0  0  0  0
 25 41  1  0  0  0  0
 25 42  1  0  0  0  0
 25 43  1  0  0  0  0
M  END
> <PUBCHEM_COMPOUND_CID>
17395915

> <PUBCHEM_COMPOUND_CANONICALIZED>
1

> <PUBCHEM_CACTVS_COMPLEXITY>
441

> <PUBCHEM_CACTVS_HBOND_ACCEPTOR>
5

> <PUBCHEM_CACTVS_HBOND_DONOR>
1

> <PUBCHEM_CACTVS_ROTATABLE_BOND>
5

> <PUBCHEM_CACTVS_SUBSKEYS>
AAADceB7OAAAAAAAAAAAAAAAAAAAAWAAAAAwYAAAAAAAAAAB0AAAHgAUAAAADAyBngIyxpLQBACpA6VyUgCCCAAnIgAomCG27NoNZjrEtZuUMapm1BnK6ce/2LOOIEABAgACQABAgAIEAASAAAAAAAAAAA==

> <PUBCHEM_IUPAC_OPENEYE_NAME>
N-(4,5-dimethoxy-2-methyl-phenyl)-5-phenyl-isoxazole-3-carboxamide

> <PUBCHEM_IUPAC_CAS_NAME>
N-(4,5-dimethoxy-2-methylphenyl)-5-phenyl-3-isoxazolecarboxamide

> <PUBCHEM_IUPAC_NAME>
N-(4,5-dimethoxy-2-methylphenyl)-5-phenyl-1,2-oxazole-3-carboxamide

> <PUBCHEM_IUPAC_SYSTEMATIC_NAME>
N-(4,5-dimethoxy-2-methyl-phenyl)-5-phenyl-1,2-oxazole-3-carboxamide

> <PUBCHEM_IUPAC_TRADITIONAL_NAME>
N-(4,5-dimethoxy-2-methyl-phenyl)-5-phenyl-isoxazole-3-carboxamide

> <PUBCHEM_IUPAC_INCHI>
InChI=1S/C19H18N2O4/c1-12-9-17(23-2)18(24-3)10-14(12)20-19(22)15-11-16(25-21-15)13-7-5-4-6-8-13/h4-11H,1-3H3,(H,20,22)

> <PUBCHEM_IUPAC_INCHIKEY>
WXKHAGXMBZIINA-UHFFFAOYSA-N

> <PUBCHEM_XLOGP3_AA>
3.5

> <PUBCHEM_EXACT_MASS>
338.126657

> <PUBCHEM_MOLECULAR_FORMULA>
C19H18N2O4

> <PUBCHEM_MOLECULAR_WEIGHT>
338.35722

> <PUBCHEM_OPENEYE_CAN_SMILES>
CC1=CC(=C(C=C1NC(=O)C2=NOC(=C2)C3=CC=CC=C3)OC)OC

> <PUBCHEM_OPENEYE_ISO_SMILES>
CC1=CC(=C(C=C1NC(=O)C2=NOC(=C2)C3=CC=CC=C3)OC)OC

> <PUBCHEM_CACTVS_TPSA>
73.6

> <PUBCHEM_MONOISOTOPIC_WEIGHT>
338.126657

> <PUBCHEM_TOTAL_CHARGE>
0

> <PUBCHEM_HEAVY_ATOM_COUNT>
25

> <PUBCHEM_ATOM_DEF_STEREO_COUNT>
0

> <PUBCHEM_ATOM_UDEF_STEREO_COUNT>
0

> <PUBCHEM_BOND_DEF_STEREO_COUNT>
0

> <PUBCHEM_BOND_UDEF_STEREO_COUNT>
0

> <PUBCHEM_ISOTOPIC_ATOM_COUNT>
0

> <PUBCHEM_COMPONENT_COUNT>
1

> <PUBCHEM_CACTVS_TAUTO_COUNT>
2

> <PUBCHEM_COORDINATE_TYPE>
1
5
255

> <PUBCHEM_BONDANNOTATIONS>
10  12  8
11  12  8
15  18  8
16  18  8
17  19  8
17  20  8
19  21  8
20  22  8
21  23  8
22  23  8
3  16  8
3  6  8
6  15  8
7  8  8
7  9  8
8  10  8
9  11  8

$$$$

