14319
  -OEChem-06241222432D

 21 22  0     0  0  0  0  0  0999 V2000
    4.6783   -0.9809    0.0000 S   0  0  0  0  0  0  0  0  0  0  0  0
    4.6783    0.6286    0.0000 N   0  0  0  0  0  0  0  0  0  0  0  0
    6.2619   -0.1761    0.0000 N   0  0  0  0  0  0  0  0  0  0  0  0
    6.7619   -1.0422    0.0000 N   0  0  0  0  0  0  0  0  0  0  0  0
    3.7320    0.3239    0.0000 C   0  0  0  0  0  0  0  0  0  0  0  0
    3.7320   -0.6761    0.0000 C   0  0  0  0  0  0  0  0  0  0  0  0
    5.2619   -0.1761    0.0000 C   0  0  0  0  0  0  0  0  0  0  0  0
    2.8660    0.8239    0.0000 C   0  0  0  0  0  0  0  0  0  0  0  0
    4.9889    1.5791    0.0000 C   0  0  0  0  0  0  0  0  0  0  0  0
    2.8660   -1.1762    0.0000 C   0  0  0  0  0  0  0  0  0  0  0  0
    2.0000    0.3239    0.0000 C   0  0  0  0  0  0  0  0  0  0  0  0
    2.0000   -0.6761    0.0000 C   0  0  0  0  0  0  0  0  0  0  0  0
    2.8660    1.4438    0.0000 H   0  0  0  0  0  0  0  0  0  0  0  0
    5.5783    1.3865    0.0000 H   0  0  0  0  0  0  0  0  0  0  0  0
    5.1815    2.1684    0.0000 H   0  0  0  0  0  0  0  0  0  0  0  0
    4.3996    1.7717    0.0000 H   0  0  0  0  0  0  0  0  0  0  0  0
    2.8660   -1.7962    0.0000 H   0  0  0  0  0  0  0  0  0  0  0  0
    1.4631    0.6339    0.0000 H   0  0  0  0  0  0  0  0  0  0  0  0
    1.4631   -0.9861    0.0000 H   0  0  0  0  0  0  0  0  0  0  0  0
    7.3819   -1.0422    0.0000 H   0  0  0  0  0  0  0  0  0  0  0  0
    6.4519   -1.5791    0.0000 H   0  0  0  0  0  0  0  0  0  0  0  0
  1  6  1  0  0  0  0
  1  7  1  0  0  0  0
  2  5  1  0  0  0  0
  2  7  1  0  0  0  0
  2  9  1  0  0  0  0
  3  4  1  0  0  0  0
  3  7  2  3  0  0  0
  4 20  1  0  0  0  0
  4 21  1  0  0  0  0
  5  6  1  0  0  0  0
  5  8  2  0  0  0  0
  6 10  2  0  0  0  0
  8 11  1  0  0  0  0
  8 13  1  0  0  0  0
  9 14  1  0  0  0  0
  9 15  1  0  0  0  0
  9 16  1  0  0  0  0
 10 12  1  0  0  0  0
 10 17  1  0  0  0  0
 11 12  2  0  0  0  0
 11 18  1  0  0  0  0
 12 19  1  0  0  0  0
M  END
> <PUBCHEM_COMPOUND_CID>
14319

> <PUBCHEM_COMPOUND_CANONICALIZED>
1

> <PUBCHEM_CACTVS_COMPLEXITY>
205

> <PUBCHEM_CACTVS_HBOND_ACCEPTOR>
3

> <PUBCHEM_CACTVS_HBOND_DONOR>
1

> <PUBCHEM_CACTVS_ROTATABLE_BOND>
0

> <PUBCHEM_CACTVS_SUBSKEYS>
AAADccBzAABAAAAAAAAAAAAAAAAAAWAAAAAwAAAAAAAAAFgBAAAAHAQYAAAACAiBUAQzwYMCAAigACRCYACCAABhChAJiBwIZIgIICLgmZGEIAhggABIyAcQAAAAAAAAAAAAAQAAAAAAAAACAAAAAAAAAA==

> <PUBCHEM_IUPAC_OPENEYE_NAME>
3-methyl-1,3-benzothiazol-2-one hydrazone

> <PUBCHEM_IUPAC_CAS_NAME>
3-methyl-1,3-benzothiazol-2-one hydrazone

> <PUBCHEM_IUPAC_NAME>
(3-methyl-1,3-benzothiazol-2-ylidene)hydrazine

> <PUBCHEM_IUPAC_SYSTEMATIC_NAME>
(3-methyl-1,3-benzothiazol-2-ylidene)diazane

> <PUBCHEM_IUPAC_TRADITIONAL_NAME>
3-methyl-1,3-benzothiazol-2-one hydrazone

> <PUBCHEM_IUPAC_INCHI>
InChI=1S/C8H9N3S/c1-11-6-4-2-3-5-7(6)12-8(11)10-9/h2-5H,9H2,1H3

> <PUBCHEM_IUPAC_INCHIKEY>
PHOLIFLKGONSGY-UHFFFAOYSA-N

> <PUBCHEM_XLOGP3>
1.9

> <PUBCHEM_EXACT_MASS>
179.051718

> <PUBCHEM_MOLECULAR_FORMULA>
C8H9N3S

> <PUBCHEM_MOLECULAR_WEIGHT>
179.24216

> <PUBCHEM_OPENEYE_CAN_SMILES>
CN1C2=CC=CC=C2SC1=NN

> <PUBCHEM_OPENEYE_ISO_SMILES>
CN1C2=CC=CC=C2SC1=NN

> <PUBCHEM_CACTVS_TPSA>
66.9

> <PUBCHEM_MONOISOTOPIC_WEIGHT>
179.051718

> <PUBCHEM_TOTAL_CHARGE>
0

> <PUBCHEM_HEAVY_ATOM_COUNT>
12

> <PUBCHEM_ATOM_DEF_STEREO_COUNT>
0

> <PUBCHEM_ATOM_UDEF_STEREO_COUNT>
0

> <PUBCHEM_BOND_DEF_STEREO_COUNT>
0

> <PUBCHEM_BOND_UDEF_STEREO_COUNT>
1

> <PUBCHEM_ISOTOPIC_ATOM_COUNT>
0

> <PUBCHEM_COMPONENT_COUNT>
1

> <PUBCHEM_CACTVS_TAUTO_COUNT>
1

> <PUBCHEM_COORDINATE_TYPE>
1
5
255

> <PUBCHEM_BONDANNOTATIONS>
1  6  8
1  7  8
10  12  8
11  12  8
2  5  8
2  7  8
3  7  1
5  6  8
5  8  8
6  10  8
8  11  8

$$$$

