582871
  -OEChem-06241222442D

 44 44  0     1  0  0  0  0  0999 V2000
    2.8660    1.8170    0.0000 S   0  0  0  0  0  0  0  0  0  0  0  0
    4.5981    1.8170    0.0000 Si  0  0  0  0  0  0  0  0  0  0  0  0
    5.4641    2.3170    0.0000 Si  0  0  0  0  0  0  0  0  0  0  0  0
    3.7321    1.3170    0.0000 C   0  0  3  0  0  0  0  0  0  0  0  0
    4.0981    2.6830    0.0000 C   0  0  0  0  0  0  0  0  0  0  0  0
    5.0981    0.9510    0.0000 C   0  0  0  0  0  0  0  0  0  0  0  0
    6.3301    2.8170    0.0000 C   0  0  0  0  0  0  0  0  0  0  0  0
    4.9641    3.1830    0.0000 C   0  0  0  0  0  0  0  0  0  0  0  0
    5.9641    1.4510    0.0000 C   0  0  0  0  0  0  0  0  0  0  0  0
    3.7321    0.3170    0.0000 C   0  0  0  0  0  0  0  0  0  0  0  0
    2.8660   -0.1830    0.0000 C   0  0  0  0  0  0  0  0  0  0  0  0
    2.0000    1.3170    0.0000 C   0  0  0  0  0  0  0  0  0  0  0  0
    2.8660   -1.1830    0.0000 C   0  0  0  0  0  0  0  0  0  0  0  0
    3.7321   -1.6830    0.0000 C   0  0  0  0  0  0  0  0  0  0  0  0
    2.0000   -1.6830    0.0000 C   0  0  0  0  0  0  0  0  0  0  0  0
    3.7321   -2.6830    0.0000 C   0  0  0  0  0  0  0  0  0  0  0  0
    2.0000   -2.6830    0.0000 C   0  0  0  0  0  0  0  0  0  0  0  0
    2.8660   -3.1830    0.0000 C   0  0  0  0  0  0  0  0  0  0  0  0
    4.2690    1.0070    0.0000 H   0  0  0  0  0  0  0  0  0  0  0  0
    4.6350    2.9930    0.0000 H   0  0  0  0  0  0  0  0  0  0  0  0
    3.7881    3.2199    0.0000 H   0  0  0  0  0  0  0  0  0  0  0  0
    3.5611    2.3730    0.0000 H   0  0  0  0  0  0  0  0  0  0  0  0
    4.5611    0.6410    0.0000 H   0  0  0  0  0  0  0  0  0  0  0  0
    5.4081    0.4140    0.0000 H   0  0  0  0  0  0  0  0  0  0  0  0
    5.6350    1.2610    0.0000 H   0  0  0  0  0  0  0  0  0  0  0  0
    6.6401    2.2801    0.0000 H   0  0  0  0  0  0  0  0  0  0  0  0
    6.8671    3.1270    0.0000 H   0  0  0  0  0  0  0  0  0  0  0  0
    6.0201    3.3539    0.0000 H   0  0  0  0  0  0  0  0  0  0  0  0
    5.5010    3.4930    0.0000 H   0  0  0  0  0  0  0  0  0  0  0  0
    4.6541    3.7199    0.0000 H   0  0  0  0  0  0  0  0  0  0  0  0
    4.4272    2.8730    0.0000 H   0  0  0  0  0  0  0  0  0  0  0  0
    5.4272    1.1410    0.0000 H   0  0  0  0  0  0  0  0  0  0  0  0
    6.2741    0.9140    0.0000 H   0  0  0  0  0  0  0  0  0  0  0  0
    6.5010    1.7610    0.0000 H   0  0  0  0  0  0  0  0  0  0  0  0
    4.2690    0.0070    0.0000 H   0  0  0  0  0  0  0  0  0  0  0  0
    2.3291    0.1270    0.0000 H   0  0  0  0  0  0  0  0  0  0  0  0
    1.6900    1.8539    0.0000 H   0  0  0  0  0  0  0  0  0  0  0  0
    1.4631    1.0070    0.0000 H   0  0  0  0  0  0  0  0  0  0  0  0
    2.3100    0.7801    0.0000 H   0  0  0  0  0  0  0  0  0  0  0  0
    4.2690   -1.3730    0.0000 H   0  0  0  0  0  0  0  0  0  0  0  0
    1.4631   -1.3730    0.0000 H   0  0  0  0  0  0  0  0  0  0  0  0
    4.2690   -2.9930    0.0000 H   0  0  0  0  0  0  0  0  0  0  0  0
    1.4631   -2.9930    0.0000 H   0  0  0  0  0  0  0  0  0  0  0  0
    2.8660   -3.8030    0.0000 H   0  0  0  0  0  0  0  0  0  0  0  0
  1  4  1  0  0  0  0
  1 12  1  0  0  0  0
  2  3  1  0  0  0  0
  2  4  1  0  0  0  0
  2  5  1  0  0  0  0
  2  6  1  0  0  0  0
  3  7  1  0  0  0  0
  3  8  1  0  0  0  0
  3  9  1  0  0  0  0
  4 10  1  0  0  0  0
  4 19  1  0  0  0  0
  5 20  1  0  0  0  0
  5 21  1  0  0  0  0
  5 22  1  0  0  0  0
  6 23  1  0  0  0  0
  6 24  1  0  0  0  0
  6 25  1  0  0  0  0
  7 26  1  0  0  0  0
  7 27  1  0  0  0  0
  7 28  1  0  0  0  0
  8 29  1  0  0  0  0
  8 30  1  0  0  0  0
  8 31  1  0  0  0  0
  9 32  1  0  0  0  0
  9 33  1  0  0  0  0
  9 34  1  0  0  0  0
 10 11  2  3  0  0  0
 10 35  1  0  0  0  0
 11 13  1  0  0  0  0
 11 36  1  0  0  0  0
 12 37  1  0  0  0  0
 12 38  1  0  0  0  0
 12 39  1  0  0  0  0
 13 14  2  0  0  0  0
 13 15  1  0  0  0  0
 14 16  1  0  0  0  0
 14 40  1  0  0  0  0
 15 17  2  0  0  0  0
 15 41  1  0  0  0  0
 16 18  2  0  0  0  0
 16 42  1  0  0  0  0
 17 18  1  0  0  0  0
 17 43  1  0  0  0  0
 18 44  1  0  0  0  0
M  END
> <PUBCHEM_COMPOUND_CID>
582871

> <PUBCHEM_COMPOUND_CANONICALIZED>
1

> <PUBCHEM_CACTVS_COMPLEXITY>
273

> <PUBCHEM_CACTVS_HBOND_ACCEPTOR>
1

> <PUBCHEM_CACTVS_HBOND_DONOR>
0

> <PUBCHEM_CACTVS_ROTATABLE_BOND>
5

> <PUBCHEM_CACTVS_SUBSKEYS>
AAADceBwAAxAAAAAAAAAAAAAAAAAAAAAAAAwAAAAAAAAAAABAAAAGBQAAABADACEeADyAIAAAAmAAiBCAAACAAAgABAIiAAAAIgIICKAERCAIAAggAAIiAcAgAAOAAAAAAAAAAAAAAAAAAAAAAAAAAAAAA==

> <PUBCHEM_IUPAC_OPENEYE_NAME>
dimethyl-(1-methylsulfanyl-3-phenyl-allyl)-trimethylsilyl-silane

> <PUBCHEM_IUPAC_CAS_NAME>
dimethyl-[1-(methylthio)-3-phenylprop-2-enyl]-trimethylsilylsilane

> <PUBCHEM_IUPAC_NAME>
dimethyl-(1-methylsulfanyl-3-phenylprop-2-enyl)-trimethylsilylsilane

> <PUBCHEM_IUPAC_SYSTEMATIC_NAME>
dimethyl-(1-methylsulfanyl-3-phenyl-prop-2-enyl)-trimethylsilyl-silane

> <PUBCHEM_IUPAC_TRADITIONAL_NAME>
dimethyl-[1-(methylthio)-3-phenyl-allyl]-trimethylsilyl-silane

> <PUBCHEM_IUPAC_INCHI>
InChI=1S/C15H26SSi2/c1-16-15(18(5,6)17(2,3)4)13-12-14-10-8-7-9-11-14/h7-13,15H,1-6H3

> <PUBCHEM_IUPAC_INCHIKEY>
ZYGVTMWMKZFXLH-UHFFFAOYSA-N

> <PUBCHEM_EXACT_MASS>
294.129375

> <PUBCHEM_MOLECULAR_FORMULA>
C15H26SSi2

> <PUBCHEM_MOLECULAR_WEIGHT>
294.60294

> <PUBCHEM_OPENEYE_CAN_SMILES>
C[Si](C)(C)[Si](C)(C)C(C=CC1=CC=CC=C1)SC

> <PUBCHEM_OPENEYE_ISO_SMILES>
C[Si](C)(C)[Si](C)(C)C(C=CC1=CC=CC=C1)SC

> <PUBCHEM_CACTVS_TPSA>
25.3

> <PUBCHEM_MONOISOTOPIC_WEIGHT>
294.129375

> <PUBCHEM_TOTAL_CHARGE>
0

> <PUBCHEM_HEAVY_ATOM_COUNT>
18

> <PUBCHEM_ATOM_DEF_STEREO_COUNT>
0

> <PUBCHEM_ATOM_UDEF_STEREO_COUNT>
1

> <PUBCHEM_BOND_DEF_STEREO_COUNT>
0

> <PUBCHEM_BOND_UDEF_STEREO_COUNT>
1

> <PUBCHEM_ISOTOPIC_ATOM_COUNT>
0

> <PUBCHEM_COMPONENT_COUNT>
1

> <PUBCHEM_CACTVS_TAUTO_COUNT>
1

> <PUBCHEM_COORDINATE_TYPE>
1
5
255

> <PUBCHEM_BONDANNOTATIONS>
4  1  3
10  11  1
13  14  8
13  15  8
14  16  8
15  17  8
16  18  8
17  18  8

$$$$

