54691348
  -OEChem-07051213032D

 50 52  0     0  0  0  0  0  0999 V2000
    9.7942    1.5427    0.0000 O   0  0  0  0  0  0  0  0  0  0  0  0
    9.7942   -1.4573    0.0000 O   0  0  0  0  0  0  0  0  0  0  0  0
   13.3244    1.5668    0.0000 O   0  0  0  0  0  0  0  0  0  0  0  0
    3.7320   -1.9573    0.0000 O   0  0  0  0  0  0  0  0  0  0  0  0
    8.0622    1.5427    0.0000 O   0  0  0  0  0  0  0  0  0  0  0  0
    7.1962    1.0427    0.0000 O   0  0  0  0  0  0  0  0  0  0  0  0
    8.0622   -0.4573    0.0000 N   0  0  0  0  0  0  0  0  0  0  0  0
   10.6603    0.0427    0.0000 C   0  0  0  0  0  0  0  0  0  0  0  0
   10.6603    1.0427    0.0000 C   0  0  0  0  0  0  0  0  0  0  0  0
   11.5542    1.5774    0.0000 C   0  0  0  0  0  0  0  0  0  0  0  0
    9.7942   -0.4573    0.0000 C   0  0  0  0  0  0  0  0  0  0  0  0
    8.9282    0.0427    0.0000 C   0  0  0  0  0  0  0  0  0  0  0  0
    4.5981   -0.4573    0.0000 C   0  0  0  0  0  0  0  0  0  0  0  0
    3.7320    0.0427    0.0000 C   0  0  0  0  0  0  0  0  0  0  0  0
    6.3301   -0.4573    0.0000 C   0  0  0  0  0  0  0  0  0  0  0  0
   11.5542   -0.4920    0.0000 C   0  0  0  0  0  0  0  0  0  0  0  0
    5.4641    0.0427    0.0000 C   0  0  0  0  0  0  0  0  0  0  0  0
   12.4603    1.0635    0.0000 C   0  0  0  0  0  0  0  0  0  0  0  0
    8.9282    1.0427    0.0000 C   0  0  0  0  0  0  0  0  0  0  0  0
   12.4603    0.0219    0.0000 C   0  0  0  0  0  0  0  0  0  0  0  0
    4.5981   -1.4573    0.0000 C   0  0  0  0  0  0  0  0  0  0  0  0
    7.1962    0.0427    0.0000 C   0  0  0  0  0  0  0  0  0  0  0  0
   11.5426    2.5773    0.0000 C   0  0  0  0  0  0  0  0  0  0  0  0
    6.3301   -1.4573    0.0000 C   0  0  0  0  0  0  0  0  0  0  0  0
    3.7320    1.0427    0.0000 C   0  0  0  0  0  0  0  0  0  0  0  0
    5.4641   -1.9573    0.0000 C   0  0  0  0  0  0  0  0  0  0  0  0
    2.8660    1.5427    0.0000 C   0  0  0  0  0  0  0  0  0  0  0  0
    2.8660    2.5427    0.0000 C   0  0  0  0  0  0  0  0  0  0  0  0
    2.0000    1.0427    0.0000 C   0  0  0  0  0  0  0  0  0  0  0  0
    3.1215    0.1504    0.0000 H   0  0  0  0  0  0  0  0  0  0  0  0
    3.5200   -0.5399    0.0000 H   0  0  0  0  0  0  0  0  0  0  0  0
   11.5470   -1.1119    0.0000 H   0  0  0  0  0  0  0  0  0  0  0  0
    5.4641    0.6627    0.0000 H   0  0  0  0  0  0  0  0  0  0  0  0
    8.0622   -1.0773    0.0000 H   0  0  0  0  0  0  0  0  0  0  0  0
   12.9960   -0.2902    0.0000 H   0  0  0  0  0  0  0  0  0  0  0  0
   12.1626    2.5845    0.0000 H   0  0  0  0  0  0  0  0  0  0  0  0
   11.5355    3.1973    0.0000 H   0  0  0  0  0  0  0  0  0  0  0  0
   10.9227    2.5701    0.0000 H   0  0  0  0  0  0  0  0  0  0  0  0
    6.8671   -1.7673    0.0000 H   0  0  0  0  0  0  0  0  0  0  0  0
    4.2690    1.3527    0.0000 H   0  0  0  0  0  0  0  0  0  0  0  0
    5.4641   -2.5773    0.0000 H   0  0  0  0  0  0  0  0  0  0  0  0
   10.3312   -1.7673    0.0000 H   0  0  0  0  0  0  0  0  0  0  0  0
    3.4860    2.5427    0.0000 H   0  0  0  0  0  0  0  0  0  0  0  0
    2.8660    3.1627    0.0000 H   0  0  0  0  0  0  0  0  0  0  0  0
    2.2460    2.5427    0.0000 H   0  0  0  0  0  0  0  0  0  0  0  0
    1.6900    1.5796    0.0000 H   0  0  0  0  0  0  0  0  0  0  0  0
    1.4631    0.7327    0.0000 H   0  0  0  0  0  0  0  0  0  0  0  0
    2.3100    0.5058    0.0000 H   0  0  0  0  0  0  0  0  0  0  0  0
   13.8625    1.2589    0.0000 H   0  0  0  0  0  0  0  0  0  0  0  0
    3.7320   -2.5773    0.0000 H   0  0  0  0  0  0  0  0  0  0  0  0
  1  9  1  0  0  0  0
  1 19  1  0  0  0  0
  2 11  1  0  0  0  0
  2 42  1  0  0  0  0
  3 18  1  0  0  0  0
  3 49  1  0  0  0  0
  4 21  1  0  0  0  0
  4 50  1  0  0  0  0
  5 19  2  0  0  0  0
  6 22  2  0  0  0  0
  7 12  1  0  0  0  0
  7 22  1  0  0  0  0
  7 34  1  0  0  0  0
  8  9  2  0  0  0  0
  8 11  1  0  0  0  0
  8 16  1  0  0  0  0
  9 10  1  0  0  0  0
 10 18  2  0  0  0  0
 10 23  1  0  0  0  0
 11 12  2  0  0  0  0
 12 19  1  0  0  0  0
 13 14  1  0  0  0  0
 13 17  1  0  0  0  0
 13 21  2  0  0  0  0
 14 25  1  0  0  0  0
 14 30  1  0  0  0  0
 14 31  1  0  0  0  0
 15 17  2  0  0  0  0
 15 22  1  0  0  0  0
 15 24  1  0  0  0  0
 16 20  2  0  0  0  0
 16 32  1  0  0  0  0
 17 33  1  0  0  0  0
 18 20  1  0  0  0  0
 20 35  1  0  0  0  0
 21 26  1  0  0  0  0
 23 36  1  0  0  0  0
 23 37  1  0  0  0  0
 23 38  1  0  0  0  0
 24 26  2  0  0  0  0
 24 39  1  0  0  0  0
 25 27  2  0  0  0  0
 25 40  1  0  0  0  0
 26 41  1  0  0  0  0
 27 28  1  0  0  0  0
 27 29  1  0  0  0  0
 28 43  1  0  0  0  0
 28 44  1  0  0  0  0
 28 45  1  0  0  0  0
 29 46  1  0  0  0  0
 29 47  1  0  0  0  0
 29 48  1  0  0  0  0
M  END
> <PUBCHEM_COMPOUND_CID>
54691348

> <PUBCHEM_COMPOUND_CANONICALIZED>
1

> <PUBCHEM_CACTVS_COMPLEXITY>
710

> <PUBCHEM_CACTVS_HBOND_ACCEPTOR>
6

> <PUBCHEM_CACTVS_HBOND_DONOR>
4

> <PUBCHEM_CACTVS_ROTATABLE_BOND>
4

> <PUBCHEM_CACTVS_SUBSKEYS>
AAADceB6OAAAAAAAAAAAAAAAAAAAAAAAAAAwYIAAAAAAAACBQAAAHgAQCAAADAyBmAAyDoLABgCIAiXSWACCCAAkIAAIiAGGDMgOJzKGtTuHeyjlxBWYuYeY/O7OIAACCAAIAABAAAQQABAAAAAAAAAAAA==

> <PUBCHEM_IUPAC_OPENEYE_NAME>
N-(4,7-dihydroxy-8-methyl-2-oxo-chromen-3-yl)-4-hydroxy-3-(3-methylbut-2-enyl)benzamide

> <PUBCHEM_IUPAC_CAS_NAME>
N-(4,7-dihydroxy-8-methyl-2-oxo-1-benzopyran-3-yl)-4-hydroxy-3-(3-methylbut-2-enyl)benzamide

> <PUBCHEM_IUPAC_NAME>
N-(4,7-dihydroxy-8-methyl-2-oxochromen-3-yl)-4-hydroxy-3-(3-methylbut-2-enyl)benzamide

> <PUBCHEM_IUPAC_SYSTEMATIC_NAME>
N-[8-methyl-4,7-bis(oxidanyl)-2-oxidanylidene-chromen-3-yl]-3-(3-methylbut-2-enyl)-4-oxidanyl-benzamide

> <PUBCHEM_IUPAC_TRADITIONAL_NAME>
N-(4,7-dihydroxy-2-keto-8-methyl-chromen-3-yl)-4-hydroxy-3-(3-methylbut-2-enyl)benzamide

> <PUBCHEM_IUPAC_INCHI>
InChI=1S/C22H21NO6/c1-11(2)4-5-13-10-14(6-8-17(13)25)21(27)23-18-19(26)15-7-9-16(24)12(3)20(15)29-22(18)28/h4,6-10,24-26H,5H2,1-3H3,(H,23,27)

> <PUBCHEM_IUPAC_INCHIKEY>
NMCFFEJWADWZTI-UHFFFAOYSA-N

> <PUBCHEM_XLOGP3_AA>
3.9

> <PUBCHEM_EXACT_MASS>
395.136887

> <PUBCHEM_MOLECULAR_FORMULA>
C22H21NO6

> <PUBCHEM_MOLECULAR_WEIGHT>
395.40524

> <PUBCHEM_OPENEYE_CAN_SMILES>
CC1=C(C=CC2=C1OC(=O)C(=C2O)NC(=O)C3=CC(=C(C=C3)O)CC=C(C)C)O

> <PUBCHEM_OPENEYE_ISO_SMILES>
CC1=C(C=CC2=C1OC(=O)C(=C2O)NC(=O)C3=CC(=C(C=C3)O)CC=C(C)C)O

> <PUBCHEM_CACTVS_TPSA>
116

> <PUBCHEM_MONOISOTOPIC_WEIGHT>
395.136887

> <PUBCHEM_TOTAL_CHARGE>
0

> <PUBCHEM_HEAVY_ATOM_COUNT>
29

> <PUBCHEM_ATOM_DEF_STEREO_COUNT>
0

> <PUBCHEM_ATOM_UDEF_STEREO_COUNT>
0

> <PUBCHEM_BOND_DEF_STEREO_COUNT>
0

> <PUBCHEM_BOND_UDEF_STEREO_COUNT>
0

> <PUBCHEM_ISOTOPIC_ATOM_COUNT>
0

> <PUBCHEM_COMPONENT_COUNT>
1

> <PUBCHEM_CACTVS_TAUTO_COUNT>
391

> <PUBCHEM_COORDINATE_TYPE>
1
5
255

> <PUBCHEM_BONDANNOTATIONS>
1  19  8
1  9  8
10  18  8
11  12  8
12  19  8
13  17  8
13  21  8
15  17  8
15  24  8
16  20  8
18  20  8
21  26  8
24  26  8
8  11  8
8  16  8
8  9  8
9  10  8

$$$$

