155380
  -OEChem-07051213093D

 41 43  0     0  0  0  0  0  0999 V2000
   -3.0091    2.2356    0.0687 O   0  0  0  0  0  0  0  0  0  0  0  0
   -0.4627    2.2970    0.0300 O   0  0  0  0  0  0  0  0  0  0  0  0
   -0.1476   -3.0376    0.0823 O   0  0  0  0  0  0  0  0  0  0  0  0
    4.4834    1.2872   -0.0264 O   0  0  0  0  0  0  0  0  0  0  0  0
    2.0743    2.5347   -0.0048 O   0  0  0  0  0  0  0  0  0  0  0  0
    4.6350   -1.4709   -0.0004 O   0  0  0  0  0  0  0  0  0  0  0  0
   -5.2534    0.7188    0.1207 O   0  0  0  0  0  0  0  0  0  0  0  0
   -1.6170    0.2522    0.0713 C   0  0  0  0  0  0  0  0  0  0  0  0
   -1.5348   -1.1417    0.0857 C   0  0  0  0  0  0  0  0  0  0  0  0
    0.9245    0.4018    0.0325 C   0  0  0  0  0  0  0  0  0  0  0  0
    1.0067   -0.9922    0.0467 C   0  0  0  0  0  0  0  0  0  0  0  0
   -0.3903    1.0749    0.0437 C   0  0  0  0  0  0  0  0  0  0  0  0
   -0.2199   -1.8150    0.0735 C   0  0  0  0  0  0  0  0  0  0  0  0
   -2.8693    0.8779    0.0828 C   0  0  0  0  0  0  0  0  0  0  0  0
   -2.7049   -1.9100    0.1117 C   0  0  0  0  0  0  0  0  0  0  0  0
   -3.9508   -1.2825    0.1234 C   0  0  0  0  0  0  0  0  0  0  0  0
    2.0946    1.1700    0.0073 C   0  0  0  0  0  0  0  0  0  0  0  0
    2.2591   -1.6180    0.0356 C   0  0  0  0  0  0  0  0  0  0  0  0
   -4.0329    0.1086    0.1088 C   0  0  0  0  0  0  0  0  0  0  0  0
    3.3406    0.5424   -0.0036 C   0  0  0  0  0  0  0  0  0  0  0  0
    3.4226   -0.8485    0.0104 C   0  0  0  0  0  0  0  0  0  0  0  0
   -5.1871   -2.1202    0.1509 C   0  0  0  0  0  0  0  0  0  0  0  0
   -3.0945    2.8625   -1.2081 C   0  0  0  0  0  0  0  0  0  0  0  0
    5.0410    1.6538    1.2330 C   0  0  0  0  0  0  0  0  0  0  0  0
    5.1925   -1.7807   -1.2758 C   0  0  0  0  0  0  0  0  0  0  0  0
   -2.6499   -2.9959    0.1231 H   0  0  0  0  0  0  0  0  0  0  0  0
    2.3423   -2.7020    0.0473 H   0  0  0  0  0  0  0  0  0  0  0  0
   -4.9572   -3.1910    0.1614 H   0  0  0  0  0  0  0  0  0  0  0  0
   -5.7747   -1.9014    1.0486 H   0  0  0  0  0  0  0  0  0  0  0  0
   -5.7989   -1.9240   -0.7359 H   0  0  0  0  0  0  0  0  0  0  0  0
    1.1660    2.8698    0.0171 H   0  0  0  0  0  0  0  0  0  0  0  0
   -5.1212    1.6797    0.1886 H   0  0  0  0  0  0  0  0  0  0  0  0
   -4.0827    2.6932   -1.6466 H   0  0  0  0  0  0  0  0  0  0  0  0
   -2.3229    2.4941   -1.8920 H   0  0  0  0  0  0  0  0  0  0  0  0
   -2.9552    3.9384   -1.0713 H   0  0  0  0  0  0  0  0  0  0  0  0
    5.9407    2.2474    1.0494 H   0  0  0  0  0  0  0  0  0  0  0  0
    5.3212    0.7631    1.8042 H   0  0  0  0  0  0  0  0  0  0  0  0
    4.3336    2.2602    1.8074 H   0  0  0  0  0  0  0  0  0  0  0  0
    5.3490   -0.8685   -1.8603 H   0  0  0  0  0  0  0  0  0  0  0  0
    4.5408   -2.4699   -1.8219 H   0  0  0  0  0  0  0  0  0  0  0  0
    6.1600   -2.2650   -1.1183 H   0  0  0  0  0  0  0  0  0  0  0  0
  1 14  1  0  0  0  0
  1 23  1  0  0  0  0
  2 12  2  0  0  0  0
  3 13  2  0  0  0  0
  4 20  1  0  0  0  0
  4 24  1  0  0  0  0
  5 17  1  0  0  0  0
  5 31  1  0  0  0  0
  6 21  1  0  0  0  0
  6 25  1  0  0  0  0
  7 19  1  0  0  0  0
  7 32  1  0  0  0  0
  8  9  2  0  0  0  0
  8 12  1  0  0  0  0
  8 14  1  0  0  0  0
  9 13  1  0  0  0  0
  9 15  1  0  0  0  0
 10 11  1  0  0  0  0
 10 12  1  0  0  0  0
 10 17  2  0  0  0  0
 11 13  1  0  0  0  0
 11 18  2  0  0  0  0
 14 19  2  0  0  0  0
 15 16  2  0  0  0  0
 15 26  1  0  0  0  0
 16 19  1  0  0  0  0
 16 22  1  0  0  0  0
 17 20  1  0  0  0  0
 18 21  1  0  0  0  0
 18 27  1  0  0  0  0
 20 21  2  0  0  0  0
 22 28  1  0  0  0  0
 22 29  1  0  0  0  0
 22 30  1  0  0  0  0
 23 33  1  0  0  0  0
 23 34  1  0  0  0  0
 23 35  1  0  0  0  0
 24 36  1  0  0  0  0
 24 37  1  0  0  0  0
 24 38  1  0  0  0  0
 25 39  1  0  0  0  0
 25 40  1  0  0  0  0
 25 41  1  0  0  0  0
M  END
> <PUBCHEM_COMPOUND_CID>
155380

> <PUBCHEM_CONFORMER_RMSD>
0.6

> <PUBCHEM_CONFORMER_DIVERSEORDER>
2
3
1
4

> <PUBCHEM_MMFF94_PARTIAL_CHARGES>
29
1 -0.36
10 0.09
11 0.09
12 0.4
13 0.4
14 0.08
15 -0.15
16 -0.14
17 0.08
18 -0.15
19 0.08
2 -0.57
20 0.08
21 0.08
22 0.14
23 0.28
24 0.28
25 0.28
26 0.15
27 0.15
3 -0.57
31 0.45
32 0.45
4 -0.36
5 -0.53
6 -0.36
7 -0.53
8 0.09
9 0.09

> <PUBCHEM_EFFECTIVE_ROTOR_COUNT>
3

> <PUBCHEM_PHARMACOPHORE_FEATURES>
10
1 1 acceptor
1 2 acceptor
1 3 acceptor
1 4 acceptor
1 5 donor
1 6 acceptor
1 7 donor
6 10 11 17 18 20 21 rings
6 8 9 10 11 12 13 rings
6 8 9 14 15 16 19 rings

> <PUBCHEM_HEAVY_ATOM_COUNT>
25

> <PUBCHEM_ATOM_DEF_STEREO_COUNT>
0

> <PUBCHEM_ATOM_UDEF_STEREO_COUNT>
0

> <PUBCHEM_BOND_DEF_STEREO_COUNT>
0

> <PUBCHEM_BOND_UDEF_STEREO_COUNT>
0

> <PUBCHEM_ISOTOPIC_ATOM_COUNT>
0

> <PUBCHEM_COMPONENT_COUNT>
1

> <PUBCHEM_CACTVS_TAUTO_COUNT>
25

> <PUBCHEM_CONFORMER_ID>
00025EF400000002

> <PUBCHEM_MMFF94_ENERGY>
110.3851

> <PUBCHEM_FEATURE_SELFOVERLAP>
50.806

> <PUBCHEM_SHAPE_FINGERPRINT>
10616163 171 18338797918031131815
10967382 1 18339079401296875891
1100329 8 17331683951669021923
11112241 14 16445622333106885704
11578080 2 16771272667754653863
12236239 1 17703517605867888080
12403259 226 18410577262517855857
12403259 415 18411420656444859772
13140716 1 18338521970276047570
13402501 40 18409729547568623387
14341114 176 18409722972010687993
14790565 3 18410567392450907649
15196674 1 18410011026671600195
15256400 18 18410856546939666448
15536298 74 18335420158270472802
17492 89 18410856581236822402
1813 80 17418377965291297100
19591789 44 18410855464518360467
200 152 18040718039624402867
20028762 73 18187085014456015279
20510252 161 18334857207942596473
21267235 1 18410564098274411995
21279426 13 18409448123899366494
221357 26 18409165502298464343
221490 88 18411974741669892386
22182313 1 18411149034381439676
22393880 68 18340488983820012798
2334 1 18410856534096839153
23402539 116 18336272223799731487
23559900 14 18334858320882288800
2748010 2 18410575097584904151
3004659 81 18271798078187992078
335352 9 18338232785864721631
34934 24 18336270020787457090
350125 39 18411415107489408137
3545911 37 18334856078946342048
4214541 1 18411136973881111785
495365 180 17531256045840118186
5104073 3 18408886252156868858
9709674 26 18338793412388879282

> <PUBCHEM_SHAPE_MULTIPOLES>
473.4
10.8
3.12
0.79
2.51
0.48
-0.09
-1.11
-0.03
-0.78
-0.36
0.49
0.14
1.5

> <PUBCHEM_SHAPE_SELFOVERLAP>
1052.267

> <PUBCHEM_SHAPE_VOLUME>
252.9

> <PUBCHEM_COORDINATE_TYPE>
2
5
10

$$$$

