60700
  -OEChem-07051213012D

 54 58  0     1  0  0  0  0  0999 V2000
    6.7792    4.8485    0.0000 O   0  0  0  0  0  0  0  0  0  0  0  0
    8.6732    3.2745    0.0000 O   0  0  0  0  0  0  0  0  0  0  0  0
    4.1652    3.2792    0.0000 O   0  0  0  0  0  0  0  0  0  0  0  0
    8.5492    4.8243    0.0000 O   0  0  0  0  0  0  0  0  0  0  0  0
    4.6250   -4.3452    0.0000 O   0  0  0  0  0  0  0  0  0  0  0  0
    5.0312    1.7792    0.0000 N   0  0  0  0  0  0  0  0  0  0  0  0
    6.3088   -0.5214    0.0000 N   0  0  0  0  0  0  0  0  0  0  0  0
    2.9957   -3.5562    0.0000 N   0  0  0  0  0  0  0  0  0  0  0  0
    7.6733    3.2861    0.0000 C   0  0  2  0  0  0  0  0  0  0  0  0
    6.7633    2.7792    0.0000 C   0  0  0  0  0  0  0  0  0  0  0  0
    5.8972    1.2792    0.0000 C   0  0  0  0  0  0  0  0  0  0  0  0
    4.2942    1.1121    0.0000 C   0  0  0  0  0  0  0  0  0  0  0  0
    5.8972    3.2792    0.0000 C   0  0  0  0  0  0  0  0  0  0  0  0
    4.6993    0.2043    0.0000 C   0  0  0  0  0  0  0  0  0  0  0  0
    5.6880    0.3074    0.0000 C   0  0  0  0  0  0  0  0  0  0  0  0
    6.7633    1.7792    0.0000 C   0  0  0  0  0  0  0  0  0  0  0  0
    5.0312    2.7792    0.0000 C   0  0  0  0  0  0  0  0  0  0  0  0
    8.1632    2.4143    0.0000 C   0  0  0  0  0  0  0  0  0  0  0  0
    5.8812    4.3207    0.0000 C   0  0  0  0  0  0  0  0  0  0  0  0
    7.6813    4.3277    0.0000 C   0  0  0  0  0  0  0  0  0  0  0  0
    4.2628   -0.7346    0.0000 C   0  0  0  0  0  0  0  0  0  0  0  0
    4.8642   -1.5775    0.0000 C   0  0  0  0  0  0  0  0  0  0  0  0
    5.8941   -1.4702    0.0000 C   0  0  0  0  0  0  0  0  0  0  0  0
    4.4096   -2.5556    0.0000 C   0  0  0  0  0  0  0  0  0  0  0  0
    7.6532    1.5541    0.0000 C   0  0  0  0  0  0  0  0  0  0  0  0
    3.4138   -2.6477    0.0000 C   0  0  0  0  0  0  0  0  0  0  0  0
    6.5407   -2.3334    0.0000 C   0  0  0  0  0  0  0  0  0  0  0  0
    5.0360   -3.4336    0.0000 C   0  0  0  0  0  0  0  0  0  0  0  0
    6.1088   -3.3217    0.0000 C   0  0  0  0  0  0  0  0  0  0  0  0
    2.0000   -3.6483    0.0000 C   0  0  0  0  0  0  0  0  0  0  0  0
    3.5734   -4.3724    0.0000 C   0  0  0  0  0  0  0  0  0  0  0  0
    3.9288    1.6130    0.0000 H   0  0  0  0  0  0  0  0  0  0  0  0
    3.7577    0.8014    0.0000 H   0  0  0  0  0  0  0  0  0  0  0  0
    7.3002    1.4692    0.0000 H   0  0  0  0  0  0  0  0  0  0  0  0
    8.6335    2.0103    0.0000 H   0  0  0  0  0  0  0  0  0  0  0  0
    8.6427    2.8073    0.0000 H   0  0  0  0  0  0  0  0  0  0  0  0
    5.6632    4.9011    0.0000 H   0  0  0  0  0  0  0  0  0  0  0  0
    5.2720    4.2052    0.0000 H   0  0  0  0  0  0  0  0  0  0  0  0
    3.6454   -0.7918    0.0000 H   0  0  0  0  0  0  0  0  0  0  0  0
    7.1199    1.8703    0.0000 H   0  0  0  0  0  0  0  0  0  0  0  0
    7.3370    1.0208    0.0000 H   0  0  0  0  0  0  0  0  0  0  0  0
    8.1866    1.2379    0.0000 H   0  0  0  0  0  0  0  0  0  0  0  0
    8.9770    2.7340    0.0000 H   0  0  0  0  0  0  0  0  0  0  0  0
    3.4647   -2.0298    0.0000 H   0  0  0  0  0  0  0  0  0  0  0  0
    2.8141   -2.4903    0.0000 H   0  0  0  0  0  0  0  0  0  0  0  0
    7.1566   -2.2620    0.0000 H   0  0  0  0  0  0  0  0  0  0  0  0
    6.4747   -3.8222    0.0000 H   0  0  0  0  0  0  0  0  0  0  0  0
    3.0673   -4.7306    0.0000 H   0  0  0  0  0  0  0  0  0  0  0  0
    3.9316   -4.8785    0.0000 H   0  0  0  0  0  0  0  0  0  0  0  0
    4.0795   -4.0142    0.0000 H   0  0  0  0  0  0  0  0  0  0  0  0
    1.9429   -3.0309    0.0000 H   0  0  0  0  0  0  0  0  0  0  0  0
    1.3826   -3.7054    0.0000 H   0  0  0  0  0  0  0  0  0  0  0  0
    2.0571   -4.2657    0.0000 H   0  0  0  0  0  0  0  0  0  0  0  0
    4.9870   -4.8485    0.0000 H   0  0  0  0  0  0  0  0  0  0  0  0
  1 19  1  0  0  0  0
  1 20  1  0  0  0  0
  9  2  1  1  0  0  0
  2 43  1  0  0  0  0
  3 17  2  0  0  0  0
  4 20  2  0  0  0  0
  5 28  1  0  0  0  0
  5 54  1  0  0  0  0
  6 11  1  0  0  0  0
  6 12  1  0  0  0  0
  6 17  1  0  0  0  0
  7 15  1  0  0  0  0
  7 23  2  0  0  0  0
  8 26  1  0  0  0  0
  8 30  1  0  0  0  0
  8 31  1  0  0  0  0
  9 10  1  0  0  0  0
  9 18  1  0  0  0  0
  9 20  1  0  0  0  0
 10 13  2  0  0  0  0
 10 16  1  0  0  0  0
 11 15  1  0  0  0  0
 11 16  2  0  0  0  0
 12 14  1  0  0  0  0
 12 32  1  0  0  0  0
 12 33  1  0  0  0  0
 13 17  1  0  0  0  0
 13 19  1  0  0  0  0
 14 15  2  0  0  0  0
 14 21  1  0  0  0  0
 16 34  1  0  0  0  0
 18 25  1  0  0  0  0
 18 35  1  0  0  0  0
 18 36  1  0  0  0  0
 19 37  1  0  0  0  0
 19 38  1  0  0  0  0
 21 22  2  0  0  0  0
 21 39  1  0  0  0  0
 22 23  1  0  0  0  0
 22 24  1  0  0  0  0
 23 27  1  0  0  0  0
 24 26  1  0  0  0  0
 24 28  2  0  0  0  0
 25 40  1  0  0  0  0
 25 41  1  0  0  0  0
 25 42  1  0  0  0  0
 26 44  1  0  0  0  0
 26 45  1  0  0  0  0
 27 29  2  0  0  0  0
 27 46  1  0  0  0  0
 28 29  1  0  0  0  0
 29 47  1  0  0  0  0
 30 51  1  0  0  0  0
 30 52  1  0  0  0  0
 30 53  1  0  0  0  0
 31 48  1  0  0  0  0
 31 49  1  0  0  0  0
 31 50  1  0  0  0  0
M  END
> <PUBCHEM_COMPOUND_CID>
60700

> <PUBCHEM_COMPOUND_CANONICALIZED>
1

> <PUBCHEM_CACTVS_COMPLEXITY>
867

> <PUBCHEM_CACTVS_HBOND_ACCEPTOR>
7

> <PUBCHEM_CACTVS_HBOND_DONOR>
2

> <PUBCHEM_CACTVS_ROTATABLE_BOND>
3

> <PUBCHEM_CACTVS_SUBSKEYS>
AAADceB7OAAAAAAAAAAAAAAAAAAAAWAAAAA8QIEAAAAAAFix8AAAHgAACAAADEzhngYyzvMIFgCoAyXyXAKCgCAhIiAImCF+bNgJZvbC8ZOWcAhm5hHL+QewwPAOgEABQAAaAAAAgAKAADQAAAAAAAAAAA==

> <PUBCHEM_IUPAC_INCHI>
InChI=1S/C23H23N3O5/c1-4-23(30)16-8-18-20-12(9-26(18)21(28)15(16)11-31-22(23)29)7-13-14(10-25(2)3)19(27)6-5-17(13)24-20/h5-8,27,30H,4,9-11H2,1-3H3/t23-/m0/s1

> <PUBCHEM_IUPAC_INCHIKEY>
UCFGDBYHRUNTLO-QHCPKHFHSA-N

> <PUBCHEM_XLOGP3_AA>
0.5

> <PUBCHEM_EXACT_MASS>
421.163771

> <PUBCHEM_MOLECULAR_FORMULA>
C23H23N3O5

> <PUBCHEM_MOLECULAR_WEIGHT>
421.44582

> <PUBCHEM_OPENEYE_CAN_SMILES>
CCC1(C2=C(COC1=O)C(=O)N3CC4=C(C3=C2)N=C5C=CC(=C(C5=C4)CN(C)C)O)O

> <PUBCHEM_OPENEYE_ISO_SMILES>
CC[C@@]1(C2=C(COC1=O)C(=O)N3CC4=C(C3=C2)N=C5C=CC(=C(C5=C4)CN(C)C)O)O

> <PUBCHEM_CACTVS_TPSA>
103

> <PUBCHEM_MONOISOTOPIC_WEIGHT>
421.163771

> <PUBCHEM_TOTAL_CHARGE>
0

> <PUBCHEM_HEAVY_ATOM_COUNT>
31

> <PUBCHEM_ATOM_DEF_STEREO_COUNT>
1

> <PUBCHEM_ATOM_UDEF_STEREO_COUNT>
0

> <PUBCHEM_BOND_DEF_STEREO_COUNT>
0

> <PUBCHEM_BOND_UDEF_STEREO_COUNT>
0

> <PUBCHEM_ISOTOPIC_ATOM_COUNT>
0

> <PUBCHEM_COMPONENT_COUNT>
1

> <PUBCHEM_CACTVS_TAUTO_COUNT>
3

> <PUBCHEM_COORDINATE_TYPE>
1
5
255

> <PUBCHEM_BONDANNOTATIONS>
10  13  8
10  16  8
11  16  8
13  17  8
14  15  8
14  21  8
9  2  5
21  22  8
22  23  8
22  24  8
23  27  8
24  28  8
27  29  8
28  29  8
6  11  8
6  17  8
7  15  8
7  23  8

$$$$

