17396530
  -OEChem-06241222573D

 54 56  0     1  0  0  0  0  0999 V2000
   -4.5333    2.5202   -1.5076 S   0  0  0  0  0  0  0  0  0  0  0  0
    1.5353    1.9205    0.6170 O   0  0  0  0  0  0  0  0  0  0  0  0
    4.1727   -1.8929   -1.5023 O   0  0  0  0  0  0  0  0  0  0  0  0
   -0.9800    1.4171   -0.1666 N   0  0  0  0  0  0  0  0  0  0  0  0
    2.3804    0.0416   -0.5090 N   0  0  0  0  0  0  0  0  0  0  0  0
   -2.3049    1.0173   -0.7014 C   0  0  1  0  0  0  0  0  0  0  0  0
   -2.7533   -0.3456   -0.2946 C   0  0  0  0  0  0  0  0  0  0  0  0
   -3.3266    2.1116   -0.3634 C   0  0  0  0  0  0  0  0  0  0  0  0
    0.0351    0.4885   -0.6159 C   0  0  0  0  0  0  0  0  0  0  0  0
   -2.9204   -1.3409   -1.2577 C   0  0  0  0  0  0  0  0  0  0  0  0
   -3.0046   -0.6256    1.0486 C   0  0  0  0  0  0  0  0  0  0  0  0
   -3.5900   -2.8960    0.4657 C   0  0  0  0  0  0  0  0  0  0  0  0
   -3.3386   -2.6160   -0.8775 C   0  0  0  0  0  0  0  0  0  0  0  0
   -3.4230   -1.9007    1.4287 C   0  0  0  0  0  0  0  0  0  0  0  0
   -4.0370   -4.2596    0.8719 C   0  0  0  0  0  0  0  0  0  0  0  0
   -3.4296    2.8623    0.7870 C   0  0  0  0  0  0  0  0  0  0  0  0
    1.3896    0.9252   -0.0856 C   0  0  0  0  0  0  0  0  0  0  0  0
   -4.5136    3.7850    0.7284 C   0  0  0  0  0  0  0  0  0  0  0  0
    3.7664    0.0996   -0.2286 C   0  0  0  0  0  0  0  0  0  0  0  0
   -5.1977    3.7045   -0.4646 C   0  0  0  0  0  0  0  0  0  0  0  0
   -2.8652   -5.1809    1.2006 C   0  0  0  0  0  0  0  0  0  0  0  0
    4.6355   -0.8691   -0.7307 C   0  0  0  0  0  0  0  0  0  0  0  0
    4.2610    1.1395    0.5587 C   0  0  0  0  0  0  0  0  0  0  0  0
    5.6246    1.2106    0.8439 C   0  0  0  0  0  0  0  0  0  0  0  0
    5.9990   -0.7980   -0.4454 C   0  0  0  0  0  0  0  0  0  0  0  0
    6.4935    0.2419    0.3417 C   0  0  0  0  0  0  0  0  0  0  0  0
    6.1535    2.3225    1.6855 C   0  0  0  0  0  0  0  0  0  0  0  0
    3.7711   -3.0825   -0.8265 C   0  0  0  0  0  0  0  0  0  0  0  0
   -2.2009    1.0377   -1.7973 H   0  0  0  0  0  0  0  0  0  0  0  0
   -0.7533    2.3508   -0.5114 H   0  0  0  0  0  0  0  0  0  0  0  0
    0.0918    0.4576   -1.7108 H   0  0  0  0  0  0  0  0  0  0  0  0
   -0.1370   -0.5251   -0.2367 H   0  0  0  0  0  0  0  0  0  0  0  0
   -2.7276   -1.1403   -2.3083 H   0  0  0  0  0  0  0  0  0  0  0  0
   -2.8702    0.1294    1.8179 H   0  0  0  0  0  0  0  0  0  0  0  0
   -3.4630   -3.3834   -1.6371 H   0  0  0  0  0  0  0  0  0  0  0  0
   -3.6115   -2.1077    2.4788 H   0  0  0  0  0  0  0  0  0  0  0  0
   -4.7018   -4.1918    1.7422 H   0  0  0  0  0  0  0  0  0  0  0  0
   -4.6405   -4.7091    0.0734 H   0  0  0  0  0  0  0  0  0  0  0  0
   -2.7669    2.7626    1.6372 H   0  0  0  0  0  0  0  0  0  0  0  0
   -4.7785    4.4725    1.5211 H   0  0  0  0  0  0  0  0  0  0  0  0
    2.0938   -0.7408   -1.0934 H   0  0  0  0  0  0  0  0  0  0  0  0
   -6.0561    4.2843   -0.7734 H   0  0  0  0  0  0  0  0  0  0  0  0
   -2.2669   -4.7815    2.0265 H   0  0  0  0  0  0  0  0  0  0  0  0
   -3.2325   -6.1695    1.4935 H   0  0  0  0  0  0  0  0  0  0  0  0
   -2.2048   -5.3055    0.3358 H   0  0  0  0  0  0  0  0  0  0  0  0
    3.6481    1.9240    0.9787 H   0  0  0  0  0  0  0  0  0  0  0  0
    6.6822   -1.5483   -0.8341 H   0  0  0  0  0  0  0  0  0  0  0  0
    7.5584    0.2853    0.5543 H   0  0  0  0  0  0  0  0  0  0  0  0
    6.1454    3.2596    1.1196 H   0  0  0  0  0  0  0  0  0  0  0  0
    5.5448    2.4454    2.5877 H   0  0  0  0  0  0  0  0  0  0  0  0
    7.1812    2.1305    2.0120 H   0  0  0  0  0  0  0  0  0  0  0  0
    4.6265   -3.5401   -0.3194 H   0  0  0  0  0  0  0  0  0  0  0  0
    2.9762   -2.8720   -0.1042 H   0  0  0  0  0  0  0  0  0  0  0  0
    3.3889   -3.7865   -1.5707 H   0  0  0  0  0  0  0  0  0  0  0  0
  1  8  1  0  0  0  0
  1 20  1  0  0  0  0
  2 17  2  0  0  0  0
  3 22  1  0  0  0  0
  3 28  1  0  0  0  0
  4  6  1  0  0  0  0
  4  9  1  0  0  0  0
  4 30  1  0  0  0  0
  5 17  1  0  0  0  0
  5 19  1  0  0  0  0
  5 41  1  0  0  0  0
  6  7  1  0  0  0  0
  6  8  1  0  0  0  0
  6 29  1  0  0  0  0
  7 10  2  0  0  0  0
  7 11  1  0  0  0  0
  8 16  2  0  0  0  0
  9 17  1  0  0  0  0
  9 31  1  0  0  0  0
  9 32  1  0  0  0  0
 10 13  1  0  0  0  0
 10 33  1  0  0  0  0
 11 14  2  0  0  0  0
 11 34  1  0  0  0  0
 12 13  2  0  0  0  0
 12 14  1  0  0  0  0
 12 15  1  0  0  0  0
 13 35  1  0  0  0  0
 14 36  1  0  0  0  0
 15 21  1  0  0  0  0
 15 37  1  0  0  0  0
 15 38  1  0  0  0  0
 16 18  1  0  0  0  0
 16 39  1  0  0  0  0
 18 20  2  0  0  0  0
 18 40  1  0  0  0  0
 19 22  2  0  0  0  0
 19 23  1  0  0  0  0
 20 42  1  0  0  0  0
 21 43  1  0  0  0  0
 21 44  1  0  0  0  0
 21 45  1  0  0  0  0
 22 25  1  0  0  0  0
 23 24  2  0  0  0  0
 23 46  1  0  0  0  0
 24 26  1  0  0  0  0
 24 27  1  0  0  0  0
 25 26  2  0  0  0  0
 25 47  1  0  0  0  0
 26 48  1  0  0  0  0
 27 49  1  0  0  0  0
 27 50  1  0  0  0  0
 27 51  1  0  0  0  0
 28 52  1  0  0  0  0
 28 53  1  0  0  0  0
 28 54  1  0  0  0  0
M  END
> <PUBCHEM_COMPOUND_CID>
17396530

> <PUBCHEM_CONFORMER_RMSD>
1

> <PUBCHEM_CONFORMER_DIVERSEORDER>
1
29
30
54
32
37
8
44
20
43
18
47
31
10
50
39
35
53
41
45
36
33
40
46
34
12
24
23
49
28
55
15
7
6
4
52
48
38
22
27
21
11
3
16
51
25
42
56
19
9
26
14
13
5
17
2

> <PUBCHEM_MMFF94_PARTIAL_CHARGES>
39
1 -0.08
10 -0.15
11 -0.15
12 -0.14
13 -0.15
14 -0.15
15 0.14
16 -0.15
17 0.57
18 -0.15
19 0.12
2 -0.57
20 -0.11
22 0.08
23 -0.15
24 -0.14
25 -0.15
26 -0.15
27 0.14
28 0.28
3 -0.36
30 0.36
33 0.15
34 0.15
35 0.15
36 0.15
39 0.15
4 -0.9
40 0.15
41 0.37
42 0.15
46 0.15
47 0.15
48 0.15
5 -0.55
6 0.59
7 -0.14
8 -0.14
9 0.33

> <PUBCHEM_EFFECTIVE_ROTOR_COUNT>
9

> <PUBCHEM_PHARMACOPHORE_FEATURES>
9
1 2 acceptor
1 21 hydrophobe
1 3 acceptor
1 4 cation
1 4 donor
1 5 donor
5 1 8 16 18 20 rings
6 19 22 23 24 25 26 rings
6 7 10 11 12 13 14 rings

> <PUBCHEM_HEAVY_ATOM_COUNT>
28

> <PUBCHEM_ATOM_DEF_STEREO_COUNT>
0

> <PUBCHEM_ATOM_UDEF_STEREO_COUNT>
1

> <PUBCHEM_BOND_DEF_STEREO_COUNT>
0

> <PUBCHEM_BOND_UDEF_STEREO_COUNT>
0

> <PUBCHEM_ISOTOPIC_ATOM_COUNT>
0

> <PUBCHEM_COMPONENT_COUNT>
1

> <PUBCHEM_CACTVS_TAUTO_COUNT>
2

> <PUBCHEM_CONFORMER_ID>
0109733200000001

> <PUBCHEM_MMFF94_ENERGY>
79.2158

> <PUBCHEM_FEATURE_SELFOVERLAP>
45.669

> <PUBCHEM_SHAPE_FINGERPRINT>
10254770 206 17549552155033781946
10319688 45 18050569538912982467
10835480 77 18260840319092939960
11007060 377 18335424616784668977
11405975 8 18336828697111431208
12549972 3 17968110710915342257
12616971 3 16702014301540420828
12643181 29 18267297832576723374
13135754 10 17487306375438843251
13583140 156 17749116551936940532
14068700 686 18335703776462127598
14659021 117 18198347251696953115
14790565 3 17761490692087776097
14844126 61 18270961246385162059
15348495 7 18335423465611867744
15927050 60 18266178529982227287
16993438 75 18334300851175756111
17844677 252 18261672593539226196
19301679 30 18197484135549391427
19958102 18 18197504123968146949
21133410 52 16746500228615428966
22122407 14 16732986440003822704
23559900 14 18265910080960953633
255183 313 18338497722030450369
3383291 50 18413669107048905891
4015057 19 17822590376981181713
4073 2 18410013247887006480
4144715 1 18409727340188230640
4408954 64 16337735001320949945
44802255 64 17774447208487005469
508706 21 18411418397281733566
5104073 3 18409737274773932648
5364581 5 18264496083359481088
6009941 240 18336550507848161464
6371380 46 18049719925703990198
6669772 16 18123467439661052959
6695519 79 17241614905928392642
6698420 124 18115862083071788681

> <PUBCHEM_SHAPE_MULTIPOLES>
558.38
16.15
5.85
1.37
24.39
4.66
-0.06
-4.86
-1.61
-11.84
-1.7
-0.15
0.2
3.73

> <PUBCHEM_SHAPE_SELFOVERLAP>
1171.02

> <PUBCHEM_SHAPE_VOLUME>
317

> <PUBCHEM_COORDINATE_TYPE>
2
5
10

$$$$

