440067
  -OEChem-07051212483D

 10  9  0     0  0  0  0  0  0999 V2000
   -0.4242   -0.1023    0.0027 P   0  0  0  0  0  0  0  0  0  0  0  0
    0.9352    0.4892    0.6502 O   0  0  0  0  0  0  0  0  0  0  0  0
   -1.5887    0.6861    0.8018 O   0  0  0  0  0  0  0  0  0  0  0  0
   -0.4968    0.5349   -1.4817 O   0  0  0  0  0  0  0  0  0  0  0  0
   -0.5473   -1.5984    0.0473 O   0  0  0  0  0  0  0  0  0  0  0  0
    2.1217   -0.0094   -0.0204 N   0  0  0  0  0  0  0  0  0  0  0  0
   -1.5764    1.6669    0.8120 H   0  0  0  0  0  0  0  0  0  0  0  0
   -1.2046    0.2370   -2.0920 H   0  0  0  0  0  0  0  0  0  0  0  0
    2.6356   -0.3946    0.7703 H   0  0  0  0  0  0  0  0  0  0  0  0
    2.5794    0.8667   -0.2667 H   0  0  0  0  0  0  0  0  0  0  0  0
  1  2  1  0  0  0  0
  1  3  1  0  0  0  0
  1  4  1  0  0  0  0
  1  5  2  0  0  0  0
  2  6  1  0  0  0  0
  3  7  1  0  0  0  0
  4  8  1  0  0  0  0
  6  9  1  0  0  0  0
  6 10  1  0  0  0  0
M  END
> <PUBCHEM_COMPOUND_CID>
440067

> <PUBCHEM_CONFORMER_RMSD>
0.4

> <PUBCHEM_CONFORMER_DIVERSEORDER>
1

> <PUBCHEM_MMFF94_PARTIAL_CHARGES>
10
1 1.51
10 0.36
2 -0.17
3 -0.77
4 -0.77
5 -0.7
6 -0.82
7 0.5
8 0.5
9 0.36

> <PUBCHEM_EFFECTIVE_ROTOR_COUNT>
1

> <PUBCHEM_PHARMACOPHORE_FEATURES>
4
1 3 acceptor
1 4 acceptor
1 5 acceptor
4 1 3 4 5 anion

> <PUBCHEM_HEAVY_ATOM_COUNT>
6

> <PUBCHEM_ATOM_DEF_STEREO_COUNT>
0

> <PUBCHEM_ATOM_UDEF_STEREO_COUNT>
0

> <PUBCHEM_BOND_DEF_STEREO_COUNT>
0

> <PUBCHEM_BOND_UDEF_STEREO_COUNT>
0

> <PUBCHEM_ISOTOPIC_ATOM_COUNT>
0

> <PUBCHEM_COMPONENT_COUNT>
1

> <PUBCHEM_CACTVS_TAUTO_COUNT>
1

> <PUBCHEM_CONFORMER_ID>
0006B70300000001

> <PUBCHEM_MMFF94_ENERGY>
-27.936

> <PUBCHEM_FEATURE_SELFOVERLAP>
20.334

> <PUBCHEM_SHAPE_FINGERPRINT>
139733 1 8788961070178615754
16714656 1 17989200460542861286
20096714 4 17604147133209087496
24536 1 18043550334063920944
5943 1 10974973680221987447

> <PUBCHEM_SHAPE_MULTIPOLES>
98.87
1.89
1.08
1.03
1.03
0.51
0.37
-0.26
-0.32
-0.31
-0.03
-0.26
-0.27
-0.02

> <PUBCHEM_SHAPE_SELFOVERLAP>
162.108

> <PUBCHEM_SHAPE_VOLUME>
68.9

> <PUBCHEM_COORDINATE_TYPE>
2
5
10

$$$$

