7704
  -OEChem-06261202152D

 24 24  0     1  0  0  0  0  0999 V2000
    3.7601   -0.7694    0.0000 O   0  0  0  0  0  0  0  0  0  0  0  0
    2.0000   -0.4907    0.0000 O   0  0  0  0  0  0  0  0  0  0  0  0
    4.5691   -0.1816    0.0000 C   0  0  3  0  0  0  0  0  0  0  0  0
    5.5202   -0.4907    0.0000 C   0  0  0  0  0  0  0  0  0  0  0  0
    4.2601    0.7694    0.0000 C   0  0  0  0  0  0  0  0  0  0  0  0
    6.2633    0.1785    0.0000 C   0  0  0  0  0  0  0  0  0  0  0  0
    3.2601    0.7694    0.0000 C   0  0  0  0  0  0  0  0  0  0  0  0
    7.2144   -0.1305    0.0000 C   0  0  0  0  0  0  0  0  0  0  0  0
    2.9511   -0.1816    0.0000 C   0  0  0  0  0  0  0  0  0  0  0  0
    7.9575    0.5386    0.0000 C   0  0  0  0  0  0  0  0  0  0  0  0
    4.7021   -1.0212    0.0000 H   0  0  0  0  0  0  0  0  0  0  0  0
    5.2291   -1.0381    0.0000 H   0  0  0  0  0  0  0  0  0  0  0  0
    6.0087   -0.8724    0.0000 H   0  0  0  0  0  0  0  0  0  0  0  0
    4.8665    0.8983    0.0000 H   0  0  0  0  0  0  0  0  0  0  0  0
    4.1953    1.3860    0.0000 H   0  0  0  0  0  0  0  0  0  0  0  0
    6.5544    0.7259    0.0000 H   0  0  0  0  0  0  0  0  0  0  0  0
    5.7747    0.5602    0.0000 H   0  0  0  0  0  0  0  0  0  0  0  0
    3.3249    1.3860    0.0000 H   0  0  0  0  0  0  0  0  0  0  0  0
    2.6536    0.8983    0.0000 H   0  0  0  0  0  0  0  0  0  0  0  0
    6.9233   -0.6780    0.0000 H   0  0  0  0  0  0  0  0  0  0  0  0
    7.7029   -0.5122    0.0000 H   0  0  0  0  0  0  0  0  0  0  0  0
    8.3724    0.0778    0.0000 H   0  0  0  0  0  0  0  0  0  0  0  0
    8.4182    0.9535    0.0000 H   0  0  0  0  0  0  0  0  0  0  0  0
    7.5426    0.9993    0.0000 H   0  0  0  0  0  0  0  0  0  0  0  0
  1  3  1  0  0  0  0
  1  9  1  0  0  0  0
  2  9  2  0  0  0  0
  3  4  1  0  0  0  0
  3  5  1  0  0  0  0
  3 11  1  0  0  0  0
  4  6  1  0  0  0  0
  4 12  1  0  0  0  0
  4 13  1  0  0  0  0
  5  7  1  0  0  0  0
  5 14  1  0  0  0  0
  5 15  1  0  0  0  0
  6  8  1  0  0  0  0
  6 16  1  0  0  0  0
  6 17  1  0  0  0  0
  7  9  1  0  0  0  0
  7 18  1  0  0  0  0
  7 19  1  0  0  0  0
  8 10  1  0  0  0  0
  8 20  1  0  0  0  0
  8 21  1  0  0  0  0
 10 22  1  0  0  0  0
 10 23  1  0  0  0  0
 10 24  1  0  0  0  0
M  END
> <PUBCHEM_COMPOUND_CID>
7704

> <PUBCHEM_COMPOUND_CANONICALIZED>
1

> <PUBCHEM_CACTVS_COMPLEXITY>
120

> <PUBCHEM_CACTVS_HBOND_ACCEPTOR>
2

> <PUBCHEM_CACTVS_HBOND_DONOR>
0

> <PUBCHEM_CACTVS_ROTATABLE_BOND>
3

> <PUBCHEM_CACTVS_SUBSKEYS>
AAADccBwMAAAAAAAAAAAAAAAAAAAASAAAAAAAAAAAAAAAAAAAAAAGgAAAAAACBSggAICCAAABAAIAACQCAAAAAAAAAAAAAEAAAAAABIAAAACAAAEAAAAAAGKyKCAAAAAAAAAAAAAAAAAAAAAAAAAAAAAAA==

> <PUBCHEM_IUPAC_OPENEYE_NAME>
5-butyltetrahydrofuran-2-one

> <PUBCHEM_IUPAC_CAS_NAME>
5-butyl-2-oxolanone

> <PUBCHEM_IUPAC_NAME>
5-butyloxolan-2-one

> <PUBCHEM_IUPAC_SYSTEMATIC_NAME>
5-butyloxolan-2-one

> <PUBCHEM_IUPAC_TRADITIONAL_NAME>
5-butyltetrahydrofuran-2-one

> <PUBCHEM_IUPAC_INCHI>
InChI=1S/C8H14O2/c1-2-3-4-7-5-6-8(9)10-7/h7H,2-6H2,1H3

> <PUBCHEM_IUPAC_INCHIKEY>
IPBFYZQJXZJBFQ-UHFFFAOYSA-N

> <PUBCHEM_XLOGP3>
1.6

> <PUBCHEM_EXACT_MASS>
142.09938

> <PUBCHEM_MOLECULAR_FORMULA>
C8H14O2

> <PUBCHEM_MOLECULAR_WEIGHT>
142.19556

> <PUBCHEM_OPENEYE_CAN_SMILES>
CCCCC1CCC(=O)O1

> <PUBCHEM_OPENEYE_ISO_SMILES>
CCCCC1CCC(=O)O1

> <PUBCHEM_CACTVS_TPSA>
26.3

> <PUBCHEM_MONOISOTOPIC_WEIGHT>
142.09938

> <PUBCHEM_TOTAL_CHARGE>
0

> <PUBCHEM_HEAVY_ATOM_COUNT>
10

> <PUBCHEM_ATOM_DEF_STEREO_COUNT>
0

> <PUBCHEM_ATOM_UDEF_STEREO_COUNT>
1

> <PUBCHEM_BOND_DEF_STEREO_COUNT>
0

> <PUBCHEM_BOND_UDEF_STEREO_COUNT>
0

> <PUBCHEM_ISOTOPIC_ATOM_COUNT>
0

> <PUBCHEM_COMPONENT_COUNT>
1

> <PUBCHEM_CACTVS_TAUTO_COUNT>
2

> <PUBCHEM_COORDINATE_TYPE>
1
5
255

> <PUBCHEM_BONDANNOTATIONS>
3  11  3

$$$$

