68563
  -OEChem-07051213022D

 47 48  0     1  0  0  0  0  0999 V2000
    6.3301   -3.2500    0.0000 O   0  0  0  0  0  0  0  0  0  0  0  0
    4.5981   -2.2500    0.0000 O   0  0  0  0  0  0  0  0  0  0  0  0
    2.0000    2.2500    0.0000 O   0  0  0  0  0  0  0  0  0  0  0  0
    3.7320    5.2500    0.0000 O   0  0  0  0  0  0  0  0  0  0  0  0
    4.5981   -0.2500    0.0000 N   0  0  0  0  0  0  0  0  0  0  0  0
    3.7320    2.2500    0.0000 N   0  0  0  0  0  0  0  0  0  0  0  0
    2.8660    3.7500    0.0000 N   0  0  0  0  0  0  0  0  0  0  0  0
    5.4641   -0.7500    0.0000 C   0  0  0  0  0  0  0  0  0  0  0  0
    5.4641   -1.7500    0.0000 C   0  0  3  0  0  0  0  0  0  0  0  0
    4.5981    0.7500    0.0000 C   0  0  0  0  0  0  0  0  0  0  0  0
    3.7320    1.2500    0.0000 C   0  0  0  0  0  0  0  0  0  0  0  0
    6.3301   -2.2500    0.0000 C   0  0  0  0  0  0  0  0  0  0  0  0
    4.5981    2.7500    0.0000 C   0  0  0  0  0  0  0  0  0  0  0  0
    2.8660    2.7500    0.0000 C   0  0  0  0  0  0  0  0  0  0  0  0
    4.5981    3.7500    0.0000 C   0  0  0  0  0  0  0  0  0  0  0  0
    7.1962   -3.7500    0.0000 C   0  0  0  0  0  0  0  0  0  0  0  0
    3.7320    4.2500    0.0000 C   0  0  0  0  0  0  0  0  0  0  0  0
    7.1962   -4.7500    0.0000 C   0  0  0  0  0  0  0  0  0  0  0  0
    5.4641    4.2500    0.0000 C   0  0  0  0  0  0  0  0  0  0  0  0
    8.0622   -3.2500    0.0000 C   0  0  0  0  0  0  0  0  0  0  0  0
    8.0622   -5.2500    0.0000 C   0  0  0  0  0  0  0  0  0  0  0  0
    6.3301   -5.2500    0.0000 C   0  0  0  0  0  0  0  0  0  0  0  0
    8.9282   -3.7500    0.0000 C   0  0  0  0  0  0  0  0  0  0  0  0
    8.9282   -4.7500    0.0000 C   0  0  0  0  0  0  0  0  0  0  0  0
    6.0747   -0.8577    0.0000 H   0  0  0  0  0  0  0  0  0  0  0  0
    5.6762   -0.1674    0.0000 H   0  0  0  0  0  0  0  0  0  0  0  0
    5.4641   -2.3700    0.0000 H   0  0  0  0  0  0  0  0  0  0  0  0
    5.2087    0.6423    0.0000 H   0  0  0  0  0  0  0  0  0  0  0  0
    4.8101    1.3326    0.0000 H   0  0  0  0  0  0  0  0  0  0  0  0
    3.1215    1.3577    0.0000 H   0  0  0  0  0  0  0  0  0  0  0  0
    3.5200    0.6674    0.0000 H   0  0  0  0  0  0  0  0  0  0  0  0
    4.0611   -0.5600    0.0000 H   0  0  0  0  0  0  0  0  0  0  0  0
    6.9407   -2.3577    0.0000 H   0  0  0  0  0  0  0  0  0  0  0  0
    6.5422   -1.6674    0.0000 H   0  0  0  0  0  0  0  0  0  0  0  0
    5.1350    2.4400    0.0000 H   0  0  0  0  0  0  0  0  0  0  0  0
    4.5981   -2.8700    0.0000 H   0  0  0  0  0  0  0  0  0  0  0  0
    2.3291    4.0600    0.0000 H   0  0  0  0  0  0  0  0  0  0  0  0
    5.7741    3.7131    0.0000 H   0  0  0  0  0  0  0  0  0  0  0  0
    6.0010    4.5600    0.0000 H   0  0  0  0  0  0  0  0  0  0  0  0
    5.1541    4.7869    0.0000 H   0  0  0  0  0  0  0  0  0  0  0  0
    8.0622   -2.6300    0.0000 H   0  0  0  0  0  0  0  0  0  0  0  0
    8.0622   -5.8700    0.0000 H   0  0  0  0  0  0  0  0  0  0  0  0
    6.0201   -4.7131    0.0000 H   0  0  0  0  0  0  0  0  0  0  0  0
    5.7932   -5.5600    0.0000 H   0  0  0  0  0  0  0  0  0  0  0  0
    6.6401   -5.7869    0.0000 H   0  0  0  0  0  0  0  0  0  0  0  0
    9.4651   -3.4400    0.0000 H   0  0  0  0  0  0  0  0  0  0  0  0
    9.4651   -5.0600    0.0000 H   0  0  0  0  0  0  0  0  0  0  0  0
  1 12  1  0  0  0  0
  1 16  1  0  0  0  0
  2  9  1  0  0  0  0
  2 36  1  0  0  0  0
  3 14  2  0  0  0  0
  4 17  2  0  0  0  0
  5  8  1  0  0  0  0
  5 10  1  0  0  0  0
  5 32  1  0  0  0  0
  6 11  1  0  0  0  0
  6 13  1  0  0  0  0
  6 14  1  0  0  0  0
  7 14  1  0  0  0  0
  7 17  1  0  0  0  0
  7 37  1  0  0  0  0
  8  9  1  0  0  0  0
  8 25  1  0  0  0  0
  8 26  1  0  0  0  0
  9 12  1  0  0  0  0
  9 27  1  0  0  0  0
 10 11  1  0  0  0  0
 10 28  1  0  0  0  0
 10 29  1  0  0  0  0
 11 30  1  0  0  0  0
 11 31  1  0  0  0  0
 12 33  1  0  0  0  0
 12 34  1  0  0  0  0
 13 15  2  0  0  0  0
 13 35  1  0  0  0  0
 15 17  1  0  0  0  0
 15 19  1  0  0  0  0
 16 18  1  0  0  0  0
 16 20  2  0  0  0  0
 18 21  2  0  0  0  0
 18 22  1  0  0  0  0
 19 38  1  0  0  0  0
 19 39  1  0  0  0  0
 19 40  1  0  0  0  0
 20 23  1  0  0  0  0
 20 41  1  0  0  0  0
 21 24  1  0  0  0  0
 21 42  1  0  0  0  0
 22 43  1  0  0  0  0
 22 44  1  0  0  0  0
 22 45  1  0  0  0  0
 23 24  2  0  0  0  0
 23 46  1  0  0  0  0
 24 47  1  0  0  0  0
M  END
> <PUBCHEM_COMPOUND_CID>
68563

> <PUBCHEM_COMPOUND_CANONICALIZED>
1

> <PUBCHEM_CACTVS_COMPLEXITY>
481

> <PUBCHEM_CACTVS_HBOND_ACCEPTOR>
5

> <PUBCHEM_CACTVS_HBOND_DONOR>
3

> <PUBCHEM_CACTVS_ROTATABLE_BOND>
8

> <PUBCHEM_CACTVS_SUBSKEYS>
AAADceB7OAAAAAAAAAAAAAAAAAAAAAAAAAAwQAAAAAAAAAABAAAAHgAQCAAADBThmAYzBoPABgCIAiFWUACCCAAgIAAIiIEOCMiPdiKEMRqWOCCu1zObqMeAwCAOAAAAAAAIAAAAAAAAABAAAAAAAAAAAA==

> <PUBCHEM_IUPAC_OPENEYE_NAME>
1-[2-[[2-hydroxy-3-(2-methylphenoxy)propyl]amino]ethyl]-5-methyl-pyrimidine-2,4-dione

> <PUBCHEM_IUPAC_CAS_NAME>
1-[2-[[2-hydroxy-3-(2-methylphenoxy)propyl]amino]ethyl]-5-methylpyrimidine-2,4-dione

> <PUBCHEM_IUPAC_NAME>
1-[2-[[2-hydroxy-3-(2-methylphenoxy)propyl]amino]ethyl]-5-methylpyrimidine-2,4-dione

> <PUBCHEM_IUPAC_SYSTEMATIC_NAME>
5-methyl-1-[2-[[3-(2-methylphenoxy)-2-oxidanyl-propyl]amino]ethyl]pyrimidine-2,4-dione

> <PUBCHEM_IUPAC_TRADITIONAL_NAME>
1-[2-[[2-hydroxy-3-(2-methylphenoxy)propyl]amino]ethyl]-5-methyl-pyrimidine-2,4-quinone

> <PUBCHEM_IUPAC_INCHI>
InChI=1S/C17H23N3O4/c1-12-5-3-4-6-15(12)24-11-14(21)9-18-7-8-20-10-13(2)16(22)19-17(20)23/h3-6,10,14,18,21H,7-9,11H2,1-2H3,(H,19,22,23)

> <PUBCHEM_IUPAC_INCHIKEY>
RETPFDTUCPKFEC-UHFFFAOYSA-N

> <PUBCHEM_XLOGP3_AA>
0.6

> <PUBCHEM_EXACT_MASS>
333.168856

> <PUBCHEM_MOLECULAR_FORMULA>
C17H23N3O4

> <PUBCHEM_MOLECULAR_WEIGHT>
333.38222

> <PUBCHEM_OPENEYE_CAN_SMILES>
CC1=CC=CC=C1OCC(CNCCN2C=C(C(=O)NC2=O)C)O

> <PUBCHEM_OPENEYE_ISO_SMILES>
CC1=CC=CC=C1OCC(CNCCN2C=C(C(=O)NC2=O)C)O

> <PUBCHEM_CACTVS_TPSA>
90.9

> <PUBCHEM_MONOISOTOPIC_WEIGHT>
333.168856

> <PUBCHEM_TOTAL_CHARGE>
0

> <PUBCHEM_HEAVY_ATOM_COUNT>
24

> <PUBCHEM_ATOM_DEF_STEREO_COUNT>
0

> <PUBCHEM_ATOM_UDEF_STEREO_COUNT>
1

> <PUBCHEM_BOND_DEF_STEREO_COUNT>
0

> <PUBCHEM_BOND_UDEF_STEREO_COUNT>
0

> <PUBCHEM_ISOTOPIC_ATOM_COUNT>
0

> <PUBCHEM_COMPONENT_COUNT>
1

> <PUBCHEM_CACTVS_TAUTO_COUNT>
3

> <PUBCHEM_COORDINATE_TYPE>
1
5
255

> <PUBCHEM_BONDANNOTATIONS>
13  15  8
15  17  8
16  18  8
16  20  8
18  21  8
9  2  3
20  23  8
21  24  8
23  24  8
6  13  8
6  14  8
7  14  8
7  17  8

$$$$

