230019
  -OEChem-07051213063D

 41 42  0     1  0  0  0  0  0999 V2000
    4.3095    2.0427   -0.1650 O   0  0  0  0  0  0  0  0  0  0  0  0
   -0.0351   -1.5420    0.1588 C   0  0  1  0  0  0  0  0  0  0  0  0
   -1.2372   -1.0528   -0.7321 C   0  0  1  0  0  0  0  0  0  0  0  0
    0.4131   -2.9857   -0.1837 C   0  0  0  0  0  0  0  0  0  0  0  0
   -2.4249   -2.0485   -0.7323 C   0  0  0  0  0  0  0  0  0  0  0  0
    1.1424   -0.5709    0.0711 C   0  0  0  0  0  0  0  0  0  0  0  0
   -1.6976    0.3436   -0.3125 C   0  0  0  0  0  0  0  0  0  0  0  0
    1.5510   -3.5005    0.6938 C   0  0  0  0  0  0  0  0  0  0  0  0
   -3.0817   -2.2218    0.6346 C   0  0  0  0  0  0  0  0  0  0  0  0
    1.5549    0.0711    1.2165 C   0  0  0  0  0  0  0  0  0  0  0  0
    1.7456   -0.3744   -1.1505 C   0  0  0  0  0  0  0  0  0  0  0  0
   -2.1238    1.2185   -1.2860 C   0  0  0  0  0  0  0  0  0  0  0  0
   -1.6685    0.6743    1.0234 C   0  0  0  0  0  0  0  0  0  0  0  0
    2.6288    0.9577    1.1360 C   0  0  0  0  0  0  0  0  0  0  0  0
    2.8195    0.5122   -1.2308 C   0  0  0  0  0  0  0  0  0  0  0  0
   -2.5434    2.4925   -0.9031 C   0  0  0  0  0  0  0  0  0  0  0  0
   -2.0881    1.9483    1.4063 C   0  0  0  0  0  0  0  0  0  0  0  0
    3.2611    1.1783   -0.0876 C   0  0  0  0  0  0  0  0  0  0  0  0
   -2.5256    2.8574    0.4430 C   0  0  0  0  0  0  0  0  0  0  0  0
   -0.3485   -1.6075    1.2066 H   0  0  0  0  0  0  0  0  0  0  0  0
   -0.8847   -0.9949   -1.7713 H   0  0  0  0  0  0  0  0  0  0  0  0
   -0.4229   -3.6778   -0.0390 H   0  0  0  0  0  0  0  0  0  0  0  0
    0.7078   -3.0639   -1.2368 H   0  0  0  0  0  0  0  0  0  0  0  0
   -2.1175   -3.0230   -1.1243 H   0  0  0  0  0  0  0  0  0  0  0  0
   -3.1927   -1.6848   -1.4283 H   0  0  0  0  0  0  0  0  0  0  0  0
    1.2963   -3.4190    1.7553 H   0  0  0  0  0  0  0  0  0  0  0  0
    1.7431   -4.5559    0.4736 H   0  0  0  0  0  0  0  0  0  0  0  0
    2.4820   -2.9545    0.5158 H   0  0  0  0  0  0  0  0  0  0  0  0
   -2.3722   -2.5510    1.3979 H   0  0  0  0  0  0  0  0  0  0  0  0
   -3.5767   -1.3084    0.9745 H   0  0  0  0  0  0  0  0  0  0  0  0
   -3.8589   -2.9911    0.5648 H   0  0  0  0  0  0  0  0  0  0  0  0
    1.0810   -0.1001    2.1777 H   0  0  0  0  0  0  0  0  0  0  0  0
    1.4189   -0.8871   -2.0492 H   0  0  0  0  0  0  0  0  0  0  0  0
   -2.1423    0.9410   -2.3353 H   0  0  0  0  0  0  0  0  0  0  0  0
   -1.3898   -0.0070    1.8166 H   0  0  0  0  0  0  0  0  0  0  0  0
    2.9649    1.4682    2.0345 H   0  0  0  0  0  0  0  0  0  0  0  0
    3.3088    0.6790   -2.1866 H   0  0  0  0  0  0  0  0  0  0  0  0
   -2.8851    3.1999   -1.6530 H   0  0  0  0  0  0  0  0  0  0  0  0
   -2.0857    2.2291    2.4555 H   0  0  0  0  0  0  0  0  0  0  0  0
   -2.8550    3.8483    0.7415 H   0  0  0  0  0  0  0  0  0  0  0  0
    4.4789    2.4125    0.7186 H   0  0  0  0  0  0  0  0  0  0  0  0
  1 18  1  0  0  0  0
  1 41  1  0  0  0  0
  2  3  1  0  0  0  0
  2  4  1  0  0  0  0
  2  6  1  0  0  0  0
  2 20  1  0  0  0  0
  3  5  1  0  0  0  0
  3  7  1  0  0  0  0
  3 21  1  0  0  0  0
  4  8  1  0  0  0  0
  4 22  1  0  0  0  0
  4 23  1  0  0  0  0
  5  9  1  0  0  0  0
  5 24  1  0  0  0  0
  5 25  1  0  0  0  0
  6 10  2  0  0  0  0
  6 11  1  0  0  0  0
  7 12  2  0  0  0  0
  7 13  1  0  0  0  0
  8 26  1  0  0  0  0
  8 27  1  0  0  0  0
  8 28  1  0  0  0  0
  9 29  1  0  0  0  0
  9 30  1  0  0  0  0
  9 31  1  0  0  0  0
 10 14  1  0  0  0  0
 10 32  1  0  0  0  0
 11 15  2  0  0  0  0
 11 33  1  0  0  0  0
 12 16  1  0  0  0  0
 12 34  1  0  0  0  0
 13 17  2  0  0  0  0
 13 35  1  0  0  0  0
 14 18  2  0  0  0  0
 14 36  1  0  0  0  0
 15 18  1  0  0  0  0
 15 37  1  0  0  0  0
 16 19  2  0  0  0  0
 16 38  1  0  0  0  0
 17 19  1  0  0  0  0
 17 39  1  0  0  0  0
 19 40  1  0  0  0  0
M  END
> <PUBCHEM_COMPOUND_CID>
230019

> <PUBCHEM_CONFORMER_RMSD>
0.6

> <PUBCHEM_CONFORMER_DIVERSEORDER>
2
11
15
12
7
3
5
10
9
14
6
8
1
4
13

> <PUBCHEM_MMFF94_PARTIAL_CHARGES>
25
1 -0.53
10 -0.15
11 -0.15
12 -0.15
13 -0.15
14 -0.15
15 -0.15
16 -0.15
17 -0.15
18 0.08
19 -0.15
2 0.14
3 0.14
32 0.15
33 0.15
34 0.15
35 0.15
36 0.15
37 0.15
38 0.15
39 0.15
40 0.15
41 0.45
6 -0.14
7 -0.14

> <PUBCHEM_EFFECTIVE_ROTOR_COUNT>
5

> <PUBCHEM_PHARMACOPHORE_FEATURES>
6
1 1 donor
1 8 hydrophobe
1 9 hydrophobe
4 2 3 4 5 hydrophobe
6 6 10 11 14 15 18 rings
6 7 12 13 16 17 19 rings

> <PUBCHEM_HEAVY_ATOM_COUNT>
19

> <PUBCHEM_ATOM_DEF_STEREO_COUNT>
0

> <PUBCHEM_ATOM_UDEF_STEREO_COUNT>
2

> <PUBCHEM_BOND_DEF_STEREO_COUNT>
0

> <PUBCHEM_BOND_UDEF_STEREO_COUNT>
0

> <PUBCHEM_ISOTOPIC_ATOM_COUNT>
0

> <PUBCHEM_COMPONENT_COUNT>
1

> <PUBCHEM_CACTVS_TAUTO_COUNT>
2

> <PUBCHEM_CONFORMER_ID>
0003828300000002

> <PUBCHEM_MMFF94_ENERGY>
56.0512

> <PUBCHEM_FEATURE_SELFOVERLAP>
30.467

> <PUBCHEM_SHAPE_FINGERPRINT>
10165383 225 17978474797449502669
10498660 4 18411140199475586301
11578080 2 5136316183693066382
11640471 11 18130520690077117980
11725454 13 16628303132187707797
128993 33 18262505009097109936
13134695 92 17405994436194213398
13140716 1 18339360876584829586
13294875 104 18117568537949458328
13693222 7 18337674225389111853
13764800 53 18407759240059314961
13965767 371 17987245602063195476
14142880 1 18413107234499649837
14181834 199 17904493144162538782
14223421 5 18340198682928413635
14251751 93 18411410735444718442
14386348 128 18265032782081839980
14614273 12 18341899588756239007
14713325 29 17340358785301802118
14790565 3 18123180213485957089
14955137 171 17834372550669532339
16945 1 18052840051814325702
17134986 127 18193272116281357284
17357779 13 17898024438505159503
17357990 137 17100866722587181697
18186145 218 18261097609097601468
18981168 100 18338793536879257069
20510252 161 18265615390168789508
20511035 2 18045238273170039607
20600515 1 17834663907959309039
20645476 183 18118401980389965829
20671657 1 18123468538328401814
21524375 3 18335699481099290206
22802520 49 17749096816546131348
23402539 116 18119252748939496894
23419403 2 15802761966117148635
23557571 272 18190456060954605428
23558518 356 18195541508988046415
238 59 17906178700088946005
283562 15 18338799987962684491
305870 269 18340488966982859306
350125 39 18339354279293860907
469060 322 18198330772128679097
589210 1 18338806735451485883
6442390 28 18264182804085931755
74978 22 18192714676818293487
81228 2 18048865308690000362
9981440 41 18265640764751224435

> <PUBCHEM_SHAPE_MULTIPOLES>
385.14
5.56
3.81
1.33
2.3
1.98
-0.03
-3.52
0.2
-0.83
-0.41
-0.12
-0.35
-0.27

> <PUBCHEM_SHAPE_SELFOVERLAP>
810.033

> <PUBCHEM_SHAPE_VOLUME>
216.8

> <PUBCHEM_COORDINATE_TYPE>
2
5
10

$$$$

