12671
  -OEChem-06261207133D

  8  7  0     0  0  0  0  0  0999 V2000
   -1.5827   -1.0323    0.3212 Cl  0  0  0  0  0  0  0  0  0  0  0  0
    1.5839   -1.0304    0.3216 Cl  0  0  0  0  0  0  0  0  0  0  0  0
    0.0000    0.0931   -0.1379 P   0  0  0  0  0  0  0  0  0  0  0  0
   -0.0002    0.5372   -1.5628 O   0  0  0  0  0  0  0  0  0  0  0  0
   -0.0011    1.4324    1.0579 C   0  0  0  0  0  0  0  0  0  0  0  0
    0.8854    2.0587    0.9245 H   0  0  0  0  0  0  0  0  0  0  0  0
   -0.8886    2.0573    0.9243 H   0  0  0  0  0  0  0  0  0  0  0  0
   -0.0010    1.0437    2.0801 H   0  0  0  0  0  0  0  0  0  0  0  0
  1  3  1  0  0  0  0
  2  3  1  0  0  0  0
  3  4  2  0  0  0  0
  3  5  1  0  0  0  0
  5  6  1  0  0  0  0
  5  7  1  0  0  0  0
  5  8  1  0  0  0  0
M  END
> <PUBCHEM_COMPOUND_CID>
12671

> <PUBCHEM_CONFORMER_RMSD>
0.4

> <PUBCHEM_CONFORMER_DIVERSEORDER>
1

> <PUBCHEM_MMFF94_PARTIAL_CHARGES>
4
1 -0.32
2 -0.32
3 1.33
4 -0.7

> <PUBCHEM_EFFECTIVE_ROTOR_COUNT>
0

> <PUBCHEM_PHARMACOPHORE_FEATURES>
1
1 4 acceptor

> <PUBCHEM_HEAVY_ATOM_COUNT>
5

> <PUBCHEM_ATOM_DEF_STEREO_COUNT>
0

> <PUBCHEM_ATOM_UDEF_STEREO_COUNT>
0

> <PUBCHEM_BOND_DEF_STEREO_COUNT>
0

> <PUBCHEM_BOND_UDEF_STEREO_COUNT>
0

> <PUBCHEM_ISOTOPIC_ATOM_COUNT>
0

> <PUBCHEM_COMPONENT_COUNT>
1

> <PUBCHEM_CACTVS_TAUTO_COUNT>
1

> <PUBCHEM_CONFORMER_ID>
0000317F00000001

> <PUBCHEM_MMFF94_ENERGY>
5.8811

> <PUBCHEM_FEATURE_SELFOVERLAP>
5.074

> <PUBCHEM_SHAPE_FINGERPRINT>
24536 1 5759638250653455786
5943 1 16228896513370115113

> <PUBCHEM_SHAPE_MULTIPOLES>
104.62
1.71
1.54
1.23
0
0.43
-0.53
-1.02
0.41
0
0.51
0
0.27
0

> <PUBCHEM_SHAPE_SELFOVERLAP>
152.347

> <PUBCHEM_SHAPE_VOLUME>
80.4

> <PUBCHEM_COORDINATE_TYPE>
2
5
10

$$$$

