443850
  -OEChem-07051213033D

 34 34  0     0  0  0  0  0  0999 V2000
   -2.7727   -2.0313    0.6678 O   0  0  0  0  0  0  0  0  0  0  0  0
    2.4913    1.0733    1.0710 O   0  0  0  0  0  0  0  0  0  0  0  0
    4.8730    1.8510    0.7898 O   0  0  0  0  0  0  0  0  0  0  0  0
    5.2092    0.3215   -0.8872 O   0  0  0  0  0  0  0  0  0  0  0  0
   -1.2497   -0.6873   -0.6044 C   0  0  0  0  0  0  0  0  0  0  0  0
   -2.3956    0.0293   -1.2740 C   0  0  0  0  0  0  0  0  0  0  0  0
    1.1191   -0.9877   -0.3344 C   0  0  0  0  0  0  0  0  0  0  0  0
    0.0483   -0.3332   -0.9435 C   0  0  0  0  0  0  0  0  0  0  0  0
   -1.5001   -1.6814    0.3302 C   0  0  0  0  0  0  0  0  0  0  0  0
    2.5197   -0.6174   -0.6885 C   0  0  0  0  0  0  0  0  0  0  0  0
    0.8803   -1.9889    0.6069 C   0  0  0  0  0  0  0  0  0  0  0  0
   -2.8256    1.2536   -0.5160 C   0  0  0  0  0  0  0  0  0  0  0  0
   -0.4292   -2.3359    0.9391 C   0  0  0  0  0  0  0  0  0  0  0  0
   -4.0299    1.5079    0.0304 C   0  0  0  0  0  0  0  0  0  0  0  0
    3.0887    0.4835    0.1829 C   0  0  0  0  0  0  0  0  0  0  0  0
   -4.3966    2.7579    0.7791 C   0  0  0  0  0  0  0  0  0  0  0  0
   -5.1476    0.5062   -0.0897 C   0  0  0  0  0  0  0  0  0  0  0  0
    4.5174    0.8789   -0.0595 C   0  0  0  0  0  0  0  0  0  0  0  0
   -2.0714    0.3603   -2.2708 H   0  0  0  0  0  0  0  0  0  0  0  0
   -3.1998   -0.6775   -1.4904 H   0  0  0  0  0  0  0  0  0  0  0  0
    0.2345    0.4497   -1.6743 H   0  0  0  0  0  0  0  0  0  0  0  0
    2.5670   -0.2874   -1.7332 H   0  0  0  0  0  0  0  0  0  0  0  0
    3.1679   -1.4978   -0.6001 H   0  0  0  0  0  0  0  0  0  0  0  0
    1.7059   -2.5047    1.0902 H   0  0  0  0  0  0  0  0  0  0  0  0
   -2.0597    2.0219   -0.4109 H   0  0  0  0  0  0  0  0  0  0  0  0
   -0.6006   -3.1172    1.6748 H   0  0  0  0  0  0  0  0  0  0  0  0
   -3.5594    3.4624    0.8201 H   0  0  0  0  0  0  0  0  0  0  0  0
   -5.2355    3.2632    0.2901 H   0  0  0  0  0  0  0  0  0  0  0  0
   -4.6823    2.5179    1.8081 H   0  0  0  0  0  0  0  0  0  0  0  0
   -4.8496   -0.4959   -0.3962 H   0  0  0  0  0  0  0  0  0  0  0  0
   -5.6391    0.3852    0.8828 H   0  0  0  0  0  0  0  0  0  0  0  0
   -5.8971    0.8700   -0.8006 H   0  0  0  0  0  0  0  0  0  0  0  0
   -2.7414   -2.7389    1.3343 H   0  0  0  0  0  0  0  0  0  0  0  0
    5.8097    2.1193    0.6768 H   0  0  0  0  0  0  0  0  0  0  0  0
  1  9  1  0  0  0  0
  1 33  1  0  0  0  0
  2 15  2  0  0  0  0
  3 18  1  0  0  0  0
  3 34  1  0  0  0  0
  4 18  2  0  0  0  0
  5  6  1  0  0  0  0
  5  8  1  0  0  0  0
  5  9  2  0  0  0  0
  6 12  1  0  0  0  0
  6 19  1  0  0  0  0
  6 20  1  0  0  0  0
  7  8  2  0  0  0  0
  7 10  1  0  0  0  0
  7 11  1  0  0  0  0
  8 21  1  0  0  0  0
  9 13  1  0  0  0  0
 10 15  1  0  0  0  0
 10 22  1  0  0  0  0
 10 23  1  0  0  0  0
 11 13  2  0  0  0  0
 11 24  1  0  0  0  0
 12 14  2  0  0  0  0
 12 25  1  0  0  0  0
 13 26  1  0  0  0  0
 14 16  1  0  0  0  0
 14 17  1  0  0  0  0
 15 18  1  0  0  0  0
 16 27  1  0  0  0  0
 16 28  1  0  0  0  0
 16 29  1  0  0  0  0
 17 30  1  0  0  0  0
 17 31  1  0  0  0  0
 17 32  1  0  0  0  0
M  END
> <PUBCHEM_COMPOUND_CID>
443850

> <PUBCHEM_CONFORMER_RMSD>
0.6

> <PUBCHEM_CONFORMER_DIVERSEORDER>
1
163
134
364
360
372
299
333
148
194
150
343
262
206
301
172
6
323
320
379
351
242
317
249
371
289
252
347
358
387
67
288
340
235
310
119
308
153
345
257
378
305
155
380
95
212
304
307
190
342
205
384
124
211
381
237
352
375
271
331
138
203
321
118
152
15
353
225
273
290
341
139
382
332
255
256
157
232
50
300
200
65
328
367
349
221
181
348
294
302
243
169
13
76
337
266
253
297
189
336
359
385
149
159
209
141
204
241
319
368
324
366
37
268
218
144
247
356
112
174
293
334
180
280
233
284
224
164
282
156
85
227
259
51
283
326
170
363
161
115
306
277
30
325
244
19
125
132
236
99
186
162
362
201
258
173
88
121
263
270
269
82
39
191
250
231
208
338
79
275
68
315
202
35
228
292
158
240
386
222
187
314
80
339
322
234
295
357
177
220
197
61
42
36
147
49
179
45
75
330
383
346
286
105
46
350
239
246
229
84
91
90
58
248
59
344
369
81
146
83
230
274
329
198
108
10
365
114
178
195
335
176
313
86
143
89
303
272
287
354
210
40
47
167
373
265
87
291
101
110
133
276
245
96
184
28
100
78
120
370
70
140
52
192
109
196
73
264
43
193
298
72
12
55
279
374
199
23
26
54
309
11
251
183
166
94
285
223
77
74
97
63
123
145
327
113
17
8
56
296
48
131
103
66
219
126
16
135
261
60
31
107
98
278
62
312
32
2
93
151
160
355
238
129
217
18
260
106
14
20
34
57
311
127
215
318
182
316
185
122
102
7
3
128
213
377
29
5
104
281
71
254
21
175
53
376
165
136
92
171
25
4
154
69
226
188
111
64
9
33
142
207
168
130
27
267
22
41
214
44
24
388
38
137
361
116
216
117

> <PUBCHEM_MMFF94_PARTIAL_CHARGES>
24
1 -0.53
10 0.2
11 -0.15
12 -0.29
13 -0.15
14 -0.28
15 0.51
16 0.14
17 0.14
18 0.72
2 -0.57
21 0.15
24 0.15
25 0.15
26 0.15
3 -0.65
33 0.45
34 0.5
4 -0.57
5 -0.14
6 0.28
7 -0.14
8 -0.15
9 0.08

> <PUBCHEM_EFFECTIVE_ROTOR_COUNT>
5

> <PUBCHEM_PHARMACOPHORE_FEATURES>
7
1 1 donor
1 2 acceptor
1 3 acceptor
1 4 acceptor
3 14 16 17 hydrophobe
3 3 4 18 anion
6 5 7 8 9 11 13 rings

> <PUBCHEM_HEAVY_ATOM_COUNT>
18

> <PUBCHEM_ATOM_DEF_STEREO_COUNT>
0

> <PUBCHEM_ATOM_UDEF_STEREO_COUNT>
0

> <PUBCHEM_BOND_DEF_STEREO_COUNT>
0

> <PUBCHEM_BOND_UDEF_STEREO_COUNT>
0

> <PUBCHEM_ISOTOPIC_ATOM_COUNT>
0

> <PUBCHEM_COMPONENT_COUNT>
1

> <PUBCHEM_CACTVS_TAUTO_COUNT>
10

> <PUBCHEM_CONFORMER_ID>
0006C5CA00000001

> <PUBCHEM_MMFF94_ENERGY>
35.0097

> <PUBCHEM_FEATURE_SELFOVERLAP>
35.59

> <PUBCHEM_SHAPE_FINGERPRINT>
10042902 136 11239417350493865592
10382601 240 17844810471779873530
10493431 412 18343299279948730357
10610426 29 11383818381960383319
10681291 71 18341328976296474208
11132069 177 17632290207681055623
122479 349 18409167714100892877
12390115 104 18341316838692301206
12633257 1 18059586758584654324
12892183 10 15267069185041858148
13464514 151 18261673769937817394
14178342 30 17988918959897080283
14251752 14 4750886892555223539
14251764 30 13182189573676268808
14251764 75 17827350292094481697
14787075 74 18408046195846863885
15209294 21 18272369776108508583
15295992 7 18335147453522054920
15534591 1 18335145297432784391
1741750 31 18411983567732973915
18186145 218 18196090160773274055
18785283 64 17987801959378863474
18915476 22 17604692469496892823
19784866 140 5545196117089901525
19862831 5 14345800452290876935
200 152 5545199423882396580
20374829 77 8574709087908177597
204376 136 18131071558382176063
20510252 161 18270681944007963338
20645477 56 18341890792341586950
20671657 53 7565048476654438683
21033648 29 18042694910197427752
21503847 285 18045497779620685029
22079108 93 18413108359922927927
22182937 141 18410853231267196561
23402539 116 18127700322551226567
23500284 214 18413107272953369047
23557571 272 18264201427032803383
23559900 14 18412820301310381862
25 1 18335988652741823686
2838139 119 18113625598662853416
427121 178 18130780226249812259
474 4 18413109472066685357
5104073 3 18273215326109290690
633830 44 18117843433147035117
6442390 28 18342168977727185899
7808743 9 18343019973788339132

> <PUBCHEM_SHAPE_MULTIPOLES>
346.95
10.33
2.55
1.06
3.03
0.16
0.06
-8.87
-0.5
-1.36
-1.08
0.01
0.01
0.12

> <PUBCHEM_SHAPE_SELFOVERLAP>
716.101

> <PUBCHEM_SHAPE_VOLUME>
198.1

> <PUBCHEM_COORDINATE_TYPE>
2
5
10

$$$$

