17396130
  -OEChem-06241222543D

 44 46  0     0  0  0  0  0  0999 V2000
   -1.7752   -0.2019    1.1980 O   0  0  0  0  0  0  0  0  0  0  0  0
    5.5373    2.7823    0.0490 O   0  0  0  0  0  0  0  0  0  0  0  0
    2.3314   -2.2623   -1.0689 O   0  0  0  0  0  0  0  0  0  0  0  0
    4.7846    0.6587    0.6138 N   0  0  0  0  0  0  0  0  0  0  0  0
    3.9089   -0.3742    0.4181 N   0  0  0  0  0  0  0  0  0  0  0  0
    0.6663   -0.9995    0.0414 N   0  0  0  0  0  0  0  0  0  0  0  0
    2.5105    1.1648   -0.9139 C   0  0  0  0  0  0  0  0  0  0  0  0
    3.7949    1.8637   -1.2815 C   0  0  0  0  0  0  0  0  0  0  0  0
    2.8648   -0.1511   -0.3075 C   0  0  0  0  0  0  0  0  0  0  0  0
    4.7717    1.8336   -0.1317 C   0  0  0  0  0  0  0  0  0  0  0  0
    1.9079   -1.2742   -0.4909 C   0  0  0  0  0  0  0  0  0  0  0  0
   -0.4672   -1.8463    0.0393 C   0  0  0  0  0  0  0  0  0  0  0  0
   -1.6666   -1.4304    0.6172 C   0  0  0  0  0  0  0  0  0  0  0  0
    5.7688    0.4302    1.6581 C   0  0  0  0  0  0  0  0  0  0  0  0
   -0.3769   -3.1077   -0.5492 C   0  0  0  0  0  0  0  0  0  0  0  0
   -2.7758   -2.2761    0.6066 C   0  0  0  0  0  0  0  0  0  0  0  0
   -2.7162    0.6711    0.6812 C   0  0  0  0  0  0  0  0  0  0  0  0
   -1.4862   -3.9533   -0.5596 C   0  0  0  0  0  0  0  0  0  0  0  0
   -2.6857   -3.5376    0.0182 C   0  0  0  0  0  0  0  0  0  0  0  0
   -4.6127    2.4316   -0.3610 C   0  0  0  0  0  0  0  0  0  0  0  0
   -2.8340    0.8321   -0.6994 C   0  0  0  0  0  0  0  0  0  0  0  0
   -3.5466    1.3905    1.5407 C   0  0  0  0  0  0  0  0  0  0  0  0
   -3.7823    1.7123   -1.2204 C   0  0  0  0  0  0  0  0  0  0  0  0
   -4.4948    2.2707    1.0195 C   0  0  0  0  0  0  0  0  0  0  0  0
   -5.6266    3.3730   -0.9173 C   0  0  0  0  0  0  0  0  0  0  0  0
    1.9491    1.7436   -0.1720 H   0  0  0  0  0  0  0  0  0  0  0  0
    1.8806    1.0257   -1.7979 H   0  0  0  0  0  0  0  0  0  0  0  0
    3.5915    2.9037   -1.5570 H   0  0  0  0  0  0  0  0  0  0  0  0
    4.2751    1.3708   -2.1351 H   0  0  0  0  0  0  0  0  0  0  0  0
    0.5282   -0.0982    0.4934 H   0  0  0  0  0  0  0  0  0  0  0  0
    6.3590   -0.4535    1.3983 H   0  0  0  0  0  0  0  0  0  0  0  0
    6.4381    1.2869    1.7700 H   0  0  0  0  0  0  0  0  0  0  0  0
    5.2459    0.2576    2.6034 H   0  0  0  0  0  0  0  0  0  0  0  0
    0.5165   -3.4989   -1.0154 H   0  0  0  0  0  0  0  0  0  0  0  0
   -3.7151   -1.9731    1.0619 H   0  0  0  0  0  0  0  0  0  0  0  0
   -1.4171   -4.9362   -1.0170 H   0  0  0  0  0  0  0  0  0  0  0  0
   -3.5486   -4.1971    0.0122 H   0  0  0  0  0  0  0  0  0  0  0  0
   -2.1886    0.2982   -1.3913 H   0  0  0  0  0  0  0  0  0  0  0  0
   -3.4594    1.2682    2.6168 H   0  0  0  0  0  0  0  0  0  0  0  0
   -3.8632    1.8308   -2.2977 H   0  0  0  0  0  0  0  0  0  0  0  0
   -5.1372    2.8241    1.6993 H   0  0  0  0  0  0  0  0  0  0  0  0
   -6.5757    2.8517   -1.0768 H   0  0  0  0  0  0  0  0  0  0  0  0
   -5.7981    4.2152   -0.2382 H   0  0  0  0  0  0  0  0  0  0  0  0
   -5.2933    3.7945   -1.8718 H   0  0  0  0  0  0  0  0  0  0  0  0
  1 13  1  0  0  0  0
  1 17  1  0  0  0  0
  2 10  2  0  0  0  0
  3 11  2  0  0  0  0
  4  5  1  0  0  0  0
  4 10  1  0  0  0  0
  4 14  1  0  0  0  0
  5  9  2  0  0  0  0
  6 11  1  0  0  0  0
  6 12  1  0  0  0  0
  6 30  1  0  0  0  0
  7  8  1  0  0  0  0
  7  9  1  0  0  0  0
  7 26  1  0  0  0  0
  7 27  1  0  0  0  0
  8 10  1  0  0  0  0
  8 28  1  0  0  0  0
  8 29  1  0  0  0  0
  9 11  1  0  0  0  0
 12 13  1  0  0  0  0
 12 15  2  0  0  0  0
 13 16  2  0  0  0  0
 14 31  1  0  0  0  0
 14 32  1  0  0  0  0
 14 33  1  0  0  0  0
 15 18  1  0  0  0  0
 15 34  1  0  0  0  0
 16 19  1  0  0  0  0
 16 35  1  0  0  0  0
 17 21  2  0  0  0  0
 17 22  1  0  0  0  0
 18 19  2  0  0  0  0
 18 36  1  0  0  0  0
 19 37  1  0  0  0  0
 20 23  2  0  0  0  0
 20 24  1  0  0  0  0
 20 25  1  0  0  0  0
 21 23  1  0  0  0  0
 21 38  1  0  0  0  0
 22 24  2  0  0  0  0
 22 39  1  0  0  0  0
 23 40  1  0  0  0  0
 24 41  1  0  0  0  0
 25 42  1  0  0  0  0
 25 43  1  0  0  0  0
 25 44  1  0  0  0  0
M  END
> <PUBCHEM_COMPOUND_CID>
17396130

> <PUBCHEM_CONFORMER_RMSD>
0.8

> <PUBCHEM_CONFORMER_DIVERSEORDER>
1
38
31
50
66
14
25
48
58
40
26
63
4
52
16
20
29
21
12
69
51
41
28
62
70
44
71
36
22
6
24
55
53
5
73
27
23
39
68
7
67
8
15
30
43
59
3
37
17
65
2
46
47
60
72
42
35
57
9
61
11
13
64
32
49
18
54
34
45
19
10
33
56

> <PUBCHEM_MMFF94_PARTIAL_CHARGES>
34
1 -0.17
10 0.57
11 0.63
12 0.12
13 0.08
14 0.3
15 -0.15
16 -0.15
17 0.08
18 -0.15
19 -0.15
2 -0.57
20 -0.14
21 -0.15
22 -0.15
23 -0.15
24 -0.15
25 0.14
3 -0.57
30 0.37
34 0.15
35 0.15
36 0.15
37 0.15
38 0.15
39 0.15
4 -0.3
40 0.15
41 0.15
5 -0.51
6 -0.55
7 0.06
8 0.06
9 0.39

> <PUBCHEM_EFFECTIVE_ROTOR_COUNT>
5.6

> <PUBCHEM_PHARMACOPHORE_FEATURES>
8
1 1 acceptor
1 2 acceptor
1 3 acceptor
1 5 acceptor
1 6 donor
6 12 13 15 16 18 19 rings
6 17 20 21 22 23 24 rings
6 4 5 7 8 9 10 rings

> <PUBCHEM_HEAVY_ATOM_COUNT>
25

> <PUBCHEM_ATOM_DEF_STEREO_COUNT>
0

> <PUBCHEM_ATOM_UDEF_STEREO_COUNT>
0

> <PUBCHEM_BOND_DEF_STEREO_COUNT>
0

> <PUBCHEM_BOND_UDEF_STEREO_COUNT>
0

> <PUBCHEM_ISOTOPIC_ATOM_COUNT>
0

> <PUBCHEM_COMPONENT_COUNT>
1

> <PUBCHEM_CACTVS_TAUTO_COUNT>
2

> <PUBCHEM_CONFORMER_ID>
010971A200000001

> <PUBCHEM_MMFF94_ENERGY>
77.5909

> <PUBCHEM_FEATURE_SELFOVERLAP>
40.597

> <PUBCHEM_SHAPE_FINGERPRINT>
10319926 262 16772939458536044369
10670039 82 18122605181847171924
10871710 139 17766814162269411413
10937287 8 18337388348482360031
12107183 9 18270412706189541058
12633257 1 18130792265417864820
12788726 201 18195821678052411659
13103583 49 11383546867060330941
13540713 4 18261937622632882846
13965767 371 17988646358201113934
14142880 1 18272937085796731063
14251764 30 9006760017453547333
14294032 229 18335970975136552691
14848178 96 18262234529373710304
15003188 8 18342181106466643596
16120349 189 18273497887939645357
16988056 13 17259344891249528029
20715895 44 18268152135187824377
21033648 29 18059001929893610933
21304303 282 18190202151358322719
21859007 373 17842845696262315132
23227448 37 18411976949578390845
23559900 14 18187917439658458790
283562 15 18268150851441372539
3117164 225 18341339972167366810
350125 39 18336821975561219505
474 4 18264488571523976509
5104073 3 18129671803351050000
6327066 14 18341615944789876221
633830 44 17752472424918045457
6677587 24 17123157066673399749
7808743 9 18410854317973121752
7970288 3 9222930587527558093
9981440 41 18411702101763222171

> <PUBCHEM_SHAPE_MULTIPOLES>
481.94
12.59
4.75
1.28
9.43
3.06
-0.21
-14.95
-1.51
-4.63
1.13
-0.03
-0.47
0.49

> <PUBCHEM_SHAPE_SELFOVERLAP>
1037.98

> <PUBCHEM_SHAPE_VOLUME>
263.2

> <PUBCHEM_COORDINATE_TYPE>
2
5
10

$$$$

