443409
  -OEChem-07051213022D

 47 50  0     1  0  0  0  0  0999 V2000
    8.2959    1.5482    0.0000 O   0  0  0  0  0  0  0  0  0  0  0  0
    7.3485   -3.1692    0.0000 O   0  0  0  0  0  0  0  0  0  0  0  0
    3.0851    1.2392    0.0000 N   0  0  3  0  0  0  0  0  0  0  0  0
    5.2086    0.7210    0.0000 C   0  0  1  0  0  0  0  0  0  0  0  0
    5.6864    2.6695    0.0000 C   0  0  3  0  0  0  0  0  0  0  0  0
    4.9498    1.6869    0.0000 C   0  0  1  0  0  0  0  0  0  0  0  0
    3.5039   -0.3237    0.0000 C   0  0  0  0  0  0  0  0  0  0  0  0
    1.5418    2.0256    0.0000 C   0  0  0  0  0  0  0  0  0  0  0  0
    2.7267    0.3056    0.0000 C   0  0  0  0  0  0  0  0  0  0  0  0
    2.5405    2.0779    0.0000 C   0  0  0  0  0  0  0  0  0  0  0  0
    6.7437   -0.5222    0.0000 C   0  0  0  0  0  0  0  0  0  0  0  0
    0.7032    1.4809    0.0000 C   0  0  0  0  0  0  0  0  0  0  0  0
    0.6508    2.4795    0.0000 C   0  0  0  0  0  0  0  0  0  0  0  0
    5.4674   -0.2450    0.0000 C   0  0  0  0  0  0  0  0  0  0  0  0
    7.5528    0.8791    0.0000 C   0  0  0  0  0  0  0  0  0  0  0  0
    6.1864    3.5355    0.0000 C   0  0  0  0  0  0  0  0  0  0  0  0
    7.6573   -0.1155    0.0000 C   0  0  0  0  0  0  0  0  0  0  0  0
    6.6189   -1.5563    0.0000 C   0  0  0  0  0  0  0  0  0  0  0  0
    4.7603   -0.9521    0.0000 C   0  0  0  0  0  0  0  0  0  0  0  0
    8.5093   -0.7146    0.0000 C   0  0  0  0  0  0  0  0  0  0  0  0
    7.4568   -2.1750    0.0000 C   0  0  0  0  0  0  0  0  0  0  0  0
    8.4084   -1.7514    0.0000 C   0  0  0  0  0  0  0  0  0  0  0  0
    5.1689    3.0110    0.0000 H   0  0  0  0  0  0  0  0  0  0  0  0
    4.7298    2.5079    0.0000 H   0  0  0  0  0  0  0  0  0  0  0  0
    3.8856   -0.8123    0.0000 H   0  0  0  0  0  0  0  0  0  0  0  0
    3.0617   -0.7582    0.0000 H   0  0  0  0  0  0  0  0  0  0  0  0
    1.6708    2.6320    0.0000 H   0  0  0  0  0  0  0  0  0  0  0  0
    2.3891   -0.2143    0.0000 H   0  0  0  0  0  0  0  0  0  0  0  0
    2.1743    0.5871    0.0000 H   0  0  0  0  0  0  0  0  0  0  0  0
    2.4010    2.6820    0.0000 H   0  0  0  0  0  0  0  0  0  0  0  0
    3.1112    2.3201    0.0000 H   0  0  0  0  0  0  0  0  0  0  0  0
    0.0355    2.5551    0.0000 H   0  0  0  0  0  0  0  0  0  0  0  0
    0.8321    3.0724    0.0000 H   0  0  0  0  0  0  0  0  0  0  0  0
    0.9454    0.9102    0.0000 H   0  0  0  0  0  0  0  0  0  0  0  0
    0.0991    1.3414    0.0000 H   0  0  0  0  0  0  0  0  0  0  0  0
    6.0293    0.0170    0.0000 H   0  0  0  0  0  0  0  0  0  0  0  0
    5.8230   -0.7528    0.0000 H   0  0  0  0  0  0  0  0  0  0  0  0
    5.6494    3.8455    0.0000 H   0  0  0  0  0  0  0  0  0  0  0  0
    6.4964    4.0724    0.0000 H   0  0  0  0  0  0  0  0  0  0  0  0
    6.7233    3.2255    0.0000 H   0  0  0  0  0  0  0  0  0  0  0  0
    6.0496   -1.8019    0.0000 H   0  0  0  0  0  0  0  0  0  0  0  0
    5.1987   -1.3905    0.0000 H   0  0  0  0  0  0  0  0  0  0  0  0
    4.3219   -1.3905    0.0000 H   0  0  0  0  0  0  0  0  0  0  0  0
    4.3219   -0.5137    0.0000 H   0  0  0  0  0  0  0  0  0  0  0  0
    9.0728   -0.4559    0.0000 H   0  0  0  0  0  0  0  0  0  0  0  0
    8.9114   -2.1139    0.0000 H   0  0  0  0  0  0  0  0  0  0  0  0
    7.8487   -3.5355    0.0000 H   0  0  0  0  0  0  0  0  0  0  0  0
  1 15  2  0  0  0  0
  2 21  1  0  0  0  0
  2 47  1  0  0  0  0
  3  6  1  0  0  0  0
  3  9  1  0  0  0  0
  3 10  1  0  0  0  0
  4  5  1  0  0  0  0
  4  7  1  0  0  0  0
  4 11  1  0  0  0  0
  4 14  1  1  0  0  0
  5  6  1  0  0  0  0
  5 16  1  0  0  0  0
  5 23  1  0  0  0  0
  6 15  1  0  0  0  0
  6 24  1  6  0  0  0
  7  9  1  0  0  0  0
  7 25  1  0  0  0  0
  7 26  1  0  0  0  0
  8 10  1  0  0  0  0
  8 12  1  0  0  0  0
  8 13  1  0  0  0  0
  8 27  1  0  0  0  0
  9 28  1  0  0  0  0
  9 29  1  0  0  0  0
 10 30  1  0  0  0  0
 10 31  1  0  0  0  0
 11 17  2  0  0  0  0
 11 18  1  0  0  0  0
 12 13  1  0  0  0  0
 12 34  1  0  0  0  0
 12 35  1  0  0  0  0
 13 32  1  0  0  0  0
 13 33  1  0  0  0  0
 14 19  1  0  0  0  0
 14 36  1  0  0  0  0
 14 37  1  0  0  0  0
 15 17  1  0  0  0  0
 16 38  1  0  0  0  0
 16 39  1  0  0  0  0
 16 40  1  0  0  0  0
 17 20  1  0  0  0  0
 18 21  2  0  0  0  0
 18 41  1  0  0  0  0
 19 42  1  0  0  0  0
 19 43  1  0  0  0  0
 19 44  1  0  0  0  0
 20 22  2  0  0  0  0
 20 45  1  0  0  0  0
 21 22  1  0  0  0  0
 22 46  1  0  0  0  0
M  END
> <PUBCHEM_COMPOUND_CID>
443409

> <PUBCHEM_COMPOUND_CANONICALIZED>
1

> <PUBCHEM_CACTVS_COMPLEXITY>
460

> <PUBCHEM_CACTVS_HBOND_ACCEPTOR>
3

> <PUBCHEM_CACTVS_HBOND_DONOR>
1

> <PUBCHEM_CACTVS_ROTATABLE_BOND>
3

> <PUBCHEM_CACTVS_SUBSKEYS>
AAADceB6MAAAAAAAAAAAAAAAGAAAAAAAAAA8YIAAAAAWAADBAAAAHgAACAAADyzBmAQyBoMAAgCIAqBSAAACAAAkIAAIiAGOCMgIJjKClTOEcQAkwBGImYeYzPDPoAABAAAQAADQAAaAACQAAAAAAAAAAA==

> <PUBCHEM_IUPAC_INCHI>
InChI=1S/C19H25NO2/c1-3-19-8-9-20(11-13-4-5-13)17(12(19)2)18(22)15-7-6-14(21)10-16(15)19/h6-7,10,12-13,17,21H,3-5,8-9,11H2,1-2H3/t12?,17-,19+/m0/s1

> <PUBCHEM_IUPAC_INCHIKEY>
SEJUQQOPVAUETF-SCTOPSOGSA-N

> <PUBCHEM_XLOGP3_AA>
4

> <PUBCHEM_EXACT_MASS>
299.188529

> <PUBCHEM_MOLECULAR_FORMULA>
C19H25NO2

> <PUBCHEM_MOLECULAR_WEIGHT>
299.4073

> <PUBCHEM_OPENEYE_CAN_SMILES>
CCC12CCN(C(C1C)C(=O)C3=C2C=C(C=C3)O)CC4CC4

> <PUBCHEM_OPENEYE_ISO_SMILES>
CC[C@@]12CCN([C@@H](C1C)C(=O)C3=C2C=C(C=C3)O)CC4CC4

> <PUBCHEM_CACTVS_TPSA>
40.5

> <PUBCHEM_MONOISOTOPIC_WEIGHT>
299.188529

> <PUBCHEM_TOTAL_CHARGE>
0

> <PUBCHEM_HEAVY_ATOM_COUNT>
22

> <PUBCHEM_ATOM_DEF_STEREO_COUNT>
2

> <PUBCHEM_ATOM_UDEF_STEREO_COUNT>
1

> <PUBCHEM_BOND_DEF_STEREO_COUNT>
0

> <PUBCHEM_BOND_UDEF_STEREO_COUNT>
0

> <PUBCHEM_ISOTOPIC_ATOM_COUNT>
0

> <PUBCHEM_COMPONENT_COUNT>
1

> <PUBCHEM_CACTVS_TAUTO_COUNT>
5

> <PUBCHEM_COORDINATE_TYPE>
1
5
255

> <PUBCHEM_BONDANNOTATIONS>
11  17  8
11  18  8
17  20  8
18  21  8
20  22  8
21  22  8
4  14  5
5  16  3
6  24  6

$$$$

