152192
  -OEChem-07051212503D

 39 38  0     1  0  0  0  0  0999 V2000
    1.3945   -0.7071    0.9024 P   0  0  2  0  0  0  0  0  0  0  0  0
    3.8872   -0.5120   -0.6476 P   0  0  0  0  0  0  0  0  0  0  0  0
   -0.1115   -0.3670    0.4544 O   0  0  0  0  0  0  0  0  0  0  0  0
    2.3070   -0.3140   -0.3730 O   0  0  0  0  0  0  0  0  0  0  0  0
    1.4655   -2.3232    0.9247 O   0  0  0  0  0  0  0  0  0  0  0  0
    1.8155   -0.0512    2.1855 O   0  0  0  0  0  0  0  0  0  0  0  0
    4.1241    0.2678   -2.0434 O   0  0  0  0  0  0  0  0  0  0  0  0
    4.5741    0.4570    0.4484 O   0  0  0  0  0  0  0  0  0  0  0  0
    4.3531   -1.9378   -0.6225 O   0  0  0  0  0  0  0  0  0  0  0  0
   -0.4820    1.0012    0.2094 C   0  0  1  0  0  0  0  0  0  0  0  0
   -1.9671    0.9937   -0.2268 C   0  0  0  0  0  0  0  0  0  0  0  0
   -2.9452    0.4252    0.8069 C   0  0  0  0  0  0  0  0  0  0  0  0
   -0.3037    1.7209    1.5520 C   0  0  0  0  0  0  0  0  0  0  0  0
    0.4081    1.5053   -0.9077 C   0  0  0  0  0  0  0  0  0  0  0  0
   -4.3468    0.3957    0.2627 C   0  0  0  0  0  0  0  0  0  0  0  0
   -4.9399   -0.6000   -0.4227 C   0  0  0  0  0  0  0  0  0  0  0  0
    1.3129    2.4901   -0.8476 C   0  0  0  0  0  0  0  0  0  0  0  0
   -6.3497   -0.5686   -0.9416 C   0  0  0  0  0  0  0  0  0  0  0  0
   -4.1962   -1.8760   -0.7135 C   0  0  0  0  0  0  0  0  0  0  0  0
   -2.2729    2.0163   -0.4879 H   0  0  0  0  0  0  0  0  0  0  0  0
   -2.0558    0.3978   -1.1464 H   0  0  0  0  0  0  0  0  0  0  0  0
   -2.9558    1.0563    1.7035 H   0  0  0  0  0  0  0  0  0  0  0  0
   -2.6312   -0.5660    1.1495 H   0  0  0  0  0  0  0  0  0  0  0  0
   -0.8400    2.6776    1.5471 H   0  0  0  0  0  0  0  0  0  0  0  0
    0.7343    1.9641    1.7903 H   0  0  0  0  0  0  0  0  0  0  0  0
   -0.6868    1.1235    2.3874 H   0  0  0  0  0  0  0  0  0  0  0  0
    0.3016    0.9933   -1.8636 H   0  0  0  0  0  0  0  0  0  0  0  0
   -4.9247    1.3016    0.4403 H   0  0  0  0  0  0  0  0  0  0  0  0
    1.8930    2.7438   -1.7291 H   0  0  0  0  0  0  0  0  0  0  0  0
    1.5009    3.0678    0.0481 H   0  0  0  0  0  0  0  0  0  0  0  0
   -6.8513    0.3714   -0.6890 H   0  0  0  0  0  0  0  0  0  0  0  0
   -6.3580   -0.6699   -2.0315 H   0  0  0  0  0  0  0  0  0  0  0  0
   -6.9341   -1.3867   -0.5085 H   0  0  0  0  0  0  0  0  0  0  0  0
   -4.6415   -2.7038   -0.1516 H   0  0  0  0  0  0  0  0  0  0  0  0
   -3.1303   -1.8469   -0.4781 H   0  0  0  0  0  0  0  0  0  0  0  0
   -4.2695   -2.1123   -1.7811 H   0  0  0  0  0  0  0  0  0  0  0  0
    1.1140   -2.8024    1.7051 H   0  0  0  0  0  0  0  0  0  0  0  0
    5.0076    0.2250   -2.4674 H   0  0  0  0  0  0  0  0  0  0  0  0
    5.5504    0.4500    0.5433 H   0  0  0  0  0  0  0  0  0  0  0  0
  1  3  1  0  0  0  0
  1  4  1  0  0  0  0
  1  5  1  0  0  0  0
  1  6  2  0  0  0  0
  2  4  1  0  0  0  0
  2  7  1  0  0  0  0
  2  8  1  0  0  0  0
  2  9  2  0  0  0  0
  3 10  1  0  0  0  0
  5 37  1  0  0  0  0
  7 38  1  0  0  0  0
  8 39  1  0  0  0  0
 10 11  1  0  0  0  0
 10 13  1  0  0  0  0
 10 14  1  0  0  0  0
 11 12  1  0  0  0  0
 11 20  1  0  0  0  0
 11 21  1  0  0  0  0
 12 15  1  0  0  0  0
 12 22  1  0  0  0  0
 12 23  1  0  0  0  0
 13 24  1  0  0  0  0
 13 25  1  0  0  0  0
 13 26  1  0  0  0  0
 14 17  2  0  0  0  0
 14 27  1  0  0  0  0
 15 16  2  0  0  0  0
 15 28  1  0  0  0  0
 16 18  1  0  0  0  0
 16 19  1  0  0  0  0
 17 29  1  0  0  0  0
 17 30  1  0  0  0  0
 18 31  1  0  0  0  0
 18 32  1  0  0  0  0
 18 33  1  0  0  0  0
 19 34  1  0  0  0  0
 19 35  1  0  0  0  0
 19 36  1  0  0  0  0
M  END
> <PUBCHEM_COMPOUND_CID>
152192

> <PUBCHEM_CONFORMER_RMSD>
0.8

> <PUBCHEM_CONFORMER_DIVERSEORDER>
3
182
199
171
9
38
187
154
203
110
114
155
133
54
22
175
196
11
88
69
26
183
161
115
153
112
33
208
170
100
138
122
56
28
123
160
84
147
180
162
139
206
188
127
78
177
121
146
85
149
117
111
75
77
113
64
46
17
202
148
70
10
163
79
129
66
99
45
200
19
98
144
126
60
39
124
195
193
134
106
168
93
119
95
159
197
53
194
82
59
52
191
16
204
141
184
74
132
41
185
205
12
172
109
108
86
167
179
198
4
7
27
118
189
137
81
89
40
37
34
103
164
20
174
1
65
94
190
143
145
83
42
71
6
14
128
76
166
32
120
107
21
91
135
73
158
2
169
131
43
47
97
48
165
62
173
104
178
8
101
72
61
35
5
25
90
30
87
92
58
67
63
29
102
23
157
181
152
57
142
186
31
96
192
201
156
13
125
207
130
140
150
68
36
15
51
44
80
50
116
176
18
49
55
24
105
151
136

> <PUBCHEM_MMFF94_PARTIAL_CHARGES>
24
1 1.51
10 0.42
12 0.14
14 -0.29
15 -0.29
16 -0.28
17 -0.3
18 0.14
19 0.14
2 1.51
27 0.15
28 0.15
29 0.15
3 -0.55
30 0.15
37 0.5
38 0.5
39 0.5
4 -0.54
5 -0.77
6 -0.7
7 -0.77
8 -0.77
9 -0.7

> <PUBCHEM_EFFECTIVE_ROTOR_COUNT>
8

> <PUBCHEM_PHARMACOPHORE_FEATURES>
8
1 17 hydrophobe
1 5 acceptor
1 6 acceptor
1 7 acceptor
1 8 acceptor
1 9 acceptor
3 16 18 19 hydrophobe
4 2 7 8 9 anion

> <PUBCHEM_HEAVY_ATOM_COUNT>
19

> <PUBCHEM_ATOM_DEF_STEREO_COUNT>
0

> <PUBCHEM_ATOM_UDEF_STEREO_COUNT>
1

> <PUBCHEM_BOND_DEF_STEREO_COUNT>
0

> <PUBCHEM_BOND_UDEF_STEREO_COUNT>
0

> <PUBCHEM_ISOTOPIC_ATOM_COUNT>
0

> <PUBCHEM_COMPONENT_COUNT>
1

> <PUBCHEM_CACTVS_TAUTO_COUNT>
1

> <PUBCHEM_CONFORMER_ID>
0002528000000003

> <PUBCHEM_MMFF94_ENERGY>
-13.9095

> <PUBCHEM_FEATURE_SELFOVERLAP>
40.641

> <PUBCHEM_SHAPE_FINGERPRINT>
10646746 165 11959737079146919055
11806522 49 18408885126738494265
12553582 1 18273497896929986593
12596602 18 6699798779075744415
13083527 12 17487358155353794666
14251764 30 16515676784267304278
14576447 43 18342178873310320923
14787075 74 18188494566728997872
15183329 4 18270975622220924493
15295992 7 7492702827654937903
15537594 2 18411138026929288971
17492 54 17988910146771336724
18222031 100 18411705399901868465
18915474 69 18408321068973511615
19784866 240 18186517701252520703
20388580 30 18408318873965914901
20645477 70 18130506332365158509
20871999 31 18059015098532138309
21256008 61 18343019986625553869
21637258 2 18041003985103010158
23402539 116 18339641247776057086
23559900 14 18187657851913872049
23596394 208 17632306665821634733
2871803 45 18202002157027555887
3060560 45 18201440255199174566
3286 77 18115866472780876944
42630746 31 18340773628562144164
4325135 7 18260552195490368284
465052 167 15140678064028237396
7495541 125 17168148927251188018

> <PUBCHEM_SHAPE_MULTIPOLES>
357.62
11.15
2.07
1.48
9.83
0
0.22
5.26
-4.33
-0.75
-0.15
-1.08
-0.19
-0.72

> <PUBCHEM_SHAPE_SELFOVERLAP>
663.647

> <PUBCHEM_SHAPE_VOLUME>
226.5

> <PUBCHEM_COORDINATE_TYPE>
2
5
10

$$$$

