442191
  -OEChem-07051212573D

 37 39  0     1  0  0  0  0  0999 V2000
    1.4552   -1.3775   -0.1496 O   0  0  0  0  0  0  0  0  0  0  0  0
    3.7449   -1.6941   -0.0755 O   0  0  0  0  0  0  0  0  0  0  0  0
   -1.5377    1.0524    0.0466 C   0  0  1  0  0  0  0  0  0  0  0  0
   -0.8197   -0.2993   -0.3421 C   0  0  1  0  0  0  0  0  0  0  0  0
    0.6211   -0.2644    0.2040 C   0  0  2  0  0  0  0  0  0  0  0  0
    1.3658    0.9084   -0.4186 C   0  0  1  0  0  0  0  0  0  0  0  0
   -0.7123    2.2716   -0.4599 C   0  0  0  0  0  0  0  0  0  0  0  0
    0.7612    2.2419   -0.0196 C   0  0  0  0  0  0  0  0  0  0  0  0
   -2.9255    1.0485   -0.6363 C   0  0  0  0  0  0  0  0  0  0  0  0
   -1.6819   -1.5101    0.0019 C   0  0  0  0  0  0  0  0  0  0  0  0
   -1.7304    1.2127    1.5801 C   0  0  0  0  0  0  0  0  0  0  0  0
   -3.7914   -0.1376   -0.1999 C   0  0  0  0  0  0  0  0  0  0  0  0
    2.7429    0.5146   -0.0361 C   0  0  0  0  0  0  0  0  0  0  0  0
   -3.0247   -1.4057    0.0426 C   0  0  0  0  0  0  0  0  0  0  0  0
    2.7662   -0.9709   -0.0733 C   0  0  0  0  0  0  0  0  0  0  0  0
   -1.0289   -2.8440    0.2199 C   0  0  0  0  0  0  0  0  0  0  0  0
    3.7952    1.2535    0.3160 C   0  0  0  0  0  0  0  0  0  0  0  0
   -0.7312   -0.3420   -1.4397 H   0  0  0  0  0  0  0  0  0  0  0  0
    0.6025   -0.2225    1.3018 H   0  0  0  0  0  0  0  0  0  0  0  0
    1.3230    0.8332   -1.5167 H   0  0  0  0  0  0  0  0  0  0  0  0
   -1.1704    3.2093   -0.1211 H   0  0  0  0  0  0  0  0  0  0  0  0
   -0.7422    2.2953   -1.5576 H   0  0  0  0  0  0  0  0  0  0  0  0
    1.3005    3.0638   -0.5051 H   0  0  0  0  0  0  0  0  0  0  0  0
    0.8483    2.4069    1.0599 H   0  0  0  0  0  0  0  0  0  0  0  0
   -2.7930    1.0026   -1.7260 H   0  0  0  0  0  0  0  0  0  0  0  0
   -3.4630    1.9837   -0.4348 H   0  0  0  0  0  0  0  0  0  0  0  0
   -2.2592    0.3697    2.0337 H   0  0  0  0  0  0  0  0  0  0  0  0
   -0.7820    1.3088    2.1152 H   0  0  0  0  0  0  0  0  0  0  0  0
   -2.3129    2.1154    1.7998 H   0  0  0  0  0  0  0  0  0  0  0  0
   -4.5595   -0.3187   -0.9607 H   0  0  0  0  0  0  0  0  0  0  0  0
   -4.3235    0.1205    0.7237 H   0  0  0  0  0  0  0  0  0  0  0  0
   -3.6258   -2.2827    0.2703 H   0  0  0  0  0  0  0  0  0  0  0  0
   -1.7621   -3.6417    0.3824 H   0  0  0  0  0  0  0  0  0  0  0  0
   -0.3828   -2.8174    1.1027 H   0  0  0  0  0  0  0  0  0  0  0  0
   -0.4355   -3.1269   -0.6551 H   0  0  0  0  0  0  0  0  0  0  0  0
    3.7321    2.3358    0.3424 H   0  0  0  0  0  0  0  0  0  0  0  0
    4.7432    0.8002    0.5853 H   0  0  0  0  0  0  0  0  0  0  0  0
  1  5  1  0  0  0  0
  1 15  1  0  0  0  0
  2 15  2  0  0  0  0
  3  4  1  0  0  0  0
  3  7  1  0  0  0  0
  3  9  1  0  0  0  0
  3 11  1  0  0  0  0
  4  5  1  0  0  0  0
  4 10  1  0  0  0  0
  4 18  1  0  0  0  0
  5  6  1  0  0  0  0
  5 19  1  0  0  0  0
  6  8  1  0  0  0  0
  6 13  1  0  0  0  0
  6 20  1  0  0  0  0
  7  8  1  0  0  0  0
  7 21  1  0  0  0  0
  7 22  1  0  0  0  0
  8 23  1  0  0  0  0
  8 24  1  0  0  0  0
  9 12  1  0  0  0  0
  9 25  1  0  0  0  0
  9 26  1  0  0  0  0
 10 14  2  0  0  0  0
 10 16  1  0  0  0  0
 11 27  1  0  0  0  0
 11 28  1  0  0  0  0
 11 29  1  0  0  0  0
 12 14  1  0  0  0  0
 12 30  1  0  0  0  0
 12 31  1  0  0  0  0
 13 15  1  0  0  0  0
 13 17  2  0  0  0  0
 14 32  1  0  0  0  0
 16 33  1  0  0  0  0
 16 34  1  0  0  0  0
 16 35  1  0  0  0  0
 17 36  1  0  0  0  0
 17 37  1  0  0  0  0
M  END
> <PUBCHEM_COMPOUND_CID>
442191

> <PUBCHEM_CONFORMER_RMSD>
0.6

> <PUBCHEM_CONFORMER_DIVERSEORDER>
1

> <PUBCHEM_MMFF94_PARTIAL_CHARGES>
15
1 -0.43
10 -0.28
12 0.14
13 -0.12
14 -0.29
15 0.71
16 0.14
17 -0.3
2 -0.57
32 0.15
36 0.15
37 0.15
4 0.14
5 0.28
6 0.14

> <PUBCHEM_EFFECTIVE_ROTOR_COUNT>
1

> <PUBCHEM_PHARMACOPHORE_FEATURES>
4
1 2 acceptor
5 1 5 6 13 15 rings
6 3 4 5 6 7 8 rings
6 3 4 9 10 12 14 rings

> <PUBCHEM_HEAVY_ATOM_COUNT>
17

> <PUBCHEM_ATOM_DEF_STEREO_COUNT>
4

> <PUBCHEM_ATOM_UDEF_STEREO_COUNT>
0

> <PUBCHEM_BOND_DEF_STEREO_COUNT>
0

> <PUBCHEM_BOND_UDEF_STEREO_COUNT>
0

> <PUBCHEM_ISOTOPIC_ATOM_COUNT>
0

> <PUBCHEM_COMPONENT_COUNT>
1

> <PUBCHEM_CACTVS_TAUTO_COUNT>
1

> <PUBCHEM_CONFORMER_ID>
0006BF4F00000001

> <PUBCHEM_MMFF94_ENERGY>
45.8287

> <PUBCHEM_FEATURE_SELFOVERLAP>
20.389

> <PUBCHEM_SHAPE_FINGERPRINT>
10608611 8 18410862057356476428
10967382 1 18339361864052657214
1100329 8 16754662508496227427
11132069 177 18411423877896983752
11680986 33 18337954467688940761
12382932 28 18410857642203734840
13027679 85 18117558423185788953
13140716 1 18338793549653421979
13172582 1 18338503261551668633
14144814 61 18410572885676753202
14289901 80 16081084887650892132
15001771 113 18265888056373479889
15196674 1 18411139138744926743
15309172 13 18267294503475376137
15442244 35 18337953497374517394
15536298 74 18334858320660697212
16945 1 18195808458031492517
17804303 29 18264765631316764854
193761 8 17907578021607794325
200 152 17968386701355640565
20201158 50 18338801104685570103
20510252 161 18334295383439476633
21267235 1 18411129242903244166
21501502 16 18408317813477835472
22721475 48 18337387145569581823
2334 1 18411134731865920358
23402539 116 18262249896745570575
23419403 2 16315076256430462143
23463225 33 18411980252023164988
23559900 14 18336552702765918442
2748010 2 18411416236844027271
3286 77 17168441444356825010
3312278 4 18265329508481819146
335352 9 18195247934375806757
34934 24 18338806606485824836
427121 178 16013487037745936257
5104073 3 18410856568282492115
69090 78 18410862049009095975
7364860 26 18192150395493776968
8809292 202 18341891900559362490
9709674 26 18409446947337316278

> <PUBCHEM_SHAPE_MULTIPOLES>
338.11
5.87
2.63
0.83
2.24
0.59
-0.22
0.83
0.1
-0.15
-0.03
-0.32
-0.26
0.1

> <PUBCHEM_SHAPE_SELFOVERLAP>
722.931

> <PUBCHEM_SHAPE_VOLUME>
186.1

> <PUBCHEM_COORDINATE_TYPE>
2
5
10

$$$$

