440312
  -OEChem-07051212492D

 16 15  0     0  0  0  0  0  0999 V2000
    2.5369    0.3100    0.0000 S   0  0  0  0  0  0  0  0  0  0  0  0
    3.4030   -1.1900    0.0000 S   0  0  0  0  0  0  0  0  0  0  0  0
    6.0010    0.3100    0.0000 O   0  0  0  0  0  0  0  0  0  0  0  0
    5.1350    1.8100    0.0000 O   0  0  0  0  0  0  0  0  0  0  0  0
    4.2690    0.3100    0.0000 C   0  0  0  0  0  0  0  0  0  0  0  0
    3.4030    0.8100    0.0000 C   0  0  0  0  0  0  0  0  0  0  0  0
    4.2690   -0.6900    0.0000 C   0  0  0  0  0  0  0  0  0  0  0  0
    5.1350    0.8100    0.0000 C   0  0  0  0  0  0  0  0  0  0  0  0
    4.2690    0.9300    0.0000 H   0  0  0  0  0  0  0  0  0  0  0  0
    3.8015    1.2850    0.0000 H   0  0  0  0  0  0  0  0  0  0  0  0
    3.0044    1.2850    0.0000 H   0  0  0  0  0  0  0  0  0  0  0  0
    4.4810   -1.2726    0.0000 H   0  0  0  0  0  0  0  0  0  0  0  0
    4.8796   -0.5823    0.0000 H   0  0  0  0  0  0  0  0  0  0  0  0
    2.0000    0.6200    0.0000 H   0  0  0  0  0  0  0  0  0  0  0  0
    3.4030   -1.8100    0.0000 H   0  0  0  0  0  0  0  0  0  0  0  0
    6.5380    0.6200    0.0000 H   0  0  0  0  0  0  0  0  0  0  0  0
  1  6  1  0  0  0  0
  1 14  1  0  0  0  0
  2  7  1  0  0  0  0
  2 15  1  0  0  0  0
  3  8  1  0  0  0  0
  3 16  1  0  0  0  0
  4  8  2  0  0  0  0
  5  6  1  0  0  0  0
  5  7  1  0  0  0  0
  5  8  1  0  0  0  0
  5  9  1  0  0  0  0
  6 10  1  0  0  0  0
  6 11  1  0  0  0  0
  7 12  1  0  0  0  0
  7 13  1  0  0  0  0
M  END
> <PUBCHEM_COMPOUND_CID>
440312

> <PUBCHEM_COMPOUND_CANONICALIZED>
1

> <PUBCHEM_CACTVS_COMPLEXITY>
80.1

> <PUBCHEM_CACTVS_HBOND_ACCEPTOR>
4

> <PUBCHEM_CACTVS_HBOND_DONOR>
3

> <PUBCHEM_CACTVS_ROTATABLE_BOND>
3

> <PUBCHEM_CACTVS_SUBSKEYS>
AAADccBgMABgAAAAAAAAAAAAAAAAAAAAAAAAAAAAAAAAAAAAAAAAGgQACAAADQCEwACACAAAAgQIAACQCAAAAAAAAAAAAAEAAAAAAAAAAAAAQAAAAAAAAAAAAAAAAAAAAAAAAAAAAAAAAAAAAAAAAAAAAA==

> <PUBCHEM_IUPAC_OPENEYE_NAME>
3-sulfanyl-2-(sulfanylmethyl)propanoic acid

> <PUBCHEM_IUPAC_CAS_NAME>
3-mercapto-2-(mercaptomethyl)propanoic acid

> <PUBCHEM_IUPAC_NAME>
3-sulfanyl-2-(sulfanylmethyl)propanoic acid

> <PUBCHEM_IUPAC_SYSTEMATIC_NAME>
3-sulfanyl-2-(sulfanylmethyl)propanoic acid

> <PUBCHEM_IUPAC_TRADITIONAL_NAME>
3-mercapto-2-(mercaptomethyl)propionic acid

> <PUBCHEM_IUPAC_INCHI>
InChI=1S/C4H8O2S2/c5-4(6)3(1-7)2-8/h3,7-8H,1-2H2,(H,5,6)

> <PUBCHEM_IUPAC_INCHIKEY>
KRHAHEQEKNJCSD-UHFFFAOYSA-N

> <PUBCHEM_XLOGP3_AA>
0.3

> <PUBCHEM_EXACT_MASS>
151.996571

> <PUBCHEM_MOLECULAR_FORMULA>
C4H8O2S2

> <PUBCHEM_MOLECULAR_WEIGHT>
152.23512

> <PUBCHEM_OPENEYE_CAN_SMILES>
C(C(CS)C(=O)O)S

> <PUBCHEM_OPENEYE_ISO_SMILES>
C(C(CS)C(=O)O)S

> <PUBCHEM_CACTVS_TPSA>
39.3

> <PUBCHEM_MONOISOTOPIC_WEIGHT>
151.996571

> <PUBCHEM_TOTAL_CHARGE>
0

> <PUBCHEM_HEAVY_ATOM_COUNT>
8

> <PUBCHEM_ATOM_DEF_STEREO_COUNT>
0

> <PUBCHEM_ATOM_UDEF_STEREO_COUNT>
0

> <PUBCHEM_BOND_DEF_STEREO_COUNT>
0

> <PUBCHEM_BOND_UDEF_STEREO_COUNT>
0

> <PUBCHEM_ISOTOPIC_ATOM_COUNT>
0

> <PUBCHEM_COMPONENT_COUNT>
1

> <PUBCHEM_CACTVS_TAUTO_COUNT>
1

> <PUBCHEM_COORDINATE_TYPE>
1
5
255

$$$$

