41463
  -OEChem-07051213123D

 48 49  0     0  0  0  0  0  0999 V2000
   -6.5532    0.3729   -1.7887 Cl  0  0  0  0  0  0  0  0  0  0  0  0
   -0.5304    3.0803    1.3948 S   0  0  0  0  0  0  0  0  0  0  0  0
   -2.3920    1.2285    1.0600 O   0  0  0  0  0  0  0  0  0  0  0  0
   -1.3191    1.9756   -0.8616 O   0  0  0  0  0  0  0  0  0  0  0  0
   -3.4490   -1.7419   -0.8366 N   0  0  0  0  0  0  0  0  0  0  0  0
   -4.6295   -1.3132   -1.3586 N   0  0  0  0  0  0  0  0  0  0  0  0
    3.9915    0.7260    0.0382 C   0  0  0  0  0  0  0  0  0  0  0  0
    5.3184    0.7539   -0.7258 C   0  0  0  0  0  0  0  0  0  0  0  0
    3.1576    1.9962   -0.1443 C   0  0  0  0  0  0  0  0  0  0  0  0
    6.1855   -0.4837   -0.4853 C   0  0  0  0  0  0  0  0  0  0  0  0
    1.8545    1.9244    0.6580 C   0  0  0  0  0  0  0  0  0  0  0  0
    7.5259   -0.3699   -1.2129 C   0  0  0  0  0  0  0  0  0  0  0  0
    1.0124    3.1786    0.4433 C   0  0  0  0  0  0  0  0  0  0  0  0
    8.4083   -1.5793   -0.9474 C   0  0  0  0  0  0  0  0  0  0  0  0
   -1.4762    2.0079    0.3541 C   0  0  0  0  0  0  0  0  0  0  0  0
   -3.1448    0.3765    0.2464 C   0  0  0  0  0  0  0  0  0  0  0  0
   -2.7335   -0.9065   -0.0540 C   0  0  0  0  0  0  0  0  0  0  0  0
   -1.4977   -1.4605    0.4469 C   0  0  0  0  0  0  0  0  0  0  0  0
   -1.2889   -1.5691    1.8219 C   0  0  0  0  0  0  0  0  0  0  0  0
   -0.5128   -1.8876   -0.4439 C   0  0  0  0  0  0  0  0  0  0  0  0
   -4.3457    0.8129   -0.2850 C   0  0  0  0  0  0  0  0  0  0  0  0
   -0.0954   -2.1046    2.3060 C   0  0  0  0  0  0  0  0  0  0  0  0
    0.6807   -2.4232    0.0404 C   0  0  0  0  0  0  0  0  0  0  0  0
    0.8893   -2.5316    1.4153 C   0  0  0  0  0  0  0  0  0  0  0  0
   -5.0560   -0.0627   -1.0815 C   0  0  0  0  0  0  0  0  0  0  0  0
    4.1977    0.5831    1.1063 H   0  0  0  0  0  0  0  0  0  0  0  0
    3.4082   -0.1433   -0.2899 H   0  0  0  0  0  0  0  0  0  0  0  0
    5.8793    1.6486   -0.4276 H   0  0  0  0  0  0  0  0  0  0  0  0
    5.1138    0.8523   -1.7991 H   0  0  0  0  0  0  0  0  0  0  0  0
    2.9303    2.1321   -1.2085 H   0  0  0  0  0  0  0  0  0  0  0  0
    3.7403    2.8680    0.1771 H   0  0  0  0  0  0  0  0  0  0  0  0
    5.6511   -1.3785   -0.8265 H   0  0  0  0  0  0  0  0  0  0  0  0
    6.3614   -0.6025    0.5907 H   0  0  0  0  0  0  0  0  0  0  0  0
    1.2954    1.0334    0.3467 H   0  0  0  0  0  0  0  0  0  0  0  0
    2.0923    1.8054    1.7226 H   0  0  0  0  0  0  0  0  0  0  0  0
    7.3566   -0.2760   -2.2919 H   0  0  0  0  0  0  0  0  0  0  0  0
    8.0520    0.5350   -0.8868 H   0  0  0  0  0  0  0  0  0  0  0  0
    1.5631    4.0558    0.8001 H   0  0  0  0  0  0  0  0  0  0  0  0
    0.7996    3.3433   -0.6177 H   0  0  0  0  0  0  0  0  0  0  0  0
    8.6241   -1.6807    0.1210 H   0  0  0  0  0  0  0  0  0  0  0  0
    9.3600   -1.4779   -1.4782 H   0  0  0  0  0  0  0  0  0  0  0  0
    7.9247   -2.4999   -1.2894 H   0  0  0  0  0  0  0  0  0  0  0  0
   -2.0461   -1.2499    2.5342 H   0  0  0  0  0  0  0  0  0  0  0  0
   -0.6549   -1.8063   -1.5190 H   0  0  0  0  0  0  0  0  0  0  0  0
   -4.7121    1.8131   -0.0771 H   0  0  0  0  0  0  0  0  0  0  0  0
    0.0669   -2.1901    3.3764 H   0  0  0  0  0  0  0  0  0  0  0  0
    1.4488   -2.7533   -0.6528 H   0  0  0  0  0  0  0  0  0  0  0  0
    1.8192   -2.9474    1.7922 H   0  0  0  0  0  0  0  0  0  0  0  0
  1 25  1  0  0  0  0
  2 13  1  0  0  0  0
  2 15  1  0  0  0  0
  3 15  1  0  0  0  0
  3 16  1  0  0  0  0
  4 15  2  0  0  0  0
  5  6  1  0  0  0  0
  5 17  2  0  0  0  0
  6 25  2  0  0  0  0
  7  8  1  0  0  0  0
  7  9  1  0  0  0  0
  7 26  1  0  0  0  0
  7 27  1  0  0  0  0
  8 10  1  0  0  0  0
  8 28  1  0  0  0  0
  8 29  1  0  0  0  0
  9 11  1  0  0  0  0
  9 30  1  0  0  0  0
  9 31  1  0  0  0  0
 10 12  1  0  0  0  0
 10 32  1  0  0  0  0
 10 33  1  0  0  0  0
 11 13  1  0  0  0  0
 11 34  1  0  0  0  0
 11 35  1  0  0  0  0
 12 14  1  0  0  0  0
 12 36  1  0  0  0  0
 12 37  1  0  0  0  0
 13 38  1  0  0  0  0
 13 39  1  0  0  0  0
 14 40  1  0  0  0  0
 14 41  1  0  0  0  0
 14 42  1  0  0  0  0
 16 17  1  0  0  0  0
 16 21  2  0  0  0  0
 17 18  1  0  0  0  0
 18 19  2  0  0  0  0
 18 20  1  0  0  0  0
 19 22  1  0  0  0  0
 19 43  1  0  0  0  0
 20 23  2  0  0  0  0
 20 44  1  0  0  0  0
 21 25  1  0  0  0  0
 21 45  1  0  0  0  0
 22 24  2  0  0  0  0
 22 46  1  0  0  0  0
 23 24  1  0  0  0  0
 23 47  1  0  0  0  0
 24 48  1  0  0  0  0
M  END
> <PUBCHEM_COMPOUND_CID>
41463

> <PUBCHEM_CONFORMER_RMSD>
1.2

> <PUBCHEM_CONFORMER_DIVERSEORDER>
1
44
9
38
22
62
51
35
47
26
31
85
78
63
79
45
5
68
12
24
33
53
75
71
36
21
34
10
77
80
69
48
60
49
52
83
8
58
59
13
30
6
40
50
16
17
28
61
14
70
11
54
57
7
25
39
20
37
19
29
4
81
32
43
73
15
82
18
2
3
74
76
55
67
72
23
56
64
65
46
27
66
84
42
41

> <PUBCHEM_MMFF94_PARTIAL_CHARGES>
23
1 -0.18
13 0.23
15 0.86
16 0.08
17 0.31
19 -0.15
2 -0.37
20 -0.15
21 -0.15
22 -0.15
23 -0.15
24 -0.15
25 0.49
3 -0.23
4 -0.57
43 0.15
44 0.15
45 0.15
46 0.15
47 0.15
48 0.15
5 -0.31
6 -0.31

> <PUBCHEM_EFFECTIVE_ROTOR_COUNT>
11

> <PUBCHEM_PHARMACOPHORE_FEATURES>
5
1 14 hydrophobe
1 5 acceptor
1 6 acceptor
6 18 19 20 22 23 24 rings
6 5 6 16 17 21 25 rings

> <PUBCHEM_HEAVY_ATOM_COUNT>
25

> <PUBCHEM_ATOM_DEF_STEREO_COUNT>
0

> <PUBCHEM_ATOM_UDEF_STEREO_COUNT>
0

> <PUBCHEM_BOND_DEF_STEREO_COUNT>
0

> <PUBCHEM_BOND_UDEF_STEREO_COUNT>
0

> <PUBCHEM_ISOTOPIC_ATOM_COUNT>
0

> <PUBCHEM_COMPONENT_COUNT>
1

> <PUBCHEM_CACTVS_TAUTO_COUNT>
1

> <PUBCHEM_CONFORMER_ID>
0000A1F700000001

> <PUBCHEM_MMFF94_ENERGY>
51.4087

> <PUBCHEM_FEATURE_SELFOVERLAP>
26.967

> <PUBCHEM_SHAPE_FINGERPRINT>
10483366 6 18335704965682758815
10670039 82 18410574033192637650
10693767 8 17246977134000954119
10764073 3 17839144504338156315
107951 10 16988567857787072497
11578080 2 17344369967049492933
12011746 2 18341897385232443748
12788726 201 18339922723132686840
13402501 40 18409164399024528276
14251740 79 18412256260081839216
14931854 50 18341899623105395564
15163728 17 16557373572718054717
15183329 4 18343579669074408810
15322534 239 18342731936713432826
15420108 30 17681820032727569697
15927050 60 17830729125211316072
17492 54 18272657865276742321
17627616 140 17986109832790693546
19958102 18 18202277027357415422
20775438 99 17032505269835356902
20832881 197 18188209797829109505
21133410 230 17273389752351683331
21279426 13 18340493270113010524
23559900 14 18190185589632100040
3004659 81 18342178847936441964
3383291 50 18411416172989880090
4058900 60 17417819503747401185
4403749 210 16963530651200855656
6138700 20 18409166618968738852
6376802 137 17603579747372432944

> <PUBCHEM_SHAPE_MULTIPOLES>
498.51
15.93
3.55
1.65
29.5
1.3
0.45
-3.97
-12.96
0.54
1.53
-1.01
-0.61
0.29

> <PUBCHEM_SHAPE_SELFOVERLAP>
999.045

> <PUBCHEM_SHAPE_VOLUME>
294.9

> <PUBCHEM_COORDINATE_TYPE>
2
5
10

$$$$

