120290
  -OEChem-07051213003D

 65 66  0     0  0  0  0  0  0999 V2000
   -1.4645    3.5757    0.7731 O   0  0  0  0  0  0  0  0  0  0  0  0
   -1.3024   -1.0661    1.6705 O   0  0  0  0  0  0  0  0  0  0  0  0
   -4.4874    0.5227   -1.4949 O   0  0  0  0  0  0  0  0  0  0  0  0
    0.6435    1.5134   -0.5318 O   0  0  0  0  0  0  0  0  0  0  0  0
    1.2343   -0.2404    3.8728 O   0  0  0  0  0  0  0  0  0  0  0  0
   -4.3558   -2.1850    0.5181 O   0  0  0  0  0  0  0  0  0  0  0  0
    4.3102   -1.4103    0.4095 O   0  0  0  0  0  0  0  0  0  0  0  0
    2.5018   -0.6447   -2.3237 O   0  0  0  0  0  0  0  0  0  0  0  0
   -3.1131    2.2166   -0.4633 C   0  0  0  0  0  0  0  0  0  0  0  0
   -1.9676    2.3062    0.5247 C   0  0  0  0  0  0  0  0  0  0  0  0
   -1.4353    1.2424    1.1542 C   0  0  0  0  0  0  0  0  0  0  0  0
   -3.5818    0.7688   -0.6932 C   0  0  0  0  0  0  0  0  0  0  0  0
   -0.2907    1.3810    2.1304 C   0  0  0  0  0  0  0  0  0  0  0  0
   -2.9518   -0.3626    0.0563 C   0  0  0  0  0  0  0  0  0  0  0  0
   -4.3312    2.9992    0.0614 C   0  0  0  0  0  0  0  0  0  0  0  0
   -2.6787    2.7659   -1.8356 C   0  0  0  0  0  0  0  0  0  0  0  0
   -1.9500   -0.1033    0.9183 C   0  0  0  0  0  0  0  0  0  0  0  0
    0.9297    0.6418    1.6731 C   0  0  0  0  0  0  0  0  0  0  0  0
   -3.4422   -1.7355   -0.1718 C   0  0  0  0  0  0  0  0  0  0  0  0
    1.3468    0.7421    0.3473 C   0  0  0  0  0  0  0  0  0  0  0  0
    1.6439   -0.1444    2.5750 C   0  0  0  0  0  0  0  0  0  0  0  0
    2.4827    0.0534   -0.0783 C   0  0  0  0  0  0  0  0  0  0  0  0
   -2.7643   -2.5216   -1.2792 C   0  0  0  0  0  0  0  0  0  0  0  0
    2.7798   -0.8329    2.1495 C   0  0  0  0  0  0  0  0  0  0  0  0
    3.1992   -0.7340    0.8229 C   0  0  0  0  0  0  0  0  0  0  0  0
   -3.3635   -3.9149   -1.4548 C   0  0  0  0  0  0  0  0  0  0  0  0
    2.9208    0.1559   -1.4662 C   0  0  0  0  0  0  0  0  0  0  0  0
    3.5481   -1.6767    3.1162 C   0  0  0  0  0  0  0  0  0  0  0  0
    3.9079    1.2614   -1.8764 C   0  0  0  0  0  0  0  0  0  0  0  0
    4.7930    0.8729   -3.0606 C   0  0  0  0  0  0  0  0  0  0  0  0
   -2.6491   -4.6958   -2.5457 C   0  0  0  0  0  0  0  0  0  0  0  0
    5.7736    1.9804   -3.4104 C   0  0  0  0  0  0  0  0  0  0  0  0
    4.1143   -2.7316   -0.0873 C   0  0  0  0  0  0  0  0  0  0  0  0
   -0.6434    1.0333    3.1098 H   0  0  0  0  0  0  0  0  0  0  0  0
   -0.0002    2.4270    2.2878 H   0  0  0  0  0  0  0  0  0  0  0  0
   -5.1831    2.9210   -0.6244 H   0  0  0  0  0  0  0  0  0  0  0  0
   -4.1152    4.0659    0.1851 H   0  0  0  0  0  0  0  0  0  0  0  0
   -4.6626    2.6092    1.0315 H   0  0  0  0  0  0  0  0  0  0  0  0
   -3.4863    2.6864   -2.5730 H   0  0  0  0  0  0  0  0  0  0  0  0
   -1.8247    2.2038   -2.2326 H   0  0  0  0  0  0  0  0  0  0  0  0
   -2.3922    3.8219   -1.7880 H   0  0  0  0  0  0  0  0  0  0  0  0
   -1.6989   -2.6063   -1.0359 H   0  0  0  0  0  0  0  0  0  0  0  0
   -2.8646   -1.9570   -2.2133 H   0  0  0  0  0  0  0  0  0  0  0  0
   -1.9738    4.2226    0.2593 H   0  0  0  0  0  0  0  0  0  0  0  0
   -1.6927   -1.9341    1.4760 H   0  0  0  0  0  0  0  0  0  0  0  0
   -3.2992   -4.4713   -0.5121 H   0  0  0  0  0  0  0  0  0  0  0  0
   -4.4285   -3.8345   -1.7032 H   0  0  0  0  0  0  0  0  0  0  0  0
    3.7838   -1.1092    4.0235 H   0  0  0  0  0  0  0  0  0  0  0  0
    4.5119   -2.0137    2.7228 H   0  0  0  0  0  0  0  0  0  0  0  0
    2.9708   -2.5681    3.3832 H   0  0  0  0  0  0  0  0  0  0  0  0
    3.3185    2.1525   -2.1211 H   0  0  0  0  0  0  0  0  0  0  0  0
    4.5380    1.4995   -1.0114 H   0  0  0  0  0  0  0  0  0  0  0  0
    1.0103    1.4418   -1.4271 H   0  0  0  0  0  0  0  0  0  0  0  0
    5.3447   -0.0448   -2.8246 H   0  0  0  0  0  0  0  0  0  0  0  0
    4.1712    0.6519   -3.9361 H   0  0  0  0  0  0  0  0  0  0  0  0
    1.7038   -0.9490    4.3391 H   0  0  0  0  0  0  0  0  0  0  0  0
   -2.7244   -4.1819   -3.5092 H   0  0  0  0  0  0  0  0  0  0  0  0
   -3.0951   -5.6893   -2.6548 H   0  0  0  0  0  0  0  0  0  0  0  0
   -1.5886   -4.8240   -2.3060 H   0  0  0  0  0  0  0  0  0  0  0  0
    6.4355    2.1991   -2.5664 H   0  0  0  0  0  0  0  0  0  0  0  0
    6.3947    1.6820   -4.2608 H   0  0  0  0  0  0  0  0  0  0  0  0
    5.2457    2.9003   -3.6811 H   0  0  0  0  0  0  0  0  0  0  0  0
    3.4617   -2.7306   -0.9648 H   0  0  0  0  0  0  0  0  0  0  0  0
    3.6912   -3.3793    0.6868 H   0  0  0  0  0  0  0  0  0  0  0  0
    5.0883   -3.1330   -0.3807 H   0  0  0  0  0  0  0  0  0  0  0  0
  1 10  1  0  0  0  0
  1 44  1  0  0  0  0
  2 17  1  0  0  0  0
  2 45  1  0  0  0  0
  3 12  2  0  0  0  0
  4 20  1  0  0  0  0
  4 53  1  0  0  0  0
  5 21  1  0  0  0  0
  5 56  1  0  0  0  0
  6 19  2  0  0  0  0
  7 25  1  0  0  0  0
  7 33  1  0  0  0  0
  8 27  2  0  0  0  0
  9 10  1  0  0  0  0
  9 12  1  0  0  0  0
  9 15  1  0  0  0  0
  9 16  1  0  0  0  0
 10 11  2  0  0  0  0
 11 13  1  0  0  0  0
 11 17  1  0  0  0  0
 12 14  1  0  0  0  0
 13 18  1  0  0  0  0
 13 34  1  0  0  0  0
 13 35  1  0  0  0  0
 14 17  2  0  0  0  0
 14 19  1  0  0  0  0
 15 36  1  0  0  0  0
 15 37  1  0  0  0  0
 15 38  1  0  0  0  0
 16 39  1  0  0  0  0
 16 40  1  0  0  0  0
 16 41  1  0  0  0  0
 18 20  2  0  0  0  0
 18 21  1  0  0  0  0
 19 23  1  0  0  0  0
 20 22  1  0  0  0  0
 21 24  2  0  0  0  0
 22 25  2  0  0  0  0
 22 27  1  0  0  0  0
 23 26  1  0  0  0  0
 23 42  1  0  0  0  0
 23 43  1  0  0  0  0
 24 25  1  0  0  0  0
 24 28  1  0  0  0  0
 26 31  1  0  0  0  0
 26 46  1  0  0  0  0
 26 47  1  0  0  0  0
 27 29  1  0  0  0  0
 28 48  1  0  0  0  0
 28 49  1  0  0  0  0
 28 50  1  0  0  0  0
 29 30  1  0  0  0  0
 29 51  1  0  0  0  0
 29 52  1  0  0  0  0
 30 32  1  0  0  0  0
 30 54  1  0  0  0  0
 30 55  1  0  0  0  0
 31 57  1  0  0  0  0
 31 58  1  0  0  0  0
 31 59  1  0  0  0  0
 32 60  1  0  0  0  0
 32 61  1  0  0  0  0
 32 62  1  0  0  0  0
 33 63  1  0  0  0  0
 33 64  1  0  0  0  0
 33 65  1  0  0  0  0
M  END
> <PUBCHEM_COMPOUND_CID>
120290

> <PUBCHEM_CONFORMER_RMSD>
1

> <PUBCHEM_CONFORMER_DIVERSEORDER>
10
82
95
102
159
154
109
90
18
76
34
47
168
45
36
112
16
142
33
81
141
161
150
87
143
144
43
120
67
39
14
7
146
46
63
118
129
124
104
42
119
108
35
74
152
115
114
37
132
160
145
91
128
165
116
1
23
26
57
157
44
121
170
88
139
49
137
136
64
85
71
72
50
140
86
4
171
125
31
29
134
62
117
41
96
6
84
20
40
130
17
110
68
166
156
135
53
2
167
77
60
54
148
30
92
28
65
73
58
163
13
32
38
105
5
100
66
149
113
127
19
151
51
162
11
9
27
158
22
123
97
3
107
131
164
69
24
12
138
111
169
21
80
103
89
147
70
153
15
83
106
48
101
155
59
79
98
52
78
55
172
25
56
93
99
75
8
122
61
133
94
126

> <PUBCHEM_MMFF94_PARTIAL_CHARGES>
31
1 -0.53
10 -0.06
11 -0.14
12 0.49
13 0.28
14 0.03
17 0.08
18 -0.14
19 0.49
2 -0.53
20 0.08
21 0.08
22 0.09
23 0.06
24 -0.14
25 0.08
27 0.42
28 0.14
29 0.06
3 -0.57
33 0.28
4 -0.53
44 0.45
45 0.45
5 -0.53
53 0.45
56 0.45
6 -0.57
7 -0.36
8 -0.57
9 0.2

> <PUBCHEM_EFFECTIVE_ROTOR_COUNT>
9.2

> <PUBCHEM_PHARMACOPHORE_FEATURES>
14
1 1 donor
1 14 anion
1 2 donor
1 3 acceptor
1 31 hydrophobe
1 32 hydrophobe
1 4 donor
1 5 donor
1 6 acceptor
1 7 acceptor
1 8 acceptor
3 9 15 16 hydrophobe
6 18 20 21 22 24 25 rings
6 9 10 11 12 14 17 rings

> <PUBCHEM_HEAVY_ATOM_COUNT>
33

> <PUBCHEM_ATOM_DEF_STEREO_COUNT>
0

> <PUBCHEM_ATOM_UDEF_STEREO_COUNT>
0

> <PUBCHEM_BOND_DEF_STEREO_COUNT>
0

> <PUBCHEM_BOND_UDEF_STEREO_COUNT>
0

> <PUBCHEM_ISOTOPIC_ATOM_COUNT>
0

> <PUBCHEM_COMPONENT_COUNT>
1

> <PUBCHEM_CACTVS_TAUTO_COUNT>
399

> <PUBCHEM_CONFORMER_ID>
0001D5E20000000A

> <PUBCHEM_MMFF94_ENERGY>
102.6259

> <PUBCHEM_FEATURE_SELFOVERLAP>
71.041

> <PUBCHEM_SHAPE_FINGERPRINT>
10928967 22 18116432544464489911
11049842 53 17687460578162585136
11331351 85 17556312983929223122
11421498 54 18128254480727393150
12788726 201 18340760456229262999
13726171 33 18265310911311214665
13911987 19 16556759877383425668
14932701 244 17414407534055446154
15448158 6 17241862351452235543
15484559 13 13384331749642843806
15664445 248 17472996003948991685
17980427 23 17631747044847702280
17980427 26 17275099570458036678
1813 80 18050299068264801035
19309040 13 17699811224932204188
20511986 3 18060149768419658956
20603629 256 14273463569541257352
20775530 9 17825382982097221359
21133410 62 14013147191033330150
21781051 124 18341620343711632067
22122407 14 16555645264852103661
22393880 68 18337376181003866156
22440779 20 16300042715559128080
22907989 373 18411974797794896973
23559900 14 18115323292287769240
3388396 114 17489306326564723492
3737641 26 4678545620697297496
508180 173 14401297292238440802
574716 61 17704354385333947687
633830 44 17274811493789622504
9981440 41 16843864397058548096

> <PUBCHEM_SHAPE_MULTIPOLES>
632.17
10.16
4.29
3.58
5.22
3.31
-0.34
0.69
7.25
-5.9
2.85
5.35
0.33
-3.92

> <PUBCHEM_SHAPE_SELFOVERLAP>
1336.12

> <PUBCHEM_SHAPE_VOLUME>
353.7

> <PUBCHEM_COORDINATE_TYPE>
2
5
10

$$$$

