259994
  -OEChem-07051212473D

 13 12  0     1  0  0  0  0  0999 V2000
   -0.4721   -1.3536   -0.1558 O   0  0  0  0  0  0  0  0  0  0  0  0
    1.9340    0.0013    0.1076 O   0  0  0  0  0  0  0  0  0  0  0  0
   -0.4535   -0.0168    0.3428 C   0  0  1  0  0  0  0  0  0  0  0  0
    0.7489    0.7009   -0.2569 C   0  0  0  0  0  0  0  0  0  0  0  0
   -1.7573    0.6681   -0.0377 C   0  0  0  0  0  0  0  0  0  0  0  0
   -0.3491   -0.0765    1.4317 H   0  0  0  0  0  0  0  0  0  0  0  0
    0.7012    0.7211   -1.3507 H   0  0  0  0  0  0  0  0  0  0  0  0
    0.8260    1.7275    0.1130 H   0  0  0  0  0  0  0  0  0  0  0  0
   -2.6111    0.1308    0.3890 H   0  0  0  0  0  0  0  0  0  0  0  0
   -1.7824    1.7013    0.3216 H   0  0  0  0  0  0  0  0  0  0  0  0
   -1.8983    0.6691   -1.1241 H   0  0  0  0  0  0  0  0  0  0  0  0
   -1.2339   -1.8054    0.2456 H   0  0  0  0  0  0  0  0  0  0  0  0
    1.8475   -0.9097   -0.2214 H   0  0  0  0  0  0  0  0  0  0  0  0
  1  3  1  0  0  0  0
  1 12  1  0  0  0  0
  2  4  1  0  0  0  0
  2 13  1  0  0  0  0
  3  4  1  0  0  0  0
  3  5  1  0  0  0  0
  3  6  1  0  0  0  0
  4  7  1  0  0  0  0
  4  8  1  0  0  0  0
  5  9  1  0  0  0  0
  5 10  1  0  0  0  0
  5 11  1  0  0  0  0
M  END
> <PUBCHEM_COMPOUND_CID>
259994

> <PUBCHEM_CONFORMER_RMSD>
0.4

> <PUBCHEM_CONFORMER_DIVERSEORDER>
1
2
3

> <PUBCHEM_MMFF94_PARTIAL_CHARGES>
6
1 -0.68
12 0.4
13 0.4
2 -0.68
3 0.28
4 0.28

> <PUBCHEM_EFFECTIVE_ROTOR_COUNT>
1

> <PUBCHEM_PHARMACOPHORE_FEATURES>
4
1 1 acceptor
1 1 donor
1 2 acceptor
1 2 donor

> <PUBCHEM_HEAVY_ATOM_COUNT>
5

> <PUBCHEM_ATOM_DEF_STEREO_COUNT>
1

> <PUBCHEM_ATOM_UDEF_STEREO_COUNT>
0

> <PUBCHEM_BOND_DEF_STEREO_COUNT>
0

> <PUBCHEM_BOND_UDEF_STEREO_COUNT>
0

> <PUBCHEM_ISOTOPIC_ATOM_COUNT>
0

> <PUBCHEM_COMPONENT_COUNT>
1

> <PUBCHEM_CACTVS_TAUTO_COUNT>
1

> <PUBCHEM_CONFORMER_ID>
0003F79A00000001

> <PUBCHEM_MMFF94_ENERGY>
4.4699

> <PUBCHEM_FEATURE_SELFOVERLAP>
20.306

> <PUBCHEM_SHAPE_FINGERPRINT>
139733 1 9653652159920912519
16714656 1 18343013428231481572
20096714 4 18342736312467325545
21015797 1 8859903699306778225
21040471 1 18410290341258590433
5460574 1 9007056863711547632
5943 1 5448019492409420315

> <PUBCHEM_SHAPE_MULTIPOLES>
91.16
2.08
1.08
0.62
0.28
0.31
-0.01
-0.42
-0.03
-0.17
0.09
-0.03
-0.02
-0.03

> <PUBCHEM_SHAPE_SELFOVERLAP>
155.098

> <PUBCHEM_SHAPE_VOLUME>
62.1

> <PUBCHEM_COORDINATE_TYPE>
2
5
10

$$$$

