443193
  -OEChem-07051213013D

 28 30  0     1  0  0  0  0  0999 V2000
   -0.9258    0.7013   -0.4368 O   0  0  0  0  0  0  0  0  0  0  0  0
   -2.8980    0.6829   -1.6944 O   0  0  0  0  0  0  0  0  0  0  0  0
   -2.4899    0.4107    1.8398 O   0  0  0  0  0  0  0  0  0  0  0  0
   -3.8963    1.6852    0.5774 O   0  0  0  0  0  0  0  0  0  0  0  0
    0.0862   -0.1958   -0.2044 C   0  0  0  0  0  0  0  0  0  0  0  0
    1.4001    0.3273   -0.1128 C   0  0  0  0  0  0  0  0  0  0  0  0
   -0.1505   -1.5686   -0.0653 C   0  0  0  0  0  0  0  0  0  0  0  0
   -2.2761    0.2426   -0.4967 C   0  0  1  0  0  0  0  0  0  0  0  0
    2.4746   -0.5643    0.1252 C   0  0  0  0  0  0  0  0  0  0  0  0
   -1.5027   -2.0938   -0.1673 C   0  0  0  0  0  0  0  0  0  0  0  0
   -2.5007   -1.2326   -0.3724 C   0  0  0  0  0  0  0  0  0  0  0  0
    0.9202   -2.4336    0.1681 C   0  0  0  0  0  0  0  0  0  0  0  0
    2.2190   -1.9356    0.2630 C   0  0  0  0  0  0  0  0  0  0  0  0
    1.6939    1.7021   -0.2468 C   0  0  0  0  0  0  0  0  0  0  0  0
    3.7859   -0.0690    0.2211 C   0  0  0  0  0  0  0  0  0  0  0  0
   -2.9901    0.8702    0.6668 C   0  0  0  0  0  0  0  0  0  0  0  0
    3.0026    2.1781   -0.1493 C   0  0  0  0  0  0  0  0  0  0  0  0
    4.0476    1.2931    0.0847 C   0  0  0  0  0  0  0  0  0  0  0  0
   -1.6819   -3.1586   -0.0770 H   0  0  0  0  0  0  0  0  0  0  0  0
   -3.5160   -1.6143   -0.4502 H   0  0  0  0  0  0  0  0  0  0  0  0
    0.7585   -3.5034    0.2788 H   0  0  0  0  0  0  0  0  0  0  0  0
    3.0328   -2.6346    0.4458 H   0  0  0  0  0  0  0  0  0  0  0  0
    0.9010    2.4245   -0.4300 H   0  0  0  0  0  0  0  0  0  0  0  0
    4.6197   -0.7442    0.4039 H   0  0  0  0  0  0  0  0  0  0  0  0
    3.2026    3.2402   -0.2560 H   0  0  0  0  0  0  0  0  0  0  0  0
    5.0664    1.6611    0.1612 H   0  0  0  0  0  0  0  0  0  0  0  0
   -2.9827   -0.0625   -2.3124 H   0  0  0  0  0  0  0  0  0  0  0  0
   -2.9428    0.8098    2.6130 H   0  0  0  0  0  0  0  0  0  0  0  0
  1  5  1  0  0  0  0
  1  8  1  0  0  0  0
  2  8  1  0  0  0  0
  2 27  1  0  0  0  0
  3 16  1  0  0  0  0
  3 28  1  0  0  0  0
  4 16  2  0  0  0  0
  5  6  1  0  0  0  0
  5  7  2  0  0  0  0
  6  9  1  0  0  0  0
  6 14  2  0  0  0  0
  7 10  1  0  0  0  0
  7 12  1  0  0  0  0
  8 11  1  0  0  0  0
  8 16  1  0  0  0  0
  9 13  1  0  0  0  0
  9 15  2  0  0  0  0
 10 11  2  0  0  0  0
 10 19  1  0  0  0  0
 11 20  1  0  0  0  0
 12 13  2  0  0  0  0
 12 21  1  0  0  0  0
 13 22  1  0  0  0  0
 14 17  1  0  0  0  0
 14 23  1  0  0  0  0
 15 18  1  0  0  0  0
 15 24  1  0  0  0  0
 17 18  2  0  0  0  0
 17 25  1  0  0  0  0
 18 26  1  0  0  0  0
M  END
> <PUBCHEM_COMPOUND_CID>
443193

> <PUBCHEM_CONFORMER_RMSD>
0.6

> <PUBCHEM_CONFORMER_DIVERSEORDER>
1
2

> <PUBCHEM_MMFF94_PARTIAL_CHARGES>
26
1 -0.36
10 -0.18
11 -0.29
12 -0.15
13 -0.15
14 -0.15
15 -0.15
16 0.66
17 -0.15
18 -0.15
19 0.15
2 -0.68
20 0.15
21 0.15
22 0.15
23 0.15
24 0.15
25 0.15
26 0.15
27 0.4
28 0.5
3 -0.65
4 -0.57
5 0.08
7 0.03
8 0.76

> <PUBCHEM_EFFECTIVE_ROTOR_COUNT>
1.4

> <PUBCHEM_PHARMACOPHORE_FEATURES>
9
1 1 acceptor
1 2 acceptor
1 2 donor
1 3 acceptor
1 4 acceptor
3 3 4 16 anion
6 1 5 7 8 10 11 rings
6 5 6 7 9 12 13 rings
6 6 9 14 15 17 18 rings

> <PUBCHEM_HEAVY_ATOM_COUNT>
18

> <PUBCHEM_ATOM_DEF_STEREO_COUNT>
0

> <PUBCHEM_ATOM_UDEF_STEREO_COUNT>
1

> <PUBCHEM_BOND_DEF_STEREO_COUNT>
0

> <PUBCHEM_BOND_UDEF_STEREO_COUNT>
0

> <PUBCHEM_ISOTOPIC_ATOM_COUNT>
0

> <PUBCHEM_COMPONENT_COUNT>
1

> <PUBCHEM_CACTVS_TAUTO_COUNT>
1

> <PUBCHEM_CONFORMER_ID>
0006C33900000001

> <PUBCHEM_MMFF94_ENERGY>
51.7703

> <PUBCHEM_FEATURE_SELFOVERLAP>
45.834

> <PUBCHEM_SHAPE_FINGERPRINT>
10411042 1 17113538676092679359
10465860 228 18335976579599323696
10608611 8 18340776922980960220
10967382 1 18339646740944127196
10980938 120 18342179985775292430
11132069 177 18341624693890978184
11543360 7 15792019913723233988
11640471 11 17750223876125753945
11725454 13 16699805416923607647
12390115 104 18192694667088186632
12491281 212 18339637841719194426
12553582 1 17907020925943574662
13140716 1 18412547591802460586
13380535 21 18412819171053364142
13583140 156 16773531992060689248
13897977 150 18412552006728212350
14144814 61 18411141311961422672
14614273 12 18200324208021279375
15196674 1 18411421674831754046
15309172 13 18342457023728968010
15342168 16 18411972568611950821
15442244 35 18410015468121510362
15475509 8 17102250999342391222
15534591 1 17822282492471249953
15775835 57 18410290311151504425
16945 1 18339928237269320638
1813 80 17393030060511658150
18186145 218 18409165506967809140
18219364 16 18343868822376199189
19049666 15 17415284102679109413
200 152 18116163181648163687
20157964 124 18266460004974878957
20449540 30 18337116661709691431
20510252 161 17903918855495274282
21501502 16 18410860923532647950
21524375 3 18340491041389123574
22094290 62 18410293657157959322
22854114 111 18342736329836864936
23184049 59 18341329006303086648
2334 1 18196375818921530142
23559900 14 18261670369400190748
238 59 17695113054521784540
25 1 18411698794643093782
2748010 2 18341049606165001206
3091708 16 9262496496420635162
335352 9 18338800134418697950
350125 39 18267862778950809002
474 4 18409729586070387329
5104073 3 18341056216414874632
633830 44 18261105271103142364
6992083 37 18058450898326671660
7364860 26 18335701697698398110
74978 22 18408602582320175742
77492 1 17749962170783110557
7832392 63 18408040732152519790
81228 2 17549826586178528994

> <PUBCHEM_SHAPE_MULTIPOLES>
346.95
6.57
2.45
0.95
0.69
0.69
-0.09
-3.36
-0.52
0.5
-0.07
-0.87
-0.23
-0.48

> <PUBCHEM_SHAPE_SELFOVERLAP>
780.406

> <PUBCHEM_SHAPE_VOLUME>
181.7

> <PUBCHEM_COORDINATE_TYPE>
2
5
10

$$$$

