442883
  -OEChem-07051213002D

 45 48  0     1  0  0  0  0  0999 V2000
    4.6660    4.1508    0.0000 O   0  0  0  0  0  0  0  0  0  0  0  0
    7.7209   -2.4560    0.0000 O   0  0  0  0  0  0  0  0  0  0  0  0
    6.4318   -1.2993    0.0000 O   0  0  0  0  0  0  0  0  0  0  0  0
    5.5321    2.6508    0.0000 N   0  0  0  0  0  0  0  0  0  0  0  0
    6.7889    0.3956    0.0000 N   0  0  0  0  0  0  0  0  0  0  0  0
    4.6660    1.1508    0.0000 N   0  0  0  0  0  0  0  0  0  0  0  0
    6.4783    1.3461    0.0000 C   0  0  3  0  0  0  0  0  0  0  0  0
    7.0619    2.1508    0.0000 C   0  0  0  0  0  0  0  0  0  0  0  0
    6.4783    2.9556    0.0000 C   0  0  0  0  0  0  0  0  0  0  0  0
    5.5321    1.6508    0.0000 C   0  0  0  0  0  0  0  0  0  0  0  0
    4.6660    3.1508    0.0000 C   0  0  0  0  0  0  0  0  0  0  0  0
    3.8000    2.6508    0.0000 C   0  0  0  0  0  0  0  0  0  0  0  0
    3.8000    1.6508    0.0000 C   0  0  0  0  0  0  0  0  0  0  0  0
    7.7674    0.1893    0.0000 C   0  0  0  0  0  0  0  0  0  0  0  0
    2.9061    3.1855    0.0000 C   0  0  0  0  0  0  0  0  0  0  0  0
    8.0781   -0.7612    0.0000 C   0  0  0  0  0  0  0  0  0  0  0  0
    2.9061    1.1162    0.0000 C   0  0  0  0  0  0  0  0  0  0  0  0
    8.4353    0.9336    0.0000 C   0  0  0  0  0  0  0  0  0  0  0  0
    2.0000    2.6716    0.0000 C   0  0  0  0  0  0  0  0  0  0  0  0
    2.0000    1.6300    0.0000 C   0  0  0  0  0  0  0  0  0  0  0  0
    9.0566   -0.9674    0.0000 C   0  0  0  0  0  0  0  0  0  0  0  0
    9.4138    0.7274    0.0000 C   0  0  0  0  0  0  0  0  0  0  0  0
    7.4103   -1.5055    0.0000 C   0  0  0  0  0  0  0  0  0  0  0  0
    9.7245   -0.2231    0.0000 C   0  0  0  0  0  0  0  0  0  0  0  0
    7.0531   -3.2003    0.0000 C   0  0  0  0  0  0  0  0  0  0  0  0
    7.3638   -4.1508    0.0000 C   0  0  0  0  0  0  0  0  0  0  0  0
    7.0908    1.2499    0.0000 H   0  0  0  0  0  0  0  0  0  0  0  0
    7.5228    1.7361    0.0000 H   0  0  0  0  0  0  0  0  0  0  0  0
    7.5228    2.5656    0.0000 H   0  0  0  0  0  0  0  0  0  0  0  0
    7.0157    3.2648    0.0000 H   0  0  0  0  0  0  0  0  0  0  0  0
    6.2272    3.5225    0.0000 H   0  0  0  0  0  0  0  0  0  0  0  0
    6.3749   -0.0659    0.0000 H   0  0  0  0  0  0  0  0  0  0  0  0
    2.9132    3.8054    0.0000 H   0  0  0  0  0  0  0  0  0  0  0  0
    2.9132    0.4962    0.0000 H   0  0  0  0  0  0  0  0  0  0  0  0
    8.2427    1.5230    0.0000 H   0  0  0  0  0  0  0  0  0  0  0  0
    1.4643    2.9837    0.0000 H   0  0  0  0  0  0  0  0  0  0  0  0
    1.4643    1.3179    0.0000 H   0  0  0  0  0  0  0  0  0  0  0  0
    9.2492   -1.5567    0.0000 H   0  0  0  0  0  0  0  0  0  0  0  0
    9.8279    1.1889    0.0000 H   0  0  0  0  0  0  0  0  0  0  0  0
   10.3311   -0.3509    0.0000 H   0  0  0  0  0  0  0  0  0  0  0  0
    6.6705   -2.7124    0.0000 H   0  0  0  0  0  0  0  0  0  0  0  0
    6.5062   -3.4923    0.0000 H   0  0  0  0  0  0  0  0  0  0  0  0
    6.7744   -4.3434    0.0000 H   0  0  0  0  0  0  0  0  0  0  0  0
    7.5564   -4.7401    0.0000 H   0  0  0  0  0  0  0  0  0  0  0  0
    7.9531   -3.9582    0.0000 H   0  0  0  0  0  0  0  0  0  0  0  0
  1 11  2  0  0  0  0
  2 23  1  0  0  0  0
  2 25  1  0  0  0  0
  3 23  2  0  0  0  0
  4  9  1  0  0  0  0
  4 10  1  0  0  0  0
  4 11  1  0  0  0  0
  5  7  1  0  0  0  0
  5 14  1  0  0  0  0
  5 32  1  0  0  0  0
  6 10  2  0  0  0  0
  6 13  1  0  0  0  0
  7  8  1  0  0  0  0
  7 10  1  0  0  0  0
  7 27  1  0  0  0  0
  8  9  1  0  0  0  0
  8 28  1  0  0  0  0
  8 29  1  0  0  0  0
  9 30  1  0  0  0  0
  9 31  1  0  0  0  0
 11 12  1  0  0  0  0
 12 13  1  0  0  0  0
 12 15  2  0  0  0  0
 13 17  2  0  0  0  0
 14 16  1  0  0  0  0
 14 18  2  0  0  0  0
 15 19  1  0  0  0  0
 15 33  1  0  0  0  0
 16 21  2  0  0  0  0
 16 23  1  0  0  0  0
 17 20  1  0  0  0  0
 17 34  1  0  0  0  0
 18 22  1  0  0  0  0
 18 35  1  0  0  0  0
 19 20  2  0  0  0  0
 19 36  1  0  0  0  0
 20 37  1  0  0  0  0
 21 24  1  0  0  0  0
 21 38  1  0  0  0  0
 22 24  2  0  0  0  0
 22 39  1  0  0  0  0
 24 40  1  0  0  0  0
 25 26  1  0  0  0  0
 25 41  1  0  0  0  0
 25 42  1  0  0  0  0
 26 43  1  0  0  0  0
 26 44  1  0  0  0  0
 26 45  1  0  0  0  0
M  END
> <PUBCHEM_COMPOUND_CID>
442883

> <PUBCHEM_COMPOUND_CANONICALIZED>
1

> <PUBCHEM_CACTVS_COMPLEXITY>
591

> <PUBCHEM_CACTVS_HBOND_ACCEPTOR>
5

> <PUBCHEM_CACTVS_HBOND_DONOR>
1

> <PUBCHEM_CACTVS_ROTATABLE_BOND>
5

> <PUBCHEM_CACTVS_SUBSKEYS>
AAADceB7MAAAAAAAAAAAAAAAAAAAAWAAAAAwYIAAAAAAAECBQAAAHgAQAAAADCjhmAYzyIPABACoAifyfACCAAElAgAJiIE4bMgIZjrA/ZmWMYhm1gHI6ceYyCCOAAAAAAACAAAAAAAAAAQAAAAAAAAAAA==

> <PUBCHEM_IUPAC_OPENEYE_NAME>
ethyl 2-[(9-oxo-2,3-dihydro-1H-pyrrolo[2,1-b]quinazolin-3-yl)amino]benzoate

> <PUBCHEM_IUPAC_CAS_NAME>
2-[(9-oxo-2,3-dihydro-1H-pyrrolo[2,1-b]quinazolin-3-yl)amino]benzoic acid ethyl ester

> <PUBCHEM_IUPAC_NAME>
ethyl 2-[(9-oxo-2,3-dihydro-1H-pyrrolo[2,1-b]quinazolin-3-yl)amino]benzoate

> <PUBCHEM_IUPAC_SYSTEMATIC_NAME>
ethyl 2-[(9-oxidanylidene-2,3-dihydro-1H-pyrrolo[2,1-b]quinazolin-3-yl)amino]benzoate

> <PUBCHEM_IUPAC_TRADITIONAL_NAME>
2-[(9-keto-2,3-dihydro-1H-pyrrolo[2,1-b]quinazolin-3-yl)amino]benzoic acid ethyl ester

> <PUBCHEM_IUPAC_INCHI>
InChI=1S/C20H19N3O3/c1-2-26-20(25)14-8-4-6-10-16(14)21-17-11-12-23-18(17)22-15-9-5-3-7-13(15)19(23)24/h3-10,17,21H,2,11-12H2,1H3

> <PUBCHEM_IUPAC_INCHIKEY>
XESDUHSYWZBXPQ-UHFFFAOYSA-N

> <PUBCHEM_XLOGP3_AA>
3.5

> <PUBCHEM_EXACT_MASS>
349.142641

> <PUBCHEM_MOLECULAR_FORMULA>
C20H19N3O3

> <PUBCHEM_MOLECULAR_WEIGHT>
349.38316

> <PUBCHEM_OPENEYE_CAN_SMILES>
CCOC(=O)C1=CC=CC=C1NC2CCN3C2=NC4=CC=CC=C4C3=O

> <PUBCHEM_OPENEYE_ISO_SMILES>
CCOC(=O)C1=CC=CC=C1NC2CCN3C2=NC4=CC=CC=C4C3=O

> <PUBCHEM_CACTVS_TPSA>
71

> <PUBCHEM_MONOISOTOPIC_WEIGHT>
349.142641

> <PUBCHEM_TOTAL_CHARGE>
0

> <PUBCHEM_HEAVY_ATOM_COUNT>
26

> <PUBCHEM_ATOM_DEF_STEREO_COUNT>
0

> <PUBCHEM_ATOM_UDEF_STEREO_COUNT>
1

> <PUBCHEM_BOND_DEF_STEREO_COUNT>
0

> <PUBCHEM_BOND_UDEF_STEREO_COUNT>
0

> <PUBCHEM_ISOTOPIC_ATOM_COUNT>
0

> <PUBCHEM_COMPONENT_COUNT>
1

> <PUBCHEM_CACTVS_TAUTO_COUNT>
58

> <PUBCHEM_COORDINATE_TYPE>
1
5
255

> <PUBCHEM_BONDANNOTATIONS>
11  12  8
12  13  8
12  15  8
13  17  8
14  16  8
14  18  8
15  19  8
16  21  8
17  20  8
18  22  8
19  20  8
21  24  8
22  24  8
4  10  8
4  11  8
7  5  3
6  10  8
6  13  8

$$$$

