9071
  -OEChem-06261203222D

 29 30  0     0  0  0  0  0  0999 V2000
    6.7619    1.0374    0.0000 Zn  0  2  0  0  0  0  0  0  0  0  0  0
    4.6783    2.7082    0.0000 S   0  0  0  0  0  0  0  0  0  0  0  0
    9.2506    0.0684    0.0000 S   0  0  0  0  0  0  0  0  0  0  0  0
    7.7619    1.0374    0.0000 S   0  5  0  0  0  0  0  0  0  0  0  0
    6.2619    1.9035    0.0000 S   0  5  0  0  0  0  0  0  0  0  0  0
    7.8568   -0.7364    0.0000 N   0  0  0  0  0  0  0  0  0  0  0  0
    4.6783    1.0987    0.0000 N   0  0  0  0  0  0  0  0  0  0  0  0
    9.4598   -0.9035    0.0000 C   0  0  0  0  0  0  0  0  0  0  0  0
    3.7320    2.4035    0.0000 C   0  0  0  0  0  0  0  0  0  0  0  0
    8.5938   -1.4035    0.0000 C   0  0  0  0  0  0  0  0  0  0  0  0
    3.7320    1.4035    0.0000 C   0  0  0  0  0  0  0  0  0  0  0  0
   10.3258   -1.4035    0.0000 C   0  0  0  0  0  0  0  0  0  0  0  0
    2.8660    2.9035    0.0000 C   0  0  0  0  0  0  0  0  0  0  0  0
    8.5938   -2.4035    0.0000 C   0  0  0  0  0  0  0  0  0  0  0  0
    2.8660    0.9035    0.0000 C   0  0  0  0  0  0  0  0  0  0  0  0
   10.3258   -2.4035    0.0000 C   0  0  0  0  0  0  0  0  0  0  0  0
    2.0000    2.4035    0.0000 C   0  0  0  0  0  0  0  0  0  0  0  0
    9.4598   -2.9035    0.0000 C   0  0  0  0  0  0  0  0  0  0  0  0
    2.0000    1.4035    0.0000 C   0  0  0  0  0  0  0  0  0  0  0  0
    8.2619    0.1714    0.0000 C   0  0  0  0  0  0  0  0  0  0  0  0
    5.2619    1.9035    0.0000 C   0  0  0  0  0  0  0  0  0  0  0  0
    2.8660    3.5235    0.0000 H   0  0  0  0  0  0  0  0  0  0  0  0
   10.8628   -1.0935    0.0000 H   0  0  0  0  0  0  0  0  0  0  0  0
    2.8660    0.2835    0.0000 H   0  0  0  0  0  0  0  0  0  0  0  0
    8.0569   -2.7135    0.0000 H   0  0  0  0  0  0  0  0  0  0  0  0
    1.4631    2.7135    0.0000 H   0  0  0  0  0  0  0  0  0  0  0  0
   10.8628   -2.7135    0.0000 H   0  0  0  0  0  0  0  0  0  0  0  0
    1.4631    1.0935    0.0000 H   0  0  0  0  0  0  0  0  0  0  0  0
    9.4598   -3.5235    0.0000 H   0  0  0  0  0  0  0  0  0  0  0  0
  2  9  1  0  0  0  0
  2 21  1  0  0  0  0
  3  8  1  0  0  0  0
  3 20  1  0  0  0  0
  4 20  1  0  0  0  0
  5 21  1  0  0  0  0
  6 10  1  0  0  0  0
  6 20  2  0  0  0  0
  7 11  1  0  0  0  0
  7 21  2  0  0  0  0
  8 10  1  0  0  0  0
  8 12  2  0  0  0  0
  9 11  1  0  0  0  0
  9 13  2  0  0  0  0
 10 14  2  0  0  0  0
 11 15  2  0  0  0  0
 12 16  1  0  0  0  0
 12 23  1  0  0  0  0
 13 17  1  0  0  0  0
 13 22  1  0  0  0  0
 14 18  1  0  0  0  0
 14 25  1  0  0  0  0
 15 19  1  0  0  0  0
 15 24  1  0  0  0  0
 16 18  2  0  0  0  0
 16 27  1  0  0  0  0
 17 19  2  0  0  0  0
 17 26  1  0  0  0  0
 18 29  1  0  0  0  0
 19 28  1  0  0  0  0
M  CHG  3   1   2   4  -1   5  -1
M  END
> <PUBCHEM_COMPOUND_CID>
9071

> <PUBCHEM_COMPOUND_CANONICALIZED>
1

> <PUBCHEM_CACTVS_COMPLEXITY>
129

> <PUBCHEM_CACTVS_HBOND_ACCEPTOR>
6

> <PUBCHEM_CACTVS_HBOND_DONOR>
0

> <PUBCHEM_CACTVS_ROTATABLE_BOND>
0

> <PUBCHEM_CACTVS_SUBSKEYS>
AAADccBzAABwAAACAAAAAAAAAAAAAWLAAAAwYAAAAAAAAFgB/gAAHAQAAAAACAiBVgAwwbIIEAikASRiRACD8aBhCjhImDwwZJgIIKLgkZGEIAhggABIyAcQAAAAAAAAAAAAAQAAAAAAAAACAAAAAAAAAA==

> <PUBCHEM_IUPAC_OPENEYE_NAME>
zinc 1,3-benzothiazole-2-thiolate

> <PUBCHEM_IUPAC_CAS_NAME>
zinc 1,3-benzothiazole-2-thiolate

> <PUBCHEM_IUPAC_NAME>
zinc 1,3-benzothiazole-2-thiolate

> <PUBCHEM_IUPAC_SYSTEMATIC_NAME>
zinc 1,3-benzothiazole-2-thiolate

> <PUBCHEM_IUPAC_TRADITIONAL_NAME>
zinc 1,3-benzothiazole-2-thiolate

> <PUBCHEM_IUPAC_INCHI>
InChI=1S/2C7H5NS2.Zn/c2*9-7-8-5-3-1-2-4-6(5)10-7;/h2*1-4H,(H,8,9);/q;;+2/p-2

> <PUBCHEM_IUPAC_INCHIKEY>
PGNWIWKMXVDXHP-UHFFFAOYSA-L

> <PUBCHEM_EXACT_MASS>
395.886174

> <PUBCHEM_MOLECULAR_FORMULA>
C14H8N2S4Zn

> <PUBCHEM_MOLECULAR_WEIGHT>
397.86672

> <PUBCHEM_OPENEYE_CAN_SMILES>
C1=CC=C2C(=C1)N=C(S2)[S-].C1=CC=C2C(=C1)N=C(S2)[S-].[Zn+2]

> <PUBCHEM_OPENEYE_ISO_SMILES>
C1=CC=C2C(=C1)N=C(S2)[S-].C1=CC=C2C(=C1)N=C(S2)[S-].[Zn+2]

> <PUBCHEM_CACTVS_TPSA>
84.3

> <PUBCHEM_MONOISOTOPIC_WEIGHT>
395.886174

> <PUBCHEM_TOTAL_CHARGE>
0

> <PUBCHEM_HEAVY_ATOM_COUNT>
21

> <PUBCHEM_ATOM_DEF_STEREO_COUNT>
0

> <PUBCHEM_ATOM_UDEF_STEREO_COUNT>
0

> <PUBCHEM_BOND_DEF_STEREO_COUNT>
0

> <PUBCHEM_BOND_UDEF_STEREO_COUNT>
0

> <PUBCHEM_ISOTOPIC_ATOM_COUNT>
0

> <PUBCHEM_COMPONENT_COUNT>
3

> <PUBCHEM_CACTVS_TAUTO_COUNT>
1

> <PUBCHEM_COORDINATE_TYPE>
1
5
255

> <PUBCHEM_BONDANNOTATIONS>
10  14  8
11  15  8
12  16  8
13  17  8
14  18  8
15  19  8
16  18  8
17  19  8
2  21  8
2  9  8
3  20  8
3  8  8
6  10  8
6  20  8
7  11  8
7  21  8
8  10  8
8  12  8
9  11  8
9  13  8

$$$$

