13570
  -OEChem-06241222393D

 16 15  0     0  0  0  0  0  0999 V2000
   -0.6434   -0.3912    0.0051 O   0  0  0  0  0  0  0  0  0  0  0  0
   -1.7050    0.5502    0.0035 C   0  0  0  0  0  0  0  0  0  0  0  0
   -3.0235   -0.1935   -0.0063 C   0  0  0  0  0  0  0  0  0  0  0  0
    0.5728    0.2329    0.0005 C   0  0  0  0  0  0  0  0  0  0  0  0
    1.7318   -0.4317    0.0009 C   0  0  0  0  0  0  0  0  0  0  0  0
    3.0674    0.2333   -0.0038 C   0  0  0  0  0  0  0  0  0  0  0  0
   -1.6543    1.1806    0.9002 H   0  0  0  0  0  0  0  0  0  0  0  0
   -1.6468    1.1878   -0.8877 H   0  0  0  0  0  0  0  0  0  0  0  0
   -3.8660    0.5038   -0.0076 H   0  0  0  0  0  0  0  0  0  0  0  0
   -3.0968   -0.8374   -0.8890 H   0  0  0  0  0  0  0  0  0  0  0  0
   -3.1058   -0.8447    0.8701 H   0  0  0  0  0  0  0  0  0  0  0  0
    0.5358    1.3141   -0.0027 H   0  0  0  0  0  0  0  0  0  0  0  0
    1.7216   -1.5183    0.0047 H   0  0  0  0  0  0  0  0  0  0  0  0
    3.6349   -0.0640    0.8834 H   0  0  0  0  0  0  0  0  0  0  0  0
    3.6317   -0.0704   -0.8908 H   0  0  0  0  0  0  0  0  0  0  0  0
    2.9874    1.3250   -0.0076 H   0  0  0  0  0  0  0  0  0  0  0  0
  1  2  1  0  0  0  0
  1  4  1  0  0  0  0
  2  3  1  0  0  0  0
  2  7  1  0  0  0  0
  2  8  1  0  0  0  0
  3  9  1  0  0  0  0
  3 10  1  0  0  0  0
  3 11  1  0  0  0  0
  4  5  2  0  0  0  0
  4 12  1  0  0  0  0
  5  6  1  0  0  0  0
  5 13  1  0  0  0  0
  6 14  1  0  0  0  0
  6 15  1  0  0  0  0
  6 16  1  0  0  0  0
M  END
> <PUBCHEM_COMPOUND_CID>
13570

> <PUBCHEM_CONFORMER_RMSD>
0.4

> <PUBCHEM_CONFORMER_DIVERSEORDER>
1
2
4
3

> <PUBCHEM_MMFF94_PARTIAL_CHARGES>
7
1 -0.36
12 0.15
13 0.15
2 0.28
4 -0.07
5 -0.29
6 0.14

> <PUBCHEM_EFFECTIVE_ROTOR_COUNT>
2

> <PUBCHEM_PHARMACOPHORE_FEATURES>
2
1 1 acceptor
1 6 hydrophobe

> <PUBCHEM_HEAVY_ATOM_COUNT>
6

> <PUBCHEM_ATOM_DEF_STEREO_COUNT>
0

> <PUBCHEM_ATOM_UDEF_STEREO_COUNT>
0

> <PUBCHEM_BOND_DEF_STEREO_COUNT>
0

> <PUBCHEM_BOND_UDEF_STEREO_COUNT>
1

> <PUBCHEM_ISOTOPIC_ATOM_COUNT>
0

> <PUBCHEM_COMPONENT_COUNT>
1

> <PUBCHEM_CACTVS_TAUTO_COUNT>
1

> <PUBCHEM_CONFORMER_ID>
0000350200000001

> <PUBCHEM_MMFF94_ENERGY>
6.229

> <PUBCHEM_FEATURE_SELFOVERLAP>
10.148

> <PUBCHEM_SHAPE_FINGERPRINT>
11062470 55 15554731070621358863
14325111 11 18410855481613625731
14390081 3 18335141994407761224
29004967 10 18410851075045693514
5460574 1 9295288343653822272

> <PUBCHEM_SHAPE_MULTIPOLES>
117.61
4.99
0.73
0.6
0.14
0.02
0
0.04
0.01
0.02
0
-0.01
0.01
0

> <PUBCHEM_SHAPE_SELFOVERLAP>
203.523

> <PUBCHEM_SHAPE_VOLUME>
78.9

> <PUBCHEM_COORDINATE_TYPE>
2
5
10

$$$$

