440631
  -OEChem-07051212502D

 48 53  0     1  0  0  0  0  0999 V2000
    6.3052    3.5673    0.0000 O   0  0  0  0  0  0  0  0  0  0  0  0
    4.8598    4.4167    0.0000 O   0  0  0  0  0  0  0  0  0  0  0  0
    2.8799    1.3337    0.0000 O   0  0  0  0  0  0  0  0  0  0  0  0
    2.8641   -1.7083    0.0000 O   0  0  0  0  0  0  0  0  0  0  0  0
    7.3060   -3.5278    0.0000 O   0  0  0  0  0  0  0  0  0  0  0  0
    5.8005   -4.4125    0.0000 O   0  0  0  0  0  0  0  0  0  0  0  0
    6.3821    0.3368    0.0000 N   0  0  3  0  0  0  0  0  0  0  0  0
    5.5161   -0.1632    0.0000 C   0  0  0  0  0  0  0  0  0  0  0  0
    4.6501    0.3368    0.0000 C   0  0  0  0  0  0  0  0  0  0  0  0
    5.5161    1.8368    0.0000 C   0  0  0  0  0  0  0  0  0  0  0  0
    6.3821    1.3368    0.0000 C   0  0  0  0  0  0  0  0  0  0  0  0
    4.6501    1.3368    0.0000 C   0  0  0  0  0  0  0  0  0  0  0  0
    5.5322   -1.2047    0.0000 C   0  0  0  0  0  0  0  0  0  0  0  0
    4.6341   -1.7324    0.0000 C   0  0  0  0  0  0  0  0  0  0  0  0
    5.5322    2.8783    0.0000 C   0  0  0  0  0  0  0  0  0  0  0  0
    3.7401   -0.1700    0.0000 C   0  0  0  0  0  0  0  0  0  0  0  0
    3.7401    1.8437    0.0000 C   0  0  0  0  0  0  0  0  0  0  0  0
    3.7320   -1.2116    0.0000 C   0  0  0  0  0  0  0  0  0  0  0  0
    4.6341    3.4061    0.0000 C   0  0  0  0  0  0  0  0  0  0  0  0
    7.2482   -0.1632    0.0000 C   0  0  0  0  0  0  0  0  0  0  0  0
    6.4841   -1.7253    0.0000 C   0  0  0  0  0  0  0  0  0  0  0  0
    3.7320    2.8853    0.0000 C   0  0  0  0  0  0  0  0  0  0  0  0
    4.6258   -2.8174    0.0000 C   0  0  0  0  0  0  0  0  0  0  0  0
    6.5008   -2.8102    0.0000 C   0  0  0  0  0  0  0  0  0  0  0  0
    5.5654   -3.3599    0.0000 C   0  0  0  0  0  0  0  0  0  0  0  0
    5.8905    4.5161    0.0000 C   0  0  0  0  0  0  0  0  0  0  0  0
    6.8741   -4.5161    0.0000 C   0  0  0  0  0  0  0  0  0  0  0  0
    2.0081    1.8236    0.0000 C   0  0  0  0  0  0  0  0  0  0  0  0
    2.0000   -1.2049    0.0000 C   0  0  0  0  0  0  0  0  0  0  0  0
    6.9927    1.2292    0.0000 H   0  0  0  0  0  0  0  0  0  0  0  0
    6.5942    1.9194    0.0000 H   0  0  0  0  0  0  0  0  0  0  0  0
    3.2068    0.1462    0.0000 H   0  0  0  0  0  0  0  0  0  0  0  0
    6.9382   -0.7001    0.0000 H   0  0  0  0  0  0  0  0  0  0  0  0
    7.7851   -0.4732    0.0000 H   0  0  0  0  0  0  0  0  0  0  0  0
    7.5582    0.3738    0.0000 H   0  0  0  0  0  0  0  0  0  0  0  0
    7.0149   -1.4050    0.0000 H   0  0  0  0  0  0  0  0  0  0  0  0
    3.1939    3.1932    0.0000 H   0  0  0  0  0  0  0  0  0  0  0  0
    4.0876   -3.1253    0.0000 H   0  0  0  0  0  0  0  0  0  0  0  0
    6.4816    4.7033    0.0000 H   0  0  0  0  0  0  0  0  0  0  0  0
    5.7665    5.1235    0.0000 H   0  0  0  0  0  0  0  0  0  0  0  0
    6.7500   -5.1235    0.0000 H   0  0  0  0  0  0  0  0  0  0  0  0
    7.4651   -4.7033    0.0000 H   0  0  0  0  0  0  0  0  0  0  0  0
    2.3119    2.3641    0.0000 H   0  0  0  0  0  0  0  0  0  0  0  0
    1.4676    2.1274    0.0000 H   0  0  0  0  0  0  0  0  0  0  0  0
    1.7044    1.2832    0.0000 H   0  0  0  0  0  0  0  0  0  0  0  0
    2.3121   -0.6692    0.0000 H   0  0  0  0  0  0  0  0  0  0  0  0
    1.4643   -0.8929    0.0000 H   0  0  0  0  0  0  0  0  0  0  0  0
    1.6879   -1.7407    0.0000 H   0  0  0  0  0  0  0  0  0  0  0  0
  1 15  1  0  0  0  0
  1 26  1  0  0  0  0
  2 19  1  0  0  0  0
  2 26  1  0  0  0  0
  3 17  1  0  0  0  0
  3 28  1  0  0  0  0
  4 18  1  0  0  0  0
  4 29  1  0  0  0  0
  5 24  1  0  0  0  0
  5 27  1  0  0  0  0
  6 25  1  0  0  0  0
  6 27  1  0  0  0  0
  7  8  1  0  0  0  0
  7 11  1  0  0  0  0
  7 20  1  0  0  0  0
  8  9  2  0  0  0  0
  8 13  1  0  0  0  0
  9 12  1  0  0  0  0
  9 16  1  0  0  0  0
 10 11  1  0  0  0  0
 10 12  1  0  0  0  0
 10 15  2  0  0  0  0
 11 30  1  0  0  0  0
 11 31  1  0  0  0  0
 12 17  2  0  0  0  0
 13 14  1  0  0  0  0
 13 21  2  0  0  0  0
 14 18  1  0  0  0  0
 14 23  2  0  0  0  0
 15 19  1  0  0  0  0
 16 18  2  0  0  0  0
 16 32  1  0  0  0  0
 17 22  1  0  0  0  0
 19 22  2  0  0  0  0
 20 33  1  0  0  0  0
 20 34  1  0  0  0  0
 20 35  1  0  0  0  0
 21 24  1  0  0  0  0
 21 36  1  0  0  0  0
 22 37  1  0  0  0  0
 23 25  1  0  0  0  0
 23 38  1  0  0  0  0
 24 25  2  0  0  0  0
 26 39  1  0  0  0  0
 26 40  1  0  0  0  0
 27 41  1  0  0  0  0
 27 42  1  0  0  0  0
 28 43  1  0  0  0  0
 28 44  1  0  0  0  0
 28 45  1  0  0  0  0
 29 46  1  0  0  0  0
 29 47  1  0  0  0  0
 29 48  1  0  0  0  0
M  END
> <PUBCHEM_COMPOUND_CID>
440631

> <PUBCHEM_COMPOUND_CANONICALIZED>
1

> <PUBCHEM_CACTVS_COMPLEXITY>
620

> <PUBCHEM_CACTVS_HBOND_ACCEPTOR>
7

> <PUBCHEM_CACTVS_HBOND_DONOR>
0

> <PUBCHEM_CACTVS_ROTATABLE_BOND>
2

> <PUBCHEM_CACTVS_SUBSKEYS>
AAADceB6OAAAAAAAAAAAAAAAAAAAASJAAAA8YMEAAAAAAEjxVAAAHgAAAAAADAzBmAcyzsMABACAAiRCQACCCAAhIAAAiAAOzIgdJyLEsJukMCpnwBXO6Afw8P8O4UADSAAaQADCgAaQADSAAAAAAAAAAA==

> <PUBCHEM_IUPAC_INCHI>
InChI=1S/C22H19NO6/c1-23-8-14-20(18(25-3)7-19-22(14)29-10-28-19)13-6-15(24-2)11-4-16-17(27-9-26-16)5-12(11)21(13)23/h4-7H,8-10H2,1-3H3

> <PUBCHEM_IUPAC_INCHIKEY>
RTVFIUBAXAZKSU-UHFFFAOYSA-N

> <PUBCHEM_XLOGP3_AA>
4.1

> <PUBCHEM_EXACT_MASS>
393.121237

> <PUBCHEM_MOLECULAR_FORMULA>
C22H19NO6

> <PUBCHEM_MOLECULAR_WEIGHT>
393.38936

> <PUBCHEM_OPENEYE_CAN_SMILES>
CN1CC2=C3C(=CC(=C2C4=C1C5=CC6=C(C=C5C(=C4)OC)OCO6)OC)OCO3

> <PUBCHEM_OPENEYE_ISO_SMILES>
CN1CC2=C3C(=CC(=C2C4=C1C5=CC6=C(C=C5C(=C4)OC)OCO6)OC)OCO3

> <PUBCHEM_CACTVS_TPSA>
58.6

> <PUBCHEM_MONOISOTOPIC_WEIGHT>
393.121237

> <PUBCHEM_TOTAL_CHARGE>
0

> <PUBCHEM_HEAVY_ATOM_COUNT>
29

> <PUBCHEM_ATOM_DEF_STEREO_COUNT>
0

> <PUBCHEM_ATOM_UDEF_STEREO_COUNT>
0

> <PUBCHEM_BOND_DEF_STEREO_COUNT>
0

> <PUBCHEM_BOND_UDEF_STEREO_COUNT>
0

> <PUBCHEM_ISOTOPIC_ATOM_COUNT>
0

> <PUBCHEM_COMPONENT_COUNT>
1

> <PUBCHEM_CACTVS_TAUTO_COUNT>
1

> <PUBCHEM_COORDINATE_TYPE>
1
5
255

> <PUBCHEM_BONDANNOTATIONS>
10  12  8
10  15  8
12  17  8
13  14  8
13  21  8
14  18  8
14  23  8
15  19  8
16  18  8
17  22  8
19  22  8
21  24  8
23  25  8
24  25  8
8  13  8
8  9  8
9  16  8

$$$$

