3082005
  -OEChem-07051213123D

 39 41  0     1  0  0  0  0  0999 V2000
   -2.2592   -3.0249   -0.5536 Cl  0  0  0  0  0  0  0  0  0  0  0  0
    0.2666   -1.3546   -0.1569 O   0  0  0  0  0  0  0  0  0  0  0  0
    1.3938    0.1622   -2.2980 O   0  0  0  0  0  0  0  0  0  0  0  0
    0.9797    2.0031    0.7661 O   0  0  0  0  0  0  0  0  0  0  0  0
   -1.9087    2.6611    1.0280 O   0  0  0  0  0  0  0  0  0  0  0  0
   -4.5613   -1.1757    0.0245 O   0  0  0  0  0  0  0  0  0  0  0  0
    5.4354   -0.3568    0.0466 O   0  0  0  0  0  0  0  0  0  0  0  0
    1.2863   -0.3572    0.1194 C   0  0  1  0  0  0  0  0  0  0  0  0
    0.5252    0.9126    0.4782 C   0  0  0  0  0  0  0  0  0  0  0  0
    2.1263   -0.7851    1.3100 C   0  0  0  0  0  0  0  0  0  0  0  0
   -0.8778    0.5871    0.4212 C   0  0  0  0  0  0  0  0  0  0  0  0
    2.0934   -0.0983   -1.1312 C   0  0  0  0  0  0  0  0  0  0  0  0
   -0.9459   -0.7420    0.0513 C   0  0  0  0  0  0  0  0  0  0  0  0
    3.4687   -0.7902    1.2738 C   0  0  0  0  0  0  0  0  0  0  0  0
   -1.9944    1.3587    0.6663 C   0  0  0  0  0  0  0  0  0  0  0  0
    3.4301   -0.1049   -1.1646 C   0  0  0  0  0  0  0  0  0  0  0  0
    1.4101   -1.2172    2.5637 C   0  0  0  0  0  0  0  0  0  0  0  0
   -2.1674   -1.3690   -0.0926 C   0  0  0  0  0  0  0  0  0  0  0  0
    4.2099   -0.4052    0.0531 C   0  0  0  0  0  0  0  0  0  0  0  0
   -3.3219   -0.6167    0.1483 C   0  0  0  0  0  0  0  0  0  0  0  0
   -3.2357    0.7370    0.5244 C   0  0  0  0  0  0  0  0  0  0  0  0
    1.7253    1.4396   -2.8011 C   0  0  0  0  0  0  0  0  0  0  0  0
   -1.8994    3.6338   -0.0199 C   0  0  0  0  0  0  0  0  0  0  0  0
   -5.1793   -1.0974   -1.2571 C   0  0  0  0  0  0  0  0  0  0  0  0
    4.0632   -1.0851    2.1321 H   0  0  0  0  0  0  0  0  0  0  0  0
    3.9972    0.0764   -2.0706 H   0  0  0  0  0  0  0  0  0  0  0  0
    0.7869   -0.4070    2.9545 H   0  0  0  0  0  0  0  0  0  0  0  0
    2.1082   -1.5021    3.3587 H   0  0  0  0  0  0  0  0  0  0  0  0
    0.7738   -2.0852    2.3644 H   0  0  0  0  0  0  0  0  0  0  0  0
   -4.1464    1.3030    0.7079 H   0  0  0  0  0  0  0  0  0  0  0  0
    2.6833    1.4270   -3.3311 H   0  0  0  0  0  0  0  0  0  0  0  0
    1.7290    2.2108   -2.0219 H   0  0  0  0  0  0  0  0  0  0  0  0
    0.9587    1.7191   -3.5310 H   0  0  0  0  0  0  0  0  0  0  0  0
   -1.0678    3.4535   -0.7084 H   0  0  0  0  0  0  0  0  0  0  0  0
   -1.7740    4.6215    0.4318 H   0  0  0  0  0  0  0  0  0  0  0  0
   -2.8489    3.6134   -0.5639 H   0  0  0  0  0  0  0  0  0  0  0  0
   -5.3961   -0.0549   -1.5107 H   0  0  0  0  0  0  0  0  0  0  0  0
   -6.1223   -1.6494   -1.2168 H   0  0  0  0  0  0  0  0  0  0  0  0
   -4.5459   -1.5447   -2.0294 H   0  0  0  0  0  0  0  0  0  0  0  0
  1 18  1  0  0  0  0
  2  8  1  0  0  0  0
  2 13  1  0  0  0  0
  3 12  1  0  0  0  0
  3 22  1  0  0  0  0
  4  9  2  0  0  0  0
  5 15  1  0  0  0  0
  5 23  1  0  0  0  0
  6 20  1  0  0  0  0
  6 24  1  0  0  0  0
  7 19  2  0  0  0  0
  8  9  1  0  0  0  0
  8 10  1  0  0  0  0
  8 12  1  0  0  0  0
  9 11  1  0  0  0  0
 10 14  2  0  0  0  0
 10 17  1  0  0  0  0
 11 13  2  0  0  0  0
 11 15  1  0  0  0  0
 12 16  2  0  0  0  0
 13 18  1  0  0  0  0
 14 19  1  0  0  0  0
 14 25  1  0  0  0  0
 15 21  2  0  0  0  0
 16 19  1  0  0  0  0
 16 26  1  0  0  0  0
 17 27  1  0  0  0  0
 17 28  1  0  0  0  0
 17 29  1  0  0  0  0
 18 20  2  0  0  0  0
 20 21  1  0  0  0  0
 21 30  1  0  0  0  0
 22 31  1  0  0  0  0
 22 32  1  0  0  0  0
 22 33  1  0  0  0  0
 23 34  1  0  0  0  0
 23 35  1  0  0  0  0
 23 36  1  0  0  0  0
 24 37  1  0  0  0  0
 24 38  1  0  0  0  0
 24 39  1  0  0  0  0
M  END
> <PUBCHEM_COMPOUND_CID>
3082005

> <PUBCHEM_CONFORMER_RMSD>
0.6

> <PUBCHEM_CONFORMER_DIVERSEORDER>
2
3
1
4

> <PUBCHEM_MMFF94_PARTIAL_CHARGES>
27
1 -0.18
10 -0.28
11 0.09
12 -0.06
13 0.08
14 -0.14
15 0.08
16 -0.14
17 0.14
18 0.18
19 0.54
2 -0.36
20 0.08
21 -0.15
22 0.28
23 0.28
24 0.28
25 0.15
26 0.15
3 -0.36
30 0.15
4 -0.57
5 -0.36
6 -0.36
7 -0.57
8 0.62
9 0.42

> <PUBCHEM_EFFECTIVE_ROTOR_COUNT>
3.2

> <PUBCHEM_PHARMACOPHORE_FEATURES>
9
1 2 acceptor
1 3 acceptor
1 4 acceptor
1 5 acceptor
1 6 acceptor
1 7 acceptor
5 2 8 9 11 13 rings
6 11 13 15 18 20 21 rings
6 8 10 12 14 16 19 rings

> <PUBCHEM_HEAVY_ATOM_COUNT>
24

> <PUBCHEM_ATOM_DEF_STEREO_COUNT>
1

> <PUBCHEM_ATOM_UDEF_STEREO_COUNT>
0

> <PUBCHEM_BOND_DEF_STEREO_COUNT>
0

> <PUBCHEM_BOND_UDEF_STEREO_COUNT>
0

> <PUBCHEM_ISOTOPIC_ATOM_COUNT>
0

> <PUBCHEM_COMPONENT_COUNT>
1

> <PUBCHEM_CACTVS_TAUTO_COUNT>
3

> <PUBCHEM_CONFORMER_ID>
002F071500000002

> <PUBCHEM_MMFF94_ENERGY>
82.8989

> <PUBCHEM_FEATURE_SELFOVERLAP>
45.778

> <PUBCHEM_SHAPE_FINGERPRINT>
10863032 1 17970906889565373138
11578080 2 17771663184779277588
11640471 11 17986657358825444808
12166972 35 18131075883619919871
12236239 1 18131070446154620274
12553582 1 18408884010643122419
12788726 201 18341059600722600603
13009979 54 18201144469365118590
13134695 92 16343981412503240564
13140716 1 18189894215140380971
13583140 156 17533246243327475242
13965767 371 17408510097561780768
14115302 16 18272369720284684751
14294032 229 18122618620974939989
16752209 62 18338527421159427163
16945 1 18334856130090356291
17349148 13 18343301478708365175
17357779 13 17968393294283661005
17980427 23 18342166783046247356
192875 21 18059848446256479908
200 152 17704075096706769027
20510252 161 18114462365729152521
20600515 1 18114455652980092153
21267235 1 18334574595443448523
21285901 2 17822279202673988479
23402539 116 18186807980579931015
23419403 2 16465942398566584305
23557571 272 17894620479075131980
23559900 14 18188217481013340418
23598291 2 17844804982927785130
2748010 2 18044941164896960723
474 4 17487889017743690692
7471813 234 18343586213533683412
77492 1 18059567035962455474
81228 2 18114730599659247499

> <PUBCHEM_SHAPE_MULTIPOLES>
460.56
8.01
2.66
1.86
0.26
1.7
0.61
-2.87
1.31
2.66
-0.17
-1.33
0.2
-1.7

> <PUBCHEM_SHAPE_SELFOVERLAP>
1002.295

> <PUBCHEM_SHAPE_VOLUME>
255.8

> <PUBCHEM_COORDINATE_TYPE>
2
5
10

$$$$

