5284441
  -OEChem-07051212532D

 45 45  0     1  0  0  0  0  0999 V2000
    7.8671    3.6200    0.0000 Cl  0  0  0  0  0  0  0  0  0  0  0  0
    0.0000    4.3700    0.0000 Cl  0  0  0  0  0  0  0  0  0  0  0  0
    6.1350    6.6200    0.0000 O   0  0  0  0  0  0  0  0  0  0  0  0
    5.2690    4.1200    0.0000 N   0  0  3  0  0  0  0  0  0  0  0  0
    5.2690    5.1200    0.0000 C   0  0  3  0  0  0  0  0  0  0  0  0
    4.4030    3.6200    0.0000 C   0  0  0  0  0  0  0  0  0  0  0  0
    6.1350    3.6200    0.0000 C   0  0  0  0  0  0  0  0  0  0  0  0
    6.1350    5.6200    0.0000 C   0  0  0  0  0  0  0  0  0  0  0  0
    4.4030    5.6200    0.0000 C   0  0  0  0  0  0  0  0  0  0  0  0
    4.4030    2.6200    0.0000 C   0  0  0  0  0  0  0  0  0  0  0  0
    7.0010    4.1200    0.0000 C   0  0  0  0  0  0  0  0  0  0  0  0
    3.5369    2.1200    0.0000 C   0  0  0  0  0  0  0  0  0  0  0  0
    5.2690    2.1200    0.0000 C   0  0  0  0  0  0  0  0  0  0  0  0
    7.0010    7.1200    0.0000 C   0  0  0  0  0  0  0  0  0  0  0  0
    3.5369    1.1200    0.0000 C   0  0  0  0  0  0  0  0  0  0  0  0
    5.2690    1.1200    0.0000 C   0  0  0  0  0  0  0  0  0  0  0  0
    4.4030    0.6200    0.0000 C   0  0  0  0  0  0  0  0  0  0  0  0
    7.8671    6.6200    0.0000 C   0  0  0  0  0  0  0  0  0  0  0  0
    7.0010    8.1200    0.0000 C   0  0  0  0  0  0  0  0  0  0  0  0
    8.7331    7.1200    0.0000 C   0  0  0  0  0  0  0  0  0  0  0  0
    7.8671    8.6200    0.0000 C   0  0  0  0  0  0  0  0  0  0  0  0
    8.7331    8.1200    0.0000 C   0  0  0  0  0  0  0  0  0  0  0  0
    5.8059    4.8100    0.0000 H   0  0  0  0  0  0  0  0  0  0  0  0
    4.1909    4.2026    0.0000 H   0  0  0  0  0  0  0  0  0  0  0  0
    3.7924    3.5123    0.0000 H   0  0  0  0  0  0  0  0  0  0  0  0
    5.7365    3.1450    0.0000 H   0  0  0  0  0  0  0  0  0  0  0  0
    6.5335    3.1450    0.0000 H   0  0  0  0  0  0  0  0  0  0  0  0
    6.3471    5.0374    0.0000 H   0  0  0  0  0  0  0  0  0  0  0  0
    6.7456    5.7277    0.0000 H   0  0  0  0  0  0  0  0  0  0  0  0
    4.7130    6.1569    0.0000 H   0  0  0  0  0  0  0  0  0  0  0  0
    3.8660    5.9300    0.0000 H   0  0  0  0  0  0  0  0  0  0  0  0
    4.0930    5.0831    0.0000 H   0  0  0  0  0  0  0  0  0  0  0  0
    7.3996    4.5950    0.0000 H   0  0  0  0  0  0  0  0  0  0  0  0
    6.6025    4.5950    0.0000 H   0  0  0  0  0  0  0  0  0  0  0  0
    3.0000    2.4300    0.0000 H   0  0  0  0  0  0  0  0  0  0  0  0
    5.8059    2.4300    0.0000 H   0  0  0  0  0  0  0  0  0  0  0  0
    3.0000    0.8100    0.0000 H   0  0  0  0  0  0  0  0  0  0  0  0
    5.8059    0.8100    0.0000 H   0  0  0  0  0  0  0  0  0  0  0  0
    4.4030    0.0000    0.0000 H   0  0  0  0  0  0  0  0  0  0  0  0
    7.8671    6.0000    0.0000 H   0  0  0  0  0  0  0  0  0  0  0  0
    6.4641    8.4300    0.0000 H   0  0  0  0  0  0  0  0  0  0  0  0
    9.2700    6.8100    0.0000 H   0  0  0  0  0  0  0  0  0  0  0  0
    7.8671    9.2400    0.0000 H   0  0  0  0  0  0  0  0  0  0  0  0
    9.2700    8.4300    0.0000 H   0  0  0  0  0  0  0  0  0  0  0  0
    1.0000    4.3700    0.0000 H   0  0  0  0  0  0  0  0  0  0  0  0
  1 11  1  0  0  0  0
  2 45  1  0  0  0  0
  3  8  1  0  0  0  0
  3 14  1  0  0  0  0
  4  5  1  0  0  0  0
  4  6  1  0  0  0  0
  4  7  1  0  0  0  0
  5  8  1  0  0  0  0
  5  9  1  0  0  0  0
  5 23  1  0  0  0  0
  6 10  1  0  0  0  0
  6 24  1  0  0  0  0
  6 25  1  0  0  0  0
  7 11  1  0  0  0  0
  7 26  1  0  0  0  0
  7 27  1  0  0  0  0
  8 28  1  0  0  0  0
  8 29  1  0  0  0  0
  9 30  1  0  0  0  0
  9 31  1  0  0  0  0
  9 32  1  0  0  0  0
 10 12  2  0  0  0  0
 10 13  1  0  0  0  0
 11 33  1  0  0  0  0
 11 34  1  0  0  0  0
 12 15  1  0  0  0  0
 12 35  1  0  0  0  0
 13 16  2  0  0  0  0
 13 36  1  0  0  0  0
 14 18  2  0  0  0  0
 14 19  1  0  0  0  0
 15 17  2  0  0  0  0
 15 37  1  0  0  0  0
 16 17  1  0  0  0  0
 16 38  1  0  0  0  0
 17 39  1  0  0  0  0
 18 20  1  0  0  0  0
 18 40  1  0  0  0  0
 19 21  2  0  0  0  0
 19 41  1  0  0  0  0
 20 22  2  0  0  0  0
 20 42  1  0  0  0  0
 21 22  1  0  0  0  0
 21 43  1  0  0  0  0
 22 44  1  0  0  0  0
M  END
> <PUBCHEM_COMPOUND_CID>
5284441

> <PUBCHEM_COMPOUND_CANONICALIZED>
1

> <PUBCHEM_CACTVS_COMPLEXITY>
262

> <PUBCHEM_CACTVS_HBOND_ACCEPTOR>
2

> <PUBCHEM_CACTVS_HBOND_DONOR>
1

> <PUBCHEM_CACTVS_ROTATABLE_BOND>
8

> <PUBCHEM_CACTVS_SUBSKEYS>
AAADceB6IAAGAAAAAAAAAAAAAAAAAAAAAAAwYAAAAAAAAAABQAAAHgIAAAAADC/hmEYyBoMABACAAiBCAACCCAAgIAAIiAAODIgOJiKEsRvHOCjkwBGYqAeQwAAOAAAAAAAAAAAAAAAAAAAAAAAAAAAAAA==

> <PUBCHEM_IUPAC_OPENEYE_NAME>
N-benzyl-N-(2-chloroethyl)-1-phenoxy-propan-2-amine hydrochloride

> <PUBCHEM_IUPAC_CAS_NAME>
N-(2-chloroethyl)-1-phenoxy-N-(phenylmethyl)-2-propanamine hydrochloride

> <PUBCHEM_IUPAC_NAME>
N-benzyl-N-(2-chloroethyl)-1-phenoxypropan-2-amine hydrochloride

> <PUBCHEM_IUPAC_SYSTEMATIC_NAME>
N-(2-chloroethyl)-1-phenoxy-N-(phenylmethyl)propan-2-amine hydrochloride

> <PUBCHEM_IUPAC_TRADITIONAL_NAME>
benzyl-(2-chloroethyl)-(1-methyl-2-phenoxy-ethyl)amine hydrochloride

> <PUBCHEM_IUPAC_INCHI>
InChI=1S/C18H22ClNO.ClH/c1-16(15-21-18-10-6-3-7-11-18)20(13-12-19)14-17-8-4-2-5-9-17;/h2-11,16H,12-15H2,1H3;1H

> <PUBCHEM_IUPAC_INCHIKEY>
VBCPVIWPDJVHAN-UHFFFAOYSA-N

> <PUBCHEM_EXACT_MASS>
339.11567

> <PUBCHEM_MOLECULAR_FORMULA>
C18H23Cl2NO

> <PUBCHEM_MOLECULAR_WEIGHT>
340.28732

> <PUBCHEM_OPENEYE_CAN_SMILES>
CC(COC1=CC=CC=C1)N(CCCl)CC2=CC=CC=C2.Cl

> <PUBCHEM_OPENEYE_ISO_SMILES>
CC(COC1=CC=CC=C1)N(CCCl)CC2=CC=CC=C2.Cl

> <PUBCHEM_CACTVS_TPSA>
12.5

> <PUBCHEM_MONOISOTOPIC_WEIGHT>
339.11567

> <PUBCHEM_TOTAL_CHARGE>
0

> <PUBCHEM_HEAVY_ATOM_COUNT>
22

> <PUBCHEM_ATOM_DEF_STEREO_COUNT>
0

> <PUBCHEM_ATOM_UDEF_STEREO_COUNT>
1

> <PUBCHEM_BOND_DEF_STEREO_COUNT>
0

> <PUBCHEM_BOND_UDEF_STEREO_COUNT>
0

> <PUBCHEM_ISOTOPIC_ATOM_COUNT>
0

> <PUBCHEM_COMPONENT_COUNT>
2

> <PUBCHEM_CACTVS_TAUTO_COUNT>
1

> <PUBCHEM_COORDINATE_TYPE>
1
5
255

> <PUBCHEM_BONDANNOTATIONS>
10  12  8
10  13  8
12  15  8
13  16  8
14  18  8
14  19  8
15  17  8
16  17  8
18  20  8
19  21  8
20  22  8
21  22  8
5  9  3

$$$$

