6603
  -OEChem-06261201242D

 32 32  0     0  0  0  0  0  0999 V2000
    3.8660   -0.5000    0.0000 N   0  0  0  0  0  0  0  0  0  0  0  0
    3.0000    0.0000    0.0000 C   0  0  0  0  0  0  0  0  0  0  0  0
    4.7320    0.0000    0.0000 C   0  0  0  0  0  0  0  0  0  0  0  0
    4.7320    1.0000    0.0000 C   0  0  0  0  0  0  0  0  0  0  0  0
    3.0000    1.0000    0.0000 C   0  0  0  0  0  0  0  0  0  0  0  0
    3.8660    1.5000    0.0000 C   0  0  0  0  0  0  0  0  0  0  0  0
    5.7320    0.0000    0.0000 C   0  0  0  0  0  0  0  0  0  0  0  0
    5.2320   -0.8660    0.0000 C   0  0  0  0  0  0  0  0  0  0  0  0
    2.0000    0.0000    0.0000 C   0  0  0  0  0  0  0  0  0  0  0  0
    2.5000   -0.8660    0.0000 C   0  0  0  0  0  0  0  0  0  0  0  0
    3.8660   -1.5000    0.0000 C   0  0  0  0  0  0  0  0  0  0  0  0
    5.3426    0.8923    0.0000 H   0  0  0  0  0  0  0  0  0  0  0  0
    4.9441    1.5826    0.0000 H   0  0  0  0  0  0  0  0  0  0  0  0
    2.7880    1.5826    0.0000 H   0  0  0  0  0  0  0  0  0  0  0  0
    2.3894    0.8923    0.0000 H   0  0  0  0  0  0  0  0  0  0  0  0
    4.2646    1.9750    0.0000 H   0  0  0  0  0  0  0  0  0  0  0  0
    3.4675    1.9750    0.0000 H   0  0  0  0  0  0  0  0  0  0  0  0
    5.7320   -0.6200    0.0000 H   0  0  0  0  0  0  0  0  0  0  0  0
    6.3520    0.0000    0.0000 H   0  0  0  0  0  0  0  0  0  0  0  0
    5.7320    0.6200    0.0000 H   0  0  0  0  0  0  0  0  0  0  0  0
    4.6951   -1.1760    0.0000 H   0  0  0  0  0  0  0  0  0  0  0  0
    5.5420   -1.4030    0.0000 H   0  0  0  0  0  0  0  0  0  0  0  0
    5.7690   -0.5560    0.0000 H   0  0  0  0  0  0  0  0  0  0  0  0
    2.0000    0.6200    0.0000 H   0  0  0  0  0  0  0  0  0  0  0  0
    1.3800    0.0000    0.0000 H   0  0  0  0  0  0  0  0  0  0  0  0
    2.0000   -0.6200    0.0000 H   0  0  0  0  0  0  0  0  0  0  0  0
    1.9631   -0.5560    0.0000 H   0  0  0  0  0  0  0  0  0  0  0  0
    2.1900   -1.4030    0.0000 H   0  0  0  0  0  0  0  0  0  0  0  0
    3.0369   -1.1760    0.0000 H   0  0  0  0  0  0  0  0  0  0  0  0
    3.2460   -1.5000    0.0000 H   0  0  0  0  0  0  0  0  0  0  0  0
    3.8660   -2.1200    0.0000 H   0  0  0  0  0  0  0  0  0  0  0  0
    4.4860   -1.5000    0.0000 H   0  0  0  0  0  0  0  0  0  0  0  0
  1  2  1  0  0  0  0
  1  3  1  0  0  0  0
  1 11  1  0  0  0  0
  2  5  1  0  0  0  0
  2  9  1  0  0  0  0
  2 10  1  0  0  0  0
  3  4  1  0  0  0  0
  3  7  1  0  0  0  0
  3  8  1  0  0  0  0
  4  6  1  0  0  0  0
  4 12  1  0  0  0  0
  4 13  1  0  0  0  0
  5  6  1  0  0  0  0
  5 14  1  0  0  0  0
  5 15  1  0  0  0  0
  6 16  1  0  0  0  0
  6 17  1  0  0  0  0
  7 18  1  0  0  0  0
  7 19  1  0  0  0  0
  7 20  1  0  0  0  0
  8 21  1  0  0  0  0
  8 22  1  0  0  0  0
  8 23  1  0  0  0  0
  9 24  1  0  0  0  0
  9 25  1  0  0  0  0
  9 26  1  0  0  0  0
 10 27  1  0  0  0  0
 10 28  1  0  0  0  0
 10 29  1  0  0  0  0
 11 30  1  0  0  0  0
 11 31  1  0  0  0  0
 11 32  1  0  0  0  0
M  END
> <PUBCHEM_COMPOUND_CID>
6603

> <PUBCHEM_COMPOUND_CANONICALIZED>
1

> <PUBCHEM_CACTVS_COMPLEXITY>
131

> <PUBCHEM_CACTVS_HBOND_ACCEPTOR>
1

> <PUBCHEM_CACTVS_HBOND_DONOR>
0

> <PUBCHEM_CACTVS_ROTATABLE_BOND>
0

> <PUBCHEM_CACTVS_SUBSKEYS>
AAADceByAAAAAAAAAAAAAAAAAAAAAAAAAAAsAAAAAAAAAAAAAAAAHAAAAAAADIiBAAQCAAMAAAAAAAAAAAAAAAAAAAAAAAAIAAAAAAIAgAAEAAAAAACAAAEQgEAMAAAAAAAAAAAAAAAAAAAAAAAAAAAAAA==

> <PUBCHEM_IUPAC_OPENEYE_NAME>
1,2,2,6,6-pentamethylpiperidine

> <PUBCHEM_IUPAC_CAS_NAME>
1,2,2,6,6-pentamethylpiperidine

> <PUBCHEM_IUPAC_NAME>
1,2,2,6,6-pentamethylpiperidine

> <PUBCHEM_IUPAC_SYSTEMATIC_NAME>
1,2,2,6,6-pentamethylpiperidine

> <PUBCHEM_IUPAC_TRADITIONAL_NAME>
1,2,2,6,6-pentamethylpiperidine

> <PUBCHEM_IUPAC_INCHI>
InChI=1S/C10H21N/c1-9(2)7-6-8-10(3,4)11(9)5/h6-8H2,1-5H3

> <PUBCHEM_IUPAC_INCHIKEY>
XULIXFLCVXWHRF-UHFFFAOYSA-N

> <PUBCHEM_XLOGP3_AA>
2.3

> <PUBCHEM_EXACT_MASS>
155.1674

> <PUBCHEM_MOLECULAR_FORMULA>
C10H21N

> <PUBCHEM_MOLECULAR_WEIGHT>
155.28044

> <PUBCHEM_OPENEYE_CAN_SMILES>
CC1(CCCC(N1C)(C)C)C

> <PUBCHEM_OPENEYE_ISO_SMILES>
CC1(CCCC(N1C)(C)C)C

> <PUBCHEM_CACTVS_TPSA>
3.2

> <PUBCHEM_MONOISOTOPIC_WEIGHT>
155.1674

> <PUBCHEM_TOTAL_CHARGE>
0

> <PUBCHEM_HEAVY_ATOM_COUNT>
11

> <PUBCHEM_ATOM_DEF_STEREO_COUNT>
0

> <PUBCHEM_ATOM_UDEF_STEREO_COUNT>
0

> <PUBCHEM_BOND_DEF_STEREO_COUNT>
0

> <PUBCHEM_BOND_UDEF_STEREO_COUNT>
0

> <PUBCHEM_ISOTOPIC_ATOM_COUNT>
0

> <PUBCHEM_COMPONENT_COUNT>
1

> <PUBCHEM_CACTVS_TAUTO_COUNT>
1

> <PUBCHEM_COORDINATE_TYPE>
1
5
255

$$$$

