443374
  -OEChem-07051213022D

 51 53  0     1  0  0  0  0  0999 V2000
    7.4021   -2.6934    0.0000 S   0  0  0  0  0  0  0  0  0  0  0  0
    3.9380   -0.6934    0.0000 O   0  0  0  0  0  0  0  0  0  0  0  0
    6.9021   -3.5594    0.0000 O   0  0  0  0  0  0  0  0  0  0  0  0
    7.9021   -1.8273    0.0000 O   0  0  0  0  0  0  0  0  0  0  0  0
    3.5823    2.6545    0.0000 N   0  0  3  0  0  0  0  0  0  0  0  0
    4.8611    0.8944    0.0000 N   0  0  0  0  0  0  0  0  0  0  0  0
    4.5823    2.6545    0.0000 C   0  0  3  0  0  0  0  0  0  0  0  0
    4.8913    3.6056    0.0000 C   0  0  0  0  0  0  0  0  0  0  0  0
    4.0823    4.1934    0.0000 C   0  0  0  0  0  0  0  0  0  0  0  0
    3.2733    3.6056    0.0000 C   0  0  0  0  0  0  0  0  0  0  0  0
    5.1701    1.8455    0.0000 C   0  0  0  0  0  0  0  0  0  0  0  0
    2.9945    1.8455    0.0000 C   0  0  0  0  0  0  0  0  0  0  0  0
    6.1701    1.8455    0.0000 C   0  0  0  0  0  0  0  0  0  0  0  0
    5.6701    0.3066    0.0000 C   0  0  0  0  0  0  0  0  0  0  0  0
    2.0000    1.9500    0.0000 C   0  0  0  0  0  0  0  0  0  0  0  0
    6.4791    0.8944    0.0000 C   0  0  0  0  0  0  0  0  0  0  0  0
    5.6701   -0.6934    0.0000 C   0  0  0  0  0  0  0  0  0  0  0  0
    6.5361   -1.1934    0.0000 C   0  0  0  0  0  0  0  0  0  0  0  0
    4.8041   -1.1934    0.0000 C   0  0  0  0  0  0  0  0  0  0  0  0
    6.5361   -2.1934    0.0000 C   0  0  0  0  0  0  0  0  0  0  0  0
    4.8041   -2.1934    0.0000 C   0  0  0  0  0  0  0  0  0  0  0  0
    5.6701   -2.6934    0.0000 C   0  0  0  0  0  0  0  0  0  0  0  0
    8.2682   -3.1934    0.0000 C   0  0  0  0  0  0  0  0  0  0  0  0
    8.2682   -4.1934    0.0000 C   0  0  0  0  0  0  0  0  0  0  0  0
    3.0720   -1.1934    0.0000 C   0  0  0  0  0  0  0  0  0  0  0  0
    5.1947    2.7515    0.0000 H   0  0  0  0  0  0  0  0  0  0  0  0
    5.4577    3.3534    0.0000 H   0  0  0  0  0  0  0  0  0  0  0  0
    5.2013    4.1425    0.0000 H   0  0  0  0  0  0  0  0  0  0  0  0
    4.4972    4.6541    0.0000 H   0  0  0  0  0  0  0  0  0  0  0  0
    3.6674    4.6541    0.0000 H   0  0  0  0  0  0  0  0  0  0  0  0
    2.9633    4.1425    0.0000 H   0  0  0  0  0  0  0  0  0  0  0  0
    2.7069    3.3534    0.0000 H   0  0  0  0  0  0  0  0  0  0  0  0
    2.8236    1.2495    0.0000 H   0  0  0  0  0  0  0  0  0  0  0  0
    3.5518    1.5737    0.0000 H   0  0  0  0  0  0  0  0  0  0  0  0
    4.2714    0.7028    0.0000 H   0  0  0  0  0  0  0  0  0  0  0  0
    6.5345    2.3471    0.0000 H   0  0  0  0  0  0  0  0  0  0  0  0
    2.0648    2.5666    0.0000 H   0  0  0  0  0  0  0  0  0  0  0  0
    1.3834    2.0148    0.0000 H   0  0  0  0  0  0  0  0  0  0  0  0
    1.9352    1.3334    0.0000 H   0  0  0  0  0  0  0  0  0  0  0  0
    7.0688    0.7028    0.0000 H   0  0  0  0  0  0  0  0  0  0  0  0
    7.0730   -0.8834    0.0000 H   0  0  0  0  0  0  0  0  0  0  0  0
    4.2671   -2.5034    0.0000 H   0  0  0  0  0  0  0  0  0  0  0  0
    5.6701   -3.3134    0.0000 H   0  0  0  0  0  0  0  0  0  0  0  0
    8.8788   -3.3010    0.0000 H   0  0  0  0  0  0  0  0  0  0  0  0
    8.4802   -2.6107    0.0000 H   0  0  0  0  0  0  0  0  0  0  0  0
    7.6482   -4.1934    0.0000 H   0  0  0  0  0  0  0  0  0  0  0  0
    8.2682   -4.8134    0.0000 H   0  0  0  0  0  0  0  0  0  0  0  0
    8.8882   -4.1934    0.0000 H   0  0  0  0  0  0  0  0  0  0  0  0
    2.7620   -0.6564    0.0000 H   0  0  0  0  0  0  0  0  0  0  0  0
    2.5351   -1.5034    0.0000 H   0  0  0  0  0  0  0  0  0  0  0  0
    3.3820   -1.7303    0.0000 H   0  0  0  0  0  0  0  0  0  0  0  0
  1  3  2  0  0  0  0
  1  4  2  0  0  0  0
  1 20  1  0  0  0  0
  1 23  1  0  0  0  0
  2 19  1  0  0  0  0
  2 25  1  0  0  0  0
  5  7  1  0  0  0  0
  5 10  1  0  0  0  0
  5 12  1  0  0  0  0
  6 11  1  0  0  0  0
  6 14  1  0  0  0  0
  6 35  1  0  0  0  0
  7  8  1  0  0  0  0
  7 11  1  0  0  0  0
  7 26  1  0  0  0  0
  8  9  1  0  0  0  0
  8 27  1  0  0  0  0
  8 28  1  0  0  0  0
  9 10  1  0  0  0  0
  9 29  1  0  0  0  0
  9 30  1  0  0  0  0
 10 31  1  0  0  0  0
 10 32  1  0  0  0  0
 11 13  2  0  0  0  0
 12 15  1  0  0  0  0
 12 33  1  0  0  0  0
 12 34  1  0  0  0  0
 13 16  1  0  0  0  0
 13 36  1  0  0  0  0
 14 16  2  0  0  0  0
 14 17  1  0  0  0  0
 15 37  1  0  0  0  0
 15 38  1  0  0  0  0
 15 39  1  0  0  0  0
 16 40  1  0  0  0  0
 17 18  1  0  0  0  0
 17 19  2  0  0  0  0
 18 20  2  0  0  0  0
 18 41  1  0  0  0  0
 19 21  1  0  0  0  0
 20 22  1  0  0  0  0
 21 22  2  0  0  0  0
 21 42  1  0  0  0  0
 22 43  1  0  0  0  0
 23 24  1  0  0  0  0
 23 44  1  0  0  0  0
 23 45  1  0  0  0  0
 24 46  1  0  0  0  0
 24 47  1  0  0  0  0
 24 48  1  0  0  0  0
 25 49  1  0  0  0  0
 25 50  1  0  0  0  0
 25 51  1  0  0  0  0
M  END
> <PUBCHEM_COMPOUND_CID>
443374

> <PUBCHEM_COMPOUND_CANONICALIZED>
1

> <PUBCHEM_CACTVS_COMPLEXITY>
533

> <PUBCHEM_CACTVS_HBOND_ACCEPTOR>
4

> <PUBCHEM_CACTVS_HBOND_DONOR>
1

> <PUBCHEM_CACTVS_ROTATABLE_BOND>
6

> <PUBCHEM_CACTVS_SUBSKEYS>
AAADceB7MABAAAAAAAAAAAAAAAAAAWLAAAAwAAAAAAAAAAABwAAAHgQQAAAADCzF3gayh5PJlAqgAyRiRHDCiCAhKjAImTg+bJgMZuLksZuUMChm0BHo6AeQwOAOAIAAgAAIAAABAAEAABAAAAAAAAAAAA==

> <PUBCHEM_IUPAC_OPENEYE_NAME>
2-(1-ethylpyrrolidin-2-yl)-5-(5-ethylsulfonyl-2-methoxy-phenyl)-1H-pyrrole

> <PUBCHEM_IUPAC_CAS_NAME>
2-(1-ethyl-2-pyrrolidinyl)-5-(5-ethylsulfonyl-2-methoxyphenyl)-1H-pyrrole

> <PUBCHEM_IUPAC_NAME>
2-(1-ethylpyrrolidin-2-yl)-5-(5-ethylsulfonyl-2-methoxyphenyl)-1H-pyrrole

> <PUBCHEM_IUPAC_SYSTEMATIC_NAME>
2-(1-ethylpyrrolidin-2-yl)-5-(5-ethylsulfonyl-2-methoxy-phenyl)-1H-pyrrole

> <PUBCHEM_IUPAC_TRADITIONAL_NAME>
2-(5-esyl-2-methoxy-phenyl)-5-(1-ethylpyrrolidin-2-yl)-1H-pyrrole

> <PUBCHEM_IUPAC_INCHI>
InChI=1S/C19H26N2O3S/c1-4-21-12-6-7-18(21)17-10-9-16(20-17)15-13-14(25(22,23)5-2)8-11-19(15)24-3/h8-11,13,18,20H,4-7,12H2,1-3H3

> <PUBCHEM_IUPAC_INCHIKEY>
PWMDANRQWZFAPB-UHFFFAOYSA-N

> <PUBCHEM_XLOGP3_AA>
2.7

> <PUBCHEM_EXACT_MASS>
362.166414

> <PUBCHEM_MOLECULAR_FORMULA>
C19H26N2O3S

> <PUBCHEM_MOLECULAR_WEIGHT>
362.48634

> <PUBCHEM_OPENEYE_CAN_SMILES>
CCN1CCCC1C2=CC=C(N2)C3=C(C=CC(=C3)S(=O)(=O)CC)OC

> <PUBCHEM_OPENEYE_ISO_SMILES>
CCN1CCCC1C2=CC=C(N2)C3=C(C=CC(=C3)S(=O)(=O)CC)OC

> <PUBCHEM_CACTVS_TPSA>
70.8

> <PUBCHEM_MONOISOTOPIC_WEIGHT>
362.166414

> <PUBCHEM_TOTAL_CHARGE>
0

> <PUBCHEM_HEAVY_ATOM_COUNT>
25

> <PUBCHEM_ATOM_DEF_STEREO_COUNT>
0

> <PUBCHEM_ATOM_UDEF_STEREO_COUNT>
1

> <PUBCHEM_BOND_DEF_STEREO_COUNT>
0

> <PUBCHEM_BOND_UDEF_STEREO_COUNT>
0

> <PUBCHEM_ISOTOPIC_ATOM_COUNT>
0

> <PUBCHEM_COMPONENT_COUNT>
1

> <PUBCHEM_CACTVS_TAUTO_COUNT>
1

> <PUBCHEM_COORDINATE_TYPE>
1
5
255

> <PUBCHEM_BONDANNOTATIONS>
11  13  8
13  16  8
14  16  8
17  18  8
17  19  8
18  20  8
19  21  8
20  22  8
21  22  8
6  11  8
6  14  8
7  11  3

$$$$

