583118
  -OEChem-06241222443D

 26 28  0     1  0  0  0  0  0999 V2000
   -3.2936    0.0003    1.2630 O   0  0  0  0  0  0  0  0  0  0  0  0
   -0.4941    1.3221   -0.4973 N   0  0  2  0  0  0  0  0  0  0  0  0
   -0.4939   -1.3223   -0.4966 N   0  0  1  0  0  0  0  0  0  0  0  0
   -1.0495    0.7726   -1.7483 C   0  0  0  0  0  0  0  0  0  0  0  0
   -1.0494   -0.7735   -1.7480 C   0  0  0  0  0  0  0  0  0  0  0  0
    0.7398    0.7044   -0.1852 C   0  0  0  0  0  0  0  0  0  0  0  0
    0.7399   -0.7045   -0.1850 C   0  0  0  0  0  0  0  0  0  0  0  0
   -1.4011    1.3291    0.6594 C   0  0  0  0  0  0  0  0  0  0  0  0
   -1.4010   -1.3289    0.6599 C   0  0  0  0  0  0  0  0  0  0  0  0
   -2.1305    0.0001    0.8457 C   0  0  0  0  0  0  0  0  0  0  0  0
    1.8829    1.4086    0.1830 C   0  0  0  0  0  0  0  0  0  0  0  0
    1.8832   -1.4084    0.1833 C   0  0  0  0  0  0  0  0  0  0  0  0
    3.0336    0.7001    0.5329 C   0  0  0  0  0  0  0  0  0  0  0  0
    3.0338   -0.6998    0.5330 C   0  0  0  0  0  0  0  0  0  0  0  0
   -0.4565    1.1366   -2.5975 H   0  0  0  0  0  0  0  0  0  0  0  0
   -2.0663    1.1515   -1.9095 H   0  0  0  0  0  0  0  0  0  0  0  0
   -2.0661   -1.1526   -1.9090 H   0  0  0  0  0  0  0  0  0  0  0  0
   -0.4564   -1.1379   -2.5969 H   0  0  0  0  0  0  0  0  0  0  0  0
   -2.1594    2.1026    0.4896 H   0  0  0  0  0  0  0  0  0  0  0  0
   -0.8777    1.5810    1.5894 H   0  0  0  0  0  0  0  0  0  0  0  0
   -0.8775   -1.5804    1.5900 H   0  0  0  0  0  0  0  0  0  0  0  0
   -2.1592   -2.1026    0.4905 H   0  0  0  0  0  0  0  0  0  0  0  0
    1.8863    2.4942    0.2028 H   0  0  0  0  0  0  0  0  0  0  0  0
    1.8868   -2.4940    0.2034 H   0  0  0  0  0  0  0  0  0  0  0  0
    3.9337    1.2385    0.8169 H   0  0  0  0  0  0  0  0  0  0  0  0
    3.9339   -1.2380    0.8170 H   0  0  0  0  0  0  0  0  0  0  0  0
  1 10  2  0  0  0  0
  2  4  1  0  0  0  0
  2  6  1  0  0  0  0
  2  8  1  0  0  0  0
  3  5  1  0  0  0  0
  3  7  1  0  0  0  0
  3  9  1  0  0  0  0
  4  5  1  0  0  0  0
  4 15  1  0  0  0  0
  4 16  1  0  0  0  0
  5 17  1  0  0  0  0
  5 18  1  0  0  0  0
  6  7  1  0  0  0  0
  6 11  2  0  0  0  0
  7 12  2  0  0  0  0
  8 10  1  0  0  0  0
  8 19  1  0  0  0  0
  8 20  1  0  0  0  0
  9 10  1  0  0  0  0
  9 21  1  0  0  0  0
  9 22  1  0  0  0  0
 11 13  1  0  0  0  0
 11 23  1  0  0  0  0
 12 14  1  0  0  0  0
 12 24  1  0  0  0  0
 13 14  2  0  0  0  0
 13 25  1  0  0  0  0
 14 26  1  0  0  0  0
M  END
> <PUBCHEM_COMPOUND_CID>
583118

> <PUBCHEM_CONFORMER_RMSD>
0.4

> <PUBCHEM_CONFORMER_DIVERSEORDER>
1
2

> <PUBCHEM_MMFF94_PARTIAL_CHARGES>
18
1 -0.57
10 0.45
11 -0.15
12 -0.15
13 -0.15
14 -0.15
2 -0.84
23 0.15
24 0.15
25 0.15
26 0.15
3 -0.84
4 0.37
5 0.37
6 0.1
7 0.1
8 0.43
9 0.43

> <PUBCHEM_EFFECTIVE_ROTOR_COUNT>
0.8

> <PUBCHEM_PHARMACOPHORE_FEATURES>
5
1 1 acceptor
1 2 cation
1 3 cation
6 6 7 11 12 13 14 rings
9 2 3 4 5 6 7 8 9 10 rings

> <PUBCHEM_HEAVY_ATOM_COUNT>
14

> <PUBCHEM_ATOM_DEF_STEREO_COUNT>
0

> <PUBCHEM_ATOM_UDEF_STEREO_COUNT>
0

> <PUBCHEM_BOND_DEF_STEREO_COUNT>
0

> <PUBCHEM_BOND_UDEF_STEREO_COUNT>
0

> <PUBCHEM_ISOTOPIC_ATOM_COUNT>
0

> <PUBCHEM_COMPONENT_COUNT>
1

> <PUBCHEM_CACTVS_TAUTO_COUNT>
2

> <PUBCHEM_CONFORMER_ID>
0008E5CE00000001

> <PUBCHEM_MMFF94_ENERGY>
85.4792

> <PUBCHEM_FEATURE_SELFOVERLAP>
25.389

> <PUBCHEM_SHAPE_FINGERPRINT>
12138202 97 16700919234676022023
12251169 10 18410848854489585978
12423570 1 12799587340780002181
12696612 119 18411979144285651304
13024252 1 13254520910916207109
14128692 85 12031506536471020441
14617773 55 17605854524443090327
15076042 46 18187638158686979672
15557651 10 15864066623965673233
15775835 57 17458061555982407056
15906896 17 17095527245178161487
16945 1 18410562990156492763
17844478 74 17917991689481602284
18186145 218 6483083911880158331
19837323 101 14707217625248819229
20361792 2 15554155983254032427
23236772 104 17751090119299708576
25 1 17337338692446569660
2748010 2 18050012383022651446
276578 36 16009015237671328315
369184 2 18341345439032505958
430814 3 16805596027353497379
5084963 1 18117021947310267494

> <PUBCHEM_SHAPE_MULTIPOLES>
272.28
4.02
1.6
1.34
1.36
0
-0.5
0
1.66
0.22
0
-1
0
0

> <PUBCHEM_SHAPE_SELFOVERLAP>
597.709

> <PUBCHEM_SHAPE_VOLUME>
144.4

> <PUBCHEM_COORDINATE_TYPE>
2
5
10

$$$$

