11713
  -OEChem-06261206012D

 12 11  0     1  0  0  0  0  0999 V2000
    2.0000    0.7500    0.0000 Br  0  0  0  0  0  0  0  0  0  0  0  0
    4.5981    0.2500    0.0000 O   0  0  0  0  0  0  0  0  0  0  0  0
    2.8660    0.2500    0.0000 C   0  0  3  0  0  0  0  0  0  0  0  0
    3.7320    0.7500    0.0000 C   0  0  0  0  0  0  0  0  0  0  0  0
    2.8660   -0.7500    0.0000 C   0  0  0  0  0  0  0  0  0  0  0  0
    2.8660    1.1000    0.0000 H   0  0  0  0  0  0  0  0  0  0  0  0
    4.1306    1.2250    0.0000 H   0  0  0  0  0  0  0  0  0  0  0  0
    3.3335    1.2250    0.0000 H   0  0  0  0  0  0  0  0  0  0  0  0
    2.2460   -0.7500    0.0000 H   0  0  0  0  0  0  0  0  0  0  0  0
    2.8660   -1.3700    0.0000 H   0  0  0  0  0  0  0  0  0  0  0  0
    3.4860   -0.7500    0.0000 H   0  0  0  0  0  0  0  0  0  0  0  0
    5.1350    0.5600    0.0000 H   0  0  0  0  0  0  0  0  0  0  0  0
  1  3  1  0  0  0  0
  2  4  1  0  0  0  0
  2 12  1  0  0  0  0
  3  4  1  0  0  0  0
  3  5  1  0  0  0  0
  3  6  1  0  0  0  0
  4  7  1  0  0  0  0
  4  8  1  0  0  0  0
  5  9  1  0  0  0  0
  5 10  1  0  0  0  0
  5 11  1  0  0  0  0
M  END
> <PUBCHEM_COMPOUND_CID>
11713

> <PUBCHEM_COMPOUND_CANONICALIZED>
1

> <PUBCHEM_CACTVS_COMPLEXITY>
22.9

> <PUBCHEM_CACTVS_HBOND_ACCEPTOR>
1

> <PUBCHEM_CACTVS_HBOND_DONOR>
1

> <PUBCHEM_CACTVS_ROTATABLE_BOND>
1

> <PUBCHEM_CACTVS_SUBSKEYS>
AAADcYBAIAAAEAAAAAAAAAAAAAAAAAAAAAAAAAAAAAAAAAAAAAAAGgBACAAByACggAICAAAAAgAAAAAAAAAAAAAAAAAAAAAAAAAAEAAAAAAAQAAAAAAAAAAAAAAAAAAAAAAAAAAAAAAAAAAAAAAAAAAAAA==

> <PUBCHEM_IUPAC_OPENEYE_NAME>
2-bromopropan-1-ol

> <PUBCHEM_IUPAC_CAS_NAME>
2-bromo-1-propanol

> <PUBCHEM_IUPAC_NAME>
2-bromopropan-1-ol

> <PUBCHEM_IUPAC_SYSTEMATIC_NAME>
2-bromanylpropan-1-ol

> <PUBCHEM_IUPAC_TRADITIONAL_NAME>
2-bromopropan-1-ol

> <PUBCHEM_IUPAC_INCHI>
InChI=1S/C3H7BrO/c1-3(4)2-5/h3,5H,2H2,1H3

> <PUBCHEM_IUPAC_INCHIKEY>
DBTWOTKWIVISQR-UHFFFAOYSA-N

> <PUBCHEM_XLOGP3_AA>
0.7

> <PUBCHEM_EXACT_MASS>
137.968027

> <PUBCHEM_MOLECULAR_FORMULA>
C3H7BrO

> <PUBCHEM_MOLECULAR_WEIGHT>
138.99108

> <PUBCHEM_OPENEYE_CAN_SMILES>
CC(CO)Br

> <PUBCHEM_OPENEYE_ISO_SMILES>
CC(CO)Br

> <PUBCHEM_CACTVS_TPSA>
20.2

> <PUBCHEM_MONOISOTOPIC_WEIGHT>
137.968027

> <PUBCHEM_TOTAL_CHARGE>
0

> <PUBCHEM_HEAVY_ATOM_COUNT>
5

> <PUBCHEM_ATOM_DEF_STEREO_COUNT>
0

> <PUBCHEM_ATOM_UDEF_STEREO_COUNT>
1

> <PUBCHEM_BOND_DEF_STEREO_COUNT>
0

> <PUBCHEM_BOND_UDEF_STEREO_COUNT>
0

> <PUBCHEM_ISOTOPIC_ATOM_COUNT>
0

> <PUBCHEM_COMPONENT_COUNT>
1

> <PUBCHEM_CACTVS_TAUTO_COUNT>
1

> <PUBCHEM_COORDINATE_TYPE>
1
5
255

> <PUBCHEM_BONDANNOTATIONS>
3  6  3

$$$$

