5460887
  -OEChem-07051213063D

 44 43  0     1  0  0  0  0  0999 V2000
    1.7136    1.8904    0.4573 S   0  0  0  0  0  0  0  0  0  0  0  0
   -1.4263   -0.6459   -2.1965 O   0  0  0  0  0  0  0  0  0  0  0  0
    1.9807   -1.8591    0.9100 O   0  0  0  0  0  0  0  0  0  0  0  0
   -4.5527   -0.3480    2.2957 O   0  0  0  0  0  0  0  0  0  0  0  0
   -5.8286    0.9263    0.9212 O   0  0  0  0  0  0  0  0  0  0  0  0
   -0.1202    4.3613    0.4465 O   0  0  0  0  0  0  0  0  0  0  0  0
    4.8833    0.2208    0.8345 O   0  0  0  0  0  0  0  0  0  0  0  0
    6.4436   -1.3740    1.2473 O   0  0  0  0  0  0  0  0  0  0  0  0
   -0.1208   -0.6730   -0.2755 N   0  0  0  0  0  0  0  0  0  0  0  0
    3.4534   -1.2553   -0.7779 N   0  0  0  0  0  0  0  0  0  0  0  0
   -6.2582   -1.2858   -0.6660 N   0  0  0  0  0  0  0  0  0  0  0  0
    1.1587   -0.4973   -0.9228 C   0  0  1  0  0  0  0  0  0  0  0  0
   -3.8322   -0.9808   -0.7973 C   0  0  0  0  0  0  0  0  0  0  0  0
   -2.5023   -0.9122   -0.0438 C   0  0  0  0  0  0  0  0  0  0  0  0
    1.5196    0.9785   -1.1090 C   0  0  0  0  0  0  0  0  0  0  0  0
   -5.0279   -1.2346    0.1275 C   0  0  1  0  0  0  0  0  0  0  0  0
   -1.3164   -0.7328   -0.9766 C   0  0  0  0  0  0  0  0  0  0  0  0
    2.2151   -1.2867   -0.1524 C   0  0  0  0  0  0  0  0  0  0  0  0
   -5.2015   -0.1054    1.1270 C   0  0  0  0  0  0  0  0  0  0  0  0
    2.0362    3.5261   -0.2380 C   0  0  0  0  0  0  0  0  0  0  0  0
    4.6196   -1.9078   -0.2300 C   0  0  0  0  0  0  0  0  0  0  0  0
    0.7483    4.2102   -0.6687 C   0  0  0  0  0  0  0  0  0  0  0  0
    5.4150   -1.0150    0.6872 C   0  0  0  0  0  0  0  0  0  0  0  0
    1.0897   -0.9560   -1.9182 H   0  0  0  0  0  0  0  0  0  0  0  0
   -3.7784   -1.7777   -1.5510 H   0  0  0  0  0  0  0  0  0  0  0  0
   -3.9740   -0.0407   -1.3481 H   0  0  0  0  0  0  0  0  0  0  0  0
   -2.4980   -0.0669    0.6534 H   0  0  0  0  0  0  0  0  0  0  0  0
   -2.3497   -1.8326    0.5321 H   0  0  0  0  0  0  0  0  0  0  0  0
    2.4508    1.0797   -1.6750 H   0  0  0  0  0  0  0  0  0  0  0  0
    0.7283    1.4594   -1.6929 H   0  0  0  0  0  0  0  0  0  0  0  0
   -4.9168   -2.1831    0.6646 H   0  0  0  0  0  0  0  0  0  0  0  0
   -0.1406   -0.7311    0.7390 H   0  0  0  0  0  0  0  0  0  0  0  0
    3.5580   -0.7746   -1.6659 H   0  0  0  0  0  0  0  0  0  0  0  0
    2.5095    4.1156    0.5544 H   0  0  0  0  0  0  0  0  0  0  0  0
    2.7448    3.4573   -1.0690 H   0  0  0  0  0  0  0  0  0  0  0  0
   -6.1860   -2.0293   -1.3597 H   0  0  0  0  0  0  0  0  0  0  0  0
   -7.0423   -1.5359   -0.0643 H   0  0  0  0  0  0  0  0  0  0  0  0
    5.2545   -2.1965   -1.0724 H   0  0  0  0  0  0  0  0  0  0  0  0
    4.3088   -2.7948    0.3297 H   0  0  0  0  0  0  0  0  0  0  0  0
    0.2252    3.6561   -1.4537 H   0  0  0  0  0  0  0  0  0  0  0  0
    0.9769    5.2086   -1.0562 H   0  0  0  0  0  0  0  0  0  0  0  0
   -4.6575    0.3910    2.9322 H   0  0  0  0  0  0  0  0  0  0  0  0
   -0.9179    4.8166    0.1272 H   0  0  0  0  0  0  0  0  0  0  0  0
    5.4178    0.7817    1.4361 H   0  0  0  0  0  0  0  0  0  0  0  0
  1 15  1  0  0  0  0
  1 20  1  0  0  0  0
  2 17  2  0  0  0  0
  3 18  2  0  0  0  0
  4 19  1  0  0  0  0
  4 42  1  0  0  0  0
  5 19  2  0  0  0  0
  6 22  1  0  0  0  0
  6 43  1  0  0  0  0
  7 23  1  0  0  0  0
  7 44  1  0  0  0  0
  8 23  2  0  0  0  0
  9 12  1  0  0  0  0
  9 17  1  0  0  0  0
  9 32  1  0  0  0  0
 10 18  1  0  0  0  0
 10 21  1  0  0  0  0
 10 33  1  0  0  0  0
 11 16  1  0  0  0  0
 11 36  1  0  0  0  0
 11 37  1  0  0  0  0
 12 15  1  0  0  0  0
 12 18  1  0  0  0  0
 12 24  1  0  0  0  0
 13 14  1  0  0  0  0
 13 16  1  0  0  0  0
 13 25  1  0  0  0  0
 13 26  1  0  0  0  0
 14 17  1  0  0  0  0
 14 27  1  0  0  0  0
 14 28  1  0  0  0  0
 15 29  1  0  0  0  0
 15 30  1  0  0  0  0
 16 19  1  0  0  0  0
 16 31  1  0  0  0  0
 20 22  1  0  0  0  0
 20 34  1  0  0  0  0
 20 35  1  0  0  0  0
 21 23  1  0  0  0  0
 21 38  1  0  0  0  0
 21 39  1  0  0  0  0
 22 40  1  0  0  0  0
 22 41  1  0  0  0  0
M  END
> <PUBCHEM_COMPOUND_CID>
5460887

> <PUBCHEM_CONFORMER_RMSD>
1.2

> <PUBCHEM_CONFORMER_DIVERSEORDER>
1
31
12
10
34
19
36
2
3
42
33
50
27
21
28
20
48
38
6
23
14
18
16
26
52
44
13
24
9
51
37
8
35
46
11
43
30
49
4
39
53
40
29
7
41
22
15
32
45
5
25
17
47

> <PUBCHEM_MMFF94_PARTIAL_CHARGES>
29
1 -0.46
10 -0.73
11 -0.99
12 0.36
14 0.06
15 0.23
16 0.33
17 0.57
18 0.57
19 0.66
2 -0.57
20 0.23
21 0.36
22 0.28
23 0.66
3 -0.57
32 0.37
33 0.37
36 0.36
37 0.36
4 -0.65
42 0.5
43 0.4
44 0.5
5 -0.57
6 -0.68
7 -0.65
8 -0.57
9 -0.73

> <PUBCHEM_EFFECTIVE_ROTOR_COUNT>
14

> <PUBCHEM_PHARMACOPHORE_FEATURES>
14
1 10 donor
1 11 cation
1 11 donor
1 2 acceptor
1 3 acceptor
1 4 acceptor
1 5 acceptor
1 6 acceptor
1 6 donor
1 7 acceptor
1 8 acceptor
1 9 donor
3 4 5 19 anion
3 7 8 23 anion

> <PUBCHEM_HEAVY_ATOM_COUNT>
23

> <PUBCHEM_ATOM_DEF_STEREO_COUNT>
2

> <PUBCHEM_ATOM_UDEF_STEREO_COUNT>
0

> <PUBCHEM_BOND_DEF_STEREO_COUNT>
0

> <PUBCHEM_BOND_UDEF_STEREO_COUNT>
0

> <PUBCHEM_ISOTOPIC_ATOM_COUNT>
0

> <PUBCHEM_COMPONENT_COUNT>
1

> <PUBCHEM_CACTVS_TAUTO_COUNT>
4

> <PUBCHEM_CONFORMER_ID>
0053539700000001

> <PUBCHEM_MMFF94_ENERGY>
31.2444

> <PUBCHEM_FEATURE_SELFOVERLAP>
71.159

> <PUBCHEM_SHAPE_FINGERPRINT>
10688039 33 18271811245877246004
11646440 116 18343862234286965458
12403259 118 18113328709770768783
12422481 6 18113336448553191904
12507557 5 18261107496286182171
12516196 113 18411983576270342910
12596602 18 18040436611613505107
12616971 3 18187911860585144371
13257819 101 13840268117221950920
13590594 115 18411695521482908129
13899415 154 18341326722208517548
14466204 15 18339077224180908625
14739800 52 17242459308697827585
14849402 71 18268986488614858452
14950920 106 18125690489005643195
15048467 5 16877668955042389842
15238133 3 18339067272330240341
17980427 23 17313392209851716877
17980427 26 17903084326481607612
1813 80 18261664961192125894
18336668 15 18113336422857163705
18785283 64 18127690427051584372
21041028 32 18411142450281198588
21521721 280 17846490414579741218
235170 7 6843934811086505193
23559900 14 17274820195630708903
25147074 1 17823991026008649511
474 4 18049158870052971565
5104073 3 18267855100246045235
6823239 73 16056598703723649085

> <PUBCHEM_SHAPE_MULTIPOLES>
421.15
13.84
3.85
1.42
8.58
7.47
-0.12
-9.16
-5.8
-3.51
0.14
0.95
-0.23
-1.12

> <PUBCHEM_SHAPE_SELFOVERLAP>
805.822

> <PUBCHEM_SHAPE_VOLUME>
256.5

> <PUBCHEM_COORDINATE_TYPE>
2
5
10

$$$$

