257434
  -OEChem-07051213062D

 60 63  0     0  0  0  0  0  0999 V2000
    7.1962   -0.3703    0.0000 O   0  0  0  0  0  0  0  0  0  0  0  0
   10.7263   -0.3944    0.0000 O   0  0  0  0  0  0  0  0  0  0  0  0
    2.8660    3.1297    0.0000 O   0  0  0  0  0  0  0  0  0  0  0  0
    9.8047   -1.9148    0.0000 N   0  0  0  0  0  0  0  0  0  0  0  0
    9.8978   -2.9105    0.0000 C   0  0  0  0  0  0  0  0  0  0  0  0
   10.7229   -1.5187    0.0000 C   0  0  0  0  0  0  0  0  0  0  0  0
   11.3834   -2.2695    0.0000 C   0  0  0  0  0  0  0  0  0  0  0  0
   10.8734   -3.1297    0.0000 C   0  0  0  0  0  0  0  0  0  0  0  0
    6.3301    0.1297    0.0000 C   0  0  0  0  0  0  0  0  0  0  0  0
    8.9446   -1.4049    0.0000 C   0  0  0  0  0  0  0  0  0  0  0  0
    8.9561   -0.4049    0.0000 C   0  0  0  0  0  0  0  0  0  0  0  0
    6.3301    1.1297    0.0000 C   0  0  0  0  0  0  0  0  0  0  0  0
    8.0622    0.1297    0.0000 C   0  0  0  0  0  0  0  0  0  0  0  0
    7.1962    1.6297    0.0000 C   0  0  0  0  0  0  0  0  0  0  0  0
    8.0622    1.1297    0.0000 C   0  0  0  0  0  0  0  0  0  0  0  0
    5.8301   -0.7363    0.0000 C   0  0  0  0  0  0  0  0  0  0  0  0
    5.3301    0.1297    0.0000 C   0  0  0  0  0  0  0  0  0  0  0  0
    7.1962    2.6297    0.0000 C   0  0  0  0  0  0  0  0  0  0  0  0
    9.8622    0.1089    0.0000 C   0  0  0  0  0  0  0  0  0  0  0  0
    5.4641    1.6297    0.0000 C   0  0  0  0  0  0  0  0  0  0  0  0
    8.9561    1.6644    0.0000 C   0  0  0  0  0  0  0  0  0  0  0  0
    9.8622    1.1505    0.0000 C   0  0  0  0  0  0  0  0  0  0  0  0
    8.0622    3.1297    0.0000 C   0  0  0  0  0  0  0  0  0  0  0  0
    5.4641    2.6297    0.0000 C   0  0  0  0  0  0  0  0  0  0  0  0
    4.5981    1.1297    0.0000 C   0  0  0  0  0  0  0  0  0  0  0  0
    4.5981    3.1297    0.0000 C   0  0  0  0  0  0  0  0  0  0  0  0
    3.7320    1.6297    0.0000 C   0  0  0  0  0  0  0  0  0  0  0  0
    3.7320    2.6297    0.0000 C   0  0  0  0  0  0  0  0  0  0  0  0
    2.0000    2.6297    0.0000 C   0  0  0  0  0  0  0  0  0  0  0  0
   11.2287   -1.1601    0.0000 H   0  0  0  0  0  0  0  0  0  0  0  0
   10.4192   -0.9782    0.0000 H   0  0  0  0  0  0  0  0  0  0  0  0
    9.2778   -2.9034    0.0000 H   0  0  0  0  0  0  0  0  0  0  0  0
    9.8258   -3.5263    0.0000 H   0  0  0  0  0  0  0  0  0  0  0  0
   11.8808   -2.6397    0.0000 H   0  0  0  0  0  0  0  0  0  0  0  0
   11.8036   -1.8136    0.0000 H   0  0  0  0  0  0  0  0  0  0  0  0
   10.6750   -3.7171    0.0000 H   0  0  0  0  0  0  0  0  0  0  0  0
   11.4369   -3.3884    0.0000 H   0  0  0  0  0  0  0  0  0  0  0  0
    8.3353   -1.2902    0.0000 H   0  0  0  0  0  0  0  0  0  0  0  0
    8.7258   -1.9850    0.0000 H   0  0  0  0  0  0  0  0  0  0  0  0
    5.2932   -0.4263    0.0000 H   0  0  0  0  0  0  0  0  0  0  0  0
    5.5201   -1.2732    0.0000 H   0  0  0  0  0  0  0  0  0  0  0  0
    6.3671   -1.0463    0.0000 H   0  0  0  0  0  0  0  0  0  0  0  0
    5.3301    0.7497    0.0000 H   0  0  0  0  0  0  0  0  0  0  0  0
    4.7101    0.1297    0.0000 H   0  0  0  0  0  0  0  0  0  0  0  0
    5.3301   -0.4903    0.0000 H   0  0  0  0  0  0  0  0  0  0  0  0
    6.9841    3.2123    0.0000 H   0  0  0  0  0  0  0  0  0  0  0  0
    6.5856    2.5221    0.0000 H   0  0  0  0  0  0  0  0  0  0  0  0
    8.9490    2.2843    0.0000 H   0  0  0  0  0  0  0  0  0  0  0  0
   10.3979    1.4626    0.0000 H   0  0  0  0  0  0  0  0  0  0  0  0
    8.3722    2.5928    0.0000 H   0  0  0  0  0  0  0  0  0  0  0  0
    8.5991    3.4397    0.0000 H   0  0  0  0  0  0  0  0  0  0  0  0
    7.7522    3.6667    0.0000 H   0  0  0  0  0  0  0  0  0  0  0  0
    6.0010    2.9397    0.0000 H   0  0  0  0  0  0  0  0  0  0  0  0
    4.5981    0.5097    0.0000 H   0  0  0  0  0  0  0  0  0  0  0  0
   11.2644   -0.0865    0.0000 H   0  0  0  0  0  0  0  0  0  0  0  0
    4.5981    3.7497    0.0000 H   0  0  0  0  0  0  0  0  0  0  0  0
    3.1951    1.3197    0.0000 H   0  0  0  0  0  0  0  0  0  0  0  0
    1.6900    3.1667    0.0000 H   0  0  0  0  0  0  0  0  0  0  0  0
    1.4631    2.3197    0.0000 H   0  0  0  0  0  0  0  0  0  0  0  0
    2.3100    2.0928    0.0000 H   0  0  0  0  0  0  0  0  0  0  0  0
  1  9  1  0  0  0  0
  1 13  1  0  0  0  0
  2 19  1  0  0  0  0
  2 55  1  0  0  0  0
  3 28  1  0  0  0  0
  3 29  1  0  0  0  0
  4  5  1  0  0  0  0
  4  6  1  0  0  0  0
  4 10  1  0  0  0  0
  5  8  1  0  0  0  0
  5 32  1  0  0  0  0
  5 33  1  0  0  0  0
  6  7  1  0  0  0  0
  6 30  1  0  0  0  0
  6 31  1  0  0  0  0
  7  8  1  0  0  0  0
  7 34  1  0  0  0  0
  7 35  1  0  0  0  0
  8 36  1  0  0  0  0
  8 37  1  0  0  0  0
  9 12  1  0  0  0  0
  9 16  1  0  0  0  0
  9 17  1  0  0  0  0
 10 11  1  0  0  0  0
 10 38  1  0  0  0  0
 10 39  1  0  0  0  0
 11 13  1  0  0  0  0
 11 19  2  0  0  0  0
 12 14  2  0  0  0  0
 12 20  1  0  0  0  0
 13 15  2  0  0  0  0
 14 15  1  0  0  0  0
 14 18  1  0  0  0  0
 15 21  1  0  0  0  0
 16 40  1  0  0  0  0
 16 41  1  0  0  0  0
 16 42  1  0  0  0  0
 17 43  1  0  0  0  0
 17 44  1  0  0  0  0
 17 45  1  0  0  0  0
 18 23  1  0  0  0  0
 18 46  1  0  0  0  0
 18 47  1  0  0  0  0
 19 22  1  0  0  0  0
 20 24  2  0  0  0  0
 20 25  1  0  0  0  0
 21 22  2  0  0  0  0
 21 48  1  0  0  0  0
 22 49  1  0  0  0  0
 23 50  1  0  0  0  0
 23 51  1  0  0  0  0
 23 52  1  0  0  0  0
 24 26  1  0  0  0  0
 24 53  1  0  0  0  0
 25 27  2  0  0  0  0
 25 54  1  0  0  0  0
 26 28  2  0  0  0  0
 26 56  1  0  0  0  0
 27 28  1  0  0  0  0
 27 57  1  0  0  0  0
 29 58  1  0  0  0  0
 29 59  1  0  0  0  0
 29 60  1  0  0  0  0
M  END
> <PUBCHEM_COMPOUND_CID>
257434

> <PUBCHEM_COMPOUND_CANONICALIZED>
1

> <PUBCHEM_CACTVS_COMPLEXITY>
587

> <PUBCHEM_CACTVS_HBOND_ACCEPTOR>
4

> <PUBCHEM_CACTVS_HBOND_DONOR>
1

> <PUBCHEM_CACTVS_ROTATABLE_BOND>
5

> <PUBCHEM_CACTVS_SUBSKEYS>
AAADceB6MAAAAAAAAAAAAAAAAAAAAWAAAAAwYIAAAAAAAACBQAAAHgAACAAADETBmAYyBoMABgCAAiBCAACCCAAgIAAIiAAODIgMJyKGsRuGeCjnwBWIuAeQ4OwOIAACCAAIAABAAAQQABAAAAAAAAAAAA==

> <PUBCHEM_IUPAC_OPENEYE_NAME>
4-ethyl-3-(4-methoxyphenyl)-2,2-dimethyl-8-(pyrrolidin-1-ylmethyl)chromen-7-ol

> <PUBCHEM_IUPAC_CAS_NAME>
4-ethyl-3-(4-methoxyphenyl)-2,2-dimethyl-8-(1-pyrrolidinylmethyl)-1-benzopyran-7-ol

> <PUBCHEM_IUPAC_NAME>
4-ethyl-3-(4-methoxyphenyl)-2,2-dimethyl-8-(pyrrolidin-1-ylmethyl)chromen-7-ol

> <PUBCHEM_IUPAC_SYSTEMATIC_NAME>
4-ethyl-3-(4-methoxyphenyl)-2,2-dimethyl-8-(pyrrolidin-1-ylmethyl)chromen-7-ol

> <PUBCHEM_IUPAC_TRADITIONAL_NAME>
4-ethyl-3-(4-methoxyphenyl)-2,2-dimethyl-8-(pyrrolidinomethyl)chromen-7-ol

> <PUBCHEM_IUPAC_INCHI>
InChI=1S/C25H31NO3/c1-5-19-20-12-13-22(27)21(16-26-14-6-7-15-26)24(20)29-25(2,3)23(19)17-8-10-18(28-4)11-9-17/h8-13,27H,5-7,14-16H2,1-4H3

> <PUBCHEM_IUPAC_INCHIKEY>
SBRIHEHOOSDSDU-UHFFFAOYSA-N

> <PUBCHEM_XLOGP3_AA>
4.3

> <PUBCHEM_EXACT_MASS>
393.230394

> <PUBCHEM_MOLECULAR_FORMULA>
C25H31NO3

> <PUBCHEM_MOLECULAR_WEIGHT>
393.51854

> <PUBCHEM_OPENEYE_CAN_SMILES>
CCC1=C(C(OC2=C1C=CC(=C2CN3CCCC3)O)(C)C)C4=CC=C(C=C4)OC

> <PUBCHEM_OPENEYE_ISO_SMILES>
CCC1=C(C(OC2=C1C=CC(=C2CN3CCCC3)O)(C)C)C4=CC=C(C=C4)OC

> <PUBCHEM_CACTVS_TPSA>
41.9

> <PUBCHEM_MONOISOTOPIC_WEIGHT>
393.230394

> <PUBCHEM_TOTAL_CHARGE>
0

> <PUBCHEM_HEAVY_ATOM_COUNT>
29

> <PUBCHEM_ATOM_DEF_STEREO_COUNT>
0

> <PUBCHEM_ATOM_UDEF_STEREO_COUNT>
0

> <PUBCHEM_BOND_DEF_STEREO_COUNT>
0

> <PUBCHEM_BOND_UDEF_STEREO_COUNT>
0

> <PUBCHEM_ISOTOPIC_ATOM_COUNT>
0

> <PUBCHEM_COMPONENT_COUNT>
1

> <PUBCHEM_CACTVS_TAUTO_COUNT>
6

> <PUBCHEM_COORDINATE_TYPE>
1
5
255

> <PUBCHEM_BONDANNOTATIONS>
11  13  8
11  19  8
13  15  8
15  21  8
19  22  8
20  24  8
20  25  8
21  22  8
24  26  8
25  27  8
26  28  8
27  28  8

$$$$

