440187
  -OEChem-07051212493D

 37 38  0     1  0  0  0  0  0999 V2000
   -4.4815   -0.7272    1.3859 O   0  0  0  0  0  0  0  0  0  0  0  0
   -2.2038    2.8425   -0.8804 O   0  0  0  0  0  0  0  0  0  0  0  0
   -1.6667   -3.5326    0.0176 O   0  0  0  0  0  0  0  0  0  0  0  0
   -3.8366    1.8390    1.0033 O   0  0  0  0  0  0  0  0  0  0  0  0
    5.7749    0.0375    1.1524 O   0  5  0  0  0  0  0  0  0  0  0  0
    5.6272   -0.7662   -0.8852 O   0  0  0  0  0  0  0  0  0  0  0  0
   -0.3996    0.8884    0.0816 N   0  0  0  0  0  0  0  0  0  0  0  0
    5.1056   -0.2419    0.1285 N   0  3  0  0  0  0  0  0  0  0  0  0
   -2.5128   -1.3006    0.1113 C   0  0  1  0  0  0  0  0  0  0  0  0
   -1.2650    0.6076   -1.0510 C   0  0  1  0  0  0  0  0  0  0  0  0
   -1.6209   -0.8849   -1.0753 C   0  0  0  0  0  0  0  0  0  0  0  0
   -3.7786   -0.4355    0.1909 C   0  0  2  0  0  0  0  0  0  0  0  0
   -2.5275    1.4700   -0.9899 C   0  0  1  0  0  0  0  0  0  0  0  0
   -3.4078    1.0406    0.1725 C   0  0  0  0  0  0  0  0  0  0  0  0
   -2.8679   -2.7867    0.0079 C   0  0  0  0  0  0  0  0  0  0  0  0
    0.9536    0.6105    0.0931 C   0  0  0  0  0  0  0  0  0  0  0  0
    1.7462    0.9062    1.2205 C   0  0  0  0  0  0  0  0  0  0  0  0
    1.5838    0.0222   -1.0221 C   0  0  0  0  0  0  0  0  0  0  0  0
    3.1127    0.6259    1.2321 C   0  0  0  0  0  0  0  0  0  0  0  0
    2.9501   -0.2584   -1.0104 C   0  0  0  0  0  0  0  0  0  0  0  0
    3.7146    0.0436    0.1167 C   0  0  0  0  0  0  0  0  0  0  0  0
   -1.9281   -1.1714    1.0333 H   0  0  0  0  0  0  0  0  0  0  0  0
   -0.7571    0.8906   -1.9810 H   0  0  0  0  0  0  0  0  0  0  0  0
   -0.7158   -1.5006   -1.0904 H   0  0  0  0  0  0  0  0  0  0  0  0
   -2.1512   -1.0996   -2.0131 H   0  0  0  0  0  0  0  0  0  0  0  0
   -4.4493   -0.6261   -0.6539 H   0  0  0  0  0  0  0  0  0  0  0  0
   -3.1180    1.3454   -1.9049 H   0  0  0  0  0  0  0  0  0  0  0  0
   -3.4121   -3.0024   -0.9177 H   0  0  0  0  0  0  0  0  0  0  0  0
   -3.4783   -3.1074    0.8579 H   0  0  0  0  0  0  0  0  0  0  0  0
   -0.8170    1.2213    0.9437 H   0  0  0  0  0  0  0  0  0  0  0  0
   -3.8715   -0.6055    2.1333 H   0  0  0  0  0  0  0  0  0  0  0  0
   -1.6159    2.9528   -0.1140 H   0  0  0  0  0  0  0  0  0  0  0  0
   -1.9107   -4.4713   -0.0510 H   0  0  0  0  0  0  0  0  0  0  0  0
    1.2929    1.3605    2.0991 H   0  0  0  0  0  0  0  0  0  0  0  0
    1.0441   -0.2306   -1.9294 H   0  0  0  0  0  0  0  0  0  0  0  0
    3.6767    0.8747    2.1274 H   0  0  0  0  0  0  0  0  0  0  0  0
    3.3861   -0.7113   -1.8973 H   0  0  0  0  0  0  0  0  0  0  0  0
  1 12  1  0  0  0  0
  1 31  1  0  0  0  0
  2 13  1  0  0  0  0
  2 32  1  0  0  0  0
  3 15  1  0  0  0  0
  3 33  1  0  0  0  0
  4 14  2  0  0  0  0
  5  8  1  0  0  0  0
  6  8  2  0  0  0  0
  7 10  1  0  0  0  0
  7 16  1  0  0  0  0
  7 30  1  0  0  0  0
  8 21  1  0  0  0  0
  9 11  1  0  0  0  0
  9 12  1  0  0  0  0
  9 15  1  0  0  0  0
  9 22  1  0  0  0  0
 10 11  1  0  0  0  0
 10 13  1  0  0  0  0
 10 23  1  0  0  0  0
 11 24  1  0  0  0  0
 11 25  1  0  0  0  0
 12 14  1  0  0  0  0
 12 26  1  0  0  0  0
 13 14  1  0  0  0  0
 13 27  1  0  0  0  0
 15 28  1  0  0  0  0
 15 29  1  0  0  0  0
 16 17  2  0  0  0  0
 16 18  1  0  0  0  0
 17 19  1  0  0  0  0
 17 34  1  0  0  0  0
 18 20  2  0  0  0  0
 18 35  1  0  0  0  0
 19 21  2  0  0  0  0
 19 36  1  0  0  0  0
 20 21  1  0  0  0  0
 20 37  1  0  0  0  0
M  CHG  2   5  -1   8   1
M  END
> <PUBCHEM_COMPOUND_CID>
440187

> <PUBCHEM_CONFORMER_RMSD>
0.8

> <PUBCHEM_CONFORMER_DIVERSEORDER>
1
24
3
13
22
10
20
21
6
15
9
11
4
14
19
23
12
5
2
7
18
8
17
16

> <PUBCHEM_MMFF94_PARTIAL_CHARGES>
27
1 -0.68
10 0.37
12 0.34
13 0.34
14 0.45
15 0.28
16 0.1
17 -0.15
18 -0.15
19 -0.15
2 -0.68
20 -0.15
21 0.13
3 -0.68
30 0.4
31 0.4
32 0.4
33 0.4
34 0.15
35 0.15
36 0.15
37 0.15
4 -0.57
5 -0.52
6 -0.52
7 -0.87
8 0.91

> <PUBCHEM_EFFECTIVE_ROTOR_COUNT>
5

> <PUBCHEM_PHARMACOPHORE_FEATURES>
14
1 1 acceptor
1 1 donor
1 2 acceptor
1 2 donor
1 3 acceptor
1 3 donor
1 4 acceptor
1 5 acceptor
1 5 anion
1 6 acceptor
1 7 cation
1 7 donor
6 16 17 18 19 20 21 rings
6 9 10 11 12 13 14 rings

> <PUBCHEM_HEAVY_ATOM_COUNT>
21

> <PUBCHEM_ATOM_DEF_STEREO_COUNT>
4

> <PUBCHEM_ATOM_UDEF_STEREO_COUNT>
0

> <PUBCHEM_BOND_DEF_STEREO_COUNT>
0

> <PUBCHEM_BOND_UDEF_STEREO_COUNT>
0

> <PUBCHEM_ISOTOPIC_ATOM_COUNT>
0

> <PUBCHEM_COMPONENT_COUNT>
1

> <PUBCHEM_CACTVS_TAUTO_COUNT>
9

> <PUBCHEM_CONFORMER_ID>
0006B77B00000001

> <PUBCHEM_MMFF94_ENERGY>
55.4938

> <PUBCHEM_FEATURE_SELFOVERLAP>
71.141

> <PUBCHEM_SHAPE_FINGERPRINT>
10366900 7 18186813469004692854
11089746 13 5473134107989162186
11370993 144 17822005406724366538
11405975 8 18334299751711276080
11552529 35 17750800930551710991
11615757 297 15697998535253558340
12236239 1 17060337439691871124
12500047 106 18339652229632808700
12553582 1 18059021579258142315
12633257 1 18115013118196979699
13004483 165 16809285769660718823
13167823 11 17989210378102460754
13675066 3 17967537857136288836
14251751 93 18059579121773832850
14386348 63 18040712576230817214
15042514 8 18269549456296768587
15209289 33 18060701680180171810
15238133 3 17168966967896956465
15295992 7 17095525050402127705
15375358 24 17386007295123969844
15653759 3 18260832583349768588
16752209 62 18059033717262806855
17804303 29 18409728439398541245
17844677 252 18411980265557432872
19377110 9 17846223203284496168
200 152 15051731988731199357
20645477 70 16805888498074240500
21650355 55 18340206293863397053
23402539 116 16702026400346988996
23557571 272 18334569179347224908
23559900 14 18337400331040488008
23566358 27 17985255270946594885
23598288 3 17775560940677554413
2838139 119 15574989633236811161
312423 11 17987789696888017644
4921388 177 18341895173287395346
5104073 3 18334305240927212288
5364581 5 18045519521167618688
5924683 9 17968384424976092271
602551 16 18412265008777116698
81228 2 18265623078735359903

> <PUBCHEM_SHAPE_MULTIPOLES>
386.99
10.49
2.4
1.25
12.67
1.36
-0.07
1.27
-2.24
-3.68
0.12
0.21
-0.24
0.72

> <PUBCHEM_SHAPE_SELFOVERLAP>
814.612

> <PUBCHEM_SHAPE_VOLUME>
215.4

> <PUBCHEM_COORDINATE_TYPE>
2
5
10

$$$$

