5843397
  -OEChem-07051213113D

 50 50  0     1  0  0  0  0  0999 V2000
   -6.9083   -1.5917   -0.4930 O   0  0  0  0  0  0  0  0  0  0  0  0
    8.9889   -1.3044   -0.6381 O   0  0  0  0  0  0  0  0  0  0  0  0
   -4.1812    1.0463   -0.3628 C   0  0  0  0  0  0  0  0  0  0  0  0
   -5.5914    0.4095   -0.2484 C   0  0  0  0  0  0  0  0  0  0  0  0
   -5.5923   -1.0633   -0.6253 C   0  0  1  0  0  0  0  0  0  0  0  0
   -3.0934    0.1322    0.2487 C   0  0  0  0  0  0  0  0  0  0  0  0
   -4.6646   -1.8354    0.3031 C   0  0  0  0  0  0  0  0  0  0  0  0
   -3.3334   -1.1641    0.5700 C   0  0  0  0  0  0  0  0  0  0  0  0
   -3.8656    1.2998   -1.8547 C   0  0  0  0  0  0  0  0  0  0  0  0
   -4.2691    2.4119    0.3610 C   0  0  0  0  0  0  0  0  0  0  0  0
   -1.7886    0.7460    0.4331 C   0  0  0  0  0  0  0  0  0  0  0  0
   -2.3489   -2.1106    1.2173 C   0  0  0  0  0  0  0  0  0  0  0  0
   -0.6494    0.1057    0.1656 C   0  0  0  0  0  0  0  0  0  0  0  0
    0.6968    0.6560    0.3265 C   0  0  0  0  0  0  0  0  0  0  0  0
    0.8119    2.0727    0.8412 C   0  0  0  0  0  0  0  0  0  0  0  0
    1.8318   -0.0208    0.0458 C   0  0  0  0  0  0  0  0  0  0  0  0
    3.2071    0.4292    0.1692 C   0  0  0  0  0  0  0  0  0  0  0  0
    4.2558   -0.3519   -0.1470 C   0  0  0  0  0  0  0  0  0  0  0  0
    5.6687    0.0145   -0.0558 C   0  0  0  0  0  0  0  0  0  0  0  0
    5.9983    1.4044    0.4389 C   0  0  0  0  0  0  0  0  0  0  0  0
    6.6906   -0.8007   -0.3835 C   0  0  0  0  0  0  0  0  0  0  0  0
    8.1363   -0.4854   -0.3120 C   0  0  0  0  0  0  0  0  0  0  0  0
   -6.3172    0.9487   -0.8717 H   0  0  0  0  0  0  0  0  0  0  0  0
   -5.9707    0.5120    0.7792 H   0  0  0  0  0  0  0  0  0  0  0  0
   -5.2906   -1.1997   -1.6689 H   0  0  0  0  0  0  0  0  0  0  0  0
   -4.4984   -2.8280   -0.1362 H   0  0  0  0  0  0  0  0  0  0  0  0
   -5.1611   -2.0178    1.2660 H   0  0  0  0  0  0  0  0  0  0  0  0
   -3.7579    0.3639   -2.4137 H   0  0  0  0  0  0  0  0  0  0  0  0
   -4.6591    1.8855   -2.3327 H   0  0  0  0  0  0  0  0  0  0  0  0
   -2.9314    1.8604   -1.9772 H   0  0  0  0  0  0  0  0  0  0  0  0
   -3.3997    3.0469    0.1592 H   0  0  0  0  0  0  0  0  0  0  0  0
   -5.1477    2.9761    0.0249 H   0  0  0  0  0  0  0  0  0  0  0  0
   -4.3540    2.2835    1.4464 H   0  0  0  0  0  0  0  0  0  0  0  0
   -1.7770    1.7479    0.8449 H   0  0  0  0  0  0  0  0  0  0  0  0
   -1.8633   -2.7386    0.4641 H   0  0  0  0  0  0  0  0  0  0  0  0
   -2.8752   -2.7776    1.9111 H   0  0  0  0  0  0  0  0  0  0  0  0
   -1.5954   -1.6086    1.8294 H   0  0  0  0  0  0  0  0  0  0  0  0
   -7.2054   -1.4417    0.4207 H   0  0  0  0  0  0  0  0  0  0  0  0
   -0.6634   -0.8861   -0.2800 H   0  0  0  0  0  0  0  0  0  0  0  0
    0.3683    2.1444    1.8415 H   0  0  0  0  0  0  0  0  0  0  0  0
    0.2727    2.7578    0.1758 H   0  0  0  0  0  0  0  0  0  0  0  0
    1.8167    2.4825    0.9296 H   0  0  0  0  0  0  0  0  0  0  0  0
    1.7239   -1.0415   -0.3234 H   0  0  0  0  0  0  0  0  0  0  0  0
    3.3957    1.4293    0.5322 H   0  0  0  0  0  0  0  0  0  0  0  0
    4.0683   -1.3616   -0.5111 H   0  0  0  0  0  0  0  0  0  0  0  0
    7.0469    1.6878    0.4792 H   0  0  0  0  0  0  0  0  0  0  0  0
    5.6132    1.5370    1.4572 H   0  0  0  0  0  0  0  0  0  0  0  0
    5.5205    2.1515   -0.2068 H   0  0  0  0  0  0  0  0  0  0  0  0
    6.4738   -1.8048   -0.7428 H   0  0  0  0  0  0  0  0  0  0  0  0
    8.4423    0.5026    0.0451 H   0  0  0  0  0  0  0  0  0  0  0  0
  1  5  1  0  0  0  0
  1 38  1  0  0  0  0
  2 22  2  0  0  0  0
  3  4  1  0  0  0  0
  3  6  1  0  0  0  0
  3  9  1  0  0  0  0
  3 10  1  0  0  0  0
  4  5  1  0  0  0  0
  4 23  1  0  0  0  0
  4 24  1  0  0  0  0
  5  7  1  0  0  0  0
  5 25  1  0  0  0  0
  6  8  2  0  0  0  0
  6 11  1  0  0  0  0
  7  8  1  0  0  0  0
  7 26  1  0  0  0  0
  7 27  1  0  0  0  0
  8 12  1  0  0  0  0
  9 28  1  0  0  0  0
  9 29  1  0  0  0  0
  9 30  1  0  0  0  0
 10 31  1  0  0  0  0
 10 32  1  0  0  0  0
 10 33  1  0  0  0  0
 11 13  2  0  0  0  0
 11 34  1  0  0  0  0
 12 35  1  0  0  0  0
 12 36  1  0  0  0  0
 12 37  1  0  0  0  0
 13 14  1  0  0  0  0
 13 39  1  0  0  0  0
 14 15  1  0  0  0  0
 14 16  2  0  0  0  0
 15 40  1  0  0  0  0
 15 41  1  0  0  0  0
 15 42  1  0  0  0  0
 16 17  1  0  0  0  0
 16 43  1  0  0  0  0
 17 18  2  0  0  0  0
 17 44  1  0  0  0  0
 18 19  1  0  0  0  0
 18 45  1  0  0  0  0
 19 20  1  0  0  0  0
 19 21  2  0  0  0  0
 20 46  1  0  0  0  0
 20 47  1  0  0  0  0
 20 48  1  0  0  0  0
 21 22  1  0  0  0  0
 21 49  1  0  0  0  0
 22 50  1  0  0  0  0
M  END
> <PUBCHEM_COMPOUND_CID>
5843397

> <PUBCHEM_CONFORMER_RMSD>
0.8

> <PUBCHEM_CONFORMER_DIVERSEORDER>
8
42
6
15
3
25
13
39
26
30
22
14
4
41
40
21
27
5
2
28
7
17
1
24
33
16
31
38
10
36
12
23
29
20
32
18
19
9
35
34
37
11

> <PUBCHEM_MMFF94_PARTIAL_CHARGES>
27
1 -0.68
11 -0.15
12 0.14
13 -0.15
14 -0.14
15 0.14
16 -0.15
17 -0.15
18 -0.15
19 -0.14
2 -0.57
20 0.14
21 -0.14
22 0.5
3 0.14
34 0.15
38 0.4
39 0.15
43 0.15
44 0.15
45 0.15
49 0.15
5 0.28
50 0.06
6 -0.14
7 0.14
8 -0.28

> <PUBCHEM_EFFECTIVE_ROTOR_COUNT>
5.8

> <PUBCHEM_PHARMACOPHORE_FEATURES>
7
1 1 acceptor
1 1 donor
1 15 hydrophobe
1 2 acceptor
1 20 hydrophobe
3 3 9 10 hydrophobe
6 3 4 5 6 7 8 rings

> <PUBCHEM_HEAVY_ATOM_COUNT>
22

> <PUBCHEM_ATOM_DEF_STEREO_COUNT>
0

> <PUBCHEM_ATOM_UDEF_STEREO_COUNT>
1

> <PUBCHEM_BOND_DEF_STEREO_COUNT>
4

> <PUBCHEM_BOND_UDEF_STEREO_COUNT>
0

> <PUBCHEM_ISOTOPIC_ATOM_COUNT>
0

> <PUBCHEM_COMPONENT_COUNT>
1

> <PUBCHEM_CACTVS_TAUTO_COUNT>
1

> <PUBCHEM_CONFORMER_ID>
005929C500000008

> <PUBCHEM_MMFF94_ENERGY>
60.8235

> <PUBCHEM_FEATURE_SELFOVERLAP>
35.52

> <PUBCHEM_SHAPE_FINGERPRINT>
10165383 225 18270963574669542093
106641 1 8862943901483708407
10670039 82 17632583764253116077
11315181 36 18187362129697151881
11524674 6 17385725781224106894
11719270 70 18261113002719910870
12082328 90 18261111902516757996
12091667 2 16988558026501572320
12166972 35 18410011005450621032
12516196 113 18040719156126191008
13288520 33 18408885127255251009
13668630 136 18259983782254228622
13685833 64 18040997319324121248
13885169 127 18409729595245864744
13964095 4 18060419131730564742
14251752 14 18131355224171976802
14729087 3 11095884860957767382
15119646 104 17060068090304597666
15183329 4 17632861932189268154
15510794 2 18333448764941761502
15716309 27 16732703839882024158
17844677 252 18334289851579991832
18006028 8 18113617885381241672
18681886 176 18411704262278932192
19489759 90 18342457045393715025
21150785 3 17561365071569353262
21267235 1 18341611478572014235
21315763 28 18408041810505893636
21360443 120 17489870461708098411
21623969 137 17676201382063669094
220451 1 17775567567996597800
22224240 67 15357700795333746678
2297311 6 18341896273442542865
23081809 10 16558757836483139464
23198884 109 17561083600882224707
23559900 14 18267592303939679937
3004659 81 18273496763274976088
335352 9 18412269450416905197
4073 2 18059569153856333346
5283173 99 18341334474108256104
559249 180 18411136952290029387
5758199 1 5978385015716258900
636775 8 17560511808214341891

> <PUBCHEM_SHAPE_MULTIPOLES>
441.01
22.47
2.03
0.99
43.34
0.15
-0.19
-7.57
-5.63
-2.51
0.36
-0.74
0.11
1.13

> <PUBCHEM_SHAPE_SELFOVERLAP>
885.809

> <PUBCHEM_SHAPE_VOLUME>
259.2

> <PUBCHEM_COORDINATE_TYPE>
2
5
10

$$$$

