442137
  -OEChem-07051212572D

 50 52  0     1  0  0  0  0  0999 V2000
    7.5836   -1.2903    0.0000 O   0  0  0  0  0  0  0  0  0  0  0  0
    5.0000   -0.4856    0.0000 O   0  0  0  0  0  0  0  0  0  0  0  0
    7.2730    1.2697    0.0000 O   0  0  0  0  0  0  0  0  0  0  0  0
    9.3798    1.5559    0.0000 O   0  0  0  0  0  0  0  0  0  0  0  0
    5.0000   -2.2176    0.0000 O   0  0  0  0  0  0  0  0  0  0  0  0
    8.4297    2.5588    0.0000 O   0  0  0  0  0  0  0  0  0  0  0  0
   10.2740    3.0837    0.0000 O   0  0  0  0  0  0  0  0  0  0  0  0
    7.0000   -0.4856    0.0000 C   0  0  2  0  0  0  0  0  0  0  0  0
    6.0000   -0.4856    0.0000 C   0  0  0  0  0  0  0  0  0  0  0  0
    7.5836    0.3191    0.0000 C   0  0  1  0  0  0  0  0  0  0  0  0
    8.5298    0.0144    0.0000 C   0  0  0  0  0  0  0  0  0  0  0  0
    8.5298   -0.9856    0.0000 C   0  0  0  0  0  0  0  0  0  0  0  0
    6.0000   -1.4856    0.0000 C   0  0  0  0  0  0  0  0  0  0  0  0
    6.0000    0.5144    0.0000 C   0  0  0  0  0  0  0  0  0  0  0  0
    9.3958    0.5144    0.0000 C   0  0  0  0  0  0  0  0  0  0  0  0
    9.3958   -1.4856    0.0000 C   0  0  0  0  0  0  0  0  0  0  0  0
   10.2619    0.0144    0.0000 C   0  0  0  0  0  0  0  0  0  0  0  0
   10.2619   -0.9856    0.0000 C   0  0  0  0  0  0  0  0  0  0  0  0
    4.5000   -1.3516    0.0000 C   0  0  0  0  0  0  0  0  0  0  0  0
    7.4792    2.2482    0.0000 C   0  0  0  0  0  0  0  0  0  0  0  0
   11.1719    0.5213    0.0000 C   0  0  0  0  0  0  0  0  0  0  0  0
   10.2778    2.0837    0.0000 C   0  0  0  0  0  0  0  0  0  0  0  0
   11.1799    1.5629    0.0000 C   0  0  0  0  0  0  0  0  0  0  0  0
    6.7349    2.9160    0.0000 C   0  0  0  0  0  0  0  0  0  0  0  0
    3.5000   -1.3516    0.0000 C   0  0  0  0  0  0  0  0  0  0  0  0
    3.0000   -2.2176    0.0000 C   0  0  0  0  0  0  0  0  0  0  0  0
    2.0000   -2.2176    0.0000 C   0  0  0  0  0  0  0  0  0  0  0  0
    3.5000   -3.0837    0.0000 C   0  0  0  0  0  0  0  0  0  0  0  0
    6.6138   -1.2428    0.0000 H   0  0  0  0  0  0  0  0  0  0  0  0
    6.9711    0.4153    0.0000 H   0  0  0  0  0  0  0  0  0  0  0  0
    5.3800   -1.4856    0.0000 H   0  0  0  0  0  0  0  0  0  0  0  0
    6.0000   -2.1056    0.0000 H   0  0  0  0  0  0  0  0  0  0  0  0
    6.6200   -1.4856    0.0000 H   0  0  0  0  0  0  0  0  0  0  0  0
    6.6200    0.5144    0.0000 H   0  0  0  0  0  0  0  0  0  0  0  0
    6.0000    1.1344    0.0000 H   0  0  0  0  0  0  0  0  0  0  0  0
    5.3800    0.5144    0.0000 H   0  0  0  0  0  0  0  0  0  0  0  0
    9.3958   -2.1056    0.0000 H   0  0  0  0  0  0  0  0  0  0  0  0
   10.7988   -1.2956    0.0000 H   0  0  0  0  0  0  0  0  0  0  0  0
   11.7052    0.2051    0.0000 H   0  0  0  0  0  0  0  0  0  0  0  0
   11.7180    1.8708    0.0000 H   0  0  0  0  0  0  0  0  0  0  0  0
    7.1489    3.3775    0.0000 H   0  0  0  0  0  0  0  0  0  0  0  0
    6.2734    3.3301    0.0000 H   0  0  0  0  0  0  0  0  0  0  0  0
    6.3208    2.4545    0.0000 H   0  0  0  0  0  0  0  0  0  0  0  0
    3.1900   -0.8147    0.0000 H   0  0  0  0  0  0  0  0  0  0  0  0
    2.0000   -1.5976    0.0000 H   0  0  0  0  0  0  0  0  0  0  0  0
    1.3800   -2.2176    0.0000 H   0  0  0  0  0  0  0  0  0  0  0  0
    2.0000   -2.8376    0.0000 H   0  0  0  0  0  0  0  0  0  0  0  0
    2.9631   -3.3937    0.0000 H   0  0  0  0  0  0  0  0  0  0  0  0
    3.8100   -3.6206    0.0000 H   0  0  0  0  0  0  0  0  0  0  0  0
    4.0369   -2.7737    0.0000 H   0  0  0  0  0  0  0  0  0  0  0  0
  1  8  1  0  0  0  0
  1 12  1  0  0  0  0
  2  9  1  0  0  0  0
  2 19  1  0  0  0  0
 10  3  1  6  0  0  0
  3 20  1  0  0  0  0
  4 15  1  0  0  0  0
  4 22  1  0  0  0  0
  5 19  2  0  0  0  0
  6 20  2  0  0  0  0
  7 22  2  0  0  0  0
  8  9  1  0  0  0  0
  8 10  1  0  0  0  0
  8 29  1  1  0  0  0
  9 13  1  0  0  0  0
  9 14  1  0  0  0  0
 10 11  1  0  0  0  0
 10 30  1  0  0  0  0
 11 12  2  0  0  0  0
 11 15  1  0  0  0  0
 12 16  1  0  0  0  0
 13 31  1  0  0  0  0
 13 32  1  0  0  0  0
 13 33  1  0  0  0  0
 14 34  1  0  0  0  0
 14 35  1  0  0  0  0
 14 36  1  0  0  0  0
 15 17  2  0  0  0  0
 16 18  2  0  0  0  0
 16 37  1  0  0  0  0
 17 18  1  0  0  0  0
 17 21  1  0  0  0  0
 18 38  1  0  0  0  0
 19 25  1  0  0  0  0
 20 24  1  0  0  0  0
 21 23  2  0  0  0  0
 21 39  1  0  0  0  0
 22 23  1  0  0  0  0
 23 40  1  0  0  0  0
 24 41  1  0  0  0  0
 24 42  1  0  0  0  0
 24 43  1  0  0  0  0
 25 26  2  0  0  0  0
 25 44  1  0  0  0  0
 26 27  1  0  0  0  0
 26 28  1  0  0  0  0
 27 45  1  0  0  0  0
 27 46  1  0  0  0  0
 27 47  1  0  0  0  0
 28 48  1  0  0  0  0
 28 49  1  0  0  0  0
 28 50  1  0  0  0  0
M  END
> <PUBCHEM_COMPOUND_CID>
442137

> <PUBCHEM_COMPOUND_CANONICALIZED>
1

> <PUBCHEM_CACTVS_COMPLEXITY>
716

> <PUBCHEM_CACTVS_HBOND_ACCEPTOR>
7

> <PUBCHEM_CACTVS_HBOND_DONOR>
0

> <PUBCHEM_CACTVS_ROTATABLE_BOND>
6

> <PUBCHEM_CACTVS_SUBSKEYS>
AAADceB4OAAAAAAAAAAAAAAAAAAAASAAAAAwQAAAAAAAAEiBAAAAGgAAAAAADFSgmAIyDoAABACIAiDSCAACCAAgIAAIiAAGCMgNJyKEMRqCOiClwBUKqYfA4PwOIAACCAAIAABAAAQQABAAAAAAAAAAAA==

> <PUBCHEM_IUPAC_OPENEYE_NAME>
[1-[(8S,9R)-9-acetoxy-2-oxo-8,9-dihydrofuro[2,3-h]chromen-8-yl]-1-methyl-ethyl] 3-methylbut-2-enoate

> <PUBCHEM_IUPAC_CAS_NAME>
3-methyl-2-butenoic acid 2-[(8S,9R)-9-acetyloxy-2-oxo-8,9-dihydrofuro[2,3-h][1]benzopyran-8-yl]propan-2-yl ester

> <PUBCHEM_IUPAC_NAME>
2-[(8S,9R)-9-acetyloxy-2-oxo-8,9-dihydrofuro[2,3-h]chromen-8-yl]propan-2-yl 3-methylbut-2-enoate

> <PUBCHEM_IUPAC_SYSTEMATIC_NAME>
2-[(8S,9R)-9-acetyloxy-2-oxidanylidene-8,9-dihydrofuro[2,3-h]chromen-8-yl]propan-2-yl 3-methylbut-2-enoate

> <PUBCHEM_IUPAC_TRADITIONAL_NAME>
3-methylbut-2-enoic acid [1-[(8S,9R)-9-acetoxy-2-keto-8,9-dihydrofuro[2,3-h]chromen-8-yl]-1-methyl-ethyl] ester

> <PUBCHEM_IUPAC_INCHI>
InChI=1S/C21H22O7/c1-11(2)10-16(24)28-21(4,5)20-19(25-12(3)22)17-14(26-20)8-6-13-7-9-15(23)27-18(13)17/h6-10,19-20H,1-5H3/t19-,20+/m1/s1

> <PUBCHEM_IUPAC_INCHIKEY>
YTLKDGZSNPIHNO-UXHICEINSA-N

> <PUBCHEM_XLOGP3_AA>
3.4

> <PUBCHEM_EXACT_MASS>
386.136553

> <PUBCHEM_MOLECULAR_FORMULA>
C21H22O7

> <PUBCHEM_MOLECULAR_WEIGHT>
386.39518

> <PUBCHEM_OPENEYE_CAN_SMILES>
CC(=CC(=O)OC(C)(C)C1C(C2=C(O1)C=CC3=C2OC(=O)C=C3)OC(=O)C)C

> <PUBCHEM_OPENEYE_ISO_SMILES>
CC(=CC(=O)OC(C)(C)[C@@H]1[C@@H](C2=C(O1)C=CC3=C2OC(=O)C=C3)OC(=O)C)C

> <PUBCHEM_CACTVS_TPSA>
88.1

> <PUBCHEM_MONOISOTOPIC_WEIGHT>
386.136553

> <PUBCHEM_TOTAL_CHARGE>
0

> <PUBCHEM_HEAVY_ATOM_COUNT>
28

> <PUBCHEM_ATOM_DEF_STEREO_COUNT>
2

> <PUBCHEM_ATOM_UDEF_STEREO_COUNT>
0

> <PUBCHEM_BOND_DEF_STEREO_COUNT>
0

> <PUBCHEM_BOND_UDEF_STEREO_COUNT>
0

> <PUBCHEM_ISOTOPIC_ATOM_COUNT>
0

> <PUBCHEM_COMPONENT_COUNT>
1

> <PUBCHEM_CACTVS_TAUTO_COUNT>
1

> <PUBCHEM_COORDINATE_TYPE>
1
5
255

> <PUBCHEM_BONDANNOTATIONS>
11  12  8
11  15  8
12  16  8
15  17  8
16  18  8
17  18  8
17  21  8
21  23  8
22  23  8
10  3  6
4  15  8
4  22  8
8  29  5

$$$$

