51090846
  -OEChem-06241223002D

 40 42  0     0  0  0  0  0  0999 V2000
    4.9889    3.0427    0.0000 Cl  0  0  0  0  0  0  0  0  0  0  0  0
    8.2619   -2.1767    0.0000 O   0  0  0  0  0  0  0  0  0  0  0  0
    6.7619    2.1535    0.0000 O   0  0  0  0  0  0  0  0  0  0  0  0
    6.7619    0.4214    0.0000 N   0  0  0  0  0  0  0  0  0  0  0  0
    4.6783    0.4827    0.0000 N   0  0  0  0  0  0  0  0  0  0  0  0
    7.7619   -1.3106    0.0000 C   0  0  0  0  0  0  0  0  0  0  0  0
    8.2619   -0.4446    0.0000 C   0  0  0  0  0  0  0  0  0  0  0  0
    6.7619   -1.3106    0.0000 C   0  0  0  0  0  0  0  0  0  0  0  0
    6.2619   -0.4446    0.0000 C   0  0  0  0  0  0  0  0  0  0  0  0
    7.7619    0.4214    0.0000 C   0  0  0  0  0  0  0  0  0  0  0  0
    6.2619    1.2874    0.0000 C   0  0  0  0  0  0  0  0  0  0  0  0
    5.2619    1.2874    0.0000 C   0  0  0  0  0  0  0  0  0  0  0  0
    9.2619   -2.1767    0.0000 C   0  0  0  0  0  0  0  0  0  0  0  0
    4.6783    2.0922    0.0000 C   0  0  0  0  0  0  0  0  0  0  0  0
    3.7320    1.7874    0.0000 C   0  0  0  0  0  0  0  0  0  0  0  0
    3.7320    0.7874    0.0000 C   0  0  0  0  0  0  0  0  0  0  0  0
    9.7619   -3.0427    0.0000 C   0  0  0  0  0  0  0  0  0  0  0  0
    2.8660    2.2874    0.0000 C   0  0  0  0  0  0  0  0  0  0  0  0
    2.8660    0.2874    0.0000 C   0  0  0  0  0  0  0  0  0  0  0  0
    2.0000    1.7874    0.0000 C   0  0  0  0  0  0  0  0  0  0  0  0
    2.0000    0.7874    0.0000 C   0  0  0  0  0  0  0  0  0  0  0  0
    7.4519   -1.8476    0.0000 H   0  0  0  0  0  0  0  0  0  0  0  0
    6.1793   -1.5227    0.0000 H   0  0  0  0  0  0  0  0  0  0  0  0
    6.8695   -1.9212    0.0000 H   0  0  0  0  0  0  0  0  0  0  0  0
    8.7368   -0.8431    0.0000 H   0  0  0  0  0  0  0  0  0  0  0  0
    8.7368   -0.0461    0.0000 H   0  0  0  0  0  0  0  0  0  0  0  0
    5.7869   -0.0461    0.0000 H   0  0  0  0  0  0  0  0  0  0  0  0
    5.7869   -0.8431    0.0000 H   0  0  0  0  0  0  0  0  0  0  0  0
    8.3445    0.6335    0.0000 H   0  0  0  0  0  0  0  0  0  0  0  0
    7.6542    1.0320    0.0000 H   0  0  0  0  0  0  0  0  0  0  0  0
    9.8445   -1.9646    0.0000 H   0  0  0  0  0  0  0  0  0  0  0  0
    9.1542   -1.5661    0.0000 H   0  0  0  0  0  0  0  0  0  0  0  0
    4.8709   -0.1066    0.0000 H   0  0  0  0  0  0  0  0  0  0  0  0
    9.2249   -3.3527    0.0000 H   0  0  0  0  0  0  0  0  0  0  0  0
   10.0719   -3.5796    0.0000 H   0  0  0  0  0  0  0  0  0  0  0  0
   10.2988   -2.7327    0.0000 H   0  0  0  0  0  0  0  0  0  0  0  0
    2.8660    2.9074    0.0000 H   0  0  0  0  0  0  0  0  0  0  0  0
    2.8660   -0.3326    0.0000 H   0  0  0  0  0  0  0  0  0  0  0  0
    1.4631    2.0974    0.0000 H   0  0  0  0  0  0  0  0  0  0  0  0
    1.4631    0.4774    0.0000 H   0  0  0  0  0  0  0  0  0  0  0  0
  1 14  1  0  0  0  0
  2  6  1  0  0  0  0
  2 13  1  0  0  0  0
  3 11  2  0  0  0  0
  4  9  1  0  0  0  0
  4 10  1  0  0  0  0
  4 11  1  0  0  0  0
  5 12  1  0  0  0  0
  5 16  1  0  0  0  0
  5 33  1  0  0  0  0
  6  7  1  0  0  0  0
  6  8  1  0  0  0  0
  6 22  1  0  0  0  0
  7 10  1  0  0  0  0
  7 25  1  0  0  0  0
  7 26  1  0  0  0  0
  8  9  1  0  0  0  0
  8 23  1  0  0  0  0
  8 24  1  0  0  0  0
  9 27  1  0  0  0  0
  9 28  1  0  0  0  0
 10 29  1  0  0  0  0
 10 30  1  0  0  0  0
 11 12  1  0  0  0  0
 12 14  2  0  0  0  0
 13 17  1  0  0  0  0
 13 31  1  0  0  0  0
 13 32  1  0  0  0  0
 14 15  1  0  0  0  0
 15 16  1  0  0  0  0
 15 18  2  0  0  0  0
 16 19  2  0  0  0  0
 17 34  1  0  0  0  0
 17 35  1  0  0  0  0
 17 36  1  0  0  0  0
 18 20  1  0  0  0  0
 18 37  1  0  0  0  0
 19 21  1  0  0  0  0
 19 38  1  0  0  0  0
 20 21  2  0  0  0  0
 20 39  1  0  0  0  0
 21 40  1  0  0  0  0
M  END
> <PUBCHEM_COMPOUND_CID>
51090846

> <PUBCHEM_COMPOUND_CANONICALIZED>
1

> <PUBCHEM_CACTVS_COMPLEXITY>
371

> <PUBCHEM_CACTVS_HBOND_ACCEPTOR>
2

> <PUBCHEM_CACTVS_HBOND_DONOR>
1

> <PUBCHEM_CACTVS_ROTATABLE_BOND>
3

> <PUBCHEM_CACTVS_SUBSKEYS>
AAADceB7MAAEAAAAAAAAAAAAAAAAAWAAAAA8QAAAAAAAAFgB8AAAHgIQAAAADB7hniYywPPJlACoAyVyVACCgCAnBiAImSG4ZtgIYPLBl7HWIQhilgDIzQcYiYCeAAAAAAACAAAAAAAAAAQAAAAAAAAAAA==

> <PUBCHEM_IUPAC_OPENEYE_NAME>
(3-chloro-1H-indol-2-yl)-(4-ethoxy-1-piperidyl)methanone

> <PUBCHEM_IUPAC_CAS_NAME>
(3-chloro-1H-indol-2-yl)-(4-ethoxy-1-piperidinyl)methanone

> <PUBCHEM_IUPAC_NAME>
(3-chloro-1H-indol-2-yl)-(4-ethoxypiperidin-1-yl)methanone

> <PUBCHEM_IUPAC_SYSTEMATIC_NAME>
(3-chloranyl-1H-indol-2-yl)-(4-ethoxypiperidin-1-yl)methanone

> <PUBCHEM_IUPAC_TRADITIONAL_NAME>
(3-chloro-1H-indol-2-yl)-(4-ethoxypiperidino)methanone

> <PUBCHEM_IUPAC_INCHI>
InChI=1S/C16H19ClN2O2/c1-2-21-11-7-9-19(10-8-11)16(20)15-14(17)12-5-3-4-6-13(12)18-15/h3-6,11,18H,2,7-10H2,1H3

> <PUBCHEM_IUPAC_INCHIKEY>
FVVINYJKSYEHCZ-UHFFFAOYSA-N

> <PUBCHEM_XLOGP3_AA>
3.2

> <PUBCHEM_EXACT_MASS>
306.113506

> <PUBCHEM_MOLECULAR_FORMULA>
C16H19ClN2O2

> <PUBCHEM_MOLECULAR_WEIGHT>
306.78726

> <PUBCHEM_OPENEYE_CAN_SMILES>
CCOC1CCN(CC1)C(=O)C2=C(C3=CC=CC=C3N2)Cl

> <PUBCHEM_OPENEYE_ISO_SMILES>
CCOC1CCN(CC1)C(=O)C2=C(C3=CC=CC=C3N2)Cl

> <PUBCHEM_CACTVS_TPSA>
45.3

> <PUBCHEM_MONOISOTOPIC_WEIGHT>
306.113506

> <PUBCHEM_TOTAL_CHARGE>
0

> <PUBCHEM_HEAVY_ATOM_COUNT>
21

> <PUBCHEM_ATOM_DEF_STEREO_COUNT>
0

> <PUBCHEM_ATOM_UDEF_STEREO_COUNT>
0

> <PUBCHEM_BOND_DEF_STEREO_COUNT>
0

> <PUBCHEM_BOND_UDEF_STEREO_COUNT>
0

> <PUBCHEM_ISOTOPIC_ATOM_COUNT>
0

> <PUBCHEM_COMPONENT_COUNT>
1

> <PUBCHEM_CACTVS_TAUTO_COUNT>
5

> <PUBCHEM_COORDINATE_TYPE>
1
5
255

> <PUBCHEM_BONDANNOTATIONS>
12  14  8
14  15  8
15  16  8
15  18  8
16  19  8
18  20  8
19  21  8
20  21  8
5  12  8
5  16  8

$$$$

