261618
  -OEChem-07051213002D

 38 40  0     1  0  0  0  0  0999 V2000
    6.8671   -1.3255    0.0000 O   0  0  0  0  0  0  0  0  0  0  0  0
    6.0010    0.1745    0.0000 O   0  0  0  0  0  0  0  0  0  0  0  0
    2.5369   -0.8255    0.0000 O   0  0  0  0  0  0  0  0  0  0  0  0
    9.7040    1.9595    0.0000 N   0  0  0  0  0  0  0  0  0  0  0  0
   10.4406    0.9768    0.0000 C   0  0  3  0  0  0  0  0  0  0  0  0
   10.1818    0.0109    0.0000 C   0  0  3  0  0  0  0  0  0  0  0  0
   12.2726    0.2180    0.0000 C   0  0  0  0  0  0  0  0  0  0  0  0
   12.0137   -0.7479    0.0000 C   0  0  0  0  0  0  0  0  0  0  0  0
    7.8376    0.1690    0.0000 C   0  0  0  0  0  0  0  0  0  0  0  0
    8.6466   -1.2322    0.0000 C   0  0  0  0  0  0  0  0  0  0  0  0
    7.7331   -0.8255    0.0000 C   0  0  0  0  0  0  0  0  0  0  0  0
    9.2040    2.8255    0.0000 C   0  0  0  0  0  0  0  0  0  0  0  0
    6.0010   -0.8255    0.0000 C   0  0  0  0  0  0  0  0  0  0  0  0
    5.1350   -1.3255    0.0000 C   0  0  0  0  0  0  0  0  0  0  0  0
    4.2690   -0.8255    0.0000 C   0  0  0  0  0  0  0  0  0  0  0  0
    5.1350   -2.3255    0.0000 C   0  0  0  0  0  0  0  0  0  0  0  0
    3.4030   -1.3255    0.0000 C   0  0  0  0  0  0  0  0  0  0  0  0
    4.2690   -2.8255    0.0000 C   0  0  0  0  0  0  0  0  0  0  0  0
    3.4030   -2.3255    0.0000 C   0  0  0  0  0  0  0  0  0  0  0  0
   10.4122    0.3575    0.0000 H   0  0  0  0  0  0  0  0  0  0  0  0
   10.2708   -0.6027    0.0000 H   0  0  0  0  0  0  0  0  0  0  0  0
   12.8639    0.0316    0.0000 H   0  0  0  0  0  0  0  0  0  0  0  0
   12.4846    0.8006    0.0000 H   0  0  0  0  0  0  0  0  0  0  0  0
   11.8017   -1.3305    0.0000 H   0  0  0  0  0  0  0  0  0  0  0  0
   12.6050   -0.9343    0.0000 H   0  0  0  0  0  0  0  0  0  0  0  0
    7.7354    0.7805    0.0000 H   0  0  0  0  0  0  0  0  0  0  0  0
    7.2179    0.1501    0.0000 H   0  0  0  0  0  0  0  0  0  0  0  0
    8.3090   -1.7522    0.0000 H   0  0  0  0  0  0  0  0  0  0  0  0
    9.1074   -1.6471    0.0000 H   0  0  0  0  0  0  0  0  0  0  0  0
    7.7655   -1.4446    0.0000 H   0  0  0  0  0  0  0  0  0  0  0  0
    9.7409    3.1355    0.0000 H   0  0  0  0  0  0  0  0  0  0  0  0
    8.8940    3.3624    0.0000 H   0  0  0  0  0  0  0  0  0  0  0  0
    8.6671    2.5155    0.0000 H   0  0  0  0  0  0  0  0  0  0  0  0
    4.2690   -0.2055    0.0000 H   0  0  0  0  0  0  0  0  0  0  0  0
    5.6720   -2.6355    0.0000 H   0  0  0  0  0  0  0  0  0  0  0  0
    4.2690   -3.4455    0.0000 H   0  0  0  0  0  0  0  0  0  0  0  0
    2.8660   -2.6355    0.0000 H   0  0  0  0  0  0  0  0  0  0  0  0
    2.0000   -1.1355    0.0000 H   0  0  0  0  0  0  0  0  0  0  0  0
  1 11  1  0  0  0  0
  1 13  1  0  0  0  0
  2 13  2  0  0  0  0
  3 17  1  0  0  0  0
  3 38  1  0  0  0  0
  4  5  1  0  0  0  0
  4  6  1  0  0  0  0
  4 12  1  0  0  0  0
  5  7  1  0  0  0  0
  5  9  1  0  0  0  0
  5 20  1  0  0  0  0
  6  8  1  0  0  0  0
  6 10  1  0  0  0  0
  6 21  1  0  0  0  0
  7  8  1  0  0  0  0
  7 22  1  0  0  0  0
  7 23  1  0  0  0  0
  8 24  1  0  0  0  0
  8 25  1  0  0  0  0
  9 11  1  0  0  0  0
  9 26  1  0  0  0  0
  9 27  1  0  0  0  0
 10 11  1  0  0  0  0
 10 28  1  0  0  0  0
 10 29  1  0  0  0  0
 11 30  1  0  0  0  0
 12 31  1  0  0  0  0
 12 32  1  0  0  0  0
 12 33  1  0  0  0  0
 13 14  1  0  0  0  0
 14 15  2  0  0  0  0
 14 16  1  0  0  0  0
 15 17  1  0  0  0  0
 15 34  1  0  0  0  0
 16 18  2  0  0  0  0
 16 35  1  0  0  0  0
 17 19  2  0  0  0  0
 18 19  1  0  0  0  0
 18 36  1  0  0  0  0
 19 37  1  0  0  0  0
M  END
> <PUBCHEM_COMPOUND_CID>
261618

> <PUBCHEM_COMPOUND_CANONICALIZED>
1

> <PUBCHEM_CACTVS_COMPLEXITY>
332

> <PUBCHEM_CACTVS_HBOND_ACCEPTOR>
4

> <PUBCHEM_CACTVS_HBOND_DONOR>
1

> <PUBCHEM_CACTVS_ROTATABLE_BOND>
3

> <PUBCHEM_CACTVS_SUBSKEYS>
AAADceByMAAAAAAAAAAAAAAAAAAAAWAAAAA8QAAABgAAAAABAAAAHgAACAAADDzhmAYyDoMABgCIAiDSCAACAAAkIAAIiAEOCMgIJjKCtRqGcQAmwBGIuYfayDCOAAABAAAAAAAAAAIAAAAAAAAAAAAAAA==

> <PUBCHEM_IUPAC_OPENEYE_NAME>
(8-methyl-8-azabicyclo[3.2.1]octan-3-yl) 3-hydroxybenzoate

> <PUBCHEM_IUPAC_CAS_NAME>
3-hydroxybenzoic acid (8-methyl-8-azabicyclo[3.2.1]octan-3-yl) ester

> <PUBCHEM_IUPAC_NAME>
(8-methyl-8-azabicyclo[3.2.1]octan-3-yl) 3-hydroxybenzoate

> <PUBCHEM_IUPAC_SYSTEMATIC_NAME>
(8-methyl-8-azabicyclo[3.2.1]octan-3-yl) 3-oxidanylbenzoate

> <PUBCHEM_IUPAC_TRADITIONAL_NAME>
3-hydroxybenzoic acid (8-methyl-8-azabicyclo[3.2.1]octan-3-yl) ester

> <PUBCHEM_IUPAC_INCHI>
InChI=1S/C15H19NO3/c1-16-11-5-6-12(16)9-14(8-11)19-15(18)10-3-2-4-13(17)7-10/h2-4,7,11-12,14,17H,5-6,8-9H2,1H3

> <PUBCHEM_IUPAC_INCHIKEY>
OJADCNKLFKWRHJ-UHFFFAOYSA-N

> <PUBCHEM_XLOGP3_AA>
2.6

> <PUBCHEM_EXACT_MASS>
261.136493

> <PUBCHEM_MOLECULAR_FORMULA>
C15H19NO3

> <PUBCHEM_MOLECULAR_WEIGHT>
261.31626

> <PUBCHEM_OPENEYE_CAN_SMILES>
CN1C2CCC1CC(C2)OC(=O)C3=CC(=CC=C3)O

> <PUBCHEM_OPENEYE_ISO_SMILES>
CN1C2CCC1CC(C2)OC(=O)C3=CC(=CC=C3)O

> <PUBCHEM_CACTVS_TPSA>
49.8

> <PUBCHEM_MONOISOTOPIC_WEIGHT>
261.136493

> <PUBCHEM_TOTAL_CHARGE>
0

> <PUBCHEM_HEAVY_ATOM_COUNT>
19

> <PUBCHEM_ATOM_DEF_STEREO_COUNT>
0

> <PUBCHEM_ATOM_UDEF_STEREO_COUNT>
2

> <PUBCHEM_BOND_DEF_STEREO_COUNT>
0

> <PUBCHEM_BOND_UDEF_STEREO_COUNT>
0

> <PUBCHEM_ISOTOPIC_ATOM_COUNT>
0

> <PUBCHEM_COMPONENT_COUNT>
1

> <PUBCHEM_CACTVS_TAUTO_COUNT>
3

> <PUBCHEM_COORDINATE_TYPE>
1
5
255

> <PUBCHEM_BONDANNOTATIONS>
14  15  8
14  16  8
15  17  8
16  18  8
17  19  8
18  19  8
5  7  3
6  8  3

$$$$

