27189
  -OEChem-07051213122D

 41 42  0     1  0  0  0  0  0999 V2000
    5.4641    0.2327    0.0000 O   0  0  0  0  0  0  0  0  0  0  0  0
    5.4641   -1.7673    0.0000 O   0  0  0  0  0  0  0  0  0  0  0  0
    3.7320   -1.7673    0.0000 N   0  0  0  0  0  0  0  0  0  0  0  0
    4.5981   -0.2673    0.0000 C   0  0  3  0  0  0  0  0  0  0  0  0
    4.5981   -1.2673    0.0000 C   0  0  0  0  0  0  0  0  0  0  0  0
    3.7320   -2.7673    0.0000 C   0  0  0  0  0  0  0  0  0  0  0  0
    2.8660   -1.2673    0.0000 C   0  0  0  0  0  0  0  0  0  0  0  0
    5.4641    1.2327    0.0000 C   0  0  0  0  0  0  0  0  0  0  0  0
    6.3301    1.7327    0.0000 C   0  0  0  0  0  0  0  0  0  0  0  0
    3.7320    0.2327    0.0000 C   0  0  0  0  0  0  0  0  0  0  0  0
    6.3301    2.7327    0.0000 C   0  0  0  0  0  0  0  0  0  0  0  0
    2.8660   -3.2673    0.0000 C   0  0  0  0  0  0  0  0  0  0  0  0
    2.0000   -1.7673    0.0000 C   0  0  0  0  0  0  0  0  0  0  0  0
    4.5981    1.7327    0.0000 C   0  0  0  0  0  0  0  0  0  0  0  0
    7.2241    1.1980    0.0000 C   0  0  0  0  0  0  0  0  0  0  0  0
    5.4641    3.2327    0.0000 C   0  0  0  0  0  0  0  0  0  0  0  0
    4.5981    2.7327    0.0000 C   0  0  0  0  0  0  0  0  0  0  0  0
    7.2241    3.2673    0.0000 C   0  0  0  0  0  0  0  0  0  0  0  0
    8.1301    1.7118    0.0000 C   0  0  0  0  0  0  0  0  0  0  0  0
    8.1301    2.7535    0.0000 C   0  0  0  0  0  0  0  0  0  0  0  0
    4.5981    0.3527    0.0000 H   0  0  0  0  0  0  0  0  0  0  0  0
    3.9441   -3.3499    0.0000 H   0  0  0  0  0  0  0  0  0  0  0  0
    4.3426   -2.6597    0.0000 H   0  0  0  0  0  0  0  0  0  0  0  0
    3.2646   -0.7924    0.0000 H   0  0  0  0  0  0  0  0  0  0  0  0
    2.4675   -0.7924    0.0000 H   0  0  0  0  0  0  0  0  0  0  0  0
    4.0420    0.7696    0.0000 H   0  0  0  0  0  0  0  0  0  0  0  0
    3.1951    0.5427    0.0000 H   0  0  0  0  0  0  0  0  0  0  0  0
    3.4220   -0.3043    0.0000 H   0  0  0  0  0  0  0  0  0  0  0  0
    1.6900   -1.2304    0.0000 H   0  0  0  0  0  0  0  0  0  0  0  0
    2.5560   -2.7304    0.0000 H   0  0  0  0  0  0  0  0  0  0  0  0
    2.3291   -3.5773    0.0000 H   0  0  0  0  0  0  0  0  0  0  0  0
    3.1760   -3.8043    0.0000 H   0  0  0  0  0  0  0  0  0  0  0  0
    1.4631   -2.0773    0.0000 H   0  0  0  0  0  0  0  0  0  0  0  0
    2.3100   -2.3043    0.0000 H   0  0  0  0  0  0  0  0  0  0  0  0
    4.0611    1.4227    0.0000 H   0  0  0  0  0  0  0  0  0  0  0  0
    7.2169    0.5780    0.0000 H   0  0  0  0  0  0  0  0  0  0  0  0
    5.4641    3.8527    0.0000 H   0  0  0  0  0  0  0  0  0  0  0  0
    4.0611    3.0427    0.0000 H   0  0  0  0  0  0  0  0  0  0  0  0
    7.2169    3.8873    0.0000 H   0  0  0  0  0  0  0  0  0  0  0  0
    8.6659    1.3998    0.0000 H   0  0  0  0  0  0  0  0  0  0  0  0
    8.6659    3.0656    0.0000 H   0  0  0  0  0  0  0  0  0  0  0  0
  1  4  1  0  0  0  0
  1  8  1  0  0  0  0
  2  5  2  0  0  0  0
  3  5  1  0  0  0  0
  3  6  1  0  0  0  0
  3  7  1  0  0  0  0
  4  5  1  0  0  0  0
  4 10  1  0  0  0  0
  4 21  1  0  0  0  0
  6 12  1  0  0  0  0
  6 22  1  0  0  0  0
  6 23  1  0  0  0  0
  7 13  1  0  0  0  0
  7 24  1  0  0  0  0
  7 25  1  0  0  0  0
  8  9  1  0  0  0  0
  8 14  2  0  0  0  0
  9 11  1  0  0  0  0
  9 15  2  0  0  0  0
 10 26  1  0  0  0  0
 10 27  1  0  0  0  0
 10 28  1  0  0  0  0
 11 16  1  0  0  0  0
 11 18  2  0  0  0  0
 12 30  1  0  0  0  0
 12 31  1  0  0  0  0
 12 32  1  0  0  0  0
 13 29  1  0  0  0  0
 13 33  1  0  0  0  0
 13 34  1  0  0  0  0
 14 17  1  0  0  0  0
 14 35  1  0  0  0  0
 15 19  1  0  0  0  0
 15 36  1  0  0  0  0
 16 17  2  0  0  0  0
 16 37  1  0  0  0  0
 17 38  1  0  0  0  0
 18 20  1  0  0  0  0
 18 39  1  0  0  0  0
 19 20  2  0  0  0  0
 19 40  1  0  0  0  0
 20 41  1  0  0  0  0
M  END
> <PUBCHEM_COMPOUND_CID>
27189

> <PUBCHEM_COMPOUND_CANONICALIZED>
1

> <PUBCHEM_CACTVS_COMPLEXITY>
314

> <PUBCHEM_CACTVS_HBOND_ACCEPTOR>
2

> <PUBCHEM_CACTVS_HBOND_DONOR>
0

> <PUBCHEM_CACTVS_ROTATABLE_BOND>
5

> <PUBCHEM_CACTVS_SUBSKEYS>
AAADceB6MAAAAAAAAAAAAAAAAAAAAAAAAAAwYAAAAAAAAADBUAAAHgAAAAAADBThmAYyBsMABACIAiFSEAICCAAgIAAIiAFOCIgOJiKEMR6HOCCkxhGYqAeAwLAOgAABAAAYAAAAAAIAADAAAAAAAAAAAA==

> <PUBCHEM_IUPAC_OPENEYE_NAME>
N,N-diethyl-2-(1-naphthyloxy)propanamide

> <PUBCHEM_IUPAC_CAS_NAME>
N,N-diethyl-2-(1-naphthalenyloxy)propanamide

> <PUBCHEM_IUPAC_NAME>
N,N-diethyl-2-naphthalen-1-yloxypropanamide

> <PUBCHEM_IUPAC_SYSTEMATIC_NAME>
N,N-diethyl-2-naphthalen-1-yloxy-propanamide

> <PUBCHEM_IUPAC_TRADITIONAL_NAME>
N,N-diethyl-2-(1-naphthoxy)propionamide

> <PUBCHEM_IUPAC_INCHI>
InChI=1S/C17H21NO2/c1-4-18(5-2)17(19)13(3)20-16-12-8-10-14-9-6-7-11-15(14)16/h6-13H,4-5H2,1-3H3

> <PUBCHEM_IUPAC_INCHIKEY>
WXZVAROIGSFCFJ-UHFFFAOYSA-N

> <PUBCHEM_XLOGP3>
3.4

> <PUBCHEM_EXACT_MASS>
271.157229

> <PUBCHEM_MOLECULAR_FORMULA>
C17H21NO2

> <PUBCHEM_MOLECULAR_WEIGHT>
271.35414

> <PUBCHEM_OPENEYE_CAN_SMILES>
CCN(CC)C(=O)C(C)OC1=CC=CC2=CC=CC=C21

> <PUBCHEM_OPENEYE_ISO_SMILES>
CCN(CC)C(=O)C(C)OC1=CC=CC2=CC=CC=C21

> <PUBCHEM_CACTVS_TPSA>
29.5

> <PUBCHEM_MONOISOTOPIC_WEIGHT>
271.157229

> <PUBCHEM_TOTAL_CHARGE>
0

> <PUBCHEM_HEAVY_ATOM_COUNT>
20

> <PUBCHEM_ATOM_DEF_STEREO_COUNT>
0

> <PUBCHEM_ATOM_UDEF_STEREO_COUNT>
1

> <PUBCHEM_BOND_DEF_STEREO_COUNT>
0

> <PUBCHEM_BOND_UDEF_STEREO_COUNT>
0

> <PUBCHEM_ISOTOPIC_ATOM_COUNT>
0

> <PUBCHEM_COMPONENT_COUNT>
1

> <PUBCHEM_CACTVS_TAUTO_COUNT>
1

> <PUBCHEM_COORDINATE_TYPE>
1
5
255

> <PUBCHEM_BONDANNOTATIONS>
11  16  8
11  18  8
14  17  8
15  19  8
16  17  8
18  20  8
19  20  8
4  10  3
8  14  8
8  9  8
9  11  8
9  15  8

$$$$

