71447
  -OEChem-07051213023D

 57 61  0     1  0  0  0  0  0999 V2000
    0.6547    3.1145    1.2778 S   0  0  0  0  0  0  0  0  0  0  0  0
    0.2628   -0.5845   -1.0835 O   0  0  0  0  0  0  0  0  0  0  0  0
   -2.9399    0.6759   -0.0602 O   0  0  0  0  0  0  0  0  0  0  0  0
   -3.3047    2.4815   -1.4542 O   0  0  0  0  0  0  0  0  0  0  0  0
    3.1659   -1.2766   -0.1970 O   0  0  0  0  0  0  0  0  0  0  0  0
   -4.5493   -0.1686   -1.6038 O   0  0  0  0  0  0  0  0  0  0  0  0
   -5.1898   -2.1035   -2.6998 O   0  0  0  0  0  0  0  0  0  0  0  0
   -0.6259    1.0501    0.3686 N   0  0  0  0  0  0  0  0  0  0  0  0
    2.5057    0.7134    0.7934 N   0  0  0  0  0  0  0  0  0  0  0  0
    4.6899    1.2829   -1.3585 N   0  0  0  0  0  0  0  0  0  0  0  0
    0.1488    1.3801    1.5686 C   0  0  1  0  0  0  0  0  0  0  0  0
   -1.1497    2.1262   -0.4480 C   0  0  2  0  0  0  0  0  0  0  0  0
   -0.9027    3.4473    0.3117 C   0  0  0  0  0  0  0  0  0  0  0  0
    1.1436    0.2899    1.1473 C   0  0  1  0  0  0  0  0  0  0  0  0
    0.2197    0.0714   -0.0674 C   0  0  0  0  0  0  0  0  0  0  0  0
   -0.6510    4.6071   -0.6535 C   0  0  0  0  0  0  0  0  0  0  0  0
   -2.0061    3.8239    1.3098 C   0  0  0  0  0  0  0  0  0  0  0  0
   -2.5837    1.8090   -0.7297 C   0  0  0  0  0  0  0  0  0  0  0  0
    3.4164   -0.1205    0.1400 C   0  0  0  0  0  0  0  0  0  0  0  0
    4.7689    0.5431   -0.0956 C   0  0  1  0  0  0  0  0  0  0  0  0
   -4.2958    0.2553   -0.2412 C   0  0  1  0  0  0  0  0  0  0  0  0
   -4.5603   -0.9775    0.5303 C   0  0  0  0  0  0  0  0  0  0  0  0
    5.8815   -0.4845   -0.0975 C   0  0  0  0  0  0  0  0  0  0  0  0
   -4.9300   -1.9933   -0.3281 C   0  0  0  0  0  0  0  0  0  0  0  0
   -4.9205   -1.4845   -1.6899 C   0  0  0  0  0  0  0  0  0  0  0  0
   -4.4944   -1.2036    1.8938 C   0  0  0  0  0  0  0  0  0  0  0  0
    6.5135   -0.7965    1.0930 C   0  0  0  0  0  0  0  0  0  0  0  0
    6.2407   -1.0875   -1.2897 C   0  0  0  0  0  0  0  0  0  0  0  0
   -5.2440   -3.2664    0.1108 C   0  0  0  0  0  0  0  0  0  0  0  0
   -4.8056   -2.4809    2.3701 C   0  0  0  0  0  0  0  0  0  0  0  0
   -5.1777   -3.5059    1.4837 C   0  0  0  0  0  0  0  0  0  0  0  0
    7.5386   -1.7426    1.0912 C   0  0  0  0  0  0  0  0  0  0  0  0
    7.2657   -2.0336   -1.2915 C   0  0  0  0  0  0  0  0  0  0  0  0
    7.9145   -2.3611   -0.1010 C   0  0  0  0  0  0  0  0  0  0  0  0
   -0.4041    1.1938    2.4939 H   0  0  0  0  0  0  0  0  0  0  0  0
   -0.6121    2.0995   -1.4051 H   0  0  0  0  0  0  0  0  0  0  0  0
    1.1583   -0.5712    1.8260 H   0  0  0  0  0  0  0  0  0  0  0  0
   -0.4058    5.5320   -0.1186 H   0  0  0  0  0  0  0  0  0  0  0  0
    0.1717    4.3911   -1.3451 H   0  0  0  0  0  0  0  0  0  0  0  0
   -1.5419    4.8067   -1.2597 H   0  0  0  0  0  0  0  0  0  0  0  0
   -1.7223    4.6957    1.9113 H   0  0  0  0  0  0  0  0  0  0  0  0
   -2.9338    4.0887    0.7902 H   0  0  0  0  0  0  0  0  0  0  0  0
   -2.2410    3.0040    1.9979 H   0  0  0  0  0  0  0  0  0  0  0  0
    2.8093    1.6556    1.0272 H   0  0  0  0  0  0  0  0  0  0  0  0
    4.9618    1.2696    0.7040 H   0  0  0  0  0  0  0  0  0  0  0  0
   -4.9990    1.0527    0.0271 H   0  0  0  0  0  0  0  0  0  0  0  0
    3.9555    1.9876   -1.2936 H   0  0  0  0  0  0  0  0  0  0  0  0
    5.5571    1.7993   -1.5044 H   0  0  0  0  0  0  0  0  0  0  0  0
   -4.2084   -0.4142    2.5805 H   0  0  0  0  0  0  0  0  0  0  0  0
    6.2259   -0.3217    2.0264 H   0  0  0  0  0  0  0  0  0  0  0  0
    5.7431   -0.8680   -2.2293 H   0  0  0  0  0  0  0  0  0  0  0  0
   -5.5316   -4.0535   -0.5767 H   0  0  0  0  0  0  0  0  0  0  0  0
   -4.7601   -2.6842    3.4366 H   0  0  0  0  0  0  0  0  0  0  0  0
   -5.4162   -4.4920    1.8728 H   0  0  0  0  0  0  0  0  0  0  0  0
    8.0433   -1.9983    2.0183 H   0  0  0  0  0  0  0  0  0  0  0  0
    7.5558   -2.5187   -2.2190 H   0  0  0  0  0  0  0  0  0  0  0  0
    8.7117   -3.0987   -0.1022 H   0  0  0  0  0  0  0  0  0  0  0  0
  1 11  1  0  0  0  0
  1 13  1  0  0  0  0
  2 15  2  0  0  0  0
  3 18  1  0  0  0  0
  3 21  1  0  0  0  0
  4 18  2  0  0  0  0
  5 19  2  0  0  0  0
  6 21  1  0  0  0  0
  6 25  1  0  0  0  0
  7 25  2  0  0  0  0
  8 11  1  0  0  0  0
  8 12  1  0  0  0  0
  8 15  1  0  0  0  0
  9 14  1  0  0  0  0
  9 19  1  0  0  0  0
  9 44  1  0  0  0  0
 10 20  1  0  0  0  0
 10 47  1  0  0  0  0
 10 48  1  0  0  0  0
 11 14  1  0  0  0  0
 11 35  1  0  0  0  0
 12 13  1  0  0  0  0
 12 18  1  0  0  0  0
 12 36  1  0  0  0  0
 13 16  1  0  0  0  0
 13 17  1  0  0  0  0
 14 15  1  0  0  0  0
 14 37  1  0  0  0  0
 16 38  1  0  0  0  0
 16 39  1  0  0  0  0
 16 40  1  0  0  0  0
 17 41  1  0  0  0  0
 17 42  1  0  0  0  0
 17 43  1  0  0  0  0
 19 20  1  0  0  0  0
 20 23  1  0  0  0  0
 20 45  1  0  0  0  0
 21 22  1  0  0  0  0
 21 46  1  0  0  0  0
 22 24  1  0  0  0  0
 22 26  2  0  0  0  0
 23 27  2  0  0  0  0
 23 28  1  0  0  0  0
 24 25  1  0  0  0  0
 24 29  2  0  0  0  0
 26 30  1  0  0  0  0
 26 49  1  0  0  0  0
 27 32  1  0  0  0  0
 27 50  1  0  0  0  0
 28 33  2  0  0  0  0
 28 51  1  0  0  0  0
 29 31  1  0  0  0  0
 29 52  1  0  0  0  0
 30 31  2  0  0  0  0
 30 53  1  0  0  0  0
 31 54  1  0  0  0  0
 32 34  2  0  0  0  0
 32 55  1  0  0  0  0
 33 34  1  0  0  0  0
 33 56  1  0  0  0  0
 34 57  1  0  0  0  0
M  END
> <PUBCHEM_COMPOUND_CID>
71447

> <PUBCHEM_CONFORMER_RMSD>
1

> <PUBCHEM_CONFORMER_DIVERSEORDER>
7
291
335
69
180
130
337
299
8
30
332
196
177
305
111
168
280
123
207
147
37
375
138
263
66
33
158
43
355
244
266
41
302
215
289
316
321
343
190
346
12
411
394
281
409
231
423
60
53
220
362
194
217
16
383
408
420
154
309
295
240
152
163
357
378
232
139
252
176
75
105
107
386
398
166
68
102
250
312
61
15
389
20
118
267
258
3
223
310
86
47
286
96
182
322
324
125
367
202
58
4
81
245
264
313
95
317
304
56
174
21
175
13
270
136
200
406
400
249
210
265
117
376
341
17
368
308
87
172
395
185
171
363
74
145
319
366
351
372
379
165
116
241
148
142
399
300
99
187
97
283
124
348
71
296
126
141
271
149
80
120
397
188
104
226
311
57
276
91
246
396
186
25
46
318
297
349
72
19
403
59
416
325
208
6
198
274
354
40
156
314
127
206
287
29
84
218
255
229
336
419
261
199
179
178
385
293
364
2
242
340
237
67
122
162
98
211
327
78
42
338
292
109
92
415
418
160
214
144
234
373
243
269
204
333
48
103
143
330
22
370
277
201
113
137
45
79
157
382
88
393
52
128
251
32
298
169
184
236
93
356
407
11
140
192
28
235
76
55
83
361
193
18
323
247
26
253
135
347
350
1
254
272
49
14
31
38
365
380
203
167
90
10
191
9
222
34
73
369
132
290
64
36
197
23
224
27
417
51
173
44
133
342
284
94
5
63
181
421
410
114
414
326
339
374
150
70
329
301
238
35
155
288
282
65
159
344
112
153
228
273
256
371
164
359
121
209
225
384
248
24
100
239
279
390
115
257
262
39
328
404
360
85
54
303
195
260
216
278
151
377
183
405
129
230
213
50
401
320
358
233
221
106
413
62
392
275
119
146
294
306
387
131
205
352
285
353
82
189
77
307
108
422
345
402
101
161
259
170
331
268
391
219
227
110
412
89
388
381
134
334
315
212

> <PUBCHEM_MMFF94_PARTIAL_CHARGES>
44
1 -0.45
10 -0.99
11 0.44
12 0.36
13 0.23
14 0.28
15 0.58
18 0.66
19 0.57
2 -0.57
20 0.47
21 0.7
22 -0.14
23 -0.14
24 0.09
25 0.63
26 -0.15
27 -0.15
28 -0.15
29 -0.15
3 -0.43
30 -0.15
31 -0.15
32 -0.15
33 -0.15
34 -0.15
4 -0.57
44 0.37
47 0.36
48 0.36
49 0.15
5 -0.57
50 0.15
51 0.15
52 0.15
53 0.15
54 0.15
55 0.15
56 0.15
57 0.15
6 -0.43
7 -0.57
8 -0.59
9 -0.65

> <PUBCHEM_EFFECTIVE_ROTOR_COUNT>
8.2

> <PUBCHEM_PHARMACOPHORE_FEATURES>
13
1 10 cation
1 10 donor
1 2 acceptor
1 4 acceptor
1 5 acceptor
1 7 acceptor
1 9 donor
3 13 16 17 hydrophobe
4 8 11 14 15 rings
5 6 21 22 24 25 rings
6 22 24 26 29 30 31 rings
6 23 27 28 32 33 34 rings
7 1 8 11 12 13 14 15 rings

> <PUBCHEM_HEAVY_ATOM_COUNT>
34

> <PUBCHEM_ATOM_DEF_STEREO_COUNT>
4

> <PUBCHEM_ATOM_UDEF_STEREO_COUNT>
1

> <PUBCHEM_BOND_DEF_STEREO_COUNT>
0

> <PUBCHEM_BOND_UDEF_STEREO_COUNT>
0

> <PUBCHEM_ISOTOPIC_ATOM_COUNT>
0

> <PUBCHEM_COMPONENT_COUNT>
1

> <PUBCHEM_CACTVS_TAUTO_COUNT>
2

> <PUBCHEM_CONFORMER_ID>
0001171700000007

> <PUBCHEM_MMFF94_ENERGY>
94.2601

> <PUBCHEM_FEATURE_SELFOVERLAP>
69.791

> <PUBCHEM_SHAPE_FINGERPRINT>
11227688 84 18337403685789956135
11488393 25 18124308307762625713
11672396 43 18261106431641441902
12166972 35 18060132142406710916
12422481 6 16950830470900781996
12895837 130 13901916630775815719
12988421 55 9079124375298252765
13690498 29 18060142012225212781
13782708 43 18260550030900808210
14118638 360 18341603808072017268
14211702 104 18335978779235061094
14251764 30 18337386045920986090
14950920 106 15647342875195197731
14951699 99 7709459433600688186
15183329 4 16487258772745780410
15324884 4 18118434815478936065
15467298 65 17986960841679669042
15876981 60 18130217272318591700
16067689 391 18341047505815971090
16114785 44 17170387675176992353
16120349 189 8358266916876597691
17686467 74 18412268325230614048
18927931 339 18343299271533076887
19309040 13 12966311426319106611
20505436 4 17129581516914420449
21307412 95 18341624690018277471
2260408 40 14924216128306474260
23559900 14 17702110154138932917
25025965 108 18116455771748081238
2838139 119 13398638246755298918
32027 91 18264211305583729899
393628 194 11240000083183320423
4015057 19 14620494702270325622
4169191 19 10519978271437688478
4330586 98 17488733455332254330
4756326 101 14346342589803694707
513202 73 18333731329410220254
6636798 310 15575570024889241831
6669772 16 17476066939435708645
7918774 8 18335416829206490992

> <PUBCHEM_SHAPE_MULTIPOLES>
653.39
19.49
4.81
1.87
32.88
3.68
-0.12
-24.24
-1.94
-5.4
0.75
-2.15
-0.75
1.17

> <PUBCHEM_SHAPE_SELFOVERLAP>
1420.468

> <PUBCHEM_SHAPE_VOLUME>
359.7

> <PUBCHEM_COORDINATE_TYPE>
2
5
10

$$$$

