8478
  -OEChem-07051213032D

 73 73  0     0  0  0  0  0  0999 V2000
   10.0021    7.2615    0.0000 Cl  0  5  0  0  0  0  0  0  0  0  0  0
    4.0010    6.1200    0.0000 O   0  0  0  0  0  0  0  0  0  0  0  0
    5.7331    8.1200    0.0000 O   0  0  0  0  0  0  0  0  0  0  0  0
    3.1350    3.6200    0.0000 N   0  3  0  0  0  0  0  0  0  0  0  0
    5.7331   12.1200    0.0000 C   0  0  0  0  0  0  0  0  0  0  0  0
    6.5991   13.6200    0.0000 C   0  0  0  0  0  0  0  0  0  0  0  0
    5.7331   13.1200    0.0000 C   0  0  0  0  0  0  0  0  0  0  0  0
    5.7331   11.1200    0.0000 C   0  0  0  0  0  0  0  0  0  0  0  0
    6.7331   12.1200    0.0000 C   0  0  0  0  0  0  0  0  0  0  0  0
    4.7331   12.1200    0.0000 C   0  0  0  0  0  0  0  0  0  0  0  0
    7.4651   14.1200    0.0000 C   0  0  0  0  0  0  0  0  0  0  0  0
    6.0991   14.4860    0.0000 C   0  0  0  0  0  0  0  0  0  0  0  0
    7.0991   12.7540    0.0000 C   0  0  0  0  0  0  0  0  0  0  0  0
    3.1350    4.6200    0.0000 C   0  0  0  0  0  0  0  0  0  0  0  0
    3.1350    2.6200    0.0000 C   0  0  0  0  0  0  0  0  0  0  0  0
    4.8671   10.6200    0.0000 C   0  0  0  0  0  0  0  0  0  0  0  0
    6.5991   10.6200    0.0000 C   0  0  0  0  0  0  0  0  0  0  0  0
    2.1350    3.6200    0.0000 C   0  0  0  0  0  0  0  0  0  0  0  0
    4.1350    3.6200    0.0000 C   0  0  0  0  0  0  0  0  0  0  0  0
    4.0010    5.1200    0.0000 C   0  0  0  0  0  0  0  0  0  0  0  0
    2.2690    2.1200    0.0000 C   0  0  0  0  0  0  0  0  0  0  0  0
    4.8671    9.6200    0.0000 C   0  0  0  0  0  0  0  0  0  0  0  0
    6.5991    9.6200    0.0000 C   0  0  0  0  0  0  0  0  0  0  0  0
    5.7331    9.1200    0.0000 C   0  0  0  0  0  0  0  0  0  0  0  0
    1.4030    2.6200    0.0000 C   0  0  0  0  0  0  0  0  0  0  0  0
    2.2690    1.1200    0.0000 C   0  0  0  0  0  0  0  0  0  0  0  0
    4.8671    6.6200    0.0000 C   0  0  0  0  0  0  0  0  0  0  0  0
    4.8671    7.6200    0.0000 C   0  0  0  0  0  0  0  0  0  0  0  0
    0.5369    2.1200    0.0000 C   0  0  0  0  0  0  0  0  0  0  0  0
    1.4030    0.6200    0.0000 C   0  0  0  0  0  0  0  0  0  0  0  0
    0.5369    1.1200    0.0000 C   0  0  0  0  0  0  0  0  0  0  0  0
    5.5210   13.7026    0.0000 H   0  0  0  0  0  0  0  0  0  0  0  0
    5.1225   13.0123    0.0000 H   0  0  0  0  0  0  0  0  0  0  0  0
    6.7331   11.5000    0.0000 H   0  0  0  0  0  0  0  0  0  0  0  0
    4.7331   12.7400    0.0000 H   0  0  0  0  0  0  0  0  0  0  0  0
    4.1131   12.1200    0.0000 H   0  0  0  0  0  0  0  0  0  0  0  0
    4.7331   11.5000    0.0000 H   0  0  0  0  0  0  0  0  0  0  0  0
    7.3531   12.1200    0.0000 H   0  0  0  0  0  0  0  0  0  0  0  0
    6.7331   12.7400    0.0000 H   0  0  0  0  0  0  0  0  0  0  0  0
    6.5622   12.4440    0.0000 H   0  0  0  0  0  0  0  0  0  0  0  0
    7.4091   12.2170    0.0000 H   0  0  0  0  0  0  0  0  0  0  0  0
    7.6360   13.0640    0.0000 H   0  0  0  0  0  0  0  0  0  0  0  0
    6.6360   14.7960    0.0000 H   0  0  0  0  0  0  0  0  0  0  0  0
    5.7891   15.0230    0.0000 H   0  0  0  0  0  0  0  0  0  0  0  0
    5.5622   14.1760    0.0000 H   0  0  0  0  0  0  0  0  0  0  0  0
    7.7751   13.5831    0.0000 H   0  0  0  0  0  0  0  0  0  0  0  0
    8.0021   14.4300    0.0000 H   0  0  0  0  0  0  0  0  0  0  0  0
    7.1551   14.6569    0.0000 H   0  0  0  0  0  0  0  0  0  0  0  0
    2.9230    5.2026    0.0000 H   0  0  0  0  0  0  0  0  0  0  0  0
    2.5244    4.5123    0.0000 H   0  0  0  0  0  0  0  0  0  0  0  0
    3.3471    2.0374    0.0000 H   0  0  0  0  0  0  0  0  0  0  0  0
    3.7456    2.7277    0.0000 H   0  0  0  0  0  0  0  0  0  0  0  0
    4.3301   10.9300    0.0000 H   0  0  0  0  0  0  0  0  0  0  0  0
    7.1360   10.9300    0.0000 H   0  0  0  0  0  0  0  0  0  0  0  0
    2.1350    4.2400    0.0000 H   0  0  0  0  0  0  0  0  0  0  0  0
    1.5150    3.6200    0.0000 H   0  0  0  0  0  0  0  0  0  0  0  0
    2.1350    3.0000    0.0000 H   0  0  0  0  0  0  0  0  0  0  0  0
    4.1350    3.0000    0.0000 H   0  0  0  0  0  0  0  0  0  0  0  0
    4.7550    3.6200    0.0000 H   0  0  0  0  0  0  0  0  0  0  0  0
    4.1350    4.2400    0.0000 H   0  0  0  0  0  0  0  0  0  0  0  0
    4.2131    4.5374    0.0000 H   0  0  0  0  0  0  0  0  0  0  0  0
    4.6116    5.2277    0.0000 H   0  0  0  0  0  0  0  0  0  0  0  0
    4.3301    9.3100    0.0000 H   0  0  0  0  0  0  0  0  0  0  0  0
    7.1360    9.3100    0.0000 H   0  0  0  0  0  0  0  0  0  0  0  0
    1.4030    3.2400    0.0000 H   0  0  0  0  0  0  0  0  0  0  0  0
    2.8059    0.8100    0.0000 H   0  0  0  0  0  0  0  0  0  0  0  0
    5.0791    6.0374    0.0000 H   0  0  0  0  0  0  0  0  0  0  0  0
    5.4776    6.7277    0.0000 H   0  0  0  0  0  0  0  0  0  0  0  0
    4.6550    8.2026    0.0000 H   0  0  0  0  0  0  0  0  0  0  0  0
    4.2565    7.5123    0.0000 H   0  0  0  0  0  0  0  0  0  0  0  0
    0.0000    2.4300    0.0000 H   0  0  0  0  0  0  0  0  0  0  0  0
    1.4030    0.0000    0.0000 H   0  0  0  0  0  0  0  0  0  0  0  0
    0.0000    0.8100    0.0000 H   0  0  0  0  0  0  0  0  0  0  0  0
  2 20  1  0  0  0  0
  2 27  1  0  0  0  0
  3 24  1  0  0  0  0
  3 28  1  0  0  0  0
  4 14  1  0  0  0  0
  4 15  1  0  0  0  0
  4 18  1  0  0  0  0
  4 19  1  0  0  0  0
  5  7  1  0  0  0  0
  5  8  1  0  0  0  0
  5  9  1  0  0  0  0
  5 10  1  0  0  0  0
  6  7  1  0  0  0  0
  6 11  1  0  0  0  0
  6 12  1  0  0  0  0
  6 13  1  0  0  0  0
  7 32  1  0  0  0  0
  7 33  1  0  0  0  0
  8 16  2  0  0  0  0
  8 17  1  0  0  0  0
  9 34  1  0  0  0  0
  9 38  1  0  0  0  0
  9 39  1  0  0  0  0
 10 35  1  0  0  0  0
 10 36  1  0  0  0  0
 10 37  1  0  0  0  0
 11 46  1  0  0  0  0
 11 47  1  0  0  0  0
 11 48  1  0  0  0  0
 12 43  1  0  0  0  0
 12 44  1  0  0  0  0
 12 45  1  0  0  0  0
 13 40  1  0  0  0  0
 13 41  1  0  0  0  0
 13 42  1  0  0  0  0
 14 20  1  0  0  0  0
 14 49  1  0  0  0  0
 14 50  1  0  0  0  0
 15 21  1  0  0  0  0
 15 51  1  0  0  0  0
 15 52  1  0  0  0  0
 16 22  1  0  0  0  0
 16 53  1  0  0  0  0
 17 23  2  0  0  0  0
 17 54  1  0  0  0  0
 18 55  1  0  0  0  0
 18 56  1  0  0  0  0
 18 57  1  0  0  0  0
 19 58  1  0  0  0  0
 19 59  1  0  0  0  0
 19 60  1  0  0  0  0
 20 61  1  0  0  0  0
 20 62  1  0  0  0  0
 21 25  2  0  0  0  0
 21 26  1  0  0  0  0
 22 24  2  0  0  0  0
 22 63  1  0  0  0  0
 23 24  1  0  0  0  0
 23 64  1  0  0  0  0
 25 29  1  0  0  0  0
 25 65  1  0  0  0  0
 26 30  2  0  0  0  0
 26 66  1  0  0  0  0
 27 28  1  0  0  0  0
 27 67  1  0  0  0  0
 27 68  1  0  0  0  0
 28 69  1  0  0  0  0
 28 70  1  0  0  0  0
 29 31  2  0  0  0  0
 29 71  1  0  0  0  0
 30 31  1  0  0  0  0
 30 72  1  0  0  0  0
 31 73  1  0  0  0  0
M  CHG  2   1  -1   4   1
M  END
> <PUBCHEM_COMPOUND_CID>
8478

> <PUBCHEM_COMPOUND_CANONICALIZED>
1

> <PUBCHEM_CACTVS_COMPLEXITY>
466

> <PUBCHEM_CACTVS_HBOND_ACCEPTOR>
3

> <PUBCHEM_CACTVS_HBOND_DONOR>
0

> <PUBCHEM_CACTVS_ROTATABLE_BOND>
12

> <PUBCHEM_CACTVS_SUBSKEYS>
AAADcfB6MAAEAAAAAAAAAAAAAAAAAAAAAAAwYAAAAAAAAAABQAAAHgAAAAAADgThmAYyBoMABACAAiBCAACCCAAgIAAIiAAODIgPJiKEsRuHOCjkwBGaqAeQwPAPoAAAAAAAAABAAAAAAAAAAAAAAAAAAA==

> <PUBCHEM_IUPAC_OPENEYE_NAME>
benzyl-dimethyl-[2-[2-[4-(1,1,3,3-tetramethylbutyl)phenoxy]ethoxy]ethyl]ammonium chloride

> <PUBCHEM_IUPAC_CAS_NAME>
dimethyl-(phenylmethyl)-[2-[2-[4-(2,4,4-trimethylpentan-2-yl)phenoxy]ethoxy]ethyl]ammonium chloride

> <PUBCHEM_IUPAC_NAME>
benzyl-dimethyl-[2-[2-[4-(2,4,4-trimethylpentan-2-yl)phenoxy]ethoxy]ethyl]azanium chloride

> <PUBCHEM_IUPAC_SYSTEMATIC_NAME>
dimethyl-(phenylmethyl)-[2-[2-[4-(2,4,4-trimethylpentan-2-yl)phenoxy]ethoxy]ethyl]azanium chloride

> <PUBCHEM_IUPAC_TRADITIONAL_NAME>
benzyl-dimethyl-[2-[2-[4-(1,1,3,3-tetramethylbutyl)phenoxy]ethoxy]ethyl]ammonium chloride

> <PUBCHEM_IUPAC_INCHI>
InChI=1S/C27H42NO2.ClH/c1-26(2,3)22-27(4,5)24-13-15-25(16-14-24)30-20-19-29-18-17-28(6,7)21-23-11-9-8-10-12-23;/h8-16H,17-22H2,1-7H3;1H/q+1;/p-1

> <PUBCHEM_IUPAC_INCHIKEY>
UREZNYTWGJKWBI-UHFFFAOYSA-M

> <PUBCHEM_EXACT_MASS>
447.290407

> <PUBCHEM_MOLECULAR_FORMULA>
C27H42ClNO2

> <PUBCHEM_MOLECULAR_WEIGHT>
448.08088

> <PUBCHEM_OPENEYE_CAN_SMILES>
CC(C)(C)CC(C)(C)C1=CC=C(C=C1)OCCOCC[N+](C)(C)CC2=CC=CC=C2.[Cl-]

> <PUBCHEM_OPENEYE_ISO_SMILES>
CC(C)(C)CC(C)(C)C1=CC=C(C=C1)OCCOCC[N+](C)(C)CC2=CC=CC=C2.[Cl-]

> <PUBCHEM_CACTVS_TPSA>
18.5

> <PUBCHEM_MONOISOTOPIC_WEIGHT>
447.290407

> <PUBCHEM_TOTAL_CHARGE>
0

> <PUBCHEM_HEAVY_ATOM_COUNT>
31

> <PUBCHEM_ATOM_DEF_STEREO_COUNT>
0

> <PUBCHEM_ATOM_UDEF_STEREO_COUNT>
0

> <PUBCHEM_BOND_DEF_STEREO_COUNT>
0

> <PUBCHEM_BOND_UDEF_STEREO_COUNT>
0

> <PUBCHEM_ISOTOPIC_ATOM_COUNT>
0

> <PUBCHEM_COMPONENT_COUNT>
2

> <PUBCHEM_CACTVS_TAUTO_COUNT>
1

> <PUBCHEM_COORDINATE_TYPE>
1
5
255

> <PUBCHEM_BONDANNOTATIONS>
16  22  8
17  23  8
21  25  8
21  26  8
22  24  8
23  24  8
25  29  8
26  30  8
29  31  8
30  31  8
8  16  8
8  17  8

$$$$

