442113
  -OEChem-07051212573D

 37 39  0     1  0  0  0  0  0999 V2000
   -3.3267    0.7643    1.2911 O   0  0  0  0  0  0  0  0  0  0  0  0
    2.7900   -0.3658   -0.8930 O   0  0  0  0  0  0  0  0  0  0  0  0
    3.0478    0.3538    1.3030 O   0  0  0  0  0  0  0  0  0  0  0  0
   -2.5733   -1.1880    0.1197 N   0  0  1  0  0  0  0  0  0  0  0  0
    4.8441    0.3497   -0.1652 N   0  0  0  0  0  0  0  0  0  0  0  0
   -2.0032    1.0162   -0.7104 C   0  0  1  0  0  0  0  0  0  0  0  0
   -3.0975    0.1713   -0.0043 C   0  0  2  0  0  0  0  0  0  0  0  0
   -1.9513    2.2812    0.1293 C   0  0  0  0  0  0  0  0  0  0  0  0
   -0.7985    0.1181   -0.5593 C   0  0  0  0  0  0  0  0  0  0  0  0
   -2.3642    1.8021    1.5040 C   0  0  0  0  0  0  0  0  0  0  0  0
   -1.2049   -1.1370   -0.0846 C   0  0  0  0  0  0  0  0  0  0  0  0
   -2.3015    1.2790   -2.1840 C   0  0  0  0  0  0  0  0  0  0  0  0
    0.5317    0.3982   -0.8371 C   0  0  0  0  0  0  0  0  0  0  0  0
   -3.2603   -2.2347    0.8313 C   0  0  0  0  0  0  0  0  0  0  0  0
   -0.2639   -2.1362    0.1151 C   0  0  0  0  0  0  0  0  0  0  0  0
    1.4755   -0.6068   -0.6309 C   0  0  0  0  0  0  0  0  0  0  0  0
    1.0803   -1.8658   -0.1585 C   0  0  0  0  0  0  0  0  0  0  0  0
    3.5292    0.1378    0.1945 C   0  0  0  0  0  0  0  0  0  0  0  0
    5.8467    0.8626    0.7392 C   0  0  0  0  0  0  0  0  0  0  0  0
   -4.0521    0.1743   -0.5425 H   0  0  0  0  0  0  0  0  0  0  0  0
   -2.6981    3.0005   -0.2295 H   0  0  0  0  0  0  0  0  0  0  0  0
   -0.9797    2.7841    0.1400 H   0  0  0  0  0  0  0  0  0  0  0  0
   -1.5179    1.3786    2.0558 H   0  0  0  0  0  0  0  0  0  0  0  0
   -2.8091    2.5970    2.1090 H   0  0  0  0  0  0  0  0  0  0  0  0
   -3.2391    1.8330   -2.3041 H   0  0  0  0  0  0  0  0  0  0  0  0
   -1.5039    1.8688   -2.6497 H   0  0  0  0  0  0  0  0  0  0  0  0
   -2.3951    0.3448   -2.7498 H   0  0  0  0  0  0  0  0  0  0  0  0
    0.8294    1.3735   -1.2083 H   0  0  0  0  0  0  0  0  0  0  0  0
   -2.9783   -2.2358    1.8893 H   0  0  0  0  0  0  0  0  0  0  0  0
   -3.0328   -3.2170    0.4047 H   0  0  0  0  0  0  0  0  0  0  0  0
   -4.3446   -2.0948    0.7690 H   0  0  0  0  0  0  0  0  0  0  0  0
   -0.5495   -3.1178    0.4793 H   0  0  0  0  0  0  0  0  0  0  0  0
    1.8223   -2.6451   -0.0025 H   0  0  0  0  0  0  0  0  0  0  0  0
    5.1224    0.1325   -1.1172 H   0  0  0  0  0  0  0  0  0  0  0  0
    6.2467    1.7871    0.3158 H   0  0  0  0  0  0  0  0  0  0  0  0
    6.6479    0.1235    0.8146 H   0  0  0  0  0  0  0  0  0  0  0  0
    5.4283    1.0585    1.7292 H   0  0  0  0  0  0  0  0  0  0  0  0
  1  7  1  0  0  0  0
  1 10  1  0  0  0  0
  2 16  1  0  0  0  0
  2 18  1  0  0  0  0
  3 18  2  0  0  0  0
  4  7  1  0  0  0  0
  4 11  1  0  0  0  0
  4 14  1  0  0  0  0
  5 18  1  0  0  0  0
  5 19  1  0  0  0  0
  5 34  1  0  0  0  0
  6  7  1  0  0  0  0
  6  8  1  0  0  0  0
  6  9  1  0  0  0  0
  6 12  1  0  0  0  0
  7 20  1  0  0  0  0
  8 10  1  0  0  0  0
  8 21  1  0  0  0  0
  8 22  1  0  0  0  0
  9 11  2  0  0  0  0
  9 13  1  0  0  0  0
 10 23  1  0  0  0  0
 10 24  1  0  0  0  0
 11 15  1  0  0  0  0
 12 25  1  0  0  0  0
 12 26  1  0  0  0  0
 12 27  1  0  0  0  0
 13 16  2  0  0  0  0
 13 28  1  0  0  0  0
 14 29  1  0  0  0  0
 14 30  1  0  0  0  0
 14 31  1  0  0  0  0
 15 17  2  0  0  0  0
 15 32  1  0  0  0  0
 16 17  1  0  0  0  0
 17 33  1  0  0  0  0
 19 35  1  0  0  0  0
 19 36  1  0  0  0  0
 19 37  1  0  0  0  0
M  END
> <PUBCHEM_COMPOUND_CID>
442113

> <PUBCHEM_CONFORMER_RMSD>
0.6

> <PUBCHEM_CONFORMER_DIVERSEORDER>
1
15
17
24
16
12
7
19
10
23
9
14
5
3
8
6
11
18
21
20
13
2
22
4

> <PUBCHEM_MMFF94_PARTIAL_CHARGES>
21
1 -0.56
10 0.28
11 0.1
13 -0.15
14 0.37
15 -0.15
16 0.08
17 -0.15
18 0.78
19 0.3
2 -0.23
28 0.15
3 -0.57
32 0.15
33 0.15
34 0.37
4 -0.84
5 -0.73
6 0.14
7 0.65
9 -0.14

> <PUBCHEM_EFFECTIVE_ROTOR_COUNT>
3.8

> <PUBCHEM_PHARMACOPHORE_FEATURES>
7
1 1 acceptor
1 3 acceptor
1 4 cation
1 5 donor
5 1 6 7 8 10 rings
5 4 6 7 9 11 rings
6 9 11 13 15 16 17 rings

> <PUBCHEM_HEAVY_ATOM_COUNT>
19

> <PUBCHEM_ATOM_DEF_STEREO_COUNT>
2

> <PUBCHEM_ATOM_UDEF_STEREO_COUNT>
0

> <PUBCHEM_BOND_DEF_STEREO_COUNT>
0

> <PUBCHEM_BOND_UDEF_STEREO_COUNT>
0

> <PUBCHEM_ISOTOPIC_ATOM_COUNT>
0

> <PUBCHEM_COMPONENT_COUNT>
1

> <PUBCHEM_CACTVS_TAUTO_COUNT>
2

> <PUBCHEM_CONFORMER_ID>
0006BF0100000001

> <PUBCHEM_MMFF94_ENERGY>
65.0936

> <PUBCHEM_FEATURE_SELFOVERLAP>
36.199

> <PUBCHEM_SHAPE_FINGERPRINT>
10366900 7 18186811270007837058
11132069 177 18272078418390931527
12173636 292 18188201126020450845
12390115 104 18188471545878208360
12403814 3 17775280573765560405
12507557 5 18273221876462125596
12596602 18 17845946117679810720
13024252 1 14477238276157958133
13140716 1 17981035315307069475
13214271 11 18040713662694038701
13583140 156 16845577530109684100
13764800 53 18261668259526366995
14142880 1 18409447020620655637
14178342 30 18342164613755024207
14289901 80 17203332217203537352
14420673 8 18055080024164473202
14614273 12 18201158836394740239
15042514 8 18125154936053509834
15099037 37 18130787832579001055
15209294 21 18335695078815730104
15309172 13 18272645779154381446
15534591 1 17677048083078476009
16945 1 18270379694833214895
18186145 218 18335977688054294710
18219364 16 18342741853017628020
19784866 240 12391499897990735793
19862831 5 5978100215833493580
200 152 18261122846256861343
20510252 161 18409727331249616626
21623110 236 18196367026944874116
2306618 200 18202288008919001757
23402539 116 18265338317729411991
23419403 2 17975998474684587397
23557571 272 18114460059263519303
23559900 14 18337658828728077950
27216 239 18113899355440531793
2748010 2 17627221604979276583
5104073 3 18338508759020410266
633830 44 17968093179233022158
81228 2 18199732687972194107
90316 7 17775566459262325109

> <PUBCHEM_SHAPE_MULTIPOLES>
363.44
8.19
2.21
1.34
14.26
0.53
0.16
-2.3
-2.41
-2.02
-0.35
-0.78
-0.62
0.57

> <PUBCHEM_SHAPE_SELFOVERLAP>
786.073

> <PUBCHEM_SHAPE_VOLUME>
200.8

> <PUBCHEM_COORDINATE_TYPE>
2
5
10

$$$$

