5326317
  -OEChem-07051212532D

 26 26  0     0  0  0  0  0  0999 V2000
    3.4030    1.9050    0.0000 O   0  0  0  0  0  0  0  0  0  0  0  0
    2.5369    0.4050    0.0000 O   0  0  0  0  0  0  0  0  0  0  0  0
    6.0010    0.4050    0.0000 O   0  0  0  0  0  0  0  0  0  0  0  0
    4.2690   -2.5950    0.0000 O   0  0  0  0  0  0  0  0  0  0  0  0
    5.1350    1.9050    0.0000 C   0  0  0  0  0  0  0  0  0  0  0  0
    4.2690    1.4050    0.0000 C   0  0  0  0  0  0  0  0  0  0  0  0
    4.2690    0.4050    0.0000 C   0  0  0  0  0  0  0  0  0  0  0  0
    5.1350    2.9050    0.0000 C   0  0  0  0  0  0  0  0  0  0  0  0
    6.0010    1.4050    0.0000 C   0  0  0  0  0  0  0  0  0  0  0  0
    3.4030   -0.0950    0.0000 C   0  0  0  0  0  0  0  0  0  0  0  0
    5.1350   -0.0950    0.0000 C   0  0  0  0  0  0  0  0  0  0  0  0
    3.4030   -1.0950    0.0000 C   0  0  0  0  0  0  0  0  0  0  0  0
    5.1350   -1.0950    0.0000 C   0  0  0  0  0  0  0  0  0  0  0  0
    4.2690   -1.5950    0.0000 C   0  0  0  0  0  0  0  0  0  0  0  0
    5.1350    1.2850    0.0000 H   0  0  0  0  0  0  0  0  0  0  0  0
    5.6910    0.8681    0.0000 H   0  0  0  0  0  0  0  0  0  0  0  0
    5.7550    2.9050    0.0000 H   0  0  0  0  0  0  0  0  0  0  0  0
    5.1350    3.5250    0.0000 H   0  0  0  0  0  0  0  0  0  0  0  0
    4.5150    2.9050    0.0000 H   0  0  0  0  0  0  0  0  0  0  0  0
    6.5380    1.0950    0.0000 H   0  0  0  0  0  0  0  0  0  0  0  0
    6.3110    1.9419    0.0000 H   0  0  0  0  0  0  0  0  0  0  0  0
    2.8660   -1.4050    0.0000 H   0  0  0  0  0  0  0  0  0  0  0  0
    5.6720   -1.4050    0.0000 H   0  0  0  0  0  0  0  0  0  0  0  0
    2.0000    0.0950    0.0000 H   0  0  0  0  0  0  0  0  0  0  0  0
    6.5380    0.0950    0.0000 H   0  0  0  0  0  0  0  0  0  0  0  0
    3.7320   -2.9050    0.0000 H   0  0  0  0  0  0  0  0  0  0  0  0
  1  6  2  0  0  0  0
  2 10  1  0  0  0  0
  2 24  1  0  0  0  0
  3 11  1  0  0  0  0
  3 25  1  0  0  0  0
  4 14  1  0  0  0  0
  4 26  1  0  0  0  0
  5  6  1  0  0  0  0
  5  8  1  0  0  0  0
  5  9  1  0  0  0  0
  5 15  1  0  0  0  0
  6  7  1  0  0  0  0
  7 10  2  0  0  0  0
  7 11  1  0  0  0  0
  8 17  1  0  0  0  0
  8 18  1  0  0  0  0
  8 19  1  0  0  0  0
  9 16  1  0  0  0  0
  9 20  1  0  0  0  0
  9 21  1  0  0  0  0
 10 12  1  0  0  0  0
 11 13  2  0  0  0  0
 12 14  2  0  0  0  0
 12 22  1  0  0  0  0
 13 14  1  0  0  0  0
 13 23  1  0  0  0  0
M  END
> <PUBCHEM_COMPOUND_CID>
5326317

> <PUBCHEM_COMPOUND_CANONICALIZED>
1

> <PUBCHEM_CACTVS_COMPLEXITY>
202

> <PUBCHEM_CACTVS_HBOND_ACCEPTOR>
4

> <PUBCHEM_CACTVS_HBOND_DONOR>
3

> <PUBCHEM_CACTVS_ROTATABLE_BOND>
2

> <PUBCHEM_CACTVS_SUBSKEYS>
AAADccBwOAAAAAAAAAAAAAAAAAAAAAAAAAAwAAAAAAAAAAABAAAAGgAACAAADQSAmAAyBoAAAgCIAqBSAAACAAAkIAAAiAEGCMgIJzaCFRKAcUAl4BUImQeI7OTOIAAACAAIAABAAAAQABAAAAAAAAAAAA==

> <PUBCHEM_IUPAC_OPENEYE_NAME>
2-methyl-1-(2,4,6-trihydroxyphenyl)propan-1-one

> <PUBCHEM_IUPAC_CAS_NAME>
2-methyl-1-(2,4,6-trihydroxyphenyl)-1-propanone

> <PUBCHEM_IUPAC_NAME>
2-methyl-1-(2,4,6-trihydroxyphenyl)propan-1-one

> <PUBCHEM_IUPAC_SYSTEMATIC_NAME>
2-methyl-1-[2,4,6-tris(oxidanyl)phenyl]propan-1-one

> <PUBCHEM_IUPAC_TRADITIONAL_NAME>
2-methyl-1-(2,4,6-trihydroxyphenyl)propan-1-one

> <PUBCHEM_IUPAC_INCHI>
InChI=1S/C10H12O4/c1-5(2)10(14)9-7(12)3-6(11)4-8(9)13/h3-5,11-13H,1-2H3

> <PUBCHEM_IUPAC_INCHIKEY>
BNEBXEZRBLYBCZ-UHFFFAOYSA-N

> <PUBCHEM_XLOGP3_AA>
2.1

> <PUBCHEM_EXACT_MASS>
196.073559

> <PUBCHEM_MOLECULAR_FORMULA>
C10H12O4

> <PUBCHEM_MOLECULAR_WEIGHT>
196.19988

> <PUBCHEM_OPENEYE_CAN_SMILES>
CC(C)C(=O)C1=C(C=C(C=C1O)O)O

> <PUBCHEM_OPENEYE_ISO_SMILES>
CC(C)C(=O)C1=C(C=C(C=C1O)O)O

> <PUBCHEM_CACTVS_TPSA>
77.8

> <PUBCHEM_MONOISOTOPIC_WEIGHT>
196.073559

> <PUBCHEM_TOTAL_CHARGE>
0

> <PUBCHEM_HEAVY_ATOM_COUNT>
14

> <PUBCHEM_ATOM_DEF_STEREO_COUNT>
0

> <PUBCHEM_ATOM_UDEF_STEREO_COUNT>
0

> <PUBCHEM_BOND_DEF_STEREO_COUNT>
0

> <PUBCHEM_BOND_UDEF_STEREO_COUNT>
0

> <PUBCHEM_ISOTOPIC_ATOM_COUNT>
0

> <PUBCHEM_COMPONENT_COUNT>
1

> <PUBCHEM_CACTVS_TAUTO_COUNT>
25

> <PUBCHEM_COORDINATE_TYPE>
1
5
255

> <PUBCHEM_BONDANNOTATIONS>
10  12  8
11  13  8
12  14  8
13  14  8
7  10  8
7  11  8

$$$$

