442893
  -OEChem-07051213003D

 40 43  0     0  0  0  0  0  0999 V2000
   -2.6412   -1.5353   -1.6327 O   0  0  0  0  0  0  0  0  0  0  0  0
   -4.4613   -1.6123   -0.0551 O   0  0  0  0  0  0  0  0  0  0  0  0
    3.8750    0.8926   -1.4742 O   0  0  0  0  0  0  0  0  0  0  0  0
    0.6925    0.4170    1.1414 N   0  0  0  0  0  0  0  0  0  0  0  0
   -1.1367    2.8899   -0.0414 C   0  0  0  0  0  0  0  0  0  0  0  0
    0.0786    2.7447    0.8953 C   0  0  0  0  0  0  0  0  0  0  0  0
   -2.0530    1.6907   -0.0170 C   0  0  0  0  0  0  0  0  0  0  0  0
    0.9756    1.6022    0.5539 C   0  0  0  0  0  0  0  0  0  0  0  0
   -1.8286    0.6497   -0.9080 C   0  0  0  0  0  0  0  0  0  0  0  0
   -2.6924   -0.4246   -0.8479 C   0  0  0  0  0  0  0  0  0  0  0  0
   -3.1046    1.6593    0.9031 C   0  0  0  0  0  0  0  0  0  0  0  0
    2.5758   -0.5335   -0.0237 C   0  0  0  0  0  0  0  0  0  0  0  0
    2.0241    1.8016   -0.3210 C   0  0  0  0  0  0  0  0  0  0  0  0
   -3.7318   -0.4685    0.0529 C   0  0  0  0  0  0  0  0  0  0  0  0
    1.4799   -0.6380    0.8584 C   0  0  0  0  0  0  0  0  0  0  0  0
    2.8337    0.7127   -0.6107 C   0  0  0  0  0  0  0  0  0  0  0  0
   -3.9648    0.5594    0.9432 C   0  0  0  0  0  0  0  0  0  0  0  0
   -3.7645   -2.2836   -1.1244 C   0  0  0  0  0  0  0  0  0  0  0  0
    3.3768   -1.6553   -0.2964 C   0  0  0  0  0  0  0  0  0  0  0  0
    1.2242   -1.8761    1.4412 C   0  0  0  0  0  0  0  0  0  0  0  0
    3.0982   -2.8815    0.3005 C   0  0  0  0  0  0  0  0  0  0  0  0
    2.0204   -2.9916    1.1703 C   0  0  0  0  0  0  0  0  0  0  0  0
    5.1240    1.2805   -0.9078 C   0  0  0  0  0  0  0  0  0  0  0  0
   -0.7977    3.0684   -1.0705 H   0  0  0  0  0  0  0  0  0  0  0  0
   -1.7026    3.7867    0.2423 H   0  0  0  0  0  0  0  0  0  0  0  0
   -0.2715    2.6214    1.9289 H   0  0  0  0  0  0  0  0  0  0  0  0
    0.6503    3.6814    0.8864 H   0  0  0  0  0  0  0  0  0  0  0  0
   -1.0179    0.6711   -1.6276 H   0  0  0  0  0  0  0  0  0  0  0  0
   -3.2630    2.4827    1.5944 H   0  0  0  0  0  0  0  0  0  0  0  0
    2.2122    2.7705   -0.7717 H   0  0  0  0  0  0  0  0  0  0  0  0
   -4.7845    0.5207    1.6516 H   0  0  0  0  0  0  0  0  0  0  0  0
   -3.4036   -3.2506   -0.7555 H   0  0  0  0  0  0  0  0  0  0  0  0
   -4.4686   -2.4607   -1.9455 H   0  0  0  0  0  0  0  0  0  0  0  0
    4.2220   -1.5958   -0.9778 H   0  0  0  0  0  0  0  0  0  0  0  0
    0.3850   -1.9885    2.1254 H   0  0  0  0  0  0  0  0  0  0  0  0
    3.7183   -3.7467    0.0865 H   0  0  0  0  0  0  0  0  0  0  0  0
    1.7952   -3.9447    1.6400 H   0  0  0  0  0  0  0  0  0  0  0  0
    5.8680    1.3114   -1.7085 H   0  0  0  0  0  0  0  0  0  0  0  0
    5.4548    0.5617   -0.1517 H   0  0  0  0  0  0  0  0  0  0  0  0
    5.0464    2.2786   -0.4650 H   0  0  0  0  0  0  0  0  0  0  0  0
  1 10  1  0  0  0  0
  1 18  1  0  0  0  0
  2 14  1  0  0  0  0
  2 18  1  0  0  0  0
  3 16  1  0  0  0  0
  3 23  1  0  0  0  0
  4  8  2  0  0  0  0
  4 15  1  0  0  0  0
  5  6  1  0  0  0  0
  5  7  1  0  0  0  0
  5 24  1  0  0  0  0
  5 25  1  0  0  0  0
  6  8  1  0  0  0  0
  6 26  1  0  0  0  0
  6 27  1  0  0  0  0
  7  9  2  0  0  0  0
  7 11  1  0  0  0  0
  8 13  1  0  0  0  0
  9 10  1  0  0  0  0
  9 28  1  0  0  0  0
 10 14  2  0  0  0  0
 11 17  2  0  0  0  0
 11 29  1  0  0  0  0
 12 15  1  0  0  0  0
 12 16  1  0  0  0  0
 12 19  2  0  0  0  0
 13 16  2  0  0  0  0
 13 30  1  0  0  0  0
 14 17  1  0  0  0  0
 15 20  2  0  0  0  0
 17 31  1  0  0  0  0
 18 32  1  0  0  0  0
 18 33  1  0  0  0  0
 19 21  1  0  0  0  0
 19 34  1  0  0  0  0
 20 22  1  0  0  0  0
 20 35  1  0  0  0  0
 21 22  2  0  0  0  0
 21 36  1  0  0  0  0
 22 37  1  0  0  0  0
 23 38  1  0  0  0  0
 23 39  1  0  0  0  0
 23 40  1  0  0  0  0
M  END
> <PUBCHEM_COMPOUND_CID>
442893

> <PUBCHEM_CONFORMER_RMSD>
0.8

> <PUBCHEM_CONFORMER_DIVERSEORDER>
1
15
25
30
6
34
20
2
13
10
12
8
36
7
17
21
11
35
9
4
23
26
28
37
5
31
22
18
27
3
32
16
24
29
33
19
14

> <PUBCHEM_MMFF94_PARTIAL_CHARGES>
30
1 -0.36
10 0.08
11 -0.15
13 -0.15
14 0.08
15 0.31
16 0.08
17 -0.15
18 0.56
19 -0.15
2 -0.36
20 -0.15
21 -0.15
22 -0.15
23 0.28
28 0.15
29 0.15
3 -0.36
30 0.15
31 0.15
34 0.15
35 0.15
36 0.15
37 0.15
4 -0.62
5 0.14
6 0.14
7 -0.14
8 0.17
9 -0.15

> <PUBCHEM_EFFECTIVE_ROTOR_COUNT>
4.6

> <PUBCHEM_PHARMACOPHORE_FEATURES>
8
1 1 acceptor
1 2 acceptor
1 3 acceptor
1 4 acceptor
5 1 2 10 14 18 rings
6 12 15 19 20 21 22 rings
6 4 8 12 13 15 16 rings
6 7 9 10 11 14 17 rings

> <PUBCHEM_HEAVY_ATOM_COUNT>
23

> <PUBCHEM_ATOM_DEF_STEREO_COUNT>
0

> <PUBCHEM_ATOM_UDEF_STEREO_COUNT>
0

> <PUBCHEM_BOND_DEF_STEREO_COUNT>
0

> <PUBCHEM_BOND_UDEF_STEREO_COUNT>
0

> <PUBCHEM_ISOTOPIC_ATOM_COUNT>
0

> <PUBCHEM_COMPONENT_COUNT>
1

> <PUBCHEM_CACTVS_TAUTO_COUNT>
2

> <PUBCHEM_CONFORMER_ID>
0006C20D00000001

> <PUBCHEM_MMFF94_ENERGY>
74.6668

> <PUBCHEM_FEATURE_SELFOVERLAP>
40.783

> <PUBCHEM_SHAPE_FINGERPRINT>
10074138 170 16893744669638961992
10616163 171 18263924504525974687
10759866 29 18340480179279428884
11578080 2 18195836121753341996
12553582 1 18335711498718386687
12596599 1 17967801756748141347
12633257 1 17749665294523142713
12788726 201 17678734764091786001
13224815 77 18272375277855976921
13726171 33 17750213924687126800
14787075 74 18190457169579108392
14931854 50 18340769247574001831
15375462 189 18410289241894766417
15537594 2 18336814338940503441
16752209 62 17902246824991127089
17349148 13 18131634517442529376
17909252 39 18041547144707390598
18522851 12 18408038528823734497
20291156 8 18337957895225856275
21033648 29 12103567412228564124
21634736 98 18198057191328394210
21731516 1 18336559286507762609
22393880 68 18339355379274708332
23379529 103 17972026205124587710
235170 7 16917071048928447255
23559900 14 18120385512610013616
23598288 3 18189622807282149677
238 59 18129104415926115835
2818148 4 18408321103375551891
2871803 45 18338804394672944453
3737641 26 18339911663011760851
7097593 13 18123475144057148931
90525 40 17903639923234278177

> <PUBCHEM_SHAPE_MULTIPOLES>
450.74
8.58
3.53
1.32
0.67
0.67
-0.06
2.22
-2.21
-0.77
0.47
0.03
0.3
-2.1

> <PUBCHEM_SHAPE_SELFOVERLAP>
1004.073

> <PUBCHEM_SHAPE_VOLUME>
239.4

> <PUBCHEM_COORDINATE_TYPE>
2
5
10

$$$$

