13602
  -OEChem-06241222393D

 15 15  0     0  0  0  0  0  0999 V2000
    1.6128   -1.4632    0.0005 O   0  5  0  0  0  0  0  0  0  0  0  0
    0.5610   -0.7420   -0.0003 N   0  3  0  0  0  0  0  0  0  0  0  0
    0.6381    0.6374    0.0000 C   0  0  0  0  0  0  0  0  0  0  0  0
   -0.5114    1.4207    0.0003 C   0  0  0  0  0  0  0  0  0  0  0  0
    1.9887    1.2668   -0.0003 C   0  0  0  0  0  0  0  0  0  0  0  0
   -0.6830   -1.3429   -0.0002 C   0  0  0  0  0  0  0  0  0  0  0  0
   -1.7585    0.8054    0.0001 C   0  0  0  0  0  0  0  0  0  0  0  0
   -1.8477   -0.5822   -0.0001 C   0  0  0  0  0  0  0  0  0  0  0  0
   -0.4500    2.5050    0.0005 H   0  0  0  0  0  0  0  0  0  0  0  0
    2.5485    0.9667    0.8914 H   0  0  0  0  0  0  0  0  0  0  0  0
    2.5480    0.9668   -0.8923 H   0  0  0  0  0  0  0  0  0  0  0  0
    1.9266    2.3602   -0.0002 H   0  0  0  0  0  0  0  0  0  0  0  0
   -0.6697   -2.4231   -0.0001 H   0  0  0  0  0  0  0  0  0  0  0  0
   -2.6620    1.4080    0.0003 H   0  0  0  0  0  0  0  0  0  0  0  0
   -2.8177   -1.0692   -0.0002 H   0  0  0  0  0  0  0  0  0  0  0  0
  1  2  1  0  0  0  0
  2  3  1  0  0  0  0
  2  6  2  0  0  0  0
  3  4  2  0  0  0  0
  3  5  1  0  0  0  0
  4  7  1  0  0  0  0
  4  9  1  0  0  0  0
  5 10  1  0  0  0  0
  5 11  1  0  0  0  0
  5 12  1  0  0  0  0
  6  8  1  0  0  0  0
  6 13  1  0  0  0  0
  7  8  2  0  0  0  0
  7 14  1  0  0  0  0
  8 15  1  0  0  0  0
M  CHG  2   1  -1   2   1
M  END
> <PUBCHEM_COMPOUND_CID>
13602

> <PUBCHEM_CONFORMER_RMSD>
0.4

> <PUBCHEM_CONFORMER_DIVERSEORDER>
1

> <PUBCHEM_MMFF94_PARTIAL_CHARGES>
12
1 -0.75
13 0.15
14 0.15
15 0.15
2 0.57
3 -0.05
4 -0.15
5 0.14
6 -0.06
7 -0.15
8 -0.15
9 0.15

> <PUBCHEM_EFFECTIVE_ROTOR_COUNT>
0

> <PUBCHEM_PHARMACOPHORE_FEATURES>
2
1 1 anion
6 2 3 4 6 7 8 rings

> <PUBCHEM_HEAVY_ATOM_COUNT>
8

> <PUBCHEM_ATOM_DEF_STEREO_COUNT>
0

> <PUBCHEM_ATOM_UDEF_STEREO_COUNT>
0

> <PUBCHEM_BOND_DEF_STEREO_COUNT>
0

> <PUBCHEM_BOND_UDEF_STEREO_COUNT>
0

> <PUBCHEM_ISOTOPIC_ATOM_COUNT>
0

> <PUBCHEM_COMPONENT_COUNT>
1

> <PUBCHEM_CACTVS_TAUTO_COUNT>
1

> <PUBCHEM_CONFORMER_ID>
0000352200000001

> <PUBCHEM_MMFF94_ENERGY>
18.3733

> <PUBCHEM_FEATURE_SELFOVERLAP>
10.148

> <PUBCHEM_SHAPE_FINGERPRINT>
16714656 1 18051126991149515692
18185500 45 18265336097082964015
21040471 1 18410575054661838725
23552423 10 18343579638096715974
2748010 2 18411418436094090605
29004967 10 18200304403921614177

> <PUBCHEM_SHAPE_MULTIPOLES>
153.79
2.44
1.74
0.59
0.36
0.26
0
-0.29
0
0.21
0
-0.02
-0.03
0

> <PUBCHEM_SHAPE_SELFOVERLAP>
314.525

> <PUBCHEM_SHAPE_VOLUME>
89.5

> <PUBCHEM_COORDINATE_TYPE>
2
5
10

$$$$

