6728
  -OEChem-06261201283D

 62 64  0     0  0  0  0  0  0999 V2000
    5.3180    1.3630    0.0232 N   0  3  0  0  0  0  0  0  0  0  0  0
   -4.3634    3.7960    0.0042 N   0  0  0  0  0  0  0  0  0  0  0  0
   -1.5389   -5.3182   -0.0311 N   0  3  0  0  0  0  0  0  0  0  0  0
    3.9159    1.0091    0.0176 C   0  0  0  0  0  0  0  0  0  0  0  0
    6.0492    0.7966    1.2736 C   0  0  0  0  0  0  0  0  0  0  0  0
    5.5226    2.9048    0.0114 C   0  0  0  0  0  0  0  0  0  0  0  0
    6.1382    0.8379   -1.1970 C   0  0  0  0  0  0  0  0  0  0  0  0
    3.2361    0.8320    1.2225 C   0  0  0  0  0  0  0  0  0  0  0  0
    3.2433    0.8444   -1.1934 C   0  0  0  0  0  0  0  0  0  0  0  0
    1.2008    0.3231    0.0056 C   0  0  0  0  0  0  0  0  0  0  0  0
   -0.1994   -0.0298   -0.0005 C   0  0  0  0  0  0  0  0  0  0  0  0
    1.8836    0.4901    1.2166 C   0  0  0  0  0  0  0  0  0  0  0  0
    1.8910    0.5028   -1.1993 C   0  0  0  0  0  0  0  0  0  0  0  0
   -1.2625    0.9472    0.0011 C   0  0  0  0  0  0  0  0  0  0  0  0
   -0.5292   -1.3320   -0.0085 C   0  0  0  0  0  0  0  0  0  0  0  0
   -1.7796    1.4320   -1.2064 C   0  0  0  0  0  0  0  0  0  0  0  0
   -1.7878    1.4206    1.2095 C   0  0  0  0  0  0  0  0  0  0  0  0
    0.5104   -2.3502   -0.0105 C   0  0  0  0  0  0  0  0  0  0  0  0
   -1.9281   -1.7325   -0.0149 C   0  0  0  0  0  0  0  0  0  0  0  0
   -3.3239    2.8425    0.0029 C   0  0  0  0  0  0  0  0  0  0  0  0
   -1.2237   -4.0734   -0.0236 C   0  0  0  0  0  0  0  0  0  0  0  0
   -2.8065    2.3762   -1.2055 C   0  0  0  0  0  0  0  0  0  0  0  0
   -2.8148    2.3646    1.2105 C   0  0  0  0  0  0  0  0  0  0  0  0
    0.2029   -3.6545   -0.0175 C   0  0  0  0  0  0  0  0  0  0  0  0
   -2.2788   -3.0258   -0.0217 C   0  0  0  0  0  0  0  0  0  0  0  0
   -4.4787    4.7574   -1.0743 C   0  0  0  0  0  0  0  0  0  0  0  0
   -5.3378    3.8179    1.0769 C   0  0  0  0  0  0  0  0  0  0  0  0
   -2.9572   -5.7600   -0.0374 C   0  0  0  0  0  0  0  0  0  0  0  0
   -0.5019   -6.3818   -0.0342 C   0  0  0  0  0  0  0  0  0  0  0  0
    5.7277    1.3455    2.1630 H   0  0  0  0  0  0  0  0  0  0  0  0
    5.8419   -0.2758    1.3429 H   0  0  0  0  0  0  0  0  0  0  0  0
    7.1244    0.9611    1.1468 H   0  0  0  0  0  0  0  0  0  0  0  0
    6.5967    3.1102    0.0416 H   0  0  0  0  0  0  0  0  0  0  0  0
    5.0743    3.3023   -0.9041 H   0  0  0  0  0  0  0  0  0  0  0  0
    5.0284    3.3179    0.8960 H   0  0  0  0  0  0  0  0  0  0  0  0
    5.8096    1.3578   -2.1010 H   0  0  0  0  0  0  0  0  0  0  0  0
    7.1969    1.0582   -1.0264 H   0  0  0  0  0  0  0  0  0  0  0  0
    5.9804   -0.2423   -1.2692 H   0  0  0  0  0  0  0  0  0  0  0  0
    3.6987    0.9705    2.1931 H   0  0  0  0  0  0  0  0  0  0  0  0
    3.7245    0.9886   -2.1546 H   0  0  0  0  0  0  0  0  0  0  0  0
    1.3687    0.3611    2.1661 H   0  0  0  0  0  0  0  0  0  0  0  0
    1.3824    0.3823   -2.1534 H   0  0  0  0  0  0  0  0  0  0  0  0
   -1.3909    1.0781   -2.1587 H   0  0  0  0  0  0  0  0  0  0  0  0
   -1.4020    1.0615    2.1612 H   0  0  0  0  0  0  0  0  0  0  0  0
    1.5662   -2.1055   -0.0063 H   0  0  0  0  0  0  0  0  0  0  0  0
   -2.7399   -1.0146   -0.0141 H   0  0  0  0  0  0  0  0  0  0  0  0
   -3.1889    2.7183   -2.1630 H   0  0  0  0  0  0  0  0  0  0  0  0
   -3.1877    2.7156    2.1684 H   0  0  0  0  0  0  0  0  0  0  0  0
    1.0090   -4.3778   -0.0186 H   0  0  0  0  0  0  0  0  0  0  0  0
   -3.3320   -3.2780   -0.0262 H   0  0  0  0  0  0  0  0  0  0  0  0
   -4.9515    4.3024   -1.9509 H   0  0  0  0  0  0  0  0  0  0  0  0
   -5.0935    5.6139   -0.7756 H   0  0  0  0  0  0  0  0  0  0  0  0
   -3.4999    5.1581   -1.3614 H   0  0  0  0  0  0  0  0  0  0  0  0
   -6.2414    4.3618    0.7793 H   0  0  0  0  0  0  0  0  0  0  0  0
   -4.9298    4.3174    1.9618 H   0  0  0  0  0  0  0  0  0  0  0  0
   -5.6557    2.8054    1.3508 H   0  0  0  0  0  0  0  0  0  0  0  0
   -3.4421   -5.3873   -0.9441 H   0  0  0  0  0  0  0  0  0  0  0  0
   -3.4476   -5.3956    0.8698 H   0  0  0  0  0  0  0  0  0  0  0  0
   -3.0075   -6.8523   -0.0424 H   0  0  0  0  0  0  0  0  0  0  0  0
    0.0998   -6.2951    0.8751 H   0  0  0  0  0  0  0  0  0  0  0  0
    0.1052   -6.2847   -0.9389 H   0  0  0  0  0  0  0  0  0  0  0  0
   -0.9774   -7.3664   -0.0412 H   0  0  0  0  0  0  0  0  0  0  0  0
  1  4  1  0  0  0  0
  1  5  1  0  0  0  0
  1  6  1  0  0  0  0
  1  7  1  0  0  0  0
  2 20  1  0  0  0  0
  2 26  1  0  0  0  0
  2 27  1  0  0  0  0
  3 21  2  0  0  0  0
  3 28  1  0  0  0  0
  3 29  1  0  0  0  0
  4  8  2  0  0  0  0
  4  9  1  0  0  0  0
  5 30  1  0  0  0  0
  5 31  1  0  0  0  0
  5 32  1  0  0  0  0
  6 33  1  0  0  0  0
  6 34  1  0  0  0  0
  6 35  1  0  0  0  0
  7 36  1  0  0  0  0
  7 37  1  0  0  0  0
  7 38  1  0  0  0  0
  8 12  1  0  0  0  0
  8 39  1  0  0  0  0
  9 13  2  0  0  0  0
  9 40  1  0  0  0  0
 10 11  1  0  0  0  0
 10 12  2  0  0  0  0
 10 13  1  0  0  0  0
 11 14  1  0  0  0  0
 11 15  2  0  0  0  0
 12 41  1  0  0  0  0
 13 42  1  0  0  0  0
 14 16  2  0  0  0  0
 14 17  1  0  0  0  0
 15 18  1  0  0  0  0
 15 19  1  0  0  0  0
 16 22  1  0  0  0  0
 16 43  1  0  0  0  0
 17 23  2  0  0  0  0
 17 44  1  0  0  0  0
 18 24  2  0  0  0  0
 18 45  1  0  0  0  0
 19 25  2  0  0  0  0
 19 46  1  0  0  0  0
 20 22  2  0  0  0  0
 20 23  1  0  0  0  0
 21 24  1  0  0  0  0
 21 25  1  0  0  0  0
 22 47  1  0  0  0  0
 23 48  1  0  0  0  0
 24 49  1  0  0  0  0
 25 50  1  0  0  0  0
 26 51  1  0  0  0  0
 26 52  1  0  0  0  0
 26 53  1  0  0  0  0
 27 54  1  0  0  0  0
 27 55  1  0  0  0  0
 27 56  1  0  0  0  0
 28 57  1  0  0  0  0
 28 58  1  0  0  0  0
 28 59  1  0  0  0  0
 29 60  1  0  0  0  0
 29 61  1  0  0  0  0
 29 62  1  0  0  0  0
M  CHG  2   1   1   3   1
M  END
> <PUBCHEM_COMPOUND_CID>
6728

> <PUBCHEM_CONFORMER_RMSD>
0.8

> <PUBCHEM_CONFORMER_DIVERSEORDER>
1

> <PUBCHEM_MMFF94_PARTIAL_CHARGES>
40
1 -0.87
10 0.03
11 -0.06
12 -0.15
13 -0.15
14 0.03
16 -0.15
17 -0.15
18 -0.15
19 -0.15
2 -0.84
20 0.1
21 0.37
22 -0.15
23 -0.15
24 -0.14
25 -0.14
26 0.37
27 0.37
28 0.35
29 0.35
3 -0.09
39 0.15
4 0.36
40 0.15
41 0.15
42 0.15
43 0.15
44 0.15
45 0.15
46 0.15
47 0.15
48 0.15
49 0.15
5 0.5
50 0.15
6 0.5
7 0.5
8 -0.15
9 -0.15

> <PUBCHEM_EFFECTIVE_ROTOR_COUNT>
4

> <PUBCHEM_PHARMACOPHORE_FEATURES>
5
1 1 cation
1 2 cation
6 14 16 17 20 22 23 rings
6 15 18 19 21 24 25 rings
6 4 8 9 10 12 13 rings

> <PUBCHEM_HEAVY_ATOM_COUNT>
29

> <PUBCHEM_ATOM_DEF_STEREO_COUNT>
0

> <PUBCHEM_ATOM_UDEF_STEREO_COUNT>
0

> <PUBCHEM_BOND_DEF_STEREO_COUNT>
0

> <PUBCHEM_BOND_UDEF_STEREO_COUNT>
0

> <PUBCHEM_ISOTOPIC_ATOM_COUNT>
0

> <PUBCHEM_COMPONENT_COUNT>
1

> <PUBCHEM_CACTVS_TAUTO_COUNT>
1

> <PUBCHEM_CONFORMER_ID>
00001A4800000001

> <PUBCHEM_MMFF94_ENERGY>
148.0537

> <PUBCHEM_FEATURE_SELFOVERLAP>
25.371

> <PUBCHEM_SHAPE_FINGERPRINT>
10411042 1 17689997834367039554
107951 10 18261670462660071276
11056379 131 18267016159899128382
11763715 3 17694203492555659332
12107183 9 18270130136186041472
12788726 201 18264790778076229695
13004483 165 17832426389233772526
13140716 1 17905608804788232947
13590594 115 17764018074552457011
13911987 19 17475198754878286222
13955234 65 17833824250843776193
14068700 675 17839470981886669836
14394314 77 17762900961747989530
14790565 3 18338800129569653873
15042514 8 18122057607196791619
15131766 46 14093777234824658583
15219462 58 17901419747813147058
15230672 131 18341040935512773846
15439362 3 17907302409240850365
15664445 248 16825296720355404644
15927050 60 18335701706056523087
16087824 20 18267022761860747119
16988056 13 17045433821534034340
17913733 40 18193261108818384745
17980427 26 17975989970048072213
18785283 64 17908987952102331929
19319366 153 18045509857095523885
20238998 120 17545040403404216101
20505436 4 17988919007653203136
20600515 1 17758095026392338207
21033648 29 18408327704888719872
21049683 271 17333069323350871487
21120745 212 17908972215242387364
21304303 172 17901656078120252987
21304303 282 18264227888146596111
21796203 349 16831186843095824242
23845131 108 18339358682083290825
23929065 36 18119551859246909016
249057 25 17629204815499633964
249999 5 17978226389942669737
255183 313 18265031588655607507
283562 15 18054797187170809418
3103668 31 18268433430714847239
3380486 145 17031371669199072196
3627633 1 18050285860533068463
3886686 26 18121814783458882434
4046055 4 18050003294661012815
4058900 60 18118957233662461393
4409770 3 18269568147809681751
563151 40 18261113002350002717
6058803 2 18058456409613717864
6442390 28 18337943589001224401
6673363 416 17474655167444900980
6677587 24 16190368758708115869
6679774 75 17985549103024790986
6695519 79 18118379939119145665
6697151 62 17328326648712175527
6700243 42 17758076386740637996
77188 2 17545883724422336007
9981440 41 18340205297177907145

> <PUBCHEM_SHAPE_MULTIPOLES>
581.86
10.89
8.79
1.21
15.26
15.34
-0.02
-16.16
-0.42
-14.97
0.46
0.31
-0.97
-0.01

> <PUBCHEM_SHAPE_SELFOVERLAP>
1240.029

> <PUBCHEM_SHAPE_VOLUME>
327.6

> <PUBCHEM_COORDINATE_TYPE>
2
5
10

$$$$

