442725
  -OEChem-07051212593D

 59 62  0     1  0  0  0  0  0999 V2000
   -3.5267   -0.0880   -0.7637 O   0  0  0  0  0  0  0  0  0  0  0  0
   -2.7295    0.8106    1.2365 O   0  0  0  0  0  0  0  0  0  0  0  0
   -7.2188   -0.8125    0.8826 O   0  0  0  0  0  0  0  0  0  0  0  0
   -6.4551   -2.1334   -1.5726 O   0  0  0  0  0  0  0  0  0  0  0  0
   -4.8699   -0.4220    2.6177 O   0  0  0  0  0  0  0  0  0  0  0  0
   -2.7333   -0.9958   -3.2341 O   0  0  0  0  0  0  0  0  0  0  0  0
   -1.7855    3.1020    0.0164 O   0  0  0  0  0  0  0  0  0  0  0  0
    0.8094    3.2836   -0.7540 O   0  0  0  0  0  0  0  0  0  0  0  0
    5.4315    1.1730   -1.0962 O   0  0  0  0  0  0  0  0  0  0  0  0
    1.2445   -2.2689    1.4764 O   0  0  0  0  0  0  0  0  0  0  0  0
    3.0909    2.1560   -0.8836 O   0  0  0  0  0  0  0  0  0  0  0  0
    7.0675   -0.9393   -0.6465 O   0  0  0  0  0  0  0  0  0  0  0  0
   -5.8685   -1.1247    0.5363 C   0  0  1  0  0  0  0  0  0  0  0  0
   -5.7409   -1.0489   -0.9853 C   0  0  1  0  0  0  0  0  0  0  0  0
   -4.9258   -0.1347    1.2207 C   0  0  2  0  0  0  0  0  0  0  0  0
   -4.2727   -1.1201   -1.4115 C   0  0  1  0  0  0  0  0  0  0  0  0
   -3.5092   -0.2335    0.6543 C   0  0  1  0  0  0  0  0  0  0  0  0
   -4.1116   -0.9290   -2.9162 C   0  0  0  0  0  0  0  0  0  0  0  0
   -1.4252    0.8973    0.8512 C   0  0  0  0  0  0  0  0  0  0  0  0
    0.7707   -0.1077    0.6882 C   0  0  0  0  0  0  0  0  0  0  0  0
   -0.5717   -0.1827    1.0784 C   0  0  0  0  0  0  0  0  0  0  0  0
    1.2533    1.0489    0.0720 C   0  0  0  0  0  0  0  0  0  0  0  0
   -0.9437    2.0513    0.2363 C   0  0  0  0  0  0  0  0  0  0  0  0
    0.3933    2.1303   -0.1541 C   0  0  0  0  0  0  0  0  0  0  0  0
    3.5637   -0.0071   -0.1008 C   0  0  0  0  0  0  0  0  0  0  0  0
    3.0811   -1.1638    0.5151 C   0  0  0  0  0  0  0  0  0  0  0  0
    1.6671   -1.2561    0.9325 C   0  0  0  0  0  0  0  0  0  0  0  0
    2.6675    1.1416   -0.3445 C   0  0  0  0  0  0  0  0  0  0  0  0
    4.9060    0.0678   -0.4915 C   0  0  0  0  0  0  0  0  0  0  0  0
    3.9408   -2.2455    0.7404 C   0  0  0  0  0  0  0  0  0  0  0  0
    5.2778   -2.1667    0.3494 C   0  0  0  0  0  0  0  0  0  0  0  0
    5.7593   -1.0125   -0.2651 C   0  0  0  0  0  0  0  0  0  0  0  0
    6.1785   -3.3316    0.5991 C   0  0  0  0  0  0  0  0  0  0  0  0
   -2.3993    3.6889    1.1612 C   0  0  0  0  0  0  0  0  0  0  0  0
    5.9843    2.1732   -0.2449 C   0  0  0  0  0  0  0  0  0  0  0  0
   -5.6845   -2.1445    0.8961 H   0  0  0  0  0  0  0  0  0  0  0  0
   -6.2018   -0.1203   -1.3438 H   0  0  0  0  0  0  0  0  0  0  0  0
   -5.3110    0.8872    1.1222 H   0  0  0  0  0  0  0  0  0  0  0  0
   -3.8307   -2.0896   -1.1438 H   0  0  0  0  0  0  0  0  0  0  0  0
   -3.0743   -1.2050    0.9233 H   0  0  0  0  0  0  0  0  0  0  0  0
   -4.4813    0.0504   -3.2376 H   0  0  0  0  0  0  0  0  0  0  0  0
   -4.6337   -1.7062   -3.4816 H   0  0  0  0  0  0  0  0  0  0  0  0
   -7.7919   -1.4493    0.4223 H   0  0  0  0  0  0  0  0  0  0  0  0
   -6.0484   -2.9618   -1.2660 H   0  0  0  0  0  0  0  0  0  0  0  0
   -4.5307   -1.3269    2.7264 H   0  0  0  0  0  0  0  0  0  0  0  0
   -0.9463   -1.0727    1.5767 H   0  0  0  0  0  0  0  0  0  0  0  0
   -2.2789   -0.3064   -2.7201 H   0  0  0  0  0  0  0  0  0  0  0  0
    3.5733   -3.1498    1.2194 H   0  0  0  0  0  0  0  0  0  0  0  0
    1.7489    3.2372   -0.9842 H   0  0  0  0  0  0  0  0  0  0  0  0
    5.6531   -4.1598    1.0867 H   0  0  0  0  0  0  0  0  0  0  0  0
    6.5821   -3.7096   -0.3461 H   0  0  0  0  0  0  0  0  0  0  0  0
    7.0072   -3.0383    1.2520 H   0  0  0  0  0  0  0  0  0  0  0  0
   -2.5049    4.7615    0.9739 H   0  0  0  0  0  0  0  0  0  0  0  0
   -1.7974    3.5588    2.0674 H   0  0  0  0  0  0  0  0  0  0  0  0
   -3.3998    3.2715    1.3051 H   0  0  0  0  0  0  0  0  0  0  0  0
    7.2067   -0.1046   -1.1254 H   0  0  0  0  0  0  0  0  0  0  0  0
    6.9543    1.8461    0.1418 H   0  0  0  0  0  0  0  0  0  0  0  0
    5.3170    2.4065    0.5913 H   0  0  0  0  0  0  0  0  0  0  0  0
    6.1345    3.0810   -0.8358 H   0  0  0  0  0  0  0  0  0  0  0  0
  1 16  1  0  0  0  0
  1 17  1  0  0  0  0
  2 17  1  0  0  0  0
  2 19  1  0  0  0  0
  3 13  1  0  0  0  0
  3 43  1  0  0  0  0
  4 14  1  0  0  0  0
  4 44  1  0  0  0  0
  5 15  1  0  0  0  0
  5 45  1  0  0  0  0
  6 18  1  0  0  0  0
  6 47  1  0  0  0  0
  7 23  1  0  0  0  0
  7 34  1  0  0  0  0
  8 24  1  0  0  0  0
  8 49  1  0  0  0  0
  9 29  1  0  0  0  0
  9 35  1  0  0  0  0
 10 27  2  0  0  0  0
 11 28  2  0  0  0  0
 12 32  1  0  0  0  0
 12 56  1  0  0  0  0
 13 14  1  0  0  0  0
 13 15  1  0  0  0  0
 13 36  1  0  0  0  0
 14 16  1  0  0  0  0
 14 37  1  0  0  0  0
 15 17  1  0  0  0  0
 15 38  1  0  0  0  0
 16 18  1  0  0  0  0
 16 39  1  0  0  0  0
 17 40  1  0  0  0  0
 18 41  1  0  0  0  0
 18 42  1  0  0  0  0
 19 21  1  0  0  0  0
 19 23  2  0  0  0  0
 20 21  2  0  0  0  0
 20 22  1  0  0  0  0
 20 27  1  0  0  0  0
 21 46  1  0  0  0  0
 22 24  2  0  0  0  0
 22 28  1  0  0  0  0
 23 24  1  0  0  0  0
 25 26  2  0  0  0  0
 25 28  1  0  0  0  0
 25 29  1  0  0  0  0
 26 27  1  0  0  0  0
 26 30  1  0  0  0  0
 29 32  2  0  0  0  0
 30 31  2  0  0  0  0
 30 48  1  0  0  0  0
 31 32  1  0  0  0  0
 31 33  1  0  0  0  0
 33 50  1  0  0  0  0
 33 51  1  0  0  0  0
 33 52  1  0  0  0  0
 34 53  1  0  0  0  0
 34 54  1  0  0  0  0
 34 55  1  0  0  0  0
 35 57  1  0  0  0  0
 35 58  1  0  0  0  0
 35 59  1  0  0  0  0
M  END
> <PUBCHEM_COMPOUND_CID>
442725

> <PUBCHEM_CONFORMER_RMSD>
1

> <PUBCHEM_CONFORMER_DIVERSEORDER>
1
37
35
16
28
32
24
5
22
9
31
38
3
20
10
21
2
33
23
12
18
19
17
8
29
4
36
27
30
34
11
25
6
7
13
14
26
15

> <PUBCHEM_MMFF94_PARTIAL_CHARGES>
43
1 -0.56
10 -0.57
11 -0.57
12 -0.53
13 0.28
14 0.28
15 0.28
16 0.28
17 0.56
18 0.28
19 0.08
2 -0.36
20 0.09
21 -0.15
22 0.09
23 0.08
24 0.08
25 0.09
26 0.09
27 0.4
28 0.4
29 0.08
3 -0.68
30 -0.15
31 -0.14
32 0.08
33 0.14
34 0.28
35 0.28
4 -0.68
43 0.4
44 0.4
45 0.4
46 0.15
47 0.4
48 0.15
49 0.45
5 -0.68
56 0.45
6 -0.68
7 -0.36
8 -0.53
9 -0.36

> <PUBCHEM_EFFECTIVE_ROTOR_COUNT>
6.2

> <PUBCHEM_PHARMACOPHORE_FEATURES>
20
1 1 acceptor
1 10 acceptor
1 11 acceptor
1 12 donor
1 2 acceptor
1 3 acceptor
1 3 donor
1 4 acceptor
1 4 donor
1 5 acceptor
1 5 donor
1 6 acceptor
1 6 donor
1 7 acceptor
1 8 donor
1 9 acceptor
6 1 13 14 15 16 17 rings
6 19 20 21 22 23 24 rings
6 20 22 25 26 27 28 rings
6 25 26 29 30 31 32 rings

> <PUBCHEM_HEAVY_ATOM_COUNT>
35

> <PUBCHEM_ATOM_DEF_STEREO_COUNT>
5

> <PUBCHEM_ATOM_UDEF_STEREO_COUNT>
0

> <PUBCHEM_BOND_DEF_STEREO_COUNT>
0

> <PUBCHEM_BOND_UDEF_STEREO_COUNT>
0

> <PUBCHEM_ISOTOPIC_ATOM_COUNT>
0

> <PUBCHEM_COMPONENT_COUNT>
1

> <PUBCHEM_CACTVS_TAUTO_COUNT>
25

> <PUBCHEM_CONFORMER_ID>
0006C16500000001

> <PUBCHEM_MMFF94_ENERGY>
138.1341

> <PUBCHEM_FEATURE_SELFOVERLAP>
101.612

> <PUBCHEM_SHAPE_FINGERPRINT>
10 15 5184339699230790026
10319926 262 15357695271546984523
10622 236 18124892388986870170
10693767 8 18410865329968971415
11135926 11 18270674256559712068
11227688 84 17839742909109948834
12166972 35 17704065209623423758
12236239 1 18187358826909323793
12422481 6 17531237422255404567
13533116 47 18410571773950344592
13540713 5 18268972332550688160
13782708 43 18042128820581182578
13911987 19 18060132107229047610
14040221 97 17128997388703628836
14068700 675 18186240632237373913
14347332 77 18336828683941699240
14767858 380 18271799117142264062
14840074 17 18187362112712247159
15183329 4 18411983550833011030
15320294 125 17748826294353302319
15361156 5 17912057741818359806
15419008 47 16917345927040950997
15537594 2 18261391122435048183
17492 89 18124029289981884290
20028762 73 18337110172268204594
20775438 99 17905070065502668831
208703 8 18260553298970260559
23522609 53 17970880371963301312
23536364 44 17987809625715619197
23559900 14 18129377107853234825
23569914 152 17336219381172767463
24771750 20 17197395760283070772
3882209 13 16910068457003727850
4098825 35 17989212581568500301
46194498 28 16916780726070979436
463206 1 18265054643824033759
513202 73 18264208174404988799
6058803 2 17840298154276383464
6086070 43 16773245110379289140
6669772 16 18124034520998875636
6700243 42 17532907576366304508
7970288 3 18335428945816557647

> <PUBCHEM_SHAPE_MULTIPOLES>
649.85
17.3
3.36
1.85
0.61
1.97
1.01
-11.18
2.15
-2.15
-0.22
3.39
-0.75
-2.81

> <PUBCHEM_SHAPE_SELFOVERLAP>
1429.285

> <PUBCHEM_SHAPE_VOLUME>
347.4

> <PUBCHEM_COORDINATE_TYPE>
2
5
10

$$$$

