441741
  -OEChem-07051212563D

 97103  0     1  0  0  0  0  0999 V2000
    1.0288   -1.2929   -0.6477 O   0  0  0  0  0  0  0  0  0  0  0  0
   -2.1301   -2.7752   -0.7610 O   0  0  0  0  0  0  0  0  0  0  0  0
   -3.4145    2.9068    0.9147 O   0  0  0  0  0  0  0  0  0  0  0  0
    2.5883    0.7148    1.0414 O   0  0  0  0  0  0  0  0  0  0  0  0
    1.5026    3.5536    1.3735 O   0  0  0  0  0  0  0  0  0  0  0  0
    0.3494    1.0708   -2.6359 O   0  0  0  0  0  0  0  0  0  0  0  0
    2.2209    2.9739   -1.0860 O   0  0  0  0  0  0  0  0  0  0  0  0
   -6.6560   -0.4583    0.5723 O   0  0  0  0  0  0  0  0  0  0  0  0
   -4.7865   -2.9081    1.7751 O   0  0  0  0  0  0  0  0  0  0  0  0
    1.0080   -1.1323   -2.9522 O   0  0  0  0  0  0  0  0  0  0  0  0
    2.9441   -0.4198    3.0127 O   0  0  0  0  0  0  0  0  0  0  0  0
    8.3235   -1.4080   -0.2867 O   0  0  0  0  0  0  0  0  0  0  0  0
   -3.5149    0.4603   -1.5675 N   0  0  2  0  0  0  0  0  0  0  0  0
   -2.4733    0.6033    0.6999 C   0  0  1  0  0  0  0  0  0  0  0  0
   -2.8645   -0.9263    0.8140 C   0  0  2  0  0  0  0  0  0  0  0  0
   -1.1042    0.9725    1.4237 C   0  0  1  0  0  0  0  0  0  0  0  0
   -2.2447    0.6368   -0.8305 C   0  0  1  0  0  0  0  0  0  0  0  0
   -1.2207   -0.5286   -0.9733 C   0  0  1  0  0  0  0  0  0  0  0  0
    0.1741    0.1870    1.0320 C   0  0  1  0  0  0  0  0  0  0  0  0
    0.2002   -0.1165   -0.4887 C   0  0  1  0  0  0  0  0  0  0  0  0
   -1.7530   -1.6340   -0.0164 C   0  0  2  0  0  0  0  0  0  0  0  0
   -4.3035   -1.1499    0.2315 C   0  0  2  0  0  0  0  0  0  0  0  0
   -3.5912    1.5391    1.2737 C   0  0  2  0  0  0  0  0  0  0  0  0
   -0.6448    2.4478    1.2620 C   0  0  0  0  0  0  0  0  0  0  0  0
    0.8380    2.4175    0.8441 C   0  0  2  0  0  0  0  0  0  0  0  0
    1.3079    1.1194    1.4807 C   0  0  2  0  0  0  0  0  0  0  0  0
    0.9075    0.9869   -1.3227 C   0  0  2  0  0  0  0  0  0  0  0  0
   -4.2703   -0.7718   -1.2819 C   0  0  0  0  0  0  0  0  0  0  0  0
   -5.3146   -0.2726    1.0268 C   0  0  1  0  0  0  0  0  0  0  0  0
    0.9643    2.3959   -0.6970 C   0  0  2  0  0  0  0  0  0  0  0  0
   -5.0271    1.2046    0.9154 C   0  0  0  0  0  0  0  0  0  0  0  0
   -4.7848   -2.6137    0.3978 C   0  0  0  0  0  0  0  0  0  0  0  0
   -3.3584    0.6644   -3.0043 C   0  0  0  0  0  0  0  0  0  0  0  0
    1.5240   -1.4756   -1.8971 C   0  0  0  0  0  0  0  0  0  0  0  0
   -1.0044   -3.5727   -1.1137 C   0  0  0  0  0  0  0  0  0  0  0  0
   -4.7077    0.7812   -3.6926 C   0  0  0  0  0  0  0  0  0  0  0  0
   -3.9495    3.7744    1.9027 C   0  0  0  0  0  0  0  0  0  0  0  0
    3.3111   -0.0568    1.9060 C   0  0  0  0  0  0  0  0  0  0  0  0
    2.1569    3.4824   -2.4055 C   0  0  0  0  0  0  0  0  0  0  0  0
    2.8415   -2.1829   -1.7982 C   0  0  0  0  0  0  0  0  0  0  0  0
   -5.2174   -4.2421    2.0361 C   0  0  0  0  0  0  0  0  0  0  0  0
    4.6322   -0.4122    1.3289 C   0  0  0  0  0  0  0  0  0  0  0  0
    5.2470   -1.6133    1.6824 C   0  0  0  0  0  0  0  0  0  0  0  0
    5.2581    0.4546    0.4330 C   0  0  0  0  0  0  0  0  0  0  0  0
    6.4878   -1.9477    1.1400 C   0  0  0  0  0  0  0  0  0  0  0  0
    6.4989    0.1203   -0.1093 C   0  0  0  0  0  0  0  0  0  0  0  0
    7.1137   -1.0808    0.2441 C   0  0  0  0  0  0  0  0  0  0  0  0
    8.9071   -0.4760   -1.1961 C   0  0  0  0  0  0  0  0  0  0  0  0
   -2.8213   -1.2463    1.8621 H   0  0  0  0  0  0  0  0  0  0  0  0
   -1.2615    0.8013    2.4991 H   0  0  0  0  0  0  0  0  0  0  0  0
   -1.8144    1.5956   -1.1308 H   0  0  0  0  0  0  0  0  0  0  0  0
   -1.1955   -0.8906   -2.0041 H   0  0  0  0  0  0  0  0  0  0  0  0
    0.2653   -0.7351    1.6170 H   0  0  0  0  0  0  0  0  0  0  0  0
   -1.0162   -1.9788    0.7127 H   0  0  0  0  0  0  0  0  0  0  0  0
   -3.5114    1.4403    2.3669 H   0  0  0  0  0  0  0  0  0  0  0  0
   -1.2101    3.0198    0.5260 H   0  0  0  0  0  0  0  0  0  0  0  0
   -0.7731    2.9717    2.2182 H   0  0  0  0  0  0  0  0  0  0  0  0
    1.3051    1.2413    2.5735 H   0  0  0  0  0  0  0  0  0  0  0  0
    1.9662    0.7268   -1.4629 H   0  0  0  0  0  0  0  0  0  0  0  0
   -3.8666   -1.6017   -1.8731 H   0  0  0  0  0  0  0  0  0  0  0  0
   -5.3085   -0.6559   -1.6142 H   0  0  0  0  0  0  0  0  0  0  0  0
   -5.2946   -0.5486    2.0886 H   0  0  0  0  0  0  0  0  0  0  0  0
    0.1695    3.0279   -1.1137 H   0  0  0  0  0  0  0  0  0  0  0  0
   -5.7203    1.7346    1.5815 H   0  0  0  0  0  0  0  0  0  0  0  0
   -5.2956    1.5926   -0.0757 H   0  0  0  0  0  0  0  0  0  0  0  0
   -5.8008   -2.7267   -0.0016 H   0  0  0  0  0  0  0  0  0  0  0  0
   -4.1714   -3.3407   -0.1346 H   0  0  0  0  0  0  0  0  0  0  0  0
   -2.8183    1.6023   -3.1838 H   0  0  0  0  0  0  0  0  0  0  0  0
   -2.7752   -0.1368   -3.4728 H   0  0  0  0  0  0  0  0  0  0  0  0
    1.4394    3.5208    2.3431 H   0  0  0  0  0  0  0  0  0  0  0  0
    1.0299    0.7963   -3.2732 H   0  0  0  0  0  0  0  0  0  0  0  0
   -7.2409    0.0562    1.1545 H   0  0  0  0  0  0  0  0  0  0  0  0
   -0.5009   -3.1536   -1.9845 H   0  0  0  0  0  0  0  0  0  0  0  0
   -0.3121   -3.7180   -0.2791 H   0  0  0  0  0  0  0  0  0  0  0  0
   -1.3810   -4.5572   -1.4074 H   0  0  0  0  0  0  0  0  0  0  0  0
   -4.5663    1.1329   -4.7206 H   0  0  0  0  0  0  0  0  0  0  0  0
   -5.3580    1.5027   -3.1861 H   0  0  0  0  0  0  0  0  0  0  0  0
   -5.2278   -0.1795   -3.7563 H   0  0  0  0  0  0  0  0  0  0  0  0
   -3.6826    4.7984    1.6248 H   0  0  0  0  0  0  0  0  0  0  0  0
   -3.5149    3.5726    2.8870 H   0  0  0  0  0  0  0  0  0  0  0  0
   -5.0399    3.7211    1.9464 H   0  0  0  0  0  0  0  0  0  0  0  0
    3.0546    4.0865   -2.5700 H   0  0  0  0  0  0  0  0  0  0  0  0
    1.2903    4.1339   -2.5562 H   0  0  0  0  0  0  0  0  0  0  0  0
    2.1740    2.6808   -3.1464 H   0  0  0  0  0  0  0  0  0  0  0  0
    2.7750   -3.0100   -1.0861 H   0  0  0  0  0  0  0  0  0  0  0  0
    3.0994   -2.6015   -2.7752 H   0  0  0  0  0  0  0  0  0  0  0  0
    3.6162   -1.4769   -1.4943 H   0  0  0  0  0  0  0  0  0  0  0  0
   -6.2389   -4.3911    1.6735 H   0  0  0  0  0  0  0  0  0  0  0  0
   -4.5392   -4.9608    1.5660 H   0  0  0  0  0  0  0  0  0  0  0  0
   -5.2021   -4.4013    3.1175 H   0  0  0  0  0  0  0  0  0  0  0  0
    4.7705   -2.3010    2.3760 H   0  0  0  0  0  0  0  0  0  0  0  0
    4.8049    1.4007    0.1486 H   0  0  0  0  0  0  0  0  0  0  0  0
    6.9614   -2.8853    1.4178 H   0  0  0  0  0  0  0  0  0  0  0  0
    6.9296    0.8396   -0.7975 H   0  0  0  0  0  0  0  0  0  0  0  0
    8.2930   -0.3522   -2.0946 H   0  0  0  0  0  0  0  0  0  0  0  0
    9.8650   -0.8964   -1.5193 H   0  0  0  0  0  0  0  0  0  0  0  0
    9.1258    0.4797   -0.7077 H   0  0  0  0  0  0  0  0  0  0  0  0
  1 20  1  0  0  0  0
  1 34  1  0  0  0  0
  2 21  1  0  0  0  0
  2 35  1  0  0  0  0
  3 23  1  0  0  0  0
  3 37  1  0  0  0  0
  4 26  1  0  0  0  0
  4 38  1  0  0  0  0
  5 25  1  0  0  0  0
  5 70  1  0  0  0  0
  6 27  1  0  0  0  0
  6 71  1  0  0  0  0
  7 30  1  0  0  0  0
  7 39  1  0  0  0  0
  8 29  1  0  0  0  0
  8 72  1  0  0  0  0
  9 32  1  0  0  0  0
  9 41  1  0  0  0  0
 10 34  2  0  0  0  0
 11 38  2  0  0  0  0
 12 47  1  0  0  0  0
 12 48  1  0  0  0  0
 13 17  1  0  0  0  0
 13 28  1  0  0  0  0
 13 33  1  0  0  0  0
 14 15  1  0  0  0  0
 14 16  1  0  0  0  0
 14 17  1  0  0  0  0
 14 23  1  0  0  0  0
 15 21  1  0  0  0  0
 15 22  1  0  0  0  0
 15 49  1  0  0  0  0
 16 19  1  0  0  0  0
 16 24  1  0  0  0  0
 16 50  1  0  0  0  0
 17 18  1  0  0  0  0
 17 51  1  0  0  0  0
 18 20  1  0  0  0  0
 18 21  1  0  0  0  0
 18 52  1  0  0  0  0
 19 20  1  0  0  0  0
 19 26  1  0  0  0  0
 19 53  1  0  0  0  0
 20 27  1  0  0  0  0
 21 54  1  0  0  0  0
 22 28  1  0  0  0  0
 22 29  1  0  0  0  0
 22 32  1  0  0  0  0
 23 31  1  0  0  0  0
 23 55  1  0  0  0  0
 24 25  1  0  0  0  0
 24 56  1  0  0  0  0
 24 57  1  0  0  0  0
 25 26  1  0  0  0  0
 25 30  1  0  0  0  0
 26 58  1  0  0  0  0
 27 30  1  0  0  0  0
 27 59  1  0  0  0  0
 28 60  1  0  0  0  0
 28 61  1  0  0  0  0
 29 31  1  0  0  0  0
 29 62  1  0  0  0  0
 30 63  1  0  0  0  0
 31 64  1  0  0  0  0
 31 65  1  0  0  0  0
 32 66  1  0  0  0  0
 32 67  1  0  0  0  0
 33 36  1  0  0  0  0
 33 68  1  0  0  0  0
 33 69  1  0  0  0  0
 34 40  1  0  0  0  0
 35 73  1  0  0  0  0
 35 74  1  0  0  0  0
 35 75  1  0  0  0  0
 36 76  1  0  0  0  0
 36 77  1  0  0  0  0
 36 78  1  0  0  0  0
 37 79  1  0  0  0  0
 37 80  1  0  0  0  0
 37 81  1  0  0  0  0
 38 42  1  0  0  0  0
 39 82  1  0  0  0  0
 39 83  1  0  0  0  0
 39 84  1  0  0  0  0
 40 85  1  0  0  0  0
 40 86  1  0  0  0  0
 40 87  1  0  0  0  0
 41 88  1  0  0  0  0
 41 89  1  0  0  0  0
 41 90  1  0  0  0  0
 42 43  2  0  0  0  0
 42 44  1  0  0  0  0
 43 45  1  0  0  0  0
 43 91  1  0  0  0  0
 44 46  2  0  0  0  0
 44 92  1  0  0  0  0
 45 47  2  0  0  0  0
 45 93  1  0  0  0  0
 46 47  1  0  0  0  0
 46 94  1  0  0  0  0
 48 95  1  0  0  0  0
 48 96  1  0  0  0  0
 48 97  1  0  0  0  0
M  END
> <PUBCHEM_COMPOUND_CID>
441741

> <PUBCHEM_CONFORMER_RMSD>
1.4

> <PUBCHEM_CONFORMER_DIVERSEORDER>
1
2

> <PUBCHEM_MMFF94_PARTIAL_CHARGES>
46
1 -0.43
10 -0.57
11 -0.57
12 -0.36
13 -0.81
17 0.27
2 -0.56
20 0.28
21 0.28
23 0.28
25 0.28
26 0.28
27 0.28
28 0.27
29 0.28
3 -0.56
30 0.28
32 0.28
33 0.27
34 0.66
35 0.28
37 0.28
38 0.63
39 0.28
4 -0.43
40 0.06
41 0.28
42 0.09
43 -0.15
44 -0.15
45 -0.15
46 -0.15
47 0.08
48 0.28
5 -0.68
6 -0.68
7 -0.56
70 0.4
71 0.4
72 0.4
8 -0.68
9 -0.56
91 0.15
92 0.15
93 0.15
94 0.15

> <PUBCHEM_EFFECTIVE_ROTOR_COUNT>
14

> <PUBCHEM_PHARMACOPHORE_FEATURES>
19
1 10 acceptor
1 11 acceptor
1 12 acceptor
1 13 cation
1 2 acceptor
1 3 acceptor
1 5 acceptor
1 5 donor
1 6 acceptor
1 6 donor
1 7 acceptor
1 8 acceptor
1 8 donor
1 9 acceptor
6 14 15 22 23 29 31 rings
6 42 43 44 45 46 47 rings
8 13 14 15 17 18 21 22 28 rings
8 14 15 16 17 18 19 20 21 rings
8 16 19 20 24 25 26 27 30 rings

> <PUBCHEM_HEAVY_ATOM_COUNT>
48

> <PUBCHEM_ATOM_DEF_STEREO_COUNT>
14

> <PUBCHEM_ATOM_UDEF_STEREO_COUNT>
1

> <PUBCHEM_BOND_DEF_STEREO_COUNT>
0

> <PUBCHEM_BOND_UDEF_STEREO_COUNT>
0

> <PUBCHEM_ISOTOPIC_ATOM_COUNT>
0

> <PUBCHEM_COMPONENT_COUNT>
1

> <PUBCHEM_CACTVS_TAUTO_COUNT>
1

> <PUBCHEM_CONFORMER_ID>
0006BD8D00000001

> <PUBCHEM_MMFF94_ENERGY>
259.1749

> <PUBCHEM_FEATURE_SELFOVERLAP>
97.954

> <PUBCHEM_SHAPE_FINGERPRINT>
10581848 31 18340204098781895186
11421498 54 16972808317192730158
11513181 2 17386574711706697318
11578080 2 17903358448252656796
117089 54 18055626214448806131
12422481 6 17313100843348714152
12633046 712 18195255408536987521
13690498 29 17632301151031112827
13782708 43 18130225934908664563
13811026 1 17967533479931546506
14840074 17 17203608207686859722
14856354 85 18410006641905558667
14955137 171 18334857182441902560
15444296 121 18336539499298505712
15444296 8 17988085598591791660
17349148 13 17968387753359026617
19319366 153 17476633179423268205
20764821 26 17824825529743883423
23559900 14 18188192287294429127
3380486 145 17095242540544338649
392239 28 16081092554188563130
9896288 288 17605265379779946321

> <PUBCHEM_SHAPE_MULTIPOLES>
912.4
16.07
3.96
2.85
26.82
0.14
-1.75
-8.7
2.38
-3.52
0.95
-1.41
0.48
0.18

> <PUBCHEM_SHAPE_SELFOVERLAP>
1994.428

> <PUBCHEM_SHAPE_VOLUME>
486.6

> <PUBCHEM_COORDINATE_TYPE>
2
5
10

$$$$

