7746
  -OEChem-06261202172D

 17 16  0     1  0  0  0  0  0999 V2000
    4.2690   -1.0000    0.0000 O   0  0  0  0  0  0  0  0  0  0  0  0
    5.1350    0.5000    0.0000 C   0  0  0  0  0  0  0  0  0  0  0  0
    6.0010    0.0000    0.0000 C   0  0  0  0  0  0  0  0  0  0  0  0
    4.2690    0.0000    0.0000 C   0  0  3  0  0  0  0  0  0  0  0  0
    6.8671    0.5000    0.0000 C   0  0  0  0  0  0  0  0  0  0  0  0
    3.4030    0.5000    0.0000 C   0  0  0  0  0  0  0  0  0  0  0  0
    2.5369    1.0000    0.0000 C   0  0  0  0  0  0  0  0  0  0  0  0
    5.5335    0.9749    0.0000 H   0  0  0  0  0  0  0  0  0  0  0  0
    4.7365    0.9749    0.0000 H   0  0  0  0  0  0  0  0  0  0  0  0
    5.6025   -0.4749    0.0000 H   0  0  0  0  0  0  0  0  0  0  0  0
    6.3996   -0.4749    0.0000 H   0  0  0  0  0  0  0  0  0  0  0  0
    4.8059   -0.3100    0.0000 H   0  0  0  0  0  0  0  0  0  0  0  0
    7.1771   -0.0369    0.0000 H   0  0  0  0  0  0  0  0  0  0  0  0
    7.4040    0.8100    0.0000 H   0  0  0  0  0  0  0  0  0  0  0  0
    6.5571    1.0369    0.0000 H   0  0  0  0  0  0  0  0  0  0  0  0
    3.7320   -1.3100    0.0000 H   0  0  0  0  0  0  0  0  0  0  0  0
    2.0000    1.3100    0.0000 H   0  0  0  0  0  0  0  0  0  0  0  0
  1  4  1  0  0  0  0
  1 16  1  0  0  0  0
  2  3  1  0  0  0  0
  2  4  1  0  0  0  0
  2  8  1  0  0  0  0
  2  9  1  0  0  0  0
  3  5  1  0  0  0  0
  3 10  1  0  0  0  0
  3 11  1  0  0  0  0
  4  6  1  0  0  0  0
  4 12  1  0  0  0  0
  5 13  1  0  0  0  0
  5 14  1  0  0  0  0
  5 15  1  0  0  0  0
  6  7  3  0  0  0  0
  7 17  1  0  0  0  0
M  END
> <PUBCHEM_COMPOUND_CID>
7746

> <PUBCHEM_COMPOUND_CANONICALIZED>
1

> <PUBCHEM_CACTVS_COMPLEXITY>
77.4

> <PUBCHEM_CACTVS_HBOND_ACCEPTOR>
1

> <PUBCHEM_CACTVS_HBOND_DONOR>
1

> <PUBCHEM_CACTVS_ROTATABLE_BOND>
2

> <PUBCHEM_CACTVS_SUBSKEYS>
AAADccBgIAAAAAAAAAAAAAAAAAAAAAAAAAAAAAAAAAAAAAAAAAAAGgAACAAACBSggAICAAAAAgBAGAAAAAgAAAAAAAAAAAAAAAAAEAIAAAAAQAAEAAAAAAAAAAAAAAAAAAAAAAAAAAAAAAAAAAAAAAAAAA==

> <PUBCHEM_IUPAC_OPENEYE_NAME>
hex-1-yn-3-ol

> <PUBCHEM_IUPAC_CAS_NAME>
1-hexyn-3-ol

> <PUBCHEM_IUPAC_NAME>
hex-1-yn-3-ol

> <PUBCHEM_IUPAC_SYSTEMATIC_NAME>
hex-1-yn-3-ol

> <PUBCHEM_IUPAC_TRADITIONAL_NAME>
hex-1-yn-3-ol

> <PUBCHEM_IUPAC_INCHI>
InChI=1S/C6H10O/c1-3-5-6(7)4-2/h2,6-7H,3,5H2,1H3

> <PUBCHEM_IUPAC_INCHIKEY>
LTFTWJYRQNTCHI-UHFFFAOYSA-N

> <PUBCHEM_XLOGP3_AA>
0.9

> <PUBCHEM_EXACT_MASS>
98.073165

> <PUBCHEM_MOLECULAR_FORMULA>
C6H10O

> <PUBCHEM_MOLECULAR_WEIGHT>
98.143

> <PUBCHEM_OPENEYE_CAN_SMILES>
CCCC(C#C)O

> <PUBCHEM_OPENEYE_ISO_SMILES>
CCCC(C#C)O

> <PUBCHEM_CACTVS_TPSA>
20.2

> <PUBCHEM_MONOISOTOPIC_WEIGHT>
98.073165

> <PUBCHEM_TOTAL_CHARGE>
0

> <PUBCHEM_HEAVY_ATOM_COUNT>
7

> <PUBCHEM_ATOM_DEF_STEREO_COUNT>
0

> <PUBCHEM_ATOM_UDEF_STEREO_COUNT>
1

> <PUBCHEM_BOND_DEF_STEREO_COUNT>
0

> <PUBCHEM_BOND_UDEF_STEREO_COUNT>
0

> <PUBCHEM_ISOTOPIC_ATOM_COUNT>
0

> <PUBCHEM_COMPONENT_COUNT>
1

> <PUBCHEM_CACTVS_TAUTO_COUNT>
1

> <PUBCHEM_COORDINATE_TYPE>
1
5
255

> <PUBCHEM_BONDANNOTATIONS>
4  1  3

$$$$

