40305
  -OEChem-07051212573D

 46 49  0     0  0  0  0  0  0999 V2000
    5.1480   -1.6111   -0.0023 O   0  0  0  0  0  0  0  0  0  0  0  0
    5.6464    1.1190   -0.1208 O   0  0  0  0  0  0  0  0  0  0  0  0
   -5.4894    1.3781    0.1194 O   0  0  0  0  0  0  0  0  0  0  0  0
   -6.1123   -1.3211    0.2378 O   0  0  0  0  0  0  0  0  0  0  0  0
   -0.3403    1.5603   -0.0059 N   0  3  0  0  0  0  0  0  0  0  0  0
   -0.7123    0.2646    0.0542 C   0  0  0  0  0  0  0  0  0  0  0  0
    0.3174   -0.7185    0.0700 C   0  0  0  0  0  0  0  0  0  0  0  0
    1.6911   -0.3035    0.0226 C   0  0  0  0  0  0  0  0  0  0  0  0
   -2.0981   -0.0902    0.0995 C   0  0  0  0  0  0  0  0  0  0  0  0
    1.9794    1.0757   -0.0388 C   0  0  0  0  0  0  0  0  0  0  0  0
   -2.4447   -1.4602    0.1614 C   0  0  0  0  0  0  0  0  0  0  0  0
    0.9274    1.9766   -0.0511 C   0  0  0  0  0  0  0  0  0  0  0  0
   -0.0911   -2.0654    0.1328 C   0  0  0  0  0  0  0  0  0  0  0  0
   -1.4382   -2.4273    0.1773 C   0  0  0  0  0  0  0  0  0  0  0  0
    2.8034   -1.1837    0.0325 C   0  0  0  0  0  0  0  0  0  0  0  0
   -3.1637    0.8436    0.0869 C   0  0  0  0  0  0  0  0  0  0  0  0
    3.3048    1.5395   -0.0872 C   0  0  0  0  0  0  0  0  0  0  0  0
   -1.2111    2.7344   -0.0360 C   0  0  0  0  0  0  0  0  0  0  0  0
   -3.7934   -1.8536    0.2071 C   0  0  0  0  0  0  0  0  0  0  0  0
    4.1202   -0.7168   -0.0151 C   0  0  0  0  0  0  0  0  0  0  0  0
    4.3709    0.6461   -0.0749 C   0  0  0  0  0  0  0  0  0  0  0  0
   -4.5005    0.4400    0.1328 C   0  0  0  0  0  0  0  0  0  0  0  0
   -4.8155   -0.9092    0.1929 C   0  0  0  0  0  0  0  0  0  0  0  0
    5.6087   -2.0869   -1.2654 C   0  0  0  0  0  0  0  0  0  0  0  0
    6.2816    1.3954    1.1265 C   0  0  0  0  0  0  0  0  0  0  0  0
   -5.9887    1.7741   -1.1562 C   0  0  0  0  0  0  0  0  0  0  0  0
    1.1402    3.0416   -0.0978 H   0  0  0  0  0  0  0  0  0  0  0  0
    0.6331   -2.8757    0.1487 H   0  0  0  0  0  0  0  0  0  0  0  0
   -1.6874   -3.4860    0.2249 H   0  0  0  0  0  0  0  0  0  0  0  0
    2.6581   -2.2604    0.0796 H   0  0  0  0  0  0  0  0  0  0  0  0
   -3.1318    1.9098    0.0512 H   0  0  0  0  0  0  0  0  0  0  0  0
    3.5112    2.6076   -0.1351 H   0  0  0  0  0  0  0  0  0  0  0  0
   -1.7366    2.8063    0.9207 H   0  0  0  0  0  0  0  0  0  0  0  0
   -0.6567    3.6795   -0.0929 H   0  0  0  0  0  0  0  0  0  0  0  0
   -1.7850    2.7228   -0.9671 H   0  0  0  0  0  0  0  0  0  0  0  0
   -4.0539   -2.9100    0.2545 H   0  0  0  0  0  0  0  0  0  0  0  0
   -6.6858   -0.5359    0.2616 H   0  0  0  0  0  0  0  0  0  0  0  0
    4.8073   -2.6152   -1.7916 H   0  0  0  0  0  0  0  0  0  0  0  0
    6.4312   -2.7854   -1.0890 H   0  0  0  0  0  0  0  0  0  0  0  0
    5.9784   -1.2586   -1.8779 H   0  0  0  0  0  0  0  0  0  0  0  0
    6.3510    0.4869    1.7331 H   0  0  0  0  0  0  0  0  0  0  0  0
    5.7344    2.1710    1.6716 H   0  0  0  0  0  0  0  0  0  0  0  0
    7.2929    1.7579    0.9228 H   0  0  0  0  0  0  0  0  0  0  0  0
   -6.3906    0.9141   -1.7013 H   0  0  0  0  0  0  0  0  0  0  0  0
   -5.1987    2.2536   -1.7429 H   0  0  0  0  0  0  0  0  0  0  0  0
   -6.7947    2.4961   -0.9994 H   0  0  0  0  0  0  0  0  0  0  0  0
  1 20  1  0  0  0  0
  1 24  1  0  0  0  0
  2 21  1  0  0  0  0
  2 25  1  0  0  0  0
  3 22  1  0  0  0  0
  3 26  1  0  0  0  0
  4 23  1  0  0  0  0
  4 37  1  0  0  0  0
  5  6  1  0  0  0  0
  5 12  2  0  0  0  0
  5 18  1  0  0  0  0
  6  7  2  0  0  0  0
  6  9  1  0  0  0  0
  7  8  1  0  0  0  0
  7 13  1  0  0  0  0
  8 10  1  0  0  0  0
  8 15  2  0  0  0  0
  9 11  1  0  0  0  0
  9 16  2  0  0  0  0
 10 12  1  0  0  0  0
 10 17  2  0  0  0  0
 11 14  1  0  0  0  0
 11 19  2  0  0  0  0
 12 27  1  0  0  0  0
 13 14  2  0  0  0  0
 13 28  1  0  0  0  0
 14 29  1  0  0  0  0
 15 20  1  0  0  0  0
 15 30  1  0  0  0  0
 16 22  1  0  0  0  0
 16 31  1  0  0  0  0
 17 21  1  0  0  0  0
 17 32  1  0  0  0  0
 18 33  1  0  0  0  0
 18 34  1  0  0  0  0
 18 35  1  0  0  0  0
 19 23  1  0  0  0  0
 19 36  1  0  0  0  0
 20 21  2  0  0  0  0
 22 23  2  0  0  0  0
 24 38  1  0  0  0  0
 24 39  1  0  0  0  0
 24 40  1  0  0  0  0
 25 41  1  0  0  0  0
 25 42  1  0  0  0  0
 25 43  1  0  0  0  0
 26 44  1  0  0  0  0
 26 45  1  0  0  0  0
 26 46  1  0  0  0  0
M  CHG  1   5   1
M  END
> <PUBCHEM_COMPOUND_CID>
40305

> <PUBCHEM_CONFORMER_RMSD>
0.6

> <PUBCHEM_CONFORMER_DIVERSEORDER>
1
2
3

> <PUBCHEM_MMFF94_PARTIAL_CHARGES>
29
1 -0.36
12 0.21
13 -0.15
14 -0.15
15 -0.15
16 -0.15
17 -0.15
18 0.49
19 -0.15
2 -0.36
20 0.08
21 0.08
22 0.08
23 0.08
24 0.28
25 0.28
26 0.28
27 0.15
28 0.15
29 0.15
3 -0.36
30 0.15
31 0.15
32 0.15
36 0.15
37 0.45
4 -0.53
5 -0.21
6 0.36

> <PUBCHEM_EFFECTIVE_ROTOR_COUNT>
3

> <PUBCHEM_PHARMACOPHORE_FEATURES>
8
1 1 acceptor
1 2 acceptor
1 3 acceptor
1 4 donor
6 5 6 7 8 10 12 rings
6 6 7 9 11 13 14 rings
6 8 10 15 17 20 21 rings
6 9 11 16 19 22 23 rings

> <PUBCHEM_HEAVY_ATOM_COUNT>
26

> <PUBCHEM_ATOM_DEF_STEREO_COUNT>
0

> <PUBCHEM_ATOM_UDEF_STEREO_COUNT>
0

> <PUBCHEM_BOND_DEF_STEREO_COUNT>
0

> <PUBCHEM_BOND_UDEF_STEREO_COUNT>
0

> <PUBCHEM_ISOTOPIC_ATOM_COUNT>
0

> <PUBCHEM_COMPONENT_COUNT>
1

> <PUBCHEM_CACTVS_TAUTO_COUNT>
3

> <PUBCHEM_CONFORMER_ID>
00009D7100000001

> <PUBCHEM_MMFF94_ENERGY>
148.4748

> <PUBCHEM_FEATURE_SELFOVERLAP>
40.675

> <PUBCHEM_SHAPE_FINGERPRINT>
10835480 77 18408328769713255872
10906281 52 18337653265922197188
11578080 2 16699781318036585815
12011746 2 18339078301822106631
12236239 1 17775289343983290128
12516196 113 18187083927475029624
12788726 201 17895466016217619728
12838862 33 18340226127632401857
13140716 1 18411700945952223947
13402501 40 18409729564521567751
13533116 47 17749105613061315650
13862211 1 18411420626374904899
14341114 176 18410004442460153808
14790565 3 18412258454419821489
15183329 4 18411417357835746567
15196674 1 18411135831351148355
1813 80 17346318181041509860
19591789 44 18411418444457204275
200 152 18040152903179180611
20511986 3 18334590022496224074
21033648 29 18337121076957443881
21130935 74 18186796976584295779
21236236 1 18334855073623801721
21267235 1 18411691080977126547
21279426 13 18411136978191773759
21421861 104 17917446358133064914
21709351 56 18342179968911811487
21792934 111 18338247054041614568
21859007 373 17987536955348558228
23402539 116 18335144180740988525
23559900 14 18407762525656646448
3004659 81 18271803545375118638
335352 9 18411417349256368415
34797466 226 16950555533328395568
34934 24 18411706473817941170
350125 39 18411981382043026140
3680242 22 18272655683718290250
4073 2 18059288756557964690
4214541 1 18411981347667119209
5104073 3 18410571786218088178
6138700 20 18339639052705293103
9709674 26 18339355241340187466

> <PUBCHEM_SHAPE_MULTIPOLES>
506.61
14.48
2.71
0.78
1.97
0
0.09
-0.74
0.79
-0.21
0.18
0.33
-0.01
1.6

> <PUBCHEM_SHAPE_SELFOVERLAP>
1134.989

> <PUBCHEM_SHAPE_VOLUME>
271.8

> <PUBCHEM_COORDINATE_TYPE>
2
5
10

$$$$

