13770100
  -OEChem-07051213103D

 61 63  0     1  0  0  0  0  0999 V2000
    3.9284    1.0605   -2.7066 O   0  0  0  0  0  0  0  0  0  0  0  0
    5.7949   -1.0027   -0.2626 O   0  0  0  0  0  0  0  0  0  0  0  0
    1.9458    3.6990    1.4782 O   0  0  0  0  0  0  0  0  0  0  0  0
    5.2927   -3.1185   -0.9028 O   0  0  0  0  0  0  0  0  0  0  0  0
   -4.3522    1.1082    0.9437 O   0  0  0  0  0  0  0  0  0  0  0  0
   -0.0612   -4.1577    2.6098 O   0  0  0  0  0  0  0  0  0  0  0  0
   -3.8034   -3.2592   -0.3639 O   0  0  0  0  0  0  0  0  0  0  0  0
   -4.4587   -2.5702   -2.4223 O   0  0  0  0  0  0  0  0  0  0  0  0
    3.4366   -0.0499   -0.6907 N   0  0  0  0  0  0  0  0  0  0  0  0
    2.0709    2.7865   -0.6482 N   0  0  0  0  0  0  0  0  0  0  0  0
    0.1688    5.5892    0.5199 N   0  0  0  0  0  0  0  0  0  0  0  0
   -6.7738   -1.5331   -1.5096 N   0  0  0  0  0  0  0  0  0  0  0  0
    3.2936    1.9970   -0.4174 C   0  0  1  0  0  0  0  0  0  0  0  0
    3.0987    0.7544    0.4722 C   0  0  0  0  0  0  0  0  0  0  0  0
    3.6268    0.9962   -1.5369 C   0  0  0  0  0  0  0  0  0  0  0  0
    3.5162   -1.4660   -0.8553 C   0  0  2  0  0  0  0  0  0  0  0  0
    2.5612   -2.1840    0.0690 C   0  0  0  0  0  0  0  0  0  0  0  0
    1.4980    3.5801    0.3387 C   0  0  0  0  0  0  0  0  0  0  0  0
    4.9437   -1.9615   -0.7012 C   0  0  0  0  0  0  0  0  0  0  0  0
    0.2102    4.2666   -0.1313 C   0  0  1  0  0  0  0  0  0  0  0  0
    3.0011   -2.6308    1.3150 C   0  0  0  0  0  0  0  0  0  0  0  0
    1.2401   -2.4003   -0.3231 C   0  0  0  0  0  0  0  0  0  0  0  0
   -0.9938    3.4336    0.1519 C   0  0  0  0  0  0  0  0  0  0  0  0
    2.1198   -3.2940    2.1690 C   0  0  0  0  0  0  0  0  0  0  0  0
    0.3589   -3.0634    0.5308 C   0  0  0  0  0  0  0  0  0  0  0  0
    0.7987   -3.5101    1.7769 C   0  0  0  0  0  0  0  0  0  0  0  0
   -1.2949    3.0673    1.4637 C   0  0  0  0  0  0  0  0  0  0  0  0
   -1.8185    3.0202   -0.8944 C   0  0  0  0  0  0  0  0  0  0  0  0
   -2.4209    2.2881    1.7293 C   0  0  0  0  0  0  0  0  0  0  0  0
   -2.9444    2.2409   -0.6290 C   0  0  0  0  0  0  0  0  0  0  0  0
   -3.2456    1.8749    0.6829 C   0  0  0  0  0  0  0  0  0  0  0  0
   -5.4321   -1.0293    0.5285 C   0  0  0  0  0  0  0  0  0  0  0  0
   -4.7593    0.2031   -0.0718 C   0  0  0  0  0  0  0  0  0  0  0  0
   -5.8784   -2.0861   -0.4938 C   0  0  2  0  0  0  0  0  0  0  0  0
   -4.6675   -2.6491   -1.2186 C   0  0  0  0  0  0  0  0  0  0  0  0
    4.1473    2.6272   -0.1453 H   0  0  0  0  0  0  0  0  0  0  0  0
    2.0827    0.5851    0.8412 H   0  0  0  0  0  0  0  0  0  0  0  0
    3.8169    0.6559    1.2910 H   0  0  0  0  0  0  0  0  0  0  0  0
    3.2592   -1.6758   -1.9022 H   0  0  0  0  0  0  0  0  0  0  0  0
    1.6146    2.7460   -1.5565 H   0  0  0  0  0  0  0  0  0  0  0  0
    0.2956    4.4523   -1.2096 H   0  0  0  0  0  0  0  0  0  0  0  0
    4.0178   -2.4615    1.6576 H   0  0  0  0  0  0  0  0  0  0  0  0
    0.8855   -2.0546   -1.2904 H   0  0  0  0  0  0  0  0  0  0  0  0
    2.4734   -3.6336    3.1388 H   0  0  0  0  0  0  0  0  0  0  0  0
   -0.6692   -3.2280    0.2203 H   0  0  0  0  0  0  0  0  0  0  0  0
   -0.6391    6.1075    0.1752 H   0  0  0  0  0  0  0  0  0  0  0  0
    0.9869    6.1295    0.2391 H   0  0  0  0  0  0  0  0  0  0  0  0
    6.7057   -1.3471   -0.1448 H   0  0  0  0  0  0  0  0  0  0  0  0
   -0.6694    3.3816    2.2947 H   0  0  0  0  0  0  0  0  0  0  0  0
   -1.6002    3.3022   -1.9211 H   0  0  0  0  0  0  0  0  0  0  0  0
   -2.6513    2.0062    2.7531 H   0  0  0  0  0  0  0  0  0  0  0  0
   -3.5752    1.9654   -1.4689 H   0  0  0  0  0  0  0  0  0  0  0  0
   -6.3027   -0.6991    1.1108 H   0  0  0  0  0  0  0  0  0  0  0  0
   -4.7523   -1.4771    1.2651 H   0  0  0  0  0  0  0  0  0  0  0  0
   -5.4553    0.7251   -0.7384 H   0  0  0  0  0  0  0  0  0  0  0  0
   -3.8978   -0.1425   -0.6565 H   0  0  0  0  0  0  0  0  0  0  0  0
   -6.3871   -2.9130    0.0143 H   0  0  0  0  0  0  0  0  0  0  0  0
    0.4103   -4.3953    3.4267 H   0  0  0  0  0  0  0  0  0  0  0  0
   -7.1169   -2.2833   -2.1087 H   0  0  0  0  0  0  0  0  0  0  0  0
   -7.5945   -1.1323   -1.0572 H   0  0  0  0  0  0  0  0  0  0  0  0
   -3.0186   -3.6162   -0.8317 H   0  0  0  0  0  0  0  0  0  0  0  0
  1 15  2  0  0  0  0
  2 19  1  0  0  0  0
  2 48  1  0  0  0  0
  3 18  2  0  0  0  0
  4 19  2  0  0  0  0
  5 31  1  0  0  0  0
  5 33  1  0  0  0  0
  6 26  1  0  0  0  0
  6 58  1  0  0  0  0
  7 35  1  0  0  0  0
  7 61  1  0  0  0  0
  8 35  2  0  0  0  0
  9 14  1  0  0  0  0
  9 15  1  0  0  0  0
  9 16  1  0  0  0  0
 10 13  1  0  0  0  0
 10 18  1  0  0  0  0
 10 40  1  0  0  0  0
 11 20  1  0  0  0  0
 11 46  1  0  0  0  0
 11 47  1  0  0  0  0
 12 34  1  0  0  0  0
 12 59  1  0  0  0  0
 12 60  1  0  0  0  0
 13 14  1  0  0  0  0
 13 15  1  0  0  0  0
 13 36  1  0  0  0  0
 14 37  1  0  0  0  0
 14 38  1  0  0  0  0
 16 17  1  0  0  0  0
 16 19  1  0  0  0  0
 16 39  1  0  0  0  0
 17 21  2  0  0  0  0
 17 22  1  0  0  0  0
 18 20  1  0  0  0  0
 20 23  1  0  0  0  0
 20 41  1  0  0  0  0
 21 24  1  0  0  0  0
 21 42  1  0  0  0  0
 22 25  2  0  0  0  0
 22 43  1  0  0  0  0
 23 27  2  0  0  0  0
 23 28  1  0  0  0  0
 24 26  2  0  0  0  0
 24 44  1  0  0  0  0
 25 26  1  0  0  0  0
 25 45  1  0  0  0  0
 27 29  1  0  0  0  0
 27 49  1  0  0  0  0
 28 30  2  0  0  0  0
 28 50  1  0  0  0  0
 29 31  2  0  0  0  0
 29 51  1  0  0  0  0
 30 31  1  0  0  0  0
 30 52  1  0  0  0  0
 32 33  1  0  0  0  0
 32 34  1  0  0  0  0
 32 53  1  0  0  0  0
 32 54  1  0  0  0  0
 33 55  1  0  0  0  0
 33 56  1  0  0  0  0
 34 35  1  0  0  0  0
 34 57  1  0  0  0  0
M  END
> <PUBCHEM_COMPOUND_CID>
13770100

> <PUBCHEM_CONFORMER_RMSD>
1.2

> <PUBCHEM_CONFORMER_DIVERSEORDER>
1
13
51
25
7
49
44
78
57
75
20
60
5
38
61
43
50
22
77
34
52
14
80
37
54
76
35
47
27
66
55
26
59
32
46
42
69
33
12
36
45
9
39
74
79
15
62
53
29
40
63
21
4
41
48
65
30
3
67
72
68
70
8
58
73
11
28
31
17
71
18
56
64
19
16
23
24
2
10
6

> <PUBCHEM_MMFF94_PARTIAL_CHARGES>
50
1 -0.57
10 -0.65
11 -0.99
12 -0.99
13 0.28
14 0.22
15 0.58
16 0.5
17 -0.14
18 0.57
19 0.66
2 -0.65
20 0.47
21 -0.15
22 -0.15
23 -0.14
24 -0.15
25 -0.15
26 0.08
27 -0.15
28 -0.15
29 -0.15
3 -0.57
30 -0.15
31 0.08
33 0.28
34 0.33
35 0.66
4 -0.57
40 0.37
42 0.15
43 0.15
44 0.15
45 0.15
46 0.36
47 0.36
48 0.5
49 0.15
5 -0.36
50 0.15
51 0.15
52 0.15
58 0.45
59 0.36
6 -0.53
60 0.36
61 0.5
7 -0.65
8 -0.57
9 -0.59

> <PUBCHEM_EFFECTIVE_ROTOR_COUNT>
12.6

> <PUBCHEM_PHARMACOPHORE_FEATURES>
18
1 1 acceptor
1 10 donor
1 11 cation
1 11 donor
1 12 cation
1 12 donor
1 2 acceptor
1 3 acceptor
1 4 acceptor
1 5 acceptor
1 6 donor
1 7 acceptor
1 8 acceptor
3 2 4 19 anion
3 7 8 35 anion
4 9 13 14 15 rings
6 17 21 22 24 25 26 rings
6 23 27 28 29 30 31 rings

> <PUBCHEM_HEAVY_ATOM_COUNT>
35

> <PUBCHEM_ATOM_DEF_STEREO_COUNT>
4

> <PUBCHEM_ATOM_UDEF_STEREO_COUNT>
0

> <PUBCHEM_BOND_DEF_STEREO_COUNT>
0

> <PUBCHEM_BOND_UDEF_STEREO_COUNT>
0

> <PUBCHEM_ISOTOPIC_ATOM_COUNT>
0

> <PUBCHEM_COMPONENT_COUNT>
1

> <PUBCHEM_CACTVS_TAUTO_COUNT>
4

> <PUBCHEM_CONFORMER_ID>
00D21D7400000001

> <PUBCHEM_MMFF94_ENERGY>
80.534

> <PUBCHEM_FEATURE_SELFOVERLAP>
91.457

> <PUBCHEM_SHAPE_FINGERPRINT>
10675989 125 18049167666219996137
10928967 22 18194949953908790929
1361 2 18196371425333978153
14904385 45 18412823586702192515
15264996 163 18197496440229605445
15351339 4 18269843008204408387
15968369 26 17979648835629100649
17138139 8 18337936974957297868
19311894 1 17975124650334581950
20764821 26 18199727263306621976
20775438 99 18048045064409914071
20775530 9 18410018758066400713
21133410 171 17768291051330882979
3246872 21 18340204218771720346
437795 70 18116969188006123662
44344687 77 17038393095449261615
463206 1 18339633529530097641
5309563 4 18338793524105813785
7970288 3 18335416902195055021
86090 222 18124878950276190049

> <PUBCHEM_SHAPE_MULTIPOLES>
653.41
12.48
7.64
1.93
9.75
4.01
-0.1
-10.87
5.88
0.37
-2.4
-0.16
-1.21
-2.95

> <PUBCHEM_SHAPE_SELFOVERLAP>
1385.909

> <PUBCHEM_SHAPE_VOLUME>
361.4

> <PUBCHEM_COORDINATE_TYPE>
2
5
10

$$$$

