5232
  -OEChem-06261200352D

 35 34  0     1  0  0  0  0  0999 V2000
    8.9282    0.8100    0.0000 S   0  0  0  0  0  0  0  0  0  0  0  0
    6.3301   -1.6900    0.0000 O   0  0  0  0  0  0  0  0  0  0  0  0
    5.4641   -1.1900    0.0000 O   0  0  0  0  0  0  0  0  0  0  0  0
    8.0622   -1.6900    0.0000 O   0  0  0  0  0  0  0  0  0  0  0  0
    9.7942    2.3100    0.0000 O   0  0  0  0  0  0  0  0  0  0  0  0
    6.3301    0.3100    0.0000 N   0  0  0  0  0  0  0  0  0  0  0  0
    8.9282    1.8100    0.0000 N   0  0  0  0  0  0  0  0  0  0  0  0
    8.0622    0.3100    0.0000 C   0  0  0  0  0  0  0  0  0  0  0  0
    7.1962   -0.1900    0.0000 C   0  0  3  0  0  0  0  0  0  0  0  0
    8.5622   -0.5560    0.0000 C   0  0  0  0  0  0  0  0  0  0  0  0
    7.5622    1.1760    0.0000 C   0  0  0  0  0  0  0  0  0  0  0  0
    4.5981    0.3100    0.0000 C   0  0  0  0  0  0  0  0  0  0  0  0
    5.4641   -0.1900    0.0000 C   0  0  0  0  0  0  0  0  0  0  0  0
    3.7320   -0.1900    0.0000 C   0  0  0  0  0  0  0  0  0  0  0  0
    7.1962   -1.1900    0.0000 C   0  0  0  0  0  0  0  0  0  0  0  0
    2.8660    0.3100    0.0000 C   0  0  0  0  0  0  0  0  0  0  0  0
    2.0000   -0.1900    0.0000 C   0  0  0  0  0  0  0  0  0  0  0  0
    6.4600   -0.6150    0.0000 H   0  0  0  0  0  0  0  0  0  0  0  0
    8.0252   -0.8660    0.0000 H   0  0  0  0  0  0  0  0  0  0  0  0
    8.8722   -1.0930    0.0000 H   0  0  0  0  0  0  0  0  0  0  0  0
    9.0991   -0.2460    0.0000 H   0  0  0  0  0  0  0  0  0  0  0  0
    8.0991    1.4860    0.0000 H   0  0  0  0  0  0  0  0  0  0  0  0
    7.2522    1.7130    0.0000 H   0  0  0  0  0  0  0  0  0  0  0  0
    7.0252    0.8660    0.0000 H   0  0  0  0  0  0  0  0  0  0  0  0
    6.3301    0.9300    0.0000 H   0  0  0  0  0  0  0  0  0  0  0  0
    4.9966    0.7849    0.0000 H   0  0  0  0  0  0  0  0  0  0  0  0
    4.1996    0.7849    0.0000 H   0  0  0  0  0  0  0  0  0  0  0  0
    3.3335   -0.6649    0.0000 H   0  0  0  0  0  0  0  0  0  0  0  0
    4.1306   -0.6649    0.0000 H   0  0  0  0  0  0  0  0  0  0  0  0
    3.2646    0.7849    0.0000 H   0  0  0  0  0  0  0  0  0  0  0  0
    2.4675    0.7849    0.0000 H   0  0  0  0  0  0  0  0  0  0  0  0
    1.6900    0.3469    0.0000 H   0  0  0  0  0  0  0  0  0  0  0  0
    1.4631   -0.5000    0.0000 H   0  0  0  0  0  0  0  0  0  0  0  0
    2.3100   -0.7269    0.0000 H   0  0  0  0  0  0  0  0  0  0  0  0
    6.3301   -2.3100    0.0000 H   0  0  0  0  0  0  0  0  0  0  0  0
  1  7  1  0  0  0  0
  1  8  1  0  0  0  0
  2 15  1  0  0  0  0
  2 35  1  0  0  0  0
  3 13  2  0  0  0  0
  4 15  2  0  0  0  0
  5  7  2  0  0  0  0
  6  9  1  0  0  0  0
  6 13  1  0  0  0  0
  6 25  1  0  0  0  0
  8  9  1  0  0  0  0
  8 10  1  0  0  0  0
  8 11  1  0  0  0  0
  9 15  1  0  0  0  0
  9 18  1  0  0  0  0
 10 19  1  0  0  0  0
 10 20  1  0  0  0  0
 10 21  1  0  0  0  0
 11 22  1  0  0  0  0
 11 23  1  0  0  0  0
 11 24  1  0  0  0  0
 12 13  1  0  0  0  0
 12 14  1  0  0  0  0
 12 26  1  0  0  0  0
 12 27  1  0  0  0  0
 14 16  1  0  0  0  0
 14 28  1  0  0  0  0
 14 29  1  0  0  0  0
 16 17  1  0  0  0  0
 16 30  1  0  0  0  0
 16 31  1  0  0  0  0
 17 32  1  0  0  0  0
 17 33  1  0  0  0  0
 17 34  1  0  0  0  0
M  END
> <PUBCHEM_COMPOUND_CID>
5232

> <PUBCHEM_COMPOUND_CANONICALIZED>
1

> <PUBCHEM_CACTVS_COMPLEXITY>
294

> <PUBCHEM_CACTVS_HBOND_ACCEPTOR>
6

> <PUBCHEM_CACTVS_HBOND_DONOR>
2

> <PUBCHEM_CACTVS_ROTATABLE_BOND>
7

> <PUBCHEM_CACTVS_SUBSKEYS>
AAADceBzOABAAAAAAAAAAAAAAAAAAAAAAAAAAAAAAAAAAAAAAAAAHgQUSAAADCjBwAQCCALAAgAJAAGQGAAAAAAAAAAAAIGIAAACABIAgCAEQAAEFgCQAAAYAAAIAAAAAAAAAAAAAAAAAAAAAAAAAAAAAA==

> <PUBCHEM_IUPAC_OPENEYE_NAME>
3-methyl-3-nitrososulfanyl-2-(pentanoylamino)butanoic acid

> <PUBCHEM_IUPAC_CAS_NAME>
3-methyl-3-(nitrosothio)-2-(1-oxopentylamino)butanoic acid

> <PUBCHEM_IUPAC_NAME>
3-methyl-3-nitrososulfanyl-2-(pentanoylamino)butanoic acid

> <PUBCHEM_IUPAC_SYSTEMATIC_NAME>
3-methyl-3-nitrososulfanyl-2-(pentanoylamino)butanoic acid

> <PUBCHEM_IUPAC_TRADITIONAL_NAME>
3-methyl-3-(nitrosothio)-2-(valerylamino)butyric acid

> <PUBCHEM_IUPAC_INCHI>
InChI=1S/C10H18N2O4S/c1-4-5-6-7(13)11-8(9(14)15)10(2,3)17-12-16/h8H,4-6H2,1-3H3,(H,11,13)(H,14,15)

> <PUBCHEM_IUPAC_INCHIKEY>
QCRZCAKMRYXQNT-UHFFFAOYSA-N

> <PUBCHEM_XLOGP3_AA>
1.1

> <PUBCHEM_EXACT_MASS>
262.098728

> <PUBCHEM_MOLECULAR_FORMULA>
C10H18N2O4S

> <PUBCHEM_MOLECULAR_WEIGHT>
262.32592

> <PUBCHEM_OPENEYE_CAN_SMILES>
CCCCC(=O)NC(C(=O)O)C(C)(C)SN=O

> <PUBCHEM_OPENEYE_ISO_SMILES>
CCCCC(=O)NC(C(=O)O)C(C)(C)SN=O

> <PUBCHEM_CACTVS_TPSA>
121

> <PUBCHEM_MONOISOTOPIC_WEIGHT>
262.098728

> <PUBCHEM_TOTAL_CHARGE>
0

> <PUBCHEM_HEAVY_ATOM_COUNT>
17

> <PUBCHEM_ATOM_DEF_STEREO_COUNT>
0

> <PUBCHEM_ATOM_UDEF_STEREO_COUNT>
1

> <PUBCHEM_BOND_DEF_STEREO_COUNT>
0

> <PUBCHEM_BOND_UDEF_STEREO_COUNT>
0

> <PUBCHEM_ISOTOPIC_ATOM_COUNT>
0

> <PUBCHEM_COMPONENT_COUNT>
1

> <PUBCHEM_CACTVS_TAUTO_COUNT>
2

> <PUBCHEM_COORDINATE_TYPE>
1
5
255

> <PUBCHEM_BONDANNOTATIONS>
9  18  3

$$$$

