17395973
  -OEChem-06241222532D

 61 63  0     1  0  0  0  0  0999 V2000
    7.1962   -2.7215    0.0000 S   0  0  0  0  0  0  0  0  0  0  0  0
    9.4018    2.1900    0.0000 F   0  0  0  0  0  0  0  0  0  0  0  0
    3.7320   -0.7215    0.0000 O   0  0  0  0  0  0  0  0  0  0  0  0
    5.6915    2.4421    0.0000 O   0  0  0  0  0  0  0  0  0  0  0  0
    8.9073    1.0103    0.0000 O   0  0  0  0  0  0  0  0  0  0  0  0
    6.6962   -3.5876    0.0000 O   0  0  0  0  0  0  0  0  0  0  0  0
    7.6962   -1.8555    0.0000 O   0  0  0  0  0  0  0  0  0  0  0  0
    5.4641    0.2785    0.0000 N   0  0  0  0  0  0  0  0  0  0  0  0
    7.4128    1.9809    0.0000 N   0  0  0  0  0  0  0  0  0  0  0  0
    8.0622   -3.2215    0.0000 N   0  0  0  0  0  0  0  0  0  0  0  0
    6.3301    0.7785    0.0000 C   0  0  3  0  0  0  0  0  0  0  0  0
    7.2437    0.3717    0.0000 C   0  0  0  0  0  0  0  0  0  0  0  0
    6.4347    1.7730    0.0000 C   0  0  0  0  0  0  0  0  0  0  0  0
    7.9128    1.1149    0.0000 C   0  0  0  0  0  0  0  0  0  0  0  0
    5.4641   -0.7215    0.0000 C   0  0  0  0  0  0  0  0  0  0  0  0
    6.3301   -2.2215    0.0000 C   0  0  0  0  0  0  0  0  0  0  0  0
    6.3301   -1.2215    0.0000 C   0  0  0  0  0  0  0  0  0  0  0  0
    4.5981   -1.2215    0.0000 C   0  0  0  0  0  0  0  0  0  0  0  0
    7.8195    2.8944    0.0000 C   0  0  0  0  0  0  0  0  0  0  0  0
    5.4641   -2.7215    0.0000 C   0  0  0  0  0  0  0  0  0  0  0  0
    8.0622   -4.2215    0.0000 C   0  0  0  0  0  0  0  0  0  0  0  0
    8.9282   -2.7215    0.0000 C   0  0  0  0  0  0  0  0  0  0  0  0
    4.5981   -2.2215    0.0000 C   0  0  0  0  0  0  0  0  0  0  0  0
    2.8660   -1.2215    0.0000 C   0  0  0  0  0  0  0  0  0  0  0  0
    8.8141    2.9990    0.0000 C   0  0  0  0  0  0  0  0  0  0  0  0
    7.2318    3.7035    0.0000 C   0  0  0  0  0  0  0  0  0  0  0  0
    8.9282   -4.7215    0.0000 C   0  0  0  0  0  0  0  0  0  0  0  0
    9.7942   -3.2215    0.0000 C   0  0  0  0  0  0  0  0  0  0  0  0
    9.2208    3.9125    0.0000 C   0  0  0  0  0  0  0  0  0  0  0  0
    7.6385    4.6170    0.0000 C   0  0  0  0  0  0  0  0  0  0  0  0
    2.0000   -0.7215    0.0000 C   0  0  0  0  0  0  0  0  0  0  0  0
    2.8660   -2.2215    0.0000 C   0  0  0  0  0  0  0  0  0  0  0  0
    8.6330    4.7215    0.0000 C   0  0  0  0  0  0  0  0  0  0  0  0
    5.8102    1.1161    0.0000 H   0  0  0  0  0  0  0  0  0  0  0  0
    6.9337   -0.1652    0.0000 H   0  0  0  0  0  0  0  0  0  0  0  0
    7.7453    0.0073    0.0000 H   0  0  0  0  0  0  0  0  0  0  0  0
    4.9272    0.5885    0.0000 H   0  0  0  0  0  0  0  0  0  0  0  0
    6.8671   -0.9115    0.0000 H   0  0  0  0  0  0  0  0  0  0  0  0
    5.4641   -3.3415    0.0000 H   0  0  0  0  0  0  0  0  0  0  0  0
    9.3267   -2.2466    0.0000 H   0  0  0  0  0  0  0  0  0  0  0  0
    8.5297   -2.2466    0.0000 H   0  0  0  0  0  0  0  0  0  0  0  0
    7.4516   -4.1139    0.0000 H   0  0  0  0  0  0  0  0  0  0  0  0
    7.8501   -4.8041    0.0000 H   0  0  0  0  0  0  0  0  0  0  0  0
    4.0611   -2.5315    0.0000 H   0  0  0  0  0  0  0  0  0  0  0  0
    2.8660   -0.6015    0.0000 H   0  0  0  0  0  0  0  0  0  0  0  0
    6.6152    3.6386    0.0000 H   0  0  0  0  0  0  0  0  0  0  0  0
    8.6182   -5.2585    0.0000 H   0  0  0  0  0  0  0  0  0  0  0  0
    9.4842   -3.7585    0.0000 H   0  0  0  0  0  0  0  0  0  0  0  0
   10.3312   -3.5315    0.0000 H   0  0  0  0  0  0  0  0  0  0  0  0
   10.1042   -2.6846    0.0000 H   0  0  0  0  0  0  0  0  0  0  0  0
    9.4651   -5.0315    0.0000 H   0  0  0  0  0  0  0  0  0  0  0  0
    9.2382   -4.1846    0.0000 H   0  0  0  0  0  0  0  0  0  0  0  0
    9.8374    3.9773    0.0000 H   0  0  0  0  0  0  0  0  0  0  0  0
    7.2741    5.1186    0.0000 H   0  0  0  0  0  0  0  0  0  0  0  0
    2.3100   -0.1846    0.0000 H   0  0  0  0  0  0  0  0  0  0  0  0
    1.4631   -0.4115    0.0000 H   0  0  0  0  0  0  0  0  0  0  0  0
    1.6900   -1.2585    0.0000 H   0  0  0  0  0  0  0  0  0  0  0  0
    2.2460   -2.2215    0.0000 H   0  0  0  0  0  0  0  0  0  0  0  0
    2.8660   -2.8415    0.0000 H   0  0  0  0  0  0  0  0  0  0  0  0
    3.4860   -2.2215    0.0000 H   0  0  0  0  0  0  0  0  0  0  0  0
    8.8852    5.2879    0.0000 H   0  0  0  0  0  0  0  0  0  0  0  0
  1  6  2  0  0  0  0
  1  7  2  0  0  0  0
  1 10  1  0  0  0  0
  1 16  1  0  0  0  0
  2 25  1  0  0  0  0
  3 18  1  0  0  0  0
  3 24  1  0  0  0  0
  4 13  2  0  0  0  0
  5 14  2  0  0  0  0
  8 11  1  0  0  0  0
  8 15  1  0  0  0  0
  8 37  1  0  0  0  0
  9 13  1  0  0  0  0
  9 14  1  0  0  0  0
  9 19  1  0  0  0  0
 10 21  1  0  0  0  0
 10 22  1  0  0  0  0
 11 12  1  0  0  0  0
 11 13  1  0  0  0  0
 11 34  1  0  0  0  0
 12 14  1  0  0  0  0
 12 35  1  0  0  0  0
 12 36  1  0  0  0  0
 15 17  1  0  0  0  0
 15 18  2  0  0  0  0
 16 17  2  0  0  0  0
 16 20  1  0  0  0  0
 17 38  1  0  0  0  0
 18 23  1  0  0  0  0
 19 25  1  0  0  0  0
 19 26  2  0  0  0  0
 20 23  2  0  0  0  0
 20 39  1  0  0  0  0
 21 27  1  0  0  0  0
 21 42  1  0  0  0  0
 21 43  1  0  0  0  0
 22 28  1  0  0  0  0
 22 40  1  0  0  0  0
 22 41  1  0  0  0  0
 23 44  1  0  0  0  0
 24 31  1  0  0  0  0
 24 32  1  0  0  0  0
 24 45  1  0  0  0  0
 25 29  2  0  0  0  0
 26 30  1  0  0  0  0
 26 46  1  0  0  0  0
 27 47  1  0  0  0  0
 27 51  1  0  0  0  0
 27 52  1  0  0  0  0
 28 48  1  0  0  0  0
 28 49  1  0  0  0  0
 28 50  1  0  0  0  0
 29 33  1  0  0  0  0
 29 53  1  0  0  0  0
 30 33  2  0  0  0  0
 30 54  1  0  0  0  0
 31 55  1  0  0  0  0
 31 56  1  0  0  0  0
 31 57  1  0  0  0  0
 32 58  1  0  0  0  0
 32 59  1  0  0  0  0
 32 60  1  0  0  0  0
 33 61  1  0  0  0  0
M  END
> <PUBCHEM_COMPOUND_CID>
17395973

> <PUBCHEM_COMPOUND_CANONICALIZED>
1

> <PUBCHEM_CACTVS_COMPLEXITY>
798

> <PUBCHEM_CACTVS_HBOND_ACCEPTOR>
8

> <PUBCHEM_CACTVS_HBOND_DONOR>
1

> <PUBCHEM_CACTVS_ROTATABLE_BOND>
9

> <PUBCHEM_CACTVS_SUBSKEYS>
AAADceB7OQBAAAAAAAAAAAAAAAAAAWAAAAAwYAAAAAAAAAABQAAAHwQQQAAACDzh0A4yx4PABAKIACVSUHDCCBAhIgAIiJmPbIgOZjrE8buXOCzk1DHY6AeVQAAAAIAAACAAEAABAAAAQAAgAAAAAAAAAA==

> <PUBCHEM_IUPAC_OPENEYE_NAME>
N,N-diethyl-3-[[1-(2-fluorophenyl)-2,5-dioxo-pyrrolidin-3-yl]amino]-4-isopropoxy-benzenesulfonamide

> <PUBCHEM_IUPAC_CAS_NAME>
N,N-diethyl-3-[[1-(2-fluorophenyl)-2,5-dioxo-3-pyrrolidinyl]amino]-4-propan-2-yloxybenzenesulfonamide

> <PUBCHEM_IUPAC_NAME>
N,N-diethyl-3-[[1-(2-fluorophenyl)-2,5-dioxopyrrolidin-3-yl]amino]-4-propan-2-yloxybenzenesulfonamide

> <PUBCHEM_IUPAC_SYSTEMATIC_NAME>
N,N-diethyl-3-[[1-(2-fluorophenyl)-2,5-bis(oxidanylidene)pyrrolidin-3-yl]amino]-4-propan-2-yloxy-benzenesulfonamide

> <PUBCHEM_IUPAC_TRADITIONAL_NAME>
N,N-diethyl-3-[[1-(2-fluorophenyl)-2,5-diketo-pyrrolidin-3-yl]amino]-4-isopropoxy-benzenesulfonamide

> <PUBCHEM_IUPAC_INCHI>
InChI=1S/C23H28FN3O5S/c1-5-26(6-2)33(30,31)16-11-12-21(32-15(3)4)18(13-16)25-19-14-22(28)27(23(19)29)20-10-8-7-9-17(20)24/h7-13,15,19,25H,5-6,14H2,1-4H3

> <PUBCHEM_IUPAC_INCHIKEY>
XUZVLXHQFZILQW-UHFFFAOYSA-N

> <PUBCHEM_XLOGP3_AA>
3.3

> <PUBCHEM_EXACT_MASS>
477.17337

> <PUBCHEM_MOLECULAR_FORMULA>
C23H28FN3O5S

> <PUBCHEM_MOLECULAR_WEIGHT>
477.548923

> <PUBCHEM_OPENEYE_CAN_SMILES>
CCN(CC)S(=O)(=O)C1=CC(=C(C=C1)OC(C)C)NC2CC(=O)N(C2=O)C3=CC=CC=C3F

> <PUBCHEM_OPENEYE_ISO_SMILES>
CCN(CC)S(=O)(=O)C1=CC(=C(C=C1)OC(C)C)NC2CC(=O)N(C2=O)C3=CC=CC=C3F

> <PUBCHEM_CACTVS_TPSA>
104

> <PUBCHEM_MONOISOTOPIC_WEIGHT>
477.17337

> <PUBCHEM_TOTAL_CHARGE>
0

> <PUBCHEM_HEAVY_ATOM_COUNT>
33

> <PUBCHEM_ATOM_DEF_STEREO_COUNT>
0

> <PUBCHEM_ATOM_UDEF_STEREO_COUNT>
1

> <PUBCHEM_BOND_DEF_STEREO_COUNT>
0

> <PUBCHEM_BOND_UDEF_STEREO_COUNT>
0

> <PUBCHEM_ISOTOPIC_ATOM_COUNT>
0

> <PUBCHEM_COMPONENT_COUNT>
1

> <PUBCHEM_CACTVS_TAUTO_COUNT>
7

> <PUBCHEM_COORDINATE_TYPE>
1
5
255

> <PUBCHEM_BONDANNOTATIONS>
15  17  8
15  18  8
16  17  8
16  20  8
18  23  8
19  25  8
19  26  8
20  23  8
25  29  8
26  30  8
29  33  8
30  33  8
11  8  3

$$$$

