24781
  -OEChem-07051213013D

 12 12  0     0  0  0  0  0  0999 V2000
   -0.7000   -1.1864   -0.0002 O   0  0  0  0  0  0  0  0  0  0  0  0
    2.3245    0.5343    0.0009 O   0  0  0  0  0  0  0  0  0  0  0  0
    0.7114   -1.1573    0.0001 N   0  0  0  0  0  0  0  0  0  0  0  0
   -1.0293    0.1605   -0.0004 C   0  0  0  0  0  0  0  0  0  0  0  0
   -0.0038    1.0091   -0.0009 C   0  0  0  0  0  0  0  0  0  0  0  0
    1.1716    0.1379   -0.0004 C   0  0  0  0  0  0  0  0  0  0  0  0
   -2.4743    0.5019    0.0009 C   0  0  0  0  0  0  0  0  0  0  0  0
   -0.0048    2.0839   -0.0007 H   0  0  0  0  0  0  0  0  0  0  0  0
   -2.6333    1.5851    0.0012 H   0  0  0  0  0  0  0  0  0  0  0  0
   -2.9621    0.0880    0.8888 H   0  0  0  0  0  0  0  0  0  0  0  0
   -2.9634    0.0883   -0.8866 H   0  0  0  0  0  0  0  0  0  0  0  0
    1.2287   -2.0269    0.0013 H   0  0  0  0  0  0  0  0  0  0  0  0
  1  3  1  0  0  0  0
  1  4  1  0  0  0  0
  2  6  2  0  0  0  0
  3  6  1  0  0  0  0
  3 12  1  0  0  0  0
  4  5  2  0  0  0  0
  4  7  1  0  0  0  0
  5  6  1  0  0  0  0
  5  8  1  0  0  0  0
  7  9  1  0  0  0  0
  7 10  1  0  0  0  0
  7 11  1  0  0  0  0
M  END
> <PUBCHEM_COMPOUND_CID>
24781

> <PUBCHEM_CONFORMER_RMSD>
0.4

> <PUBCHEM_CONFORMER_DIVERSEORDER>
1

> <PUBCHEM_MMFF94_PARTIAL_CHARGES>
9
1 -0.11
12 0.37
2 -0.57
3 -0.39
4 -0.06
5 -0.14
6 0.62
7 0.14
8 0.15

> <PUBCHEM_EFFECTIVE_ROTOR_COUNT>
0

> <PUBCHEM_PHARMACOPHORE_FEATURES>
3
1 2 acceptor
1 3 donor
5 1 3 4 5 6 rings

> <PUBCHEM_HEAVY_ATOM_COUNT>
7

> <PUBCHEM_ATOM_DEF_STEREO_COUNT>
0

> <PUBCHEM_ATOM_UDEF_STEREO_COUNT>
0

> <PUBCHEM_BOND_DEF_STEREO_COUNT>
0

> <PUBCHEM_BOND_UDEF_STEREO_COUNT>
0

> <PUBCHEM_ISOTOPIC_ATOM_COUNT>
0

> <PUBCHEM_COMPONENT_COUNT>
1

> <PUBCHEM_CACTVS_TAUTO_COUNT>
2

> <PUBCHEM_CONFORMER_ID>
000060CD00000001

> <PUBCHEM_MMFF94_ENERGY>
6.9009

> <PUBCHEM_FEATURE_SELFOVERLAP>
15.223

> <PUBCHEM_SHAPE_FINGERPRINT>
16714656 1 18412540994395174524
20096714 4 18410293601096531137
21040471 1 18410573985172602113
29004967 10 18059847398358195545
5460574 1 9295289443392439777

> <PUBCHEM_SHAPE_MULTIPOLES>
127.34
2.69
1.14
0.58
0.43
0.22
0
-0.59
0
-0.06
0
0.04
-0.03
0

> <PUBCHEM_SHAPE_SELFOVERLAP>
258.719

> <PUBCHEM_SHAPE_VOLUME>
75.8

> <PUBCHEM_COORDINATE_TYPE>
2
5
10

$$$$

