561
  -OEChem-07051213073D

 25 24  0     0  0  0  0  0  0999 V2000
    4.1145   -1.8459   -0.0269 S   0  0  0  0  0  0  0  0  0  0  0  0
   -3.4862   -0.7255    0.0078 P   0  0  0  0  0  0  0  0  0  0  0  0
   -2.3834    0.4614    0.0097 O   0  0  0  0  0  0  0  0  0  0  0  0
    2.0034    2.2399    0.0031 O   0  0  0  0  0  0  0  0  0  0  0  0
   -0.6215    2.4968    0.0146 O   0  0  0  0  0  0  0  0  0  0  0  0
   -3.0479   -1.6578    1.2542 O   0  0  0  0  0  0  0  0  0  0  0  0
   -3.0680   -1.6075   -1.2815 O   0  0  0  0  0  0  0  0  0  0  0  0
   -4.9138   -0.2628    0.0232 O   0  0  0  0  0  0  0  0  0  0  0  0
    1.9225   -0.1867   -0.0272 C   0  0  0  0  0  0  0  0  0  0  0  0
    3.4471   -0.1583   -0.0127 C   0  0  0  0  0  0  0  0  0  0  0  0
    1.3409    1.2102   -0.0064 C   0  0  0  0  0  0  0  0  0  0  0  0
   -0.1680    1.3596    0.0003 C   0  0  0  0  0  0  0  0  0  0  0  0
   -1.0126    0.1109   -0.0042 C   0  0  0  0  0  0  0  0  0  0  0  0
    5.8730   -1.4343    0.0459 C   0  0  0  0  0  0  0  0  0  0  0  0
    1.5675   -0.6887   -0.9340 H   0  0  0  0  0  0  0  0  0  0  0  0
    1.5539   -0.7210    0.8553 H   0  0  0  0  0  0  0  0  0  0  0  0
    3.8234    0.3814   -0.8884 H   0  0  0  0  0  0  0  0  0  0  0  0
    3.8048    0.3594    0.8840 H   0  0  0  0  0  0  0  0  0  0  0  0
   -0.7832   -0.4748    0.8894 H   0  0  0  0  0  0  0  0  0  0  0  0
   -0.7955   -0.4596   -0.9107 H   0  0  0  0  0  0  0  0  0  0  0  0
    6.1611   -0.8372   -0.8232 H   0  0  0  0  0  0  0  0  0  0  0  0
    6.4593   -2.3571    0.0427 H   0  0  0  0  0  0  0  0  0  0  0  0
    6.0982   -0.8833    0.9627 H   0  0  0  0  0  0  0  0  0  0  0  0
   -3.6168   -2.4176    1.5016 H   0  0  0  0  0  0  0  0  0  0  0  0
   -3.6475   -2.3493   -1.5571 H   0  0  0  0  0  0  0  0  0  0  0  0
  1 10  1  0  0  0  0
  1 14  1  0  0  0  0
  2  3  1  0  0  0  0
  2  6  1  0  0  0  0
  2  7  1  0  0  0  0
  2  8  2  0  0  0  0
  3 13  1  0  0  0  0
  4 11  2  0  0  0  0
  5 12  2  0  0  0  0
  6 24  1  0  0  0  0
  7 25  1  0  0  0  0
  9 10  1  0  0  0  0
  9 11  1  0  0  0  0
  9 15  1  0  0  0  0
  9 16  1  0  0  0  0
 10 17  1  0  0  0  0
 10 18  1  0  0  0  0
 11 12  1  0  0  0  0
 12 13  1  0  0  0  0
 13 19  1  0  0  0  0
 13 20  1  0  0  0  0
 14 21  1  0  0  0  0
 14 22  1  0  0  0  0
 14 23  1  0  0  0  0
M  END
> <PUBCHEM_COMPOUND_CID>
561

> <PUBCHEM_CONFORMER_RMSD>
0.8

> <PUBCHEM_CONFORMER_DIVERSEORDER>
1
304
49
292
61
279
217
78
247
46
277
6
259
11
143
246
205
204
137
249
142
299
273
153
179
4
248
15
80
230
250
235
67
96
266
93
176
139
10
5
290
218
167
233
14
307
267
3
178
243
256
107
180
29
171
281
220
208
269
156
232
253
215
251
28
25
195
188
198
76
193
52
162
287
293
12
223
189
47
296
272
163
190
16
186
70
211
134
110
182
311
60
136
13
286
257
24
226
140
2
196
83
221
108
57
135
40
278
121
206
157
21
74
158
289
117
297
111
306
44
244
103
68
219
161
258
152
130
263
240
87
30
165
92
229
133
237
154
54
270
212
31
207
260
118
294
231
187
115
112
224
312
280
18
177
132
285
41
169
126
305
104
55
183
116
201
101
301
22
73
35
181
295
42
19
89
45
236
222
66
63
26
160
88
27
77
284
194
39
7
148
274
141
58
59
310
242
97
313
265
164
254
184
90
36
86
261
216
308
214
225
91
166
268
124
32
65
283
94
262
62
210
122
298
245
71
175
38
37
99
271
300
239
145
149
228
264
113
50
200
288
276
105
72
203
192
82
125
79
8
85
33
106
56
144
168
252
98
227
43
185
100
120
109
114
9
174
131
69
282
129
197
255
81
84
291
209
95
213
302
119
34
127
309
51
191
234
172
202
53
123
159
199
303
48
151
128
20
155
238
173
146
170
150
17
241
75
275
102
64
23
147
138

> <PUBCHEM_MMFF94_PARTIAL_CHARGES>
16
1 -0.46
10 0.23
11 0.51
12 0.51
13 0.34
14 0.23
2 1.51
24 0.5
25 0.5
3 -0.55
4 -0.57
5 -0.57
6 -0.77
7 -0.77
8 -0.7
9 0.06

> <PUBCHEM_EFFECTIVE_ROTOR_COUNT>
7

> <PUBCHEM_PHARMACOPHORE_FEATURES>
7
1 14 hydrophobe
1 4 acceptor
1 5 acceptor
1 6 acceptor
1 7 acceptor
1 8 acceptor
4 2 6 7 8 anion

> <PUBCHEM_HEAVY_ATOM_COUNT>
14

> <PUBCHEM_ATOM_DEF_STEREO_COUNT>
0

> <PUBCHEM_ATOM_UDEF_STEREO_COUNT>
0

> <PUBCHEM_BOND_DEF_STEREO_COUNT>
0

> <PUBCHEM_BOND_UDEF_STEREO_COUNT>
0

> <PUBCHEM_ISOTOPIC_ATOM_COUNT>
0

> <PUBCHEM_COMPONENT_COUNT>
1

> <PUBCHEM_CACTVS_TAUTO_COUNT>
4

> <PUBCHEM_CONFORMER_ID>
0000023100000001

> <PUBCHEM_MMFF94_ENERGY>
-16.33

> <PUBCHEM_FEATURE_SELFOVERLAP>
35.566

> <PUBCHEM_SHAPE_FINGERPRINT>
100836 57 8502364551732564930
10803635 8 17274832388531548586
11806522 49 18341894108836892044
12032990 46 18413386518726028056
12841375 25 18412263956425622700
14123255 352 8502366724806733594
14251710 61 18342452625629936882
14251731 8 18271810176345609909
14251752 14 17417539145061163181
15352361 1 18411418431915589994
17834072 8 18272660086334016517
18186145 218 17418101970703229697
20281475 54 18410849971534867668
20374829 77 18343022211371088506
20621476 91 18191612859647999162
20645477 70 18341337682342850375
20671657 53 18413665812107590564
20871998 22 18410296900006324688
20871999 31 18059578065396520564
221490 88 18271518685473509986
22485316 2 18334579005635947957
23402539 116 18271809081392732302
23403322 49 18342457066705339618
23559900 14 18272091561307563144
351380 3 18411702114532000962
4416823 128 18410855486293714888

> <PUBCHEM_SHAPE_MULTIPOLES>
260.6
10.42
2.32
0.77
5.27
0.91
-0.01
-8.01
0.09
0.44
0.01
-0.49
-0.34
-0.01

> <PUBCHEM_SHAPE_SELFOVERLAP>
470.072

> <PUBCHEM_SHAPE_VOLUME>
168.1

> <PUBCHEM_COORDINATE_TYPE>
2
5
10

$$$$

