10789
  -OEChem-07051213072D

 15 15  0     0  0  0  0  0  0999 V2000
    5.1906    0.2797    0.0000 O   0  0  0  0  0  0  0  0  0  0  0  0
    4.3802   -1.4031    0.0000 O   0  0  0  0  0  0  0  0  0  0  0  0
    4.1906    0.2797    0.0000 C   0  0  0  0  0  0  0  0  0  0  0  0
    3.7568   -0.6213    0.0000 C   0  0  0  0  0  0  0  0  0  0  0  0
    3.7568    1.1806    0.0000 C   0  0  0  0  0  0  0  0  0  0  0  0
    2.7818   -0.8438    0.0000 C   0  0  0  0  0  0  0  0  0  0  0  0
    2.7818    1.4031    0.0000 C   0  0  0  0  0  0  0  0  0  0  0  0
    2.0000   -0.2203    0.0000 C   0  0  0  0  0  0  0  0  0  0  0  0
    2.0000    0.7797    0.0000 C   0  0  0  0  0  0  0  0  0  0  0  0
    4.1433    1.6654    0.0000 H   0  0  0  0  0  0  0  0  0  0  0  0
    2.6439   -1.4483    0.0000 H   0  0  0  0  0  0  0  0  0  0  0  0
    2.6439    2.0076    0.0000 H   0  0  0  0  0  0  0  0  0  0  0  0
    1.4414   -0.4894    0.0000 H   0  0  0  0  0  0  0  0  0  0  0  0
    1.4414    1.0487    0.0000 H   0  0  0  0  0  0  0  0  0  0  0  0
    5.5006    0.8166    0.0000 H   0  0  0  0  0  0  0  0  0  0  0  0
  1  3  1  0  0  0  0
  1 15  1  0  0  0  0
  2  4  2  0  0  0  0
  3  4  1  0  0  0  0
  3  5  2  0  0  0  0
  4  6  1  0  0  0  0
  5  7  1  0  0  0  0
  5 10  1  0  0  0  0
  6  8  2  0  0  0  0
  6 11  1  0  0  0  0
  7  9  2  0  0  0  0
  7 12  1  0  0  0  0
  8  9  1  0  0  0  0
  8 13  1  0  0  0  0
  9 14  1  0  0  0  0
M  END
> <PUBCHEM_COMPOUND_CID>
10789

> <PUBCHEM_COMPOUND_CANONICALIZED>
1

> <PUBCHEM_CACTVS_COMPLEXITY>
209

> <PUBCHEM_CACTVS_HBOND_ACCEPTOR>
2

> <PUBCHEM_CACTVS_HBOND_DONOR>
1

> <PUBCHEM_CACTVS_ROTATABLE_BOND>
0

> <PUBCHEM_CACTVS_SUBSKEYS>
AAADcYBgMAAAAAAAAAAAAAAAAAAAAAAAAAAAAAAABAAAAAAAAAAAGgAACAAACASAgAAAAAAAAgCIAKBSAAIAAAAgIAAICABAAEgIAAAAAQAAQAAAQAAIgYIAAAAAAAAAAAAAAAAAAAAAAAAAAAAAAAAAAA==

> <PUBCHEM_IUPAC_OPENEYE_NAME>
2-hydroxycyclohepta-2,4,6-trien-1-one

> <PUBCHEM_IUPAC_CAS_NAME>
2-hydroxy-1-cyclohepta-2,4,6-trienone

> <PUBCHEM_IUPAC_NAME>
2-hydroxycyclohepta-2,4,6-trien-1-one

> <PUBCHEM_IUPAC_SYSTEMATIC_NAME>
2-oxidanylcyclohepta-2,4,6-trien-1-one

> <PUBCHEM_IUPAC_TRADITIONAL_NAME>
2-hydroxycyclohepta-2,4,6-trien-1-one

> <PUBCHEM_IUPAC_INCHI>
InChI=1S/C7H6O2/c8-6-4-2-1-3-5-7(6)9/h1-5H,(H,8,9)

> <PUBCHEM_IUPAC_INCHIKEY>
MDYOLVRUBBJPFM-UHFFFAOYSA-N

> <PUBCHEM_XLOGP3>
0.5

> <PUBCHEM_EXACT_MASS>
122.036779

> <PUBCHEM_MOLECULAR_FORMULA>
C7H6O2

> <PUBCHEM_MOLECULAR_WEIGHT>
122.12134

> <PUBCHEM_OPENEYE_CAN_SMILES>
C1=CC=C(C(=O)C=C1)O

> <PUBCHEM_OPENEYE_ISO_SMILES>
C1=CC=C(C(=O)C=C1)O

> <PUBCHEM_CACTVS_TPSA>
37.3

> <PUBCHEM_MONOISOTOPIC_WEIGHT>
122.036779

> <PUBCHEM_TOTAL_CHARGE>
0

> <PUBCHEM_HEAVY_ATOM_COUNT>
9

> <PUBCHEM_ATOM_DEF_STEREO_COUNT>
0

> <PUBCHEM_ATOM_UDEF_STEREO_COUNT>
0

> <PUBCHEM_BOND_DEF_STEREO_COUNT>
0

> <PUBCHEM_BOND_UDEF_STEREO_COUNT>
0

> <PUBCHEM_ISOTOPIC_ATOM_COUNT>
0

> <PUBCHEM_COMPONENT_COUNT>
1

> <PUBCHEM_CACTVS_TAUTO_COUNT>
3

> <PUBCHEM_COORDINATE_TYPE>
1
5
255

> <PUBCHEM_BONDANNOTATIONS>
3  4  8
3  5  8
4  6  8
5  7  8
6  8  8
7  9  8
8  9  8

$$$$

