17396144
  -OEChem-06241222543D

 38 40  0     1  0  0  0  0  0999 V2000
   -5.6539   -0.8428   -0.3105 Cl  0  0  0  0  0  0  0  0  0  0  0  0
    1.1181    3.1119   -0.6780 S   0  0  0  0  0  0  0  0  0  0  0  0
    2.7680    0.6518   -1.4922 O   0  0  0  0  0  0  0  0  0  0  0  0
    2.3125   -0.2486    0.6214 N   0  0  0  0  0  0  0  0  0  0  0  0
   -1.3225    1.9698   -1.1034 N   0  0  0  0  0  0  0  0  0  0  0  0
   -0.4515    1.4464    0.8784 N   0  0  0  0  0  0  0  0  0  0  0  0
   -2.2783    0.0420    1.6423 N   0  0  0  0  0  0  0  0  0  0  0  0
    2.4230    2.2376    0.2534 C   0  0  1  0  0  0  0  0  0  0  0  0
    2.5096    0.8091   -0.2939 C   0  0  0  0  0  0  0  0  0  0  0  0
    3.7408    2.9898    0.0718 C   0  0  0  0  0  0  0  0  0  0  0  0
    1.7688   -1.4978    0.1324 C   0  0  0  0  0  0  0  0  0  0  0  0
   -0.2705    2.1153   -0.2394 C   0  0  0  0  0  0  0  0  0  0  0  0
   -2.2410    1.1531   -0.5022 C   0  0  0  0  0  0  0  0  0  0  0  0
   -1.6745    0.8423    0.7289 C   0  0  0  0  0  0  0  0  0  0  0  0
    2.6373   -0.1324    2.0508 C   0  0  0  0  0  0  0  0  0  0  0  0
    0.8992   -1.5002   -0.9582 C   0  0  0  0  0  0  0  0  0  0  0  0
    2.1136   -2.6989    0.7520 C   0  0  0  0  0  0  0  0  0  0  0  0
   -3.4823    0.6586   -0.8874 C   0  0  0  0  0  0  0  0  0  0  0  0
    0.3747   -2.7038   -1.4293 C   0  0  0  0  0  0  0  0  0  0  0  0
    1.5890   -3.9024    0.2810 C   0  0  0  0  0  0  0  0  0  0  0  0
   -4.1145   -0.1648    0.0403 C   0  0  0  0  0  0  0  0  0  0  0  0
    0.7197   -3.9049   -0.8097 C   0  0  0  0  0  0  0  0  0  0  0  0
   -3.4853   -0.4311    1.2518 C   0  0  0  0  0  0  0  0  0  0  0  0
    2.1270    2.2720    1.3025 H   0  0  0  0  0  0  0  0  0  0  0  0
    4.0507    3.0325   -0.9788 H   0  0  0  0  0  0  0  0  0  0  0  0
    4.5412    2.4803    0.6202 H   0  0  0  0  0  0  0  0  0  0  0  0
    3.6747    4.0132    0.4569 H   0  0  0  0  0  0  0  0  0  0  0  0
   -1.4029    2.3903   -2.0195 H   0  0  0  0  0  0  0  0  0  0  0  0
    3.3648   -0.8960    2.3369 H   0  0  0  0  0  0  0  0  0  0  0  0
    1.7189   -0.2416    2.6345 H   0  0  0  0  0  0  0  0  0  0  0  0
    3.1082    0.8231    2.2868 H   0  0  0  0  0  0  0  0  0  0  0  0
    0.5868   -0.5861   -1.4528 H   0  0  0  0  0  0  0  0  0  0  0  0
    2.7971   -2.7487    1.5925 H   0  0  0  0  0  0  0  0  0  0  0  0
   -3.9204    0.9032   -1.8480 H   0  0  0  0  0  0  0  0  0  0  0  0
   -0.3073   -2.7054   -2.2747 H   0  0  0  0  0  0  0  0  0  0  0  0
    1.8596   -4.8384    0.7610 H   0  0  0  0  0  0  0  0  0  0  0  0
    0.3106   -4.8420   -1.1760 H   0  0  0  0  0  0  0  0  0  0  0  0
   -3.9613   -1.0720    1.9906 H   0  0  0  0  0  0  0  0  0  0  0  0
  1 21  1  0  0  0  0
  2  8  1  0  0  0  0
  2 12  1  0  0  0  0
  3  9  2  0  0  0  0
  4  9  1  0  0  0  0
  4 11  1  0  0  0  0
  4 15  1  0  0  0  0
  5 12  1  0  0  0  0
  5 13  1  0  0  0  0
  5 28  1  0  0  0  0
  6 12  2  0  0  0  0
  6 14  1  0  0  0  0
  7 14  1  0  0  0  0
  7 23  2  0  0  0  0
  8  9  1  0  0  0  0
  8 10  1  0  0  0  0
  8 24  1  0  0  0  0
 10 25  1  0  0  0  0
 10 26  1  0  0  0  0
 10 27  1  0  0  0  0
 11 16  2  0  0  0  0
 11 17  1  0  0  0  0
 13 14  2  0  0  0  0
 13 18  1  0  0  0  0
 15 29  1  0  0  0  0
 15 30  1  0  0  0  0
 15 31  1  0  0  0  0
 16 19  1  0  0  0  0
 16 32  1  0  0  0  0
 17 20  2  0  0  0  0
 17 33  1  0  0  0  0
 18 21  2  0  0  0  0
 18 34  1  0  0  0  0
 19 22  2  0  0  0  0
 19 35  1  0  0  0  0
 20 22  1  0  0  0  0
 20 36  1  0  0  0  0
 21 23  1  0  0  0  0
 22 37  1  0  0  0  0
 23 38  1  0  0  0  0
M  END
> <PUBCHEM_COMPOUND_CID>
17396144

> <PUBCHEM_CONFORMER_RMSD>
0.8

> <PUBCHEM_CONFORMER_DIVERSEORDER>
6
137
167
171
174
113
125
142
157
169
183
111
88
166
164
106
21
158
130
86
80
28
56
53
189
117
2
110
114
182
139
191
83
168
101
8
96
42
179
128
26
140
154
50
24
122
99
64
81
103
102
129
153
15
152
1
63
112
4
159
70
78
62
57
127
132
29
3
190
121
131
163
188
41
7
116
141
120
136
75
97
176
160
155
156
46
124
91
30
187
18
31
5
161
95
36
47
92
150
109
74
175
115
61
100
98
133
90
49
71
147
77
20
34
65
59
107
66
10
38
180
72
14
16
35
181
87
12
58
108
76
19
184
119
123
143
17
45
43
67
144
13
84
82
11
149
94
135
44
165
55
172
93
126
173
54
104
185
118
27
52
146
51
138
39
32
145
69
40
162
151
23
9
186
33
170
68
148
85
37
25
178
89
192
79
60
177
134
73
22
48
105

> <PUBCHEM_MMFF94_PARTIAL_CHARGES>
30
1 -0.18
11 0.12
12 0.24
13 -0.15
14 0.48
15 0.3
16 -0.15
17 -0.15
18 -0.15
19 -0.15
2 -0.29
20 -0.15
21 0.18
22 -0.15
23 0.16
28 0.27
3 -0.57
32 0.15
33 0.15
34 0.15
35 0.15
36 0.15
37 0.15
38 0.15
4 -0.48
5 0.03
6 -0.57
7 -0.57
8 0.29
9 0.57

> <PUBCHEM_EFFECTIVE_ROTOR_COUNT>
5

> <PUBCHEM_PHARMACOPHORE_FEATURES>
8
1 10 hydrophobe
1 3 acceptor
1 5 donor
1 7 acceptor
3 5 6 12 cation
5 5 6 12 13 14 rings
6 11 16 17 19 20 22 rings
6 7 13 14 18 21 23 rings

> <PUBCHEM_HEAVY_ATOM_COUNT>
23

> <PUBCHEM_ATOM_DEF_STEREO_COUNT>
0

> <PUBCHEM_ATOM_UDEF_STEREO_COUNT>
1

> <PUBCHEM_BOND_DEF_STEREO_COUNT>
0

> <PUBCHEM_BOND_UDEF_STEREO_COUNT>
0

> <PUBCHEM_ISOTOPIC_ATOM_COUNT>
0

> <PUBCHEM_COMPONENT_COUNT>
1

> <PUBCHEM_CACTVS_TAUTO_COUNT>
3

> <PUBCHEM_CONFORMER_ID>
010971B000000006

> <PUBCHEM_MMFF94_ENERGY>
66.6954

> <PUBCHEM_FEATURE_SELFOVERLAP>
40.723

> <PUBCHEM_SHAPE_FINGERPRINT>
1100329 8 17977107860100012840
11578080 2 14762138278765438600
12156800 1 17322424512984717995
12553582 1 17760635271692895086
12592029 89 18337954489775752381
13083527 12 18340498870713532243
14178342 30 18117566342762767184
14251705 54 18194125333151799967
14659021 117 16898787579129061202
14866123 147 18195258711466831360
15635459 17 18272646848954594665
17134984 74 18048053887159321455
17138139 8 17246132721797013647
17492 54 18198880566639600716
20645477 70 18342745100413583293
21285901 2 17775293763926637909
21315764 371 17531817835815103859
21421861 104 18190159343724666689
21452121 199 18053098716451868394
23184049 29 17836924868790419767
23559900 14 18196098965303373095
238 59 18410002243416182635
3052486 1 17904501605226973978
3060560 45 18339637846061835804
3797600 57 17385446518329392199
427121 178 17677345917638202794
4340502 62 17971754372343856465
495365 180 18336561416954661425
5262128 65 18053376879660517539
6438718 38 17393032951066144654
6669772 16 18335975364904249196
81228 2 17545036005637221416
9709674 26 18198347449565745173

> <PUBCHEM_SHAPE_MULTIPOLES>
453.26
7.19
4.62
1.42
9.8
3.39
0.3
-1.47
0.65
-4.66
-1.14
-0.19
0.24
-0.12

> <PUBCHEM_SHAPE_SELFOVERLAP>
955.542

> <PUBCHEM_SHAPE_VOLUME>
259.1

> <PUBCHEM_COORDINATE_TYPE>
2
5
10

$$$$

