49787007
  -OEChem-07051212513D

 32 33  0     1  0  0  0  0  0999 V2000
    2.0600   -0.2872   -0.5534 O   0  0  0  0  0  0  0  0  0  0  0  0
    3.5709   -0.1054    1.1848 O   0  0  0  0  0  0  0  0  0  0  0  0
   -1.1546    0.9871    0.2043 N   0  0  1  0  0  0  0  0  0  0  0  0
   -4.5010   -0.5989   -0.2221 N   0  0  0  0  0  0  0  0  0  0  0  0
   -0.3264   -0.1439   -0.2180 C   0  0  1  0  0  0  0  0  0  0  0  0
    1.0509    0.3083    0.2428 C   0  0  2  0  0  0  0  0  0  0  0  0
   -0.8354   -1.4371    0.4087 C   0  0  0  0  0  0  0  0  0  0  0  0
   -0.4403    2.1708   -0.2583 C   0  0  0  0  0  0  0  0  0  0  0  0
    1.0195    1.8298    0.0500 C   0  0  0  0  0  0  0  0  0  0  0  0
   -2.5247    0.8643   -0.2823 C   0  0  0  0  0  0  0  0  0  0  0  0
   -3.1509   -0.4144    0.3069 C   0  0  2  0  0  0  0  0  0  0  0  0
   -2.2979   -1.6596    0.0065 C   0  0  0  0  0  0  0  0  0  0  0  0
    3.2839   -0.4373    0.0426 C   0  0  0  0  0  0  0  0  0  0  0  0
    4.2460   -1.0764   -0.9125 C   0  0  0  0  0  0  0  0  0  0  0  0
   -0.3326   -0.2559   -1.3131 H   0  0  0  0  0  0  0  0  0  0  0  0
    1.1841    0.0699    1.3073 H   0  0  0  0  0  0  0  0  0  0  0  0
   -0.2245   -2.2857    0.0807 H   0  0  0  0  0  0  0  0  0  0  0  0
   -0.7626   -1.3922    1.5029 H   0  0  0  0  0  0  0  0  0  0  0  0
   -0.5647    2.3252   -1.3375 H   0  0  0  0  0  0  0  0  0  0  0  0
   -0.7614    3.0775    0.2635 H   0  0  0  0  0  0  0  0  0  0  0  0
    1.6828    2.1683   -0.7532 H   0  0  0  0  0  0  0  0  0  0  0  0
    1.3375    2.3214    0.9770 H   0  0  0  0  0  0  0  0  0  0  0  0
   -2.5521    0.8372   -1.3801 H   0  0  0  0  0  0  0  0  0  0  0  0
   -3.1089    1.7358    0.0384 H   0  0  0  0  0  0  0  0  0  0  0  0
   -3.2243   -0.2999    1.3967 H   0  0  0  0  0  0  0  0  0  0  0  0
   -2.3390   -1.8922   -1.0661 H   0  0  0  0  0  0  0  0  0  0  0  0
   -2.6955   -2.5330    0.5374 H   0  0  0  0  0  0  0  0  0  0  0  0
   -4.9314   -1.4145    0.2118 H   0  0  0  0  0  0  0  0  0  0  0  0
   -5.0804    0.2010    0.0289 H   0  0  0  0  0  0  0  0  0  0  0  0
    4.3707   -0.4406   -1.7926 H   0  0  0  0  0  0  0  0  0  0  0  0
    5.2183   -1.1924   -0.4252 H   0  0  0  0  0  0  0  0  0  0  0  0
    3.8801   -2.0652   -1.2001 H   0  0  0  0  0  0  0  0  0  0  0  0
  1  6  1  0  0  0  0
  1 13  1  0  0  0  0
  2 13  2  0  0  0  0
  3  5  1  0  0  0  0
  3  8  1  0  0  0  0
  3 10  1  0  0  0  0
  4 11  1  0  0  0  0
  4 28  1  0  0  0  0
  4 29  1  0  0  0  0
  5  6  1  0  0  0  0
  5  7  1  0  0  0  0
  5 15  1  0  0  0  0
  6  9  1  0  0  0  0
  6 16  1  0  0  0  0
  7 12  1  0  0  0  0
  7 17  1  0  0  0  0
  7 18  1  0  0  0  0
  8  9  1  0  0  0  0
  8 19  1  0  0  0  0
  8 20  1  0  0  0  0
  9 21  1  0  0  0  0
  9 22  1  0  0  0  0
 10 11  1  0  0  0  0
 10 23  1  0  0  0  0
 10 24  1  0  0  0  0
 11 12  1  0  0  0  0
 11 25  1  0  0  0  0
 12 26  1  0  0  0  0
 12 27  1  0  0  0  0
 13 14  1  0  0  0  0
 14 30  1  0  0  0  0
 14 31  1  0  0  0  0
 14 32  1  0  0  0  0
M  END
> <PUBCHEM_COMPOUND_CID>
49787007

> <PUBCHEM_CONFORMER_RMSD>
0.6

> <PUBCHEM_CONFORMER_DIVERSEORDER>
1
13
12
9
5
8
3
11
4
6
2
10
7

> <PUBCHEM_MMFF94_PARTIAL_CHARGES>
13
1 -0.43
10 0.27
11 0.27
13 0.66
14 0.06
2 -0.57
28 0.36
29 0.36
3 -0.81
4 -0.99
5 0.27
6 0.28
8 0.27

> <PUBCHEM_EFFECTIVE_ROTOR_COUNT>
3.4

> <PUBCHEM_PHARMACOPHORE_FEATURES>
6
1 2 acceptor
1 3 cation
1 4 cation
1 4 donor
5 3 5 6 8 9 rings
6 3 5 7 10 11 12 rings

> <PUBCHEM_HEAVY_ATOM_COUNT>
14

> <PUBCHEM_ATOM_DEF_STEREO_COUNT>
2

> <PUBCHEM_ATOM_UDEF_STEREO_COUNT>
1

> <PUBCHEM_BOND_DEF_STEREO_COUNT>
0

> <PUBCHEM_BOND_UDEF_STEREO_COUNT>
0

> <PUBCHEM_ISOTOPIC_ATOM_COUNT>
0

> <PUBCHEM_COMPONENT_COUNT>
1

> <PUBCHEM_CACTVS_TAUTO_COUNT>
1

> <PUBCHEM_CONFORMER_ID>
02F7B07F00000001

> <PUBCHEM_MMFF94_ENERGY>
12.8947

> <PUBCHEM_FEATURE_SELFOVERLAP>
30.527

> <PUBCHEM_SHAPE_FINGERPRINT>
10130415 120 18342457010849340993
10465860 71 18341596127968489012
11132069 177 18408889546259562562
11543360 7 15410604848685050107
11680986 33 18195806263171394025
12032990 46 18410007736726540999
13296908 3 18334295379350055462
13690532 89 18410856551482586039
14115302 16 17917420999802181895
14252887 29 18259979366764182018
14911166 2 18342179964453488983
14993402 34 17489863847420863038
15536298 74 18335422301005667856
15848700 24 18335707126040824367
16945 1 18411698820001499321
17804303 29 18408599266716069481
18186145 218 17561084670292216710
18511873 20 18410291376825698283
20201158 50 18408038515696408415
20281407 28 18408600366396476410
20510252 161 18261675977514403064
20645476 183 17203317888691919938
20645477 70 18339365141439959679
20871998 184 18260550064711706188
20871998 22 18335417976231881636
20871999 31 18271519888011625020
21029758 11 18335144185068032881
21029758 27 18131338701206111149
21501502 16 18122062005495776351
21501925 9 18336552629007890384
22959321 94 18342747325074592266
23402539 116 18335990855906968559
23463225 33 18413107251367769230
23532345 42 18409454678483716120
23552423 10 17912359832020971237
23557571 272 18335134324245095060
23559900 14 18337111280595678326
2748010 2 18268717103954806949
3286 77 17240206508325034337
43471831 8 18200035190818688035
5902787 121 18271248201170423282
69090 78 18041005016190735663
7364860 26 18191866717388897008
77492 1 17346316050732325856
81228 2 18267290096802312512
8809292 202 18272083851593379627

> <PUBCHEM_SHAPE_MULTIPOLES>
266.41
6.93
1.85
0.79
2.11
0.66
0.04
-3.09
-0.57
-0.41
-0.09
0.51
-0.08
0.36

> <PUBCHEM_SHAPE_SELFOVERLAP>
542.257

> <PUBCHEM_SHAPE_VOLUME>
156

> <PUBCHEM_COORDINATE_TYPE>
2
5
10

$$$$

