5281114
  -OEChem-07051212552D

 82 84  0     1  0  0  0  0  0999 V2000
   14.7415   -4.0527    0.0000 O   0  0  0  0  0  0  0  0  0  0  0  0
   12.9292   -5.2480    0.0000 O   0  0  0  0  0  0  0  0  0  0  0  0
   16.0307   -1.2865    0.0000 O   0  0  0  0  0  0  0  0  0  0  0  0
   19.3251   -3.2480    0.0000 O   0  0  0  0  0  0  0  0  0  0  0  0
    9.4651   -1.2480    0.0000 O   0  0  0  0  0  0  0  0  0  0  0  0
   14.3843   -0.7484    0.0000 N   0  0  0  0  0  0  0  0  0  0  0  0
    8.5991   -2.7480    0.0000 N   0  0  0  0  0  0  0  0  0  0  0  0
   13.9806    3.5917    0.0000 N   0  0  0  0  0  0  0  0  0  0  0  0
    4.2690   -2.2480    0.0000 N   0  0  0  0  0  0  0  0  0  0  0  0
   13.6234    5.2865    0.0000 N   0  0  0  0  0  0  0  0  0  0  0  0
   12.3343    4.1298    0.0000 N   0  0  0  0  0  0  0  0  0  0  0  0
    2.5369   -2.2480    0.0000 N   0  0  0  0  0  0  0  0  0  0  0  0
    3.4030   -3.7480    0.0000 N   0  0  0  0  0  0  0  0  0  0  0  0
   14.7415   -2.4433    0.0000 C   0  0  1  0  0  0  0  0  0  0  0  0
   15.3251   -3.2480    0.0000 C   0  0  2  0  0  0  0  0  0  0  0  0
   13.7953   -2.7480    0.0000 C   0  0  0  0  0  0  0  0  0  0  0  0
   13.7953   -3.7480    0.0000 C   0  0  0  0  0  0  0  0  0  0  0  0
   16.3251   -3.2480    0.0000 C   0  0  0  0  0  0  0  0  0  0  0  0
   15.0521   -1.4928    0.0000 C   0  0  0  0  0  0  0  0  0  0  0  0
   12.9292   -2.2480    0.0000 C   0  0  0  0  0  0  0  0  0  0  0  0
   12.9292   -4.2480    0.0000 C   0  0  0  0  0  0  0  0  0  0  0  0
   12.0632   -2.7480    0.0000 C   0  0  0  0  0  0  0  0  0  0  0  0
   12.0632   -3.7480    0.0000 C   0  0  0  0  0  0  0  0  0  0  0  0
   16.8251   -4.1140    0.0000 C   0  0  0  0  0  0  0  0  0  0  0  0
   16.8251   -2.3820    0.0000 C   0  0  0  0  0  0  0  0  0  0  0  0
   14.6950    0.2021    0.0000 C   0  0  0  0  0  0  0  0  0  0  0  0
   14.0271    0.9464    0.0000 C   0  0  0  0  0  0  0  0  0  0  0  0
   17.8251   -4.1140    0.0000 C   0  0  0  0  0  0  0  0  0  0  0  0
   17.8251   -2.3820    0.0000 C   0  0  0  0  0  0  0  0  0  0  0  0
   11.1972   -2.2480    0.0000 C   0  0  0  0  0  0  0  0  0  0  0  0
   14.3378    1.8969    0.0000 C   0  0  0  0  0  0  0  0  0  0  0  0
   18.3251   -3.2480    0.0000 C   0  0  0  0  0  0  0  0  0  0  0  0
   13.6699    2.6412    0.0000 C   0  0  0  0  0  0  0  0  0  0  0  0
   10.3312   -2.7480    0.0000 C   0  0  0  0  0  0  0  0  0  0  0  0
   12.0632   -5.7480    0.0000 C   0  0  0  0  0  0  0  0  0  0  0  0
    9.4651   -2.2480    0.0000 C   0  0  0  0  0  0  0  0  0  0  0  0
    7.7331   -2.2480    0.0000 C   0  0  0  0  0  0  0  0  0  0  0  0
    6.8671   -2.7480    0.0000 C   0  0  0  0  0  0  0  0  0  0  0  0
    6.0010   -2.2480    0.0000 C   0  0  0  0  0  0  0  0  0  0  0  0
    5.1350   -2.7480    0.0000 C   0  0  0  0  0  0  0  0  0  0  0  0
   13.3128    4.3360    0.0000 C   0  0  0  0  0  0  0  0  0  0  0  0
    3.4030   -2.7480    0.0000 C   0  0  0  0  0  0  0  0  0  0  0  0
   14.3040   -2.0039    0.0000 H   0  0  0  0  0  0  0  0  0  0  0  0
   15.6068   -2.6957    0.0000 H   0  0  0  0  0  0  0  0  0  0  0  0
   12.9292   -1.6280    0.0000 H   0  0  0  0  0  0  0  0  0  0  0  0
   13.7776   -0.8763    0.0000 H   0  0  0  0  0  0  0  0  0  0  0  0
   11.5263   -4.0580    0.0000 H   0  0  0  0  0  0  0  0  0  0  0  0
   16.5151   -4.6510    0.0000 H   0  0  0  0  0  0  0  0  0  0  0  0
   16.5151   -1.8450    0.0000 H   0  0  0  0  0  0  0  0  0  0  0  0
   15.2419   -0.0899    0.0000 H   0  0  0  0  0  0  0  0  0  0  0  0
   15.0775    0.6900    0.0000 H   0  0  0  0  0  0  0  0  0  0  0  0
   13.4802    1.2384    0.0000 H   0  0  0  0  0  0  0  0  0  0  0  0
   13.6446    0.4585    0.0000 H   0  0  0  0  0  0  0  0  0  0  0  0
   18.1351   -4.6510    0.0000 H   0  0  0  0  0  0  0  0  0  0  0  0
   18.1351   -1.8450    0.0000 H   0  0  0  0  0  0  0  0  0  0  0  0
   11.1972   -1.6280    0.0000 H   0  0  0  0  0  0  0  0  0  0  0  0
   14.8847    1.6049    0.0000 H   0  0  0  0  0  0  0  0  0  0  0  0
   14.7203    2.3848    0.0000 H   0  0  0  0  0  0  0  0  0  0  0  0
   13.1230    2.9332    0.0000 H   0  0  0  0  0  0  0  0  0  0  0  0
   13.2874    2.1533    0.0000 H   0  0  0  0  0  0  0  0  0  0  0  0
   10.3312   -3.3680    0.0000 H   0  0  0  0  0  0  0  0  0  0  0  0
   11.7532   -5.2111    0.0000 H   0  0  0  0  0  0  0  0  0  0  0  0
   11.5263   -6.0580    0.0000 H   0  0  0  0  0  0  0  0  0  0  0  0
   12.3732   -6.2849    0.0000 H   0  0  0  0  0  0  0  0  0  0  0  0
   19.6351   -3.7849    0.0000 H   0  0  0  0  0  0  0  0  0  0  0  0
    8.1316   -1.7731    0.0000 H   0  0  0  0  0  0  0  0  0  0  0  0
    7.3346   -1.7731    0.0000 H   0  0  0  0  0  0  0  0  0  0  0  0
    6.4685   -3.2230    0.0000 H   0  0  0  0  0  0  0  0  0  0  0  0
    7.2656   -3.2230    0.0000 H   0  0  0  0  0  0  0  0  0  0  0  0
    8.5991   -3.3680    0.0000 H   0  0  0  0  0  0  0  0  0  0  0  0
    6.3996   -1.7731    0.0000 H   0  0  0  0  0  0  0  0  0  0  0  0
    5.6025   -1.7731    0.0000 H   0  0  0  0  0  0  0  0  0  0  0  0
    4.7365   -3.2230    0.0000 H   0  0  0  0  0  0  0  0  0  0  0  0
    5.5335   -3.2230    0.0000 H   0  0  0  0  0  0  0  0  0  0  0  0
   13.2094    5.7480    0.0000 H   0  0  0  0  0  0  0  0  0  0  0  0
   14.2301    5.4144    0.0000 H   0  0  0  0  0  0  0  0  0  0  0  0
   11.9202    4.5913    0.0000 H   0  0  0  0  0  0  0  0  0  0  0  0
   12.1416    3.5405    0.0000 H   0  0  0  0  0  0  0  0  0  0  0  0
    2.0000   -2.5580    0.0000 H   0  0  0  0  0  0  0  0  0  0  0  0
    2.5369   -1.6280    0.0000 H   0  0  0  0  0  0  0  0  0  0  0  0
    2.8660   -4.0580    0.0000 H   0  0  0  0  0  0  0  0  0  0  0  0
    3.9399   -4.0580    0.0000 H   0  0  0  0  0  0  0  0  0  0  0  0
  1 15  1  0  0  0  0
  1 17  1  0  0  0  0
  2 21  1  0  0  0  0
  2 35  1  0  0  0  0
  3 19  2  0  0  0  0
  4 32  1  0  0  0  0
  4 65  1  0  0  0  0
  5 36  2  0  0  0  0
  6 19  1  0  0  0  0
  6 26  1  0  0  0  0
  6 46  1  0  0  0  0
  7 36  1  0  0  0  0
  7 37  1  0  0  0  0
  7 70  1  0  0  0  0
  8 33  1  0  0  0  0
  8 41  2  0  0  0  0
  9 40  1  0  0  0  0
  9 42  2  0  0  0  0
 10 41  1  0  0  0  0
 10 75  1  0  0  0  0
 10 76  1  0  0  0  0
 11 41  1  0  0  0  0
 11 77  1  0  0  0  0
 11 78  1  0  0  0  0
 12 42  1  0  0  0  0
 12 79  1  0  0  0  0
 12 80  1  0  0  0  0
 13 42  1  0  0  0  0
 13 81  1  0  0  0  0
 13 82  1  0  0  0  0
 14 15  1  0  0  0  0
 14 16  1  0  0  0  0
 14 19  1  1  0  0  0
 14 43  1  0  0  0  0
 15 18  1  6  0  0  0
 15 44  1  0  0  0  0
 16 17  2  0  0  0  0
 16 20  1  0  0  0  0
 17 21  1  0  0  0  0
 18 24  2  0  0  0  0
 18 25  1  0  0  0  0
 20 22  2  0  0  0  0
 20 45  1  0  0  0  0
 21 23  2  0  0  0  0
 22 23  1  0  0  0  0
 22 30  1  0  0  0  0
 23 47  1  0  0  0  0
 24 28  1  0  0  0  0
 24 48  1  0  0  0  0
 25 29  2  0  0  0  0
 25 49  1  0  0  0  0
 26 27  1  0  0  0  0
 26 50  1  0  0  0  0
 26 51  1  0  0  0  0
 27 31  1  0  0  0  0
 27 52  1  0  0  0  0
 27 53  1  0  0  0  0
 28 32  2  0  0  0  0
 28 54  1  0  0  0  0
 29 32  1  0  0  0  0
 29 55  1  0  0  0  0
 30 34  2  0  0  0  0
 30 56  1  0  0  0  0
 31 33  1  0  0  0  0
 31 57  1  0  0  0  0
 31 58  1  0  0  0  0
 33 59  1  0  0  0  0
 33 60  1  0  0  0  0
 34 36  1  0  0  0  0
 34 61  1  0  0  0  0
 35 62  1  0  0  0  0
 35 63  1  0  0  0  0
 35 64  1  0  0  0  0
 37 38  1  0  0  0  0
 37 66  1  0  0  0  0
 37 67  1  0  0  0  0
 38 39  1  0  0  0  0
 38 68  1  0  0  0  0
 38 69  1  0  0  0  0
 39 40  1  0  0  0  0
 39 71  1  0  0  0  0
 39 72  1  0  0  0  0
 40 73  1  0  0  0  0
 40 74  1  0  0  0  0
M  END
> <PUBCHEM_COMPOUND_CID>
5281114

> <PUBCHEM_COMPOUND_CANONICALIZED>
1

> <PUBCHEM_CACTVS_COMPLEXITY>
944

> <PUBCHEM_CACTVS_HBOND_ACCEPTOR>
7

> <PUBCHEM_CACTVS_HBOND_DONOR>
7

> <PUBCHEM_CACTVS_ROTATABLE_BOND>
15

> <PUBCHEM_CACTVS_SUBSKEYS>
AAADcfB7+AAAAAAAAAAAAAAAAAAAASAAAAAwYAAAAAAAAEgBQAAAHgAQCAAADRThmAYzBoLABgCoAiFSNACCCAEgIAAIiIEOiMgNJjaGtRuGeCKm9hGKuYe6/P7OoAADAAAIQABAAAYAABCAAAAAAAAAAA==

> <PUBCHEM_IUPAC_OPENEYE_NAME>
(2R,3R)-N-(4-guanidinobutyl)-5-[(E)-3-(4-guanidinobutylamino)-3-oxo-prop-1-enyl]-2-(4-hydroxyphenyl)-7-methoxy-2,3-dihydrobenzofuran-3-carboxamide

> <PUBCHEM_IUPAC_CAS_NAME>
(2R,3R)-N-[4-(diaminomethylideneamino)butyl]-5-[(E)-3-[4-(diaminomethylideneamino)butylamino]-3-oxoprop-1-enyl]-2-(4-hydroxyphenyl)-7-methoxy-2,3-dihydrobenzofuran-3-carboxamide

> <PUBCHEM_IUPAC_NAME>
(2R,3R)-N-[4-(diaminomethylideneamino)butyl]-5-[(E)-3-[4-(diaminomethylideneamino)butylamino]-3-oxoprop-1-enyl]-2-(4-hydroxyphenyl)-7-methoxy-2,3-dihydro-1-benzofuran-3-carboxamide

> <PUBCHEM_IUPAC_SYSTEMATIC_NAME>
(2R,3R)-N-[4-[bis(azanyl)methylideneamino]butyl]-5-[(E)-3-[4-[bis(azanyl)methylideneamino]butylamino]-3-oxidanylidene-prop-1-enyl]-2-(4-hydroxyphenyl)-7-methoxy-2,3-dihydro-1-benzofuran-3-carboxamide

> <PUBCHEM_IUPAC_TRADITIONAL_NAME>
(2R,3R)-N-(4-guanidinobutyl)-5-[(E)-3-(4-guanidinobutylamino)-3-keto-prop-1-enyl]-2-(4-hydroxyphenyl)-7-methoxy-coumaran-3-carboxamide

> <PUBCHEM_IUPAC_INCHI>
InChI=1S/C29H40N8O5/c1-41-22-17-18(6-11-23(39)34-12-2-4-14-36-28(30)31)16-21-24(27(40)35-13-3-5-15-37-29(32)33)25(42-26(21)22)19-7-9-20(38)10-8-19/h6-11,16-17,24-25,38H,2-5,12-15H2,1H3,(H,34,39)(H,35,40)(H4,30,31,36)(H4,32,33,37)/b11-6+/t24-,25+/m1/s1

> <PUBCHEM_IUPAC_INCHIKEY>
LRLXAXGCQUOKIO-ATYLQFJESA-N

> <PUBCHEM_XLOGP3_AA>
0.1

> <PUBCHEM_EXACT_MASS>
580.312166

> <PUBCHEM_MOLECULAR_FORMULA>
C29H40N8O5

> <PUBCHEM_MOLECULAR_WEIGHT>
580.6785

> <PUBCHEM_OPENEYE_CAN_SMILES>
COC1=CC(=CC2=C1OC(C2C(=O)NCCCCN=C(N)N)C3=CC=C(C=C3)O)C=CC(=O)NCCCCN=C(N)N

> <PUBCHEM_OPENEYE_ISO_SMILES>
COC1=CC(=CC2=C1O[C@H]([C@@H]2C(=O)NCCCCN=C(N)N)C3=CC=C(C=C3)O)/C=C/C(=O)NCCCCN=C(N)N

> <PUBCHEM_CACTVS_TPSA>
226

> <PUBCHEM_MONOISOTOPIC_WEIGHT>
580.312166

> <PUBCHEM_TOTAL_CHARGE>
0

> <PUBCHEM_HEAVY_ATOM_COUNT>
42

> <PUBCHEM_ATOM_DEF_STEREO_COUNT>
2

> <PUBCHEM_ATOM_UDEF_STEREO_COUNT>
0

> <PUBCHEM_BOND_DEF_STEREO_COUNT>
1

> <PUBCHEM_BOND_UDEF_STEREO_COUNT>
0

> <PUBCHEM_ISOTOPIC_ATOM_COUNT>
0

> <PUBCHEM_COMPONENT_COUNT>
1

> <PUBCHEM_CACTVS_TAUTO_COUNT>
32

> <PUBCHEM_COORDINATE_TYPE>
1
5
255

> <PUBCHEM_BONDANNOTATIONS>
14  19  5
15  18  6
16  17  8
16  20  8
17  21  8
18  24  8
18  25  8
20  22  8
21  23  8
22  23  8
24  28  8
25  29  8
28  32  8
29  32  8

$$$$

