7639
  -OEChem-07051213053D

 26 27  0     0  0  0  0  0  0999 V2000
    6.4681    0.0002    0.1453 Cl  0  0  0  0  0  0  0  0  0  0  0  0
   -6.3814   -0.0001   -0.7431 Cl  0  0  0  0  0  0  0  0  0  0  0  0
   -0.3691    0.0001    1.1147 S   0  0  0  0  0  0  0  0  0  0  0  0
    1.9823   -0.0002   -0.3282 C   0  0  0  0  0  0  0  0  0  0  0  0
    0.4989   -0.0002   -0.4836 C   0  0  0  0  0  0  0  0  0  0  0  0
   -2.0782    0.0000    0.5867 C   0  0  0  0  0  0  0  0  0  0  0  0
    2.6759   -1.2081   -0.2553 C   0  0  0  0  0  0  0  0  0  0  0  0
    2.6758    1.2079   -0.2548 C   0  0  0  0  0  0  0  0  0  0  0  0
    4.0630   -1.2081   -0.1089 C   0  0  0  0  0  0  0  0  0  0  0  0
    4.0630    1.2081   -0.1085 C   0  0  0  0  0  0  0  0  0  0  0  0
   -2.7381   -1.2079    0.3831 C   0  0  0  0  0  0  0  0  0  0  0  0
   -2.7382    1.2081    0.3823 C   0  0  0  0  0  0  0  0  0  0  0  0
    4.7567    0.0001   -0.0356 C   0  0  0  0  0  0  0  0  0  0  0  0
   -4.0707   -1.2080   -0.0290 C   0  0  0  0  0  0  0  0  0  0  0  0
   -4.0708    1.2081   -0.0297 C   0  0  0  0  0  0  0  0  0  0  0  0
   -4.7372    0.0000   -0.2353 C   0  0  0  0  0  0  0  0  0  0  0  0
    0.1828   -0.8772   -1.0611 H   0  0  0  0  0  0  0  0  0  0  0  0
    0.1828    0.8765   -1.0614 H   0  0  0  0  0  0  0  0  0  0  0  0
    2.1476   -2.1563   -0.3101 H   0  0  0  0  0  0  0  0  0  0  0  0
    2.1472    2.1560   -0.3091 H   0  0  0  0  0  0  0  0  0  0  0  0
    4.5904   -2.1569   -0.0531 H   0  0  0  0  0  0  0  0  0  0  0  0
    4.5902    2.1570   -0.0523 H   0  0  0  0  0  0  0  0  0  0  0  0
   -2.2341   -2.1584    0.5386 H   0  0  0  0  0  0  0  0  0  0  0  0
   -2.2340    2.1587    0.5373 H   0  0  0  0  0  0  0  0  0  0  0  0
   -4.5774   -2.1569   -0.1855 H   0  0  0  0  0  0  0  0  0  0  0  0
   -4.5775    2.1570   -0.1867 H   0  0  0  0  0  0  0  0  0  0  0  0
  1 13  1  0  0  0  0
  2 16  1  0  0  0  0
  3  5  1  0  0  0  0
  3  6  1  0  0  0  0
  4  5  1  0  0  0  0
  4  7  2  0  0  0  0
  4  8  1  0  0  0  0
  5 17  1  0  0  0  0
  5 18  1  0  0  0  0
  6 11  2  0  0  0  0
  6 12  1  0  0  0  0
  7  9  1  0  0  0  0
  7 19  1  0  0  0  0
  8 10  2  0  0  0  0
  8 20  1  0  0  0  0
  9 13  2  0  0  0  0
  9 21  1  0  0  0  0
 10 13  1  0  0  0  0
 10 22  1  0  0  0  0
 11 14  1  0  0  0  0
 11 23  1  0  0  0  0
 12 15  2  0  0  0  0
 12 24  1  0  0  0  0
 14 16  2  0  0  0  0
 14 25  1  0  0  0  0
 15 16  1  0  0  0  0
 15 26  1  0  0  0  0
M  END
> <PUBCHEM_COMPOUND_CID>
7639

> <PUBCHEM_CONFORMER_RMSD>
0.6

> <PUBCHEM_CONFORMER_DIVERSEORDER>
1
3
2
5
6
7
8
4

> <PUBCHEM_MMFF94_PARTIAL_CHARGES>
24
1 -0.18
10 -0.15
11 -0.15
12 -0.15
13 0.18
14 -0.15
15 -0.15
16 0.18
19 0.15
2 -0.18
20 0.15
21 0.15
22 0.15
23 0.15
24 0.15
25 0.15
26 0.15
3 -0.33
4 -0.14
5 0.37
6 0.1
7 -0.15
8 -0.15
9 -0.15

> <PUBCHEM_EFFECTIVE_ROTOR_COUNT>
3

> <PUBCHEM_PHARMACOPHORE_FEATURES>
2
6 4 7 8 9 10 13 rings
6 6 11 12 14 15 16 rings

> <PUBCHEM_HEAVY_ATOM_COUNT>
16

> <PUBCHEM_ATOM_DEF_STEREO_COUNT>
0

> <PUBCHEM_ATOM_UDEF_STEREO_COUNT>
0

> <PUBCHEM_BOND_DEF_STEREO_COUNT>
0

> <PUBCHEM_BOND_UDEF_STEREO_COUNT>
0

> <PUBCHEM_ISOTOPIC_ATOM_COUNT>
0

> <PUBCHEM_COMPONENT_COUNT>
1

> <PUBCHEM_CACTVS_TAUTO_COUNT>
1

> <PUBCHEM_CONFORMER_ID>
00001DD700000001

> <PUBCHEM_MMFF94_ENERGY>
37.595

> <PUBCHEM_FEATURE_SELFOVERLAP>
10.149

> <PUBCHEM_SHAPE_FINGERPRINT>
10 15 18187377493871154536
10968037 39 18334013887335848543
11315181 36 18411696569349069545
11370993 70 18411135835609731547
11401426 45 18060700589126544538
12107183 9 17689433114986585754
12236239 1 17749106712377387726
12596602 18 14117505528553141301
12815109 37 18410856563940057614
128620 24 16008744723303483480
13167823 11 18409730664059952526
13533116 47 18335143141174910162
13668630 136 17167577180946307967
14123238 8 18187082862243680887
1420 363 5184346321742981484
17834072 33 18408885118448915276
17834072 8 17989208152855662143
17834076 25 18411419509603773382
19489759 90 18410012143394661385
200 152 18113337522210158425
20300324 65 18334012800809479385
20645477 70 18335418027829979422
21150785 3 17603858989134830836
23035841 295 4823212809873697228
23402539 116 18343586226412907357
23402655 69 18410852170520803710
23536379 177 18411419531479497651
23557571 272 18187359969386909793
23559900 14 18337395945915665993
26918003 58 18410855447512395882
29717793 49 18040428910810184300
300161 21 18343869917635070634
3004659 81 18411982477079942378
351380 180 18412825780723111512
3545911 37 18411980260528657897
4073 2 17988918925785106386
4214541 1 18411417327982140977
4325135 7 18040156214630562629
5104073 3 18410289224540623250
5283173 99 18341619273495246373
542803 24 18411134740387192177
7495541 125 17458911435505174155
77779 3 18410852165893527025
9709674 26 18409718573727332623
9971528 1 17775564234964988476

> <PUBCHEM_SHAPE_MULTIPOLES>
336.86
15.24
1.34
0.83
0.66
0
0.09
0
-2.19
-0.01
0
-0.31
0
0

> <PUBCHEM_SHAPE_SELFOVERLAP>
682.106

> <PUBCHEM_SHAPE_VOLUME>
192.8

> <PUBCHEM_COORDINATE_TYPE>
2
5
10

$$$$

