153963
  -OEChem-07051213053D

 23 24  0     0  0  0  0  0  0999 V2000
    0.5670    2.7392   -0.1353 Cl  0  0  0  0  0  0  0  0  0  0  0  0
    0.5675   -2.7403   -0.1261 Cl  0  0  0  0  0  0  0  0  0  0  0  0
   -0.7747    0.0067    2.5944 Cl  0  0  0  0  0  0  0  0  0  0  0  0
    5.1865    0.0005   -0.0976 Cl  0  0  0  0  0  0  0  0  0  0  0  0
   -4.9268   -0.0004   -0.3111 O   0  0  0  0  0  0  0  0  0  0  0  0
    0.6713   -0.0005   -0.1310 C   0  0  0  0  0  0  0  0  0  0  0  0
   -0.7795   -0.0008   -0.1431 C   0  0  0  0  0  0  0  0  0  0  0  0
    1.3731    1.2076   -0.1286 C   0  0  0  0  0  0  0  0  0  0  0  0
    1.3733   -1.2085   -0.1236 C   0  0  0  0  0  0  0  0  0  0  0  0
   -1.5251    0.0032    1.0359 C   0  0  0  0  0  0  0  0  0  0  0  0
   -1.4275   -0.0045   -1.3782 C   0  0  0  0  0  0  0  0  0  0  0  0
    2.7680    1.2076   -0.1190 C   0  0  0  0  0  0  0  0  0  0  0  0
    2.7683   -1.2082   -0.1141 C   0  0  0  0  0  0  0  0  0  0  0  0
   -2.9189    0.0033    0.9796 C   0  0  0  0  0  0  0  0  0  0  0  0
   -2.8211   -0.0043   -1.4345 C   0  0  0  0  0  0  0  0  0  0  0  0
   -3.5669   -0.0005   -0.2557 C   0  0  0  0  0  0  0  0  0  0  0  0
    3.4655   -0.0001   -0.1118 C   0  0  0  0  0  0  0  0  0  0  0  0
   -0.8637   -0.0074   -2.3084 H   0  0  0  0  0  0  0  0  0  0  0  0
    3.3148    2.1483   -0.1165 H   0  0  0  0  0  0  0  0  0  0  0  0
    3.3153   -2.1487   -0.1081 H   0  0  0  0  0  0  0  0  0  0  0  0
   -3.5040    0.0062    1.8965 H   0  0  0  0  0  0  0  0  0  0  0  0
   -3.3204   -0.0073   -2.3997 H   0  0  0  0  0  0  0  0  0  0  0  0
   -5.2798    0.0024    0.5952 H   0  0  0  0  0  0  0  0  0  0  0  0
  1  8  1  0  0  0  0
  2  9  1  0  0  0  0
  3 10  1  0  0  0  0
  4 17  1  0  0  0  0
  5 16  1  0  0  0  0
  5 23  1  0  0  0  0
  6  7  1  0  0  0  0
  6  8  2  0  0  0  0
  6  9  1  0  0  0  0
  7 10  2  0  0  0  0
  7 11  1  0  0  0  0
  8 12  1  0  0  0  0
  9 13  2  0  0  0  0
 10 14  1  0  0  0  0
 11 15  2  0  0  0  0
 11 18  1  0  0  0  0
 12 17  2  0  0  0  0
 12 19  1  0  0  0  0
 13 17  1  0  0  0  0
 13 20  1  0  0  0  0
 14 16  2  0  0  0  0
 14 21  1  0  0  0  0
 15 16  1  0  0  0  0
 15 22  1  0  0  0  0
M  END
> <PUBCHEM_COMPOUND_CID>
153963

> <PUBCHEM_CONFORMER_RMSD>
0.6

> <PUBCHEM_CONFORMER_DIVERSEORDER>
1

> <PUBCHEM_MMFF94_PARTIAL_CHARGES>
21
1 -0.18
10 0.18
11 -0.15
12 -0.15
13 -0.15
14 -0.15
15 -0.15
16 0.08
17 0.18
18 0.15
19 0.15
2 -0.18
20 0.15
21 0.15
22 0.15
23 0.45
3 -0.18
4 -0.18
5 -0.53
8 0.18
9 0.18

> <PUBCHEM_EFFECTIVE_ROTOR_COUNT>
1

> <PUBCHEM_PHARMACOPHORE_FEATURES>
3
1 5 donor
6 6 8 9 12 13 17 rings
6 7 10 11 14 15 16 rings

> <PUBCHEM_HEAVY_ATOM_COUNT>
17

> <PUBCHEM_ATOM_DEF_STEREO_COUNT>
0

> <PUBCHEM_ATOM_UDEF_STEREO_COUNT>
0

> <PUBCHEM_BOND_DEF_STEREO_COUNT>
0

> <PUBCHEM_BOND_UDEF_STEREO_COUNT>
0

> <PUBCHEM_ISOTOPIC_ATOM_COUNT>
0

> <PUBCHEM_COMPONENT_COUNT>
1

> <PUBCHEM_CACTVS_TAUTO_COUNT>
3

> <PUBCHEM_CONFORMER_ID>
0002596B00000001

> <PUBCHEM_MMFF94_ENERGY>
47.4068

> <PUBCHEM_FEATURE_SELFOVERLAP>
15.223

> <PUBCHEM_SHAPE_FINGERPRINT>
11471102 20 18412547612913319572
11578080 2 12604890730691696071
12119455 92 18201721743129495322
12236239 1 17676487254522199511
124424 183 17775283859278248784
12500047 106 16272209665460352066
12592029 89 18342744039171812474
13140716 1 18267028250516773360
13538477 17 17386013832106450863
13581323 91 15267065839051136271
13965767 371 16738569880055130369
14115302 16 17676492692367508303
14251717 144 18409730668344221062
14993402 34 18334573534227317166
15207287 21 17846777416367076395
15219456 202 17917706855719231341
15309172 13 18412256225352705514
15848702 151 17604139450098183686
16945 1 18410583880798299254
18175812 5 17632009762868696519
18186145 218 18261684687596932564
19010151 120 18187363242278284600
200 152 18260832604935218959
20201158 50 18059852887152235514
20279233 1 17775560953066667970
20344682 1 17846781814429294983
20645476 183 17967257481703004487
20645477 70 18270405008869966622
23175994 123 18202558493021777772
23236772 104 17676763253405337763
232386 152 16443354126438728109
23402539 116 18187370926217208086
23419403 2 17701232760148891217
23493267 7 17275108353465904768
23526113 38 17846498183384023042
23557571 272 16845576456203921118
23559900 14 16702018699803060026
23728640 28 15170237768785990155
25 1 18271813444578286807
2748010 2 18121213174414482406
3060560 45 18409454673777441926
3286 77 18199744752603296277
350125 39 17691397513053813620
474 4 17751371590419763640
528886 8 18409737243970650258
568465 68 18058990831544858034
69090 78 18060422387389992019
77492 1 17748542645310469813
81228 2 17842264050311382020
8272917 22 18263075673439373615

> <PUBCHEM_SHAPE_MULTIPOLES>
351.46
7.27
1.92
1.42
1.21
0
-0.86
0
1.08
1.15
0.17
-1.18
0
-0.01

> <PUBCHEM_SHAPE_SELFOVERLAP>
729.521

> <PUBCHEM_SHAPE_VOLUME>
204.9

> <PUBCHEM_COORDINATE_TYPE>
2
5
10

$$$$

