17396384
  -OEChem-06241222562D

 55 58  0     0  0  0  0  0  0999 V2000
   10.4563    2.6778    0.0000 Cl  0  0  0  0  0  0  0  0  0  0  0  0
    7.7849    5.6550    0.0000 Cl  0  0  0  0  0  0  0  0  0  0  0  0
    8.4993    2.2653    0.0000 S   0  0  0  0  0  0  0  0  0  0  0  0
    9.4498    1.9547    0.0000 O   0  0  0  0  0  0  0  0  0  0  0  0
    7.5487    2.5760    0.0000 O   0  0  0  0  0  0  0  0  0  0  0  0
    7.9244   -2.2811    0.0000 O   0  0  0  0  0  0  0  0  0  0  0  0
    8.1886    1.3148    0.0000 N   0  0  0  0  0  0  0  0  0  0  0  0
    7.5673   -0.5862    0.0000 N   0  0  0  0  0  0  0  0  0  0  0  0
    6.2781   -1.7430    0.0000 N   0  0  0  0  0  0  0  0  0  0  0  0
    4.6783   -3.8502    0.0000 N   0  0  0  0  0  0  0  0  0  0  0  0
    4.6783   -5.4597    0.0000 N   0  0  0  0  0  0  0  0  0  0  0  0
    7.2101    1.1086    0.0000 C   0  0  0  0  0  0  0  0  0  0  0  0
    8.8564    0.5705    0.0000 C   0  0  0  0  0  0  0  0  0  0  0  0
    8.5458   -0.3800    0.0000 C   0  0  0  0  0  0  0  0  0  0  0  0
    6.8994    0.1581    0.0000 C   0  0  0  0  0  0  0  0  0  0  0  0
    7.2566   -1.5368    0.0000 C   0  0  0  0  0  0  0  0  0  0  0  0
    8.8099    3.2158    0.0000 C   0  0  0  0  0  0  0  0  0  0  0  0
    5.9674   -2.6935    0.0000 C   0  0  0  0  0  0  0  0  0  0  0  0
    4.9889   -2.8997    0.0000 C   0  0  0  0  0  0  0  0  0  0  0  0
    3.7320   -4.1550    0.0000 C   0  0  0  0  0  0  0  0  0  0  0  0
    9.7884    3.4221    0.0000 C   0  0  0  0  0  0  0  0  0  0  0  0
    8.1421    3.9602    0.0000 C   0  0  0  0  0  0  0  0  0  0  0  0
    5.2619   -4.6550    0.0000 C   0  0  0  0  0  0  0  0  0  0  0  0
    3.7320   -5.1550    0.0000 C   0  0  0  0  0  0  0  0  0  0  0  0
    2.8660   -3.6550    0.0000 C   0  0  0  0  0  0  0  0  0  0  0  0
    8.4527    4.9107    0.0000 C   0  0  0  0  0  0  0  0  0  0  0  0
   10.0991    4.3726    0.0000 C   0  0  0  0  0  0  0  0  0  0  0  0
    6.2619   -4.6550    0.0000 C   0  0  0  0  0  0  0  0  0  0  0  0
    2.8660   -5.6550    0.0000 C   0  0  0  0  0  0  0  0  0  0  0  0
    9.4312    5.1169    0.0000 C   0  0  0  0  0  0  0  0  0  0  0  0
    2.0000   -4.1550    0.0000 C   0  0  0  0  0  0  0  0  0  0  0  0
    2.0000   -5.1550    0.0000 C   0  0  0  0  0  0  0  0  0  0  0  0
    7.1895    1.7282    0.0000 H   0  0  0  0  0  0  0  0  0  0  0  0
    6.5963    1.1959    0.0000 H   0  0  0  0  0  0  0  0  0  0  0  0
    9.4034    0.2785    0.0000 H   0  0  0  0  0  0  0  0  0  0  0  0
    9.2390    1.0584    0.0000 H   0  0  0  0  0  0  0  0  0  0  0  0
    6.3525    0.4501    0.0000 H   0  0  0  0  0  0  0  0  0  0  0  0
    6.5169   -0.3298    0.0000 H   0  0  0  0  0  0  0  0  0  0  0  0
    8.5663   -0.9997    0.0000 H   0  0  0  0  0  0  0  0  0  0  0  0
    9.1596   -0.4674    0.0000 H   0  0  0  0  0  0  0  0  0  0  0  0
    5.9880   -3.3132    0.0000 H   0  0  0  0  0  0  0  0  0  0  0  0
    6.5812   -2.7808    0.0000 H   0  0  0  0  0  0  0  0  0  0  0  0
    5.8640   -1.2815    0.0000 H   0  0  0  0  0  0  0  0  0  0  0  0
    4.9684   -2.2801    0.0000 H   0  0  0  0  0  0  0  0  0  0  0  0
    4.3751   -2.8124    0.0000 H   0  0  0  0  0  0  0  0  0  0  0  0
    7.5354    3.8323    0.0000 H   0  0  0  0  0  0  0  0  0  0  0  0
    2.8660   -3.0350    0.0000 H   0  0  0  0  0  0  0  0  0  0  0  0
   10.7058    4.5004    0.0000 H   0  0  0  0  0  0  0  0  0  0  0  0
    6.2619   -5.2750    0.0000 H   0  0  0  0  0  0  0  0  0  0  0  0
    6.8819   -4.6550    0.0000 H   0  0  0  0  0  0  0  0  0  0  0  0
    6.2619   -4.0350    0.0000 H   0  0  0  0  0  0  0  0  0  0  0  0
    2.8660   -6.2750    0.0000 H   0  0  0  0  0  0  0  0  0  0  0  0
    9.6238    5.7062    0.0000 H   0  0  0  0  0  0  0  0  0  0  0  0
    1.4631   -3.8450    0.0000 H   0  0  0  0  0  0  0  0  0  0  0  0
    1.4631   -5.4650    0.0000 H   0  0  0  0  0  0  0  0  0  0  0  0
  1 21  1  0  0  0  0
  2 26  1  0  0  0  0
  3  4  2  0  0  0  0
  3  5  2  0  0  0  0
  3  7  1  0  0  0  0
  3 17  1  0  0  0  0
  6 16  2  0  0  0  0
  7 12  1  0  0  0  0
  7 13  1  0  0  0  0
  8 14  1  0  0  0  0
  8 15  1  0  0  0  0
  8 16  1  0  0  0  0
  9 16  1  0  0  0  0
  9 18  1  0  0  0  0
  9 43  1  0  0  0  0
 10 19  1  0  0  0  0
 10 20  1  0  0  0  0
 10 23  1  0  0  0  0
 11 23  2  0  0  0  0
 11 24  1  0  0  0  0
 12 15  1  0  0  0  0
 12 33  1  0  0  0  0
 12 34  1  0  0  0  0
 13 14  1  0  0  0  0
 13 35  1  0  0  0  0
 13 36  1  0  0  0  0
 14 39  1  0  0  0  0
 14 40  1  0  0  0  0
 15 37  1  0  0  0  0
 15 38  1  0  0  0  0
 17 21  2  0  0  0  0
 17 22  1  0  0  0  0
 18 19  1  0  0  0  0
 18 41  1  0  0  0  0
 18 42  1  0  0  0  0
 19 44  1  0  0  0  0
 19 45  1  0  0  0  0
 20 24  1  0  0  0  0
 20 25  2  0  0  0  0
 21 27  1  0  0  0  0
 22 26  2  0  0  0  0
 22 46  1  0  0  0  0
 23 28  1  0  0  0  0
 24 29  2  0  0  0  0
 25 31  1  0  0  0  0
 25 47  1  0  0  0  0
 26 30  1  0  0  0  0
 27 30  2  0  0  0  0
 27 48  1  0  0  0  0
 28 49  1  0  0  0  0
 28 50  1  0  0  0  0
 28 51  1  0  0  0  0
 29 32  1  0  0  0  0
 29 52  1  0  0  0  0
 30 53  1  0  0  0  0
 31 32  2  0  0  0  0
 31 54  1  0  0  0  0
 32 55  1  0  0  0  0
M  END
> <PUBCHEM_COMPOUND_CID>
17396384

> <PUBCHEM_COMPOUND_CANONICALIZED>
1

> <PUBCHEM_CACTVS_COMPLEXITY>
759

> <PUBCHEM_CACTVS_HBOND_ACCEPTOR>
5

> <PUBCHEM_CACTVS_HBOND_DONOR>
1

> <PUBCHEM_CACTVS_ROTATABLE_BOND>
5

> <PUBCHEM_CACTVS_SUBSKEYS>
AAADceB7sABGAAAAAAAAAAAAAAAAAWAAAAA8YIAAAAAAAFgB9AAAHgYQQAAACArBVyQz0bfMEAKoASZidHDCgD0hF6AJ2Lg4dpiIaKLBm5GUIAholgLIyCcQAAAAAAAQABAAAKAAACAAIAABQAAAAAAAAA==

> <PUBCHEM_IUPAC_OPENEYE_NAME>
4-(2,5-dichlorophenyl)sulfonyl-N-[2-(2-methylbenzimidazol-1-yl)ethyl]piperazine-1-carboxamide

> <PUBCHEM_IUPAC_CAS_NAME>
4-(2,5-dichlorophenyl)sulfonyl-N-[2-(2-methyl-1-benzimidazolyl)ethyl]-1-piperazinecarboxamide

> <PUBCHEM_IUPAC_NAME>
4-(2,5-dichlorophenyl)sulfonyl-N-[2-(2-methylbenzimidazol-1-yl)ethyl]piperazine-1-carboxamide

> <PUBCHEM_IUPAC_SYSTEMATIC_NAME>
4-[2,5-bis(chloranyl)phenyl]sulfonyl-N-[2-(2-methylbenzimidazol-1-yl)ethyl]piperazine-1-carboxamide

> <PUBCHEM_IUPAC_TRADITIONAL_NAME>
4-(2,5-dichlorophenyl)sulfonyl-N-[2-(2-methylbenzimidazol-1-yl)ethyl]piperazine-1-carboxamide

> <PUBCHEM_IUPAC_INCHI>
InChI=1S/C21H23Cl2N5O3S/c1-15-25-18-4-2-3-5-19(18)28(15)9-8-24-21(29)26-10-12-27(13-11-26)32(30,31)20-14-16(22)6-7-17(20)23/h2-7,14H,8-13H2,1H3,(H,24,29)

> <PUBCHEM_IUPAC_INCHIKEY>
SWZAOPWJKPTFNQ-UHFFFAOYSA-N

> <PUBCHEM_XLOGP3_AA>
3

> <PUBCHEM_EXACT_MASS>
495.089866

> <PUBCHEM_MOLECULAR_FORMULA>
C21H23Cl2N5O3S

> <PUBCHEM_MOLECULAR_WEIGHT>
496.41002

> <PUBCHEM_OPENEYE_CAN_SMILES>
CC1=NC2=CC=CC=C2N1CCNC(=O)N3CCN(CC3)S(=O)(=O)C4=C(C=CC(=C4)Cl)Cl

> <PUBCHEM_OPENEYE_ISO_SMILES>
CC1=NC2=CC=CC=C2N1CCNC(=O)N3CCN(CC3)S(=O)(=O)C4=C(C=CC(=C4)Cl)Cl

> <PUBCHEM_CACTVS_TPSA>
95.9

> <PUBCHEM_MONOISOTOPIC_WEIGHT>
495.089866

> <PUBCHEM_TOTAL_CHARGE>
0

> <PUBCHEM_HEAVY_ATOM_COUNT>
32

> <PUBCHEM_ATOM_DEF_STEREO_COUNT>
0

> <PUBCHEM_ATOM_UDEF_STEREO_COUNT>
0

> <PUBCHEM_BOND_DEF_STEREO_COUNT>
0

> <PUBCHEM_BOND_UDEF_STEREO_COUNT>
0

> <PUBCHEM_ISOTOPIC_ATOM_COUNT>
0

> <PUBCHEM_COMPONENT_COUNT>
1

> <PUBCHEM_CACTVS_TAUTO_COUNT>
2

> <PUBCHEM_COORDINATE_TYPE>
1
5
255

> <PUBCHEM_BONDANNOTATIONS>
10  20  8
10  23  8
11  23  8
11  24  8
17  21  8
17  22  8
20  24  8
20  25  8
21  27  8
22  26  8
24  29  8
25  31  8
26  30  8
27  30  8
29  32  8
31  32  8

$$$$

