160458
  -OEChem-07051213083D

 14 14  0     0  0  0  0  0  0999 V2000
    2.8735   -0.3984    0.0000 F   0  0  0  0  0  0  0  0  0  0  0  0
   -1.6648   -1.7985   -0.0003 O   0  0  0  0  0  0  0  0  0  0  0  0
   -2.4714    0.8618    0.0002 O   0  0  0  0  0  0  0  0  0  0  0  0
   -0.7432   -0.7954    0.0001 C   0  0  0  0  0  0  0  0  0  0  0  0
   -1.1479    0.5395    0.0000 C   0  0  0  0  0  0  0  0  0  0  0  0
    0.6153   -1.1124    0.0002 C   0  0  0  0  0  0  0  0  0  0  0  0
   -0.1944    1.5574   -0.0001 C   0  0  0  0  0  0  0  0  0  0  0  0
    1.5689   -0.0944    0.0000 C   0  0  0  0  0  0  0  0  0  0  0  0
    1.1640    1.2405   -0.0001 C   0  0  0  0  0  0  0  0  0  0  0  0
    0.9449   -2.1479    0.0002 H   0  0  0  0  0  0  0  0  0  0  0  0
   -0.5030    2.5993   -0.0002 H   0  0  0  0  0  0  0  0  0  0  0  0
    1.9067    2.0328   -0.0002 H   0  0  0  0  0  0  0  0  0  0  0  0
   -1.2020   -2.6539   -0.0002 H   0  0  0  0  0  0  0  0  0  0  0  0
   -2.9871    0.0367    0.0003 H   0  0  0  0  0  0  0  0  0  0  0  0
  1  8  1  0  0  0  0
  2  4  1  0  0  0  0
  2 13  1  0  0  0  0
  3  5  1  0  0  0  0
  3 14  1  0  0  0  0
  4  5  2  0  0  0  0
  4  6  1  0  0  0  0
  5  7  1  0  0  0  0
  6  8  2  0  0  0  0
  6 10  1  0  0  0  0
  7  9  2  0  0  0  0
  7 11  1  0  0  0  0
  8  9  1  0  0  0  0
  9 12  1  0  0  0  0
M  END
> <PUBCHEM_COMPOUND_CID>
160458

> <PUBCHEM_CONFORMER_RMSD>
0.4

> <PUBCHEM_CONFORMER_DIVERSEORDER>
1

> <PUBCHEM_MMFF94_PARTIAL_CHARGES>
14
1 -0.19
10 0.15
11 0.15
12 0.15
13 0.45
14 0.45
2 -0.53
3 -0.53
4 0.08
5 0.08
6 -0.15
7 -0.15
8 0.19
9 -0.15

> <PUBCHEM_EFFECTIVE_ROTOR_COUNT>
0

> <PUBCHEM_PHARMACOPHORE_FEATURES>
3
1 2 donor
1 3 donor
6 4 5 6 7 8 9 rings

> <PUBCHEM_HEAVY_ATOM_COUNT>
9

> <PUBCHEM_ATOM_DEF_STEREO_COUNT>
0

> <PUBCHEM_ATOM_UDEF_STEREO_COUNT>
0

> <PUBCHEM_BOND_DEF_STEREO_COUNT>
0

> <PUBCHEM_BOND_UDEF_STEREO_COUNT>
0

> <PUBCHEM_ISOTOPIC_ATOM_COUNT>
0

> <PUBCHEM_COMPONENT_COUNT>
1

> <PUBCHEM_CACTVS_TAUTO_COUNT>
8

> <PUBCHEM_CONFORMER_ID>
000272CA00000001

> <PUBCHEM_MMFF94_ENERGY>
17.4875

> <PUBCHEM_FEATURE_SELFOVERLAP>
15.227

> <PUBCHEM_SHAPE_FINGERPRINT>
16714656 1 18339358681634904108
16945 1 18338797917709131588
18185500 45 18413390946953367698
21040471 1 18338517563650306917
23235685 24 18336833107541664736
23402655 69 17905909302982810861
23552423 10 18200875059099040366
2748010 2 18338237037929940588
29004967 10 18200865300664559032
5084963 1 18188485753197396482

> <PUBCHEM_SHAPE_MULTIPOLES>
166.2
2.78
1.7
0.58
0.51
0.07
0
0.19
0
-0.45
0
0.01
-0.02
0

> <PUBCHEM_SHAPE_SELFOVERLAP>
350.571

> <PUBCHEM_SHAPE_VOLUME>
93.7

> <PUBCHEM_COORDINATE_TYPE>
2
5
10

$$$$

