8649
  -OEChem-06261202582D

 61 60  0     1  0  0  0  0  0999 V2000
    7.5079    9.0230    0.0000 S   0  0  0  0  0  0  0  0  0  0  0  0
    6.2089    4.1200    0.0000 O   0  0  0  0  0  0  0  0  0  0  0  0
    0.5369    5.9860    0.0000 O   0  0  0  0  0  0  0  0  0  0  0  0
    8.3739    9.5230    0.0000 O   0  0  0  0  0  0  0  0  0  0  0  0
    6.6419    8.5230    0.0000 O   0  0  0  0  0  0  0  0  0  0  0  0
    7.0079    9.8890    0.0000 O   0  0  0  0  0  0  0  0  0  0  0  0
    8.0079    8.1569    0.0000 O   0  0  0  0  0  0  0  0  0  0  0  0
    7.9409    5.1200    0.0000 N   0  0  0  0  0  0  0  0  0  0  0  0
    2.2690    6.9860    0.0000 N   0  0  0  0  0  0  0  0  0  0  0  0
    7.9409    4.1200    0.0000 C   0  0  2  0  0  0  0  0  0  0  0  0
    2.2690    5.9860    0.0000 C   0  0  1  0  0  0  0  0  0  0  0  0
    7.0749    3.6200    0.0000 C   0  0  1  0  0  0  0  0  0  0  0  0
    1.4030    5.4860    0.0000 C   0  0  1  0  0  0  0  0  0  0  0  0
    7.0749    2.6200    0.0000 C   0  0  0  0  0  0  0  0  0  0  0  0
    1.4030    4.4860    0.0000 C   0  0  0  0  0  0  0  0  0  0  0  0
    8.8070    3.6200    0.0000 C   0  0  0  0  0  0  0  0  0  0  0  0
    3.1350    5.4860    0.0000 C   0  0  0  0  0  0  0  0  0  0  0  0
    7.9409    2.1200    0.0000 C   0  0  0  0  0  0  0  0  0  0  0  0
    2.2690    3.9860    0.0000 C   0  0  0  0  0  0  0  0  0  0  0  0
    6.2089    2.1200    0.0000 C   0  0  0  0  0  0  0  0  0  0  0  0
    0.5369    3.9860    0.0000 C   0  0  0  0  0  0  0  0  0  0  0  0
    8.8070    5.6200    0.0000 C   0  0  0  0  0  0  0  0  0  0  0  0
    3.1350    7.4860    0.0000 C   0  0  0  0  0  0  0  0  0  0  0  0
    7.9409    1.1200    0.0000 C   0  0  0  0  0  0  0  0  0  0  0  0
    2.2690    2.9860    0.0000 C   0  0  0  0  0  0  0  0  0  0  0  0
    6.2089    1.1200    0.0000 C   0  0  0  0  0  0  0  0  0  0  0  0
    0.5369    2.9860    0.0000 C   0  0  0  0  0  0  0  0  0  0  0  0
    7.0749    0.6200    0.0000 C   0  0  0  0  0  0  0  0  0  0  0  0
    1.4030    2.4860    0.0000 C   0  0  0  0  0  0  0  0  0  0  0  0
    7.4040    4.4300    0.0000 H   0  0  0  0  0  0  0  0  0  0  0  0
    2.8059    6.2960    0.0000 H   0  0  0  0  0  0  0  0  0  0  0  0
    6.5380    3.3100    0.0000 H   0  0  0  0  0  0  0  0  0  0  0  0
    1.4030    6.1060    0.0000 H   0  0  0  0  0  0  0  0  0  0  0  0
    8.4970    3.0831    0.0000 H   0  0  0  0  0  0  0  0  0  0  0  0
    9.3439    3.3100    0.0000 H   0  0  0  0  0  0  0  0  0  0  0  0
    9.1170    4.1569    0.0000 H   0  0  0  0  0  0  0  0  0  0  0  0
    2.8250    4.9491    0.0000 H   0  0  0  0  0  0  0  0  0  0  0  0
    3.6719    5.1760    0.0000 H   0  0  0  0  0  0  0  0  0  0  0  0
    3.4450    6.0230    0.0000 H   0  0  0  0  0  0  0  0  0  0  0  0
    7.4040    5.4300    0.0000 H   0  0  0  0  0  0  0  0  0  0  0  0
    1.7321    7.2960    0.0000 H   0  0  0  0  0  0  0  0  0  0  0  0
    8.4779    2.4300    0.0000 H   0  0  0  0  0  0  0  0  0  0  0  0
    2.8059    4.2960    0.0000 H   0  0  0  0  0  0  0  0  0  0  0  0
    5.6719    2.4300    0.0000 H   0  0  0  0  0  0  0  0  0  0  0  0
    0.0000    4.2960    0.0000 H   0  0  0  0  0  0  0  0  0  0  0  0
    6.2089    4.7400    0.0000 H   0  0  0  0  0  0  0  0  0  0  0  0
    0.5369    6.6060    0.0000 H   0  0  0  0  0  0  0  0  0  0  0  0
    9.1170    5.0831    0.0000 H   0  0  0  0  0  0  0  0  0  0  0  0
    9.3439    5.9300    0.0000 H   0  0  0  0  0  0  0  0  0  0  0  0
    8.4970    6.1569    0.0000 H   0  0  0  0  0  0  0  0  0  0  0  0
    3.4450    6.9491    0.0000 H   0  0  0  0  0  0  0  0  0  0  0  0
    3.6719    7.7960    0.0000 H   0  0  0  0  0  0  0  0  0  0  0  0
    2.8250    8.0230    0.0000 H   0  0  0  0  0  0  0  0  0  0  0  0
    8.4779    0.8100    0.0000 H   0  0  0  0  0  0  0  0  0  0  0  0
    2.8059    2.6760    0.0000 H   0  0  0  0  0  0  0  0  0  0  0  0
    5.6719    0.8100    0.0000 H   0  0  0  0  0  0  0  0  0  0  0  0
    0.0000    2.6760    0.0000 H   0  0  0  0  0  0  0  0  0  0  0  0
    7.0749    0.0000    0.0000 H   0  0  0  0  0  0  0  0  0  0  0  0
    1.4030    1.8660    0.0000 H   0  0  0  0  0  0  0  0  0  0  0  0
    8.9109    9.2130    0.0000 H   0  0  0  0  0  0  0  0  0  0  0  0
    6.1050    8.8330    0.0000 H   0  0  0  0  0  0  0  0  0  0  0  0
  1  4  1  0  0  0  0
  1  5  1  0  0  0  0
  1  6  2  0  0  0  0
  1  7  2  0  0  0  0
  2 12  1  0  0  0  0
  2 46  1  0  0  0  0
  3 13  1  0  0  0  0
  3 47  1  0  0  0  0
  4 60  1  0  0  0  0
  5 61  1  0  0  0  0
  8 10  1  0  0  0  0
  8 22  1  0  0  0  0
  8 40  1  0  0  0  0
  9 11  1  0  0  0  0
  9 23  1  0  0  0  0
  9 41  1  0  0  0  0
 10 12  1  0  0  0  0
 10 16  1  0  0  0  0
 10 30  1  0  0  0  0
 11 13  1  0  0  0  0
 11 17  1  0  0  0  0
 11 31  1  0  0  0  0
 12 14  1  0  0  0  0
 12 32  1  0  0  0  0
 13 15  1  0  0  0  0
 13 33  1  0  0  0  0
 14 18  2  0  0  0  0
 14 20  1  0  0  0  0
 15 19  2  0  0  0  0
 15 21  1  0  0  0  0
 16 34  1  0  0  0  0
 16 35  1  0  0  0  0
 16 36  1  0  0  0  0
 17 37  1  0  0  0  0
 17 38  1  0  0  0  0
 17 39  1  0  0  0  0
 18 24  1  0  0  0  0
 18 42  1  0  0  0  0
 19 25  1  0  0  0  0
 19 43  1  0  0  0  0
 20 26  2  0  0  0  0
 20 44  1  0  0  0  0
 21 27  2  0  0  0  0
 21 45  1  0  0  0  0
 22 48  1  0  0  0  0
 22 49  1  0  0  0  0
 22 50  1  0  0  0  0
 23 51  1  0  0  0  0
 23 52  1  0  0  0  0
 23 53  1  0  0  0  0
 24 28  2  0  0  0  0
 24 54  1  0  0  0  0
 25 29  2  0  0  0  0
 25 55  1  0  0  0  0
 26 28  1  0  0  0  0
 26 56  1  0  0  0  0
 27 29  1  0  0  0  0
 27 57  1  0  0  0  0
 28 58  1  0  0  0  0
 29 59  1  0  0  0  0
M  END
> <PUBCHEM_COMPOUND_CID>
8649

> <PUBCHEM_COMPOUND_CANONICALIZED>
1

> <PUBCHEM_CACTVS_COMPLEXITY>
202

> <PUBCHEM_CACTVS_HBOND_ACCEPTOR>
8

> <PUBCHEM_CACTVS_HBOND_DONOR>
6

> <PUBCHEM_CACTVS_ROTATABLE_BOND>
6

> <PUBCHEM_CACTVS_SUBSKEYS>
AAADcfB7OABAAAAAAAAAAAAAAAAAAAAAAAAwYAAAAAAAAAABQAAAHgAQCAAADDzhmAYyAILAAoCAAiBCADACAAAgAAAIiIAICIgKNiKAkRGEcAAk0AEYmAeQwKAOAAAAAAAAAAAAAAAAAAAAAAAAAAAAAA==

> <PUBCHEM_IUPAC_OPENEYE_NAME>
(1R,2S)-2-(methylamino)-1-phenyl-propan-1-ol; (1R,2R)-2-(methylamino)-1-phenyl-propan-1-ol; sulfuric acid

> <PUBCHEM_IUPAC_CAS_NAME>
(1R,2S)-2-(methylamino)-1-phenyl-1-propanol; (1R,2R)-2-(methylamino)-1-phenyl-1-propanol; sulfuric acid

> <PUBCHEM_IUPAC_NAME>
(1R,2S)-2-(methylamino)-1-phenylpropan-1-ol; (1R,2R)-2-(methylamino)-1-phenylpropan-1-ol; sulfuric acid

> <PUBCHEM_IUPAC_SYSTEMATIC_NAME>
(1R,2S)-2-(methylamino)-1-phenyl-propan-1-ol; (1R,2R)-2-(methylamino)-1-phenyl-propan-1-ol; sulfuric acid

> <PUBCHEM_IUPAC_TRADITIONAL_NAME>
(1R,2S)-2-(methylamino)-1-phenyl-propan-1-ol; (1R,2R)-2-(methylamino)-1-phenyl-propan-1-ol; sulfuric acid

> <PUBCHEM_IUPAC_INCHI>
InChI=1S/2C10H15NO.H2O4S/c2*1-8(11-2)10(12)9-6-4-3-5-7-9;1-5(2,3)4/h2*3-8,10-12H,1-2H3;(H2,1,2,3,4)/t8-,10+;8-,10-;/m10./s1

> <PUBCHEM_IUPAC_INCHIKEY>
CAVQBDOACNULDN-NGUMSVAXSA-N

> <PUBCHEM_XLOGP3_AA>
2.104

> <PUBCHEM_EXACT_MASS>
428.198108

> <PUBCHEM_MOLECULAR_FORMULA>
C20H32N2O6S

> <PUBCHEM_MOLECULAR_WEIGHT>
428.54288

> <PUBCHEM_OPENEYE_CAN_SMILES>
CC(C(C1=CC=CC=C1)O)NC.CC(C(C1=CC=CC=C1)O)NC.OS(=O)(=O)O

> <PUBCHEM_OPENEYE_ISO_SMILES>
C[C@H]([C@@H](C1=CC=CC=C1)O)NC.C[C@@H]([C@@H](C1=CC=CC=C1)O)NC.OS(=O)(=O)O

> <PUBCHEM_CACTVS_TPSA>
148

> <PUBCHEM_MONOISOTOPIC_WEIGHT>
428.198108

> <PUBCHEM_TOTAL_CHARGE>
0

> <PUBCHEM_HEAVY_ATOM_COUNT>
29

> <PUBCHEM_ATOM_DEF_STEREO_COUNT>
4

> <PUBCHEM_ATOM_UDEF_STEREO_COUNT>
0

> <PUBCHEM_BOND_DEF_STEREO_COUNT>
0

> <PUBCHEM_BOND_UDEF_STEREO_COUNT>
0

> <PUBCHEM_ISOTOPIC_ATOM_COUNT>
0

> <PUBCHEM_COMPONENT_COUNT>
3

> <PUBCHEM_CACTVS_TAUTO_COUNT>
1

> <PUBCHEM_COORDINATE_TYPE>
1
5
255

> <PUBCHEM_BONDANNOTATIONS>
10  16  3
11  17  3
14  18  8
14  20  8
15  19  8
15  21  8
18  24  8
19  25  8
12  2  3
20  26  8
21  27  8
24  28  8
25  29  8
26  28  8
27  29  8
13  3  3

$$$$

