54688261
  -OEChem-07051213153D

 39 41  0     1  0  0  0  0  0999 V2000
    2.0986   -0.5333   -1.6475 O   0  0  0  0  0  0  0  0  0  0  0  0
    0.1579    0.7913    1.8157 O   0  0  0  0  0  0  0  0  0  0  0  0
    0.1586   -1.4318   -2.4245 O   0  0  0  0  0  0  0  0  0  0  0  0
   -0.7545   -3.4732   -0.4162 O   0  0  0  0  0  0  0  0  0  0  0  0
   -1.4162   -0.7180   -0.2538 C   0  0  1  0  0  0  0  0  0  0  0  0
    0.0441   -0.3573   -0.3032 C   0  0  0  0  0  0  0  0  0  0  0  0
   -1.6870   -1.6803    0.9195 C   0  0  0  0  0  0  0  0  0  0  0  0
   -2.2892    0.5270   -0.2098 C   0  0  0  0  0  0  0  0  0  0  0  0
    0.7175    0.3170    0.6484 C   0  0  0  0  0  0  0  0  0  0  0  0
    2.1462    0.6039    0.4990 C   0  0  0  0  0  0  0  0  0  0  0  0
    0.7450   -0.8204   -1.5364 C   0  0  0  0  0  0  0  0  0  0  0  0
   -1.2329   -3.1098    0.6571 C   0  0  0  0  0  0  0  0  0  0  0  0
   -2.6574    1.1632   -1.3952 C   0  0  0  0  0  0  0  0  0  0  0  0
   -2.7214    1.0323    1.0163 C   0  0  0  0  0  0  0  0  0  0  0  0
    2.7968    0.1674   -0.6498 C   0  0  0  0  0  0  0  0  0  0  0  0
    2.9004    1.2980    1.4551 C   0  0  0  0  0  0  0  0  0  0  0  0
   -3.4578    2.3049   -1.3546 C   0  0  0  0  0  0  0  0  0  0  0  0
   -3.5218    2.1739    1.0570 C   0  0  0  0  0  0  0  0  0  0  0  0
    4.1554    0.3986   -0.8698 C   0  0  0  0  0  0  0  0  0  0  0  0
   -1.4456   -4.0902    1.7813 C   0  0  0  0  0  0  0  0  0  0  0  0
   -3.8899    2.8102   -0.1285 C   0  0  0  0  0  0  0  0  0  0  0  0
    4.2634    1.5382    1.2506 C   0  0  0  0  0  0  0  0  0  0  0  0
    4.8901    1.0885    0.0892 C   0  0  0  0  0  0  0  0  0  0  0  0
   -1.7326   -1.2523   -1.1585 H   0  0  0  0  0  0  0  0  0  0  0  0
   -2.7686   -1.7506    1.0973 H   0  0  0  0  0  0  0  0  0  0  0  0
   -1.2188   -1.3557    1.8549 H   0  0  0  0  0  0  0  0  0  0  0  0
   -2.3262    0.7807   -2.3570 H   0  0  0  0  0  0  0  0  0  0  0  0
   -2.4609    0.5676    1.9617 H   0  0  0  0  0  0  0  0  0  0  0  0
    2.4666    1.6563    2.3845 H   0  0  0  0  0  0  0  0  0  0  0  0
   -3.7442    2.8006   -2.2775 H   0  0  0  0  0  0  0  0  0  0  0  0
   -3.8589    2.5676    2.0115 H   0  0  0  0  0  0  0  0  0  0  0  0
    4.6391    0.0466   -1.7760 H   0  0  0  0  0  0  0  0  0  0  0  0
   -0.9172   -3.7451    2.6734 H   0  0  0  0  0  0  0  0  0  0  0  0
   -1.0506   -5.0694    1.4967 H   0  0  0  0  0  0  0  0  0  0  0  0
   -2.5144   -4.1842    1.9880 H   0  0  0  0  0  0  0  0  0  0  0  0
   -4.5131    3.6992   -0.0967 H   0  0  0  0  0  0  0  0  0  0  0  0
    4.8365    2.0741    2.0020 H   0  0  0  0  0  0  0  0  0  0  0  0
    0.4998    1.6835    1.9895 H   0  0  0  0  0  0  0  0  0  0  0  0
    5.9484    1.2761   -0.0655 H   0  0  0  0  0  0  0  0  0  0  0  0
  1 11  1  0  0  0  0
  1 15  1  0  0  0  0
  2  9  1  0  0  0  0
  2 38  1  0  0  0  0
  3 11  2  0  0  0  0
  4 12  2  0  0  0  0
  5  6  1  0  0  0  0
  5  7  1  0  0  0  0
  5  8  1  0  0  0  0
  5 24  1  0  0  0  0
  6  9  2  0  0  0  0
  6 11  1  0  0  0  0
  7 12  1  0  0  0  0
  7 25  1  0  0  0  0
  7 26  1  0  0  0  0
  8 13  2  0  0  0  0
  8 14  1  0  0  0  0
  9 10  1  0  0  0  0
 10 15  1  0  0  0  0
 10 16  2  0  0  0  0
 12 20  1  0  0  0  0
 13 17  1  0  0  0  0
 13 27  1  0  0  0  0
 14 18  2  0  0  0  0
 14 28  1  0  0  0  0
 15 19  2  0  0  0  0
 16 22  1  0  0  0  0
 16 29  1  0  0  0  0
 17 21  2  0  0  0  0
 17 30  1  0  0  0  0
 18 21  1  0  0  0  0
 18 31  1  0  0  0  0
 19 23  1  0  0  0  0
 19 32  1  0  0  0  0
 20 33  1  0  0  0  0
 20 34  1  0  0  0  0
 20 35  1  0  0  0  0
 21 36  1  0  0  0  0
 22 23  2  0  0  0  0
 22 37  1  0  0  0  0
 23 39  1  0  0  0  0
M  END
> <PUBCHEM_COMPOUND_CID>
54688261

> <PUBCHEM_CONFORMER_RMSD>
0.6

> <PUBCHEM_CONFORMER_DIVERSEORDER>
1
21
24
33
38
30
45
22
31
42
47
34
41
26
39
44
32
23
46
36
43
20
27
28
11
40
35
17
37
19
13
8
9
25
16
4
15
7
18
14
29
10
6
12
5
3
2

> <PUBCHEM_MMFF94_PARTIAL_CHARGES>
33
1 -0.23
10 0.03
11 0.71
12 0.45
13 -0.15
14 -0.15
15 0.08
16 -0.15
17 -0.15
18 -0.15
19 -0.15
2 -0.53
20 0.06
21 -0.15
22 -0.15
23 -0.15
27 0.15
28 0.15
29 0.15
3 -0.57
30 0.15
31 0.15
32 0.15
36 0.15
37 0.15
38 0.45
39 0.15
4 -0.57
5 0.28
6 -0.12
7 0.06
8 -0.14
9 0.05

> <PUBCHEM_EFFECTIVE_ROTOR_COUNT>
4

> <PUBCHEM_PHARMACOPHORE_FEATURES>
6
1 2 donor
1 3 acceptor
1 4 acceptor
6 1 6 9 10 11 15 rings
6 10 15 16 19 22 23 rings
6 8 13 14 17 18 21 rings

> <PUBCHEM_HEAVY_ATOM_COUNT>
23

> <PUBCHEM_ATOM_DEF_STEREO_COUNT>
1

> <PUBCHEM_ATOM_UDEF_STEREO_COUNT>
0

> <PUBCHEM_BOND_DEF_STEREO_COUNT>
0

> <PUBCHEM_BOND_UDEF_STEREO_COUNT>
0

> <PUBCHEM_ISOTOPIC_ATOM_COUNT>
0

> <PUBCHEM_COMPONENT_COUNT>
1

> <PUBCHEM_CACTVS_TAUTO_COUNT>
9

> <PUBCHEM_CONFORMER_ID>
03427A0500000001

> <PUBCHEM_MMFF94_ENERGY>
73.789

> <PUBCHEM_FEATURE_SELFOVERLAP>
30.473

> <PUBCHEM_SHAPE_FINGERPRINT>
10165383 225 17764827611220065349
107951 10 18410574002358005971
11582403 64 17608695774437994728
121448 382 18339936952127015175
12500047 106 18412265034515044602
12730499 353 18193267714799773833
12788726 201 18123493608290528571
13004483 165 17910106907015960611
13134695 92 17045155649940412191
13140716 1 16107836357942584299
133893 2 17553798391814586999
13464514 151 17969498397399771473
13583140 156 18264217924402516528
13681431 1 17187009129539204291
13878862 14 17262728080498501245
13955234 65 17694777820251948841
14178342 30 18201441316446720858
14289901 80 18128253377358115256
15163728 17 18198621240514362325
16988056 13 7119309645367669810
17980427 26 18050865590886883543
18186145 218 18263637527580080925
18219364 16 17241036584012263518
19765921 60 18189058758107055577
20600515 1 17906714918240023275
21033648 29 18342459295888798964
21120745 212 17696727992464014877
21304303 282 18125475005769217127
22182313 1 17677596593747526220
22907989 373 18118687608394531717
23419403 2 17609171897348761079
23493267 7 18335702719910722560
23557571 272 18337946788519894436
23559900 14 18334007316515881548
238 59 16877952637136197532
25 1 17896034502330877581
2748010 2 17604414203350725372
376196 1 17968951897229324040
474 4 18042126616761617681
495365 180 17769657839063398797
633830 44 18043247049254155301
6442390 28 18340189887235948019
81228 2 18197205958949119971
84936 182 17975976788835878297
9981440 41 17822591425205824986

> <PUBCHEM_SHAPE_MULTIPOLES>
449.85
7.58
3.7
1.83
5.92
4.48
0.36
-7.38
-0.63
-4.45
-1.25
0.15
0.26
1.37

> <PUBCHEM_SHAPE_SELFOVERLAP>
981.679

> <PUBCHEM_SHAPE_VOLUME>
241.1

> <PUBCHEM_COORDINATE_TYPE>
2
5
10

$$$$

