442681
  -OEChem-07051212593D

 49 54  0     0  0  0  0  0  0999 V2000
    3.8569    2.0948   -0.6525 O   0  0  0  0  0  0  0  0  0  0  0  0
   -1.1331    0.2656    0.6239 O   0  0  0  0  0  0  0  0  0  0  0  0
   -0.8677    2.9228   -0.3775 O   0  0  0  0  0  0  0  0  0  0  0  0
    1.0440   -1.3041    0.9284 O   0  0  0  0  0  0  0  0  0  0  0  0
   -3.6014   -0.6772    1.2707 O   0  0  0  0  0  0  0  0  0  0  0  0
    3.7103   -2.3073    0.9694 O   0  0  0  0  0  0  0  0  0  0  0  0
   -3.1007    4.4678   -0.6684 O   0  0  0  0  0  0  0  0  0  0  0  0
    7.9371   -0.4436   -0.2164 O   0  0  0  0  0  0  0  0  0  0  0  0
   -5.8362    0.9279    0.9615 O   0  0  0  0  0  0  0  0  0  0  0  0
   -1.2481   -4.7928    0.7149 O   0  0  0  0  0  0  0  0  0  0  0  0
   -3.4264   -2.7661   -3.0178 O   0  0  0  0  0  0  0  0  0  0  0  0
    2.4744    0.4737    0.1060 C   0  0  0  0  0  0  0  0  0  0  0  0
    3.8091   -0.0276    0.1261 C   0  0  0  0  0  0  0  0  0  0  0  0
    2.5614    1.7753   -0.3785 C   0  0  0  0  0  0  0  0  0  0  0  0
    1.2060   -0.0331    0.4455 C   0  0  0  0  0  0  0  0  0  0  0  0
    0.0876    0.7957    0.2805 C   0  0  0  0  0  0  0  0  0  0  0  0
    0.2182    2.0965   -0.2095 C   0  0  0  0  0  0  0  0  0  0  0  0
    4.6134    1.0043   -0.3471 C   0  0  0  0  0  0  0  0  0  0  0  0
    1.4674    2.6219   -0.5535 C   0  0  0  0  0  0  0  0  0  0  0  0
   -2.2135    1.0927    0.4546 C   0  0  0  0  0  0  0  0  0  0  0  0
    4.4227   -1.2395    0.4931 C   0  0  0  0  0  0  0  0  0  0  0  0
   -2.0838    2.3905   -0.0348 C   0  0  0  0  0  0  0  0  0  0  0  0
    5.9981    0.9172   -0.4823 C   0  0  0  0  0  0  0  0  0  0  0  0
   -3.4708    0.5923    0.7915 C   0  0  0  0  0  0  0  0  0  0  0  0
    5.8137   -1.3566    0.3689 C   0  0  0  0  0  0  0  0  0  0  0  0
    6.5854   -0.2956   -0.1101 C   0  0  0  0  0  0  0  0  0  0  0  0
   -3.2108    3.1970   -0.1912 C   0  0  0  0  0  0  0  0  0  0  0  0
   -4.5991    1.3982    0.6368 C   0  0  0  0  0  0  0  0  0  0  0  0
   -4.4693    2.6984    0.1458 C   0  0  0  0  0  0  0  0  0  0  0  0
   -3.1782   -1.7156    0.4599 C   0  0  0  0  0  0  0  0  0  0  0  0
   -3.5231   -1.7091   -0.8800 C   0  0  0  0  0  0  0  0  0  0  0  0
   -2.4208   -2.7348    1.0091 C   0  0  0  0  0  0  0  0  0  0  0  0
   -1.9942   -3.7816    0.1918 C   0  0  0  0  0  0  0  0  0  0  0  0
   -3.0966   -2.7559   -1.6973 C   0  0  0  0  0  0  0  0  0  0  0  0
   -2.3320   -3.7922   -1.1614 C   0  0  0  0  0  0  0  0  0  0  0  0
    1.5838    3.6298   -0.9347 H   0  0  0  0  0  0  0  0  0  0  0  0
    6.5860    1.7480   -0.8553 H   0  0  0  0  0  0  0  0  0  0  0  0
    6.2924   -2.2918    0.6529 H   0  0  0  0  0  0  0  0  0  0  0  0
   -5.3463    3.3295    0.0233 H   0  0  0  0  0  0  0  0  0  0  0  0
    0.0990   -1.4414    1.1122 H   0  0  0  0  0  0  0  0  0  0  0  0
    2.7695   -2.0736    0.9960 H   0  0  0  0  0  0  0  0  0  0  0  0
   -2.1613    4.6458   -0.8489 H   0  0  0  0  0  0  0  0  0  0  0  0
    8.1819   -1.3369    0.0803 H   0  0  0  0  0  0  0  0  0  0  0  0
   -6.4950    1.6220    0.7881 H   0  0  0  0  0  0  0  0  0  0  0  0
   -4.1328   -0.9209   -1.3124 H   0  0  0  0  0  0  0  0  0  0  0  0
   -2.1622   -2.7157    2.0642 H   0  0  0  0  0  0  0  0  0  0  0  0
   -1.9960   -4.6110   -1.7928 H   0  0  0  0  0  0  0  0  0  0  0  0
   -1.1073   -4.6229    1.6622 H   0  0  0  0  0  0  0  0  0  0  0  0
   -3.0489   -3.5616   -3.4310 H   0  0  0  0  0  0  0  0  0  0  0  0
  1 14  1  0  0  0  0
  1 18  1  0  0  0  0
  2 16  1  0  0  0  0
  2 20  1  0  0  0  0
  3 17  1  0  0  0  0
  3 22  1  0  0  0  0
  4 15  1  0  0  0  0
  4 40  1  0  0  0  0
  5 24  1  0  0  0  0
  5 30  1  0  0  0  0
  6 21  1  0  0  0  0
  6 41  1  0  0  0  0
  7 27  1  0  0  0  0
  7 42  1  0  0  0  0
  8 26  1  0  0  0  0
  8 43  1  0  0  0  0
  9 28  1  0  0  0  0
  9 44  1  0  0  0  0
 10 33  1  0  0  0  0
 10 48  1  0  0  0  0
 11 34  1  0  0  0  0
 11 49  1  0  0  0  0
 12 13  1  0  0  0  0
 12 14  1  0  0  0  0
 12 15  2  0  0  0  0
 13 18  1  0  0  0  0
 13 21  2  0  0  0  0
 14 19  2  0  0  0  0
 15 16  1  0  0  0  0
 16 17  2  0  0  0  0
 17 19  1  0  0  0  0
 18 23  2  0  0  0  0
 19 36  1  0  0  0  0
 20 22  2  0  0  0  0
 20 24  1  0  0  0  0
 21 25  1  0  0  0  0
 22 27  1  0  0  0  0
 23 26  1  0  0  0  0
 23 37  1  0  0  0  0
 24 28  2  0  0  0  0
 25 26  2  0  0  0  0
 25 38  1  0  0  0  0
 27 29  2  0  0  0  0
 28 29  1  0  0  0  0
 29 39  1  0  0  0  0
 30 31  2  0  0  0  0
 30 32  1  0  0  0  0
 31 34  1  0  0  0  0
 31 45  1  0  0  0  0
 32 33  2  0  0  0  0
 32 46  1  0  0  0  0
 33 35  1  0  0  0  0
 34 35  2  0  0  0  0
 35 47  1  0  0  0  0
M  END
> <PUBCHEM_COMPOUND_CID>
442681

> <PUBCHEM_CONFORMER_RMSD>
0.8

> <PUBCHEM_CONFORMER_DIVERSEORDER>
1
2
3
4
7
5
6

> <PUBCHEM_MMFF94_PARTIAL_CHARGES>
47
1 -0.28
10 -0.53
11 -0.53
14 0.14
15 0.08
16 0.08
17 0.08
18 0.14
19 -0.15
2 -0.17
20 0.08
21 0.08
22 0.08
23 -0.15
24 0.08
25 -0.15
26 0.08
27 0.08
28 0.08
29 -0.15
3 -0.17
30 0.08
31 -0.15
32 -0.15
33 0.08
34 0.08
35 -0.15
36 0.15
37 0.15
38 0.15
39 0.15
4 -0.53
40 0.45
41 0.45
42 0.45
43 0.45
44 0.45
45 0.15
46 0.15
47 0.15
48 0.45
49 0.45
5 -0.17
6 -0.53
7 -0.53
8 -0.53
9 -0.53

> <PUBCHEM_EFFECTIVE_ROTOR_COUNT>
2.4

> <PUBCHEM_PHARMACOPHORE_FEATURES>
17
1 1 acceptor
1 10 donor
1 11 donor
1 2 acceptor
1 3 acceptor
1 4 donor
1 5 acceptor
1 6 donor
1 7 donor
1 8 donor
1 9 donor
5 1 12 13 14 18 rings
6 12 14 15 16 17 19 rings
6 13 18 21 23 25 26 rings
6 2 3 16 17 20 22 rings
6 20 22 24 27 28 29 rings
6 30 31 32 33 34 35 rings

> <PUBCHEM_HEAVY_ATOM_COUNT>
35

> <PUBCHEM_ATOM_DEF_STEREO_COUNT>
0

> <PUBCHEM_ATOM_UDEF_STEREO_COUNT>
0

> <PUBCHEM_BOND_DEF_STEREO_COUNT>
0

> <PUBCHEM_BOND_UDEF_STEREO_COUNT>
0

> <PUBCHEM_ISOTOPIC_ATOM_COUNT>
0

> <PUBCHEM_COMPONENT_COUNT>
1

> <PUBCHEM_CACTVS_TAUTO_COUNT>
994

> <PUBCHEM_CONFORMER_ID>
0006C13900000001

> <PUBCHEM_MMFF94_ENERGY>
103.8492

> <PUBCHEM_FEATURE_SELFOVERLAP>
86.554

> <PUBCHEM_SHAPE_FINGERPRINT>
10462674 125 15508891125601244726
10483366 6 18263381252352753319
10622 236 17174627048110592055
10940486 97 18343294860469886540
11014199 57 17979351963105275051
11227688 84 17548123438325047110
11297010 23 17549840218389689189
11513181 2 18260830444794633998
11524674 6 17530964713227524997
11720765 8 17248110730868245493
12156800 1 16014719530277802967
12522641 33 18124320656727480197
12553582 1 18195534679768298675
12788726 201 18337404781164443083
14068700 686 17974010544713850224
14279260 333 17917992815359549562
14659021 117 18267034872586236618
14790565 3 18196650924314541560
14856354 85 17202743990893156984
14866123 147 18409729547811547779
15131766 46 15695433262893628397
15250474 111 18340775870983348778
15274700 242 17917440873090900826
15320467 1 18340764845570613818
15361156 5 18129365052254444320
15439362 3 17333656471599132741
15484559 13 14968183695388099716
16628084 112 18341341063057554119
19311894 1 18124876755364227458
20511986 3 17846505884635437608
20775438 99 16168383607158227735
21033648 29 18189632694192006904
21133410 171 17473319384695997010
21703447 108 17900838053989859048
23516275 137 17982709064574128570
23559900 14 18410858716173230952
249057 3 18411133645244735520
3298306 158 17978504557747174215
335352 9 18342453764208058221
3383291 50 18410009897802661635
338550 245 18273205409583282268
3610482 184 18129643232917087868
38695281 34 18123189262449150417
4017518 198 18114461279029113127
4073 2 17846486025218039504
44880168 125 17604686911803904687
4573279 73 18198334053990725588
463206 1 18341607071513497456
508706 21 18261663814293881446
5171179 24 17897457094383814032
5265222 85 18410007766849419032
613672 6 17761515607066401491

> <PUBCHEM_SHAPE_MULTIPOLES>
655.72
13.85
5.25
1.22
22.94
2.34
0.65
0.16
0.08
-7.41
1.12
-1.41
1.08
-1.88

> <PUBCHEM_SHAPE_SELFOVERLAP>
1520.742

> <PUBCHEM_SHAPE_VOLUME>
334.2

> <PUBCHEM_COORDINATE_TYPE>
2
5
10

$$$$

