440558
  -OEChem-07051212503D

 70 73  0     1  0  0  0  0  0999 V2000
    7.7317    0.5070   -1.0633 O   0  0  0  0  0  0  0  0  0  0  0  0
   -0.7574   -0.5572    0.6152 C   0  0  1  0  0  0  0  0  0  0  0  0
   -0.1351    0.8001    0.2320 C   0  0  2  0  0  0  0  0  0  0  0  0
   -2.2559   -0.2259    0.4106 C   0  0  2  0  0  0  0  0  0  0  0  0
    2.0682   -0.3429   -0.4119 C   0  0  1  0  0  0  0  0  0  0  0  0
   -0.2101   -1.6097   -0.3636 C   0  0  0  0  0  0  0  0  0  0  0  0
    1.3686    0.8061    0.3204 C   0  0  0  0  0  0  0  0  0  0  0  0
   -0.9936    1.8115    0.9972 C   0  0  0  0  0  0  0  0  0  0  0  0
   -2.4048    1.1979    0.9912 C   0  0  0  0  0  0  0  0  0  0  0  0
    3.6305   -0.4624   -0.1053 C   0  0  2  0  0  0  0  0  0  0  0  0
    1.3210   -1.7045   -0.2771 C   0  0  0  0  0  0  0  0  0  0  0  0
   -3.2534   -1.2134    0.9994 C   0  0  1  0  0  0  0  0  0  0  0  0
   -0.4620   -0.9713    2.0782 C   0  0  0  0  0  0  0  0  0  0  0  0
    4.2498    0.8925    0.2639 C   0  0  0  0  0  0  0  0  0  0  0  0
    4.3165   -1.0321   -1.3819 C   0  0  0  0  0  0  0  0  0  0  0  0
    2.0697    1.8165    0.8565 C   0  0  0  0  0  0  0  0  0  0  0  0
    3.9127   -1.4039    1.0926 C   0  0  0  0  0  0  0  0  0  0  0  0
   -4.7195   -0.8135    0.7229 C   0  0  0  0  0  0  0  0  0  0  0  0
    3.4977    1.9093    0.7158 C   0  0  0  0  0  0  0  0  0  0  0  0
    5.7502    1.0349    0.1732 C   0  0  0  0  0  0  0  0  0  0  0  0
    5.8413   -0.9557   -1.3634 C   0  0  0  0  0  0  0  0  0  0  0  0
   -2.9961   -2.6152    0.4324 C   0  0  0  0  0  0  0  0  0  0  0  0
    6.3096    0.4777   -1.1318 C   0  0  2  0  0  0  0  0  0  0  0  0
   -5.1149   -0.7570   -0.7595 C   0  0  0  0  0  0  0  0  0  0  0  0
   -6.5658   -0.4191   -0.9608 C   0  0  0  0  0  0  0  0  0  0  0  0
   -7.1429    0.7967   -1.0054 C   0  0  0  0  0  0  0  0  0  0  0  0
   -8.6275    0.9242   -1.2259 C   0  0  0  0  0  0  0  0  0  0  0  0
   -6.4289    2.1094   -0.8515 C   0  0  0  0  0  0  0  0  0  0  0  0
   -0.3468    0.9845   -0.8354 H   0  0  0  0  0  0  0  0  0  0  0  0
   -2.4256   -0.1520   -0.6728 H   0  0  0  0  0  0  0  0  0  0  0  0
    1.9657   -0.0626   -1.4725 H   0  0  0  0  0  0  0  0  0  0  0  0
   -0.4917   -1.3579   -1.3941 H   0  0  0  0  0  0  0  0  0  0  0  0
   -0.5844   -2.6145   -0.1736 H   0  0  0  0  0  0  0  0  0  0  0  0
   -0.9854    2.7971    0.5199 H   0  0  0  0  0  0  0  0  0  0  0  0
   -0.6481    1.9410    2.0293 H   0  0  0  0  0  0  0  0  0  0  0  0
   -2.8064    1.1921    2.0109 H   0  0  0  0  0  0  0  0  0  0  0  0
   -3.0838    1.7958    0.3741 H   0  0  0  0  0  0  0  0  0  0  0  0
    1.5564   -2.1855    0.6767 H   0  0  0  0  0  0  0  0  0  0  0  0
    1.6744   -2.3886   -1.0581 H   0  0  0  0  0  0  0  0  0  0  0  0
   -3.1449   -1.2617    2.0901 H   0  0  0  0  0  0  0  0  0  0  0  0
    0.6055   -0.9218    2.3145 H   0  0  0  0  0  0  0  0  0  0  0  0
   -0.9678   -0.3251    2.8030 H   0  0  0  0  0  0  0  0  0  0  0  0
   -0.7826   -1.9974    2.2810 H   0  0  0  0  0  0  0  0  0  0  0  0
    3.9706   -0.4773   -2.2646 H   0  0  0  0  0  0  0  0  0  0  0  0
    4.0170   -2.0755   -1.5393 H   0  0  0  0  0  0  0  0  0  0  0  0
    1.5792    2.6625    1.3259 H   0  0  0  0  0  0  0  0  0  0  0  0
    4.9620   -1.3808    1.4065 H   0  0  0  0  0  0  0  0  0  0  0  0
    3.3119   -1.1259    1.9663 H   0  0  0  0  0  0  0  0  0  0  0  0
    3.6968   -2.4491    0.8461 H   0  0  0  0  0  0  0  0  0  0  0  0
   -4.9251    0.1569    1.1919 H   0  0  0  0  0  0  0  0  0  0  0  0
   -5.3769   -1.5291    1.2358 H   0  0  0  0  0  0  0  0  0  0  0  0
    3.9502    2.8540    1.0018 H   0  0  0  0  0  0  0  0  0  0  0  0
    6.0598    2.0837    0.2710 H   0  0  0  0  0  0  0  0  0  0  0  0
    6.2166    0.5211    1.0236 H   0  0  0  0  0  0  0  0  0  0  0  0
    6.2560   -1.6206   -0.5959 H   0  0  0  0  0  0  0  0  0  0  0  0
    6.2415   -1.3244   -2.3160 H   0  0  0  0  0  0  0  0  0  0  0  0
   -2.8040   -2.6079   -0.6449 H   0  0  0  0  0  0  0  0  0  0  0  0
   -2.1823   -3.1196    0.9571 H   0  0  0  0  0  0  0  0  0  0  0  0
   -3.8708   -3.2572    0.5951 H   0  0  0  0  0  0  0  0  0  0  0  0
    6.0019    1.1151   -1.9698 H   0  0  0  0  0  0  0  0  0  0  0  0
   -4.9290   -1.7219   -1.2447 H   0  0  0  0  0  0  0  0  0  0  0  0
   -4.5014   -0.0277   -1.2979 H   0  0  0  0  0  0  0  0  0  0  0  0
    8.0729    0.1540   -1.9027 H   0  0  0  0  0  0  0  0  0  0  0  0
   -7.2085   -1.2918   -1.0728 H   0  0  0  0  0  0  0  0  0  0  0  0
   -9.1192   -0.0479   -1.3368 H   0  0  0  0  0  0  0  0  0  0  0  0
   -9.0936    1.4367   -0.3778 H   0  0  0  0  0  0  0  0  0  0  0  0
   -8.8271    1.5021   -2.1343 H   0  0  0  0  0  0  0  0  0  0  0  0
   -6.8381    2.6648   -0.0012 H   0  0  0  0  0  0  0  0  0  0  0  0
   -5.3565    1.9907   -0.6787 H   0  0  0  0  0  0  0  0  0  0  0  0
   -6.5532    2.7160   -1.7545 H   0  0  0  0  0  0  0  0  0  0  0  0
  1 23  1  0  0  0  0
  1 63  1  0  0  0  0
  2  3  1  0  0  0  0
  2  4  1  0  0  0  0
  2  6  1  0  0  0  0
  2 13  1  0  0  0  0
  3  7  1  0  0  0  0
  3  8  1  0  0  0  0
  3 29  1  0  0  0  0
  4  9  1  0  0  0  0
  4 12  1  0  0  0  0
  4 30  1  0  0  0  0
  5  7  1  0  0  0  0
  5 10  1  0  0  0  0
  5 11  1  0  0  0  0
  5 31  1  0  0  0  0
  6 11  1  0  0  0  0
  6 32  1  0  0  0  0
  6 33  1  0  0  0  0
  7 16  2  0  0  0  0
  8  9  1  0  0  0  0
  8 34  1  0  0  0  0
  8 35  1  0  0  0  0
  9 36  1  0  0  0  0
  9 37  1  0  0  0  0
 10 14  1  0  0  0  0
 10 15  1  0  0  0  0
 10 17  1  0  0  0  0
 11 38  1  0  0  0  0
 11 39  1  0  0  0  0
 12 18  1  0  0  0  0
 12 22  1  0  0  0  0
 12 40  1  0  0  0  0
 13 41  1  0  0  0  0
 13 42  1  0  0  0  0
 13 43  1  0  0  0  0
 14 19  2  0  0  0  0
 14 20  1  0  0  0  0
 15 21  1  0  0  0  0
 15 44  1  0  0  0  0
 15 45  1  0  0  0  0
 16 19  1  0  0  0  0
 16 46  1  0  0  0  0
 17 47  1  0  0  0  0
 17 48  1  0  0  0  0
 17 49  1  0  0  0  0
 18 24  1  0  0  0  0
 18 50  1  0  0  0  0
 18 51  1  0  0  0  0
 19 52  1  0  0  0  0
 20 23  1  0  0  0  0
 20 53  1  0  0  0  0
 20 54  1  0  0  0  0
 21 23  1  0  0  0  0
 21 55  1  0  0  0  0
 21 56  1  0  0  0  0
 22 57  1  0  0  0  0
 22 58  1  0  0  0  0
 22 59  1  0  0  0  0
 23 60  1  0  0  0  0
 24 25  1  0  0  0  0
 24 61  1  0  0  0  0
 24 62  1  0  0  0  0
 25 26  2  0  0  0  0
 25 64  1  0  0  0  0
 26 27  1  0  0  0  0
 26 28  1  0  0  0  0
 27 65  1  0  0  0  0
 27 66  1  0  0  0  0
 27 67  1  0  0  0  0
 28 68  1  0  0  0  0
 28 69  1  0  0  0  0
 28 70  1  0  0  0  0
M  END
> <PUBCHEM_COMPOUND_CID>
440558

> <PUBCHEM_CONFORMER_RMSD>
0.8

> <PUBCHEM_CONFORMER_DIVERSEORDER>
5
10
9
14
4
3
8
6
11
1
13
15
12
2
7

> <PUBCHEM_MMFF94_PARTIAL_CHARGES>
19
1 -0.68
10 0.14
14 -0.28
16 -0.15
19 -0.15
20 0.14
23 0.28
24 0.14
25 -0.29
26 -0.28
27 0.14
28 0.14
3 0.14
46 0.15
5 0.14
52 0.15
63 0.4
64 0.15
7 -0.28

> <PUBCHEM_EFFECTIVE_ROTOR_COUNT>
5.8

> <PUBCHEM_PHARMACOPHORE_FEATURES>
9
1 1 acceptor
1 1 donor
1 22 hydrophobe
3 26 27 28 hydrophobe
4 12 18 24 25 hydrophobe
5 2 3 4 8 9 rings
6 10 14 15 20 21 23 rings
6 2 3 5 6 7 11 rings
6 5 7 10 14 16 19 rings

> <PUBCHEM_HEAVY_ATOM_COUNT>
28

> <PUBCHEM_ATOM_DEF_STEREO_COUNT>
7

> <PUBCHEM_ATOM_UDEF_STEREO_COUNT>
0

> <PUBCHEM_BOND_DEF_STEREO_COUNT>
0

> <PUBCHEM_BOND_UDEF_STEREO_COUNT>
0

> <PUBCHEM_ISOTOPIC_ATOM_COUNT>
0

> <PUBCHEM_COMPONENT_COUNT>
1

> <PUBCHEM_CACTVS_TAUTO_COUNT>
1

> <PUBCHEM_CONFORMER_ID>
0006B8EE00000005

> <PUBCHEM_MMFF94_ENERGY>
85.1242

> <PUBCHEM_FEATURE_SELFOVERLAP>
45.773

> <PUBCHEM_SHAPE_FINGERPRINT>
10 15 9367339332232626350
106641 1 9079111163667627037
10763959 59 18341894056485479636
10835480 77 18335707074723432097
10906281 52 18334846260735720483
11456790 92 12607415360467098060
11578080 2 17559964396676695614
11796584 16 18341615871474719474
12011746 2 18409442566755010642
12236239 1 14979679858118207184
12838862 33 18187091629290082704
13533116 47 18129952281262637466
13782708 43 6194570986735916917
14251764 18 13758070779908609099
14849402 71 12894773827744837063
14931854 50 18410000053700072046
15082195 135 18412816980799846356
15183329 4 18335424595319764745
15188451 53 4823213914239318237
18222031 100 17821447963014087746
200 152 17385716993615004027
20028762 73 17312820485364766334
21033648 29 18271817761068054488
21267235 1 18188756272218898290
21279426 13 18408887317778197419
21424621 283 17417815093185181345
21637258 2 14779548997930002571
221357 26 18113615694837300296
2215653 11 18260546714531739418
22393880 68 18336553716215261179
23559900 14 18335700490390263776
23569914 152 17323520065158750807
23569943 247 6120018558767252932
23576562 1 18267305327104212165
29717793 49 17530682117401584029
3004659 81 18335143081002747601
3009799 131 18410013230390574225
335352 9 18333728000794728725
3633792 109 17966968318064881768
4325135 7 17385441020607379101
474113 269 18338238297326698662
5104073 3 18114452444987805802
5283173 99 18411425038018461417
9953998 17 10303813194895491525

> <PUBCHEM_SHAPE_MULTIPOLES>
570.36
19.73
2.13
1.41
16.69
0.03
0.08
-5.43
-11.89
0.78
0.32
0.01
0.12
1.43

> <PUBCHEM_SHAPE_SELFOVERLAP>
1193.49

> <PUBCHEM_SHAPE_VOLUME>
322.6

> <PUBCHEM_COORDINATE_TYPE>
2
5
10

$$$$

