394146
  -OEChem-07051212593D

 25 26  0     1  0  0  0  0  0999 V2000
   -0.6986   -1.2631   -1.2585 O   0  0  0  0  0  0  0  0  0  0  0  0
   -3.1797   -0.9841   -0.1748 O   0  0  0  0  0  0  0  0  0  0  0  0
    3.0128   -1.3259    0.8598 O   0  0  0  0  0  0  0  0  0  0  0  0
   -0.4705    1.2650    0.6265 N   0  0  2  0  0  0  0  0  0  0  0  0
    0.2522   -0.0461    0.6273 C   0  0  1  0  0  0  0  0  0  0  0  0
   -0.7711   -1.0845    0.1538 C   0  0  1  0  0  0  0  0  0  0  0  0
   -2.0909   -0.4243    0.5303 C   0  0  1  0  0  0  0  0  0  0  0  0
   -1.8391    1.0268    0.1514 C   0  0  0  0  0  0  0  0  0  0  0  0
    1.4784    0.1586   -0.2022 C   0  0  0  0  0  0  0  0  0  0  0  0
    0.3056    2.1770   -0.2370 C   0  0  0  0  0  0  0  0  0  0  0  0
    1.5041    1.4052   -0.6819 C   0  0  0  0  0  0  0  0  0  0  0  0
    2.4967   -0.9046   -0.3948 C   0  0  0  0  0  0  0  0  0  0  0  0
    0.5278   -0.2516    1.6694 H   0  0  0  0  0  0  0  0  0  0  0  0
   -0.6374   -2.0598    0.6319 H   0  0  0  0  0  0  0  0  0  0  0  0
   -2.2781   -0.5106    1.6081 H   0  0  0  0  0  0  0  0  0  0  0  0
   -1.9515    1.1540   -0.9332 H   0  0  0  0  0  0  0  0  0  0  0  0
   -2.5536    1.7002    0.6356 H   0  0  0  0  0  0  0  0  0  0  0  0
    0.6179    3.0486    0.3475 H   0  0  0  0  0  0  0  0  0  0  0  0
   -0.2552    2.5342   -1.1076 H   0  0  0  0  0  0  0  0  0  0  0  0
    2.2870    1.8149   -1.3036 H   0  0  0  0  0  0  0  0  0  0  0  0
    3.3326   -0.5460   -1.0048 H   0  0  0  0  0  0  0  0  0  0  0  0
    2.0546   -1.7703   -0.8977 H   0  0  0  0  0  0  0  0  0  0  0  0
   -1.4317   -1.8485   -1.5140 H   0  0  0  0  0  0  0  0  0  0  0  0
   -3.2228   -1.9276    0.0567 H   0  0  0  0  0  0  0  0  0  0  0  0
    3.6643   -2.0251    0.6806 H   0  0  0  0  0  0  0  0  0  0  0  0
  1  6  1  0  0  0  0
  1 23  1  0  0  0  0
  2  7  1  0  0  0  0
  2 24  1  0  0  0  0
  3 12  1  0  0  0  0
  3 25  1  0  0  0  0
  4  5  1  0  0  0  0
  4  8  1  0  0  0  0
  4 10  1  0  0  0  0
  5  6  1  0  0  0  0
  5  9  1  0  0  0  0
  5 13  1  0  0  0  0
  6  7  1  0  0  0  0
  6 14  1  0  0  0  0
  7  8  1  0  0  0  0
  7 15  1  0  0  0  0
  8 16  1  0  0  0  0
  8 17  1  0  0  0  0
  9 11  2  0  0  0  0
  9 12  1  0  0  0  0
 10 11  1  0  0  0  0
 10 18  1  0  0  0  0
 10 19  1  0  0  0  0
 11 20  1  0  0  0  0
 12 21  1  0  0  0  0
 12 22  1  0  0  0  0
M  END
> <PUBCHEM_COMPOUND_CID>
394146

> <PUBCHEM_CONFORMER_RMSD>
0.4

> <PUBCHEM_CONFORMER_DIVERSEORDER>
1
5
3
4
2
6

> <PUBCHEM_MMFF94_PARTIAL_CHARGES>
16
1 -0.68
10 0.41
11 -0.29
12 0.42
2 -0.68
20 0.15
23 0.4
24 0.4
25 0.4
3 -0.68
4 -0.81
5 0.41
6 0.28
7 0.28
8 0.27
9 -0.28

> <PUBCHEM_EFFECTIVE_ROTOR_COUNT>
1.8

> <PUBCHEM_PHARMACOPHORE_FEATURES>
9
1 1 acceptor
1 1 donor
1 2 acceptor
1 2 donor
1 3 acceptor
1 3 donor
1 4 cation
5 4 5 6 7 8 rings
5 4 5 9 10 11 rings

> <PUBCHEM_HEAVY_ATOM_COUNT>
12

> <PUBCHEM_ATOM_DEF_STEREO_COUNT>
3

> <PUBCHEM_ATOM_UDEF_STEREO_COUNT>
0

> <PUBCHEM_BOND_DEF_STEREO_COUNT>
0

> <PUBCHEM_BOND_UDEF_STEREO_COUNT>
0

> <PUBCHEM_ISOTOPIC_ATOM_COUNT>
0

> <PUBCHEM_COMPONENT_COUNT>
1

> <PUBCHEM_CACTVS_TAUTO_COUNT>
1

> <PUBCHEM_CONFORMER_ID>
000603A200000001

> <PUBCHEM_MMFF94_ENERGY>
28.3021

> <PUBCHEM_FEATURE_SELFOVERLAP>
46.013

> <PUBCHEM_SHAPE_FINGERPRINT>
12423570 1 16315308657168897069
13024252 1 16270785922403640400
14128692 85 18408597054691750576
15219459 52 18336824182710465135
16945 1 18125426528103964561
18185500 45 18191017898532589324
20871998 184 18189620617075473758
23419403 2 15437424114903393887
23552423 10 18197771094544639349
241688 4 18341328989218449104
2748010 2 18410853278306244813
369184 2 18337675320837725226
5084963 1 18335698338796147611
528862 383 18268426828495044334
53812654 25 18114186293631408638
7364860 26 18189611644899575640

> <PUBCHEM_SHAPE_MULTIPOLES>
224.37
3.65
1.89
0.89
0.08
0.72
0.07
-1.7
-0.16
-0.35
0.14
-0.1
-0.15
-0.45

> <PUBCHEM_SHAPE_SELFOVERLAP>
469.92

> <PUBCHEM_SHAPE_VOLUME>
130

> <PUBCHEM_COORDINATE_TYPE>
2
5
10

$$$$

