17395298
  -OEChem-06241222492D

 44 46  0     0  0  0  0  0  0999 V2000
    5.1350   -1.0352    0.0000 O   0  0  0  0  0  0  0  0  0  0  0  0
    6.8671   -0.0352    0.0000 O   0  0  0  0  0  0  0  0  0  0  0  0
    6.0010   -4.5352    0.0000 O   0  0  0  0  0  0  0  0  0  0  0  0
    2.5369   -2.5352    0.0000 O   0  0  0  0  0  0  0  0  0  0  0  0
    3.4030   -1.0352    0.0000 O   0  0  0  0  0  0  0  0  0  0  0  0
    6.0010    1.4648    0.0000 N   0  0  0  0  0  0  0  0  0  0  0  0
    6.8100    2.0526    0.0000 N   0  0  0  0  0  0  0  0  0  0  0  0
    5.5010    3.0036    0.0000 C   0  0  0  0  0  0  0  0  0  0  0  0
    5.1920    2.0526    0.0000 C   0  0  0  0  0  0  0  0  0  0  0  0
    6.5010    3.0036    0.0000 C   0  0  0  0  0  0  0  0  0  0  0  0
    7.0888    3.8126    0.0000 C   0  0  0  0  0  0  0  0  0  0  0  0
    6.0010    0.4648    0.0000 C   0  0  0  0  0  0  0  0  0  0  0  0
    5.1350   -0.0352    0.0000 C   0  0  0  0  0  0  0  0  0  0  0  0
    8.0833    3.7081    0.0000 C   0  0  0  0  0  0  0  0  0  0  0  0
    6.6821    4.7262    0.0000 C   0  0  0  0  0  0  0  0  0  0  0  0
    8.6711    4.5171    0.0000 C   0  0  0  0  0  0  0  0  0  0  0  0
    7.2699    5.5352    0.0000 C   0  0  0  0  0  0  0  0  0  0  0  0
    8.2644    5.4307    0.0000 C   0  0  0  0  0  0  0  0  0  0  0  0
    4.2690   -2.5352    0.0000 C   0  0  0  0  0  0  0  0  0  0  0  0
    4.2690   -1.5352    0.0000 C   0  0  0  0  0  0  0  0  0  0  0  0
    5.1350   -3.0352    0.0000 C   0  0  0  0  0  0  0  0  0  0  0  0
    3.4030   -3.0352    0.0000 C   0  0  0  0  0  0  0  0  0  0  0  0
    5.1350   -4.0352    0.0000 C   0  0  0  0  0  0  0  0  0  0  0  0
    3.4030   -4.0352    0.0000 C   0  0  0  0  0  0  0  0  0  0  0  0
    4.2690   -4.5352    0.0000 C   0  0  0  0  0  0  0  0  0  0  0  0
    6.0010   -5.5352    0.0000 C   0  0  0  0  0  0  0  0  0  0  0  0
    5.5658    3.6202    0.0000 H   0  0  0  0  0  0  0  0  0  0  0  0
    4.8946    3.1325    0.0000 H   0  0  0  0  0  0  0  0  0  0  0  0
    4.6256    2.3048    0.0000 H   0  0  0  0  0  0  0  0  0  0  0  0
    4.8820    1.5156    0.0000 H   0  0  0  0  0  0  0  0  0  0  0  0
    4.9230    0.5474    0.0000 H   0  0  0  0  0  0  0  0  0  0  0  0
    4.5244   -0.1429    0.0000 H   0  0  0  0  0  0  0  0  0  0  0  0
    8.3355    3.1417    0.0000 H   0  0  0  0  0  0  0  0  0  0  0  0
    6.0655    4.7910    0.0000 H   0  0  0  0  0  0  0  0  0  0  0  0
    9.2877    4.4523    0.0000 H   0  0  0  0  0  0  0  0  0  0  0  0
    7.0177    6.1016    0.0000 H   0  0  0  0  0  0  0  0  0  0  0  0
    8.6288    5.9323    0.0000 H   0  0  0  0  0  0  0  0  0  0  0  0
    5.6720   -2.7252    0.0000 H   0  0  0  0  0  0  0  0  0  0  0  0
    2.8660   -4.3452    0.0000 H   0  0  0  0  0  0  0  0  0  0  0  0
    4.2690   -5.1552    0.0000 H   0  0  0  0  0  0  0  0  0  0  0  0
    2.0000   -2.8452    0.0000 H   0  0  0  0  0  0  0  0  0  0  0  0
    5.3810   -5.5352    0.0000 H   0  0  0  0  0  0  0  0  0  0  0  0
    6.0010   -6.1552    0.0000 H   0  0  0  0  0  0  0  0  0  0  0  0
    6.6210   -5.5352    0.0000 H   0  0  0  0  0  0  0  0  0  0  0  0
  1 13  1  0  0  0  0
  1 20  1  0  0  0  0
  2 12  2  0  0  0  0
  3 23  1  0  0  0  0
  3 26  1  0  0  0  0
  4 22  1  0  0  0  0
  4 41  1  0  0  0  0
  5 20  2  0  0  0  0
  6  7  1  0  0  0  0
  6  9  1  0  0  0  0
  6 12  1  0  0  0  0
  7 10  2  0  0  0  0
  8  9  1  0  0  0  0
  8 10  1  0  0  0  0
  8 27  1  0  0  0  0
  8 28  1  0  0  0  0
  9 29  1  0  0  0  0
  9 30  1  0  0  0  0
 10 11  1  0  0  0  0
 11 14  2  0  0  0  0
 11 15  1  0  0  0  0
 12 13  1  0  0  0  0
 13 31  1  0  0  0  0
 13 32  1  0  0  0  0
 14 16  1  0  0  0  0
 14 33  1  0  0  0  0
 15 17  2  0  0  0  0
 15 34  1  0  0  0  0
 16 18  2  0  0  0  0
 16 35  1  0  0  0  0
 17 18  1  0  0  0  0
 17 36  1  0  0  0  0
 18 37  1  0  0  0  0
 19 20  1  0  0  0  0
 19 21  1  0  0  0  0
 19 22  2  0  0  0  0
 21 23  2  0  0  0  0
 21 38  1  0  0  0  0
 22 24  1  0  0  0  0
 23 25  1  0  0  0  0
 24 25  2  0  0  0  0
 24 39  1  0  0  0  0
 25 40  1  0  0  0  0
 26 42  1  0  0  0  0
 26 43  1  0  0  0  0
 26 44  1  0  0  0  0
M  END
> <PUBCHEM_COMPOUND_CID>
17395298

> <PUBCHEM_COMPOUND_CANONICALIZED>
1

> <PUBCHEM_CACTVS_COMPLEXITY>
544

> <PUBCHEM_CACTVS_HBOND_ACCEPTOR>
6

> <PUBCHEM_CACTVS_HBOND_DONOR>
1

> <PUBCHEM_CACTVS_ROTATABLE_BOND>
6

> <PUBCHEM_CACTVS_SUBSKEYS>
AAADceB7OAAAAAAAAAAAAAAAAAAAAQAAAAAwYAAAAAAAAAABQAAAHgAICAAADAzhmAYyDoIABgCoAyHyGAISCAAkIAAaiAF+CNgOJ7aGtR6HcWAl7hGYuYfayLCOAQABAAAIAAACAAIAABAAAAAAAAAAAA==

> <PUBCHEM_IUPAC_OPENEYE_NAME>
[2-oxo-2-(5-phenyl-3,4-dihydropyrazol-2-yl)ethyl] 2-hydroxy-5-methoxy-benzoate

> <PUBCHEM_IUPAC_CAS_NAME>
2-hydroxy-5-methoxybenzoic acid [2-oxo-2-(5-phenyl-3,4-dihydropyrazol-2-yl)ethyl] ester

> <PUBCHEM_IUPAC_NAME>
[2-oxo-2-(5-phenyl-3,4-dihydropyrazol-2-yl)ethyl] 2-hydroxy-5-methoxybenzoate

> <PUBCHEM_IUPAC_SYSTEMATIC_NAME>
[2-oxidanylidene-2-(5-phenyl-3,4-dihydropyrazol-2-yl)ethyl] 5-methoxy-2-oxidanyl-benzoate

> <PUBCHEM_IUPAC_TRADITIONAL_NAME>
2-hydroxy-5-methoxy-benzoic acid [2-keto-2-(3-phenyl-2-pyrazolin-1-yl)ethyl] ester

> <PUBCHEM_IUPAC_INCHI>
InChI=1S/C19H18N2O5/c1-25-14-7-8-17(22)15(11-14)19(24)26-12-18(23)21-10-9-16(20-21)13-5-3-2-4-6-13/h2-8,11,22H,9-10,12H2,1H3

> <PUBCHEM_IUPAC_INCHIKEY>
UHUMTTBBBWCCRX-UHFFFAOYSA-N

> <PUBCHEM_XLOGP3_AA>
2.9

> <PUBCHEM_EXACT_MASS>
354.121572

> <PUBCHEM_MOLECULAR_FORMULA>
C19H18N2O5

> <PUBCHEM_MOLECULAR_WEIGHT>
354.35662

> <PUBCHEM_OPENEYE_CAN_SMILES>
COC1=CC(=C(C=C1)O)C(=O)OCC(=O)N2CCC(=N2)C3=CC=CC=C3

> <PUBCHEM_OPENEYE_ISO_SMILES>
COC1=CC(=C(C=C1)O)C(=O)OCC(=O)N2CCC(=N2)C3=CC=CC=C3

> <PUBCHEM_CACTVS_TPSA>
88.4

> <PUBCHEM_MONOISOTOPIC_WEIGHT>
354.121572

> <PUBCHEM_TOTAL_CHARGE>
0

> <PUBCHEM_HEAVY_ATOM_COUNT>
26

> <PUBCHEM_ATOM_DEF_STEREO_COUNT>
0

> <PUBCHEM_ATOM_UDEF_STEREO_COUNT>
0

> <PUBCHEM_BOND_DEF_STEREO_COUNT>
0

> <PUBCHEM_BOND_UDEF_STEREO_COUNT>
0

> <PUBCHEM_ISOTOPIC_ATOM_COUNT>
0

> <PUBCHEM_COMPONENT_COUNT>
1

> <PUBCHEM_CACTVS_TAUTO_COUNT>
4

> <PUBCHEM_COORDINATE_TYPE>
1
5
255

> <PUBCHEM_BONDANNOTATIONS>
11  14  8
11  15  8
14  16  8
15  17  8
16  18  8
17  18  8
19  21  8
19  22  8
21  23  8
22  24  8
23  25  8
24  25  8

$$$$

