4230
  -OEChem-06251223582D

 54 56  0     1  0  0  0  0  0999 V2000
    6.0010   -1.5000    0.0000 S   0  0  0  0  0  0  0  0  0  0  0  0
    7.0010   -1.5000    0.0000 O   0  0  0  0  0  0  0  0  0  0  0  0
    5.0010   -1.5000    0.0000 O   0  0  0  0  0  0  0  0  0  0  0  0
    6.8671    3.0000    0.0000 O   0  0  0  0  0  0  0  0  0  0  0  0
    4.2690   -1.5000    0.0000 O   0  0  0  0  0  0  0  0  0  0  0  0
    5.1350    3.0000    0.0000 O   0  0  0  0  0  0  0  0  0  0  0  0
    2.5369   -0.5000    0.0000 O   0  0  0  0  0  0  0  0  0  0  0  0
    6.0010   -5.5000    0.0000 O   0  0  0  0  0  0  0  0  0  0  0  0
    6.0010   -0.5000    0.0000 N   0  0  3  0  0  0  0  0  0  0  0  0
    6.0010    1.5000    0.0000 N   0  0  0  0  0  0  0  0  0  0  0  0
    3.4030    0.0000    0.0000 N   0  0  0  0  0  0  0  0  0  0  0  0
    5.1350    0.0000    0.0000 C   0  0  3  0  0  0  0  0  0  0  0  0
    5.1350    1.0000    0.0000 C   0  0  0  0  0  0  0  0  0  0  0  0
    6.8671    0.0000    0.0000 C   0  0  0  0  0  0  0  0  0  0  0  0
    6.8671    1.0000    0.0000 C   0  0  0  0  0  0  0  0  0  0  0  0
    4.2690   -0.5000    0.0000 C   0  0  0  0  0  0  0  0  0  0  0  0
    6.0010   -2.5000    0.0000 C   0  0  0  0  0  0  0  0  0  0  0  0
    6.0010    2.5000    0.0000 C   0  0  0  0  0  0  0  0  0  0  0  0
    5.1350   -3.0000    0.0000 C   0  0  0  0  0  0  0  0  0  0  0  0
    6.8671   -3.0000    0.0000 C   0  0  0  0  0  0  0  0  0  0  0  0
    5.1350   -4.0000    0.0000 C   0  0  0  0  0  0  0  0  0  0  0  0
    6.8671   -4.0000    0.0000 C   0  0  0  0  0  0  0  0  0  0  0  0
    6.8671    4.0000    0.0000 C   0  0  0  0  0  0  0  0  0  0  0  0
    6.0010   -4.5000    0.0000 C   0  0  0  0  0  0  0  0  0  0  0  0
    7.7331    4.5000    0.0000 C   0  0  0  0  0  0  0  0  0  0  0  0
    8.5991    4.0000    0.0000 C   0  0  0  0  0  0  0  0  0  0  0  0
    7.7331    5.5000    0.0000 C   0  0  0  0  0  0  0  0  0  0  0  0
    9.4651    4.5000    0.0000 C   0  0  0  0  0  0  0  0  0  0  0  0
    8.5991    6.0000    0.0000 C   0  0  0  0  0  0  0  0  0  0  0  0
    6.8671   -6.0000    0.0000 C   0  0  0  0  0  0  0  0  0  0  0  0
    9.4651    5.5000    0.0000 C   0  0  0  0  0  0  0  0  0  0  0  0
    5.1350   -0.6200    0.0000 H   0  0  0  0  0  0  0  0  0  0  0  0
    4.9230    1.5826    0.0000 H   0  0  0  0  0  0  0  0  0  0  0  0
    4.5244    0.8923    0.0000 H   0  0  0  0  0  0  0  0  0  0  0  0
    7.0791   -0.5826    0.0000 H   0  0  0  0  0  0  0  0  0  0  0  0
    7.4776    0.1077    0.0000 H   0  0  0  0  0  0  0  0  0  0  0  0
    7.4776    0.8923    0.0000 H   0  0  0  0  0  0  0  0  0  0  0  0
    7.0791    1.5826    0.0000 H   0  0  0  0  0  0  0  0  0  0  0  0
    3.4030    0.6200    0.0000 H   0  0  0  0  0  0  0  0  0  0  0  0
    4.5981   -2.6900    0.0000 H   0  0  0  0  0  0  0  0  0  0  0  0
    7.4040   -2.6900    0.0000 H   0  0  0  0  0  0  0  0  0  0  0  0
    4.5981   -4.3100    0.0000 H   0  0  0  0  0  0  0  0  0  0  0  0
    7.4040   -4.3100    0.0000 H   0  0  0  0  0  0  0  0  0  0  0  0
    6.6550    4.5826    0.0000 H   0  0  0  0  0  0  0  0  0  0  0  0
    6.2565    3.8923    0.0000 H   0  0  0  0  0  0  0  0  0  0  0  0
    2.0000   -0.1900    0.0000 H   0  0  0  0  0  0  0  0  0  0  0  0
    8.5991    3.3800    0.0000 H   0  0  0  0  0  0  0  0  0  0  0  0
    7.1962    5.8100    0.0000 H   0  0  0  0  0  0  0  0  0  0  0  0
   10.0021    4.1900    0.0000 H   0  0  0  0  0  0  0  0  0  0  0  0
    8.5991    6.6200    0.0000 H   0  0  0  0  0  0  0  0  0  0  0  0
    6.5571   -6.5369    0.0000 H   0  0  0  0  0  0  0  0  0  0  0  0
    7.4040   -6.3100    0.0000 H   0  0  0  0  0  0  0  0  0  0  0  0
    7.1771   -5.4631    0.0000 H   0  0  0  0  0  0  0  0  0  0  0  0
   10.0021    5.8100    0.0000 H   0  0  0  0  0  0  0  0  0  0  0  0
  1  2  2  0  0  0  0
  1  3  2  0  0  0  0
  1  9  1  0  0  0  0
  1 17  1  0  0  0  0
  4 18  1  0  0  0  0
  4 23  1  0  0  0  0
  5 16  2  0  0  0  0
  6 18  2  0  0  0  0
  7 11  1  0  0  0  0
  7 46  1  0  0  0  0
  8 24  1  0  0  0  0
  8 30  1  0  0  0  0
  9 12  1  0  0  0  0
  9 14  1  0  0  0  0
 10 13  1  0  0  0  0
 10 15  1  0  0  0  0
 10 18  1  0  0  0  0
 11 16  1  0  0  0  0
 11 39  1  0  0  0  0
 12 13  1  0  0  0  0
 12 16  1  0  0  0  0
 12 32  1  0  0  0  0
 13 33  1  0  0  0  0
 13 34  1  0  0  0  0
 14 15  1  0  0  0  0
 14 35  1  0  0  0  0
 14 36  1  0  0  0  0
 15 37  1  0  0  0  0
 15 38  1  0  0  0  0
 17 19  2  0  0  0  0
 17 20  1  0  0  0  0
 19 21  1  0  0  0  0
 19 40  1  0  0  0  0
 20 22  2  0  0  0  0
 20 41  1  0  0  0  0
 21 24  2  0  0  0  0
 21 42  1  0  0  0  0
 22 24  1  0  0  0  0
 22 43  1  0  0  0  0
 23 25  1  0  0  0  0
 23 44  1  0  0  0  0
 23 45  1  0  0  0  0
 25 26  2  0  0  0  0
 25 27  1  0  0  0  0
 26 28  1  0  0  0  0
 26 47  1  0  0  0  0
 27 29  2  0  0  0  0
 27 48  1  0  0  0  0
 28 31  2  0  0  0  0
 28 49  1  0  0  0  0
 29 31  1  0  0  0  0
 29 50  1  0  0  0  0
 30 51  1  0  0  0  0
 30 52  1  0  0  0  0
 30 53  1  0  0  0  0
 31 54  1  0  0  0  0
M  END
> <PUBCHEM_COMPOUND_CID>
4230

> <PUBCHEM_COMPOUND_CANONICALIZED>
1

> <PUBCHEM_CACTVS_COMPLEXITY>
713

> <PUBCHEM_CACTVS_HBOND_ACCEPTOR>
8

> <PUBCHEM_CACTVS_HBOND_DONOR>
2

> <PUBCHEM_CACTVS_ROTATABLE_BOND>
7

> <PUBCHEM_CACTVS_SUBSKEYS>
AAADceB7OABAAAAAAAAAAAAAAAAAAAAAAAA8YIAAAAAAAAABQAAAHgQUSAAADCzh2AYyD4NQBAKIAiFSGHBCCBAgIAAoiBmOCIgMZiqEcTqcMCAk1hGIqAeAwCAOAIAAAAAAAAABAAAAAAAAAAAAAAAAAA==

> <PUBCHEM_IUPAC_OPENEYE_NAME>
benzyl 3-(hydroxycarbamoyl)-4-(4-methoxyphenyl)sulfonyl-piperazine-1-carboxylate

> <PUBCHEM_IUPAC_CAS_NAME>
3-[(hydroxyamino)-oxomethyl]-4-(4-methoxyphenyl)sulfonyl-1-piperazinecarboxylic acid (phenylmethyl) ester

> <PUBCHEM_IUPAC_NAME>
benzyl 3-(hydroxycarbamoyl)-4-(4-methoxyphenyl)sulfonylpiperazine-1-carboxylate

> <PUBCHEM_IUPAC_SYSTEMATIC_NAME>
(phenylmethyl) 4-(4-methoxyphenyl)sulfonyl-3-(oxidanylcarbamoyl)piperazine-1-carboxylate

> <PUBCHEM_IUPAC_TRADITIONAL_NAME>
3-(hydroxycarbamoyl)-4-(4-methoxyphenyl)sulfonyl-piperazine-1-carboxylic acid benzyl ester

> <PUBCHEM_IUPAC_INCHI>
InChI=1S/C20H23N3O7S/c1-29-16-7-9-17(10-8-16)31(27,28)23-12-11-22(13-18(23)19(24)21-26)20(25)30-14-15-5-3-2-4-6-15/h2-10,18,26H,11-14H2,1H3,(H,21,24)

> <PUBCHEM_IUPAC_INCHIKEY>
DNGGPLKVDUPXFN-UHFFFAOYSA-N

> <PUBCHEM_XLOGP3_AA>
1.1

> <PUBCHEM_EXACT_MASS>
449.125671

> <PUBCHEM_MOLECULAR_FORMULA>
C20H23N3O7S

> <PUBCHEM_MOLECULAR_WEIGHT>
449.47752

> <PUBCHEM_OPENEYE_CAN_SMILES>
COC1=CC=C(C=C1)S(=O)(=O)N2CCN(CC2C(=O)NO)C(=O)OCC3=CC=CC=C3

> <PUBCHEM_OPENEYE_ISO_SMILES>
COC1=CC=C(C=C1)S(=O)(=O)N2CCN(CC2C(=O)NO)C(=O)OCC3=CC=CC=C3

> <PUBCHEM_CACTVS_TPSA>
134

> <PUBCHEM_MONOISOTOPIC_WEIGHT>
449.125671

> <PUBCHEM_TOTAL_CHARGE>
0

> <PUBCHEM_HEAVY_ATOM_COUNT>
31

> <PUBCHEM_ATOM_DEF_STEREO_COUNT>
0

> <PUBCHEM_ATOM_UDEF_STEREO_COUNT>
1

> <PUBCHEM_BOND_DEF_STEREO_COUNT>
0

> <PUBCHEM_BOND_UDEF_STEREO_COUNT>
0

> <PUBCHEM_ISOTOPIC_ATOM_COUNT>
0

> <PUBCHEM_COMPONENT_COUNT>
1

> <PUBCHEM_CACTVS_TAUTO_COUNT>
4

> <PUBCHEM_COORDINATE_TYPE>
1
5
255

> <PUBCHEM_BONDANNOTATIONS>
12  16  3
17  19  8
17  20  8
19  21  8
20  22  8
21  24  8
22  24  8
25  26  8
25  27  8
26  28  8
27  29  8
28  31  8
29  31  8

$$$$

