160886
  -OEChem-07051212513D

 29 29  0     1  0  0  0  0  0999 V2000
    2.6237    0.0031   -0.0287 P   0  0  0  0  0  0  0  0  0  0  0  0
    1.2275    0.1576    0.7636 O   0  0  0  0  0  0  0  0  0  0  0  0
   -0.9244   -1.8582   -1.3829 O   0  0  0  0  0  0  0  0  0  0  0  0
   -1.8557   -1.6728    1.3823 O   0  0  0  0  0  0  0  0  0  0  0  0
   -0.1544    1.7096   -1.3229 O   0  0  0  0  0  0  0  0  0  0  0  0
   -1.0374    1.8915    1.4016 O   0  0  0  0  0  0  0  0  0  0  0  0
   -3.1977   -0.1675   -0.6935 O   0  0  0  0  0  0  0  0  0  0  0  0
    3.2323   -1.3885    0.5267 O   0  0  0  0  0  0  0  0  0  0  0  0
    3.5524    1.1231    0.6772 O   0  0  0  0  0  0  0  0  0  0  0  0
    2.5264    0.1100   -1.5224 O   0  0  0  0  0  0  0  0  0  0  0  0
    0.1883   -0.7760    0.4800 C   0  0  0  0  0  0  0  0  0  0  0  0
   -0.1917   -0.6942   -1.0076 C   0  0  2  0  0  0  0  0  0  0  0  0
   -0.9993   -0.5341    1.4246 C   0  0  1  0  0  0  0  0  0  0  0  0
   -1.0023    0.5646   -1.3588 C   0  0  1  0  0  0  0  0  0  0  0  0
   -1.7982    0.7320    1.0730 C   0  0  2  0  0  0  0  0  0  0  0  0
   -2.1896    0.7997   -0.4122 C   0  0  0  0  0  0  0  0  0  0  0  0
    0.5787   -1.7820    0.6804 H   0  0  0  0  0  0  0  0  0  0  0  0
    0.6650   -0.7464   -1.6611 H   0  0  0  0  0  0  0  0  0  0  0  0
   -0.6246   -0.4331    2.4508 H   0  0  0  0  0  0  0  0  0  0  0  0
   -1.3895    0.4710   -2.3812 H   0  0  0  0  0  0  0  0  0  0  0  0
   -2.7120    0.7512    1.6788 H   0  0  0  0  0  0  0  0  0  0  0  0
   -2.6152    1.7890   -0.6193 H   0  0  0  0  0  0  0  0  0  0  0  0
   -1.1426   -1.7827   -2.3274 H   0  0  0  0  0  0  0  0  0  0  0  0
   -1.3388   -2.4422    1.6760 H   0  0  0  0  0  0  0  0  0  0  0  0
    0.5738    1.5557   -1.9485 H   0  0  0  0  0  0  0  0  0  0  0  0
   -0.2143    1.8727    0.8848 H   0  0  0  0  0  0  0  0  0  0  0  0
   -2.8358   -1.0493   -0.5034 H   0  0  0  0  0  0  0  0  0  0  0  0
    4.0679   -1.7281    0.1413 H   0  0  0  0  0  0  0  0  0  0  0  0
    4.4444    1.3003    0.3095 H   0  0  0  0  0  0  0  0  0  0  0  0
  1  2  1  0  0  0  0
  1  8  1  0  0  0  0
  1  9  1  0  0  0  0
  1 10  2  0  0  0  0
  2 11  1  0  0  0  0
  3 12  1  0  0  0  0
  3 23  1  0  0  0  0
  4 13  1  0  0  0  0
  4 24  1  0  0  0  0
  5 14  1  0  0  0  0
  5 25  1  0  0  0  0
  6 15  1  0  0  0  0
  6 26  1  0  0  0  0
  7 16  1  0  0  0  0
  7 27  1  0  0  0  0
  8 28  1  0  0  0  0
  9 29  1  0  0  0  0
 11 12  1  0  0  0  0
 11 13  1  0  0  0  0
 11 17  1  0  0  0  0
 12 14  1  0  0  0  0
 12 18  1  0  0  0  0
 13 15  1  0  0  0  0
 13 19  1  0  0  0  0
 14 16  1  0  0  0  0
 14 20  1  0  0  0  0
 15 16  1  0  0  0  0
 15 21  1  0  0  0  0
 16 22  1  0  0  0  0
M  END
> <PUBCHEM_COMPOUND_CID>
160886

> <PUBCHEM_CONFORMER_RMSD>
0.6

> <PUBCHEM_CONFORMER_DIVERSEORDER>
1
2
4
3
5

> <PUBCHEM_MMFF94_PARTIAL_CHARGES>
23
1 1.51
10 -0.7
11 0.28
12 0.28
13 0.28
14 0.28
15 0.28
16 0.28
2 -0.55
23 0.4
24 0.4
25 0.4
26 0.4
27 0.4
28 0.5
29 0.5
3 -0.68
4 -0.68
5 -0.68
6 -0.68
7 -0.68
8 -0.77
9 -0.77

> <PUBCHEM_EFFECTIVE_ROTOR_COUNT>
3.2

> <PUBCHEM_PHARMACOPHORE_FEATURES>
15
1 10 acceptor
1 3 acceptor
1 3 donor
1 4 acceptor
1 4 donor
1 5 acceptor
1 5 donor
1 6 acceptor
1 6 donor
1 7 acceptor
1 7 donor
1 8 acceptor
1 9 acceptor
4 1 8 9 10 anion
6 11 12 13 14 15 16 rings

> <PUBCHEM_HEAVY_ATOM_COUNT>
16

> <PUBCHEM_ATOM_DEF_STEREO_COUNT>
4

> <PUBCHEM_ATOM_UDEF_STEREO_COUNT>
0

> <PUBCHEM_BOND_DEF_STEREO_COUNT>
0

> <PUBCHEM_BOND_UDEF_STEREO_COUNT>
0

> <PUBCHEM_ISOTOPIC_ATOM_COUNT>
0

> <PUBCHEM_COMPONENT_COUNT>
1

> <PUBCHEM_CACTVS_TAUTO_COUNT>
1

> <PUBCHEM_CONFORMER_ID>
0002747600000001

> <PUBCHEM_MMFF94_ENERGY>
15.1134

> <PUBCHEM_FEATURE_SELFOVERLAP>
76.17

> <PUBCHEM_SHAPE_FINGERPRINT>
10702982 57 5760273695132805259
11132069 177 17561087998812645717
12423570 1 8712413934305027401
13024252 1 16200437987215879399
13214271 11 17987801796143212564
15775835 57 18410864278070625468
16945 1 18130497570362855825
21028194 46 18269842067553335476
23419403 2 17906745700264722249
2748010 2 15542859372951130130
369184 2 17989208152755389866
5084963 1 18199195168282099458

> <PUBCHEM_SHAPE_MULTIPOLES>
280.3
4.35
1.66
1.61
3.5
0.05
0.07
-0.2
0.3
-0.43
-0.1
-0.29
-0.07
0.05

> <PUBCHEM_SHAPE_SELFOVERLAP>
554.588

> <PUBCHEM_SHAPE_VOLUME>
167.7

> <PUBCHEM_COORDINATE_TYPE>
2
5
10

$$$$

