6018
  -OEChem-07051213012D

 50 52  0     1  0  0  0  0  0999 V2000
    6.4082    2.7967    0.0000 O   0  0  0  0  0  0  0  0  0  0  0  0
    2.0000    0.2516    0.0000 O   0  0  0  0  0  0  0  0  0  0  0  0
    2.0000   -1.7967    0.0000 O   0  0  0  0  0  0  0  0  0  0  0  0
    6.3961   -0.2726    0.0000 N   0  0  3  0  0  0  0  0  0  0  0  0
    5.5301    0.2274    0.0000 C   0  0  3  0  0  0  0  0  0  0  0  0
    7.3142    1.2759    0.0000 C   0  0  3  0  0  0  0  0  0  0  0  0
    7.3062    0.2343    0.0000 C   0  0  0  0  0  0  0  0  0  0  0  0
    5.5141    1.2690    0.0000 C   0  0  0  0  0  0  0  0  0  0  0  0
    6.3961   -1.2726    0.0000 C   0  0  0  0  0  0  0  0  0  0  0  0
    4.6641   -0.2726    0.0000 C   0  0  0  0  0  0  0  0  0  0  0  0
    6.4121    1.7967    0.0000 C   0  0  0  0  0  0  0  0  0  0  0  0
    8.1821    1.7726    0.0000 C   0  0  0  0  0  0  0  0  0  0  0  0
    5.5301   -1.7726    0.0000 C   0  0  0  0  0  0  0  0  0  0  0  0
    4.6641   -1.2726    0.0000 C   0  0  0  0  0  0  0  0  0  0  0  0
    9.0462    1.2692    0.0000 C   0  0  0  0  0  0  0  0  0  0  0  0
    3.7702    0.2621    0.0000 C   0  0  0  0  0  0  0  0  0  0  0  0
    3.7702   -1.8072    0.0000 C   0  0  0  0  0  0  0  0  0  0  0  0
    9.9142    1.7659    0.0000 C   0  0  0  0  0  0  0  0  0  0  0  0
    9.0424    0.2692    0.0000 C   0  0  0  0  0  0  0  0  0  0  0  0
    2.8641   -0.2517    0.0000 C   0  0  0  0  0  0  0  0  0  0  0  0
    2.8641   -1.2934    0.0000 C   0  0  0  0  0  0  0  0  0  0  0  0
    2.0038    1.2516    0.0000 C   0  0  0  0  0  0  0  0  0  0  0  0
    2.0038   -2.7967    0.0000 C   0  0  0  0  0  0  0  0  0  0  0  0
    6.0647    0.5416    0.0000 H   0  0  0  0  0  0  0  0  0  0  0  0
    7.3154    1.8959    0.0000 H   0  0  0  0  0  0  0  0  0  0  0  0
    7.5107   -0.3510    0.0000 H   0  0  0  0  0  0  0  0  0  0  0  0
    7.9178    0.3357    0.0000 H   0  0  0  0  0  0  0  0  0  0  0  0
    5.2960    1.8494    0.0000 H   0  0  0  0  0  0  0  0  0  0  0  0
    4.9049    1.1534    0.0000 H   0  0  0  0  0  0  0  0  0  0  0  0
    6.6082   -1.8552    0.0000 H   0  0  0  0  0  0  0  0  0  0  0  0
    7.0067   -1.1649    0.0000 H   0  0  0  0  0  0  0  0  0  0  0  0
    8.5825    2.2460    0.0000 H   0  0  0  0  0  0  0  0  0  0  0  0
    7.7854    2.2490    0.0000 H   0  0  0  0  0  0  0  0  0  0  0  0
    5.1316   -2.2475    0.0000 H   0  0  0  0  0  0  0  0  0  0  0  0
    5.9286   -2.2475    0.0000 H   0  0  0  0  0  0  0  0  0  0  0  0
    9.5820    0.9571    0.0000 H   0  0  0  0  0  0  0  0  0  0  0  0
    3.7773    0.8821    0.0000 H   0  0  0  0  0  0  0  0  0  0  0  0
    3.7773   -2.4272    0.0000 H   0  0  0  0  0  0  0  0  0  0  0  0
    8.4224    0.2716    0.0000 H   0  0  0  0  0  0  0  0  0  0  0  0
    9.0400   -0.3508    0.0000 H   0  0  0  0  0  0  0  0  0  0  0  0
    9.6624    0.2668    0.0000 H   0  0  0  0  0  0  0  0  0  0  0  0
   10.2221    1.2277    0.0000 H   0  0  0  0  0  0  0  0  0  0  0  0
   10.4523    2.0738    0.0000 H   0  0  0  0  0  0  0  0  0  0  0  0
    9.6062    2.3040    0.0000 H   0  0  0  0  0  0  0  0  0  0  0  0
    2.6238    1.2492    0.0000 H   0  0  0  0  0  0  0  0  0  0  0  0
    2.0062    1.8716    0.0000 H   0  0  0  0  0  0  0  0  0  0  0  0
    1.3839    1.2540    0.0000 H   0  0  0  0  0  0  0  0  0  0  0  0
    1.3839   -2.7991    0.0000 H   0  0  0  0  0  0  0  0  0  0  0  0
    2.0062   -3.4167    0.0000 H   0  0  0  0  0  0  0  0  0  0  0  0
    2.6238   -2.7943    0.0000 H   0  0  0  0  0  0  0  0  0  0  0  0
  1 11  2  0  0  0  0
  2 20  1  0  0  0  0
  2 22  1  0  0  0  0
  3 21  1  0  0  0  0
  3 23  1  0  0  0  0
  4  5  1  0  0  0  0
  4  7  1  0  0  0  0
  4  9  1  0  0  0  0
  5  8  1  0  0  0  0
  5 10  1  0  0  0  0
  5 24  1  0  0  0  0
  6  7  1  0  0  0  0
  6 11  1  0  0  0  0
  6 12  1  0  0  0  0
  6 25  1  0  0  0  0
  7 26  1  0  0  0  0
  7 27  1  0  0  0  0
  8 11  1  0  0  0  0
  8 28  1  0  0  0  0
  8 29  1  0  0  0  0
  9 13  1  0  0  0  0
  9 30  1  0  0  0  0
  9 31  1  0  0  0  0
 10 14  1  0  0  0  0
 10 16  2  0  0  0  0
 12 15  1  0  0  0  0
 12 32  1  0  0  0  0
 12 33  1  0  0  0  0
 13 14  1  0  0  0  0
 13 34  1  0  0  0  0
 13 35  1  0  0  0  0
 14 17  2  0  0  0  0
 15 18  1  0  0  0  0
 15 19  1  0  0  0  0
 15 36  1  0  0  0  0
 16 20  1  0  0  0  0
 16 37  1  0  0  0  0
 17 21  1  0  0  0  0
 17 38  1  0  0  0  0
 18 42  1  0  0  0  0
 18 43  1  0  0  0  0
 18 44  1  0  0  0  0
 19 39  1  0  0  0  0
 19 40  1  0  0  0  0
 19 41  1  0  0  0  0
 20 21  2  0  0  0  0
 22 45  1  0  0  0  0
 22 46  1  0  0  0  0
 22 47  1  0  0  0  0
 23 48  1  0  0  0  0
 23 49  1  0  0  0  0
 23 50  1  0  0  0  0
M  END
> <PUBCHEM_COMPOUND_CID>
6018

> <PUBCHEM_COMPOUND_CANONICALIZED>
1

> <PUBCHEM_CACTVS_COMPLEXITY>
425

> <PUBCHEM_CACTVS_HBOND_ACCEPTOR>
4

> <PUBCHEM_CACTVS_HBOND_DONOR>
0

> <PUBCHEM_CACTVS_ROTATABLE_BOND>
4

> <PUBCHEM_CACTVS_SUBSKEYS>
AAADceB6MAAAAAAAAAAAAAAAAAAAAAAAAAA8WIAAAAAAAACxAAAAHgAAAAAADSzBmAYyBoMABACIAqBSAACCCAAgIAAAiAEOjIgNJjqEsRuEMCpkwBGKqAe42POOoAABAAAQQABAAAIAACCAAAAAAAAAAA==

> <PUBCHEM_IUPAC_OPENEYE_NAME>
3-isobutyl-9,10-dimethoxy-1,3,4,6,7,11b-hexahydrobenzo[a]quinolizin-2-one

> <PUBCHEM_IUPAC_CAS_NAME>
9,10-dimethoxy-3-(2-methylpropyl)-1,3,4,6,7,11b-hexahydrobenzo[a]quinolizin-2-one

> <PUBCHEM_IUPAC_NAME>
9,10-dimethoxy-3-(2-methylpropyl)-1,3,4,6,7,11b-hexahydrobenzo[a]quinolizin-2-one

> <PUBCHEM_IUPAC_SYSTEMATIC_NAME>
9,10-dimethoxy-3-(2-methylpropyl)-1,3,4,6,7,11b-hexahydrobenzo[a]quinolizin-2-one

> <PUBCHEM_IUPAC_TRADITIONAL_NAME>
3-isobutyl-9,10-dimethoxy-1,3,4,6,7,11b-hexahydrobenzo[a]quinolizin-2-one

> <PUBCHEM_IUPAC_INCHI>
InChI=1S/C19H27NO3/c1-12(2)7-14-11-20-6-5-13-8-18(22-3)19(23-4)9-15(13)16(20)10-17(14)21/h8-9,12,14,16H,5-7,10-11H2,1-4H3

> <PUBCHEM_IUPAC_INCHIKEY>
MKJIEFSOBYUXJB-UHFFFAOYSA-N

> <PUBCHEM_XLOGP3_AA>
2.9

> <PUBCHEM_EXACT_MASS>
317.199094

> <PUBCHEM_MOLECULAR_FORMULA>
C19H27NO3

> <PUBCHEM_MOLECULAR_WEIGHT>
317.42258

> <PUBCHEM_OPENEYE_CAN_SMILES>
CC(C)CC1CN2CCC3=CC(=C(C=C3C2CC1=O)OC)OC

> <PUBCHEM_OPENEYE_ISO_SMILES>
CC(C)CC1CN2CCC3=CC(=C(C=C3C2CC1=O)OC)OC

> <PUBCHEM_CACTVS_TPSA>
38.8

> <PUBCHEM_MONOISOTOPIC_WEIGHT>
317.199094

> <PUBCHEM_TOTAL_CHARGE>
0

> <PUBCHEM_HEAVY_ATOM_COUNT>
23

> <PUBCHEM_ATOM_DEF_STEREO_COUNT>
0

> <PUBCHEM_ATOM_UDEF_STEREO_COUNT>
2

> <PUBCHEM_BOND_DEF_STEREO_COUNT>
0

> <PUBCHEM_BOND_UDEF_STEREO_COUNT>
0

> <PUBCHEM_ISOTOPIC_ATOM_COUNT>
0

> <PUBCHEM_COMPONENT_COUNT>
1

> <PUBCHEM_CACTVS_TAUTO_COUNT>
3

> <PUBCHEM_COORDINATE_TYPE>
1
5
255

> <PUBCHEM_BONDANNOTATIONS>
10  14  8
10  16  8
14  17  8
16  20  8
17  21  8
20  21  8
5  8  3
6  12  3

$$$$

