12275
  -OEChem-06261206453D

 18 18  0     0  0  0  0  0  0999 V2000
   -3.0442   -1.5352    0.8131 Cl  0  0  0  0  0  0  0  0  0  0  0  0
    3.0440   -1.5352    0.8132 Cl  0  0  0  0  0  0  0  0  0  0  0  0
   -1.2080    0.0717   -0.3298 C   0  0  0  0  0  0  0  0  0  0  0  0
    1.2080    0.0717   -0.3300 C   0  0  0  0  0  0  0  0  0  0  0  0
    0.0000   -0.5745   -0.5920 C   0  0  0  0  0  0  0  0  0  0  0  0
   -1.2079    1.3643    0.1945 C   0  0  0  0  0  0  0  0  0  0  0  0
    1.2080    1.3643    0.1943 C   0  0  0  0  0  0  0  0  0  0  0  0
    0.0000    2.0106    0.4567 C   0  0  0  0  0  0  0  0  0  0  0  0
   -2.4997   -0.6188   -0.6101 C   0  0  0  0  0  0  0  0  0  0  0  0
    2.4997   -0.6189   -0.6101 C   0  0  0  0  0  0  0  0  0  0  0  0
    0.0001   -1.5833   -0.9985 H   0  0  0  0  0  0  0  0  0  0  0  0
   -2.1422    1.8782    0.4046 H   0  0  0  0  0  0  0  0  0  0  0  0
    2.1424    1.8782    0.4043 H   0  0  0  0  0  0  0  0  0  0  0  0
    0.0001    3.0166    0.8658 H   0  0  0  0  0  0  0  0  0  0  0  0
   -2.4042   -1.3172   -1.4481 H   0  0  0  0  0  0  0  0  0  0  0  0
   -3.2849    0.0976   -0.8738 H   0  0  0  0  0  0  0  0  0  0  0  0
    3.2850    0.0975   -0.8738 H   0  0  0  0  0  0  0  0  0  0  0  0
    2.4042   -1.3174   -1.4481 H   0  0  0  0  0  0  0  0  0  0  0  0
  1  9  1  0  0  0  0
  2 10  1  0  0  0  0
  3  5  2  0  0  0  0
  3  6  1  0  0  0  0
  3  9  1  0  0  0  0
  4  5  1  0  0  0  0
  4  7  2  0  0  0  0
  4 10  1  0  0  0  0
  5 11  1  0  0  0  0
  6  8  2  0  0  0  0
  6 12  1  0  0  0  0
  7  8  1  0  0  0  0
  7 13  1  0  0  0  0
  8 14  1  0  0  0  0
  9 15  1  0  0  0  0
  9 16  1  0  0  0  0
 10 17  1  0  0  0  0
 10 18  1  0  0  0  0
M  END
> <PUBCHEM_COMPOUND_CID>
12275

> <PUBCHEM_CONFORMER_RMSD>
0.4

> <PUBCHEM_CONFORMER_DIVERSEORDER>
1
10
6
11
5
9
4
2
3
12
7
8

> <PUBCHEM_MMFF94_PARTIAL_CHARGES>
14
1 -0.29
10 0.43
11 0.15
12 0.15
13 0.15
14 0.15
2 -0.29
3 -0.14
4 -0.14
5 -0.15
6 -0.15
7 -0.15
8 -0.15
9 0.43

> <PUBCHEM_EFFECTIVE_ROTOR_COUNT>
2

> <PUBCHEM_PHARMACOPHORE_FEATURES>
1
6 3 4 5 6 7 8 rings

> <PUBCHEM_HEAVY_ATOM_COUNT>
10

> <PUBCHEM_ATOM_DEF_STEREO_COUNT>
0

> <PUBCHEM_ATOM_UDEF_STEREO_COUNT>
0

> <PUBCHEM_BOND_DEF_STEREO_COUNT>
0

> <PUBCHEM_BOND_UDEF_STEREO_COUNT>
0

> <PUBCHEM_ISOTOPIC_ATOM_COUNT>
0

> <PUBCHEM_COMPONENT_COUNT>
1

> <PUBCHEM_CACTVS_TAUTO_COUNT>
1

> <PUBCHEM_CONFORMER_ID>
00002FF300000001

> <PUBCHEM_MMFF94_ENERGY>
19.6713

> <PUBCHEM_FEATURE_SELFOVERLAP>
5.074

> <PUBCHEM_SHAPE_FINGERPRINT>
10130415 120 18410011052773511987
10857977 72 18114191877352591986
11769659 78 18060703896293904818
16945 1 17821446858896132876
20645477 70 18263367980350297151
20653091 64 18412539882167443424
20871998 184 17969509375599749118
20871998 22 18187350047959455438
21040471 1 16892306469242114301
23500284 5 18270398415968404595
23552423 10 18341609287426803124
2748010 2 18261399952729916948
29004967 10 18265895744386025665
3071541 236 17978798139767258713
528862 383 18119250566858486492
81228 2 18045497779288629072

> <PUBCHEM_SHAPE_MULTIPOLES>
209.53
4.41
2
0.92
0
0.5
-0.05
-3.32
-0.71
0
-0.6
0
-0.21
0

> <PUBCHEM_SHAPE_SELFOVERLAP>
408.631

> <PUBCHEM_SHAPE_VOLUME>
124.2

> <PUBCHEM_COORDINATE_TYPE>
2
5
10

$$$$

