25208
  -OEChem-07051213053D

 26 27  0     1  0  0  0  0  0999 V2000
    1.8061    1.6926   -0.1649 O   0  0  0  0  0  0  0  0  0  0  0  0
    2.4530   -1.0776   -0.3887 O   0  0  0  0  0  0  0  0  0  0  0  0
   -0.9819   -0.3973   -0.5575 C   0  0  0  0  0  0  0  0  0  0  0  0
   -0.4860    0.8258    0.2813 C   0  0  1  0  0  0  0  0  0  0  0  0
    0.0397   -1.3888    0.0769 C   0  0  2  0  0  0  0  0  0  0  0  0
   -0.5526    0.2917    1.7368 C   0  0  0  0  0  0  0  0  0  0  0  0
   -0.1961   -1.2159    1.5919 C   0  0  0  0  0  0  0  0  0  0  0  0
    1.0006    0.7988   -0.0525 C   0  0  0  0  0  0  0  0  0  0  0  0
    1.3400   -0.6551   -0.1826 C   0  0  0  0  0  0  0  0  0  0  0  0
   -0.8210   -0.2424   -2.0853 C   0  0  0  0  0  0  0  0  0  0  0  0
   -2.4508   -0.7924   -0.3084 C   0  0  0  0  0  0  0  0  0  0  0  0
   -1.1510    2.1606    0.0530 C   0  0  0  0  0  0  0  0  0  0  0  0
    0.0293   -2.4089   -0.3063 H   0  0  0  0  0  0  0  0  0  0  0  0
   -1.5492    0.4112    2.1752 H   0  0  0  0  0  0  0  0  0  0  0  0
    0.1637    0.7965    2.3958 H   0  0  0  0  0  0  0  0  0  0  0  0
    0.6916   -1.4659    2.1838 H   0  0  0  0  0  0  0  0  0  0  0  0
   -1.0222   -1.8421    1.9442 H   0  0  0  0  0  0  0  0  0  0  0  0
   -1.0319   -1.1925   -2.5895 H   0  0  0  0  0  0  0  0  0  0  0  0
    0.1810    0.0684   -2.3958 H   0  0  0  0  0  0  0  0  0  0  0  0
   -1.5209    0.5051   -2.4756 H   0  0  0  0  0  0  0  0  0  0  0  0
   -2.6756   -1.7493   -0.7933 H   0  0  0  0  0  0  0  0  0  0  0  0
   -3.1303   -0.0405   -0.7254 H   0  0  0  0  0  0  0  0  0  0  0  0
   -2.7123   -0.9018    0.7466 H   0  0  0  0  0  0  0  0  0  0  0  0
   -2.2228    2.1158    0.2697 H   0  0  0  0  0  0  0  0  0  0  0  0
   -0.7109    2.9300    0.6970 H   0  0  0  0  0  0  0  0  0  0  0  0
   -1.0260    2.4970   -0.9815 H   0  0  0  0  0  0  0  0  0  0  0  0
  1  8  2  0  0  0  0
  2  9  2  0  0  0  0
  3  4  1  0  0  0  0
  3  5  1  0  0  0  0
  3 10  1  0  0  0  0
  3 11  1  0  0  0  0
  4  6  1  0  0  0  0
  4  8  1  0  0  0  0
  4 12  1  0  0  0  0
  5  7  1  0  0  0  0
  5  9  1  0  0  0  0
  5 13  1  0  0  0  0
  6  7  1  0  0  0  0
  6 14  1  0  0  0  0
  6 15  1  0  0  0  0
  7 16  1  0  0  0  0
  7 17  1  0  0  0  0
  8  9  1  0  0  0  0
 10 18  1  0  0  0  0
 10 19  1  0  0  0  0
 10 20  1  0  0  0  0
 11 21  1  0  0  0  0
 11 22  1  0  0  0  0
 11 23  1  0  0  0  0
 12 24  1  0  0  0  0
 12 25  1  0  0  0  0
 12 26  1  0  0  0  0
M  END
> <PUBCHEM_COMPOUND_CID>
25208

> <PUBCHEM_CONFORMER_RMSD>
0.4

> <PUBCHEM_CONFORMER_DIVERSEORDER>
2
1

> <PUBCHEM_MMFF94_PARTIAL_CHARGES>
6
1 -0.57
2 -0.57
4 0.06
5 0.06
8 0.51
9 0.51

> <PUBCHEM_EFFECTIVE_ROTOR_COUNT>
0.6

> <PUBCHEM_PHARMACOPHORE_FEATURES>
4
1 1 acceptor
1 2 acceptor
3 3 10 11 hydrophobe
7 3 4 5 6 7 8 9 rings

> <PUBCHEM_HEAVY_ATOM_COUNT>
12

> <PUBCHEM_ATOM_DEF_STEREO_COUNT>
0

> <PUBCHEM_ATOM_UDEF_STEREO_COUNT>
2

> <PUBCHEM_BOND_DEF_STEREO_COUNT>
0

> <PUBCHEM_BOND_UDEF_STEREO_COUNT>
0

> <PUBCHEM_ISOTOPIC_ATOM_COUNT>
0

> <PUBCHEM_COMPONENT_COUNT>
1

> <PUBCHEM_CACTVS_TAUTO_COUNT>
1

> <PUBCHEM_CONFORMER_ID>
0000627800000002

> <PUBCHEM_MMFF94_ENERGY>
50.913

> <PUBCHEM_FEATURE_SELFOVERLAP>
20.3

> <PUBCHEM_SHAPE_FINGERPRINT>
10702982 57 17906737255921155261
12423570 1 10403016823719408027
13024252 1 17701514415782869806
137420 1 7232689669240991025
15557651 10 17341283392532797013
16945 1 18264203789116505767
241688 4 18339081600351910064
2748010 2 17402045600465838652
369184 2 18265612272349885626
5084963 1 18041551546214853602
528886 8 17974300828040230477

> <PUBCHEM_SHAPE_MULTIPOLES>
235.22
2.25
1.79
1.52
0.39
0.77
0.02
-0.26
-0.55
0
0.16
-0.41
-0.3
-0.09

> <PUBCHEM_SHAPE_SELFOVERLAP>
508.069

> <PUBCHEM_SHAPE_VOLUME>
134.6

> <PUBCHEM_COORDINATE_TYPE>
2
5
10

$$$$

