47205577
  -OEChem-06241222593D

 36 37  0     1  0  0  0  0  0999 V2000
    1.5233    0.1086   -1.2558 S   0  0  0  0  0  0  0  0  0  0  0  0
   -1.8525   -2.2661    0.9593 O   0  0  0  0  0  0  0  0  0  0  0  0
   -3.5044    0.5760   -0.1506 N   0  0  0  0  0  0  0  0  0  0  0  0
   -0.8634   -0.7161   -0.5171 N   0  0  0  0  0  0  0  0  0  0  0  0
    2.4688   -1.5910    0.4124 N   0  0  0  0  0  0  0  0  0  0  0  0
   -3.7121    2.4903    0.9559 N   0  0  0  0  0  0  0  0  0  0  0  0
    1.0928   -1.7129    0.4945 N   0  0  0  0  0  0  0  0  0  0  0  0
   -3.3156   -0.9095   -0.4009 C   0  0  1  0  0  0  0  0  0  0  0  0
    4.8596    0.5982    0.2864 C   0  0  0  0  0  0  0  0  0  0  0  0
    4.2473   -0.2966   -0.7936 C   0  0  0  0  0  0  0  0  0  0  0  0
    6.2874    1.0060   -0.0761 C   0  0  0  0  0  0  0  0  0  0  0  0
   -1.9504   -1.3879    0.1070 C   0  0  0  0  0  0  0  0  0  0  0  0
   -4.4602   -1.7150    0.2195 C   0  0  0  0  0  0  0  0  0  0  0  0
    2.8266   -0.6763   -0.4633 C   0  0  0  0  0  0  0  0  0  0  0  0
    6.8873    1.9280    0.9735 C   0  0  0  0  0  0  0  0  0  0  0  0
   -3.6786    1.5411   -1.1021 C   0  0  0  0  0  0  0  0  0  0  0  0
    0.4802   -0.8834   -0.3229 C   0  0  0  0  0  0  0  0  0  0  0  0
   -3.5317    1.1931    1.0691 C   0  0  0  0  0  0  0  0  0  0  0  0
   -3.8045    2.7137   -0.3952 C   0  0  0  0  0  0  0  0  0  0  0  0
   -3.3367   -1.0222   -1.4921 H   0  0  0  0  0  0  0  0  0  0  0  0
    4.8573    0.0739    1.2504 H   0  0  0  0  0  0  0  0  0  0  0  0
    4.2431    1.4970    0.4150 H   0  0  0  0  0  0  0  0  0  0  0  0
    4.8364   -1.2176   -0.8856 H   0  0  0  0  0  0  0  0  0  0  0  0
    4.2953    0.2042   -1.7683 H   0  0  0  0  0  0  0  0  0  0  0  0
    6.9157    0.1131   -0.1742 H   0  0  0  0  0  0  0  0  0  0  0  0
    6.2946    1.5164   -1.0462 H   0  0  0  0  0  0  0  0  0  0  0  0
   -4.3656   -2.7772   -0.0304 H   0  0  0  0  0  0  0  0  0  0  0  0
   -5.4288   -1.3631   -0.1517 H   0  0  0  0  0  0  0  0  0  0  0  0
   -4.4710   -1.6303    1.3118 H   0  0  0  0  0  0  0  0  0  0  0  0
   -1.0952   -0.0131   -1.2145 H   0  0  0  0  0  0  0  0  0  0  0  0
    6.3001    2.8467    1.0706 H   0  0  0  0  0  0  0  0  0  0  0  0
    7.9087    2.2056    0.6949 H   0  0  0  0  0  0  0  0  0  0  0  0
    6.9232    1.4377    1.9516 H   0  0  0  0  0  0  0  0  0  0  0  0
   -3.6969    1.3207   -2.1602 H   0  0  0  0  0  0  0  0  0  0  0  0
   -3.4138    0.6531    1.9985 H   0  0  0  0  0  0  0  0  0  0  0  0
   -3.9566    3.7074   -0.7904 H   0  0  0  0  0  0  0  0  0  0  0  0
  1 14  1  0  0  0  0
  1 17  1  0  0  0  0
  2 12  2  0  0  0  0
  3  8  1  0  0  0  0
  3 16  1  0  0  0  0
  3 18  1  0  0  0  0
  4 12  1  0  0  0  0
  4 17  1  0  0  0  0
  4 30  1  0  0  0  0
  5  7  1  0  0  0  0
  5 14  2  0  0  0  0
  6 18  2  0  0  0  0
  6 19  1  0  0  0  0
  7 17  2  0  0  0  0
  8 12  1  0  0  0  0
  8 13  1  0  0  0  0
  8 20  1  0  0  0  0
  9 10  1  0  0  0  0
  9 11  1  0  0  0  0
  9 21  1  0  0  0  0
  9 22  1  0  0  0  0
 10 14  1  0  0  0  0
 10 23  1  0  0  0  0
 10 24  1  0  0  0  0
 11 15  1  0  0  0  0
 11 25  1  0  0  0  0
 11 26  1  0  0  0  0
 13 27  1  0  0  0  0
 13 28  1  0  0  0  0
 13 29  1  0  0  0  0
 15 31  1  0  0  0  0
 15 32  1  0  0  0  0
 15 33  1  0  0  0  0
 16 19  2  0  0  0  0
 16 34  1  0  0  0  0
 18 35  1  0  0  0  0
 19 36  1  0  0  0  0
M  END
> <PUBCHEM_COMPOUND_CID>
47205577

> <PUBCHEM_CONFORMER_RMSD>
0.8

> <PUBCHEM_CONFORMER_DIVERSEORDER>
1
177
108
250
26
191
148
239
257
190
100
151
253
155
170
175
198
185
244
6
179
50
264
223
8
266
110
192
182
180
7
156
203
89
116
259
265
152
183
235
84
186
142
248
121
213
64
254
208
23
45
160
268
224
5
247
42
260
124
94
35
162
240
212
189
113
188
112
120
131
231
139
38
103
261
249
134
79
36
232
115
195
132
245
97
93
126
238
211
125
220
141
127
21
157
91
173
99
96
57
205
149
67
69
44
197
144
225
25
230
136
46
214
270
102
202
70
130
217
106
32
262
33
104
222
166
41
81
234
105
133
75
255
233
14
251
174
65
83
87
206
34
143
241
76
256
85
204
263
59
246
19
52
193
12
78
147
10
226
72
269
258
138
111
209
169
107
150
119
216
80
2
11
267
236
92
109
252
90
114
55
135
77
98
228
129
184
229
168
37
28
118
154
17
61
123
68
199
137
62
196
172
171
167
39
22
187
73
30
48
201
53
153
178
74
176
4
219
47
243
56
163
242
66
54
200
71
158
140
16
161
194
3
227
43
159
29
82
31
221
181
18
9
210
146
20
122
58
164
215
24
218
63
15
60
51
117
101
40
86
88
165
27
207
145
13
128
237
95
49

> <PUBCHEM_MMFF94_PARTIAL_CHARGES>
19
1 -0.08
10 0.18
12 0.57
14 0.2
16 -0.3
17 0.44
18 0.04
19 0.08
2 -0.57
3 0.05
30 0.37
34 0.15
35 0.15
36 0.15
4 -0.49
5 -0.34
6 -0.57
7 -0.34
8 0.32

> <PUBCHEM_EFFECTIVE_ROTOR_COUNT>
7

> <PUBCHEM_PHARMACOPHORE_FEATURES>
7
1 15 hydrophobe
1 2 acceptor
1 4 donor
1 5 acceptor
3 3 6 18 cation
5 1 5 7 14 17 rings
5 3 6 16 18 19 rings

> <PUBCHEM_HEAVY_ATOM_COUNT>
19

> <PUBCHEM_ATOM_DEF_STEREO_COUNT>
0

> <PUBCHEM_ATOM_UDEF_STEREO_COUNT>
1

> <PUBCHEM_BOND_DEF_STEREO_COUNT>
0

> <PUBCHEM_BOND_UDEF_STEREO_COUNT>
0

> <PUBCHEM_ISOTOPIC_ATOM_COUNT>
0

> <PUBCHEM_COMPONENT_COUNT>
1

> <PUBCHEM_CACTVS_TAUTO_COUNT>
3

> <PUBCHEM_CONFORMER_ID>
02D04CC900000001

> <PUBCHEM_MMFF94_ENERGY>
18.9795

> <PUBCHEM_FEATURE_SELFOVERLAP>
35.52

> <PUBCHEM_SHAPE_FINGERPRINT>
10087517 78 18340210700363036996
12390115 104 18410564098600933636
12507557 5 18060700572368688453
12969540 114 16732707125742989198
13073987 5 18342458149221870546
13403585 85 18338517443391066720
13740256 8 10015866488111070726
14123255 352 18409450318743868068
14251764 38 18337387124422637536
14251764 75 17538836284823911417
14466204 15 18342461422350888352
14739800 52 18337406988909431288
14950920 106 15051435120486562484
15209294 21 18272652363613513958
17780758 139 12751242527249840324
17870717 6 7853575695096633961
19489759 90 18412546479179200686
20281389 69 18409167689185793808
20621476 21 9943520856065209068
20645477 70 17168410662922788390
21033648 29 17967542246450402064
21279426 13 18334572486735312460
21315763 129 18337111155820229988
22956985 138 16973638448646151251
23379529 103 8573839412728727708
23559900 14 18044654441565861630
25122255 55 11527677414160971616
26918003 58 12751247995096791478
270888 7 18263361567748040873
283562 15 18413672397015583675
2838139 119 17894356566752893056
2916195 48 18334861576557208928
441001 317 18408040706335139272
5104073 3 18201437025463143330
90127 26 18336535080336209670
9981440 41 18343298171620756995

> <PUBCHEM_SHAPE_MULTIPOLES>
364.09
14.32
2.65
1.07
21.38
1.04
-0.05
8.96
2.41
-2.89
0.57
-0.05
0.24
0.89

> <PUBCHEM_SHAPE_SELFOVERLAP>
730.318

> <PUBCHEM_SHAPE_VOLUME>
216.8

> <PUBCHEM_COORDINATE_TYPE>
2
5
10

$$$$

