10944
  -OEChem-06261205092D

 20 19  0     1  0  0  0  0  0999 V2000
    8.0622    0.9720    0.0000 Cl  0  0  0  0  0  0  0  0  0  0  0  0
    7.6962   -0.3940    0.0000 Cl  0  0  0  0  0  0  0  0  0  0  0  0
    6.6962    1.3380    0.0000 Cl  0  0  0  0  0  0  0  0  0  0  0  0
    6.3301   -1.0280    0.0000 O   0  0  0  0  0  0  0  0  0  0  0  0
    3.7320    0.4720    0.0000 O   0  0  0  0  0  0  0  0  0  0  0  0
    4.5981   -1.0280    0.0000 O   0  0  0  0  0  0  0  0  0  0  0  0
    5.4641    0.4720    0.0000 N   0  0  0  0  0  0  0  0  0  0  0  0
    6.3301   -0.0280    0.0000 C   0  0  3  0  0  0  0  0  0  0  0  0
    7.1962    0.4720    0.0000 C   0  0  0  0  0  0  0  0  0  0  0  0
    4.5981   -0.0280    0.0000 C   0  0  0  0  0  0  0  0  0  0  0  0
    2.8660   -0.0280    0.0000 C   0  0  0  0  0  0  0  0  0  0  0  0
    2.0000    0.4720    0.0000 C   0  0  0  0  0  0  0  0  0  0  0  0
    7.0662   -0.4530    0.0000 H   0  0  0  0  0  0  0  0  0  0  0  0
    5.4641    1.0920    0.0000 H   0  0  0  0  0  0  0  0  0  0  0  0
    2.4675   -0.5030    0.0000 H   0  0  0  0  0  0  0  0  0  0  0  0
    3.2646   -0.5030    0.0000 H   0  0  0  0  0  0  0  0  0  0  0  0
    5.7932   -1.3380    0.0000 H   0  0  0  0  0  0  0  0  0  0  0  0
    2.3100    1.0089    0.0000 H   0  0  0  0  0  0  0  0  0  0  0  0
    1.4631    0.7820    0.0000 H   0  0  0  0  0  0  0  0  0  0  0  0
    1.6900   -0.0649    0.0000 H   0  0  0  0  0  0  0  0  0  0  0  0
  1  9  1  0  0  0  0
  2  9  1  0  0  0  0
  3  9  1  0  0  0  0
  4  8  1  0  0  0  0
  4 17  1  0  0  0  0
  5 10  1  0  0  0  0
  5 11  1  0  0  0  0
  6 10  2  0  0  0  0
  7  8  1  0  0  0  0
  7 10  1  0  0  0  0
  7 14  1  0  0  0  0
  8  9  1  0  0  0  0
  8 13  1  0  0  0  0
 11 12  1  0  0  0  0
 11 15  1  0  0  0  0
 11 16  1  0  0  0  0
 12 18  1  0  0  0  0
 12 19  1  0  0  0  0
 12 20  1  0  0  0  0
M  END
> <PUBCHEM_COMPOUND_CID>
10944

> <PUBCHEM_COMPOUND_CANONICALIZED>
1

> <PUBCHEM_CACTVS_COMPLEXITY>
159

> <PUBCHEM_CACTVS_HBOND_ACCEPTOR>
3

> <PUBCHEM_CACTVS_HBOND_DONOR>
2

> <PUBCHEM_CACTVS_ROTATABLE_BOND>
3

> <PUBCHEM_CACTVS_SUBSKEYS>
AAADccBiMAAGAAAAAAAAAAAAAAAAAAAAAAAAAAAAAAAAAAAAAAAAHgIQCAAAAALhgIYCCALABgAIAAAAGAAAAAAAAAAAAIAIAQEAEAAAAABIAAAABgAAAAAAAAAAAAAAAAAAAAAAAAAAAAAAAAAAAAAAAA==

> <PUBCHEM_IUPAC_OPENEYE_NAME>
ethyl N-(2,2,2-trichloro-1-hydroxy-ethyl)carbamate

> <PUBCHEM_IUPAC_CAS_NAME>
N-(2,2,2-trichloro-1-hydroxyethyl)carbamic acid ethyl ester

> <PUBCHEM_IUPAC_NAME>
ethyl N-(2,2,2-trichloro-1-hydroxyethyl)carbamate

> <PUBCHEM_IUPAC_SYSTEMATIC_NAME>
ethyl N-[2,2,2-tris(chloranyl)-1-oxidanyl-ethyl]carbamate

> <PUBCHEM_IUPAC_TRADITIONAL_NAME>
N-(2,2,2-trichloro-1-hydroxy-ethyl)carbamic acid ethyl ester

> <PUBCHEM_IUPAC_INCHI>
InChI=1S/C5H8Cl3NO3/c1-2-12-4(11)9-3(10)5(6,7)8/h3,10H,2H2,1H3,(H,9,11)

> <PUBCHEM_IUPAC_INCHIKEY>
ITMSAWKLJVGBIT-UHFFFAOYSA-N

> <PUBCHEM_XLOGP3>
1.8

> <PUBCHEM_EXACT_MASS>
234.956976

> <PUBCHEM_MOLECULAR_FORMULA>
C5H8Cl3NO3

> <PUBCHEM_MOLECULAR_WEIGHT>
236.48092

> <PUBCHEM_OPENEYE_CAN_SMILES>
CCOC(=O)NC(C(Cl)(Cl)Cl)O

> <PUBCHEM_OPENEYE_ISO_SMILES>
CCOC(=O)NC(C(Cl)(Cl)Cl)O

> <PUBCHEM_CACTVS_TPSA>
58.6

> <PUBCHEM_MONOISOTOPIC_WEIGHT>
234.956976

> <PUBCHEM_TOTAL_CHARGE>
0

> <PUBCHEM_HEAVY_ATOM_COUNT>
12

> <PUBCHEM_ATOM_DEF_STEREO_COUNT>
0

> <PUBCHEM_ATOM_UDEF_STEREO_COUNT>
1

> <PUBCHEM_BOND_DEF_STEREO_COUNT>
0

> <PUBCHEM_BOND_UDEF_STEREO_COUNT>
0

> <PUBCHEM_ISOTOPIC_ATOM_COUNT>
0

> <PUBCHEM_COMPONENT_COUNT>
1

> <PUBCHEM_CACTVS_TAUTO_COUNT>
2

> <PUBCHEM_COORDINATE_TYPE>
1
5
255

> <PUBCHEM_BONDANNOTATIONS>
8  13  3

$$$$

