853919
  -OEChem-06241222463D

 40 43  0     0  0  0  0  0  0999 V2000
   -2.1229   -2.0078   -0.0229 N   0  3  0  0  0  0  0  0  0  0  0  0
   -1.0852   -0.1099   -0.0072 N   0  0  0  0  0  0  0  0  0  0  0  0
   -2.2804   -0.6867   -0.0054 C   0  0  0  0  0  0  0  0  0  0  0  0
   -3.6974   -0.2808    0.0127 C   0  0  0  0  0  0  0  0  0  0  0  0
   -3.3768   -2.7350   -0.0303 C   0  0  0  0  0  0  0  0  0  0  0  0
   -4.4125   -1.6233    0.3169 C   0  0  0  0  0  0  0  0  0  0  0  0
   -0.1301   -1.1129   -0.0275 C   0  0  0  0  0  0  0  0  0  0  0  0
   -0.7942   -2.3178   -0.0390 C   0  0  0  0  0  0  0  0  0  0  0  0
   -0.8696    1.3184    0.0095 C   0  0  0  0  0  0  0  0  0  0  0  0
    1.3382   -0.9476   -0.0379 C   0  0  0  0  0  0  0  0  0  0  0  0
    0.2705    1.8249    0.6110 C   0  0  0  0  0  0  0  0  0  0  0  0
   -1.8081    2.1517   -0.5760 C   0  0  0  0  0  0  0  0  0  0  0  0
    2.0126   -0.8533   -1.2504 C   0  0  0  0  0  0  0  0  0  0  0  0
    2.0330   -0.8864    1.1652 C   0  0  0  0  0  0  0  0  0  0  0  0
    3.3984   -0.6960   -1.2600 C   0  0  0  0  0  0  0  0  0  0  0  0
    3.4190   -0.7292    1.1555 C   0  0  0  0  0  0  0  0  0  0  0  0
    4.1017   -0.6340   -0.0571 C   0  0  0  0  0  0  0  0  0  0  0  0
    0.4781    3.2041    0.6273 C   0  0  0  0  0  0  0  0  0  0  0  0
   -1.6005    3.5310   -0.5597 C   0  0  0  0  0  0  0  0  0  0  0  0
   -0.4574    4.0572    0.0420 C   0  0  0  0  0  0  0  0  0  0  0  0
    5.5838   -0.4665   -0.0666 C   0  0  0  0  0  0  0  0  0  0  0  0
   -3.8597    0.4724    0.7840 H   0  0  0  0  0  0  0  0  0  0  0  0
   -3.9544    0.0710   -0.9878 H   0  0  0  0  0  0  0  0  0  0  0  0
   -3.3689   -3.5371    0.7111 H   0  0  0  0  0  0  0  0  0  0  0  0
   -3.5462   -3.1358   -1.0338 H   0  0  0  0  0  0  0  0  0  0  0  0
   -4.6369   -1.6720    1.3891 H   0  0  0  0  0  0  0  0  0  0  0  0
   -5.3532   -1.7369   -0.2286 H   0  0  0  0  0  0  0  0  0  0  0  0
   -0.5130   -3.3523   -0.0566 H   0  0  0  0  0  0  0  0  0  0  0  0
    0.9752    1.2391    1.1704 H   0  0  0  0  0  0  0  0  0  0  0  0
   -2.6797    1.7834   -1.0991 H   0  0  0  0  0  0  0  0  0  0  0  0
    1.4764   -0.8983   -2.1950 H   0  0  0  0  0  0  0  0  0  0  0  0
    1.5155   -0.9673    2.1180 H   0  0  0  0  0  0  0  0  0  0  0  0
    3.9187   -0.6208   -2.2112 H   0  0  0  0  0  0  0  0  0  0  0  0
    3.9557   -0.6820    2.0994 H   0  0  0  0  0  0  0  0  0  0  0  0
    1.3561    3.6164    1.1160 H   0  0  0  0  0  0  0  0  0  0  0  0
   -2.3231    4.1951   -1.0251 H   0  0  0  0  0  0  0  0  0  0  0  0
   -0.2971    5.1312    0.0571 H   0  0  0  0  0  0  0  0  0  0  0  0
    5.8416    0.5969   -0.0401 H   0  0  0  0  0  0  0  0  0  0  0  0
    6.0424   -0.9610    0.7965 H   0  0  0  0  0  0  0  0  0  0  0  0
    6.0265   -0.9125   -0.9637 H   0  0  0  0  0  0  0  0  0  0  0  0
  1  3  2  0  0  0  0
  1  5  1  0  0  0  0
  1  8  1  0  0  0  0
  2  3  1  0  0  0  0
  2  7  1  0  0  0  0
  2  9  1  0  0  0  0
  3  4  1  0  0  0  0
  4  6  1  0  0  0  0
  4 22  1  0  0  0  0
  4 23  1  0  0  0  0
  5  6  1  0  0  0  0
  5 24  1  0  0  0  0
  5 25  1  0  0  0  0
  6 26  1  0  0  0  0
  6 27  1  0  0  0  0
  7  8  2  0  0  0  0
  7 10  1  0  0  0  0
  8 28  1  0  0  0  0
  9 11  2  0  0  0  0
  9 12  1  0  0  0  0
 10 13  2  0  0  0  0
 10 14  1  0  0  0  0
 11 18  1  0  0  0  0
 11 29  1  0  0  0  0
 12 19  2  0  0  0  0
 12 30  1  0  0  0  0
 13 15  1  0  0  0  0
 13 31  1  0  0  0  0
 14 16  2  0  0  0  0
 14 32  1  0  0  0  0
 15 17  2  0  0  0  0
 15 33  1  0  0  0  0
 16 17  1  0  0  0  0
 16 34  1  0  0  0  0
 17 21  1  0  0  0  0
 18 20  2  0  0  0  0
 18 35  1  0  0  0  0
 19 20  1  0  0  0  0
 19 36  1  0  0  0  0
 20 37  1  0  0  0  0
 21 38  1  0  0  0  0
 21 39  1  0  0  0  0
 21 40  1  0  0  0  0
M  CHG  1   1   1
M  END
> <PUBCHEM_COMPOUND_CID>
853919

> <PUBCHEM_CONFORMER_RMSD>
0.6

> <PUBCHEM_CONFORMER_DIVERSEORDER>
1
2

> <PUBCHEM_MMFF94_PARTIAL_CHARGES>
30
1 -0.76
10 0.04
11 -0.15
12 -0.15
13 -0.15
14 -0.15
15 -0.15
16 -0.15
17 -0.14
18 -0.15
19 -0.15
2 -0.64
20 -0.15
21 0.14
28 0.15
29 0.15
3 0.66
30 0.15
31 0.15
32 0.15
33 0.15
34 0.15
35 0.15
36 0.15
37 0.15
4 0.14
5 0.51
7 0.31
8 0.2
9 0.39

> <PUBCHEM_EFFECTIVE_ROTOR_COUNT>
2.6

> <PUBCHEM_PHARMACOPHORE_FEATURES>
5
3 1 2 3 cation
5 1 2 3 7 8 rings
5 1 3 4 5 6 rings
6 10 13 14 15 16 17 rings
6 9 11 12 18 19 20 rings

> <PUBCHEM_HEAVY_ATOM_COUNT>
21

> <PUBCHEM_ATOM_DEF_STEREO_COUNT>
0

> <PUBCHEM_ATOM_UDEF_STEREO_COUNT>
0

> <PUBCHEM_BOND_DEF_STEREO_COUNT>
0

> <PUBCHEM_BOND_UDEF_STEREO_COUNT>
0

> <PUBCHEM_ISOTOPIC_ATOM_COUNT>
0

> <PUBCHEM_COMPONENT_COUNT>
1

> <PUBCHEM_CACTVS_TAUTO_COUNT>
1

> <PUBCHEM_CONFORMER_ID>
000D079F00000001

> <PUBCHEM_MMFF94_ENERGY>
81.4801

> <PUBCHEM_FEATURE_SELFOVERLAP>
25.636

> <PUBCHEM_SHAPE_FINGERPRINT>
10006869 2 17977667834088692153
10165383 225 17181053019037644780
10319926 262 18192454050731339274
10411042 1 18338798897067585871
10498660 4 18266741462111980244
10989021 7 18264769870122256395
1100329 8 18410006667813097009
11578080 2 17415312500950273372
11640471 11 17629751529769073188
11680986 33 17908139880972260747
11833330 49 18413106173405090812
12035758 1 18410013265093568305
12107183 9 17550960621407902834
12173636 292 17979074117207124764
12236239 1 17775567546332363434
12422481 6 17973191455637510160
12553582 1 18339933636069858443
12741549 16 17313108553079041490
12788726 201 18272369806242014450
13009979 54 17915476088946302162
13140716 1 18338795620481688921
133893 2 17834652930275874209
13583140 156 17751952300442904922
138480 1 15456214132845989576
14347332 77 18337950216378998678
14787075 74 18058451993928213386
14790565 3 18048869986184543321
14955137 171 18195218110740620875
15961568 22 18267023856861012956
1601671 61 18336256947044073811
16752209 62 18269842063100307447
16945 1 18339364166487619135
17357779 13 18188224155587762157
17492 89 18268993262190091786
1813 80 18262786381189758359
20097449 115 18338798914320723473
20510252 161 18336545044301166138
20600515 1 18114727249078548983
20642791 105 18129391555843500428
20905425 154 18265608797700523820
21029758 27 18339919325322918779
21033648 29 17385730188229882555
21049683 271 17984128263027503445
21285901 2 18041546031450855670
21304253 13 18334288756610978553
21524375 3 17407949350820437712
22149856 69 17257918821013035329
22182313 1 18193301652797988001
2297311 6 18336535076104520198
23352939 185 18188480273162096416
23366157 5 17767407877047180199
23402539 116 18334299751342446158
23419403 2 17677069969957711889
23557571 272 18261387893015169950
23558518 356 17983851460949265634
23559900 14 18050294674360347979
23845131 108 17471557206958802641
2748010 2 18264511536477205617
3091708 16 9135527096720198657
352729 6 17762066836148718595
4409770 3 18270129040336098621
469060 322 18339345457325176985
6442390 28 17612854303534789681
68521 5 18411698807084845054
7164475 11 18340761641798661494
7364860 26 17903070036966429609
7808743 9 18195523916854827488
81228 2 18263905782710589195
8863177 126 17628060202045821219
90316 7 18410860975029908371
9981440 41 17619918695639236216

> <PUBCHEM_SHAPE_MULTIPOLES>
422.21
7.58
4.18
0.97
6.08
5.13
-0.03
-5.34
-0.1
-3.79
0
0.71
-0.04
0.43

> <PUBCHEM_SHAPE_SELFOVERLAP>
938.246

> <PUBCHEM_SHAPE_VOLUME>
229.1

> <PUBCHEM_COORDINATE_TYPE>
2
5
10

$$$$

