5497182
  -OEChem-07051213082D

 58 57  0     0  0  0  0  0  0999 V2000
    2.0000    4.0000    0.0000 O   0  0  0  0  0  0  0  0  0  0  0  0
    3.7320    4.0000    0.0000 O   0  0  0  0  0  0  0  0  0  0  0  0
    3.7320    1.0000    0.0000 C   0  0  0  0  0  0  0  0  0  0  0  0
    4.5981    0.5000    0.0000 C   0  0  0  0  0  0  0  0  0  0  0  0
    3.7320    2.0000    0.0000 C   0  0  0  0  0  0  0  0  0  0  0  0
    4.5981   -0.5000    0.0000 C   0  0  0  0  0  0  0  0  0  0  0  0
    2.8660    2.5000    0.0000 C   0  0  0  0  0  0  0  0  0  0  0  0
    3.7320   -1.0000    0.0000 C   0  0  0  0  0  0  0  0  0  0  0  0
    3.7320   -2.0000    0.0000 C   0  0  0  0  0  0  0  0  0  0  0  0
    2.8660    3.5000    0.0000 C   0  0  0  0  0  0  0  0  0  0  0  0
    4.5981   -2.5000    0.0000 C   0  0  0  0  0  0  0  0  0  0  0  0
    4.5981   -3.5000    0.0000 C   0  0  0  0  0  0  0  0  0  0  0  0
    5.4641   -4.0000    0.0000 C   0  0  0  0  0  0  0  0  0  0  0  0
    6.3301   -3.5000    0.0000 C   0  0  0  0  0  0  0  0  0  0  0  0
    7.1962   -4.0000    0.0000 C   0  0  0  0  0  0  0  0  0  0  0  0
    8.0622   -2.5000    0.0000 C   0  0  0  0  0  0  0  0  0  0  0  0
    8.0622   -3.5000    0.0000 C   0  0  0  0  0  0  0  0  0  0  0  0
    8.0622   -0.5000    0.0000 C   0  0  0  0  0  0  0  0  0  0  0  0
    8.9282   -2.0000    0.0000 C   0  0  0  0  0  0  0  0  0  0  0  0
    8.9282   -1.0000    0.0000 C   0  0  0  0  0  0  0  0  0  0  0  0
    8.0622    0.5000    0.0000 C   0  0  0  0  0  0  0  0  0  0  0  0
    6.3301    0.5000    0.0000 C   0  0  0  0  0  0  0  0  0  0  0  0
    7.1962    1.0000    0.0000 C   0  0  0  0  0  0  0  0  0  0  0  0
    5.4641    1.0000    0.0000 C   0  0  0  0  0  0  0  0  0  0  0  0
    3.1215    1.1077    0.0000 H   0  0  0  0  0  0  0  0  0  0  0  0
    3.5200    0.4174    0.0000 H   0  0  0  0  0  0  0  0  0  0  0  0
    5.2087    0.3923    0.0000 H   0  0  0  0  0  0  0  0  0  0  0  0
    4.8101    1.0826    0.0000 H   0  0  0  0  0  0  0  0  0  0  0  0
    4.3426    1.8923    0.0000 H   0  0  0  0  0  0  0  0  0  0  0  0
    3.9441    2.5826    0.0000 H   0  0  0  0  0  0  0  0  0  0  0  0
    4.8101   -1.0826    0.0000 H   0  0  0  0  0  0  0  0  0  0  0  0
    5.2087   -0.3923    0.0000 H   0  0  0  0  0  0  0  0  0  0  0  0
    2.2554    2.6077    0.0000 H   0  0  0  0  0  0  0  0  0  0  0  0
    2.6540    1.9174    0.0000 H   0  0  0  0  0  0  0  0  0  0  0  0
    3.1951   -0.6900    0.0000 H   0  0  0  0  0  0  0  0  0  0  0  0
    3.1951   -2.3100    0.0000 H   0  0  0  0  0  0  0  0  0  0  0  0
    5.2087   -2.6077    0.0000 H   0  0  0  0  0  0  0  0  0  0  0  0
    4.8101   -1.9174    0.0000 H   0  0  0  0  0  0  0  0  0  0  0  0
    4.0611   -3.8100    0.0000 H   0  0  0  0  0  0  0  0  0  0  0  0
    5.4641   -4.6200    0.0000 H   0  0  0  0  0  0  0  0  0  0  0  0
    6.7287   -3.0250    0.0000 H   0  0  0  0  0  0  0  0  0  0  0  0
    5.9316   -3.0250    0.0000 H   0  0  0  0  0  0  0  0  0  0  0  0
    2.0000    4.6200    0.0000 H   0  0  0  0  0  0  0  0  0  0  0  0
    7.1962   -4.6200    0.0000 H   0  0  0  0  0  0  0  0  0  0  0  0
    7.8501   -1.9174    0.0000 H   0  0  0  0  0  0  0  0  0  0  0  0
    7.4516   -2.6077    0.0000 H   0  0  0  0  0  0  0  0  0  0  0  0
    8.5991   -3.8100    0.0000 H   0  0  0  0  0  0  0  0  0  0  0  0
    7.4516   -0.3923    0.0000 H   0  0  0  0  0  0  0  0  0  0  0  0
    7.8501   -1.0826    0.0000 H   0  0  0  0  0  0  0  0  0  0  0  0
    9.4651   -2.3100    0.0000 H   0  0  0  0  0  0  0  0  0  0  0  0
    9.4651   -0.6900    0.0000 H   0  0  0  0  0  0  0  0  0  0  0  0
    8.5991    0.8100    0.0000 H   0  0  0  0  0  0  0  0  0  0  0  0
    5.9316    0.0251    0.0000 H   0  0  0  0  0  0  0  0  0  0  0  0
    6.7287    0.0251    0.0000 H   0  0  0  0  0  0  0  0  0  0  0  0
    7.1962    1.6200    0.0000 H   0  0  0  0  0  0  0  0  0  0  0  0
    5.7741    1.5369    0.0000 H   0  0  0  0  0  0  0  0  0  0  0  0
    4.9272    1.3100    0.0000 H   0  0  0  0  0  0  0  0  0  0  0  0
    5.1541    0.4631    0.0000 H   0  0  0  0  0  0  0  0  0  0  0  0
  1 10  1  0  0  0  0
  1 43  1  0  0  0  0
  2 10  2  0  0  0  0
  3  4  1  0  0  0  0
  3  5  1  0  0  0  0
  3 25  1  0  0  0  0
  3 26  1  0  0  0  0
  4  6  1  0  0  0  0
  4 27  1  0  0  0  0
  4 28  1  0  0  0  0
  5  7  1  0  0  0  0
  5 29  1  0  0  0  0
  5 30  1  0  0  0  0
  6  8  1  0  0  0  0
  6 31  1  0  0  0  0
  6 32  1  0  0  0  0
  7 10  1  0  0  0  0
  7 33  1  0  0  0  0
  7 34  1  0  0  0  0
  8  9  2  0  0  0  0
  8 35  1  0  0  0  0
  9 11  1  0  0  0  0
  9 36  1  0  0  0  0
 11 12  1  0  0  0  0
 11 37  1  0  0  0  0
 11 38  1  0  0  0  0
 12 13  2  0  0  0  0
 12 39  1  0  0  0  0
 13 14  1  0  0  0  0
 13 40  1  0  0  0  0
 14 15  1  0  0  0  0
 14 41  1  0  0  0  0
 14 42  1  0  0  0  0
 15 17  2  0  0  0  0
 15 44  1  0  0  0  0
 16 17  1  0  0  0  0
 16 19  1  0  0  0  0
 16 45  1  0  0  0  0
 16 46  1  0  0  0  0
 17 47  1  0  0  0  0
 18 20  1  0  0  0  0
 18 21  1  0  0  0  0
 18 48  1  0  0  0  0
 18 49  1  0  0  0  0
 19 20  2  0  0  0  0
 19 50  1  0  0  0  0
 20 51  1  0  0  0  0
 21 23  2  0  0  0  0
 21 52  1  0  0  0  0
 22 23  1  0  0  0  0
 22 24  1  0  0  0  0
 22 53  1  0  0  0  0
 22 54  1  0  0  0  0
 23 55  1  0  0  0  0
 24 56  1  0  0  0  0
 24 57  1  0  0  0  0
 24 58  1  0  0  0  0
M  END
> <PUBCHEM_COMPOUND_CID>
5497182

> <PUBCHEM_COMPOUND_CANONICALIZED>
1

> <PUBCHEM_CACTVS_COMPLEXITY>
425

> <PUBCHEM_CACTVS_HBOND_ACCEPTOR>
2

> <PUBCHEM_CACTVS_HBOND_DONOR>
1

> <PUBCHEM_CACTVS_ROTATABLE_BOND>
15

> <PUBCHEM_CACTVS_SUBSKEYS>
AAADcfB4MAAAAAAAAAAAAAAAAAAAAAAAAAAAAAAAAAAAAAAAAAAAGgAACAAACACAgAACCAAAAgCIACDSCAAAAAAgAAAICAEAAAgAABIAAQAAQAAEgAAIAAOIyCCAAAAAAAAAAAAAAAAAAAAAAAAAAAAAAA==

> <PUBCHEM_IUPAC_OPENEYE_NAME>
(7Z,10Z,13Z,16Z,19Z)-docosa-7,10,13,16,19-pentaenoic acid

> <PUBCHEM_IUPAC_CAS_NAME>
(7Z,10Z,13Z,16Z,19Z)-docosa-7,10,13,16,19-pentaenoic acid

> <PUBCHEM_IUPAC_NAME>
(7Z,10Z,13Z,16Z,19Z)-docosa-7,10,13,16,19-pentaenoic acid

> <PUBCHEM_IUPAC_SYSTEMATIC_NAME>
(7Z,10Z,13Z,16Z,19Z)-docosa-7,10,13,16,19-pentaenoic acid

> <PUBCHEM_IUPAC_TRADITIONAL_NAME>
(7Z,10Z,13Z,16Z,19Z)-docosa-7,10,13,16,19-pentaenoic acid

> <PUBCHEM_IUPAC_INCHI>
InChI=1S/C22H34O2/c1-2-3-4-5-6-7-8-9-10-11-12-13-14-15-16-17-18-19-20-21-22(23)24/h3-4,6-7,9-10,12-13,15-16H,2,5,8,11,14,17-21H2,1H3,(H,23,24)/b4-3-,7-6-,10-9-,13-12-,16-15-

> <PUBCHEM_IUPAC_INCHIKEY>
YUFFSWGQGVEMMI-JLNKQSITSA-N

> <PUBCHEM_XLOGP3_AA>
6.7

> <PUBCHEM_EXACT_MASS>
330.25588

> <PUBCHEM_MOLECULAR_FORMULA>
C22H34O2

> <PUBCHEM_MOLECULAR_WEIGHT>
330.50416

> <PUBCHEM_OPENEYE_CAN_SMILES>
CCC=CCC=CCC=CCC=CCC=CCCCCCC(=O)O

> <PUBCHEM_OPENEYE_ISO_SMILES>
CC/C=C\C/C=C\C/C=C\C/C=C\C/C=C\CCCCCC(=O)O

> <PUBCHEM_CACTVS_TPSA>
37.3

> <PUBCHEM_MONOISOTOPIC_WEIGHT>
330.25588

> <PUBCHEM_TOTAL_CHARGE>
0

> <PUBCHEM_HEAVY_ATOM_COUNT>
24

> <PUBCHEM_ATOM_DEF_STEREO_COUNT>
0

> <PUBCHEM_ATOM_UDEF_STEREO_COUNT>
0

> <PUBCHEM_BOND_DEF_STEREO_COUNT>
5

> <PUBCHEM_BOND_UDEF_STEREO_COUNT>
0

> <PUBCHEM_ISOTOPIC_ATOM_COUNT>
0

> <PUBCHEM_COMPONENT_COUNT>
1

> <PUBCHEM_CACTVS_TAUTO_COUNT>
1

> <PUBCHEM_COORDINATE_TYPE>
1
5
255

$$$$

