441114
  -OEChem-07051212523D

 28 29  0     0  0  0  0  0  0999 V2000
   -4.9563    1.7471   -0.8283 Cl  0  0  0  0  0  0  0  0  0  0  0  0
   -1.1188   -3.3341   -0.0738 Cl  0  0  0  0  0  0  0  0  0  0  0  0
    1.7987   -3.2476    0.1349 Cl  0  0  0  0  0  0  0  0  0  0  0  0
    5.3862    2.1419    0.0188 Cl  0  0  0  0  0  0  0  0  0  0  0  0
   -1.2176   -0.1165    2.1036 O   0  0  0  0  0  0  0  0  0  0  0  0
   -3.6296    1.1353    1.7867 O   0  0  0  0  0  0  0  0  0  0  0  0
   -1.0147   -0.2973   -0.2768 C   0  0  0  0  0  0  0  0  0  0  0  0
    0.3080   -0.9845   -0.1326 C   0  0  0  0  0  0  0  0  0  0  0  0
    1.5458   -0.2214   -0.0954 C   0  0  0  0  0  0  0  0  0  0  0  0
   -1.7026    0.0975    0.8456 C   0  0  0  0  0  0  0  0  0  0  0  0
   -1.4850   -0.0914   -1.5530 C   0  0  0  0  0  0  0  0  0  0  0  0
   -2.9324    0.7355    0.6838 C   0  0  0  0  0  0  0  0  0  0  0  0
    2.0522    0.2283    1.1240 C   0  0  0  0  0  0  0  0  0  0  0  0
    2.2272    0.0598   -1.2795 C   0  0  0  0  0  0  0  0  0  0  0  0
   -2.7149    0.5465   -1.7148 C   0  0  0  0  0  0  0  0  0  0  0  0
   -3.4385    0.9600   -0.5964 C   0  0  0  0  0  0  0  0  0  0  0  0
    3.2397    0.9592    1.1593 C   0  0  0  0  0  0  0  0  0  0  0  0
    3.4148    0.7906   -1.2443 C   0  0  0  0  0  0  0  0  0  0  0  0
    0.3168   -2.3492   -0.0368 C   0  0  0  0  0  0  0  0  0  0  0  0
    3.9210    1.2404   -0.0249 C   0  0  0  0  0  0  0  0  0  0  0  0
   -0.9310   -0.4102   -2.4312 H   0  0  0  0  0  0  0  0  0  0  0  0
    1.5401    0.0141    2.0585 H   0  0  0  0  0  0  0  0  0  0  0  0
    1.8477   -0.2843   -2.2387 H   0  0  0  0  0  0  0  0  0  0  0  0
   -3.0958    0.7138   -2.7191 H   0  0  0  0  0  0  0  0  0  0  0  0
    3.6232    1.3019    2.1169 H   0  0  0  0  0  0  0  0  0  0  0  0
    3.9352    1.0019   -2.1750 H   0  0  0  0  0  0  0  0  0  0  0  0
   -1.8566    0.2394    2.7451 H   0  0  0  0  0  0  0  0  0  0  0  0
   -4.4546    1.5575    1.4908 H   0  0  0  0  0  0  0  0  0  0  0  0
  1 16  1  0  0  0  0
  2 19  1  0  0  0  0
  3 19  1  0  0  0  0
  4 20  1  0  0  0  0
  5 10  1  0  0  0  0
  5 27  1  0  0  0  0
  6 12  1  0  0  0  0
  6 28  1  0  0  0  0
  7  8  1  0  0  0  0
  7 10  2  0  0  0  0
  7 11  1  0  0  0  0
  8  9  1  0  0  0  0
  8 19  2  0  0  0  0
  9 13  2  0  0  0  0
  9 14  1  0  0  0  0
 10 12  1  0  0  0  0
 11 15  2  0  0  0  0
 11 21  1  0  0  0  0
 12 16  2  0  0  0  0
 13 17  1  0  0  0  0
 13 22  1  0  0  0  0
 14 18  2  0  0  0  0
 14 23  1  0  0  0  0
 15 16  1  0  0  0  0
 15 24  1  0  0  0  0
 17 20  2  0  0  0  0
 17 25  1  0  0  0  0
 18 20  1  0  0  0  0
 18 26  1  0  0  0  0
M  END
> <PUBCHEM_COMPOUND_CID>
441114

> <PUBCHEM_CONFORMER_RMSD>
0.6

> <PUBCHEM_CONFORMER_DIVERSEORDER>
2
1

> <PUBCHEM_MMFF94_PARTIAL_CHARGES>
28
1 -0.18
10 0.08
11 -0.15
12 0.08
13 -0.15
14 -0.15
15 -0.15
16 0.18
17 -0.15
18 -0.15
19 0.28
2 -0.14
20 0.18
21 0.15
22 0.15
23 0.15
24 0.15
25 0.15
26 0.15
27 0.45
28 0.45
3 -0.14
4 -0.18
5 -0.53
6 -0.53
7 0.03
8 -0.06
9 0.03

> <PUBCHEM_EFFECTIVE_ROTOR_COUNT>
2

> <PUBCHEM_PHARMACOPHORE_FEATURES>
4
1 5 donor
1 6 donor
6 7 10 11 12 15 16 rings
6 9 13 14 17 18 20 rings

> <PUBCHEM_HEAVY_ATOM_COUNT>
20

> <PUBCHEM_ATOM_DEF_STEREO_COUNT>
0

> <PUBCHEM_ATOM_UDEF_STEREO_COUNT>
0

> <PUBCHEM_BOND_DEF_STEREO_COUNT>
0

> <PUBCHEM_BOND_UDEF_STEREO_COUNT>
0

> <PUBCHEM_ISOTOPIC_ATOM_COUNT>
0

> <PUBCHEM_COMPONENT_COUNT>
1

> <PUBCHEM_CACTVS_TAUTO_COUNT>
10

> <PUBCHEM_CONFORMER_ID>
0006BB1A00000002

> <PUBCHEM_MMFF94_ENERGY>
61.2375

> <PUBCHEM_FEATURE_SELFOVERLAP>
20.303

> <PUBCHEM_SHAPE_FINGERPRINT>
10165383 225 18124562432276078830
10498660 4 18335141990012924365
11582403 64 16483363237212837583
11640471 11 18187091679801003119
11725454 13 16986628392379686359
12173636 292 18335409162837690429
12251169 10 15554732165938493020
12403259 118 17489585619429275189
12633257 1 15697998522353072716
12788726 201 17766833931919829438
13134695 92 17767131173626706758
13544653 18 8790888467228618160
14787075 74 17897454887250463303
15309172 13 18342452634151039717
15342168 16 18341617035700786149
16752209 62 18050866428717164062
17980427 23 17203604853227133599
1813 80 17465940871335866718
18186145 218 18334004012905341884
18219364 16 18338791221807872016
19765921 60 18040716991188250267
19784866 34 18335419084085725601
19862831 5 17458628938278871501
200 152 6915988075386168932
204376 136 18412546496147910934
20510252 161 17975979761106253882
20600515 1 16901625964222075106
21120745 212 16976996391505879326
21296965 67 8935000373501339943
21524375 3 18259990387518310366
21618674 25 18201721794895904333
21756936 100 17894899711899482184
22079108 93 18188195534215715667
2255824 54 18119253006521788727
22907989 373 17829327986788159644
23402655 69 16588011438171898944
23419403 2 17480812736774448762
23557571 272 18045778992820551684
23559900 14 16700881890067687039
23598291 2 17533776272060815937
25 1 18040988553628159852
27216 239 18059574616205602084
283562 15 18050855411952177906
3082319 5 15864067676354246124
350125 39 18411974750334433442
4028521 119 17821731628129064224
4340502 62 18409728487323793363
469060 322 18126841600017571723
474 4 18334297556598105996
495365 180 18127134289010986623
633830 44 17968641834976281617
77492 1 17605284067303696695
7808743 9 18270121193531796596
7970288 3 9007060188112128980
81228 2 17908135478324995930
84936 182 18189059861502265616

> <PUBCHEM_SHAPE_MULTIPOLES>
407.33
8.55
2.86
1.57
2.04
3.38
-0.25
-8.78
0.5
0.73
0.08
-0.76
-0.43
0.13

> <PUBCHEM_SHAPE_SELFOVERLAP>
846.817

> <PUBCHEM_SHAPE_VOLUME>
235.3

> <PUBCHEM_COORDINATE_TYPE>
2
5
10

$$$$

