13873378
  -OEChem-07051213093D

 34 34  0     1  0  0  0  0  0999 V2000
   -2.6348    1.8800   -1.2587 O   0  0  0  0  0  0  0  0  0  0  0  0
   -4.7242    0.9634    0.3688 O   0  0  0  0  0  0  0  0  0  0  0  0
    3.7695   -1.8368    0.1573 O   0  0  0  0  0  0  0  0  0  0  0  0
    1.4449   -2.6516   -0.4316 O   0  0  0  0  0  0  0  0  0  0  0  0
   -2.4149    1.6348    0.1291 C   0  0  1  0  0  0  0  0  0  0  0  0
   -3.3831    0.5309    0.5997 C   0  0  2  0  0  0  0  0  0  0  0  0
   -0.9593    1.3384    0.4129 C   0  0  0  0  0  0  0  0  0  0  0  0
    1.4300    0.9523   -0.1971 C   0  0  0  0  0  0  0  0  0  0  0  0
    0.0171    1.2317   -0.5035 C   0  0  0  0  0  0  0  0  0  0  0  0
   -3.1700   -0.7970   -0.0803 C   0  0  0  0  0  0  0  0  0  0  0  0
    1.9145   -0.3473   -0.1711 C   0  0  0  0  0  0  0  0  0  0  0  0
    2.2620    2.0319    0.0653 C   0  0  0  0  0  0  0  0  0  0  0  0
    3.2592   -0.5729    0.1233 C   0  0  0  0  0  0  0  0  0  0  0  0
   -2.8880   -1.9313    0.5770 C   0  0  0  0  0  0  0  0  0  0  0  0
    3.6066    1.8064    0.3596 C   0  0  0  0  0  0  0  0  0  0  0  0
    4.1052    0.5041    0.3886 C   0  0  0  0  0  0  0  0  0  0  0  0
    1.0446   -1.4880   -0.4467 C   0  0  0  0  0  0  0  0  0  0  0  0
   -2.6796   -3.2492   -0.0925 C   0  0  0  0  0  0  0  0  0  0  0  0
   -2.6674    2.5695    0.6455 H   0  0  0  0  0  0  0  0  0  0  0  0
   -3.2787    0.4166    1.6857 H   0  0  0  0  0  0  0  0  0  0  0  0
   -0.7051    1.2132    1.4642 H   0  0  0  0  0  0  0  0  0  0  0  0
   -0.1971    1.3516   -1.5620 H   0  0  0  0  0  0  0  0  0  0  0  0
   -3.2645   -0.8209   -1.1634 H   0  0  0  0  0  0  0  0  0  0  0  0
    1.8885    3.0525    0.0455 H   0  0  0  0  0  0  0  0  0  0  0  0
   -3.5212    2.2677   -1.3529 H   0  0  0  0  0  0  0  0  0  0  0  0
   -2.7969   -1.9167    1.6598 H   0  0  0  0  0  0  0  0  0  0  0  0
   -4.8930    0.9397   -0.5884 H   0  0  0  0  0  0  0  0  0  0  0  0
    4.2653    2.6449    0.5660 H   0  0  0  0  0  0  0  0  0  0  0  0
    5.1550    0.3437    0.6193 H   0  0  0  0  0  0  0  0  0  0  0  0
   -0.0099   -1.2909   -0.6905 H   0  0  0  0  0  0  0  0  0  0  0  0
   -2.7780   -3.1825   -1.1805 H   0  0  0  0  0  0  0  0  0  0  0  0
   -1.6789   -3.6284    0.1362 H   0  0  0  0  0  0  0  0  0  0  0  0
   -3.4138   -3.9732    0.2733 H   0  0  0  0  0  0  0  0  0  0  0  0
    4.7157   -1.7921    0.3779 H   0  0  0  0  0  0  0  0  0  0  0  0
  1  5  1  0  0  0  0
  1 25  1  0  0  0  0
  2  6  1  0  0  0  0
  2 27  1  0  0  0  0
  3 13  1  0  0  0  0
  3 34  1  0  0  0  0
  4 17  2  0  0  0  0
  5  6  1  0  0  0  0
  5  7  1  0  0  0  0
  5 19  1  0  0  0  0
  6 10  1  0  0  0  0
  6 20  1  0  0  0  0
  7  9  2  0  0  0  0
  7 21  1  0  0  0  0
  8  9  1  0  0  0  0
  8 11  2  0  0  0  0
  8 12  1  0  0  0  0
  9 22  1  0  0  0  0
 10 14  2  0  0  0  0
 10 23  1  0  0  0  0
 11 13  1  0  0  0  0
 11 17  1  0  0  0  0
 12 15  2  0  0  0  0
 12 24  1  0  0  0  0
 13 16  2  0  0  0  0
 14 18  1  0  0  0  0
 14 26  1  0  0  0  0
 15 16  1  0  0  0  0
 15 28  1  0  0  0  0
 16 29  1  0  0  0  0
 17 30  1  0  0  0  0
 18 31  1  0  0  0  0
 18 32  1  0  0  0  0
 18 33  1  0  0  0  0
M  END
> <PUBCHEM_COMPOUND_CID>
13873378

> <PUBCHEM_CONFORMER_RMSD>
0.6

> <PUBCHEM_CONFORMER_DIVERSEORDER>
3
20
16
62
69
27
38
87
17
13
92
5
31
11
47
107
89
7
14
51
30
67
68
41
76
57
39
40
72
109
29
104
10
108
23
21
98
85
12
63
25
88
19
53
26
44
8
86
48
101
80
71
37
94
105
77
9
55
46
103
93
35
22
49
66
2
91
33
36
73
34
81
18
42
59
65
64
54
97
84
50
4
6
43
70
95
106
100
60
1
61
28
15
78
24
45
75
96
58
102
52
32
82
83
79
99
90
74
56

> <PUBCHEM_MMFF94_PARTIAL_CHARGES>
29
1 -0.68
10 -0.29
11 0.09
12 -0.15
13 0.08
14 -0.29
15 -0.15
16 -0.15
17 0.42
18 0.14
2 -0.68
21 0.15
22 0.15
23 0.15
24 0.15
25 0.4
26 0.15
27 0.4
28 0.15
29 0.15
3 -0.53
30 0.06
34 0.45
4 -0.57
5 0.42
6 0.42
7 -0.29
8 0.03
9 -0.18

> <PUBCHEM_EFFECTIVE_ROTOR_COUNT>
5

> <PUBCHEM_PHARMACOPHORE_FEATURES>
8
1 1 acceptor
1 1 donor
1 18 hydrophobe
1 2 acceptor
1 2 donor
1 3 donor
1 4 acceptor
6 8 11 12 13 15 16 rings

> <PUBCHEM_HEAVY_ATOM_COUNT>
18

> <PUBCHEM_ATOM_DEF_STEREO_COUNT>
2

> <PUBCHEM_ATOM_UDEF_STEREO_COUNT>
0

> <PUBCHEM_BOND_DEF_STEREO_COUNT>
2

> <PUBCHEM_BOND_UDEF_STEREO_COUNT>
0

> <PUBCHEM_ISOTOPIC_ATOM_COUNT>
0

> <PUBCHEM_COMPONENT_COUNT>
1

> <PUBCHEM_CACTVS_TAUTO_COUNT>
5

> <PUBCHEM_CONFORMER_ID>
00D3B0E200000003

> <PUBCHEM_MMFF94_ENERGY>
42.2638

> <PUBCHEM_FEATURE_SELFOVERLAP>
40.602

> <PUBCHEM_SHAPE_FINGERPRINT>
10366900 7 17822297881175963761
10616163 171 18337668603429986647
11132069 177 18411982433803397273
11370993 70 18410296951592937201
11552529 35 17968657086658435379
12500047 106 18341900752634795685
12633257 1 18336259149824362995
12839892 36 18338250275509848618
13140716 1 18408328778529348840
138480 1 17401484248562277603
14251705 54 18267860584428560971
14251745 187 18339647728559921355
14790565 3 17979910515534658604
15196674 1 18410009914491361379
15375358 24 18410576210387823509
15442244 35 18411139130282040914
17492 89 18411698742756333762
17834074 16 18410571794765765465
19050596 39 18408323267764892424
19107657 46 18410290285608508535
19141452 34 18412542098824326729
200 152 18113628889034985869
20261772 1 17971468503246317542
20645477 70 18339366365252463885
21673915 165 18337674088045058506
221490 88 18410848850711784386
23559900 14 18408606972135493952
2871803 45 18341338790576353007
5104073 3 18409165493602801635
69090 78 18412826910848065241
8809292 202 18342171180797073123
9709674 26 18335698364624278951

> <PUBCHEM_SHAPE_MULTIPOLES>
346.95
8.25
3.12
0.78
0.99
1.97
-0.06
-0.1
1.29
1.23
-0.24
0.23
-0.14
0.35

> <PUBCHEM_SHAPE_SELFOVERLAP>
713.814

> <PUBCHEM_SHAPE_VOLUME>
198.4

> <PUBCHEM_COORDINATE_TYPE>
2
5
10

$$$$

