5281564
  -OEChem-07051212583D

 28 28  0     1  0  0  0  0  0999 V2000
    0.8836   -0.0974   -1.7361 O   0  0  0  0  0  0  0  0  0  0  0  0
   -2.2307    1.4092    0.5725 O   0  0  0  0  0  0  0  0  0  0  0  0
   -3.1488   -0.6309    0.7496 O   0  0  0  0  0  0  0  0  0  0  0  0
    3.3864    0.9337   -0.1945 O   0  0  0  0  0  0  0  0  0  0  0  0
   -0.0822   -2.4407   -1.2908 N   0  0  0  0  0  0  0  0  0  0  0  0
    0.1942    0.3632   -0.5679 C   0  0  2  0  0  0  0  0  0  0  0  0
   -0.2690    1.7885   -0.8538 C   0  0  0  0  0  0  0  0  0  0  0  0
    1.1789    0.2898    0.6055 C   0  0  1  0  0  0  0  0  0  0  0  0
   -1.0112   -0.5025   -0.2969 C   0  0  0  0  0  0  0  0  0  0  0  0
   -1.1402    2.3019    0.2687 C   0  0  0  0  0  0  0  0  0  0  0  0
   -2.2068    0.0655    0.3826 C   0  0  0  0  0  0  0  0  0  0  0  0
    1.6865   -1.1089    0.7795 C   0  0  0  0  0  0  0  0  0  0  0  0
    2.3288    1.2437    0.3452 C   0  0  0  0  0  0  0  0  0  0  0  0
   -1.0941   -1.7930   -0.6638 C   0  0  0  0  0  0  0  0  0  0  0  0
    1.5245   -1.8220    1.9001 C   0  0  0  0  0  0  0  0  0  0  0  0
   -0.8613    1.7871   -1.7807 H   0  0  0  0  0  0  0  0  0  0  0  0
    0.5607    2.4741   -1.0566 H   0  0  0  0  0  0  0  0  0  0  0  0
    0.7104    0.6226    1.5406 H   0  0  0  0  0  0  0  0  0  0  0  0
   -0.5766    2.4746    1.1907 H   0  0  0  0  0  0  0  0  0  0  0  0
   -1.5835    3.2608   -0.0197 H   0  0  0  0  0  0  0  0  0  0  0  0
    0.2852   -0.0115   -2.4985 H   0  0  0  0  0  0  0  0  0  0  0  0
    2.2734   -1.5557   -0.0196 H   0  0  0  0  0  0  0  0  0  0  0  0
    2.1566    2.2871    0.6633 H   0  0  0  0  0  0  0  0  0  0  0  0
   -1.9527   -2.4269   -0.4817 H   0  0  0  0  0  0  0  0  0  0  0  0
    1.9405   -2.8203    1.9801 H   0  0  0  0  0  0  0  0  0  0  0  0
    0.9769   -1.4298    2.7498 H   0  0  0  0  0  0  0  0  0  0  0  0
   -0.2047   -3.4153   -1.5372 H   0  0  0  0  0  0  0  0  0  0  0  0
    0.7569   -1.9634   -1.5871 H   0  0  0  0  0  0  0  0  0  0  0  0
  1  6  1  0  0  0  0
  1 21  1  0  0  0  0
  2 10  1  0  0  0  0
  2 11  1  0  0  0  0
  3 11  2  0  0  0  0
  4 13  2  0  0  0  0
  5 14  1  0  0  0  0
  5 27  1  0  0  0  0
  5 28  1  0  0  0  0
  6  7  1  0  0  0  0
  6  8  1  0  0  0  0
  6  9  1  0  0  0  0
  7 10  1  0  0  0  0
  7 16  1  0  0  0  0
  7 17  1  0  0  0  0
  8 12  1  0  0  0  0
  8 13  1  0  0  0  0
  8 18  1  0  0  0  0
  9 11  1  0  0  0  0
  9 14  2  0  0  0  0
 10 19  1  0  0  0  0
 10 20  1  0  0  0  0
 12 15  2  0  0  0  0
 12 22  1  0  0  0  0
 13 23  1  0  0  0  0
 14 24  1  0  0  0  0
 15 25  1  0  0  0  0
 15 26  1  0  0  0  0
M  END
> <PUBCHEM_COMPOUND_CID>
5281564

> <PUBCHEM_CONFORMER_RMSD>
0.6

> <PUBCHEM_CONFORMER_DIVERSEORDER>
2
5
23
21
9
16
3
6
14
22
7
20
19
12
4
11
8
15
13
1
18
10
17

> <PUBCHEM_MMFF94_PARTIAL_CHARGES>
22
1 -0.68
10 0.28
11 0.71
12 -0.29
13 0.45
14 -0.05
15 -0.3
2 -0.43
21 0.4
22 0.15
23 0.06
24 0.15
25 0.15
26 0.15
27 0.4
28 0.4
3 -0.57
4 -0.57
5 -0.9
6 0.42
8 0.2
9 -0.12

> <PUBCHEM_EFFECTIVE_ROTOR_COUNT>
3.8

> <PUBCHEM_PHARMACOPHORE_FEATURES>
8
1 1 acceptor
1 1 donor
1 15 hydrophobe
1 3 acceptor
1 4 acceptor
1 5 cation
1 5 donor
6 2 6 7 9 10 11 rings

> <PUBCHEM_HEAVY_ATOM_COUNT>
15

> <PUBCHEM_ATOM_DEF_STEREO_COUNT>
0

> <PUBCHEM_ATOM_UDEF_STEREO_COUNT>
2

> <PUBCHEM_BOND_DEF_STEREO_COUNT>
1

> <PUBCHEM_BOND_UDEF_STEREO_COUNT>
0

> <PUBCHEM_ISOTOPIC_ATOM_COUNT>
0

> <PUBCHEM_COMPONENT_COUNT>
1

> <PUBCHEM_CACTVS_TAUTO_COUNT>
9

> <PUBCHEM_CONFORMER_ID>
0050971C00000002

> <PUBCHEM_MMFF94_ENERGY>
45.3245

> <PUBCHEM_FEATURE_SELFOVERLAP>
40.608

> <PUBCHEM_SHAPE_FINGERPRINT>
12251169 10 18054513778989174337
12423570 1 9454433808489672165
14251711 518 18339093574662540130
14817 1 16044441218634327102
14993402 34 18262807246340946375
15076042 46 18266188403156843009
15490181 8 17832434463476954757
15557651 10 16660082213168740673
15775835 57 18409725162190840585
16945 1 18189058598950717856
20344682 10 18129658591182256257
20511035 2 17909016496412971464
22112679 90 18119273691052462290
23236772 104 18122351181043036562
23388829 49 18338239263150131397
23419403 2 13239058844330951901
2748010 2 16607734782450802069

> <PUBCHEM_SHAPE_MULTIPOLES>
280.23
3.52
2.43
1.35
0.35
0.19
0.1
-0.51
-1.13
-0.07
0.09
0.28
0.62
-0.64

> <PUBCHEM_SHAPE_SELFOVERLAP>
580.636

> <PUBCHEM_SHAPE_VOLUME>
156.7

> <PUBCHEM_COORDINATE_TYPE>
2
5
10

$$$$

