8561
  -OEChem-07051213053D

 48 48  0     0  0  0  0  0  0999 V2000
    0.0630    0.8504   -1.3673 O   0  0  0  0  0  0  0  0  0  0  0  0
    0.0752   -0.8505    1.3639 O   0  0  0  0  0  0  0  0  0  0  0  0
    0.5008   -1.3089   -2.0345 O   0  0  0  0  0  0  0  0  0  0  0  0
    0.5030    1.3087    2.0376 O   0  0  0  0  0  0  0  0  0  0  0  0
   -2.1455    2.4628   -0.3917 C   0  0  0  0  0  0  0  0  0  0  0  0
   -2.1432   -2.4634    0.3955 C   0  0  0  0  0  0  0  0  0  0  0  0
   -1.8715    2.1706   -1.8653 C   0  0  0  0  0  0  0  0  0  0  0  0
   -1.8672   -2.1724    1.8690 C   0  0  0  0  0  0  0  0  0  0  0  0
   -2.8765    3.7933   -0.2151 C   0  0  0  0  0  0  0  0  0  0  0  0
   -2.8735   -3.7943    0.2189 C   0  0  0  0  0  0  0  0  0  0  0  0
   -1.1811    0.8273   -2.0532 C   0  0  0  0  0  0  0  0  0  0  0  0
   -1.1774   -0.8286    2.0570 C   0  0  0  0  0  0  0  0  0  0  0  0
   -3.1811    4.0715    1.2483 C   0  0  0  0  0  0  0  0  0  0  0  0
   -3.1803   -4.0715   -1.2442 C   0  0  0  0  0  0  0  0  0  0  0  0
    2.0772   -0.1356   -0.6842 C   0  0  0  0  0  0  0  0  0  0  0  0
    2.0780    0.1377    0.6837 C   0  0  0  0  0  0  0  0  0  0  0  0
    0.8080   -0.2877   -1.4395 C   0  0  0  0  0  0  0  0  0  0  0  0
    0.8335    0.2854    1.4270 C   0  0  0  0  0  0  0  0  0  0  0  0
    3.2847   -0.2721   -1.3689 C   0  0  0  0  0  0  0  0  0  0  0  0
    3.2867    0.2744    1.3667 C   0  0  0  0  0  0  0  0  0  0  0  0
    4.4932   -0.1352   -0.6858 C   0  0  0  0  0  0  0  0  0  0  0  0
    4.4942    0.1380    0.6820 C   0  0  0  0  0  0  0  0  0  0  0  0
   -2.7511    1.6541    0.0348 H   0  0  0  0  0  0  0  0  0  0  0  0
   -1.2045    2.4942    0.1688 H   0  0  0  0  0  0  0  0  0  0  0  0
   -2.7500   -1.6548   -0.0294 H   0  0  0  0  0  0  0  0  0  0  0  0
   -1.2031   -2.4938   -0.1663 H   0  0  0  0  0  0  0  0  0  0  0  0
   -1.2341    2.9657   -2.2713 H   0  0  0  0  0  0  0  0  0  0  0  0
   -2.8104    2.1761   -2.4306 H   0  0  0  0  0  0  0  0  0  0  0  0
   -1.2282   -2.9670    2.2731 H   0  0  0  0  0  0  0  0  0  0  0  0
   -2.8051   -2.1791    2.4360 H   0  0  0  0  0  0  0  0  0  0  0  0
   -3.8159    3.7806   -0.7800 H   0  0  0  0  0  0  0  0  0  0  0  0
   -2.2662    4.6098   -0.6181 H   0  0  0  0  0  0  0  0  0  0  0  0
   -3.8120   -3.7828    0.7854 H   0  0  0  0  0  0  0  0  0  0  0  0
   -2.2620   -4.6107    0.6204 H   0  0  0  0  0  0  0  0  0  0  0  0
   -1.0067    0.6537   -3.1213 H   0  0  0  0  0  0  0  0  0  0  0  0
   -1.8086    0.0203   -1.6587 H   0  0  0  0  0  0  0  0  0  0  0  0
   -0.9964   -0.6544    3.1236 H   0  0  0  0  0  0  0  0  0  0  0  0
   -1.8016   -0.0199    1.6614 H   0  0  0  0  0  0  0  0  0  0  0  0
   -3.7027    5.0281    1.3518 H   0  0  0  0  0  0  0  0  0  0  0  0
   -2.2600    4.1209    1.8379 H   0  0  0  0  0  0  0  0  0  0  0  0
   -3.8187    3.2890    1.6719 H   0  0  0  0  0  0  0  0  0  0  0  0
   -3.7015   -5.0283   -1.3478 H   0  0  0  0  0  0  0  0  0  0  0  0
   -2.2602   -4.1197   -1.8354 H   0  0  0  0  0  0  0  0  0  0  0  0
   -3.8192   -3.2890   -1.6662 H   0  0  0  0  0  0  0  0  0  0  0  0
    3.2976   -0.4836   -2.4350 H   0  0  0  0  0  0  0  0  0  0  0  0
    3.3019    0.4858    2.4329 H   0  0  0  0  0  0  0  0  0  0  0  0
    5.4335   -0.2411   -1.2189 H   0  0  0  0  0  0  0  0  0  0  0  0
    5.4352    0.2442    1.2137 H   0  0  0  0  0  0  0  0  0  0  0  0
  1 11  1  0  0  0  0
  1 17  1  0  0  0  0
  2 12  1  0  0  0  0
  2 18  1  0  0  0  0
  3 17  2  0  0  0  0
  4 18  2  0  0  0  0
  5  7  1  0  0  0  0
  5  9  1  0  0  0  0
  5 23  1  0  0  0  0
  5 24  1  0  0  0  0
  6  8  1  0  0  0  0
  6 10  1  0  0  0  0
  6 25  1  0  0  0  0
  6 26  1  0  0  0  0
  7 11  1  0  0  0  0
  7 27  1  0  0  0  0
  7 28  1  0  0  0  0
  8 12  1  0  0  0  0
  8 29  1  0  0  0  0
  8 30  1  0  0  0  0
  9 13  1  0  0  0  0
  9 31  1  0  0  0  0
  9 32  1  0  0  0  0
 10 14  1  0  0  0  0
 10 33  1  0  0  0  0
 10 34  1  0  0  0  0
 11 35  1  0  0  0  0
 11 36  1  0  0  0  0
 12 37  1  0  0  0  0
 12 38  1  0  0  0  0
 13 39  1  0  0  0  0
 13 40  1  0  0  0  0
 13 41  1  0  0  0  0
 14 42  1  0  0  0  0
 14 43  1  0  0  0  0
 14 44  1  0  0  0  0
 15 16  1  0  0  0  0
 15 17  1  0  0  0  0
 15 19  2  0  0  0  0
 16 18  1  0  0  0  0
 16 20  2  0  0  0  0
 19 21  1  0  0  0  0
 19 45  1  0  0  0  0
 20 22  1  0  0  0  0
 20 46  1  0  0  0  0
 21 22  2  0  0  0  0
 21 47  1  0  0  0  0
 22 48  1  0  0  0  0
M  END
> <PUBCHEM_COMPOUND_CID>
8561

> <PUBCHEM_CONFORMER_RMSD>
1.2

> <PUBCHEM_CONFORMER_DIVERSEORDER>
1
19
16
6
40
59
3
58
52
56
49
14
20
45
17
26
4
18
38
2
39
5
55
35
13
53
44
47
11
32
33
29
25
7
22
28
21
41
31
57
34
12
51
50
48
30
37
27
42
24
10
46
36
8
43
54
15
23
9

> <PUBCHEM_MMFF94_PARTIAL_CHARGES>
18
1 -0.43
11 0.28
12 0.28
15 0.09
16 0.09
17 0.63
18 0.63
19 -0.15
2 -0.43
20 -0.15
21 -0.15
22 -0.15
3 -0.57
4 -0.57
45 0.15
46 0.15
47 0.15
48 0.15

> <PUBCHEM_EFFECTIVE_ROTOR_COUNT>
12

> <PUBCHEM_PHARMACOPHORE_FEATURES>
5
1 13 hydrophobe
1 14 hydrophobe
1 3 acceptor
1 4 acceptor
6 15 16 19 20 21 22 rings

> <PUBCHEM_HEAVY_ATOM_COUNT>
22

> <PUBCHEM_ATOM_DEF_STEREO_COUNT>
0

> <PUBCHEM_ATOM_UDEF_STEREO_COUNT>
0

> <PUBCHEM_BOND_DEF_STEREO_COUNT>
0

> <PUBCHEM_BOND_UDEF_STEREO_COUNT>
0

> <PUBCHEM_ISOTOPIC_ATOM_COUNT>
0

> <PUBCHEM_COMPONENT_COUNT>
1

> <PUBCHEM_CACTVS_TAUTO_COUNT>
1

> <PUBCHEM_CONFORMER_ID>
0000217100000001

> <PUBCHEM_MMFF94_ENERGY>
38.2876

> <PUBCHEM_FEATURE_SELFOVERLAP>
25.371

> <PUBCHEM_SHAPE_FINGERPRINT>
12293681 4 18262256442549984105
12400797 245 16517349025478828538
12788726 201 18272360932881421175
12841375 5 16974207467187238777
13134695 92 17765147272592885695
14251757 17 15721399484093116752
14617773 55 17132119009335436814
17980427 26 16598679110174112233
20261772 1 16485826181766340592
20600515 1 17484818016936400473
22620623 9 18343578538727714534
23419403 2 17825400582619264729
35225 105 18199208307125284057
427121 178 17911786187530800881
6438718 38 17916561246207493617
6442390 28 18193267718867803385
6786 2 18121772000872485659
81228 2 17846781775869313504
84936 31 8066148624633139639

> <PUBCHEM_SHAPE_MULTIPOLES>
429.27
6.74
4.85
2.38
6.2
0
0
-0.01
0
-11.03
-0.01
-0.4
0
-0.08

> <PUBCHEM_SHAPE_SELFOVERLAP>
857.048

> <PUBCHEM_SHAPE_VOLUME>
253.7

> <PUBCHEM_COORDINATE_TYPE>
2
5
10

$$$$

