115254
  -OEChem-07051212453D

 45 44  0     1  0  0  0  0  0999 V2000
   -1.4490    1.9509   -1.8262 S   0  0  0  0  0  0  0  0  0  0  0  0
    2.0647    2.5353    0.3746 P   0  0  0  0  0  0  0  0  0  0  0  0
    2.0103    1.0802   -0.3263 O   0  0  0  0  0  0  0  0  0  0  0  0
    0.8296   -2.8594   -1.4947 O   0  0  0  0  0  0  0  0  0  0  0  0
   -0.0464   -2.9382    1.0617 O   0  0  0  0  0  0  0  0  0  0  0  0
    1.3528    2.2694    1.8020 O   0  0  0  0  0  0  0  0  0  0  0  0
    3.6235    2.7175    0.7644 O   0  0  0  0  0  0  0  0  0  0  0  0
    1.4701    3.6527   -0.4319 O   0  0  0  0  0  0  0  0  0  0  0  0
   -4.0215    1.1486    1.1268 O   0  0  0  0  0  0  0  0  0  0  0  0
   -0.5546   -0.6787    0.9192 N   0  0  0  0  0  0  0  0  0  0  0  0
   -3.2966   -0.3035   -0.5344 N   0  0  0  0  0  0  0  0  0  0  0  0
    2.4161   -1.3346   -0.4414 C   0  0  0  0  0  0  0  0  0  0  0  0
    0.9214   -1.6516   -0.7436 C   0  0  2  0  0  0  0  0  0  0  0  0
    2.5558   -0.0292    0.3795 C   0  0  0  0  0  0  0  0  0  0  0  0
    3.0866   -2.4993    0.3142 C   0  0  0  0  0  0  0  0  0  0  0  0
    3.1641   -1.1610   -1.7849 C   0  0  0  0  0  0  0  0  0  0  0  0
    0.0574   -1.8492    0.5001 C   0  0  0  0  0  0  0  0  0  0  0  0
   -1.4006   -0.6081    2.0882 C   0  0  0  0  0  0  0  0  0  0  0  0
   -2.8617   -0.8828    1.7595 C   0  0  0  0  0  0  0  0  0  0  0  0
   -3.4591    0.1140    0.7788 C   0  0  0  0  0  0  0  0  0  0  0  0
   -3.7845    0.4545   -1.6632 C   0  0  0  0  0  0  0  0  0  0  0  0
   -2.6784    0.8727   -2.6224 C   0  0  0  0  0  0  0  0  0  0  0  0
    0.4816   -0.8642   -1.3660 H   0  0  0  0  0  0  0  0  0  0  0  0
    2.0676   -0.1265    1.3540 H   0  0  0  0  0  0  0  0  0  0  0  0
    3.6169    0.1700    0.5690 H   0  0  0  0  0  0  0  0  0  0  0  0
    2.6043   -2.6859    1.2790 H   0  0  0  0  0  0  0  0  0  0  0  0
    3.0771   -3.4309   -0.2603 H   0  0  0  0  0  0  0  0  0  0  0  0
    4.1378   -2.2672    0.5233 H   0  0  0  0  0  0  0  0  0  0  0  0
    2.7011   -0.3847   -2.4041 H   0  0  0  0  0  0  0  0  0  0  0  0
    4.2090   -0.8749   -1.6186 H   0  0  0  0  0  0  0  0  0  0  0  0
    3.1679   -2.0890   -2.3674 H   0  0  0  0  0  0  0  0  0  0  0  0
   -0.4114    0.1757    0.3888 H   0  0  0  0  0  0  0  0  0  0  0  0
    1.0824   -3.6028   -0.9226 H   0  0  0  0  0  0  0  0  0  0  0  0
   -1.0439   -1.3251    2.8350 H   0  0  0  0  0  0  0  0  0  0  0  0
   -1.2865    0.4006    2.4993 H   0  0  0  0  0  0  0  0  0  0  0  0
   -3.4587   -0.8365    2.6780 H   0  0  0  0  0  0  0  0  0  0  0  0
   -2.9784   -1.8990    1.3632 H   0  0  0  0  0  0  0  0  0  0  0  0
   -2.8400   -1.1908   -0.7248 H   0  0  0  0  0  0  0  0  0  0  0  0
   -4.3487    1.3288   -1.3200 H   0  0  0  0  0  0  0  0  0  0  0  0
   -4.4888   -0.1975   -2.1915 H   0  0  0  0  0  0  0  0  0  0  0  0
    1.1744    3.0317    2.3929 H   0  0  0  0  0  0  0  0  0  0  0  0
    3.9187    3.5673    1.1551 H   0  0  0  0  0  0  0  0  0  0  0  0
   -3.1054    1.4060   -3.4773 H   0  0  0  0  0  0  0  0  0  0  0  0
   -2.1527   -0.0091   -3.0039 H   0  0  0  0  0  0  0  0  0  0  0  0
   -0.6547    2.0927   -2.8974 H   0  0  0  0  0  0  0  0  0  0  0  0
  1 22  1  0  0  0  0
  1 45  1  0  0  0  0
  2  3  1  0  0  0  0
  2  6  1  0  0  0  0
  2  7  1  0  0  0  0
  2  8  2  0  0  0  0
  3 14  1  0  0  0  0
  4 13  1  0  0  0  0
  4 33  1  0  0  0  0
  5 17  2  0  0  0  0
  6 41  1  0  0  0  0
  7 42  1  0  0  0  0
  9 20  2  0  0  0  0
 10 17  1  0  0  0  0
 10 18  1  0  0  0  0
 10 32  1  0  0  0  0
 11 20  1  0  0  0  0
 11 21  1  0  0  0  0
 11 38  1  0  0  0  0
 12 13  1  0  0  0  0
 12 14  1  0  0  0  0
 12 15  1  0  0  0  0
 12 16  1  0  0  0  0
 13 17  1  0  0  0  0
 13 23  1  0  0  0  0
 14 24  1  0  0  0  0
 14 25  1  0  0  0  0
 15 26  1  0  0  0  0
 15 27  1  0  0  0  0
 15 28  1  0  0  0  0
 16 29  1  0  0  0  0
 16 30  1  0  0  0  0
 16 31  1  0  0  0  0
 18 19  1  0  0  0  0
 18 34  1  0  0  0  0
 18 35  1  0  0  0  0
 19 20  1  0  0  0  0
 19 36  1  0  0  0  0
 19 37  1  0  0  0  0
 21 22  1  0  0  0  0
 21 39  1  0  0  0  0
 21 40  1  0  0  0  0
 22 43  1  0  0  0  0
 22 44  1  0  0  0  0
M  END
> <PUBCHEM_COMPOUND_CID>
115254

> <PUBCHEM_CONFORMER_RMSD>
1

> <PUBCHEM_CONFORMER_DIVERSEORDER>
2
46
176
187
30
189
108
86
126
20
186
90
141
170
94
117
128
173
1
115
22
175
120
195
51
159
73
130
179
167
12
56
194
50
93
109
148
188
181
99
118
72
5
39
100
201
25
169
143
156
75
53
157
196
191
23
88
166
107
52
19
139
137
160
152
153
41
74
61
205
183
21
64
55
85
129
145
180
165
184
26
112
198
48
161
87
178
96
57
36
69
11
171
207
3
185
17
79
77
49
168
125
95
204
116
28
136
66
164
43
144
58
142
208
146
6
114
102
40
122
37
54
27
45
123
172
104
7
84
110
68
138
131
140
174
121
163
78
91
119
24
71
134
101
63
103
35
182
4
162
190
8
31
106
18
192
33
9
155
149
177
76
197
206
13
105
150
124
29
47
60
42
135
154
62
83
92
209
147
133
44
151
132
70
38
203
16
158
80
98
193
199
34
113
82
200
32
97
15
67
65
59
89
127
10
202
81
14
111

> <PUBCHEM_MMFF94_PARTIAL_CHARGES>
25
1 -0.41
10 -0.73
11 -0.73
13 0.34
14 0.28
17 0.57
18 0.3
19 0.06
2 1.51
20 0.57
21 0.3
22 0.23
3 -0.55
32 0.37
33 0.4
38 0.37
4 -0.68
41 0.5
42 0.5
45 0.18
5 -0.57
6 -0.77
7 -0.77
8 -0.7
9 -0.57

> <PUBCHEM_EFFECTIVE_ROTOR_COUNT>
12

> <PUBCHEM_PHARMACOPHORE_FEATURES>
11
1 10 donor
1 11 donor
1 4 acceptor
1 4 donor
1 5 acceptor
1 6 acceptor
1 7 acceptor
1 8 acceptor
1 9 acceptor
3 12 15 16 hydrophobe
4 2 6 7 8 anion

> <PUBCHEM_HEAVY_ATOM_COUNT>
22

> <PUBCHEM_ATOM_DEF_STEREO_COUNT>
1

> <PUBCHEM_ATOM_UDEF_STEREO_COUNT>
0

> <PUBCHEM_BOND_DEF_STEREO_COUNT>
0

> <PUBCHEM_BOND_UDEF_STEREO_COUNT>
0

> <PUBCHEM_ISOTOPIC_ATOM_COUNT>
0

> <PUBCHEM_COMPONENT_COUNT>
1

> <PUBCHEM_CACTVS_TAUTO_COUNT>
4

> <PUBCHEM_CONFORMER_ID>
0001C23600000002

> <PUBCHEM_MMFF94_ENERGY>
0.2018

> <PUBCHEM_FEATURE_SELFOVERLAP>
55.861

> <PUBCHEM_SHAPE_FINGERPRINT>
10366900 7 18129945701572751935
11725454 13 18058190365626170995
12156800 1 15310496333832435325
12403259 226 18130777997357510363
12596599 1 17967255321012642903
13134695 92 18266739258931141190
13583140 156 18202287982870156059
14251745 187 17988647466213037997
14251764 3 18059309711433869311
17357779 13 18263356070226052158
17980427 23 17313682511318640674
18186145 218 18410006658806190595
18219364 16 18339638932366516032
19930381 70 18119247256082591673
20645476 183 17386282220666223455
21524375 3 17756974620001719090
21639500 275 18334293149845408067
23402539 116 17970909088462645234
23419403 2 18272091634221475140
23557571 272 17418365896902667531
23598291 2 17240753017296841649
238 59 18265072278685490373
2803657 2 15969082366909241533
3187 122 17264686915526922875
35225 105 16269157408043646885
3524813 1 18201708587639152543
3797600 57 13757199949398540745
6438718 38 17320974665206341553
81228 2 17627213568906224451
9862522 239 17979362958485192984

> <PUBCHEM_SHAPE_MULTIPOLES>
409.4
6.61
3.72
2.25
3.41
1.97
0.51
0.74
0.73
-3.52
-0.38
1.58
0.2
2.15

> <PUBCHEM_SHAPE_SELFOVERLAP>
767.704

> <PUBCHEM_SHAPE_VOLUME>
257.4

> <PUBCHEM_COORDINATE_TYPE>
2
5
10

$$$$

