122114
  -OEChem-07051213043D

 44 46  0     1  0  0  0  0  0999 V2000
   -2.2832    1.1333    0.1864 O   0  0  0  0  0  0  0  0  0  0  0  0
   -1.6760    2.7100   -1.3961 O   0  0  0  0  0  0  0  0  0  0  0  0
   -0.0452   -2.1147    2.6273 O   0  0  0  0  0  0  0  0  0  0  0  0
    3.1534   -1.5492   -0.9177 O   0  5  0  0  0  0  0  0  0  0  0  0
    3.5019    0.1520   -2.2724 O   0  0  0  0  0  0  0  0  0  0  0  0
    1.8710    2.0090    1.2552 N   0  0  0  0  0  0  0  0  0  0  0  0
    2.9952   -0.3738   -1.2727 N   0  3  0  0  0  0  0  0  0  0  0  0
    0.3331   -1.0979    1.7674 N   0  0  0  0  0  0  0  0  0  0  0  0
   -0.7000   -3.1365    1.9615 N   0  0  0  0  0  0  0  0  0  0  0  0
    0.7028    0.5133   -0.8714 C   0  0  1  0  0  0  0  0  0  0  0  0
   -0.0518    1.5939   -0.0794 C   0  0  0  0  0  0  0  0  0  0  0  0
    2.1590    0.4441   -0.4608 C   0  0  0  0  0  0  0  0  0  0  0  0
    0.0393   -0.8201   -0.6806 C   0  0  0  0  0  0  0  0  0  0  0  0
    0.5443    2.2701    0.9327 C   0  0  0  0  0  0  0  0  0  0  0  0
    2.6987    1.1426    0.5550 C   0  0  0  0  0  0  0  0  0  0  0  0
   -0.0820   -1.4735    0.5512 C   0  0  0  0  0  0  0  0  0  0  0  0
   -1.4212    1.8978   -0.5263 C   0  0  0  0  0  0  0  0  0  0  0  0
   -0.5124   -1.4984   -1.7741 C   0  0  0  0  0  0  0  0  0  0  0  0
   -0.1158    3.3190    1.7871 C   0  0  0  0  0  0  0  0  0  0  0  0
    4.1270    1.1052    1.0263 C   0  0  0  0  0  0  0  0  0  0  0  0
   -0.7386   -2.7694    0.6745 C   0  0  0  0  0  0  0  0  0  0  0  0
   -1.1519   -2.7601   -1.6540 C   0  0  0  0  0  0  0  0  0  0  0  0
   -1.2898   -3.4423   -0.4314 C   0  0  0  0  0  0  0  0  0  0  0  0
   -3.6657    1.3158   -0.1365 C   0  0  0  0  0  0  0  0  0  0  0  0
   -3.8805    1.0067   -1.6103 C   0  0  0  0  0  0  0  0  0  0  0  0
   -4.5113    0.4232    0.7590 C   0  0  0  0  0  0  0  0  0  0  0  0
    0.6646    0.8108   -1.9293 H   0  0  0  0  0  0  0  0  0  0  0  0
    2.2800    2.5344    2.0197 H   0  0  0  0  0  0  0  0  0  0  0  0
   -0.4592   -1.0539   -2.7672 H   0  0  0  0  0  0  0  0  0  0  0  0
    0.4130    4.2732    1.6898 H   0  0  0  0  0  0  0  0  0  0  0  0
   -0.0935    3.0173    2.8398 H   0  0  0  0  0  0  0  0  0  0  0  0
   -1.1615    3.4926    1.5178 H   0  0  0  0  0  0  0  0  0  0  0  0
    4.7511    0.4073    0.4616 H   0  0  0  0  0  0  0  0  0  0  0  0
    4.1680    0.8023    2.0782 H   0  0  0  0  0  0  0  0  0  0  0  0
    4.5797    2.0986    0.9365 H   0  0  0  0  0  0  0  0  0  0  0  0
   -1.5560   -3.2211   -2.5542 H   0  0  0  0  0  0  0  0  0  0  0  0
   -3.9416    2.3577    0.0697 H   0  0  0  0  0  0  0  0  0  0  0  0
   -1.7812   -4.4042   -0.3593 H   0  0  0  0  0  0  0  0  0  0  0  0
   -4.9446    0.8473   -1.8183 H   0  0  0  0  0  0  0  0  0  0  0  0
   -3.5695    1.8181   -2.2725 H   0  0  0  0  0  0  0  0  0  0  0  0
   -3.3363    0.1057   -1.9131 H   0  0  0  0  0  0  0  0  0  0  0  0
   -5.5796    0.5549    0.5630 H   0  0  0  0  0  0  0  0  0  0  0  0
   -4.3182    0.6493    1.8132 H   0  0  0  0  0  0  0  0  0  0  0  0
   -4.2532   -0.6316    0.6120 H   0  0  0  0  0  0  0  0  0  0  0  0
  1 17  1  0  0  0  0
  1 24  1  0  0  0  0
  2 17  2  0  0  0  0
  3  8  1  0  0  0  0
  3  9  1  0  0  0  0
  4  7  1  0  0  0  0
  5  7  2  0  0  0  0
  6 14  1  0  0  0  0
  6 15  1  0  0  0  0
  6 28  1  0  0  0  0
  7 12  1  0  0  0  0
  8 16  2  0  0  0  0
  9 21  2  0  0  0  0
 10 11  1  0  0  0  0
 10 12  1  0  0  0  0
 10 13  1  0  0  0  0
 10 27  1  0  0  0  0
 11 14  2  0  0  0  0
 11 17  1  0  0  0  0
 12 15  2  0  0  0  0
 13 16  1  0  0  0  0
 13 18  2  0  0  0  0
 14 19  1  0  0  0  0
 15 20  1  0  0  0  0
 16 21  1  0  0  0  0
 18 22  1  0  0  0  0
 18 29  1  0  0  0  0
 19 30  1  0  0  0  0
 19 31  1  0  0  0  0
 19 32  1  0  0  0  0
 20 33  1  0  0  0  0
 20 34  1  0  0  0  0
 20 35  1  0  0  0  0
 21 23  1  0  0  0  0
 22 23  2  0  0  0  0
 22 36  1  0  0  0  0
 23 38  1  0  0  0  0
 24 25  1  0  0  0  0
 24 26  1  0  0  0  0
 24 37  1  0  0  0  0
 25 39  1  0  0  0  0
 25 40  1  0  0  0  0
 25 41  1  0  0  0  0
 26 42  1  0  0  0  0
 26 43  1  0  0  0  0
 26 44  1  0  0  0  0
M  CHG  2   4  -1   7   1
M  END
> <PUBCHEM_COMPOUND_CID>
122114

> <PUBCHEM_CONFORMER_RMSD>
0.8

> <PUBCHEM_CONFORMER_DIVERSEORDER>
2
5
13
15
12
9
8
7
14
11
10
6
3
1
4

> <PUBCHEM_MMFF94_PARTIAL_CHARGES>
28
1 -0.43
10 0.42
11 -0.12
12 0.07
13 -0.14
14 -0.04
15 -0.04
16 0.29
17 0.71
18 -0.15
19 0.14
2 -0.57
20 0.14
21 0.29
22 -0.15
23 -0.15
24 0.28
28 0.4
29 0.15
3 0.24
36 0.15
38 0.15
4 -0.52
5 -0.52
6 -0.6
7 0.84
8 -0.41
9 -0.41

> <PUBCHEM_EFFECTIVE_ROTOR_COUNT>
5.4

> <PUBCHEM_PHARMACOPHORE_FEATURES>
12
1 2 acceptor
1 4 acceptor
1 4 anion
1 5 acceptor
1 6 cation
1 6 donor
1 8 acceptor
1 9 acceptor
3 24 25 26 hydrophobe
5 3 8 9 16 21 rings
6 13 16 18 21 22 23 rings
6 6 10 11 12 14 15 rings

> <PUBCHEM_HEAVY_ATOM_COUNT>
26

> <PUBCHEM_ATOM_DEF_STEREO_COUNT>
1

> <PUBCHEM_ATOM_UDEF_STEREO_COUNT>
0

> <PUBCHEM_BOND_DEF_STEREO_COUNT>
0

> <PUBCHEM_BOND_UDEF_STEREO_COUNT>
0

> <PUBCHEM_ISOTOPIC_ATOM_COUNT>
0

> <PUBCHEM_COMPONENT_COUNT>
1

> <PUBCHEM_CACTVS_TAUTO_COUNT>
2

> <PUBCHEM_CONFORMER_ID>
0001DD0200000002

> <PUBCHEM_MMFF94_ENERGY>
74.6709

> <PUBCHEM_FEATURE_SELFOVERLAP>
61.146

> <PUBCHEM_SHAPE_FINGERPRINT>
10076449 9 17972002960861113590
104564 63 17616814327611005845
10863032 1 17095812031284474173
11244481 83 5543468831477628333
11578080 2 16156539805114975923
12035758 1 18260540096055689066
13140716 1 17897463696186820024
13149001 5 18335413513502872732
133893 2 17267208551024244896
14787075 74 18335149665209179044
16945 1 18343016692332858132
20600515 1 16621002060913606741
20691752 17 18342464720632356581
20905425 154 18054509381253639269
22393880 68 18191896546500939845
22907989 373 17544980188147473444
23419403 2 18046597067614821465
23558518 356 17907034884470884905
2748010 2 17968648307977235396
3380486 145 18043518431131131946
3383291 50 18046060725733813998
35225 105 17703507675861301747
5845 1 7247879448380856120
81228 2 18053953844408554759

> <PUBCHEM_SHAPE_MULTIPOLES>
485.8
5.5
4.11
2.07
0.18
1.18
0.39
-2.48
-1.12
1.8
1.08
-0.21
0.83
1.03

> <PUBCHEM_SHAPE_SELFOVERLAP>
1046.514

> <PUBCHEM_SHAPE_VOLUME>
269.2

> <PUBCHEM_COORDINATE_TYPE>
2
5
10

$$$$

