24755589
  -OEChem-07051213103D

 74 77  0     1  0  0  0  0  0999 V2000
    2.1983   -2.4827    0.6041 O   0  0  0  0  0  0  0  0  0  0  0  0
    7.5149   -0.4387    1.7802 O   0  0  0  0  0  0  0  0  0  0  0  0
   -6.4231   -1.5296    1.8315 O   0  0  0  0  0  0  0  0  0  0  0  0
   -0.5121    0.7271   -0.6392 C   0  0  1  0  0  0  0  0  0  0  0  0
    0.2057   -0.6276   -0.4585 C   0  0  2  0  0  0  0  0  0  0  0  0
    1.6953   -0.5719   -0.8256 C   0  0  1  0  0  0  0  0  0  0  0  0
    2.3941    0.4785    0.0977 C   0  0  1  0  0  0  0  0  0  0  0  0
   -1.9501    0.2982   -0.2571 C   0  0  2  0  0  0  0  0  0  0  0  0
    0.1368    1.7289    0.3250 C   0  0  0  0  0  0  0  0  0  0  0  0
   -0.6979   -1.6130   -1.1940 C   0  0  0  0  0  0  0  0  0  0  0  0
    3.9440    0.5960   -0.1768 C   0  0  2  0  0  0  0  0  0  0  0  0
    1.6527    1.8450    0.0865 C   0  0  0  0  0  0  0  0  0  0  0  0
   -2.1195   -1.0729   -0.9523 C   0  0  0  0  0  0  0  0  0  0  0  0
    2.3758   -1.9468   -0.7057 C   0  0  1  0  0  0  0  0  0  0  0  0
   -3.0663    1.2758   -0.5957 C   0  0  1  0  0  0  0  0  0  0  0  0
   -0.4621    1.2842   -2.0838 C   0  0  0  0  0  0  0  0  0  0  0  0
    4.5726   -0.8030   -0.1975 C   0  0  0  0  0  0  0  0  0  0  0  0
    3.8665   -1.8571   -1.0226 C   0  0  0  0  0  0  0  0  0  0  0  0
    4.5769    1.4473    0.9630 C   0  0  0  0  0  0  0  0  0  0  0  0
    4.2426    1.2755   -1.5328 C   0  0  0  0  0  0  0  0  0  0  0  0
   -4.4173    0.5331   -0.6637 C   0  0  0  0  0  0  0  0  0  0  0  0
   -3.0918    2.4186    0.4246 C   0  0  0  0  0  0  0  0  0  0  0  0
    6.0915    1.3370    1.0378 C   0  0  0  0  0  0  0  0  0  0  0  0
    5.7072   -1.1253    0.4465 C   0  0  0  0  0  0  0  0  0  0  0  0
    6.5049   -0.1049    1.1641 C   0  0  0  0  0  0  0  0  0  0  0  0
   -4.8970   -0.1075    0.6430 C   0  0  0  0  0  0  0  0  0  0  0  0
   -6.1960   -0.9237    0.5554 C   0  0  2  0  0  0  0  0  0  0  0  0
   -7.4508   -0.1194    0.1460 C   0  0  0  0  0  0  0  0  0  0  0  0
   -7.7022    1.0971    1.0420 C   0  0  0  0  0  0  0  0  0  0  0  0
   -8.6935   -1.0182    0.1577 C   0  0  0  0  0  0  0  0  0  0  0  0
    0.1498   -0.9030    0.6079 H   0  0  0  0  0  0  0  0  0  0  0  0
    1.7951   -0.2585   -1.8702 H   0  0  0  0  0  0  0  0  0  0  0  0
    2.2873    0.0991    1.1267 H   0  0  0  0  0  0  0  0  0  0  0  0
   -1.9697    0.1006    0.8255 H   0  0  0  0  0  0  0  0  0  0  0  0
   -0.2908    2.7282    0.2135 H   0  0  0  0  0  0  0  0  0  0  0  0
   -0.0347    1.4243    1.3652 H   0  0  0  0  0  0  0  0  0  0  0  0
   -0.5900   -2.6320   -0.8084 H   0  0  0  0  0  0  0  0  0  0  0  0
   -0.4733   -1.6388   -2.2664 H   0  0  0  0  0  0  0  0  0  0  0  0
    2.0608    2.4978    0.8659 H   0  0  0  0  0  0  0  0  0  0  0  0
    1.8218    2.3591   -0.8649 H   0  0  0  0  0  0  0  0  0  0  0  0
   -2.6907   -1.7769   -0.3399 H   0  0  0  0  0  0  0  0  0  0  0  0
   -2.6042   -0.9997   -1.9314 H   0  0  0  0  0  0  0  0  0  0  0  0
    1.9087   -2.6490   -1.4059 H   0  0  0  0  0  0  0  0  0  0  0  0
   -2.9290    1.7138   -1.5894 H   0  0  0  0  0  0  0  0  0  0  0  0
    0.5584    1.3775   -2.4646 H   0  0  0  0  0  0  0  0  0  0  0  0
   -0.8947    2.2899   -2.1312 H   0  0  0  0  0  0  0  0  0  0  0  0
   -1.0074    0.6569   -2.7957 H   0  0  0  0  0  0  0  0  0  0  0  0
    4.3265   -2.8408   -0.8636 H   0  0  0  0  0  0  0  0  0  0  0  0
    3.9992   -1.6159   -2.0844 H   0  0  0  0  0  0  0  0  0  0  0  0
    4.3123    2.5054    0.8497 H   0  0  0  0  0  0  0  0  0  0  0  0
    4.1659    1.1260    1.9304 H   0  0  0  0  0  0  0  0  0  0  0  0
    3.9667    2.3352   -1.5230 H   0  0  0  0  0  0  0  0  0  0  0  0
    3.7045    0.8038   -2.3609 H   0  0  0  0  0  0  0  0  0  0  0  0
    5.3095    1.2277   -1.7805 H   0  0  0  0  0  0  0  0  0  0  0  0
   -5.1703    1.2752   -0.9628 H   0  0  0  0  0  0  0  0  0  0  0  0
   -4.4416   -0.2058   -1.4702 H   0  0  0  0  0  0  0  0  0  0  0  0
   -2.9805    2.0635    1.4540 H   0  0  0  0  0  0  0  0  0  0  0  0
   -2.3085    3.1510    0.2225 H   0  0  0  0  0  0  0  0  0  0  0  0
   -4.0398    2.9653    0.3635 H   0  0  0  0  0  0  0  0  0  0  0  0
    6.4477    1.8795    1.9206 H   0  0  0  0  0  0  0  0  0  0  0  0
    6.5760    1.7669    0.1557 H   0  0  0  0  0  0  0  0  0  0  0  0
    6.1158   -2.1300    0.4197 H   0  0  0  0  0  0  0  0  0  0  0  0
    2.6220   -3.3577    0.6237 H   0  0  0  0  0  0  0  0  0  0  0  0
   -5.0030    0.6591    1.4199 H   0  0  0  0  0  0  0  0  0  0  0  0
   -4.1223   -0.7737    1.0382 H   0  0  0  0  0  0  0  0  0  0  0  0
   -6.0540   -1.7409   -0.1626 H   0  0  0  0  0  0  0  0  0  0  0  0
   -7.3126    0.2411   -0.8809 H   0  0  0  0  0  0  0  0  0  0  0  0
   -5.6601   -2.0998    2.0271 H   0  0  0  0  0  0  0  0  0  0  0  0
   -7.7876    0.8105    2.0953 H   0  0  0  0  0  0  0  0  0  0  0  0
   -8.6317    1.6015    0.7559 H   0  0  0  0  0  0  0  0  0  0  0  0
   -6.8983    1.8336    0.9510 H   0  0  0  0  0  0  0  0  0  0  0  0
   -8.9406   -1.3595    1.1685 H   0  0  0  0  0  0  0  0  0  0  0  0
   -8.5408   -1.9000   -0.4735 H   0  0  0  0  0  0  0  0  0  0  0  0
   -9.5628   -0.4778   -0.2328 H   0  0  0  0  0  0  0  0  0  0  0  0
  1 14  1  0  0  0  0
  1 63  1  0  0  0  0
  2 25  2  0  0  0  0
  3 27  1  0  0  0  0
  3 68  1  0  0  0  0
  4  5  1  0  0  0  0
  4  8  1  0  0  0  0
  4  9  1  0  0  0  0
  4 16  1  0  0  0  0
  5  6  1  0  0  0  0
  5 10  1  0  0  0  0
  5 31  1  0  0  0  0
  6  7  1  0  0  0  0
  6 14  1  0  0  0  0
  6 32  1  0  0  0  0
  7 11  1  0  0  0  0
  7 12  1  0  0  0  0
  7 33  1  0  0  0  0
  8 13  1  0  0  0  0
  8 15  1  0  0  0  0
  8 34  1  0  0  0  0
  9 12  1  0  0  0  0
  9 35  1  0  0  0  0
  9 36  1  0  0  0  0
 10 13  1  0  0  0  0
 10 37  1  0  0  0  0
 10 38  1  0  0  0  0
 11 17  1  0  0  0  0
 11 19  1  0  0  0  0
 11 20  1  0  0  0  0
 12 39  1  0  0  0  0
 12 40  1  0  0  0  0
 13 41  1  0  0  0  0
 13 42  1  0  0  0  0
 14 18  1  0  0  0  0
 14 43  1  0  0  0  0
 15 21  1  0  0  0  0
 15 22  1  0  0  0  0
 15 44  1  0  0  0  0
 16 45  1  0  0  0  0
 16 46  1  0  0  0  0
 16 47  1  0  0  0  0
 17 18  1  0  0  0  0
 17 24  2  0  0  0  0
 18 48  1  0  0  0  0
 18 49  1  0  0  0  0
 19 23  1  0  0  0  0
 19 50  1  0  0  0  0
 19 51  1  0  0  0  0
 20 52  1  0  0  0  0
 20 53  1  0  0  0  0
 20 54  1  0  0  0  0
 21 26  1  0  0  0  0
 21 55  1  0  0  0  0
 21 56  1  0  0  0  0
 22 57  1  0  0  0  0
 22 58  1  0  0  0  0
 22 59  1  0  0  0  0
 23 25  1  0  0  0  0
 23 60  1  0  0  0  0
 23 61  1  0  0  0  0
 24 25  1  0  0  0  0
 24 62  1  0  0  0  0
 26 27  1  0  0  0  0
 26 64  1  0  0  0  0
 26 65  1  0  0  0  0
 27 28  1  0  0  0  0
 27 66  1  0  0  0  0
 28 29  1  0  0  0  0
 28 30  1  0  0  0  0
 28 67  1  0  0  0  0
 29 69  1  0  0  0  0
 29 70  1  0  0  0  0
 29 71  1  0  0  0  0
 30 72  1  0  0  0  0
 30 73  1  0  0  0  0
 30 74  1  0  0  0  0
M  END
> <PUBCHEM_COMPOUND_CID>
24755589

> <PUBCHEM_CONFORMER_RMSD>
0.8

> <PUBCHEM_CONFORMER_DIVERSEORDER>
2
45
26
27
44
23
42
19
35
15
13
30
11
43
34
22
28
8
24
38
29
40
16
21
14
5
18
12
33
3
9
25
41
36
39
7
37
1
10
20
32
6
31
17
4

> <PUBCHEM_MMFF94_PARTIAL_CHARGES>
14
1 -0.68
11 0.14
14 0.28
17 -0.28
18 0.14
2 -0.57
23 0.06
24 -0.14
25 0.49
27 0.28
3 -0.68
62 0.15
63 0.4
68 0.4

> <PUBCHEM_EFFECTIVE_ROTOR_COUNT>
6.8

> <PUBCHEM_PHARMACOPHORE_FEATURES>
11
1 1 acceptor
1 1 donor
1 2 acceptor
1 22 hydrophobe
1 3 acceptor
1 3 donor
3 28 29 30 hydrophobe
5 4 5 8 10 13 rings
6 11 17 19 23 24 25 rings
6 4 5 6 7 9 12 rings
6 6 7 11 14 17 18 rings

> <PUBCHEM_HEAVY_ATOM_COUNT>
30

> <PUBCHEM_ATOM_DEF_STEREO_COUNT>
8

> <PUBCHEM_ATOM_UDEF_STEREO_COUNT>
1

> <PUBCHEM_BOND_DEF_STEREO_COUNT>
0

> <PUBCHEM_BOND_UDEF_STEREO_COUNT>
0

> <PUBCHEM_ISOTOPIC_ATOM_COUNT>
0

> <PUBCHEM_COMPONENT_COUNT>
1

> <PUBCHEM_CACTVS_TAUTO_COUNT>
5

> <PUBCHEM_CONFORMER_ID>
0179BD8500000002

> <PUBCHEM_MMFF94_ENERGY>
95.0536

> <PUBCHEM_FEATURE_SELFOVERLAP>
55.913

> <PUBCHEM_SHAPE_FINGERPRINT>
10 15 18410014308290371624
10162869 55 18114472171856914071
106641 1 17894914010410255395
10693767 8 11887688272876447112
10816530 90 5978090359359193642
11135609 201 16588313782331079154
11456790 92 17967821573954125154
11578080 2 16589732057704681146
11646440 116 18113056034728614296
11719270 70 18342738515891335859
12166972 35 14908179746150086086
12596602 18 17821722875349348739
13073987 5 18115025328367190537
13140716 1 18190750721876839132
13668630 136 13614519662598461859
13692114 37 18272652320617408042
13782708 43 17346598586107237347
13811026 1 18413111676065247229
14251764 18 17603589608231845125
14341114 176 18334008406815232061
14461889 52 18412544314542233099
14849402 71 17458910336547935105
15183329 4 10735880569410980527
15188451 53 17418376899907129725
15475509 35 17417829365451125808
16994733 274 14562522999199295867
1813 80 17632572773210415772
18608769 82 18333736801852683137
21130935 74 18115018710645955463
21267235 1 18334852861931545550
21424621 283 13984652664382810671
21521239 73 11743839157475334512
21623969 137 18409728465041815827
21781051 124 18270949194802335614
21792934 111 18336269028412901137
22149856 69 18187910820875874953
22224240 67 18113056030660565007
22956985 138 17628367279232957770
23559900 14 17968385645627369358
24771293 8 17750246824373847576
29717793 49 13254796849780410294
3178227 256 18335703819306624048
34797466 226 16805037411328351428
350125 39 18333729122451567101
4073 2 18201709610490553723
4093350 32 16226043409898529276
4340502 62 18410856568541246494
465052 167 17846498110844449196
5104073 3 18263925616848456825

> <PUBCHEM_SHAPE_MULTIPOLES>
599.78
20.96
2.17
1.41
26
0.08
-0.09
2.37
11.01
-0.63
-0.02
-0.59
-0.03
0.57

> <PUBCHEM_SHAPE_SELFOVERLAP>
1252.157

> <PUBCHEM_SHAPE_VOLUME>
339.5

> <PUBCHEM_COORDINATE_TYPE>
2
5
10

$$$$

