5281650
  -OEChem-07051212582D

 56 58  0     0  0  0  0  0  0999 V2000
    8.1301   -2.2052    0.0000 O   0  0  0  0  0  0  0  0  0  0  0  0
   11.6602   -0.1810    0.0000 O   0  0  0  0  0  0  0  0  0  0  0  0
    6.3817    0.8294    0.0000 O   0  0  0  0  0  0  0  0  0  0  0  0
    8.1301    0.7948    0.0000 O   0  0  0  0  0  0  0  0  0  0  0  0
    4.6000   -2.2293    0.0000 O   0  0  0  0  0  0  0  0  0  0  0  0
   11.6602   -2.2293    0.0000 O   0  0  0  0  0  0  0  0  0  0  0  0
    8.9961   -0.7052    0.0000 C   0  0  0  0  0  0  0  0  0  0  0  0
    9.8901   -0.1705    0.0000 C   0  0  0  0  0  0  0  0  0  0  0  0
    7.2641   -0.7052    0.0000 C   0  0  0  0  0  0  0  0  0  0  0  0
    8.9961   -1.7052    0.0000 C   0  0  0  0  0  0  0  0  0  0  0  0
    8.1301   -0.2052    0.0000 C   0  0  0  0  0  0  0  0  0  0  0  0
    7.2641   -1.7052    0.0000 C   0  0  0  0  0  0  0  0  0  0  0  0
    5.4641   -0.6844    0.0000 C   0  0  0  0  0  0  0  0  0  0  0  0
    6.3701   -0.1705    0.0000 C   0  0  0  0  0  0  0  0  0  0  0  0
    9.8785    0.8294    0.0000 C   0  0  0  0  0  0  0  0  0  0  0  0
   10.7961   -0.6844    0.0000 C   0  0  0  0  0  0  0  0  0  0  0  0
    9.8901   -2.2398    0.0000 C   0  0  0  0  0  0  0  0  0  0  0  0
    6.3701   -2.2398    0.0000 C   0  0  0  0  0  0  0  0  0  0  0  0
    5.4641   -1.7260    0.0000 C   0  0  0  0  0  0  0  0  0  0  0  0
    4.6000   -0.1810    0.0000 C   0  0  0  0  0  0  0  0  0  0  0  0
   10.7961   -1.7260    0.0000 C   0  0  0  0  0  0  0  0  0  0  0  0
   10.7387    1.3394    0.0000 C   0  0  0  0  0  0  0  0  0  0  0  0
    3.7320   -0.6777    0.0000 C   0  0  0  0  0  0  0  0  0  0  0  0
   10.7271    2.3393    0.0000 C   0  0  0  0  0  0  0  0  0  0  0  0
    2.8680   -0.1743    0.0000 C   0  0  0  0  0  0  0  0  0  0  0  0
   11.5873    2.8493    0.0000 C   0  0  0  0  0  0  0  0  0  0  0  0
    9.8554    2.8293    0.0000 C   0  0  0  0  0  0  0  0  0  0  0  0
   12.5282   -0.6777    0.0000 C   0  0  0  0  0  0  0  0  0  0  0  0
    2.0000   -0.6710    0.0000 C   0  0  0  0  0  0  0  0  0  0  0  0
    2.8718    0.8256    0.0000 C   0  0  0  0  0  0  0  0  0  0  0  0
    9.6597    1.4095    0.0000 H   0  0  0  0  0  0  0  0  0  0  0  0
    9.2692    0.7147    0.0000 H   0  0  0  0  0  0  0  0  0  0  0  0
    9.8829   -2.8598    0.0000 H   0  0  0  0  0  0  0  0  0  0  0  0
    6.3773   -2.8598    0.0000 H   0  0  0  0  0  0  0  0  0  0  0  0
    5.0003    0.2924    0.0000 H   0  0  0  0  0  0  0  0  0  0  0  0
    4.2033    0.2955    0.0000 H   0  0  0  0  0  0  0  0  0  0  0  0
   11.2792    1.0356    0.0000 H   0  0  0  0  0  0  0  0  0  0  0  0
    3.7296   -1.2977    0.0000 H   0  0  0  0  0  0  0  0  0  0  0  0
    5.8484    1.1456    0.0000 H   0  0  0  0  0  0  0  0  0  0  0  0
    4.6024   -2.8493    0.0000 H   0  0  0  0  0  0  0  0  0  0  0  0
   11.6578   -2.8493    0.0000 H   0  0  0  0  0  0  0  0  0  0  0  0
   10.1592    3.3698    0.0000 H   0  0  0  0  0  0  0  0  0  0  0  0
    9.3149    3.1331    0.0000 H   0  0  0  0  0  0  0  0  0  0  0  0
    9.5516    2.2888    0.0000 H   0  0  0  0  0  0  0  0  0  0  0  0
   11.9035    2.3160    0.0000 H   0  0  0  0  0  0  0  0  0  0  0  0
   12.1206    3.1655    0.0000 H   0  0  0  0  0  0  0  0  0  0  0  0
   11.2711    3.3826    0.0000 H   0  0  0  0  0  0  0  0  0  0  0  0
   12.2203   -1.2158    0.0000 H   0  0  0  0  0  0  0  0  0  0  0  0
   13.0663   -0.9856    0.0000 H   0  0  0  0  0  0  0  0  0  0  0  0
   12.8361   -0.1396    0.0000 H   0  0  0  0  0  0  0  0  0  0  0  0
    1.6921   -0.1329    0.0000 H   0  0  0  0  0  0  0  0  0  0  0  0
    3.4918    0.8233    0.0000 H   0  0  0  0  0  0  0  0  0  0  0  0
    2.8742    1.4456    0.0000 H   0  0  0  0  0  0  0  0  0  0  0  0
    2.2518    0.8280    0.0000 H   0  0  0  0  0  0  0  0  0  0  0  0
    1.4619   -0.9789    0.0000 H   0  0  0  0  0  0  0  0  0  0  0  0
    2.3079   -1.2091    0.0000 H   0  0  0  0  0  0  0  0  0  0  0  0
  1 10  1  0  0  0  0
  1 12  1  0  0  0  0
  2 16  1  0  0  0  0
  2 28  1  0  0  0  0
  3 14  1  0  0  0  0
  3 39  1  0  0  0  0
  4 11  2  0  0  0  0
  5 19  1  0  0  0  0
  5 40  1  0  0  0  0
  6 21  1  0  0  0  0
  6 41  1  0  0  0  0
  7  8  1  0  0  0  0
  7 10  2  0  0  0  0
  7 11  1  0  0  0  0
  8 15  1  0  0  0  0
  8 16  2  0  0  0  0
  9 11  1  0  0  0  0
  9 12  2  0  0  0  0
  9 14  1  0  0  0  0
 10 17  1  0  0  0  0
 12 18  1  0  0  0  0
 13 14  2  0  0  0  0
 13 19  1  0  0  0  0
 13 20  1  0  0  0  0
 15 22  1  0  0  0  0
 15 31  1  0  0  0  0
 15 32  1  0  0  0  0
 16 21  1  0  0  0  0
 17 21  2  0  0  0  0
 17 33  1  0  0  0  0
 18 19  2  0  0  0  0
 18 34  1  0  0  0  0
 20 23  1  0  0  0  0
 20 35  1  0  0  0  0
 20 36  1  0  0  0  0
 22 24  2  0  0  0  0
 22 37  1  0  0  0  0
 23 25  2  0  0  0  0
 23 38  1  0  0  0  0
 24 26  1  0  0  0  0
 24 27  1  0  0  0  0
 25 29  1  0  0  0  0
 25 30  1  0  0  0  0
 26 45  1  0  0  0  0
 26 46  1  0  0  0  0
 26 47  1  0  0  0  0
 27 42  1  0  0  0  0
 27 43  1  0  0  0  0
 27 44  1  0  0  0  0
 28 48  1  0  0  0  0
 28 49  1  0  0  0  0
 28 50  1  0  0  0  0
 29 51  1  0  0  0  0
 29 55  1  0  0  0  0
 29 56  1  0  0  0  0
 30 52  1  0  0  0  0
 30 53  1  0  0  0  0
 30 54  1  0  0  0  0
M  END
> <PUBCHEM_COMPOUND_CID>
5281650

> <PUBCHEM_COMPOUND_CANONICALIZED>
1

> <PUBCHEM_CACTVS_COMPLEXITY>
677

> <PUBCHEM_CACTVS_HBOND_ACCEPTOR>
6

> <PUBCHEM_CACTVS_HBOND_DONOR>
3

> <PUBCHEM_CACTVS_ROTATABLE_BOND>
5

> <PUBCHEM_CACTVS_SUBSKEYS>
AAADceB4OAAAAAAAAAAAAAAAAAAAAAAAAAA0YIAAAAAAAACRQAAAGgAACAAADASAmAIyBoAABgCIAqBSAAACCAAkIAAAiAEGiMgNJzaGNRqCeWOl4BULuQfK7PzOoQADCAAYQABCAAYQADCAAAAAAAAAAA==

> <PUBCHEM_IUPAC_OPENEYE_NAME>
1,3,6-trihydroxy-7-methoxy-2,8-bis(3-methylbut-2-enyl)xanthen-9-one

> <PUBCHEM_IUPAC_CAS_NAME>
1,3,6-trihydroxy-7-methoxy-2,8-bis(3-methylbut-2-enyl)-9-xanthenone

> <PUBCHEM_IUPAC_NAME>
1,3,6-trihydroxy-7-methoxy-2,8-bis(3-methylbut-2-enyl)xanthen-9-one

> <PUBCHEM_IUPAC_SYSTEMATIC_NAME>
2-methoxy-1,7-bis(3-methylbut-2-enyl)-3,6,8-tris(oxidanyl)xanthen-9-one

> <PUBCHEM_IUPAC_TRADITIONAL_NAME>
1,3,6-trihydroxy-7-methoxy-2,8-bis(3-methylbut-2-enyl)xanthone

> <PUBCHEM_IUPAC_INCHI>
InChI=1S/C24H26O6/c1-12(2)6-8-14-16(25)10-19-21(22(14)27)23(28)20-15(9-7-13(3)4)24(29-5)17(26)11-18(20)30-19/h6-7,10-11,25-27H,8-9H2,1-5H3

> <PUBCHEM_IUPAC_INCHIKEY>
GNRIZKKCNOBBMO-UHFFFAOYSA-N

> <PUBCHEM_XLOGP3_AA>
6.3

> <PUBCHEM_EXACT_MASS>
410.172939

> <PUBCHEM_MOLECULAR_FORMULA>
C24H26O6

> <PUBCHEM_MOLECULAR_WEIGHT>
410.45964

> <PUBCHEM_OPENEYE_CAN_SMILES>
CC(=CCC1=C(C=C2C(=C1O)C(=O)C3=C(C(=C(C=C3O2)O)OC)CC=C(C)C)O)C

> <PUBCHEM_OPENEYE_ISO_SMILES>
CC(=CCC1=C(C=C2C(=C1O)C(=O)C3=C(C(=C(C=C3O2)O)OC)CC=C(C)C)O)C

> <PUBCHEM_CACTVS_TPSA>
96.2

> <PUBCHEM_MONOISOTOPIC_WEIGHT>
410.172939

> <PUBCHEM_TOTAL_CHARGE>
0

> <PUBCHEM_HEAVY_ATOM_COUNT>
30

> <PUBCHEM_ATOM_DEF_STEREO_COUNT>
0

> <PUBCHEM_ATOM_UDEF_STEREO_COUNT>
0

> <PUBCHEM_BOND_DEF_STEREO_COUNT>
0

> <PUBCHEM_BOND_UDEF_STEREO_COUNT>
0

> <PUBCHEM_ISOTOPIC_ATOM_COUNT>
0

> <PUBCHEM_COMPONENT_COUNT>
1

> <PUBCHEM_CACTVS_TAUTO_COUNT>
192

> <PUBCHEM_COORDINATE_TYPE>
1
5
255

> <PUBCHEM_BONDANNOTATIONS>
1  10  8
1  12  8
10  17  8
12  18  8
13  14  8
13  19  8
16  21  8
17  21  8
18  19  8
7  10  8
7  11  8
7  8  8
8  16  8
9  11  8
9  12  8
9  14  8

$$$$

