248666
  -OEChem-07051213062D

 49 51  0     0  0  0  0  0  0999 V2000
    6.3580    1.0143    0.0000 O   0  0  0  0  0  0  0  0  0  0  0  0
    4.5981   -2.0204    0.0000 O   0  0  0  0  0  0  0  0  0  0  0  0
    4.5981    1.9796    0.0000 O   0  0  0  0  0  0  0  0  0  0  0  0
    2.8660   -1.0204    0.0000 O   0  0  0  0  0  0  0  0  0  0  0  0
    2.8660    0.9796    0.0000 O   0  0  0  0  0  0  0  0  0  0  0  0
    6.3465   -2.0550    0.0000 O   0  0  0  0  0  0  0  0  0  0  0  0
   10.7205    2.5137    0.0000 O   0  0  0  0  0  0  0  0  0  0  0  0
   11.5923    1.0171    0.0000 O   0  0  0  0  0  0  0  0  0  0  0  0
    5.4641   -0.5204    0.0000 C   0  0  0  0  0  0  0  0  0  0  0  0
    5.4641    0.4796    0.0000 C   0  0  0  0  0  0  0  0  0  0  0  0
    4.5981   -1.0204    0.0000 C   0  0  0  0  0  0  0  0  0  0  0  0
    4.5981    0.9796    0.0000 C   0  0  0  0  0  0  0  0  0  0  0  0
    3.7320   -0.5204    0.0000 C   0  0  0  0  0  0  0  0  0  0  0  0
    3.7320    0.4796    0.0000 C   0  0  0  0  0  0  0  0  0  0  0  0
    7.2641    0.5004    0.0000 C   0  0  0  0  0  0  0  0  0  0  0  0
    6.3580   -1.0551    0.0000 C   0  0  0  0  0  0  0  0  0  0  0  0
    7.2641   -0.5412    0.0000 C   0  0  0  0  0  0  0  0  0  0  0  0
    8.1282    1.0037    0.0000 C   0  0  0  0  0  0  0  0  0  0  0  0
    8.9962    0.5071    0.0000 C   0  0  0  0  0  0  0  0  0  0  0  0
    8.1244    2.0037    0.0000 C   0  0  0  0  0  0  0  0  0  0  0  0
    9.8602    1.0104    0.0000 C   0  0  0  0  0  0  0  0  0  0  0  0
    8.9884    2.5071    0.0000 C   0  0  0  0  0  0  0  0  0  0  0  0
    9.8564    2.0104    0.0000 C   0  0  0  0  0  0  0  0  0  0  0  0
    3.7320   -2.5204    0.0000 C   0  0  0  0  0  0  0  0  0  0  0  0
    3.7320    2.4796    0.0000 C   0  0  0  0  0  0  0  0  0  0  0  0
    2.0000   -0.5204    0.0000 C   0  0  0  0  0  0  0  0  0  0  0  0
    2.0000    0.4796    0.0000 C   0  0  0  0  0  0  0  0  0  0  0  0
   11.5884    2.0171    0.0000 C   0  0  0  0  0  0  0  0  0  0  0  0
   12.4525    2.5204    0.0000 C   0  0  0  0  0  0  0  0  0  0  0  0
    7.7998   -0.8533    0.0000 H   0  0  0  0  0  0  0  0  0  0  0  0
    8.9985   -0.1129    0.0000 H   0  0  0  0  0  0  0  0  0  0  0  0
    7.5862    2.3117    0.0000 H   0  0  0  0  0  0  0  0  0  0  0  0
   10.3984    0.7025    0.0000 H   0  0  0  0  0  0  0  0  0  0  0  0
    8.9860    3.1271    0.0000 H   0  0  0  0  0  0  0  0  0  0  0  0
    3.4220   -1.9835    0.0000 H   0  0  0  0  0  0  0  0  0  0  0  0
    3.1951   -2.8304    0.0000 H   0  0  0  0  0  0  0  0  0  0  0  0
    4.0420   -3.0574    0.0000 H   0  0  0  0  0  0  0  0  0  0  0  0
    4.0420    3.0165    0.0000 H   0  0  0  0  0  0  0  0  0  0  0  0
    3.1951    2.7896    0.0000 H   0  0  0  0  0  0  0  0  0  0  0  0
    3.4220    1.9426    0.0000 H   0  0  0  0  0  0  0  0  0  0  0  0
    2.3100    0.0165    0.0000 H   0  0  0  0  0  0  0  0  0  0  0  0
    1.4631   -0.2104    0.0000 H   0  0  0  0  0  0  0  0  0  0  0  0
    1.6900   -1.0574    0.0000 H   0  0  0  0  0  0  0  0  0  0  0  0
    1.6900    1.0165    0.0000 H   0  0  0  0  0  0  0  0  0  0  0  0
    1.4631    0.1696    0.0000 H   0  0  0  0  0  0  0  0  0  0  0  0
    2.3100   -0.0574    0.0000 H   0  0  0  0  0  0  0  0  0  0  0  0
   12.7646    1.9847    0.0000 H   0  0  0  0  0  0  0  0  0  0  0  0
   12.9883    2.8325    0.0000 H   0  0  0  0  0  0  0  0  0  0  0  0
   12.1404    3.0562    0.0000 H   0  0  0  0  0  0  0  0  0  0  0  0
  1 10  1  0  0  0  0
  1 15  1  0  0  0  0
  2 11  1  0  0  0  0
  2 24  1  0  0  0  0
  3 12  1  0  0  0  0
  3 25  1  0  0  0  0
  4 13  1  0  0  0  0
  4 26  1  0  0  0  0
  5 14  1  0  0  0  0
  5 27  1  0  0  0  0
  6 16  2  0  0  0  0
  7 23  1  0  0  0  0
  7 28  1  0  0  0  0
  8 28  2  0  0  0  0
  9 10  2  0  0  0  0
  9 11  1  0  0  0  0
  9 16  1  0  0  0  0
 10 12  1  0  0  0  0
 11 13  2  0  0  0  0
 12 14  2  0  0  0  0
 13 14  1  0  0  0  0
 15 17  2  0  0  0  0
 15 18  1  0  0  0  0
 16 17  1  0  0  0  0
 17 30  1  0  0  0  0
 18 19  2  0  0  0  0
 18 20  1  0  0  0  0
 19 21  1  0  0  0  0
 19 31  1  0  0  0  0
 20 22  2  0  0  0  0
 20 32  1  0  0  0  0
 21 23  2  0  0  0  0
 21 33  1  0  0  0  0
 22 23  1  0  0  0  0
 22 34  1  0  0  0  0
 24 35  1  0  0  0  0
 24 36  1  0  0  0  0
 24 37  1  0  0  0  0
 25 38  1  0  0  0  0
 25 39  1  0  0  0  0
 25 40  1  0  0  0  0
 26 41  1  0  0  0  0
 26 42  1  0  0  0  0
 26 43  1  0  0  0  0
 27 44  1  0  0  0  0
 27 45  1  0  0  0  0
 27 46  1  0  0  0  0
 28 29  1  0  0  0  0
 29 47  1  0  0  0  0
 29 48  1  0  0  0  0
 29 49  1  0  0  0  0
M  END
> <PUBCHEM_COMPOUND_CID>
248666

> <PUBCHEM_COMPOUND_CANONICALIZED>
1

> <PUBCHEM_CACTVS_COMPLEXITY>
624

> <PUBCHEM_CACTVS_HBOND_ACCEPTOR>
8

> <PUBCHEM_CACTVS_HBOND_DONOR>
0

> <PUBCHEM_CACTVS_ROTATABLE_BOND>
7

> <PUBCHEM_CACTVS_SUBSKEYS>
AAADceB4PAAAAAAAAAAAAAAAAAAAAAAAAAAwYIAAAAAAAACBQAAAGgAAAAAADASAmAIyDoAABACIAqDSCAACCAAkIAAIiAEGiMgNJzaENRqCO2Kl4BUKqQfK7LzOIQABCAAIQABCAAIQABCAAAAAAAAAAA==

> <PUBCHEM_IUPAC_OPENEYE_NAME>
[4-(5,6,7,8-tetramethoxy-4-oxo-chromen-2-yl)phenyl] acetate

> <PUBCHEM_IUPAC_CAS_NAME>
acetic acid [4-(5,6,7,8-tetramethoxy-4-oxo-1-benzopyran-2-yl)phenyl] ester

> <PUBCHEM_IUPAC_NAME>
[4-(5,6,7,8-tetramethoxy-4-oxochromen-2-yl)phenyl] acetate

> <PUBCHEM_IUPAC_SYSTEMATIC_NAME>
[4-(5,6,7,8-tetramethoxy-4-oxidanylidene-chromen-2-yl)phenyl] ethanoate

> <PUBCHEM_IUPAC_TRADITIONAL_NAME>
acetic acid [4-(4-keto-5,6,7,8-tetramethoxy-chromen-2-yl)phenyl] ester

> <PUBCHEM_IUPAC_INCHI>
InChI=1S/C21H20O8/c1-11(22)28-13-8-6-12(7-9-13)15-10-14(23)16-17(24-2)19(25-3)21(27-5)20(26-4)18(16)29-15/h6-10H,1-5H3

> <PUBCHEM_IUPAC_INCHIKEY>
GPKHJXVBFIQGKO-UHFFFAOYSA-N

> <PUBCHEM_XLOGP3_AA>
2.8

> <PUBCHEM_EXACT_MASS>
400.115818

> <PUBCHEM_MOLECULAR_FORMULA>
C21H20O8

> <PUBCHEM_MOLECULAR_WEIGHT>
400.3787

> <PUBCHEM_OPENEYE_CAN_SMILES>
CC(=O)OC1=CC=C(C=C1)C2=CC(=O)C3=C(O2)C(=C(C(=C3OC)OC)OC)OC

> <PUBCHEM_OPENEYE_ISO_SMILES>
CC(=O)OC1=CC=C(C=C1)C2=CC(=O)C3=C(O2)C(=C(C(=C3OC)OC)OC)OC

> <PUBCHEM_CACTVS_TPSA>
89.5

> <PUBCHEM_MONOISOTOPIC_WEIGHT>
400.115818

> <PUBCHEM_TOTAL_CHARGE>
0

> <PUBCHEM_HEAVY_ATOM_COUNT>
29

> <PUBCHEM_ATOM_DEF_STEREO_COUNT>
0

> <PUBCHEM_ATOM_UDEF_STEREO_COUNT>
0

> <PUBCHEM_BOND_DEF_STEREO_COUNT>
0

> <PUBCHEM_BOND_UDEF_STEREO_COUNT>
0

> <PUBCHEM_ISOTOPIC_ATOM_COUNT>
0

> <PUBCHEM_COMPONENT_COUNT>
1

> <PUBCHEM_CACTVS_TAUTO_COUNT>
1

> <PUBCHEM_COORDINATE_TYPE>
1
5
255

> <PUBCHEM_BONDANNOTATIONS>
1  10  8
1  15  8
10  12  8
11  13  8
12  14  8
13  14  8
15  17  8
16  17  8
18  19  8
18  20  8
19  21  8
20  22  8
21  23  8
22  23  8
9  10  8
9  11  8
9  16  8

$$$$

