3958
  -OEChem-06251223473D

 31 33  0     1  0  0  0  0  0999 V2000
    0.0085    4.6295   -0.6891 Cl  0  0  0  0  0  0  0  0  0  0  0  0
   -1.2003   -1.2874    2.3654 Cl  0  0  0  0  0  0  0  0  0  0  0  0
    2.1122   -2.9860   -1.7721 O   0  0  0  0  0  0  0  0  0  0  0  0
    2.9711   -2.7568    0.6993 O   0  0  0  0  0  0  0  0  0  0  0  0
    2.5139   -0.5243    0.8464 N   0  0  0  0  0  0  0  0  0  0  0  0
    0.2999   -1.6698   -0.8461 N   0  0  0  0  0  0  0  0  0  0  0  0
    0.6167    0.6924   -0.2086 C   0  0  0  0  0  0  0  0  0  0  0  0
   -0.1867   -0.5419   -0.4559 C   0  0  0  0  0  0  0  0  0  0  0  0
    1.8367    0.6584    0.4852 C   0  0  0  0  0  0  0  0  0  0  0  0
   -1.6566   -0.5007   -0.2071 C   0  0  0  0  0  0  0  0  0  0  0  0
    1.7224   -1.7814   -1.1159 C   0  0  1  0  0  0  0  0  0  0  0  0
    0.0677    1.9286   -0.5869 C   0  0  0  0  0  0  0  0  0  0  0  0
    2.4298   -1.7548    0.2281 C   0  0  0  0  0  0  0  0  0  0  0  0
    2.4313    1.8659    0.8807 C   0  0  0  0  0  0  0  0  0  0  0  0
    0.6966    3.1206   -0.2293 C   0  0  0  0  0  0  0  0  0  0  0  0
    1.8684    3.0898    0.5190 C   0  0  0  0  0  0  0  0  0  0  0  0
   -2.1965   -0.8202    1.0342 C   0  0  0  0  0  0  0  0  0  0  0  0
   -2.4826   -0.1279   -1.2628 C   0  0  0  0  0  0  0  0  0  0  0  0
   -3.5776   -0.7664    1.2222 C   0  0  0  0  0  0  0  0  0  0  0  0
   -3.8637   -0.0742   -1.0745 C   0  0  0  0  0  0  0  0  0  0  0  0
   -4.4112   -0.3935    0.1679 C   0  0  0  0  0  0  0  0  0  0  0  0
    2.0756   -0.9634   -1.7545 H   0  0  0  0  0  0  0  0  0  0  0  0
    3.1858   -0.4472    1.6059 H   0  0  0  0  0  0  0  0  0  0  0  0
   -0.8578    1.9835   -1.1514 H   0  0  0  0  0  0  0  0  0  0  0  0
    3.3600    1.8652    1.4476 H   0  0  0  0  0  0  0  0  0  0  0  0
    2.3623    4.0099    0.8204 H   0  0  0  0  0  0  0  0  0  0  0  0
   -2.0710    0.1138   -2.2393 H   0  0  0  0  0  0  0  0  0  0  0  0
   -4.0204   -1.0123    2.1841 H   0  0  0  0  0  0  0  0  0  0  0  0
   -4.5130    0.2141   -1.8961 H   0  0  0  0  0  0  0  0  0  0  0  0
   -5.4866   -0.3522    0.3141 H   0  0  0  0  0  0  0  0  0  0  0  0
    3.0630   -2.9186   -1.9658 H   0  0  0  0  0  0  0  0  0  0  0  0
  1 15  1  0  0  0  0
  2 17  1  0  0  0  0
  3 11  1  0  0  0  0
  3 31  1  0  0  0  0
  4 13  2  0  0  0  0
  5  9  1  0  0  0  0
  5 13  1  0  0  0  0
  5 23  1  0  0  0  0
  6  8  2  0  0  0  0
  6 11  1  0  0  0  0
  7  8  1  0  0  0  0
  7  9  2  0  0  0  0
  7 12  1  0  0  0  0
  8 10  1  0  0  0  0
  9 14  1  0  0  0  0
 10 17  1  0  0  0  0
 10 18  2  0  0  0  0
 11 13  1  0  0  0  0
 11 22  1  0  0  0  0
 12 15  2  0  0  0  0
 12 24  1  0  0  0  0
 14 16  2  0  0  0  0
 14 25  1  0  0  0  0
 15 16  1  0  0  0  0
 16 26  1  0  0  0  0
 17 19  2  0  0  0  0
 18 20  1  0  0  0  0
 18 27  1  0  0  0  0
 19 21  1  0  0  0  0
 19 28  1  0  0  0  0
 20 21  2  0  0  0  0
 20 29  1  0  0  0  0
 21 30  1  0  0  0  0
M  END
> <PUBCHEM_COMPOUND_CID>
3958

> <PUBCHEM_CONFORMER_RMSD>
0.6

> <PUBCHEM_CONFORMER_DIVERSEORDER>
1
6
7
3
4
8
5
2

> <PUBCHEM_MMFF94_PARTIAL_CHARGES>
30
1 -0.18
10 0.09
11 0.59
12 -0.15
13 0.57
14 -0.15
15 0.18
16 -0.15
17 0.18
18 -0.15
19 -0.15
2 -0.18
20 -0.15
21 -0.15
23 0.37
24 0.15
25 0.15
26 0.15
27 0.15
28 0.15
29 0.15
3 -0.68
30 0.15
31 0.4
4 -0.57
5 -0.55
6 -0.7
7 0.09
8 0.28
9 0.12

> <PUBCHEM_EFFECTIVE_ROTOR_COUNT>
1.4

> <PUBCHEM_PHARMACOPHORE_FEATURES>
8
1 3 acceptor
1 3 donor
1 4 acceptor
1 5 donor
1 6 acceptor
6 10 17 18 19 20 21 rings
6 7 9 12 14 15 16 rings
7 5 6 7 8 9 11 13 rings

> <PUBCHEM_HEAVY_ATOM_COUNT>
21

> <PUBCHEM_ATOM_DEF_STEREO_COUNT>
0

> <PUBCHEM_ATOM_UDEF_STEREO_COUNT>
1

> <PUBCHEM_BOND_DEF_STEREO_COUNT>
0

> <PUBCHEM_BOND_UDEF_STEREO_COUNT>
0

> <PUBCHEM_ISOTOPIC_ATOM_COUNT>
0

> <PUBCHEM_COMPONENT_COUNT>
1

> <PUBCHEM_CACTVS_TAUTO_COUNT>
3

> <PUBCHEM_CONFORMER_ID>
00000F7600000001

> <PUBCHEM_MMFF94_ENERGY>
76.7308

> <PUBCHEM_FEATURE_SELFOVERLAP>
40.644

> <PUBCHEM_SHAPE_FINGERPRINT>
108634 29 17688607368785081349
1100329 8 14956300560051149435
11582403 64 16331113720333242869
11640471 11 17605266286107462417
116883 192 18120660389915850109
11725454 13 17053919509116928903
12293681 4 18051987101753926037
12363563 72 18267582596849633290
12403259 327 17273441394795531833
12592029 89 18121221978633423387
12633257 1 17558564508179797129
12788726 201 17909814771835059722
13134695 92 18340777008590084423
13140716 1 17977671913537840768
13681431 1 18337934758163192732
14790565 3 18196087746960670116
14866123 147 17189547897445196235
15309172 13 17977666407437272309
15420108 30 18042423338961393160
16945 1 18269005192996524165
17357779 13 18118129292694673662
1813 80 17751619164866205166
19049666 15 18131360721476940473
20739085 24 18410005520613606880
21524375 3 17687742736002016661
21731228 192 17762613988885501056
22182313 1 17826251850171043550
2255824 54 18262795147059468308
23419403 2 17913242941969452260
23526113 38 18129961038816452329
23558518 356 17981620569384530204
23559900 14 17632577162434980543
2748010 2 17827654852424299438
3060560 45 18189053110198681436
31174 14 18271232816966860075
350125 39 17546725954560934592
3729539 64 17838016409729444652
404807 78 17124500742951025133
4409770 3 16819370932338649446
474 4 18192715540539314609
576247 118 18122315103518404970
7364860 26 18335416816300626381
81228 2 17835231625294552684
8272917 22 18335416821080779933

> <PUBCHEM_SHAPE_MULTIPOLES>
414.21
5.58
4.27
1.54
6.1
2.63
-0.33
0.1
-0.82
-5.12
1.16
0.59
-0.82
0.87

> <PUBCHEM_SHAPE_SELFOVERLAP>
892.799

> <PUBCHEM_SHAPE_VOLUME>
227.3

> <PUBCHEM_COORDINATE_TYPE>
2
5
10

$$$$

