5459948
  -OEChem-07051212462D

103106  0     1  0  0  0  0  0999 V2000
    7.1311   -2.4550    0.0000 O   0  0  0  0  0  0  0  0  0  0  0  0
    5.1514   -0.1090    0.0000 O   0  0  0  0  0  0  0  0  0  0  0  0
    2.9106   -2.6212    0.0000 O   0  0  0  0  0  0  0  0  0  0  0  0
    9.1832   -2.4475    0.0000 O   0  0  0  0  0  0  0  0  0  0  0  0
   11.2925   -1.2688    0.0000 O   0  0  0  0  0  0  0  0  0  0  0  0
   11.7655    0.6367    0.0000 O   0  0  0  0  0  0  0  0  0  0  0  0
    5.8260   -3.5937    0.0000 O   0  0  0  0  0  0  0  0  0  0  0  0
    9.6274    0.4998    0.0000 O   0  0  0  0  0  0  0  0  0  0  0  0
    8.9125   -0.0911    0.0000 O   0  0  0  0  0  0  0  0  0  0  0  0
   10.1625    3.8038    0.0000 O   0  0  0  0  0  0  0  0  0  0  0  0
    8.4141    3.8384    0.0000 O   0  0  0  0  0  0  0  0  0  0  0  0
    6.5367    0.3524    0.0000 O   0  0  0  0  0  0  0  0  0  0  0  0
   11.4224   -0.9281    0.0000 O   0  0  0  0  0  0  0  0  0  0  0  0
    9.7886   -1.7131    0.0000 O   0  0  0  0  0  0  0  0  0  0  0  0
    6.5985    1.8845    0.0000 N   0  0  0  0  0  0  0  0  0  0  0  0
    6.1084   -0.9161    0.0000 C   0  0  2  0  0  0  0  0  0  0  0  0
    5.1271   -1.1087    0.0000 C   0  0  1  0  0  0  0  0  0  0  0  0
    6.9385   -1.4737    0.0000 C   0  0  1  0  0  0  0  0  0  0  0  0
    4.5695   -1.9388    0.0000 C   0  0  1  0  0  0  0  0  0  0  0  0
    7.8364   -1.0336    0.0000 C   0  0  1  0  0  0  0  0  0  0  0  0
    3.5718   -1.8710    0.0000 C   0  0  2  0  0  0  0  0  0  0  0  0
    6.9412   -0.3626    0.0000 C   0  0  0  0  0  0  0  0  0  0  0  0
    8.6665   -1.5913    0.0000 C   0  0  2  0  0  0  0  0  0  0  0  0
    2.9143   -1.1175    0.0000 C   0  0  1  0  0  0  0  0  0  0  0  0
    4.4149   -2.9268    0.0000 C   0  0  0  0  0  0  0  0  0  0  0  0
    8.1602   -0.0875    0.0000 C   0  0  0  0  0  0  0  0  0  0  0  0
    2.0000   -0.7125    0.0000 C   0  0  0  0  0  0  0  0  0  0  0  0
    9.5645   -1.1512    0.0000 C   0  0  0  0  0  0  0  0  0  0  0  0
    3.2381   -0.1714    0.0000 C   0  0  0  0  0  0  0  0  0  0  0  0
    6.8073   -3.4011    0.0000 C   0  0  0  0  0  0  0  0  0  0  0  0
   10.3946   -1.7088    0.0000 C   0  0  0  0  0  0  0  0  0  0  0  0
    4.1361    0.2687    0.0000 C   0  0  0  0  0  0  0  0  0  0  0  0
   11.3604   -0.2711    0.0000 C   0  0  1  0  0  0  0  0  0  0  0  0
    8.7001   -3.3230    0.0000 C   0  0  0  0  0  0  0  0  0  0  0  0
    7.4649   -4.1546    0.0000 C   0  0  0  0  0  0  0  0  0  0  0  0
   10.1625    0.8038    0.0000 C   0  0  0  0  0  0  0  0  0  0  0  0
   10.3717   -0.1680    0.0000 C   0  0  0  0  0  0  0  0  0  0  0  0
   11.0285    1.3038    0.0000 C   0  0  0  0  0  0  0  0  0  0  0  0
    9.2965    1.3038    0.0000 C   0  0  0  0  0  0  0  0  0  0  0  0
    4.2039    1.2664    0.0000 C   0  0  0  0  0  0  0  0  0  0  0  0
   12.3308   -0.5125    0.0000 C   0  0  0  0  0  0  0  0  0  0  0  0
   11.0285    2.3038    0.0000 C   0  0  0  0  0  0  0  0  0  0  0  0
    9.2965    2.3038    0.0000 C   0  0  0  0  0  0  0  0  0  0  0  0
   10.1625    2.8038    0.0000 C   0  0  0  0  0  0  0  0  0  0  0  0
    8.4025    0.7691    0.0000 C   0  0  0  0  0  0  0  0  0  0  0  0
    8.4025    2.8384    0.0000 C   0  0  0  0  0  0  0  0  0  0  0  0
    5.1019    1.7065    0.0000 C   0  0  0  0  0  0  0  0  0  0  0  0
    7.4965    2.3246    0.0000 C   0  0  0  0  0  0  0  0  0  0  0  0
   11.8945    2.8038    0.0000 C   0  0  0  0  0  0  0  0  0  0  0  0
    7.4965    1.2830    0.0000 C   0  0  0  0  0  0  0  0  0  0  0  0
    5.9320    1.1488    0.0000 C   0  0  0  0  0  0  0  0  0  0  0  0
    5.1698    2.7042    0.0000 C   0  0  0  0  0  0  0  0  0  0  0  0
    9.9124   -0.0795    0.0000 C   0  0  0  0  0  0  0  0  0  0  0  0
   10.4224   -0.9397    0.0000 C   0  0  0  0  0  0  0  0  0  0  0  0
    6.0694   -0.2973    0.0000 H   0  0  0  0  0  0  0  0  0  0  0  0
    4.5193   -0.9863    0.0000 H   0  0  0  0  0  0  0  0  0  0  0  0
    6.4714   -1.8814    0.0000 H   0  0  0  0  0  0  0  0  0  0  0  0
    4.9771   -2.4060    0.0000 H   0  0  0  0  0  0  0  0  0  0  0  0
    7.6132   -0.4552    0.0000 H   0  0  0  0  0  0  0  0  0  0  0  0
    3.6647   -2.4840    0.0000 H   0  0  0  0  0  0  0  0  0  0  0  0
    7.2844   -0.8789    0.0000 H   0  0  0  0  0  0  0  0  0  0  0  0
    7.4576   -0.0194    0.0000 H   0  0  0  0  0  0  0  0  0  0  0  0
    6.5980    0.1538    0.0000 H   0  0  0  0  0  0  0  0  0  0  0  0
    8.4658   -2.1779    0.0000 H   0  0  0  0  0  0  0  0  0  0  0  0
    2.3576   -1.3903    0.0000 H   0  0  0  0  0  0  0  0  0  0  0  0
    3.8024   -2.8310    0.0000 H   0  0  0  0  0  0  0  0  0  0  0  0
    4.3191   -3.5394    0.0000 H   0  0  0  0  0  0  0  0  0  0  0  0
    5.0275   -3.0226    0.0000 H   0  0  0  0  0  0  0  0  0  0  0  0
    8.7468   -0.2883    0.0000 H   0  0  0  0  0  0  0  0  0  0  0  0
    8.3610    0.4991    0.0000 H   0  0  0  0  0  0  0  0  0  0  0  0
    7.5736    0.1132    0.0000 H   0  0  0  0  0  0  0  0  0  0  0  0
    5.6957    0.1878    0.0000 H   0  0  0  0  0  0  0  0  0  0  0  0
    2.2511   -0.1456    0.0000 H   0  0  0  0  0  0  0  0  0  0  0  0
    1.4331   -0.4614    0.0000 H   0  0  0  0  0  0  0  0  0  0  0  0
    1.7489   -1.2794    0.0000 H   0  0  0  0  0  0  0  0  0  0  0  0
    9.4985   -0.5347    0.0000 H   0  0  0  0  0  0  0  0  0  0  0  0
    2.3028   -2.4987    0.0000 H   0  0  0  0  0  0  0  0  0  0  0  0
    2.7730    0.2386    0.0000 H   0  0  0  0  0  0  0  0  0  0  0  0
   10.3525   -2.3274    0.0000 H   0  0  0  0  0  0  0  0  0  0  0  0
    4.5014   -0.2322    0.0000 H   0  0  0  0  0  0  0  0  0  0  0  0
    8.1572   -3.0235    0.0000 H   0  0  0  0  0  0  0  0  0  0  0  0
    8.4006   -3.8658    0.0000 H   0  0  0  0  0  0  0  0  0  0  0  0
    9.2429   -3.6225    0.0000 H   0  0  0  0  0  0  0  0  0  0  0  0
    6.9978   -4.5622    0.0000 H   0  0  0  0  0  0  0  0  0  0  0  0
    7.8726   -4.6217    0.0000 H   0  0  0  0  0  0  0  0  0  0  0  0
    7.9320   -3.7469    0.0000 H   0  0  0  0  0  0  0  0  0  0  0  0
   12.1812   -1.1142    0.0000 H   0  0  0  0  0  0  0  0  0  0  0  0
   12.9325   -0.6622    0.0000 H   0  0  0  0  0  0  0  0  0  0  0  0
   12.4805    0.0892    0.0000 H   0  0  0  0  0  0  0  0  0  0  0  0
    3.6893    1.6121    0.0000 H   0  0  0  0  0  0  0  0  0  0  0  0
   12.2045    2.2668    0.0000 H   0  0  0  0  0  0  0  0  0  0  0  0
   12.4315    3.1138    0.0000 H   0  0  0  0  0  0  0  0  0  0  0  0
   11.5845    3.3407    0.0000 H   0  0  0  0  0  0  0  0  0  0  0  0
    6.9607    0.9709    0.0000 H   0  0  0  0  0  0  0  0  0  0  0  0
    6.2163    2.3727    0.0000 H   0  0  0  0  0  0  0  0  0  0  0  0
    5.7884    2.6621    0.0000 H   0  0  0  0  0  0  0  0  0  0  0  0
    5.2119    3.3227    0.0000 H   0  0  0  0  0  0  0  0  0  0  0  0
    4.5512    2.7462    0.0000 H   0  0  0  0  0  0  0  0  0  0  0  0
   10.6994    4.1138    0.0000 H   0  0  0  0  0  0  0  0  0  0  0  0
    7.8808    4.1546    0.0000 H   0  0  0  0  0  0  0  0  0  0  0  0
   10.4926    0.1393    0.0000 H   0  0  0  0  0  0  0  0  0  0  0  0
    9.7977    0.5298    0.0000 H   0  0  0  0  0  0  0  0  0  0  0  0
   11.9628   -1.2319    0.0000 H   0  0  0  0  0  0  0  0  0  0  0  0
 18  1  1  1  0  0  0
  1 30  1  0  0  0  0
 17  2  1  1  0  0  0
  2 72  1  0  0  0  0
 21  3  1  1  0  0  0
  3 77  1  0  0  0  0
 23  4  1  6  0  0  0
  4 34  1  0  0  0  0
  5 31  1  0  0  0  0
  5 33  1  0  0  0  0
  6 33  1  0  0  0  0
  6 38  1  0  0  0  0
  7 30  2  0  0  0  0
  8 37  2  0  0  0  0
  9 45  1  0  0  0  0
  9 53  1  0  0  0  0
 10 44  1  0  0  0  0
 10 99  1  0  0  0  0
 11 46  1  0  0  0  0
 11100  1  0  0  0  0
 12 51  2  0  0  0  0
 13 54  1  0  0  0  0
 13103  1  0  0  0  0
 14 54  2  0  0  0  0
 15 48  1  0  0  0  0
 15 51  1  0  0  0  0
 15 95  1  0  0  0  0
 16 17  1  0  0  0  0
 16 18  1  0  0  0  0
 16 22  1  1  0  0  0
 16 55  1  0  0  0  0
 17 19  1  0  0  0  0
 17 56  1  0  0  0  0
 18 20  1  0  0  0  0
 18 57  1  0  0  0  0
 19 21  1  0  0  0  0
 19 25  1  6  0  0  0
 19 58  1  0  0  0  0
 20 23  1  0  0  0  0
 20 26  1  6  0  0  0
 20 59  1  0  0  0  0
 21 24  1  0  0  0  0
 21 60  1  0  0  0  0
 22 61  1  0  0  0  0
 22 62  1  0  0  0  0
 22 63  1  0  0  0  0
 23 28  1  0  0  0  0
 23 64  1  0  0  0  0
 24 27  1  1  0  0  0
 24 29  1  0  0  0  0
 24 65  1  0  0  0  0
 25 66  1  0  0  0  0
 25 67  1  0  0  0  0
 25 68  1  0  0  0  0
 26 69  1  0  0  0  0
 26 70  1  0  0  0  0
 26 71  1  0  0  0  0
 27 73  1  0  0  0  0
 27 74  1  0  0  0  0
 27 75  1  0  0  0  0
 28 31  2  0  0  0  0
 28 76  1  0  0  0  0
 29 32  2  0  0  0  0
 29 78  1  0  0  0  0
 30 35  1  0  0  0  0
 31 79  1  0  0  0  0
 32 40  1  0  0  0  0
 32 80  1  0  0  0  0
 33 37  1  0  0  0  0
 33 41  1  1  0  0  0
 34 81  1  0  0  0  0
 34 82  1  0  0  0  0
 34 83  1  0  0  0  0
 35 84  1  0  0  0  0
 35 85  1  0  0  0  0
 35 86  1  0  0  0  0
 36 37  1  0  0  0  0
 36 38  2  0  0  0  0
 36 39  1  0  0  0  0
 38 42  1  0  0  0  0
 39 43  1  0  0  0  0
 39 45  2  0  0  0  0
 40 47  2  0  0  0  0
 40 90  1  0  0  0  0
 41 87  1  0  0  0  0
 41 88  1  0  0  0  0
 41 89  1  0  0  0  0
 42 44  2  0  0  0  0
 42 49  1  0  0  0  0
 43 44  1  0  0  0  0
 43 46  2  0  0  0  0
 45 50  1  0  0  0  0
 46 48  1  0  0  0  0
 47 51  1  0  0  0  0
 47 52  1  0  0  0  0
 48 50  2  0  0  0  0
 49 91  1  0  0  0  0
 49 92  1  0  0  0  0
 49 93  1  0  0  0  0
 50 94  1  0  0  0  0
 52 96  1  0  0  0  0
 52 97  1  0  0  0  0
 52 98  1  0  0  0  0
 53 54  1  0  0  0  0
 53101  1  0  0  0  0
 53102  1  0  0  0  0
M  END
> <PUBCHEM_COMPOUND_CID>
5459948

> <PUBCHEM_COMPOUND_CANONICALIZED>
1

> <PUBCHEM_CACTVS_COMPLEXITY>
1460

> <PUBCHEM_CACTVS_HBOND_ACCEPTOR>
14

> <PUBCHEM_CACTVS_HBOND_DONOR>
6

> <PUBCHEM_CACTVS_ROTATABLE_BOND>
6

> <PUBCHEM_CACTVS_SUBSKEYS>
AAADcfB+PAAAAAAAAAAAAAAAAAAAASAAAAAwYAAAAAAAAEjBUAAAHgAQCAAADRyhmAIyzsLABgCIAqXSWAKCCAAlIgAIiAFHbMgfNzbWtZ+meWjn9B3f+Yf6/P/O6QADSgAYEADSAAaUADAgAAAAAAAAAA==

> <PUBCHEM_IUPAC_INCHI>
InChI=1S/C39H49NO14/c1-17-11-10-12-18(2)38(49)40-24-15-26(51-16-27(42)43)28-29(34(24)47)33(46)22(6)36-30(28)37(48)39(8,54-36)52-14-13-25(50-9)19(3)35(53-23(7)41)21(5)32(45)20(4)31(17)44/h10-15,17,19-21,25,31-32,35,44-47H,16H2,1-9H3,(H,40,49)(H,42,43)/b11-10+,14-13+,18-12-/t17-,19+,20+,21+,25-,31-,32+,35+,39-/m0/s1

> <PUBCHEM_IUPAC_INCHIKEY>
SQTCRTQCPJICLD-KTQDUKAHSA-N

> <PUBCHEM_XLOGP3_AA>
4.8

> <PUBCHEM_EXACT_MASS>
755.315305

> <PUBCHEM_MOLECULAR_FORMULA>
C39H49NO14

> <PUBCHEM_MOLECULAR_WEIGHT>
755.80466

> <PUBCHEM_OPENEYE_CAN_SMILES>
CC1C=CC=C(C(=O)NC2=CC(=C3C(=C2O)C(=C(C4=C3C(=O)C(O4)(OC=CC(C(C(C(C(C(C1O)C)O)C)OC(=O)C)C)OC)C)C)O)OCC(=O)O)C

> <PUBCHEM_OPENEYE_ISO_SMILES>
C[C@H]1/C=C/C=C(\C(=O)NC2=CC(=C3C(=C2O)C(=C(C4=C3C(=O)[C@](O4)(O/C=C/[C@@H]([C@H]([C@H]([C@@H]([C@@H]([C@@H]([C@H]1O)C)O)C)OC(=O)C)C)OC)C)C)O)OCC(=O)O)/C

> <PUBCHEM_CACTVS_TPSA>
228

> <PUBCHEM_MONOISOTOPIC_WEIGHT>
755.315305

> <PUBCHEM_TOTAL_CHARGE>
0

> <PUBCHEM_HEAVY_ATOM_COUNT>
54

> <PUBCHEM_ATOM_DEF_STEREO_COUNT>
9

> <PUBCHEM_ATOM_UDEF_STEREO_COUNT>
0

> <PUBCHEM_BOND_DEF_STEREO_COUNT>
3

> <PUBCHEM_BOND_UDEF_STEREO_COUNT>
0

> <PUBCHEM_ISOTOPIC_ATOM_COUNT>
0

> <PUBCHEM_COMPONENT_COUNT>
1

> <PUBCHEM_CACTVS_TAUTO_COUNT>
265

> <PUBCHEM_COORDINATE_TYPE>
1
5
255

> <PUBCHEM_BONDANNOTATIONS>
18  1  5
16  22  5
19  25  6
17  2  5
20  26  6
24  27  5
21  3  5
33  41  5
36  38  8
36  39  8
38  42  8
39  43  8
39  45  8
23  4  6
42  44  8
43  44  8
43  46  8
45  50  8
46  48  8
48  50  8

$$$$

