24771767
  -OEChem-07051212502D

 36 37  0     1  0  0  0  0  0999 V2000
   11.2632    0.6967    0.0000 P   0  0  0  0  0  0  0  0  0  0  0  0
    7.7953    1.6834    0.0000 O   0  0  0  0  0  0  0  0  0  0  0  0
    8.6709   -0.8133    0.0000 O   0  0  0  0  0  0  0  0  0  0  0  0
   10.3991    0.1934    0.0000 O   0  0  0  0  0  0  0  0  0  0  0  0
    4.2690    1.6592    0.0000 O   0  0  0  0  0  0  0  0  0  0  0  0
   12.1273    1.2000    0.0000 O   0  0  0  0  0  0  0  0  0  0  0  0
   11.7665   -0.1674    0.0000 O   0  0  0  0  0  0  0  0  0  0  0  0
   10.7599    1.5608    0.0000 O   0  0  0  0  0  0  0  0  0  0  0  0
    6.0290   -1.3755    0.0000 N   0  0  0  0  0  0  0  0  0  0  0  0
    6.0290    0.6939    0.0000 N   0  0  0  0  0  0  0  0  0  0  0  0
    4.2690   -1.3408    0.0000 N   0  0  0  0  0  0  0  0  0  0  0  0
    3.4030    0.1592    0.0000 N   0  0  0  0  0  0  0  0  0  0  0  0
    2.5369   -1.3408    0.0000 N   0  0  0  0  0  0  0  0  0  0  0  0
    7.7991    0.6834    0.0000 C   0  0  2  0  0  0  0  0  0  0  0  0
    8.6671    0.1867    0.0000 C   0  0  1  0  0  0  0  0  0  0  0  0
    6.9350    0.1800    0.0000 C   0  0  0  0  0  0  0  0  0  0  0  0
    6.9350   -0.8616    0.0000 C   0  0  0  0  0  0  0  0  0  0  0  0
    9.5312    0.6900    0.0000 C   0  0  0  0  0  0  0  0  0  0  0  0
    5.1350   -0.8408    0.0000 C   0  0  0  0  0  0  0  0  0  0  0  0
    5.1350    0.1592    0.0000 C   0  0  0  0  0  0  0  0  0  0  0  0
    4.2690    0.6592    0.0000 C   0  0  0  0  0  0  0  0  0  0  0  0
    3.4030   -0.8408    0.0000 C   0  0  0  0  0  0  0  0  0  0  0  0
    7.2610    0.9913    0.0000 H   0  0  0  0  0  0  0  0  0  0  0  0
    8.1313   -0.1254    0.0000 H   0  0  0  0  0  0  0  0  0  0  0  0
    7.1441   -1.4453    0.0000 H   0  0  0  0  0  0  0  0  0  0  0  0
    7.5459   -0.7555    0.0000 H   0  0  0  0  0  0  0  0  0  0  0  0
    9.9278    1.1665    0.0000 H   0  0  0  0  0  0  0  0  0  0  0  0
    9.1308    1.1634    0.0000 H   0  0  0  0  0  0  0  0  0  0  0  0
    6.0218   -1.9954    0.0000 H   0  0  0  0  0  0  0  0  0  0  0  0
    8.3310    1.9954    0.0000 H   0  0  0  0  0  0  0  0  0  0  0  0
    4.2690   -1.9608    0.0000 H   0  0  0  0  0  0  0  0  0  0  0  0
    9.2090   -1.1212    0.0000 H   0  0  0  0  0  0  0  0  0  0  0  0
    2.0000   -1.0308    0.0000 H   0  0  0  0  0  0  0  0  0  0  0  0
    2.5369   -1.9608    0.0000 H   0  0  0  0  0  0  0  0  0  0  0  0
   12.6654    0.8921    0.0000 H   0  0  0  0  0  0  0  0  0  0  0  0
   11.4586   -0.7055    0.0000 H   0  0  0  0  0  0  0  0  0  0  0  0
  1  4  1  0  0  0  0
  1  6  1  0  0  0  0
  1  7  1  0  0  0  0
  1  8  2  0  0  0  0
 14  2  1  6  0  0  0
  2 30  1  0  0  0  0
 15  3  1  1  0  0  0
  3 32  1  0  0  0  0
  4 18  1  0  0  0  0
  5 21  2  0  0  0  0
  6 35  1  0  0  0  0
  7 36  1  0  0  0  0
  9 17  1  0  0  0  0
  9 19  1  0  0  0  0
  9 29  1  0  0  0  0
 10 16  2  0  0  0  0
 10 20  1  0  0  0  0
 11 19  1  0  0  0  0
 11 22  1  0  0  0  0
 11 31  1  0  0  0  0
 12 21  1  0  0  0  0
 12 22  2  0  0  0  0
 13 22  1  0  0  0  0
 13 33  1  0  0  0  0
 13 34  1  0  0  0  0
 14 15  1  0  0  0  0
 14 16  1  0  0  0  0
 14 23  1  0  0  0  0
 15 18  1  0  0  0  0
 15 24  1  0  0  0  0
 16 17  1  0  0  0  0
 17 25  1  0  0  0  0
 17 26  1  0  0  0  0
 18 27  1  0  0  0  0
 18 28  1  0  0  0  0
 19 20  2  0  0  0  0
 20 21  1  0  0  0  0
M  END
> <PUBCHEM_COMPOUND_CID>
24771767

> <PUBCHEM_COMPOUND_CANONICALIZED>
1

> <PUBCHEM_CACTVS_COMPLEXITY>
624

> <PUBCHEM_CACTVS_HBOND_ACCEPTOR>
9

> <PUBCHEM_CACTVS_HBOND_DONOR>
7

> <PUBCHEM_CACTVS_ROTATABLE_BOND>
5

> <PUBCHEM_CACTVS_SUBSKEYS>
AAADccBzuAIAAAAAAAAAAAAAAAAAAAAAAAAgQAAAAAAAAACAAAAAHgAQCCAACBzhgAYBAALAAxCoQQVwdISAAAEAAAABAIC4AECBUAIAgAAEQAAPAAIBAECwEAIAAAAAAAAAAAAAAAAAAAAAAAAAAAAAAA==

> <PUBCHEM_IUPAC_OPENEYE_NAME>
[(2R,3S)-3-(2-amino-4-oxo-7,8-dihydro-1H-pteridin-6-yl)-2,3-dihydroxy-propyl] dihydrogen phosphate

> <PUBCHEM_IUPAC_CAS_NAME>
[(2R,3S)-3-(2-amino-4-oxo-7,8-dihydro-1H-pteridin-6-yl)-2,3-dihydroxypropyl] dihydrogen phosphate

> <PUBCHEM_IUPAC_NAME>
[(2R,3S)-3-(2-amino-4-oxo-7,8-dihydro-1H-pteridin-6-yl)-2,3-dihydroxypropyl] dihydrogen phosphate

> <PUBCHEM_IUPAC_SYSTEMATIC_NAME>
[(2R,3S)-3-(2-azanyl-4-oxidanylidene-7,8-dihydro-1H-pteridin-6-yl)-2,3-bis(oxidanyl)propyl] dihydrogen phosphate

> <PUBCHEM_IUPAC_TRADITIONAL_NAME>
[(2R,3S)-3-(2-amino-4-keto-7,8-dihydro-1H-pteridin-6-yl)-2,3-dihydroxy-propyl] dihydrogen phosphate

> <PUBCHEM_IUPAC_INCHI>
InChI=1S/C9H14N5O7P/c10-9-13-7-5(8(17)14-9)12-3(1-11-7)6(16)4(15)2-21-22(18,19)20/h4,6,15-16H,1-2H2,(H2,18,19,20)(H4,10,11,13,14,17)/t4-,6+/m1/s1

> <PUBCHEM_IUPAC_INCHIKEY>
PLSQMGZYOGSOCE-XINAWCOVSA-N

> <PUBCHEM_XLOGP3_AA>
-4.4

> <PUBCHEM_EXACT_MASS>
335.063084

> <PUBCHEM_MOLECULAR_FORMULA>
C9H14N5O7P

> <PUBCHEM_MOLECULAR_WEIGHT>
335.210522

> <PUBCHEM_OPENEYE_CAN_SMILES>
C1C(=NC2=C(N1)NC(=NC2=O)N)C(C(COP(=O)(O)O)O)O

> <PUBCHEM_OPENEYE_ISO_SMILES>
C1C(=NC2=C(N1)NC(=NC2=O)N)[C@@H]([C@@H](COP(=O)(O)O)O)O

> <PUBCHEM_CACTVS_TPSA>
199

> <PUBCHEM_MONOISOTOPIC_WEIGHT>
335.063084

> <PUBCHEM_TOTAL_CHARGE>
0

> <PUBCHEM_HEAVY_ATOM_COUNT>
22

> <PUBCHEM_ATOM_DEF_STEREO_COUNT>
2

> <PUBCHEM_ATOM_UDEF_STEREO_COUNT>
0

> <PUBCHEM_BOND_DEF_STEREO_COUNT>
0

> <PUBCHEM_BOND_UDEF_STEREO_COUNT>
0

> <PUBCHEM_ISOTOPIC_ATOM_COUNT>
0

> <PUBCHEM_COMPONENT_COUNT>
1

> <PUBCHEM_CACTVS_TAUTO_COUNT>
128

> <PUBCHEM_COORDINATE_TYPE>
1
5
255

> <PUBCHEM_BONDANNOTATIONS>
11  19  8
11  22  8
12  21  8
12  22  8
19  20  8
14  2  6
20  21  8
15  3  5

$$$$

