17395856
  -OEChem-06241222523D

 53 54  0     1  0  0  0  0  0999 V2000
   -1.0756   -0.8343   -1.8577 O   0  0  0  0  0  0  0  0  0  0  0  0
    0.7329    1.2805    1.8111 O   0  0  0  0  0  0  0  0  0  0  0  0
    2.5166    0.1031   -0.5138 N   0  0  0  0  0  0  0  0  0  0  0  0
    0.1489    0.3133   -0.2358 N   0  0  0  0  0  0  0  0  0  0  0  0
   -1.2372    0.0733    1.4936 N   0  0  0  0  0  0  0  0  0  0  0  0
   -1.9051   -0.6656    0.4343 C   0  0  2  0  0  0  0  0  0  0  0  0
    1.2935    0.7282   -1.0221 C   0  0  0  0  0  0  0  0  0  0  0  0
    2.5760   -1.2978   -0.9375 C   0  0  0  0  0  0  0  0  0  0  0  0
    3.7154    0.8097   -0.9743 C   0  0  0  0  0  0  0  0  0  0  0  0
   -0.9154   -0.4205   -0.7158 C   0  0  0  0  0  0  0  0  0  0  0  0
    3.4152   -2.1652    0.0164 C   0  0  0  0  0  0  0  0  0  0  0  0
    4.0140    2.0664   -0.1389 C   0  0  0  0  0  0  0  0  0  0  0  0
   -0.0201    0.6304    1.0978 C   0  0  0  0  0  0  0  0  0  0  0  0
   -3.2765   -0.0771    0.1331 C   0  0  0  0  0  0  0  0  0  0  0  0
   -1.8619   -2.1629    0.7658 C   0  0  0  0  0  0  0  0  0  0  0  0
    2.8067   -2.1255    1.4207 C   0  0  0  0  0  0  0  0  0  0  0  0
    3.5270   -3.6173   -0.4551 C   0  0  0  0  0  0  0  0  0  0  0  0
    4.2346    1.6735    1.3244 C   0  0  0  0  0  0  0  0  0  0  0  0
    5.2318    2.8382   -0.6534 C   0  0  0  0  0  0  0  0  0  0  0  0
   -3.4127    1.2919   -0.0971 C   0  0  0  0  0  0  0  0  0  0  0  0
   -4.3967   -0.9070    0.0868 C   0  0  0  0  0  0  0  0  0  0  0  0
   -4.6691    1.8311   -0.3733 C   0  0  0  0  0  0  0  0  0  0  0  0
   -5.6532   -0.3676   -0.1895 C   0  0  0  0  0  0  0  0  0  0  0  0
   -5.7892    1.0014   -0.4197 C   0  0  0  0  0  0  0  0  0  0  0  0
    1.3393    1.8167   -0.9114 H   0  0  0  0  0  0  0  0  0  0  0  0
    1.1278    0.5105   -2.0844 H   0  0  0  0  0  0  0  0  0  0  0  0
    1.5740   -1.7451   -0.9641 H   0  0  0  0  0  0  0  0  0  0  0  0
    2.9577   -1.3824   -1.9645 H   0  0  0  0  0  0  0  0  0  0  0  0
    4.6019    0.1659   -0.9122 H   0  0  0  0  0  0  0  0  0  0  0  0
    3.6210    1.0785   -2.0354 H   0  0  0  0  0  0  0  0  0  0  0  0
    4.4362   -1.7708    0.0797 H   0  0  0  0  0  0  0  0  0  0  0  0
    3.1614    2.7543   -0.1805 H   0  0  0  0  0  0  0  0  0  0  0  0
   -1.6100    0.1679    2.4334 H   0  0  0  0  0  0  0  0  0  0  0  0
   -2.2327   -2.7763   -0.0633 H   0  0  0  0  0  0  0  0  0  0  0  0
   -2.4495   -2.3925    1.6623 H   0  0  0  0  0  0  0  0  0  0  0  0
   -0.8352   -2.4955    0.9653 H   0  0  0  0  0  0  0  0  0  0  0  0
    1.7711   -2.4826    1.4168 H   0  0  0  0  0  0  0  0  0  0  0  0
    3.3764   -2.7642    2.1047 H   0  0  0  0  0  0  0  0  0  0  0  0
    2.8166   -1.1168    1.8424 H   0  0  0  0  0  0  0  0  0  0  0  0
    2.5416   -4.0918   -0.5140 H   0  0  0  0  0  0  0  0  0  0  0  0
    4.1474   -4.2045    0.2300 H   0  0  0  0  0  0  0  0  0  0  0  0
    3.9856   -3.6647   -1.4482 H   0  0  0  0  0  0  0  0  0  0  0  0
    5.0543    0.9535    1.4244 H   0  0  0  0  0  0  0  0  0  0  0  0
    4.4898    2.5539    1.9246 H   0  0  0  0  0  0  0  0  0  0  0  0
    3.3396    1.2335    1.7696 H   0  0  0  0  0  0  0  0  0  0  0  0
    6.1369    2.2227   -0.6138 H   0  0  0  0  0  0  0  0  0  0  0  0
    5.4059    3.7387   -0.0551 H   0  0  0  0  0  0  0  0  0  0  0  0
    5.0790    3.1493   -1.6921 H   0  0  0  0  0  0  0  0  0  0  0  0
   -2.5545    1.9578   -0.0705 H   0  0  0  0  0  0  0  0  0  0  0  0
   -4.3390   -1.9764    0.2586 H   0  0  0  0  0  0  0  0  0  0  0  0
   -4.7751    2.8968   -0.5535 H   0  0  0  0  0  0  0  0  0  0  0  0
   -6.5259   -1.0131   -0.2259 H   0  0  0  0  0  0  0  0  0  0  0  0
   -6.7674    1.4213   -0.6351 H   0  0  0  0  0  0  0  0  0  0  0  0
  1 10  2  0  0  0  0
  2 13  2  0  0  0  0
  3  7  1  0  0  0  0
  3  8  1  0  0  0  0
  3  9  1  0  0  0  0
  4  7  1  0  0  0  0
  4 10  1  0  0  0  0
  4 13  1  0  0  0  0
  5  6  1  0  0  0  0
  5 13  1  0  0  0  0
  5 33  1  0  0  0  0
  6 10  1  0  0  0  0
  6 14  1  0  0  0  0
  6 15  1  0  0  0  0
  7 25  1  0  0  0  0
  7 26  1  0  0  0  0
  8 11  1  0  0  0  0
  8 27  1  0  0  0  0
  8 28  1  0  0  0  0
  9 12  1  0  0  0  0
  9 29  1  0  0  0  0
  9 30  1  0  0  0  0
 11 16  1  0  0  0  0
 11 17  1  0  0  0  0
 11 31  1  0  0  0  0
 12 18  1  0  0  0  0
 12 19  1  0  0  0  0
 12 32  1  0  0  0  0
 14 20  2  0  0  0  0
 14 21  1  0  0  0  0
 15 34  1  0  0  0  0
 15 35  1  0  0  0  0
 15 36  1  0  0  0  0
 16 37  1  0  0  0  0
 16 38  1  0  0  0  0
 16 39  1  0  0  0  0
 17 40  1  0  0  0  0
 17 41  1  0  0  0  0
 17 42  1  0  0  0  0
 18 43  1  0  0  0  0
 18 44  1  0  0  0  0
 18 45  1  0  0  0  0
 19 46  1  0  0  0  0
 19 47  1  0  0  0  0
 19 48  1  0  0  0  0
 20 22  1  0  0  0  0
 20 49  1  0  0  0  0
 21 23  2  0  0  0  0
 21 50  1  0  0  0  0
 22 24  2  0  0  0  0
 22 51  1  0  0  0  0
 23 24  1  0  0  0  0
 23 52  1  0  0  0  0
 24 53  1  0  0  0  0
M  END
> <PUBCHEM_COMPOUND_CID>
17395856

> <PUBCHEM_CONFORMER_RMSD>
0.8

> <PUBCHEM_CONFORMER_DIVERSEORDER>
1
24
15
28
10
38
36
43
31
21
2
39
20
32
14
41
37
17
35
44
40
11
29
18
9
23
7
8
33
25
13
45
22
19
34
26
12
30
27
4
16
6
3
42
5

> <PUBCHEM_MMFF94_PARTIAL_CHARGES>
23
1 -0.57
10 0.57
13 0.69
14 -0.14
2 -0.57
20 -0.15
21 -0.15
22 -0.15
23 -0.15
24 -0.15
3 -0.81
33 0.37
4 -0.42
49 0.15
5 -0.73
50 0.15
51 0.15
52 0.15
53 0.15
6 0.5
7 0.57
8 0.27
9 0.27

> <PUBCHEM_EFFECTIVE_ROTOR_COUNT>
7.6

> <PUBCHEM_PHARMACOPHORE_FEATURES>
8
1 1 acceptor
1 2 acceptor
1 3 cation
1 5 donor
3 11 16 17 hydrophobe
3 12 18 19 hydrophobe
5 4 5 6 10 13 rings
6 14 20 21 22 23 24 rings

> <PUBCHEM_HEAVY_ATOM_COUNT>
24

> <PUBCHEM_ATOM_DEF_STEREO_COUNT>
0

> <PUBCHEM_ATOM_UDEF_STEREO_COUNT>
1

> <PUBCHEM_BOND_DEF_STEREO_COUNT>
0

> <PUBCHEM_BOND_UDEF_STEREO_COUNT>
0

> <PUBCHEM_ISOTOPIC_ATOM_COUNT>
0

> <PUBCHEM_COMPONENT_COUNT>
1

> <PUBCHEM_CACTVS_TAUTO_COUNT>
2

> <PUBCHEM_CONFORMER_ID>
0109709000000001

> <PUBCHEM_MMFF94_ENERGY>
50.3973

> <PUBCHEM_FEATURE_SELFOVERLAP>
40.594

> <PUBCHEM_SHAPE_FINGERPRINT>
10595046 47 18408603652357759341
10906281 52 17202748316410612132
11128504 68 14634863115753457080
11370993 70 18270959051092624146
12107183 9 17832983124163554641
12670546 56 18343584075061579421
12788726 201 17385714837699950225
12916748 109 18060132142332558449
13073987 5 18410006650753956017
13533116 47 18336543906061349815
13583140 156 18262795151628612099
13911987 19 17240755143305965133
14178342 30 18058445396600243598
16752209 62 16733255850105492832
17349148 13 15864070970862992451
18222031 100 15285357331929403289
18335252 98 18270112415098347163
20645477 56 18272650108903636237
20645477 70 18340201985636958118
21859007 373 17201942524405144981
22393880 68 18335411336307660910
23559900 14 18262520411224347410
268830 7 18114726235751156353
3004659 81 18338234976519932658
3411729 13 18342460322965373944
34934 24 18335138644364698052
3633792 109 18264208174156828165
4340502 62 18342454803146798467
474 4 18265607694189197556
495365 180 18335707152185304266
5104073 3 18343296003136389553
633830 44 18342184418366307839
9971528 1 17917988399357442613
9981440 41 16908599097320794373

> <PUBCHEM_SHAPE_MULTIPOLES>
467.23
12.03
3.01
1.34
7.62
1.32
0.25
-4.79
-1.38
-4.99
-0.06
-0.76
-0.01
0.31

> <PUBCHEM_SHAPE_SELFOVERLAP>
960.112

> <PUBCHEM_SHAPE_VOLUME>
272.6

> <PUBCHEM_COORDINATE_TYPE>
2
5
10

$$$$

