5284474
  -OEChem-07051213132D

 29 31  0     0  0  0  0  0  0999 V2000
    4.5274    1.3255    0.0000 N   0  0  0  0  0  0  0  0  0  0  0  0
    6.7328   -0.7894    0.0000 N   0  0  0  0  0  0  0  0  0  0  0  0
    8.0321    0.4130    0.0000 N   0  0  0  0  0  0  0  0  0  0  0  0
    5.0274   -0.2133    0.0000 C   0  0  0  0  0  0  0  0  0  0  0  0
    5.3364    0.7377    0.0000 C   0  0  0  0  0  0  0  0  0  0  0  0
    4.0274   -0.2133    0.0000 C   0  0  0  0  0  0  0  0  0  0  0  0
    3.7183    0.7377    0.0000 C   0  0  0  0  0  0  0  0  0  0  0  0
    6.3518    0.9700    0.0000 C   0  0  0  0  0  0  0  0  0  0  0  0
    5.7123   -0.9981    0.0000 C   0  0  0  0  0  0  0  0  0  0  0  0
    7.0547    0.2013    0.0000 C   0  0  0  0  0  0  0  0  0  0  0  0
    3.3424   -0.9981    0.0000 C   0  0  0  0  0  0  0  0  0  0  0  0
    2.7029    0.9700    0.0000 C   0  0  0  0  0  0  0  0  0  0  0  0
    6.6498    1.9245    0.0000 C   0  0  0  0  0  0  0  0  0  0  0  0
    5.3923   -1.9455    0.0000 C   0  0  0  0  0  0  0  0  0  0  0  0
    2.3219   -0.7894    0.0000 C   0  0  0  0  0  0  0  0  0  0  0  0
    2.0000    0.2013    0.0000 C   0  0  0  0  0  0  0  0  0  0  0  0
    4.5274    1.9455    0.0000 H   0  0  0  0  0  0  0  0  0  0  0  0
    3.5408   -1.5855    0.0000 H   0  0  0  0  0  0  0  0  0  0  0  0
    2.5182    1.5618    0.0000 H   0  0  0  0  0  0  0  0  0  0  0  0
    7.2416    1.7398    0.0000 H   0  0  0  0  0  0  0  0  0  0  0  0
    6.8345    2.5164    0.0000 H   0  0  0  0  0  0  0  0  0  0  0  0
    6.0580    2.1093    0.0000 H   0  0  0  0  0  0  0  0  0  0  0  0
    4.8049   -1.7471    0.0000 H   0  0  0  0  0  0  0  0  0  0  0  0
    5.1939   -2.5329    0.0000 H   0  0  0  0  0  0  0  0  0  0  0  0
    5.9797   -2.1439    0.0000 H   0  0  0  0  0  0  0  0  0  0  0  0
    1.9088   -1.2517    0.0000 H   0  0  0  0  0  0  0  0  0  0  0  0
    1.3940    0.3325    0.0000 H   0  0  0  0  0  0  0  0  0  0  0  0
    8.4487   -0.0462    0.0000 H   0  0  0  0  0  0  0  0  0  0  0  0
    8.2214    1.0034    0.0000 H   0  0  0  0  0  0  0  0  0  0  0  0
  1  5  1  0  0  0  0
  1  7  1  0  0  0  0
  1 17  1  0  0  0  0
  2  9  1  0  0  0  0
  2 10  2  0  0  0  0
  3 10  1  0  0  0  0
  3 28  1  0  0  0  0
  3 29  1  0  0  0  0
  4  5  1  0  0  0  0
  4  6  1  0  0  0  0
  4  9  2  0  0  0  0
  5  8  2  0  0  0  0
  6  7  1  0  0  0  0
  6 11  2  0  0  0  0
  7 12  2  0  0  0  0
  8 10  1  0  0  0  0
  8 13  1  0  0  0  0
  9 14  1  0  0  0  0
 11 15  1  0  0  0  0
 11 18  1  0  0  0  0
 12 16  1  0  0  0  0
 12 19  1  0  0  0  0
 13 20  1  0  0  0  0
 13 21  1  0  0  0  0
 13 22  1  0  0  0  0
 14 23  1  0  0  0  0
 14 24  1  0  0  0  0
 14 25  1  0  0  0  0
 15 16  2  0  0  0  0
 15 26  1  0  0  0  0
 16 27  1  0  0  0  0
M  END
> <PUBCHEM_COMPOUND_CID>
5284474

> <PUBCHEM_COMPOUND_CANONICALIZED>
1

> <PUBCHEM_CACTVS_COMPLEXITY>
268

> <PUBCHEM_CACTVS_HBOND_ACCEPTOR>
2

> <PUBCHEM_CACTVS_HBOND_DONOR>
2

> <PUBCHEM_CACTVS_ROTATABLE_BOND>
0

> <PUBCHEM_CACTVS_SUBSKEYS>
AAADccBzAAAAAAAAAAAAAAAAAAAAAWAAAAA8QAAAAAAAAFgB/gAAHAAQAAAADAiBHgAz8PLJkACgAyZiZACCgCkhAiAImSAwZJiIIOLA0dGEJAhgkALIyCcQgMAOgAAAAAACAAAAAAAAAAQAAAAAAAAAAA==

> <PUBCHEM_IUPAC_OPENEYE_NAME>
1,4-dimethyl-5H-pyrido[4,3-b]indol-3-amine

> <PUBCHEM_IUPAC_CAS_NAME>
1,4-dimethyl-5H-pyrido[4,3-b]indol-3-amine

> <PUBCHEM_IUPAC_NAME>
1,4-dimethyl-5H-pyrido[4,3-b]indol-3-amine

> <PUBCHEM_IUPAC_SYSTEMATIC_NAME>
1,4-dimethyl-5H-pyrido[4,3-b]indol-3-amine

> <PUBCHEM_IUPAC_TRADITIONAL_NAME>
(1,4-dimethyl-5H-pyrid[4,3-b]indol-3-yl)amine

> <PUBCHEM_IUPAC_INCHI>
InChI=1S/C13H13N3/c1-7-12-11(8(2)15-13(7)14)9-5-3-4-6-10(9)16-12/h3-6,16H,1-2H3,(H2,14,15)

> <PUBCHEM_IUPAC_INCHIKEY>
LVTKHGUGBGNBPL-UHFFFAOYSA-N

> <PUBCHEM_XLOGP3>
2

> <PUBCHEM_EXACT_MASS>
211.110947

> <PUBCHEM_MOLECULAR_FORMULA>
C13H13N3

> <PUBCHEM_MOLECULAR_WEIGHT>
211.26242

> <PUBCHEM_OPENEYE_CAN_SMILES>
CC1=C(N=C(C2=C1NC3=CC=CC=C32)C)N

> <PUBCHEM_OPENEYE_ISO_SMILES>
CC1=C(N=C(C2=C1NC3=CC=CC=C32)C)N

> <PUBCHEM_CACTVS_TPSA>
54.7

> <PUBCHEM_MONOISOTOPIC_WEIGHT>
211.110947

> <PUBCHEM_TOTAL_CHARGE>
0

> <PUBCHEM_HEAVY_ATOM_COUNT>
16

> <PUBCHEM_ATOM_DEF_STEREO_COUNT>
0

> <PUBCHEM_ATOM_UDEF_STEREO_COUNT>
0

> <PUBCHEM_BOND_DEF_STEREO_COUNT>
0

> <PUBCHEM_BOND_UDEF_STEREO_COUNT>
0

> <PUBCHEM_ISOTOPIC_ATOM_COUNT>
0

> <PUBCHEM_COMPONENT_COUNT>
1

> <PUBCHEM_CACTVS_TAUTO_COUNT>
9

> <PUBCHEM_COORDINATE_TYPE>
1
5
255

> <PUBCHEM_BONDANNOTATIONS>
1  5  8
1  7  8
11  15  8
12  16  8
15  16  8
2  10  8
2  9  8
4  5  8
4  6  8
4  9  8
5  8  8
6  11  8
6  7  8
7  12  8
8  10  8

$$$$

