17395506
  -OEChem-06241222503D

 37 38  0     0  0  0  0  0  0999 V2000
   -2.5044   -1.8268   -0.5840 O   0  0  0  0  0  0  0  0  0  0  0  0
    1.4003   -3.8988    0.0493 O   0  0  0  0  0  0  0  0  0  0  0  0
    3.5719    2.7849    0.0082 O   0  0  0  0  0  0  0  0  0  0  0  0
   -3.1151    0.1611    0.4380 N   0  0  0  0  0  0  0  0  0  0  0  0
    2.5755   -1.8549    0.0538 N   0  0  0  0  0  0  0  0  0  0  0  0
    1.2150    2.7809   -0.0516 N   0  0  0  0  0  0  0  0  0  0  0  0
   -4.5280   -0.0982    0.4572 C   0  0  0  0  0  0  0  0  0  0  0  0
   -5.3894    0.2027   -0.7339 C   0  0  0  0  0  0  0  0  0  0  0  0
   -5.5217    1.0248    0.5144 C   0  0  0  0  0  0  0  0  0  0  0  0
   -2.1759   -0.7335   -0.0899 C   0  0  0  0  0  0  0  0  0  0  0  0
   -0.7810   -0.3237   -0.0587 C   0  0  0  0  0  0  0  0  0  0  0  0
   -0.4520    1.0318   -0.0700 C   0  0  0  0  0  0  0  0  0  0  0  0
    0.2281   -1.2860   -0.0174 C   0  0  0  0  0  0  0  0  0  0  0  0
    1.5660   -0.8926    0.0125 C   0  0  0  0  0  0  0  0  0  0  0  0
    0.8859    1.4250   -0.0401 C   0  0  0  0  0  0  0  0  0  0  0  0
    1.8949    0.4629    0.0012 C   0  0  0  0  0  0  0  0  0  0  0  0
    2.4409   -3.2496    0.0708 C   0  0  0  0  0  0  0  0  0  0  0  0
    2.4898    3.3619   -0.0262 C   0  0  0  0  0  0  0  0  0  0  0  0
    3.7810   -3.9400    0.1169 C   0  0  0  0  0  0  0  0  0  0  0  0
    2.4183    4.8681   -0.0506 C   0  0  0  0  0  0  0  0  0  0  0  0
   -4.7750   -0.9851    1.0324 H   0  0  0  0  0  0  0  0  0  0  0  0
   -4.9322    0.6697   -1.5976 H   0  0  0  0  0  0  0  0  0  0  0  0
   -6.1864   -0.4922   -0.9683 H   0  0  0  0  0  0  0  0  0  0  0  0
   -6.4088    0.8842    1.1197 H   0  0  0  0  0  0  0  0  0  0  0  0
   -5.1541    2.0433    0.4866 H   0  0  0  0  0  0  0  0  0  0  0  0
   -2.8110    1.0188    0.8892 H   0  0  0  0  0  0  0  0  0  0  0  0
   -1.2165    1.8020   -0.1331 H   0  0  0  0  0  0  0  0  0  0  0  0
   -0.0826   -2.3211   -0.0029 H   0  0  0  0  0  0  0  0  0  0  0  0
    2.9484    0.7058    0.0261 H   0  0  0  0  0  0  0  0  0  0  0  0
    3.5252   -1.4892    0.0740 H   0  0  0  0  0  0  0  0  0  0  0  0
    0.4233    3.4202   -0.0818 H   0  0  0  0  0  0  0  0  0  0  0  0
    4.3329   -3.6207    1.0055 H   0  0  0  0  0  0  0  0  0  0  0  0
    4.3556   -3.6911   -0.7796 H   0  0  0  0  0  0  0  0  0  0  0  0
    3.6386   -5.0234    0.1589 H   0  0  0  0  0  0  0  0  0  0  0  0
    1.8461    5.2266    0.8098 H   0  0  0  0  0  0  0  0  0  0  0  0
    1.9363    5.2001   -0.9745 H   0  0  0  0  0  0  0  0  0  0  0  0
    3.4270    5.2880   -0.0050 H   0  0  0  0  0  0  0  0  0  0  0  0
  1 10  2  0  0  0  0
  2 17  2  0  0  0  0
  3 18  2  0  0  0  0
  4  7  1  0  0  0  0
  4 10  1  0  0  0  0
  4 26  1  0  0  0  0
  5 14  1  0  0  0  0
  5 17  1  0  0  0  0
  5 30  1  0  0  0  0
  6 15  1  0  0  0  0
  6 18  1  0  0  0  0
  6 31  1  0  0  0  0
  7  8  1  0  0  0  0
  7  9  1  0  0  0  0
  7 21  1  0  0  0  0
  8  9  1  0  0  0  0
  8 22  1  0  0  0  0
  8 23  1  0  0  0  0
  9 24  1  0  0  0  0
  9 25  1  0  0  0  0
 10 11  1  0  0  0  0
 11 12  2  0  0  0  0
 11 13  1  0  0  0  0
 12 15  1  0  0  0  0
 12 27  1  0  0  0  0
 13 14  2  0  0  0  0
 13 28  1  0  0  0  0
 14 16  1  0  0  0  0
 15 16  2  0  0  0  0
 16 29  1  0  0  0  0
 17 19  1  0  0  0  0
 18 20  1  0  0  0  0
 19 32  1  0  0  0  0
 19 33  1  0  0  0  0
 19 34  1  0  0  0  0
 20 35  1  0  0  0  0
 20 36  1  0  0  0  0
 20 37  1  0  0  0  0
M  END
> <PUBCHEM_COMPOUND_CID>
17395506

> <PUBCHEM_CONFORMER_RMSD>
0.8

> <PUBCHEM_CONFORMER_DIVERSEORDER>
4
16
10
5
6
13
9
17
1
8
2
12
11
15
3
14
7

> <PUBCHEM_MMFF94_PARTIAL_CHARGES>
31
1 -0.57
10 0.54
11 0.09
12 -0.15
13 -0.15
14 0.12
15 0.12
16 -0.15
17 0.57
18 0.57
19 0.06
2 -0.57
20 0.06
21 0.1
22 0.1
23 0.1
24 0.1
25 0.1
26 0.37
27 0.15
28 0.15
29 0.15
3 -0.57
30 0.37
31 0.37
4 -0.58
5 -0.55
6 -0.55
7 0.05
8 -0.2
9 -0.2

> <PUBCHEM_EFFECTIVE_ROTOR_COUNT>
7.6

> <PUBCHEM_PHARMACOPHORE_FEATURES>
7
1 1 acceptor
1 2 acceptor
1 3 acceptor
1 4 donor
1 5 donor
1 6 donor
6 11 12 13 14 15 16 rings

> <PUBCHEM_HEAVY_ATOM_COUNT>
20

> <PUBCHEM_ATOM_DEF_STEREO_COUNT>
0

> <PUBCHEM_ATOM_UDEF_STEREO_COUNT>
0

> <PUBCHEM_BOND_DEF_STEREO_COUNT>
0

> <PUBCHEM_BOND_UDEF_STEREO_COUNT>
0

> <PUBCHEM_ISOTOPIC_ATOM_COUNT>
0

> <PUBCHEM_COMPONENT_COUNT>
1

> <PUBCHEM_CACTVS_TAUTO_COUNT>
6

> <PUBCHEM_CONFORMER_ID>
01096F3200000004

> <PUBCHEM_MMFF94_ENERGY>
59.3725

> <PUBCHEM_FEATURE_SELFOVERLAP>
35.52

> <PUBCHEM_SHAPE_FINGERPRINT>
10411042 1 18122625221463512922
10756046 70 18041009457229066319
11265709 11 18194400228265259634
12107183 9 17980498771657239856
12173636 292 17617380580362532132
12553582 1 18194129731198954270
12788726 201 17695905914249387034
12930653 34 18052532175937527051
13004483 165 18050578635616772826
13134695 92 18339642368641176287
13140716 1 18268150846992469560
13590594 115 18051402161388945697
138480 1 18338797930725739896
13955234 65 18411412895686453979
14178000 15 18337390568648220656
14790565 3 18123466081586834436
15042514 8 16755217139256420938
15442244 35 18264204880412901361
15475509 35 16917073286901516089
15475509 8 17535999462643707692
15664445 248 18116415115813536454
15927050 60 18120933898577539694
16087824 20 17618221054545782821
17492 89 18410293584840620587
17980427 26 18263933146200648156
1813 80 17971466544720164358
18785283 64 18342459214056767961
19591789 44 18051128095377973966
19784866 34 18192713341384489001
19784866 9 18335420106298699712
20157964 124 18411426081922004045
20286276 3 18410851024187379795
20645477 70 18342744022508647891
20671657 1 18410287017412845919
20832881 197 18056756757393831131
21049683 271 18200577194569385230
212916 134 17900555475233278080
21304253 13 18191306198075280888
21426921 1 17546444944074207782
21478907 32 17691125254881988283
2255824 54 18408322176811550687
22849341 161 18120072130036274987
23366157 5 18343586213501839455
23559900 14 18411421734882474027
283562 15 17615409156493990303
3071541 12 18410291380603635910
3091708 16 9287775372390888770
314173 41 18337385071059011527
3421961 26 18338517550807694235
4409770 3 17262157441745712173
474 4 18266460914837831449
5104073 3 18343576327441712209
5385378 56 18409724037163012929
6025842 7 18410296874431316647
633830 44 18117556219551360788
6443956 14 18268428112595612662
7364860 26 18410855456049491828
77188 2 18194964265061256012
79837 15 17835804088553062314
84936 182 18188491246740442033
9841814 1 18059020599815669290
9971528 1 18336273460718846091
9981440 41 18050854308155386089

> <PUBCHEM_SHAPE_MULTIPOLES>
379.04
8.91
5.79
0.67
15.37
2.98
0.01
-0.98
-0.31
-11.47
0
0.36
-0.01
-0.38

> <PUBCHEM_SHAPE_SELFOVERLAP>
786.741

> <PUBCHEM_SHAPE_VOLUME>
215.3

> <PUBCHEM_COORDINATE_TYPE>
2
5
10

$$$$

