11071
  -OEChem-06261205182D

 27 27  0     0  0  0  0  0  0999 V2000
    6.0010   -0.2500    0.0000 O   0  0  0  0  0  0  0  0  0  0  0  0
    4.2690    2.7500    0.0000 O   0  0  0  0  0  0  0  0  0  0  0  0
    4.2690   -0.2500    0.0000 N   0  0  0  0  0  0  0  0  0  0  0  0
    5.1350    1.2500    0.0000 N   0  0  0  0  0  0  0  0  0  0  0  0
    2.5369   -0.2500    0.0000 N   0  0  0  0  0  0  0  0  0  0  0  0
    4.2690   -1.2500    0.0000 C   0  0  0  0  0  0  0  0  0  0  0  0
    3.4030    0.2500    0.0000 C   0  0  0  0  0  0  0  0  0  0  0  0
    5.1350    0.2500    0.0000 C   0  0  0  0  0  0  0  0  0  0  0  0
    5.1350   -1.7500    0.0000 C   0  0  0  0  0  0  0  0  0  0  0  0
    3.4030    1.2500    0.0000 C   0  0  0  0  0  0  0  0  0  0  0  0
    4.2690    1.7500    0.0000 C   0  0  0  0  0  0  0  0  0  0  0  0
    6.0010    1.7500    0.0000 C   0  0  0  0  0  0  0  0  0  0  0  0
    5.1350   -2.7500    0.0000 C   0  0  0  0  0  0  0  0  0  0  0  0
    6.0010   -1.2500    0.0000 C   0  0  0  0  0  0  0  0  0  0  0  0
    3.6584   -1.1423    0.0000 H   0  0  0  0  0  0  0  0  0  0  0  0
    4.0569   -1.8326    0.0000 H   0  0  0  0  0  0  0  0  0  0  0  0
    2.8660    1.5600    0.0000 H   0  0  0  0  0  0  0  0  0  0  0  0
    6.3110    1.2131    0.0000 H   0  0  0  0  0  0  0  0  0  0  0  0
    6.5380    2.0600    0.0000 H   0  0  0  0  0  0  0  0  0  0  0  0
    5.6910    2.2869    0.0000 H   0  0  0  0  0  0  0  0  0  0  0  0
    4.5150   -2.7500    0.0000 H   0  0  0  0  0  0  0  0  0  0  0  0
    5.1350   -3.3700    0.0000 H   0  0  0  0  0  0  0  0  0  0  0  0
    5.7550   -2.7500    0.0000 H   0  0  0  0  0  0  0  0  0  0  0  0
    2.0000    0.0600    0.0000 H   0  0  0  0  0  0  0  0  0  0  0  0
    2.5369   -0.8700    0.0000 H   0  0  0  0  0  0  0  0  0  0  0  0
    6.5380   -1.5600    0.0000 H   0  0  0  0  0  0  0  0  0  0  0  0
    6.0010   -0.6300    0.0000 H   0  0  0  0  0  0  0  0  0  0  0  0
  1  8  2  0  0  0  0
  2 11  2  0  0  0  0
  3  6  1  0  0  0  0
  3  7  1  0  0  0  0
  3  8  1  0  0  0  0
  4  8  1  0  0  0  0
  4 11  1  0  0  0  0
  4 12  1  0  0  0  0
  5  7  1  0  0  0  0
  5 24  1  0  0  0  0
  5 25  1  0  0  0  0
  6  9  1  0  0  0  0
  6 15  1  0  0  0  0
  6 16  1  0  0  0  0
  7 10  2  0  0  0  0
  9 13  1  0  0  0  0
  9 14  2  0  0  0  0
 10 11  1  0  0  0  0
 10 17  1  0  0  0  0
 12 18  1  0  0  0  0
 12 19  1  0  0  0  0
 12 20  1  0  0  0  0
 13 21  1  0  0  0  0
 13 22  1  0  0  0  0
 13 23  1  0  0  0  0
 14 26  1  0  0  0  0
 14 27  1  0  0  0  0
M  END
> <PUBCHEM_COMPOUND_CID>
11071

> <PUBCHEM_COMPOUND_CANONICALIZED>
1

> <PUBCHEM_CACTVS_COMPLEXITY>
333

> <PUBCHEM_CACTVS_HBOND_ACCEPTOR>
3

> <PUBCHEM_CACTVS_HBOND_DONOR>
1

> <PUBCHEM_CACTVS_ROTATABLE_BOND>
2

> <PUBCHEM_CACTVS_SUBSKEYS>
AAADccBzMAAAAAAAAAAAAAAAAAAAAAAAAAAgAAAAAAAAAAAAAAAAHgAQAAAADADBgAQDAANAAACIAiFSUACAAAAAAgAAAAAIAECAAAAAAQAEAAAIByIAAEAAAAAAAAAAAAAAAAAAAAAAAAAAAAAAAAAAAA==

> <PUBCHEM_IUPAC_OPENEYE_NAME>
6-amino-3-methyl-1-(2-methylallyl)pyrimidine-2,4-dione

> <PUBCHEM_IUPAC_CAS_NAME>
6-amino-3-methyl-1-(2-methylprop-2-enyl)pyrimidine-2,4-dione

> <PUBCHEM_IUPAC_NAME>
6-amino-3-methyl-1-(2-methylprop-2-enyl)pyrimidine-2,4-dione

> <PUBCHEM_IUPAC_SYSTEMATIC_NAME>
6-azanyl-3-methyl-1-(2-methylprop-2-enyl)pyrimidine-2,4-dione

> <PUBCHEM_IUPAC_TRADITIONAL_NAME>
6-amino-3-methyl-1-(2-methylallyl)pyrimidine-2,4-quinone

> <PUBCHEM_IUPAC_INCHI>
InChI=1S/C9H13N3O2/c1-6(2)5-12-7(10)4-8(13)11(3)9(12)14/h4H,1,5,10H2,2-3H3

> <PUBCHEM_IUPAC_INCHIKEY>
FXNYSZHYMGWWEZ-UHFFFAOYSA-N

> <PUBCHEM_XLOGP3_AA>
0.2

> <PUBCHEM_EXACT_MASS>
195.100777

> <PUBCHEM_MOLECULAR_FORMULA>
C9H13N3O2

> <PUBCHEM_MOLECULAR_WEIGHT>
195.21842

> <PUBCHEM_OPENEYE_CAN_SMILES>
CC(=C)CN1C(=CC(=O)N(C1=O)C)N

> <PUBCHEM_OPENEYE_ISO_SMILES>
CC(=C)CN1C(=CC(=O)N(C1=O)C)N

> <PUBCHEM_CACTVS_TPSA>
66.6

> <PUBCHEM_MONOISOTOPIC_WEIGHT>
195.100777

> <PUBCHEM_TOTAL_CHARGE>
0

> <PUBCHEM_HEAVY_ATOM_COUNT>
14

> <PUBCHEM_ATOM_DEF_STEREO_COUNT>
0

> <PUBCHEM_ATOM_UDEF_STEREO_COUNT>
0

> <PUBCHEM_BOND_DEF_STEREO_COUNT>
0

> <PUBCHEM_BOND_UDEF_STEREO_COUNT>
0

> <PUBCHEM_ISOTOPIC_ATOM_COUNT>
0

> <PUBCHEM_COMPONENT_COUNT>
1

> <PUBCHEM_CACTVS_TAUTO_COUNT>
3

> <PUBCHEM_COORDINATE_TYPE>
1
5
255

> <PUBCHEM_BONDANNOTATIONS>
10  11  8
3  7  8
3  8  8
4  11  8
4  8  8
7  10  8

$$$$

