5710
  -OEChem-06261200502D

 57 60  0     1  0  0  0  0  0999 V2000
    7.4044   -0.9653    0.0000 O   0  0  0  0  0  0  0  0  0  0  0  0
    8.1745    0.2552    0.0000 O   0  0  0  0  0  0  0  0  0  0  0  0
    2.3052   -1.9292    0.0000 O   0  0  0  0  0  0  0  0  0  0  0  0
    3.8128   -2.7819    0.0000 O   0  0  0  0  0  0  0  0  0  0  0  0
    6.5634   -2.4794    0.0000 O   0  0  0  0  0  0  0  0  0  0  0  0
    4.7330    0.5461    0.0000 C   0  0  3  0  0  0  0  0  0  0  0  0
    5.6405    1.0574    0.0000 C   0  0  3  0  0  0  0  0  0  0  0  0
    6.5090    0.5618    0.0000 C   0  0  3  0  0  0  0  0  0  0  0  0
    4.7302   -0.4956    0.0000 C   0  0  3  0  0  0  0  0  0  0  0  0
    6.5302   -0.4797    0.0000 C   0  0  3  0  0  0  0  0  0  0  0  0
    6.4845    1.7431    0.0000 C   0  0  0  0  0  0  0  0  0  0  0  0
    5.6349   -1.0119    0.0000 C   0  0  0  0  0  0  0  0  0  0  0  0
    3.7975   -1.0500    0.0000 C   0  0  3  0  0  0  0  0  0  0  0  0
    5.4865    2.0455    0.0000 C   0  0  0  0  0  0  0  0  0  0  0  0
    7.1606    2.7122    0.0000 C   0  0  3  0  0  0  0  0  0  0  0  0
    3.8034    1.1055    0.0000 C   0  0  0  0  0  0  0  0  0  0  0  0
    6.1630    2.7819    0.0000 C   0  0  0  0  0  0  0  0  0  0  0  0
    7.4380    0.9317    0.0000 C   0  0  0  0  0  0  0  0  0  0  0  0
    4.7358    1.5460    0.0000 C   0  0  0  0  0  0  0  0  0  0  0  0
    2.8552   -0.5122    0.0000 C   0  0  0  0  0  0  0  0  0  0  0  0
    2.8582    0.5728    0.0000 C   0  0  0  0  0  0  0  0  0  0  0  0
    7.7280    1.8888    0.0000 C   0  0  0  0  0  0  0  0  0  0  0  0
    4.3052   -1.9115    0.0000 C   0  0  0  0  0  0  0  0  0  0  0  0
    3.3052   -1.9204    0.0000 C   0  0  0  0  0  0  0  0  0  0  0  0
    8.7161    2.0427    0.0000 C   0  0  0  0  0  0  0  0  0  0  0  0
    7.4210   -1.9651    0.0000 C   0  0  0  0  0  0  0  0  0  0  0  0
    8.2952   -2.4507    0.0000 C   0  0  0  0  0  0  0  0  0  0  0  0
    5.0826    1.3280    0.0000 H   0  0  0  0  0  0  0  0  0  0  0  0
    4.7357   -1.1156    0.0000 H   0  0  0  0  0  0  0  0  0  0  0  0
    6.5393   -1.0996    0.0000 H   0  0  0  0  0  0  0  0  0  0  0  0
    6.1103    2.2374    0.0000 H   0  0  0  0  0  0  0  0  0  0  0  0
    5.8988    1.5396    0.0000 H   0  0  0  0  0  0  0  0  0  0  0  0
    5.2399   -1.4898    0.0000 H   0  0  0  0  0  0  0  0  0  0  0  0
    6.0382   -1.4828    0.0000 H   0  0  0  0  0  0  0  0  0  0  0  0
    5.1347    2.5560    0.0000 H   0  0  0  0  0  0  0  0  0  0  0  0
    4.9105    1.8161    0.0000 H   0  0  0  0  0  0  0  0  0  0  0  0
    7.4679    3.2507    0.0000 H   0  0  0  0  0  0  0  0  0  0  0  0
    4.2093    1.5742    0.0000 H   0  0  0  0  0  0  0  0  0  0  0  0
    3.4111    1.5856    0.0000 H   0  0  0  0  0  0  0  0  0  0  0  0
    6.3428    3.3753    0.0000 H   0  0  0  0  0  0  0  0  0  0  0  0
    5.6246    3.0893    0.0000 H   0  0  0  0  0  0  0  0  0  0  0  0
    5.3557    1.5444    0.0000 H   0  0  0  0  0  0  0  0  0  0  0  0
    4.7374    2.1660    0.0000 H   0  0  0  0  0  0  0  0  0  0  0  0
    4.1158    1.5477    0.0000 H   0  0  0  0  0  0  0  0  0  0  0  0
    2.2446   -0.4044    0.0000 H   0  0  0  0  0  0  0  0  0  0  0  0
    2.6446   -1.0953    0.0000 H   0  0  0  0  0  0  0  0  0  0  0  0
    2.6507    1.1571    0.0000 H   0  0  0  0  0  0  0  0  0  0  0  0
    2.2470    0.4684    0.0000 H   0  0  0  0  0  0  0  0  0  0  0  0
    3.7710   -2.2263    0.0000 H   0  0  0  0  0  0  0  0  0  0  0  0
    4.6199   -2.4457    0.0000 H   0  0  0  0  0  0  0  0  0  0  0  0
    4.8393   -1.5968    0.0000 H   0  0  0  0  0  0  0  0  0  0  0  0
    9.1051    1.5599    0.0000 H   0  0  0  0  0  0  0  0  0  0  0  0
    8.9397    2.6210    0.0000 H   0  0  0  0  0  0  0  0  0  0  0  0
    2.0000   -2.4689    0.0000 H   0  0  0  0  0  0  0  0  0  0  0  0
    7.9941   -2.9927    0.0000 H   0  0  0  0  0  0  0  0  0  0  0  0
    8.8372   -2.7518    0.0000 H   0  0  0  0  0  0  0  0  0  0  0  0
    8.5962   -1.9087    0.0000 H   0  0  0  0  0  0  0  0  0  0  0  0
  1 10  1  0  0  0  0
  1 26  1  0  0  0  0
  2 18  2  0  0  0  0
  3 24  1  0  0  0  0
  3 54  1  0  0  0  0
  4 24  2  0  0  0  0
  5 26  2  0  0  0  0
  6  7  1  0  0  0  0
  6  9  1  0  0  0  0
  6 16  1  0  0  0  0
  6 19  1  0  0  0  0
  7  8  1  0  0  0  0
  7 14  1  0  0  0  0
  7 28  1  0  0  0  0
  8 10  1  0  0  0  0
  8 11  1  0  0  0  0
  8 18  1  0  0  0  0
  9 12  1  0  0  0  0
  9 13  1  0  0  0  0
  9 29  1  0  0  0  0
 10 12  1  0  0  0  0
 10 30  1  0  0  0  0
 11 15  1  0  0  0  0
 11 31  1  0  0  0  0
 11 32  1  0  0  0  0
 12 33  1  0  0  0  0
 12 34  1  0  0  0  0
 13 20  1  0  0  0  0
 13 23  1  0  0  0  0
 13 24  1  0  0  0  0
 14 17  1  0  0  0  0
 14 35  1  0  0  0  0
 14 36  1  0  0  0  0
 15 17  1  0  0  0  0
 15 22  1  0  0  0  0
 15 37  1  0  0  0  0
 16 21  1  0  0  0  0
 16 38  1  0  0  0  0
 16 39  1  0  0  0  0
 17 40  1  0  0  0  0
 17 41  1  0  0  0  0
 18 22  1  0  0  0  0
 19 42  1  0  0  0  0
 19 43  1  0  0  0  0
 19 44  1  0  0  0  0
 20 21  1  0  0  0  0
 20 45  1  0  0  0  0
 20 46  1  0  0  0  0
 21 47  1  0  0  0  0
 21 48  1  0  0  0  0
 22 25  2  0  0  0  0
 23 49  1  0  0  0  0
 23 50  1  0  0  0  0
 23 51  1  0  0  0  0
 25 52  1  0  0  0  0
 25 53  1  0  0  0  0
 26 27  1  0  0  0  0
 27 55  1  0  0  0  0
 27 56  1  0  0  0  0
 27 57  1  0  0  0  0
M  END
> <PUBCHEM_COMPOUND_CID>
5710

> <PUBCHEM_COMPOUND_CANONICALIZED>
1

> <PUBCHEM_CACTVS_COMPLEXITY>
741

> <PUBCHEM_CACTVS_HBOND_ACCEPTOR>
5

> <PUBCHEM_CACTVS_HBOND_DONOR>
1

> <PUBCHEM_CACTVS_ROTATABLE_BOND>
3

> <PUBCHEM_CACTVS_SUBSKEYS>
AAADceB4OAAAAAAAAAAAAAAAAAAAAYAAAAAwYMAABgAAAADAAAAAGgAACAAADxSggAICCAAABgCIAoDSCAAAAAAgAAAAAAEAAEgAABYAAQACQAAEoAAAAIGI7PzPgAAAAAAAAADAAAYAADAAAQAAAAAAAA==

> <PUBCHEM_IUPAC_INCHI>
InChI=1S/C22H30O5/c1-12-14-6-7-15-20(3)8-5-9-21(4,19(25)26)16(20)10-17(27-13(2)23)22(15,11-14)18(12)24/h14-17H,1,5-11H2,2-4H3,(H,25,26)

> <PUBCHEM_IUPAC_INCHIKEY>
RUHZHLBOQLNVIX-UHFFFAOYSA-N

> <PUBCHEM_XLOGP3_AA>
3.8

> <PUBCHEM_EXACT_MASS>
374.209324

> <PUBCHEM_MOLECULAR_FORMULA>
C22H30O5

> <PUBCHEM_MOLECULAR_WEIGHT>
374.4706

> <PUBCHEM_OPENEYE_CAN_SMILES>
CC(=O)OC1CC2C(CCCC2(C)C(=O)O)(C3C14CC(CC3)C(=C)C4=O)C

> <PUBCHEM_OPENEYE_ISO_SMILES>
CC(=O)OC1CC2C(CCCC2(C)C(=O)O)(C3C14CC(CC3)C(=C)C4=O)C

> <PUBCHEM_CACTVS_TPSA>
80.7

> <PUBCHEM_MONOISOTOPIC_WEIGHT>
374.209324

> <PUBCHEM_TOTAL_CHARGE>
0

> <PUBCHEM_HEAVY_ATOM_COUNT>
27

> <PUBCHEM_ATOM_DEF_STEREO_COUNT>
0

> <PUBCHEM_ATOM_UDEF_STEREO_COUNT>
7

> <PUBCHEM_BOND_DEF_STEREO_COUNT>
0

> <PUBCHEM_BOND_UDEF_STEREO_COUNT>
0

> <PUBCHEM_ISOTOPIC_ATOM_COUNT>
0

> <PUBCHEM_COMPONENT_COUNT>
1

> <PUBCHEM_CACTVS_TAUTO_COUNT>
1

> <PUBCHEM_COORDINATE_TYPE>
1
5
255

> <PUBCHEM_BONDANNOTATIONS>
10  1  3
15  11  3
13  23  3
6  19  3
7  14  3
8  11  3
9  12  3

$$$$

