46174027
  -OEChem-07051213113D

 65 66  0     1  0  0  0  0  0999 V2000
    1.5218    0.0061    0.0680 O   0  0  0  0  0  0  0  0  0  0  0  0
   -1.8563    2.6849    1.8085 O   0  0  0  0  0  0  0  0  0  0  0  0
   -1.0037    1.3269   -2.2179 O   0  0  0  0  0  0  0  0  0  0  0  0
    3.3321   -1.0151   -1.0503 O   0  0  0  0  0  0  0  0  0  0  0  0
   -2.7523   -1.5248    0.4855 O   0  0  0  0  0  0  0  0  0  0  0  0
   -2.7891    0.7207   -0.1351 N   0  0  0  0  0  0  0  0  0  0  0  0
    1.0040    3.3417   -1.4397 N   0  0  0  0  0  0  0  0  0  0  0  0
    0.5094   -2.5609    0.8200 N   0  0  0  0  0  0  0  0  0  0  0  0
    6.6751   -0.4565    0.3925 N   0  0  0  0  0  0  0  0  0  0  0  0
   -5.2795   -2.0217   -0.0322 N   0  0  0  0  0  0  0  0  0  0  0  0
   -7.2746   -3.3983   -0.1856 N   0  0  0  0  0  0  0  0  0  0  0  0
    0.9600    0.9369   -0.8589 C   0  0  1  0  0  0  0  0  0  0  0  0
   -1.3910    0.9794    0.1433 C   0  0  1  0  0  0  0  0  0  0  0  0
   -0.5267    0.6125   -1.0768 C   0  0  1  0  0  0  0  0  0  0  0  0
    1.2136    2.3736   -0.3611 C   0  0  2  0  0  0  0  0  0  0  0  0
   -1.1725    2.4364    0.5798 C   0  0  2  0  0  0  0  0  0  0  0  0
    0.3119    2.7232    0.8294 C   0  0  0  0  0  0  0  0  0  0  0  0
    1.9823   -1.1609   -0.5927 C   0  0  1  0  0  0  0  0  0  0  0  0
    1.8722   -2.3874    0.3250 C   0  0  1  0  0  0  0  0  0  0  0  0
    2.8525   -2.2776    1.4957 C   0  0  0  0  0  0  0  0  0  0  0  0
    4.2781   -0.8315    0.0093 C   0  0  1  0  0  0  0  0  0  0  0  0
    4.2619   -2.0253    0.9661 C   0  0  0  0  0  0  0  0  0  0  0  0
   -3.5558    1.8611   -0.6368 C   0  0  0  0  0  0  0  0  0  0  0  0
   -3.3712   -0.5440    0.0640 C   0  0  0  0  0  0  0  0  0  0  0  0
    5.6524   -0.6590   -0.6241 C   0  0  0  0  0  0  0  0  0  0  0  0
   -2.0845    4.0721    1.9994 C   0  0  0  0  0  0  0  0  0  0  0  0
   -4.8446   -0.6461   -0.2763 C   0  0  0  0  0  0  0  0  0  0  0  0
    7.9904   -0.3021   -0.2145 C   0  0  0  0  0  0  0  0  0  0  0  0
   -6.5158   -2.2645   -0.2847 C   0  0  0  0  0  0  0  0  0  0  0  0
    1.4928    0.8438   -1.8173 H   0  0  0  0  0  0  0  0  0  0  0  0
   -1.1042    0.3221    0.9753 H   0  0  0  0  0  0  0  0  0  0  0  0
   -0.6649   -0.4527   -1.2929 H   0  0  0  0  0  0  0  0  0  0  0  0
    2.2563    2.4560   -0.0294 H   0  0  0  0  0  0  0  0  0  0  0  0
   -1.5078    3.1417   -0.1886 H   0  0  0  0  0  0  0  0  0  0  0  0
    0.6414    2.1489    1.7068 H   0  0  0  0  0  0  0  0  0  0  0  0
    0.4723    3.7715    1.1073 H   0  0  0  0  0  0  0  0  0  0  0  0
    1.3774   -1.3689   -1.4846 H   0  0  0  0  0  0  0  0  0  0  0  0
    2.1477   -3.2768   -0.2570 H   0  0  0  0  0  0  0  0  0  0  0  0
    2.5633   -1.4578    2.1661 H   0  0  0  0  0  0  0  0  0  0  0  0
    2.8440   -3.1975    2.0928 H   0  0  0  0  0  0  0  0  0  0  0  0
    1.2240    4.2797   -1.1072 H   0  0  0  0  0  0  0  0  0  0  0  0
    1.6498    3.1490   -2.2042 H   0  0  0  0  0  0  0  0  0  0  0  0
    4.0188    0.0867    0.5530 H   0  0  0  0  0  0  0  0  0  0  0  0
    4.5974   -2.9273    0.4380 H   0  0  0  0  0  0  0  0  0  0  0  0
    4.9387   -1.8697    1.8132 H   0  0  0  0  0  0  0  0  0  0  0  0
   -0.4717    1.0472   -2.9822 H   0  0  0  0  0  0  0  0  0  0  0  0
   -3.8162    2.5196    0.1952 H   0  0  0  0  0  0  0  0  0  0  0  0
   -4.4973    1.5691   -1.1018 H   0  0  0  0  0  0  0  0  0  0  0  0
   -3.0104    2.4070   -1.4091 H   0  0  0  0  0  0  0  0  0  0  0  0
    5.8847   -1.5419   -1.2341 H   0  0  0  0  0  0  0  0  0  0  0  0
    5.6212    0.1925   -1.3163 H   0  0  0  0  0  0  0  0  0  0  0  0
   -0.1290   -2.6805    0.0348 H   0  0  0  0  0  0  0  0  0  0  0  0
    0.4503   -3.4143    1.3738 H   0  0  0  0  0  0  0  0  0  0  0  0
   -2.7217    4.1867    2.8814 H   0  0  0  0  0  0  0  0  0  0  0  0
   -2.6104    4.5141    1.1473 H   0  0  0  0  0  0  0  0  0  0  0  0
   -1.1552    4.6124    2.1947 H   0  0  0  0  0  0  0  0  0  0  0  0
   -4.9814   -0.4179   -1.3388 H   0  0  0  0  0  0  0  0  0  0  0  0
   -5.4095    0.0497    0.3538 H   0  0  0  0  0  0  0  0  0  0  0  0
    6.4549    0.3752    0.9397 H   0  0  0  0  0  0  0  0  0  0  0  0
    8.2734   -1.1958   -0.7801 H   0  0  0  0  0  0  0  0  0  0  0  0
    8.7391   -0.1596    0.5709 H   0  0  0  0  0  0  0  0  0  0  0  0
    8.0275    0.5688   -0.8770 H   0  0  0  0  0  0  0  0  0  0  0  0
   -7.1513   -1.4412   -0.6589 H   0  0  0  0  0  0  0  0  0  0  0  0
   -6.8738   -4.2706    0.1415 H   0  0  0  0  0  0  0  0  0  0  0  0
   -8.2580   -3.4037   -0.4348 H   0  0  0  0  0  0  0  0  0  0  0  0
  1 12  1  0  0  0  0
  1 18  1  0  0  0  0
  2 16  1  0  0  0  0
  2 26  1  0  0  0  0
  3 14  1  0  0  0  0
  3 46  1  0  0  0  0
  4 18  1  0  0  0  0
  4 21  1  0  0  0  0
  5 24  2  0  0  0  0
  6 13  1  0  0  0  0
  6 23  1  0  0  0  0
  6 24  1  0  0  0  0
  7 15  1  0  0  0  0
  7 41  1  0  0  0  0
  7 42  1  0  0  0  0
  8 19  1  0  0  0  0
  8 52  1  0  0  0  0
  8 53  1  0  0  0  0
  9 25  1  0  0  0  0
  9 28  1  0  0  0  0
  9 59  1  0  0  0  0
 10 27  1  0  0  0  0
 10 29  2  0  0  0  0
 11 29  1  0  0  0  0
 11 64  1  0  0  0  0
 11 65  1  0  0  0  0
 12 14  1  0  0  0  0
 12 15  1  0  0  0  0
 12 30  1  0  0  0  0
 13 14  1  0  0  0  0
 13 16  1  0  0  0  0
 13 31  1  0  0  0  0
 14 32  1  0  0  0  0
 15 17  1  0  0  0  0
 15 33  1  0  0  0  0
 16 17  1  0  0  0  0
 16 34  1  0  0  0  0
 17 35  1  0  0  0  0
 17 36  1  0  0  0  0
 18 19  1  0  0  0  0
 18 37  1  0  0  0  0
 19 20  1  0  0  0  0
 19 38  1  0  0  0  0
 20 22  1  0  0  0  0
 20 39  1  0  0  0  0
 20 40  1  0  0  0  0
 21 22  1  0  0  0  0
 21 25  1  0  0  0  0
 21 43  1  0  0  0  0
 22 44  1  0  0  0  0
 22 45  1  0  0  0  0
 23 47  1  0  0  0  0
 23 48  1  0  0  0  0
 23 49  1  0  0  0  0
 24 27  1  0  0  0  0
 25 50  1  0  0  0  0
 25 51  1  0  0  0  0
 26 54  1  0  0  0  0
 26 55  1  0  0  0  0
 26 56  1  0  0  0  0
 27 57  1  0  0  0  0
 27 58  1  0  0  0  0
 28 60  1  0  0  0  0
 28 61  1  0  0  0  0
 28 62  1  0  0  0  0
 29 63  1  0  0  0  0
M  END
> <PUBCHEM_COMPOUND_CID>
46174027

> <PUBCHEM_CONFORMER_RMSD>
1

> <PUBCHEM_CONFORMER_DIVERSEORDER>
1
13
34
33
30
10
32
9
11
28
24
23
29
12
7
21
35
6
27
17
22
26
31
16
2
8
20
3
19
14
25
15
18
5
4

> <PUBCHEM_MMFF94_PARTIAL_CHARGES>
35
1 -0.56
10 -0.7
11 -0.85
12 0.28
13 0.3
14 0.28
15 0.27
16 0.28
18 0.56
19 0.27
2 -0.56
21 0.28
23 0.3
24 0.57
25 0.27
26 0.28
27 0.31
28 0.27
29 0.44
3 -0.68
4 -0.56
41 0.36
42 0.36
46 0.4
5 -0.57
52 0.36
53 0.36
59 0.36
6 -0.66
63 0.06
64 0.4
65 0.4
7 -0.99
8 -0.99
9 -0.9

> <PUBCHEM_EFFECTIVE_ROTOR_COUNT>
11.4

> <PUBCHEM_PHARMACOPHORE_FEATURES>
16
1 1 acceptor
1 11 donor
1 2 acceptor
1 3 acceptor
1 3 donor
1 4 acceptor
1 5 acceptor
1 7 cation
1 7 donor
1 8 cation
1 8 donor
1 9 cation
1 9 donor
3 10 11 29 cation
6 12 13 14 15 16 17 rings
6 4 18 19 20 21 22 rings

> <PUBCHEM_HEAVY_ATOM_COUNT>
29

> <PUBCHEM_ATOM_DEF_STEREO_COUNT>
8

> <PUBCHEM_ATOM_UDEF_STEREO_COUNT>
0

> <PUBCHEM_BOND_DEF_STEREO_COUNT>
0

> <PUBCHEM_BOND_UDEF_STEREO_COUNT>
0

> <PUBCHEM_ISOTOPIC_ATOM_COUNT>
0

> <PUBCHEM_COMPONENT_COUNT>
1

> <PUBCHEM_CACTVS_TAUTO_COUNT>
2

> <PUBCHEM_CONFORMER_ID>
02C08F4B00000001

> <PUBCHEM_MMFF94_ENERGY>
68.7993

> <PUBCHEM_FEATURE_SELFOVERLAP>
81.23

> <PUBCHEM_SHAPE_FINGERPRINT>
10366900 7 17750814313642957552
1100329 8 18268709411769015838
12788726 201 18335984259138298051
13533116 47 18192993717635438523
13631057 29 18411418423193448834
14068700 675 18410009910185779585
14341114 328 18194400216012951560
14787075 74 18201719570313886902
14931854 50 18131634495356490463
15927050 60 17687466763390017932
17980427 26 17465677684719928557
20028762 73 18334573508099843990
20567600 70 18411702045743880995
20681651 13 17984428700406041200
20775530 9 18339092510112056799
21033648 29 16082513247765649216
23559900 14 18342469114653146445
23622692 118 18411981334850906309
2747138 104 18187647981741220962
2838139 119 9727626203169373659
3380486 145 17773303754664384060
392239 28 18409724080539512176
463206 1 18264770948634489911
469060 322 18130500950829516340
484989 97 17843957045163656051
5486654 2 18343580772585377654
9896288 288 17969496189849592658

> <PUBCHEM_SHAPE_MULTIPOLES>
537.57
14.68
4.38
1.38
6.2
2.05
0.11
-14.77
-0.81
-5.32
1.6
-0.02
0.99
-1.68

> <PUBCHEM_SHAPE_SELFOVERLAP>
1079.128

> <PUBCHEM_SHAPE_VOLUME>
312

> <PUBCHEM_COORDINATE_TYPE>
2
5
10

$$$$

