13807
  -OEChem-06241222403D

 63 66  0     0  0  0  0  0  0999 V2000
   -0.1494    2.2124   -0.1410 O   0  0  0  0  0  0  0  0  0  0  0  0
    1.2699   -2.4171    1.9107 O   0  0  0  0  0  0  0  0  0  0  0  0
   -0.9985   -2.3350    2.2933 O   0  0  0  0  0  0  0  0  0  0  0  0
    4.6001    2.4808   -0.4944 N   0  0  0  0  0  0  0  0  0  0  0  0
   -4.9050    2.1968    0.2437 N   0  0  0  0  0  0  0  0  0  0  0  0
   -0.2059   -0.6069   -0.6381 C   0  0  0  0  0  0  0  0  0  0  0  0
    1.0610    0.1686   -0.6066 C   0  0  0  0  0  0  0  0  0  0  0  0
   -1.3666    0.0710   -0.4210 C   0  0  0  0  0  0  0  0  0  0  0  0
    1.0227    1.5407   -0.3591 C   0  0  0  0  0  0  0  0  0  0  0  0
   -1.3492    1.5162   -0.1660 C   0  0  0  0  0  0  0  0  0  0  0  0
   -0.2432   -2.0518   -0.8917 C   0  0  0  0  0  0  0  0  0  0  0  0
    2.3144   -0.4291   -0.8190 C   0  0  0  0  0  0  0  0  0  0  0  0
    3.4873    0.3303   -0.7829 C   0  0  0  0  0  0  0  0  0  0  0  0
    3.4266    1.6978   -0.5343 C   0  0  0  0  0  0  0  0  0  0  0  0
   -2.6767   -0.5936   -0.4298 C   0  0  0  0  0  0  0  0  0  0  0  0
    2.1930    2.3052   -0.3218 C   0  0  0  0  0  0  0  0  0  0  0  0
   -3.8350    0.0550   -0.2203 C   0  0  0  0  0  0  0  0  0  0  0  0
   -2.4826    2.1971    0.0473 C   0  0  0  0  0  0  0  0  0  0  0  0
   -3.8120    1.5310    0.0377 C   0  0  0  0  0  0  0  0  0  0  0  0
   -0.1630   -2.9668    0.1514 C   0  0  0  0  0  0  0  0  0  0  0  0
   -0.3609   -2.4842   -2.2077 C   0  0  0  0  0  0  0  0  0  0  0  0
    4.7955   -0.3538   -1.0168 C   0  0  0  0  0  0  0  0  0  0  0  0
   -5.1652   -0.6340   -0.2290 C   0  0  0  0  0  0  0  0  0  0  0  0
   -0.2009   -4.3335   -0.1252 C   0  0  0  0  0  0  0  0  0  0  0  0
    4.6593    3.7576    0.1463 C   0  0  0  0  0  0  0  0  0  0  0  0
   -0.3987   -3.8510   -2.4840 C   0  0  0  0  0  0  0  0  0  0  0  0
   -0.3187   -4.7755   -1.4428 C   0  0  0  0  0  0  0  0  0  0  0  0
   -0.0398   -2.5464    1.5424 C   0  0  0  0  0  0  0  0  0  0  0  0
   -4.7033    3.6172    0.4778 C   0  0  0  0  0  0  0  0  0  0  0  0
    6.0552    4.3510    0.0599 C   0  0  0  0  0  0  0  0  0  0  0  0
   -6.0494    4.2807    0.6843 C   0  0  0  0  0  0  0  0  0  0  0  0
    1.5219   -2.0089    3.2596 C   0  0  0  0  0  0  0  0  0  0  0  0
    3.0174   -1.9220    3.4774 C   0  0  0  0  0  0  0  0  0  0  0  0
    2.3875   -1.4964   -1.0151 H   0  0  0  0  0  0  0  0  0  0  0  0
   -2.7270   -1.6623   -0.6120 H   0  0  0  0  0  0  0  0  0  0  0  0
    2.1002    3.3700   -0.1293 H   0  0  0  0  0  0  0  0  0  0  0  0
   -2.3802    3.2596    0.2291 H   0  0  0  0  0  0  0  0  0  0  0  0
   -0.4236   -1.7770   -3.0310 H   0  0  0  0  0  0  0  0  0  0  0  0
    5.4733    2.0254   -0.7330 H   0  0  0  0  0  0  0  0  0  0  0  0
    5.2836    0.0462   -1.9117 H   0  0  0  0  0  0  0  0  0  0  0  0
    5.4556   -0.2282   -0.1521 H   0  0  0  0  0  0  0  0  0  0  0  0
    4.6701   -1.4313   -1.1708 H   0  0  0  0  0  0  0  0  0  0  0  0
   -5.6637   -0.5173    0.7388 H   0  0  0  0  0  0  0  0  0  0  0  0
   -5.0699   -1.7076   -0.4238 H   0  0  0  0  0  0  0  0  0  0  0  0
   -5.8096   -0.2131   -1.0077 H   0  0  0  0  0  0  0  0  0  0  0  0
   -0.1396   -5.0642    0.6773 H   0  0  0  0  0  0  0  0  0  0  0  0
    4.3752    3.6709    1.2016 H   0  0  0  0  0  0  0  0  0  0  0  0
    3.9757    4.4663   -0.3346 H   0  0  0  0  0  0  0  0  0  0  0  0
   -0.4903   -4.1953   -3.5100 H   0  0  0  0  0  0  0  0  0  0  0  0
   -0.3481   -5.8397   -1.6582 H   0  0  0  0  0  0  0  0  0  0  0  0
   -4.1154    3.7987    1.3859 H   0  0  0  0  0  0  0  0  0  0  0  0
   -4.2397    4.1097   -0.3860 H   0  0  0  0  0  0  0  0  0  0  0  0
    6.7880    3.7021    0.5514 H   0  0  0  0  0  0  0  0  0  0  0  0
    6.3650    4.4752   -0.9832 H   0  0  0  0  0  0  0  0  0  0  0  0
    6.0856    5.3311    0.5460 H   0  0  0  0  0  0  0  0  0  0  0  0
   -5.9274    5.3536    0.8628 H   0  0  0  0  0  0  0  0  0  0  0  0
   -6.6898    4.1494   -0.1944 H   0  0  0  0  0  0  0  0  0  0  0  0
   -6.5720    3.8469    1.5435 H   0  0  0  0  0  0  0  0  0  0  0  0
    1.0637   -1.0289    3.4335 H   0  0  0  0  0  0  0  0  0  0  0  0
    1.0874   -2.7414    3.9486 H   0  0  0  0  0  0  0  0  0  0  0  0
    3.4667   -1.2068    2.7802 H   0  0  0  0  0  0  0  0  0  0  0  0
    3.4913   -2.8907    3.2877 H   0  0  0  0  0  0  0  0  0  0  0  0
    3.2465   -1.6103    4.5002 H   0  0  0  0  0  0  0  0  0  0  0  0
  1  9  1  0  0  0  0
  1 10  1  0  0  0  0
  2 28  1  0  0  0  0
  2 32  1  0  0  0  0
  3 28  2  0  0  0  0
  4 14  1  0  0  0  0
  4 25  1  0  0  0  0
  4 39  1  0  0  0  0
  5 19  2  0  0  0  0
  5 29  1  0  0  0  0
  6  7  1  0  0  0  0
  6  8  2  0  0  0  0
  6 11  1  0  0  0  0
  7  9  2  0  0  0  0
  7 12  1  0  0  0  0
  8 10  1  0  0  0  0
  8 15  1  0  0  0  0
  9 16  1  0  0  0  0
 10 18  2  0  0  0  0
 11 20  1  0  0  0  0
 11 21  2  0  0  0  0
 12 13  2  0  0  0  0
 12 34  1  0  0  0  0
 13 14  1  0  0  0  0
 13 22  1  0  0  0  0
 14 16  2  0  0  0  0
 15 17  2  0  0  0  0
 15 35  1  0  0  0  0
 16 36  1  0  0  0  0
 17 19  1  0  0  0  0
 17 23  1  0  0  0  0
 18 19  1  0  0  0  0
 18 37  1  0  0  0  0
 20 24  2  0  0  0  0
 20 28  1  0  0  0  0
 21 26  1  0  0  0  0
 21 38  1  0  0  0  0
 22 40  1  0  0  0  0
 22 41  1  0  0  0  0
 22 42  1  0  0  0  0
 23 43  1  0  0  0  0
 23 44  1  0  0  0  0
 23 45  1  0  0  0  0
 24 27  1  0  0  0  0
 24 46  1  0  0  0  0
 25 30  1  0  0  0  0
 25 47  1  0  0  0  0
 25 48  1  0  0  0  0
 26 27  2  0  0  0  0
 26 49  1  0  0  0  0
 27 50  1  0  0  0  0
 29 31  1  0  0  0  0
 29 51  1  0  0  0  0
 29 52  1  0  0  0  0
 30 53  1  0  0  0  0
 30 54  1  0  0  0  0
 30 55  1  0  0  0  0
 31 56  1  0  0  0  0
 31 57  1  0  0  0  0
 31 58  1  0  0  0  0
 32 33  1  0  0  0  0
 32 59  1  0  0  0  0
 32 60  1  0  0  0  0
 33 61  1  0  0  0  0
 33 62  1  0  0  0  0
 33 63  1  0  0  0  0
M  END
> <PUBCHEM_COMPOUND_CID>
13807

> <PUBCHEM_CONFORMER_RMSD>
1

> <PUBCHEM_CONFORMER_DIVERSEORDER>
1
5
4
3
7
2
6
8

> <PUBCHEM_MMFF94_PARTIAL_CHARGES>
38
1 -0.16
10 0.08
11 0.03
12 -0.15
13 -0.14
14 0.1
15 -0.15
16 -0.15
17 -0.12
18 -0.14
19 0.42
2 -0.43
20 0.09
21 -0.15
22 0.14
23 0.14
24 -0.15
25 0.37
26 -0.15
27 -0.15
28 0.63
29 0.25
3 -0.57
32 0.28
34 0.15
35 0.15
36 0.15
37 0.15
38 0.15
39 0.4
4 -0.87
46 0.15
49 0.15
5 -0.7
50 0.15
6 -0.06
7 0.03
9 0.08

> <PUBCHEM_EFFECTIVE_ROTOR_COUNT>
7

> <PUBCHEM_PHARMACOPHORE_FEATURES>
9
1 1 acceptor
1 3 acceptor
1 4 cation
1 4 donor
1 5 acceptor
6 1 6 7 8 9 10 rings
6 11 20 21 24 26 27 rings
6 7 9 12 13 14 16 rings
6 8 10 15 17 18 19 rings

> <PUBCHEM_HEAVY_ATOM_COUNT>
33

> <PUBCHEM_ATOM_DEF_STEREO_COUNT>
0

> <PUBCHEM_ATOM_UDEF_STEREO_COUNT>
0

> <PUBCHEM_BOND_DEF_STEREO_COUNT>
0

> <PUBCHEM_BOND_UDEF_STEREO_COUNT>
0

> <PUBCHEM_ISOTOPIC_ATOM_COUNT>
0

> <PUBCHEM_COMPONENT_COUNT>
1

> <PUBCHEM_CACTVS_TAUTO_COUNT>
1

> <PUBCHEM_CONFORMER_ID>
000035EF00000001

> <PUBCHEM_MMFF94_ENERGY>
116.8252

> <PUBCHEM_FEATURE_SELFOVERLAP>
45.725

> <PUBCHEM_SHAPE_FINGERPRINT>
10006869 2 18270970025193365499
10411042 1 17039780137534472735
10675989 125 18116984688259062888
11007060 377 18338226051567621520
11297010 23 18046349909986560421
11421498 54 17168405161206805907
11578080 2 16229146033890935922
12156800 1 17608397669163882210
12788726 201 18049175366521319015
13140716 1 18337387244365022477
14028597 1 17698187065874627058
14790565 3 18335696152558229893
14844126 61 17831019027276942428
14955137 171 18053955223346816802
15361156 5 17836630943632505092
15420108 30 18337123344510089893
15475509 35 16412642761405681777
15664445 248 17975970191665677046
16087824 20 18046345229047220231
17980427 23 18051440618557352987
20101258 96 17543625327576021900
21421861 104 17769650133565041617
23559900 14 17756144845489837975
3380486 145 17760067532819420170
3411729 13 18125430058857225845
376196 1 18339917212114515645
394222 165 18341053003135888569
9841814 1 17624969831030216929
9981440 41 18410567371461316193

> <PUBCHEM_SHAPE_MULTIPOLES>
651.55
10
6.79
2.19
1.75
0.51
2.28
-18.25
0.59
-0.03
-0.56
-1.77
3.36
-2.31

> <PUBCHEM_SHAPE_SELFOVERLAP>
1412.316

> <PUBCHEM_SHAPE_VOLUME>
357.2

> <PUBCHEM_COORDINATE_TYPE>
2
5
10

$$$$

