6325056
  -OEChem-07051212572D

 45 47  0     1  0  0  0  0  0999 V2000
    5.2543    2.1442    0.0000 O   0  0  0  0  0  0  0  0  0  0  0  0
    6.6022   -0.6940    0.0000 O   0  0  0  0  0  0  0  0  0  0  0  0
    2.8734   -1.8680    0.0000 O   0  0  0  0  0  0  0  0  0  0  0  0
    6.8421    2.9533    0.0000 O   0  0  0  0  0  0  0  0  0  0  0  0
    4.3397   -2.8534    0.0000 O   0  0  0  0  0  0  0  0  0  0  0  0
    6.0741   -2.3436    0.0000 O   0  0  0  0  0  0  0  0  0  0  0  0
    5.7543    0.6054    0.0000 C   0  0  2  0  0  0  0  0  0  0  0  0
    5.6498   -0.3891    0.0000 C   0  0  2  0  0  0  0  0  0  0  0  0
    4.9453    1.1932    0.0000 C   0  0  1  0  0  0  0  0  0  0  0  0
    5.2620   -1.4451    0.0000 C   0  0  0  0  0  0  0  0  0  0  0  0
    6.5633    1.1932    0.0000 C   0  0  0  0  0  0  0  0  0  0  0  0
    4.3284   -1.0868    0.0000 C   0  0  0  0  0  0  0  0  0  0  0  0
    4.0317    0.7865    0.0000 C   0  0  0  0  0  0  0  0  0  0  0  0
    2.6058   -0.9057    0.0000 C   0  0  2  0  0  0  0  0  0  0  0  0
    2.4494    0.0820    0.0000 C   0  0  0  0  0  0  0  0  0  0  0  0
    3.0372    0.8910    0.0000 C   0  0  0  0  0  0  0  0  0  0  0  0
    3.4149   -1.4935    0.0000 C   0  0  0  0  0  0  0  0  0  0  0  0
    6.2543    2.1442    0.0000 C   0  0  0  0  0  0  0  0  0  0  0  0
    3.8667   -1.9724    0.0000 C   0  0  0  0  0  0  0  0  0  0  0  0
    7.5144    0.8842    0.0000 C   0  0  0  0  0  0  0  0  0  0  0  0
    2.6305    1.8045    0.0000 C   0  0  0  0  0  0  0  0  0  0  0  0
    6.8143   -1.6712    0.0000 C   0  0  0  0  0  0  0  0  0  0  0  0
    7.7667   -1.9760    0.0000 C   0  0  0  0  0  0  0  0  0  0  0  0
    7.9789   -2.9533    0.0000 C   0  0  0  0  0  0  0  0  0  0  0  0
    8.5070   -1.3037    0.0000 C   0  0  0  0  0  0  0  0  0  0  0  0
    6.4419    0.1058    0.0000 H   0  0  0  0  0  0  0  0  0  0  0  0
    6.1690   -0.0503    0.0000 H   0  0  0  0  0  0  0  0  0  0  0  0
    4.2576    1.6928    0.0000 H   0  0  0  0  0  0  0  0  0  0  0  0
    5.0426   -2.0250    0.0000 H   0  0  0  0  0  0  0  0  0  0  0  0
    5.8429   -1.6617    0.0000 H   0  0  0  0  0  0  0  0  0  0  0  0
    4.1287    0.1741    0.0000 H   0  0  0  0  0  0  0  0  0  0  0  0
    1.7752   -1.0863    0.0000 H   0  0  0  0  0  0  0  0  0  0  0  0
    2.0592    0.5638    0.0000 H   0  0  0  0  0  0  0  0  0  0  0  0
    1.8830   -0.1702    0.0000 H   0  0  0  0  0  0  0  0  0  0  0  0
    3.3500   -2.1101    0.0000 H   0  0  0  0  0  0  0  0  0  0  0  0
    7.6432    0.2777    0.0000 H   0  0  0  0  0  0  0  0  0  0  0  0
    7.9751    1.2990    0.0000 H   0  0  0  0  0  0  0  0  0  0  0  0
    3.1968    2.0567    0.0000 H   0  0  0  0  0  0  0  0  0  0  0  0
    2.3783    2.3709    0.0000 H   0  0  0  0  0  0  0  0  0  0  0  0
    2.0641    1.5523    0.0000 H   0  0  0  0  0  0  0  0  0  0  0  0
    7.3730   -3.0848    0.0000 H   0  0  0  0  0  0  0  0  0  0  0  0
    8.1105   -3.5592    0.0000 H   0  0  0  0  0  0  0  0  0  0  0  0
    8.5848   -2.8217    0.0000 H   0  0  0  0  0  0  0  0  0  0  0  0
    9.0974   -1.4927    0.0000 H   0  0  0  0  0  0  0  0  0  0  0  0
    8.3754   -0.6978    0.0000 H   0  0  0  0  0  0  0  0  0  0  0  0
  1  9  1  0  0  0  0
  1 18  1  0  0  0  0
  8  2  1  1  0  0  0
  2 22  1  0  0  0  0
  3 14  1  0  0  0  0
  3 19  1  0  0  0  0
  4 18  2  0  0  0  0
  5 19  2  0  0  0  0
  6 22  2  0  0  0  0
  7  8  1  0  0  0  0
  7  9  1  0  0  0  0
  7 11  1  0  0  0  0
  7 26  1  1  0  0  0
  8 10  1  0  0  0  0
  8 27  1  0  0  0  0
  9 13  1  0  0  0  0
  9 28  1  6  0  0  0
 10 12  1  0  0  0  0
 10 29  1  0  0  0  0
 10 30  1  0  0  0  0
 11 18  1  0  0  0  0
 11 20  2  0  0  0  0
 12 17  2  0  0  0  0
 12 19  1  0  0  0  0
 13 16  2  0  0  0  0
 13 31  1  0  0  0  0
 14 15  1  0  0  0  0
 14 17  1  0  0  0  0
 14 32  1  1  0  0  0
 15 16  1  0  0  0  0
 15 33  1  0  0  0  0
 15 34  1  0  0  0  0
 16 21  1  0  0  0  0
 17 35  1  0  0  0  0
 20 36  1  0  0  0  0
 20 37  1  0  0  0  0
 21 38  1  0  0  0  0
 21 39  1  0  0  0  0
 21 40  1  0  0  0  0
 22 23  1  0  0  0  0
 23 24  1  0  0  0  0
 23 25  2  0  0  0  0
 24 41  1  0  0  0  0
 24 42  1  0  0  0  0
 24 43  1  0  0  0  0
 25 44  1  0  0  0  0
 25 45  1  0  0  0  0
M  END
> <PUBCHEM_COMPOUND_CID>
6325056

> <PUBCHEM_COMPOUND_CANONICALIZED>
1

> <PUBCHEM_CACTVS_COMPLEXITY>
741

> <PUBCHEM_CACTVS_HBOND_ACCEPTOR>
6

> <PUBCHEM_CACTVS_HBOND_DONOR>
0

> <PUBCHEM_CACTVS_ROTATABLE_BOND>
3

> <PUBCHEM_CACTVS_SUBSKEYS>
AAADceB4OAAAAAAAAAAAAAAAAAAAASIAAAAAAAAAAAAAAACAAAAAGgAAAAAADRSggAICCAAABACIAiDSCAAAAAAgAAAACAEAAEgABBIAIQACEAAFwAAIIYPKyDCOAAAAAAAAAAAAAAAAAAAAAAAAAAAAAA==

> <PUBCHEM_IUPAC_INCHI>
InChI=1S/C19H20O6/c1-9(2)17(20)24-15-8-12-7-13(23-19(12)22)5-10(3)6-14-16(15)11(4)18(21)25-14/h6-7,13-16H,1,4-5,8H2,2-3H3/b10-6+/t13-,14-,15+,16+/m1/s1

> <PUBCHEM_IUPAC_INCHIKEY>
JMUOPRSXUVOHFE-GZZMZBIISA-N

> <PUBCHEM_XLOGP3_AA>
2.4

> <PUBCHEM_EXACT_MASS>
344.125988

> <PUBCHEM_MOLECULAR_FORMULA>
C19H20O6

> <PUBCHEM_MOLECULAR_WEIGHT>
344.3585

> <PUBCHEM_OPENEYE_CAN_SMILES>
CC1=CC2C(C(CC3=CC(C1)OC3=O)OC(=O)C(=C)C)C(=C)C(=O)O2

> <PUBCHEM_OPENEYE_ISO_SMILES>
C/C/1=C\[C@@H]2[C@@H]([C@H](CC3=C[C@@H](C1)OC3=O)OC(=O)C(=C)C)C(=C)C(=O)O2

> <PUBCHEM_CACTVS_TPSA>
78.9

> <PUBCHEM_MONOISOTOPIC_WEIGHT>
344.125988

> <PUBCHEM_TOTAL_CHARGE>
0

> <PUBCHEM_HEAVY_ATOM_COUNT>
25

> <PUBCHEM_ATOM_DEF_STEREO_COUNT>
4

> <PUBCHEM_ATOM_UDEF_STEREO_COUNT>
0

> <PUBCHEM_BOND_DEF_STEREO_COUNT>
1

> <PUBCHEM_BOND_UDEF_STEREO_COUNT>
0

> <PUBCHEM_ISOTOPIC_ATOM_COUNT>
0

> <PUBCHEM_COMPONENT_COUNT>
1

> <PUBCHEM_CACTVS_TAUTO_COUNT>
1

> <PUBCHEM_COORDINATE_TYPE>
1
5
255

> <PUBCHEM_BONDANNOTATIONS>
14  32  5
8  2  5
7  26  5
9  28  6

$$$$

