12311059
  -OEChem-07051213152D

 52 55  0     1  0  0  0  0  0999 V2000
    3.8778   -0.1465    0.0000 C   0  0  1  0  0  0  0  0  0  0  0  0
    4.7853    0.3648    0.0000 C   0  0  1  0  0  0  0  0  0  0  0  0
    5.6538   -0.1308    0.0000 C   0  0  1  0  0  0  0  0  0  0  0  0
    3.8750   -1.1882    0.0000 C   0  0  1  0  0  0  0  0  0  0  0  0
    5.6751   -1.1722    0.0000 C   0  0  0  0  0  0  0  0  0  0  0  0
    2.9423   -1.7425    0.0000 C   0  0  0  0  0  0  0  0  0  0  0  0
    5.6293    1.0505    0.0000 C   0  0  0  0  0  0  0  0  0  0  0  0
    4.7797   -1.7045    0.0000 C   0  0  0  0  0  0  0  0  0  0  0  0
    4.6313    1.3529    0.0000 C   0  0  0  0  0  0  0  0  0  0  0  0
    6.3054    2.0196    0.0000 C   0  0  1  0  0  0  0  0  0  0  0  0
    2.9482    0.4129    0.0000 C   0  0  0  0  0  0  0  0  0  0  0  0
    5.3078    2.0894    0.0000 C   0  0  0  0  0  0  0  0  0  0  0  0
    6.5828    0.2391    0.0000 C   0  0  0  0  0  0  0  0  0  0  0  0
    2.0000   -1.2047    0.0000 C   0  0  0  0  0  0  0  0  0  0  0  0
    3.5384    0.7941    0.0000 C   0  0  0  0  0  0  0  0  0  0  0  0
    2.0029   -0.1197    0.0000 C   0  0  0  0  0  0  0  0  0  0  0  0
    6.8728    1.1962    0.0000 C   0  0  0  0  0  0  0  0  0  0  0  0
    2.4500   -2.6130    0.0000 C   0  0  0  0  0  0  0  0  0  0  0  0
    3.4500   -2.6041    0.0000 C   0  0  0  0  0  0  0  0  0  0  0  0
    7.8609    1.3502    0.0000 C   0  0  0  0  0  0  0  0  0  0  0  0
    4.0471    0.7862    0.0000 H   0  0  0  0  0  0  0  0  0  0  0  0
    3.8825   -2.0381    0.0000 H   0  0  0  0  0  0  0  0  0  0  0  0
    5.8960   -1.7516    0.0000 H   0  0  0  0  0  0  0  0  0  0  0  0
    6.2836   -1.0537    0.0000 H   0  0  0  0  0  0  0  0  0  0  0  0
    5.2551    1.5448    0.0000 H   0  0  0  0  0  0  0  0  0  0  0  0
    5.0436    0.8471    0.0000 H   0  0  0  0  0  0  0  0  0  0  0  0
    4.3847   -2.1824    0.0000 H   0  0  0  0  0  0  0  0  0  0  0  0
    5.1830   -2.1754    0.0000 H   0  0  0  0  0  0  0  0  0  0  0  0
    4.2795    1.8634    0.0000 H   0  0  0  0  0  0  0  0  0  0  0  0
    4.0553    1.1235    0.0000 H   0  0  0  0  0  0  0  0  0  0  0  0
    6.5519    2.8331    0.0000 H   0  0  0  0  0  0  0  0  0  0  0  0
    3.3541    0.8816    0.0000 H   0  0  0  0  0  0  0  0  0  0  0  0
    2.5559    0.8930    0.0000 H   0  0  0  0  0  0  0  0  0  0  0  0
    5.4876    2.6827    0.0000 H   0  0  0  0  0  0  0  0  0  0  0  0
    4.7694    2.3967    0.0000 H   0  0  0  0  0  0  0  0  0  0  0  0
    7.0394   -0.1803    0.0000 H   0  0  0  0  0  0  0  0  0  0  0  0
    1.3894   -1.0970    0.0000 H   0  0  0  0  0  0  0  0  0  0  0  0
    1.7894   -1.7879    0.0000 H   0  0  0  0  0  0  0  0  0  0  0  0
    4.1216    1.0046    0.0000 H   0  0  0  0  0  0  0  0  0  0  0  0
    3.3279    1.3773    0.0000 H   0  0  0  0  0  0  0  0  0  0  0  0
    2.9552    0.5836    0.0000 H   0  0  0  0  0  0  0  0  0  0  0  0
    1.7955    0.4645    0.0000 H   0  0  0  0  0  0  0  0  0  0  0  0
    1.3918   -0.2242    0.0000 H   0  0  0  0  0  0  0  0  0  0  0  0
    2.9158   -2.9188    0.0000 H   0  0  0  0  0  0  0  0  0  0  0  0
    3.7647   -3.1383    0.0000 H   0  0  0  0  0  0  0  0  0  0  0  0
    3.9841   -2.2894    0.0000 H   0  0  0  0  0  0  0  0  0  0  0  0
    1.9104   -2.3077    0.0000 H   0  0  0  0  0  0  0  0  0  0  0  0
    2.1448   -3.1526    0.0000 H   0  0  0  0  0  0  0  0  0  0  0  0
    2.9897   -2.9182    0.0000 H   0  0  0  0  0  0  0  0  0  0  0  0
    7.9564    0.7375    0.0000 H   0  0  0  0  0  0  0  0  0  0  0  0
    8.4735    1.4456    0.0000 H   0  0  0  0  0  0  0  0  0  0  0  0
    7.7654    1.9628    0.0000 H   0  0  0  0  0  0  0  0  0  0  0  0
  1  2  1  0  0  0  0
  1  4  1  0  0  0  0
  1 11  1  0  0  0  0
  1 15  1  6  0  0  0
  2  3  1  0  0  0  0
  2  9  1  0  0  0  0
  2 21  1  1  0  0  0
  3  5  1  6  0  0  0
  3  7  1  0  0  0  0
  3 13  1  0  0  0  0
  4  6  1  0  0  0  0
  4  8  1  0  0  0  0
  4 22  1  1  0  0  0
  5  8  1  0  0  0  0
  5 23  1  0  0  0  0
  5 24  1  0  0  0  0
  6 14  1  0  0  0  0
  6 18  1  0  0  0  0
  6 19  1  0  0  0  0
  7 10  1  0  0  0  0
  7 25  1  0  0  0  0
  7 26  1  0  0  0  0
  8 27  1  0  0  0  0
  8 28  1  0  0  0  0
  9 12  1  0  0  0  0
  9 29  1  0  0  0  0
  9 30  1  0  0  0  0
 10 12  1  0  0  0  0
 10 17  1  0  0  0  0
 10 31  1  6  0  0  0
 11 16  1  0  0  0  0
 11 32  1  0  0  0  0
 11 33  1  0  0  0  0
 12 34  1  0  0  0  0
 12 35  1  0  0  0  0
 13 17  2  0  0  0  0
 13 36  1  0  0  0  0
 14 16  1  0  0  0  0
 14 37  1  0  0  0  0
 14 38  1  0  0  0  0
 15 39  1  0  0  0  0
 15 40  1  0  0  0  0
 15 41  1  0  0  0  0
 16 42  1  0  0  0  0
 16 43  1  0  0  0  0
 17 20  1  0  0  0  0
 18 47  1  0  0  0  0
 18 48  1  0  0  0  0
 18 49  1  0  0  0  0
 19 44  1  0  0  0  0
 19 45  1  0  0  0  0
 19 46  1  0  0  0  0
 20 50  1  0  0  0  0
 20 51  1  0  0  0  0
 20 52  1  0  0  0  0
M  END
> <PUBCHEM_COMPOUND_CID>
12311059

> <PUBCHEM_COMPOUND_CANONICALIZED>
1

> <PUBCHEM_CACTVS_COMPLEXITY>
457

> <PUBCHEM_CACTVS_HBOND_ACCEPTOR>
0

> <PUBCHEM_CACTVS_HBOND_DONOR>
0

> <PUBCHEM_CACTVS_ROTATABLE_BOND>
0

> <PUBCHEM_CACTVS_SUBSKEYS>
AAADcfB4AAAAAAAAAAAAAAAAAAAAAQAAAAAwYMAABAAAAADAAAAAGAAAAAAADwCAAAACAAAAAACAAiBCAAAAAAAgAAAACAAAAAgAAAIAAQAAAAAAgAAIAAMAgMAPgAAAAAAAAACAAAQAACAAAAAAAAAAAA==

> <PUBCHEM_IUPAC_INCHI>
InChI=1S/C20H32/c1-14-12-20-11-8-16-18(2,3)9-5-10-19(16,4)17(20)7-6-15(14)13-20/h12,15-17H,5-11,13H2,1-4H3/t15-,16-,17+,19-,20-/m1/s1

> <PUBCHEM_IUPAC_INCHIKEY>
DQUHDYWUEKWRLN-HPUSYDDDSA-N

> <PUBCHEM_XLOGP3_AA>
6.9

> <PUBCHEM_EXACT_MASS>
272.250401

> <PUBCHEM_MOLECULAR_FORMULA>
C20H32

> <PUBCHEM_MOLECULAR_WEIGHT>
272.46808

> <PUBCHEM_OPENEYE_CAN_SMILES>
CC1=CC23CCC4C(CCCC4(C2CCC1C3)C)(C)C

> <PUBCHEM_OPENEYE_ISO_SMILES>
CC1=C[C@@]23CC[C@H]4[C@]([C@@H]2CC[C@@H]1C3)(CCCC4(C)C)C

> <PUBCHEM_CACTVS_TPSA>
0

> <PUBCHEM_MONOISOTOPIC_WEIGHT>
272.250401

> <PUBCHEM_TOTAL_CHARGE>
0

> <PUBCHEM_HEAVY_ATOM_COUNT>
20

> <PUBCHEM_ATOM_DEF_STEREO_COUNT>
5

> <PUBCHEM_ATOM_UDEF_STEREO_COUNT>
0

> <PUBCHEM_BOND_DEF_STEREO_COUNT>
0

> <PUBCHEM_BOND_UDEF_STEREO_COUNT>
0

> <PUBCHEM_ISOTOPIC_ATOM_COUNT>
0

> <PUBCHEM_COMPONENT_COUNT>
1

> <PUBCHEM_CACTVS_TAUTO_COUNT>
1

> <PUBCHEM_COORDINATE_TYPE>
1
5
255

> <PUBCHEM_BONDANNOTATIONS>
1  15  6
10  31  6
2  21  5
3  5  6
4  22  5

$$$$

