9844539
  -OEChem-07051213123D

 46 48  0     0  0  0  0  0  0999 V2000
   -3.0307   -1.2797   -2.2244 F   0  0  0  0  0  0  0  0  0  0  0  0
   -2.6422    1.8466    2.9089 F   0  0  0  0  0  0  0  0  0  0  0  0
   -1.1975    0.2989    2.4389 F   0  0  0  0  0  0  0  0  0  0  0  0
   -1.2186    2.1467    1.2928 F   0  0  0  0  0  0  0  0  0  0  0  0
   -5.7025   -1.0132   -1.7669 F   0  0  0  0  0  0  0  0  0  0  0  0
    0.8722   -1.2838    0.3391 O   0  0  0  0  0  0  0  0  0  0  0  0
    1.3244   -0.1628   -2.2281 O   0  0  0  0  0  0  0  0  0  0  0  0
   -0.4771   -1.3606    0.0318 N   0  0  0  0  0  0  0  0  0  0  0  0
   -0.5439    0.7299   -1.2235 N   0  0  0  0  0  0  0  0  0  0  0  0
    2.8524   -2.5914    0.5019 C   0  0  0  0  0  0  0  0  0  0  0  0
    3.2972   -2.8375    1.9138 C   0  0  0  0  0  0  0  0  0  0  0  0
    3.5292   -3.8815    0.8611 C   0  0  0  0  0  0  0  0  0  0  0  0
    1.3961   -2.5966    0.1861 C   0  0  0  0  0  0  0  0  0  0  0  0
   -1.0668   -0.2272   -0.5103 C   0  0  0  0  0  0  0  0  0  0  0  0
   -2.5379   -0.0696   -0.2399 C   0  0  0  0  0  0  0  0  0  0  0  0
   -2.9910    0.6142    0.8883 C   0  0  0  0  0  0  0  0  0  0  0  0
   -3.4538   -0.6191   -1.1370 C   0  0  0  0  0  0  0  0  0  0  0  0
   -4.3600    0.7487    1.1193 C   0  0  0  0  0  0  0  0  0  0  0  0
   -2.0324    1.2133    1.8647 C   0  0  0  0  0  0  0  0  0  0  0  0
    0.7921    0.7048   -1.5409 C   0  0  0  0  0  0  0  0  0  0  0  0
    1.5409    1.9136   -1.0122 C   0  0  0  0  0  0  0  0  0  0  0  0
   -4.8228   -0.4846   -0.9062 C   0  0  0  0  0  0  0  0  0  0  0  0
   -5.2759    0.1995    0.2219 C   0  0  0  0  0  0  0  0  0  0  0  0
    2.9688    1.6115   -0.6406 C   0  0  0  0  0  0  0  0  0  0  0  0
    3.2799    1.1976    0.6546 C   0  0  0  0  0  0  0  0  0  0  0  0
    3.9804    1.7459   -1.5916 C   0  0  0  0  0  0  0  0  0  0  0  0
    4.6025    0.9181    0.9986 C   0  0  0  0  0  0  0  0  0  0  0  0
    5.3029    1.4662   -1.2477 C   0  0  0  0  0  0  0  0  0  0  0  0
    5.6140    1.0523    0.0474 C   0  0  0  0  0  0  0  0  0  0  0  0
    3.4125   -1.8926   -0.1060 H   0  0  0  0  0  0  0  0  0  0  0  0
    4.1565   -2.2851    2.2742 H   0  0  0  0  0  0  0  0  0  0  0  0
    2.5480   -3.0405    2.6690 H   0  0  0  0  0  0  0  0  0  0  0  0
    2.9351   -4.7858    0.9085 H   0  0  0  0  0  0  0  0  0  0  0  0
    4.5449   -4.0312    0.5158 H   0  0  0  0  0  0  0  0  0  0  0  0
    1.2615   -2.9239   -0.8524 H   0  0  0  0  0  0  0  0  0  0  0  0
    0.8553   -3.2921    0.8412 H   0  0  0  0  0  0  0  0  0  0  0  0
   -1.0176   -2.0141    0.5921 H   0  0  0  0  0  0  0  0  0  0  0  0
   -4.7353    1.2772    1.9911 H   0  0  0  0  0  0  0  0  0  0  0  0
    1.0189    2.3136   -0.1341 H   0  0  0  0  0  0  0  0  0  0  0  0
    1.5016    2.6975   -1.7782 H   0  0  0  0  0  0  0  0  0  0  0  0
   -6.3420    0.3037    0.4013 H   0  0  0  0  0  0  0  0  0  0  0  0
    2.5006    1.0869    1.4039 H   0  0  0  0  0  0  0  0  0  0  0  0
    3.7502    2.0660   -2.6044 H   0  0  0  0  0  0  0  0  0  0  0  0
    4.8444    0.5940    2.0065 H   0  0  0  0  0  0  0  0  0  0  0  0
    6.0903    1.5699   -1.9884 H   0  0  0  0  0  0  0  0  0  0  0  0
    6.6436    0.8335    0.3152 H   0  0  0  0  0  0  0  0  0  0  0  0
  1 17  1  0  0  0  0
  2 19  1  0  0  0  0
  3 19  1  0  0  0  0
  4 19  1  0  0  0  0
  5 22  1  0  0  0  0
  6  8  1  0  0  0  0
  6 13  1  0  0  0  0
  7 20  2  0  0  0  0
  8 14  1  0  0  0  0
  8 37  1  0  0  0  0
  9 14  2  0  0  0  0
  9 20  1  0  0  0  0
 10 11  1  0  0  0  0
 10 12  1  0  0  0  0
 10 13  1  0  0  0  0
 10 30  1  0  0  0  0
 11 12  1  0  0  0  0
 11 31  1  0  0  0  0
 11 32  1  0  0  0  0
 12 33  1  0  0  0  0
 12 34  1  0  0  0  0
 13 35  1  0  0  0  0
 13 36  1  0  0  0  0
 14 15  1  0  0  0  0
 15 16  2  0  0  0  0
 15 17  1  0  0  0  0
 16 18  1  0  0  0  0
 16 19  1  0  0  0  0
 17 22  2  0  0  0  0
 18 23  2  0  0  0  0
 18 38  1  0  0  0  0
 20 21  1  0  0  0  0
 21 24  1  0  0  0  0
 21 39  1  0  0  0  0
 21 40  1  0  0  0  0
 22 23  1  0  0  0  0
 23 41  1  0  0  0  0
 24 25  2  0  0  0  0
 24 26  1  0  0  0  0
 25 27  1  0  0  0  0
 25 42  1  0  0  0  0
 26 28  2  0  0  0  0
 26 43  1  0  0  0  0
 27 29  2  0  0  0  0
 27 44  1  0  0  0  0
 28 29  1  0  0  0  0
 28 45  1  0  0  0  0
 29 46  1  0  0  0  0
M  END
> <PUBCHEM_COMPOUND_CID>
9844539

> <PUBCHEM_CONFORMER_RMSD>
1

> <PUBCHEM_CONFORMER_DIVERSEORDER>
1
82
22
25
47
106
61
76
44
59
42
105
29
96
49
108
77
43
63
28
71
91
60
16
56
70
9
111
33
97
35
65
80
4
98
103
112
87
52
84
69
31
62
15
79
68
67
109
78
54
14
48
102
73
40
72
85
26
32
39
66
38
93
30
74
90
10
110
99
11
113
41
58
18
20
101
86
12
50
95
3
27
34
5
89
107
100
94
24
75
37
19
23
36
57
64
6
92
45
46
13
8
17
81
7
51
114
104
21
55
83
53
88
2

> <PUBCHEM_MMFF94_PARTIAL_CHARGES>
42
1 -0.19
10 -0.19
11 -0.2
12 -0.2
13 0.38
14 0.41
15 0.09
16 -0.14
17 0.19
18 -0.15
19 1.16
2 -0.34
20 0.72
21 0.2
22 0.19
23 -0.15
24 -0.14
25 -0.15
26 -0.15
27 -0.15
28 -0.15
29 -0.15
3 -0.34
30 0.1
31 0.1
32 0.1
33 0.1
34 0.1
37 0.4
38 0.15
4 -0.34
41 0.15
42 0.15
43 0.15
44 0.15
45 0.15
46 0.15
5 -0.19
6 -0.26
7 -0.57
8 -0.47
9 -0.66

> <PUBCHEM_EFFECTIVE_ROTOR_COUNT>
9.6

> <PUBCHEM_PHARMACOPHORE_FEATURES>
5
1 7 acceptor
1 8 donor
1 9 donor
6 15 16 17 18 22 23 rings
6 24 25 26 27 28 29 rings

> <PUBCHEM_HEAVY_ATOM_COUNT>
29

> <PUBCHEM_ATOM_DEF_STEREO_COUNT>
0

> <PUBCHEM_ATOM_UDEF_STEREO_COUNT>
0

> <PUBCHEM_BOND_DEF_STEREO_COUNT>
0

> <PUBCHEM_BOND_UDEF_STEREO_COUNT>
0

> <PUBCHEM_ISOTOPIC_ATOM_COUNT>
0

> <PUBCHEM_COMPONENT_COUNT>
1

> <PUBCHEM_CACTVS_TAUTO_COUNT>
3

> <PUBCHEM_CONFORMER_ID>
0096373B00000001

> <PUBCHEM_MMFF94_ENERGY>
73.3278

> <PUBCHEM_FEATURE_SELFOVERLAP>
25.398

> <PUBCHEM_SHAPE_FINGERPRINT>
10906281 52 16917062282736815693
11578080 2 18268433623424178453
11595378 159 17822296815812804705
12236239 1 18260550013114115293
12592029 89 18202567250433298172
12596602 18 18040158383884686432
12788726 201 17748824125115144899
133893 2 18200580514589809998
13533116 47 18410858784496373523
13726171 33 16588014715200025584
13911987 19 17915725501575449428
14739800 52 17822023007748194584
17138139 8 17974023755410988102
17349148 13 18189322494499952221
1813 80 18122623026840908478
18681886 176 17022901199318082916
192875 21 18042115466757777764
20101258 96 17624700442186838286
20511986 3 18260277347120921741
20771845 35 17981357738997937314
22182313 1 17274276048437682262
23402539 116 17386001737362858221
23557571 272 16298100960955213101
23559900 14 15912756314601168306
25147074 1 18261106434838494625
3633792 109 18340782532609266815
460360 51 18199189683862323988
474 4 18341325609342534764
6034566 193 17557404502174799948
7495541 125 5761651516388664596

> <PUBCHEM_SHAPE_MULTIPOLES>
538.74
11.67
3.1
2.17
2.79
3.65
0.72
-1.81
-0.91
-5.89
0.35
1.99
-0.57
-2.22

> <PUBCHEM_SHAPE_SELFOVERLAP>
1153.901

> <PUBCHEM_SHAPE_VOLUME>
298

> <PUBCHEM_COORDINATE_TYPE>
2
5
10

$$$$

