108125
  -OEChem-07051212582D

 39 40  0     1  0  0  0  0  0999 V2000
    3.2320   -1.9145    0.0000 O   0  0  0  0  0  0  0  0  0  0  0  0
    2.0000   -1.0485    0.0000 O   0  0  0  0  0  0  0  0  0  0  0  0
    7.2622   -1.0727    0.0000 O   0  0  0  0  0  0  0  0  0  0  0  0
    3.7320   -1.0485    0.0000 C   0  0  2  0  0  0  0  0  0  0  0  0
    4.5981   -0.5485    0.0000 C   0  0  0  0  0  0  0  0  0  0  0  0
    4.5981    0.4515    0.0000 C   0  0  0  0  0  0  0  0  0  0  0  0
    3.7320    0.9515    0.0000 C   0  0  0  0  0  0  0  0  0  0  0  0
    3.7320    1.9515    0.0000 C   0  0  0  0  0  0  0  0  0  0  0  0
    2.8660   -0.5485    0.0000 C   0  0  0  0  0  0  0  0  0  0  0  0
    2.8660    0.4515    0.0000 C   0  0  0  0  0  0  0  0  0  0  0  0
    5.4920   -1.0832    0.0000 C   0  0  0  0  0  0  0  0  0  0  0  0
    5.4920    0.9861    0.0000 C   0  0  0  0  0  0  0  0  0  0  0  0
    4.2320   -1.9145    0.0000 C   0  0  0  0  0  0  0  0  0  0  0  0
    6.3981    0.4723    0.0000 C   0  0  0  0  0  0  0  0  0  0  0  0
    6.3981   -0.5693    0.0000 C   0  0  0  0  0  0  0  0  0  0  0  0
    2.8660    2.4515    0.0000 C   0  0  0  0  0  0  0  0  0  0  0  0
    4.5981    2.4515    0.0000 C   0  0  0  0  0  0  0  0  0  0  0  0
    7.2622    0.9756    0.0000 C   0  0  0  0  0  0  0  0  0  0  0  0
    7.2583   -2.0727    0.0000 C   0  0  0  0  0  0  0  0  0  0  0  0
    3.7320    2.5715    0.0000 H   0  0  0  0  0  0  0  0  0  0  0  0
    2.3291    0.7615    0.0000 H   0  0  0  0  0  0  0  0  0  0  0  0
    5.4848   -1.7031    0.0000 H   0  0  0  0  0  0  0  0  0  0  0  0
    5.4848    1.6061    0.0000 H   0  0  0  0  0  0  0  0  0  0  0  0
    3.6951   -2.2245    0.0000 H   0  0  0  0  0  0  0  0  0  0  0  0
    4.5420   -2.4515    0.0000 H   0  0  0  0  0  0  0  0  0  0  0  0
    4.7690   -1.6045    0.0000 H   0  0  0  0  0  0  0  0  0  0  0  0
    4.9081    1.9145    0.0000 H   0  0  0  0  0  0  0  0  0  0  0  0
    5.1350    2.7615    0.0000 H   0  0  0  0  0  0  0  0  0  0  0  0
    4.2881    2.9884    0.0000 H   0  0  0  0  0  0  0  0  0  0  0  0
    3.1760    2.9884    0.0000 H   0  0  0  0  0  0  0  0  0  0  0  0
    2.3291    2.7615    0.0000 H   0  0  0  0  0  0  0  0  0  0  0  0
    2.5560    1.9145    0.0000 H   0  0  0  0  0  0  0  0  0  0  0  0
    3.5420   -2.4515    0.0000 H   0  0  0  0  0  0  0  0  0  0  0  0
    7.5742    0.4399    0.0000 H   0  0  0  0  0  0  0  0  0  0  0  0
    7.7979    1.2877    0.0000 H   0  0  0  0  0  0  0  0  0  0  0  0
    6.9501    1.5114    0.0000 H   0  0  0  0  0  0  0  0  0  0  0  0
    6.6383   -2.0703    0.0000 H   0  0  0  0  0  0  0  0  0  0  0  0
    7.2559   -2.6927    0.0000 H   0  0  0  0  0  0  0  0  0  0  0  0
    7.8783   -2.0750    0.0000 H   0  0  0  0  0  0  0  0  0  0  0  0
  4  1  1  1  0  0  0
  1 33  1  0  0  0  0
  2  9  2  0  0  0  0
  3 15  1  0  0  0  0
  3 19  1  0  0  0  0
  4  5  1  0  0  0  0
  4  9  1  0  0  0  0
  4 13  1  0  0  0  0
  5  6  1  0  0  0  0
  5 11  2  0  0  0  0
  6  7  1  0  0  0  0
  6 12  2  0  0  0  0
  7  8  1  0  0  0  0
  7 10  2  0  0  0  0
  8 16  1  0  0  0  0
  8 17  1  0  0  0  0
  8 20  1  0  0  0  0
  9 10  1  0  0  0  0
 10 21  1  0  0  0  0
 11 15  1  0  0  0  0
 11 22  1  0  0  0  0
 12 14  1  0  0  0  0
 12 23  1  0  0  0  0
 13 24  1  0  0  0  0
 13 25  1  0  0  0  0
 13 26  1  0  0  0  0
 14 15  2  0  0  0  0
 14 18  1  0  0  0  0
 16 30  1  0  0  0  0
 16 31  1  0  0  0  0
 16 32  1  0  0  0  0
 17 27  1  0  0  0  0
 17 28  1  0  0  0  0
 17 29  1  0  0  0  0
 18 34  1  0  0  0  0
 18 35  1  0  0  0  0
 18 36  1  0  0  0  0
 19 37  1  0  0  0  0
 19 38  1  0  0  0  0
 19 39  1  0  0  0  0
M  END
> <PUBCHEM_COMPOUND_CID>
108125

> <PUBCHEM_COMPOUND_CANONICALIZED>
1

> <PUBCHEM_CACTVS_COMPLEXITY>
399

> <PUBCHEM_CACTVS_HBOND_ACCEPTOR>
3

> <PUBCHEM_CACTVS_HBOND_DONOR>
1

> <PUBCHEM_CACTVS_ROTATABLE_BOND>
2

> <PUBCHEM_CACTVS_SUBSKEYS>
AAADceB4MAAAAAAAAAAAAAAAAAAAAAAAAAAwQAAAAAAAAACBAAAAGgAACAAADUSAmAIyBoAABgCIAqBSAAICCAAgIAAAiAFGCMgMJjKENRqAcCAkwBEIuQfIzPDO4AADAAAYAADAAAYAADAAAAAAAAAAAA==

> <PUBCHEM_IUPAC_OPENEYE_NAME>
(1R)-1-hydroxy-4-isopropyl-7-methoxy-1,6-dimethyl-naphthalen-2-one

> <PUBCHEM_IUPAC_CAS_NAME>
(1R)-1-hydroxy-7-methoxy-1,6-dimethyl-4-propan-2-yl-2-naphthalenone

> <PUBCHEM_IUPAC_NAME>
(1R)-1-hydroxy-7-methoxy-1,6-dimethyl-4-propan-2-ylnaphthalen-2-one

> <PUBCHEM_IUPAC_SYSTEMATIC_NAME>
(1R)-7-methoxy-1,6-dimethyl-1-oxidanyl-4-propan-2-yl-naphthalen-2-one

> <PUBCHEM_IUPAC_TRADITIONAL_NAME>
(1R)-1-hydroxy-4-isopropyl-7-methoxy-1,6-dimethyl-naphthalen-2-one

> <PUBCHEM_IUPAC_INCHI>
InChI=1S/C16H20O3/c1-9(2)11-7-15(17)16(4,18)13-8-14(19-5)10(3)6-12(11)13/h6-9,18H,1-5H3/t16-/m1/s1

> <PUBCHEM_IUPAC_INCHIKEY>
VMEKKHYIQYOLHA-MRXNPFEDSA-N

> <PUBCHEM_XLOGP3_AA>
2.5

> <PUBCHEM_EXACT_MASS>
260.141245

> <PUBCHEM_MOLECULAR_FORMULA>
C16H20O3

> <PUBCHEM_MOLECULAR_WEIGHT>
260.3282

> <PUBCHEM_OPENEYE_CAN_SMILES>
CC1=C(C=C2C(=C1)C(=CC(=O)C2(C)O)C(C)C)OC

> <PUBCHEM_OPENEYE_ISO_SMILES>
CC1=C(C=C2C(=C1)C(=CC(=O)[C@]2(C)O)C(C)C)OC

> <PUBCHEM_CACTVS_TPSA>
46.5

> <PUBCHEM_MONOISOTOPIC_WEIGHT>
260.141245

> <PUBCHEM_TOTAL_CHARGE>
0

> <PUBCHEM_HEAVY_ATOM_COUNT>
19

> <PUBCHEM_ATOM_DEF_STEREO_COUNT>
1

> <PUBCHEM_ATOM_UDEF_STEREO_COUNT>
0

> <PUBCHEM_BOND_DEF_STEREO_COUNT>
0

> <PUBCHEM_BOND_UDEF_STEREO_COUNT>
0

> <PUBCHEM_ISOTOPIC_ATOM_COUNT>
0

> <PUBCHEM_COMPONENT_COUNT>
1

> <PUBCHEM_CACTVS_TAUTO_COUNT>
3

> <PUBCHEM_COORDINATE_TYPE>
1
5
255

> <PUBCHEM_BONDANNOTATIONS>
4  1  5
11  15  8
12  14  8
14  15  8
5  11  8
5  6  8
6  12  8

$$$$

