165899
  -OEChem-07051212582D

 80 85  0     1  0  0  0  0  0999 V2000
    9.8322    1.7432    0.0000 O   0  0  0  0  0  0  0  0  0  0  0  0
    8.1002   -0.2568    0.0000 O   0  0  0  0  0  0  0  0  0  0  0  0
    8.9662    3.2432    0.0000 O   0  0  0  0  0  0  0  0  0  0  0  0
    8.1002    2.7432    0.0000 O   0  0  0  0  0  0  0  0  0  0  0  0
    6.3682   -0.2568    0.0000 O   0  0  0  0  0  0  0  0  0  0  0  0
    6.3682    1.7432    0.0000 O   0  0  0  0  0  0  0  0  0  0  0  0
   11.5643    2.7432    0.0000 O   0  0  0  0  0  0  0  0  0  0  0  0
   11.5643    4.7432    0.0000 O   0  0  0  0  0  0  0  0  0  0  0  0
    9.8322    5.7432    0.0000 O   0  0  0  0  0  0  0  0  0  0  0  0
   10.6983    0.2432    0.0000 O   0  0  0  0  0  0  0  0  0  0  0  0
    7.2342    4.2432    0.0000 O   0  0  0  0  0  0  0  0  0  0  0  0
    4.6361   -1.2568    0.0000 O   0  0  0  0  0  0  0  0  0  0  0  0
    8.9828   -4.7260    0.0000 O   0  0  0  0  0  0  0  0  0  0  0  0
    7.2933   -5.7605    0.0000 O   0  0  0  0  0  0  0  0  0  0  0  0
    8.9662    1.2432    0.0000 C   0  0  1  0  0  0  0  0  0  0  0  0
    8.1002    1.7432    0.0000 C   0  0  1  0  0  0  0  0  0  0  0  0
    8.9662    0.2432    0.0000 C   0  0  1  0  0  0  0  0  0  0  0  0
    9.8322    2.7432    0.0000 C   0  0  2  0  0  0  0  0  0  0  0  0
    7.2342    1.2432    0.0000 C   0  0  2  0  0  0  0  0  0  0  0  0
   10.6983    3.2432    0.0000 C   0  0  1  0  0  0  0  0  0  0  0  0
   10.6983    4.2432    0.0000 C   0  0  2  0  0  0  0  0  0  0  0  0
    9.8322    4.7432    0.0000 C   0  0  1  0  0  0  0  0  0  0  0  0
    7.2342    0.2432    0.0000 C   0  0  1  0  0  0  0  0  0  0  0  0
    8.9662    4.2432    0.0000 C   0  0  1  0  0  0  0  0  0  0  0  0
    9.8322   -0.2568    0.0000 C   0  0  0  0  0  0  0  0  0  0  0  0
    8.1002    4.7432    0.0000 C   0  0  0  0  0  0  0  0  0  0  0  0
    6.3682   -1.2568    0.0000 C   0  0  0  0  0  0  0  0  0  0  0  0
    5.5021   -1.7568    0.0000 C   0  0  0  0  0  0  0  0  0  0  0  0
    7.2342   -1.7568    0.0000 C   0  0  0  0  0  0  0  0  0  0  0  0
    5.5021   -2.7568    0.0000 C   0  0  0  0  0  0  0  0  0  0  0  0
    6.3682   -3.2568    0.0000 C   0  0  0  0  0  0  0  0  0  0  0  0
    7.2342   -2.7568    0.0000 C   0  0  0  0  0  0  0  0  0  0  0  0
    6.3842   -4.2983    0.0000 C   0  0  0  0  0  0  0  0  0  0  0  0
    4.5921   -3.2636    0.0000 C   0  0  0  0  0  0  0  0  0  0  0  0
    8.0936   -3.2516    0.0000 C   0  0  0  0  0  0  0  0  0  0  0  0
    7.2613   -4.7610    0.0000 C   0  0  0  0  0  0  0  0  0  0  0  0
    5.4862   -4.8261    0.0000 C   0  0  0  0  0  0  0  0  0  0  0  0
    4.5841   -4.3052    0.0000 C   0  0  0  0  0  0  0  0  0  0  0  0
    8.1071   -4.2432    0.0000 C   0  0  0  0  0  0  0  0  0  0  0  0
    3.7319   -2.7536    0.0000 C   0  0  0  0  0  0  0  0  0  0  0  0
    3.7435   -1.7537    0.0000 C   0  0  0  0  0  0  0  0  0  0  0  0
    2.8602   -3.2436    0.0000 C   0  0  0  0  0  0  0  0  0  0  0  0
    2.8833   -1.2437    0.0000 C   0  0  0  0  0  0  0  0  0  0  0  0
    2.0000   -2.7336    0.0000 C   0  0  0  0  0  0  0  0  0  0  0  0
    2.0116   -1.7337    0.0000 C   0  0  0  0  0  0  0  0  0  0  0  0
    9.8388   -4.2091    0.0000 C   0  0  0  0  0  0  0  0  0  0  0  0
    9.5032    0.9332    0.0000 H   0  0  0  0  0  0  0  0  0  0  0  0
    8.6371    2.0532    0.0000 H   0  0  0  0  0  0  0  0  0  0  0  0
    8.9662   -0.3768    0.0000 H   0  0  0  0  0  0  0  0  0  0  0  0
    9.2953    2.4332    0.0000 H   0  0  0  0  0  0  0  0  0  0  0  0
    7.2342    1.8632    0.0000 H   0  0  0  0  0  0  0  0  0  0  0  0
   11.2352    3.5532    0.0000 H   0  0  0  0  0  0  0  0  0  0  0  0
   11.2352    3.9332    0.0000 H   0  0  0  0  0  0  0  0  0  0  0  0
    9.2953    5.0532    0.0000 H   0  0  0  0  0  0  0  0  0  0  0  0
    7.2342   -0.3768    0.0000 H   0  0  0  0  0  0  0  0  0  0  0  0
    8.4293    3.9332    0.0000 H   0  0  0  0  0  0  0  0  0  0  0  0
    9.4337   -0.7317    0.0000 H   0  0  0  0  0  0  0  0  0  0  0  0
   10.2308   -0.7317    0.0000 H   0  0  0  0  0  0  0  0  0  0  0  0
    8.4987    5.2182    0.0000 H   0  0  0  0  0  0  0  0  0  0  0  0
    7.7017    5.2182    0.0000 H   0  0  0  0  0  0  0  0  0  0  0  0
    7.5633    3.0532    0.0000 H   0  0  0  0  0  0  0  0  0  0  0  0
    5.8312    1.4332    0.0000 H   0  0  0  0  0  0  0  0  0  0  0  0
   12.1012    3.0532    0.0000 H   0  0  0  0  0  0  0  0  0  0  0  0
   11.5643    5.3632    0.0000 H   0  0  0  0  0  0  0  0  0  0  0  0
    9.2953    6.0532    0.0000 H   0  0  0  0  0  0  0  0  0  0  0  0
   11.2352   -0.0668    0.0000 H   0  0  0  0  0  0  0  0  0  0  0  0
    6.6972    4.5532    0.0000 H   0  0  0  0  0  0  0  0  0  0  0  0
    7.7711   -1.4468    0.0000 H   0  0  0  0  0  0  0  0  0  0  0  0
    8.6283   -2.9376    0.0000 H   0  0  0  0  0  0  0  0  0  0  0  0
    5.4886   -5.4460    0.0000 H   0  0  0  0  0  0  0  0  0  0  0  0
    4.0460   -4.6132    0.0000 H   0  0  0  0  0  0  0  0  0  0  0  0
    4.2840   -1.4500    0.0000 H   0  0  0  0  0  0  0  0  0  0  0  0
    2.8530   -3.8636    0.0000 H   0  0  0  0  0  0  0  0  0  0  0  0
    7.8399   -6.0532    0.0000 H   0  0  0  0  0  0  0  0  0  0  0  0
    2.8905   -0.6238    0.0000 H   0  0  0  0  0  0  0  0  0  0  0  0
    1.4595   -3.0374    0.0000 H   0  0  0  0  0  0  0  0  0  0  0  0
    1.4782   -1.4175    0.0000 H   0  0  0  0  0  0  0  0  0  0  0  0
   10.1593   -4.7398    0.0000 H   0  0  0  0  0  0  0  0  0  0  0  0
   10.3695   -3.8886    0.0000 H   0  0  0  0  0  0  0  0  0  0  0  0
    9.5183   -3.6783    0.0000 H   0  0  0  0  0  0  0  0  0  0  0  0
 15  1  1  6  0  0  0
 18  1  1  6  0  0  0
  2 17  1  0  0  0  0
  2 23  1  0  0  0  0
  3 18  1  0  0  0  0
  3 24  1  0  0  0  0
 16  4  1  1  0  0  0
  4 61  1  0  0  0  0
 23  5  1  1  0  0  0
  5 27  1  0  0  0  0
 19  6  1  6  0  0  0
  6 62  1  0  0  0  0
 20  7  1  1  0  0  0
  7 63  1  0  0  0  0
 21  8  1  6  0  0  0
  8 64  1  0  0  0  0
 22  9  1  1  0  0  0
  9 65  1  0  0  0  0
 10 25  1  0  0  0  0
 10 66  1  0  0  0  0
 11 26  1  0  0  0  0
 11 67  1  0  0  0  0
 12 28  2  0  0  0  0
 13 39  1  0  0  0  0
 13 46  1  0  0  0  0
 14 36  1  0  0  0  0
 14 74  1  0  0  0  0
 15 16  1  0  0  0  0
 15 17  1  0  0  0  0
 15 47  1  0  0  0  0
 16 19  1  0  0  0  0
 16 48  1  0  0  0  0
 17 25  1  1  0  0  0
 17 49  1  0  0  0  0
 18 20  1  0  0  0  0
 18 50  1  0  0  0  0
 19 23  1  0  0  0  0
 19 51  1  0  0  0  0
 20 21  1  0  0  0  0
 20 52  1  0  0  0  0
 21 22  1  0  0  0  0
 21 53  1  0  0  0  0
 22 24  1  0  0  0  0
 22 54  1  0  0  0  0
 23 55  1  0  0  0  0
 24 26  1  6  0  0  0
 24 56  1  0  0  0  0
 25 57  1  0  0  0  0
 25 58  1  0  0  0  0
 26 59  1  0  0  0  0
 26 60  1  0  0  0  0
 27 28  1  0  0  0  0
 27 29  2  0  0  0  0
 28 30  1  0  0  0  0
 29 32  1  0  0  0  0
 29 68  1  0  0  0  0
 30 31  1  0  0  0  0
 30 34  2  0  0  0  0
 31 32  1  0  0  0  0
 31 33  2  0  0  0  0
 32 35  2  0  0  0  0
 33 36  1  0  0  0  0
 33 37  1  0  0  0  0
 34 38  1  0  0  0  0
 34 40  1  0  0  0  0
 35 39  1  0  0  0  0
 35 69  1  0  0  0  0
 36 39  2  0  0  0  0
 37 38  2  0  0  0  0
 37 70  1  0  0  0  0
 38 71  1  0  0  0  0
 40 41  2  0  0  0  0
 40 42  1  0  0  0  0
 41 43  1  0  0  0  0
 41 72  1  0  0  0  0
 42 44  2  0  0  0  0
 42 73  1  0  0  0  0
 43 45  2  0  0  0  0
 43 75  1  0  0  0  0
 44 45  1  0  0  0  0
 44 76  1  0  0  0  0
 45 77  1  0  0  0  0
 46 78  1  0  0  0  0
 46 79  1  0  0  0  0
 46 80  1  0  0  0  0
M  END
> <PUBCHEM_COMPOUND_CID>
165899

> <PUBCHEM_COMPOUND_CANONICALIZED>
1

> <PUBCHEM_CACTVS_COMPLEXITY>
1080

> <PUBCHEM_CACTVS_HBOND_ACCEPTOR>
14

> <PUBCHEM_CACTVS_HBOND_DONOR>
8

> <PUBCHEM_CACTVS_ROTATABLE_BOND>
8

> <PUBCHEM_CACTVS_SUBSKEYS>
AAADcfB8PAAAAAAAAAAAAAAAAAAAAAAAAAA0aMECAAAAAADBVAAAGgAACAAADBSwmAMyDsAABgCIAqBSAAICCAAkIAAIiAFGiMgdNjKGNR6icSMlwBEPuYfI7PzO4AADAAAYQADAAAYAADCAAAAAAAAAAA==

> <PUBCHEM_IUPAC_OPENEYE_NAME>
2-[(2S,3R,4R,5S,6R)-3,4-dihydroxy-6-(hydroxymethyl)-5-[(2S,3R,4S,5S,6R)-3,4,5-trihydroxy-6-(hydroxymethyl)tetrahydropyran-2-yl]oxy-tetrahydropyran-2-yl]oxy-6-hydroxy-5-methoxy-9-phenyl-phenalen-1-one

> <PUBCHEM_IUPAC_CAS_NAME>
2-[[(2S,3R,4R,5S,6R)-3,4-dihydroxy-6-(hydroxymethyl)-5-[[(2S,3R,4S,5S,6R)-3,4,5-trihydroxy-6-(hydroxymethyl)-2-oxanyl]oxy]-2-oxanyl]oxy]-6-hydroxy-5-methoxy-9-phenyl-1-phenalenone

> <PUBCHEM_IUPAC_NAME>
2-[(2S,3R,4R,5S,6R)-3,4-dihydroxy-6-(hydroxymethyl)-5-[(2S,3R,4S,5S,6R)-3,4,5-trihydroxy-6-(hydroxymethyl)oxan-2-yl]oxyoxan-2-yl]oxy-6-hydroxy-5-methoxy-9-phenylphenalen-1-one

> <PUBCHEM_IUPAC_SYSTEMATIC_NAME>
2-[(2S,3R,4R,5S,6R)-6-(hydroxymethyl)-5-[(2S,3R,4S,5S,6R)-6-(hydroxymethyl)-3,4,5-tris(oxidanyl)oxan-2-yl]oxy-3,4-bis(oxidanyl)oxan-2-yl]oxy-5-methoxy-6-oxidanyl-9-phenyl-phenalen-1-one

> <PUBCHEM_IUPAC_TRADITIONAL_NAME>
2-[(2S,3R,4R,5S,6R)-3,4-dihydroxy-6-methylol-5-[(2S,3R,4S,5S,6R)-3,4,5-trihydroxy-6-methylol-tetrahydropyran-2-yl]oxy-tetrahydropyran-2-yl]oxy-6-hydroxy-5-methoxy-9-phenyl-phenalen-1-one

> <PUBCHEM_IUPAC_INCHI>
InChI=1S/C32H34O14/c1-42-17-9-14-10-18(24(36)22-15(13-5-3-2-4-6-13)7-8-16(21(14)22)23(17)35)43-31-29(41)27(39)30(20(12-34)45-31)46-32-28(40)26(38)25(37)19(11-33)44-32/h2-10,19-20,25-35,37-41H,11-12H2,1H3/t19-,20-,25-,26+,27-,28-,29-,30-,31-,32+/m1/s1

> <PUBCHEM_IUPAC_INCHIKEY>
FNZZYRONWCJZTM-CXWOCMNWSA-N

> <PUBCHEM_XLOGP3_AA>
0.3

> <PUBCHEM_EXACT_MASS>
642.194856

> <PUBCHEM_MOLECULAR_FORMULA>
C32H34O14

> <PUBCHEM_MOLECULAR_WEIGHT>
642.60396

> <PUBCHEM_OPENEYE_CAN_SMILES>
COC1=C(C2=C3C(=C1)C=C(C(=O)C3=C(C=C2)C4=CC=CC=C4)OC5C(C(C(C(O5)CO)OC6C(C(C(C(O6)CO)O)O)O)O)O)O

> <PUBCHEM_OPENEYE_ISO_SMILES>
COC1=C(C2=C3C(=C1)C=C(C(=O)C3=C(C=C2)C4=CC=CC=C4)O[C@H]5[C@@H]([C@H]([C@@H]([C@H](O5)CO)O[C@H]6[C@@H]([C@H]([C@@H]([C@H](O6)CO)O)O)O)O)O)O

> <PUBCHEM_CACTVS_TPSA>
225

> <PUBCHEM_MONOISOTOPIC_WEIGHT>
642.194856

> <PUBCHEM_TOTAL_CHARGE>
0

> <PUBCHEM_HEAVY_ATOM_COUNT>
46

> <PUBCHEM_ATOM_DEF_STEREO_COUNT>
10

> <PUBCHEM_ATOM_UDEF_STEREO_COUNT>
0

> <PUBCHEM_BOND_DEF_STEREO_COUNT>
0

> <PUBCHEM_BOND_UDEF_STEREO_COUNT>
0

> <PUBCHEM_ISOTOPIC_ATOM_COUNT>
0

> <PUBCHEM_COMPONENT_COUNT>
1

> <PUBCHEM_CACTVS_TAUTO_COUNT>
3

> <PUBCHEM_COORDINATE_TYPE>
1
5
255

> <PUBCHEM_BONDANNOTATIONS>
15  1  6
18  1  6
17  25  5
24  26  6
30  31  8
30  34  8
31  32  8
31  33  8
32  35  8
33  36  8
33  37  8
34  38  8
35  39  8
36  39  8
37  38  8
16  4  5
40  41  8
40  42  8
41  43  8
42  44  8
43  45  8
44  45  8
23  5  5
19  6  6
20  7  5
21  8  6
22  9  5

$$$$

