440086
  -OEChem-07051212483D

 26 25  0     0  0  0  0  0  0999 V2000
    1.7348   -1.7397   -1.1122 O   0  0  0  0  0  0  0  0  0  0  0  0
   -3.7827    0.2337   -1.1716 O   0  0  0  0  0  0  0  0  0  0  0  0
    4.2488    1.4913    0.5099 O   0  0  0  0  0  0  0  0  0  0  0  0
    2.4536    1.5037   -0.8821 O   0  0  0  0  0  0  0  0  0  0  0  0
   -2.5739    0.0268    0.8084 N   0  0  0  0  0  0  0  0  0  0  0  0
   -0.8775   -1.5366   -0.0575 C   0  0  0  0  0  0  0  0  0  0  0  0
    0.3140   -0.8894    0.6510 C   0  0  0  0  0  0  0  0  0  0  0  0
   -2.2049   -1.3555    0.6757 C   0  0  0  0  0  0  0  0  0  0  0  0
    1.6401   -1.1025   -0.0636 C   0  0  0  0  0  0  0  0  0  0  0  0
    2.8505   -0.4212    0.5385 C   0  0  0  0  0  0  0  0  0  0  0  0
   -3.3358    0.7093   -0.1311 C   0  0  0  0  0  0  0  0  0  0  0  0
    3.1308    0.9429   -0.0315 C   0  0  0  0  0  0  0  0  0  0  0  0
   -3.5978    2.1373    0.2662 C   0  0  0  0  0  0  0  0  0  0  0  0
   -0.9596   -1.1234   -1.0710 H   0  0  0  0  0  0  0  0  0  0  0  0
   -0.6868   -2.6105   -0.1758 H   0  0  0  0  0  0  0  0  0  0  0  0
    0.4101   -1.3040    1.6607 H   0  0  0  0  0  0  0  0  0  0  0  0
    0.1569    0.1916    0.7340 H   0  0  0  0  0  0  0  0  0  0  0  0
   -2.1433   -1.7767    1.6846 H   0  0  0  0  0  0  0  0  0  0  0  0
   -2.9971   -1.8862    0.1363 H   0  0  0  0  0  0  0  0  0  0  0  0
   -2.2574    0.5216    1.6374 H   0  0  0  0  0  0  0  0  0  0  0  0
    2.7061   -0.3357    1.6203 H   0  0  0  0  0  0  0  0  0  0  0  0
    3.7181   -1.0656    0.3592 H   0  0  0  0  0  0  0  0  0  0  0  0
   -3.9857    2.6928   -0.5920 H   0  0  0  0  0  0  0  0  0  0  0  0
   -4.3339    2.1608    1.0742 H   0  0  0  0  0  0  0  0  0  0  0  0
   -2.6725    2.6145    0.6019 H   0  0  0  0  0  0  0  0  0  0  0  0
    4.4372    2.3795    0.1384 H   0  0  0  0  0  0  0  0  0  0  0  0
  1  9  2  0  0  0  0
  2 11  2  0  0  0  0
  3 12  1  0  0  0  0
  3 26  1  0  0  0  0
  4 12  2  0  0  0  0
  5  8  1  0  0  0  0
  5 11  1  0  0  0  0
  5 20  1  0  0  0  0
  6  7  1  0  0  0  0
  6  8  1  0  0  0  0
  6 14  1  0  0  0  0
  6 15  1  0  0  0  0
  7  9  1  0  0  0  0
  7 16  1  0  0  0  0
  7 17  1  0  0  0  0
  8 18  1  0  0  0  0
  8 19  1  0  0  0  0
  9 10  1  0  0  0  0
 10 12  1  0  0  0  0
 10 21  1  0  0  0  0
 10 22  1  0  0  0  0
 11 13  1  0  0  0  0
 13 23  1  0  0  0  0
 13 24  1  0  0  0  0
 13 25  1  0  0  0  0
M  END
> <PUBCHEM_COMPOUND_CID>
440086

> <PUBCHEM_CONFORMER_RMSD>
0.8

> <PUBCHEM_CONFORMER_DIVERSEORDER>
1
132
29
149
35
33
141
60
173
45
57
182
87
170
59
94
198
159
84
77
129
73
7
113
41
23
26
189
58
104
16
148
120
52
186
79
174
163
90
115
10
142
128
95
138
112
76
15
156
55
91
105
36
205
3
158
119
50
187
124
99
37
144
4
80
67
106
139
114
193
22
5
177
152
103
199
133
9
116
31
83
107
207
53
125
118
168
181
71
171
2
200
203
30
188
169
210
127
6
130
140
191
176
48
209
27
65
109
150
101
89
42
102
93
78
197
195
88
92
47
208
196
25
108
74
204
160
184
46
161
64
192
51
117
167
157
66
131
137
70
145
34
134
180
146
21
54
143
98
212
11
190
43
166
49
82
122
111
185
68
20
72
81
85
183
61
211
40
63
154
86
14
100
155
164
62
206
56
121
175
17
202
8
39
97
24
151
201
28
178
75
96
19
194
153
32
38
12
126
123
179
135
165
18
136
110
44
69
162
172
147
13

> <PUBCHEM_MMFF94_PARTIAL_CHARGES>
14
1 -0.57
10 0.12
11 0.57
12 0.66
13 0.06
2 -0.57
20 0.37
26 0.5
3 -0.65
4 -0.57
5 -0.73
7 0.06
8 0.3
9 0.45

> <PUBCHEM_EFFECTIVE_ROTOR_COUNT>
7

> <PUBCHEM_PHARMACOPHORE_FEATURES>
7
1 1 acceptor
1 10 anion
1 2 acceptor
1 3 acceptor
1 4 acceptor
1 5 donor
3 3 4 12 anion

> <PUBCHEM_HEAVY_ATOM_COUNT>
13

> <PUBCHEM_ATOM_DEF_STEREO_COUNT>
0

> <PUBCHEM_ATOM_UDEF_STEREO_COUNT>
0

> <PUBCHEM_BOND_DEF_STEREO_COUNT>
0

> <PUBCHEM_BOND_UDEF_STEREO_COUNT>
0

> <PUBCHEM_ISOTOPIC_ATOM_COUNT>
0

> <PUBCHEM_COMPONENT_COUNT>
1

> <PUBCHEM_CACTVS_TAUTO_COUNT>
10

> <PUBCHEM_CONFORMER_ID>
0006B71600000001

> <PUBCHEM_MMFF94_ENERGY>
8.6039

> <PUBCHEM_FEATURE_SELFOVERLAP>
35.844

> <PUBCHEM_SHAPE_FINGERPRINT>
11615756 256 18341600534315186661
11769659 78 8358260328053971123
12006461 19 9439400237537325953
12162725 195 18411140263957857923
122479 349 18342735252026953195
13618510 140 18412542106749551589
14123255 352 18340772520808624456
14123260 362 18341886368567450501
15239191 94 8935001477339466449
177051 138 9151168749073383235
18186145 218 18270395122007796619
19782 4 18336275556641664192
20233049 118 18335143059976505904
20281407 28 8718532914156196123
20281475 54 9078820910047002907
20653085 51 18263919011742812123
20767249 462 18413389825930019116
20871999 31 5039679161834813939
22485316 2 9223220850149053707
23557571 272 18268132198287109967
305870 269 18060142037473303546
548570 60 18343869909061090133
8050 44 18343023324031199853
8199 26 18340763754411056224
94968 8 8214136365597286736

> <PUBCHEM_SHAPE_MULTIPOLES>
239.08
7.9
2.1
0.95
0.78
0.45
0.13
4.98
0.1
0.08
0.06
0.13
-0.1
0.23

> <PUBCHEM_SHAPE_SELFOVERLAP>
453.762

> <PUBCHEM_SHAPE_VOLUME>
146.2

> <PUBCHEM_COORDINATE_TYPE>
2
5
10

$$$$

