442126
  -OEChem-07051212572D

 44 46  0     1  0  0  0  0  0999 V2000
    7.2901    2.3557    0.0000 O   0  0  0  0  0  0  0  0  0  0  0  0
    9.0602    0.2969    0.0000 O   0  0  0  0  0  0  0  0  0  0  0  0
    3.7702    2.3557    0.0000 O   0  0  0  0  0  0  0  0  0  0  0  0
    8.1884   -1.1998    0.0000 O   0  0  0  0  0  0  0  0  0  0  0  0
    2.0000    2.3452    0.0000 O   0  0  0  0  0  0  0  0  0  0  0  0
    8.1962    1.8418    0.0000 C   0  0  0  0  0  0  0  0  0  0  0  0
    8.1962    0.8002    0.0000 C   0  0  2  0  0  0  0  0  0  0  0  0
    7.2901    0.2864    0.0000 C   0  0  0  0  0  0  0  0  0  0  0  0
    6.3961    0.8210    0.0000 C   0  0  0  0  0  0  0  0  0  0  0  0
    6.3961    1.8210    0.0000 C   0  0  0  0  0  0  0  0  0  0  0  0
    9.1962    1.8457    0.0000 C   0  0  0  0  0  0  0  0  0  0  0  0
    8.6928    2.7098    0.0000 C   0  0  0  0  0  0  0  0  0  0  0  0
    5.5301    0.3210    0.0000 C   0  0  0  0  0  0  0  0  0  0  0  0
    5.5301    2.3210    0.0000 C   0  0  0  0  0  0  0  0  0  0  0  0
    4.6641    0.8210    0.0000 C   0  0  0  0  0  0  0  0  0  0  0  0
    4.6641    1.8210    0.0000 C   0  0  0  0  0  0  0  0  0  0  0  0
    9.0564   -0.7031    0.0000 C   0  0  0  0  0  0  0  0  0  0  0  0
    3.7702    0.2864    0.0000 C   0  0  0  0  0  0  0  0  0  0  0  0
    2.8641    0.8002    0.0000 C   0  0  0  0  0  0  0  0  0  0  0  0
    9.9205   -1.2065    0.0000 C   0  0  0  0  0  0  0  0  0  0  0  0
    2.8641    1.8418    0.0000 C   0  0  0  0  0  0  0  0  0  0  0  0
    9.9166   -2.2064    0.0000 C   0  0  0  0  0  0  0  0  0  0  0  0
   10.7807   -2.7098    0.0000 C   0  0  0  0  0  0  0  0  0  0  0  0
    9.0487   -2.7031    0.0000 C   0  0  0  0  0  0  0  0  0  0  0  0
    8.1926    0.1802    0.0000 H   0  0  0  0  0  0  0  0  0  0  0  0
    6.8855   -0.1834    0.0000 H   0  0  0  0  0  0  0  0  0  0  0  0
    7.6837   -0.1927    0.0000 H   0  0  0  0  0  0  0  0  0  0  0  0
    9.2310    2.4018    0.0000 H   0  0  0  0  0  0  0  0  0  0  0  0
    9.0008    3.2479    0.0000 H   0  0  0  0  0  0  0  0  0  0  0  0
    8.1547    3.0177    0.0000 H   0  0  0  0  0  0  0  0  0  0  0  0
    9.1985    1.2257    0.0000 H   0  0  0  0  0  0  0  0  0  0  0  0
    9.8162    1.8481    0.0000 H   0  0  0  0  0  0  0  0  0  0  0  0
    9.1938    2.4657    0.0000 H   0  0  0  0  0  0  0  0  0  0  0  0
    5.5301   -0.2990    0.0000 H   0  0  0  0  0  0  0  0  0  0  0  0
    5.5301    2.9410    0.0000 H   0  0  0  0  0  0  0  0  0  0  0  0
    3.7773   -0.3336    0.0000 H   0  0  0  0  0  0  0  0  0  0  0  0
    2.3284    0.4881    0.0000 H   0  0  0  0  0  0  0  0  0  0  0  0
   10.4586   -0.8985    0.0000 H   0  0  0  0  0  0  0  0  0  0  0  0
    8.7408   -2.1650    0.0000 H   0  0  0  0  0  0  0  0  0  0  0  0
    8.5106   -3.0110    0.0000 H   0  0  0  0  0  0  0  0  0  0  0  0
    9.3566   -3.2412    0.0000 H   0  0  0  0  0  0  0  0  0  0  0  0
   10.4687   -3.2455    0.0000 H   0  0  0  0  0  0  0  0  0  0  0  0
   11.3165   -3.0218    0.0000 H   0  0  0  0  0  0  0  0  0  0  0  0
   11.0928   -2.1740    0.0000 H   0  0  0  0  0  0  0  0  0  0  0  0
  1  6  1  0  0  0  0
  1 10  1  0  0  0  0
  7  2  1  1  0  0  0
  2 17  1  0  0  0  0
  3 16  1  0  0  0  0
  3 21  1  0  0  0  0
  4 17  2  0  0  0  0
  5 21  2  0  0  0  0
  6  7  1  0  0  0  0
  6 11  1  0  0  0  0
  6 12  1  0  0  0  0
  7  8  1  0  0  0  0
  7 25  1  0  0  0  0
  8  9  1  0  0  0  0
  8 26  1  0  0  0  0
  8 27  1  0  0  0  0
  9 10  2  0  0  0  0
  9 13  1  0  0  0  0
 10 14  1  0  0  0  0
 11 31  1  0  0  0  0
 11 32  1  0  0  0  0
 11 33  1  0  0  0  0
 12 28  1  0  0  0  0
 12 29  1  0  0  0  0
 12 30  1  0  0  0  0
 13 15  2  0  0  0  0
 13 34  1  0  0  0  0
 14 16  2  0  0  0  0
 14 35  1  0  0  0  0
 15 16  1  0  0  0  0
 15 18  1  0  0  0  0
 17 20  1  0  0  0  0
 18 19  2  0  0  0  0
 18 36  1  0  0  0  0
 19 21  1  0  0  0  0
 19 37  1  0  0  0  0
 20 22  2  0  0  0  0
 20 38  1  0  0  0  0
 22 23  1  0  0  0  0
 22 24  1  0  0  0  0
 23 42  1  0  0  0  0
 23 43  1  0  0  0  0
 23 44  1  0  0  0  0
 24 39  1  0  0  0  0
 24 40  1  0  0  0  0
 24 41  1  0  0  0  0
M  END
> <PUBCHEM_COMPOUND_CID>
442126

> <PUBCHEM_COMPOUND_CANONICALIZED>
1

> <PUBCHEM_CACTVS_COMPLEXITY>
585

> <PUBCHEM_CACTVS_HBOND_ACCEPTOR>
5

> <PUBCHEM_CACTVS_HBOND_DONOR>
0

> <PUBCHEM_CACTVS_ROTATABLE_BOND>
3

> <PUBCHEM_CACTVS_SUBSKEYS>
AAADceB4OAAAAAAAAAAAAAAAAAAAAAAAAAA0QIAAAAAAAACRAAAAGgAAAAAADFSgmAIyDoAABACIAiDSCAACCAAgIAAIiAAGCMgNJyKEMRqCOiClwBUKqYfA4PwOIAACCAAIAABAAAQQABAAAAAAAAAAAA==

> <PUBCHEM_IUPAC_OPENEYE_NAME>
[(3S)-2,2-dimethyl-8-oxo-3,4-dihydropyrano[3,2-g]chromen-3-yl] 3-methylbut-2-enoate

> <PUBCHEM_IUPAC_CAS_NAME>
3-methyl-2-butenoic acid [(3S)-2,2-dimethyl-8-oxo-3,4-dihydropyrano[3,2-g][1]benzopyran-3-yl] ester

> <PUBCHEM_IUPAC_NAME>
[(3S)-2,2-dimethyl-8-oxo-3,4-dihydropyrano[3,2-g]chromen-3-yl] 3-methylbut-2-enoate

> <PUBCHEM_IUPAC_SYSTEMATIC_NAME>
[(3S)-2,2-dimethyl-8-oxidanylidene-3,4-dihydropyrano[3,2-g]chromen-3-yl] 3-methylbut-2-enoate

> <PUBCHEM_IUPAC_TRADITIONAL_NAME>
3-methylbut-2-enoic acid [(3S)-8-keto-2,2-dimethyl-3,4-dihydropyrano[3,2-g]chromen-3-yl] ester

> <PUBCHEM_IUPAC_INCHI>
InChI=1S/C19H20O5/c1-11(2)7-18(21)23-16-9-13-8-12-5-6-17(20)22-14(12)10-15(13)24-19(16,3)4/h5-8,10,16H,9H2,1-4H3/t16-/m0/s1

> <PUBCHEM_IUPAC_INCHIKEY>
CUKSFECWKQBVED-INIZCTEOSA-N

> <PUBCHEM_XLOGP3_AA>
3.9

> <PUBCHEM_EXACT_MASS>
328.131074

> <PUBCHEM_MOLECULAR_FORMULA>
C19H20O5

> <PUBCHEM_MOLECULAR_WEIGHT>
328.3591

> <PUBCHEM_OPENEYE_CAN_SMILES>
CC(=CC(=O)OC1CC2=C(C=C3C(=C2)C=CC(=O)O3)OC1(C)C)C

> <PUBCHEM_OPENEYE_ISO_SMILES>
CC(=CC(=O)O[C@H]1CC2=C(C=C3C(=C2)C=CC(=O)O3)OC1(C)C)C

> <PUBCHEM_CACTVS_TPSA>
61.8

> <PUBCHEM_MONOISOTOPIC_WEIGHT>
328.131074

> <PUBCHEM_TOTAL_CHARGE>
0

> <PUBCHEM_HEAVY_ATOM_COUNT>
24

> <PUBCHEM_ATOM_DEF_STEREO_COUNT>
1

> <PUBCHEM_ATOM_UDEF_STEREO_COUNT>
0

> <PUBCHEM_BOND_DEF_STEREO_COUNT>
0

> <PUBCHEM_BOND_UDEF_STEREO_COUNT>
0

> <PUBCHEM_ISOTOPIC_ATOM_COUNT>
0

> <PUBCHEM_COMPONENT_COUNT>
1

> <PUBCHEM_CACTVS_TAUTO_COUNT>
1

> <PUBCHEM_COORDINATE_TYPE>
1
5
255

> <PUBCHEM_BONDANNOTATIONS>
10  14  8
13  15  8
14  16  8
15  16  8
15  18  8
18  19  8
19  21  8
7  2  5
3  16  8
3  21  8
9  10  8
9  13  8

$$$$

