14803858
  -OEChem-07051213102D

 27 26  0     1  0  0  0  0  0999 V2000
    6.8671   -2.8450    0.0000 O   0  0  0  0  0  0  0  0  0  0  0  0
    5.1350   -2.8450    0.0000 O   0  0  0  0  0  0  0  0  0  0  0  0
    2.5369    0.6550    0.0000 O   0  0  0  0  0  0  0  0  0  0  0  0
    5.1350    2.1550    0.0000 O   0  0  0  0  0  0  0  0  0  0  0  0
    6.8671    3.1550    0.0000 O   0  0  0  0  0  0  0  0  0  0  0  0
    7.7331    1.6550    0.0000 O   0  0  0  0  0  0  0  0  0  0  0  0
    6.8671   -0.8450    0.0000 N   0  0  0  0  0  0  0  0  0  0  0  0
    5.1350   -0.8450    0.0000 C   0  0  0  0  0  0  0  0  0  0  0  0
    6.0010   -1.3450    0.0000 C   0  0  1  0  0  0  0  0  0  0  0  0
    5.1350    0.1550    0.0000 C   0  0  0  0  0  0  0  0  0  0  0  0
    6.0010   -2.3450    0.0000 C   0  0  0  0  0  0  0  0  0  0  0  0
    6.0010    0.6550    0.0000 C   0  0  0  0  0  0  0  0  0  0  0  0
    4.2690    0.6550    0.0000 C   0  0  0  0  0  0  0  0  0  0  0  0
    6.0010    1.6550    0.0000 C   0  0  0  0  0  0  0  0  0  0  0  0
    3.4030    0.1550    0.0000 C   0  0  0  0  0  0  0  0  0  0  0  0
    6.8671    2.1550    0.0000 C   0  0  0  0  0  0  0  0  0  0  0  0
    4.5244   -0.7373    0.0000 H   0  0  0  0  0  0  0  0  0  0  0  0
    4.9230   -1.4276    0.0000 H   0  0  0  0  0  0  0  0  0  0  0  0
    6.5380   -1.6550    0.0000 H   0  0  0  0  0  0  0  0  0  0  0  0
    7.4040   -1.1550    0.0000 H   0  0  0  0  0  0  0  0  0  0  0  0
    6.8671   -0.2250    0.0000 H   0  0  0  0  0  0  0  0  0  0  0  0
    6.5380    0.3450    0.0000 H   0  0  0  0  0  0  0  0  0  0  0  0
    4.2690    1.2750    0.0000 H   0  0  0  0  0  0  0  0  0  0  0  0
    3.4030   -0.4650    0.0000 H   0  0  0  0  0  0  0  0  0  0  0  0
    6.8671   -3.4650    0.0000 H   0  0  0  0  0  0  0  0  0  0  0  0
    2.0000    0.3450    0.0000 H   0  0  0  0  0  0  0  0  0  0  0  0
    7.4040    3.4650    0.0000 H   0  0  0  0  0  0  0  0  0  0  0  0
  1 11  1  0  0  0  0
  1 25  1  0  0  0  0
  2 11  2  0  0  0  0
  3 15  1  0  0  0  0
  3 26  1  0  0  0  0
  4 14  2  0  0  0  0
  5 16  1  0  0  0  0
  5 27  1  0  0  0  0
  6 16  2  0  0  0  0
  9  7  1  6  0  0  0
  7 20  1  0  0  0  0
  7 21  1  0  0  0  0
  8  9  1  0  0  0  0
  8 10  1  0  0  0  0
  8 17  1  0  0  0  0
  8 18  1  0  0  0  0
  9 11  1  0  0  0  0
  9 19  1  0  0  0  0
 10 12  2  0  0  0  0
 10 13  1  0  0  0  0
 12 14  1  0  0  0  0
 12 22  1  0  0  0  0
 13 15  2  0  0  0  0
 13 23  1  0  0  0  0
 14 16  1  0  0  0  0
 15 24  1  0  0  0  0
M  END
> <PUBCHEM_COMPOUND_CID>
14803858

> <PUBCHEM_COMPOUND_CANONICALIZED>
1

> <PUBCHEM_CACTVS_COMPLEXITY>
357

> <PUBCHEM_CACTVS_HBOND_ACCEPTOR>
7

> <PUBCHEM_CACTVS_HBOND_DONOR>
4

> <PUBCHEM_CACTVS_ROTATABLE_BOND>
6

> <PUBCHEM_CACTVS_SUBSKEYS>
AAADccByOAAAAAAAAAAAAAAAAAAAAAAAAAAAAAAAAAAAAAAAAAAAHgAQCAAADCzhgAYACABAAgCIAqDSCAIAAAAgIAAICIHAAEgKEBIAgQAAQAAE0AAIgQKIAAAAAAAAAAAAAAAAAAAAAAAAAAAAAAAAAA==

> <PUBCHEM_IUPAC_OPENEYE_NAME>
(Z,6S)-6-amino-4-[(E)-2-hydroxyvinyl]-2-oxo-hept-3-enedioic acid

> <PUBCHEM_IUPAC_CAS_NAME>
(Z,6S)-6-amino-4-[(E)-2-hydroxyethenyl]-2-oxo-3-heptenedioic acid

> <PUBCHEM_IUPAC_NAME>
(Z,6S)-6-amino-4-[(E)-2-hydroxyethenyl]-2-oxohept-3-enedioic acid

> <PUBCHEM_IUPAC_SYSTEMATIC_NAME>
(Z,6S)-6-azanyl-4-[(E)-2-oxidanylethenyl]-2-oxidanylidene-hept-3-enedioic acid

> <PUBCHEM_IUPAC_TRADITIONAL_NAME>
(Z,6S)-6-amino-4-[(E)-2-hydroxyvinyl]-2-keto-hept-3-enedioic acid

> <PUBCHEM_IUPAC_INCHI>
InChI=1S/C9H11NO6/c10-6(8(13)14)3-5(1-2-11)4-7(12)9(15)16/h1-2,4,6,11H,3,10H2,(H,13,14)(H,15,16)/b2-1+,5-4+/t6-/m0/s1

> <PUBCHEM_IUPAC_INCHIKEY>
PIYTUGMLAKPQKI-OMQYJPGKSA-N

> <PUBCHEM_XLOGP3_AA>
-2.9

> <PUBCHEM_EXACT_MASS>
229.058637

> <PUBCHEM_MOLECULAR_FORMULA>
C9H11NO6

> <PUBCHEM_MOLECULAR_WEIGHT>
229.18674

> <PUBCHEM_OPENEYE_CAN_SMILES>
C(C(C(=O)O)N)C(=CC(=O)C(=O)O)C=CO

> <PUBCHEM_OPENEYE_ISO_SMILES>
C([C@@H](C(=O)O)N)/C(=C/C(=O)C(=O)O)/C=C/O

> <PUBCHEM_CACTVS_TPSA>
138

> <PUBCHEM_MONOISOTOPIC_WEIGHT>
229.058637

> <PUBCHEM_TOTAL_CHARGE>
0

> <PUBCHEM_HEAVY_ATOM_COUNT>
16

> <PUBCHEM_ATOM_DEF_STEREO_COUNT>
1

> <PUBCHEM_ATOM_UDEF_STEREO_COUNT>
0

> <PUBCHEM_BOND_DEF_STEREO_COUNT>
2

> <PUBCHEM_BOND_UDEF_STEREO_COUNT>
0

> <PUBCHEM_ISOTOPIC_ATOM_COUNT>
0

> <PUBCHEM_COMPONENT_COUNT>
1

> <PUBCHEM_CACTVS_TAUTO_COUNT>
8

> <PUBCHEM_COORDINATE_TYPE>
1
5
255

> <PUBCHEM_BONDANNOTATIONS>
9  7  6

$$$$

