104757
  -OEChem-07051213152D

 36 40  0     1  0  0  0  0  0999 V2000
    3.5229   -1.5894    0.0000 O   0  0  0  0  0  0  0  0  0  0  0  0
    2.0000   -0.4776    0.0000 O   0  0  0  0  0  0  0  0  0  0  0  0
    5.3191    1.2569    0.0000 O   0  0  0  0  0  0  0  0  0  0  0  0
    8.3976   -1.0557    0.0000 O   0  0  0  0  0  0  0  0  0  0  0  0
    7.0672   -1.7846    0.0000 O   0  0  0  0  0  0  0  0  0  0  0  0
    8.4252    2.5217    0.0000 O   0  0  0  0  0  0  0  0  0  0  0  0
    6.2133    2.7846    0.0000 O   0  0  0  0  0  0  0  0  0  0  0  0
    3.5229    0.0201    0.0000 C   0  0  1  0  0  0  0  0  0  0  0  0
    4.4691   -0.2846    0.0000 C   0  0  0  0  0  0  0  0  0  0  0  0
    2.9393   -0.7846    0.0000 C   0  0  1  0  0  0  0  0  0  0  0  0
    5.3351    0.2154    0.0000 C   0  0  0  0  0  0  0  0  0  0  0  0
    6.2012   -0.2846    0.0000 C   0  0  0  0  0  0  0  0  0  0  0  0
    7.1112    0.2222    0.0000 C   0  0  0  0  0  0  0  0  0  0  0  0
    4.4691   -1.2846    0.0000 C   0  0  0  0  0  0  0  0  0  0  0  0
    8.0943   -0.1028    0.0000 C   0  0  2  0  0  0  0  0  0  0  0  0
    7.1192    1.2638    0.0000 C   0  0  0  0  0  0  0  0  0  0  0  0
    8.7087    0.7307    0.0000 C   0  0  0  0  0  0  0  0  0  0  0  0
    2.9393    0.8176    0.0000 C   0  0  0  0  0  0  0  0  0  0  0  0
    6.2012   -1.2846    0.0000 C   0  0  0  0  0  0  0  0  0  0  0  0
    5.3351   -1.7846    0.0000 C   0  0  0  0  0  0  0  0  0  0  0  0
    8.1072    1.5736    0.0000 C   0  0  0  0  0  0  0  0  0  0  0  0
    6.2171    1.7846    0.0000 C   0  0  0  0  0  0  0  0  0  0  0  0
    2.0000    0.5106    0.0000 C   0  0  0  0  0  0  0  0  0  0  0  0
    7.0672   -2.7846    0.0000 C   0  0  0  0  0  0  0  0  0  0  0  0
    4.0204    0.7093    0.0000 H   0  0  0  0  0  0  0  0  0  0  0  0
    2.4388   -1.4716    0.0000 H   0  0  0  0  0  0  0  0  0  0  0  0
    7.6535   -0.5388    0.0000 H   0  0  0  0  0  0  0  0  0  0  0  0
    9.1663    0.3125    0.0000 H   0  0  0  0  0  0  0  0  0  0  0  0
    9.1727    1.1419    0.0000 H   0  0  0  0  0  0  0  0  0  0  0  0
    3.1294    1.4077    0.0000 H   0  0  0  0  0  0  0  0  0  0  0  0
    5.3351   -2.4046    0.0000 H   0  0  0  0  0  0  0  0  0  0  0  0
    1.4981    0.8746    0.0000 H   0  0  0  0  0  0  0  0  0  0  0  0
    9.0033   -1.1882    0.0000 H   0  0  0  0  0  0  0  0  0  0  0  0
    6.4472   -2.7846    0.0000 H   0  0  0  0  0  0  0  0  0  0  0  0
    7.0672   -3.4046    0.0000 H   0  0  0  0  0  0  0  0  0  0  0  0
    7.6872   -2.7846    0.0000 H   0  0  0  0  0  0  0  0  0  0  0  0
  1 10  1  0  0  0  0
  1 14  1  0  0  0  0
  2 10  1  0  0  0  0
  2 23  1  0  0  0  0
  3 11  1  0  0  0  0
  3 22  1  0  0  0  0
 15  4  1  6  0  0  0
  4 33  1  0  0  0  0
  5 19  1  0  0  0  0
  5 24  1  0  0  0  0
  6 21  2  0  0  0  0
  7 22  2  0  0  0  0
  8  9  1  0  0  0  0
  8 10  1  0  0  0  0
  8 18  1  0  0  0  0
  8 25  1  6  0  0  0
  9 11  2  0  0  0  0
  9 14  1  0  0  0  0
 10 26  1  6  0  0  0
 11 12  1  0  0  0  0
 12 13  1  0  0  0  0
 12 19  2  0  0  0  0
 13 15  1  0  0  0  0
 13 16  2  0  0  0  0
 14 20  2  0  0  0  0
 15 17  1  0  0  0  0
 15 27  1  0  0  0  0
 16 21  1  0  0  0  0
 16 22  1  0  0  0  0
 17 21  1  0  0  0  0
 17 28  1  0  0  0  0
 17 29  1  0  0  0  0
 18 23  2  0  0  0  0
 18 30  1  0  0  0  0
 19 20  1  0  0  0  0
 20 31  1  0  0  0  0
 23 32  1  0  0  0  0
 24 34  1  0  0  0  0
 24 35  1  0  0  0  0
 24 36  1  0  0  0  0
M  END
> <PUBCHEM_COMPOUND_CID>
104757

> <PUBCHEM_COMPOUND_CANONICALIZED>
1

> <PUBCHEM_CACTVS_COMPLEXITY>
680

> <PUBCHEM_CACTVS_HBOND_ACCEPTOR>
7

> <PUBCHEM_CACTVS_HBOND_DONOR>
1

> <PUBCHEM_CACTVS_ROTATABLE_BOND>
1

> <PUBCHEM_CACTVS_SUBSKEYS>
AAADccB4OAAAAAAAAAAAAAAAAAAAASIEAAAwQAAAAAAQAEiBAAAAGgAACAAADRSwmAMyDoAABgCIAqDSCAACCAAgIAAIiAEGCMgcNzaMMRqieiCl4BUMuQfI7PzOoAACCAAIAABAAAQQABAAAAAAAAAAAA==

> <PUBCHEM_IUPAC_INCHI>
InChI=1S/C17H12O7/c1-21-9-5-10-11(6-2-3-22-17(6)23-10)15-14(9)12-7(18)4-8(19)13(12)16(20)24-15/h2-3,5-7,17-18H,4H2,1H3/t6-,7-,17+/m0/s1

> <PUBCHEM_IUPAC_INCHIKEY>
GYNOTJLCULOEIM-XKRJZGAWSA-N

> <PUBCHEM_XLOGP3_AA>
0.5

> <PUBCHEM_EXACT_MASS>
328.058303

> <PUBCHEM_MOLECULAR_FORMULA>
C17H12O7

> <PUBCHEM_MOLECULAR_WEIGHT>
328.27298

> <PUBCHEM_OPENEYE_CAN_SMILES>
COC1=C2C3=C(C(=O)CC3O)C(=O)OC2=C4C5C=COC5OC4=C1

> <PUBCHEM_OPENEYE_ISO_SMILES>
COC1=C2C3=C(C(=O)C[C@@H]3O)C(=O)OC2=C4[C@@H]5C=CO[C@@H]5OC4=C1

> <PUBCHEM_CACTVS_TPSA>
91.3

> <PUBCHEM_MONOISOTOPIC_WEIGHT>
328.058303

> <PUBCHEM_TOTAL_CHARGE>
0

> <PUBCHEM_HEAVY_ATOM_COUNT>
24

> <PUBCHEM_ATOM_DEF_STEREO_COUNT>
3

> <PUBCHEM_ATOM_UDEF_STEREO_COUNT>
0

> <PUBCHEM_BOND_DEF_STEREO_COUNT>
0

> <PUBCHEM_BOND_UDEF_STEREO_COUNT>
0

> <PUBCHEM_ISOTOPIC_ATOM_COUNT>
0

> <PUBCHEM_COMPONENT_COUNT>
1

> <PUBCHEM_CACTVS_TAUTO_COUNT>
2

> <PUBCHEM_COORDINATE_TYPE>
1
5
255

> <PUBCHEM_BONDANNOTATIONS>
10  26  6
11  12  8
12  13  8
12  19  8
13  16  8
14  20  8
16  22  8
19  20  8
3  11  8
3  22  8
15  4  6
8  25  6
9  11  8
9  14  8

$$$$

