439948
  -OEChem-07051212483D

 28 28  0     1  0  0  0  0  0999 V2000
    3.1967   -0.6396   -0.3782 O   0  0  0  0  0  0  0  0  0  0  0  0
   -2.6722   -0.8757   -1.5495 O   0  0  0  0  0  0  0  0  0  0  0  0
   -4.4533   -0.8536   -0.1576 O   0  0  0  0  0  0  0  0  0  0  0  0
    2.2323    3.2970   -0.1331 O   0  5  0  0  0  0  0  0  0  0  0  0
    0.3908   -3.4620    0.4267 O   0  5  0  0  0  0  0  0  0  0  0  0
    3.7288    1.7439   -0.5421 O   0  0  0  0  0  0  0  0  0  0  0  0
    2.4475   -2.9588   -0.1531 O   0  0  0  0  0  0  0  0  0  0  0  0
   -4.0977    1.9151    0.1908 N   0  0  0  0  0  0  0  0  0  0  0  0
    2.5685    2.0924   -0.2199 N   0  3  0  0  0  0  0  0  0  0  0  0
    1.2844   -2.6209    0.1706 N   0  3  0  0  0  0  0  0  0  0  0  0
   -2.0363    0.9064    1.0766 C   0  0  0  0  0  0  0  0  0  0  0  0
   -0.6440    0.4951    0.6893 C   0  0  0  0  0  0  0  0  0  0  0  0
   -2.9784    1.0637   -0.1255 C   0  0  1  0  0  0  0  0  0  0  0  0
   -0.3247   -0.8545    0.6088 C   0  0  0  0  0  0  0  0  0  0  0  0
    0.3083    1.4691    0.4163 C   0  0  0  0  0  0  0  0  0  0  0  0
    1.6010    1.0873    0.0570 C   0  0  0  0  0  0  0  0  0  0  0  0
    0.9679   -1.2363    0.2495 C   0  0  0  0  0  0  0  0  0  0  0  0
    1.9308   -0.2656   -0.0265 C   0  0  0  0  0  0  0  0  0  0  0  0
   -3.4505   -0.3030   -0.6001 C   0  0  0  0  0  0  0  0  0  0  0  0
   -2.4460    0.1871    1.7993 H   0  0  0  0  0  0  0  0  0  0  0  0
   -1.9661    1.8549    1.6279 H   0  0  0  0  0  0  0  0  0  0  0  0
   -2.4532    1.5335   -0.9665 H   0  0  0  0  0  0  0  0  0  0  0  0
   -1.0919   -1.5909    0.8352 H   0  0  0  0  0  0  0  0  0  0  0  0
    0.0228    2.5160    0.4863 H   0  0  0  0  0  0  0  0  0  0  0  0
   -3.7663    2.8383    0.4686 H   0  0  0  0  0  0  0  0  0  0  0  0
   -4.6006    1.5469    0.9977 H   0  0  0  0  0  0  0  0  0  0  0  0
    3.1823   -1.5036   -0.8184 H   0  0  0  0  0  0  0  0  0  0  0  0
   -3.0105   -1.7559   -1.8194 H   0  0  0  0  0  0  0  0  0  0  0  0
  1 18  1  0  0  0  0
  1 27  1  0  0  0  0
  2 19  1  0  0  0  0
  2 28  1  0  0  0  0
  3 19  2  0  0  0  0
  4  9  1  0  0  0  0
  5 10  1  0  0  0  0
  6  9  2  0  0  0  0
  7 10  2  0  0  0  0
  8 13  1  0  0  0  0
  8 25  1  0  0  0  0
  8 26  1  0  0  0  0
  9 16  1  0  0  0  0
 10 17  1  0  0  0  0
 11 12  1  0  0  0  0
 11 13  1  0  0  0  0
 11 20  1  0  0  0  0
 11 21  1  0  0  0  0
 12 14  2  0  0  0  0
 12 15  1  0  0  0  0
 13 19  1  0  0  0  0
 13 22  1  0  0  0  0
 14 17  1  0  0  0  0
 14 23  1  0  0  0  0
 15 16  2  0  0  0  0
 15 24  1  0  0  0  0
 16 18  1  0  0  0  0
 17 18  2  0  0  0  0
M  CHG  4   4  -1   5  -1   9   1  10   1
M  END
> <PUBCHEM_COMPOUND_CID>
439948

> <PUBCHEM_CONFORMER_RMSD>
0.6

> <PUBCHEM_CONFORMER_DIVERSEORDER>
1
7
3
8
4
2
6
5

> <PUBCHEM_MMFF94_PARTIAL_CHARGES>
25
1 -0.53
10 0.91
11 0.14
12 -0.14
13 0.33
14 -0.15
15 -0.15
16 0.13
17 0.13
18 0.08
19 0.66
2 -0.65
23 0.15
24 0.15
25 0.36
26 0.36
27 0.45
28 0.5
3 -0.57
4 -0.52
5 -0.52
6 -0.52
7 -0.52
8 -0.99
9 0.91

> <PUBCHEM_EFFECTIVE_ROTOR_COUNT>
5

> <PUBCHEM_PHARMACOPHORE_FEATURES>
13
1 1 donor
1 2 acceptor
1 3 acceptor
1 4 acceptor
1 4 anion
1 5 acceptor
1 5 anion
1 6 acceptor
1 7 acceptor
1 8 cation
1 8 donor
3 2 3 19 anion
6 12 14 15 16 17 18 rings

> <PUBCHEM_HEAVY_ATOM_COUNT>
19

> <PUBCHEM_ATOM_DEF_STEREO_COUNT>
1

> <PUBCHEM_ATOM_UDEF_STEREO_COUNT>
0

> <PUBCHEM_BOND_DEF_STEREO_COUNT>
0

> <PUBCHEM_BOND_UDEF_STEREO_COUNT>
0

> <PUBCHEM_ISOTOPIC_ATOM_COUNT>
0

> <PUBCHEM_COMPONENT_COUNT>
1

> <PUBCHEM_CACTVS_TAUTO_COUNT>
3

> <PUBCHEM_CONFORMER_ID>
0006B68C00000001

> <PUBCHEM_MMFF94_ENERGY>
59.0978

> <PUBCHEM_FEATURE_SELFOVERLAP>
66.191

> <PUBCHEM_SHAPE_FINGERPRINT>
10967382 1 18411132524532168744
12400797 292 18334575784400017399
12553582 1 17834958955080485371
12730499 353 18343012277686453697
13004483 165 17332538267676968483
13380535 76 18341331076814901184
14181834 199 18202002161660133294
14251717 144 18411420617889952074
15279307 12 18260266356663211661
15442244 35 18048314741296131097
15502722 9 18411699889553753659
16945 1 18339910632229821688
18186145 218 18413110562893400413
20645477 70 18342463668549725163
21160774 45 17835231247469527051
21499 59 18269274573345478709
21524375 3 18130230328871016424
21618674 54 18410859867424185349
21634736 98 18334012834462647910
21639500 275 18341899592761107820
221490 88 18340477945928427731
2255824 54 18411136969549110882
22907989 373 17478314341180945884
23402539 116 18263930006943641718
23419403 2 17128210374585069414
23598291 2 18115864273283017097
25 1 18343017796144747088
257057 1 17764032767197317122
2748010 2 18124855903302156000
2871803 45 18263372404208381103
3060560 45 18341333301581807724
34934 24 17764309843816293435
352729 6 18122053209513634520
474 4 18412824655500033593
6992083 37 17612582741305317673
7364860 26 18338796835440644192
7832392 63 18121500425595088273
81228 2 17188970662419498712
84936 182 18260833665634633112
90525 40 17894915182856998359

> <PUBCHEM_SHAPE_MULTIPOLES>
334.98
6.47
3.35
0.86
4.89
1.18
-0.06
-1.74
-1.5
-2.99
0.05
0.45
0.04
-0.67

> <PUBCHEM_SHAPE_SELFOVERLAP>
708.716

> <PUBCHEM_SHAPE_VOLUME>
186.7

> <PUBCHEM_COORDINATE_TYPE>
2
5
10

$$$$

