13273
  -OEChem-06261208222D

 21 22  0     0  0  0  0  0  0999 V2000
    3.6750    1.7768    0.0000 O   0  0  0  0  0  0  0  0  0  0  0  0
    5.1349   -1.7058    0.0000 O   0  0  0  0  0  0  0  0  0  0  0  0
    6.3949   -2.9659    0.0000 O   0  0  0  0  0  0  0  0  0  0  0  0
    2.0000    3.8646    0.0000 O   0  5  0  0  0  0  0  0  0  0  0  0
    3.7321    3.8646    0.0000 O   0  0  0  0  0  0  0  0  0  0  0  0
    3.8258   -2.6568    0.0000 N   0  0  0  0  0  0  0  0  0  0  0  0
    4.6349   -3.2446    0.0000 N   0  0  0  0  0  0  0  0  0  0  0  0
    2.8660    3.3646    0.0000 N   0  3  0  0  0  0  0  0  0  0  0  0
    3.3660    0.8258    0.0000 C   0  0  0  0  0  0  0  0  0  0  0  0
    2.3660    0.8258    0.0000 C   0  0  0  0  0  0  0  0  0  0  0  0
    3.9538    0.0168    0.0000 C   0  0  0  0  0  0  0  0  0  0  0  0
    2.8660    2.3646    0.0000 C   0  0  0  0  0  0  0  0  0  0  0  0
    2.0570    1.7768    0.0000 C   0  0  0  0  0  0  0  0  0  0  0  0
    3.5471   -0.8968    0.0000 C   0  0  0  0  0  0  0  0  0  0  0  0
    4.1349   -1.7058    0.0000 C   0  0  0  0  0  0  0  0  0  0  0  0
    5.4439   -2.6568    0.0000 C   0  0  0  0  0  0  0  0  0  0  0  0
    2.0016    0.3242    0.0000 H   0  0  0  0  0  0  0  0  0  0  0  0
    4.5704    0.0816    0.0000 H   0  0  0  0  0  0  0  0  0  0  0  0
    1.4674    1.9684    0.0000 H   0  0  0  0  0  0  0  0  0  0  0  0
    2.9305   -0.9616    0.0000 H   0  0  0  0  0  0  0  0  0  0  0  0
    4.6349   -3.8646    0.0000 H   0  0  0  0  0  0  0  0  0  0  0  0
  1  9  1  0  0  0  0
  1 12  1  0  0  0  0
  2 15  1  0  0  0  0
  2 16  1  0  0  0  0
  3 16  2  0  0  0  0
  4  8  1  0  0  0  0
  5  8  2  0  0  0  0
  6  7  1  0  0  0  0
  6 15  2  0  0  0  0
  7 16  1  0  0  0  0
  7 21  1  0  0  0  0
  8 12  1  0  0  0  0
  9 10  2  0  0  0  0
  9 11  1  0  0  0  0
 10 13  1  0  0  0  0
 10 17  1  0  0  0  0
 11 14  2  3  0  0  0
 11 18  1  0  0  0  0
 12 13  2  0  0  0  0
 13 19  1  0  0  0  0
 14 15  1  0  0  0  0
 14 20  1  0  0  0  0
M  CHG  2   4  -1   8   1
M  END
> <PUBCHEM_COMPOUND_CID>
13273

> <PUBCHEM_COMPOUND_CANONICALIZED>
1

> <PUBCHEM_CACTVS_COMPLEXITY>
372

> <PUBCHEM_CACTVS_HBOND_ACCEPTOR>
6

> <PUBCHEM_CACTVS_HBOND_DONOR>
1

> <PUBCHEM_CACTVS_ROTATABLE_BOND>
2

> <PUBCHEM_CACTVS_SUBSKEYS>
AAADcYBzOAAAAAAAAAAAAAAAAAAAASIAAAAAAAAAAAAAAAABgAAAHgAcAAAACASBkAAwjIByRECpAKFyWwCSCAAsIgAqiAEWbNsMJjKEtZuKGSDkyBEI6Ya8AAAAAAAAAAAAAAAAAAAAAAAAAAAAAAAAAA==

> <PUBCHEM_IUPAC_OPENEYE_NAME>
5-[2-(5-nitro-2-furyl)vinyl]-3H-1,3,4-oxadiazol-2-one

> <PUBCHEM_IUPAC_CAS_NAME>
5-[2-(5-nitro-2-furanyl)ethenyl]-3H-1,3,4-oxadiazol-2-one

> <PUBCHEM_IUPAC_NAME>
5-[2-(5-nitrofuran-2-yl)ethenyl]-3H-1,3,4-oxadiazol-2-one

> <PUBCHEM_IUPAC_SYSTEMATIC_NAME>
5-[2-(5-nitrofuran-2-yl)ethenyl]-3H-1,3,4-oxadiazol-2-one

> <PUBCHEM_IUPAC_TRADITIONAL_NAME>
5-[2-(5-nitro-2-furyl)vinyl]-3H-1,3,4-oxadiazol-2-one

> <PUBCHEM_IUPAC_INCHI>
InChI=1S/C8H5N3O5/c12-8-10-9-6(16-8)3-1-5-2-4-7(15-5)11(13)14/h1-4H,(H,10,12)

> <PUBCHEM_IUPAC_INCHIKEY>
YMBYAWBQUZCBQZ-UHFFFAOYSA-N

> <PUBCHEM_XLOGP3_AA>
1.1

> <PUBCHEM_EXACT_MASS>
223.02292

> <PUBCHEM_MOLECULAR_FORMULA>
C8H5N3O5

> <PUBCHEM_MOLECULAR_WEIGHT>
223.1424

> <PUBCHEM_OPENEYE_CAN_SMILES>
C1=C(OC(=C1)[N+](=O)[O-])C=CC2=NNC(=O)O2

> <PUBCHEM_OPENEYE_ISO_SMILES>
C1=C(OC(=C1)[N+](=O)[O-])C=CC2=NNC(=O)O2

> <PUBCHEM_CACTVS_TPSA>
110

> <PUBCHEM_MONOISOTOPIC_WEIGHT>
223.02292

> <PUBCHEM_TOTAL_CHARGE>
0

> <PUBCHEM_HEAVY_ATOM_COUNT>
16

> <PUBCHEM_ATOM_DEF_STEREO_COUNT>
0

> <PUBCHEM_ATOM_UDEF_STEREO_COUNT>
0

> <PUBCHEM_BOND_DEF_STEREO_COUNT>
0

> <PUBCHEM_BOND_UDEF_STEREO_COUNT>
1

> <PUBCHEM_ISOTOPIC_ATOM_COUNT>
0

> <PUBCHEM_COMPONENT_COUNT>
1

> <PUBCHEM_CACTVS_TAUTO_COUNT>
2

> <PUBCHEM_COORDINATE_TYPE>
1
5
255

> <PUBCHEM_BONDANNOTATIONS>
1  12  8
1  9  8
10  13  8
11  14  1
12  13  8
2  15  8
2  16  8
6  15  8
6  7  8
7  16  8
9  10  8

$$$$

