10611
  -OEChem-06261204453D

 32 33  0     1  0  0  0  0  0999 V2000
    2.8771    1.6149    0.0135 O   0  0  0  0  0  0  0  0  0  0  0  0
   -1.1669    2.4343   -0.3194 O   0  0  0  0  0  0  0  0  0  0  0  0
   -2.2201   -2.1490    0.3900 O   0  0  0  0  0  0  0  0  0  0  0  0
   -4.0509   -0.5273    0.2059 O   0  0  0  0  0  0  0  0  0  0  0  0
   -3.5229    1.7748   -0.0810 O   0  0  0  0  0  0  0  0  0  0  0  0
    2.4507   -0.8071   -0.3269 C   0  0  1  0  0  0  0  0  0  0  0  0
    3.2730    0.2868    0.3894 C   0  0  2  0  0  0  0  0  0  0  0  0
    0.9551   -0.5785   -0.1401 C   0  0  0  0  0  0  0  0  0  0  0  0
    0.5896    0.8311   -0.1218 C   0  0  0  0  0  0  0  0  0  0  0  0
    0.0513   -1.5728   -0.0122 C   0  0  0  0  0  0  0  0  0  0  0  0
    2.7926   -0.8559   -1.8235 C   0  0  0  0  0  0  0  0  0  0  0  0
    3.2459    0.1596    1.9157 C   0  0  0  0  0  0  0  0  0  0  0  0
    1.5209    1.7980   -0.0874 C   0  0  0  0  0  0  0  0  0  0  0  0
   -0.8311    1.2657   -0.1652 C   0  0  0  0  0  0  0  0  0  0  0  0
   -1.4059   -1.2603    0.1560 C   0  0  0  0  0  0  0  0  0  0  0  0
   -1.8085    0.1634    0.0105 C   0  0  0  0  0  0  0  0  0  0  0  0
    0.3643   -3.0448   -0.0478 C   0  0  0  0  0  0  0  0  0  0  0  0
   -3.1141    0.4672    0.0445 C   0  0  0  0  0  0  0  0  0  0  0  0
    2.7520   -1.7656    0.1112 H   0  0  0  0  0  0  0  0  0  0  0  0
    4.3224    0.1888    0.0837 H   0  0  0  0  0  0  0  0  0  0  0  0
    2.2362   -1.6540   -2.3274 H   0  0  0  0  0  0  0  0  0  0  0  0
    2.5611    0.0855   -2.3334 H   0  0  0  0  0  0  0  0  0  0  0  0
    3.8597   -1.0581   -1.9660 H   0  0  0  0  0  0  0  0  0  0  0  0
    3.6228   -0.8168    2.2352 H   0  0  0  0  0  0  0  0  0  0  0  0
    3.8696    0.9379    2.3690 H   0  0  0  0  0  0  0  0  0  0  0  0
    2.2387    0.2922    2.3235 H   0  0  0  0  0  0  0  0  0  0  0  0
    1.3116    2.8589   -0.1326 H   0  0  0  0  0  0  0  0  0  0  0  0
    0.2544   -3.4773    0.9521 H   0  0  0  0  0  0  0  0  0  0  0  0
    1.3718   -3.2692   -0.4044 H   0  0  0  0  0  0  0  0  0  0  0  0
   -0.3203   -3.5655   -0.7267 H   0  0  0  0  0  0  0  0  0  0  0  0
   -4.9231   -0.0980    0.2035 H   0  0  0  0  0  0  0  0  0  0  0  0
   -4.4936    1.7743   -0.0299 H   0  0  0  0  0  0  0  0  0  0  0  0
  1  7  1  0  0  0  0
  1 13  1  0  0  0  0
  2 14  2  0  0  0  0
  3 15  2  0  0  0  0
  4 18  1  0  0  0  0
  4 31  1  0  0  0  0
  5 18  1  0  0  0  0
  5 32  1  0  0  0  0
  6  7  1  0  0  0  0
  6  8  1  0  0  0  0
  6 11  1  0  0  0  0
  6 19  1  0  0  0  0
  7 12  1  0  0  0  0
  7 20  1  0  0  0  0
  8  9  1  0  0  0  0
  8 10  2  0  0  0  0
  9 13  2  0  0  0  0
  9 14  1  0  0  0  0
 10 15  1  0  0  0  0
 10 17  1  0  0  0  0
 11 21  1  0  0  0  0
 11 22  1  0  0  0  0
 11 23  1  0  0  0  0
 12 24  1  0  0  0  0
 12 25  1  0  0  0  0
 12 26  1  0  0  0  0
 13 27  1  0  0  0  0
 14 16  1  0  0  0  0
 15 16  1  0  0  0  0
 16 18  2  0  0  0  0
 17 28  1  0  0  0  0
 17 29  1  0  0  0  0
 17 30  1  0  0  0  0
M  END
> <PUBCHEM_COMPOUND_CID>
10611

> <PUBCHEM_CONFORMER_RMSD>
0.6

> <PUBCHEM_CONFORMER_DIVERSEORDER>
1
2

> <PUBCHEM_MMFF94_PARTIAL_CHARGES>
19
1 -0.36
10 -0.12
13 -0.07
14 0.54
15 0.54
16 0.03
17 0.14
18 0.15
2 -0.57
27 0.15
3 -0.57
31 0.45
32 0.45
4 -0.53
5 -0.53
6 0.14
7 0.28
8 -0.14
9 0.01

> <PUBCHEM_EFFECTIVE_ROTOR_COUNT>
0.6

> <PUBCHEM_PHARMACOPHORE_FEATURES>
9
1 1 acceptor
1 16 anion
1 2 acceptor
1 3 acceptor
1 4 donor
1 5 donor
3 4 5 18 anion
6 1 6 7 8 9 13 rings
6 8 9 10 14 15 16 rings

> <PUBCHEM_HEAVY_ATOM_COUNT>
18

> <PUBCHEM_ATOM_DEF_STEREO_COUNT>
2

> <PUBCHEM_ATOM_UDEF_STEREO_COUNT>
0

> <PUBCHEM_BOND_DEF_STEREO_COUNT>
0

> <PUBCHEM_BOND_UDEF_STEREO_COUNT>
0

> <PUBCHEM_ISOTOPIC_ATOM_COUNT>
0

> <PUBCHEM_COMPONENT_COUNT>
1

> <PUBCHEM_CACTVS_TAUTO_COUNT>
11

> <PUBCHEM_CONFORMER_ID>
0000297300000001

> <PUBCHEM_MMFF94_ENERGY>
45.8339

> <PUBCHEM_FEATURE_SELFOVERLAP>
46.123

> <PUBCHEM_SHAPE_FINGERPRINT>
10411042 1 16393808320769556795
10608611 8 18408885113911640553
10967382 1 18411135835730472727
1100329 8 14374508241251622633
11132069 177 18408047311973774121
11543360 7 16153726326884989821
12236239 1 17489583494274583278
12251169 10 18342469114336356048
12382932 28 18336829688853127480
13140716 1 18411980222005827945
13172582 1 18341619204516546648
13380535 76 18411987974643570299
13538477 17 17846494807935542266
13583140 156 16917074330410074585
13897977 150 18339080492513864285
14178342 30 18122068864337593440
15196674 1 18411136948090144061
15219456 202 18186794760591446550
15536298 74 18187362159904068141
16945 1 18340484572798753399
17804303 29 18410856607396139306
1813 80 16629128870121303386
18186145 218 18188202221152799489
193761 8 17690843779815152045
20510252 161 18262231106337386753
20559304 39 18201722898633901714
20645476 183 17345738708058951350
20905425 154 17905040700932208910
21501502 16 18268433421359624924
22802520 49 18189315987750936814
2334 1 18195241122742330167
23402539 116 18191039923135731743
23419403 2 16527851470220675869
23463225 33 18271529697474290129
23493267 7 17488154124114609466
23559900 14 18335693992975254462
2748010 2 18338790105242767591
335352 9 18195245744121898767
4072396 5 18200051636696175075
53812653 166 18336267967218083208
69090 78 18259989241078566439
7097593 13 18057349282639538226
7364860 26 18047194330093923846
84936 31 16805320041593158326
9709674 26 18334853887906489735

> <PUBCHEM_SHAPE_MULTIPOLES>
341.08
5.72
2.56
1.05
2.02
0.78
0.06
-1.13
0.67
0.59
-0.12
-1.25
0.12
0.6

> <PUBCHEM_SHAPE_SELFOVERLAP>
734.333

> <PUBCHEM_SHAPE_VOLUME>
184.3

> <PUBCHEM_COORDINATE_TYPE>
2
5
10

$$$$

