3033839
  -OEChem-07051213102D

 15 10  0     0  0  0  0  0  0999 V2000
    3.0739    0.0000    0.0000 Ca  0  2  0  0  0  0  0  0  0  0  0  0
    3.0739    4.0000    0.0000 Ca  0  2  0  0  0  0  0  0  0  0  0  0
    4.0739    1.0000    0.0000 S   0  0  0  0  0  0  0  0  0  0  0  0
    4.0739    5.0000    0.0000 S   0  0  0  0  0  0  0  0  0  0  0  0
    3.0739    1.0000    0.0000 O   0  5  0  0  0  0  0  0  0  0  0  0
    4.0739    0.0000    0.0000 O   0  5  0  0  0  0  0  0  0  0  0  0
    3.0739    5.0000    0.0000 O   0  5  0  0  0  0  0  0  0  0  0  0
    4.0739    4.0000    0.0000 O   0  5  0  0  0  0  0  0  0  0  0  0
    5.0739    1.0000    0.0000 O   0  0  0  0  0  0  0  0  0  0  0  0
    4.0739    2.0000    0.0000 O   0  0  0  0  0  0  0  0  0  0  0  0
    5.0739    5.0000    0.0000 O   0  0  0  0  0  0  0  0  0  0  0  0
    4.0739    6.0000    0.0000 O   0  0  0  0  0  0  0  0  0  0  0  0
    0.5369    2.7500    0.0000 O   0  0  0  0  0  0  0  0  0  0  0  0
    1.0739    3.0600    0.0000 H   0  0  0  0  0  0  0  0  0  0  0  0
    0.0000    3.0600    0.0000 H   0  0  0  0  0  0  0  0  0  0  0  0
  3  5  1  0  0  0  0
  3  6  1  0  0  0  0
  3  9  2  0  0  0  0
  3 10  2  0  0  0  0
  4  7  1  0  0  0  0
  4  8  1  0  0  0  0
  4 11  2  0  0  0  0
  4 12  2  0  0  0  0
 13 14  1  0  0  0  0
 13 15  1  0  0  0  0
M  CHG  6   1   2   2   2   5  -1   6  -1   7  -1   8  -1
M  END
> <PUBCHEM_COMPOUND_CID>
3033839

> <PUBCHEM_COMPOUND_CANONICALIZED>
1

> <PUBCHEM_CACTVS_COMPLEXITY>
62.2

> <PUBCHEM_CACTVS_HBOND_ACCEPTOR>
9

> <PUBCHEM_CACTVS_HBOND_DONOR>
1

> <PUBCHEM_CACTVS_ROTATABLE_BOND>
0

> <PUBCHEM_CACTVS_SUBSKEYS>
AAADcQAAPABgAAgAAAAAAAAAAAAAAAAAAAAAAAAAAAAAAAAAAAAAAAAACAAAAAAAAAAAAAAAAAAAAAAAADAAAAAAAAAAAAAAAAAAAAAAAAAAAAAAAAAAAAAAAAAAAAAAAAAAAAAAAAAAAAAAAAAAAAAAAA==

> <PUBCHEM_IUPAC_OPENEYE_NAME>
dicalcium disulfate hydrate

> <PUBCHEM_IUPAC_CAS_NAME>
dicalcium disulfate hydrate

> <PUBCHEM_IUPAC_NAME>
dicalcium disulfate hydrate

> <PUBCHEM_IUPAC_SYSTEMATIC_NAME>
dicalcium disulfate hydrate

> <PUBCHEM_IUPAC_TRADITIONAL_NAME>
dicalcium disulfate hydrate

> <PUBCHEM_IUPAC_INCHI>
InChI=1S/2Ca.2H2O4S.H2O/c;;2*1-5(2,3)4;/h;;2*(H2,1,2,3,4);1H2/q2*+2;;;/p-4

> <PUBCHEM_IUPAC_INCHIKEY>
ZOMBKNNSYQHRCA-UHFFFAOYSA-J

> <PUBCHEM_EXACT_MASS>
289.839206

> <PUBCHEM_MOLECULAR_FORMULA>
Ca2H2O9S2

> <PUBCHEM_MOLECULAR_WEIGHT>
290.29648

> <PUBCHEM_OPENEYE_CAN_SMILES>
O.[O-]S(=O)(=O)[O-].[O-]S(=O)(=O)[O-].[Ca+2].[Ca+2]

> <PUBCHEM_OPENEYE_ISO_SMILES>
O.[O-]S(=O)(=O)[O-].[O-]S(=O)(=O)[O-].[Ca+2].[Ca+2]

> <PUBCHEM_CACTVS_TPSA>
178

> <PUBCHEM_MONOISOTOPIC_WEIGHT>
289.839206

> <PUBCHEM_TOTAL_CHARGE>
0

> <PUBCHEM_HEAVY_ATOM_COUNT>
13

> <PUBCHEM_ATOM_DEF_STEREO_COUNT>
0

> <PUBCHEM_ATOM_UDEF_STEREO_COUNT>
0

> <PUBCHEM_BOND_DEF_STEREO_COUNT>
0

> <PUBCHEM_BOND_UDEF_STEREO_COUNT>
0

> <PUBCHEM_ISOTOPIC_ATOM_COUNT>
0

> <PUBCHEM_COMPONENT_COUNT>
5

> <PUBCHEM_CACTVS_TAUTO_COUNT>
1

> <PUBCHEM_COORDINATE_TYPE>
1
5
255

$$$$

