42626432
  -OEChem-07051213153D

 61 65  0     1  0  0  0  0  0999 V2000
    2.9549    2.3489   -0.4549 P   0  0  1  0  0  0  0  0  0  0  0  0
   -3.6917    0.5824   -1.4172 P   0  0  1  0  0  0  0  0  0  0  0  0
   -3.7136   -1.3261    0.8221 P   0  0  2  0  0  0  0  0  0  0  0  0
   -0.1112    3.0205   -1.6146 O   0  0  0  0  0  0  0  0  0  0  0  0
    1.8293    2.6453    0.6778 O   0  0  0  0  0  0  0  0  0  0  0  0
    0.2600   -2.4293    2.1039 O   0  0  0  0  0  0  0  0  0  0  0  0
    2.2646    3.1821   -1.6654 O   0  0  0  0  0  0  0  0  0  0  0  0
   -0.6019    3.1421    1.9437 O   0  0  0  0  0  0  0  0  0  0  0  0
    1.2553   -1.0012    4.5836 O   0  0  0  0  0  0  0  0  0  0  0  0
    2.9417   -0.0783    2.6146 O   0  0  0  0  0  0  0  0  0  0  0  0
   -2.6466    1.7793   -1.7208 O   0  0  0  0  0  0  0  0  0  0  0  0
   -2.4450   -1.7812    1.7168 O   0  0  0  0  0  0  0  0  0  0  0  0
    4.1947    3.2855   -0.0105 O   0  0  0  0  0  0  0  0  0  0  0  0
    3.2720    0.9095   -0.7194 O   0  0  0  0  0  0  0  0  0  0  0  0
   -3.1048   -0.1448   -0.0980 O   0  0  0  0  0  0  0  0  0  0  0  0
   -5.0162    1.3323   -0.8687 O   0  0  0  0  0  0  0  0  0  0  0  0
   -4.6574   -0.5258    1.8640 O   0  0  0  0  0  0  0  0  0  0  0  0
   -3.9383   -0.3441   -2.5724 O   0  0  0  0  0  0  0  0  0  0  0  0
   -4.3989   -2.4218    0.0589 O   0  0  0  0  0  0  0  0  0  0  0  0
    2.0107   -2.2262    0.4153 N   0  0  0  0  0  0  0  0  0  0  0  0
    3.3111   -2.6657   -1.3412 N   0  0  0  0  0  0  0  0  0  0  0  0
   -0.1259   -1.9501   -0.7064 N   0  0  0  0  0  0  0  0  0  0  0  0
    0.0924   -2.2597   -3.1174 N   0  0  0  0  0  0  0  0  0  0  0  0
    2.1835   -2.7689   -4.1632 N   0  0  0  0  0  0  0  0  0  0  0  0
    1.0731    3.8053    0.3022 C   0  0  2  0  0  0  0  0  0  0  0  0
   -0.3874    3.6413    0.6416 C   0  0  1  0  0  0  0  0  0  0  0  0
   -0.8412    2.6603   -0.4284 C   0  0  1  0  0  0  0  0  0  0  0  0
    1.0458    3.7850   -1.2258 C   0  0  2  0  0  0  0  0  0  0  0  0
    0.6613   -0.4763    3.3972 C   0  0  1  0  0  0  0  0  0  0  0  0
    1.6493   -0.5188    2.2485 C   0  0  2  0  0  0  0  0  0  0  0  0
   -0.4102   -1.4555    2.9352 C   0  0  1  0  0  0  0  0  0  0  0  0
    1.6114   -1.9912    1.8529 C   0  0  1  0  0  0  0  0  0  0  0  0
   -2.3323    2.7196   -0.7067 C   0  0  0  0  0  0  0  0  0  0  0  0
   -1.5052   -0.7958    2.1081 C   0  0  0  0  0  0  0  0  0  0  0  0
    1.1927   -2.1944   -0.6779 C   0  0  0  0  0  0  0  0  0  0  0  0
    3.2725   -2.5128   -0.0339 C   0  0  0  0  0  0  0  0  0  0  0  0
    2.0181   -2.4694   -1.7565 C   0  0  0  0  0  0  0  0  0  0  0  0
    1.4220   -2.4976   -3.0133 C   0  0  0  0  0  0  0  0  0  0  0  0
   -0.5889   -2.0044   -1.9742 C   0  0  0  0  0  0  0  0  0  0  0  0
    1.5543    4.6849    0.7372 H   0  0  0  0  0  0  0  0  0  0  0  0
   -0.9069    4.6011    0.5323 H   0  0  0  0  0  0  0  0  0  0  0  0
   -0.5617    1.6298   -0.1757 H   0  0  0  0  0  0  0  0  0  0  0  0
    0.9502    4.7877   -1.6533 H   0  0  0  0  0  0  0  0  0  0  0  0
    0.2980    0.5311    3.6200 H   0  0  0  0  0  0  0  0  0  0  0  0
    1.2904    0.1052    1.4224 H   0  0  0  0  0  0  0  0  0  0  0  0
   -0.8585   -2.0097    3.7676 H   0  0  0  0  0  0  0  0  0  0  0  0
    2.2967   -2.6084    2.4468 H   0  0  0  0  0  0  0  0  0  0  0  0
   -2.6180    3.7058   -1.0869 H   0  0  0  0  0  0  0  0  0  0  0  0
   -2.9057    2.5219    0.2049 H   0  0  0  0  0  0  0  0  0  0  0  0
   -1.0786   -0.3337    1.2148 H   0  0  0  0  0  0  0  0  0  0  0  0
   -2.0131   -0.0253    2.6966 H   0  0  0  0  0  0  0  0  0  0  0  0
   -0.1823    3.7599    2.5662 H   0  0  0  0  0  0  0  0  0  0  0  0
    0.5762   -0.9867    5.2796 H   0  0  0  0  0  0  0  0  0  0  0  0
    2.8568    0.8345    2.9386 H   0  0  0  0  0  0  0  0  0  0  0  0
    4.1187   -2.5951    0.6343 H   0  0  0  0  0  0  0  0  0  0  0  0
    4.9738    3.3546   -0.6023 H   0  0  0  0  0  0  0  0  0  0  0  0
   -1.6511   -1.8275   -2.0940 H   0  0  0  0  0  0  0  0  0  0  0  0
   -5.8355    0.8097   -0.7350 H   0  0  0  0  0  0  0  0  0  0  0  0
   -4.2880    0.2370    2.3574 H   0  0  0  0  0  0  0  0  0  0  0  0
    3.1760   -2.9467   -4.0884 H   0  0  0  0  0  0  0  0  0  0  0  0
    1.7273   -2.7838   -5.0652 H   0  0  0  0  0  0  0  0  0  0  0  0
  1  5  1  0  0  0  0
  1  7  1  0  0  0  0
  1 13  1  0  0  0  0
  1 14  2  0  0  0  0
  2 11  1  0  0  0  0
  2 15  1  0  0  0  0
  2 16  1  0  0  0  0
  2 18  2  0  0  0  0
  3 12  1  0  0  0  0
  3 15  1  0  0  0  0
  3 17  1  0  0  0  0
  3 19  2  0  0  0  0
  4 27  1  0  0  0  0
  4 28  1  0  0  0  0
  5 25  1  0  0  0  0
  6 31  1  0  0  0  0
  6 32  1  0  0  0  0
  7 28  1  0  0  0  0
  8 26  1  0  0  0  0
  8 52  1  0  0  0  0
  9 29  1  0  0  0  0
  9 53  1  0  0  0  0
 10 30  1  0  0  0  0
 10 54  1  0  0  0  0
 11 33  1  0  0  0  0
 12 34  1  0  0  0  0
 13 56  1  0  0  0  0
 16 58  1  0  0  0  0
 17 59  1  0  0  0  0
 20 32  1  0  0  0  0
 20 35  1  0  0  0  0
 20 36  1  0  0  0  0
 21 36  2  0  0  0  0
 21 37  1  0  0  0  0
 22 35  2  0  0  0  0
 22 39  1  0  0  0  0
 23 38  1  0  0  0  0
 23 39  2  0  0  0  0
 24 38  1  0  0  0  0
 24 60  1  0  0  0  0
 24 61  1  0  0  0  0
 25 26  1  0  0  0  0
 25 28  1  0  0  0  0
 25 40  1  0  0  0  0
 26 27  1  0  0  0  0
 26 41  1  0  0  0  0
 27 33  1  0  0  0  0
 27 42  1  0  0  0  0
 28 43  1  0  0  0  0
 29 30  1  0  0  0  0
 29 31  1  0  0  0  0
 29 44  1  0  0  0  0
 30 32  1  0  0  0  0
 30 45  1  0  0  0  0
 31 34  1  0  0  0  0
 31 46  1  0  0  0  0
 32 47  1  0  0  0  0
 33 48  1  0  0  0  0
 33 49  1  0  0  0  0
 34 50  1  0  0  0  0
 34 51  1  0  0  0  0
 35 37  1  0  0  0  0
 36 55  1  0  0  0  0
 37 38  2  0  0  0  0
 39 57  1  0  0  0  0
M  END
> <PUBCHEM_COMPOUND_CID>
42626432

> <PUBCHEM_CONFORMER_RMSD>
1.6

> <PUBCHEM_CONFORMER_DIVERSEORDER>
1
147
84
134
136
12
52
129
137
104
36
60
47
2
120
122
3
141
42
142
23
108
26
159
155
27
6
113
140
125
4
28
133
56
151
75
115
8
67
54
80
112
82
63
157
62
158
5
99
31
128
94
7
153
55
71
124
49
138
117
50
107
143
106
87
58
43
135
15
96
126
93
14
116
70
68
11
89
92
13
97
102
34
139
74
149
152
61
76
110
19
39
100
131
24
45
10
127
40
41
91
64
114
81
85
79
51
25
111
154
86
69
48
145
21
37
148
30
59
98
44
77
146
35
53
130
65
103
33
144
118
9
18
150
105
22
17
66
156
90
32
16
160
88
123
101
46
109
121
95
119
132
73
57
20
78
83
29
72
38

> <PUBCHEM_MMFF94_PARTIAL_CHARGES>
49
1 1.51
10 -0.68
11 -0.55
12 -0.55
13 -0.77
14 -0.7
15 -0.54
16 -0.77
17 -0.77
18 -0.7
19 -0.7
2 1.51
20 0.05
21 -0.57
22 -0.57
23 -0.62
24 -0.9
25 0.28
26 0.28
27 0.28
28 0.56
29 0.28
3 1.51
30 0.28
31 0.28
32 0.54
33 0.28
34 0.28
35 0.11
36 0.04
37 0.23
38 0.41
39 0.47
4 -0.56
5 -0.55
52 0.4
53 0.4
54 0.4
55 0.15
56 0.5
57 0.15
58 0.5
59 0.5
6 -0.56
60 0.4
61 0.4
7 -0.55
8 -0.68
9 -0.68

> <PUBCHEM_EFFECTIVE_ROTOR_COUNT>
11

> <PUBCHEM_PHARMACOPHORE_FEATURES>
24
1 10 acceptor
1 10 donor
1 13 acceptor
1 14 acceptor
1 16 acceptor
1 17 acceptor
1 18 acceptor
1 19 acceptor
1 24 cation
1 24 donor
1 4 acceptor
1 6 acceptor
1 8 acceptor
1 8 donor
1 9 acceptor
1 9 donor
3 20 21 36 cation
3 20 22 35 cation
3 22 23 39 cation
5 1 5 7 25 28 rings
5 20 21 35 36 37 rings
5 4 25 26 27 28 rings
5 6 29 30 31 32 rings
6 22 23 35 37 38 39 rings

> <PUBCHEM_HEAVY_ATOM_COUNT>
39

> <PUBCHEM_ATOM_DEF_STEREO_COUNT>
8

> <PUBCHEM_ATOM_UDEF_STEREO_COUNT>
0

> <PUBCHEM_BOND_DEF_STEREO_COUNT>
0

> <PUBCHEM_BOND_UDEF_STEREO_COUNT>
0

> <PUBCHEM_ISOTOPIC_ATOM_COUNT>
0

> <PUBCHEM_COMPONENT_COUNT>
1

> <PUBCHEM_CACTVS_TAUTO_COUNT>
3

> <PUBCHEM_CONFORMER_ID>
028A6D8000000001

> <PUBCHEM_MMFF94_ENERGY>
41.4185

> <PUBCHEM_FEATURE_SELFOVERLAP>
123.01

> <PUBCHEM_SHAPE_FINGERPRINT>
12156800 1 17547883074911930714
133893 2 17398330539796589330
13642711 20 18130802130836398290
14279260 333 17986972756535573688
14674994 50 17537426333202215924
15274700 242 14361821827083227039
161222 10 17476917321695833356
19315092 285 15289635566138593349
20600515 1 18055376861336458625
20764821 26 17985808552996918824
20905425 154 18201447943322717817
21860390 5 18199210466945214411
3493558 16 17252847369982333326
35225 105 16406215707080192702
550186 7 17257697767007484322
6287921 2 17751095788667271197

> <PUBCHEM_SHAPE_MULTIPOLES>
695.34
6.55
5.63
4.13
6.11
5.67
-1.28
-1.51
1.75
-2.85
1.97
-1.62
-3.47
1.51

> <PUBCHEM_SHAPE_SELFOVERLAP>
1450.8

> <PUBCHEM_SHAPE_VOLUME>
397.4

> <PUBCHEM_COORDINATE_TYPE>
2
5
10

$$$$

