398937
  -OEChem-07051213023D

 37 41  0     1  0  0  0  0  0999 V2000
   -3.5703    1.6278    1.8540 O   0  0  0  0  0  0  0  0  0  0  0  0
    3.6487    1.7019   -0.4367 O   0  0  0  0  0  0  0  0  0  0  0  0
    4.3679   -0.3184    0.6602 O   0  0  0  0  0  0  0  0  0  0  0  0
   -1.5803   -1.9973    0.2143 N   0  0  1  0  0  0  0  0  0  0  0  0
   -1.1310    0.1506   -0.6339 C   0  0  2  0  0  0  0  0  0  0  0  0
   -1.9293   -0.5815    0.4736 C   0  0  1  0  0  0  0  0  0  0  0  0
   -1.3624   -0.7626   -1.8559 C   0  0  0  0  0  0  0  0  0  0  0  0
   -1.6217   -2.1482   -1.2573 C   0  0  0  0  0  0  0  0  0  0  0  0
    0.3597    0.0576   -0.2590 C   0  0  0  0  0  0  0  0  0  0  0  0
   -3.4422   -0.3138    0.4020 C   0  0  0  0  0  0  0  0  0  0  0  0
   -0.2055   -2.2297    0.7218 C   0  0  0  0  0  0  0  0  0  0  0  0
   -1.6622    1.5426   -0.8837 C   0  0  0  0  0  0  0  0  0  0  0  0
    0.7998   -1.1451    0.3755 C   0  0  0  0  0  0  0  0  0  0  0  0
   -3.7206    1.1900    0.5068 C   0  0  2  0  0  0  0  0  0  0  0  0
   -2.8005    2.0109   -0.3490 C   0  0  0  0  0  0  0  0  0  0  0  0
    1.2994    1.0541   -0.5658 C   0  0  0  0  0  0  0  0  0  0  0  0
    2.1479   -1.3256    0.7181 C   0  0  0  0  0  0  0  0  0  0  0  0
    2.6187    0.8386   -0.2159 C   0  0  0  0  0  0  0  0  0  0  0  0
    3.0306   -0.3147    0.4078 C   0  0  0  0  0  0  0  0  0  0  0  0
    4.7532    0.9629    0.1229 C   0  0  0  0  0  0  0  0  0  0  0  0
   -1.6043   -0.2815    1.4817 H   0  0  0  0  0  0  0  0  0  0  0  0
   -0.5071   -0.7782   -2.5418 H   0  0  0  0  0  0  0  0  0  0  0  0
   -2.2406   -0.4514   -2.4362 H   0  0  0  0  0  0  0  0  0  0  0  0
   -2.6186   -2.4964   -1.5528 H   0  0  0  0  0  0  0  0  0  0  0  0
   -0.9129   -2.8958   -1.6318 H   0  0  0  0  0  0  0  0  0  0  0  0
   -3.9438   -0.8530    1.2150 H   0  0  0  0  0  0  0  0  0  0  0  0
   -3.8652   -0.6866   -0.5389 H   0  0  0  0  0  0  0  0  0  0  0  0
    0.1590   -3.2025    0.3685 H   0  0  0  0  0  0  0  0  0  0  0  0
   -0.2608   -2.2982    1.8162 H   0  0  0  0  0  0  0  0  0  0  0  0
   -1.1117    2.2016   -1.5494 H   0  0  0  0  0  0  0  0  0  0  0  0
   -4.7572    1.3845    0.2093 H   0  0  0  0  0  0  0  0  0  0  0  0
   -3.1022    3.0317   -0.5681 H   0  0  0  0  0  0  0  0  0  0  0  0
    1.0265    1.9736   -1.0694 H   0  0  0  0  0  0  0  0  0  0  0  0
    2.4857   -2.2309    1.2110 H   0  0  0  0  0  0  0  0  0  0  0  0
   -4.1941    1.1188    2.3993 H   0  0  0  0  0  0  0  0  0  0  0  0
    5.2039    1.5588    0.9248 H   0  0  0  0  0  0  0  0  0  0  0  0
    5.5023    0.8039   -0.6611 H   0  0  0  0  0  0  0  0  0  0  0  0
  1 14  1  0  0  0  0
  1 35  1  0  0  0  0
  2 18  1  0  0  0  0
  2 20  1  0  0  0  0
  3 19  1  0  0  0  0
  3 20  1  0  0  0  0
  4  6  1  0  0  0  0
  4  8  1  0  0  0  0
  4 11  1  0  0  0  0
  5  6  1  0  0  0  0
  5  7  1  0  0  0  0
  5  9  1  0  0  0  0
  5 12  1  0  0  0  0
  6 10  1  0  0  0  0
  6 21  1  0  0  0  0
  7  8  1  0  0  0  0
  7 22  1  0  0  0  0
  7 23  1  0  0  0  0
  8 24  1  0  0  0  0
  8 25  1  0  0  0  0
  9 13  1  0  0  0  0
  9 16  2  0  0  0  0
 10 14  1  0  0  0  0
 10 26  1  0  0  0  0
 10 27  1  0  0  0  0
 11 13  1  0  0  0  0
 11 28  1  0  0  0  0
 11 29  1  0  0  0  0
 12 15  2  0  0  0  0
 12 30  1  0  0  0  0
 13 17  2  0  0  0  0
 14 15  1  0  0  0  0
 14 31  1  0  0  0  0
 15 32  1  0  0  0  0
 16 18  1  0  0  0  0
 16 33  1  0  0  0  0
 17 19  1  0  0  0  0
 17 34  1  0  0  0  0
 18 19  2  0  0  0  0
 20 36  1  0  0  0  0
 20 37  1  0  0  0  0
M  END
> <PUBCHEM_COMPOUND_CID>
398937

> <PUBCHEM_CONFORMER_RMSD>
0.6

> <PUBCHEM_CONFORMER_DIVERSEORDER>
1

> <PUBCHEM_MMFF94_PARTIAL_CHARGES>
23
1 -0.68
11 0.41
12 -0.29
13 -0.14
14 0.42
15 -0.29
16 -0.15
17 -0.15
18 0.08
19 0.08
2 -0.36
20 0.56
3 -0.36
30 0.15
32 0.15
33 0.15
34 0.15
35 0.4
4 -0.81
5 0.28
6 0.27
8 0.27
9 -0.14

> <PUBCHEM_EFFECTIVE_ROTOR_COUNT>
1.6

> <PUBCHEM_PHARMACOPHORE_FEATURES>
9
1 1 acceptor
1 1 donor
1 2 acceptor
1 3 acceptor
1 4 cation
5 2 3 18 19 20 rings
6 5 6 10 12 14 15 rings
6 9 13 16 17 18 19 rings
8 4 5 6 7 8 9 11 13 rings

> <PUBCHEM_HEAVY_ATOM_COUNT>
20

> <PUBCHEM_ATOM_DEF_STEREO_COUNT>
3

> <PUBCHEM_ATOM_UDEF_STEREO_COUNT>
0

> <PUBCHEM_BOND_DEF_STEREO_COUNT>
0

> <PUBCHEM_BOND_UDEF_STEREO_COUNT>
0

> <PUBCHEM_ISOTOPIC_ATOM_COUNT>
0

> <PUBCHEM_COMPONENT_COUNT>
1

> <PUBCHEM_CACTVS_TAUTO_COUNT>
1

> <PUBCHEM_CONFORMER_ID>
0006165900000001

> <PUBCHEM_MMFF94_ENERGY>
59.2707

> <PUBCHEM_FEATURE_SELFOVERLAP>
45.862

> <PUBCHEM_SHAPE_FINGERPRINT>
10863032 1 18260544562901083507
10948715 1 18335982072957375699
10967382 1 18271530891786285372
11578080 2 11527376040311089727
12173636 292 18411142398430107590
12251169 10 18130785663636210765
12390115 104 18266443348701230472
12403814 3 17846785104516746221
12491281 212 18186806876309164018
12788726 201 18042986302022068495
12892183 10 17632285835209163257
13024252 1 17988652848160552631
13140716 1 17912639107795019880
13221675 6 18343303660662241942
13544653 18 10951752076216172885
13583140 156 15338296575124117468
14289901 80 14476967791812491244
14787075 74 18410856530218610035
15163728 17 17096906157392630377
15209294 21 18410576175875143504
15309172 13 18202846569136115587
15534591 1 18260552229449238463
15775835 57 18409165519409651225
16945 1 18129094709732640727
1741750 31 18186518821389672067
18186145 218 18262512735864230988
18219364 16 17916880125996278525
19862831 5 5906047041190462044
200 152 18197514938553568079
20261772 1 18272646857296875672
20510252 161 18338796697917288371
20525323 117 18340494365487939606
21197605 99 17692821797609669261
21501502 16 18341337691143781486
21524375 3 18334859445889498127
21731228 192 18339354266593094803
23227448 37 18411700954605474949
23402539 116 18261398780915891447
23419403 2 12209517744482344535
23559900 14 18114184138665524144
2748010 2 17116095018845875958
5104073 3 18342746174561414736
5706482 22 18408044022266280119
633830 44 17824819177455376397
69090 78 18409172120911470263
90525 40 18335428971095218511
9862522 239 18198640988641678628

> <PUBCHEM_SHAPE_MULTIPOLES>
389
7.25
2.26
1.21
5.68
0.4
0.14
-3.59
-1.84
-1
0.03
-0.92
0.08
-0.9

> <PUBCHEM_SHAPE_SELFOVERLAP>
882.987

> <PUBCHEM_SHAPE_VOLUME>
203.5

> <PUBCHEM_COORDINATE_TYPE>
2
5
10

$$$$

