54726728
  -OEChem-07051213113D

 47 50  0     1  0  0  0  0  0999 V2000
    4.2889   -3.3739    0.3938 Cl  0  0  0  0  0  0  0  0  0  0  0  0
   -2.4486    1.7562   -1.8121 O   0  0  0  0  0  0  0  0  0  0  0  0
   -2.3333    2.0077    1.2066 O   0  0  0  0  0  0  0  0  0  0  0  0
   -0.2680    2.7901   -0.7323 O   0  0  0  0  0  0  0  0  0  0  0  0
   -4.5782   -2.0366    0.0112 O   0  0  0  0  0  0  0  0  0  0  0  0
    2.1125    2.6866   -0.1618 O   0  0  0  0  0  0  0  0  0  0  0  0
   -5.3996   -0.0278    2.0675 O   0  0  0  0  0  0  0  0  0  0  0  0
    4.5983    2.4927    0.3738 O   0  0  0  0  0  0  0  0  0  0  0  0
   -3.8880   -0.6407   -2.5783 N   0  0  0  0  0  0  0  0  0  0  0  0
   -3.3384   -0.1063    3.1054 N   0  0  0  0  0  0  0  0  0  0  0  0
   -1.6346   -0.4943   -1.4961 C   0  0  1  0  0  0  0  0  0  0  0  0
   -1.7778    0.9037   -0.8753 C   0  0  1  0  0  0  0  0  0  0  0  0
   -0.6411   -1.3652   -0.7014 C   0  0  0  0  0  0  0  0  0  0  0  0
   -2.9916   -1.2156   -1.5780 C   0  0  1  0  0  0  0  0  0  0  0  0
    0.6700   -0.6763   -0.4559 C   0  0  0  0  0  0  0  0  0  0  0  0
   -0.4067    1.5683   -0.6914 C   0  0  0  0  0  0  0  0  0  0  0  0
    0.7797    0.7146   -0.4325 C   0  0  0  0  0  0  0  0  0  0  0  0
   -2.5790    0.9010    0.4121 C   0  0  0  0  0  0  0  0  0  0  0  0
   -3.7285   -1.1823   -0.2482 C   0  0  0  0  0  0  0  0  0  0  0  0
   -3.4562   -0.0750    0.7303 C   0  0  0  0  0  0  0  0  0  0  0  0
    1.8086   -1.4531   -0.1885 C   0  0  0  0  0  0  0  0  0  0  0  0
    2.0166    1.3217   -0.1713 C   0  0  0  0  0  0  0  0  0  0  0  0
    3.0542   -0.8611    0.0765 C   0  0  0  0  0  0  0  0  0  0  0  0
    3.1597    0.5467    0.0832 C   0  0  0  0  0  0  0  0  0  0  0  0
    1.6014   -2.9400   -0.2407 C   0  0  0  0  0  0  0  0  0  0  0  0
   -4.1752   -0.0668    2.0177 C   0  0  0  0  0  0  0  0  0  0  0  0
    4.1956   -1.6377    0.3362 C   0  0  0  0  0  0  0  0  0  0  0  0
    4.4051    1.1406    0.3482 C   0  0  0  0  0  0  0  0  0  0  0  0
    5.4247   -1.0323    0.5977 C   0  0  0  0  0  0  0  0  0  0  0  0
    5.5294    0.3551    0.6036 C   0  0  0  0  0  0  0  0  0  0  0  0
   -1.2398   -0.3838   -2.5182 H   0  0  0  0  0  0  0  0  0  0  0  0
   -0.5124   -2.2303   -1.3599 H   0  0  0  0  0  0  0  0  0  0  0  0
   -1.0577   -1.6984    0.2557 H   0  0  0  0  0  0  0  0  0  0  0  0
   -2.8192   -2.2682   -1.8357 H   0  0  0  0  0  0  0  0  0  0  0  0
   -2.6367    2.6044   -1.3743 H   0  0  0  0  0  0  0  0  0  0  0  0
   -3.4325   -0.6494   -3.4900 H   0  0  0  0  0  0  0  0  0  0  0  0
   -4.7191   -1.2237   -2.6703 H   0  0  0  0  0  0  0  0  0  0  0  0
    1.8690   -3.3846    0.7227 H   0  0  0  0  0  0  0  0  0  0  0  0
    0.5803   -3.3097   -0.3235 H   0  0  0  0  0  0  0  0  0  0  0  0
    2.1295   -3.3800   -1.0923 H   0  0  0  0  0  0  0  0  0  0  0  0
   -2.8942    1.9598    1.9982 H   0  0  0  0  0  0  0  0  0  0  0  0
    1.2585    3.0814    0.0732 H   0  0  0  0  0  0  0  0  0  0  0  0
    6.3170   -1.6199    0.8019 H   0  0  0  0  0  0  0  0  0  0  0  0
    6.4956    0.8084    0.8097 H   0  0  0  0  0  0  0  0  0  0  0  0
   -2.3274   -0.1493    3.0217 H   0  0  0  0  0  0  0  0  0  0  0  0
   -3.7127   -0.1030    4.0485 H   0  0  0  0  0  0  0  0  0  0  0  0
    5.5291    2.6894    0.5749 H   0  0  0  0  0  0  0  0  0  0  0  0
  1 27  1  0  0  0  0
  2 12  1  0  0  0  0
  2 35  1  0  0  0  0
  3 18  1  0  0  0  0
  3 41  1  0  0  0  0
  4 16  2  0  0  0  0
  5 19  2  0  0  0  0
  6 22  1  0  0  0  0
  6 42  1  0  0  0  0
  7 26  2  0  0  0  0
  8 28  1  0  0  0  0
  8 47  1  0  0  0  0
  9 14  1  0  0  0  0
  9 36  1  0  0  0  0
  9 37  1  0  0  0  0
 10 26  1  0  0  0  0
 10 45  1  0  0  0  0
 10 46  1  0  0  0  0
 11 12  1  0  0  0  0
 11 13  1  0  0  0  0
 11 14  1  0  0  0  0
 11 31  1  0  0  0  0
 12 16  1  0  0  0  0
 12 18  1  0  0  0  0
 13 15  1  0  0  0  0
 13 32  1  0  0  0  0
 13 33  1  0  0  0  0
 14 19  1  0  0  0  0
 14 34  1  0  0  0  0
 15 17  1  0  0  0  0
 15 21  2  0  0  0  0
 16 17  1  0  0  0  0
 17 22  2  0  0  0  0
 18 20  2  0  0  0  0
 19 20  1  0  0  0  0
 20 26  1  0  0  0  0
 21 23  1  0  0  0  0
 21 25  1  0  0  0  0
 22 24  1  0  0  0  0
 23 24  1  0  0  0  0
 23 27  2  0  0  0  0
 24 28  2  0  0  0  0
 25 38  1  0  0  0  0
 25 39  1  0  0  0  0
 25 40  1  0  0  0  0
 27 29  1  0  0  0  0
 28 30  1  0  0  0  0
 29 30  2  0  0  0  0
 29 43  1  0  0  0  0
 30 44  1  0  0  0  0
M  END
> <PUBCHEM_COMPOUND_CID>
54726728

> <PUBCHEM_CONFORMER_RMSD>
0.6

> <PUBCHEM_CONFORMER_DIVERSEORDER>
2
1

> <PUBCHEM_MMFF94_PARTIAL_CHARGES>
37
1 -0.18
10 -0.8
12 0.48
13 0.14
14 0.33
15 -0.14
16 0.42
17 0.09
18 -0.06
19 0.49
2 -0.68
20 0.03
21 -0.14
22 0.08
25 0.14
26 0.62
27 0.18
28 0.08
29 -0.15
3 -0.53
30 -0.15
35 0.4
36 0.36
37 0.36
4 -0.57
41 0.45
42 0.45
43 0.15
44 0.15
45 0.37
46 0.37
47 0.45
5 -0.57
6 -0.53
7 -0.57
8 -0.53
9 -0.99

> <PUBCHEM_EFFECTIVE_ROTOR_COUNT>
1.4

> <PUBCHEM_PHARMACOPHORE_FEATURES>
16
1 10 donor
1 2 acceptor
1 2 donor
1 20 anion
1 3 donor
1 4 acceptor
1 5 acceptor
1 6 donor
1 7 acceptor
1 8 donor
1 9 cation
1 9 donor
6 11 12 13 15 16 17 rings
6 11 12 14 18 19 20 rings
6 15 17 21 22 23 24 rings
6 23 24 27 28 29 30 rings

> <PUBCHEM_HEAVY_ATOM_COUNT>
30

> <PUBCHEM_ATOM_DEF_STEREO_COUNT>
3

> <PUBCHEM_ATOM_UDEF_STEREO_COUNT>
0

> <PUBCHEM_BOND_DEF_STEREO_COUNT>
0

> <PUBCHEM_BOND_UDEF_STEREO_COUNT>
0

> <PUBCHEM_ISOTOPIC_ATOM_COUNT>
0

> <PUBCHEM_COMPONENT_COUNT>
1

> <PUBCHEM_CACTVS_TAUTO_COUNT>
999

> <PUBCHEM_CONFORMER_ID>
0343104800000002

> <PUBCHEM_MMFF94_ENERGY>
112.3062

> <PUBCHEM_FEATURE_SELFOVERLAP>
81.336

> <PUBCHEM_SHAPE_FINGERPRINT>
10675989 125 16324024503476821724
11552529 35 17896326804904837111
11796584 16 16415763015757724947
12107183 9 17828762086260901226
12236239 1 17968378957550808815
12422481 6 18116428331237787106
12553582 1 18411973685150083998
12596602 18 17749103348927625482
12633257 1 17385723612154462425
13140716 1 17833555595980161286
13224815 77 18341056289128579150
13544653 18 18202002144337781060
13583140 156 18200600318515245726
13782708 43 17203038583433213235
13944108 23 7776238164750682355
13965767 371 17462810441683033145
14068700 675 16807318833879377543
14294032 229 16298374774638754363
14341114 328 17821999900375963216
14790565 3 18052249601713368196
14849402 71 18115875097355595072
14955137 171 18336530708148737868
15163728 17 14347172716423590187
15196674 1 18338811082306016708
15209289 33 18261114032651510550
15209294 21 17748821912726763915
17349148 13 18060140933961620014
1813 80 17561070432396483620
19591789 44 18338242664996695814
200 152 18188226324704379159
20028762 73 18188214182637687494
20511986 3 18113343020480363145
20739085 24 18340194237700377500
21033648 29 17631749187234516340
21267235 1 18410577280235678574
21623110 236 18335704888420930665
221490 88 18340775961335638262
23559900 14 18194703672616575654
23569914 2 14781554593049327026
3380486 145 18342173363347432357
350125 39 18409172086557260108
3633792 109 18261120707806155639
3737641 26 18264201590616048446
392239 28 18342179951400184962
4015057 19 18123215616268479948
460360 51 18338231695254303980
469060 322 18339930307443557321
5081480 168 16735776021420096334
5104073 3 18338247071553650426
9849439 229 15866852864436267203

> <PUBCHEM_SHAPE_MULTIPOLES>
568.21
11.25
2.92
1.76
3.83
0.22
-0.62
2.6
-4.38
2.7
0.28
-3.63
0.04
-0.41

> <PUBCHEM_SHAPE_SELFOVERLAP>
1274.444

> <PUBCHEM_SHAPE_VOLUME>
297.9

> <PUBCHEM_COORDINATE_TYPE>
2
5
10

$$$$

