11953833
  -OEChem-07051212493D

 57 60  0     1  0  0  0  0  0999 V2000
    0.2709   -1.6189    0.5969 O   0  0  0  0  0  0  0  0  0  0  0  0
    1.9100   -0.1270    1.3257 O   0  0  0  0  0  0  0  0  0  0  0  0
    0.4205   -5.0708   -0.6182 O   0  0  0  0  0  0  0  0  0  0  0  0
    2.8325   -4.8093    0.9535 O   0  0  0  0  0  0  0  0  0  0  0  0
    3.8931   -2.0669    0.7668 O   0  0  0  0  0  0  0  0  0  0  0  0
   -2.2069   -1.7539   -0.5856 O   0  0  0  0  0  0  0  0  0  0  0  0
    0.8268    2.9725   -0.3498 O   0  0  0  0  0  0  0  0  0  0  0  0
   -0.5998    0.3518    2.4254 O   0  0  0  0  0  0  0  0  0  0  0  0
   -4.2753   -2.7025   -0.2153 O   0  0  0  0  0  0  0  0  0  0  0  0
   -5.9056    0.9446   -1.6375 O   0  0  0  0  0  0  0  0  0  0  0  0
   -6.4205   -1.1207   -0.8374 O   0  0  0  0  0  0  0  0  0  0  0  0
    0.6977   -3.9807    0.2571 C   0  0  1  0  0  0  0  0  0  0  0  0
    2.2039   -3.7192    0.2775 C   0  0  1  0  0  0  0  0  0  0  0  0
   -0.0623   -2.7415   -0.2216 C   0  0  1  0  0  0  0  0  0  0  0  0
    2.5291   -2.4141    1.0041 C   0  0  2  0  0  0  0  0  0  0  0  0
    1.6495   -1.2668    0.5072 C   0  0  1  0  0  0  0  0  0  0  0  0
   -1.5727   -2.9385   -0.1393 C   0  0  0  0  0  0  0  0  0  0  0  0
    1.1470    0.9556    0.9448 C   0  0  0  0  0  0  0  0  0  0  0  0
    1.5540    1.8563    0.0320 C   0  0  0  0  0  0  0  0  0  0  0  0
   -0.1759    1.1382    1.5891 C   0  0  0  0  0  0  0  0  0  0  0  0
   -0.9497    2.3165    1.1687 C   0  0  0  0  0  0  0  0  0  0  0  0
   -3.5807   -1.7626   -0.5754 C   0  0  0  0  0  0  0  0  0  0  0  0
   -0.4045    3.1759    0.2176 C   0  0  0  0  0  0  0  0  0  0  0  0
    2.8551    1.7561   -0.6522 C   0  0  0  0  0  0  0  0  0  0  0  0
   -4.0912   -0.4373   -1.0860 C   0  0  0  0  0  0  0  0  0  0  0  0
   -2.2103    2.5746    1.7129 C   0  0  0  0  0  0  0  0  0  0  0  0
   -1.1176    4.3018   -0.1958 C   0  0  0  0  0  0  0  0  0  0  0  0
    2.9605    1.0519   -1.8522 C   0  0  0  0  0  0  0  0  0  0  0  0
    3.9828    2.3653   -0.1007 C   0  0  0  0  0  0  0  0  0  0  0  0
   -2.9218    3.7008    1.2975 C   0  0  0  0  0  0  0  0  0  0  0  0
   -2.3767    4.5628    0.3452 C   0  0  0  0  0  0  0  0  0  0  0  0
    4.1923    0.9568   -2.4998 C   0  0  0  0  0  0  0  0  0  0  0  0
    5.2145    2.2702   -0.7485 C   0  0  0  0  0  0  0  0  0  0  0  0
   -5.5879   -0.2869   -1.1587 C   0  0  0  0  0  0  0  0  0  0  0  0
    5.3191    1.5659   -1.9481 C   0  0  0  0  0  0  0  0  0  0  0  0
    0.3701   -4.2691    1.2644 H   0  0  0  0  0  0  0  0  0  0  0  0
    2.6127   -3.7123   -0.7397 H   0  0  0  0  0  0  0  0  0  0  0  0
    0.1921   -2.5034   -1.2635 H   0  0  0  0  0  0  0  0  0  0  0  0
    2.4157   -2.5453    2.0874 H   0  0  0  0  0  0  0  0  0  0  0  0
    1.9020   -1.0395   -0.5337 H   0  0  0  0  0  0  0  0  0  0  0  0
   -1.8701   -3.1258    0.8996 H   0  0  0  0  0  0  0  0  0  0  0  0
   -1.8930   -3.7763   -0.7678 H   0  0  0  0  0  0  0  0  0  0  0  0
   -0.4786   -5.3856   -0.4262 H   0  0  0  0  0  0  0  0  0  0  0  0
    2.5024   -4.8295    1.8680 H   0  0  0  0  0  0  0  0  0  0  0  0
    4.0604   -1.2194    1.2137 H   0  0  0  0  0  0  0  0  0  0  0  0
   -3.7106    0.3429   -0.4178 H   0  0  0  0  0  0  0  0  0  0  0  0
   -3.6944   -0.2976   -2.0976 H   0  0  0  0  0  0  0  0  0  0  0  0
   -2.6513    1.9147    2.4546 H   0  0  0  0  0  0  0  0  0  0  0  0
   -0.7005    4.9781   -0.9370 H   0  0  0  0  0  0  0  0  0  0  0  0
    2.0899    0.5805   -2.3018 H   0  0  0  0  0  0  0  0  0  0  0  0
    3.9169    2.9178    0.8335 H   0  0  0  0  0  0  0  0  0  0  0  0
   -3.9028    3.9067    1.7161 H   0  0  0  0  0  0  0  0  0  0  0  0
   -2.9339    5.4383    0.0244 H   0  0  0  0  0  0  0  0  0  0  0  0
    4.2734    0.4103   -3.4348 H   0  0  0  0  0  0  0  0  0  0  0  0
    6.0922    2.7445   -0.3190 H   0  0  0  0  0  0  0  0  0  0  0  0
    6.2780    1.4922   -2.4526 H   0  0  0  0  0  0  0  0  0  0  0  0
   -6.8761    1.0757   -1.6932 H   0  0  0  0  0  0  0  0  0  0  0  0
  1 14  1  0  0  0  0
  1 16  1  0  0  0  0
  2 16  1  0  0  0  0
  2 18  1  0  0  0  0
  3 12  1  0  0  0  0
  3 43  1  0  0  0  0
  4 13  1  0  0  0  0
  4 44  1  0  0  0  0
  5 15  1  0  0  0  0
  5 45  1  0  0  0  0
  6 17  1  0  0  0  0
  6 22  1  0  0  0  0
  7 19  1  0  0  0  0
  7 23  1  0  0  0  0
  8 20  2  0  0  0  0
  9 22  2  0  0  0  0
 10 34  1  0  0  0  0
 10 57  1  0  0  0  0
 11 34  2  0  0  0  0
 12 13  1  0  0  0  0
 12 14  1  0  0  0  0
 12 36  1  0  0  0  0
 13 15  1  0  0  0  0
 13 37  1  0  0  0  0
 14 17  1  0  0  0  0
 14 38  1  0  0  0  0
 15 16  1  0  0  0  0
 15 39  1  0  0  0  0
 16 40  1  0  0  0  0
 17 41  1  0  0  0  0
 17 42  1  0  0  0  0
 18 19  2  0  0  0  0
 18 20  1  0  0  0  0
 19 24  1  0  0  0  0
 20 21  1  0  0  0  0
 21 23  1  0  0  0  0
 21 26  2  0  0  0  0
 22 25  1  0  0  0  0
 23 27  2  0  0  0  0
 24 28  2  0  0  0  0
 24 29  1  0  0  0  0
 25 34  1  0  0  0  0
 25 46  1  0  0  0  0
 25 47  1  0  0  0  0
 26 30  1  0  0  0  0
 26 48  1  0  0  0  0
 27 31  1  0  0  0  0
 27 49  1  0  0  0  0
 28 32  1  0  0  0  0
 28 50  1  0  0  0  0
 29 33  2  0  0  0  0
 29 51  1  0  0  0  0
 30 31  2  0  0  0  0
 30 52  1  0  0  0  0
 31 53  1  0  0  0  0
 32 35  2  0  0  0  0
 32 54  1  0  0  0  0
 33 35  1  0  0  0  0
 33 55  1  0  0  0  0
 35 56  1  0  0  0  0
M  END
> <PUBCHEM_COMPOUND_CID>
11953833

> <PUBCHEM_CONFORMER_RMSD>
1

> <PUBCHEM_CONFORMER_DIVERSEORDER>
1
62
63
124
40
27
13
108
82
72
123
24
38
88
7
32
54
109
139
89
28
41
107
81
125
44
77
128
66
92
119
86
15
127
16
106
69
121
60
39
103
42
8
138
94
30
48
105
19
84
95
56
85
131
91
135
80
97
102
10
75
111
17
70
68
34
3
51
120
67
79
99
110
14
61
4
45
22
25
6
114
33
96
137
50
58
11
59
49
87
93
36
20
122
52
98
126
57
55
78
74
113
18
132
140
9
21
118
47
71
116
76
26
23
2
136
5
112
35
83
43
73
134
29
129
12
115
64
90
130
65
100
101
37
46
104
133
117
53
31

> <PUBCHEM_MMFF94_PARTIAL_CHARGES>
48
1 -0.56
10 -0.65
11 -0.57
12 0.28
13 0.28
14 0.28
15 0.28
16 0.56
17 0.28
18 0.09
19 0.05
2 -0.36
20 0.47
21 0.09
22 0.66
23 0.08
24 0.03
25 0.12
26 -0.15
27 -0.15
28 -0.15
29 -0.15
3 -0.68
30 -0.15
31 -0.15
32 -0.15
33 -0.15
34 0.66
35 -0.15
4 -0.68
43 0.4
44 0.4
45 0.4
48 0.15
49 0.15
5 -0.68
50 0.15
51 0.15
52 0.15
53 0.15
54 0.15
55 0.15
56 0.15
57 0.5
6 -0.43
7 -0.16
8 -0.57
9 -0.57

> <PUBCHEM_EFFECTIVE_ROTOR_COUNT>
9.2

> <PUBCHEM_PHARMACOPHORE_FEATURES>
19
1 1 acceptor
1 10 acceptor
1 11 acceptor
1 2 acceptor
1 25 anion
1 3 acceptor
1 3 donor
1 4 acceptor
1 4 donor
1 5 acceptor
1 5 donor
1 7 acceptor
1 8 acceptor
1 9 acceptor
3 10 11 34 anion
6 1 12 13 14 15 16 rings
6 21 23 26 27 30 31 rings
6 24 28 29 32 33 35 rings
6 7 18 19 20 21 23 rings

> <PUBCHEM_HEAVY_ATOM_COUNT>
35

> <PUBCHEM_ATOM_DEF_STEREO_COUNT>
5

> <PUBCHEM_ATOM_UDEF_STEREO_COUNT>
0

> <PUBCHEM_BOND_DEF_STEREO_COUNT>
0

> <PUBCHEM_BOND_UDEF_STEREO_COUNT>
0

> <PUBCHEM_ISOTOPIC_ATOM_COUNT>
0

> <PUBCHEM_COMPONENT_COUNT>
1

> <PUBCHEM_CACTVS_TAUTO_COUNT>
1

> <PUBCHEM_CONFORMER_ID>
00B666A900000001

> <PUBCHEM_MMFF94_ENERGY>
99.1574

> <PUBCHEM_FEATURE_SELFOVERLAP>
96.837

> <PUBCHEM_SHAPE_FINGERPRINT>
10190108 129 18122873544098999297
10190206 1 18338500968445795716
10483366 6 18410853222777358852
10675989 125 18338518534661114440
10764073 3 17318766494045308120
11578080 2 15267047152197077386
12035759 4 18410849928548102608
12156800 1 17754442770881821399
12788726 201 18260825986143092225
1361 2 16897094327512809805
140371 6 18267312117153010099
144659 178 17905333179456655420
15210252 30 18198629834891504109
15351339 4 18410295791630001107
15950262 2 15841003165082631869
16992727 255 18056194679134466764
17627616 140 18339635767461110549
19311894 1 18046897187108269926
20465049 17 18122342381319938631
20600515 1 17613459756674216752
23536364 44 18265883666737399615
3027735 51 18262221270846460804
338550 245 17976541933918384593
463206 1 17686067488778368225
469060 322 17478341188879392931
513532 50 17460047192399066175
5776283 40 17477760187315726549

> <PUBCHEM_SHAPE_MULTIPOLES>
655.72
9.99
7.19
1.78
6.84
3.5
-0.21
-1.57
-7.16
0.11
1.46
-0.44
-0.65
-3.22

> <PUBCHEM_SHAPE_SELFOVERLAP>
1423.17

> <PUBCHEM_SHAPE_VOLUME>
352.1

> <PUBCHEM_COORDINATE_TYPE>
2
5
10

$$$$

