225289
  -OEChem-07051213063D

 48 51  0     1  0  0  0  0  0999 V2000
   -6.2590   -1.0054    0.3467 O   0  0  0  0  0  0  0  0  0  0  0  0
    4.5565   -0.4452   -0.5201 O   0  0  0  0  0  0  0  0  0  0  0  0
    7.1044    1.2279    1.3722 O   0  0  0  0  0  0  0  0  0  0  0  0
    6.9839   -0.9197    0.6230 O   0  0  0  0  0  0  0  0  0  0  0  0
   -3.2843    0.6824   -0.2641 C   0  0  2  0  0  0  0  0  0  0  0  0
   -3.8900   -0.4863    0.5411 C   0  0  2  0  0  0  0  0  0  0  0  0
   -1.7689    0.7519   -0.0833 C   0  0  1  0  0  0  0  0  0  0  0  0
   -1.1495   -0.5624   -0.6527 C   0  0  2  0  0  0  0  0  0  0  0  0
   -3.3561   -1.7867   -0.0494 C   0  0  0  0  0  0  0  0  0  0  0  0
   -4.1547    1.8788    0.1031 C   0  0  0  0  0  0  0  0  0  0  0  0
   -1.8154   -1.8198   -0.0284 C   0  0  0  0  0  0  0  0  0  0  0  0
   -1.1391    1.9480   -0.7983 C   0  0  0  0  0  0  0  0  0  0  0  0
   -5.3571   -0.1794    0.3010 C   0  0  0  0  0  0  0  0  0  0  0  0
   -5.5754    1.2994    0.0278 C   0  0  0  0  0  0  0  0  0  0  0  0
   -3.6767   -0.4406    2.0658 C   0  0  0  0  0  0  0  0  0  0  0  0
    0.3744   -0.5322   -0.5793 C   0  0  0  0  0  0  0  0  0  0  0  0
    0.3484    2.0253   -0.4668 C   0  0  0  0  0  0  0  0  0  0  0  0
    1.0652    0.6988   -0.5364 C   0  0  0  0  0  0  0  0  0  0  0  0
    1.1298   -1.7166   -0.6422 C   0  0  0  0  0  0  0  0  0  0  0  0
    2.4709    0.7123   -0.5055 C   0  0  0  0  0  0  0  0  0  0  0  0
    2.5260   -1.6885   -0.6190 C   0  0  0  0  0  0  0  0  0  0  0  0
    3.1969   -0.4745   -0.5462 C   0  0  0  0  0  0  0  0  0  0  0  0
    5.1702    0.6357    0.1812 C   0  0  0  0  0  0  0  0  0  0  0  0
    6.4996    0.1971    0.7297 C   0  0  0  0  0  0  0  0  0  0  0  0
   -3.4683    0.5045   -1.3380 H   0  0  0  0  0  0  0  0  0  0  0  0
   -1.5293    0.8412    0.9842 H   0  0  0  0  0  0  0  0  0  0  0  0
   -1.3797   -0.5975   -1.7290 H   0  0  0  0  0  0  0  0  0  0  0  0
   -3.7038   -1.9015   -1.0846 H   0  0  0  0  0  0  0  0  0  0  0  0
   -3.7505   -2.6524    0.4965 H   0  0  0  0  0  0  0  0  0  0  0  0
   -4.0364    2.7154   -0.5926 H   0  0  0  0  0  0  0  0  0  0  0  0
   -3.9320    2.2483    1.1098 H   0  0  0  0  0  0  0  0  0  0  0  0
   -1.4638   -1.9476    1.0029 H   0  0  0  0  0  0  0  0  0  0  0  0
   -1.5054   -2.7207   -0.5707 H   0  0  0  0  0  0  0  0  0  0  0  0
   -1.6162    2.8872   -0.4974 H   0  0  0  0  0  0  0  0  0  0  0  0
   -1.2760    1.8530   -1.8832 H   0  0  0  0  0  0  0  0  0  0  0  0
   -5.9950    1.4150   -0.9757 H   0  0  0  0  0  0  0  0  0  0  0  0
   -6.2317    1.7447    0.7785 H   0  0  0  0  0  0  0  0  0  0  0  0
   -2.6226   -0.4990    2.3493 H   0  0  0  0  0  0  0  0  0  0  0  0
   -4.0896    0.4669    2.5189 H   0  0  0  0  0  0  0  0  0  0  0  0
   -4.1888   -1.2843    2.5446 H   0  0  0  0  0  0  0  0  0  0  0  0
    0.4668    2.4172    0.5517 H   0  0  0  0  0  0  0  0  0  0  0  0
    0.8218    2.7401   -1.1510 H   0  0  0  0  0  0  0  0  0  0  0  0
    0.6485   -2.6870   -0.7178 H   0  0  0  0  0  0  0  0  0  0  0  0
    2.9692    1.6785   -0.4774 H   0  0  0  0  0  0  0  0  0  0  0  0
    3.0819   -2.6213   -0.6623 H   0  0  0  0  0  0  0  0  0  0  0  0
    5.3348    1.4645   -0.5152 H   0  0  0  0  0  0  0  0  0  0  0  0
    4.5686    0.9501    1.0431 H   0  0  0  0  0  0  0  0  0  0  0  0
    7.9759    0.9688    1.7405 H   0  0  0  0  0  0  0  0  0  0  0  0
  1 13  2  0  0  0  0
  2 22  1  0  0  0  0
  2 23  1  0  0  0  0
  3 24  1  0  0  0  0
  3 48  1  0  0  0  0
  4 24  2  0  0  0  0
  5  6  1  0  0  0  0
  5  7  1  0  0  0  0
  5 10  1  0  0  0  0
  5 25  1  0  0  0  0
  6  9  1  0  0  0  0
  6 13  1  0  0  0  0
  6 15  1  0  0  0  0
  7  8  1  0  0  0  0
  7 12  1  0  0  0  0
  7 26  1  0  0  0  0
  8 11  1  0  0  0  0
  8 16  1  0  0  0  0
  8 27  1  0  0  0  0
  9 11  1  0  0  0  0
  9 28  1  0  0  0  0
  9 29  1  0  0  0  0
 10 14  1  0  0  0  0
 10 30  1  0  0  0  0
 10 31  1  0  0  0  0
 11 32  1  0  0  0  0
 11 33  1  0  0  0  0
 12 17  1  0  0  0  0
 12 34  1  0  0  0  0
 12 35  1  0  0  0  0
 13 14  1  0  0  0  0
 14 36  1  0  0  0  0
 14 37  1  0  0  0  0
 15 38  1  0  0  0  0
 15 39  1  0  0  0  0
 15 40  1  0  0  0  0
 16 18  2  0  0  0  0
 16 19  1  0  0  0  0
 17 18  1  0  0  0  0
 17 41  1  0  0  0  0
 17 42  1  0  0  0  0
 18 20  1  0  0  0  0
 19 21  2  0  0  0  0
 19 43  1  0  0  0  0
 20 22  2  0  0  0  0
 20 44  1  0  0  0  0
 21 22  1  0  0  0  0
 21 45  1  0  0  0  0
 23 24  1  0  0  0  0
 23 46  1  0  0  0  0
 23 47  1  0  0  0  0
M  END
> <PUBCHEM_COMPOUND_CID>
225289

> <PUBCHEM_CONFORMER_RMSD>
0.8

> <PUBCHEM_CONFORMER_DIVERSEORDER>
1
3
6
2
4
5

> <PUBCHEM_MMFF94_PARTIAL_CHARGES>
21
1 -0.57
13 0.45
14 0.06
16 -0.14
17 0.14
18 -0.14
19 -0.15
2 -0.36
20 -0.15
21 -0.15
22 0.08
23 0.34
24 0.66
3 -0.65
4 -0.57
43 0.15
44 0.15
45 0.15
48 0.5
6 0.06
8 0.14

> <PUBCHEM_EFFECTIVE_ROTOR_COUNT>
4.2

> <PUBCHEM_PHARMACOPHORE_FEATURES>
9
1 1 acceptor
1 2 acceptor
1 3 acceptor
1 4 acceptor
3 3 4 24 anion
5 5 6 10 13 14 rings
6 16 18 19 20 21 22 rings
6 5 6 7 8 9 11 rings
6 7 8 12 16 17 18 rings

> <PUBCHEM_HEAVY_ATOM_COUNT>
24

> <PUBCHEM_ATOM_DEF_STEREO_COUNT>
4

> <PUBCHEM_ATOM_UDEF_STEREO_COUNT>
0

> <PUBCHEM_BOND_DEF_STEREO_COUNT>
0

> <PUBCHEM_BOND_UDEF_STEREO_COUNT>
0

> <PUBCHEM_ISOTOPIC_ATOM_COUNT>
0

> <PUBCHEM_COMPONENT_COUNT>
1

> <PUBCHEM_CACTVS_TAUTO_COUNT>
2

> <PUBCHEM_CONFORMER_ID>
0003700900000001

> <PUBCHEM_MMFF94_ENERGY>
73.9365

> <PUBCHEM_FEATURE_SELFOVERLAP>
45.831

> <PUBCHEM_SHAPE_FINGERPRINT>
10 15 18411983538359052664
106641 1 17968096383041403691
10906281 52 18270658927309515406
11089746 13 17386011662884306384
11315181 36 18131348592563286029
11796584 16 16272206379588870338
12035758 1 18199730558274583577
12236239 1 17489864934116095796
12422481 6 18341334418553080852
12507557 5 18333725810894365529
12516196 113 18113616789510674177
12596602 18 17240475931655459659
12616971 3 17418370273178839318
12838862 33 18340783610630311397
13140716 1 18266737974260691948
13288520 33 11095884869584644599
13540713 4 18121784091511158902
13631057 29 17096383747873107759
13668630 136 14405183984770585104
13862211 1 18343018878407791231
14251764 18 18411136909335068702
14790565 3 18123458381195665932
15183329 4 8862951589237914500
15196674 1 18339073904171279911
1813 80 17131825491012011590
19489759 90 17846778516543049677
200 152 18114178657986509031
20281389 69 18261112967900535000
21033648 29 17967825971890073993
21130935 74 18335136535409954170
21150785 3 7420940989845159354
21267235 1 18340190947797672335
21637258 2 15985106275589046482
22122407 14 16226321526137195810
22182313 1 18266176313393533126
22224240 67 18186805763933915326
23198884 109 13984662555428820684
23402539 116 18343304755710195054
23559900 14 18194945547625910110
26918003 58 17632572743071511547
2838139 119 15357698578729656682
3004659 81 18060125545199391548
335352 9 18412824685828257021
3383291 50 18059566954685950395
34797466 226 16588016901396354836
34934 24 18410576214477244655
350125 39 18410855435108126636
392239 28 18113896040005594904
5104073 3 18267296711014882595
5364581 5 18192721033802883024
559249 180 17988926691127986637

> <PUBCHEM_SHAPE_MULTIPOLES>
470.43
15.67
1.99
1.06
18.75
0.12
0.42
1.1
6.43
-0.93
-0.28
0.15
-0.02
0.82

> <PUBCHEM_SHAPE_SELFOVERLAP>
1020.368

> <PUBCHEM_SHAPE_VOLUME>
256.8

> <PUBCHEM_COORDINATE_TYPE>
2
5
10

$$$$

