250820
  -OEChem-07051213063D

 51 54  0     1  0  0  0  0  0999 V2000
    4.2694    0.6374    1.3311 O   0  0  0  0  0  0  0  0  0  0  0  0
   -6.6291    0.3480   -0.0284 O   0  0  0  0  0  0  0  0  0  0  0  0
    1.8904    0.3182    0.6998 C   0  0  1  0  0  0  0  0  0  0  0  0
    1.2160   -0.8314   -0.0816 C   0  0  2  0  0  0  0  0  0  0  0  0
   -0.2980   -0.8851    0.1410 C   0  0  1  0  0  0  0  0  0  0  0  0
    3.3917    0.0407    0.3789 C   0  0  2  0  0  0  0  0  0  0  0  0
    2.0524   -2.0514    0.2883 C   0  0  0  0  0  0  0  0  0  0  0  0
    1.2981    1.6425    0.1905 C   0  0  0  0  0  0  0  0  0  0  0  0
   -0.9296    0.4514   -0.3520 C   0  0  2  0  0  0  0  0  0  0  0  0
    3.4854   -1.5080    0.4406 C   0  0  0  0  0  0  0  0  0  0  0  0
   -0.2385    1.6746    0.3061 C   0  0  0  0  0  0  0  0  0  0  0  0
   -0.9584   -2.0488   -0.6025 C   0  0  0  0  0  0  0  0  0  0  0  0
    1.6588    0.2397    2.2379 C   0  0  0  0  0  0  0  0  0  0  0  0
    3.8724    0.5488   -0.9863 C   0  0  0  0  0  0  0  0  0  0  0  0
   -2.4507    0.4234   -0.2286 C   0  0  0  0  0  0  0  0  0  0  0  0
   -2.4338   -2.1362   -0.2234 C   0  0  0  0  0  0  0  0  0  0  0  0
   -3.1459   -0.8057   -0.2129 C   0  0  0  0  0  0  0  0  0  0  0  0
    5.2925    0.1547   -1.2337 C   0  0  0  0  0  0  0  0  0  0  0  0
   -3.2025    1.6118   -0.2172 C   0  0  0  0  0  0  0  0  0  0  0  0
   -4.5497   -0.8158   -0.1341 C   0  0  0  0  0  0  0  0  0  0  0  0
   -4.5972    1.5874   -0.1474 C   0  0  0  0  0  0  0  0  0  0  0  0
   -5.2711    0.3740   -0.1012 C   0  0  0  0  0  0  0  0  0  0  0  0
    6.2776    1.0297   -1.4651 C   0  0  0  0  0  0  0  0  0  0  0  0
    1.3621   -0.6704   -1.1602 H   0  0  0  0  0  0  0  0  0  0  0  0
   -0.5079   -1.0204    1.2096 H   0  0  0  0  0  0  0  0  0  0  0  0
    2.0030   -2.8257   -0.4845 H   0  0  0  0  0  0  0  0  0  0  0  0
    1.7134   -2.5024    1.2277 H   0  0  0  0  0  0  0  0  0  0  0  0
    1.5440    1.7945   -0.8670 H   0  0  0  0  0  0  0  0  0  0  0  0
    1.7275    2.4918    0.7352 H   0  0  0  0  0  0  0  0  0  0  0  0
   -0.7344    0.5319   -1.4328 H   0  0  0  0  0  0  0  0  0  0  0  0
    3.9027   -1.8409    1.3989 H   0  0  0  0  0  0  0  0  0  0  0  0
    4.1068   -1.9631   -0.3327 H   0  0  0  0  0  0  0  0  0  0  0  0
   -0.5391    1.7545    1.3573 H   0  0  0  0  0  0  0  0  0  0  0  0
   -0.5738    2.6011   -0.1747 H   0  0  0  0  0  0  0  0  0  0  0  0
   -0.4752   -3.0018   -0.3599 H   0  0  0  0  0  0  0  0  0  0  0  0
   -0.8589   -1.9076   -1.6865 H   0  0  0  0  0  0  0  0  0  0  0  0
    2.0789   -0.6712    2.6761 H   0  0  0  0  0  0  0  0  0  0  0  0
    2.1392    1.0879    2.7398 H   0  0  0  0  0  0  0  0  0  0  0  0
    0.6034    0.2675    2.5185 H   0  0  0  0  0  0  0  0  0  0  0  0
    3.7951    1.6428   -1.0212 H   0  0  0  0  0  0  0  0  0  0  0  0
    3.2631    0.1548   -1.8061 H   0  0  0  0  0  0  0  0  0  0  0  0
   -2.5187   -2.5703    0.7812 H   0  0  0  0  0  0  0  0  0  0  0  0
   -2.9341   -2.8198   -0.9200 H   0  0  0  0  0  0  0  0  0  0  0  0
    5.1094    0.1485    1.3312 H   0  0  0  0  0  0  0  0  0  0  0  0
    5.5525   -0.8964   -1.3051 H   0  0  0  0  0  0  0  0  0  0  0  0
   -2.7199    2.5831   -0.2699 H   0  0  0  0  0  0  0  0  0  0  0  0
   -5.0824   -1.7640   -0.0998 H   0  0  0  0  0  0  0  0  0  0  0  0
   -5.1434    2.5270   -0.1340 H   0  0  0  0  0  0  0  0  0  0  0  0
    7.2837    0.6821   -1.6734 H   0  0  0  0  0  0  0  0  0  0  0  0
    6.1032    2.0998   -1.4497 H   0  0  0  0  0  0  0  0  0  0  0  0
   -6.9617    1.2619   -0.0156 H   0  0  0  0  0  0  0  0  0  0  0  0
  1  6  1  0  0  0  0
  1 44  1  0  0  0  0
  2 22  1  0  0  0  0
  2 51  1  0  0  0  0
  3  4  1  0  0  0  0
  3  6  1  0  0  0  0
  3  8  1  0  0  0  0
  3 13  1  0  0  0  0
  4  5  1  0  0  0  0
  4  7  1  0  0  0  0
  4 24  1  0  0  0  0
  5  9  1  0  0  0  0
  5 12  1  0  0  0  0
  5 25  1  0  0  0  0
  6 10  1  0  0  0  0
  6 14  1  0  0  0  0
  7 10  1  0  0  0  0
  7 26  1  0  0  0  0
  7 27  1  0  0  0  0
  8 11  1  0  0  0  0
  8 28  1  0  0  0  0
  8 29  1  0  0  0  0
  9 11  1  0  0  0  0
  9 15  1  0  0  0  0
  9 30  1  0  0  0  0
 10 31  1  0  0  0  0
 10 32  1  0  0  0  0
 11 33  1  0  0  0  0
 11 34  1  0  0  0  0
 12 16  1  0  0  0  0
 12 35  1  0  0  0  0
 12 36  1  0  0  0  0
 13 37  1  0  0  0  0
 13 38  1  0  0  0  0
 13 39  1  0  0  0  0
 14 18  1  0  0  0  0
 14 40  1  0  0  0  0
 14 41  1  0  0  0  0
 15 17  2  0  0  0  0
 15 19  1  0  0  0  0
 16 17  1  0  0  0  0
 16 42  1  0  0  0  0
 16 43  1  0  0  0  0
 17 20  1  0  0  0  0
 18 23  2  0  0  0  0
 18 45  1  0  0  0  0
 19 21  2  0  0  0  0
 19 46  1  0  0  0  0
 20 22  2  0  0  0  0
 20 47  1  0  0  0  0
 21 22  1  0  0  0  0
 21 48  1  0  0  0  0
 23 49  1  0  0  0  0
 23 50  1  0  0  0  0
M  END
> <PUBCHEM_COMPOUND_CID>
250820

> <PUBCHEM_CONFORMER_RMSD>
0.6

> <PUBCHEM_CONFORMER_DIVERSEORDER>
1
2
3

> <PUBCHEM_MMFF94_PARTIAL_CHARGES>
22
1 -0.68
14 0.14
15 -0.14
16 0.14
17 -0.14
18 -0.29
19 -0.15
2 -0.53
20 -0.15
21 -0.15
22 0.08
23 -0.3
44 0.4
45 0.15
46 0.15
47 0.15
48 0.15
49 0.15
50 0.15
51 0.45
6 0.28
9 0.14

> <PUBCHEM_EFFECTIVE_ROTOR_COUNT>
3.4

> <PUBCHEM_PHARMACOPHORE_FEATURES>
8
1 1 acceptor
1 1 donor
1 2 donor
1 23 hydrophobe
5 3 4 6 7 10 rings
6 15 17 19 20 21 22 rings
6 3 4 5 8 9 11 rings
6 5 9 12 15 16 17 rings

> <PUBCHEM_HEAVY_ATOM_COUNT>
23

> <PUBCHEM_ATOM_DEF_STEREO_COUNT>
5

> <PUBCHEM_ATOM_UDEF_STEREO_COUNT>
0

> <PUBCHEM_BOND_DEF_STEREO_COUNT>
0

> <PUBCHEM_BOND_UDEF_STEREO_COUNT>
0

> <PUBCHEM_ISOTOPIC_ATOM_COUNT>
0

> <PUBCHEM_COMPONENT_COUNT>
1

> <PUBCHEM_CACTVS_TAUTO_COUNT>
9

> <PUBCHEM_CONFORMER_ID>
0003D3C400000001

> <PUBCHEM_MMFF94_ENERGY>
84.4958

> <PUBCHEM_FEATURE_SELFOVERLAP>
40.689

> <PUBCHEM_SHAPE_FINGERPRINT>
10366900 7 17894352194058928203
10554248 39 17986409969052074359
106641 1 16415187946108200761
10670039 82 18336823199274107468
10759866 29 18271807973032843618
10906281 52 18337656625383168697
11578080 2 13986595569837838337
11796584 16 13839985516684688981
12011746 2 18187363233677540781
12166972 35 5545190636437500563
12236239 1 17846498123576266494
12390115 104 18042395993327145721
12403259 415 18187655721362335793
12403814 3 17632583764142183901
12553582 1 18410868650046957781
12596602 18 17060337431571298729
12788726 201 17895750832515252369
128620 24 13542467574729680091
12954195 1 17750497646216205488
13134695 92 15140963911766822778
13140716 1 18193852452314978145
13544592 145 17821728312904415470
13631057 29 16700883870311316515
13760787 19 18342457036724925558
14251752 14 18410289233906121158
14341114 176 18410291441445347731
14341114 328 17489872630586655408
14617045 38 18409725171107789943
14790565 3 18338793515336251581
15048467 5 17988639679653374364
15183329 4 18187352273353706646
15196674 1 18337677520098402899
15475509 8 17750773597337641316
1601671 61 18411983567780310364
17804303 29 18334860481097981249
1813 80 17275105071846880709
18186145 218 17458073655158571771
18608769 82 18340197480606797635
192875 21 5039948576590973099
19784866 140 17313094294088083574
200 152 14634865362063096106
20681677 155 18411980226364273778
20871999 31 18339921524404190158
21033648 29 17604446153681012825
21267235 1 18337951297998269251
21285901 2 18114735061808658036
21421861 104 17844261824289510378
221357 26 17240764003490992537
2215653 11 17603581937161726956
22393880 68 17968382251632826630
23175994 123 16950279585499685744
23559900 14 17967819297252491280
296302 2 16773795896104301512
3004659 81 18339921628032330270
335352 9 18408325483914880118
34797466 226 18187075131593212084
34934 24 18336274469920102994
350125 39 18411417341489846981
3545911 37 18408041814558020943
4325135 7 17989766704646671052
474 4 17131824331792866900
495365 180 16950863430564207410
5104073 3 18338239383535888507
542803 24 17846781810513888469
9971528 1 14634877448370125474

> <PUBCHEM_SHAPE_MULTIPOLES>
461.59
12.55
1.99
1.17
2.15
0.57
0.37
-3.47
-3.69
0.57
-0.11
-1.71
-0.17
-0.56

> <PUBCHEM_SHAPE_SELFOVERLAP>
997.5

> <PUBCHEM_SHAPE_VOLUME>
252.8

> <PUBCHEM_COORDINATE_TYPE>
2
5
10

$$$$

