101817
  -OEChem-07051213053D

 57 60  0     1  0  0  0  0  0999 V2000
    3.0817    0.0571    2.0694 O   0  0  0  0  0  0  0  0  0  0  0  0
   -0.3798   -2.5185   -1.0262 O   0  0  0  0  0  0  0  0  0  0  0  0
   -4.8519   -0.1163    2.6068 O   0  0  0  0  0  0  0  0  0  0  0  0
    5.5248    0.0879   -0.0726 O   0  0  0  0  0  0  0  0  0  0  0  0
   -0.2290    1.0196   -0.6272 C   0  0  1  0  0  0  0  0  0  0  0  0
    1.0993    1.0573    0.1466 C   0  0  1  0  0  0  0  0  0  0  0  0
    2.0135   -0.1574   -0.1519 C   0  0  1  0  0  0  0  0  0  0  0  0
   -1.0063   -0.2781   -0.2423 C   0  0  1  0  0  0  0  0  0  0  0  0
   -2.4061   -0.3703   -0.9470 C   0  0  2  0  0  0  0  0  0  0  0  0
   -3.2204    0.9384   -0.6483 C   0  0  2  0  0  0  0  0  0  0  0  0
    3.2625    0.2518    0.6701 C   0  0  1  0  0  0  0  0  0  0  0  0
   -1.0639    2.2768   -0.3532 C   0  0  0  0  0  0  0  0  0  0  0  0
    2.0209    2.2570   -0.0586 C   0  0  0  0  0  0  0  0  0  0  0  0
    1.2722   -1.4200    0.3003 C   0  0  0  0  0  0  0  0  0  0  0  0
   -2.4377    2.2107   -1.0119 C   0  0  0  0  0  0  0  0  0  0  0  0
   -0.0737   -1.4995   -0.4110 C   0  0  0  0  0  0  0  0  0  0  0  0
    3.4032    1.7681    0.4159 C   0  0  0  0  0  0  0  0  0  0  0  0
   -3.2483   -1.5863   -0.4556 C   0  0  0  0  0  0  0  0  0  0  0  0
   -3.7104    1.0207    0.8132 C   0  0  0  0  0  0  0  0  0  0  0  0
    2.3794   -0.2981   -1.6565 C   0  0  0  0  0  0  0  0  0  0  0  0
   -2.2513   -0.5244   -2.4828 C   0  0  0  0  0  0  0  0  0  0  0  0
   -3.7036   -1.4889    0.9952 C   0  0  0  0  0  0  0  0  0  0  0  0
   -4.5015   -0.2139    1.2302 C   0  0  1  0  0  0  0  0  0  0  0  0
    4.5230   -0.4918    0.3439 C   0  0  0  0  0  0  0  0  0  0  0  0
    4.5033   -1.9818    0.5536 C   0  0  0  0  0  0  0  0  0  0  0  0
   -0.0053    1.0086   -1.6992 H   0  0  0  0  0  0  0  0  0  0  0  0
    0.8396    1.0465    1.2179 H   0  0  0  0  0  0  0  0  0  0  0  0
   -1.1859   -0.2384    0.8408 H   0  0  0  0  0  0  0  0  0  0  0  0
   -4.1232    0.9283   -1.2764 H   0  0  0  0  0  0  0  0  0  0  0  0
   -0.5401    3.1625   -0.7324 H   0  0  0  0  0  0  0  0  0  0  0  0
   -1.1751    2.4269    0.7271 H   0  0  0  0  0  0  0  0  0  0  0  0
    1.6907    3.1273    0.5180 H   0  0  0  0  0  0  0  0  0  0  0  0
    2.0620    2.5563   -1.1120 H   0  0  0  0  0  0  0  0  0  0  0  0
    1.0760   -1.4249    1.3782 H   0  0  0  0  0  0  0  0  0  0  0  0
    1.8347   -2.3277    0.0646 H   0  0  0  0  0  0  0  0  0  0  0  0
   -3.0157    3.0992   -0.7294 H   0  0  0  0  0  0  0  0  0  0  0  0
   -2.3158    2.2695   -2.1000 H   0  0  0  0  0  0  0  0  0  0  0  0
    4.1348    2.0145   -0.3616 H   0  0  0  0  0  0  0  0  0  0  0  0
    3.6969    2.3099    1.3224 H   0  0  0  0  0  0  0  0  0  0  0  0
   -2.7119   -2.5293   -0.5936 H   0  0  0  0  0  0  0  0  0  0  0  0
   -4.1475   -1.6712   -1.0825 H   0  0  0  0  0  0  0  0  0  0  0  0
   -2.8748    1.1635    1.5083 H   0  0  0  0  0  0  0  0  0  0  0  0
   -4.3435    1.9082    0.9447 H   0  0  0  0  0  0  0  0  0  0  0  0
    3.0173   -1.1699   -1.8318 H   0  0  0  0  0  0  0  0  0  0  0  0
    1.4985   -0.4360   -2.2906 H   0  0  0  0  0  0  0  0  0  0  0  0
    2.9160    0.5748   -2.0410 H   0  0  0  0  0  0  0  0  0  0  0  0
   -1.7972   -1.4820   -2.7536 H   0  0  0  0  0  0  0  0  0  0  0  0
   -3.2298   -0.4891   -2.9766 H   0  0  0  0  0  0  0  0  0  0  0  0
   -1.6407    0.2630   -2.9311 H   0  0  0  0  0  0  0  0  0  0  0  0
   -4.3244   -2.3573    1.2484 H   0  0  0  0  0  0  0  0  0  0  0  0
   -2.8465   -1.5385    1.6772 H   0  0  0  0  0  0  0  0  0  0  0  0
   -5.4379   -0.2564    0.6618 H   0  0  0  0  0  0  0  0  0  0  0  0
    3.8277    0.4698    2.5375 H   0  0  0  0  0  0  0  0  0  0  0  0
    3.9309   -2.2507    1.4440 H   0  0  0  0  0  0  0  0  0  0  0  0
    4.0998   -2.4863   -0.3253 H   0  0  0  0  0  0  0  0  0  0  0  0
    5.5300   -2.3277    0.7100 H   0  0  0  0  0  0  0  0  0  0  0  0
   -4.0291   -0.0819    3.1241 H   0  0  0  0  0  0  0  0  0  0  0  0
  1 11  1  0  0  0  0
  1 53  1  0  0  0  0
  2 16  2  0  0  0  0
  3 23  1  0  0  0  0
  3 57  1  0  0  0  0
  4 24  2  0  0  0  0
  5  6  1  0  0  0  0
  5  8  1  0  0  0  0
  5 12  1  0  0  0  0
  5 26  1  0  0  0  0
  6  7  1  0  0  0  0
  6 13  1  0  0  0  0
  6 27  1  0  0  0  0
  7 11  1  0  0  0  0
  7 14  1  0  0  0  0
  7 20  1  0  0  0  0
  8  9  1  0  0  0  0
  8 16  1  0  0  0  0
  8 28  1  0  0  0  0
  9 10  1  0  0  0  0
  9 18  1  0  0  0  0
  9 21  1  0  0  0  0
 10 15  1  0  0  0  0
 10 19  1  0  0  0  0
 10 29  1  0  0  0  0
 11 17  1  0  0  0  0
 11 24  1  0  0  0  0
 12 15  1  0  0  0  0
 12 30  1  0  0  0  0
 12 31  1  0  0  0  0
 13 17  1  0  0  0  0
 13 32  1  0  0  0  0
 13 33  1  0  0  0  0
 14 16  1  0  0  0  0
 14 34  1  0  0  0  0
 14 35  1  0  0  0  0
 15 36  1  0  0  0  0
 15 37  1  0  0  0  0
 17 38  1  0  0  0  0
 17 39  1  0  0  0  0
 18 22  1  0  0  0  0
 18 40  1  0  0  0  0
 18 41  1  0  0  0  0
 19 23  1  0  0  0  0
 19 42  1  0  0  0  0
 19 43  1  0  0  0  0
 20 44  1  0  0  0  0
 20 45  1  0  0  0  0
 20 46  1  0  0  0  0
 21 47  1  0  0  0  0
 21 48  1  0  0  0  0
 21 49  1  0  0  0  0
 22 23  1  0  0  0  0
 22 50  1  0  0  0  0
 22 51  1  0  0  0  0
 23 52  1  0  0  0  0
 24 25  1  0  0  0  0
 25 54  1  0  0  0  0
 25 55  1  0  0  0  0
 25 56  1  0  0  0  0
M  END
> <PUBCHEM_COMPOUND_CID>
101817

> <PUBCHEM_CONFORMER_RMSD>
0.6

> <PUBCHEM_CONFORMER_DIVERSEORDER>
1
4
3
2

> <PUBCHEM_MMFF94_PARTIAL_CHARGES>
13
1 -0.68
11 0.34
14 0.06
16 0.45
2 -0.57
23 0.28
24 0.45
25 0.06
3 -0.68
4 -0.57
53 0.4
57 0.4
8 0.06

> <PUBCHEM_EFFECTIVE_ROTOR_COUNT>
3

> <PUBCHEM_PHARMACOPHORE_FEATURES>
10
1 1 acceptor
1 1 donor
1 2 acceptor
1 3 acceptor
1 3 donor
1 4 acceptor
5 6 7 11 13 17 rings
6 5 6 7 8 14 16 rings
6 5 8 9 10 12 15 rings
6 9 10 18 19 22 23 rings

> <PUBCHEM_HEAVY_ATOM_COUNT>
25

> <PUBCHEM_ATOM_DEF_STEREO_COUNT>
8

> <PUBCHEM_ATOM_UDEF_STEREO_COUNT>
0

> <PUBCHEM_BOND_DEF_STEREO_COUNT>
0

> <PUBCHEM_BOND_UDEF_STEREO_COUNT>
0

> <PUBCHEM_ISOTOPIC_ATOM_COUNT>
0

> <PUBCHEM_COMPONENT_COUNT>
1

> <PUBCHEM_CACTVS_TAUTO_COUNT>
6

> <PUBCHEM_CONFORMER_ID>
00018DB900000001

> <PUBCHEM_MMFF94_ENERGY>
85.9024

> <PUBCHEM_FEATURE_SELFOVERLAP>
50.873

> <PUBCHEM_SHAPE_FINGERPRINT>
10366900 7 17846783974924490843
11132069 177 18408038507586138381
11370993 144 17313098678780194310
11552529 35 18044094544975433051
12173636 292 16298104276975752221
12236239 1 17822296747773764631
12403814 3 18408044000928561149
12422481 6 18262793111250322731
12553582 1 18339935852467849980
12633257 1 17967249784536157569
12714826 92 16988570091285993317
13103583 49 17985800745505848737
13140716 1 18337951169259643379
13224815 77 18201443557902424757
13544653 18 17560799875696013891
13583140 156 17202506466358672364
13675066 3 18335990826121824040
14004511 7 17967819348696717780
14223421 5 18341894151338172213
14341114 176 18343295994055896056
14787075 74 17559953212782108616
14955137 171 18337378427055334088
15196674 1 18410581660421831900
15209289 33 18130787862675342890
15209294 21 17603865606945918371
15309172 13 18408605855375210759
15788980 27 18272939335868704070
16945 1 18339375092594114206
17349148 13 17967828119146666998
1813 80 17346594162264360501
18186145 218 18040716974071522078
18769570 83 14562811105141184266
19591789 44 18411423920910025166
20261772 1 18409166593204086371
20739085 24 18341037532669391405
20775438 99 12027240294676712385
20775530 9 15049738450060143409
21033648 29 18042143066465178616
221490 88 18342741810547755880
22182313 1 18191300687669066286
23402539 116 18187941585679071852
23557571 272 17060348447935534005
23559900 14 18272099296237792644
2748010 2 18192439781757614156
2838139 119 14635980366350092361
296302 2 6339239242150596654
335352 9 18337963409958804436
350125 39 18410854364922525156
465052 167 17987219072334479595
5104073 3 18261399905848838906

> <PUBCHEM_SHAPE_MULTIPOLES>
491.01
9.52
2.31
1.66
3.19
0.36
0.09
-1.59
4.04
0.03
-0.26
-1.59
-0.29
0.27

> <PUBCHEM_SHAPE_SELFOVERLAP>
1051.403

> <PUBCHEM_SHAPE_VOLUME>
269.7

> <PUBCHEM_COORDINATE_TYPE>
2
5
10

$$$$

