362563
  -OEChem-07051212513D

 84 89  0     1  0  0  0  0  0999 V2000
    7.7200   -2.5026    1.3985 O   0  0  0  0  0  0  0  0  0  0  0  0
   -3.4830   -4.1602   -2.2251 O   0  0  0  0  0  0  0  0  0  0  0  0
   -1.3126    3.3888   -1.5721 O   0  0  0  0  0  0  0  0  0  0  0  0
    7.7155    0.2585    1.6930 O   0  0  0  0  0  0  0  0  0  0  0  0
   -6.0453   -3.0919   -2.1340 O   0  0  0  0  0  0  0  0  0  0  0  0
   -0.1374    5.8659   -1.0488 O   0  0  0  0  0  0  0  0  0  0  0  0
    2.6549   -0.0714   -1.7935 N   0  0  2  0  0  0  0  0  0  0  0  0
   -3.8426   -0.1836    2.8737 N   0  0  2  0  0  0  0  0  0  0  0  0
    3.4862    0.6126   -0.7780 C   0  0  2  0  0  0  0  0  0  0  0  0
   -4.9362   -0.5146    1.9204 C   0  0  2  0  0  0  0  0  0  0  0  0
    4.6186   -0.2302   -0.2137 C   0  0  0  0  0  0  0  0  0  0  0  0
   -4.5407   -1.4950    0.8130 C   0  0  0  0  0  0  0  0  0  0  0  0
    2.3193   -1.4431   -1.3918 C   0  0  0  0  0  0  0  0  0  0  0  0
   -2.9683   -1.3318    3.1403 C   0  0  0  0  0  0  0  0  0  0  0  0
    3.5426   -2.3274   -1.1402 C   0  0  0  0  0  0  0  0  0  0  0  0
   -2.2636   -1.7517    1.8546 C   0  0  0  0  0  0  0  0  0  0  0  0
    4.6198   -1.6297   -0.3523 C   0  0  0  0  0  0  0  0  0  0  0  0
    2.5832    1.1254    0.3553 C   0  0  0  0  0  0  0  0  0  0  0  0
   -3.2637   -2.0819    0.7849 C   0  0  0  0  0  0  0  0  0  0  0  0
   -5.4373    0.8000    1.2919 C   0  0  0  0  0  0  0  0  0  0  0  0
    3.2607   -0.0199   -3.1245 C   0  0  0  0  0  0  0  0  0  0  0  0
    5.6706    0.3895    0.4799 C   0  0  0  0  0  0  0  0  0  0  0  0
   -4.3673    0.3265    4.1463 C   0  0  0  0  0  0  0  0  0  0  0  0
   -5.4710   -1.8699   -0.1721 C   0  0  0  0  0  0  0  0  0  0  0  0
    1.8611    2.3762   -0.0165 C   0  0  0  0  0  0  0  0  0  0  0  0
   -4.3430    1.4872    0.5324 C   0  0  0  0  0  0  0  0  0  0  0  0
    5.6716   -2.3808    0.1919 C   0  0  0  0  0  0  0  0  0  0  0  0
   -2.9134   -2.9614   -0.2499 C   0  0  0  0  0  0  0  0  0  0  0  0
    6.7075   -0.3677    1.0243 C   0  0  0  0  0  0  0  0  0  0  0  0
    6.7077   -1.7522    0.8809 C   0  0  0  0  0  0  0  0  0  0  0  0
   -5.1213   -2.7587   -1.1901 C   0  0  0  0  0  0  0  0  0  0  0  0
   -3.8397   -3.2970   -1.2343 C   0  0  0  0  0  0  0  0  0  0  0  0
    0.6072    2.3038   -0.6231 C   0  0  0  0  0  0  0  0  0  0  0  0
    2.4405    3.6187    0.2413 C   0  0  0  0  0  0  0  0  0  0  0  0
   -4.1519    1.2076   -0.8207 C   0  0  0  0  0  0  0  0  0  0  0  0
   -3.5157    2.4060    1.1782 C   0  0  0  0  0  0  0  0  0  0  0  0
   -0.0677    3.4738   -0.9716 C   0  0  0  0  0  0  0  0  0  0  0  0
   -2.3065    2.7655   -0.8823 C   0  0  0  0  0  0  0  0  0  0  0  0
   -3.1338    1.8466   -1.5281 C   0  0  0  0  0  0  0  0  0  0  0  0
   -2.4974    3.0452    0.4710 C   0  0  0  0  0  0  0  0  0  0  0  0
    1.7657    4.7887   -0.1071 C   0  0  0  0  0  0  0  0  0  0  0  0
    0.5116    4.7161   -0.7136 C   0  0  0  0  0  0  0  0  0  0  0  0
    7.6441   -3.9143    1.2076 C   0  0  0  0  0  0  0  0  0  0  0  0
   -2.1494   -4.6657   -2.1962 C   0  0  0  0  0  0  0  0  0  0  0  0
    3.9565    1.4845   -1.2565 H   0  0  0  0  0  0  0  0  0  0  0  0
   -5.7587   -0.9952    2.4687 H   0  0  0  0  0  0  0  0  0  0  0  0
    1.6786   -1.9122   -2.1494 H   0  0  0  0  0  0  0  0  0  0  0  0
    1.7027   -1.4192   -0.4853 H   0  0  0  0  0  0  0  0  0  0  0  0
   -3.5384   -2.1707    3.5625 H   0  0  0  0  0  0  0  0  0  0  0  0
   -2.1968   -1.0597    3.8714 H   0  0  0  0  0  0  0  0  0  0  0  0
    3.9708   -2.6487   -2.0978 H   0  0  0  0  0  0  0  0  0  0  0  0
    3.2187   -3.2287   -0.6057 H   0  0  0  0  0  0  0  0  0  0  0  0
   -1.6362   -2.6252    2.0686 H   0  0  0  0  0  0  0  0  0  0  0  0
   -1.6084   -0.9489    1.4939 H   0  0  0  0  0  0  0  0  0  0  0  0
    3.1774    1.3414    1.2547 H   0  0  0  0  0  0  0  0  0  0  0  0
    1.8688    0.3679    0.7011 H   0  0  0  0  0  0  0  0  0  0  0  0
   -5.8368    1.4802    2.0541 H   0  0  0  0  0  0  0  0  0  0  0  0
   -6.2916    0.6281    0.6250 H   0  0  0  0  0  0  0  0  0  0  0  0
    3.3645    1.0203   -3.4530 H   0  0  0  0  0  0  0  0  0  0  0  0
    2.6149   -0.5119   -3.8603 H   0  0  0  0  0  0  0  0  0  0  0  0
    4.2494   -0.4884   -3.1669 H   0  0  0  0  0  0  0  0  0  0  0  0
    5.6735    1.4718    0.5925 H   0  0  0  0  0  0  0  0  0  0  0  0
   -4.9878   -0.4164    4.6609 H   0  0  0  0  0  0  0  0  0  0  0  0
   -3.5440    0.6051    4.8142 H   0  0  0  0  0  0  0  0  0  0  0  0
   -4.9620    1.2340    4.0098 H   0  0  0  0  0  0  0  0  0  0  0  0
   -6.4815   -1.4689   -0.1415 H   0  0  0  0  0  0  0  0  0  0  0  0
    5.6250   -3.4538    0.0361 H   0  0  0  0  0  0  0  0  0  0  0  0
   -1.9033   -3.3573   -0.2230 H   0  0  0  0  0  0  0  0  0  0  0  0
    0.1598    1.3342   -0.8285 H   0  0  0  0  0  0  0  0  0  0  0  0
    3.4183    3.6889    0.7106 H   0  0  0  0  0  0  0  0  0  0  0  0
   -4.8023    0.5234   -1.3555 H   0  0  0  0  0  0  0  0  0  0  0  0
   -3.6599    2.6492    2.2271 H   0  0  0  0  0  0  0  0  0  0  0  0
   -2.9937    1.6297   -2.5836 H   0  0  0  0  0  0  0  0  0  0  0  0
   -1.8821    3.7714    0.9950 H   0  0  0  0  0  0  0  0  0  0  0  0
    2.2288    5.7499    0.0990 H   0  0  0  0  0  0  0  0  0  0  0  0
    7.5492    1.2168    1.6927 H   0  0  0  0  0  0  0  0  0  0  0  0
   -6.8757   -2.6218   -1.9458 H   0  0  0  0  0  0  0  0  0  0  0  0
    8.5245   -4.3518    1.6899 H   0  0  0  0  0  0  0  0  0  0  0  0
    7.6982   -4.1815    0.1467 H   0  0  0  0  0  0  0  0  0  0  0  0
    6.7657   -4.3425    1.7023 H   0  0  0  0  0  0  0  0  0  0  0  0
   -1.4109   -3.8651   -2.3131 H   0  0  0  0  0  0  0  0  0  0  0  0
   -1.9679   -5.2744   -1.3037 H   0  0  0  0  0  0  0  0  0  0  0  0
   -2.0377   -5.3288   -3.0605 H   0  0  0  0  0  0  0  0  0  0  0  0
    0.4133    6.6261   -0.7946 H   0  0  0  0  0  0  0  0  0  0  0  0
  1 30  1  0  0  0  0
  1 43  1  0  0  0  0
  2 32  1  0  0  0  0
  2 44  1  0  0  0  0
  3 37  1  0  0  0  0
  3 38  1  0  0  0  0
  4 29  1  0  0  0  0
  4 76  1  0  0  0  0
  5 31  1  0  0  0  0
  5 77  1  0  0  0  0
  6 42  1  0  0  0  0
  6 84  1  0  0  0  0
  7  9  1  0  0  0  0
  7 13  1  0  0  0  0
  7 21  1  0  0  0  0
  8 10  1  0  0  0  0
  8 14  1  0  0  0  0
  8 23  1  0  0  0  0
  9 11  1  0  0  0  0
  9 18  1  0  0  0  0
  9 45  1  0  0  0  0
 10 12  1  0  0  0  0
 10 20  1  0  0  0  0
 10 46  1  0  0  0  0
 11 17  1  0  0  0  0
 11 22  2  0  0  0  0
 12 19  1  0  0  0  0
 12 24  2  0  0  0  0
 13 15  1  0  0  0  0
 13 47  1  0  0  0  0
 13 48  1  0  0  0  0
 14 16  1  0  0  0  0
 14 49  1  0  0  0  0
 14 50  1  0  0  0  0
 15 17  1  0  0  0  0
 15 51  1  0  0  0  0
 15 52  1  0  0  0  0
 16 19  1  0  0  0  0
 16 53  1  0  0  0  0
 16 54  1  0  0  0  0
 17 27  2  0  0  0  0
 18 25  1  0  0  0  0
 18 55  1  0  0  0  0
 18 56  1  0  0  0  0
 19 28  2  0  0  0  0
 20 26  1  0  0  0  0
 20 57  1  0  0  0  0
 20 58  1  0  0  0  0
 21 59  1  0  0  0  0
 21 60  1  0  0  0  0
 21 61  1  0  0  0  0
 22 29  1  0  0  0  0
 22 62  1  0  0  0  0
 23 63  1  0  0  0  0
 23 64  1  0  0  0  0
 23 65  1  0  0  0  0
 24 31  1  0  0  0  0
 24 66  1  0  0  0  0
 25 33  2  0  0  0  0
 25 34  1  0  0  0  0
 26 35  2  0  0  0  0
 26 36  1  0  0  0  0
 27 30  1  0  0  0  0
 27 67  1  0  0  0  0
 28 32  1  0  0  0  0
 28 68  1  0  0  0  0
 29 30  2  0  0  0  0
 31 32  2  0  0  0  0
 33 37  1  0  0  0  0
 33 69  1  0  0  0  0
 34 41  2  0  0  0  0
 34 70  1  0  0  0  0
 35 39  1  0  0  0  0
 35 71  1  0  0  0  0
 36 40  2  0  0  0  0
 36 72  1  0  0  0  0
 37 42  2  0  0  0  0
 38 39  2  0  0  0  0
 38 40  1  0  0  0  0
 39 73  1  0  0  0  0
 40 74  1  0  0  0  0
 41 42  1  0  0  0  0
 41 75  1  0  0  0  0
 43 78  1  0  0  0  0
 43 79  1  0  0  0  0
 43 80  1  0  0  0  0
 44 81  1  0  0  0  0
 44 82  1  0  0  0  0
 44 83  1  0  0  0  0
M  END
> <PUBCHEM_COMPOUND_CID>
362563

> <PUBCHEM_CONFORMER_RMSD>
1.8

> <PUBCHEM_CONFORMER_DIVERSEORDER>
18
98
11
199
226
224
75
67
130
9
68
90
124
187
156
180
205
72
158
129
29
192
88
216
143
219
28
206
165
78
213
214
61
30
231
145
228
235
97
77
135
227
81
237
109
207
150
209
66
112
149
57
182
229
167
142
45
52
208
41
70
210
221
183
174
64
115
236
220
138
144
10
134
79
117
137
140
148
105
53
211
39
3
43
37
131
152
177
107
178
188
230
147
193
185
225
1
20
48
123
54
126
76
160
232
204
203
13
198
171
189
162
202
179
184
194
100
17
99
191
238
103
91
65
125
95
26
200
154
151
116
36
155
24
108
128
21
218
122
8
2
195
133
42
113
196
93
19
139
172
223
40
38
118
51
46
27
153
181
176
23
190
217
86
82
87
15
159
127
222
4
121
49
6
170
234
22
101
120
111
34
31
73
201
106
14
16
141
92
215
233
35
58
83
33
136
163
85
56
161
157
32
102
168
132
96
119
62
169
110
164
94
5
89
50
63
146
12
114
175
84
212
25
71
166
173
60
186
104
47
55
7
44
74
69
59
197
80

> <PUBCHEM_MMFF94_PARTIAL_CHARGES>
58
1 -0.36
10 0.41
11 -0.14
12 -0.14
13 0.27
14 0.27
15 0.14
16 0.14
17 -0.14
18 0.14
19 -0.14
2 -0.36
20 0.14
21 0.27
22 -0.15
23 0.27
24 -0.15
25 -0.14
26 -0.14
27 -0.15
28 -0.15
29 0.08
3 -0.17
30 0.08
31 0.08
32 0.08
33 -0.15
34 -0.15
35 -0.15
36 -0.15
37 0.08
38 0.08
39 -0.15
4 -0.53
40 -0.15
41 -0.15
42 0.08
43 0.28
44 0.28
5 -0.53
6 -0.53
62 0.15
66 0.15
67 0.15
68 0.15
69 0.15
7 -0.81
70 0.15
71 0.15
72 0.15
73 0.15
74 0.15
75 0.15
76 0.45
77 0.45
8 -0.81
84 0.45
9 0.41

> <PUBCHEM_EFFECTIVE_ROTOR_COUNT>
9.6

> <PUBCHEM_PHARMACOPHORE_FEATURES>
14
1 1 acceptor
1 2 acceptor
1 3 acceptor
1 4 donor
1 5 donor
1 6 donor
1 7 cation
1 8 cation
6 11 17 22 27 29 30 rings
6 12 19 24 28 31 32 rings
6 25 33 34 37 41 42 rings
6 26 35 36 38 39 40 rings
6 7 9 11 13 15 17 rings
6 8 10 12 14 16 19 rings

> <PUBCHEM_HEAVY_ATOM_COUNT>
44

> <PUBCHEM_ATOM_DEF_STEREO_COUNT>
0

> <PUBCHEM_ATOM_UDEF_STEREO_COUNT>
2

> <PUBCHEM_BOND_DEF_STEREO_COUNT>
0

> <PUBCHEM_BOND_UDEF_STEREO_COUNT>
0

> <PUBCHEM_ISOTOPIC_ATOM_COUNT>
0

> <PUBCHEM_COMPONENT_COUNT>
1

> <PUBCHEM_CACTVS_TAUTO_COUNT>
20

> <PUBCHEM_CONFORMER_ID>
0005884300000012

> <PUBCHEM_MMFF94_ENERGY>
159.2666

> <PUBCHEM_FEATURE_SELFOVERLAP>
71.083

> <PUBCHEM_SHAPE_FINGERPRINT>
10169797 241 18268126726978796748
10254770 206 18411141359427940491
10462674 296 18265343819651356070
10622 236 17973733471946794687
10928967 22 18267281189161258949
11093857 5 17758668237644985804
11135609 99 18200030798200955758
11136131 41 17979081479445967872
11828532 37 17702084903767964827
12120059 20 18337097987519326180
12202916 173 18119263980331834613
12218070 45 18041000622370964534
12633046 712 17630593544922209779
13560911 43 18264770956707486095
14279260 333 17631452448598735786
14950920 106 17676201338929652761
15320291 9 17903638479967641671
15361156 5 18201711821919059397
15406563 47 17766000879820029886
15781502 589 18052541268599843555
16993438 75 18198069272691447165
19315092 285 17460315447951651849
19611394 137 18340209708879790984
20764821 26 18337941325368655309
21458453 9 18335154072647322728
21585480 29 18336838489974177656
50080093 196 17760368794789760126
5080951 261 18199759187656419584
563151 74 15792012333074094316
6636798 310 17313668136273882723

> <PUBCHEM_SHAPE_MULTIPOLES>
860.32
17.96
7.03
2.79
26.42
4.36
1.39
-18.04
8.15
-1.4
-3.7
-3.14
-1.6
-3.25

> <PUBCHEM_SHAPE_SELFOVERLAP>
1883.255

> <PUBCHEM_SHAPE_VOLUME>
466.7

> <PUBCHEM_COORDINATE_TYPE>
2
5
10

$$$$

