13199
  -OEChem-06261207533D

 20 20  0     0  0  0  0  0  0999 V2000
   -2.7775   -0.0002    0.1321 P   0  0  0  0  0  0  0  0  0  0  0  0
   -0.9801   -0.0001   -0.3559 C   0  0  0  0  0  0  0  0  0  0  0  0
   -0.2796    1.2650    0.1562 C   0  0  0  0  0  0  0  0  0  0  0  0
   -0.2793   -1.2649    0.1562 C   0  0  0  0  0  0  0  0  0  0  0  0
    1.2069    1.2617   -0.1970 C   0  0  0  0  0  0  0  0  0  0  0  0
    1.2073   -1.2616   -0.1969 C   0  0  0  0  0  0  0  0  0  0  0  0
    1.9023    0.0001    0.3053 C   0  0  0  0  0  0  0  0  0  0  0  0
   -0.9486   -0.0001   -1.4529 H   0  0  0  0  0  0  0  0  0  0  0  0
   -0.3859    1.3470    1.2464 H   0  0  0  0  0  0  0  0  0  0  0  0
   -0.7465    2.1611   -0.2716 H   0  0  0  0  0  0  0  0  0  0  0  0
   -0.7460   -2.1612   -0.2717 H   0  0  0  0  0  0  0  0  0  0  0  0
   -0.3856   -1.3470    1.2463 H   0  0  0  0  0  0  0  0  0  0  0  0
    1.6899    2.1454    0.2351 H   0  0  0  0  0  0  0  0  0  0  0  0
    1.3231    1.3343   -1.2854 H   0  0  0  0  0  0  0  0  0  0  0  0
    1.3235   -1.3343   -1.2853 H   0  0  0  0  0  0  0  0  0  0  0  0
    1.6903   -2.1451    0.2354 H   0  0  0  0  0  0  0  0  0  0  0  0
    2.9480    0.0003   -0.0219 H   0  0  0  0  0  0  0  0  0  0  0  0
    1.9103    0.0002    1.4023 H   0  0  0  0  0  0  0  0  0  0  0  0
   -3.1922   -1.0474   -0.7245 H   0  0  0  0  0  0  0  0  0  0  0  0
   -3.1924    1.0471   -0.7244 H   0  0  0  0  0  0  0  0  0  0  0  0
  1  2  1  0  0  0  0
  1 19  1  0  0  0  0
  1 20  1  0  0  0  0
  2  3  1  0  0  0  0
  2  4  1  0  0  0  0
  2  8  1  0  0  0  0
  3  5  1  0  0  0  0
  3  9  1  0  0  0  0
  3 10  1  0  0  0  0
  4  6  1  0  0  0  0
  4 11  1  0  0  0  0
  4 12  1  0  0  0  0
  5  7  1  0  0  0  0
  5 13  1  0  0  0  0
  5 14  1  0  0  0  0
  6  7  1  0  0  0  0
  6 15  1  0  0  0  0
  6 16  1  0  0  0  0
  7 17  1  0  0  0  0
  7 18  1  0  0  0  0
M  END
> <PUBCHEM_COMPOUND_CID>
13199

> <PUBCHEM_CONFORMER_RMSD>
0.4

> <PUBCHEM_CONFORMER_DIVERSEORDER>
1
2
3
4

> <PUBCHEM_MMFF94_PARTIAL_CHARGES>
4
1 -0.36
19 0.1
2 0.17
20 0.1

> <PUBCHEM_EFFECTIVE_ROTOR_COUNT>
1.2

> <PUBCHEM_PHARMACOPHORE_FEATURES>
1
6 2 3 4 5 6 7 rings

> <PUBCHEM_HEAVY_ATOM_COUNT>
7

> <PUBCHEM_ATOM_DEF_STEREO_COUNT>
0

> <PUBCHEM_ATOM_UDEF_STEREO_COUNT>
0

> <PUBCHEM_BOND_DEF_STEREO_COUNT>
0

> <PUBCHEM_BOND_UDEF_STEREO_COUNT>
0

> <PUBCHEM_ISOTOPIC_ATOM_COUNT>
0

> <PUBCHEM_COMPONENT_COUNT>
1

> <PUBCHEM_CACTVS_TAUTO_COUNT>
1

> <PUBCHEM_CONFORMER_ID>
0000338F00000001

> <PUBCHEM_MMFF94_ENERGY>
3.2194

> <PUBCHEM_FEATURE_SELFOVERLAP>
5.074

> <PUBCHEM_SHAPE_FINGERPRINT>
18185500 45 18335145297131882895
20096714 4 18338237046482828382
21040471 1 18194120711671881428
23235685 24 18410578344738630276
23552423 10 18055343893098870614
241688 4 17906729555071141544
29004967 10 18341893017271588313

> <PUBCHEM_SHAPE_MULTIPOLES>
147.91
2.96
1.52
0.68
1.82
0
0
0
-0.18
-0.44
0.02
0.02
0
0

> <PUBCHEM_SHAPE_SELFOVERLAP>
269.337

> <PUBCHEM_SHAPE_VOLUME>
94.7

> <PUBCHEM_COORDINATE_TYPE>
2
5
10

$$$$

