51091021
  -OEChem-06241223012D

 39 41  0     0  0  0  0  0  0999 V2000
    4.4487   -1.1926    0.0000 S   0  0  0  0  0  0  0  0  0  0  0  0
    5.3147    3.3074    0.0000 O   0  0  0  0  0  0  0  0  0  0  0  0
    3.4782   -2.6872    0.0000 N   0  0  0  0  0  0  0  0  0  0  0  0
    2.6691   -1.2859    0.0000 N   0  0  0  0  0  0  0  0  0  0  0  0
    2.0000   -2.0290    0.0000 N   0  0  0  0  0  0  0  0  0  0  0  0
    7.0468    3.3074    0.0000 N   0  0  0  0  0  0  0  0  0  0  0  0
    4.2213   -3.3563    0.0000 C   0  0  0  0  0  0  0  0  0  0  0  0
    4.5303   -4.3073    0.0000 C   0  0  0  0  0  0  0  0  0  0  0  0
    5.1994   -3.5642    0.0000 C   0  0  0  0  0  0  0  0  0  0  0  0
    3.5827   -1.6926    0.0000 C   0  0  0  0  0  0  0  0  0  0  0  0
    2.5000   -2.8951    0.0000 C   0  0  0  0  0  0  0  0  0  0  0  0
    4.4487   -0.1926    0.0000 C   0  0  0  0  0  0  0  0  0  0  0  0
    5.3147    0.3074    0.0000 C   0  0  0  0  0  0  0  0  0  0  0  0
    5.3147    1.3074    0.0000 C   0  0  0  0  0  0  0  0  0  0  0  0
    6.1808    1.8074    0.0000 C   0  0  0  0  0  0  0  0  0  0  0  0
    6.1808   -0.1926    0.0000 C   0  0  0  0  0  0  0  0  0  0  0  0
    7.0468    1.3074    0.0000 C   0  0  0  0  0  0  0  0  0  0  0  0
    7.0468    0.3074    0.0000 C   0  0  0  0  0  0  0  0  0  0  0  0
    6.1808    2.8074    0.0000 C   0  0  0  0  0  0  0  0  0  0  0  0
    7.0468    4.3073    0.0000 C   0  0  0  0  0  0  0  0  0  0  0  0
    7.9128    2.8074    0.0000 C   0  0  0  0  0  0  0  0  0  0  0  0
    4.5028   -2.8039    0.0000 H   0  0  0  0  0  0  0  0  0  0  0  0
    3.9829   -4.5984    0.0000 H   0  0  0  0  0  0  0  0  0  0  0  0
    4.9120   -4.7959    0.0000 H   0  0  0  0  0  0  0  0  0  0  0  0
    5.7252   -3.8928    0.0000 H   0  0  0  0  0  0  0  0  0  0  0  0
    5.4317   -2.9894    0.0000 H   0  0  0  0  0  0  0  0  0  0  0  0
    2.2478   -3.4615    0.0000 H   0  0  0  0  0  0  0  0  0  0  0  0
    4.2366    0.3900    0.0000 H   0  0  0  0  0  0  0  0  0  0  0  0
    3.8381   -0.3003    0.0000 H   0  0  0  0  0  0  0  0  0  0  0  0
    4.7778    1.6174    0.0000 H   0  0  0  0  0  0  0  0  0  0  0  0
    6.1808   -0.8126    0.0000 H   0  0  0  0  0  0  0  0  0  0  0  0
    7.5837    1.6174    0.0000 H   0  0  0  0  0  0  0  0  0  0  0  0
    7.5837   -0.0026    0.0000 H   0  0  0  0  0  0  0  0  0  0  0  0
    7.6028    2.2704    0.0000 H   0  0  0  0  0  0  0  0  0  0  0  0
    8.4497    2.4974    0.0000 H   0  0  0  0  0  0  0  0  0  0  0  0
    8.2228    3.3443    0.0000 H   0  0  0  0  0  0  0  0  0  0  0  0
    7.6668    4.3073    0.0000 H   0  0  0  0  0  0  0  0  0  0  0  0
    7.0468    4.9274    0.0000 H   0  0  0  0  0  0  0  0  0  0  0  0
    6.4268    4.3073    0.0000 H   0  0  0  0  0  0  0  0  0  0  0  0
  1 10  1  0  0  0  0
  1 12  1  0  0  0  0
  2 19  2  0  0  0  0
  3  7  1  0  0  0  0
  3 10  1  0  0  0  0
  3 11  1  0  0  0  0
  4  5  1  0  0  0  0
  4 10  2  0  0  0  0
  5 11  2  0  0  0  0
  6 19  1  0  0  0  0
  6 20  1  0  0  0  0
  6 21  1  0  0  0  0
  7  8  1  0  0  0  0
  7  9  1  0  0  0  0
  7 22  1  0  0  0  0
  8  9  1  0  0  0  0
  8 23  1  0  0  0  0
  8 24  1  0  0  0  0
  9 25  1  0  0  0  0
  9 26  1  0  0  0  0
 11 27  1  0  0  0  0
 12 13  1  0  0  0  0
 12 28  1  0  0  0  0
 12 29  1  0  0  0  0
 13 14  2  0  0  0  0
 13 16  1  0  0  0  0
 14 15  1  0  0  0  0
 14 30  1  0  0  0  0
 15 17  2  0  0  0  0
 15 19  1  0  0  0  0
 16 18  2  0  0  0  0
 16 31  1  0  0  0  0
 17 18  1  0  0  0  0
 17 32  1  0  0  0  0
 18 33  1  0  0  0  0
 20 37  1  0  0  0  0
 20 38  1  0  0  0  0
 20 39  1  0  0  0  0
 21 34  1  0  0  0  0
 21 35  1  0  0  0  0
 21 36  1  0  0  0  0
M  END
> <PUBCHEM_COMPOUND_CID>
51091021

> <PUBCHEM_COMPOUND_CANONICALIZED>
1

> <PUBCHEM_CACTVS_COMPLEXITY>
375

> <PUBCHEM_CACTVS_HBOND_ACCEPTOR>
4

> <PUBCHEM_CACTVS_HBOND_DONOR>
0

> <PUBCHEM_CACTVS_ROTATABLE_BOND>
5

> <PUBCHEM_CACTVS_SUBSKEYS>
AAADceBzoABAAAAAAAAAAAAAGAAAAWAAAAAwAAAAAAAAAAABwAAAHgQIAAAADCjF2AS3EIcMEAiqAiFTNACSUAt0gJANyAEIBMiIKDKgnRGEIQhgggIIiYcYiECOAAACAAAAAAAAAAQAAAAAAAAAAAAAAA==

> <PUBCHEM_IUPAC_OPENEYE_NAME>
3-[(4-cyclopropyl-1,2,4-triazol-3-yl)sulfanylmethyl]-N,N-dimethyl-benzamide

> <PUBCHEM_IUPAC_CAS_NAME>
3-[[(4-cyclopropyl-1,2,4-triazol-3-yl)thio]methyl]-N,N-dimethylbenzamide

> <PUBCHEM_IUPAC_NAME>
3-[(4-cyclopropyl-1,2,4-triazol-3-yl)sulfanylmethyl]-N,N-dimethylbenzamide

> <PUBCHEM_IUPAC_SYSTEMATIC_NAME>
3-[(4-cyclopropyl-1,2,4-triazol-3-yl)sulfanylmethyl]-N,N-dimethyl-benzamide

> <PUBCHEM_IUPAC_TRADITIONAL_NAME>
3-[[(4-cyclopropyl-1,2,4-triazol-3-yl)thio]methyl]-N,N-dimethyl-benzamide

> <PUBCHEM_IUPAC_INCHI>
InChI=1S/C15H18N4OS/c1-18(2)14(20)12-5-3-4-11(8-12)9-21-15-17-16-10-19(15)13-6-7-13/h3-5,8,10,13H,6-7,9H2,1-2H3

> <PUBCHEM_IUPAC_INCHIKEY>
HMOVJFSVZMQEBB-UHFFFAOYSA-N

> <PUBCHEM_XLOGP3_AA>
1.7

> <PUBCHEM_EXACT_MASS>
302.120132

> <PUBCHEM_MOLECULAR_FORMULA>
C15H18N4OS

> <PUBCHEM_MOLECULAR_WEIGHT>
302.39462

> <PUBCHEM_OPENEYE_CAN_SMILES>
CN(C)C(=O)C1=CC(=CC=C1)CSC2=NN=CN2C3CC3

> <PUBCHEM_OPENEYE_ISO_SMILES>
CN(C)C(=O)C1=CC(=CC=C1)CSC2=NN=CN2C3CC3

> <PUBCHEM_CACTVS_TPSA>
76.3

> <PUBCHEM_MONOISOTOPIC_WEIGHT>
302.120132

> <PUBCHEM_TOTAL_CHARGE>
0

> <PUBCHEM_HEAVY_ATOM_COUNT>
21

> <PUBCHEM_ATOM_DEF_STEREO_COUNT>
0

> <PUBCHEM_ATOM_UDEF_STEREO_COUNT>
0

> <PUBCHEM_BOND_DEF_STEREO_COUNT>
0

> <PUBCHEM_BOND_UDEF_STEREO_COUNT>
0

> <PUBCHEM_ISOTOPIC_ATOM_COUNT>
0

> <PUBCHEM_COMPONENT_COUNT>
1

> <PUBCHEM_CACTVS_TAUTO_COUNT>
1

> <PUBCHEM_COORDINATE_TYPE>
1
5
255

> <PUBCHEM_BONDANNOTATIONS>
13  14  8
13  16  8
14  15  8
15  17  8
16  18  8
17  18  8
3  10  8
3  11  8
4  10  8
4  5  8
5  11  8

$$$$

