56928171
  -OEChem-07051213152D

105109  0     1  0  0  0  0  0999 V2000
    4.0881   -2.0289    0.0000 Cl  0  0  0  0  0  0  0  0  0  0  0  0
    9.2976    1.2534    0.0000 O   0  0  0  0  0  0  0  0  0  0  0  0
    8.5900   -1.1859    0.0000 O   0  0  0  0  0  0  0  0  0  0  0  0
    8.8311    3.3781    0.0000 O   0  0  0  0  0  0  0  0  0  0  0  0
    6.8403    5.3440    0.0000 O   0  0  0  0  0  0  0  0  0  0  0  0
    5.6050    5.2476    0.0000 O   0  0  0  0  0  0  0  0  0  0  0  0
    7.1987   -1.9792    0.0000 O   0  0  0  0  0  0  0  0  0  0  0  0
    4.5106   -2.7715    0.0000 O   0  0  0  0  0  0  0  0  0  0  0  0
    9.6972    4.8781    0.0000 O   0  0  0  0  0  0  0  0  0  0  0  0
   10.0899   -0.3199    0.0000 O   0  0  0  0  0  0  0  0  0  0  0  0
    7.1561   -2.7303    0.0000 O   0  0  0  0  0  0  0  0  0  0  0  0
    6.8089   -4.6998    0.0000 O   0  0  0  0  0  0  0  0  0  0  0  0
    4.9295   -5.3839    0.0000 O   0  0  0  0  0  0  0  0  0  0  0  0
    3.2237   -5.0832    0.0000 O   0  0  0  0  0  0  0  0  0  0  0  0
    2.9659   -1.6533    0.0000 O   0  0  0  0  0  0  0  0  0  0  0  0
    7.9651    4.8781    0.0000 N   0  0  0  0  0  0  0  0  0  0  0  0
    5.6240   -1.4447    0.0000 N   0  0  0  0  0  0  0  0  0  0  0  0
    8.5900    0.5462    0.0000 C   0  0  2  0  0  0  0  0  0  0  0  0
    8.3311    1.5121    0.0000 C   0  0  2  0  0  0  0  0  0  0  0  0
    7.4651    2.0121    0.0000 C   0  0  1  0  0  0  0  0  0  0  0  0
    8.0900   -0.3199    0.0000 C   0  0  2  0  0  0  0  0  0  0  0  0
    7.9651    2.8781    0.0000 C   0  0  2  0  0  0  0  0  0  0  0  0
    9.3832   -0.0627    0.0000 C   0  0  0  0  0  0  0  0  0  0  0  0
    6.4992    1.7533    0.0000 C   0  0  0  0  0  0  0  0  0  0  0  0
    7.0991    3.3781    0.0000 C   0  0  0  0  0  0  0  0  0  0  0  0
    7.0900   -0.3199    0.0000 C   0  0  0  0  0  0  0  0  0  0  0  0
    7.0991    4.3781    0.0000 C   0  0  1  0  0  0  0  0  0  0  0  0
    6.5900   -1.1859    0.0000 C   0  0  0  0  0  0  0  0  0  0  0  0
    6.0991    4.3781    0.0000 C   0  0  1  0  0  0  0  0  0  0  0  0
    8.8311    4.3781    0.0000 C   0  0  0  0  0  0  0  0  0  0  0  0
    9.5900   -1.1859    0.0000 C   0  0  0  0  0  0  0  0  0  0  0  0
    5.4504   -2.4295    0.0000 C   0  0  1  0  0  0  0  0  0  0  0  0
    6.2165   -3.0723    0.0000 C   0  0  1  0  0  0  0  0  0  0  0  0
   10.0899   -2.0519    0.0000 C   0  0  0  0  0  0  0  0  0  0  0  0
    5.6240    3.4543    0.0000 C   0  0  0  0  0  0  0  0  0  0  0  0
    6.0428   -4.0571    0.0000 C   0  0  2  0  0  0  0  0  0  0  0  0
    5.3652   -0.4788    0.0000 C   0  0  0  0  0  0  0  0  0  0  0  0
    5.1031   -4.3991    0.0000 C   0  0  1  0  0  0  0  0  0  0  0  0
    4.3370   -3.7563    0.0000 C   0  0  1  0  0  0  0  0  0  0  0  0
   11.0899   -2.0519    0.0000 C   0  0  0  0  0  0  0  0  0  0  0  0
    9.5900   -2.9179    0.0000 C   0  0  0  0  0  0  0  0  0  0  0  0
    4.6581    3.1955    0.0000 C   0  0  0  0  0  0  0  0  0  0  0  0
    4.3993   -0.2200    0.0000 C   0  0  0  0  0  0  0  0  0  0  0  0
    4.6051    5.2544    0.0000 C   0  0  0  0  0  0  0  0  0  0  0  0
    3.3973   -4.0983    0.0000 C   0  0  0  0  0  0  0  0  0  0  0  0
    4.6553   -1.2053    0.0000 C   0  0  0  0  0  0  0  0  0  0  0  0
    4.1405    0.7460    0.0000 C   0  0  0  0  0  0  0  0  0  0  0  0
    4.3993    2.2295    0.0000 C   0  0  0  0  0  0  0  0  0  0  0  0
    3.6730   -0.9462    0.0000 C   0  0  0  0  0  0  0  0  0  0  0  0
    3.1745    1.0048    0.0000 C   0  0  0  0  0  0  0  0  0  0  0  0
    3.4139    0.0360    0.0000 C   0  0  0  0  0  0  0  0  0  0  0  0
    3.4334    1.9707    0.0000 C   0  0  0  0  0  0  0  0  0  0  0  0
    2.7262    2.6778    0.0000 C   0  0  0  0  0  0  0  0  0  0  0  0
    2.0000   -1.3945    0.0000 C   0  0  0  0  0  0  0  0  0  0  0  0
    7.6568    0.9947    0.0000 H   0  0  0  0  0  0  0  0  0  0  0  0
    7.0877    2.5040    0.0000 H   0  0  0  0  0  0  0  0  0  0  0  0
    7.7800   -0.8568    0.0000 H   0  0  0  0  0  0  0  0  0  0  0  0
    8.7012    2.4531    0.0000 H   0  0  0  0  0  0  0  0  0  0  0  0
    9.0057   -0.5545    0.0000 H   0  0  0  0  0  0  0  0  0  0  0  0
    9.8751   -0.4402    0.0000 H   0  0  0  0  0  0  0  0  0  0  0  0
    9.7607    0.4291    0.0000 H   0  0  0  0  0  0  0  0  0  0  0  0
    6.3387    2.3522    0.0000 H   0  0  0  0  0  0  0  0  0  0  0  0
    5.9003    1.5928    0.0000 H   0  0  0  0  0  0  0  0  0  0  0  0
    6.6596    1.1544    0.0000 H   0  0  0  0  0  0  0  0  0  0  0  0
    6.4885    3.4858    0.0000 H   0  0  0  0  0  0  0  0  0  0  0  0
    6.8870    2.7955    0.0000 H   0  0  0  0  0  0  0  0  0  0  0  0
    7.1976    0.2907    0.0000 H   0  0  0  0  0  0  0  0  0  0  0  0
    6.5073   -0.1078    0.0000 H   0  0  0  0  0  0  0  0  0  0  0  0
    5.4792    4.3652    0.0000 H   0  0  0  0  0  0  0  0  0  0  0  0
    7.9651    5.4981    0.0000 H   0  0  0  0  0  0  0  0  0  0  0  0
    6.2491   -2.1388    0.0000 H   0  0  0  0  0  0  0  0  0  0  0  0
    7.2787    5.7825    0.0000 H   0  0  0  0  0  0  0  0  0  0  0  0
    6.3242   -2.4617    0.0000 H   0  0  0  0  0  0  0  0  0  0  0  0
   10.4000   -1.5150    0.0000 H   0  0  0  0  0  0  0  0  0  0  0  0
    5.9922    2.9555    0.0000 H   0  0  0  0  0  0  0  0  0  0  0  0
    5.9352   -4.6677    0.0000 H   0  0  0  0  0  0  0  0  0  0  0  0
    5.5781   -4.7976    0.0000 H   0  0  0  0  0  0  0  0  0  0  0  0
    3.8621   -3.3578    0.0000 H   0  0  0  0  0  0  0  0  0  0  0  0
    9.0530   -2.6079    0.0000 H   0  0  0  0  0  0  0  0  0  0  0  0
    9.2800   -3.4549    0.0000 H   0  0  0  0  0  0  0  0  0  0  0  0
   10.1269   -3.2279    0.0000 H   0  0  0  0  0  0  0  0  0  0  0  0
   11.0899   -2.6719    0.0000 H   0  0  0  0  0  0  0  0  0  0  0  0
   11.7099   -2.0519    0.0000 H   0  0  0  0  0  0  0  0  0  0  0  0
   11.0899   -1.4319    0.0000 H   0  0  0  0  0  0  0  0  0  0  0  0
    4.2197    3.6339    0.0000 H   0  0  0  0  0  0  0  0  0  0  0  0
    3.9609   -0.6584    0.0000 H   0  0  0  0  0  0  0  0  0  0  0  0
    3.2897   -3.4878    0.0000 H   0  0  0  0  0  0  0  0  0  0  0  0
    2.7773   -4.0983    0.0000 H   0  0  0  0  0  0  0  0  0  0  0  0
    4.6093    5.8744    0.0000 H   0  0  0  0  0  0  0  0  0  0  0  0
    3.9851    5.2587    0.0000 H   0  0  0  0  0  0  0  0  0  0  0  0
    4.6008    4.6345    0.0000 H   0  0  0  0  0  0  0  0  0  0  0  0
    7.6311   -3.1288    0.0000 H   0  0  0  0  0  0  0  0  0  0  0  0
    6.7012   -5.3104    0.0000 H   0  0  0  0  0  0  0  0  0  0  0  0
    5.4044   -5.7825    0.0000 H   0  0  0  0  0  0  0  0  0  0  0  0
    4.8377    1.7911    0.0000 H   0  0  0  0  0  0  0  0  0  0  0  0
    2.5757    1.1653    0.0000 H   0  0  0  0  0  0  0  0  0  0  0  0
    3.0141    0.4059    0.0000 H   0  0  0  0  0  0  0  0  0  0  0  0
    2.8163    0.2011    0.0000 H   0  0  0  0  0  0  0  0  0  0  0  0
    2.6411   -5.2952    0.0000 H   0  0  0  0  0  0  0  0  0  0  0  0
    3.1646    3.1162    0.0000 H   0  0  0  0  0  0  0  0  0  0  0  0
    2.2878    3.1162    0.0000 H   0  0  0  0  0  0  0  0  0  0  0  0
    2.2878    2.2394    0.0000 H   0  0  0  0  0  0  0  0  0  0  0  0
    2.1605   -0.7956    0.0000 H   0  0  0  0  0  0  0  0  0  0  0  0
    1.4011   -1.2340    0.0000 H   0  0  0  0  0  0  0  0  0  0  0  0
    1.8395   -1.9934    0.0000 H   0  0  0  0  0  0  0  0  0  0  0  0
  1 46  1  0  0  0  0
  2 18  1  0  0  0  0
  2 19  1  0  0  0  0
 21  3  1  1  0  0  0
  3 31  1  0  0  0  0
  4 22  1  0  0  0  0
  4 30  1  0  0  0  0
 27  5  1  1  0  0  0
  5 72  1  0  0  0  0
 29  6  1  1  0  0  0
  6 44  1  0  0  0  0
  7 28  2  0  0  0  0
  8 32  1  0  0  0  0
  8 39  1  0  0  0  0
  9 30  2  0  0  0  0
 10 31  2  0  0  0  0
 33 11  1  6  0  0  0
 11 92  1  0  0  0  0
 36 12  1  1  0  0  0
 12 93  1  0  0  0  0
 38 13  1  6  0  0  0
 13 94  1  0  0  0  0
 14 45  1  0  0  0  0
 14 99  1  0  0  0  0
 15 49  1  0  0  0  0
 15 54  1  0  0  0  0
 16 27  1  0  0  0  0
 16 30  1  0  0  0  0
 16 70  1  0  0  0  0
 17 28  1  0  0  0  0
 17 32  1  0  0  0  0
 17 37  1  0  0  0  0
 18 19  1  0  0  0  0
 18 21  1  0  0  0  0
 18 23  1  6  0  0  0
 19 20  1  0  0  0  0
 19 55  1  1  0  0  0
 20 22  1  0  0  0  0
 20 24  1  6  0  0  0
 20 56  1  0  0  0  0
 21 26  1  0  0  0  0
 21 57  1  0  0  0  0
 22 25  1  0  0  0  0
 22 58  1  1  0  0  0
 23 59  1  0  0  0  0
 23 60  1  0  0  0  0
 23 61  1  0  0  0  0
 24 62  1  0  0  0  0
 24 63  1  0  0  0  0
 24 64  1  0  0  0  0
 25 27  1  0  0  0  0
 25 65  1  0  0  0  0
 25 66  1  0  0  0  0
 26 28  1  0  0  0  0
 26 67  1  0  0  0  0
 26 68  1  0  0  0  0
 27 29  1  0  0  0  0
 29 35  1  0  0  0  0
 29 69  1  0  0  0  0
 31 34  1  0  0  0  0
 32 33  1  0  0  0  0
 32 71  1  6  0  0  0
 33 36  1  0  0  0  0
 33 73  1  0  0  0  0
 34 40  1  0  0  0  0
 34 41  1  0  0  0  0
 34 74  1  0  0  0  0
 35 42  2  0  0  0  0
 35 75  1  0  0  0  0
 36 38  1  0  0  0  0
 36 76  1  0  0  0  0
 37 43  1  0  0  0  0
 37 46  2  0  0  0  0
 38 39  1  0  0  0  0
 38 77  1  0  0  0  0
 39 45  1  1  0  0  0
 39 78  1  0  0  0  0
 40 82  1  0  0  0  0
 40 83  1  0  0  0  0
 40 84  1  0  0  0  0
 41 79  1  0  0  0  0
 41 80  1  0  0  0  0
 41 81  1  0  0  0  0
 42 48  1  0  0  0  0
 42 85  1  0  0  0  0
 43 47  2  0  0  0  0
 43 86  1  0  0  0  0
 44 89  1  0  0  0  0
 44 90  1  0  0  0  0
 44 91  1  0  0  0  0
 45 87  1  0  0  0  0
 45 88  1  0  0  0  0
 46 49  1  0  0  0  0
 47 50  1  0  0  0  0
 47 51  1  0  0  0  0
 48 52  2  0  0  0  0
 48 95  1  0  0  0  0
 49 51  2  0  0  0  0
 50 52  1  0  0  0  0
 50 96  1  0  0  0  0
 50 97  1  0  0  0  0
 51 98  1  0  0  0  0
 52 53  1  0  0  0  0
 53100  1  0  0  0  0
 53101  1  0  0  0  0
 53102  1  0  0  0  0
 54103  1  0  0  0  0
 54104  1  0  0  0  0
 54105  1  0  0  0  0
M  END
> <PUBCHEM_COMPOUND_CID>
56928171

> <PUBCHEM_COMPOUND_CANONICALIZED>
1

> <PUBCHEM_CACTVS_COMPLEXITY>
1430

> <PUBCHEM_CACTVS_HBOND_ACCEPTOR>
14

> <PUBCHEM_CACTVS_HBOND_DONOR>
6

> <PUBCHEM_CACTVS_ROTATABLE_BOND>
7

> <PUBCHEM_CACTVS_SUBSKEYS>
AAADcfB/PAAEAAAAAAAAAAAAEgAAAAAAAAA8SIAAAAAAAAABAAAAHgIQCAAADV7hmCYyzoPABgCIAiXSWACCCAAhJkAIiAEOb4kPNjfFs5vPcChn9hnb6Af6/P/OBAABQgAACBAIAAKEAAAQIAAAAAAAAA==

> <PUBCHEM_IUPAC_INCHI>
InChI=1S/C37H51ClN2O14/c1-17(2)34(46)53-26-14-27(42)40(33-31(45)30(44)29(43)24(16-41)51-33)21-12-20(13-22(49-6)28(21)38)11-18(3)9-8-10-25(50-7)37(48)15-23(52-35(47)39-37)19(4)32-36(26,5)54-32/h8-10,12-13,17,19,23-26,29-33,41,43-45,48H,11,14-16H2,1-7H3,(H,39,47)/b10-8+,18-9+/t19-,23+,24-,25-,26+,29-,30+,31-,32+,33-,36+,37+/m1/s1

> <PUBCHEM_IUPAC_INCHIKEY>
ULDWTSQHEYEWRZ-CBEYZXOKSA-N

> <PUBCHEM_XLOGP3>
1

> <PUBCHEM_EXACT_MASS>
782.302882

> <PUBCHEM_MOLECULAR_FORMULA>
C37H51ClN2O14

> <PUBCHEM_MOLECULAR_WEIGHT>
783.25884

> <PUBCHEM_OPENEYE_CAN_SMILES>
CC1C2CC(C(C=CC=C(CC3=CC(=C(C(=C3)OC)Cl)N(C(=O)CC(C4(C1O4)C)OC(=O)C(C)C)C5C(C(C(C(O5)CO)O)O)O)C)OC)(NC(=O)O2)O

> <PUBCHEM_OPENEYE_ISO_SMILES>
C[C@@H]1[C@@H]2C[C@]([C@@H](/C=C/C=C(/CC3=CC(=C(C(=C3)OC)Cl)N(C(=O)C[C@@H]([C@]4([C@H]1O4)C)OC(=O)C(C)C)[C@H]5[C@@H]([C@H]([C@@H]([C@H](O5)CO)O)O)O)\C)OC)(NC(=O)O2)O

> <PUBCHEM_CACTVS_TPSA>
226

> <PUBCHEM_MONOISOTOPIC_WEIGHT>
782.302882

> <PUBCHEM_TOTAL_CHARGE>
0

> <PUBCHEM_HEAVY_ATOM_COUNT>
54

> <PUBCHEM_ATOM_DEF_STEREO_COUNT>
12

> <PUBCHEM_ATOM_UDEF_STEREO_COUNT>
0

> <PUBCHEM_BOND_DEF_STEREO_COUNT>
2

> <PUBCHEM_BOND_UDEF_STEREO_COUNT>
0

> <PUBCHEM_ISOTOPIC_ATOM_COUNT>
0

> <PUBCHEM_COMPONENT_COUNT>
1

> <PUBCHEM_CACTVS_TAUTO_COUNT>
4

> <PUBCHEM_COORDINATE_TYPE>
1
5
255

> <PUBCHEM_BONDANNOTATIONS>
33  11  6
36  12  5
38  13  6
18  23  6
19  55  5
20  24  6
22  58  5
21  3  5
32  71  6
37  43  8
37  46  8
39  45  5
43  47  8
46  49  8
47  51  8
49  51  8
27  5  5
29  6  5

$$$$

