10752
  -OEChem-06261204552D

 20 21  0     0  0  0  0  0  0999 V2000
    4.5981    1.6377    0.0000 O   0  0  0  0  0  0  0  0  0  0  0  0
    2.8660    1.6377    0.0000 O   0  0  0  0  0  0  0  0  0  0  0  0
    2.8660   -1.3623    0.0000 O   0  0  0  0  0  0  0  0  0  0  0  0
    2.0000    0.1377    0.0000 O   0  0  0  0  0  0  0  0  0  0  0  0
    5.4641    0.1377    0.0000 C   0  0  0  0  0  0  0  0  0  0  0  0
    5.4641    1.1377    0.0000 C   0  0  0  0  0  0  0  0  0  0  0  0
    4.5981   -0.3623    0.0000 C   0  0  0  0  0  0  0  0  0  0  0  0
    3.7320    0.1377    0.0000 C   0  0  0  0  0  0  0  0  0  0  0  0
    6.3580   -0.3970    0.0000 C   0  0  0  0  0  0  0  0  0  0  0  0
    6.3580    1.6723    0.0000 C   0  0  0  0  0  0  0  0  0  0  0  0
    3.7320    1.1377    0.0000 C   0  0  0  0  0  0  0  0  0  0  0  0
    7.2641    0.1169    0.0000 C   0  0  0  0  0  0  0  0  0  0  0  0
    7.2641    1.1585    0.0000 C   0  0  0  0  0  0  0  0  0  0  0  0
    2.8660   -0.3623    0.0000 C   0  0  0  0  0  0  0  0  0  0  0  0
    4.5981   -0.9823    0.0000 H   0  0  0  0  0  0  0  0  0  0  0  0
    6.3509   -1.0170    0.0000 H   0  0  0  0  0  0  0  0  0  0  0  0
    6.3509    2.2923    0.0000 H   0  0  0  0  0  0  0  0  0  0  0  0
    7.7998   -0.1952    0.0000 H   0  0  0  0  0  0  0  0  0  0  0  0
    7.7998    1.4706    0.0000 H   0  0  0  0  0  0  0  0  0  0  0  0
    2.3291   -1.6723    0.0000 H   0  0  0  0  0  0  0  0  0  0  0  0
  1  6  1  0  0  0  0
  1 11  1  0  0  0  0
  2 11  2  0  0  0  0
  3 14  1  0  0  0  0
  3 20  1  0  0  0  0
  4 14  2  0  0  0  0
  5  6  1  0  0  0  0
  5  7  1  0  0  0  0
  5  9  2  0  0  0  0
  6 10  2  0  0  0  0
  7  8  2  0  0  0  0
  7 15  1  0  0  0  0
  8 11  1  0  0  0  0
  8 14  1  0  0  0  0
  9 12  1  0  0  0  0
  9 16  1  0  0  0  0
 10 13  1  0  0  0  0
 10 17  1  0  0  0  0
 12 13  2  0  0  0  0
 12 18  1  0  0  0  0
 13 19  1  0  0  0  0
M  END
> <PUBCHEM_COMPOUND_CID>
10752

> <PUBCHEM_COMPOUND_CANONICALIZED>
1

> <PUBCHEM_CACTVS_COMPLEXITY>
305

> <PUBCHEM_CACTVS_HBOND_ACCEPTOR>
4

> <PUBCHEM_CACTVS_HBOND_DONOR>
1

> <PUBCHEM_CACTVS_ROTATABLE_BOND>
1

> <PUBCHEM_CACTVS_SUBSKEYS>
AAADcYBwOAAAAAAAAAAAAAAAAAAAAAAAAAAwQAAAAAAAAACBAAAAGgAACAAADASAmAAwDoAABgCIAiDSCAACCAAgIAAIiAEGCMgMJiaMMRqCeiCl4BEIuYeAwCAOAAAAAAAIAAAAAAAAABAAAAAAAAAAAA==

> <PUBCHEM_IUPAC_OPENEYE_NAME>
2-oxochromene-3-carboxylic acid

> <PUBCHEM_IUPAC_CAS_NAME>
2-oxo-1-benzopyran-3-carboxylic acid

> <PUBCHEM_IUPAC_NAME>
2-oxochromene-3-carboxylic acid

> <PUBCHEM_IUPAC_SYSTEMATIC_NAME>
2-oxidanylidenechromene-3-carboxylic acid

> <PUBCHEM_IUPAC_TRADITIONAL_NAME>
2-ketochromene-3-carboxylic acid

> <PUBCHEM_IUPAC_INCHI>
InChI=1S/C10H6O4/c11-9(12)7-5-6-3-1-2-4-8(6)14-10(7)13/h1-5H,(H,11,12)

> <PUBCHEM_IUPAC_INCHIKEY>
ACMLKANOGIVEPB-UHFFFAOYSA-N

> <PUBCHEM_XLOGP3_AA>
2.2

> <PUBCHEM_EXACT_MASS>
190.026609

> <PUBCHEM_MOLECULAR_FORMULA>
C10H6O4

> <PUBCHEM_MOLECULAR_WEIGHT>
190.15224

> <PUBCHEM_OPENEYE_CAN_SMILES>
C1=CC=C2C(=C1)C=C(C(=O)O2)C(=O)O

> <PUBCHEM_OPENEYE_ISO_SMILES>
C1=CC=C2C(=C1)C=C(C(=O)O2)C(=O)O

> <PUBCHEM_CACTVS_TPSA>
63.6

> <PUBCHEM_MONOISOTOPIC_WEIGHT>
190.026609

> <PUBCHEM_TOTAL_CHARGE>
0

> <PUBCHEM_HEAVY_ATOM_COUNT>
14

> <PUBCHEM_ATOM_DEF_STEREO_COUNT>
0

> <PUBCHEM_ATOM_UDEF_STEREO_COUNT>
0

> <PUBCHEM_BOND_DEF_STEREO_COUNT>
0

> <PUBCHEM_BOND_UDEF_STEREO_COUNT>
0

> <PUBCHEM_ISOTOPIC_ATOM_COUNT>
0

> <PUBCHEM_COMPONENT_COUNT>
1

> <PUBCHEM_CACTVS_TAUTO_COUNT>
1

> <PUBCHEM_COORDINATE_TYPE>
1
5
255

> <PUBCHEM_BONDANNOTATIONS>
1  11  8
1  6  8
10  13  8
12  13  8
5  6  8
5  7  8
5  9  8
6  10  8
7  8  8
8  11  8
9  12  8

$$$$

