3003767
  -OEChem-07051213063D

 36 38  0     0  0  0  0  0  0999 V2000
    5.9332   -0.6974    0.0077 Cl  0  0  0  0  0  0  0  0  0  0  0  0
   -0.0273    1.8664   -1.1977 N   0  0  0  0  0  0  0  0  0  0  0  0
   -1.0106   -3.5228   -0.0246 N   0  0  0  0  0  0  0  0  0  0  0  0
   -0.8425   -0.0176    0.0070 C   0  0  0  0  0  0  0  0  0  0  0  0
   -2.3183   -0.1821    0.0078 C   0  0  0  0  0  0  0  0  0  0  0  0
   -0.0173   -1.1148   -0.0015 C   0  0  0  0  0  0  0  0  0  0  0  0
   -0.2509    1.3448    0.0145 C   0  0  0  0  0  0  0  0  0  0  0  0
    1.4336   -1.0125    0.0006 C   0  0  0  0  0  0  0  0  0  0  0  0
   -2.9828   -0.2486   -1.1999 C   0  0  0  0  0  0  0  0  0  0  0  0
   -2.9798   -0.2640    1.2160 C   0  0  0  0  0  0  0  0  0  0  0  0
    2.1303   -0.9525   -1.2061 C   0  0  0  0  0  0  0  0  0  0  0  0
    2.1283   -0.9752    1.2097 C   0  0  0  0  0  0  0  0  0  0  0  0
    0.0138    1.9436    1.2183 C   0  0  0  0  0  0  0  0  0  0  0  0
   -4.3690   -0.4037   -1.1993 C   0  0  0  0  0  0  0  0  0  0  0  0
   -4.3661   -0.4192    1.2167 C   0  0  0  0  0  0  0  0  0  0  0  0
   -5.0606   -0.4890    0.0090 C   0  0  0  0  0  0  0  0  0  0  0  0
    3.5218   -0.8552   -1.2040 C   0  0  0  0  0  0  0  0  0  0  0  0
    3.5198   -0.8777    1.2118 C   0  0  0  0  0  0  0  0  0  0  0  0
    0.5686    3.2178    1.1753 C   0  0  0  0  0  0  0  0  0  0  0  0
    4.2166   -0.8178    0.0050 C   0  0  0  0  0  0  0  0  0  0  0  0
    0.5127    3.1057   -1.1997 C   0  0  0  0  0  0  0  0  0  0  0  0
   -0.5795   -2.4452   -0.0140 C   0  0  0  0  0  0  0  0  0  0  0  0
    0.8259    3.8171   -0.0527 C   0  0  0  0  0  0  0  0  0  0  0  0
   -2.4542   -0.1834   -2.1469 H   0  0  0  0  0  0  0  0  0  0  0  0
   -2.4496   -0.2123    2.1628 H   0  0  0  0  0  0  0  0  0  0  0  0
    1.6039   -0.9801   -2.1573 H   0  0  0  0  0  0  0  0  0  0  0  0
    1.6005   -1.0218    2.1593 H   0  0  0  0  0  0  0  0  0  0  0  0
   -0.1901    1.4668    2.1705 H   0  0  0  0  0  0  0  0  0  0  0  0
   -4.9099   -0.4582   -2.1396 H   0  0  0  0  0  0  0  0  0  0  0  0
   -4.9046   -0.4861    2.1575 H   0  0  0  0  0  0  0  0  0  0  0  0
   -6.1400   -0.6099    0.0095 H   0  0  0  0  0  0  0  0  0  0  0  0
    4.0516   -0.8089   -2.1520 H   0  0  0  0  0  0  0  0  0  0  0  0
    4.0479   -0.8494    2.1615 H   0  0  0  0  0  0  0  0  0  0  0  0
    0.8006    3.7426    2.0972 H   0  0  0  0  0  0  0  0  0  0  0  0
    0.6945    3.5283   -2.1824 H   0  0  0  0  0  0  0  0  0  0  0  0
    1.2584    4.8093   -0.1101 H   0  0  0  0  0  0  0  0  0  0  0  0
  1 20  1  0  0  0  0
  2  7  1  0  0  0  0
  2 21  2  0  0  0  0
  3 22  3  0  0  0  0
  4  5  1  0  0  0  0
  4  6  2  0  0  0  0
  4  7  1  0  0  0  0
  5  9  2  0  0  0  0
  5 10  1  0  0  0  0
  6  8  1  0  0  0  0
  6 22  1  0  0  0  0
  7 13  2  0  0  0  0
  8 11  2  0  0  0  0
  8 12  1  0  0  0  0
  9 14  1  0  0  0  0
  9 24  1  0  0  0  0
 10 15  2  0  0  0  0
 10 25  1  0  0  0  0
 11 17  1  0  0  0  0
 11 26  1  0  0  0  0
 12 18  2  0  0  0  0
 12 27  1  0  0  0  0
 13 19  1  0  0  0  0
 13 28  1  0  0  0  0
 14 16  2  0  0  0  0
 14 29  1  0  0  0  0
 15 16  1  0  0  0  0
 15 30  1  0  0  0  0
 16 31  1  0  0  0  0
 17 20  2  0  0  0  0
 17 32  1  0  0  0  0
 18 20  1  0  0  0  0
 18 33  1  0  0  0  0
 19 23  2  0  0  0  0
 19 34  1  0  0  0  0
 21 23  1  0  0  0  0
 21 35  1  0  0  0  0
 23 36  1  0  0  0  0
M  END
> <PUBCHEM_COMPOUND_CID>
3003767

> <PUBCHEM_CONFORMER_RMSD>
0.6

> <PUBCHEM_CONFORMER_DIVERSEORDER>
1
3
2

> <PUBCHEM_MMFF94_PARTIAL_CHARGES>
36
1 -0.18
10 -0.15
11 -0.15
12 -0.15
13 -0.15
14 -0.15
15 -0.15
16 -0.15
17 -0.15
18 -0.15
19 -0.15
2 -0.62
20 0.18
21 0.16
22 0.49
23 -0.15
24 0.15
25 0.15
26 0.15
27 0.15
28 0.15
29 0.15
3 -0.56
30 0.15
31 0.15
32 0.15
33 0.15
34 0.15
35 0.15
36 0.15
4 -0.06
5 0.03
6 0.04
7 0.34
8 0.03
9 -0.15

> <PUBCHEM_EFFECTIVE_ROTOR_COUNT>
3

> <PUBCHEM_PHARMACOPHORE_FEATURES>
5
1 2 acceptor
1 3 acceptor
6 2 7 13 19 21 23 rings
6 5 9 10 14 15 16 rings
6 8 11 12 17 18 20 rings

> <PUBCHEM_HEAVY_ATOM_COUNT>
23

> <PUBCHEM_ATOM_DEF_STEREO_COUNT>
0

> <PUBCHEM_ATOM_UDEF_STEREO_COUNT>
0

> <PUBCHEM_BOND_DEF_STEREO_COUNT>
1

> <PUBCHEM_BOND_UDEF_STEREO_COUNT>
0

> <PUBCHEM_ISOTOPIC_ATOM_COUNT>
0

> <PUBCHEM_COMPONENT_COUNT>
1

> <PUBCHEM_CACTVS_TAUTO_COUNT>
1

> <PUBCHEM_CONFORMER_ID>
002DD57700000001

> <PUBCHEM_MMFF94_ENERGY>
77.9849

> <PUBCHEM_FEATURE_SELFOVERLAP>
25.371

> <PUBCHEM_SHAPE_FINGERPRINT>
10006869 2 17686613954789563793
104564 63 18267020750839586809
10930396 42 18123786147672167688
1100329 8 18339357453163780154
11578080 2 17414745105805875558
11680986 33 18121506756250132675
12035758 1 18339368465406861723
12236239 1 17632577175847422378
12553582 1 18410582794346016978
12788726 201 18200035169955190202
13132413 78 18262510520030839049
13140716 1 18267017259532458875
13149001 5 18268707225525017767
13257819 101 4750599881117957177
133893 2 17909857352003676148
13911987 19 18342178877320640710
13965767 371 16595015473649074377
14022347 108 18338503227371635498
14170010 4 18336834100370213193
14181834 199 18264779757116106685
14347332 77 18120653789300507742
14787075 74 17703783687376063018
14790565 3 18410283739873368240
14955137 171 18336248086099651067
1601671 61 18338517572825823457
16945 1 18408604760032118531
17357779 13 18262816162477177701
17492 54 18271227336541221860
17980427 23 17676485008449592885
1813 80 18334005116432537413
18222031 100 18334305265942933547
18785283 64 18125991681697394609
200 152 17346316033399761674
20028762 73 18114742604347320879
20344682 1 17749110015181196334
20510252 161 18265335191250981482
20600515 1 18335404764928206070
20642791 239 17985802879746268580
20691752 17 17344364258420971935
20905425 154 17471847009575951646
21029758 27 18342737424900655129
21041028 32 18408595977177816025
22182313 1 18126313945535910476
23175994 123 18343297093862935711
23402539 116 18334016133319200158
23419403 2 18196683785093739644
23557571 272 18261954158788799910
23558518 356 17979642225790931515
266924 87 18050574233174710502
283562 15 18266458900466170362
3178227 256 18341036451181626155
350125 39 18051685543452240203
469060 322 18267572675638385744
7495541 125 17845923040656959627
81228 2 17979064208880901473

> <PUBCHEM_SHAPE_MULTIPOLES>
465.24
8.67
3.52
1.37
1.56
3.41
0
-4.82
0
0.79
-0.01
-0.17
0.28
-0.01

> <PUBCHEM_SHAPE_SELFOVERLAP>
1015.318

> <PUBCHEM_SHAPE_VOLUME>
250.9

> <PUBCHEM_COORDINATE_TYPE>
2
5
10

$$$$

