115300
  -OEChem-07051212583D

 35 36  0     0  0  0  0  0  0999 V2000
   -3.1892    0.9737    0.0371 O   0  0  0  0  0  0  0  0  0  0  0  0
   -1.4664    3.0919    0.1809 O   0  0  0  0  0  0  0  0  0  0  0  0
    3.2463    1.0443    0.1773 O   0  0  0  0  0  0  0  0  0  0  0  0
    1.6597    3.3896   -0.7728 O   0  0  0  0  0  0  0  0  0  0  0  0
   -1.3494   -0.5565   -0.0032 C   0  0  0  0  0  0  0  0  0  0  0  0
   -2.3366   -1.6833   -0.0807 C   0  0  0  0  0  0  0  0  0  0  0  0
    0.0337   -0.7995    0.0141 C   0  0  0  0  0  0  0  0  0  0  0  0
    0.9277    0.2950    0.0889 C   0  0  0  0  0  0  0  0  0  0  0  0
   -1.8439    0.7469    0.0524 C   0  0  0  0  0  0  0  0  0  0  0  0
    0.4124    1.6003    0.1442 C   0  0  0  0  0  0  0  0  0  0  0  0
    0.5491   -2.1048   -0.0411 C   0  0  0  0  0  0  0  0  0  0  0  0
   -3.1894   -1.6207   -1.3581 C   0  0  0  0  0  0  0  0  0  0  0  0
   -3.2430   -1.7471    1.1591 C   0  0  0  0  0  0  0  0  0  0  0  0
   -0.9647    1.8232    0.1259 C   0  0  0  0  0  0  0  0  0  0  0  0
    2.3109    0.0519    0.1063 C   0  0  0  0  0  0  0  0  0  0  0  0
    1.9261   -2.3278   -0.0227 C   0  0  0  0  0  0  0  0  0  0  0  0
    2.8054   -1.2514    0.0507 C   0  0  0  0  0  0  0  0  0  0  0  0
    2.4571   -3.7204   -0.0819 C   0  0  0  0  0  0  0  0  0  0  0  0
    1.2543    2.7947    0.2236 C   0  0  0  0  0  0  0  0  0  0  0  0
   -1.8695   -2.6644   -0.1198 H   0  0  0  0  0  0  0  0  0  0  0  0
   -0.0623   -2.9958   -0.1018 H   0  0  0  0  0  0  0  0  0  0  0  0
   -3.7781   -2.5401   -1.4597 H   0  0  0  0  0  0  0  0  0  0  0  0
   -2.5544   -1.5376   -2.2473 H   0  0  0  0  0  0  0  0  0  0  0  0
   -3.9014   -0.7916   -1.3738 H   0  0  0  0  0  0  0  0  0  0  0  0
   -3.8321   -2.6717    1.1440 H   0  0  0  0  0  0  0  0  0  0  0  0
   -3.9582   -0.9234    1.2265 H   0  0  0  0  0  0  0  0  0  0  0  0
   -2.6466   -1.7530    2.0785 H   0  0  0  0  0  0  0  0  0  0  0  0
    3.8778   -1.4322    0.0630 H   0  0  0  0  0  0  0  0  0  0  0  0
    3.5103   -3.7656    0.2154 H   0  0  0  0  0  0  0  0  0  0  0  0
    1.9022   -4.3748    0.5990 H   0  0  0  0  0  0  0  0  0  0  0  0
    2.3719   -4.1123   -1.1003 H   0  0  0  0  0  0  0  0  0  0  0  0
    1.5028    3.1344    1.2436 H   0  0  0  0  0  0  0  0  0  0  0  0
   -3.3406    1.9337    0.0828 H   0  0  0  0  0  0  0  0  0  0  0  0
   -0.7600    3.7556    0.2108 H   0  0  0  0  0  0  0  0  0  0  0  0
    4.1391    0.6594    0.1773 H   0  0  0  0  0  0  0  0  0  0  0  0
  1  9  1  0  0  0  0
  1 33  1  0  0  0  0
  2 14  1  0  0  0  0
  2 34  1  0  0  0  0
  3 15  1  0  0  0  0
  3 35  1  0  0  0  0
  4 19  2  0  0  0  0
  5  6  1  0  0  0  0
  5  7  1  0  0  0  0
  5  9  2  0  0  0  0
  6 12  1  0  0  0  0
  6 13  1  0  0  0  0
  6 20  1  0  0  0  0
  7  8  2  0  0  0  0
  7 11  1  0  0  0  0
  8 10  1  0  0  0  0
  8 15  1  0  0  0  0
  9 14  1  0  0  0  0
 10 14  2  0  0  0  0
 10 19  1  0  0  0  0
 11 16  2  0  0  0  0
 11 21  1  0  0  0  0
 12 22  1  0  0  0  0
 12 23  1  0  0  0  0
 12 24  1  0  0  0  0
 13 25  1  0  0  0  0
 13 26  1  0  0  0  0
 13 27  1  0  0  0  0
 15 17  2  0  0  0  0
 16 17  1  0  0  0  0
 16 18  1  0  0  0  0
 17 28  1  0  0  0  0
 18 29  1  0  0  0  0
 18 30  1  0  0  0  0
 18 31  1  0  0  0  0
 19 32  1  0  0  0  0
M  END
> <PUBCHEM_COMPOUND_CID>
115300

> <PUBCHEM_CONFORMER_RMSD>
0.6

> <PUBCHEM_CONFORMER_DIVERSEORDER>
1

> <PUBCHEM_MMFF94_PARTIAL_CHARGES>
21
1 -0.53
10 0.09
11 -0.15
14 0.08
15 0.08
16 -0.14
17 -0.15
18 0.14
19 0.42
2 -0.53
21 0.15
28 0.15
3 -0.53
32 0.06
33 0.45
34 0.45
35 0.45
4 -0.57
5 -0.14
6 0.14
9 0.08

> <PUBCHEM_EFFECTIVE_ROTOR_COUNT>
2

> <PUBCHEM_PHARMACOPHORE_FEATURES>
7
1 1 donor
1 2 donor
1 3 donor
1 4 acceptor
3 6 12 13 hydrophobe
6 5 7 8 9 10 14 rings
6 7 8 11 15 16 17 rings

> <PUBCHEM_HEAVY_ATOM_COUNT>
19

> <PUBCHEM_ATOM_DEF_STEREO_COUNT>
0

> <PUBCHEM_ATOM_UDEF_STEREO_COUNT>
0

> <PUBCHEM_BOND_DEF_STEREO_COUNT>
0

> <PUBCHEM_BOND_UDEF_STEREO_COUNT>
0

> <PUBCHEM_ISOTOPIC_ATOM_COUNT>
0

> <PUBCHEM_COMPONENT_COUNT>
1

> <PUBCHEM_CACTVS_TAUTO_COUNT>
417

> <PUBCHEM_CONFORMER_ID>
0001C26400000001

> <PUBCHEM_MMFF94_ENERGY>
74.5466

> <PUBCHEM_FEATURE_SELFOVERLAP>
35.552

> <PUBCHEM_SHAPE_FINGERPRINT>
10319926 262 17401796488896847410
10411042 1 18338515347743484259
10693767 8 17680711415088261070
10967382 1 18338236092968414208
11578080 2 17242202147994716203
11680986 33 18338236067441288153
12553582 1 18410008827601307075
13140716 1 18336825278011768745
14178342 30 18408612469493179592
14790565 3 17979051813684926121
15042514 8 17762895863642570219
15309172 13 17690273816433201257
16945 1 18338798896951281514
193761 8 18337954592222068680
19591789 44 17978780212895271650
20645477 70 18125452912536671231
20739085 24 17982711010051745009
21501502 16 18336550528747919947
23114952 82 18128556915223246861
23184049 29 18195532708172821634
2334 1 18122063104918168521
23388829 49 18262526879207451895
23402539 116 17685793701681815135
23419403 2 16685493069368868418
23559900 14 17541947933211954278
23598291 2 17896590679553532991
238 59 17330602706621513639
2748010 2 18336551632828678774
335352 9 17473262557697483462
34934 24 18266748050291047434
352729 6 17041759266653347008
54173680 148 17978787136182528082
7364860 26 18337671910369921912
7832392 63 18337107985480023409
81228 2 18194976359493924539
8809292 202 17762614388454784930
9709674 26 18192151718269987646

> <PUBCHEM_SHAPE_MULTIPOLES>
367.53
4.88
4.25
0.81
1.22
1.13
0.06
-2.5
0.02
-1.85
0.27
0.52
-0.23
-0.16

> <PUBCHEM_SHAPE_SELFOVERLAP>
803.667

> <PUBCHEM_SHAPE_VOLUME>
201.4

> <PUBCHEM_COORDINATE_TYPE>
2
5
10

$$$$

