60863
  -OEChem-07051213013D

 61 65  0     1  0  0  0  0  0999 V2000
   -5.5297    0.2597   -2.2783 O   0  0  0  0  0  0  0  0  0  0  0  0
   -7.2118    2.9612    1.7661 O   0  0  0  0  0  0  0  0  0  0  0  0
   -5.3407    3.3194    0.5328 O   0  0  0  0  0  0  0  0  0  0  0  0
   -7.8265   -2.5752   -0.7079 O   0  0  0  0  0  0  0  0  0  0  0  0
   -9.0401   -0.6921   -0.3484 O   0  0  0  0  0  0  0  0  0  0  0  0
    4.7112    2.2648    0.1852 O   0  0  0  0  0  0  0  0  0  0  0  0
   -5.1140    0.6543    0.0145 N   0  0  0  0  0  0  0  0  0  0  0  0
    0.5624   -1.0809   -0.4958 N   0  0  0  0  0  0  0  0  0  0  0  0
    8.3846    0.7658   -0.2497 N   0  0  0  0  0  0  0  0  0  0  0  0
    6.8697    2.5794   -0.4228 N   0  0  0  0  0  0  0  0  0  0  0  0
   -6.3999    1.1270    0.4799 C   0  0  1  0  0  0  0  0  0  0  0  0
   -3.9772    0.5321    0.9191 C   0  0  0  0  0  0  0  0  0  0  0  0
   -2.9116    0.0233    0.0092 C   0  0  0  0  0  0  0  0  0  0  0  0
   -3.4074   -0.1259   -1.2869 C   0  0  0  0  0  0  0  0  0  0  0  0
   -4.8182    0.2766   -1.2908 C   0  0  0  0  0  0  0  0  0  0  0  0
   -7.0080    0.2230    1.5591 C   0  0  0  0  0  0  0  0  0  0  0  0
   -1.5956   -0.2884    0.2929 C   0  0  0  0  0  0  0  0  0  0  0  0
   -0.7606   -0.7599   -0.7455 C   0  0  0  0  0  0  0  0  0  0  0  0
   -2.6319   -0.5826   -2.3347 C   0  0  0  0  0  0  0  0  0  0  0  0
   -7.2116   -1.2452    1.1640 C   0  0  0  0  0  0  0  0  0  0  0  0
   -6.2285    2.5680    0.9147 C   0  0  0  0  0  0  0  0  0  0  0  0
   -1.3022   -0.8989   -2.0527 C   0  0  0  0  0  0  0  0  0  0  0  0
    1.1825   -0.9654    0.8061 C   0  0  0  0  0  0  0  0  0  0  0  0
    2.6264   -1.3356    0.7443 C   0  0  0  0  0  0  0  0  0  0  0  0
    4.9770   -0.6491    0.4030 C   0  0  0  0  0  0  0  0  0  0  0  0
    5.3377   -2.0102    0.6063 C   0  0  0  0  0  0  0  0  0  0  0  0
    3.5879   -0.3565    0.4733 C   0  0  0  0  0  0  0  0  0  0  0  0
    6.0311    0.2883    0.1381 C   0  0  0  0  0  0  0  0  0  0  0  0
   -8.1220   -1.4351   -0.0301 C   0  0  0  0  0  0  0  0  0  0  0  0
    3.0130   -2.6486    0.9514 C   0  0  0  0  0  0  0  0  0  0  0  0
    7.3697   -0.1476    0.0496 C   0  0  0  0  0  0  0  0  0  0  0  0
    4.3605   -2.9825    0.8800 C   0  0  0  0  0  0  0  0  0  0  0  0
    6.6776   -2.4081    0.5329 C   0  0  0  0  0  0  0  0  0  0  0  0
    7.6819   -1.4908    0.2516 C   0  0  0  0  0  0  0  0  0  0  0  0
    5.8113    1.7755   -0.0361 C   0  0  0  0  0  0  0  0  0  0  0  0
    8.0616    2.0722   -0.4979 C   0  0  0  0  0  0  0  0  0  0  0  0
    9.1914    2.9880   -0.8967 C   0  0  0  0  0  0  0  0  0  0  0  0
   -7.0776    1.1609   -0.3815 H   0  0  0  0  0  0  0  0  0  0  0  0
   -3.7105    1.5044    1.3394 H   0  0  0  0  0  0  0  0  0  0  0  0
   -4.2023   -0.1943    1.7043 H   0  0  0  0  0  0  0  0  0  0  0  0
   -6.3912    0.2561    2.4663 H   0  0  0  0  0  0  0  0  0  0  0  0
   -7.9865    0.6252    1.8532 H   0  0  0  0  0  0  0  0  0  0  0  0
   -1.2377   -0.1638    1.3097 H   0  0  0  0  0  0  0  0  0  0  0  0
   -3.0301   -0.6937   -3.3364 H   0  0  0  0  0  0  0  0  0  0  0  0
   -6.2395   -1.6989    0.9406 H   0  0  0  0  0  0  0  0  0  0  0  0
   -7.6504   -1.7956    2.0035 H   0  0  0  0  0  0  0  0  0  0  0  0
   -0.6682   -1.2610   -2.8601 H   0  0  0  0  0  0  0  0  0  0  0  0
    1.1160   -1.4220   -1.2745 H   0  0  0  0  0  0  0  0  0  0  0  0
    0.6727   -1.6137    1.5306 H   0  0  0  0  0  0  0  0  0  0  0  0
    1.0934    0.0608    1.1857 H   0  0  0  0  0  0  0  0  0  0  0  0
    3.2182    0.6482    0.2999 H   0  0  0  0  0  0  0  0  0  0  0  0
    2.2804   -3.4228    1.1611 H   0  0  0  0  0  0  0  0  0  0  0  0
    4.6435   -4.0220    1.0382 H   0  0  0  0  0  0  0  0  0  0  0  0
    6.9572   -3.4490    0.6867 H   0  0  0  0  0  0  0  0  0  0  0  0
   -7.1094    3.8993    2.0341 H   0  0  0  0  0  0  0  0  0  0  0  0
    8.7118   -1.8341    0.1898 H   0  0  0  0  0  0  0  0  0  0  0  0
    9.3375    0.4277   -0.3158 H   0  0  0  0  0  0  0  0  0  0  0  0
   -8.4254   -2.7109   -1.4729 H   0  0  0  0  0  0  0  0  0  0  0  0
    8.8318    4.0111   -1.0373 H   0  0  0  0  0  0  0  0  0  0  0  0
    9.9574    2.9825   -0.1159 H   0  0  0  0  0  0  0  0  0  0  0  0
    9.6328    2.6323   -1.8320 H   0  0  0  0  0  0  0  0  0  0  0  0
  1 15  2  0  0  0  0
  2 21  1  0  0  0  0
  2 55  1  0  0  0  0
  3 21  2  0  0  0  0
  4 29  1  0  0  0  0
  4 58  1  0  0  0  0
  5 29  2  0  0  0  0
  6 35  2  0  0  0  0
  7 11  1  0  0  0  0
  7 12  1  0  0  0  0
  7 15  1  0  0  0  0
  8 18  1  0  0  0  0
  8 23  1  0  0  0  0
  8 48  1  0  0  0  0
  9 31  1  0  0  0  0
  9 36  1  0  0  0  0
  9 57  1  0  0  0  0
 10 35  1  0  0  0  0
 10 36  2  0  0  0  0
 11 16  1  0  0  0  0
 11 21  1  0  0  0  0
 11 38  1  0  0  0  0
 12 13  1  0  0  0  0
 12 39  1  0  0  0  0
 12 40  1  0  0  0  0
 13 14  2  0  0  0  0
 13 17  1  0  0  0  0
 14 15  1  0  0  0  0
 14 19  1  0  0  0  0
 16 20  1  0  0  0  0
 16 41  1  0  0  0  0
 16 42  1  0  0  0  0
 17 18  2  0  0  0  0
 17 43  1  0  0  0  0
 18 22  1  0  0  0  0
 19 22  2  0  0  0  0
 19 44  1  0  0  0  0
 20 29  1  0  0  0  0
 20 45  1  0  0  0  0
 20 46  1  0  0  0  0
 22 47  1  0  0  0  0
 23 24  1  0  0  0  0
 23 49  1  0  0  0  0
 23 50  1  0  0  0  0
 24 27  2  0  0  0  0
 24 30  1  0  0  0  0
 25 26  2  0  0  0  0
 25 27  1  0  0  0  0
 25 28  1  0  0  0  0
 26 32  1  0  0  0  0
 26 33  1  0  0  0  0
 27 51  1  0  0  0  0
 28 31  2  0  0  0  0
 28 35  1  0  0  0  0
 30 32  2  0  0  0  0
 30 52  1  0  0  0  0
 31 34  1  0  0  0  0
 32 53  1  0  0  0  0
 33 34  2  0  0  0  0
 33 54  1  0  0  0  0
 34 56  1  0  0  0  0
 36 37  1  0  0  0  0
 37 59  1  0  0  0  0
 37 60  1  0  0  0  0
 37 61  1  0  0  0  0
M  END
> <PUBCHEM_COMPOUND_CID>
60863

> <PUBCHEM_CONFORMER_RMSD>
1

> <PUBCHEM_CONFORMER_DIVERSEORDER>
1
110
37
80
134
78
85
17
23
97
41
65
54
145
57
129
55
69
48
152
82
49
98
118
133
130
12
101
96
114
67
123
36
61
11
25
46
3
35
30
137
60
139
138
50
28
16
34
70
113
94
59
14
42
72
13
100
153
111
62
31
86
66
47
9
120
52
141
128
19
89
7
63
147
115
90
125
29
84
151
21
154
92
95
22
18
83
26
108
44
102
73
40
76
150
140
39
38
75
64
119
126
24
87
148
8
132
53
68
105
99
77
146
149
127
45
136
104
131
106
10
43
32
135
56
81
51
6
79
109
27
33
116
107
20
124
4
122
5
91
121
2
15
117
74
112
143
103
144
71
58
88
93
142

> <PUBCHEM_MMFF94_PARTIAL_CHARGES>
46
1 -0.57
10 -0.66
11 0.36
12 0.44
13 -0.14
14 0.09
15 0.54
17 -0.15
18 0.1
19 -0.15
2 -0.65
20 0.06
21 0.66
22 -0.15
23 0.51
24 -0.14
27 -0.15
28 0.09
29 0.66
3 -0.57
30 -0.15
31 0.1
32 -0.15
33 -0.15
34 -0.15
35 0.69
36 0.44
37 0.06
4 -0.65
43 0.15
44 0.15
47 0.15
48 0.4
5 -0.57
51 0.15
52 0.15
53 0.15
54 0.15
55 0.5
56 0.15
57 0.4
58 0.5
6 -0.57
7 -0.66
8 -0.87
9 -0.55

> <PUBCHEM_EFFECTIVE_ROTOR_COUNT>
8.4

> <PUBCHEM_PHARMACOPHORE_FEATURES>
17
1 1 acceptor
1 10 donor
1 2 acceptor
1 3 acceptor
1 4 acceptor
1 5 acceptor
1 6 acceptor
1 8 cation
1 8 donor
1 9 donor
3 2 3 21 anion
3 4 5 29 anion
5 7 12 13 14 15 rings
6 13 14 17 18 19 22 rings
6 24 25 26 27 30 32 rings
6 25 26 28 31 33 34 rings
6 9 10 28 31 35 36 rings

> <PUBCHEM_HEAVY_ATOM_COUNT>
37

> <PUBCHEM_ATOM_DEF_STEREO_COUNT>
1

> <PUBCHEM_ATOM_UDEF_STEREO_COUNT>
0

> <PUBCHEM_BOND_DEF_STEREO_COUNT>
0

> <PUBCHEM_BOND_UDEF_STEREO_COUNT>
0

> <PUBCHEM_ISOTOPIC_ATOM_COUNT>
0

> <PUBCHEM_COMPONENT_COUNT>
1

> <PUBCHEM_CACTVS_TAUTO_COUNT>
9

> <PUBCHEM_CONFORMER_ID>
0000EDBF00000001

> <PUBCHEM_MMFF94_ENERGY>
118.8357

> <PUBCHEM_FEATURE_SELFOVERLAP>
86.553

> <PUBCHEM_SHAPE_FINGERPRINT>
10 15 17967814977338142019
10299344 5 18260832596124238447
10391435 84 16988560174518328307
11115154 58 17894630388556324850
11315181 36 18341614841921738547
11456790 92 18129674118601816056
12013929 94 18337952278211363275
12082328 90 18334859441831979211
12120059 9 15123514696820694027
12539747 91 16128664028850488223
12539765 74 18187640358148579166
12664476 115 17632858638397725662
13383668 251 17560240202322845469
13627175 23 18260550017588800838
13947947 74 18335984161309267440
14142895 15 18341611478139705246
14394314 77 18410287047262443529
14849402 71 18411979130984628681
14856354 85 17749681701625787775
15183329 4 15864072091453967474
15276724 80 18340491183160299268
15328829 1 17967811674138825528
1577012 14 18113622283232515436
15840311 113 18342453747618597894
16989713 51 17168157689855086063
17686467 74 18202561762035040033
21033648 29 16917077676622160654
22122407 14 18336819879269435552
23522609 53 18187643643507773168
24771293 8 17917705803462806717
25269216 80 17241049777693063286
2747138 104 16773794831332266396
335507 130 18187368735315005831
3383291 50 15267047165182479665
3418910 222 18260540131001710889
3663271 9 18341331193011425835
3711267 37 17894346692296019792
394071 54 18202565090608171556
397830 11 17846777394981858379
4073 2 18202559558321672578
437795 51 18202847647584409194
4625314 4 18343304782028962583
474113 269 9799422113719147402
4760202 70 18196658398011480143
48014 12 17531238513504483665
5911458 16 18260824925608177112
6057620 51 18411421704812337443
6126387 218 10231765469816761783
9689198 14 18334570261251234384
9953998 17 17846773036555086137

> <PUBCHEM_SHAPE_MULTIPOLES>
706.3
32.74
3.24
1.5
0.39
1.35
-0.66
10.82
2.68
3.64
0.8
-2.94
0.03
-3.85

> <PUBCHEM_SHAPE_SELFOVERLAP>
1558.49

> <PUBCHEM_SHAPE_VOLUME>
376.6

> <PUBCHEM_COORDINATE_TYPE>
2
5
10

$$$$

