443045
  -OEChem-07051213002D

 30 32  0     0  0  0  0  0  0999 V2000
    8.9030    1.8986    0.0000 Br  0  0  0  0  0  0  0  0  0  0  0  0
    5.2619   -0.6815    0.0000 S   0  0  0  0  0  0  0  0  0  0  0  0
    4.9889   -2.4367    0.0000 S   0  0  0  0  0  0  0  0  0  0  0  0
    3.7320   -0.1815    0.0000 N   0  0  0  0  0  0  0  0  0  0  0  0
    3.7320   -1.1815    0.0000 N   0  0  0  0  0  0  0  0  0  0  0  0
    4.9889    1.0738    0.0000 N   0  0  0  0  0  0  0  0  0  0  0  0
    2.0000   -0.1815    0.0000 C   0  0  0  0  0  0  0  0  0  0  0  0
    2.0000   -1.1815    0.0000 C   0  0  0  0  0  0  0  0  0  0  0  0
    2.8660    0.3185    0.0000 C   0  0  0  0  0  0  0  0  0  0  0  0
    2.8660   -1.6815    0.0000 C   0  0  0  0  0  0  0  0  0  0  0  0
    4.6783    0.1233    0.0000 C   0  0  0  0  0  0  0  0  0  0  0  0
    4.6783   -1.4862    0.0000 C   0  0  0  0  0  0  0  0  0  0  0  0
    5.9674    1.2800    0.0000 C   0  0  0  0  0  0  0  0  0  0  0  0
    6.6353    0.5357    0.0000 C   0  0  0  0  0  0  0  0  0  0  0  0
    6.2781    2.2305    0.0000 C   0  0  0  0  0  0  0  0  0  0  0  0
    7.6138    0.7419    0.0000 C   0  0  0  0  0  0  0  0  0  0  0  0
    7.2566    2.4367    0.0000 C   0  0  0  0  0  0  0  0  0  0  0  0
    7.9244    1.6924    0.0000 C   0  0  0  0  0  0  0  0  0  0  0  0
    1.7880    0.4011    0.0000 H   0  0  0  0  0  0  0  0  0  0  0  0
    1.3894   -0.2891    0.0000 H   0  0  0  0  0  0  0  0  0  0  0  0
    1.3894   -1.0738    0.0000 H   0  0  0  0  0  0  0  0  0  0  0  0
    1.7880   -1.7641    0.0000 H   0  0  0  0  0  0  0  0  0  0  0  0
    3.2646    0.7935    0.0000 H   0  0  0  0  0  0  0  0  0  0  0  0
    2.4675    0.7935    0.0000 H   0  0  0  0  0  0  0  0  0  0  0  0
    2.4675   -2.1564    0.0000 H   0  0  0  0  0  0  0  0  0  0  0  0
    3.2646   -2.1564    0.0000 H   0  0  0  0  0  0  0  0  0  0  0  0
    6.4427   -0.0536    0.0000 H   0  0  0  0  0  0  0  0  0  0  0  0
    5.8640    2.6920    0.0000 H   0  0  0  0  0  0  0  0  0  0  0  0
    8.0279    0.2804    0.0000 H   0  0  0  0  0  0  0  0  0  0  0  0
    7.4492    3.0260    0.0000 H   0  0  0  0  0  0  0  0  0  0  0  0
  1 18  1  0  0  0  0
  2 11  1  0  0  0  0
  2 12  1  0  0  0  0
  3 12  2  0  0  0  0
  4  5  1  0  0  0  0
  4  9  1  0  0  0  0
  4 11  1  0  0  0  0
  5 10  1  0  0  0  0
  5 12  1  0  0  0  0
  6 11  2  0  0  0  0
  6 13  1  0  0  0  0
  7  8  1  0  0  0  0
  7  9  1  0  0  0  0
  7 19  1  0  0  0  0
  7 20  1  0  0  0  0
  8 10  1  0  0  0  0
  8 21  1  0  0  0  0
  8 22  1  0  0  0  0
  9 23  1  0  0  0  0
  9 24  1  0  0  0  0
 10 25  1  0  0  0  0
 10 26  1  0  0  0  0
 13 14  2  0  0  0  0
 13 15  1  0  0  0  0
 14 16  1  0  0  0  0
 14 27  1  0  0  0  0
 15 17  2  0  0  0  0
 15 28  1  0  0  0  0
 16 18  2  0  0  0  0
 16 29  1  0  0  0  0
 17 18  1  0  0  0  0
 17 30  1  0  0  0  0
M  END
> <PUBCHEM_COMPOUND_CID>
443045

> <PUBCHEM_COMPOUND_CANONICALIZED>
1

> <PUBCHEM_CACTVS_COMPLEXITY>
366

> <PUBCHEM_CACTVS_HBOND_ACCEPTOR>
3

> <PUBCHEM_CACTVS_HBOND_DONOR>
0

> <PUBCHEM_CACTVS_ROTATABLE_BOND>
1

> <PUBCHEM_CACTVS_SUBSKEYS>
AAADccBzAABgEAAAAAAAAAAAAAAAAWAAAAA8QAAAAAAAAFgBAAAAHARIAAABqAjBEAQxwIIAAAikACRCZACCEAFgAgwZiAAIZKgIICKAmZGEIABggAAIyhcQAAAAAAAgAAAAAAAAAEAAAAAAAAAAAAAAAA==

> <PUBCHEM_IUPAC_OPENEYE_NAME>
1-(4-bromophenyl)imino-5,6,7,8-tetrahydro-[1,3,4]thiadiazolo[3,4-a]pyridazine-3-thione

> <PUBCHEM_IUPAC_CAS_NAME>
1-(4-bromophenyl)imino-5,6,7,8-tetrahydro-[1,3,4]thiadiazolo[3,4-a]pyridazine-3-thione

> <PUBCHEM_IUPAC_NAME>
1-(4-bromophenyl)imino-5,6,7,8-tetrahydro-[1,3,4]thiadiazolo[3,4-a]pyridazine-3-thione

> <PUBCHEM_IUPAC_SYSTEMATIC_NAME>
1-(4-bromophenyl)imino-5,6,7,8-tetrahydro-[1,3,4]thiadiazolo[3,4-a]pyridazine-3-thione

> <PUBCHEM_IUPAC_TRADITIONAL_NAME>
1-(4-bromophenyl)imino-5,6,7,8-tetrahydro-[1,3,4]thiadiazolo[3,4-a]pyridazine-3-thione

> <PUBCHEM_IUPAC_INCHI>
InChI=1S/C12H12BrN3S2/c13-9-3-5-10(6-4-9)14-11-15-7-1-2-8-16(15)12(17)18-11/h3-6H,1-2,7-8H2

> <PUBCHEM_IUPAC_INCHIKEY>
ICRCGJXKHDVZBV-UHFFFAOYSA-N

> <PUBCHEM_XLOGP3_AA>
4

> <PUBCHEM_EXACT_MASS>
340.965601

> <PUBCHEM_MOLECULAR_FORMULA>
C12H12BrN3S2

> <PUBCHEM_MOLECULAR_WEIGHT>
342.27778

> <PUBCHEM_OPENEYE_CAN_SMILES>
C1CCN2C(=S)SC(=NC3=CC=C(C=C3)Br)N2C1

> <PUBCHEM_OPENEYE_ISO_SMILES>
C1CCN2C(=S)SC(=NC3=CC=C(C=C3)Br)N2C1

> <PUBCHEM_CACTVS_TPSA>
76.2

> <PUBCHEM_MONOISOTOPIC_WEIGHT>
340.965601

> <PUBCHEM_TOTAL_CHARGE>
0

> <PUBCHEM_HEAVY_ATOM_COUNT>
18

> <PUBCHEM_ATOM_DEF_STEREO_COUNT>
0

> <PUBCHEM_ATOM_UDEF_STEREO_COUNT>
0

> <PUBCHEM_BOND_DEF_STEREO_COUNT>
0

> <PUBCHEM_BOND_UDEF_STEREO_COUNT>
0

> <PUBCHEM_ISOTOPIC_ATOM_COUNT>
0

> <PUBCHEM_COMPONENT_COUNT>
1

> <PUBCHEM_CACTVS_TAUTO_COUNT>
1

> <PUBCHEM_COORDINATE_TYPE>
1
5
255

> <PUBCHEM_BONDANNOTATIONS>
13  14  8
13  15  8
14  16  8
15  17  8
16  18  8
17  18  8
2  11  8
2  12  8
4  11  8
4  5  8
5  12  8

$$$$

