66895
  -OEChem-07051212533D

 33 34  0     0  0  0  0  0  0999 V2000
    5.2516    0.0027    0.2370 S   0  0  0  0  0  0  0  0  0  0  0  0
    5.6501    1.2249    0.9211 O   0  0  0  0  0  0  0  0  0  0  0  0
    5.6065   -1.2914    0.8026 O   0  0  0  0  0  0  0  0  0  0  0  0
   -0.6230    0.1517   -0.5883 N   0  0  0  0  0  0  0  0  0  0  0  0
   -1.2134    0.1096    0.5167 N   0  0  0  0  0  0  0  0  0  0  0  0
    5.8094    0.0673   -1.3768 N   0  0  0  0  0  0  0  0  0  0  0  0
   -2.6933   -2.2912    0.1965 N   0  0  0  0  0  0  0  0  0  0  0  0
   -6.7554    0.3198   -0.2650 N   0  0  0  0  0  0  0  0  0  0  0  0
    3.5231    0.0464   -0.0066 C   0  0  0  0  0  0  0  0  0  0  0  0
    2.8097   -1.1425   -0.1600 C   0  0  0  0  0  0  0  0  0  0  0  0
    2.8555    1.2704   -0.0463 C   0  0  0  0  0  0  0  0  0  0  0  0
    0.7612    0.1168   -0.3927 C   0  0  0  0  0  0  0  0  0  0  0  0
    1.4287   -1.1072   -0.3532 C   0  0  0  0  0  0  0  0  0  0  0  0
    1.4745    1.3056   -0.2394 C   0  0  0  0  0  0  0  0  0  0  0  0
   -2.6046    0.1450    0.3197 C   0  0  0  0  0  0  0  0  0  0  0  0
   -3.3322   -1.0320    0.1625 C   0  0  0  0  0  0  0  0  0  0  0  0
   -5.3602    0.2608   -0.0687 C   0  0  0  0  0  0  0  0  0  0  0  0
   -4.7121   -0.9739   -0.0320 C   0  0  0  0  0  0  0  0  0  0  0  0
   -3.2481    1.3797    0.2838 C   0  0  0  0  0  0  0  0  0  0  0  0
   -4.6280    1.4375    0.0892 C   0  0  0  0  0  0  0  0  0  0  0  0
    3.3101   -2.1065   -0.1389 H   0  0  0  0  0  0  0  0  0  0  0  0
    3.3916    2.2087    0.0643 H   0  0  0  0  0  0  0  0  0  0  0  0
    0.8819   -2.0388   -0.4742 H   0  0  0  0  0  0  0  0  0  0  0  0
    0.9634    2.2644   -0.2713 H   0  0  0  0  0  0  0  0  0  0  0  0
   -5.2841   -1.8912   -0.1553 H   0  0  0  0  0  0  0  0  0  0  0  0
   -2.6865    2.3021    0.4067 H   0  0  0  0  0  0  0  0  0  0  0  0
   -5.1214    2.4058    0.0628 H   0  0  0  0  0  0  0  0  0  0  0  0
    6.2596    0.9355   -1.6913 H   0  0  0  0  0  0  0  0  0  0  0  0
    6.2275   -0.7842   -1.7711 H   0  0  0  0  0  0  0  0  0  0  0  0
   -3.2331   -3.1384    0.0805 H   0  0  0  0  0  0  0  0  0  0  0  0
   -1.6928   -2.3428    0.3356 H   0  0  0  0  0  0  0  0  0  0  0  0
   -7.2253    1.2148   -0.2923 H   0  0  0  0  0  0  0  0  0  0  0  0
   -7.2871   -0.5328   -0.3803 H   0  0  0  0  0  0  0  0  0  0  0  0
  1  2  2  0  0  0  0
  1  3  2  0  0  0  0
  1  6  1  0  0  0  0
  1  9  1  0  0  0  0
  4  5  2  0  0  0  0
  4 12  1  0  0  0  0
  5 15  1  0  0  0  0
  6 28  1  0  0  0  0
  6 29  1  0  0  0  0
  7 16  1  0  0  0  0
  7 30  1  0  0  0  0
  7 31  1  0  0  0  0
  8 17  1  0  0  0  0
  8 32  1  0  0  0  0
  8 33  1  0  0  0  0
  9 10  2  0  0  0  0
  9 11  1  0  0  0  0
 10 13  1  0  0  0  0
 10 21  1  0  0  0  0
 11 14  2  0  0  0  0
 11 22  1  0  0  0  0
 12 13  2  0  0  0  0
 12 14  1  0  0  0  0
 13 23  1  0  0  0  0
 14 24  1  0  0  0  0
 15 16  2  0  0  0  0
 15 19  1  0  0  0  0
 16 18  1  0  0  0  0
 17 18  2  0  0  0  0
 17 20  1  0  0  0  0
 18 25  1  0  0  0  0
 19 20  2  0  0  0  0
 19 26  1  0  0  0  0
 20 27  1  0  0  0  0
M  END
> <PUBCHEM_COMPOUND_CID>
66895

> <PUBCHEM_CONFORMER_RMSD>
0.6

> <PUBCHEM_CONFORMER_DIVERSEORDER>
1
6
4
2
5
3

> <PUBCHEM_MMFF94_PARTIAL_CHARGES>
33
1 1.45
10 -0.15
11 -0.15
12 0.18
13 -0.15
14 -0.15
15 0.18
16 0.1
17 0.1
18 -0.15
19 -0.15
2 -0.65
20 -0.15
21 0.15
22 0.15
23 0.15
24 0.15
25 0.15
26 0.15
27 0.15
28 0.42
29 0.42
3 -0.65
30 0.4
31 0.4
32 0.4
33 0.4
4 -0.18
5 -0.18
6 -0.98
7 -0.9
8 -0.9
9 -0.01

> <PUBCHEM_EFFECTIVE_ROTOR_COUNT>
3

> <PUBCHEM_PHARMACOPHORE_FEATURES>
9
1 2 acceptor
1 3 acceptor
1 6 donor
1 7 cation
1 7 donor
1 8 cation
1 8 donor
6 15 16 17 18 19 20 rings
6 9 10 11 12 13 14 rings

> <PUBCHEM_HEAVY_ATOM_COUNT>
20

> <PUBCHEM_ATOM_DEF_STEREO_COUNT>
0

> <PUBCHEM_ATOM_UDEF_STEREO_COUNT>
0

> <PUBCHEM_BOND_DEF_STEREO_COUNT>
0

> <PUBCHEM_BOND_UDEF_STEREO_COUNT>
0

> <PUBCHEM_ISOTOPIC_ATOM_COUNT>
0

> <PUBCHEM_COMPONENT_COUNT>
1

> <PUBCHEM_CACTVS_TAUTO_COUNT>
12

> <PUBCHEM_CONFORMER_ID>
0001054F00000001

> <PUBCHEM_MMFF94_ENERGY>
56.526

> <PUBCHEM_FEATURE_SELFOVERLAP>
45.686

> <PUBCHEM_SHAPE_FINGERPRINT>
10 15 18187939339759582784
10366900 7 17240203248418879307
11045977 3 18187366489473780362
11315181 36 18410570674058980113
12107183 9 17618504719253272745
12236239 1 18410294709208571539
12507557 5 18333449820285157817
12516196 113 18040718064856415985
13533116 47 18115027523058925819
13675066 3 17967534550006248124
1420 363 17749104499962893157
14251764 18 18412823591059742003
14341114 176 18409726253360407928
15788980 27 18343298158608617322
17834072 33 18412261722900184524
1813 80 16917064494950577230
19489759 90 18187365441517701137
200 152 18040155119624911361
20281389 69 18272934942180957477
20645477 56 18413669123996640181
20645477 70 18115022034111775494
21033648 29 16805899483914885416
21267235 1 18411128122370103211
21709351 56 18410859832500081629
220451 1 18272928332452804474
23402539 116 18408328778867011029
23559900 14 18335709282578975049
26918003 58 18409166602020880779
300161 21 18412549816358149219
3004659 81 18201997772762998766
34797466 226 17458339724230211180
351380 180 18410294696492604761
3545911 37 18408882940963890557
4073 2 18059571331088202346
4214541 1 18411136939885298825
4325135 7 17846776309066886766
5104073 3 18337668624725281049
542803 24 17418373584229287516
559249 180 18342461460731216059
9709674 26 18335974320858489455
9971528 1 17847062151572247868

> <PUBCHEM_SHAPE_MULTIPOLES>
378.8
15.75
1.58
0.79
0.81
0.28
0.06
-0.9
-0.43
-0.5
-0.14
0.75
-0.02
0.03

> <PUBCHEM_SHAPE_SELFOVERLAP>
800.944

> <PUBCHEM_SHAPE_VOLUME>
213.2

> <PUBCHEM_COORDINATE_TYPE>
2
5
10

$$$$

