49787035
  -OEChem-07051213113D

 31 33  0     1  0  0  0  0  0999 V2000
   -1.0379   -1.7037   -1.2578 O   0  0  0  0  0  0  0  0  0  0  0  0
   -2.7479    0.1093   -2.0940 O   0  0  0  0  0  0  0  0  0  0  0  0
   -1.8306   -0.7033    2.0400 O   0  0  0  0  0  0  0  0  0  0  0  0
   -1.4569   -2.7370    1.0807 O   0  0  0  0  0  0  0  0  0  0  0  0
   -1.3321   -0.7216   -0.2639 C   0  0  1  0  0  0  0  0  0  0  0  0
   -0.1704    0.2657   -0.0795 C   0  0  0  0  0  0  0  0  0  0  0  0
   -2.6732   -0.0544   -0.6741 C   0  0  1  0  0  0  0  0  0  0  0  0
   -0.5006    1.6152    0.2075 C   0  0  0  0  0  0  0  0  0  0  0  0
    1.2143   -0.1237   -0.1192 C   0  0  0  0  0  0  0  0  0  0  0  0
   -2.9016    1.2847   -0.0535 C   0  0  0  0  0  0  0  0  0  0  0  0
   -1.8917    2.0535    0.3631 C   0  0  0  0  0  0  0  0  0  0  0  0
    2.2098    0.8790    0.0403 C   0  0  0  0  0  0  0  0  0  0  0  0
   -1.5382   -1.5204    0.9988 C   0  0  0  0  0  0  0  0  0  0  0  0
    0.5051    2.5688    0.3785 C   0  0  0  0  0  0  0  0  0  0  0  0
    1.8420    2.2066    0.2759 C   0  0  0  0  0  0  0  0  0  0  0  0
    1.6882   -1.4514   -0.2840 C   0  0  0  0  0  0  0  0  0  0  0  0
    3.5760    0.5537   -0.0172 C   0  0  0  0  0  0  0  0  0  0  0  0
    3.0505   -1.7629   -0.3331 C   0  0  0  0  0  0  0  0  0  0  0  0
    3.9952   -0.7582   -0.2084 C   0  0  0  0  0  0  0  0  0  0  0  0
   -3.5027   -0.7193   -0.4007 H   0  0  0  0  0  0  0  0  0  0  0  0
   -3.9220    1.6454    0.0351 H   0  0  0  0  0  0  0  0  0  0  0  0
   -2.0889    3.0302    0.7922 H   0  0  0  0  0  0  0  0  0  0  0  0
    0.2603    3.6075    0.5903 H   0  0  0  0  0  0  0  0  0  0  0  0
    2.5986    2.9784    0.4063 H   0  0  0  0  0  0  0  0  0  0  0  0
    1.0051   -2.2914   -0.3600 H   0  0  0  0  0  0  0  0  0  0  0  0
   -1.8380   -2.2356   -1.4098 H   0  0  0  0  0  0  0  0  0  0  0  0
    4.3341    1.3267    0.0972 H   0  0  0  0  0  0  0  0  0  0  0  0
   -3.6268    0.4680   -2.3066 H   0  0  0  0  0  0  0  0  0  0  0  0
    3.3656   -2.7940   -0.4642 H   0  0  0  0  0  0  0  0  0  0  0  0
    5.0543   -0.9937   -0.2459 H   0  0  0  0  0  0  0  0  0  0  0  0
   -1.9691   -1.2045    2.8716 H   0  0  0  0  0  0  0  0  0  0  0  0
  1  5  1  0  0  0  0
  1 26  1  0  0  0  0
  2  7  1  0  0  0  0
  2 28  1  0  0  0  0
  3 13  1  0  0  0  0
  3 31  1  0  0  0  0
  4 13  2  0  0  0  0
  5  6  1  0  0  0  0
  5  7  1  0  0  0  0
  5 13  1  0  0  0  0
  6  8  2  0  0  0  0
  6  9  1  0  0  0  0
  7 10  1  0  0  0  0
  7 20  1  0  0  0  0
  8 11  1  0  0  0  0
  8 14  1  0  0  0  0
  9 12  1  0  0  0  0
  9 16  2  0  0  0  0
 10 11  2  0  0  0  0
 10 21  1  0  0  0  0
 11 22  1  0  0  0  0
 12 15  1  0  0  0  0
 12 17  2  0  0  0  0
 14 15  2  0  0  0  0
 14 23  1  0  0  0  0
 15 24  1  0  0  0  0
 16 18  1  0  0  0  0
 16 25  1  0  0  0  0
 17 19  1  0  0  0  0
 17 27  1  0  0  0  0
 18 19  2  0  0  0  0
 18 29  1  0  0  0  0
 19 30  1  0  0  0  0
M  END
> <PUBCHEM_COMPOUND_CID>
49787035

> <PUBCHEM_CONFORMER_RMSD>
0.6

> <PUBCHEM_CONFORMER_DIVERSEORDER>
1
2

> <PUBCHEM_MMFF94_PARTIAL_CHARGES>
28
1 -0.68
10 -0.29
11 -0.18
13 0.66
14 -0.15
15 -0.15
16 -0.15
17 -0.15
18 -0.15
19 -0.15
2 -0.68
21 0.15
22 0.15
23 0.15
24 0.15
25 0.15
26 0.4
27 0.15
28 0.4
29 0.15
3 -0.65
30 0.15
31 0.5
4 -0.57
5 0.48
6 -0.14
7 0.42
8 0.03

> <PUBCHEM_EFFECTIVE_ROTOR_COUNT>
1.4

> <PUBCHEM_PHARMACOPHORE_FEATURES>
10
1 1 acceptor
1 1 donor
1 2 acceptor
1 2 donor
1 3 acceptor
1 4 acceptor
3 3 4 13 anion
6 5 6 7 8 10 11 rings
6 6 8 9 12 14 15 rings
6 9 12 16 17 18 19 rings

> <PUBCHEM_HEAVY_ATOM_COUNT>
19

> <PUBCHEM_ATOM_DEF_STEREO_COUNT>
2

> <PUBCHEM_ATOM_UDEF_STEREO_COUNT>
0

> <PUBCHEM_BOND_DEF_STEREO_COUNT>
0

> <PUBCHEM_BOND_UDEF_STEREO_COUNT>
0

> <PUBCHEM_ISOTOPIC_ATOM_COUNT>
0

> <PUBCHEM_COMPONENT_COUNT>
1

> <PUBCHEM_CACTVS_TAUTO_COUNT>
1

> <PUBCHEM_CONFORMER_ID>
02F7B09B00000001

> <PUBCHEM_MMFF94_ENERGY>
57.2977

> <PUBCHEM_FEATURE_SELFOVERLAP>
50.877

> <PUBCHEM_SHAPE_FINGERPRINT>
10967382 1 18336545044412026788
1100329 8 16540452371738648593
11680986 33 18338235955556211377
12035759 4 17759270748231148725
12138202 97 17988653964530055599
12423570 1 17392486897492875391
12553582 1 18337104661713640344
13140716 1 18337390431536601000
14115302 16 18059281137000651060
14223421 5 18124588683074058914
16945 1 18336264539892411024
18186145 218 18129675200121424685
19049666 15 18341613689662474656
21267235 1 18334569196273535454
21501502 16 18334296508815911908
22721475 48 18409444791331987028
22802520 49 18340206280372022041
2334 1 17977105652365094056
23402539 116 18192161601379495876
23559900 14 18411981395550010962
25 1 18055925526502908093
2748010 2 18049730607177138516
34934 24 18409736196531477432
598444 67 18272641372844905603
74978 22 18343021077657834944
81228 2 18119520192579798216
8809292 202 18341045298317824562
9709674 26 18335136544468802630
9981440 41 17539723225323667409

> <PUBCHEM_SHAPE_MULTIPOLES>
367.53
5.32
2.69
1.17
3.26
0.29
-0.01
-0.57
-0.79
-0.15
0.57
-1.09
-0.48
0.43

> <PUBCHEM_SHAPE_SELFOVERLAP>
822.603

> <PUBCHEM_SHAPE_VOLUME>
191.2

> <PUBCHEM_COORDINATE_TYPE>
2
5
10

$$$$

