440216
  -OEChem-07051212493D

 17 16  0     1  0  0  0  0  0999 V2000
    2.3925   -0.1864    1.2797 Cl  0  0  0  0  0  0  0  0  0  0  0  0
   -0.7846    1.5626    0.9561 O   0  0  0  0  0  0  0  0  0  0  0  0
   -2.1422    0.8973   -0.7354 O   0  0  0  0  0  0  0  0  0  0  0  0
   -1.7819   -1.7088    0.0642 N   0  0  0  0  0  0  0  0  0  0  0  0
   -0.7183   -0.7509    0.3590 C   0  0  1  0  0  0  0  0  0  0  0  0
    0.5050   -1.0473   -0.5256 C   0  0  0  0  0  0  0  0  0  0  0  0
   -1.2945    0.6320    0.1069 C   0  0  0  0  0  0  0  0  0  0  0  0
    1.6604   -0.1108   -0.2884 C   0  0  0  0  0  0  0  0  0  0  0  0
    2.1636    0.7122   -1.2164 C   0  0  0  0  0  0  0  0  0  0  0  0
   -0.4751   -0.8468    1.4229 H   0  0  0  0  0  0  0  0  0  0  0  0
    0.8457   -2.0770   -0.3525 H   0  0  0  0  0  0  0  0  0  0  0  0
    0.2103   -0.9988   -1.5833 H   0  0  0  0  0  0  0  0  0  0  0  0
   -2.0659   -1.6313   -0.9116 H   0  0  0  0  0  0  0  0  0  0  0  0
   -2.6060   -1.5001    0.6263 H   0  0  0  0  0  0  0  0  0  0  0  0
    3.0113    1.3569   -1.0085 H   0  0  0  0  0  0  0  0  0  0  0  0
    1.7346    0.7623   -2.2117 H   0  0  0  0  0  0  0  0  0  0  0  0
   -1.1695    2.4509    0.7983 H   0  0  0  0  0  0  0  0  0  0  0  0
  1  8  1  0  0  0  0
  2  7  1  0  0  0  0
  2 17  1  0  0  0  0
  3  7  2  0  0  0  0
  4  5  1  0  0  0  0
  4 13  1  0  0  0  0
  4 14  1  0  0  0  0
  5  6  1  0  0  0  0
  5  7  1  0  0  0  0
  5 10  1  0  0  0  0
  6  8  1  0  0  0  0
  6 11  1  0  0  0  0
  6 12  1  0  0  0  0
  8  9  2  0  0  0  0
  9 15  1  0  0  0  0
  9 16  1  0  0  0  0
M  END
> <PUBCHEM_COMPOUND_CID>
440216

> <PUBCHEM_CONFORMER_RMSD>
0.6

> <PUBCHEM_CONFORMER_DIVERSEORDER>
1
13
22
8
3
19
4
14
15
2
16
12
5
6
9
18
21
11
17
20
7
10

> <PUBCHEM_MMFF94_PARTIAL_CHARGES>
13
1 -0.14
13 0.36
14 0.36
15 0.15
16 0.15
17 0.5
2 -0.65
3 -0.57
4 -0.99
5 0.33
6 0.14
7 0.66
9 -0.3

> <PUBCHEM_EFFECTIVE_ROTOR_COUNT>
3

> <PUBCHEM_PHARMACOPHORE_FEATURES>
5
1 2 acceptor
1 3 acceptor
1 4 cation
1 4 donor
3 2 3 7 anion

> <PUBCHEM_HEAVY_ATOM_COUNT>
9

> <PUBCHEM_ATOM_DEF_STEREO_COUNT>
1

> <PUBCHEM_ATOM_UDEF_STEREO_COUNT>
0

> <PUBCHEM_BOND_DEF_STEREO_COUNT>
0

> <PUBCHEM_BOND_UDEF_STEREO_COUNT>
0

> <PUBCHEM_ISOTOPIC_ATOM_COUNT>
0

> <PUBCHEM_COMPONENT_COUNT>
1

> <PUBCHEM_CACTVS_TAUTO_COUNT>
1

> <PUBCHEM_CONFORMER_ID>
0006B79800000001

> <PUBCHEM_MMFF94_ENERGY>
7.0186

> <PUBCHEM_FEATURE_SELFOVERLAP>
25.43

> <PUBCHEM_SHAPE_FINGERPRINT>
10857977 72 18042684996653343955
207724 885 17985536999785006210
21040471 1 18264200494739459176
21922407 69 17274534322227516216
23235685 24 18263913483534346100
23552333 60 17631175177972500634
23552423 10 18273210911104585586
24536 1 18336253647897260702
29004967 10 6626879146140549199
369184 2 16988841665988579009
5084963 1 18194400223837903998

> <PUBCHEM_SHAPE_MULTIPOLES>
170.37
3.25
1.46
1.17
0.65
0.11
-0.14
-0.27
0
-0.73
-0.01
0.67
-0.2
-0.35

> <PUBCHEM_SHAPE_SELFOVERLAP>
313.479

> <PUBCHEM_SHAPE_VOLUME>
108.2

> <PUBCHEM_COORDINATE_TYPE>
2
5
10

$$$$

