440177
  -OEChem-07051212492D

 23 23  0     1  0  0  0  0  0999 V2000
    4.5981    0.8450    0.0000 O   0  0  0  0  0  0  0  0  0  0  0  0
    4.5981    2.8450    0.0000 O   0  0  0  0  0  0  0  0  0  0  0  0
    2.8660   -3.1550    0.0000 O   0  0  0  0  0  0  0  0  0  0  0  0
    2.8660    2.8450    0.0000 O   0  0  0  0  0  0  0  0  0  0  0  0
    2.8660    0.8450    0.0000 C   0  0  0  0  0  0  0  0  0  0  0  0
    2.8660   -0.1550    0.0000 C   0  0  0  0  0  0  0  0  0  0  0  0
    3.7320    1.3450    0.0000 C   0  0  2  0  0  0  0  0  0  0  0  0
    2.0000   -0.6550    0.0000 C   0  0  0  0  0  0  0  0  0  0  0  0
    3.7320   -0.6550    0.0000 C   0  0  0  0  0  0  0  0  0  0  0  0
    2.0000   -1.6550    0.0000 C   0  0  0  0  0  0  0  0  0  0  0  0
    3.7320   -1.6550    0.0000 C   0  0  0  0  0  0  0  0  0  0  0  0
    3.7320    2.3450    0.0000 C   0  0  0  0  0  0  0  0  0  0  0  0
    2.8660   -2.1550    0.0000 C   0  0  0  0  0  0  0  0  0  0  0  0
    2.6540    1.4276    0.0000 H   0  0  0  0  0  0  0  0  0  0  0  0
    2.2554    0.7373    0.0000 H   0  0  0  0  0  0  0  0  0  0  0  0
    3.7320    0.7250    0.0000 H   0  0  0  0  0  0  0  0  0  0  0  0
    1.4631   -0.3450    0.0000 H   0  0  0  0  0  0  0  0  0  0  0  0
    4.2690   -0.3450    0.0000 H   0  0  0  0  0  0  0  0  0  0  0  0
    1.4631   -1.9650    0.0000 H   0  0  0  0  0  0  0  0  0  0  0  0
    4.2690   -1.9650    0.0000 H   0  0  0  0  0  0  0  0  0  0  0  0
    5.1350    1.1550    0.0000 H   0  0  0  0  0  0  0  0  0  0  0  0
    4.5981    3.4650    0.0000 H   0  0  0  0  0  0  0  0  0  0  0  0
    2.3291   -3.4650    0.0000 H   0  0  0  0  0  0  0  0  0  0  0  0
  7  1  1  6  0  0  0
  1 21  1  0  0  0  0
  2 12  1  0  0  0  0
  2 22  1  0  0  0  0
  3 13  1  0  0  0  0
  3 23  1  0  0  0  0
  4 12  2  0  0  0  0
  5  6  1  0  0  0  0
  5  7  1  0  0  0  0
  5 14  1  0  0  0  0
  5 15  1  0  0  0  0
  6  8  2  0  0  0  0
  6  9  1  0  0  0  0
  7 12  1  0  0  0  0
  7 16  1  0  0  0  0
  8 10  1  0  0  0  0
  8 17  1  0  0  0  0
  9 11  2  0  0  0  0
  9 18  1  0  0  0  0
 10 13  2  0  0  0  0
 10 19  1  0  0  0  0
 11 13  1  0  0  0  0
 11 20  1  0  0  0  0
M  END
> <PUBCHEM_COMPOUND_CID>
440177

> <PUBCHEM_COMPOUND_CANONICALIZED>
1

> <PUBCHEM_CACTVS_COMPLEXITY>
173

> <PUBCHEM_CACTVS_HBOND_ACCEPTOR>
4

> <PUBCHEM_CACTVS_HBOND_DONOR>
3

> <PUBCHEM_CACTVS_ROTATABLE_BOND>
3

> <PUBCHEM_CACTVS_SUBSKEYS>
AAADccBwOAAAAAAAAAAAAAAAAAAAAAAAAAAwAAAAAAAAAAABAAAAGgAACAAADBSgmAIwDoAAAgCIAiDSCAICAAAgIAAIiAFGCIgJNjKCERKAcAAkwBEJmAeIyKCOIAAAAAAAAABAAAAAAAAAAAAAAAAAAA==

> <PUBCHEM_IUPAC_OPENEYE_NAME>
(2R)-2-hydroxy-3-(4-hydroxyphenyl)propanoic acid

> <PUBCHEM_IUPAC_CAS_NAME>
(2R)-2-hydroxy-3-(4-hydroxyphenyl)propanoic acid

> <PUBCHEM_IUPAC_NAME>
(2R)-2-hydroxy-3-(4-hydroxyphenyl)propanoic acid

> <PUBCHEM_IUPAC_SYSTEMATIC_NAME>
(2R)-3-(4-hydroxyphenyl)-2-oxidanyl-propanoic acid

> <PUBCHEM_IUPAC_TRADITIONAL_NAME>
(2R)-2-hydroxy-3-(4-hydroxyphenyl)propionic acid

> <PUBCHEM_IUPAC_INCHI>
InChI=1S/C9H10O4/c10-7-3-1-6(2-4-7)5-8(11)9(12)13/h1-4,8,10-11H,5H2,(H,12,13)/t8-/m1/s1

> <PUBCHEM_IUPAC_INCHIKEY>
JVGVDSSUAVXRDY-MRVPVSSYSA-N

> <PUBCHEM_XLOGP3>
0.3

> <PUBCHEM_EXACT_MASS>
182.057909

> <PUBCHEM_MOLECULAR_FORMULA>
C9H10O4

> <PUBCHEM_MOLECULAR_WEIGHT>
182.1733

> <PUBCHEM_OPENEYE_CAN_SMILES>
C1=CC(=CC=C1CC(C(=O)O)O)O

> <PUBCHEM_OPENEYE_ISO_SMILES>
C1=CC(=CC=C1C[C@H](C(=O)O)O)O

> <PUBCHEM_CACTVS_TPSA>
77.8

> <PUBCHEM_MONOISOTOPIC_WEIGHT>
182.057909

> <PUBCHEM_TOTAL_CHARGE>
0

> <PUBCHEM_HEAVY_ATOM_COUNT>
13

> <PUBCHEM_ATOM_DEF_STEREO_COUNT>
1

> <PUBCHEM_ATOM_UDEF_STEREO_COUNT>
0

> <PUBCHEM_BOND_DEF_STEREO_COUNT>
0

> <PUBCHEM_BOND_UDEF_STEREO_COUNT>
0

> <PUBCHEM_ISOTOPIC_ATOM_COUNT>
0

> <PUBCHEM_COMPONENT_COUNT>
1

> <PUBCHEM_CACTVS_TAUTO_COUNT>
2

> <PUBCHEM_COORDINATE_TYPE>
1
5
255

> <PUBCHEM_BONDANNOTATIONS>
7  1  6
10  13  8
11  13  8
6  8  8
6  9  8
8  10  8
9  11  8

$$$$

