9885603
  -OEChem-07051213103D

 51 55  0     1  0  0  0  0  0999 V2000
   -3.2402   -1.4921    1.6161 O   0  0  0  0  0  0  0  0  0  0  0  0
    2.4962    1.1434   -2.8678 O   0  0  0  0  0  0  0  0  0  0  0  0
   -3.1228    2.2909   -1.0820 O   0  0  0  0  0  0  0  0  0  0  0  0
   -3.5749    2.6514    1.1598 O   0  0  0  0  0  0  0  0  0  0  0  0
    0.3337   -1.8993   -0.9935 N   0  0  1  0  0  0  0  0  0  0  0  0
    3.2058    1.7547   -0.7187 N   0  0  0  0  0  0  0  0  0  0  0  0
    0.5154   -0.4539   -1.1736 C   0  0  2  0  0  0  0  0  0  0  0  0
    2.0210   -0.2921   -0.9091 C   0  0  2  0  0  0  0  0  0  0  0  0
   -0.4641    0.3349   -0.3055 C   0  0  0  0  0  0  0  0  0  0  0  0
   -2.0842   -1.6396   -0.5722 C   0  0  1  0  0  0  0  0  0  0  0  0
   -1.9173   -0.0934   -0.6085 C   0  0  1  0  0  0  0  0  0  0  0  0
    2.6242   -1.6079   -1.4435 C   0  0  0  0  0  0  0  0  0  0  0  0
   -0.9941   -2.3229   -1.4236 C   0  0  0  0  0  0  0  0  0  0  0  0
    1.4239   -2.5091   -1.7506 C   0  0  0  0  0  0  0  0  0  0  0  0
    2.4435   -0.0075    0.5119 C   0  0  0  0  0  0  0  0  0  0  0  0
   -2.1461   -2.1093    0.9055 C   0  0  2  0  0  0  0  0  0  0  0  0
    2.5833    0.9369   -1.6664 C   0  0  0  0  0  0  0  0  0  0  0  0
   -2.8660    0.5326    0.3687 C   0  0  0  0  0  0  0  0  0  0  0  0
    3.1269    1.2064    0.5555 C   0  0  0  0  0  0  0  0  0  0  0  0
    2.2624   -0.7433    1.6714 C   0  0  0  0  0  0  0  0  0  0  0  0
   -2.3518   -3.6155    1.0462 C   0  0  0  0  0  0  0  0  0  0  0  0
   -3.4487   -0.1650    1.3497 C   0  0  0  0  0  0  0  0  0  0  0  0
    3.6376    1.7354    1.7245 C   0  0  0  0  0  0  0  0  0  0  0  0
   -3.2326    1.9423    0.2255 C   0  0  0  0  0  0  0  0  0  0  0  0
    2.7690   -0.2296    2.8694 C   0  0  0  0  0  0  0  0  0  0  0  0
    3.4499    1.0003    2.8955 C   0  0  0  0  0  0  0  0  0  0  0  0
   -3.4499    3.6512   -1.3846 C   0  0  0  0  0  0  0  0  0  0  0  0
    0.3101   -0.1913   -2.2236 H   0  0  0  0  0  0  0  0  0  0  0  0
   -0.3414    1.4079   -0.4999 H   0  0  0  0  0  0  0  0  0  0  0  0
   -0.2553    0.1884    0.7604 H   0  0  0  0  0  0  0  0  0  0  0  0
   -3.0562   -1.8751   -1.0315 H   0  0  0  0  0  0  0  0  0  0  0  0
   -2.1594    0.2134   -1.6345 H   0  0  0  0  0  0  0  0  0  0  0  0
    3.2734   -2.0931   -0.7045 H   0  0  0  0  0  0  0  0  0  0  0  0
    3.2209   -1.4592   -2.3507 H   0  0  0  0  0  0  0  0  0  0  0  0
   -1.0849   -3.4117   -1.3543 H   0  0  0  0  0  0  0  0  0  0  0  0
   -1.1577   -2.0697   -2.4801 H   0  0  0  0  0  0  0  0  0  0  0  0
    1.2251   -2.5010   -2.8299 H   0  0  0  0  0  0  0  0  0  0  0  0
    1.6081   -3.5423   -1.4398 H   0  0  0  0  0  0  0  0  0  0  0  0
   -1.2235   -1.8455    1.4376 H   0  0  0  0  0  0  0  0  0  0  0  0
    3.6648    2.6344   -0.9233 H   0  0  0  0  0  0  0  0  0  0  0  0
    1.7397   -1.6933    1.6620 H   0  0  0  0  0  0  0  0  0  0  0  0
   -1.4878   -4.1821    0.6894 H   0  0  0  0  0  0  0  0  0  0  0  0
   -2.5182   -3.8816    2.0962 H   0  0  0  0  0  0  0  0  0  0  0  0
   -3.2411   -3.9411    0.4954 H   0  0  0  0  0  0  0  0  0  0  0  0
   -4.1811    0.2347    2.0385 H   0  0  0  0  0  0  0  0  0  0  0  0
    4.1663    2.6816    1.7405 H   0  0  0  0  0  0  0  0  0  0  0  0
    2.6361   -0.7873    3.7926 H   0  0  0  0  0  0  0  0  0  0  0  0
    3.8356    1.3792    3.8382 H   0  0  0  0  0  0  0  0  0  0  0  0
   -3.3235    3.7998   -2.4602 H   0  0  0  0  0  0  0  0  0  0  0  0
   -2.7747    4.3294   -0.8543 H   0  0  0  0  0  0  0  0  0  0  0  0
   -4.4915    3.8578   -1.1210 H   0  0  0  0  0  0  0  0  0  0  0  0
  1 16  1  0  0  0  0
  1 22  1  0  0  0  0
  2 17  2  0  0  0  0
  3 24  1  0  0  0  0
  3 27  1  0  0  0  0
  4 24  2  0  0  0  0
  5  7  1  0  0  0  0
  5 13  1  0  0  0  0
  5 14  1  0  0  0  0
  6 17  1  0  0  0  0
  6 19  1  0  0  0  0
  6 40  1  0  0  0  0
  7  8  1  0  0  0  0
  7  9  1  0  0  0  0
  7 28  1  0  0  0  0
  8 12  1  0  0  0  0
  8 15  1  0  0  0  0
  8 17  1  0  0  0  0
  9 11  1  0  0  0  0
  9 29  1  0  0  0  0
  9 30  1  0  0  0  0
 10 11  1  0  0  0  0
 10 13  1  0  0  0  0
 10 16  1  0  0  0  0
 10 31  1  0  0  0  0
 11 18  1  0  0  0  0
 11 32  1  0  0  0  0
 12 14  1  0  0  0  0
 12 33  1  0  0  0  0
 12 34  1  0  0  0  0
 13 35  1  0  0  0  0
 13 36  1  0  0  0  0
 14 37  1  0  0  0  0
 14 38  1  0  0  0  0
 15 19  1  0  0  0  0
 15 20  2  0  0  0  0
 16 21  1  0  0  0  0
 16 39  1  0  0  0  0
 18 22  2  0  0  0  0
 18 24  1  0  0  0  0
 19 23  2  0  0  0  0
 20 25  1  0  0  0  0
 20 41  1  0  0  0  0
 21 42  1  0  0  0  0
 21 43  1  0  0  0  0
 21 44  1  0  0  0  0
 22 45  1  0  0  0  0
 23 26  1  0  0  0  0
 23 46  1  0  0  0  0
 25 26  2  0  0  0  0
 25 47  1  0  0  0  0
 26 48  1  0  0  0  0
 27 49  1  0  0  0  0
 27 50  1  0  0  0  0
 27 51  1  0  0  0  0
M  END
> <PUBCHEM_COMPOUND_CID>
9885603

> <PUBCHEM_CONFORMER_RMSD>
0.8

> <PUBCHEM_CONFORMER_DIVERSEORDER>
1
2

> <PUBCHEM_MMFF94_PARTIAL_CHARGES>
29
1 -0.36
11 0.14
13 0.27
14 0.27
15 -0.14
16 0.28
17 0.57
18 -0.12
19 0.12
2 -0.57
20 -0.15
22 -0.07
23 -0.15
24 0.71
25 -0.15
26 -0.15
27 0.28
3 -0.43
4 -0.57
40 0.37
41 0.15
45 0.15
46 0.15
47 0.15
48 0.15
5 -0.81
6 -0.55
7 0.27
8 0.2

> <PUBCHEM_EFFECTIVE_ROTOR_COUNT>
3.4

> <PUBCHEM_PHARMACOPHORE_FEATURES>
10
1 1 acceptor
1 2 acceptor
1 4 acceptor
1 5 cation
1 6 donor
5 5 7 8 12 14 rings
5 6 8 15 17 19 rings
6 1 10 11 16 18 22 rings
6 15 19 20 23 25 26 rings
6 5 7 9 10 11 13 rings

> <PUBCHEM_HEAVY_ATOM_COUNT>
27

> <PUBCHEM_ATOM_DEF_STEREO_COUNT>
5

> <PUBCHEM_ATOM_UDEF_STEREO_COUNT>
0

> <PUBCHEM_BOND_DEF_STEREO_COUNT>
0

> <PUBCHEM_BOND_UDEF_STEREO_COUNT>
0

> <PUBCHEM_ISOTOPIC_ATOM_COUNT>
0

> <PUBCHEM_COMPONENT_COUNT>
1

> <PUBCHEM_CACTVS_TAUTO_COUNT>
2

> <PUBCHEM_CONFORMER_ID>
0096D7A300000001

> <PUBCHEM_MMFF94_ENERGY>
78.7307

> <PUBCHEM_FEATURE_SELFOVERLAP>
50.97

> <PUBCHEM_SHAPE_FINGERPRINT>
10165383 225 17607212442926013870
11578080 2 17822560634136750617
11582403 64 17831340363744874429
11595378 159 18270402663695906265
11725454 13 18048630245377797033
12156800 1 13856791273000963690
12160290 23 18409166585194491527
12553582 1 17908685260214629731
12633257 1 16988014914864967480
12788726 201 18058441011776108355
128993 33 18188474809626000846
13134695 92 17244703708477845622
13224815 77 18338792308481979639
13294875 104 17765718305685541295
13533116 47 15338539644709444129
13965767 371 18339934808727889804
14178342 30 18130795542082461274
14468879 13 18187093836307278275
14957384 54 18264228983627221312
15295992 7 17969776569857562723
17349148 13 18341346508711757687
17921350 177 17559106799034634468
17974551 9 18046100204745359386
18219364 16 17313383357755217482
18981168 100 17894911810722140666
19315092 285 16484174474608764059
21033648 29 18268432515153797629
21304303 282 17909592537975363663
21427221 339 17560806571175696536
21756936 100 17913492334047460960
22149856 69 18262510516669723721
23419403 2 14244519282369924174
23493267 7 18270666641091988270
23536364 44 16810902305303942556
23559900 14 18268417092136779823
238 59 16443359670983038000
238918 7 16478847731667454485
3187 122 18121786024014527947
3797600 57 17770487639207550162
392239 28 17052730773569935896
469060 322 17681288667688907343
495365 180 17970074550404264869
5252454 2 17749935683498353963
7097593 13 17632306712786661064
7808743 9 17898849046340688536
81228 2 16957327249239926870
9981440 41 17751670742906708586

> <PUBCHEM_SHAPE_MULTIPOLES>
522.21
7.35
3.58
2.65
0.78
0.09
-0.57
4.6
-2.72
3.87
0.69
-2.39
0.19
1.97

> <PUBCHEM_SHAPE_SELFOVERLAP>
1153.773

> <PUBCHEM_SHAPE_VOLUME>
279.7

> <PUBCHEM_COORDINATE_TYPE>
2
5
10

$$$$

