159038
  -OEChem-07051213102D

 46 48  0     1  0  0  0  0  0999 V2000
    3.5000   -1.6387    0.0000 Br  0  0  0  0  0  0  0  0  0  0  0  0
    3.5000    1.8254    0.0000 Br  0  0  0  0  0  0  0  0  0  0  0  0
    6.0878   -0.7157    0.0000 O   0  0  0  0  0  0  0  0  0  0  0  0
    5.5000   -1.6387    0.0000 O   0  0  0  0  0  0  0  0  0  0  0  0
    2.5000    0.0933    0.0000 O   0  0  0  0  0  0  0  0  0  0  0  0
    7.7433    2.1756    0.0000 O   0  0  0  0  0  0  0  0  0  0  0  0
    7.0388   -0.4067    0.0000 N   0  0  0  0  0  0  0  0  0  0  0  0
    8.7614    0.7744    0.0000 N   0  0  0  0  0  0  0  0  0  0  0  0
   12.4144    0.1583    0.0000 N   0  0  0  0  0  0  0  0  0  0  0  0
   13.8157    0.9674    0.0000 N   0  0  0  0  0  0  0  0  0  0  0  0
   13.9090   -0.8122    0.0000 N   0  0  0  0  0  0  0  0  0  0  0  0
    5.5000    0.0933    0.0000 C   0  0  2  0  0  0  0  0  0  0  0  0
    6.0878    0.9024    0.0000 C   0  0  0  0  0  0  0  0  0  0  0  0
    5.0000   -0.7727    0.0000 C   0  0  2  0  0  0  0  0  0  0  0  0
    5.0000    0.9594    0.0000 C   0  0  0  0  0  0  0  0  0  0  0  0
    7.0388    0.5933    0.0000 C   0  0  0  0  0  0  0  0  0  0  0  0
    4.0000   -0.7727    0.0000 C   0  0  0  0  0  0  0  0  0  0  0  0
    4.0000    0.9594    0.0000 C   0  0  0  0  0  0  0  0  0  0  0  0
    3.5000    0.0933    0.0000 C   0  0  0  0  0  0  0  0  0  0  0  0
    7.8479    1.1811    0.0000 C   0  0  0  0  0  0  0  0  0  0  0  0
    9.5704    1.3622    0.0000 C   0  0  0  0  0  0  0  0  0  0  0  0
   10.4840    0.9554    0.0000 C   0  0  0  0  0  0  0  0  0  0  0  0
   11.2930    1.5432    0.0000 C   0  0  0  0  0  0  0  0  0  0  0  0
   12.2065    1.1365    0.0000 C   0  0  0  0  0  0  0  0  0  0  0  0
    2.0000    0.9594    0.0000 C   0  0  0  0  0  0  0  0  0  0  0  0
   13.0726    1.6365    0.0000 C   0  0  0  0  0  0  0  0  0  0  0  0
   13.4090    0.0538    0.0000 C   0  0  0  0  0  0  0  0  0  0  0  0
    6.3400    1.4688    0.0000 H   0  0  0  0  0  0  0  0  0  0  0  0
    5.5508    1.2124    0.0000 H   0  0  0  0  0  0  0  0  0  0  0  0
    4.6900   -1.3096    0.0000 H   0  0  0  0  0  0  0  0  0  0  0  0
    5.3100    1.4963    0.0000 H   0  0  0  0  0  0  0  0  0  0  0  0
    5.1900   -2.1756    0.0000 H   0  0  0  0  0  0  0  0  0  0  0  0
    9.9171    1.8762    0.0000 H   0  0  0  0  0  0  0  0  0  0  0  0
    9.1244    1.7929    0.0000 H   0  0  0  0  0  0  0  0  0  0  0  0
    8.8262    0.1578    0.0000 H   0  0  0  0  0  0  0  0  0  0  0  0
   10.1373    0.4414    0.0000 H   0  0  0  0  0  0  0  0  0  0  0  0
   10.9300    0.5247    0.0000 H   0  0  0  0  0  0  0  0  0  0  0  0
   11.6397    2.0572    0.0000 H   0  0  0  0  0  0  0  0  0  0  0  0
   10.8470    1.9739    0.0000 H   0  0  0  0  0  0  0  0  0  0  0  0
   11.9996   -0.3024    0.0000 H   0  0  0  0  0  0  0  0  0  0  0  0
    2.5369    1.2694    0.0000 H   0  0  0  0  0  0  0  0  0  0  0  0
    1.6900    1.4963    0.0000 H   0  0  0  0  0  0  0  0  0  0  0  0
    1.4631    0.6494    0.0000 H   0  0  0  0  0  0  0  0  0  0  0  0
   13.1374    2.2531    0.0000 H   0  0  0  0  0  0  0  0  0  0  0  0
   14.5290   -0.8122    0.0000 H   0  0  0  0  0  0  0  0  0  0  0  0
   13.5990   -1.3492    0.0000 H   0  0  0  0  0  0  0  0  0  0  0  0
  1 17  1  0  0  0  0
  2 18  1  0  0  0  0
  3  7  1  0  0  0  0
 12  3  1  6  0  0  0
 14  4  1  1  0  0  0
  4 32  1  0  0  0  0
  5 19  1  0  0  0  0
  5 25  1  0  0  0  0
  6 20  2  0  0  0  0
  7 16  2  0  0  0  0
  8 20  1  0  0  0  0
  8 21  1  0  0  0  0
  8 35  1  0  0  0  0
  9 24  1  0  0  0  0
  9 27  1  0  0  0  0
  9 40  1  0  0  0  0
 10 26  1  0  0  0  0
 10 27  2  0  0  0  0
 11 27  1  0  0  0  0
 11 45  1  0  0  0  0
 11 46  1  0  0  0  0
 12 13  1  0  0  0  0
 12 14  1  0  0  0  0
 12 15  1  0  0  0  0
 13 16  1  0  0  0  0
 13 28  1  0  0  0  0
 13 29  1  0  0  0  0
 14 17  1  0  0  0  0
 14 30  1  0  0  0  0
 15 18  2  0  0  0  0
 15 31  1  0  0  0  0
 16 20  1  0  0  0  0
 17 19  2  0  0  0  0
 18 19  1  0  0  0  0
 21 22  1  0  0  0  0
 21 33  1  0  0  0  0
 21 34  1  0  0  0  0
 22 23  1  0  0  0  0
 22 36  1  0  0  0  0
 22 37  1  0  0  0  0
 23 24  1  0  0  0  0
 23 38  1  0  0  0  0
 23 39  1  0  0  0  0
 24 26  2  0  0  0  0
 25 41  1  0  0  0  0
 25 42  1  0  0  0  0
 25 43  1  0  0  0  0
 26 44  1  0  0  0  0
M  END
> <PUBCHEM_COMPOUND_CID>
159038

> <PUBCHEM_COMPOUND_CANONICALIZED>
1

> <PUBCHEM_CACTVS_COMPLEXITY>
698

> <PUBCHEM_CACTVS_HBOND_ACCEPTOR>
7

> <PUBCHEM_CACTVS_HBOND_DONOR>
4

> <PUBCHEM_CACTVS_ROTATABLE_BOND>
6

> <PUBCHEM_CACTVS_SUBSKEYS>
AAADceB7uAAAGAAAAAAAAAAAAAAAAWIAAAAgAAAAAAAAAAABgAAAHgBUCAABjFzhlgYvkBbZlgCoATV3dAAAiC2xMqABWYE4cCiJfBJAuQCUUAAM1gLJ8CO6HAJOAAAAAAAAAAAAAAAAAAAAAAAAAAAAAA==

> <PUBCHEM_IUPAC_OPENEYE_NAME>
(6S,10R)-N-[3-(2-amino-1H-imidazol-5-yl)propyl]-7,9-dibromo-10-hydroxy-8-methoxy-1-oxa-2-azaspiro[4.5]deca-2,6,8-triene-3-carboxamide

> <PUBCHEM_IUPAC_CAS_NAME>
(6S,10R)-N-[3-(2-amino-1H-imidazol-5-yl)propyl]-7,9-dibromo-10-hydroxy-8-methoxy-1-oxa-2-azaspiro[4.5]deca-2,6,8-triene-3-carboxamide

> <PUBCHEM_IUPAC_NAME>
(6S,10R)-N-[3-(2-amino-1H-imidazol-5-yl)propyl]-7,9-dibromo-10-hydroxy-8-methoxy-1-oxa-2-azaspiro[4.5]deca-2,6,8-triene-3-carboxamide

> <PUBCHEM_IUPAC_SYSTEMATIC_NAME>
(6S,10R)-N-[3-(2-azanyl-1H-imidazol-5-yl)propyl]-7,9-bis(bromanyl)-8-methoxy-10-oxidanyl-1-oxa-2-azaspiro[4.5]deca-2,6,8-triene-3-carboxamide

> <PUBCHEM_IUPAC_TRADITIONAL_NAME>
(6S,10R)-N-[3-(2-amino-1H-imidazol-5-yl)propyl]-7,9-dibromo-10-hydroxy-8-methoxy-1-oxa-2-azaspiro[4.5]deca-2,6,8-triene-3-carboxamide

> <PUBCHEM_IUPAC_INCHI>
InChI=1S/C16H19Br2N5O4/c1-26-12-9(17)5-16(13(24)11(12)18)6-10(23-27-16)14(25)20-4-2-3-8-7-21-15(19)22-8/h5,7,13,24H,2-4,6H2,1H3,(H,20,25)(H3,19,21,22)/t13-,16+/m0/s1

> <PUBCHEM_IUPAC_INCHIKEY>
ZSZRBAQVYFYMTR-XJKSGUPXSA-N

> <PUBCHEM_XLOGP3_AA>
0.4

> <PUBCHEM_EXACT_MASS>
504.978332

> <PUBCHEM_MOLECULAR_FORMULA>
C16H19Br2N5O4

> <PUBCHEM_MOLECULAR_WEIGHT>
505.16116

> <PUBCHEM_OPENEYE_CAN_SMILES>
COC1=C(C(C2(CC(=NO2)C(=O)NCCCC3=CN=C(N3)N)C=C1Br)O)Br

> <PUBCHEM_OPENEYE_ISO_SMILES>
COC1=C([C@@H]([C@]2(CC(=NO2)C(=O)NCCCC3=CN=C(N3)N)C=C1Br)O)Br

> <PUBCHEM_CACTVS_TPSA>
135

> <PUBCHEM_MONOISOTOPIC_WEIGHT>
502.980378

> <PUBCHEM_TOTAL_CHARGE>
0

> <PUBCHEM_HEAVY_ATOM_COUNT>
27

> <PUBCHEM_ATOM_DEF_STEREO_COUNT>
2

> <PUBCHEM_ATOM_UDEF_STEREO_COUNT>
0

> <PUBCHEM_BOND_DEF_STEREO_COUNT>
0

> <PUBCHEM_BOND_UDEF_STEREO_COUNT>
0

> <PUBCHEM_ISOTOPIC_ATOM_COUNT>
0

> <PUBCHEM_COMPONENT_COUNT>
1

> <PUBCHEM_CACTVS_TAUTO_COUNT>
12

> <PUBCHEM_COORDINATE_TYPE>
1
5
255

> <PUBCHEM_BONDANNOTATIONS>
10  26  8
10  27  8
24  26  8
12  3  6
14  4  5
9  24  8
9  27  8

$$$$

