23724727
  -OEChem-07051213083D

 52 51  0     1  0  0  0  0  0999 V2000
    4.4825    1.5031    0.2709 O   0  0  0  0  0  0  0  0  0  0  0  0
    5.8414   -1.6583   -0.6547 O   0  0  0  0  0  0  0  0  0  0  0  0
    5.7468   -0.5713    1.3395 O   0  0  0  0  0  0  0  0  0  0  0  0
    3.7647    2.4946   -0.5104 O   0  0  0  0  0  0  0  0  0  0  0  0
    1.1179   -1.0835   -0.5882 C   0  0  0  0  0  0  0  0  0  0  0  0
    0.2107   -1.6526    0.5049 C   0  0  0  0  0  0  0  0  0  0  0  0
    2.4561   -0.5599   -0.0544 C   0  0  0  0  0  0  0  0  0  0  0  0
   -1.1158   -2.1529   -0.0732 C   0  0  0  0  0  0  0  0  0  0  0  0
    3.3946   -0.0619   -1.1569 C   0  0  0  0  0  0  0  0  0  0  0  0
   -2.0581   -2.7025    1.0017 C   0  0  0  0  0  0  0  0  0  0  0  0
    4.7437    0.4361   -0.6374 C   0  0  2  0  0  0  0  0  0  0  0  0
   -3.3586   -3.2111    0.4487 C   0  0  0  0  0  0  0  0  0  0  0  0
    5.4932   -0.6191    0.1443 C   0  0  0  0  0  0  0  0  0  0  0  0
   -4.4649   -2.4978    0.1847 C   0  0  0  0  0  0  0  0  0  0  0  0
   -4.6460   -1.0205    0.3867 C   0  0  0  0  0  0  0  0  0  0  0  0
   -4.9371   -0.3106   -0.9058 C   0  0  0  0  0  0  0  0  0  0  0  0
   -4.2193    0.6587   -1.4945 C   0  0  0  0  0  0  0  0  0  0  0  0
   -2.9571    1.2976   -0.9941 C   0  0  0  0  0  0  0  0  0  0  0  0
   -3.1292    2.7805   -0.8306 C   0  0  0  0  0  0  0  0  0  0  0  0
   -2.9178    3.4380    0.3194 C   0  0  0  0  0  0  0  0  0  0  0  0
   -2.4815    2.7730    1.5916 C   0  0  0  0  0  0  0  0  0  0  0  0
   -0.9663    2.7203    1.7078 C   0  0  0  0  0  0  0  0  0  0  0  0
    1.3105   -1.8627   -1.3361 H   0  0  0  0  0  0  0  0  0  0  0  0
    0.5968   -0.2685   -1.1060 H   0  0  0  0  0  0  0  0  0  0  0  0
    0.0136   -0.8769    1.2547 H   0  0  0  0  0  0  0  0  0  0  0  0
    0.7226   -2.4760    1.0172 H   0  0  0  0  0  0  0  0  0  0  0  0
    2.9417   -1.3659    0.5084 H   0  0  0  0  0  0  0  0  0  0  0  0
    2.2548    0.2481    0.6591 H   0  0  0  0  0  0  0  0  0  0  0  0
   -1.6068   -1.3375   -0.6152 H   0  0  0  0  0  0  0  0  0  0  0  0
   -0.9124   -2.9391   -0.8117 H   0  0  0  0  0  0  0  0  0  0  0  0
    2.8805    0.7140   -1.7361 H   0  0  0  0  0  0  0  0  0  0  0  0
    3.5712   -0.8872   -1.8589 H   0  0  0  0  0  0  0  0  0  0  0  0
   -1.5669   -3.5280    1.5319 H   0  0  0  0  0  0  0  0  0  0  0  0
   -2.2439   -1.9351    1.7623 H   0  0  0  0  0  0  0  0  0  0  0  0
    5.3879    0.8020   -1.4446 H   0  0  0  0  0  0  0  0  0  0  0  0
   -3.3894   -4.2774    0.2316 H   0  0  0  0  0  0  0  0  0  0  0  0
   -5.3237   -3.0364   -0.2128 H   0  0  0  0  0  0  0  0  0  0  0  0
   -3.7958   -0.5787    0.9093 H   0  0  0  0  0  0  0  0  0  0  0  0
   -5.5062   -0.8744    1.0519 H   0  0  0  0  0  0  0  0  0  0  0  0
   -5.8400   -0.6338   -1.4231 H   0  0  0  0  0  0  0  0  0  0  0  0
    6.3201   -2.3566   -0.1593 H   0  0  0  0  0  0  0  0  0  0  0  0
   -4.5909    1.0327   -2.4482 H   0  0  0  0  0  0  0  0  0  0  0  0
    4.5335    3.0661   -0.6772 H   0  0  0  0  0  0  0  0  0  0  0  0
   -2.5717    0.8044   -0.1028 H   0  0  0  0  0  0  0  0  0  0  0  0
   -2.1853    1.1408   -1.7591 H   0  0  0  0  0  0  0  0  0  0  0  0
   -3.4208    3.3542   -1.7074 H   0  0  0  0  0  0  0  0  0  0  0  0
   -3.0441    4.5172    0.3368 H   0  0  0  0  0  0  0  0  0  0  0  0
   -2.8805    3.3585    2.4295 H   0  0  0  0  0  0  0  0  0  0  0  0
   -2.9122    1.7745    1.7128 H   0  0  0  0  0  0  0  0  0  0  0  0
   -0.6771    2.2796    2.6673 H   0  0  0  0  0  0  0  0  0  0  0  0
   -0.5253    2.1105    0.9119 H   0  0  0  0  0  0  0  0  0  0  0  0
   -0.5284    3.7227    1.6516 H   0  0  0  0  0  0  0  0  0  0  0  0
  1  4  1  0  0  0  0
  1 11  1  0  0  0  0
  2 13  1  0  0  0  0
  2 41  1  0  0  0  0
  3 13  2  0  0  0  0
  4 43  1  0  0  0  0
  5  6  1  0  0  0  0
  5  7  1  0  0  0  0
  5 23  1  0  0  0  0
  5 24  1  0  0  0  0
  6  8  1  0  0  0  0
  6 25  1  0  0  0  0
  6 26  1  0  0  0  0
  7  9  1  0  0  0  0
  7 27  1  0  0  0  0
  7 28  1  0  0  0  0
  8 10  1  0  0  0  0
  8 29  1  0  0  0  0
  8 30  1  0  0  0  0
  9 11  1  0  0  0  0
  9 31  1  0  0  0  0
  9 32  1  0  0  0  0
 10 12  1  0  0  0  0
 10 33  1  0  0  0  0
 10 34  1  0  0  0  0
 11 13  1  0  0  0  0
 11 35  1  0  0  0  0
 12 14  2  0  0  0  0
 12 36  1  0  0  0  0
 14 15  1  0  0  0  0
 14 37  1  0  0  0  0
 15 16  1  0  0  0  0
 15 38  1  0  0  0  0
 15 39  1  0  0  0  0
 16 17  2  0  0  0  0
 16 40  1  0  0  0  0
 17 18  1  0  0  0  0
 17 42  1  0  0  0  0
 18 19  1  0  0  0  0
 18 44  1  0  0  0  0
 18 45  1  0  0  0  0
 19 20  2  0  0  0  0
 19 46  1  0  0  0  0
 20 21  1  0  0  0  0
 20 47  1  0  0  0  0
 21 22  1  0  0  0  0
 21 48  1  0  0  0  0
 21 49  1  0  0  0  0
 22 50  1  0  0  0  0
 22 51  1  0  0  0  0
 22 52  1  0  0  0  0
M  END
> <PUBCHEM_COMPOUND_CID>
23724727

> <PUBCHEM_CONFORMER_RMSD>
1.4

> <PUBCHEM_CONFORMER_DIVERSEORDER>
5
115
242
46
220
10
4
165
9
238
118
178
223
233
22
112
163
224
228
97
99
137
239
48
64
31
148
76
90
226
62
29
38
130
244
54
61
171
102
227
114
14
109
173
159
121
167
182
73
24
132
222
126
190
75
51
119
80
79
19
157
128
43
56
231
149
36
72
205
27
143
150
106
200
83
13
86
87
57
45
23
217
170
108
6
98
92
147
93
183
191
74
144
189
141
177
123
17
28
161
196
185
127
125
59
120
243
44
40
69
11
25
7
39
78
37
240
81
110
215
195
47
203
194
202
111
89
42
135
8
3
100
96
193
245
122
52
204
101
207
35
164
221
209
26
162
77
197
129
105
186
175
53
145
216
169
18
15
146
131
154
66
211
133
34
139
41
219
237
12
140
50
192
49
70
168
152
151
201
166
212
176
188
172
181
158
71
198
88
138
2
184
160
225
174
229
33
214
103
65
107
67
94
208
63
68
85
16
232
55
180
210
21
30
32
95
117
84
113
241
91
218
230
1
20
124
136
116
153
187
82
234
179
155
58
134
104
235
236
206
142
199
60
213
156

> <PUBCHEM_MMFF94_PARTIAL_CHARGES>
24
1 -0.28
10 0.14
11 0.34
12 -0.29
13 0.66
14 -0.29
15 0.28
16 -0.29
17 -0.29
18 0.28
19 -0.29
2 -0.65
20 -0.29
21 0.14
3 -0.57
36 0.15
37 0.15
4 -0.4
40 0.15
41 0.5
42 0.15
43 0.4
46 0.15
47 0.15

> <PUBCHEM_EFFECTIVE_ROTOR_COUNT>
14

> <PUBCHEM_PHARMACOPHORE_FEATURES>
4
1 2 acceptor
1 22 hydrophobe
1 3 acceptor
3 2 3 13 anion

> <PUBCHEM_HEAVY_ATOM_COUNT>
22

> <PUBCHEM_ATOM_DEF_STEREO_COUNT>
1

> <PUBCHEM_ATOM_UDEF_STEREO_COUNT>
0

> <PUBCHEM_BOND_DEF_STEREO_COUNT>
3

> <PUBCHEM_BOND_UDEF_STEREO_COUNT>
0

> <PUBCHEM_ISOTOPIC_ATOM_COUNT>
0

> <PUBCHEM_COMPONENT_COUNT>
1

> <PUBCHEM_CACTVS_TAUTO_COUNT>
1

> <PUBCHEM_CONFORMER_ID>
016A02B700000005

> <PUBCHEM_MMFF94_ENERGY>
11.3556

> <PUBCHEM_FEATURE_SELFOVERLAP>
20.355

> <PUBCHEM_SHAPE_FINGERPRINT>
100830 39 18342178890811898252
10669705 162 17680135568271501718
14251740 79 18342736317020645643
14251757 5 18342459197199230827
14251764 38 18408881850079296276
14931854 50 18265913513219656949
17844677 252 18343298133314047990
20765182 40 18410020930829339698
329604 57 18334858294564345988
373842 8 18264497187519478000
445580 125 18266452290506467286
469060 322 17773854494652666209
5283173 99 18410574036971036350
6299153 45 17915752074801911954

> <PUBCHEM_SHAPE_MULTIPOLES>
429.27
13.88
4.41
1.36
19.16
1.64
0.19
-2.05
-1.8
-5.67
1.48
-0.59
0.71
0.35

> <PUBCHEM_SHAPE_SELFOVERLAP>
809.227

> <PUBCHEM_SHAPE_VOLUME>
264

> <PUBCHEM_COORDINATE_TYPE>
2
5
10

$$$$

