5629
  -OEChem-06261200473D

 61 63  0     1  0  0  0  0  0999 V2000
   -1.7028    2.3825   -1.4084 O   0  0  0  0  0  0  0  0  0  0  0  0
   -1.6931    0.7179   -3.0354 O   0  0  0  0  0  0  0  0  0  0  0  0
   -3.6954    0.0333    1.2388 O   0  0  0  0  0  0  0  0  0  0  0  0
    5.6257    0.0329   -0.7172 O   0  0  0  0  0  0  0  0  0  0  0  0
    1.6880   -1.3510   -0.7322 O   0  0  0  0  0  0  0  0  0  0  0  0
    4.4265    0.0654    1.2414 O   0  0  0  0  0  0  0  0  0  0  0  0
    1.0348   -3.0160    0.7979 N   0  0  0  0  0  0  0  0  0  0  0  0
    4.3036   -1.7273   -0.2286 N   0  0  0  0  0  0  0  0  0  0  0  0
   -3.0909   -1.1837   -1.2094 C   0  0  1  0  0  0  0  0  0  0  0  0
   -4.6273   -1.3280   -1.2090 C   0  0  0  0  0  0  0  0  0  0  0  0
   -2.7077    0.2402   -0.9202 C   0  0  0  0  0  0  0  0  0  0  0  0
   -2.3915   -2.1394   -0.2587 C   0  0  0  0  0  0  0  0  0  0  0  0
   -3.0872    0.7321    0.4376 C   0  0  0  0  0  0  0  0  0  0  0  0
   -0.9996   -2.1385   -0.1675 C   0  0  0  0  0  0  0  0  0  0  0  0
   -5.3174   -0.3635   -2.1669 C   0  0  0  0  0  0  0  0  0  0  0  0
   -2.0572    1.0845   -1.7505 C   0  0  0  0  0  0  0  0  0  0  0  0
   -3.1411   -3.0180    0.5234 C   0  0  0  0  0  0  0  0  0  0  0  0
   -2.7000    2.1064    0.7784 C   0  0  0  0  0  0  0  0  0  0  0  0
   -0.3574   -3.0162    0.7059 C   0  0  0  0  0  0  0  0  0  0  0  0
   -2.0226    2.8630   -0.1690 C   0  0  0  0  0  0  0  0  0  0  0  0
   -2.4990   -3.8957    1.3968 C   0  0  0  0  0  0  0  0  0  0  0  0
    6.1707    1.3181   -0.3979 C   0  0  0  0  0  0  0  0  0  0  0  0
   -1.1072   -3.8948    1.4880 C   0  0  0  0  0  0  0  0  0  0  0  0
   -3.0033    2.6492    2.0302 C   0  0  0  0  0  0  0  0  0  0  0  0
   -1.6405    4.1724    0.1266 C   0  0  0  0  0  0  0  0  0  0  0  0
    5.0217    2.3188   -0.2826 C   0  0  0  0  0  0  0  0  0  0  0  0
    7.1143    1.7123   -1.5321 C   0  0  0  0  0  0  0  0  0  0  0  0
    6.9326    1.2088    0.9220 C   0  0  0  0  0  0  0  0  0  0  0  0
   -2.6209    3.9584    2.3248 C   0  0  0  0  0  0  0  0  0  0  0  0
   -1.9404    4.7193    1.3743 C   0  0  0  0  0  0  0  0  0  0  0  0
    1.9516   -2.2136    0.0991 C   0  0  0  0  0  0  0  0  0  0  0  0
    3.3776   -2.5409    0.5034 C   0  0  0  0  0  0  0  0  0  0  0  0
    4.7549   -0.4890    0.1976 C   0  0  0  0  0  0  0  0  0  0  0  0
   -2.7513   -1.4608   -2.2175 H   0  0  0  0  0  0  0  0  0  0  0  0
   -4.8882   -2.3434   -1.5378 H   0  0  0  0  0  0  0  0  0  0  0  0
   -5.0833   -1.1977   -0.2223 H   0  0  0  0  0  0  0  0  0  0  0  0
   -0.4693   -1.4486   -0.8079 H   0  0  0  0  0  0  0  0  0  0  0  0
   -5.2421    0.6743   -1.8287 H   0  0  0  0  0  0  0  0  0  0  0  0
   -6.3832   -0.6063   -2.2351 H   0  0  0  0  0  0  0  0  0  0  0  0
   -4.8935   -0.4355   -3.1737 H   0  0  0  0  0  0  0  0  0  0  0  0
   -4.2234   -3.0682    0.4963 H   0  0  0  0  0  0  0  0  0  0  0  0
   -3.0820   -4.5804    2.0059 H   0  0  0  0  0  0  0  0  0  0  0  0
   -0.6201   -4.5843    2.1728 H   0  0  0  0  0  0  0  0  0  0  0  0
   -3.5322    2.0721    2.7833 H   0  0  0  0  0  0  0  0  0  0  0  0
    1.4254   -3.6859    1.4574 H   0  0  0  0  0  0  0  0  0  0  0  0
   -1.1103    4.7716   -0.6087 H   0  0  0  0  0  0  0  0  0  0  0  0
    4.3166    2.2030   -1.1140 H   0  0  0  0  0  0  0  0  0  0  0  0
    4.4432    2.2434    0.6415 H   0  0  0  0  0  0  0  0  0  0  0  0
    5.4050    3.3459   -0.3085 H   0  0  0  0  0  0  0  0  0  0  0  0
    6.5799    1.7436   -2.4887 H   0  0  0  0  0  0  0  0  0  0  0  0
    7.9131    0.9707   -1.6481 H   0  0  0  0  0  0  0  0  0  0  0  0
    7.5731    2.6913   -1.3597 H   0  0  0  0  0  0  0  0  0  0  0  0
    6.2996    1.1834    1.8124 H   0  0  0  0  0  0  0  0  0  0  0  0
    7.5562    0.3074    0.9421 H   0  0  0  0  0  0  0  0  0  0  0  0
    7.5918    2.0751    1.0552 H   0  0  0  0  0  0  0  0  0  0  0  0
   -2.8535    4.3858    3.2959 H   0  0  0  0  0  0  0  0  0  0  0  0
   -1.6437    5.7381    1.6058 H   0  0  0  0  0  0  0  0  0  0  0  0
   -1.2495    1.4971   -3.4136 H   0  0  0  0  0  0  0  0  0  0  0  0
    3.4989   -2.3676    1.5775 H   0  0  0  0  0  0  0  0  0  0  0  0
    3.5912   -3.5890    0.2732 H   0  0  0  0  0  0  0  0  0  0  0  0
    4.6415   -2.0716   -1.1223 H   0  0  0  0  0  0  0  0  0  0  0  0
  1 16  1  0  0  0  0
  1 20  1  0  0  0  0
  2 16  1  0  0  0  0
  2 58  1  0  0  0  0
  3 13  2  0  0  0  0
  4 22  1  0  0  0  0
  4 33  1  0  0  0  0
  5 31  2  0  0  0  0
  6 33  2  0  0  0  0
  7 19  1  0  0  0  0
  7 31  1  0  0  0  0
  7 45  1  0  0  0  0
  8 32  1  0  0  0  0
  8 33  1  0  0  0  0
  8 61  1  0  0  0  0
  9 10  1  0  0  0  0
  9 11  1  0  0  0  0
  9 12  1  0  0  0  0
  9 34  1  0  0  0  0
 10 15  1  0  0  0  0
 10 35  1  0  0  0  0
 10 36  1  0  0  0  0
 11 13  1  0  0  0  0
 11 16  2  0  0  0  0
 12 14  2  0  0  0  0
 12 17  1  0  0  0  0
 13 18  1  0  0  0  0
 14 19  1  0  0  0  0
 14 37  1  0  0  0  0
 15 38  1  0  0  0  0
 15 39  1  0  0  0  0
 15 40  1  0  0  0  0
 17 21  2  0  0  0  0
 17 41  1  0  0  0  0
 18 20  1  0  0  0  0
 18 24  2  0  0  0  0
 19 23  2  0  0  0  0
 20 25  2  0  0  0  0
 21 23  1  0  0  0  0
 21 42  1  0  0  0  0
 22 26  1  0  0  0  0
 22 27  1  0  0  0  0
 22 28  1  0  0  0  0
 23 43  1  0  0  0  0
 24 29  1  0  0  0  0
 24 44  1  0  0  0  0
 25 30  1  0  0  0  0
 25 46  1  0  0  0  0
 26 47  1  0  0  0  0
 26 48  1  0  0  0  0
 26 49  1  0  0  0  0
 27 50  1  0  0  0  0
 27 51  1  0  0  0  0
 27 52  1  0  0  0  0
 28 53  1  0  0  0  0
 28 54  1  0  0  0  0
 28 55  1  0  0  0  0
 29 30  2  0  0  0  0
 29 56  1  0  0  0  0
 30 57  1  0  0  0  0
 31 32  1  0  0  0  0
 32 59  1  0  0  0  0
 32 60  1  0  0  0  0
M  END
> <PUBCHEM_COMPOUND_CID>
5629

> <PUBCHEM_CONFORMER_RMSD>
1.2

> <PUBCHEM_CONFORMER_DIVERSEORDER>
2
12
200
106
187
192
146
110
46
128
202
4
118
93
122
60
52
197
205
207
59
10
193
55
212
159
67
104
206
61
135
50
64
28
11
215
117
204
180
92
68
90
84
102
161
1
25
107
191
182
80
58
91
88
158
185
190
127
155
178
42
114
164
140
203
154
78
56
171
81
210
139
65
31
32
156
149
16
145
143
13
134
82
14
213
133
130
22
201
99
173
103
129
194
160
15
116
112
24
124
49
96
57
168
20
177
148
147
43
141
137
175
125
76
172
37
70
153
123
138
29
69
53
199
183
165
27
142
18
19
120
79
85
184
47
113
174
167
115
33
144
132
179
108
8
131
211
54
17
39
196
119
181
51
188
3
77
35
73
40
209
186
63
121
36
7
30
34
74
163
45
101
176
98
9
170
189
166
75
136
6
48
198
89
111
66
44
157
86
169
5
195
162
38
71
151
95
41
152
87
62
72
109
83
94
21
97
23
214
150
100
208
126
26
105

> <PUBCHEM_MMFF94_PARTIAL_CHARGES>
39
1 -0.16
11 -0.12
12 -0.14
13 0.47
14 -0.15
16 0.15
17 -0.15
18 0.09
19 0.12
2 -0.53
20 0.08
21 -0.15
22 0.28
23 -0.15
24 -0.15
25 -0.15
29 -0.15
3 -0.57
30 -0.15
31 0.57
32 0.36
33 0.78
37 0.15
4 -0.43
41 0.15
42 0.15
43 0.15
44 0.15
45 0.37
46 0.15
5 -0.57
56 0.15
57 0.15
58 0.45
6 -0.57
61 0.37
7 -0.55
8 -0.73
9 0.28

> <PUBCHEM_EFFECTIVE_ROTOR_COUNT>
10

> <PUBCHEM_PHARMACOPHORE_FEATURES>
12
1 1 acceptor
1 15 hydrophobe
1 2 donor
1 3 acceptor
1 5 acceptor
1 6 acceptor
1 7 donor
1 8 donor
4 22 26 27 28 hydrophobe
6 1 11 13 16 18 20 rings
6 12 14 17 19 21 23 rings
6 18 20 24 25 29 30 rings

> <PUBCHEM_HEAVY_ATOM_COUNT>
33

> <PUBCHEM_ATOM_DEF_STEREO_COUNT>
0

> <PUBCHEM_ATOM_UDEF_STEREO_COUNT>
1

> <PUBCHEM_BOND_DEF_STEREO_COUNT>
0

> <PUBCHEM_BOND_UDEF_STEREO_COUNT>
0

> <PUBCHEM_ISOTOPIC_ATOM_COUNT>
0

> <PUBCHEM_COMPONENT_COUNT>
1

> <PUBCHEM_CACTVS_TAUTO_COUNT>
12

> <PUBCHEM_CONFORMER_ID>
000015FD00000002

> <PUBCHEM_MMFF94_ENERGY>
95.3613

> <PUBCHEM_FEATURE_SELFOVERLAP>
60.919

> <PUBCHEM_SHAPE_FINGERPRINT>
10305334 12 18187911903002638865
10670039 82 18408881816215299980
10816530 145 18056747741936159283
11059048 146 18338229475141242386
12788726 201 18337123322940301555
14279260 333 17823973649452047950
14347329 18 18409729544070326042
14363568 33 17403727853329832234
14394314 77 18409722959616909785
14400156 266 17749394733680732575
15347590 135 17702376256779774714
16112460 7 18341331214644283722
16992787 43 18341901801434530079
18393751 57 18270665589342440475
20764821 26 18121781625952484816
22956985 138 16473732270983739218
23398203 216 18337939208071506800
23516275 100 17754476559770653032
354706 132 18338784707297682188
3918712 181 18269000795873757508
4197921 191 18202002089305137166
4616759 239 17270890434200177800
469060 322 16630232650265868579
4756261 7 18193247854986938889
50150288 127 17604694690031615928
50677037 204 18412259520099510908
5171179 24 17688882938693865135
550186 7 18260257534911435414
6371009 1 18196955450575947874
6608658 132 18260275113764204350
7288768 16 18270108140629792515
9980921 221 18195498491112373996

> <PUBCHEM_SHAPE_MULTIPOLES>
633.95
13.75
6.3
2.02
33.95
2.55
-0.52
4.71
-3.48
-5.27
4.07
-2.13
0.97
-1.78

> <PUBCHEM_SHAPE_SELFOVERLAP>
1357.218

> <PUBCHEM_SHAPE_VOLUME>
346.8

> <PUBCHEM_COORDINATE_TYPE>
2
5
10

$$$$

