6795
  -OEChem-07051213123D

 26 28  0     0  0  0  0  0  0999 V2000
    1.3674    0.7839   -0.2098 N   0  3  0  0  0  0  0  0  0  0  0  0
   -1.3673    0.7842    0.2094 N   0  3  0  0  0  0  0  0  0  0  0  0
    0.5905    2.0095   -0.4686 C   0  0  0  0  0  0  0  0  0  0  0  0
   -0.5901    2.0096    0.4677 C   0  0  0  0  0  0  0  0  0  0  0  0
    0.7338   -0.4009    0.0147 C   0  0  0  0  0  0  0  0  0  0  0  0
   -0.7337   -0.4007   -0.0159 C   0  0  0  0  0  0  0  0  0  0  0  0
    2.7175    0.8648   -0.2225 C   0  0  0  0  0  0  0  0  0  0  0  0
   -2.7174    0.8647    0.2239 C   0  0  0  0  0  0  0  0  0  0  0  0
    1.5114   -1.5459    0.2574 C   0  0  0  0  0  0  0  0  0  0  0  0
   -1.5117   -1.5457   -0.2584 C   0  0  0  0  0  0  0  0  0  0  0  0
    3.5097   -0.2476    0.0094 C   0  0  0  0  0  0  0  0  0  0  0  0
   -3.5099   -0.2476   -0.0075 C   0  0  0  0  0  0  0  0  0  0  0  0
    2.8986   -1.4643    0.2550 C   0  0  0  0  0  0  0  0  0  0  0  0
   -2.8989   -1.4640   -0.2547 C   0  0  0  0  0  0  0  0  0  0  0  0
    0.2949    1.9767   -1.5232 H   0  0  0  0  0  0  0  0  0  0  0  0
    1.2195    2.8869   -0.2908 H   0  0  0  0  0  0  0  0  0  0  0  0
   -0.2944    1.9770    1.5223 H   0  0  0  0  0  0  0  0  0  0  0  0
   -1.2191    2.8870    0.2896 H   0  0  0  0  0  0  0  0  0  0  0  0
    3.1507    1.8379   -0.4236 H   0  0  0  0  0  0  0  0  0  0  0  0
   -3.1503    1.8378    0.4260 H   0  0  0  0  0  0  0  0  0  0  0  0
    1.0503   -2.5087    0.4589 H   0  0  0  0  0  0  0  0  0  0  0  0
   -1.0507   -2.5084   -0.4606 H   0  0  0  0  0  0  0  0  0  0  0  0
    4.5913   -0.1649   -0.0013 H   0  0  0  0  0  0  0  0  0  0  0  0
   -4.5915   -0.1649    0.0044 H   0  0  0  0  0  0  0  0  0  0  0  0
    3.4978   -2.3498    0.4434 H   0  0  0  0  0  0  0  0  0  0  0  0
   -3.4983   -2.3495   -0.4429 H   0  0  0  0  0  0  0  0  0  0  0  0
  1  3  1  0  0  0  0
  1  5  1  0  0  0  0
  1  7  2  0  0  0  0
  2  4  1  0  0  0  0
  2  6  1  0  0  0  0
  2  8  2  0  0  0  0
  3  4  1  0  0  0  0
  3 15  1  0  0  0  0
  3 16  1  0  0  0  0
  4 17  1  0  0  0  0
  4 18  1  0  0  0  0
  5  6  1  0  0  0  0
  5  9  2  0  0  0  0
  6 10  2  0  0  0  0
  7 11  1  0  0  0  0
  7 19  1  0  0  0  0
  8 12  1  0  0  0  0
  8 20  1  0  0  0  0
  9 13  1  0  0  0  0
  9 21  1  0  0  0  0
 10 14  1  0  0  0  0
 10 22  1  0  0  0  0
 11 13  2  0  0  0  0
 11 23  1  0  0  0  0
 12 14  2  0  0  0  0
 12 24  1  0  0  0  0
 13 25  1  0  0  0  0
 14 26  1  0  0  0  0
M  CHG  2   1   1   2   1
M  END
> <PUBCHEM_COMPOUND_CID>
6795

> <PUBCHEM_CONFORMER_RMSD>
0.4

> <PUBCHEM_CONFORMER_DIVERSEORDER>
1
2

> <PUBCHEM_MMFF94_PARTIAL_CHARGES>
22
1 -0.21
10 -0.15
11 -0.15
12 -0.15
13 -0.15
14 -0.15
19 0.15
2 -0.21
20 0.15
21 0.15
22 0.15
23 0.15
24 0.15
25 0.15
26 0.15
3 0.49
4 0.49
5 0.36
6 0.36
7 0.21
8 0.21
9 -0.15

> <PUBCHEM_EFFECTIVE_ROTOR_COUNT>
0.4

> <PUBCHEM_PHARMACOPHORE_FEATURES>
3
6 1 2 3 4 5 6 rings
6 1 5 7 9 11 13 rings
6 2 6 8 10 12 14 rings

> <PUBCHEM_HEAVY_ATOM_COUNT>
14

> <PUBCHEM_ATOM_DEF_STEREO_COUNT>
0

> <PUBCHEM_ATOM_UDEF_STEREO_COUNT>
0

> <PUBCHEM_BOND_DEF_STEREO_COUNT>
0

> <PUBCHEM_BOND_UDEF_STEREO_COUNT>
0

> <PUBCHEM_ISOTOPIC_ATOM_COUNT>
0

> <PUBCHEM_COMPONENT_COUNT>
1

> <PUBCHEM_CACTVS_TAUTO_COUNT>
1

> <PUBCHEM_CONFORMER_ID>
00001A8B00000001

> <PUBCHEM_MMFF94_ENERGY>
45.272

> <PUBCHEM_FEATURE_SELFOVERLAP>
15.285

> <PUBCHEM_SHAPE_FINGERPRINT>
10130415 120 18412266133720808339
10967382 1 18266741281406615214
11132069 177 18408892857937830194
11471102 20 18341056233220222727
11769659 78 18410862061493077634
11806522 49 18265620870526168159
12032990 46 18410568487593624067
12382932 28 18334858341703049650
13221675 6 18410853265400061934
14144814 61 18410292514564854795
14325111 11 18410573989446450912
14993402 34 18408887347447388143
15196674 1 18410573989446457415
15375462 189 18341608213742852179
15442244 35 18266458909056241290
15536298 74 18334012761964843512
16945 1 18410572889934985540
17844478 74 17775279478459066541
200 152 18261405433529894111
20201158 50 18342459218420586387
20510252 161 18041841851586588784
20559304 39 18338514127665764750
20871998 184 18114184189092159119
21267235 1 18410846664035607299
21501502 16 18410572894240333448
21501925 9 18410584958893242794
22445834 79 18340204188717615707
2334 1 18410855434369115402
23388829 49 18410292493105862044
23402539 116 18261404376487897855
23463225 33 18411418431662057622
23552423 10 18196371412242925397
23559900 14 18261117421945112202
2748010 2 17041758162677726127
3312278 4 18411696565090915003
34934 24 18410583880756114112
5104073 3 18410292510196009395
528886 8 18410860944949273898
53812654 25 18260556610120591159
7364860 26 18190182273932749408
8809292 202 18201152161562186835

> <PUBCHEM_SHAPE_MULTIPOLES>
278.15
5.44
2.08
0.67
0
0.42
0
-1.49
0
0
0
0
0.04
-0.43

> <PUBCHEM_SHAPE_SELFOVERLAP>
615.342

> <PUBCHEM_SHAPE_VOLUME>
147

> <PUBCHEM_COORDINATE_TYPE>
2
5
10

$$$$

