8279
  -OEChem-06261202423D

 35 35  0     1  0  0  0  0  0999 V2000
   -1.5590   -0.1233   -0.2072 S   0  0  0  0  0  0  0  0  0  0  0  0
    3.7288    2.7053   -0.8160 S   0  0  0  0  0  0  0  0  0  0  0  0
    1.0836   -1.2454   -1.9789 O   0  0  0  0  0  0  0  0  0  0  0  0
    0.3804    0.7479    2.1977 O   0  0  0  0  0  0  0  0  0  0  0  0
    2.2684    0.5937   -1.2895 N   0  0  0  0  0  0  0  0  0  0  0  0
    2.0634    1.5324    0.8760 N   0  0  0  0  0  0  0  0  0  0  0  0
    1.0577   -0.6915    0.3865 C   0  0  2  0  0  0  0  0  0  0  0  0
    2.0671   -1.6758    0.9968 C   0  0  0  0  0  0  0  0  0  0  0  0
   -0.3532   -1.2951    0.4543 C   0  0  0  0  0  0  0  0  0  0  0  0
    1.4339   -0.4850   -1.0784 C   0  0  0  0  0  0  0  0  0  0  0  0
    1.1119    0.5968    1.2201 C   0  0  0  0  0  0  0  0  0  0  0  0
    2.1055   -2.9705    0.2144 C   0  0  0  0  0  0  0  0  0  0  0  0
   -3.0537   -1.1170    0.0160 C   0  0  0  0  0  0  0  0  0  0  0  0
   -4.3105   -0.4346   -0.5236 C   0  0  0  0  0  0  0  0  0  0  0  0
   -4.6407    0.8873    0.1748 C   0  0  0  0  0  0  0  0  0  0  0  0
    2.5686    1.5070   -0.3108 C   0  0  0  0  0  0  0  0  0  0  0  0
   -5.9523    1.4677   -0.3321 C   0  0  0  0  0  0  0  0  0  0  0  0
    1.8091   -1.8877    2.0423 H   0  0  0  0  0  0  0  0  0  0  0  0
    3.0749   -1.2413    1.0115 H   0  0  0  0  0  0  0  0  0  0  0  0
   -0.6273   -1.5386    1.4871 H   0  0  0  0  0  0  0  0  0  0  0  0
   -0.4491   -2.2050   -0.1438 H   0  0  0  0  0  0  0  0  0  0  0  0
    1.1467   -3.4912    0.1747 H   0  0  0  0  0  0  0  0  0  0  0  0
    2.4973   -2.8502   -0.7987 H   0  0  0  0  0  0  0  0  0  0  0  0
    2.7973   -3.6580    0.7167 H   0  0  0  0  0  0  0  0  0  0  0  0
   -3.1807   -1.3305    1.0827 H   0  0  0  0  0  0  0  0  0  0  0  0
   -2.9212   -2.0711   -0.5051 H   0  0  0  0  0  0  0  0  0  0  0  0
   -4.2084   -0.2671   -1.6034 H   0  0  0  0  0  0  0  0  0  0  0  0
   -5.1535   -1.1256   -0.3963 H   0  0  0  0  0  0  0  0  0  0  0  0
    2.6461    0.7269   -2.2222 H   0  0  0  0  0  0  0  0  0  0  0  0
   -4.7142    0.7274    1.2568 H   0  0  0  0  0  0  0  0  0  0  0  0
   -3.8506    1.6266    0.0070 H   0  0  0  0  0  0  0  0  0  0  0  0
   -6.1718    2.4107    0.1784 H   0  0  0  0  0  0  0  0  0  0  0  0
   -6.7838    0.7802   -0.1467 H   0  0  0  0  0  0  0  0  0  0  0  0
   -5.9033    1.6667   -1.4075 H   0  0  0  0  0  0  0  0  0  0  0  0
    3.9627    2.2345   -2.0489 H   0  0  0  0  0  0  0  0  0  0  0  0
  1  9  1  0  0  0  0
  1 13  1  0  0  0  0
  2 16  1  0  0  0  0
  2 35  1  0  0  0  0
  3 10  2  0  0  0  0
  4 11  2  0  0  0  0
  5 10  1  0  0  0  0
  5 16  1  0  0  0  0
  5 29  1  0  0  0  0
  6 11  1  0  0  0  0
  6 16  2  0  0  0  0
  7  8  1  0  0  0  0
  7  9  1  0  0  0  0
  7 10  1  0  0  0  0
  7 11  1  0  0  0  0
  8 12  1  0  0  0  0
  8 18  1  0  0  0  0
  8 19  1  0  0  0  0
  9 20  1  0  0  0  0
  9 21  1  0  0  0  0
 12 22  1  0  0  0  0
 12 23  1  0  0  0  0
 12 24  1  0  0  0  0
 13 14  1  0  0  0  0
 13 25  1  0  0  0  0
 13 26  1  0  0  0  0
 14 15  1  0  0  0  0
 14 27  1  0  0  0  0
 14 28  1  0  0  0  0
 15 17  1  0  0  0  0
 15 30  1  0  0  0  0
 15 31  1  0  0  0  0
 17 32  1  0  0  0  0
 17 33  1  0  0  0  0
 17 34  1  0  0  0  0
M  END
> <PUBCHEM_COMPOUND_CID>
8279

> <PUBCHEM_CONFORMER_RMSD>
0.8

> <PUBCHEM_CONFORMER_DIVERSEORDER>
1
26
17
32
28
25
33
30
22
16
21
8
19
31
18
15
7
35
27
29
20
24
6
34
10
2
4
5
23
3
11
14
12
9
13

> <PUBCHEM_MMFF94_PARTIAL_CHARGES>
14
1 -0.46
10 0.57
11 0.72
13 0.23
16 0.65
2 -0.32
29 0.37
3 -0.57
35 0.18
4 -0.57
5 -0.49
6 -0.66
7 0.12
9 0.23

> <PUBCHEM_EFFECTIVE_ROTOR_COUNT>
6.4

> <PUBCHEM_PHARMACOPHORE_FEATURES>
8
1 12 hydrophobe
1 17 hydrophobe
1 3 acceptor
1 4 acceptor
1 5 donor
1 6 donor
5 1 9 13 14 15 hydrophobe
6 5 6 7 10 11 16 rings

> <PUBCHEM_HEAVY_ATOM_COUNT>
17

> <PUBCHEM_ATOM_DEF_STEREO_COUNT>
0

> <PUBCHEM_ATOM_UDEF_STEREO_COUNT>
1

> <PUBCHEM_BOND_DEF_STEREO_COUNT>
0

> <PUBCHEM_BOND_UDEF_STEREO_COUNT>
0

> <PUBCHEM_ISOTOPIC_ATOM_COUNT>
0

> <PUBCHEM_COMPONENT_COUNT>
1

> <PUBCHEM_CACTVS_TAUTO_COUNT>
5

> <PUBCHEM_CONFORMER_ID>
0000205700000001

> <PUBCHEM_MMFF94_ENERGY>
36.9657

> <PUBCHEM_FEATURE_SELFOVERLAP>
40.631

> <PUBCHEM_SHAPE_FINGERPRINT>
10498660 4 18410293597598532101
12616999 72 17530681005078810271
13134695 92 17824005495468515682
13464514 151 18410003304372967658
15163728 17 17843098351976996684
16945 1 17473821728607367106
20233049 118 17749109980325481609
20645477 70 18113896083192618487
212847 35 18335143150413216977
21452121 103 18131637798185788893
21503847 285 17560519629117094005
2255824 54 18342181110825226331
231179 274 18262515892591541897
23402655 69 17894624838583150901
23419403 2 17829926417688011034
2838139 119 18052253990869459524
3009799 131 18260536854041169918
3060560 45 16877947105054679717
427121 178 16702020855048597520
633830 44 18340769217740923460
7364860 26 18341333365958986934
77188 2 17981894352275124442
81539 233 18339360764804786662

> <PUBCHEM_SHAPE_MULTIPOLES>
335.85
8.7
2.65
1.42
16.99
0.22
0.13
-5.98
-1.4
-2.99
-0.17
-0.88
-0.03
-0.42

> <PUBCHEM_SHAPE_SELFOVERLAP>
650.911

> <PUBCHEM_SHAPE_VOLUME>
206.5

> <PUBCHEM_COORDINATE_TYPE>
2
5
10

$$$$

