5215
  -OEChem-07051212542D

 27 28  0     0  0  0  0  0  0999 V2000
    3.0000    0.6550    0.0000 S   0  0  0  0  0  0  0  0  0  0  0  0
    4.0000    0.6550    0.0000 O   0  0  0  0  0  0  0  0  0  0  0  0
    2.0000    0.6550    0.0000 O   0  0  0  0  0  0  0  0  0  0  0  0
    3.0000    1.6550    0.0000 N   0  0  0  0  0  0  0  0  0  0  0  0
    3.0000   -3.3450    0.0000 N   0  0  0  0  0  0  0  0  0  0  0  0
    3.8660    3.1550    0.0000 N   0  0  0  0  0  0  0  0  0  0  0  0
    4.7320    1.6550    0.0000 N   0  0  0  0  0  0  0  0  0  0  0  0
    3.0000   -0.3450    0.0000 C   0  0  0  0  0  0  0  0  0  0  0  0
    2.1340   -0.8450    0.0000 C   0  0  0  0  0  0  0  0  0  0  0  0
    3.8660   -0.8450    0.0000 C   0  0  0  0  0  0  0  0  0  0  0  0
    3.0000   -2.3450    0.0000 C   0  0  0  0  0  0  0  0  0  0  0  0
    2.1340   -1.8450    0.0000 C   0  0  0  0  0  0  0  0  0  0  0  0
    3.8660   -1.8450    0.0000 C   0  0  0  0  0  0  0  0  0  0  0  0
    3.8660    2.1550    0.0000 C   0  0  0  0  0  0  0  0  0  0  0  0
    4.7320    3.6550    0.0000 C   0  0  0  0  0  0  0  0  0  0  0  0
    5.5981    2.1550    0.0000 C   0  0  0  0  0  0  0  0  0  0  0  0
    5.5981    3.1550    0.0000 C   0  0  0  0  0  0  0  0  0  0  0  0
    1.5970   -0.5350    0.0000 H   0  0  0  0  0  0  0  0  0  0  0  0
    4.4030   -0.5350    0.0000 H   0  0  0  0  0  0  0  0  0  0  0  0
    2.4631    1.9650    0.0000 H   0  0  0  0  0  0  0  0  0  0  0  0
    1.5970   -2.1550    0.0000 H   0  0  0  0  0  0  0  0  0  0  0  0
    4.4030   -2.1550    0.0000 H   0  0  0  0  0  0  0  0  0  0  0  0
    2.4631   -3.6550    0.0000 H   0  0  0  0  0  0  0  0  0  0  0  0
    3.5369   -3.6550    0.0000 H   0  0  0  0  0  0  0  0  0  0  0  0
    4.7320    4.2750    0.0000 H   0  0  0  0  0  0  0  0  0  0  0  0
    6.1350    1.8450    0.0000 H   0  0  0  0  0  0  0  0  0  0  0  0
    6.1350    3.4650    0.0000 H   0  0  0  0  0  0  0  0  0  0  0  0
  1  2  2  0  0  0  0
  1  3  2  0  0  0  0
  1  4  1  0  0  0  0
  1  8  1  0  0  0  0
  4 14  1  0  0  0  0
  4 20  1  0  0  0  0
  5 11  1  0  0  0  0
  5 23  1  0  0  0  0
  5 24  1  0  0  0  0
  6 14  1  0  0  0  0
  6 15  2  0  0  0  0
  7 14  2  0  0  0  0
  7 16  1  0  0  0  0
  8  9  2  0  0  0  0
  8 10  1  0  0  0  0
  9 12  1  0  0  0  0
  9 18  1  0  0  0  0
 10 13  2  0  0  0  0
 10 19  1  0  0  0  0
 11 12  2  0  0  0  0
 11 13  1  0  0  0  0
 12 21  1  0  0  0  0
 13 22  1  0  0  0  0
 15 17  1  0  0  0  0
 15 25  1  0  0  0  0
 16 17  2  0  0  0  0
 16 26  1  0  0  0  0
 17 27  1  0  0  0  0
M  END
> <PUBCHEM_COMPOUND_CID>
5215

> <PUBCHEM_COMPOUND_CANONICALIZED>
1

> <PUBCHEM_CACTVS_COMPLEXITY>
327

> <PUBCHEM_CACTVS_HBOND_ACCEPTOR>
6

> <PUBCHEM_CACTVS_HBOND_DONOR>
2

> <PUBCHEM_CACTVS_ROTATABLE_BOND>
3

> <PUBCHEM_CACTVS_SUBSKEYS>
AAADccBzsABAAAAAAAAAAAAAAAAAAAAAAAA8QAAAAAAAAAABwAAAHAQQQAAACAjBUgQ90ZZIEAKgADRnZHDCgDkxAqAJ2Dg4ZJiIKKLA2dGEJAhokAJIyCcQAAAAAAQAAAAAAAAACAAAAAAAAAAAAAAAAA==

> <PUBCHEM_IUPAC_OPENEYE_NAME>
4-amino-N-pyrimidin-2-yl-benzenesulfonamide

> <PUBCHEM_IUPAC_CAS_NAME>
4-amino-N-(2-pyrimidinyl)benzenesulfonamide

> <PUBCHEM_IUPAC_NAME>
4-amino-N-pyrimidin-2-ylbenzenesulfonamide

> <PUBCHEM_IUPAC_SYSTEMATIC_NAME>
4-azanyl-N-pyrimidin-2-yl-benzenesulfonamide

> <PUBCHEM_IUPAC_TRADITIONAL_NAME>
4-amino-N-(2-pyrimidyl)benzenesulfonamide

> <PUBCHEM_IUPAC_INCHI>
InChI=1S/C10H10N4O2S/c11-8-2-4-9(5-3-8)17(15,16)14-10-12-6-1-7-13-10/h1-7H,11H2,(H,12,13,14)

> <PUBCHEM_IUPAC_INCHIKEY>
SEEPANYCNGTZFQ-UHFFFAOYSA-N

> <PUBCHEM_XLOGP3>
-0.1

> <PUBCHEM_EXACT_MASS>
250.052447

> <PUBCHEM_MOLECULAR_FORMULA>
C10H10N4O2S

> <PUBCHEM_MOLECULAR_WEIGHT>
250.277

> <PUBCHEM_OPENEYE_CAN_SMILES>
C1=CN=C(N=C1)NS(=O)(=O)C2=CC=C(C=C2)N

> <PUBCHEM_OPENEYE_ISO_SMILES>
C1=CN=C(N=C1)NS(=O)(=O)C2=CC=C(C=C2)N

> <PUBCHEM_CACTVS_TPSA>
106

> <PUBCHEM_MONOISOTOPIC_WEIGHT>
250.052447

> <PUBCHEM_TOTAL_CHARGE>
0

> <PUBCHEM_HEAVY_ATOM_COUNT>
17

> <PUBCHEM_ATOM_DEF_STEREO_COUNT>
0

> <PUBCHEM_ATOM_UDEF_STEREO_COUNT>
0

> <PUBCHEM_BOND_DEF_STEREO_COUNT>
0

> <PUBCHEM_BOND_UDEF_STEREO_COUNT>
0

> <PUBCHEM_ISOTOPIC_ATOM_COUNT>
0

> <PUBCHEM_COMPONENT_COUNT>
1

> <PUBCHEM_CACTVS_TAUTO_COUNT>
2

> <PUBCHEM_COORDINATE_TYPE>
1
5
255

> <PUBCHEM_BONDANNOTATIONS>
10  13  8
11  12  8
11  13  8
15  17  8
16  17  8
6  14  8
6  15  8
7  14  8
7  16  8
8  10  8
8  9  8
9  12  8

$$$$

