41774
  -OEChem-07051212523D

 87 90  0     1  0  0  0  0  0999 V2000
   -0.3664    0.8415    0.0690 O   0  0  0  0  0  0  0  0  0  0  0  0
    1.6777    1.4891    1.0118 O   0  0  0  0  0  0  0  0  0  0  0  0
   -3.2457    0.3720    0.6852 O   0  0  0  0  0  0  0  0  0  0  0  0
   -4.8018   -0.0491   -1.0142 O   0  0  0  0  0  0  0  0  0  0  0  0
    2.9835    2.1745   -2.2648 O   0  0  0  0  0  0  0  0  0  0  0  0
    1.6710   -0.8374   -0.6980 O   0  0  0  0  0  0  0  0  0  0  0  0
   -2.5681    3.6143   -0.7311 O   0  0  0  0  0  0  0  0  0  0  0  0
   -6.7036   -2.5117    0.9622 O   0  0  0  0  0  0  0  0  0  0  0  0
   -2.2489    0.2378   -2.0334 O   0  0  0  0  0  0  0  0  0  0  0  0
    5.2987   -2.4689    1.2122 O   0  0  0  0  0  0  0  0  0  0  0  0
    7.0304   -2.3268   -2.0081 O   0  0  0  0  0  0  0  0  0  0  0  0
   -7.2887    1.2995   -0.5152 O   0  0  0  0  0  0  0  0  0  0  0  0
    8.2554   -2.5577    1.3892 O   0  0  0  0  0  0  0  0  0  0  0  0
   -2.2124    3.0838    2.9101 O   0  0  0  0  0  0  0  0  0  0  0  0
   -9.5147   -0.5429   -0.3523 O   0  0  0  0  0  0  0  0  0  0  0  0
   -8.2427   -3.0090   -0.7712 O   0  0  0  0  0  0  0  0  0  0  0  0
   -4.3059   -3.8169    0.9483 O   0  0  0  0  0  0  0  0  0  0  0  0
   10.1213    0.2004   -0.1159 O   0  0  0  0  0  0  0  0  0  0  0  0
    4.2656    0.0114    0.4284 N   0  0  0  0  0  0  0  0  0  0  0  0
    3.8333    1.2803   -0.1731 C   0  0  1  0  0  0  0  0  0  0  0  0
    3.0599    0.9890   -1.4737 C   0  0  1  0  0  0  0  0  0  0  0  0
   -1.3149    1.8650    0.3861 C   0  0  1  0  0  0  0  0  0  0  0  0
    1.6352    0.4949   -1.2089 C   0  0  2  0  0  0  0  0  0  0  0  0
    2.9870    2.0519    0.8632 C   0  0  1  0  0  0  0  0  0  0  0  0
    0.9230    1.3922   -0.1946 C   0  0  1  0  0  0  0  0  0  0  0  0
   -1.9170    2.3640   -0.9339 C   0  0  1  0  0  0  0  0  0  0  0  0
   -2.3568    1.2764    1.3531 C   0  0  1  0  0  0  0  0  0  0  0  0
    5.4476   -0.5112   -0.2629 C   0  0  2  0  0  0  0  0  0  0  0  0
   -2.9345    1.3746   -1.5065 C   0  0  2  0  0  0  0  0  0  0  0  0
   -3.9315    0.9227   -0.4374 C   0  0  2  0  0  0  0  0  0  0  0  0
    5.5257   -2.0476   -0.1329 C   0  0  1  0  0  0  0  0  0  0  0  0
   -5.7696   -0.5038   -0.0714 C   0  0  1  0  0  0  0  0  0  0  0  0
    6.8839   -2.5783   -0.6114 C   0  0  2  0  0  0  0  0  0  0  0  0
   -7.1560   -0.1218   -0.5939 C   0  0  1  0  0  0  0  0  0  0  0  0
    2.9085    3.5550    0.5879 C   0  0  0  0  0  0  0  0  0  0  0  0
   -5.6498   -2.0211    0.1257 C   0  0  1  0  0  0  0  0  0  0  0  0
    6.7031    0.1846    0.1942 C   0  0  0  0  0  0  0  0  0  0  0  0
    8.0631   -1.9185    0.1278 C   0  0  1  0  0  0  0  0  0  0  0  0
   -3.1315    2.3327    2.1386 C   0  0  0  0  0  0  0  0  0  0  0  0
   -8.2475   -0.7728    0.2534 C   0  0  2  0  0  0  0  0  0  0  0  0
    7.8796   -0.4393    0.3856 C   0  0  0  0  0  0  0  0  0  0  0  0
   -8.0074   -2.2733    0.4280 C   0  0  2  0  0  0  0  0  0  0  0  0
   -4.3334   -2.4100    0.7932 C   0  0  0  0  0  0  0  0  0  0  0  0
    9.0955    0.3107    0.8516 C   0  0  0  0  0  0  0  0  0  0  0  0
    4.7008    1.9116   -0.3990 H   0  0  0  0  0  0  0  0  0  0  0  0
    3.5717    0.2507   -2.0983 H   0  0  0  0  0  0  0  0  0  0  0  0
   -0.7971    2.6849    0.9010 H   0  0  0  0  0  0  0  0  0  0  0  0
    1.0492    0.4709   -2.1354 H   0  0  0  0  0  0  0  0  0  0  0  0
    3.4645    1.9547    1.8472 H   0  0  0  0  0  0  0  0  0  0  0  0
    0.8173    2.3901   -0.6340 H   0  0  0  0  0  0  0  0  0  0  0  0
   -1.1326    2.5266   -1.6815 H   0  0  0  0  0  0  0  0  0  0  0  0
   -1.8124    0.6623    2.0824 H   0  0  0  0  0  0  0  0  0  0  0  0
    5.3867   -0.3101   -1.3392 H   0  0  0  0  0  0  0  0  0  0  0  0
   -3.4901    1.8252   -2.3377 H   0  0  0  0  0  0  0  0  0  0  0  0
    3.5048   -0.6659    0.3973 H   0  0  0  0  0  0  0  0  0  0  0  0
   -4.5424    1.7762   -0.1212 H   0  0  0  0  0  0  0  0  0  0  0  0
    4.7259   -2.4833   -0.7459 H   0  0  0  0  0  0  0  0  0  0  0  0
   -5.6439   -0.0144    0.9059 H   0  0  0  0  0  0  0  0  0  0  0  0
    6.9158   -3.6646   -0.4627 H   0  0  0  0  0  0  0  0  0  0  0  0
   -7.2673   -0.3845   -1.6523 H   0  0  0  0  0  0  0  0  0  0  0  0
   -5.7012   -2.5402   -0.8407 H   0  0  0  0  0  0  0  0  0  0  0  0
    2.2843    4.0427    1.3447 H   0  0  0  0  0  0  0  0  0  0  0  0
    2.4615    3.7896   -0.3808 H   0  0  0  0  0  0  0  0  0  0  0  0
    3.9047    4.0077    0.6176 H   0  0  0  0  0  0  0  0  0  0  0  0
    6.6588    1.2576    0.3642 H   0  0  0  0  0  0  0  0  0  0  0  0
    8.9779   -2.0686   -0.4579 H   0  0  0  0  0  0  0  0  0  0  0  0
   -3.6909    3.0156    1.4947 H   0  0  0  0  0  0  0  0  0  0  0  0
   -3.8523    1.8511    2.8082 H   0  0  0  0  0  0  0  0  0  0  0  0
   -8.2624   -0.2896    1.2388 H   0  0  0  0  0  0  0  0  0  0  0  0
    3.8935    2.4547   -2.4616 H   0  0  0  0  0  0  0  0  0  0  0  0
   -8.7306   -2.6479    1.1619 H   0  0  0  0  0  0  0  0  0  0  0  0
    2.1033   -1.3952   -1.3670 H   0  0  0  0  0  0  0  0  0  0  0  0
   -1.9035    4.2400   -0.3960 H   0  0  0  0  0  0  0  0  0  0  0  0
   -1.6447    0.5547   -2.7262 H   0  0  0  0  0  0  0  0  0  0  0  0
   -4.2500   -1.9637    1.7895 H   0  0  0  0  0  0  0  0  0  0  0  0
   -3.4743   -2.1209    0.1820 H   0  0  0  0  0  0  0  0  0  0  0  0
    5.3339   -3.4405    1.2251 H   0  0  0  0  0  0  0  0  0  0  0  0
    9.4557   -0.1048    1.7985 H   0  0  0  0  0  0  0  0  0  0  0  0
    8.8855    1.3741    1.0085 H   0  0  0  0  0  0  0  0  0  0  0  0
    7.8630   -2.7385   -2.2957 H   0  0  0  0  0  0  0  0  0  0  0  0
   -7.2010    1.5616    0.4170 H   0  0  0  0  0  0  0  0  0  0  0  0
    8.4490   -3.4949    1.2168 H   0  0  0  0  0  0  0  0  0  0  0  0
   -2.7271    3.7377    3.4129 H   0  0  0  0  0  0  0  0  0  0  0  0
  -10.1877   -0.9676    0.2065 H   0  0  0  0  0  0  0  0  0  0  0  0
   -8.5097   -3.9066   -0.5100 H   0  0  0  0  0  0  0  0  0  0  0  0
   -3.4623   -4.0424    1.3762 H   0  0  0  0  0  0  0  0  0  0  0  0
   10.8939    0.6805    0.2279 H   0  0  0  0  0  0  0  0  0  0  0  0
  1 22  1  0  0  0  0
  1 25  1  0  0  0  0
  2 24  1  0  0  0  0
  2 25  1  0  0  0  0
  3 27  1  0  0  0  0
  3 30  1  0  0  0  0
  4 30  1  0  0  0  0
  4 32  1  0  0  0  0
  5 21  1  0  0  0  0
  5 70  1  0  0  0  0
  6 23  1  0  0  0  0
  6 72  1  0  0  0  0
  7 26  1  0  0  0  0
  7 73  1  0  0  0  0
  8 36  1  0  0  0  0
  8 42  1  0  0  0  0
  9 29  1  0  0  0  0
  9 74  1  0  0  0  0
 10 31  1  0  0  0  0
 10 77  1  0  0  0  0
 11 33  1  0  0  0  0
 11 80  1  0  0  0  0
 12 34  1  0  0  0  0
 12 81  1  0  0  0  0
 13 38  1  0  0  0  0
 13 82  1  0  0  0  0
 14 39  1  0  0  0  0
 14 83  1  0  0  0  0
 15 40  1  0  0  0  0
 15 84  1  0  0  0  0
 16 42  1  0  0  0  0
 16 85  1  0  0  0  0
 17 43  1  0  0  0  0
 17 86  1  0  0  0  0
 18 44  1  0  0  0  0
 18 87  1  0  0  0  0
 19 20  1  0  0  0  0
 19 28  1  0  0  0  0
 19 55  1  0  0  0  0
 20 21  1  0  0  0  0
 20 24  1  0  0  0  0
 20 45  1  0  0  0  0
 21 23  1  0  0  0  0
 21 46  1  0  0  0  0
 22 26  1  0  0  0  0
 22 27  1  0  0  0  0
 22 47  1  0  0  0  0
 23 25  1  0  0  0  0
 23 48  1  0  0  0  0
 24 35  1  0  0  0  0
 24 49  1  0  0  0  0
 25 50  1  0  0  0  0
 26 29  1  0  0  0  0
 26 51  1  0  0  0  0
 27 39  1  0  0  0  0
 27 52  1  0  0  0  0
 28 31  1  0  0  0  0
 28 37  1  0  0  0  0
 28 53  1  0  0  0  0
 29 30  1  0  0  0  0
 29 54  1  0  0  0  0
 30 56  1  0  0  0  0
 31 33  1  0  0  0  0
 31 57  1  0  0  0  0
 32 34  1  0  0  0  0
 32 36  1  0  0  0  0
 32 58  1  0  0  0  0
 33 38  1  0  0  0  0
 33 59  1  0  0  0  0
 34 40  1  0  0  0  0
 34 60  1  0  0  0  0
 35 62  1  0  0  0  0
 35 63  1  0  0  0  0
 35 64  1  0  0  0  0
 36 43  1  0  0  0  0
 36 61  1  0  0  0  0
 37 41  2  0  0  0  0
 37 65  1  0  0  0  0
 38 41  1  0  0  0  0
 38 66  1  0  0  0  0
 39 67  1  0  0  0  0
 39 68  1  0  0  0  0
 40 42  1  0  0  0  0
 40 69  1  0  0  0  0
 41 44  1  0  0  0  0
 42 71  1  0  0  0  0
 43 75  1  0  0  0  0
 43 76  1  0  0  0  0
 44 78  1  0  0  0  0
 44 79  1  0  0  0  0
M  END
> <PUBCHEM_COMPOUND_CID>
41774

> <PUBCHEM_CONFORMER_RMSD>
1.2

> <PUBCHEM_CONFORMER_DIVERSEORDER>
2
32
33
16
29
21
17
36
20
12
30
34
35
27
15
39
37
26
18
4
24
19
23
9
8
38
10
3
7
6
31
13
25
14
28
11
22
5
1

> <PUBCHEM_MMFF94_PARTIAL_CHARGES>
58
1 -0.56
10 -0.68
11 -0.68
12 -0.68
13 -0.68
14 -0.68
15 -0.68
16 -0.68
17 -0.68
18 -0.68
19 -0.9
2 -0.56
20 0.27
21 0.28
22 0.28
23 0.28
24 0.28
25 0.56
26 0.28
27 0.28
28 0.41
29 0.28
3 -0.56
30 0.56
31 0.28
32 0.28
33 0.28
34 0.28
36 0.28
37 -0.29
38 0.42
39 0.28
4 -0.56
40 0.28
41 -0.28
42 0.56
43 0.28
44 0.42
5 -0.68
55 0.36
6 -0.68
65 0.15
7 -0.68
70 0.4
72 0.4
73 0.4
74 0.4
77 0.4
8 -0.56
80 0.4
81 0.4
82 0.4
83 0.4
84 0.4
85 0.4
86 0.4
87 0.4
9 -0.68

> <PUBCHEM_EFFECTIVE_ROTOR_COUNT>
13.4

> <PUBCHEM_PHARMACOPHORE_FEATURES>
37
1 1 acceptor
1 10 acceptor
1 10 donor
1 11 acceptor
1 11 donor
1 12 acceptor
1 12 donor
1 13 acceptor
1 13 donor
1 14 acceptor
1 14 donor
1 15 acceptor
1 15 donor
1 16 acceptor
1 16 donor
1 17 acceptor
1 17 donor
1 18 acceptor
1 18 donor
1 19 cation
1 19 donor
1 2 acceptor
1 3 acceptor
1 4 acceptor
1 5 acceptor
1 5 donor
1 6 acceptor
1 6 donor
1 7 acceptor
1 7 donor
1 8 acceptor
1 9 acceptor
1 9 donor
6 2 20 21 23 24 25 rings
6 28 31 33 37 38 41 rings
6 3 22 26 27 29 30 rings
6 8 32 34 36 40 42 rings

> <PUBCHEM_HEAVY_ATOM_COUNT>
44

> <PUBCHEM_ATOM_DEF_STEREO_COUNT>
18

> <PUBCHEM_ATOM_UDEF_STEREO_COUNT>
1

> <PUBCHEM_BOND_DEF_STEREO_COUNT>
0

> <PUBCHEM_BOND_UDEF_STEREO_COUNT>
0

> <PUBCHEM_ISOTOPIC_ATOM_COUNT>
0

> <PUBCHEM_COMPONENT_COUNT>
1

> <PUBCHEM_CACTVS_TAUTO_COUNT>
1

> <PUBCHEM_CONFORMER_ID>
0000A32E00000002

> <PUBCHEM_MMFF94_ENERGY>
121.661

> <PUBCHEM_FEATURE_SELFOVERLAP>
187.931

> <PUBCHEM_SHAPE_FINGERPRINT>
10 15 16588026831434784396
10369192 42 10519992556867342499
10674148 151 17632580457692943021
10677351 14 18131344203697638052
11135609 12 18411984633127131948
11135609 201 7637398501756031557
11135609 99 18410573946897945294
12013929 94 18409164399488621880
12120059 9 17749392560216525199
13560911 43 18409171017405997448
13782708 43 18410853265437089316
13811026 1 18342739602401458448
14040222 275 17489008436254805356
14068700 675 17989487420019392389
14664723 55 10159695828680820694
15064986 266 18409172138503549925
15510800 12 18260540164844199038
18603816 31 18041569040582554207
18608769 82 18341898467923138594
19302320 297 7276824697768263906
19841028 212 18412265025824831682
2026 5 18129666425767697698
20505436 4 9367347011650982365
21033650 10 16629969940344497069
21130935 74 18188770695236237690
23576562 1 11167357485051188131
3178227 256 18040999531685946622
3383291 50 18334295370402373150
439807 62 18413106156182744325
4461854 278 17312822663245508070
504579 68 14117799111496073264
5718773 13 18411418410081583116
6081469 158 18343584032391553149
6691757 9 15357707387655326989
9896288 288 17605264280542494713
9962374 69 18041290867569965366

> <PUBCHEM_SHAPE_MULTIPOLES>
794.87
30.43
3.93
1.61
11.37
0.46
-0.12
25.94
-1.49
-1.57
-0.97
-0.05
-0.81
0.29

> <PUBCHEM_SHAPE_SELFOVERLAP>
1651.984

> <PUBCHEM_SHAPE_VOLUME>
441.4

> <PUBCHEM_COORDINATE_TYPE>
2
5
10

$$$$

