7847011
  -OEChem-06241222483D

 40 42  0     0  0  0  0  0  0999 V2000
    2.3410    2.3724   -1.2163 S   0  0  0  0  0  0  0  0  0  0  0  0
   -2.0992   -0.4120   -2.6664 F   0  0  0  0  0  0  0  0  0  0  0  0
   -2.0666   -2.0757    1.7835 F   0  0  0  0  0  0  0  0  0  0  0  0
    2.2409   -2.0221   -0.9759 O   0  0  0  0  0  0  0  0  0  0  0  0
    3.3762   -2.0975    1.0309 O   0  0  0  0  0  0  0  0  0  0  0  0
    0.2126   -1.9618    1.3867 O   0  0  0  0  0  0  0  0  0  0  0  0
    2.0067    1.1400    1.0246 N   0  0  0  0  0  0  0  0  0  0  0  0
   -0.8556   -1.9340   -0.7086 N   0  0  0  0  0  0  0  0  0  0  0  0
    4.1826    0.6888   -0.0536 C   0  0  0  0  0  0  0  0  0  0  0  0
    4.1425   -0.6678   -0.7815 C   0  0  0  0  0  0  0  0  0  0  0  0
    2.8497    1.3237    0.0355 C   0  0  0  0  0  0  0  0  0  0  0  0
    0.8506    2.6237   -0.3864 C   0  0  0  0  0  0  0  0  0  0  0  0
    0.8551    1.8793    0.7969 C   0  0  0  0  0  0  0  0  0  0  0  0
    3.2352   -1.6717   -0.1071 C   0  0  0  0  0  0  0  0  0  0  0  0
   -0.2438    3.4221   -0.7562 C   0  0  0  0  0  0  0  0  0  0  0  0
   -0.2771    1.9377    1.6384 C   0  0  0  0  0  0  0  0  0  0  0  0
   -1.3514    3.4623    0.0943 C   0  0  0  0  0  0  0  0  0  0  0  0
   -1.3699    2.7305    1.2766 C   0  0  0  0  0  0  0  0  0  0  0  0
    1.2958   -2.9751   -0.4791 C   0  0  0  0  0  0  0  0  0  0  0  0
   -2.0670   -1.2520   -0.4446 C   0  0  0  0  0  0  0  0  0  0  0  0
    0.1599   -2.2328    0.1908 C   0  0  0  0  0  0  0  0  0  0  0  0
   -2.6558   -0.5027   -1.4498 C   0  0  0  0  0  0  0  0  0  0  0  0
   -2.6390   -1.3486    0.8131 C   0  0  0  0  0  0  0  0  0  0  0  0
   -3.8504    0.1689   -1.1900 C   0  0  0  0  0  0  0  0  0  0  0  0
   -3.8337   -0.6772    1.0730 C   0  0  0  0  0  0  0  0  0  0  0  0
   -4.4393    0.0817    0.0714 C   0  0  0  0  0  0  0  0  0  0  0  0
    4.5663    0.5363    0.9633 H   0  0  0  0  0  0  0  0  0  0  0  0
    4.9027    1.3455   -0.5565 H   0  0  0  0  0  0  0  0  0  0  0  0
    5.1466   -1.1055   -0.8197 H   0  0  0  0  0  0  0  0  0  0  0  0
    3.8261   -0.5239   -1.8221 H   0  0  0  0  0  0  0  0  0  0  0  0
   -0.2367    3.9954   -1.6781 H   0  0  0  0  0  0  0  0  0  0  0  0
   -0.3033    1.3678    2.5630 H   0  0  0  0  0  0  0  0  0  0  0  0
   -2.2097    4.0726   -0.1739 H   0  0  0  0  0  0  0  0  0  0  0  0
   -2.2413    2.7720    1.9244 H   0  0  0  0  0  0  0  0  0  0  0  0
    1.7456   -3.6871    0.2222 H   0  0  0  0  0  0  0  0  0  0  0  0
    0.9285   -3.5575   -1.3307 H   0  0  0  0  0  0  0  0  0  0  0  0
   -0.6277   -2.0227   -1.6969 H   0  0  0  0  0  0  0  0  0  0  0  0
   -4.3213    0.7603   -1.9696 H   0  0  0  0  0  0  0  0  0  0  0  0
   -4.2916   -0.7446    2.0553 H   0  0  0  0  0  0  0  0  0  0  0  0
   -5.3690    0.6054    0.2740 H   0  0  0  0  0  0  0  0  0  0  0  0
  1 11  1  0  0  0  0
  1 12  1  0  0  0  0
  2 22  1  0  0  0  0
  3 23  1  0  0  0  0
  4 14  1  0  0  0  0
  4 19  1  0  0  0  0
  5 14  2  0  0  0  0
  6 21  2  0  0  0  0
  7 11  2  0  0  0  0
  7 13  1  0  0  0  0
  8 20  1  0  0  0  0
  8 21  1  0  0  0  0
  8 37  1  0  0  0  0
  9 10  1  0  0  0  0
  9 11  1  0  0  0  0
  9 27  1  0  0  0  0
  9 28  1  0  0  0  0
 10 14  1  0  0  0  0
 10 29  1  0  0  0  0
 10 30  1  0  0  0  0
 12 13  1  0  0  0  0
 12 15  2  0  0  0  0
 13 16  2  0  0  0  0
 15 17  1  0  0  0  0
 15 31  1  0  0  0  0
 16 18  1  0  0  0  0
 16 32  1  0  0  0  0
 17 18  2  0  0  0  0
 17 33  1  0  0  0  0
 18 34  1  0  0  0  0
 19 21  1  0  0  0  0
 19 35  1  0  0  0  0
 19 36  1  0  0  0  0
 20 22  2  0  0  0  0
 20 23  1  0  0  0  0
 22 24  1  0  0  0  0
 23 25  2  0  0  0  0
 24 26  2  0  0  0  0
 24 38  1  0  0  0  0
 25 26  1  0  0  0  0
 25 39  1  0  0  0  0
 26 40  1  0  0  0  0
M  END
> <PUBCHEM_COMPOUND_CID>
7847011

> <PUBCHEM_CONFORMER_RMSD>
1

> <PUBCHEM_CONFORMER_DIVERSEORDER>
1
170
243
205
126
162
172
166
288
74
252
171
40
27
151
212
154
223
287
107
131
150
283
224
147
244
82
222
57
165
264
111
54
129
204
293
177
206
254
185
232
201
176
168
39
207
158
10
105
215
203
81
19
247
22
161
167
213
128
142
4
116
266
8
67
189
26
270
275
69
62
294
192
5
274
282
104
64
271
42
175
239
43
55
79
218
135
258
164
141
277
265
152
120
80
291
73
59
179
18
61
256
3
138
100
51
300
114
6
249
106
149
58
112
20
260
137
238
139
125
259
290
228
251
237
132
246
196
219
95
46
233
208
297
209
38
255
98
17
44
37
295
75
198
191
269
268
65
71
278
272
273
163
76
197
30
11
280
216
193
248
221
89
134
113
231
53
156
133
180
35
279
250
225
66
119
121
49
123
15
178
236
257
160
136
234
84
118
50
289
97
16
187
130
210
202
56
229
103
36
29
253
230
262
226
292
108
144
285
267
70
211
93
159
199
34
182
32
45
263
241
173
195
2
109
14
115
169
24
31
240
110
184
296
47
23
88
298
85
181
188
41
90
261
68
174
286
242
94
101
200
13
102
52
140
143
235
77
86
183
157
194
220
299
7
186
12
92
153
245
117
60
145
281
91
72
146
78
217
63
301
227
214
28
96
127
48
122
190
276
87
155
33
148
25
284
21
99
124
9
83

> <PUBCHEM_MMFF94_PARTIAL_CHARGES>
34
1 -0.08
10 0.06
11 0.2
12 0.04
13 0.23
14 0.66
15 -0.15
16 -0.15
17 -0.15
18 -0.15
19 0.34
2 -0.19
20 0.12
21 0.57
22 0.19
23 0.19
24 -0.15
25 -0.15
26 -0.15
3 -0.19
31 0.15
32 0.15
33 0.15
34 0.15
37 0.37
38 0.15
39 0.15
4 -0.43
40 0.15
5 -0.57
6 -0.57
7 -0.57
8 -0.55
9 0.18

> <PUBCHEM_EFFECTIVE_ROTOR_COUNT>
8

> <PUBCHEM_PHARMACOPHORE_FEATURES>
7
1 5 acceptor
1 6 acceptor
1 7 acceptor
1 8 donor
5 1 7 11 12 13 rings
6 12 13 15 16 17 18 rings
6 20 22 23 24 25 26 rings

> <PUBCHEM_HEAVY_ATOM_COUNT>
26

> <PUBCHEM_ATOM_DEF_STEREO_COUNT>
0

> <PUBCHEM_ATOM_UDEF_STEREO_COUNT>
0

> <PUBCHEM_BOND_DEF_STEREO_COUNT>
0

> <PUBCHEM_BOND_UDEF_STEREO_COUNT>
0

> <PUBCHEM_ISOTOPIC_ATOM_COUNT>
0

> <PUBCHEM_COMPONENT_COUNT>
1

> <PUBCHEM_CACTVS_TAUTO_COUNT>
4

> <PUBCHEM_CONFORMER_ID>
0077BC6300000001

> <PUBCHEM_MMFF94_ENERGY>
52.7878

> <PUBCHEM_FEATURE_SELFOVERLAP>
35.592

> <PUBCHEM_SHAPE_FINGERPRINT>
10165383 225 17476898178889288821
104564 63 18262798591776259224
11513181 2 17678451081195352303
12156800 1 15655436611782759772
12422481 6 17827050095391328689
12553582 1 18335981961351886896
12788726 201 18261377954319156180
128993 33 17553211999718491997
13122387 1 17401202768852347108
13140716 1 18049727322001586280
14114207 22 16541100731316825275
14117953 113 16031834819684991989
14251757 17 17988651808467113421
14713325 29 16333839233744473516
151778 21 17982155730698807205
17093844 170 18411142432990591752
17357779 13 18334293210249191638
17492 54 17403741541496632141
17921350 177 17344379715902814852
19930381 70 17833270818527287523
20905425 154 18261671592236515301
21236236 1 18263360468816311046
238 59 17689742777849685575
3027735 51 18263358243152443456
3052486 1 18053958526012708394
338550 245 18196076957939116161
35225 105 17042865358197336367
3524813 1 18059579057307307591
463206 1 18187934906873291527
6438718 38 17897727810272008951

> <PUBCHEM_SHAPE_MULTIPOLES>
496.8
7.03
4.34
1.61
0.2
1.74
0.24
-2.16
0.8
-1.18
-0.26
0.91
0
-0.16

> <PUBCHEM_SHAPE_SELFOVERLAP>
1063.08

> <PUBCHEM_SHAPE_VOLUME>
277

> <PUBCHEM_COORDINATE_TYPE>
2
5
10

$$$$

