3080625
  -OEChem-07051212493D

 21 20  0     0  0  0  0  0  0999 V2000
    0.5418   -2.1588    1.3190 O   0  0  0  0  0  0  0  0  0  0  0  0
   -3.7225    0.6340    0.2535 O   0  0  0  0  0  0  0  0  0  0  0  0
    3.1451    1.2647    0.2221 O   0  0  0  0  0  0  0  0  0  0  0  0
   -0.0439   -2.1333   -0.8877 O   0  0  0  0  0  0  0  0  0  0  0  0
   -2.1881    0.4312   -1.4069 O   0  0  0  0  0  0  0  0  0  0  0  0
    2.4433   -0.5272   -1.0057 O   0  0  0  0  0  0  0  0  0  0  0  0
   -0.1068   -0.1116    0.3981 C   0  0  0  0  0  0  0  0  0  0  0  0
   -1.4899    0.1838    0.9206 C   0  0  0  0  0  0  0  0  0  0  0  0
    0.8514    0.8151    0.1781 C   0  0  0  0  0  0  0  0  0  0  0  0
    0.6776    2.2975    0.3523 C   0  0  0  0  0  0  0  0  0  0  0  0
    0.1486   -1.5584    0.1719 C   0  0  0  0  0  0  0  0  0  0  0  0
   -2.4640    0.4222   -0.2153 C   0  0  0  0  0  0  0  0  0  0  0  0
    2.2075    0.4408   -0.2999 C   0  0  0  0  0  0  0  0  0  0  0  0
   -1.4877    1.0632    1.5727 H   0  0  0  0  0  0  0  0  0  0  0  0
   -1.8563   -0.6613    1.5154 H   0  0  0  0  0  0  0  0  0  0  0  0
   -0.3743    2.5959    0.3799 H   0  0  0  0  0  0  0  0  0  0  0  0
    1.1261    2.8445   -0.4849 H   0  0  0  0  0  0  0  0  0  0  0  0
    1.1463    2.6346    1.2827 H   0  0  0  0  0  0  0  0  0  0  0  0
    0.6853   -3.1218    1.1990 H   0  0  0  0  0  0  0  0  0  0  0  0
   -4.3616    0.7903   -0.4741 H   0  0  0  0  0  0  0  0  0  0  0  0
    4.0515    1.0130   -0.0562 H   0  0  0  0  0  0  0  0  0  0  0  0
  1 11  1  0  0  0  0
  1 19  1  0  0  0  0
  2 12  1  0  0  0  0
  2 20  1  0  0  0  0
  3 13  1  0  0  0  0
  3 21  1  0  0  0  0
  4 11  2  0  0  0  0
  5 12  2  0  0  0  0
  6 13  2  0  0  0  0
  7  8  1  0  0  0  0
  7  9  2  0  0  0  0
  7 11  1  0  0  0  0
  8 12  1  0  0  0  0
  8 14  1  0  0  0  0
  8 15  1  0  0  0  0
  9 10  1  0  0  0  0
  9 13  1  0  0  0  0
 10 16  1  0  0  0  0
 10 17  1  0  0  0  0
 10 18  1  0  0  0  0
M  END
> <PUBCHEM_COMPOUND_CID>
3080625

> <PUBCHEM_CONFORMER_RMSD>
0.6

> <PUBCHEM_CONFORMER_DIVERSEORDER>
1
25
23
26
16
11
24
18
10
15
21
22
8
27
17
9
13
3
20
14
2
4
6
19
5
12
7

> <PUBCHEM_MMFF94_PARTIAL_CHARGES>
16
1 -0.65
10 0.14
11 0.71
12 0.66
13 0.71
19 0.5
2 -0.65
20 0.5
21 0.5
3 -0.65
4 -0.57
5 -0.57
6 -0.57
7 -0.12
8 0.2
9 -0.12

> <PUBCHEM_EFFECTIVE_ROTOR_COUNT>
4

> <PUBCHEM_PHARMACOPHORE_FEATURES>
10
1 1 acceptor
1 10 hydrophobe
1 2 acceptor
1 3 acceptor
1 4 acceptor
1 5 acceptor
1 6 acceptor
3 1 4 11 anion
3 2 5 12 anion
3 3 6 13 anion

> <PUBCHEM_HEAVY_ATOM_COUNT>
13

> <PUBCHEM_ATOM_DEF_STEREO_COUNT>
0

> <PUBCHEM_ATOM_UDEF_STEREO_COUNT>
0

> <PUBCHEM_BOND_DEF_STEREO_COUNT>
1

> <PUBCHEM_BOND_UDEF_STEREO_COUNT>
0

> <PUBCHEM_ISOTOPIC_ATOM_COUNT>
0

> <PUBCHEM_COMPONENT_COUNT>
1

> <PUBCHEM_CACTVS_TAUTO_COUNT>
1

> <PUBCHEM_CONFORMER_ID>
002F01B100000001

> <PUBCHEM_MMFF94_ENERGY>
27.202

> <PUBCHEM_FEATURE_SELFOVERLAP>
50.914

> <PUBCHEM_SHAPE_FINGERPRINT>
1 1 18342460360807891151
11031198 65 18272366520755380885
12138202 97 18264206903194635916
12423570 1 13459241038450213250
13380536 237 17685229278328141096
15775835 57 18341897363709959045
16945 1 18041274374980165232
18186145 218 18334290972265489828
20645476 183 17559658582594889758
21501502 16 17907018374579519924
23402539 116 18187374224673281716
23559900 14 18336260147264649332
25 1 18410006654452973621
2748010 2 18118381996149808686
3060560 45 18261683644341840653
5084963 1 18200866258589725089
528862 383 18339646749592272371
528886 8 18260547831270715729
81228 2 17550955784525303171

> <PUBCHEM_SHAPE_MULTIPOLES>
232.32
4.05
2.08
1.04
1.44
0.57
-0.07
-1.69
-0.6
-0.7
0.29
0.18
0.29
0.14

> <PUBCHEM_SHAPE_SELFOVERLAP>
466.066

> <PUBCHEM_SHAPE_VOLUME>
135.3

> <PUBCHEM_COORDINATE_TYPE>
2
5
10

$$$$

