441374
  -OEChem-07051212542D

 76 77  0     1  0  0  0  0  0999 V2000
   10.7140    5.5885    0.0000 S   0  0  0  0  0  0  0  0  0  0  0  0
    5.0420    7.8671    0.0000 O   0  0  0  0  0  0  0  0  0  0  0  0
    3.3100    4.8671    0.0000 O   0  0  0  0  0  0  0  0  0  0  0  0
    3.3100    6.8671    0.0000 O   0  0  0  0  0  0  0  0  0  0  0  0
    3.3100    7.8671    0.0000 O   0  0  0  0  0  0  0  0  0  0  0  0
    3.3100    3.1350    0.0000 O   0  0  0  0  0  0  0  0  0  0  0  0
    5.0420    9.8671    0.0000 O   0  0  0  0  0  0  0  0  0  0  0  0
    1.3100    4.8671    0.0000 O   0  0  0  0  0  0  0  0  0  0  0  0
    1.5779    9.8671    0.0000 O   0  0  0  0  0  0  0  0  0  0  0  0
    0.3100    3.1350    0.0000 O   0  0  0  0  0  0  0  0  0  0  0  0
    1.3101    1.4029    0.0000 O   0  0  0  0  0  0  0  0  0  0  0  0
    0.7119    8.3671    0.0000 O   0  0  0  0  0  0  0  0  0  0  0  0
   11.5800    6.0885    0.0000 O   0  0  0  0  0  0  0  0  0  0  0  0
    9.8480    5.0885    0.0000 O   0  0  0  0  0  0  0  0  0  0  0  0
   10.2140    6.4546    0.0000 O   0  0  0  0  0  0  0  0  0  0  0  0
   11.2140    4.7225    0.0000 O   0  0  0  0  0  0  0  0  0  0  0  0
    6.7741    6.8671    0.0000 N   0  0  0  0  0  0  0  0  0  0  0  0
    5.5421    4.0011    0.0000 N   0  0  0  0  0  0  0  0  0  0  0  0
    3.3100   10.8671    0.0000 N   0  0  0  0  0  0  0  0  0  0  0  0
    2.8100    0.5369    0.0000 N   0  0  0  0  0  0  0  0  0  0  0  0
    5.0420    6.8671    0.0000 C   0  0  2  0  0  0  0  0  0  0  0  0
    4.1760    5.3671    0.0000 C   0  0  1  0  0  0  0  0  0  0  0  0
    4.1760    6.3671    0.0000 C   0  0  2  0  0  0  0  0  0  0  0  0
    5.9080    6.3671    0.0000 C   0  0  1  0  0  0  0  0  0  0  0  0
    5.0420    4.8671    0.0000 C   0  0  2  0  0  0  0  0  0  0  0  0
    5.9080    5.3671    0.0000 C   0  0  0  0  0  0  0  0  0  0  0  0
    4.1760    8.3671    0.0000 C   0  0  1  0  0  0  0  0  0  0  0  0
    2.8101    4.0010    0.0000 C   0  0  1  0  0  0  0  0  0  0  0  0
    4.1760    9.3671    0.0000 C   0  0  1  0  0  0  0  0  0  0  0  0
    3.3100    9.8671    0.0000 C   0  0  2  0  0  0  0  0  0  0  0  0
    1.8100    4.0010    0.0000 C   0  0  1  0  0  0  0  0  0  0  0  0
    2.4440    9.3671    0.0000 C   0  0  1  0  0  0  0  0  0  0  0  0
    1.3100    3.1350    0.0000 C   0  0  2  0  0  0  0  0  0  0  0  0
    2.4440    8.3671    0.0000 C   0  0  1  0  0  0  0  0  0  0  0  0
    1.8101    2.2689    0.0000 C   0  0  1  0  0  0  0  0  0  0  0  0
    2.8100    2.2690    0.0000 C   0  0  1  0  0  0  0  0  0  0  0  0
    1.5779    7.8671    0.0000 C   0  0  0  0  0  0  0  0  0  0  0  0
    3.3100    1.4030    0.0000 C   0  0  0  0  0  0  0  0  0  0  0  0
    4.5051    7.1771    0.0000 H   0  0  0  0  0  0  0  0  0  0  0  0
    4.1760    4.7471    0.0000 H   0  0  0  0  0  0  0  0  0  0  0  0
    4.1760    6.9871    0.0000 H   0  0  0  0  0  0  0  0  0  0  0  0
    6.4450    6.0571    0.0000 H   0  0  0  0  0  0  0  0  0  0  0  0
    4.6036    4.4286    0.0000 H   0  0  0  0  0  0  0  0  0  0  0  0
    6.1201    4.7844    0.0000 H   0  0  0  0  0  0  0  0  0  0  0  0
    6.5186    5.4747    0.0000 H   0  0  0  0  0  0  0  0  0  0  0  0
    4.7129    8.6771    0.0000 H   0  0  0  0  0  0  0  0  0  0  0  0
    2.5000    4.5379    0.0000 H   0  0  0  0  0  0  0  0  0  0  0  0
    4.7129    9.0571    0.0000 H   0  0  0  0  0  0  0  0  0  0  0  0
    2.7730   10.1771    0.0000 H   0  0  0  0  0  0  0  0  0  0  0  0
    1.1900    4.0010    0.0000 H   0  0  0  0  0  0  0  0  0  0  0  0
    1.9070    9.0571    0.0000 H   0  0  0  0  0  0  0  0  0  0  0  0
    1.0000    2.5980    0.0000 H   0  0  0  0  0  0  0  0  0  0  0  0
    7.3110    6.5571    0.0000 H   0  0  0  0  0  0  0  0  0  0  0  0
    6.7741    7.4871    0.0000 H   0  0  0  0  0  0  0  0  0  0  0  0
    2.4440    7.7471    0.0000 H   0  0  0  0  0  0  0  0  0  0  0  0
    6.1620    4.0010    0.0000 H   0  0  0  0  0  0  0  0  0  0  0  0
    5.2321    3.4641    0.0000 H   0  0  0  0  0  0  0  0  0  0  0  0
    2.1201    1.7320    0.0000 H   0  0  0  0  0  0  0  0  0  0  0  0
    3.4300    2.2690    0.0000 H   0  0  0  0  0  0  0  0  0  0  0  0
    2.7730    6.5571    0.0000 H   0  0  0  0  0  0  0  0  0  0  0  0
    1.1794    7.3921    0.0000 H   0  0  0  0  0  0  0  0  0  0  0  0
    1.9764    7.3921    0.0000 H   0  0  0  0  0  0  0  0  0  0  0  0
    3.7849    1.0044    0.0000 H   0  0  0  0  0  0  0  0  0  0  0  0
    3.7849    1.8015    0.0000 H   0  0  0  0  0  0  0  0  0  0  0  0
    2.7730   11.1771    0.0000 H   0  0  0  0  0  0  0  0  0  0  0  0
    3.8469   11.1771    0.0000 H   0  0  0  0  0  0  0  0  0  0  0  0
    5.0420   10.4871    0.0000 H   0  0  0  0  0  0  0  0  0  0  0  0
    0.6900    4.8671    0.0000 H   0  0  0  0  0  0  0  0  0  0  0  0
    1.5779   10.4871    0.0000 H   0  0  0  0  0  0  0  0  0  0  0  0
    0.0000    2.5980    0.0000 H   0  0  0  0  0  0  0  0  0  0  0  0
    0.6900    1.4029    0.0000 H   0  0  0  0  0  0  0  0  0  0  0  0
    3.1200    0.0000    0.0000 H   0  0  0  0  0  0  0  0  0  0  0  0
    2.1900    0.5369    0.0000 H   0  0  0  0  0  0  0  0  0  0  0  0
    0.1750    8.0571    0.0000 H   0  0  0  0  0  0  0  0  0  0  0  0
   12.1169    5.7785    0.0000 H   0  0  0  0  0  0  0  0  0  0  0  0
    9.3110    5.3985    0.0000 H   0  0  0  0  0  0  0  0  0  0  0  0
  1 13  1  0  0  0  0
  1 14  1  0  0  0  0
  1 15  2  0  0  0  0
  1 16  2  0  0  0  0
 21  2  1  1  0  0  0
 27  2  1  1  0  0  0
 22  3  1  1  0  0  0
 28  3  1  1  0  0  0
 23  4  1  6  0  0  0
  4 60  1  0  0  0  0
  5 27  1  0  0  0  0
  5 34  1  0  0  0  0
  6 28  1  0  0  0  0
  6 36  1  0  0  0  0
 29  7  1  1  0  0  0
  7 67  1  0  0  0  0
 31  8  1  1  0  0  0
  8 68  1  0  0  0  0
 32  9  1  1  0  0  0
  9 69  1  0  0  0  0
 33 10  1  6  0  0  0
 10 70  1  0  0  0  0
 35 11  1  1  0  0  0
 11 71  1  0  0  0  0
 12 37  1  0  0  0  0
 12 74  1  0  0  0  0
 13 75  1  0  0  0  0
 14 76  1  0  0  0  0
 24 17  1  6  0  0  0
 17 53  1  0  0  0  0
 17 54  1  0  0  0  0
 25 18  1  6  0  0  0
 18 56  1  0  0  0  0
 18 57  1  0  0  0  0
 30 19  1  6  0  0  0
 19 65  1  0  0  0  0
 19 66  1  0  0  0  0
 20 38  1  0  0  0  0
 20 72  1  0  0  0  0
 20 73  1  0  0  0  0
 21 23  1  0  0  0  0
 21 24  1  0  0  0  0
 21 39  1  0  0  0  0
 22 23  1  0  0  0  0
 22 25  1  0  0  0  0
 22 40  1  0  0  0  0
 23 41  1  0  0  0  0
 24 26  1  0  0  0  0
 24 42  1  0  0  0  0
 25 26  1  0  0  0  0
 25 43  1  0  0  0  0
 26 44  1  0  0  0  0
 26 45  1  0  0  0  0
 27 29  1  0  0  0  0
 27 46  1  0  0  0  0
 28 31  1  0  0  0  0
 28 47  1  0  0  0  0
 29 30  1  0  0  0  0
 29 48  1  0  0  0  0
 30 32  1  0  0  0  0
 30 49  1  0  0  0  0
 31 33  1  0  0  0  0
 31 50  1  0  0  0  0
 32 34  1  0  0  0  0
 32 51  1  0  0  0  0
 33 35  1  0  0  0  0
 33 52  1  0  0  0  0
 34 37  1  6  0  0  0
 34 55  1  0  0  0  0
 35 36  1  0  0  0  0
 35 58  1  0  0  0  0
 36 38  1  6  0  0  0
 36 59  1  0  0  0  0
 37 61  1  0  0  0  0
 37 62  1  0  0  0  0
 38 63  1  0  0  0  0
 38 64  1  0  0  0  0
M  END
> <PUBCHEM_COMPOUND_CID>
441374

> <PUBCHEM_COMPOUND_CANONICALIZED>
1

> <PUBCHEM_CACTVS_COMPLEXITY>
720

> <PUBCHEM_CACTVS_HBOND_ACCEPTOR>
19

> <PUBCHEM_CACTVS_HBOND_DONOR>
13

> <PUBCHEM_CACTVS_ROTATABLE_BOND>
6

> <PUBCHEM_CACTVS_SUBSKEYS>
AAADcfB7vABAAAAAAAAAAAAAAAAAAAAAAAA0SIAAAAAAAAAAAAAAHgAQCAAACDzxgAcACABABoAAAAAAADAAAAAAAAAAAIAAAAATEAIAwAAjQAAHEAAHAAHwcA0AAAAAAAAAAAAAgAAUCACgAAAAAAAAAA==

> <PUBCHEM_IUPAC_OPENEYE_NAME>
(2R,3S,4S,5R,6R)-2-(aminomethyl)-6-[(1R,2R,3S,4R,6S)-4,6-diamino-3-[(2S,3R,4S,5S,6R)-4-amino-3,5-dihydroxy-6-(hydroxymethyl)tetrahydropyran-2-yl]oxy-2-hydroxy-cyclohexoxy]tetrahydropyran-3,4,5-triol; sulfuric acid

> <PUBCHEM_IUPAC_CAS_NAME>
(2R,3S,4S,5R,6R)-2-(aminomethyl)-6-[(1R,2R,3S,4R,6S)-4,6-diamino-3-[[(2S,3R,4S,5S,6R)-4-amino-3,5-dihydroxy-6-(hydroxymethyl)-2-oxanyl]oxy]-2-hydroxycyclohexyl]oxyoxane-3,4,5-triol; sulfuric acid

> <PUBCHEM_IUPAC_NAME>
(2R,3S,4S,5R,6R)-2-(aminomethyl)-6-[(1R,2R,3S,4R,6S)-4,6-diamino-3-[(2S,3R,4S,5S,6R)-4-amino-3,5-dihydroxy-6-(hydroxymethyl)oxan-2-yl]oxy-2-hydroxycyclohexyl]oxyoxane-3,4,5-triol; sulfuric acid

> <PUBCHEM_IUPAC_SYSTEMATIC_NAME>
(2R,3S,4S,5R,6R)-2-(aminomethyl)-6-[(1R,2R,3S,4R,6S)-4,6-bis(azanyl)-3-[(2S,3R,4S,5S,6R)-4-azanyl-6-(hydroxymethyl)-3,5-bis(oxidanyl)oxan-2-yl]oxy-2-oxidanyl-cyclohexyl]oxy-oxane-3,4,5-triol; sulfuric acid

> <PUBCHEM_IUPAC_TRADITIONAL_NAME>
(2R,3S,4S,5R,6R)-2-(aminomethyl)-6-[(1R,2R,3S,4R,6S)-4,6-diamino-3-[(2S,3R,4S,5S,6R)-4-amino-3,5-dihydroxy-6-methylol-tetrahydropyran-2-yl]oxy-2-hydroxy-cyclohexoxy]tetrahydropyran-3,4,5-triol; sulfuric acid

> <PUBCHEM_IUPAC_INCHI>
InChI=1S/C18H36N4O11.H2O4S/c19-2-6-10(25)12(27)13(28)18(30-6)33-16-5(21)1-4(20)15(14(16)29)32-17-11(26)8(22)9(24)7(3-23)31-17;1-5(2,3)4/h4-18,23-29H,1-3,19-22H2;(H2,1,2,3,4)/t4-,5+,6-,7-,8+,9-,10-,11-,12+,13-,14-,15+,16-,17-,18-;/m1./s1

> <PUBCHEM_IUPAC_INCHIKEY>
OOYGSFOGFJDDHP-KMCOLRRFSA-N

> <PUBCHEM_EXACT_MASS>
582.205438

> <PUBCHEM_MOLECULAR_FORMULA>
C18H38N4O15S

> <PUBCHEM_MOLECULAR_WEIGHT>
582.57712

> <PUBCHEM_OPENEYE_CAN_SMILES>
C1C(C(C(C(C1N)OC2C(C(C(C(O2)CN)O)O)O)O)OC3C(C(C(C(O3)CO)O)N)O)N.OS(=O)(=O)O

> <PUBCHEM_OPENEYE_ISO_SMILES>
C1[C@H]([C@@H]([C@H]([C@@H]([C@H]1N)O[C@@H]2[C@@H]([C@H]([C@@H]([C@H](O2)CN)O)O)O)O)O[C@@H]3[C@@H]([C@H]([C@@H]([C@H](O3)CO)O)N)O)N.OS(=O)(=O)O

> <PUBCHEM_CACTVS_TPSA>
366

> <PUBCHEM_MONOISOTOPIC_WEIGHT>
582.205438

> <PUBCHEM_TOTAL_CHARGE>
0

> <PUBCHEM_HEAVY_ATOM_COUNT>
38

> <PUBCHEM_ATOM_DEF_STEREO_COUNT>
15

> <PUBCHEM_ATOM_UDEF_STEREO_COUNT>
0

> <PUBCHEM_BOND_DEF_STEREO_COUNT>
0

> <PUBCHEM_BOND_UDEF_STEREO_COUNT>
0

> <PUBCHEM_ISOTOPIC_ATOM_COUNT>
0

> <PUBCHEM_COMPONENT_COUNT>
2

> <PUBCHEM_CACTVS_TAUTO_COUNT>
1

> <PUBCHEM_COORDINATE_TYPE>
1
5
255

> <PUBCHEM_BONDANNOTATIONS>
33  10  6
35  11  5
24  17  6
25  18  6
30  19  6
21  2  5
27  2  5
22  3  5
28  3  5
34  37  6
36  38  6
23  4  6
29  7  5
31  8  5
32  9  5

$$$$

