46173896
  -OEChem-07051213103D

 68 69  0     1  0  0  0  0  0999 V2000
    1.2431   -2.7581    0.0654 S   0  0  0  0  0  0  0  0  0  0  0  0
    2.0400    1.1221    1.6318 O   0  0  0  0  0  0  0  0  0  0  0  0
    2.7267    2.3717   -1.4830 O   0  0  0  0  0  0  0  0  0  0  0  0
    2.3297   -2.3402   -3.1485 O   0  0  0  0  0  0  0  0  0  0  0  0
    4.3809   -2.1264   -2.1775 O   0  0  0  0  0  0  0  0  0  0  0  0
   -3.0506   -1.7749    2.0368 O   0  0  0  0  0  0  0  0  0  0  0  0
   -4.5784    2.9453   -1.3662 O   0  0  0  0  0  0  0  0  0  0  0  0
   -2.3089    1.5574    1.9541 O   0  0  0  0  0  0  0  0  0  0  0  0
   -4.5704    0.3368   -2.0762 O   0  0  0  0  0  0  0  0  0  0  0  0
    3.5974    0.2062   -1.1329 N   0  0  0  0  0  0  0  0  0  0  0  0
   -1.7787   -3.3468    0.8940 N   0  0  0  0  0  0  0  0  0  0  0  0
   -4.6162   -0.2380    0.1713 N   0  0  0  0  0  0  0  0  0  0  0  0
    4.2767   -0.0457    0.1632 C   0  0  1  0  0  0  0  0  0  0  0  0
    4.1086    1.4628    0.4521 C   0  0  1  0  0  0  0  0  0  0  0  0
    3.4054   -1.1318    0.8097 C   0  0  0  0  0  0  0  0  0  0  0  0
    2.5422   -0.7445   -1.4397 C   0  0  2  0  0  0  0  0  0  0  0  0
    2.1084   -1.1683   -0.0314 C   0  0  1  0  0  0  0  0  0  0  0  0
    3.3729    1.5337   -0.8950 C   0  0  0  0  0  0  0  0  0  0  0  0
    3.2745    1.8472    1.6504 C   0  0  0  0  0  0  0  0  0  0  0  0
    3.2078   -1.7971   -2.2702 C   0  0  0  0  0  0  0  0  0  0  0  0
    2.9281    3.3389    1.6426 C   0  0  0  0  0  0  0  0  0  0  0  0
    4.0058    1.5047    2.9535 C   0  0  0  0  0  0  0  0  0  0  0  0
    0.4182   -2.5093    1.6670 C   0  0  0  0  0  0  0  0  0  0  0  0
   -0.7319   -3.4842    1.8799 C   0  0  0  0  0  0  0  0  0  0  0  0
   -2.4554    2.2347   -0.3972 C   0  0  0  0  0  0  0  0  0  0  0  0
   -2.8606   -2.4938    1.0595 C   0  0  0  0  0  0  0  0  0  0  0  0
   -3.9983    2.0271   -0.4433 C   0  0  2  0  0  0  0  0  0  0  0  0
   -3.7968   -2.5409   -0.1378 C   0  0  0  0  0  0  0  0  0  0  0  0
   -1.7971    1.3035    0.6503 C   0  0  0  0  0  0  0  0  0  0  0  0
   -1.8229    1.9903   -1.7817 C   0  0  0  0  0  0  0  0  0  0  0  0
   -2.1676    3.7046   -0.0082 C   0  0  0  0  0  0  0  0  0  0  0  0
   -5.0013   -1.6196   -0.0018 C   0  0  0  0  0  0  0  0  0  0  0  0
   -4.4313    0.6327   -0.8908 C   0  0  0  0  0  0  0  0  0  0  0  0
    5.3209   -0.3517    0.0302 H   0  0  0  0  0  0  0  0  0  0  0  0
    5.0621    2.0078    0.4108 H   0  0  0  0  0  0  0  0  0  0  0  0
    3.9358   -2.0892    0.7154 H   0  0  0  0  0  0  0  0  0  0  0  0
    3.2150   -0.9966    1.8750 H   0  0  0  0  0  0  0  0  0  0  0  0
    1.7444   -0.2399   -1.9954 H   0  0  0  0  0  0  0  0  0  0  0  0
    1.3832   -0.4223    0.2907 H   0  0  0  0  0  0  0  0  0  0  0  0
    2.3612    3.6155    2.5390 H   0  0  0  0  0  0  0  0  0  0  0  0
    2.2910    3.5972    0.7903 H   0  0  0  0  0  0  0  0  0  0  0  0
    3.8287    3.9600    1.5963 H   0  0  0  0  0  0  0  0  0  0  0  0
    3.3755    1.7148    3.8252 H   0  0  0  0  0  0  0  0  0  0  0  0
    4.2792    0.4486    3.0174 H   0  0  0  0  0  0  0  0  0  0  0  0
    4.9308    2.0843    3.0487 H   0  0  0  0  0  0  0  0  0  0  0  0
    1.5245    1.3808    2.4147 H   0  0  0  0  0  0  0  0  0  0  0  0
    1.1593   -2.6347    2.4626 H   0  0  0  0  0  0  0  0  0  0  0  0
    0.0301   -1.4864    1.7201 H   0  0  0  0  0  0  0  0  0  0  0  0
    2.7474   -3.0330   -3.7033 H   0  0  0  0  0  0  0  0  0  0  0  0
   -0.3783   -4.5205    1.8391 H   0  0  0  0  0  0  0  0  0  0  0  0
   -1.1629   -3.3238    2.8746 H   0  0  0  0  0  0  0  0  0  0  0  0
   -1.7021   -3.8942    0.0416 H   0  0  0  0  0  0  0  0  0  0  0  0
   -4.4360    2.2467    0.5382 H   0  0  0  0  0  0  0  0  0  0  0  0
   -3.2170   -2.2672   -1.0280 H   0  0  0  0  0  0  0  0  0  0  0  0
   -4.1414   -3.5737   -0.2648 H   0  0  0  0  0  0  0  0  0  0  0  0
   -1.9507    0.2496    0.4043 H   0  0  0  0  0  0  0  0  0  0  0  0
   -0.7149    1.4752    0.6805 H   0  0  0  0  0  0  0  0  0  0  0  0
   -2.2742    2.6223   -2.5539 H   0  0  0  0  0  0  0  0  0  0  0  0
   -0.7489    2.2103   -1.7634 H   0  0  0  0  0  0  0  0  0  0  0  0
   -1.9298    0.9458   -2.0928 H   0  0  0  0  0  0  0  0  0  0  0  0
   -1.0913    3.8754    0.1112 H   0  0  0  0  0  0  0  0  0  0  0  0
   -2.5250    4.4028   -0.7733 H   0  0  0  0  0  0  0  0  0  0  0  0
   -2.6534    3.9720    0.9366 H   0  0  0  0  0  0  0  0  0  0  0  0
   -5.5972   -1.8957    0.8748 H   0  0  0  0  0  0  0  0  0  0  0  0
   -5.6388   -1.7073   -0.8880 H   0  0  0  0  0  0  0  0  0  0  0  0
   -4.4646    0.0937    1.1193 H   0  0  0  0  0  0  0  0  0  0  0  0
   -5.5442    2.8924   -1.2643 H   0  0  0  0  0  0  0  0  0  0  0  0
   -1.8582    0.9451    2.5604 H   0  0  0  0  0  0  0  0  0  0  0  0
  1 17  1  0  0  0  0
  1 23  1  0  0  0  0
  2 19  1  0  0  0  0
  2 46  1  0  0  0  0
  3 18  2  0  0  0  0
  4 20  1  0  0  0  0
  4 49  1  0  0  0  0
  5 20  2  0  0  0  0
  6 26  2  0  0  0  0
  7 27  1  0  0  0  0
  7 67  1  0  0  0  0
  8 29  1  0  0  0  0
  8 68  1  0  0  0  0
  9 33  2  0  0  0  0
 10 13  1  0  0  0  0
 10 16  1  0  0  0  0
 10 18  1  0  0  0  0
 11 24  1  0  0  0  0
 11 26  1  0  0  0  0
 11 52  1  0  0  0  0
 12 32  1  0  0  0  0
 12 33  1  0  0  0  0
 12 66  1  0  0  0  0
 13 14  1  0  0  0  0
 13 15  1  0  0  0  0
 13 34  1  0  0  0  0
 14 18  1  0  0  0  0
 14 19  1  0  0  0  0
 14 35  1  0  0  0  0
 15 17  1  0  0  0  0
 15 36  1  0  0  0  0
 15 37  1  0  0  0  0
 16 17  1  0  0  0  0
 16 20  1  0  0  0  0
 16 38  1  0  0  0  0
 17 39  1  0  0  0  0
 19 21  1  0  0  0  0
 19 22  1  0  0  0  0
 21 40  1  0  0  0  0
 21 41  1  0  0  0  0
 21 42  1  0  0  0  0
 22 43  1  0  0  0  0
 22 44  1  0  0  0  0
 22 45  1  0  0  0  0
 23 24  1  0  0  0  0
 23 47  1  0  0  0  0
 23 48  1  0  0  0  0
 24 50  1  0  0  0  0
 24 51  1  0  0  0  0
 25 27  1  0  0  0  0
 25 29  1  0  0  0  0
 25 30  1  0  0  0  0
 25 31  1  0  0  0  0
 26 28  1  0  0  0  0
 27 33  1  0  0  0  0
 27 53  1  0  0  0  0
 28 32  1  0  0  0  0
 28 54  1  0  0  0  0
 28 55  1  0  0  0  0
 29 56  1  0  0  0  0
 29 57  1  0  0  0  0
 30 58  1  0  0  0  0
 30 59  1  0  0  0  0
 30 60  1  0  0  0  0
 31 61  1  0  0  0  0
 31 62  1  0  0  0  0
 31 63  1  0  0  0  0
 32 64  1  0  0  0  0
 32 65  1  0  0  0  0
M  END
> <PUBCHEM_COMPOUND_CID>
46173896

> <PUBCHEM_CONFORMER_RMSD>
1.4

> <PUBCHEM_CONFORMER_DIVERSEORDER>
1
178
163
147
54
16
2
132
129
124
148
117
154
12
138
121
167
70
68
72
80
136
10
162
104
71
152
88
17
66
130
78
157
94
92
153
59
65
24
43
146
79
53
40
81
34
64
39
19
150
90
83
46
32
158
175
77
47
86
122
125
82
33
173
97
7
28
27
87
13
76
164
115
156
93
165
105
123
179
171
60
30
176
3
140
160
75
111
155
118
89
25
128
135
23
85
149
174
5
161
113
21
95
41
9
96
22
6
63
116
182
44
57
91
49
142
144
42
120
38
67
131
58
127
159
139
103
141
114
98
177
52
15
29
55
108
180
18
133
143
107
151
172
11
48
166
168
56
126
137
8
73
36
110
102
35
106
61
37
20
26
51
145
62
170
181
112
69
31
134
14
84
100
45
109
74
119
169
101
4
50
99

> <PUBCHEM_MMFF94_PARTIAL_CHARGES>
33
1 -0.46
10 -0.59
11 -0.73
12 -0.73
13 0.22
14 0.05
16 0.36
17 0.23
18 0.58
19 0.28
2 -0.68
20 0.66
23 0.23
24 0.3
26 0.57
27 0.34
28 0.06
29 0.28
3 -0.57
32 0.3
33 0.57
4 -0.65
46 0.4
49 0.5
5 -0.57
52 0.37
6 -0.57
66 0.37
67 0.4
68 0.4
7 -0.68
8 -0.68
9 -0.57

> <PUBCHEM_EFFECTIVE_ROTOR_COUNT>
14.8

> <PUBCHEM_PHARMACOPHORE_FEATURES>
17
1 11 donor
1 12 donor
1 2 acceptor
1 2 donor
1 3 acceptor
1 4 acceptor
1 5 acceptor
1 6 acceptor
1 7 acceptor
1 7 donor
1 8 acceptor
1 8 donor
1 9 acceptor
3 19 21 22 hydrophobe
3 25 30 31 hydrophobe
3 4 5 20 anion
7 10 13 14 15 16 17 18 rings

> <PUBCHEM_HEAVY_ATOM_COUNT>
33

> <PUBCHEM_ATOM_DEF_STEREO_COUNT>
5

> <PUBCHEM_ATOM_UDEF_STEREO_COUNT>
0

> <PUBCHEM_BOND_DEF_STEREO_COUNT>
0

> <PUBCHEM_BOND_UDEF_STEREO_COUNT>
0

> <PUBCHEM_ISOTOPIC_ATOM_COUNT>
0

> <PUBCHEM_COMPONENT_COUNT>
1

> <PUBCHEM_CACTVS_TAUTO_COUNT>
8

> <PUBCHEM_CONFORMER_ID>
02C08EC800000001

> <PUBCHEM_MMFF94_ENERGY>
83.327

> <PUBCHEM_FEATURE_SELFOVERLAP>
86.328

> <PUBCHEM_SHAPE_FINGERPRINT>
10439779 11 17838074936504890859
108634 29 18410569578932016174
12788726 201 17915172412692488905
13402501 40 18264211313857017361
13617811 41 18059306413785872557
13761468 95 13458516279772205350
14081887 123 18341337703933614467
14251757 17 18333449846033654859
14251764 38 18343301431389625133
14347329 18 17916851478934082038
15629462 23 17391897533849761046
15975801 100 17560233760399214462
161222 10 18130777967107856757
161222 619 17536607200516904065
20764821 26 18201717362146685441
21033648 144 17972035834614955042
22121540 332 18263926549785281756
22393880 68 18339642364214177703
23559900 14 18337672026408282197
238 59 17967814942466486586
238918 7 18190470363443737850
24941158 1 17530678810498286358
3052486 1 17988926635113888402
469060 322 17845918660038211795
508706 21 18343295981176405099
5252454 2 17984405606409029937

> <PUBCHEM_SHAPE_MULTIPOLES>
621.08
10.94
4.9
2.6
5.08
0.19
-0.38
-2.44
-1.72
2.07
0.89
-2.35
0.58
3.96

> <PUBCHEM_SHAPE_SELFOVERLAP>
1255.376

> <PUBCHEM_SHAPE_VOLUME>
366.1

> <PUBCHEM_COORDINATE_TYPE>
2
5
10

$$$$

