12443127
  -OEChem-07051213153D

 39 41  0     1  0  0  0  0  0999 V2000
    1.2775   -2.0559   -0.4290 O   0  0  0  0  0  0  0  0  0  0  0  0
   -2.2508   -2.9907   -0.1122 O   0  0  0  0  0  0  0  0  0  0  0  0
   -5.7890    2.3198   -0.4015 O   0  0  0  0  0  0  0  0  0  0  0  0
    6.1283    1.9274   -0.3357 O   0  0  0  0  0  0  0  0  0  0  0  0
   -1.1979   -0.8769    0.4898 C   0  0  2  0  0  0  0  0  0  0  0  0
    0.0962   -0.0624    0.3178 C   0  0  0  0  0  0  0  0  0  0  0  0
   -1.1576   -2.1276   -0.4096 C   0  0  1  0  0  0  0  0  0  0  0  0
    1.3274   -0.9612    0.4941 C   0  0  2  0  0  0  0  0  0  0  0  0
    0.1474   -2.8950   -0.2107 C   0  0  0  0  0  0  0  0  0  0  0  0
   -2.4296   -0.0190    0.2505 C   0  0  0  0  0  0  0  0  0  0  0  0
    2.6101   -0.1897    0.2724 C   0  0  0  0  0  0  0  0  0  0  0  0
   -3.3418    0.1843    1.2820 C   0  0  0  0  0  0  0  0  0  0  0  0
   -2.6383    0.5584   -0.9988 C   0  0  0  0  0  0  0  0  0  0  0  0
    3.2448    0.4319    1.3476 C   0  0  0  0  0  0  0  0  0  0  0  0
    3.1578   -0.1001   -1.0075 C   0  0  0  0  0  0  0  0  0  0  0  0
   -4.4722    0.9713    1.0624 C   0  0  0  0  0  0  0  0  0  0  0  0
   -3.7687    1.3456   -1.2185 C   0  0  0  0  0  0  0  0  0  0  0  0
   -4.6857    1.5521   -0.1877 C   0  0  0  0  0  0  0  0  0  0  0  0
    4.4272    1.1434    1.1431 C   0  0  0  0  0  0  0  0  0  0  0  0
    4.3401    0.6113   -1.2121 C   0  0  0  0  0  0  0  0  0  0  0  0
    4.9749    1.2329   -0.1366 C   0  0  0  0  0  0  0  0  0  0  0  0
   -1.2341   -1.2263    1.5322 H   0  0  0  0  0  0  0  0  0  0  0  0
    0.1246    0.3883   -0.6830 H   0  0  0  0  0  0  0  0  0  0  0  0
    0.1196    0.7673    1.0361 H   0  0  0  0  0  0  0  0  0  0  0  0
   -1.2359   -1.8350   -1.4635 H   0  0  0  0  0  0  0  0  0  0  0  0
    1.3469   -1.3821    1.5087 H   0  0  0  0  0  0  0  0  0  0  0  0
    0.2012   -3.3421    0.7900 H   0  0  0  0  0  0  0  0  0  0  0  0
    0.2022   -3.7283   -0.9199 H   0  0  0  0  0  0  0  0  0  0  0  0
   -3.1895   -0.2613    2.2611 H   0  0  0  0  0  0  0  0  0  0  0  0
   -1.9390    0.4102   -1.8164 H   0  0  0  0  0  0  0  0  0  0  0  0
   -2.1888   -3.7582   -0.7060 H   0  0  0  0  0  0  0  0  0  0  0  0
    2.8268    0.3711    2.3488 H   0  0  0  0  0  0  0  0  0  0  0  0
    2.6759   -0.5645   -1.8635 H   0  0  0  0  0  0  0  0  0  0  0  0
   -5.1790    1.1244    1.8736 H   0  0  0  0  0  0  0  0  0  0  0  0
   -3.9299    1.7949   -2.1946 H   0  0  0  0  0  0  0  0  0  0  0  0
    4.9114    1.6236    1.9890 H   0  0  0  0  0  0  0  0  0  0  0  0
    4.7604    0.6802   -2.2118 H   0  0  0  0  0  0  0  0  0  0  0  0
   -6.3121    2.3549    0.4177 H   0  0  0  0  0  0  0  0  0  0  0  0
    6.4283    2.2906    0.5153 H   0  0  0  0  0  0  0  0  0  0  0  0
  1  8  1  0  0  0  0
  1  9  1  0  0  0  0
  2  7  1  0  0  0  0
  2 31  1  0  0  0  0
  3 18  1  0  0  0  0
  3 38  1  0  0  0  0
  4 21  1  0  0  0  0
  4 39  1  0  0  0  0
  5  6  1  0  0  0  0
  5  7  1  0  0  0  0
  5 10  1  0  0  0  0
  5 22  1  0  0  0  0
  6  8  1  0  0  0  0
  6 23  1  0  0  0  0
  6 24  1  0  0  0  0
  7  9  1  0  0  0  0
  7 25  1  0  0  0  0
  8 11  1  0  0  0  0
  8 26  1  0  0  0  0
  9 27  1  0  0  0  0
  9 28  1  0  0  0  0
 10 12  2  0  0  0  0
 10 13  1  0  0  0  0
 11 14  2  0  0  0  0
 11 15  1  0  0  0  0
 12 16  1  0  0  0  0
 12 29  1  0  0  0  0
 13 17  2  0  0  0  0
 13 30  1  0  0  0  0
 14 19  1  0  0  0  0
 14 32  1  0  0  0  0
 15 20  2  0  0  0  0
 15 33  1  0  0  0  0
 16 18  2  0  0  0  0
 16 34  1  0  0  0  0
 17 18  1  0  0  0  0
 17 35  1  0  0  0  0
 19 21  2  0  0  0  0
 19 36  1  0  0  0  0
 20 21  1  0  0  0  0
 20 37  1  0  0  0  0
M  END
> <PUBCHEM_COMPOUND_CID>
12443127

> <PUBCHEM_CONFORMER_RMSD>
0.6

> <PUBCHEM_CONFORMER_DIVERSEORDER>
1
11
9
7
8
3
10
6
2
4
12
5

> <PUBCHEM_MMFF94_PARTIAL_CHARGES>
31
1 -0.56
10 -0.14
11 -0.14
12 -0.15
13 -0.15
14 -0.15
15 -0.15
16 -0.15
17 -0.15
18 0.08
19 -0.15
2 -0.68
20 -0.15
21 0.08
29 0.15
3 -0.53
30 0.15
31 0.4
32 0.15
33 0.15
34 0.15
35 0.15
36 0.15
37 0.15
38 0.45
39 0.45
4 -0.53
5 0.14
7 0.28
8 0.42
9 0.28

> <PUBCHEM_EFFECTIVE_ROTOR_COUNT>
3.2

> <PUBCHEM_PHARMACOPHORE_FEATURES>
8
1 1 acceptor
1 2 acceptor
1 2 donor
1 3 donor
1 4 donor
6 1 5 6 7 8 9 rings
6 10 12 13 16 17 18 rings
6 11 14 15 19 20 21 rings

> <PUBCHEM_HEAVY_ATOM_COUNT>
21

> <PUBCHEM_ATOM_DEF_STEREO_COUNT>
3

> <PUBCHEM_ATOM_UDEF_STEREO_COUNT>
0

> <PUBCHEM_BOND_DEF_STEREO_COUNT>
0

> <PUBCHEM_BOND_UDEF_STEREO_COUNT>
0

> <PUBCHEM_ISOTOPIC_ATOM_COUNT>
0

> <PUBCHEM_COMPONENT_COUNT>
1

> <PUBCHEM_CACTVS_TAUTO_COUNT>
4

> <PUBCHEM_CONFORMER_ID>
00BDDDF700000001

> <PUBCHEM_MMFF94_ENERGY>
59.0922

> <PUBCHEM_FEATURE_SELFOVERLAP>
40.594

> <PUBCHEM_SHAPE_FINGERPRINT>
10014705 185 18409165476560127072
10498660 4 18333731308067389256
105312 117 18409448072365098670
10670039 82 18267854150947827724
11370993 144 14476423567636970638
11543360 7 15285647576938974280
12363563 72 9295285066604409434
12390115 104 18335410249548909923
12403259 118 17774713178251981749
12403259 415 18339067267951130047
12730499 353 18336539525637754755
12892183 10 15984829275910235992
12969540 114 18335426785178306813
13544653 18 9655571907339216522
13583140 156 16486987171402452221
1420 369 9871746901239838368
14251764 30 5039086598757094341
14341114 328 16343691123768607756
14528608 73 18187372060094154053
14848178 96 18261110794183112992
15188451 53 13758063066306030321
15342168 16 18339081596499820589
15885798 251 9727627324050121975
1601671 61 18272367573075473284
1741750 31 18408044000327531898
17834072 32 18412545383978488012
17870717 6 5256406093772823185
17980427 23 17561077004461253255
1798214 55 18410012151952875792
1813 80 10807930513405675330
18186145 218 18113616781200022314
18222031 100 11311765194231625987
18927931 339 10519718786307716776
19784866 34 18335703870582285827
200 152 7781517009852104769
20388580 30 7637108278210734906
204376 136 18410576210292936531
20612939 158 18115587200246936278
20645477 56 18410571760363673072
20645477 70 16733249206492758254
21033648 29 18336552637724763856
23227448 37 18339078181557858125
23403322 49 7925912573683265233
23557571 272 18116143377453520270
23559900 14 16986857176698252179
25147074 1 18339100236205074922
270888 7 18412265051241837300
2838139 119 18342185491528117044
293599 30 18410007732632163736
3004659 81 5833989442978989972
3472631 163 18411981321786948852
350125 39 18265610975364409099
351380 3 8502652605945344060
4028521 119 18113899351250988040
474 4 18261960764190174699
5104073 3 18129373968722291011
56616090 163 18335976532291639790
6327066 14 18413111658189312333
633830 44 17822003267846379801
76465 3 9223225252258274045
7808743 9 18341050727114580924
7970288 3 9223227451092580452
8863177 126 7347730033880167789
960060 61 15936405650500500644
9862522 239 17988656206597988773

> <PUBCHEM_SHAPE_MULTIPOLES>
408.69
12.22
2.59
1.21
3.46
1.88
-0.07
-11.64
0.64
-1.32
0.43
0.11
-0.32
0.39

> <PUBCHEM_SHAPE_SELFOVERLAP>
882.889

> <PUBCHEM_SHAPE_VOLUME>
222.5

> <PUBCHEM_COORDINATE_TYPE>
2
5
10

$$$$

