442341
  -OEChem-07051212572D

 85 91  0     1  0  0  0  0  0999 V2000
    7.2066    1.1579    0.0000 O   0  0  0  0  0  0  0  0  0  0  0  0
    7.7556    3.6124    0.0000 O   0  0  0  0  0  0  0  0  0  0  0  0
    6.6743    3.6035    0.0000 O   0  0  0  0  0  0  0  0  0  0  0  0
    8.9657    4.1739    0.0000 O   0  0  0  0  0  0  0  0  0  0  0  0
    5.9340   -3.0475    0.0000 O   0  0  0  0  0  0  0  0  0  0  0  0
    7.5064   -4.2892    0.0000 O   0  0  0  0  0  0  0  0  0  0  0  0
    9.8338   -0.3345    0.0000 N   0  0  3  0  0  0  0  0  0  0  0  0
    2.8660    1.6592    0.0000 N   0  0  3  0  0  0  0  0  0  0  0  0
    8.9657    0.1667    0.0000 C   0  0  1  0  0  0  0  0  0  0  0  0
    3.7341    1.1579    0.0000 C   0  0  1  0  0  0  0  0  0  0  0  0
    8.9657    1.1691    0.0000 C   0  0  0  0  0  0  0  0  0  0  0  0
   10.7020    0.1667    0.0000 C   0  0  0  0  0  0  0  0  0  0  0  0
    9.8338    1.6703    0.0000 C   0  0  0  0  0  0  0  0  0  0  0  0
    4.6022    1.6592    0.0000 C   0  0  0  0  0  0  0  0  0  0  0  0
   10.7020    1.1691    0.0000 C   0  0  0  0  0  0  0  0  0  0  0  0
    8.0976   -0.3345    0.0000 C   0  0  0  0  0  0  0  0  0  0  0  0
    2.8660    2.6616    0.0000 C   0  0  0  0  0  0  0  0  0  0  0  0
    4.6022    2.6616    0.0000 C   0  0  0  0  0  0  0  0  0  0  0  0
    3.7341    3.1628    0.0000 C   0  0  0  0  0  0  0  0  0  0  0  0
    3.7341    0.1555    0.0000 C   0  0  0  0  0  0  0  0  0  0  0  0
    8.0976    1.6703    0.0000 C   0  0  0  0  0  0  0  0  0  0  0  0
    5.4704    1.1579    0.0000 C   0  0  0  0  0  0  0  0  0  0  0  0
    9.8338   -1.3345    0.0000 C   0  0  0  0  0  0  0  0  0  0  0  0
    9.8338    2.6727    0.0000 C   0  0  0  0  0  0  0  0  0  0  0  0
    6.3385    1.6592    0.0000 C   0  0  0  0  0  0  0  0  0  0  0  0
    7.9431   -1.3162    0.0000 C   0  0  0  0  0  0  0  0  0  0  0  0
    5.4704    3.1628    0.0000 C   0  0  0  0  0  0  0  0  0  0  0  0
    8.0976    2.6727    0.0000 C   0  0  0  0  0  0  0  0  0  0  0  0
    2.0000    1.1591    0.0000 C   0  0  0  0  0  0  0  0  0  0  0  0
    4.2424   -0.6253    0.0000 C   0  0  0  0  0  0  0  0  0  0  0  0
    6.3385    2.6616    0.0000 C   0  0  0  0  0  0  0  0  0  0  0  0
    8.9657    3.1739    0.0000 C   0  0  0  0  0  0  0  0  0  0  0  0
    7.0114   -1.6860    0.0000 C   0  0  0  0  0  0  0  0  0  0  0  0
    8.7292   -1.9383    0.0000 C   0  0  0  0  0  0  0  0  0  0  0  0
    5.2438   -0.5814    0.0000 C   0  0  0  0  0  0  0  0  0  0  0  0
    3.7797   -1.5144    0.0000 C   0  0  0  0  0  0  0  0  0  0  0  0
    6.8657   -2.6778    0.0000 C   0  0  0  0  0  0  0  0  0  0  0  0
    8.5835   -2.9300    0.0000 C   0  0  0  0  0  0  0  0  0  0  0  0
    5.3198   -2.3160    0.0000 C   0  0  0  0  0  0  0  0  0  0  0  0
    5.7826   -1.4268    0.0000 C   0  0  0  0  0  0  0  0  0  0  0  0
    4.3184   -2.3598    0.0000 C   0  0  0  0  0  0  0  0  0  0  0  0
    7.6518   -3.2998    0.0000 C   0  0  0  0  0  0  0  0  0  0  0  0
    8.3984    4.3784    0.0000 C   0  0  0  0  0  0  0  0  0  0  0  0
    6.0264    4.3653    0.0000 C   0  0  0  0  0  0  0  0  0  0  0  0
    9.8318    4.6739    0.0000 C   0  0  0  0  0  0  0  0  0  0  0  0
    8.9657   -0.6833    0.0000 H   0  0  0  0  0  0  0  0  0  0  0  0
    2.9980    0.7329    0.0000 H   0  0  0  0  0  0  0  0  0  0  0  0
   10.9140   -0.4159    0.0000 H   0  0  0  0  0  0  0  0  0  0  0  0
   11.3125    0.2743    0.0000 H   0  0  0  0  0  0  0  0  0  0  0  0
   11.3125    1.0614    0.0000 H   0  0  0  0  0  0  0  0  0  0  0  0
   10.9140    1.7517    0.0000 H   0  0  0  0  0  0  0  0  0  0  0  0
    7.9162    0.2583    0.0000 H   0  0  0  0  0  0  0  0  0  0  0  0
    7.4792   -0.3782    0.0000 H   0  0  0  0  0  0  0  0  0  0  0  0
    2.6540    3.2442    0.0000 H   0  0  0  0  0  0  0  0  0  0  0  0
    2.2554    2.5539    0.0000 H   0  0  0  0  0  0  0  0  0  0  0  0
    4.1327    3.6377    0.0000 H   0  0  0  0  0  0  0  0  0  0  0  0
    3.3356    3.6377    0.0000 H   0  0  0  0  0  0  0  0  0  0  0  0
    3.1478    0.3572    0.0000 H   0  0  0  0  0  0  0  0  0  0  0  0
    4.3285    0.3319    0.0000 H   0  0  0  0  0  0  0  0  0  0  0  0
    5.4704    0.5379    0.0000 H   0  0  0  0  0  0  0  0  0  0  0  0
    9.2139   -1.3345    0.0000 H   0  0  0  0  0  0  0  0  0  0  0  0
    9.8338   -1.9545    0.0000 H   0  0  0  0  0  0  0  0  0  0  0  0
   10.4538   -1.3345    0.0000 H   0  0  0  0  0  0  0  0  0  0  0  0
   10.3708    2.9827    0.0000 H   0  0  0  0  0  0  0  0  0  0  0  0
    5.4704    3.7828    0.0000 H   0  0  0  0  0  0  0  0  0  0  0  0
    1.6900    1.6961    0.0000 H   0  0  0  0  0  0  0  0  0  0  0  0
    1.4631    0.8492    0.0000 H   0  0  0  0  0  0  0  0  0  0  0  0
    2.3100    0.6222    0.0000 H   0  0  0  0  0  0  0  0  0  0  0  0
    6.5252   -1.3012    0.0000 H   0  0  0  0  0  0  0  0  0  0  0  0
    9.3054   -1.7096    0.0000 H   0  0  0  0  0  0  0  0  0  0  0  0
    5.5301   -0.0314    0.0000 H   0  0  0  0  0  0  0  0  0  0  0  0
    3.1602   -1.5416    0.0000 H   0  0  0  0  0  0  0  0  0  0  0  0
    9.0697   -3.3148    0.0000 H   0  0  0  0  0  0  0  0  0  0  0  0
    6.4020   -1.3996    0.0000 H   0  0  0  0  0  0  0  0  0  0  0  0
    4.0321   -2.9098    0.0000 H   0  0  0  0  0  0  0  0  0  0  0  0
    8.8734    3.9799    0.0000 H   0  0  0  0  0  0  0  0  0  0  0  0
    8.7969    4.8534    0.0000 H   0  0  0  0  0  0  0  0  0  0  0  0
    7.9234    4.7770    0.0000 H   0  0  0  0  0  0  0  0  0  0  0  0
    6.4987    4.7669    0.0000 H   0  0  0  0  0  0  0  0  0  0  0  0
    5.6247    4.8376    0.0000 H   0  0  0  0  0  0  0  0  0  0  0  0
    5.5541    3.9636    0.0000 H   0  0  0  0  0  0  0  0  0  0  0  0
   10.1418    4.1370    0.0000 H   0  0  0  0  0  0  0  0  0  0  0  0
   10.3687    4.9839    0.0000 H   0  0  0  0  0  0  0  0  0  0  0  0
    9.5218    5.2108    0.0000 H   0  0  0  0  0  0  0  0  0  0  0  0
    7.9926   -4.6739    0.0000 H   0  0  0  0  0  0  0  0  0  0  0  0
  1 21  1  0  0  0  0
  1 25  1  0  0  0  0
  2 28  1  0  0  0  0
  2 43  1  0  0  0  0
  3 31  1  0  0  0  0
  3 44  1  0  0  0  0
  4 32  1  0  0  0  0
  4 45  1  0  0  0  0
  5 37  1  0  0  0  0
  5 39  1  0  0  0  0
  6 42  1  0  0  0  0
  6 85  1  0  0  0  0
  7  9  1  0  0  0  0
  7 12  1  0  0  0  0
  7 23  1  0  0  0  0
  8 10  1  0  0  0  0
  8 17  1  0  0  0  0
  8 29  1  0  0  0  0
  9 11  1  0  0  0  0
  9 16  1  0  0  0  0
  9 46  1  1  0  0  0
 10 14  1  0  0  0  0
 10 20  1  0  0  0  0
 10 47  1  6  0  0  0
 11 13  1  0  0  0  0
 11 21  2  0  0  0  0
 12 15  1  0  0  0  0
 12 48  1  0  0  0  0
 12 49  1  0  0  0  0
 13 15  1  0  0  0  0
 13 24  2  0  0  0  0
 14 18  1  0  0  0  0
 14 22  2  0  0  0  0
 15 50  1  0  0  0  0
 15 51  1  0  0  0  0
 16 26  1  0  0  0  0
 16 52  1  0  0  0  0
 16 53  1  0  0  0  0
 17 19  1  0  0  0  0
 17 54  1  0  0  0  0
 17 55  1  0  0  0  0
 18 19  1  0  0  0  0
 18 27  2  0  0  0  0
 19 56  1  0  0  0  0
 19 57  1  0  0  0  0
 20 30  1  0  0  0  0
 20 58  1  0  0  0  0
 20 59  1  0  0  0  0
 21 28  1  0  0  0  0
 22 25  1  0  0  0  0
 22 60  1  0  0  0  0
 23 61  1  0  0  0  0
 23 62  1  0  0  0  0
 23 63  1  0  0  0  0
 24 32  1  0  0  0  0
 24 64  1  0  0  0  0
 25 31  2  0  0  0  0
 26 33  2  0  0  0  0
 26 34  1  0  0  0  0
 27 31  1  0  0  0  0
 27 65  1  0  0  0  0
 28 32  2  0  0  0  0
 29 66  1  0  0  0  0
 29 67  1  0  0  0  0
 29 68  1  0  0  0  0
 30 35  2  0  0  0  0
 30 36  1  0  0  0  0
 33 37  1  0  0  0  0
 33 69  1  0  0  0  0
 34 38  2  0  0  0  0
 34 70  1  0  0  0  0
 35 40  1  0  0  0  0
 35 71  1  0  0  0  0
 36 41  2  0  0  0  0
 36 72  1  0  0  0  0
 37 42  2  0  0  0  0
 38 42  1  0  0  0  0
 38 73  1  0  0  0  0
 39 40  2  0  0  0  0
 39 41  1  0  0  0  0
 40 74  1  0  0  0  0
 41 75  1  0  0  0  0
 43 76  1  0  0  0  0
 43 77  1  0  0  0  0
 43 78  1  0  0  0  0
 44 79  1  0  0  0  0
 44 80  1  0  0  0  0
 44 81  1  0  0  0  0
 45 82  1  0  0  0  0
 45 83  1  0  0  0  0
 45 84  1  0  0  0  0
M  END
> <PUBCHEM_COMPOUND_CID>
442341

> <PUBCHEM_COMPOUND_CANONICALIZED>
1

> <PUBCHEM_CACTVS_COMPLEXITY>
963

> <PUBCHEM_CACTVS_HBOND_ACCEPTOR>
8

> <PUBCHEM_CACTVS_HBOND_DONOR>
1

> <PUBCHEM_CACTVS_ROTATABLE_BOND>
3

> <PUBCHEM_CACTVS_SUBSKEYS>
AAADcfB/OAAAAAAAAAAAAAAAAAAAAAAAAAA8eMGCAAAAAACxVAAAHgAACAAADCzBmAYyBoMABgCAAiBCAACCCAAgIAAIiAAOjIgNJyKGsRuGeCvnwBWLuAew8P8OoAABCAAYQABAAAIQADCAAAAAAAAAAA==

> <PUBCHEM_IUPAC_INCHI>
InChI=1S/C37H40N2O6/c1-38-14-12-24-19-32(41-3)33-21-27(24)28(38)16-22-6-9-26(10-7-22)44-31-18-23(8-11-30(31)40)17-29-35-25(13-15-39(29)2)20-34(42-4)36(43-5)37(35)45-33/h6-11,18-21,28-29,40H,12-17H2,1-5H3/t28-,29-/m1/s1

> <PUBCHEM_IUPAC_INCHIKEY>
DFOCUWZXJBAUSQ-FQLXRVMXSA-N

> <PUBCHEM_XLOGP3_AA>
6.1

> <PUBCHEM_EXACT_MASS>
608.288637

> <PUBCHEM_MOLECULAR_FORMULA>
C37H40N2O6

> <PUBCHEM_MOLECULAR_WEIGHT>
608.7233

> <PUBCHEM_OPENEYE_CAN_SMILES>
CN1CCC2=CC(=C3C=C2C1CC4=CC=C(C=C4)OC5=C(C=CC(=C5)CC6C7=C(O3)C(=C(C=C7CCN6C)OC)OC)O)OC

> <PUBCHEM_OPENEYE_ISO_SMILES>
CN1CCC2=CC(=C3C=C2[C@H]1CC4=CC=C(C=C4)OC5=C(C=CC(=C5)C[C@@H]6C7=C(O3)C(=C(C=C7CCN6C)OC)OC)O)OC

> <PUBCHEM_CACTVS_TPSA>
72.9

> <PUBCHEM_MONOISOTOPIC_WEIGHT>
608.288637

> <PUBCHEM_TOTAL_CHARGE>
0

> <PUBCHEM_HEAVY_ATOM_COUNT>
45

> <PUBCHEM_ATOM_DEF_STEREO_COUNT>
2

> <PUBCHEM_ATOM_UDEF_STEREO_COUNT>
0

> <PUBCHEM_BOND_DEF_STEREO_COUNT>
0

> <PUBCHEM_BOND_UDEF_STEREO_COUNT>
0

> <PUBCHEM_ISOTOPIC_ATOM_COUNT>
0

> <PUBCHEM_COMPONENT_COUNT>
1

> <PUBCHEM_CACTVS_TAUTO_COUNT>
1

> <PUBCHEM_COORDINATE_TYPE>
1
5
255

> <PUBCHEM_BONDANNOTATIONS>
10  47  6
11  13  8
11  21  8
13  24  8
14  18  8
14  22  8
18  27  8
21  28  8
22  25  8
24  32  8
25  31  8
26  33  8
26  34  8
27  31  8
28  32  8
30  35  8
30  36  8
33  37  8
34  38  8
35  40  8
36  41  8
37  42  8
38  42  8
39  40  8
39  41  8
9  46  5

$$$$

