53174
  -OEChem-07051213093D

 35 36  0     0  0  0  0  0  0999 V2000
   -3.7261   -0.2647   -0.6798 S   0  0  0  0  0  0  0  0  0  0  0  0
   -3.8371    0.6122   -1.8358 O   0  0  0  0  0  0  0  0  0  0  0  0
   -4.3750   -1.5675   -0.6932 O   0  0  0  0  0  0  0  0  0  0  0  0
    5.9380    1.0142   -0.1156 O   0  0  0  0  0  0  0  0  0  0  0  0
    4.9931   -0.8602    0.7861 O   0  0  0  0  0  0  0  0  0  0  0  0
    1.3688    0.9841   -0.6963 N   0  0  0  0  0  0  0  0  0  0  0  0
    2.0466   -0.8344    0.3869 N   0  0  0  0  0  0  0  0  0  0  0  0
    3.6995    0.7857   -0.2831 N   0  0  0  0  0  0  0  0  0  0  0  0
   -4.3492    0.6122    0.7357 C   0  0  0  0  0  0  0  0  0  0  0  0
   -2.0255   -0.4855   -0.3365 C   0  0  0  0  0  0  0  0  0  0  0  0
   -5.8370    0.8918    0.6027 C   0  0  0  0  0  0  0  0  0  0  0  0
    0.2309    0.2600   -0.4490 C   0  0  0  0  0  0  0  0  0  0  0  0
   -1.1120    0.4896   -0.7502 C   0  0  0  0  0  0  0  0  0  0  0  0
    0.6803   -0.8703    0.2279 C   0  0  0  0  0  0  0  0  0  0  0  0
   -1.6051   -1.6301    0.3446 C   0  0  0  0  0  0  0  0  0  0  0  0
   -0.2513   -1.8396    0.6363 C   0  0  0  0  0  0  0  0  0  0  0  0
   -6.3680    1.6586    1.8023 C   0  0  0  0  0  0  0  0  0  0  0  0
    2.4263    0.2897   -0.1782 C   0  0  0  0  0  0  0  0  0  0  0  0
    4.8767    0.2030    0.1895 C   0  0  0  0  0  0  0  0  0  0  0  0
    7.2264    0.5513    0.3058 C   0  0  0  0  0  0  0  0  0  0  0  0
   -3.7853    1.5471    0.8167 H   0  0  0  0  0  0  0  0  0  0  0  0
   -4.1486   -0.0026    1.6191 H   0  0  0  0  0  0  0  0  0  0  0  0
   -6.0325    1.4699   -0.3080 H   0  0  0  0  0  0  0  0  0  0  0  0
   -6.3906   -0.0491    0.5031 H   0  0  0  0  0  0  0  0  0  0  0  0
   -1.4166    1.3887   -1.2737 H   0  0  0  0  0  0  0  0  0  0  0  0
   -2.3214   -2.3806    0.6698 H   0  0  0  0  0  0  0  0  0  0  0  0
    0.0654   -2.7314    1.1674 H   0  0  0  0  0  0  0  0  0  0  0  0
    1.4174    1.8730   -1.1760 H   0  0  0  0  0  0  0  0  0  0  0  0
   -5.8612    2.6232    1.9070 H   0  0  0  0  0  0  0  0  0  0  0  0
   -7.4397    1.8489    1.6868 H   0  0  0  0  0  0  0  0  0  0  0  0
   -6.2215    1.0910    2.7268 H   0  0  0  0  0  0  0  0  0  0  0  0
    3.7956    1.6792   -0.7592 H   0  0  0  0  0  0  0  0  0  0  0  0
    7.2560    0.4552    1.3953 H   0  0  0  0  0  0  0  0  0  0  0  0
    7.9701    1.2911   -0.0017 H   0  0  0  0  0  0  0  0  0  0  0  0
    7.4611   -0.4033   -0.1746 H   0  0  0  0  0  0  0  0  0  0  0  0
  1  2  2  0  0  0  0
  1  3  2  0  0  0  0
  1  9  1  0  0  0  0
  1 10  1  0  0  0  0
  4 19  1  0  0  0  0
  4 20  1  0  0  0  0
  5 19  2  0  0  0  0
  6 12  1  0  0  0  0
  6 18  1  0  0  0  0
  6 28  1  0  0  0  0
  7 14  1  0  0  0  0
  7 18  2  0  0  0  0
  8 18  1  0  0  0  0
  8 19  1  0  0  0  0
  8 32  1  0  0  0  0
  9 11  1  0  0  0  0
  9 21  1  0  0  0  0
  9 22  1  0  0  0  0
 10 13  2  0  0  0  0
 10 15  1  0  0  0  0
 11 17  1  0  0  0  0
 11 23  1  0  0  0  0
 11 24  1  0  0  0  0
 12 13  1  0  0  0  0
 12 14  2  0  0  0  0
 13 25  1  0  0  0  0
 14 16  1  0  0  0  0
 15 16  2  0  0  0  0
 15 26  1  0  0  0  0
 16 27  1  0  0  0  0
 17 29  1  0  0  0  0
 17 30  1  0  0  0  0
 17 31  1  0  0  0  0
 20 33  1  0  0  0  0
 20 34  1  0  0  0  0
 20 35  1  0  0  0  0
M  END
> <PUBCHEM_COMPOUND_CID>
53174

> <PUBCHEM_CONFORMER_RMSD>
0.8

> <PUBCHEM_CONFORMER_DIVERSEORDER>
1
15
11
6
10
7
13
4
9
12
5
8
14
2
3

> <PUBCHEM_MMFF94_PARTIAL_CHARGES>
23
1 1.2
10 -0.01
12 -0.15
13 -0.15
14 0.23
15 -0.15
16 -0.15
18 0.25
19 0.78
2 -0.65
20 0.28
25 0.15
26 0.15
27 0.15
28 0.27
3 -0.65
32 0.37
4 -0.43
5 -0.57
6 0.03
7 -0.57
8 -0.49
9 0.11

> <PUBCHEM_EFFECTIVE_ROTOR_COUNT>
6

> <PUBCHEM_PHARMACOPHORE_FEATURES>
8
1 17 hydrophobe
1 2 acceptor
1 3 acceptor
1 5 acceptor
1 6 donor
1 8 donor
5 6 7 12 14 18 rings
6 10 12 13 14 15 16 rings

> <PUBCHEM_HEAVY_ATOM_COUNT>
20

> <PUBCHEM_ATOM_DEF_STEREO_COUNT>
0

> <PUBCHEM_ATOM_UDEF_STEREO_COUNT>
0

> <PUBCHEM_BOND_DEF_STEREO_COUNT>
0

> <PUBCHEM_BOND_UDEF_STEREO_COUNT>
0

> <PUBCHEM_ISOTOPIC_ATOM_COUNT>
0

> <PUBCHEM_COMPONENT_COUNT>
1

> <PUBCHEM_CACTVS_TAUTO_COUNT>
5

> <PUBCHEM_CONFORMER_ID>
0000CFB600000001

> <PUBCHEM_MMFF94_ENERGY>
23.13

> <PUBCHEM_FEATURE_SELFOVERLAP>
40.755

> <PUBCHEM_SHAPE_FINGERPRINT>
10 15 17132112420840092236
106641 1 17988916752716004553
10906281 52 18341035347052673222
11315181 36 18336268942518433941
117890 112 18040152916259300360
12091667 2 17275111621408210798
12236239 1 18187645829772694811
12670543 26 5545202692479083529
13533116 47 18260833752335552690
13583140 156 15338850733258216023
13914758 101 16878216567582668330
14251752 14 15936688254689295060
14251764 18 18342175544367762179
15048467 5 18113616802458723897
15716309 27 14333406739889846216
15778101 99 18113896066128410363
18222031 100 8574427595556386454
18769570 83 17603864541873384697
19489759 90 16587742027504777082
200 152 17530965757084100798
20281389 69 18334575767536919465
20621476 66 18335696148110015265
20645477 56 17917721179841176838
21267235 1 17988361468583257119
21756936 100 18186519917471424235
220451 1 18343865511462939478
22224240 67 18060133241938950395
23402539 116 17894352163556424045
23536379 177 17530682121517229310
23559900 14 18339086978458079592
2838139 119 17385444332344286385
300161 21 16515405187509496199
3009799 131 5112006114672746835
3545911 37 18131356298172205094
4340502 62 15554448517861071570
5104073 3 17987238833363029216
5385378 56 18341890848456126610
542803 24 18187087247663753006
7226269 152 18333449858929424497

> <PUBCHEM_SHAPE_MULTIPOLES>
377.02
15.99
1.51
1.13
11.8
0.33
0.07
-7.94
-4.2
-1.36
-0.39
-1.54
-0.23
-1.42

> <PUBCHEM_SHAPE_SELFOVERLAP>
782.03

> <PUBCHEM_SHAPE_VOLUME>
217.1

> <PUBCHEM_COORDINATE_TYPE>
2
5
10

$$$$

