4810
  -OEChem-07051212532D

 28 29  0     0  0  0  0  0  0999 V2000
    6.3301    0.0453    0.0000 Cl  0  0  0  0  0  0  0  0  0  0  0  0
    2.8660    0.0453    0.0000 O   0  0  0  0  0  0  0  0  0  0  0  0
    5.5686    2.5398    0.0000 N   0  0  0  0  0  0  0  0  0  0  0  0
    4.5981    1.0453    0.0000 N   0  0  0  0  0  0  0  0  0  0  0  0
    6.3776    1.1386    0.0000 N   0  0  0  0  0  0  0  0  0  0  0  0
    3.7320   -1.4547    0.0000 N   0  0  0  0  0  0  0  0  0  0  0  0
    5.4641   -1.4547    0.0000 N   0  0  0  0  0  0  0  0  0  0  0  0
    6.5468    2.7477    0.0000 C   0  0  0  0  0  0  0  0  0  0  0  0
    7.0468    1.8817    0.0000 C   0  0  0  0  0  0  0  0  0  0  0  0
    5.4641    1.5453    0.0000 C   0  0  0  0  0  0  0  0  0  0  0  0
    4.5981    0.0453    0.0000 C   0  0  0  0  0  0  0  0  0  0  0  0
    3.7320   -0.4547    0.0000 C   0  0  0  0  0  0  0  0  0  0  0  0
    5.4641   -0.4547    0.0000 C   0  0  0  0  0  0  0  0  0  0  0  0
    4.5981   -1.9547    0.0000 C   0  0  0  0  0  0  0  0  0  0  0  0
    4.5981   -2.9547    0.0000 C   0  0  0  0  0  0  0  0  0  0  0  0
    2.0000   -0.4547    0.0000 C   0  0  0  0  0  0  0  0  0  0  0  0
    7.1132    2.9999    0.0000 H   0  0  0  0  0  0  0  0  0  0  0  0
    6.3552    3.3374    0.0000 H   0  0  0  0  0  0  0  0  0  0  0  0
    7.4616    1.4210    0.0000 H   0  0  0  0  0  0  0  0  0  0  0  0
    7.5484    2.2461    0.0000 H   0  0  0  0  0  0  0  0  0  0  0  0
    5.1079    2.9547    0.0000 H   0  0  0  0  0  0  0  0  0  0  0  0
    4.0611    1.3553    0.0000 H   0  0  0  0  0  0  0  0  0  0  0  0
    3.9781   -2.9547    0.0000 H   0  0  0  0  0  0  0  0  0  0  0  0
    4.5981   -3.5747    0.0000 H   0  0  0  0  0  0  0  0  0  0  0  0
    5.2181   -2.9547    0.0000 H   0  0  0  0  0  0  0  0  0  0  0  0
    1.6900    0.0822    0.0000 H   0  0  0  0  0  0  0  0  0  0  0  0
    1.4631   -0.7647    0.0000 H   0  0  0  0  0  0  0  0  0  0  0  0
    2.3100   -0.9916    0.0000 H   0  0  0  0  0  0  0  0  0  0  0  0
  1 13  1  0  0  0  0
  2 12  1  0  0  0  0
  2 16  1  0  0  0  0
  3  8  1  0  0  0  0
  3 10  1  0  0  0  0
  3 21  1  0  0  0  0
  4 10  1  0  0  0  0
  4 11  1  0  0  0  0
  4 22  1  0  0  0  0
  5  9  1  0  0  0  0
  5 10  2  0  0  0  0
  6 12  1  0  0  0  0
  6 14  2  0  0  0  0
  7 13  2  0  0  0  0
  7 14  1  0  0  0  0
  8  9  1  0  0  0  0
  8 17  1  0  0  0  0
  8 18  1  0  0  0  0
  9 19  1  0  0  0  0
  9 20  1  0  0  0  0
 11 12  2  0  0  0  0
 11 13  1  0  0  0  0
 14 15  1  0  0  0  0
 15 23  1  0  0  0  0
 15 24  1  0  0  0  0
 15 25  1  0  0  0  0
 16 26  1  0  0  0  0
 16 27  1  0  0  0  0
 16 28  1  0  0  0  0
M  END
> <PUBCHEM_COMPOUND_CID>
4810

> <PUBCHEM_COMPOUND_CANONICALIZED>
1

> <PUBCHEM_CACTVS_COMPLEXITY>
275

> <PUBCHEM_CACTVS_HBOND_ACCEPTOR>
4

> <PUBCHEM_CACTVS_HBOND_DONOR>
2

> <PUBCHEM_CACTVS_ROTATABLE_BOND>
3

> <PUBCHEM_CACTVS_SUBSKEYS>
AAADccBzoAAEAAAAAAAAAAAAAAAAAQAAAAAsAAAAAAAAAAABgAAAHgIQAAAACArBkyYD1JbIFACgAAZgZACAiCkBNKABEKA9XhCGTABEaEhVBCgKEArQICAAAAAAAAAAAAAAAAAAAAAAAAAAAAAAAAAAAA==

> <PUBCHEM_IUPAC_OPENEYE_NAME>
4-chloro-N-(4,5-dihydro-1H-imidazol-2-yl)-6-methoxy-2-methyl-pyrimidin-5-amine

> <PUBCHEM_IUPAC_CAS_NAME>
4-chloro-N-(4,5-dihydro-1H-imidazol-2-yl)-6-methoxy-2-methyl-5-pyrimidinamine

> <PUBCHEM_IUPAC_NAME>
4-chloro-N-(4,5-dihydro-1H-imidazol-2-yl)-6-methoxy-2-methylpyrimidin-5-amine

> <PUBCHEM_IUPAC_SYSTEMATIC_NAME>
4-chloranyl-N-(4,5-dihydro-1H-imidazol-2-yl)-6-methoxy-2-methyl-pyrimidin-5-amine

> <PUBCHEM_IUPAC_TRADITIONAL_NAME>
(4-chloro-6-methoxy-2-methyl-pyrimidin-5-yl)-(2-imidazolin-2-yl)amine

> <PUBCHEM_IUPAC_INCHI>
InChI=1S/C9H12ClN5O/c1-5-13-7(10)6(8(14-5)16-2)15-9-11-3-4-12-9/h3-4H2,1-2H3,(H2,11,12,15)

> <PUBCHEM_IUPAC_INCHIKEY>
WPNJAUFVNXKLIM-UHFFFAOYSA-N

> <PUBCHEM_XLOGP3_AA>
0.6

> <PUBCHEM_EXACT_MASS>
241.073038

> <PUBCHEM_MOLECULAR_FORMULA>
C9H12ClN5O

> <PUBCHEM_MOLECULAR_WEIGHT>
241.67748

> <PUBCHEM_OPENEYE_CAN_SMILES>
CC1=NC(=C(C(=N1)Cl)NC2=NCCN2)OC

> <PUBCHEM_OPENEYE_ISO_SMILES>
CC1=NC(=C(C(=N1)Cl)NC2=NCCN2)OC

> <PUBCHEM_CACTVS_TPSA>
71.4

> <PUBCHEM_MONOISOTOPIC_WEIGHT>
241.073038

> <PUBCHEM_TOTAL_CHARGE>
0

> <PUBCHEM_HEAVY_ATOM_COUNT>
16

> <PUBCHEM_ATOM_DEF_STEREO_COUNT>
0

> <PUBCHEM_ATOM_UDEF_STEREO_COUNT>
0

> <PUBCHEM_BOND_DEF_STEREO_COUNT>
0

> <PUBCHEM_BOND_UDEF_STEREO_COUNT>
0

> <PUBCHEM_ISOTOPIC_ATOM_COUNT>
0

> <PUBCHEM_COMPONENT_COUNT>
1

> <PUBCHEM_CACTVS_TAUTO_COUNT>
2

> <PUBCHEM_COORDINATE_TYPE>
1
5
255

> <PUBCHEM_BONDANNOTATIONS>
11  12  8
11  13  8
6  12  8
6  14  8
7  13  8
7  14  8

$$$$

