41867
  -OEChem-07051213013D

 68 72  0     1  0  0  0  0  0999 V2000
    2.0549    1.0714   -0.3316 O   0  0  0  0  0  0  0  0  0  0  0  0
    4.1993    1.7441   -1.0960 O   0  0  0  0  0  0  0  0  0  0  0  0
    3.0846   -1.2476    0.9420 O   0  0  0  0  0  0  0  0  0  0  0  0
    5.3685    2.7328    2.2377 O   0  0  0  0  0  0  0  0  0  0  0  0
   -0.7180    1.6192   -1.4691 O   0  0  0  0  0  0  0  0  0  0  0  0
   -1.2125   -3.3507    0.8800 O   0  0  0  0  0  0  0  0  0  0  0  0
    4.3811   -3.0702   -1.4649 O   0  0  0  0  0  0  0  0  0  0  0  0
    4.9370   -4.9246    0.3982 O   0  0  0  0  0  0  0  0  0  0  0  0
   -3.1906    1.9450   -1.0891 O   0  0  0  0  0  0  0  0  0  0  0  0
   -3.6635   -2.8617    1.1954 O   0  0  0  0  0  0  0  0  0  0  0  0
   -5.6918    2.4244   -0.8005 O   0  0  0  0  0  0  0  0  0  0  0  0
    3.2594    4.7302    1.6999 N   0  0  0  0  0  0  0  0  0  0  0  0
    1.5905    0.0887   -1.2550 C   0  0  1  0  0  0  0  0  0  0  0  0
    2.6768   -1.9585   -0.2201 C   0  0  2  0  0  0  0  0  0  0  0  0
    2.6408   -1.0146   -1.4241 C   0  0  0  0  0  0  0  0  0  0  0  0
    1.3148   -2.6248   -0.0004 C   0  0  0  0  0  0  0  0  0  0  0  0
    0.2626   -0.4254   -0.7572 C   0  0  0  0  0  0  0  0  0  0  0  0
    0.1405   -1.6828   -0.1415 C   0  0  0  0  0  0  0  0  0  0  0  0
    2.8155    2.0799   -0.9893 C   0  0  2  0  0  0  0  0  0  0  0  0
    2.6410    3.4134   -0.2659 C   0  0  0  0  0  0  0  0  0  0  0  0
    3.3292    3.3954    1.1027 C   0  0  1  0  0  0  0  0  0  0  0  0
    4.7877    2.9401    0.9535 C   0  0  2  0  0  0  0  0  0  0  0  0
    4.8597    1.6236    0.1665 C   0  0  2  0  0  0  0  0  0  0  0  0
   -0.8734    0.3927   -0.8837 C   0  0  0  0  0  0  0  0  0  0  0  0
    3.7249   -3.0151   -0.4260 C   0  0  0  0  0  0  0  0  0  0  0  0
   -1.1186   -2.1095    0.3132 C   0  0  0  0  0  0  0  0  0  0  0  0
   -2.1217   -0.0376   -0.4200 C   0  0  0  0  0  0  0  0  0  0  0  0
   -2.2447   -1.2898    0.1772 C   0  0  0  0  0  0  0  0  0  0  0  0
    6.3035    1.2151   -0.1139 C   0  0  0  0  0  0  0  0  0  0  0  0
    3.9203   -3.9960    0.7105 C   0  0  0  0  0  0  0  0  0  0  0  0
   -3.3000    0.8412   -0.5700 C   0  0  0  0  0  0  0  0  0  0  0  0
   -3.5561   -1.7619    0.6671 C   0  0  0  0  0  0  0  0  0  0  0  0
   -4.6131    0.3683   -0.0858 C   0  0  0  0  0  0  0  0  0  0  0  0
   -4.7368   -0.8881    0.5107 C   0  0  0  0  0  0  0  0  0  0  0  0
   -5.7392    1.1879   -0.2278 C   0  0  0  0  0  0  0  0  0  0  0  0
   -5.9868   -1.3254    0.9651 C   0  0  0  0  0  0  0  0  0  0  0  0
   -6.9831    0.7481    0.2260 C   0  0  0  0  0  0  0  0  0  0  0  0
   -7.1066   -0.5057    0.8214 C   0  0  0  0  0  0  0  0  0  0  0  0
   -5.4361    3.5284    0.0646 C   0  0  0  0  0  0  0  0  0  0  0  0
    1.4273    0.5132   -2.2554 H   0  0  0  0  0  0  0  0  0  0  0  0
    2.3958   -1.5938   -2.3259 H   0  0  0  0  0  0  0  0  0  0  0  0
    3.6303   -0.5778   -1.5899 H   0  0  0  0  0  0  0  0  0  0  0  0
    1.2921   -3.0538    1.0093 H   0  0  0  0  0  0  0  0  0  0  0  0
    1.1804   -3.4365   -0.7279 H   0  0  0  0  0  0  0  0  0  0  0  0
    2.4503    2.2381   -2.0111 H   0  0  0  0  0  0  0  0  0  0  0  0
    1.5746    3.6389   -0.1438 H   0  0  0  0  0  0  0  0  0  0  0  0
    3.0850    4.2061   -0.8829 H   0  0  0  0  0  0  0  0  0  0  0  0
    2.8030    2.7081    1.7767 H   0  0  0  0  0  0  0  0  0  0  0  0
    5.3695    3.7104    0.4303 H   0  0  0  0  0  0  0  0  0  0  0  0
    4.4012    0.8191    0.7483 H   0  0  0  0  0  0  0  0  0  0  0  0
    2.8514   -1.7631    1.7317 H   0  0  0  0  0  0  0  0  0  0  0  0
    6.3280    0.2858   -0.6939 H   0  0  0  0  0  0  0  0  0  0  0  0
    6.8151    1.9741   -0.7160 H   0  0  0  0  0  0  0  0  0  0  0  0
    6.8680    1.0601    0.8102 H   0  0  0  0  0  0  0  0  0  0  0  0
    2.2880    5.0367    1.7416 H   0  0  0  0  0  0  0  0  0  0  0  0
    3.7418    5.4023    1.1042 H   0  0  0  0  0  0  0  0  0  0  0  0
    3.0023   -4.5630    0.8770 H   0  0  0  0  0  0  0  0  0  0  0  0
    4.2052   -3.4751    1.6274 H   0  0  0  0  0  0  0  0  0  0  0  0
    5.2877    3.5674    2.7302 H   0  0  0  0  0  0  0  0  0  0  0  0
    0.1850    1.9462   -1.3373 H   0  0  0  0  0  0  0  0  0  0  0  0
   -0.5328   -3.9451    0.5256 H   0  0  0  0  0  0  0  0  0  0  0  0
   -6.1093   -2.2987    1.4326 H   0  0  0  0  0  0  0  0  0  0  0  0
    5.7733   -4.4325    0.3343 H   0  0  0  0  0  0  0  0  0  0  0  0
   -7.8630    1.3771    0.1185 H   0  0  0  0  0  0  0  0  0  0  0  0
   -8.0760   -0.8458    1.1739 H   0  0  0  0  0  0  0  0  0  0  0  0
   -6.3351    3.7615    0.6435 H   0  0  0  0  0  0  0  0  0  0  0  0
   -5.1828    4.3956   -0.5514 H   0  0  0  0  0  0  0  0  0  0  0  0
   -4.6025    3.3251    0.7446 H   0  0  0  0  0  0  0  0  0  0  0  0
  1 13  1  0  0  0  0
  1 19  1  0  0  0  0
  2 19  1  0  0  0  0
  2 23  1  0  0  0  0
  3 14  1  0  0  0  0
  3 51  1  0  0  0  0
  4 22  1  0  0  0  0
  4 59  1  0  0  0  0
  5 24  1  0  0  0  0
  5 60  1  0  0  0  0
  6 26  1  0  0  0  0
  6 61  1  0  0  0  0
  7 25  2  0  0  0  0
  8 30  1  0  0  0  0
  8 63  1  0  0  0  0
  9 31  2  0  0  0  0
 10 32  2  0  0  0  0
 11 35  1  0  0  0  0
 11 39  1  0  0  0  0
 12 21  1  0  0  0  0
 12 55  1  0  0  0  0
 12 56  1  0  0  0  0
 13 15  1  0  0  0  0
 13 17  1  0  0  0  0
 13 40  1  0  0  0  0
 14 15  1  0  0  0  0
 14 16  1  0  0  0  0
 14 25  1  0  0  0  0
 15 41  1  0  0  0  0
 15 42  1  0  0  0  0
 16 18  1  0  0  0  0
 16 43  1  0  0  0  0
 16 44  1  0  0  0  0
 17 18  2  0  0  0  0
 17 24  1  0  0  0  0
 18 26  1  0  0  0  0
 19 20  1  0  0  0  0
 19 45  1  0  0  0  0
 20 21  1  0  0  0  0
 20 46  1  0  0  0  0
 20 47  1  0  0  0  0
 21 22  1  0  0  0  0
 21 48  1  0  0  0  0
 22 23  1  0  0  0  0
 22 49  1  0  0  0  0
 23 29  1  0  0  0  0
 23 50  1  0  0  0  0
 24 27  2  0  0  0  0
 25 30  1  0  0  0  0
 26 28  2  0  0  0  0
 27 28  1  0  0  0  0
 27 31  1  0  0  0  0
 28 32  1  0  0  0  0
 29 52  1  0  0  0  0
 29 53  1  0  0  0  0
 29 54  1  0  0  0  0
 30 57  1  0  0  0  0
 30 58  1  0  0  0  0
 31 33  1  0  0  0  0
 32 34  1  0  0  0  0
 33 34  2  0  0  0  0
 33 35  1  0  0  0  0
 34 36  1  0  0  0  0
 35 37  2  0  0  0  0
 36 38  2  0  0  0  0
 36 62  1  0  0  0  0
 37 38  1  0  0  0  0
 37 64  1  0  0  0  0
 38 65  1  0  0  0  0
 39 66  1  0  0  0  0
 39 67  1  0  0  0  0
 39 68  1  0  0  0  0
M  END
> <PUBCHEM_COMPOUND_CID>
41867

> <PUBCHEM_CONFORMER_RMSD>
1

> <PUBCHEM_CONFORMER_DIVERSEORDER>
1
5
12
8
9
10
7
4
6
3
2
11

> <PUBCHEM_MMFF94_PARTIAL_CHARGES>
46
1 -0.56
10 -0.57
11 -0.36
12 -0.99
13 0.42
14 0.34
16 0.14
17 -0.14
18 -0.14
19 0.56
2 -0.56
21 0.27
22 0.28
23 0.28
24 0.08
25 0.45
26 0.08
27 0.09
28 0.09
3 -0.68
30 0.34
31 0.4
32 0.4
33 0.09
34 0.09
35 0.08
36 -0.15
37 -0.15
38 -0.15
39 0.28
4 -0.68
5 -0.53
51 0.4
55 0.36
56 0.36
59 0.4
6 -0.53
60 0.45
61 0.45
62 0.15
63 0.4
64 0.15
65 0.15
7 -0.57
8 -0.68
9 -0.57

> <PUBCHEM_EFFECTIVE_ROTOR_COUNT>
7

> <PUBCHEM_PHARMACOPHORE_FEATURES>
21
1 1 acceptor
1 10 acceptor
1 11 acceptor
1 12 cation
1 12 donor
1 2 acceptor
1 3 acceptor
1 3 donor
1 4 acceptor
1 4 donor
1 5 donor
1 6 donor
1 7 acceptor
1 8 acceptor
1 8 donor
1 9 acceptor
6 13 14 15 16 17 18 rings
6 17 18 24 26 27 28 rings
6 2 19 20 21 22 23 rings
6 27 28 31 32 33 34 rings
6 33 34 35 36 37 38 rings

> <PUBCHEM_HEAVY_ATOM_COUNT>
39

> <PUBCHEM_ATOM_DEF_STEREO_COUNT>
6

> <PUBCHEM_ATOM_UDEF_STEREO_COUNT>
0

> <PUBCHEM_BOND_DEF_STEREO_COUNT>
0

> <PUBCHEM_BOND_UDEF_STEREO_COUNT>
0

> <PUBCHEM_ISOTOPIC_ATOM_COUNT>
0

> <PUBCHEM_COMPONENT_COUNT>
1

> <PUBCHEM_CACTVS_TAUTO_COUNT>
81

> <PUBCHEM_CONFORMER_ID>
0000A38B00000001

> <PUBCHEM_MMFF94_ENERGY>
123.4237

> <PUBCHEM_FEATURE_SELFOVERLAP>
106.688

> <PUBCHEM_SHAPE_FINGERPRINT>
10050765 1 18411417298355726599
10319926 262 18270402663923155664
10439779 11 18410015442293898936
1100329 8 17760929945811371300
11456790 92 17983005945402850449
11828422 8 17605299314585486640
12128747 34 18413385458170013821
12166972 35 18189054359828754579
12422481 6 18130231436914413480
12741549 16 17679594599738849738
12788726 201 17833822052242988158
12857493 111 17471290025327524990
12925494 130 18410862044403204345
131258 43 17461417391011576926
13140716 1 18272086162544085295
13383668 362 18272370841440383306
13692114 37 18124599678333553954
13757389 114 17115770134893174620
14068700 686 17977095765139836899
14790565 3 17839165321617371620
14955137 171 18193560201434471150
15351339 4 18336830896061321673
15927050 60 18337951165160706174
16112460 7 18191011503722671993
17913733 40 18261670368149580913
21033648 29 17972610888113641232
21130935 74 18412254044348550939
21792934 111 18202280321708152929
22149856 69 18199442460848452499
22182313 1 17917723404444579447
23559900 14 18272364300046273207
244849 19 17916563389391192659
3298306 158 18262519178352409992
3411729 13 18413107234842157734
350125 39 18201430441410147095
4073 2 18130495358286133723
4093350 32 17676476272333256031
4144715 1 18271517676282984603
4340502 62 18410571751863649845
5104073 3 18271516590078005073
5109719 28 18119518852070077737
5265222 85 17981311302217773236
5385378 56 18409731742708335888
6086070 43 18190732219020188229
9896288 288 17548985456147794026

> <PUBCHEM_SHAPE_MULTIPOLES>
733.06
16.3
5.66
1.3
14.82
0.47
0.15
-5.84
3.64
-8.6
1.9
-1.06
-0.54
2.91

> <PUBCHEM_SHAPE_SELFOVERLAP>
1620.86

> <PUBCHEM_SHAPE_VOLUME>
386.3

> <PUBCHEM_COORDINATE_TYPE>
2
5
10

$$$$

