121920
  -OEChem-07051212493D

 44 44  0     1  0  0  0  0  0999 V2000
   -1.1330    3.0902   -0.6635 P   0  0  0  0  0  0  0  0  0  0  0  0
    1.3200   -2.9007   -0.7710 P   0  0  0  0  0  0  0  0  0  0  0  0
   -3.0739   -1.1336   -0.5547 P   0  0  0  0  0  0  0  0  0  0  0  0
    3.1969    1.2078   -0.1498 P   0  0  0  0  0  0  0  0  0  0  0  0
   -0.0585    1.8954   -0.5251 O   0  0  0  0  0  0  0  0  0  0  0  0
    0.2073   -1.7396   -0.6524 O   0  0  0  0  0  0  0  0  0  0  0  0
   -2.1530   -0.8251    0.7349 O   0  0  0  0  0  0  0  0  0  0  0  0
    2.1552    0.8427    1.0256 O   0  0  0  0  0  0  0  0  0  0  0  0
   -1.4968    0.3210    3.2126 O   0  0  0  0  0  0  0  0  0  0  0  0
    0.0156   -1.8319    2.2530 O   0  0  0  0  0  0  0  0  0  0  0  0
   -1.7825    2.8596   -2.1263 O   0  0  0  0  0  0  0  0  0  0  0  0
   -0.1896    4.3864   -0.8754 O   0  0  0  0  0  0  0  0  0  0  0  0
    2.1127   -2.5401   -2.1336 O   0  0  0  0  0  0  0  0  0  0  0  0
    0.4366   -4.1904   -1.1850 O   0  0  0  0  0  0  0  0  0  0  0  0
   -3.7851   -2.5297   -0.1544 O   0  0  0  0  0  0  0  0  0  0  0  0
   -4.2751   -0.0574   -0.4382 O   0  0  0  0  0  0  0  0  0  0  0  0
    3.9070    2.5460    0.4159 O   0  0  0  0  0  0  0  0  0  0  0  0
    4.3519    0.0850   -0.0067 O   0  0  0  0  0  0  0  0  0  0  0  0
   -2.1161    3.1995    0.4653 O   0  0  0  0  0  0  0  0  0  0  0  0
    2.1823   -3.0865    0.4431 O   0  0  0  0  0  0  0  0  0  0  0  0
   -2.3483   -1.1458   -1.8683 O   0  0  0  0  0  0  0  0  0  0  0  0
    2.5961    1.3394   -1.5188 O   0  0  0  0  0  0  0  0  0  0  0  0
   -0.5479    0.5587   -0.4453 C   0  0  1  0  0  0  0  0  0  0  0  0
    0.6521   -0.4064   -0.4143 C   0  0  1  0  0  0  0  0  0  0  0  0
   -1.4585    0.4189    0.7842 C   0  0  2  0  0  0  0  0  0  0  0  0
    1.4240   -0.3765    0.9187 C   0  0  2  0  0  0  0  0  0  0  0  0
   -0.6476    0.5109    2.0842 C   0  0  2  0  0  0  0  0  0  0  0  0
    0.5082   -0.4980    2.1453 C   0  0  1  0  0  0  0  0  0  0  0  0
   -1.0754    0.4241   -1.3795 H   0  0  0  0  0  0  0  0  0  0  0  0
    1.2723   -0.2033   -1.2739 H   0  0  0  0  0  0  0  0  0  0  0  0
   -2.2629    1.1410    0.8271 H   0  0  0  0  0  0  0  0  0  0  0  0
    2.1925   -1.1275    1.0006 H   0  0  0  0  0  0  0  0  0  0  0  0
   -0.2301    1.5218    2.1705 H   0  0  0  0  0  0  0  0  0  0  0  0
    1.0818   -0.3076    3.0602 H   0  0  0  0  0  0  0  0  0  0  0  0
   -2.2052    0.9852    3.1619 H   0  0  0  0  0  0  0  0  0  0  0  0
   -0.5115   -2.0255    1.4599 H   0  0  0  0  0  0  0  0  0  0  0  0
   -2.5174    3.4410   -2.4161 H   0  0  0  0  0  0  0  0  0  0  0  0
   -0.6029    5.2758   -0.8949 H   0  0  0  0  0  0  0  0  0  0  0  0
    2.8880   -3.0837   -2.3895 H   0  0  0  0  0  0  0  0  0  0  0  0
    0.8716   -5.0683   -1.2317 H   0  0  0  0  0  0  0  0  0  0  0  0
   -4.3378   -2.9891   -0.8219 H   0  0  0  0  0  0  0  0  0  0  0  0
   -4.9407   -0.0095   -1.1571 H   0  0  0  0  0  0  0  0  0  0  0  0
    4.5313    3.0328   -0.1633 H   0  0  0  0  0  0  0  0  0  0  0  0
    5.0803    0.0672   -0.6634 H   0  0  0  0  0  0  0  0  0  0  0  0
  1  5  1  0  0  0  0
  1 11  1  0  0  0  0
  1 12  1  0  0  0  0
  1 19  2  0  0  0  0
  2  6  1  0  0  0  0
  2 13  1  0  0  0  0
  2 14  1  0  0  0  0
  2 20  2  0  0  0  0
  3  7  1  0  0  0  0
  3 15  1  0  0  0  0
  3 16  1  0  0  0  0
  3 21  2  0  0  0  0
  4  8  1  0  0  0  0
  4 17  1  0  0  0  0
  4 18  1  0  0  0  0
  4 22  2  0  0  0  0
  5 23  1  0  0  0  0
  6 24  1  0  0  0  0
  7 25  1  0  0  0  0
  8 26  1  0  0  0  0
  9 27  1  0  0  0  0
  9 35  1  0  0  0  0
 10 28  1  0  0  0  0
 10 36  1  0  0  0  0
 11 37  1  0  0  0  0
 12 38  1  0  0  0  0
 13 39  1  0  0  0  0
 14 40  1  0  0  0  0
 15 41  1  0  0  0  0
 16 42  1  0  0  0  0
 17 43  1  0  0  0  0
 18 44  1  0  0  0  0
 23 24  1  0  0  0  0
 23 25  1  0  0  0  0
 23 29  1  0  0  0  0
 24 26  1  0  0  0  0
 24 30  1  0  0  0  0
 25 27  1  0  0  0  0
 25 31  1  0  0  0  0
 26 28  1  0  0  0  0
 26 32  1  0  0  0  0
 27 28  1  0  0  0  0
 27 33  1  0  0  0  0
 28 34  1  0  0  0  0
M  END
> <PUBCHEM_COMPOUND_CID>
121920

> <PUBCHEM_CONFORMER_RMSD>
1

> <PUBCHEM_CONFORMER_DIVERSEORDER>
1
2

> <PUBCHEM_MMFF94_PARTIAL_CHARGES>
38
1 1.51
10 -0.68
11 -0.77
12 -0.77
13 -0.77
14 -0.77
15 -0.77
16 -0.77
17 -0.77
18 -0.77
19 -0.7
2 1.51
20 -0.7
21 -0.7
22 -0.7
23 0.28
24 0.28
25 0.28
26 0.28
27 0.28
28 0.28
3 1.51
35 0.4
36 0.4
37 0.5
38 0.5
39 0.5
4 1.51
40 0.5
41 0.5
42 0.5
43 0.5
44 0.5
5 -0.55
6 -0.55
7 -0.55
8 -0.55
9 -0.68

> <PUBCHEM_EFFECTIVE_ROTOR_COUNT>
9.2

> <PUBCHEM_PHARMACOPHORE_FEATURES>
21
1 10 acceptor
1 10 donor
1 11 acceptor
1 12 acceptor
1 13 acceptor
1 14 acceptor
1 15 acceptor
1 16 acceptor
1 17 acceptor
1 18 acceptor
1 19 acceptor
1 20 acceptor
1 21 acceptor
1 22 acceptor
1 9 acceptor
1 9 donor
4 1 11 12 19 anion
4 2 13 14 20 anion
4 3 15 16 21 anion
4 4 17 18 22 anion
6 23 24 25 26 27 28 rings

> <PUBCHEM_HEAVY_ATOM_COUNT>
28

> <PUBCHEM_ATOM_DEF_STEREO_COUNT>
6

> <PUBCHEM_ATOM_UDEF_STEREO_COUNT>
0

> <PUBCHEM_BOND_DEF_STEREO_COUNT>
0

> <PUBCHEM_BOND_UDEF_STEREO_COUNT>
0

> <PUBCHEM_ISOTOPIC_ATOM_COUNT>
0

> <PUBCHEM_COMPONENT_COUNT>
1

> <PUBCHEM_CACTVS_TAUTO_COUNT>
1

> <PUBCHEM_CONFORMER_ID>
0001DC4000000001

> <PUBCHEM_MMFF94_ENERGY>
-44.4138

> <PUBCHEM_FEATURE_SELFOVERLAP>
106.718

> <PUBCHEM_SHAPE_FINGERPRINT>
11578080 2 17971186173781955904
14713325 29 18337959003617737760
14787075 74 17273149981026893497
16945 1 18117009787973107163
17492 54 17983302521131067917
17980427 23 17334555708426382632
18981168 100 16341707729272168460
20600515 1 17755021895793023708
229495 10 17545836819116092926
23419403 2 17331075861577710296
23558518 356 18058448875323325724
23566358 2 18056493956745097509
3060560 45 18050024202688416471
54040823 5 18129957667499597723
5845 1 5034381860587882651
81228 2 17988064720929812253

> <PUBCHEM_SHAPE_MULTIPOLES>
485.98
5.2
4.65
2.16
0.59
0.72
1.16
0.12
-1.05
0.15
-2.43
-0.46
-0.27
0.52

> <PUBCHEM_SHAPE_SELFOVERLAP>
936.806

> <PUBCHEM_SHAPE_VOLUME>
296.4

> <PUBCHEM_COORDINATE_TYPE>
2
5
10

$$$$

