5753
  -OEChem-07051212463D

 55 58  0     1  0  0  0  0  0999 V2000
   -0.0648   -1.8752    1.4481 O   0  0  0  0  0  0  0  0  0  0  0  0
   -5.2690    0.2890    0.6149 O   0  0  0  0  0  0  0  0  0  0  0  0
    6.2671   -0.3792   -1.2746 O   0  0  0  0  0  0  0  0  0  0  0  0
   -6.1807   -1.9359   -0.5840 O   0  0  0  0  0  0  0  0  0  0  0  0
   -1.1000    1.2021   -0.3027 C   0  0  2  0  0  0  0  0  0  0  0  0
   -2.0574    0.0513    0.0653 C   0  0  2  0  0  0  0  0  0  0  0  0
    0.2827    1.0773    0.3511 C   0  0  1  0  0  0  0  0  0  0  0  0
    0.9394   -0.2620   -0.1195 C   0  0  1  0  0  0  0  0  0  0  0  0
    2.4203   -0.4413    0.4118 C   0  0  2  0  0  0  0  0  0  0  0  0
   -1.4346   -1.2594   -0.4480 C   0  0  0  0  0  0  0  0  0  0  0  0
   -3.3092    0.5116   -0.7192 C   0  0  2  0  0  0  0  0  0  0  0  0
   -0.0020   -1.4916    0.0814 C   0  0  2  0  0  0  0  0  0  0  0  0
   -1.9377    2.4513   -0.0497 C   0  0  0  0  0  0  0  0  0  0  0  0
    1.1673    2.2719   -0.0376 C   0  0  0  0  0  0  0  0  0  0  0  0
   -3.3494    2.0402   -0.5077 C   0  0  0  0  0  0  0  0  0  0  0  0
    3.2199    0.8346    0.1146 C   0  0  0  0  0  0  0  0  0  0  0  0
   -2.3722   -0.0394    1.5812 C   0  0  0  0  0  0  0  0  0  0  0  0
    2.5761    2.1379    0.5203 C   0  0  0  0  0  0  0  0  0  0  0  0
    3.0553   -1.6525   -0.3316 C   0  0  0  0  0  0  0  0  0  0  0  0
    2.5054   -0.6870    1.9353 C   0  0  0  0  0  0  0  0  0  0  0  0
   -4.5808   -0.1597   -0.3007 C   0  0  0  0  0  0  0  0  0  0  0  0
    4.5710   -1.7044   -0.2252 C   0  0  0  0  0  0  0  0  0  0  0  0
    4.4439    0.8448   -0.4391 C   0  0  0  0  0  0  0  0  0  0  0  0
    5.1710   -0.4147   -0.7194 C   0  0  0  0  0  0  0  0  0  0  0  0
   -4.9619   -1.4098   -1.0648 C   0  0  0  0  0  0  0  0  0  0  0  0
   -0.9302    1.1720   -1.3928 H   0  0  0  0  0  0  0  0  0  0  0  0
    0.1825    1.0841    1.4408 H   0  0  0  0  0  0  0  0  0  0  0  0
    1.0290   -0.1627   -1.2148 H   0  0  0  0  0  0  0  0  0  0  0  0
   -1.3979   -1.2452   -1.5449 H   0  0  0  0  0  0  0  0  0  0  0  0
   -2.0638   -2.1086   -0.1584 H   0  0  0  0  0  0  0  0  0  0  0  0
   -3.1735    0.3334   -1.7950 H   0  0  0  0  0  0  0  0  0  0  0  0
    0.4049   -2.3526   -0.4592 H   0  0  0  0  0  0  0  0  0  0  0  0
   -1.5747    3.3164   -0.6136 H   0  0  0  0  0  0  0  0  0  0  0  0
   -1.9415    2.7219    1.0121 H   0  0  0  0  0  0  0  0  0  0  0  0
    0.7284    3.2030    0.3399 H   0  0  0  0  0  0  0  0  0  0  0  0
    1.2149    2.3651   -1.1305 H   0  0  0  0  0  0  0  0  0  0  0  0
   -4.0906    2.3738    0.2257 H   0  0  0  0  0  0  0  0  0  0  0  0
   -3.5993    2.5357   -1.4535 H   0  0  0  0  0  0  0  0  0  0  0  0
   -1.4966    0.0404    2.2230 H   0  0  0  0  0  0  0  0  0  0  0  0
   -3.0348    0.7676    1.9130 H   0  0  0  0  0  0  0  0  0  0  0  0
   -2.8762   -0.9830    1.8196 H   0  0  0  0  0  0  0  0  0  0  0  0
    2.5452    2.1964    1.6152 H   0  0  0  0  0  0  0  0  0  0  0  0
    3.1701    2.9971    0.1850 H   0  0  0  0  0  0  0  0  0  0  0  0
    2.7932   -1.6062   -1.3980 H   0  0  0  0  0  0  0  0  0  0  0  0
    2.6447   -2.5964    0.0467 H   0  0  0  0  0  0  0  0  0  0  0  0
    3.5320   -0.5606    2.3020 H   0  0  0  0  0  0  0  0  0  0  0  0
    1.8845    0.0101    2.5062 H   0  0  0  0  0  0  0  0  0  0  0  0
    2.2154   -1.7067    2.2058 H   0  0  0  0  0  0  0  0  0  0  0  0
    4.9472   -2.5241   -0.8473 H   0  0  0  0  0  0  0  0  0  0  0  0
    4.9025   -1.8771    0.8035 H   0  0  0  0  0  0  0  0  0  0  0  0
    0.0326   -1.0914    2.0076 H   0  0  0  0  0  0  0  0  0  0  0  0
    4.9736    1.7691   -0.6436 H   0  0  0  0  0  0  0  0  0  0  0  0
   -4.1913   -2.1710   -0.9356 H   0  0  0  0  0  0  0  0  0  0  0  0
   -5.0721   -1.1750   -2.1272 H   0  0  0  0  0  0  0  0  0  0  0  0
   -6.8778   -1.2875   -0.7823 H   0  0  0  0  0  0  0  0  0  0  0  0
  1 12  1  0  0  0  0
  1 51  1  0  0  0  0
  2 21  2  0  0  0  0
  3 24  2  0  0  0  0
  4 25  1  0  0  0  0
  4 55  1  0  0  0  0
  5  6  1  0  0  0  0
  5  7  1  0  0  0  0
  5 13  1  0  0  0  0
  5 26  1  0  0  0  0
  6 10  1  0  0  0  0
  6 11  1  0  0  0  0
  6 17  1  0  0  0  0
  7  8  1  0  0  0  0
  7 14  1  0  0  0  0
  7 27  1  0  0  0  0
  8  9  1  0  0  0  0
  8 12  1  0  0  0  0
  8 28  1  0  0  0  0
  9 16  1  0  0  0  0
  9 19  1  0  0  0  0
  9 20  1  0  0  0  0
 10 12  1  0  0  0  0
 10 29  1  0  0  0  0
 10 30  1  0  0  0  0
 11 15  1  0  0  0  0
 11 21  1  0  0  0  0
 11 31  1  0  0  0  0
 12 32  1  0  0  0  0
 13 15  1  0  0  0  0
 13 33  1  0  0  0  0
 13 34  1  0  0  0  0
 14 18  1  0  0  0  0
 14 35  1  0  0  0  0
 14 36  1  0  0  0  0
 15 37  1  0  0  0  0
 15 38  1  0  0  0  0
 16 18  1  0  0  0  0
 16 23  2  0  0  0  0
 17 39  1  0  0  0  0
 17 40  1  0  0  0  0
 17 41  1  0  0  0  0
 18 42  1  0  0  0  0
 18 43  1  0  0  0  0
 19 22  1  0  0  0  0
 19 44  1  0  0  0  0
 19 45  1  0  0  0  0
 20 46  1  0  0  0  0
 20 47  1  0  0  0  0
 20 48  1  0  0  0  0
 21 25  1  0  0  0  0
 22 24  1  0  0  0  0
 22 49  1  0  0  0  0
 22 50  1  0  0  0  0
 23 24  1  0  0  0  0
 23 52  1  0  0  0  0
 25 53  1  0  0  0  0
 25 54  1  0  0  0  0
M  END
> <PUBCHEM_COMPOUND_CID>
5753

> <PUBCHEM_CONFORMER_RMSD>
0.8

> <PUBCHEM_CONFORMER_DIVERSEORDER>
1
2
3

> <PUBCHEM_MMFF94_PARTIAL_CHARGES>
17
1 -0.68
11 0.06
12 0.28
16 -0.28
18 0.14
2 -0.57
21 0.45
22 0.06
23 -0.14
24 0.49
25 0.34
3 -0.57
4 -0.68
51 0.4
52 0.15
55 0.4
9 0.14

> <PUBCHEM_EFFECTIVE_ROTOR_COUNT>
3.8

> <PUBCHEM_PHARMACOPHORE_FEATURES>
10
1 1 acceptor
1 1 donor
1 2 acceptor
1 3 acceptor
1 4 acceptor
1 4 donor
5 5 6 11 13 15 rings
6 5 6 7 8 10 12 rings
6 7 8 9 14 16 18 rings
6 9 16 19 22 23 24 rings

> <PUBCHEM_HEAVY_ATOM_COUNT>
25

> <PUBCHEM_ATOM_DEF_STEREO_COUNT>
7

> <PUBCHEM_ATOM_UDEF_STEREO_COUNT>
0

> <PUBCHEM_BOND_DEF_STEREO_COUNT>
0

> <PUBCHEM_BOND_UDEF_STEREO_COUNT>
0

> <PUBCHEM_ISOTOPIC_ATOM_COUNT>
0

> <PUBCHEM_COMPONENT_COUNT>
1

> <PUBCHEM_CACTVS_TAUTO_COUNT>
20

> <PUBCHEM_CONFORMER_ID>
0000167900000001

> <PUBCHEM_MMFF94_ENERGY>
79.7462

> <PUBCHEM_FEATURE_SELFOVERLAP>
50.846

> <PUBCHEM_SHAPE_FINGERPRINT>
10366900 7 17989768895048343521
10498660 4 18059581355178205428
11961588 58 17274819117525195940
11963148 33 18336555936487332023
12011746 2 18273494567702649436
12166972 35 18040432161694537961
12236239 1 17749104474551921969
12403259 226 18409176527495798445
12403259 415 18342183279846994757
12788726 201 18341897453994521633
12916754 54 18333734615535150233
13224815 77 18202003265197813529
13533116 47 17895475804273838169
13583140 156 14117504433621394997
13862211 1 18411423920820289354
14787075 74 18342737416294785811
14931854 50 18271803558096438742
15142383 8 14923934687082749843
15196674 1 18410577322404694540
16752209 62 18340774831226509008
16945 1 18335431165939395192
17349148 13 17989208165904068267
19591789 44 18410579517232995191
200 152 17967251992191357225
20028762 73 18187371999806974095
20645477 70 18411706443827191972
20691752 17 17417812893397405048
20775438 99 17540004696079172743
20871999 31 18342172297773263660
21033648 29 18131080332779315965
21267235 1 18336824209102670143
221357 26 18409450292894962468
22393880 68 18270691959998265773
23402539 116 18408326596722944333
23522609 53 18119777344614107129
23559900 14 18335990778587488168
2871803 45 18272094880879270609
296302 2 14549015494240212176
335352 9 18408605886120737045
350125 39 18409445929704347561
4280585 95 17326611904799967894
4340502 62 15913321416453953216
46194498 28 18186515493454883820
465052 167 18114178601403121199
474 4 17131819946889785580
484989 97 18057875849403346451
5104073 3 18334582377322621065
7495541 125 17458070339180133538
9709674 26 18340488872113894209

> <PUBCHEM_SHAPE_MULTIPOLES>
491.01
11.83
2.35
1.15
1.61
0.66
-0.42
-4.14
3.89
0.55
0.1
-0.23
-0.29
-0.16

> <PUBCHEM_SHAPE_SELFOVERLAP>
1051.882

> <PUBCHEM_SHAPE_VOLUME>
267.8

> <PUBCHEM_COORDINATE_TYPE>
2
5
10

$$$$

