6994
  -OEChem-07051212533D

 19 19  0     0  0  0  0  0  0999 V2000
    2.6123    0.6649   -0.7294 O   0  0  0  0  0  0  0  0  0  0  0  0
    0.4753    0.3171    0.2547 C   0  0  0  0  0  0  0  0  0  0  0  0
   -0.0645   -0.9549    0.0646 C   0  0  0  0  0  0  0  0  0  0  0  0
    1.9353    0.5013    0.5098 C   0  0  0  0  0  0  0  0  0  0  0  0
   -0.3513    1.4397    0.2084 C   0  0  0  0  0  0  0  0  0  0  0  0
   -1.4311   -1.1044   -0.1719 C   0  0  0  0  0  0  0  0  0  0  0  0
    0.7996   -2.1720    0.1102 C   0  0  0  0  0  0  0  0  0  0  0  0
   -1.7179    1.2902   -0.0281 C   0  0  0  0  0  0  0  0  0  0  0  0
   -2.2578    0.0181   -0.2182 C   0  0  0  0  0  0  0  0  0  0  0  0
    2.1147    1.3960    1.1172 H   0  0  0  0  0  0  0  0  0  0  0  0
    2.3858   -0.3322    1.0561 H   0  0  0  0  0  0  0  0  0  0  0  0
    0.0559    2.4370    0.3527 H   0  0  0  0  0  0  0  0  0  0  0  0
   -1.8683   -2.0881   -0.3209 H   0  0  0  0  0  0  0  0  0  0  0  0
    1.6462   -2.0782   -0.5778 H   0  0  0  0  0  0  0  0  0  0  0  0
    1.1689   -2.3427    1.1265 H   0  0  0  0  0  0  0  0  0  0  0  0
    0.2476   -3.0695   -0.1910 H   0  0  0  0  0  0  0  0  0  0  0  0
   -2.3615    2.1641   -0.0647 H   0  0  0  0  0  0  0  0  0  0  0  0
   -3.3218   -0.0981   -0.4022 H   0  0  0  0  0  0  0  0  0  0  0  0
    2.1088    1.2918   -1.2761 H   0  0  0  0  0  0  0  0  0  0  0  0
  1  4  1  0  0  0  0
  1 19  1  0  0  0  0
  2  3  1  0  0  0  0
  2  4  1  0  0  0  0
  2  5  2  0  0  0  0
  3  6  2  0  0  0  0
  3  7  1  0  0  0  0
  4 10  1  0  0  0  0
  4 11  1  0  0  0  0
  5  8  1  0  0  0  0
  5 12  1  0  0  0  0
  6  9  1  0  0  0  0
  6 13  1  0  0  0  0
  7 14  1  0  0  0  0
  7 15  1  0  0  0  0
  7 16  1  0  0  0  0
  8  9  2  0  0  0  0
  8 17  1  0  0  0  0
  9 18  1  0  0  0  0
M  END
> <PUBCHEM_COMPOUND_CID>
6994

> <PUBCHEM_CONFORMER_RMSD>
0.4

> <PUBCHEM_CONFORMER_DIVERSEORDER>
1
3
2

> <PUBCHEM_MMFF94_PARTIAL_CHARGES>
14
1 -0.68
12 0.15
13 0.15
17 0.15
18 0.15
19 0.4
2 -0.14
3 -0.14
4 0.42
5 -0.15
6 -0.15
7 0.14
8 -0.15
9 -0.15

> <PUBCHEM_EFFECTIVE_ROTOR_COUNT>
1

> <PUBCHEM_PHARMACOPHORE_FEATURES>
3
1 1 acceptor
1 1 donor
6 2 3 5 6 8 9 rings

> <PUBCHEM_HEAVY_ATOM_COUNT>
9

> <PUBCHEM_ATOM_DEF_STEREO_COUNT>
0

> <PUBCHEM_ATOM_UDEF_STEREO_COUNT>
0

> <PUBCHEM_BOND_DEF_STEREO_COUNT>
0

> <PUBCHEM_BOND_UDEF_STEREO_COUNT>
0

> <PUBCHEM_ISOTOPIC_ATOM_COUNT>
0

> <PUBCHEM_COMPONENT_COUNT>
1

> <PUBCHEM_CACTVS_TAUTO_COUNT>
1

> <PUBCHEM_CONFORMER_ID>
00001B5200000001

> <PUBCHEM_MMFF94_ENERGY>
23.1916

> <PUBCHEM_FEATURE_SELFOVERLAP>
15.223

> <PUBCHEM_SHAPE_FINGERPRINT>
12423570 1 10826061555095664617
12897270 3 18410295804472854341
16714656 1 18338515222882496653
16945 1 18409737239902503793
18185500 45 18337121128275160467
21040471 1 18409456915723840425
23235685 24 18413111649636001781
23552423 10 18269557315379739635
241688 4 16101914392499378771
2748010 2 17834406626765160149
5084963 1 18041839489375330297

> <PUBCHEM_SHAPE_MULTIPOLES>
179.35
2.87
1.89
0.7
0.46
0.71
0.01
-0.68
0.39
0.17
-0.05
0.16
-0.05
-0.14

> <PUBCHEM_SHAPE_SELFOVERLAP>
367.854

> <PUBCHEM_SHAPE_VOLUME>
104.7

> <PUBCHEM_COORDINATE_TYPE>
2
5
10

$$$$

