3441
  -OEChem-06251223253D

 52 53  0     1  0  0  0  0  0999 V2000
    1.4134    2.5051   -1.4821 S   0  0  0  0  0  0  0  0  0  0  0  0
   -0.2266    3.4072   -0.6460 S   0  0  0  0  0  0  0  0  0  0  0  0
    3.0159    0.0874   -0.4675 O   0  0  0  0  0  0  0  0  0  0  0  0
   -2.3903    3.0137    2.3635 O   0  0  0  0  0  0  0  0  0  0  0  0
   -4.2485   -0.5567    1.0532 O   0  0  0  0  0  0  0  0  0  0  0  0
   -2.6923    0.2546   -0.5023 N   0  0  0  0  0  0  0  0  0  0  0  0
    0.8257   -2.5860   -0.4774 N   0  0  0  0  0  0  0  0  0  0  0  0
   -0.8575   -3.5941    0.9218 N   0  0  0  0  0  0  0  0  0  0  0  0
    0.2362   -0.8796   -2.0152 N   0  0  0  0  0  0  0  0  0  0  0  0
    3.6228    1.3819   -0.3170 C   0  0  2  0  0  0  0  0  0  0  0  0
    4.6124    1.2546    0.8281 C   0  0  0  0  0  0  0  0  0  0  0  0
    5.0861   -0.1670    0.6593 C   0  0  0  0  0  0  0  0  0  0  0  0
    3.8141   -0.8730    0.2404 C   0  0  0  0  0  0  0  0  0  0  0  0
    2.5514    2.4279   -0.0776 C   0  0  0  0  0  0  0  0  0  0  0  0
   -1.0808    1.9653   -0.1045 C   0  0  0  0  0  0  0  0  0  0  0  0
   -1.9685    1.3455   -0.9186 C   0  0  0  0  0  0  0  0  0  0  0  0
   -0.7878    1.5142    1.3173 C   0  0  0  0  0  0  0  0  0  0  0  0
   -2.5337   -0.9940   -1.2336 C   0  0  0  0  0  0  0  0  0  0  0  0
   -1.4647   -1.8629   -0.6366 C   0  0  0  0  0  0  0  0  0  0  0  0
   -2.2831    1.7641   -2.3294 C   0  0  0  0  0  0  0  0  0  0  0  0
   -1.0269    2.6126    2.3520 C   0  0  0  0  0  0  0  0  0  0  0  0
   -0.1379   -1.8071   -1.0117 C   0  0  0  0  0  0  0  0  0  0  0  0
   -3.5514    0.3371    0.5848 C   0  0  0  0  0  0  0  0  0  0  0  0
   -1.7694   -2.7843    0.3445 C   0  0  0  0  0  0  0  0  0  0  0  0
    0.4023   -3.4442    0.4701 C   0  0  0  0  0  0  0  0  0  0  0  0
    1.4390   -4.3222    1.0846 C   0  0  0  0  0  0  0  0  0  0  0  0
    4.1695    1.5934   -1.2456 H   0  0  0  0  0  0  0  0  0  0  0  0
    5.4194    1.9907    0.7769 H   0  0  0  0  0  0  0  0  0  0  0  0
    4.1104    1.3617    1.7974 H   0  0  0  0  0  0  0  0  0  0  0  0
    5.5331   -0.5927    1.5614 H   0  0  0  0  0  0  0  0  0  0  0  0
    5.8262   -0.2191   -0.1480 H   0  0  0  0  0  0  0  0  0  0  0  0
    3.2396   -1.2037    1.1121 H   0  0  0  0  0  0  0  0  0  0  0  0
    4.0046   -1.7383   -0.4006 H   0  0  0  0  0  0  0  0  0  0  0  0
    3.0108    3.4129    0.0555 H   0  0  0  0  0  0  0  0  0  0  0  0
    2.0071    2.1832    0.8357 H   0  0  0  0  0  0  0  0  0  0  0  0
   -1.3654    0.6353    1.6117 H   0  0  0  0  0  0  0  0  0  0  0  0
    0.2519    1.1798    1.3825 H   0  0  0  0  0  0  0  0  0  0  0  0
   -2.3813   -0.8250   -2.3040 H   0  0  0  0  0  0  0  0  0  0  0  0
   -3.4874   -1.5373   -1.1822 H   0  0  0  0  0  0  0  0  0  0  0  0
   -2.2738    2.8510   -2.4566 H   0  0  0  0  0  0  0  0  0  0  0  0
   -3.2913    1.4480   -2.6236 H   0  0  0  0  0  0  0  0  0  0  0  0
   -1.5714    1.3268   -3.0363 H   0  0  0  0  0  0  0  0  0  0  0  0
   -0.3980    3.4929    2.1894 H   0  0  0  0  0  0  0  0  0  0  0  0
   -0.7872    2.2223    3.3473 H   0  0  0  0  0  0  0  0  0  0  0  0
   -3.6166    1.3552    0.9958 H   0  0  0  0  0  0  0  0  0  0  0  0
   -2.7824   -2.9142    0.7111 H   0  0  0  0  0  0  0  0  0  0  0  0
   -2.4832    3.6906    3.0553 H   0  0  0  0  0  0  0  0  0  0  0  0
    1.2245   -0.8483   -2.2379 H   0  0  0  0  0  0  0  0  0  0  0  0
   -0.4024   -0.7065   -2.7799 H   0  0  0  0  0  0  0  0  0  0  0  0
    1.1472   -5.3725    0.9896 H   0  0  0  0  0  0  0  0  0  0  0  0
    2.4107   -4.1909    0.5981 H   0  0  0  0  0  0  0  0  0  0  0  0
    1.5498   -4.0809    2.1461 H   0  0  0  0  0  0  0  0  0  0  0  0
  1  2  1  0  0  0  0
  1 14  1  0  0  0  0
  2 15  1  0  0  0  0
  3 10  1  0  0  0  0
  3 13  1  0  0  0  0
  4 21  1  0  0  0  0
  4 47  1  0  0  0  0
  5 23  2  0  0  0  0
  6 16  1  0  0  0  0
  6 18  1  0  0  0  0
  6 23  1  0  0  0  0
  7 22  2  0  0  0  0
  7 25  1  0  0  0  0
  8 24  1  0  0  0  0
  8 25  2  0  0  0  0
  9 22  1  0  0  0  0
  9 48  1  0  0  0  0
  9 49  1  0  0  0  0
 10 11  1  0  0  0  0
 10 14  1  0  0  0  0
 10 27  1  0  0  0  0
 11 12  1  0  0  0  0
 11 28  1  0  0  0  0
 11 29  1  0  0  0  0
 12 13  1  0  0  0  0
 12 30  1  0  0  0  0
 12 31  1  0  0  0  0
 13 32  1  0  0  0  0
 13 33  1  0  0  0  0
 14 34  1  0  0  0  0
 14 35  1  0  0  0  0
 15 16  2  0  0  0  0
 15 17  1  0  0  0  0
 16 20  1  0  0  0  0
 17 21  1  0  0  0  0
 17 36  1  0  0  0  0
 17 37  1  0  0  0  0
 18 19  1  0  0  0  0
 18 38  1  0  0  0  0
 18 39  1  0  0  0  0
 19 22  1  0  0  0  0
 19 24  2  0  0  0  0
 20 40  1  0  0  0  0
 20 41  1  0  0  0  0
 20 42  1  0  0  0  0
 21 43  1  0  0  0  0
 21 44  1  0  0  0  0
 23 45  1  0  0  0  0
 24 46  1  0  0  0  0
 25 26  1  0  0  0  0
 26 50  1  0  0  0  0
 26 51  1  0  0  0  0
 26 52  1  0  0  0  0
M  END
> <PUBCHEM_COMPOUND_CID>
3441

> <PUBCHEM_CONFORMER_RMSD>
1.4

> <PUBCHEM_CONFORMER_DIVERSEORDER>
1
92
57
14
4
24
72
27
119
61
85
93
87
59
46
51
32
45
100
101
77
103
39
35
8
65
94
91
62
41
75
5
23
47
40
84
95
110
70
52
53
30
44
25
102
20
54
26
18
120
63
107
83
80
37
28
97
96
86
98
42
105
55
111
58
109
89
81
2
114
17
33
31
50
117
73
12
21
79
88
11
29
99
43
106
7
16
49
3
78
113
22
38
118
48
67
36
115
90
116
76
34
60
15
71
6
64
68
9
69
112
82
19
13
108
10
74
56
66
104

> <PUBCHEM_MMFF94_PARTIAL_CHARGES>
29
1 -0.23
10 0.28
13 0.28
14 0.23
15 -0.04
16 -0.03
17 0.14
18 0.44
19 -0.14
2 -0.1
20 0.14
21 0.28
22 0.41
23 0.57
24 0.16
25 0.48
26 0.14
3 -0.56
4 -0.68
45 0.06
46 0.15
47 0.4
48 0.4
49 0.4
5 -0.57
6 -0.47
7 -0.62
8 -0.62
9 -0.9

> <PUBCHEM_EFFECTIVE_ROTOR_COUNT>
11

> <PUBCHEM_PHARMACOPHORE_FEATURES>
10
1 3 acceptor
1 4 acceptor
1 4 donor
1 5 acceptor
1 9 donor
3 7 8 25 cation
3 7 9 22 cation
5 1 2 14 15 17 hydrophobe
5 3 10 11 12 13 rings
6 7 8 19 22 24 25 rings

> <PUBCHEM_HEAVY_ATOM_COUNT>
26

> <PUBCHEM_ATOM_DEF_STEREO_COUNT>
0

> <PUBCHEM_ATOM_UDEF_STEREO_COUNT>
1

> <PUBCHEM_BOND_DEF_STEREO_COUNT>
0

> <PUBCHEM_BOND_UDEF_STEREO_COUNT>
1

> <PUBCHEM_ISOTOPIC_ATOM_COUNT>
0

> <PUBCHEM_COMPONENT_COUNT>
1

> <PUBCHEM_CACTVS_TAUTO_COUNT>
3

> <PUBCHEM_CONFORMER_ID>
00000D7100000001

> <PUBCHEM_MMFF94_ENERGY>
74.2579

> <PUBCHEM_FEATURE_SELFOVERLAP>
50.879

> <PUBCHEM_SHAPE_FINGERPRINT>
10708813 3 18265616666190781898
12156800 1 16316315436057759772
12539773 59 18041011638687187630
12633257 1 18341049597506228604
12788726 201 17751335340468946089
13122387 1 18196098956903336022
13140716 1 18337952264339095302
13965767 371 15085518172871427219
14251757 5 18270387292978619022
14787075 74 18334859385965905407
16120349 306 18266756838405929048
19930381 70 18127138690883005479
20600515 1 18265606576800946516
20775438 99 16387097382134345790
23559900 14 16324853968355145398
3027735 51 18195262223737976741
35225 105 17558521696051187954
392239 28 18336811040564454355
469060 322 18200577203001356097
539174 4 17757542324283678336

> <PUBCHEM_SHAPE_MULTIPOLES>
505.23
6.81
5.39
1.89
7.27
3.84
-0.37
-1.1
-1.38
-0.35
-1.35
-1.28
-1.44
-0.73

> <PUBCHEM_SHAPE_SELFOVERLAP>
1007.866

> <PUBCHEM_SHAPE_VOLUME>
302.1

> <PUBCHEM_COORDINATE_TYPE>
2
5
10

$$$$

