13027
  -OEChem-06261207402D

 16 16  0     0  0  0  0  0  0999 V2000
    4.5981    2.0000    0.0000 O   0  0  0  0  0  0  0  0  0  0  0  0
    4.5981   -1.0000    0.0000 N   0  0  0  0  0  0  0  0  0  0  0  0
    2.0000    1.5000    0.0000 N   0  0  0  0  0  0  0  0  0  0  0  0
    3.7320   -0.5000    0.0000 C   0  0  0  0  0  0  0  0  0  0  0  0
    5.4641   -0.5000    0.0000 C   0  0  0  0  0  0  0  0  0  0  0  0
    3.7320    0.5000    0.0000 C   0  0  0  0  0  0  0  0  0  0  0  0
    4.5981   -2.0000    0.0000 C   0  0  0  0  0  0  0  0  0  0  0  0
    5.4641    0.5000    0.0000 C   0  0  0  0  0  0  0  0  0  0  0  0
    4.5981    1.0000    0.0000 C   0  0  0  0  0  0  0  0  0  0  0  0
    2.8660    1.0000    0.0000 C   0  0  0  0  0  0  0  0  0  0  0  0
    3.1951   -0.8100    0.0000 H   0  0  0  0  0  0  0  0  0  0  0  0
    6.0010   -0.8100    0.0000 H   0  0  0  0  0  0  0  0  0  0  0  0
    3.9781   -2.0000    0.0000 H   0  0  0  0  0  0  0  0  0  0  0  0
    4.5981   -2.6200    0.0000 H   0  0  0  0  0  0  0  0  0  0  0  0
    5.2181   -2.0000    0.0000 H   0  0  0  0  0  0  0  0  0  0  0  0
    6.0010    0.8100    0.0000 H   0  0  0  0  0  0  0  0  0  0  0  0
  1  9  2  0  0  0  0
  2  4  1  0  0  0  0
  2  5  1  0  0  0  0
  2  7  1  0  0  0  0
  3 10  3  0  0  0  0
  4  6  2  0  0  0  0
  4 11  1  0  0  0  0
  5  8  2  0  0  0  0
  5 12  1  0  0  0  0
  6  9  1  0  0  0  0
  6 10  1  0  0  0  0
  7 13  1  0  0  0  0
  7 14  1  0  0  0  0
  7 15  1  0  0  0  0
  8  9  1  0  0  0  0
  8 16  1  0  0  0  0
M  END
> <PUBCHEM_COMPOUND_CID>
13027

> <PUBCHEM_COMPOUND_CANONICALIZED>
1

> <PUBCHEM_CACTVS_COMPLEXITY>
267

> <PUBCHEM_CACTVS_HBOND_ACCEPTOR>
3

> <PUBCHEM_CACTVS_HBOND_DONOR>
0

> <PUBCHEM_CACTVS_ROTATABLE_BOND>
0

> <PUBCHEM_CACTVS_SUBSKEYS>
AAADcYBjIAAAAAAAAAAAAAAAAAAAAAAAAAAgAAAAAAAAAAAAAAAAHgAAAAAADATBgAQCAAMAAACYBqBWQAAgAAAgAgAIAAEIAEgAgAAAAAAAAAAAgAAAAMgAAAAAAAAAAAAAAAAAAAAAAAAAAAAAAAAAAA==

> <PUBCHEM_IUPAC_OPENEYE_NAME>
1-methyl-4-oxo-pyridine-3-carbonitrile

> <PUBCHEM_IUPAC_CAS_NAME>
1-methyl-4-oxo-3-pyridinecarbonitrile

> <PUBCHEM_IUPAC_NAME>
1-methyl-4-oxopyridine-3-carbonitrile

> <PUBCHEM_IUPAC_SYSTEMATIC_NAME>
1-methyl-4-oxidanylidene-pyridine-3-carbonitrile

> <PUBCHEM_IUPAC_TRADITIONAL_NAME>
4-keto-1-methyl-nicotinonitrile

> <PUBCHEM_IUPAC_INCHI>
InChI=1S/C7H6N2O/c1-9-3-2-7(10)6(4-8)5-9/h2-3,5H,1H3

> <PUBCHEM_IUPAC_INCHIKEY>
VVNHMAOQCMDJHT-UHFFFAOYSA-N

> <PUBCHEM_XLOGP3_AA>
0.2

> <PUBCHEM_EXACT_MASS>
134.048013

> <PUBCHEM_MOLECULAR_FORMULA>
C7H6N2O

> <PUBCHEM_MOLECULAR_WEIGHT>
134.13534

> <PUBCHEM_OPENEYE_CAN_SMILES>
CN1C=CC(=O)C(=C1)C#N

> <PUBCHEM_OPENEYE_ISO_SMILES>
CN1C=CC(=O)C(=C1)C#N

> <PUBCHEM_CACTVS_TPSA>
44.1

> <PUBCHEM_MONOISOTOPIC_WEIGHT>
134.048013

> <PUBCHEM_TOTAL_CHARGE>
0

> <PUBCHEM_HEAVY_ATOM_COUNT>
10

> <PUBCHEM_ATOM_DEF_STEREO_COUNT>
0

> <PUBCHEM_ATOM_UDEF_STEREO_COUNT>
0

> <PUBCHEM_BOND_DEF_STEREO_COUNT>
0

> <PUBCHEM_BOND_UDEF_STEREO_COUNT>
0

> <PUBCHEM_ISOTOPIC_ATOM_COUNT>
0

> <PUBCHEM_COMPONENT_COUNT>
1

> <PUBCHEM_CACTVS_TAUTO_COUNT>
1

> <PUBCHEM_COORDINATE_TYPE>
1
5
255

> <PUBCHEM_BONDANNOTATIONS>
2  4  8
2  5  8
4  6  8
5  8  8
6  9  8
8  9  8

$$$$

