440250
  -OEChem-07051212492D

 42 43  0     1  0  0  0  0  0999 V2000
    6.4021   -2.6495    0.0000 P   0  0  3  0  0  0  0  0  0  0  0  0
    7.9844   -3.3539    0.0000 P   0  0  0  0  0  0  0  0  0  0  0  0
    4.5411   -0.1849    0.0000 O   0  0  0  0  0  0  0  0  0  0  0  0
    2.6443   -1.9450    0.0000 O   0  0  0  0  0  0  0  0  0  0  0  0
    5.8144   -1.8404    0.0000 O   0  0  0  0  0  0  0  0  0  0  0  0
    2.0000    1.4029    0.0000 O   0  0  0  0  0  0  0  0  0  0  0  0
    6.9899   -3.4585    0.0000 O   0  0  0  0  0  0  0  0  0  0  0  0
    7.2112   -2.0617    0.0000 O   0  0  0  0  0  0  0  0  0  0  0  0
    5.5931   -3.2372    0.0000 O   0  0  0  0  0  0  0  0  0  0  0  0
    8.9790   -3.2494    0.0000 O   0  0  0  0  0  0  0  0  0  0  0  0
    8.0890   -4.3485    0.0000 O   0  0  0  0  0  0  0  0  0  0  0  0
    7.8799   -2.3594    0.0000 O   0  0  0  0  0  0  0  0  0  0  0  0
    3.7320    1.4029    0.0000 N   0  0  0  0  0  0  0  0  0  0  0  0
    2.8660    2.9029    0.0000 N   0  0  0  0  0  0  0  0  0  0  0  0
    3.7320    4.4029    0.0000 N   0  0  0  0  0  0  0  0  0  0  0  0
    3.2320   -1.1360    0.0000 C   0  0  2  0  0  0  0  0  0  0  0  0
    4.2320   -1.1360    0.0000 C   0  0  1  0  0  0  0  0  0  0  0  0
    2.9230   -0.1849    0.0000 C   0  0  0  0  0  0  0  0  0  0  0  0
    3.7320    0.4029    0.0000 C   0  0  1  0  0  0  0  0  0  0  0  0
    4.8198   -1.9450    0.0000 C   0  0  0  0  0  0  0  0  0  0  0  0
    4.5981    1.9029    0.0000 C   0  0  0  0  0  0  0  0  0  0  0  0
    2.8660    1.9029    0.0000 C   0  0  0  0  0  0  0  0  0  0  0  0
    4.5981    2.9029    0.0000 C   0  0  0  0  0  0  0  0  0  0  0  0
    3.7320    3.4029    0.0000 C   0  0  0  0  0  0  0  0  0  0  0  0
    5.4641    3.4029    0.0000 C   0  0  0  0  0  0  0  0  0  0  0  0
    3.5135   -1.6884    0.0000 H   0  0  0  0  0  0  0  0  0  0  0  0
    4.8444   -1.0390    0.0000 H   0  0  0  0  0  0  0  0  0  0  0  0
    2.6130    0.3520    0.0000 H   0  0  0  0  0  0  0  0  0  0  0  0
    2.3566   -0.4371    0.0000 H   0  0  0  0  0  0  0  0  0  0  0  0
    4.2845    0.6844    0.0000 H   0  0  0  0  0  0  0  0  0  0  0  0
    4.2626   -2.2168    0.0000 H   0  0  0  0  0  0  0  0  0  0  0  0
    4.9907   -2.5410    0.0000 H   0  0  0  0  0  0  0  0  0  0  0  0
    2.0277   -1.8802    0.0000 H   0  0  0  0  0  0  0  0  0  0  0  0
    5.1350    1.5929    0.0000 H   0  0  0  0  0  0  0  0  0  0  0  0
    5.7741    2.8660    0.0000 H   0  0  0  0  0  0  0  0  0  0  0  0
    6.0010    3.7129    0.0000 H   0  0  0  0  0  0  0  0  0  0  0  0
    5.1541    3.9398    0.0000 H   0  0  0  0  0  0  0  0  0  0  0  0
    3.1951    4.7129    0.0000 H   0  0  0  0  0  0  0  0  0  0  0  0
    4.2690    4.7129    0.0000 H   0  0  0  0  0  0  0  0  0  0  0  0
    7.1464   -1.4451    0.0000 H   0  0  0  0  0  0  0  0  0  0  0  0
    9.3434   -3.7510    0.0000 H   0  0  0  0  0  0  0  0  0  0  0  0
    7.5874   -4.7129    0.0000 H   0  0  0  0  0  0  0  0  0  0  0  0
  1  5  1  0  0  0  0
  1  7  1  0  0  0  0
  1  8  1  0  0  0  0
  1  9  2  0  0  0  0
  2  7  1  0  0  0  0
  2 10  1  0  0  0  0
  2 11  1  0  0  0  0
  2 12  2  0  0  0  0
  3 17  1  0  0  0  0
  3 19  1  0  0  0  0
 16  4  1  1  0  0  0
  4 33  1  0  0  0  0
  5 20  1  0  0  0  0
  6 22  2  0  0  0  0
  8 40  1  0  0  0  0
 10 41  1  0  0  0  0
 11 42  1  0  0  0  0
 19 13  1  6  0  0  0
 13 21  1  0  0  0  0
 13 22  1  0  0  0  0
 14 22  1  0  0  0  0
 14 24  2  0  0  0  0
 15 24  1  0  0  0  0
 15 38  1  0  0  0  0
 15 39  1  0  0  0  0
 16 17  1  0  0  0  0
 16 18  1  0  0  0  0
 16 26  1  0  0  0  0
 17 20  1  6  0  0  0
 17 27  1  0  0  0  0
 18 19  1  0  0  0  0
 18 28  1  0  0  0  0
 18 29  1  0  0  0  0
 19 30  1  0  0  0  0
 20 31  1  0  0  0  0
 20 32  1  0  0  0  0
 21 23  2  0  0  0  0
 21 34  1  0  0  0  0
 23 24  1  0  0  0  0
 23 25  1  0  0  0  0
 25 35  1  0  0  0  0
 25 36  1  0  0  0  0
 25 37  1  0  0  0  0
M  END
> <PUBCHEM_COMPOUND_CID>
440250

> <PUBCHEM_COMPOUND_CANONICALIZED>
1

> <PUBCHEM_CACTVS_COMPLEXITY>
703

> <PUBCHEM_CACTVS_HBOND_ACCEPTOR>
10

> <PUBCHEM_CACTVS_HBOND_DONOR>
5

> <PUBCHEM_CACTVS_ROTATABLE_BOND>
6

> <PUBCHEM_CACTVS_SUBSKEYS>
AAADceBzPAMAAAAAAAAAAAAAAAAAASAAAAAgAAAAAAAAAAAAAAAAHgAQCCAADBThgAYDAANABxCoQgJmdICAAAEAAAAAAAAoABCBEAIAgQAOQAAHBgIDAACwMAIAAAAAAAAAAAAAAAAAAAAAAAAAAAAAAA==

> <PUBCHEM_IUPAC_OPENEYE_NAME>
[(2R,3S,5R)-5-(4-amino-5-methyl-2-oxo-pyrimidin-1-yl)-3-hydroxy-tetrahydrofuran-2-yl]methyl phosphono hydrogen phosphate

> <PUBCHEM_IUPAC_CAS_NAME>
[(2R,3S,5R)-5-(4-amino-5-methyl-2-oxo-1-pyrimidinyl)-3-hydroxy-2-oxolanyl]methyl phosphono hydrogen phosphate

> <PUBCHEM_IUPAC_NAME>
[(2R,3S,5R)-5-(4-amino-5-methyl-2-oxopyrimidin-1-yl)-3-hydroxyoxolan-2-yl]methyl phosphono hydrogen phosphate

> <PUBCHEM_IUPAC_SYSTEMATIC_NAME>
[(2R,3S,5R)-5-(4-azanyl-5-methyl-2-oxidanylidene-pyrimidin-1-yl)-3-oxidanyl-oxolan-2-yl]methyl phosphono hydrogen phosphate

> <PUBCHEM_IUPAC_TRADITIONAL_NAME>
[(2R,3S,5R)-5-(4-amino-2-keto-5-methyl-pyrimidin-1-yl)-3-hydroxy-tetrahydrofuran-2-yl]methyl phosphono hydrogen phosphate

> <PUBCHEM_IUPAC_INCHI>
InChI=1S/C10H17N3O10P2/c1-5-3-13(10(15)12-9(5)11)8-2-6(14)7(22-8)4-21-25(19,20)23-24(16,17)18/h3,6-8,14H,2,4H2,1H3,(H,19,20)(H2,11,12,15)(H2,16,17,18)/t6-,7+,8+/m0/s1

> <PUBCHEM_IUPAC_INCHIKEY>
SHFOWZBOBJJZAP-XLPZGREQSA-N

> <PUBCHEM_XLOGP3_AA>
-4

> <PUBCHEM_EXACT_MASS>
401.038917

> <PUBCHEM_MOLECULAR_FORMULA>
C10H17N3O10P2

> <PUBCHEM_MOLECULAR_WEIGHT>
401.203604

> <PUBCHEM_OPENEYE_CAN_SMILES>
CC1=CN(C(=O)N=C1N)C2CC(C(O2)COP(=O)(O)OP(=O)(O)O)O

> <PUBCHEM_OPENEYE_ISO_SMILES>
CC1=CN(C(=O)N=C1N)[C@H]2C[C@@H]([C@H](O2)COP(=O)(O)OP(=O)(O)O)O

> <PUBCHEM_CACTVS_TPSA>
201

> <PUBCHEM_MONOISOTOPIC_WEIGHT>
401.038917

> <PUBCHEM_TOTAL_CHARGE>
0

> <PUBCHEM_HEAVY_ATOM_COUNT>
25

> <PUBCHEM_ATOM_DEF_STEREO_COUNT>
3

> <PUBCHEM_ATOM_UDEF_STEREO_COUNT>
0

> <PUBCHEM_BOND_DEF_STEREO_COUNT>
0

> <PUBCHEM_BOND_UDEF_STEREO_COUNT>
0

> <PUBCHEM_ISOTOPIC_ATOM_COUNT>
0

> <PUBCHEM_COMPONENT_COUNT>
1

> <PUBCHEM_CACTVS_TAUTO_COUNT>
3

> <PUBCHEM_COORDINATE_TYPE>
1
5
255

> <PUBCHEM_BONDANNOTATIONS>
19  13  6
13  21  8
13  22  8
14  22  8
14  24  8
17  20  6
21  23  8
23  24  8
16  4  5

$$$$

