5280371
  -OEChem-07051212453D

 21 23  0     0  0  0  0  0  0999 V2000
    2.8452   -1.5863   -0.0002 O   0  0  0  0  0  0  0  0  0  0  0  0
   -1.9828   -1.2720    0.0005 O   0  0  0  0  0  0  0  0  0  0  0  0
    0.8795    2.6436   -0.0002 O   0  0  0  0  0  0  0  0  0  0  0  0
   -4.2589   -1.0168   -0.0013 O   0  0  0  0  0  0  0  0  0  0  0  0
    1.8427    0.4386   -0.0002 C   0  0  0  0  0  0  0  0  0  0  0  0
   -0.5635    0.7075    0.0000 C   0  0  0  0  0  0  0  0  0  0  0  0
    1.6457   -0.9392    0.0000 C   0  0  0  0  0  0  0  0  0  0  0  0
    0.7162    1.2845   -0.0004 C   0  0  0  0  0  0  0  0  0  0  0  0
   -0.6978   -0.6809    0.0001 C   0  0  0  0  0  0  0  0  0  0  0  0
    0.3952   -1.5521    0.0002 C   0  0  0  0  0  0  0  0  0  0  0  0
    3.2504    0.6265   -0.0001 C   0  0  0  0  0  0  0  0  0  0  0  0
   -1.7653    1.5267    0.0003 C   0  0  0  0  0  0  0  0  0  0  0  0
    3.8099   -0.6301    0.0002 C   0  0  0  0  0  0  0  0  0  0  0  0
   -2.9727    0.9568    0.0005 C   0  0  0  0  0  0  0  0  0  0  0  0
   -3.1440   -0.5069    0.0005 C   0  0  0  0  0  0  0  0  0  0  0  0
    0.2821   -2.6291    0.0003 H   0  0  0  0  0  0  0  0  0  0  0  0
    3.7906    1.5626   -0.0002 H   0  0  0  0  0  0  0  0  0  0  0  0
   -1.7096    2.6075    0.0202 H   0  0  0  0  0  0  0  0  0  0  0  0
    4.8269   -0.9939    0.0003 H   0  0  0  0  0  0  0  0  0  0  0  0
   -3.8714    1.5640    0.0083 H   0  0  0  0  0  0  0  0  0  0  0  0
    0.1021    3.0828   -0.3765 H   0  0  0  0  0  0  0  0  0  0  0  0
  1  7  1  0  0  0  0
  1 13  1  0  0  0  0
  2  9  1  0  0  0  0
  2 15  1  0  0  0  0
  3  8  1  0  0  0  0
  3 21  1  0  0  0  0
  4 15  2  0  0  0  0
  5  7  2  0  0  0  0
  5  8  1  0  0  0  0
  5 11  1  0  0  0  0
  6  8  2  0  0  0  0
  6  9  1  0  0  0  0
  6 12  1  0  0  0  0
  7 10  1  0  0  0  0
  9 10  2  0  0  0  0
 10 16  1  0  0  0  0
 11 13  2  0  0  0  0
 11 17  1  0  0  0  0
 12 14  2  0  0  0  0
 12 18  1  0  0  0  0
 13 19  1  0  0  0  0
 14 15  1  0  0  0  0
 14 20  1  0  0  0  0
M  END
> <PUBCHEM_COMPOUND_CID>
5280371

> <PUBCHEM_CONFORMER_RMSD>
0.4

> <PUBCHEM_CONFORMER_DIVERSEORDER>
1

> <PUBCHEM_MMFF94_PARTIAL_CHARGES>
20
1 -0.28
10 -0.15
11 -0.15
12 -0.18
13 -0.01
14 -0.14
15 0.71
16 0.15
17 0.15
18 0.15
19 0.15
2 -0.23
20 0.15
21 0.45
3 -0.53
4 -0.57
6 0.03
7 0.14
8 0.08
9 0.08

> <PUBCHEM_EFFECTIVE_ROTOR_COUNT>
0

> <PUBCHEM_PHARMACOPHORE_FEATURES>
6
1 1 acceptor
1 3 donor
1 4 acceptor
5 1 5 7 11 13 rings
6 2 6 9 12 14 15 rings
6 5 6 7 8 9 10 rings

> <PUBCHEM_HEAVY_ATOM_COUNT>
15

> <PUBCHEM_ATOM_DEF_STEREO_COUNT>
0

> <PUBCHEM_ATOM_UDEF_STEREO_COUNT>
0

> <PUBCHEM_BOND_DEF_STEREO_COUNT>
0

> <PUBCHEM_BOND_UDEF_STEREO_COUNT>
0

> <PUBCHEM_ISOTOPIC_ATOM_COUNT>
0

> <PUBCHEM_COMPONENT_COUNT>
1

> <PUBCHEM_CACTVS_TAUTO_COUNT>
4

> <PUBCHEM_CONFORMER_ID>
0050927300000001

> <PUBCHEM_MMFF94_ENERGY>
40.6477

> <PUBCHEM_FEATURE_SELFOVERLAP>
30.577

> <PUBCHEM_SHAPE_FINGERPRINT>
10608611 8 18410579504248126280
10967382 1 18338516322420433222
11132069 177 18338521936064125456
11471102 20 18411143511074381663
11543360 7 15841539743773454023
11769659 78 18410860983556467683
11806522 49 18339364071934983151
12032990 46 18409443726090394358
12382932 28 18263925612490237680
13140716 1 17978232660193898066
13221675 6 18410856546934463119
14115302 16 17703217434576888415
14144814 61 18410293626908494075
14325111 11 18410574015258511168
15196674 1 18410855481608299012
15375462 189 18201153364163053235
15442244 35 18337952419142573352
15536298 74 18261393317342762240
16945 1 18338516326768200006
18522853 276 18408324384461332841
193761 8 17834394519052035526
200 152 18113628876328964405
20201158 50 18412544310094187211
20510252 161 18260266386258783577
20559304 39 18411134693285158668
21267235 1 18410565202028142606
21501502 16 18411415141653824817
21501925 9 18411708681404523746
221490 88 18197491827403022323
2334 1 18410575123455038574
23402539 116 18262248797344706006
23402655 69 18336558217488356109
23463225 33 18340486763506426406
23559900 14 18263930011486268910
2748010 2 18337392759049646356
2871803 45 18343026601138972815
3312278 4 18337672039256104513
335352 9 17906171007427582748
5104073 3 18410293635477311017
528886 8 18337960085711885818
53812653 166 18261961752027514560
7364860 26 18263363577581537400
8809292 202 18201433632491837083
9709674 26 18410287025549645446

> <PUBCHEM_SHAPE_MULTIPOLES>
285.22
6.12
1.96
0.59
1.16
0.66
0
-1.56
0
-0.05
0
-0.02
0.01
0

> <PUBCHEM_SHAPE_SELFOVERLAP>
648.104

> <PUBCHEM_SHAPE_VOLUME>
150

> <PUBCHEM_COORDINATE_TYPE>
2
5
10

$$$$

