53297355
  -OEChem-07051212582D

 60 64  0     1  0  0  0  0  0999 V2000
    6.1362   -1.5969    0.0000 O   0  0  0  0  0  0  0  0  0  0  0  0
    5.9623    1.1582    0.0000 O   0  0  0  0  0  0  0  0  0  0  0  0
    9.5774   -0.0655    0.0000 O   0  0  0  0  0  0  0  0  0  0  0  0
    9.1725   -1.7887    0.0000 O   0  0  0  0  0  0  0  0  0  0  0  0
    7.7545   -2.7720    0.0000 O   0  0  0  0  0  0  0  0  0  0  0  0
   10.8258   -1.2726    0.0000 O   0  0  0  0  0  0  0  0  0  0  0  0
    4.5610    0.1401    0.0000 O   0  0  0  0  0  0  0  0  0  0  0  0
    9.7685   -3.6979    0.0000 O   0  0  0  0  0  0  0  0  0  0  0  0
   11.7198   -4.1363    0.0000 O   0  0  0  0  0  0  0  0  0  0  0  0
   13.0752   -2.6656    0.0000 O   0  0  0  0  0  0  0  0  0  0  0  0
   13.4549   -0.9756    0.0000 O   0  0  0  0  0  0  0  0  0  0  0  0
    2.6166    4.2897    0.0000 O   0  0  0  0  0  0  0  0  0  0  0  0
    7.0500   -1.1897    0.0000 C   0  0  1  0  0  0  0  0  0  0  0  0
    6.2410   -0.6019    0.0000 C   0  0  2  0  0  0  0  0  0  0  0  0
    7.8591   -0.6019    0.0000 C   0  0  2  0  0  0  0  0  0  0  0  0
    7.5500    0.3491    0.0000 C   0  0  2  0  0  0  0  0  0  0  0  0
    6.5500    0.3491    0.0000 C   0  0  2  0  0  0  0  0  0  0  0  0
    7.8591   -1.7775    0.0000 C   0  0  0  0  0  0  0  0  0  0  0  0
    8.8745   -0.8342    0.0000 C   0  0  3  0  0  0  0  0  0  0  0  0
    8.2350    1.1339    0.0000 C   0  0  0  0  0  0  0  0  0  0  0  0
    9.2555    0.9252    0.0000 C   0  0  0  0  0  0  0  0  0  0  0  0
   10.1482   -2.0079    0.0000 C   0  0  2  0  0  0  0  0  0  0  0  0
    4.9677    1.0536    0.0000 C   0  0  0  0  0  0  0  0  0  0  0  0
   10.4462   -2.9625    0.0000 C   0  0  1  0  0  0  0  0  0  0  0  0
   11.4218   -3.1817    0.0000 C   0  0  2  0  0  0  0  0  0  0  0  0
   11.8015   -1.4918    0.0000 C   0  0  1  0  0  0  0  0  0  0  0  0
   12.0995   -2.4464    0.0000 C   0  0  1  0  0  0  0  0  0  0  0  0
    4.3800    1.8626    0.0000 C   0  0  0  0  0  0  0  0  0  0  0  0
   12.4792   -0.7564    0.0000 C   0  0  0  0  0  0  0  0  0  0  0  0
    4.7867    2.7762    0.0000 C   0  0  0  0  0  0  0  0  0  0  0  0
    3.3854    1.7581    0.0000 C   0  0  0  0  0  0  0  0  0  0  0  0
    4.1989    3.5852    0.0000 C   0  0  0  0  0  0  0  0  0  0  0  0
    2.7976    2.5671    0.0000 C   0  0  0  0  0  0  0  0  0  0  0  0
    3.2044    3.4807    0.0000 C   0  0  0  0  0  0  0  0  0  0  0  0
    5.4096   -0.4251    0.0000 H   0  0  0  0  0  0  0  0  0  0  0  0
    8.0294   -1.4347    0.0000 H   0  0  0  0  0  0  0  0  0  0  0  0
    7.1984    1.1230    0.0000 H   0  0  0  0  0  0  0  0  0  0  0  0
    6.8315    0.9016    0.0000 H   0  0  0  0  0  0  0  0  0  0  0  0
    8.4550   -1.9484    0.0000 H   0  0  0  0  0  0  0  0  0  0  0  0
    8.1309   -1.2202    0.0000 H   0  0  0  0  0  0  0  0  0  0  0  0
    8.4534   -1.2893    0.0000 H   0  0  0  0  0  0  0  0  0  0  0  0
    8.0366    1.7213    0.0000 H   0  0  0  0  0  0  0  0  0  0  0  0
    9.6686    1.3875    0.0000 H   0  0  0  0  0  0  0  0  0  0  0  0
    7.1881   -3.0242    0.0000 H   0  0  0  0  0  0  0  0  0  0  0  0
    9.7280   -2.4639    0.0000 H   0  0  0  0  0  0  0  0  0  0  0  0
   10.6309   -3.5543    0.0000 H   0  0  0  0  0  0  0  0  0  0  0  0
   11.0017   -3.6376    0.0000 H   0  0  0  0  0  0  0  0  0  0  0  0
   11.6168   -0.9000    0.0000 H   0  0  0  0  0  0  0  0  0  0  0  0
   12.2843   -3.0382    0.0000 H   0  0  0  0  0  0  0  0  0  0  0  0
   12.7181   -0.1843    0.0000 H   0  0  0  0  0  0  0  0  0  0  0  0
   11.9572   -0.4218    0.0000 H   0  0  0  0  0  0  0  0  0  0  0  0
    9.9532   -4.2897    0.0000 H   0  0  0  0  0  0  0  0  0  0  0  0
   12.3248   -4.2722    0.0000 H   0  0  0  0  0  0  0  0  0  0  0  0
    5.4033    2.8410    0.0000 H   0  0  0  0  0  0  0  0  0  0  0  0
    3.1333    1.1917    0.0000 H   0  0  0  0  0  0  0  0  0  0  0  0
   13.2599   -3.2574    0.0000 H   0  0  0  0  0  0  0  0  0  0  0  0
   13.8750   -0.5197    0.0000 H   0  0  0  0  0  0  0  0  0  0  0  0
    4.4511    4.1516    0.0000 H   0  0  0  0  0  0  0  0  0  0  0  0
    2.1810    2.5023    0.0000 H   0  0  0  0  0  0  0  0  0  0  0  0
    2.0000    4.2249    0.0000 H   0  0  0  0  0  0  0  0  0  0  0  0
  1 13  1  0  0  0  0
  1 14  1  0  0  0  0
 17  2  1  1  0  0  0
  2 23  1  0  0  0  0
  3 19  1  0  0  0  0
  3 21  1  0  0  0  0
  4 19  1  0  0  0  0
 22  4  1  6  0  0  0
  5 18  1  0  0  0  0
  5 44  1  0  0  0  0
  6 22  1  0  0  0  0
  6 26  1  0  0  0  0
  7 23  2  0  0  0  0
 24  8  1  1  0  0  0
  8 52  1  0  0  0  0
 25  9  1  6  0  0  0
  9 53  1  0  0  0  0
 27 10  1  1  0  0  0
 10 56  1  0  0  0  0
 11 29  1  0  0  0  0
 11 57  1  0  0  0  0
 12 34  1  0  0  0  0
 12 60  1  0  0  0  0
 13 14  1  0  0  0  0
 13 15  1  0  0  0  0
 13 18  1  6  0  0  0
 14 17  1  0  0  0  0
 14 35  1  6  0  0  0
 15 16  1  0  0  0  0
 15 19  1  0  0  0  0
 15 36  1  1  0  0  0
 16 17  1  0  0  0  0
 16 20  1  0  0  0  0
 16 37  1  1  0  0  0
 17 38  1  0  0  0  0
 18 39  1  0  0  0  0
 18 40  1  0  0  0  0
 19 41  1  0  0  0  0
 20 21  2  0  0  0  0
 20 42  1  0  0  0  0
 21 43  1  0  0  0  0
 22 24  1  0  0  0  0
 22 45  1  0  0  0  0
 23 28  1  0  0  0  0
 24 25  1  0  0  0  0
 24 46  1  0  0  0  0
 25 27  1  0  0  0  0
 25 47  1  0  0  0  0
 26 27  1  0  0  0  0
 26 29  1  6  0  0  0
 26 48  1  0  0  0  0
 27 49  1  0  0  0  0
 28 30  2  0  0  0  0
 28 31  1  0  0  0  0
 29 50  1  0  0  0  0
 29 51  1  0  0  0  0
 30 32  1  0  0  0  0
 30 54  1  0  0  0  0
 31 33  2  0  0  0  0
 31 55  1  0  0  0  0
 32 34  2  0  0  0  0
 32 58  1  0  0  0  0
 33 34  1  0  0  0  0
 33 59  1  0  0  0  0
M  END
> <PUBCHEM_COMPOUND_CID>
53297355

> <PUBCHEM_COMPOUND_CANONICALIZED>
1

> <PUBCHEM_CACTVS_COMPLEXITY>
784

> <PUBCHEM_CACTVS_HBOND_ACCEPTOR>
12

> <PUBCHEM_CACTVS_HBOND_DONOR>
6

> <PUBCHEM_CACTVS_ROTATABLE_BOND>
7

> <PUBCHEM_CACTVS_SUBSKEYS>
AAADceB4PAAAAAAAAAAAAAAAEgAAAYAAAAA0SIEAAAAAAEABAAAAGgAACAAADVSwmAMwDoAABgCIAiDSCAACCAAkIAAIiAEGCMgZNjKCNRqicQAlwBEPuYfI7DzOoAAAAAAAAABAAAAAAAAAAYQADCAAAA==

> <PUBCHEM_IUPAC_OPENEYE_NAME>
[(1aS,1bS,5aR,6S,6aS)-1a-(hydroxymethyl)-2-[(2S,3R,4S,5S,6R)-3,4,5-trihydroxy-6-(hydroxymethyl)tetrahydropyran-2-yl]oxy-2,5a,6,6a-tetrahydro-1bH-oxireno[5,6]cyclopenta[1,3-c]pyran-6-yl] 4-hydroxybenzoate

> <PUBCHEM_IUPAC_CAS_NAME>
4-hydroxybenzoic acid [(1aS,1bS,5aR,6S,6aS)-1a-(hydroxymethyl)-2-[[(2S,3R,4S,5S,6R)-3,4,5-trihydroxy-6-(hydroxymethyl)-2-oxanyl]oxy]-2,5a,6,6a-tetrahydro-1bH-oxireno[5,6]cyclopenta[1,3-c]pyran-6-yl] ester

> <PUBCHEM_IUPAC_NAME>
[(1aS,1bS,5aR,6S,6aS)-1a-(hydroxymethyl)-2-[(2S,3R,4S,5S,6R)-3,4,5-trihydroxy-6-(hydroxymethyl)oxan-2-yl]oxy-2,5a,6,6a-tetrahydro-1bH-oxireno[5,6]cyclopenta[1,3-c]pyran-6-yl] 4-hydroxybenzoate

> <PUBCHEM_IUPAC_SYSTEMATIC_NAME>
[(1aS,1bS,5aR,6S,6aS)-1a-(hydroxymethyl)-2-[(2S,3R,4S,5S,6R)-6-(hydroxymethyl)-3,4,5-tris(oxidanyl)oxan-2-yl]oxy-2,5a,6,6a-tetrahydro-1bH-oxireno[5,6]cyclopenta[1,3-c]pyran-6-yl] 4-oxidanylbenzoate

> <PUBCHEM_IUPAC_TRADITIONAL_NAME>
4-hydroxybenzoic acid [(1aS,1bS,5aR,6S,6aS)-1a-methylol-2-[(2S,3R,4S,5S,6R)-3,4,5-trihydroxy-6-methylol-tetrahydropyran-2-yl]oxy-2,5a,6,6a-tetrahydro-1bH-oxireno[5,6]cyclopenta[1,3-c]pyran-6-yl] ester

> <PUBCHEM_IUPAC_INCHI>
InChI=1S/C22H26O12/c23-7-12-14(26)15(27)16(28)21(31-12)33-20-13-11(5-6-30-20)17(18-22(13,8-24)34-18)32-19(29)9-1-3-10(25)4-2-9/h1-6,11-18,20-21,23-28H,7-8H2/t11-,12-,13-,14-,15+,16-,17+,18+,20?,21+,22-/m1/s1

> <PUBCHEM_IUPAC_INCHIKEY>
UXSACQOOWZMGSE-HWUWICDZSA-N

> <PUBCHEM_XLOGP3_AA>
-1.3

> <PUBCHEM_EXACT_MASS>
482.142426

> <PUBCHEM_MOLECULAR_FORMULA>
C22H26O12

> <PUBCHEM_MOLECULAR_WEIGHT>
482.43464

> <PUBCHEM_OPENEYE_CAN_SMILES>
C1=COC(C2C1C(C3C2(O3)CO)OC(=O)C4=CC=C(C=C4)O)OC5C(C(C(C(O5)CO)O)O)O

> <PUBCHEM_OPENEYE_ISO_SMILES>
C1=COC([C@H]2[C@@H]1[C@@H]([C@H]3[C@@]2(O3)CO)OC(=O)C4=CC=C(C=C4)O)O[C@H]5[C@@H]([C@H]([C@@H]([C@H](O5)CO)O)O)O

> <PUBCHEM_CACTVS_TPSA>
188

> <PUBCHEM_MONOISOTOPIC_WEIGHT>
482.142426

> <PUBCHEM_TOTAL_CHARGE>
0

> <PUBCHEM_HEAVY_ATOM_COUNT>
34

> <PUBCHEM_ATOM_DEF_STEREO_COUNT>
10

> <PUBCHEM_ATOM_UDEF_STEREO_COUNT>
1

> <PUBCHEM_BOND_DEF_STEREO_COUNT>
0

> <PUBCHEM_BOND_UDEF_STEREO_COUNT>
0

> <PUBCHEM_ISOTOPIC_ATOM_COUNT>
0

> <PUBCHEM_COMPONENT_COUNT>
1

> <PUBCHEM_CACTVS_TAUTO_COUNT>
4

> <PUBCHEM_COORDINATE_TYPE>
1
5
255

> <PUBCHEM_BONDANNOTATIONS>
27  10  5
13  18  6
14  35  6
15  36  5
16  37  5
17  2  5
26  29  6
28  30  8
28  31  8
30  32  8
31  33  8
32  34  8
33  34  8
19  4  3
22  4  6
24  8  5
25  9  6

$$$$

