13962
  -OEChem-06241222412D

 30 29  0     0  0  0  0  0  0999 V2000
    3.0000   -2.0000    0.0000 S   0  0  0  0  0  0  0  0  0  0  0  0
    3.0000    2.0000    0.0000 S   0  0  0  0  0  0  0  0  0  0  0  0
    2.1340   -3.5000    0.0000 Na  0  3  0  0  0  0  0  0  0  0  0  0
    2.1340    3.5000    0.0000 Na  0  3  0  0  0  0  0  0  0  0  0  0
    6.4920    1.0347    0.0000 O   0  0  0  0  0  0  0  0  0  0  0  0
    3.0000   -1.0000    0.0000 O   0  0  0  0  0  0  0  0  0  0  0  0
    3.0000    1.0000    0.0000 O   0  0  0  0  0  0  0  0  0  0  0  0
    8.2622    1.0241    0.0000 O   0  0  0  0  0  0  0  0  0  0  0  0
    3.0000   -3.0000    0.0000 O   0  5  0  0  0  0  0  0  0  0  0  0
    2.0000   -2.0000    0.0000 O   0  0  0  0  0  0  0  0  0  0  0  0
    4.0000   -2.0000    0.0000 O   0  0  0  0  0  0  0  0  0  0  0  0
    3.0000    3.0000    0.0000 O   0  5  0  0  0  0  0  0  0  0  0  0
    2.0000    2.0000    0.0000 O   0  0  0  0  0  0  0  0  0  0  0  0
    4.0000    2.0000    0.0000 O   0  0  0  0  0  0  0  0  0  0  0  0
    5.5981   -0.5000    0.0000 C   0  0  0  0  0  0  0  0  0  0  0  0
    5.5981    0.5000    0.0000 C   0  0  0  0  0  0  0  0  0  0  0  0
    6.4920   -1.0347    0.0000 C   0  0  0  0  0  0  0  0  0  0  0  0
    4.7320   -1.0000    0.0000 C   0  0  0  0  0  0  0  0  0  0  0  0
    3.8660   -0.5000    0.0000 C   0  0  0  0  0  0  0  0  0  0  0  0
    3.8660    0.5000    0.0000 C   0  0  0  0  0  0  0  0  0  0  0  0
    4.7320    1.0000    0.0000 C   0  0  0  0  0  0  0  0  0  0  0  0
    7.3981   -0.5208    0.0000 C   0  0  0  0  0  0  0  0  0  0  0  0
    6.4804   -2.0346    0.0000 C   0  0  0  0  0  0  0  0  0  0  0  0
    7.3981    0.5208    0.0000 C   0  0  0  0  0  0  0  0  0  0  0  0
    4.7320   -1.6200    0.0000 H   0  0  0  0  0  0  0  0  0  0  0  0
    4.7320    1.6200    0.0000 H   0  0  0  0  0  0  0  0  0  0  0  0
    7.9338   -0.8329    0.0000 H   0  0  0  0  0  0  0  0  0  0  0  0
    5.8605   -2.0274    0.0000 H   0  0  0  0  0  0  0  0  0  0  0  0
    6.4733   -2.6546    0.0000 H   0  0  0  0  0  0  0  0  0  0  0  0
    7.1004   -2.0418    0.0000 H   0  0  0  0  0  0  0  0  0  0  0  0
  1  6  1  0  0  0  0
  1  9  1  0  0  0  0
  1 10  2  0  0  0  0
  1 11  2  0  0  0  0
  2  7  1  0  0  0  0
  2 12  1  0  0  0  0
  2 13  2  0  0  0  0
  2 14  2  0  0  0  0
  5 16  1  0  0  0  0
  5 24  1  0  0  0  0
  6 19  1  0  0  0  0
  7 20  1  0  0  0  0
  8 24  2  0  0  0  0
 15 16  1  0  0  0  0
 15 17  1  0  0  0  0
 15 18  2  0  0  0  0
 16 21  2  0  0  0  0
 17 22  2  0  0  0  0
 17 23  1  0  0  0  0
 18 19  1  0  0  0  0
 18 25  1  0  0  0  0
 19 20  2  0  0  0  0
 20 21  1  0  0  0  0
 21 26  1  0  0  0  0
 22 24  1  0  0  0  0
 22 27  1  0  0  0  0
 23 28  1  0  0  0  0
 23 29  1  0  0  0  0
 23 30  1  0  0  0  0
M  CHG  4   3   1   4   1   9  -1  12  -1
M  END
> <PUBCHEM_COMPOUND_CID>
13962

> <PUBCHEM_COMPOUND_CANONICALIZED>
1

> <PUBCHEM_CACTVS_COMPLEXITY>
654

> <PUBCHEM_CACTVS_HBOND_ACCEPTOR>
10

> <PUBCHEM_CACTVS_HBOND_DONOR>
0

> <PUBCHEM_CACTVS_ROTATABLE_BOND>
2

> <PUBCHEM_CACTVS_SUBSKEYS>
AAADcYBwPDBgAAAAAAAAAAAAAAAAAAAAAAAwQAAAAAAAAACBAAAAGgAAAAAADASAmAAyDoAABACIAiDSCDACCAAgIAAAiAAGiMgNJyKEMRqCOiClwBUIqQfA4LwOIQABCAAIQABCAAIQABCAAAAAAAAAAA==

> <PUBCHEM_IUPAC_OPENEYE_NAME>
disodium (4-methyl-2-oxo-6-sulfonatooxy-chromen-7-yl) sulfate

> <PUBCHEM_IUPAC_CAS_NAME>
disodium (4-methyl-2-oxo-6-sulfonatooxy-1-benzopyran-7-yl) sulfate

> <PUBCHEM_IUPAC_NAME>
disodium (4-methyl-2-oxo-6-sulfonatooxychromen-7-yl) sulfate

> <PUBCHEM_IUPAC_SYSTEMATIC_NAME>
disodium (4-methyl-2-oxidanylidene-6-sulfonatooxy-chromen-7-yl) sulfate

> <PUBCHEM_IUPAC_TRADITIONAL_NAME>
disodium (2-keto-4-methyl-6-sulfato-chromen-7-yl) sulfate

> <PUBCHEM_IUPAC_INCHI>
InChI=1S/C10H8O10S2.2Na/c1-5-2-10(11)18-7-4-9(20-22(15,16)17)8(3-6(5)7)19-21(12,13)14;;/h2-4H,1H3,(H,12,13,14)(H,15,16,17);;/q;2*+1/p-2

> <PUBCHEM_IUPAC_INCHIKEY>
YCZIKIZDMUKKPA-UHFFFAOYSA-L

> <PUBCHEM_EXACT_MASS>
395.919777

> <PUBCHEM_MOLECULAR_FORMULA>
C10H6Na2O10S2

> <PUBCHEM_MOLECULAR_WEIGHT>
396.258179

> <PUBCHEM_OPENEYE_CAN_SMILES>
CC1=CC(=O)OC2=CC(=C(C=C12)OS(=O)(=O)[O-])OS(=O)(=O)[O-].[Na+].[Na+]

> <PUBCHEM_OPENEYE_ISO_SMILES>
CC1=CC(=O)OC2=CC(=C(C=C12)OS(=O)(=O)[O-])OS(=O)(=O)[O-].[Na+].[Na+]

> <PUBCHEM_CACTVS_TPSA>
176

> <PUBCHEM_MONOISOTOPIC_WEIGHT>
395.919777

> <PUBCHEM_TOTAL_CHARGE>
0

> <PUBCHEM_HEAVY_ATOM_COUNT>
24

> <PUBCHEM_ATOM_DEF_STEREO_COUNT>
0

> <PUBCHEM_ATOM_UDEF_STEREO_COUNT>
0

> <PUBCHEM_BOND_DEF_STEREO_COUNT>
0

> <PUBCHEM_BOND_UDEF_STEREO_COUNT>
0

> <PUBCHEM_ISOTOPIC_ATOM_COUNT>
0

> <PUBCHEM_COMPONENT_COUNT>
3

> <PUBCHEM_CACTVS_TAUTO_COUNT>
1

> <PUBCHEM_COORDINATE_TYPE>
1
5
255

> <PUBCHEM_BONDANNOTATIONS>
15  16  8
15  17  8
15  18  8
16  21  8
17  22  8
18  19  8
19  20  8
20  21  8
22  24  8
5  16  8
5  24  8

$$$$

