160814
  -OEChem-07051213113D

 26 29  0     0  0  0  0  0  0999 V2000
    1.3267   -3.1741   -0.0011 O   0  0  0  0  0  0  0  0  0  0  0  0
   -1.3276   -3.1738    0.0040 O   0  0  0  0  0  0  0  0  0  0  0  0
    0.7096    0.3875   -0.0001 C   0  0  0  0  0  0  0  0  0  0  0  0
   -0.7095    0.3876   -0.0002 C   0  0  0  0  0  0  0  0  0  0  0  0
    1.4600   -0.8045   -0.0007 C   0  0  0  0  0  0  0  0  0  0  0  0
   -1.4602   -0.8042   -0.0006 C   0  0  0  0  0  0  0  0  0  0  0  0
    1.4124    1.6167    0.0006 C   0  0  0  0  0  0  0  0  0  0  0  0
   -1.4119    1.6171    0.0000 C   0  0  0  0  0  0  0  0  0  0  0  0
    0.7510   -2.0974   -0.0011 C   0  0  0  0  0  0  0  0  0  0  0  0
   -0.7515   -2.0973    0.0004 C   0  0  0  0  0  0  0  0  0  0  0  0
    0.6973    2.8195    0.0012 C   0  0  0  0  0  0  0  0  0  0  0  0
   -0.6964    2.8197    0.0006 C   0  0  0  0  0  0  0  0  0  0  0  0
    2.8581   -0.7919   -0.0009 C   0  0  0  0  0  0  0  0  0  0  0  0
   -2.8583   -0.7912   -0.0010 C   0  0  0  0  0  0  0  0  0  0  0  0
    2.8170    1.6190    0.0007 C   0  0  0  0  0  0  0  0  0  0  0  0
   -2.8166    1.6198   -0.0005 C   0  0  0  0  0  0  0  0  0  0  0  0
    3.5333    0.4234   -0.0002 C   0  0  0  0  0  0  0  0  0  0  0  0
   -3.5332    0.4242   -0.0011 C   0  0  0  0  0  0  0  0  0  0  0  0
    1.2187    3.7746    0.0018 H   0  0  0  0  0  0  0  0  0  0  0  0
   -1.2177    3.7749    0.0007 H   0  0  0  0  0  0  0  0  0  0  0  0
    3.4322   -1.7141   -0.0014 H   0  0  0  0  0  0  0  0  0  0  0  0
   -3.4327   -1.7134   -0.0012 H   0  0  0  0  0  0  0  0  0  0  0  0
    3.3684    2.5573    0.0013 H   0  0  0  0  0  0  0  0  0  0  0  0
   -3.3677    2.5582   -0.0004 H   0  0  0  0  0  0  0  0  0  0  0  0
    4.6192    0.4419   -0.0003 H   0  0  0  0  0  0  0  0  0  0  0  0
   -4.6192    0.4430   -0.0015 H   0  0  0  0  0  0  0  0  0  0  0  0
  1  9  2  0  0  0  0
  2 10  2  0  0  0  0
  3  4  1  0  0  0  0
  3  5  1  0  0  0  0
  3  7  2  0  0  0  0
  4  6  1  0  0  0  0
  4  8  2  0  0  0  0
  5  9  1  0  0  0  0
  5 13  2  0  0  0  0
  6 10  1  0  0  0  0
  6 14  2  0  0  0  0
  7 11  1  0  0  0  0
  7 15  1  0  0  0  0
  8 12  1  0  0  0  0
  8 16  1  0  0  0  0
  9 10  1  0  0  0  0
 11 12  2  0  0  0  0
 11 19  1  0  0  0  0
 12 20  1  0  0  0  0
 13 17  1  0  0  0  0
 13 21  1  0  0  0  0
 14 18  1  0  0  0  0
 14 22  1  0  0  0  0
 15 17  2  0  0  0  0
 15 23  1  0  0  0  0
 16 18  2  0  0  0  0
 16 24  1  0  0  0  0
 17 25  1  0  0  0  0
 18 26  1  0  0  0  0
M  END
> <PUBCHEM_COMPOUND_CID>
160814

> <PUBCHEM_CONFORMER_RMSD>
0.4

> <PUBCHEM_CONFORMER_DIVERSEORDER>
1

> <PUBCHEM_MMFF94_PARTIAL_CHARGES>
22
1 -0.57
10 0.48
11 -0.15
12 -0.15
13 -0.15
14 -0.15
15 -0.15
16 -0.15
17 -0.15
18 -0.15
19 0.15
2 -0.57
20 0.15
21 0.15
22 0.15
23 0.15
24 0.15
25 0.15
26 0.15
5 0.09
6 0.09
9 0.48

> <PUBCHEM_EFFECTIVE_ROTOR_COUNT>
0

> <PUBCHEM_PHARMACOPHORE_FEATURES>
6
1 1 acceptor
1 2 acceptor
6 3 4 5 6 9 10 rings
6 3 4 7 8 11 12 rings
6 3 5 7 13 15 17 rings
6 4 6 8 14 16 18 rings

> <PUBCHEM_HEAVY_ATOM_COUNT>
18

> <PUBCHEM_ATOM_DEF_STEREO_COUNT>
0

> <PUBCHEM_ATOM_UDEF_STEREO_COUNT>
0

> <PUBCHEM_BOND_DEF_STEREO_COUNT>
0

> <PUBCHEM_BOND_UDEF_STEREO_COUNT>
0

> <PUBCHEM_ISOTOPIC_ATOM_COUNT>
0

> <PUBCHEM_COMPONENT_COUNT>
1

> <PUBCHEM_CACTVS_TAUTO_COUNT>
1

> <PUBCHEM_CONFORMER_ID>
0002742E00000001

> <PUBCHEM_MMFF94_ENERGY>
55.6321

> <PUBCHEM_FEATURE_SELFOVERLAP>
30.577

> <PUBCHEM_SHAPE_FINGERPRINT>
10693767 8 18042421260387724743
10967382 1 18410855477323861733
11132069 177 18409737257050951960
13140716 1 18266459802108498970
13380535 76 18410858762958233287
1420 336 18123471570649211258
14790565 3 18338776979665345253
15196674 1 18410575088958280076
15309172 13 18410002265149404129
16945 1 18410855460128161796
193761 8 17834113430443143876
19591789 44 18410849962570360707
20510252 161 18189894210423336032
20739085 24 17979887700372846897
20905425 154 18047470307617516774
21267235 1 18410846668330132871
2334 1 17978228253441270982
23402539 116 18334588931379092412
23419403 2 15536516754116487345
23463225 33 18341614845204083304
23559900 14 17684927295906446534
238 59 17767732465063890645
2748010 2 18122343480171871542
335352 9 18266458887322688924
350125 39 18050562147273694408
54173680 148 18267584594161926074
589210 1 17689435988177450165
7364860 26 18192150623126777366

> <PUBCHEM_SHAPE_MULTIPOLES>
358.69
4.68
3.62
0.61
0
1.08
0
-0.71
0
0
0
0
-0.03
0

> <PUBCHEM_SHAPE_SELFOVERLAP>
838.811

> <PUBCHEM_SHAPE_VOLUME>
181.8

> <PUBCHEM_COORDINATE_TYPE>
2
5
10

$$$$

