17396497
  -OEChem-06241222573D

 39 40  0     0  0  0  0  0  0999 V2000
    1.5062    1.2574   -0.9152 S   0  0  0  0  0  0  0  0  0  0  0  0
    2.8108   -1.2890    1.3764 F   0  0  0  0  0  0  0  0  0  0  0  0
   -5.1085   -1.2619   -0.4380 O   0  0  0  0  0  0  0  0  0  0  0  0
   -3.0219    2.3703    0.1523 O   0  0  0  0  0  0  0  0  0  0  0  0
   -1.2238    1.0318    0.6949 N   0  0  0  0  0  0  0  0  0  0  0  0
   -0.3204    2.1132    0.9808 C   0  0  0  0  0  0  0  0  0  0  0  0
   -3.3462    0.0372    0.0696 C   0  0  0  0  0  0  0  0  0  0  0  0
    0.4654    2.5713   -0.2402 C   0  0  0  0  0  0  0  0  0  0  0  0
   -4.6631    0.0169   -0.3275 C   0  0  0  0  0  0  0  0  0  0  0  0
   -2.5408    1.2463    0.2916 C   0  0  0  0  0  0  0  0  0  0  0  0
   -2.9577   -1.3162    0.2124 C   0  0  0  0  0  0  0  0  0  0  0  0
   -4.0647   -2.0671   -0.1079 C   0  0  0  0  0  0  0  0  0  0  0  0
    2.8462    1.3291    0.3126 C   0  0  0  0  0  0  0  0  0  0  0  0
    3.9218    0.3313    0.0433 C   0  0  0  0  0  0  0  0  0  0  0  0
   -5.6411    1.0698   -0.6426 C   0  0  0  0  0  0  0  0  0  0  0  0
   -4.3177   -3.5137   -0.1589 C   0  0  0  0  0  0  0  0  0  0  0  0
    3.8467   -0.9464    0.5980 C   0  0  0  0  0  0  0  0  0  0  0  0
    5.0046    0.6785   -0.7646 C   0  0  0  0  0  0  0  0  0  0  0  0
    4.8547   -1.8769    0.3445 C   0  0  0  0  0  0  0  0  0  0  0  0
    6.0124   -0.2521   -1.0179 C   0  0  0  0  0  0  0  0  0  0  0  0
    5.9374   -1.5297   -0.4634 C   0  0  0  0  0  0  0  0  0  0  0  0
   -0.8978    2.9606    1.3684 H   0  0  0  0  0  0  0  0  0  0  0  0
    0.3382    1.7856    1.7910 H   0  0  0  0  0  0  0  0  0  0  0  0
   -0.2274    2.8784   -1.0312 H   0  0  0  0  0  0  0  0  0  0  0  0
    1.0814    3.4431    0.0032 H   0  0  0  0  0  0  0  0  0  0  0  0
   -0.8638    0.0888    0.7952 H   0  0  0  0  0  0  0  0  0  0  0  0
   -1.9980   -1.7145    0.5095 H   0  0  0  0  0  0  0  0  0  0  0  0
    2.4402    1.1621    1.3156 H   0  0  0  0  0  0  0  0  0  0  0  0
    3.2717    2.3395    0.3142 H   0  0  0  0  0  0  0  0  0  0  0  0
   -5.2845    1.6930   -1.4686 H   0  0  0  0  0  0  0  0  0  0  0  0
   -6.6060    0.6448   -0.9374 H   0  0  0  0  0  0  0  0  0  0  0  0
   -5.8106    1.7115    0.2276 H   0  0  0  0  0  0  0  0  0  0  0  0
   -5.1237   -3.7876    0.5287 H   0  0  0  0  0  0  0  0  0  0  0  0
   -4.6088   -3.8177   -1.1692 H   0  0  0  0  0  0  0  0  0  0  0  0
   -3.4251   -4.0814    0.1219 H   0  0  0  0  0  0  0  0  0  0  0  0
    5.0752    1.6700   -1.2039 H   0  0  0  0  0  0  0  0  0  0  0  0
    4.7961   -2.8716    0.7764 H   0  0  0  0  0  0  0  0  0  0  0  0
    6.8554    0.0180   -1.6472 H   0  0  0  0  0  0  0  0  0  0  0  0
    6.7221   -2.2543   -0.6607 H   0  0  0  0  0  0  0  0  0  0  0  0
  1  8  1  0  0  0  0
  1 13  1  0  0  0  0
  2 17  1  0  0  0  0
  3  9  1  0  0  0  0
  3 12  1  0  0  0  0
  4 10  2  0  0  0  0
  5  6  1  0  0  0  0
  5 10  1  0  0  0  0
  5 26  1  0  0  0  0
  6  8  1  0  0  0  0
  6 22  1  0  0  0  0
  6 23  1  0  0  0  0
  7  9  2  0  0  0  0
  7 10  1  0  0  0  0
  7 11  1  0  0  0  0
  8 24  1  0  0  0  0
  8 25  1  0  0  0  0
  9 15  1  0  0  0  0
 11 12  2  0  0  0  0
 11 27  1  0  0  0  0
 12 16  1  0  0  0  0
 13 14  1  0  0  0  0
 13 28  1  0  0  0  0
 13 29  1  0  0  0  0
 14 17  1  0  0  0  0
 14 18  2  0  0  0  0
 15 30  1  0  0  0  0
 15 31  1  0  0  0  0
 15 32  1  0  0  0  0
 16 33  1  0  0  0  0
 16 34  1  0  0  0  0
 16 35  1  0  0  0  0
 17 19  2  0  0  0  0
 18 20  1  0  0  0  0
 18 36  1  0  0  0  0
 19 21  1  0  0  0  0
 19 37  1  0  0  0  0
 20 21  2  0  0  0  0
 20 38  1  0  0  0  0
 21 39  1  0  0  0  0
M  END
> <PUBCHEM_COMPOUND_CID>
17396497

> <PUBCHEM_CONFORMER_RMSD>
1.2

> <PUBCHEM_CONFORMER_DIVERSEORDER>
1
71
30
77
15
83
65
6
35
36
80
21
49
93
16
97
68
55
59
48
19
5
91
88
51
54
57
27
13
20
41
26
100
42
14
76
94
37
8
40
11
44
73
98
85
58
104
2
52
78
17
69
89
46
50
79
67
22
74
39
87
28
105
38
18
56
75
72
12
32
34
95
7
92
70
82
25
23
102
33
29
62
96
31
64
60
9
90
86
101
53
10
81
63
4
99
3
66
61
84
47
45
43
103
24

> <PUBCHEM_MMFF94_PARTIAL_CHARGES>
27
1 -0.46
10 0.72
11 -0.15
12 -0.04
13 0.37
14 -0.14
15 0.18
16 0.18
17 0.19
18 -0.15
19 -0.15
2 -0.19
20 -0.15
21 -0.15
26 0.37
27 0.15
3 -0.28
36 0.15
37 0.15
38 0.15
39 0.15
4 -0.57
5 -0.73
6 0.3
7 -0.09
8 0.23
9 -0.04

> <PUBCHEM_EFFECTIVE_ROTOR_COUNT>
7

> <PUBCHEM_PHARMACOPHORE_FEATURES>
5
1 3 acceptor
1 4 acceptor
1 5 donor
5 3 7 9 11 12 rings
6 14 17 18 19 20 21 rings

> <PUBCHEM_HEAVY_ATOM_COUNT>
21

> <PUBCHEM_ATOM_DEF_STEREO_COUNT>
0

> <PUBCHEM_ATOM_UDEF_STEREO_COUNT>
0

> <PUBCHEM_BOND_DEF_STEREO_COUNT>
0

> <PUBCHEM_BOND_UDEF_STEREO_COUNT>
0

> <PUBCHEM_ISOTOPIC_ATOM_COUNT>
0

> <PUBCHEM_COMPONENT_COUNT>
1

> <PUBCHEM_CACTVS_TAUTO_COUNT>
2

> <PUBCHEM_CONFORMER_ID>
0109731100000001

> <PUBCHEM_MMFF94_ENERGY>
27.2451

> <PUBCHEM_FEATURE_SELFOVERLAP>
25.371

> <PUBCHEM_SHAPE_FINGERPRINT>
11315621 136 18128251195134953054
11796584 16 18407755941207920749
12555020 224 18410584985501745389
12592606 108 18335419029322211195
12596602 18 18340201899995620662
12760667 363 18187365424559410369
13167823 11 18411136935389923492
14251751 18 18409164372748218405
14251757 5 18341047415410472546
14866123 147 18334287691944314473
14931854 50 18202286891895558934
15183329 4 18201164342659046501
15250474 111 18270967972093126170
15352361 1 18409448076786562240
15537594 2 18272927241251497859
17492 89 18194964046060173847
17857418 61 18411701002129696300
20403669 9 18260261953857561821
21054139 6 18272649048537123242
21250096 35 18334860502124606897
23559900 14 18335991869799546313
25122255 55 18260257564543546742
2871803 45 18060416954546318016
3004659 81 18343586235140219200
335352 9 18409731777427127885
339767 52 18335144197662537718
351380 3 18407759235526808502
439807 62 18271521988678361619
44062 13 18411421687774749823
46194498 28 17131552721823513028
463206 1 18343016666562989443
465052 167 18113614586841103348
474144 1 17701843152279617570
5104073 3 17894905192399474241
559249 180 18408604786397891365
6823239 73 18260841379664298848
7970288 3 18337110163614563750
88748 71 18268144258776693299
960060 61 17846213358881674820

> <PUBCHEM_SHAPE_MULTIPOLES>
412.03
15.97
3.11
0.94
5.59
1.13
-0.03
8.49
3.49
-2.83
-0.16
0.59
-0.08
-0.52

> <PUBCHEM_SHAPE_SELFOVERLAP>
849.348

> <PUBCHEM_SHAPE_VOLUME>
240.2

> <PUBCHEM_COORDINATE_TYPE>
2
5
10

$$$$

