46173973
  -OEChem-07051213103D

 54 57  0     1  0  0  0  0  0999 V2000
    3.3726   -0.3947   -0.3219 O   0  0  0  0  0  0  0  0  0  0  0  0
    1.8602    0.0644    1.3958 O   0  0  0  0  0  0  0  0  0  0  0  0
    5.7008    2.8299    0.7114 O   0  0  0  0  0  0  0  0  0  0  0  0
    6.0226    1.6207   -1.8734 O   0  0  0  0  0  0  0  0  0  0  0  0
    2.9270    2.7057    1.5821 O   0  0  0  0  0  0  0  0  0  0  0  0
   -2.6257   -1.0749   -0.0760 O   0  0  0  0  0  0  0  0  0  0  0  0
    3.7009   -1.8881   -2.5967 O   0  0  0  0  0  0  0  0  0  0  0  0
    2.5217   -2.5787    1.2554 O   0  0  0  0  0  0  0  0  0  0  0  0
    0.0338    1.8584    0.9975 O   0  0  0  0  0  0  0  0  0  0  0  0
    0.6593   -4.4476    0.4320 O   0  0  0  0  0  0  0  0  0  0  0  0
   -8.3678    1.1541   -1.2424 O   0  0  0  0  0  0  0  0  0  0  0  0
    4.6534    2.1541    0.0135 C   0  0  1  0  0  0  0  0  0  0  0  0
    5.2711    1.0288   -0.8168 C   0  0  1  0  0  0  0  0  0  0  0  0
    3.6474    1.6065    1.0260 C   0  0  2  0  0  0  0  0  0  0  0  0
    4.1842    0.1120   -1.3829 C   0  0  1  0  0  0  0  0  0  0  0  0
    2.6678    0.6353    0.3672 C   0  0  1  0  0  0  0  0  0  0  0  0
    4.7682   -1.0912   -2.1170 C   0  0  0  0  0  0  0  0  0  0  0  0
    0.9076   -0.8337    0.9988 C   0  0  0  0  0  0  0  0  0  0  0  0
   -0.3893   -0.4396    0.6602 C   0  0  0  0  0  0  0  0  0  0  0  0
   -3.0830    0.1442    0.5297 C   0  0  1  0  0  0  0  0  0  0  0  0
   -2.1557    1.3083    0.1859 C   0  0  0  0  0  0  0  0  0  0  0  0
   -1.3357   -1.3898    0.2657 C   0  0  0  0  0  0  0  0  0  0  0  0
   -0.7651    0.9891    0.6701 C   0  0  0  0  0  0  0  0  0  0  0  0
    1.2581   -2.1824    0.9275 C   0  0  0  0  0  0  0  0  0  0  0  0
   -4.4958    0.4137    0.0563 C   0  0  0  0  0  0  0  0  0  0  0  0
   -0.9734   -2.7344    0.1769 C   0  0  0  0  0  0  0  0  0  0  0  0
    0.3216   -3.1299    0.5129 C   0  0  0  0  0  0  0  0  0  0  0  0
   -5.5476    0.4308    0.9725 C   0  0  0  0  0  0  0  0  0  0  0  0
   -4.7454    0.6454   -1.2964 C   0  0  0  0  0  0  0  0  0  0  0  0
   -6.8487    0.6792    0.5360 C   0  0  0  0  0  0  0  0  0  0  0  0
   -6.0466    0.8937   -1.7329 C   0  0  0  0  0  0  0  0  0  0  0  0
   -7.0983    0.9107   -0.8168 C   0  0  0  0  0  0  0  0  0  0  0  0
    4.1856    2.9051   -0.6343 H   0  0  0  0  0  0  0  0  0  0  0  0
    5.9717    0.4553   -0.1978 H   0  0  0  0  0  0  0  0  0  0  0  0
    4.1685    1.1177    1.8578 H   0  0  0  0  0  0  0  0  0  0  0  0
    3.5388    0.6559   -2.0861 H   0  0  0  0  0  0  0  0  0  0  0  0
    2.0215    1.1656   -0.3441 H   0  0  0  0  0  0  0  0  0  0  0  0
    5.3861   -0.7807   -2.9650 H   0  0  0  0  0  0  0  0  0  0  0  0
    5.3670   -1.7084   -1.4390 H   0  0  0  0  0  0  0  0  0  0  0  0
    6.1317    2.1897    1.3029 H   0  0  0  0  0  0  0  0  0  0  0  0
    5.4033    2.0977   -2.4519 H   0  0  0  0  0  0  0  0  0  0  0  0
    2.4261    3.1310    0.8652 H   0  0  0  0  0  0  0  0  0  0  0  0
   -3.0956   -0.0091    1.6190 H   0  0  0  0  0  0  0  0  0  0  0  0
   -2.4992    2.2268    0.6748 H   0  0  0  0  0  0  0  0  0  0  0  0
   -2.0818    1.4868   -0.8927 H   0  0  0  0  0  0  0  0  0  0  0  0
    4.0947   -2.6495   -3.0557 H   0  0  0  0  0  0  0  0  0  0  0  0
   -1.7066   -3.4703   -0.1445 H   0  0  0  0  0  0  0  0  0  0  0  0
   -5.3692    0.2524    2.0294 H   0  0  0  0  0  0  0  0  0  0  0  0
   -3.9419    0.6249   -2.0274 H   0  0  0  0  0  0  0  0  0  0  0  0
    2.5808   -3.5432    1.1414 H   0  0  0  0  0  0  0  0  0  0  0  0
   -7.6639    0.6914    1.2543 H   0  0  0  0  0  0  0  0  0  0  0  0
   -6.2283    1.0701   -2.7897 H   0  0  0  0  0  0  0  0  0  0  0  0
   -0.1128   -4.9550    0.1281 H   0  0  0  0  0  0  0  0  0  0  0  0
   -8.3564    1.2921   -2.2052 H   0  0  0  0  0  0  0  0  0  0  0  0
  1 15  1  0  0  0  0
  1 16  1  0  0  0  0
  2 16  1  0  0  0  0
  2 18  1  0  0  0  0
  3 12  1  0  0  0  0
  3 40  1  0  0  0  0
  4 13  1  0  0  0  0
  4 41  1  0  0  0  0
  5 14  1  0  0  0  0
  5 42  1  0  0  0  0
  6 20  1  0  0  0  0
  6 22  1  0  0  0  0
  7 17  1  0  0  0  0
  7 46  1  0  0  0  0
  8 24  1  0  0  0  0
  8 50  1  0  0  0  0
  9 23  2  0  0  0  0
 10 27  1  0  0  0  0
 10 53  1  0  0  0  0
 11 32  1  0  0  0  0
 11 54  1  0  0  0  0
 12 13  1  0  0  0  0
 12 14  1  0  0  0  0
 12 33  1  0  0  0  0
 13 15  1  0  0  0  0
 13 34  1  0  0  0  0
 14 16  1  0  0  0  0
 14 35  1  0  0  0  0
 15 17  1  0  0  0  0
 15 36  1  0  0  0  0
 16 37  1  0  0  0  0
 17 38  1  0  0  0  0
 17 39  1  0  0  0  0
 18 19  1  0  0  0  0
 18 24  2  0  0  0  0
 19 22  2  0  0  0  0
 19 23  1  0  0  0  0
 20 21  1  0  0  0  0
 20 25  1  0  0  0  0
 20 43  1  0  0  0  0
 21 23  1  0  0  0  0
 21 44  1  0  0  0  0
 21 45  1  0  0  0  0
 22 26  1  0  0  0  0
 24 27  1  0  0  0  0
 25 28  2  0  0  0  0
 25 29  1  0  0  0  0
 26 27  2  0  0  0  0
 26 47  1  0  0  0  0
 28 30  1  0  0  0  0
 28 48  1  0  0  0  0
 29 31  2  0  0  0  0
 29 49  1  0  0  0  0
 30 32  2  0  0  0  0
 30 51  1  0  0  0  0
 31 32  1  0  0  0  0
 31 52  1  0  0  0  0
M  END
> <PUBCHEM_COMPOUND_CID>
46173973

> <PUBCHEM_CONFORMER_RMSD>
0.8

> <PUBCHEM_CONFORMER_DIVERSEORDER>
1
10
18
29
36
20
5
21
14
37
25
33
26
16
34
19
6
23
12
28
24
31
13
39
4
38
27
15
32
7
22
35
9
8
2
30
11
17
3

> <PUBCHEM_MMFF94_PARTIAL_CHARGES>
44
1 -0.56
10 -0.53
11 -0.53
12 0.28
13 0.28
14 0.28
15 0.28
16 0.56
17 0.28
18 0.08
19 0.09
2 -0.36
20 0.42
21 0.06
22 0.08
23 0.42
24 0.08
25 -0.14
26 -0.15
27 0.08
28 -0.15
29 -0.15
3 -0.68
30 -0.15
31 -0.15
32 0.08
4 -0.68
40 0.4
41 0.4
42 0.4
46 0.4
47 0.15
48 0.15
49 0.15
5 -0.68
50 0.45
51 0.15
52 0.15
53 0.45
54 0.45
6 -0.36
7 -0.68
8 -0.53
9 -0.57

> <PUBCHEM_EFFECTIVE_ROTOR_COUNT>
5.8

> <PUBCHEM_PHARMACOPHORE_FEATURES>
19
1 1 acceptor
1 10 donor
1 11 donor
1 2 acceptor
1 3 acceptor
1 3 donor
1 4 acceptor
1 4 donor
1 5 acceptor
1 5 donor
1 6 acceptor
1 7 acceptor
1 7 donor
1 8 donor
1 9 acceptor
6 1 12 13 14 15 16 rings
6 18 19 22 24 26 27 rings
6 25 28 29 30 31 32 rings
6 6 19 20 21 22 23 rings

> <PUBCHEM_HEAVY_ATOM_COUNT>
32

> <PUBCHEM_ATOM_DEF_STEREO_COUNT>
6

> <PUBCHEM_ATOM_UDEF_STEREO_COUNT>
0

> <PUBCHEM_BOND_DEF_STEREO_COUNT>
0

> <PUBCHEM_BOND_UDEF_STEREO_COUNT>
0

> <PUBCHEM_ISOTOPIC_ATOM_COUNT>
0

> <PUBCHEM_COMPONENT_COUNT>
1

> <PUBCHEM_CACTVS_TAUTO_COUNT>
36

> <PUBCHEM_CONFORMER_ID>
02C08F1500000001

> <PUBCHEM_MMFF94_ENERGY>
103.6158

> <PUBCHEM_FEATURE_SELFOVERLAP>
96.523

> <PUBCHEM_SHAPE_FINGERPRINT>
10165383 225 18343582936842699852
10411042 1 17689445196888955587
10670039 82 18130217280670980164
10673678 19 18202558506001475991
10675989 125 18408601483367503048
10693767 8 17895196661591139111
11115154 58 16588292904310710473
11408170 132 18195820781153138581
11796584 16 14057007109259205901
12661589 4 14635737227977061813
12730499 353 18342173384426552091
12969540 114 18412832360876571269
13150687 139 18410285922549905966
13540713 5 17900818559528662353
13617811 41 18272932713488986037
13911987 19 18412541003470613585
14528608 73 18408328791693812449
14681490 219 18040713692685678153
14747281 78 18122342648009169541
14790565 3 18336258028991055177
14840074 17 18334861632592484693
14931854 50 18262784259992749348
15183329 4 16298100991394712597
15475509 35 14129350636423712767
15961568 22 17131831010424977213
19319366 153 18338807796356121087
20505436 4 17417532411407037794
20567600 234 14476955684294474317
20715895 44 18341050723062395136
20775438 99 18040725757528368390
21033648 29 18269839718370151360
21304303 94 18187644730192930686
21344244 181 17894623764641328855
221357 26 18113613512767430880
22393880 68 18335427829150947135
23522609 53 16299203771244740425
23523766 6 17835247022927499407
23559900 14 18188200993483535296
23569914 152 17106226898113899061
27425 322 18336550395709254132
3004659 81 5400800587428886785
3472631 163 18129940066670832276
38570 142 18333447638853000551
4058900 60 18201997776609242555
4066623 53 18338509868024039588
437795 51 18410001136031869659
45377200 153 16516545266496509815
465052 167 7204770401863662249
504579 68 18115030826975219509
513532 50 17676783014808290674
53794403 172 18127125264816206541
6669772 16 18334859407377548782
8863177 126 5977523058555954333

> <PUBCHEM_SHAPE_MULTIPOLES>
593.98
16.95
3.32
1.7
22.4
3.01
-0.92
-12.59
-8.43
-4.01
0.86
-1.41
-0.05
1.46

> <PUBCHEM_SHAPE_SELFOVERLAP>
1299.616

> <PUBCHEM_SHAPE_VOLUME>
316.8

> <PUBCHEM_COORDINATE_TYPE>
2
5
10

$$$$

