5281976
  -OEChem-07051213023D

 27 26  0     1  0  0  0  0  0999 V2000
   -1.6207    1.4404    0.1319 P   0  0  2  0  0  0  0  0  0  0  0  0
   -2.6639   -1.3025   -0.0723 P   0  0  0  0  0  0  0  0  0  0  0  0
   -0.1632    0.9654    0.6413 O   0  0  0  0  0  0  0  0  0  0  0  0
   -2.2283    0.1504   -0.6299 O   0  0  0  0  0  0  0  0  0  0  0  0
   -1.3127    2.4725   -1.0752 O   0  0  0  0  0  0  0  0  0  0  0  0
    5.1715   -1.3851    0.2052 O   0  0  0  0  0  0  0  0  0  0  0  0
   -2.5088    1.9941    1.2083 O   0  0  0  0  0  0  0  0  0  0  0  0
   -3.3296   -2.0071   -1.3656 O   0  0  0  0  0  0  0  0  0  0  0  0
   -3.9321   -0.9741    0.8743 O   0  0  0  0  0  0  0  0  0  0  0  0
   -1.5594   -2.0790    0.5818 O   0  0  0  0  0  0  0  0  0  0  0  0
    0.7686    0.4228   -0.2868 C   0  0  0  0  0  0  0  0  0  0  0  0
    3.2860    0.0641   -0.0147 C   0  0  0  0  0  0  0  0  0  0  0  0
    2.0217    0.0712    0.4502 C   0  0  0  0  0  0  0  0  0  0  0  0
    4.5055   -0.2777    0.7982 C   0  0  0  0  0  0  0  0  0  0  0  0
    3.5653    0.4446   -1.4467 C   0  0  0  0  0  0  0  0  0  0  0  0
    0.9424    1.1716   -1.0624 H   0  0  0  0  0  0  0  0  0  0  0  0
    0.3428   -0.4783   -0.7362 H   0  0  0  0  0  0  0  0  0  0  0  0
    1.8768   -0.2323    1.4868 H   0  0  0  0  0  0  0  0  0  0  0  0
    5.1923    0.5746    0.8270 H   0  0  0  0  0  0  0  0  0  0  0  0
    4.2409   -0.5451    1.8264 H   0  0  0  0  0  0  0  0  0  0  0  0
    2.6743    0.5408   -2.0709 H   0  0  0  0  0  0  0  0  0  0  0  0
    4.1048    1.3971   -1.4802 H   0  0  0  0  0  0  0  0  0  0  0  0
    4.1891   -0.3157   -1.9291 H   0  0  0  0  0  0  0  0  0  0  0  0
   -1.0629    3.3958   -0.8576 H   0  0  0  0  0  0  0  0  0  0  0  0
    5.9583   -1.5677    0.7465 H   0  0  0  0  0  0  0  0  0  0  0  0
   -3.6027   -2.9473   -1.3063 H   0  0  0  0  0  0  0  0  0  0  0  0
   -4.3332   -1.6991    1.3994 H   0  0  0  0  0  0  0  0  0  0  0  0
  1  3  1  0  0  0  0
  1  4  1  0  0  0  0
  1  5  1  0  0  0  0
  1  7  2  0  0  0  0
  2  4  1  0  0  0  0
  2  8  1  0  0  0  0
  2  9  1  0  0  0  0
  2 10  2  0  0  0  0
  3 11  1  0  0  0  0
  5 24  1  0  0  0  0
  6 14  1  0  0  0  0
  6 25  1  0  0  0  0
  8 26  1  0  0  0  0
  9 27  1  0  0  0  0
 11 13  1  0  0  0  0
 11 16  1  0  0  0  0
 11 17  1  0  0  0  0
 12 13  2  0  0  0  0
 12 14  1  0  0  0  0
 12 15  1  0  0  0  0
 13 18  1  0  0  0  0
 14 19  1  0  0  0  0
 14 20  1  0  0  0  0
 15 21  1  0  0  0  0
 15 22  1  0  0  0  0
 15 23  1  0  0  0  0
M  END
> <PUBCHEM_COMPOUND_CID>
5281976

> <PUBCHEM_CONFORMER_RMSD>
0.8

> <PUBCHEM_CONFORMER_DIVERSEORDER>
1
15
29
44
3
38
35
42
18
40
19
43
21
37
10
41
13
12
22
31
32
39
25
26
11
4
24
30
14
8
2
23
28
33
20
5
7
17
6
27
16
34
36
9

> <PUBCHEM_MMFF94_PARTIAL_CHARGES>
20
1 1.51
10 -0.7
11 0.42
12 -0.28
13 -0.29
14 0.42
15 0.14
18 0.15
2 1.51
24 0.5
25 0.4
26 0.5
27 0.5
3 -0.55
4 -0.54
5 -0.77
6 -0.68
7 -0.7
8 -0.77
9 -0.77

> <PUBCHEM_EFFECTIVE_ROTOR_COUNT>
6

> <PUBCHEM_PHARMACOPHORE_FEATURES>
9
1 10 acceptor
1 15 hydrophobe
1 5 acceptor
1 6 acceptor
1 6 donor
1 7 acceptor
1 8 acceptor
1 9 acceptor
4 2 8 9 10 anion

> <PUBCHEM_HEAVY_ATOM_COUNT>
15

> <PUBCHEM_ATOM_DEF_STEREO_COUNT>
0

> <PUBCHEM_ATOM_UDEF_STEREO_COUNT>
0

> <PUBCHEM_BOND_DEF_STEREO_COUNT>
1

> <PUBCHEM_BOND_UDEF_STEREO_COUNT>
0

> <PUBCHEM_ISOTOPIC_ATOM_COUNT>
0

> <PUBCHEM_COMPONENT_COUNT>
1

> <PUBCHEM_CACTVS_TAUTO_COUNT>
1

> <PUBCHEM_CONFORMER_ID>
005098B800000001

> <PUBCHEM_MMFF94_ENERGY>
-33.7034

> <PUBCHEM_FEATURE_SELFOVERLAP>
45.715

> <PUBCHEM_SHAPE_FINGERPRINT>
12932764 1 18201434826666837888
17834072 33 18271802420394127244
18186145 218 14692564425591477548
200 152 17632581543554427060
20112054 13 14562522990144656480
20279233 1 17022905691916924612
20645477 70 13686026457678550064
20671657 53 18200596878241173717
23402539 116 18409455765026240927
23557571 272 18260540131006764332
23559900 14 18338246989939046648
23598291 2 17917421060596122092
312423 11 18201423771468244028
3286 77 16879078438290375939

> <PUBCHEM_SHAPE_MULTIPOLES>
269.44
8.89
2.17
1.16
8.33
0.26
-0.24
-4.08
0.41
-2.49
-0.15
-0.09
0.11
-0.77

> <PUBCHEM_SHAPE_SELFOVERLAP>
485.504

> <PUBCHEM_SHAPE_VOLUME>
173.7

> <PUBCHEM_COORDINATE_TYPE>
2
5
10

$$$$

