15586712
  -OEChem-07051213113D

 53 55  0     1  0  0  0  0  0999 V2000
   -5.1959   -1.4552   -0.6674 O   0  0  0  0  0  0  0  0  0  0  0  0
   -0.7739    0.8396    0.1644 C   0  0  1  0  0  0  0  0  0  0  0  0
   -1.6009   -0.4700   -0.1068 C   0  0  2  0  0  0  0  0  0  0  0  0
    0.6939    0.5870   -0.3974 C   0  0  2  0  0  0  0  0  0  0  0  0
   -3.1685   -0.3691   -0.0216 C   0  0  1  0  0  0  0  0  0  0  0  0
   -1.4117    2.0250   -0.6036 C   0  0  0  0  0  0  0  0  0  0  0  0
   -0.9934   -1.6499    0.6838 C   0  0  0  0  0  0  0  0  0  0  0  0
   -3.6515    0.8971   -0.7699 C   0  0  0  0  0  0  0  0  0  0  0  0
    1.2535   -0.7836   -0.0347 C   0  0  0  0  0  0  0  0  0  0  0  0
   -2.9110    2.1656   -0.3662 C   0  0  0  0  0  0  0  0  0  0  0  0
    1.6876    1.7132   -0.0277 C   0  0  0  0  0  0  0  0  0  0  0  0
   -0.7087    1.1994    1.6709 C   0  0  0  0  0  0  0  0  0  0  0  0
    3.6601    0.0843    0.0385 C   0  0  1  0  0  0  0  0  0  0  0  0
    2.7003   -1.0444   -0.3888 C   0  0  0  0  0  0  0  0  0  0  0  0
    0.4909   -1.7592    0.4892 C   0  0  0  0  0  0  0  0  0  0  0  0
    3.1181    1.4288   -0.4909 C   0  0  0  0  0  0  0  0  0  0  0  0
   -3.7969   -1.5901   -0.7453 C   0  0  0  0  0  0  0  0  0  0  0  0
   -3.7493   -0.3779    1.4064 C   0  0  0  0  0  0  0  0  0  0  0  0
    3.8282    0.1073    1.5684 C   0  0  0  0  0  0  0  0  0  0  0  0
    5.0206   -0.1659   -0.5667 C   0  0  0  0  0  0  0  0  0  0  0  0
    5.5084   -1.3820   -0.8344 C   0  0  0  0  0  0  0  0  0  0  0  0
   -1.4130   -0.6990   -1.1705 H   0  0  0  0  0  0  0  0  0  0  0  0
    0.6259    0.5826   -1.4964 H   0  0  0  0  0  0  0  0  0  0  0  0
   -1.2462    1.8972   -1.6816 H   0  0  0  0  0  0  0  0  0  0  0  0
   -0.9248    2.9685   -0.3299 H   0  0  0  0  0  0  0  0  0  0  0  0
   -1.4352   -2.5912    0.3409 H   0  0  0  0  0  0  0  0  0  0  0  0
   -1.2044   -1.5714    1.7552 H   0  0  0  0  0  0  0  0  0  0  0  0
   -4.7255    1.0584   -0.6123 H   0  0  0  0  0  0  0  0  0  0  0  0
   -3.5205    0.7576   -1.8518 H   0  0  0  0  0  0  0  0  0  0  0  0
   -3.1166    2.4163    0.6795 H   0  0  0  0  0  0  0  0  0  0  0  0
   -3.2886    3.0043   -0.9634 H   0  0  0  0  0  0  0  0  0  0  0  0
    1.7157    1.8808    1.0528 H   0  0  0  0  0  0  0  0  0  0  0  0
    1.3615    2.6571   -0.4794 H   0  0  0  0  0  0  0  0  0  0  0  0
   -0.1334    0.4717    2.2510 H   0  0  0  0  0  0  0  0  0  0  0  0
   -0.2388    2.1772    1.8240 H   0  0  0  0  0  0  0  0  0  0  0  0
   -1.6854    1.2900    2.1360 H   0  0  0  0  0  0  0  0  0  0  0  0
    3.0032   -1.9986    0.0615 H   0  0  0  0  0  0  0  0  0  0  0  0
    2.7393   -1.1801   -1.4794 H   0  0  0  0  0  0  0  0  0  0  0  0
    0.9341   -2.7216    0.7322 H   0  0  0  0  0  0  0  0  0  0  0  0
    3.1368    1.4344   -1.5897 H   0  0  0  0  0  0  0  0  0  0  0  0
    3.7646    2.2557   -0.1684 H   0  0  0  0  0  0  0  0  0  0  0  0
   -3.5138   -2.5448   -0.2919 H   0  0  0  0  0  0  0  0  0  0  0  0
   -3.5102   -1.6211   -1.8018 H   0  0  0  0  0  0  0  0  0  0  0  0
   -3.4950   -1.3002    1.9388 H   0  0  0  0  0  0  0  0  0  0  0  0
   -3.4124    0.4601    2.0116 H   0  0  0  0  0  0  0  0  0  0  0  0
   -4.8422   -0.2950    1.4106 H   0  0  0  0  0  0  0  0  0  0  0  0
    4.2709   -0.8264    1.9364 H   0  0  0  0  0  0  0  0  0  0  0  0
    4.4845    0.9279    1.8822 H   0  0  0  0  0  0  0  0  0  0  0  0
    2.8743    0.2324    2.0904 H   0  0  0  0  0  0  0  0  0  0  0  0
    5.6613    0.6933   -0.7528 H   0  0  0  0  0  0  0  0  0  0  0  0
   -5.5015   -1.9363    0.1203 H   0  0  0  0  0  0  0  0  0  0  0  0
    6.5077   -1.4736   -1.2495 H   0  0  0  0  0  0  0  0  0  0  0  0
    4.9790   -2.3074   -0.6518 H   0  0  0  0  0  0  0  0  0  0  0  0
  1 17  1  0  0  0  0
  1 51  1  0  0  0  0
  2  3  1  0  0  0  0
  2  4  1  0  0  0  0
  2  6  1  0  0  0  0
  2 12  1  0  0  0  0
  3  5  1  0  0  0  0
  3  7  1  0  0  0  0
  3 22  1  0  0  0  0
  4  9  1  0  0  0  0
  4 11  1  0  0  0  0
  4 23  1  0  0  0  0
  5  8  1  0  0  0  0
  5 17  1  0  0  0  0
  5 18  1  0  0  0  0
  6 10  1  0  0  0  0
  6 24  1  0  0  0  0
  6 25  1  0  0  0  0
  7 15  1  0  0  0  0
  7 26  1  0  0  0  0
  7 27  1  0  0  0  0
  8 10  1  0  0  0  0
  8 28  1  0  0  0  0
  8 29  1  0  0  0  0
  9 14  1  0  0  0  0
  9 15  2  0  0  0  0
 10 30  1  0  0  0  0
 10 31  1  0  0  0  0
 11 16  1  0  0  0  0
 11 32  1  0  0  0  0
 11 33  1  0  0  0  0
 12 34  1  0  0  0  0
 12 35  1  0  0  0  0
 12 36  1  0  0  0  0
 13 14  1  0  0  0  0
 13 16  1  0  0  0  0
 13 19  1  0  0  0  0
 13 20  1  0  0  0  0
 14 37  1  0  0  0  0
 14 38  1  0  0  0  0
 15 39  1  0  0  0  0
 16 40  1  0  0  0  0
 16 41  1  0  0  0  0
 17 42  1  0  0  0  0
 17 43  1  0  0  0  0
 18 44  1  0  0  0  0
 18 45  1  0  0  0  0
 18 46  1  0  0  0  0
 19 47  1  0  0  0  0
 19 48  1  0  0  0  0
 19 49  1  0  0  0  0
 20 21  2  0  0  0  0
 20 50  1  0  0  0  0
 21 52  1  0  0  0  0
 21 53  1  0  0  0  0
M  END
> <PUBCHEM_COMPOUND_CID>
15586712

> <PUBCHEM_CONFORMER_RMSD>
0.6

> <PUBCHEM_CONFORMER_DIVERSEORDER>
2
4
6
5
3
1

> <PUBCHEM_MMFF94_PARTIAL_CHARGES>
15
1 -0.68
13 0.14
14 0.14
15 -0.29
17 0.28
20 -0.29
21 -0.3
39 0.15
4 0.14
50 0.15
51 0.4
52 0.15
53 0.15
7 0.14
9 -0.28

> <PUBCHEM_EFFECTIVE_ROTOR_COUNT>
3.8

> <PUBCHEM_PHARMACOPHORE_FEATURES>
6
1 1 acceptor
1 1 donor
1 21 hydrophobe
6 2 3 4 7 9 15 rings
6 2 3 5 6 8 10 rings
6 4 9 11 13 14 16 rings

> <PUBCHEM_HEAVY_ATOM_COUNT>
21

> <PUBCHEM_ATOM_DEF_STEREO_COUNT>
5

> <PUBCHEM_ATOM_UDEF_STEREO_COUNT>
0

> <PUBCHEM_BOND_DEF_STEREO_COUNT>
0

> <PUBCHEM_BOND_UDEF_STEREO_COUNT>
0

> <PUBCHEM_ISOTOPIC_ATOM_COUNT>
0

> <PUBCHEM_COMPONENT_COUNT>
1

> <PUBCHEM_CACTVS_TAUTO_COUNT>
1

> <PUBCHEM_CONFORMER_ID>
00EDD59800000002

> <PUBCHEM_MMFF94_ENERGY>
74.2465

> <PUBCHEM_FEATURE_SELFOVERLAP>
30.478

> <PUBCHEM_SHAPE_FINGERPRINT>
10062212 137 18201166536912295249
10366900 7 17917992767381276378
10646746 165 18271527589009390212
11132069 177 18334582329956348986
11315181 36 18186797020266392560
12011746 2 18272087210479117374
12236239 1 17968090894284254379
12403259 226 18409454682620979880
12403259 415 18407762547274063672
12403260 363 18343027674643354988
12592029 89 18131070475755012363
12916754 54 18334011670600201093
13140716 1 18125994979778623691
13224815 77 18334018284802156432
13288520 33 18335417980294688607
13583140 156 16200150954482942201
13675066 3 18187372021360086680
13862211 1 18413110571921275706
14251751 93 18408893940264470215
14787075 74 18261961717250856352
15163728 17 15553627238715815831
15196674 1 18411699885406687420
15788980 27 18342455949918598302
15848702 151 17749099015511468846
16752209 62 18343024393409556362
16945 1 18341895173271434803
17349148 13 18412825793929740818
17492 89 18339647848920089363
17804303 29 18341891896485850380
18186145 218 18260546744717777962
19862831 5 18410290341617169708
200 152 18040154024075870148
20871999 31 18272923943333675796
21267235 1 18411693271183548727
21637258 2 16588033372891438423
221357 26 18409451379721908205
221490 88 18340199700819494156
22393880 68 18341902934303686660
23402539 116 18411985766682045438
23493267 7 17489873730509934913
23557571 272 18187359943664085279
23559900 14 18335143103031504496
2748010 2 18196087974155028063
2871803 45 18341622486225047311
296302 2 13542460969122771762
3286 77 17458345200012612616
335352 9 18340204193107515837
34934 24 18129103501609901381
350125 39 18341041982297675549
5104073 3 18412263943419642664
69090 78 18334577906187864142
9709674 26 18411696548185371878

> <PUBCHEM_SHAPE_MULTIPOLES>
426.3
9.88
2.11
1.17
4.73
0.33
0.45
-2.99
-2.09
-1.04
-0.24
-0.06
0.04
0.22

> <PUBCHEM_SHAPE_SELFOVERLAP>
887.96

> <PUBCHEM_SHAPE_VOLUME>
239.9

> <PUBCHEM_COORDINATE_TYPE>
2
5
10

$$$$

