8577
  -OEChem-06261202552D

 23 22  0     0  0  0  0  0  0999 V2000
    0.8660    3.0000    0.0000 O   0  5  0  0  0  0  0  0  0  0  0  0
    3.4641    4.5000    0.0000 O   0  5  0  0  0  0  0  0  0  0  0  0
    0.8660    0.0000    0.0000 O   0  5  0  0  0  0  0  0  0  0  0  0
    1.7320    4.5000    0.0000 O   0  0  0  0  0  0  0  0  0  0  0  0
    0.0000    1.5000    0.0000 O   0  0  0  0  0  0  0  0  0  0  0  0
    4.3301    0.0000    0.0000 O   0  5  0  0  0  0  0  0  0  0  0  0
    5.1962    1.5000    0.0000 O   0  0  0  0  0  0  0  0  0  0  0  0
    2.5981    4.0000    0.0000 N   0  3  0  0  0  0  0  0  0  0  0  0
    0.8660    1.0000    0.0000 N   0  3  0  0  0  0  0  0  0  0  0  0
    4.3301    1.0000    0.0000 N   0  3  0  0  0  0  0  0  0  0  0  0
    2.5981    7.0369    0.0000 N   0  3  0  0  0  0  0  0  0  0  0  0
    2.5981    3.0000    0.0000 C   0  0  0  0  0  0  0  0  0  0  0  0
    1.7320    1.5000    0.0000 C   0  0  0  0  0  0  0  0  0  0  0  0
    3.4641    1.5000    0.0000 C   0  0  0  0  0  0  0  0  0  0  0  0
    1.7320    2.5000    0.0000 C   0  0  0  0  0  0  0  0  0  0  0  0
    3.4641    2.5000    0.0000 C   0  0  0  0  0  0  0  0  0  0  0  0
    2.5981    1.0000    0.0000 C   0  0  0  0  0  0  0  0  0  0  0  0
    4.0010    2.8100    0.0000 H   0  0  0  0  0  0  0  0  0  0  0  0
    2.5981    0.3800    0.0000 H   0  0  0  0  0  0  0  0  0  0  0  0
    3.1350    7.3469    0.0000 H   0  0  0  0  0  0  0  0  0  0  0  0
    2.0611    6.7269    0.0000 H   0  0  0  0  0  0  0  0  0  0  0  0
    2.2881    7.5739    0.0000 H   0  0  0  0  0  0  0  0  0  0  0  0
    2.9081    6.5000    0.0000 H   0  0  0  0  0  0  0  0  0  0  0  0
  1 15  1  0  0  0  0
  2  8  1  0  0  0  0
  3  9  1  0  0  0  0
  4  8  2  0  0  0  0
  5  9  2  0  0  0  0
  6 10  1  0  0  0  0
  7 10  2  0  0  0  0
  8 12  1  0  0  0  0
  9 13  1  0  0  0  0
 10 14  1  0  0  0  0
 11 20  1  0  0  0  0
 11 21  1  0  0  0  0
 11 22  1  0  0  0  0
 11 23  1  0  0  0  0
 12 15  2  0  0  0  0
 12 16  1  0  0  0  0
 13 15  1  0  0  0  0
 13 17  2  0  0  0  0
 14 16  2  0  0  0  0
 14 17  1  0  0  0  0
 16 18  1  0  0  0  0
 17 19  1  0  0  0  0
M  CHG  8   1  -1   2  -1   3  -1   6  -1   8   1   9   1  10   1  11   1
M  END
> <PUBCHEM_COMPOUND_CID>
8577

> <PUBCHEM_COMPOUND_CANONICALIZED>
1

> <PUBCHEM_CACTVS_COMPLEXITY>
292

> <PUBCHEM_CACTVS_HBOND_ACCEPTOR>
7

> <PUBCHEM_CACTVS_HBOND_DONOR>
1

> <PUBCHEM_CACTVS_ROTATABLE_BOND>
0

> <PUBCHEM_CACTVS_SUBSKEYS>
AAADcYBjuAAAAAAAAAAAAAAAAAAAAAAAAAAwAAAAAAAAAAABAAAAHgAUAAAACAyBkAAwxoAQQACBACRCQwCCAAAgIgAgiAAFbIoKJiKA0dOAMABkwFEIyAewQAAAAEAAAAQAEAAAgAAACAAgAAAAAAAAAA==

> <PUBCHEM_IUPAC_OPENEYE_NAME>
ammonium 2,4,6-trinitrophenolate

> <PUBCHEM_IUPAC_CAS_NAME>
ammonium 2,4,6-trinitrophenolate

> <PUBCHEM_IUPAC_NAME>
azanium 2,4,6-trinitrophenolate

> <PUBCHEM_IUPAC_SYSTEMATIC_NAME>
azanium 2,4,6-trinitrophenolate

> <PUBCHEM_IUPAC_TRADITIONAL_NAME>
ammonium picrate

> <PUBCHEM_IUPAC_INCHI>
InChI=1S/C6H3N3O7.H3N/c10-6-4(8(13)14)1-3(7(11)12)2-5(6)9(15)16;/h1-2,10H;1H3

> <PUBCHEM_IUPAC_INCHIKEY>
PADMMUFPGNGRGI-UHFFFAOYSA-N

> <PUBCHEM_EXACT_MASS>
246.023649

> <PUBCHEM_MOLECULAR_FORMULA>
C6H6N4O7

> <PUBCHEM_MOLECULAR_WEIGHT>
246.13444

> <PUBCHEM_OPENEYE_CAN_SMILES>
C1=C(C=C(C(=C1[N+](=O)[O-])[O-])[N+](=O)[O-])[N+](=O)[O-].[NH4+]

> <PUBCHEM_OPENEYE_ISO_SMILES>
C1=C(C=C(C(=C1[N+](=O)[O-])[O-])[N+](=O)[O-])[N+](=O)[O-].[NH4+]

> <PUBCHEM_CACTVS_TPSA>
162

> <PUBCHEM_MONOISOTOPIC_WEIGHT>
246.023649

> <PUBCHEM_TOTAL_CHARGE>
0

> <PUBCHEM_HEAVY_ATOM_COUNT>
17

> <PUBCHEM_ATOM_DEF_STEREO_COUNT>
0

> <PUBCHEM_ATOM_UDEF_STEREO_COUNT>
0

> <PUBCHEM_BOND_DEF_STEREO_COUNT>
0

> <PUBCHEM_BOND_UDEF_STEREO_COUNT>
0

> <PUBCHEM_ISOTOPIC_ATOM_COUNT>
0

> <PUBCHEM_COMPONENT_COUNT>
2

> <PUBCHEM_CACTVS_TAUTO_COUNT>
1

> <PUBCHEM_COORDINATE_TYPE>
1
5
255

> <PUBCHEM_BONDANNOTATIONS>
12  15  8
12  16  8
13  15  8
13  17  8
14  16  8
14  17  8

$$$$

