53297387
  -OEChem-07051213123D

 46 49  0     1  0  0  0  0  0999 V2000
    0.5076    1.7064   -1.5181 O   0  0  0  0  0  0  0  0  0  0  0  0
    0.7877    0.6836    1.8293 O   0  0  0  0  0  0  0  0  0  0  0  0
   -4.2014   -0.1308   -0.5289 O   0  0  0  0  0  0  0  0  0  0  0  0
    1.7462    0.1427   -2.6366 O   0  0  0  0  0  0  0  0  0  0  0  0
    1.4980    0.1478   -0.3278 N   0  0  0  0  0  0  0  0  0  0  0  0
    2.2146   -0.9671   -0.0396 N   0  0  0  0  0  0  0  0  0  0  0  0
    0.1959    2.0188   -0.1292 C   0  0  1  0  0  0  0  0  0  0  0  0
   -1.3106    2.0306    0.0681 C   0  0  0  0  0  0  0  0  0  0  0  0
    0.8510    0.8752    0.6251 C   0  0  0  0  0  0  0  0  0  0  0  0
    0.9374    3.3184    0.1973 C   0  0  0  0  0  0  0  0  0  0  0  0
    1.3141    0.6001   -1.5889 C   0  0  0  0  0  0  0  0  0  0  0  0
   -2.0739    0.9311   -0.3248 C   0  0  0  0  0  0  0  0  0  0  0  0
   -1.9305    3.1409    0.6414 C   0  0  0  0  0  0  0  0  0  0  0  0
   -3.4571    0.9419   -0.1444 C   0  0  0  0  0  0  0  0  0  0  0  0
   -3.3136    3.1518    0.8215 C   0  0  0  0  0  0  0  0  0  0  0  0
   -4.0769    2.0522    0.4290 C   0  0  0  0  0  0  0  0  0  0  0  0
    3.6012   -0.8735    0.1286 C   0  0  0  0  0  0  0  0  0  0  0  0
    4.3643   -2.0305    0.2851 C   0  0  0  0  0  0  0  0  0  0  0  0
    4.2197    0.3768    0.1387 C   0  0  0  0  0  0  0  0  0  0  0  0
   -3.7353   -1.3912   -0.1942 C   0  0  0  0  0  0  0  0  0  0  0  0
    5.7463   -1.9375    0.4515 C   0  0  0  0  0  0  0  0  0  0  0  0
    5.6015    0.4699    0.3051 C   0  0  0  0  0  0  0  0  0  0  0  0
    6.3648   -0.6872    0.4613 C   0  0  0  0  0  0  0  0  0  0  0  0
   -3.2538   -1.6378    1.0916 C   0  0  0  0  0  0  0  0  0  0  0  0
   -3.7457   -2.4135   -1.1432 C   0  0  0  0  0  0  0  0  0  0  0  0
   -2.7829   -2.9069    1.4285 C   0  0  0  0  0  0  0  0  0  0  0  0
   -3.2748   -3.6827   -0.8062 C   0  0  0  0  0  0  0  0  0  0  0  0
   -2.7936   -3.9293    0.4798 C   0  0  0  0  0  0  0  0  0  0  0  0
    0.5716    4.1500   -0.4161 H   0  0  0  0  0  0  0  0  0  0  0  0
    0.8512    3.5887    1.2554 H   0  0  0  0  0  0  0  0  0  0  0  0
    2.0072    3.2256   -0.0262 H   0  0  0  0  0  0  0  0  0  0  0  0
   -1.5863    0.0796   -0.7927 H   0  0  0  0  0  0  0  0  0  0  0  0
   -1.3772    4.0163    0.9642 H   0  0  0  0  0  0  0  0  0  0  0  0
    1.7497   -1.8641   -0.0857 H   0  0  0  0  0  0  0  0  0  0  0  0
   -3.7969    4.0158    1.2685 H   0  0  0  0  0  0  0  0  0  0  0  0
   -5.1539    2.0663    0.5723 H   0  0  0  0  0  0  0  0  0  0  0  0
    3.8940   -3.0106    0.2789 H   0  0  0  0  0  0  0  0  0  0  0  0
    3.6700    1.3059    0.0255 H   0  0  0  0  0  0  0  0  0  0  0  0
    6.3406   -2.8383    0.5734 H   0  0  0  0  0  0  0  0  0  0  0  0
    6.0837    1.4431    0.3141 H   0  0  0  0  0  0  0  0  0  0  0  0
    7.4407   -0.6147    0.5910 H   0  0  0  0  0  0  0  0  0  0  0  0
   -3.2537   -0.8657    1.8564 H   0  0  0  0  0  0  0  0  0  0  0  0
   -4.1189   -2.2266   -2.1463 H   0  0  0  0  0  0  0  0  0  0  0  0
   -2.4121   -3.1003    2.4309 H   0  0  0  0  0  0  0  0  0  0  0  0
   -3.2829   -4.4788   -1.5450 H   0  0  0  0  0  0  0  0  0  0  0  0
   -2.4279   -4.9177    0.7424 H   0  0  0  0  0  0  0  0  0  0  0  0
  1  7  1  0  0  0  0
  1 11  1  0  0  0  0
  2  9  2  0  0  0  0
  3 14  1  0  0  0  0
  3 20  1  0  0  0  0
  4 11  2  0  0  0  0
  5  6  1  0  0  0  0
  5  9  1  0  0  0  0
  5 11  1  0  0  0  0
  6 17  1  0  0  0  0
  6 34  1  0  0  0  0
  7  8  1  0  0  0  0
  7  9  1  0  0  0  0
  7 10  1  0  0  0  0
  8 12  2  0  0  0  0
  8 13  1  0  0  0  0
 10 29  1  0  0  0  0
 10 30  1  0  0  0  0
 10 31  1  0  0  0  0
 12 14  1  0  0  0  0
 12 32  1  0  0  0  0
 13 15  2  0  0  0  0
 13 33  1  0  0  0  0
 14 16  2  0  0  0  0
 15 16  1  0  0  0  0
 15 35  1  0  0  0  0
 16 36  1  0  0  0  0
 17 18  2  0  0  0  0
 17 19  1  0  0  0  0
 18 21  1  0  0  0  0
 18 37  1  0  0  0  0
 19 22  2  0  0  0  0
 19 38  1  0  0  0  0
 20 24  2  0  0  0  0
 20 25  1  0  0  0  0
 21 23  2  0  0  0  0
 21 39  1  0  0  0  0
 22 23  1  0  0  0  0
 22 40  1  0  0  0  0
 23 41  1  0  0  0  0
 24 26  1  0  0  0  0
 24 42  1  0  0  0  0
 25 27  2  0  0  0  0
 25 43  1  0  0  0  0
 26 28  2  0  0  0  0
 26 44  1  0  0  0  0
 27 28  1  0  0  0  0
 27 45  1  0  0  0  0
 28 46  1  0  0  0  0
M  END
> <PUBCHEM_COMPOUND_CID>
53297387

> <PUBCHEM_CONFORMER_RMSD>
0.8

> <PUBCHEM_CONFORMER_DIVERSEORDER>
1
188
308
3
157
274
67
342
162
14
261
269
289
84
275
273
254
117
110
225
325
189
99
87
350
106
345
40
179
149
171
302
334
77
82
49
234
197
11
18
126
118
190
167
233
4
25
137
196
187
242
310
27
63
220
47
119
311
23
73
216
248
352
247
52
24
136
306
211
74
339
120
133
307
351
105
86
326
28
72
43
305
356
363
90
97
364
359
174
134
45
33
127
309
161
218
267
109
357
335
163
213
69
152
217
355
333
317
184
182
151
224
44
286
291
17
132
347
194
223
147
313
181
61
125
212
205
203
50
362
80
304
123
70
226
201
236
235
81
361
338
349
336
183
131
101
186
266
315
245
153
296
103
9
252
298
243
144
294
337
8
244
300
26
91
164
166
206
320
303
29
262
64
258
165
279
195
360
168
341
59
111
358
146
79
48
249
200
301
112
268
140
209
202
143
88
21
199
204
238
344
31
283
284
128
282
35
331
299
229
185
107
158
246
348
192
129
75
113
121
276
173
58
297
330
353
2
138
265
154
177
253
159
7
60
281
100
250
54
232
208
42
322
231
175
271
20
260
230
135
122
321
55
228
10
295
287
288
53
328
78
172
116
292
285
62
259
312
57
98
240
6
219
30
290
255
65
41
318
280
263
115
19
210
155
145
89
343
198
114
180
22
319
13
56
251
85
329
191
142
277
257
169
37
150
46
95
215
93
346
354
278
141
83
15
241
237
327
38
324
214
124
130
104
16
156
34
148
293
176
92
314
94
12
264
340
239
39
323
71
76
66
222
193
227
270
96
160
51
178
316
221
139
102
68
36
332
5
207
32
108
170
256
272

> <PUBCHEM_MMFF94_PARTIAL_CHARGES>
42
1 -0.43
11 0.78
12 -0.15
13 -0.15
14 0.08
15 -0.15
16 -0.15
17 0.1
18 -0.15
19 -0.15
2 -0.57
20 0.08
21 -0.15
22 -0.15
23 -0.15
24 -0.15
25 -0.15
26 -0.15
27 -0.15
28 -0.15
3 -0.17
32 0.15
33 0.15
34 0.4
35 0.15
36 0.15
37 0.15
38 0.15
39 0.15
4 -0.57
40 0.15
41 0.15
42 0.15
43 0.15
44 0.15
45 0.15
46 0.15
5 -0.1
6 -0.52
7 0.48
8 -0.14
9 0.57

> <PUBCHEM_EFFECTIVE_ROTOR_COUNT>
5.6

> <PUBCHEM_PHARMACOPHORE_FEATURES>
8
1 2 acceptor
1 3 acceptor
1 4 acceptor
1 6 donor
5 1 5 7 9 11 rings
6 17 18 19 21 22 23 rings
6 20 24 25 26 27 28 rings
6 8 12 13 14 15 16 rings

> <PUBCHEM_HEAVY_ATOM_COUNT>
28

> <PUBCHEM_ATOM_DEF_STEREO_COUNT>
0

> <PUBCHEM_ATOM_UDEF_STEREO_COUNT>
1

> <PUBCHEM_BOND_DEF_STEREO_COUNT>
0

> <PUBCHEM_BOND_UDEF_STEREO_COUNT>
0

> <PUBCHEM_ISOTOPIC_ATOM_COUNT>
0

> <PUBCHEM_COMPONENT_COUNT>
1

> <PUBCHEM_CACTVS_TAUTO_COUNT>
1

> <PUBCHEM_CONFORMER_ID>
032D40EB00000001

> <PUBCHEM_MMFF94_ENERGY>
96.4427

> <PUBCHEM_FEATURE_SELFOVERLAP>
40.595

> <PUBCHEM_SHAPE_FINGERPRINT>
10483366 6 18262819414848907927
10940486 97 18342171185103155557
11045977 3 18187653552234935856
11135609 12 17986948562161200097
11374522 58 16478498718968896875
11513181 2 17972325276345277679
11552529 35 18336272309667435250
12156800 1 15470763588686784979
12553582 1 18192409915093400015
12712778 12 18411982468231908590
12990986 174 18338232661564273495
13140716 1 18264762174036675721
13911987 19 14907313391728902130
14020679 6 17314786511081941713
14114207 22 17342392009866300223
144659 178 18341610370122324668
14659021 117 18338530654974499603
14844126 61 18410292523524061443
14866123 147 18409164412347540091
152267 14 18046350734219399295
15250474 111 18270131230960129362
15484559 13 13890144434390978126
16120349 306 18052818332438835075
17349148 13 17131539652870994144
17909252 39 17981878653752543498
19315092 285 16445891692165748911
20511986 3 17988371471830907056
20775438 99 16822522674289547687
20775530 9 18128827335060028291
21304303 282 13541091054959832046
23559900 14 18337123262916800017
23728640 28 18338510945854731923
3178227 256 18266162003117222209
3383291 50 18411697691264527043
392239 28 18410014317223165520
4073 2 18410011074749800986
4280585 95 18271540718682177168
445580 42 18272081704325918787
4616759 239 18041576831441524992
5104073 3 18334866064893031544
5326457 24 18131066018085244046
6431902 208 18341614750847171914

> <PUBCHEM_SHAPE_MULTIPOLES>
542.79
11.71
4.64
1.34
16.37
1.43
0.48
6.74
-1.62
-6.23
-0.76
-0.13
0.15
-0.84

> <PUBCHEM_SHAPE_SELFOVERLAP>
1200.412

> <PUBCHEM_SHAPE_VOLUME>
290.3

> <PUBCHEM_COORDINATE_TYPE>
2
5
10

$$$$

