4035
  -OEChem-06251223492D

 54 57  0     1  0  0  0  0  0999 V2000
   10.5194   -2.0023    0.0000 Cl  0  0  0  0  0  0  0  0  0  0  0  0
    6.0678    1.5754    0.0000 O   0  0  0  0  0  0  0  0  0  0  0  0
    6.9338   -1.9246    0.0000 O   0  0  0  0  0  0  0  0  0  0  0  0
    6.9338    2.0754    0.0000 O   0  0  0  0  0  0  0  0  0  0  0  0
    4.6839    1.9818    0.0000 O   0  0  0  0  0  0  0  0  0  0  0  0
    3.4037   -0.9488    0.0000 O   0  0  0  0  0  0  0  0  0  0  0  0
    8.6822    2.1100    0.0000 O   0  0  0  0  0  0  0  0  0  0  0  0
    3.4075    2.0995    0.0000 O   0  0  0  0  0  0  0  0  0  0  0  0
   10.5194    2.1530    0.0000 O   0  0  0  0  0  0  0  0  0  0  0  0
    5.1854   -1.9592    0.0000 N   0  0  0  0  0  0  0  0  0  0  0  0
    2.5357    0.6029    0.0000 N   0  0  0  0  0  0  0  0  0  0  0  0
    6.0678   -0.4246    0.0000 C   0  0  3  0  0  0  0  0  0  0  0  0
    6.0678    0.5754    0.0000 C   0  0  3  0  0  0  0  0  0  0  0  0
    6.9338   -0.9246    0.0000 C   0  0  3  0  0  0  0  0  0  0  0  0
    7.7998   -0.4246    0.0000 C   0  0  3  0  0  0  0  0  0  0  0  0
    5.1738   -0.9593    0.0000 C   0  0  3  0  0  0  0  0  0  0  0  0
    7.7998    0.5754    0.0000 C   0  0  0  0  0  0  0  0  0  0  0  0
    6.9338    1.0754    0.0000 C   0  0  0  0  0  0  0  0  0  0  0  0
    5.1738    1.1100    0.0000 C   0  0  0  0  0  0  0  0  0  0  0  0
    4.2678   -0.4455    0.0000 C   0  0  0  0  0  0  0  0  0  0  0  0
    8.6938   -0.9593    0.0000 C   0  0  0  0  0  0  0  0  0  0  0  0
    4.2678    0.5962    0.0000 C   0  0  0  0  0  0  0  0  0  0  0  0
    8.6938    1.1100    0.0000 C   0  0  0  0  0  0  0  0  0  0  0  0
    9.5998   -0.4455    0.0000 C   0  0  0  0  0  0  0  0  0  0  0  0
    9.5998    0.5962    0.0000 C   0  0  0  0  0  0  0  0  0  0  0  0
    4.3252   -2.4692    0.0000 C   0  0  0  0  0  0  0  0  0  0  0  0
    6.0572   -2.4492    0.0000 C   0  0  0  0  0  0  0  0  0  0  0  0
    8.6822   -1.9592    0.0000 C   0  0  0  0  0  0  0  0  0  0  0  0
    3.4037    1.0995    0.0000 C   0  0  0  0  0  0  0  0  0  0  0  0
   10.5310   -1.0024    0.0000 C   0  0  0  0  0  0  0  0  0  0  0  0
   10.5310    1.1531    0.0000 C   0  0  0  0  0  0  0  0  0  0  0  0
   11.4748   -0.4671    0.0000 C   0  0  0  0  0  0  0  0  0  0  0  0
   11.4748    0.6179    0.0000 C   0  0  0  0  0  0  0  0  0  0  0  0
    6.0726   -1.0446    0.0000 H   0  0  0  0  0  0  0  0  0  0  0  0
    6.3969   -1.2346    0.0000 H   0  0  0  0  0  0  0  0  0  0  0  0
    7.7950   -1.0446    0.0000 H   0  0  0  0  0  0  0  0  0  0  0  0
    5.7149   -1.2620    0.0000 H   0  0  0  0  0  0  0  0  0  0  0  0
    5.7578    2.1123    0.0000 H   0  0  0  0  0  0  0  0  0  0  0  0
    7.4707   -2.2346    0.0000 H   0  0  0  0  0  0  0  0  0  0  0  0
    4.0090   -1.9359    0.0000 H   0  0  0  0  0  0  0  0  0  0  0  0
    5.7534   -2.9897    0.0000 H   0  0  0  0  0  0  0  0  0  0  0  0
    6.5976   -2.7530    0.0000 H   0  0  0  0  0  0  0  0  0  0  0  0
    6.3609   -1.9087    0.0000 H   0  0  0  0  0  0  0  0  0  0  0  0
    3.7919   -2.7854    0.0000 H   0  0  0  0  0  0  0  0  0  0  0  0
    4.6414   -3.0025    0.0000 H   0  0  0  0  0  0  0  0  0  0  0  0
    8.1417   -2.2630    0.0000 H   0  0  0  0  0  0  0  0  0  0  0  0
    9.2155   -2.2754    0.0000 H   0  0  0  0  0  0  0  0  0  0  0  0
    9.2155    2.4261    0.0000 H   0  0  0  0  0  0  0  0  0  0  0  0
   12.0105   -0.7792    0.0000 H   0  0  0  0  0  0  0  0  0  0  0  0
   12.0105    0.9299    0.0000 H   0  0  0  0  0  0  0  0  0  0  0  0
    2.0000    0.9149    0.0000 H   0  0  0  0  0  0  0  0  0  0  0  0
    2.5334   -0.0171    0.0000 H   0  0  0  0  0  0  0  0  0  0  0  0
    2.8718    2.4116    0.0000 H   0  0  0  0  0  0  0  0  0  0  0  0
   11.0528    2.4692    0.0000 H   0  0  0  0  0  0  0  0  0  0  0  0
  1 30  1  0  0  0  0
  2 13  1  0  0  0  0
  2 38  1  0  0  0  0
  3 14  1  0  0  0  0
  3 39  1  0  0  0  0
  4 18  2  0  0  0  0
  5 19  2  0  0  0  0
  6 20  2  0  0  0  0
  7 23  1  0  0  0  0
  7 48  1  0  0  0  0
  8 29  1  0  0  0  0
  8 53  1  0  0  0  0
  9 31  1  0  0  0  0
  9 54  1  0  0  0  0
 10 16  1  0  0  0  0
 10 26  1  0  0  0  0
 10 27  1  0  0  0  0
 11 29  1  0  0  0  0
 11 51  1  0  0  0  0
 11 52  1  0  0  0  0
 12 13  1  0  0  0  0
 12 14  1  0  0  0  0
 12 16  1  0  0  0  0
 12 34  1  0  0  0  0
 13 18  1  0  0  0  0
 13 19  1  0  0  0  0
 14 15  1  0  0  0  0
 14 35  1  0  0  0  0
 15 17  1  0  0  0  0
 15 21  1  0  0  0  0
 15 36  1  0  0  0  0
 16 20  1  0  0  0  0
 16 37  1  0  0  0  0
 17 18  1  0  0  0  0
 17 23  2  0  0  0  0
 19 22  1  0  0  0  0
 20 22  1  0  0  0  0
 21 24  1  0  0  0  0
 21 28  2  0  0  0  0
 22 29  2  3  0  0  0
 23 25  1  0  0  0  0
 24 25  1  0  0  0  0
 24 30  2  0  0  0  0
 25 31  2  0  0  0  0
 26 40  1  0  0  0  0
 26 44  1  0  0  0  0
 26 45  1  0  0  0  0
 27 41  1  0  0  0  0
 27 42  1  0  0  0  0
 27 43  1  0  0  0  0
 28 46  1  0  0  0  0
 28 47  1  0  0  0  0
 30 32  1  0  0  0  0
 31 33  1  0  0  0  0
 32 33  2  0  0  0  0
 32 49  1  0  0  0  0
 33 50  1  0  0  0  0
M  END
> <PUBCHEM_COMPOUND_CID>
4035

> <PUBCHEM_COMPOUND_CANONICALIZED>
1

> <PUBCHEM_CACTVS_COMPLEXITY>
1040

> <PUBCHEM_CACTVS_HBOND_ACCEPTOR>
10

> <PUBCHEM_CACTVS_HBOND_DONOR>
6

> <PUBCHEM_CACTVS_ROTATABLE_BOND>
1

> <PUBCHEM_CACTVS_SUBSKEYS>
AAADceB7PAAEAAAAAAAAAAAAAAAAAAAAAAAwYMEAAAAAAADBAAAAHgIQCAAADX7hmCYyBoNAAgCIAqBSQAICAAAgJQAIiAHOCskINzKLkzKEcAAnwBEImUee+veugCABIAAZAADAQAbUADYAAAAAAAAAAA==

> <PUBCHEM_IUPAC_OPENEYE_NAME>
2-[amino(hydroxy)methylene]-7-chloro-4-(dimethylamino)-5,10,11,12a-tetrahydroxy-6-methylene-4,4a,5,5a-tetrahydrotetracene-1,3,12-trione

> <PUBCHEM_IUPAC_CAS_NAME>
2-[amino(hydroxy)methylidene]-7-chloro-4-(dimethylamino)-5,10,11,12a-tetrahydroxy-6-methylene-4,4a,5,5a-tetrahydrotetracene-1,3,12-trione

> <PUBCHEM_IUPAC_NAME>
2-[amino(hydroxy)methylidene]-7-chloro-4-(dimethylamino)-5,10,11,12a-tetrahydroxy-6-methylidene-4,4a,5,5a-tetrahydrotetracene-1,3,12-trione

> <PUBCHEM_IUPAC_SYSTEMATIC_NAME>
2-[azanyl(oxidanyl)methylidene]-7-chloranyl-4-(dimethylamino)-6-methylidene-5,10,11,12a-tetrakis(oxidanyl)-4,4a,5,5a-tetrahydrotetracene-1,3,12-trione

> <PUBCHEM_IUPAC_TRADITIONAL_NAME>
2-[amino(hydroxy)methylene]-7-chloro-4-(dimethylamino)-5,10,11,12a-tetrahydroxy-6-methylene-4,4a,5,5a-tetrahydrotetracene-1,3,12-trione

> <PUBCHEM_IUPAC_INCHI>
InChI=1S/C22H21ClN2O8/c1-6-9-7(23)4-5-8(26)11(9)16(27)12-10(6)17(28)14-15(25(2)3)18(29)13(21(24)32)20(31)22(14,33)19(12)30/h4-5,10,14-15,17,26-28,32-33H,1,24H2,2-3H3

> <PUBCHEM_IUPAC_INCHIKEY>
SEPIRJBAIBYOSG-UHFFFAOYSA-N

> <PUBCHEM_XLOGP3>
0.4

> <PUBCHEM_EXACT_MASS>
476.098643

> <PUBCHEM_MOLECULAR_FORMULA>
C22H21ClN2O8

> <PUBCHEM_MOLECULAR_WEIGHT>
476.86374

> <PUBCHEM_OPENEYE_CAN_SMILES>
CN(C)C1C2C(C3C(=C)C4=C(C=CC(=C4C(=C3C(=O)C2(C(=O)C(=C(N)O)C1=O)O)O)O)Cl)O

> <PUBCHEM_OPENEYE_ISO_SMILES>
CN(C)C1C2C(C3C(=C)C4=C(C=CC(=C4C(=C3C(=O)C2(C(=O)C(=C(N)O)C1=O)O)O)O)Cl)O

> <PUBCHEM_CACTVS_TPSA>
182

> <PUBCHEM_MONOISOTOPIC_WEIGHT>
476.098643

> <PUBCHEM_TOTAL_CHARGE>
0

> <PUBCHEM_HEAVY_ATOM_COUNT>
33

> <PUBCHEM_ATOM_DEF_STEREO_COUNT>
0

> <PUBCHEM_ATOM_UDEF_STEREO_COUNT>
5

> <PUBCHEM_BOND_DEF_STEREO_COUNT>
0

> <PUBCHEM_BOND_UDEF_STEREO_COUNT>
1

> <PUBCHEM_ISOTOPIC_ATOM_COUNT>
0

> <PUBCHEM_COMPONENT_COUNT>
1

> <PUBCHEM_CACTVS_TAUTO_COUNT>
132

> <PUBCHEM_COORDINATE_TYPE>
1
5
255

> <PUBCHEM_BONDANNOTATIONS>
16  10  3
12  14  3
15  21  3
13  2  3
22  29  1
24  25  8
24  30  8
25  31  8
14  3  3
30  32  8
31  33  8
32  33  8

$$$$

