54675782
  -OEChem-07051212522D

 47 50  0     1  0  0  0  0  0999 V2000
    6.0678    1.4785    0.0000 O   0  0  0  0  0  0  0  0  0  0  0  0
    4.8427    1.9567    0.0000 O   0  0  0  0  0  0  0  0  0  0  0  0
    6.9338    1.9785    0.0000 O   0  0  0  0  0  0  0  0  0  0  0  0
    3.4037   -1.0457    0.0000 O   0  0  0  0  0  0  0  0  0  0  0  0
    8.6822    2.0131    0.0000 O   0  0  0  0  0  0  0  0  0  0  0  0
    3.4075    2.0026    0.0000 O   0  0  0  0  0  0  0  0  0  0  0  0
   10.5194    2.0561    0.0000 O   0  0  0  0  0  0  0  0  0  0  0  0
    5.1854   -2.0561    0.0000 N   0  0  0  0  0  0  0  0  0  0  0  0
    2.5357    0.5060    0.0000 N   0  0  0  0  0  0  0  0  0  0  0  0
    6.0678   -0.5215    0.0000 C   0  0  1  0  0  0  0  0  0  0  0  0
    6.0678    0.4785    0.0000 C   0  0  1  0  0  0  0  0  0  0  0  0
    6.9338   -1.0215    0.0000 C   0  0  0  0  0  0  0  0  0  0  0  0
    5.1738   -1.0562    0.0000 C   0  0  1  0  0  0  0  0  0  0  0  0
    7.7998   -0.5215    0.0000 C   0  0  0  0  0  0  0  0  0  0  0  0
    6.9338    0.9785    0.0000 C   0  0  0  0  0  0  0  0  0  0  0  0
    7.7998    0.4785    0.0000 C   0  0  0  0  0  0  0  0  0  0  0  0
    5.1738    1.0131    0.0000 C   0  0  0  0  0  0  0  0  0  0  0  0
    4.2678   -0.5424    0.0000 C   0  0  0  0  0  0  0  0  0  0  0  0
    4.2678    0.4993    0.0000 C   0  0  0  0  0  0  0  0  0  0  0  0
    8.6938   -1.0562    0.0000 C   0  0  0  0  0  0  0  0  0  0  0  0
    8.6938    1.0131    0.0000 C   0  0  0  0  0  0  0  0  0  0  0  0
    9.5998   -0.5424    0.0000 C   0  0  0  0  0  0  0  0  0  0  0  0
    9.5998    0.4993    0.0000 C   0  0  0  0  0  0  0  0  0  0  0  0
    8.6822   -2.0561    0.0000 C   0  0  0  0  0  0  0  0  0  0  0  0
    3.4037    1.0026    0.0000 C   0  0  0  0  0  0  0  0  0  0  0  0
   10.5310   -1.0993    0.0000 C   0  0  0  0  0  0  0  0  0  0  0  0
   10.5310    1.0562    0.0000 C   0  0  0  0  0  0  0  0  0  0  0  0
   11.4748   -0.5640    0.0000 C   0  0  0  0  0  0  0  0  0  0  0  0
   11.4748    0.5210    0.0000 C   0  0  0  0  0  0  0  0  0  0  0  0
    6.0743   -1.3715    0.0000 H   0  0  0  0  0  0  0  0  0  0  0  0
    6.5353   -1.4965    0.0000 H   0  0  0  0  0  0  0  0  0  0  0  0
    7.3323   -1.4965    0.0000 H   0  0  0  0  0  0  0  0  0  0  0  0
    5.7149   -1.3589    0.0000 H   0  0  0  0  0  0  0  0  0  0  0  0
    5.6693    1.9534    0.0000 H   0  0  0  0  0  0  0  0  0  0  0  0
    4.6521   -2.3723    0.0000 H   0  0  0  0  0  0  0  0  0  0  0  0
    5.7259   -2.3599    0.0000 H   0  0  0  0  0  0  0  0  0  0  0  0
    8.0622   -2.0490    0.0000 H   0  0  0  0  0  0  0  0  0  0  0  0
    8.6750   -2.6761    0.0000 H   0  0  0  0  0  0  0  0  0  0  0  0
    9.3022   -2.0633    0.0000 H   0  0  0  0  0  0  0  0  0  0  0  0
    4.2334    2.0714    0.0000 H   0  0  0  0  0  0  0  0  0  0  0  0
   10.5238   -1.7192    0.0000 H   0  0  0  0  0  0  0  0  0  0  0  0
    9.2155    2.3292    0.0000 H   0  0  0  0  0  0  0  0  0  0  0  0
   12.0105   -0.8761    0.0000 H   0  0  0  0  0  0  0  0  0  0  0  0
   12.0105    0.8330    0.0000 H   0  0  0  0  0  0  0  0  0  0  0  0
    2.0000    0.8180    0.0000 H   0  0  0  0  0  0  0  0  0  0  0  0
    2.5334   -0.1140    0.0000 H   0  0  0  0  0  0  0  0  0  0  0  0
   11.0528    2.3723    0.0000 H   0  0  0  0  0  0  0  0  0  0  0  0
 11  1  1  6  0  0  0
  1 34  1  0  0  0  0
  2 17  1  0  0  0  0
  2 40  1  0  0  0  0
  3 15  2  0  0  0  0
  4 18  2  0  0  0  0
  5 21  1  0  0  0  0
  5 42  1  0  0  0  0
  6 25  2  0  0  0  0
  7 27  1  0  0  0  0
  7 47  1  0  0  0  0
 13  8  1  6  0  0  0
  8 35  1  0  0  0  0
  8 36  1  0  0  0  0
  9 25  1  0  0  0  0
  9 45  1  0  0  0  0
  9 46  1  0  0  0  0
 10 11  1  0  0  0  0
 10 12  1  0  0  0  0
 10 13  1  0  0  0  0
 10 30  1  6  0  0  0
 11 15  1  0  0  0  0
 11 17  1  0  0  0  0
 12 14  1  0  0  0  0
 12 31  1  0  0  0  0
 12 32  1  0  0  0  0
 13 18  1  0  0  0  0
 13 33  1  0  0  0  0
 14 16  2  0  0  0  0
 14 20  1  0  0  0  0
 15 16  1  0  0  0  0
 16 21  1  0  0  0  0
 17 19  2  0  0  0  0
 18 19  1  0  0  0  0
 19 25  1  0  0  0  0
 20 22  2  0  0  0  0
 20 24  1  0  0  0  0
 21 23  2  0  0  0  0
 22 23  1  0  0  0  0
 22 26  1  0  0  0  0
 23 27  1  0  0  0  0
 24 37  1  0  0  0  0
 24 38  1  0  0  0  0
 24 39  1  0  0  0  0
 26 28  2  0  0  0  0
 26 41  1  0  0  0  0
 27 29  2  0  0  0  0
 28 29  1  0  0  0  0
 28 43  1  0  0  0  0
 29 44  1  0  0  0  0
M  END
> <PUBCHEM_COMPOUND_CID>
54675782

> <PUBCHEM_COMPOUND_CANONICALIZED>
1

> <PUBCHEM_CACTVS_COMPLEXITY>
811

> <PUBCHEM_CACTVS_HBOND_ACCEPTOR>
8

> <PUBCHEM_CACTVS_HBOND_DONOR>
6

> <PUBCHEM_CACTVS_ROTATABLE_BOND>
1

> <PUBCHEM_CACTVS_SUBSKEYS>
AAADceB7OAAAAAAAAAAAAAAAAAAAAAAAAAAwYMEAAAAAAADBUAAAHgAQCAAADWzBmAQyBsBAAgCIAqFSEAKCAAAkIAAIiIHGCMgJJz6KlRKAcUAn8BUJmQf+7vTu4AADAAAYAADAAAYAADAAAAAAAAAAAA==

> <PUBCHEM_IUPAC_OPENEYE_NAME>
(4S,4aS,12aR)-4-amino-1,10,11,12a-tetrahydroxy-6-methyl-3,12-dioxo-4a,5-dihydro-4H-tetracene-2-carboxamide

> <PUBCHEM_IUPAC_CAS_NAME>
(4S,4aS,12aR)-4-amino-1,10,11,12a-tetrahydroxy-6-methyl-3,12-dioxo-4a,5-dihydro-4H-tetracene-2-carboxamide

> <PUBCHEM_IUPAC_NAME>
(4S,4aS,12aR)-4-amino-1,10,11,12a-tetrahydroxy-6-methyl-3,12-dioxo-4a,5-dihydro-4H-tetracene-2-carboxamide

> <PUBCHEM_IUPAC_SYSTEMATIC_NAME>
(4S,4aS,12aR)-4-azanyl-6-methyl-1,10,11,12a-tetrakis(oxidanyl)-3,12-bis(oxidanylidene)-4a,5-dihydro-4H-tetracene-2-carboxamide

> <PUBCHEM_IUPAC_TRADITIONAL_NAME>
(4S,4aS,12aR)-4-amino-1,10,11,12a-tetrahydroxy-3,12-diketo-6-methyl-4a,5-dihydro-4H-tetracene-2-carboxamide

> <PUBCHEM_IUPAC_INCHI>
InChI=1S/C20H18N2O7/c1-6-7-3-2-4-10(23)11(7)15(24)12-8(6)5-9-14(21)16(25)13(19(22)28)18(27)20(9,29)17(12)26/h2-4,9,14,23-24,27,29H,5,21H2,1H3,(H2,22,28)/t9-,14-,20-/m0/s1

> <PUBCHEM_IUPAC_INCHIKEY>
IBTVIYOZSFOEBW-OWYOPICZSA-N

> <PUBCHEM_XLOGP3_AA>
1.4

> <PUBCHEM_EXACT_MASS>
398.111401

> <PUBCHEM_MOLECULAR_FORMULA>
C20H18N2O7

> <PUBCHEM_MOLECULAR_WEIGHT>
398.36612

> <PUBCHEM_OPENEYE_CAN_SMILES>
CC1=C2CC3C(C(=O)C(=C(C3(C(=O)C2=C(C4=C1C=CC=C4O)O)O)O)C(=O)N)N

> <PUBCHEM_OPENEYE_ISO_SMILES>
CC1=C2C[C@H]3[C@@H](C(=O)C(=C([C@]3(C(=O)C2=C(C4=C1C=CC=C4O)O)O)O)C(=O)N)N

> <PUBCHEM_CACTVS_TPSA>
184

> <PUBCHEM_MONOISOTOPIC_WEIGHT>
398.111401

> <PUBCHEM_TOTAL_CHARGE>
0

> <PUBCHEM_HEAVY_ATOM_COUNT>
29

> <PUBCHEM_ATOM_DEF_STEREO_COUNT>
3

> <PUBCHEM_ATOM_UDEF_STEREO_COUNT>
0

> <PUBCHEM_BOND_DEF_STEREO_COUNT>
0

> <PUBCHEM_BOND_UDEF_STEREO_COUNT>
0

> <PUBCHEM_ISOTOPIC_ATOM_COUNT>
0

> <PUBCHEM_COMPONENT_COUNT>
1

> <PUBCHEM_CACTVS_TAUTO_COUNT>
999

> <PUBCHEM_COORDINATE_TYPE>
1
5
255

> <PUBCHEM_BONDANNOTATIONS>
11  1  6
10  30  6
14  16  8
14  20  8
16  21  8
20  22  8
21  23  8
22  23  8
22  26  8
23  27  8
26  28  8
27  29  8
28  29  8
13  8  6

$$$$

