11440
  -OEChem-06261205403D

 28 28  0     0  0  0  0  0  0999 V2000
    2.2244   -2.2140   -0.0690 O   0  0  0  0  0  0  0  0  0  0  0  0
   -2.0849    2.2796   -0.5380 O   0  0  0  0  0  0  0  0  0  0  0  0
   -3.4172    0.7734    0.5217 O   0  0  0  0  0  0  0  0  0  0  0  0
    2.6039    0.6152    0.0530 C   0  0  0  0  0  0  0  0  0  0  0  0
    1.2547   -0.0233    0.0165 C   0  0  0  0  0  0  0  0  0  0  0  0
    0.1174    0.7840    0.0430 C   0  0  0  0  0  0  0  0  0  0  0  0
    1.1239   -1.4107   -0.0429 C   0  0  0  0  0  0  0  0  0  0  0  0
    2.8424    1.4102    1.3498 C   0  0  0  0  0  0  0  0  0  0  0  0
    2.8601    1.5168   -1.1687 C   0  0  0  0  0  0  0  0  0  0  0  0
   -1.1506    0.2038    0.0097 C   0  0  0  0  0  0  0  0  0  0  0  0
   -1.2814   -1.1837   -0.0497 C   0  0  0  0  0  0  0  0  0  0  0  0
   -0.1441   -1.9909   -0.0760 C   0  0  0  0  0  0  0  0  0  0  0  0
   -2.6273   -1.8307   -0.0874 C   0  0  0  0  0  0  0  0  0  0  0  0
   -2.3214    1.0701    0.0379 C   0  0  0  0  0  0  0  0  0  0  0  0
    3.3991   -0.1365    0.0399 H   0  0  0  0  0  0  0  0  0  0  0  0
    0.2275    1.8637    0.1032 H   0  0  0  0  0  0  0  0  0  0  0  0
    2.1710    2.2714    1.4343 H   0  0  0  0  0  0  0  0  0  0  0  0
    3.8703    1.7876    1.3856 H   0  0  0  0  0  0  0  0  0  0  0  0
    2.6870    0.7756    2.2294 H   0  0  0  0  0  0  0  0  0  0  0  0
    2.7225    0.9568   -2.1004 H   0  0  0  0  0  0  0  0  0  0  0  0
    3.8867    1.8989   -1.1554 H   0  0  0  0  0  0  0  0  0  0  0  0
    2.1859    2.3796   -1.1924 H   0  0  0  0  0  0  0  0  0  0  0  0
   -0.2347   -3.0736   -0.1210 H   0  0  0  0  0  0  0  0  0  0  0  0
   -2.5476   -2.9032   -0.2997 H   0  0  0  0  0  0  0  0  0  0  0  0
   -3.1320   -1.7326    0.8790 H   0  0  0  0  0  0  0  0  0  0  0  0
   -3.2490   -1.4066   -0.8828 H   0  0  0  0  0  0  0  0  0  0  0  0
    2.8740   -1.8358   -0.6845 H   0  0  0  0  0  0  0  0  0  0  0  0
   -2.8779    2.8568   -0.5139 H   0  0  0  0  0  0  0  0  0  0  0  0
  1  7  1  0  0  0  0
  1 27  1  0  0  0  0
  2 14  1  0  0  0  0
  2 28  1  0  0  0  0
  3 14  2  0  0  0  0
  4  5  1  0  0  0  0
  4  8  1  0  0  0  0
  4  9  1  0  0  0  0
  4 15  1  0  0  0  0
  5  6  1  0  0  0  0
  5  7  2  0  0  0  0
  6 10  2  0  0  0  0
  6 16  1  0  0  0  0
  7 12  1  0  0  0  0
  8 17  1  0  0  0  0
  8 18  1  0  0  0  0
  8 19  1  0  0  0  0
  9 20  1  0  0  0  0
  9 21  1  0  0  0  0
  9 22  1  0  0  0  0
 10 11  1  0  0  0  0
 10 14  1  0  0  0  0
 11 12  2  0  0  0  0
 11 13  1  0  0  0  0
 12 23  1  0  0  0  0
 13 24  1  0  0  0  0
 13 25  1  0  0  0  0
 13 26  1  0  0  0  0
M  END
> <PUBCHEM_COMPOUND_CID>
11440

> <PUBCHEM_CONFORMER_RMSD>
0.6

> <PUBCHEM_CONFORMER_DIVERSEORDER>
1

> <PUBCHEM_MMFF94_PARTIAL_CHARGES>
16
1 -0.53
10 0.09
11 -0.14
12 -0.15
13 0.14
14 0.63
16 0.15
2 -0.65
23 0.15
27 0.45
28 0.5
3 -0.57
4 0.14
5 -0.14
6 -0.15
7 0.08

> <PUBCHEM_EFFECTIVE_ROTOR_COUNT>
2

> <PUBCHEM_PHARMACOPHORE_FEATURES>
6
1 1 donor
1 2 acceptor
1 3 acceptor
3 2 3 14 anion
3 4 8 9 hydrophobe
6 5 6 7 10 11 12 rings

> <PUBCHEM_HEAVY_ATOM_COUNT>
14

> <PUBCHEM_ATOM_DEF_STEREO_COUNT>
0

> <PUBCHEM_ATOM_UDEF_STEREO_COUNT>
0

> <PUBCHEM_BOND_DEF_STEREO_COUNT>
0

> <PUBCHEM_BOND_UDEF_STEREO_COUNT>
0

> <PUBCHEM_ISOTOPIC_ATOM_COUNT>
0

> <PUBCHEM_COMPONENT_COUNT>
1

> <PUBCHEM_CACTVS_TAUTO_COUNT>
12

> <PUBCHEM_CONFORMER_ID>
00002CB000000001

> <PUBCHEM_MMFF94_ENERGY>
44.0982

> <PUBCHEM_FEATURE_SELFOVERLAP>
30.503

> <PUBCHEM_SHAPE_FINGERPRINT>
10608611 8 18409452517703813473
10967382 1 18338516451285282869
11132069 177 18337675209179287401
11206711 2 18264209110612647373
12932764 1 17894908473548505886
13140716 1 18337674216883833571
13380535 21 18336815451052352275
13380535 76 18410580582290075443
14614273 12 18340784640847248165
14648413 74 18338795744482333034
14897335 6 18408893944517063663
15279308 100 18196089073777256918
15490181 7 18198069281671810291
15775835 57 18336256890423645201
16945 1 18193839232352919078
193761 8 18410576214287418295
20510252 161 18117555120044689232
20511035 2 18335430118083627358
20525323 117 18337964367688992603
20671657 1 18338790225707489188
21501502 16 18410012143389678743
21524375 3 18408887342920422498
22344851 341 18412550937239508746
2334 1 18410293592585977663
23402539 116 17974023751089244030
23419403 2 16315052398061213296
23463225 33 18343025480136450466
23552423 10 18342457062347179134
23559900 14 18186792562417815988
2748010 2 18410289228925552863
3071541 158 18052252088182226326
5255222 1 18408605863791247385
53812653 166 18260268521015700672
53812653 8 18125715686914032070
6333449 129 18335144137601541185
7364860 26 18188772872172778942
81228 2 17903923257652305146

> <PUBCHEM_SHAPE_MULTIPOLES>
270.51
4.89
2.45
0.87
0.22
0.52
-0.05
-1.75
-0.27
-0.54
0.2
0.65
-0.33
0.02

> <PUBCHEM_SHAPE_SELFOVERLAP>
564.456

> <PUBCHEM_SHAPE_VOLUME>
154.8

> <PUBCHEM_COORDINATE_TYPE>
2
5
10

$$$$

