15519420
  -OEChem-07051213033D

 59 61  0     1  0  0  0  0  0999 V2000
   -0.2838   -3.5764   -0.7674 P   0  0  2  0  0  0  0  0  0  0  0  0
   -2.5414   -1.7968   -1.3948 P   0  0  1  0  0  0  0  0  0  0  0  0
    3.2341   -1.3615    0.3837 O   0  0  0  0  0  0  0  0  0  0  0  0
    3.9626   -1.5208    3.3528 O   0  0  0  0  0  0  0  0  0  0  0  0
    1.1459   -3.1606   -0.1348 O   0  0  0  0  0  0  0  0  0  0  0  0
   -1.6576    0.7993    0.9872 O   0  0  0  0  0  0  0  0  0  0  0  0
   -2.8371   -0.3583   -0.7223 O   0  0  0  0  0  0  0  0  0  0  0  0
   -1.0290   -2.1535   -0.9487 O   0  0  0  0  0  0  0  0  0  0  0  0
    4.5778    2.5428    0.2570 O   0  0  0  0  0  0  0  0  0  0  0  0
   -3.4842    3.6875    1.5579 O   0  0  0  0  0  0  0  0  0  0  0  0
   -1.0774   -4.2471    0.4723 O   0  0  0  0  0  0  0  0  0  0  0  0
   -0.2266   -4.4143   -2.0111 O   0  0  0  0  0  0  0  0  0  0  0  0
   -3.4357   -2.8375   -0.5380 O   0  0  0  0  0  0  0  0  0  0  0  0
    1.5181    3.3378   -3.0828 O   0  0  0  0  0  0  0  0  0  0  0  0
   -2.7754   -1.8530   -2.8767 O   0  0  0  0  0  0  0  0  0  0  0  0
    2.9854    0.8942   -0.1861 N   0  0  0  0  0  0  0  0  0  0  0  0
    3.0452    2.9266   -1.4055 N   0  0  0  0  0  0  0  0  0  0  0  0
   -5.6092    2.0126    1.6643 N   0  0  0  0  0  0  0  0  0  0  0  0
    2.7256   -1.2511    2.6967 C   0  0  2  0  0  0  0  0  0  0  0  0
    2.6061   -2.1077    1.4441 C   0  0  1  0  0  0  0  0  0  0  0  0
    2.7363    0.1571    2.1485 C   0  0  0  0  0  0  0  0  0  0  0  0
    3.4550   -0.0128    0.8200 C   0  0  1  0  0  0  0  0  0  0  0  0
    1.1609   -2.3693    1.0404 C   0  0  0  0  0  0  0  0  0  0  0  0
   -3.9786    0.1910    1.3401 C   0  0  0  0  0  0  0  0  0  0  0  0
   -4.4517    1.5738    0.8919 C   0  0  2  0  0  0  0  0  0  0  0  0
    1.8957    0.5175   -0.9607 C   0  0  0  0  0  0  0  0  0  0  0  0
   -2.6514   -0.1801    0.6776 C   0  0  2  0  0  0  0  0  0  0  0  0
    3.6084    2.1439   -0.3916 C   0  0  0  0  0  0  0  0  0  0  0  0
   -1.9687    2.1091    0.5285 C   0  0  1  0  0  0  0  0  0  0  0  0
   -3.3176    2.5658    1.0815 C   0  0  0  0  0  0  0  0  0  0  0  0
    1.3593    1.2689   -1.9301 C   0  0  0  0  0  0  0  0  0  0  0  0
    1.9617    2.6002   -2.2068 C   0  0  0  0  0  0  0  0  0  0  0  0
   -0.8380    3.0283    0.9655 C   0  0  0  0  0  0  0  0  0  0  0  0
    0.1854    0.8443   -2.7526 C   0  0  0  0  0  0  0  0  0  0  0  0
    1.9241   -1.4166    3.4229 H   0  0  0  0  0  0  0  0  0  0  0  0
    3.1486   -3.0556    1.5303 H   0  0  0  0  0  0  0  0  0  0  0  0
    3.2471    0.8803    2.7920 H   0  0  0  0  0  0  0  0  0  0  0  0
    1.7067    0.5045    1.9991 H   0  0  0  0  0  0  0  0  0  0  0  0
    4.5357    0.1128    0.9568 H   0  0  0  0  0  0  0  0  0  0  0  0
    0.6020   -1.4451    0.8764 H   0  0  0  0  0  0  0  0  0  0  0  0
    0.6676   -2.9216    1.8465 H   0  0  0  0  0  0  0  0  0  0  0  0
    3.9383   -2.4469    3.6485 H   0  0  0  0  0  0  0  0  0  0  0  0
   -4.7432   -0.5570    1.0990 H   0  0  0  0  0  0  0  0  0  0  0  0
   -3.8340    0.1921    2.4288 H   0  0  0  0  0  0  0  0  0  0  0  0
   -4.7117    1.5638   -0.1728 H   0  0  0  0  0  0  0  0  0  0  0  0
   -2.3008   -1.1184    1.1207 H   0  0  0  0  0  0  0  0  0  0  0  0
    1.4561   -0.4484   -0.7714 H   0  0  0  0  0  0  0  0  0  0  0  0
   -2.0286    2.1134   -0.5657 H   0  0  0  0  0  0  0  0  0  0  0  0
    3.4778    3.8311   -1.5717 H   0  0  0  0  0  0  0  0  0  0  0  0
   -0.9870    4.0487    0.5986 H   0  0  0  0  0  0  0  0  0  0  0  0
    0.1248    2.6613    0.5973 H   0  0  0  0  0  0  0  0  0  0  0  0
   -0.7641    3.0647    2.0585 H   0  0  0  0  0  0  0  0  0  0  0  0
   -5.9493    2.9006    1.2967 H   0  0  0  0  0  0  0  0  0  0  0  0
   -6.3710    1.3457    1.5472 H   0  0  0  0  0  0  0  0  0  0  0  0
    0.4395    0.8596   -3.8175 H   0  0  0  0  0  0  0  0  0  0  0  0
   -0.1390   -0.1709   -2.5097 H   0  0  0  0  0  0  0  0  0  0  0  0
   -0.6616    1.5174   -2.5887 H   0  0  0  0  0  0  0  0  0  0  0  0
   -1.2635   -3.7152    1.2747 H   0  0  0  0  0  0  0  0  0  0  0  0
   -3.5149   -3.7638   -0.8506 H   0  0  0  0  0  0  0  0  0  0  0  0
  1  5  1  0  0  0  0
  1  8  1  0  0  0  0
  1 11  1  0  0  0  0
  1 12  2  0  0  0  0
  2  7  1  0  0  0  0
  2  8  1  0  0  0  0
  2 13  1  0  0  0  0
  2 15  2  0  0  0  0
  3 20  1  0  0  0  0
  3 22  1  0  0  0  0
  4 19  1  0  0  0  0
  4 42  1  0  0  0  0
  5 23  1  0  0  0  0
  6 27  1  0  0  0  0
  6 29  1  0  0  0  0
  7 27  1  0  0  0  0
  9 28  2  0  0  0  0
 10 30  2  0  0  0  0
 11 58  1  0  0  0  0
 13 59  1  0  0  0  0
 14 32  2  0  0  0  0
 16 22  1  0  0  0  0
 16 26  1  0  0  0  0
 16 28  1  0  0  0  0
 17 28  1  0  0  0  0
 17 32  1  0  0  0  0
 17 49  1  0  0  0  0
 18 25  1  0  0  0  0
 18 53  1  0  0  0  0
 18 54  1  0  0  0  0
 19 20  1  0  0  0  0
 19 21  1  0  0  0  0
 19 35  1  0  0  0  0
 20 23  1  0  0  0  0
 20 36  1  0  0  0  0
 21 22  1  0  0  0  0
 21 37  1  0  0  0  0
 21 38  1  0  0  0  0
 22 39  1  0  0  0  0
 23 40  1  0  0  0  0
 23 41  1  0  0  0  0
 24 25  1  0  0  0  0
 24 27  1  0  0  0  0
 24 43  1  0  0  0  0
 24 44  1  0  0  0  0
 25 30  1  0  0  0  0
 25 45  1  0  0  0  0
 26 31  2  0  0  0  0
 26 47  1  0  0  0  0
 27 46  1  0  0  0  0
 29 30  1  0  0  0  0
 29 33  1  0  0  0  0
 29 48  1  0  0  0  0
 31 32  1  0  0  0  0
 31 34  1  0  0  0  0
 33 50  1  0  0  0  0
 33 51  1  0  0  0  0
 33 52  1  0  0  0  0
 34 55  1  0  0  0  0
 34 56  1  0  0  0  0
 34 57  1  0  0  0  0
M  END
> <PUBCHEM_COMPOUND_CID>
15519420

> <PUBCHEM_CONFORMER_RMSD>
1.4

> <PUBCHEM_CONFORMER_DIVERSEORDER>
1
177
154
246
187
69
169
79
40
91
87
68
212
207
151
24
121
205
100
216
46
171
86
198
65
144
67
136
138
213
52
57
178
238
35
76
23
237
21
81
18
176
28
192
60
161
122
109
56
59
230
111
117
8
95
165
19
48
156
227
92
54
37
51
41
71
184
222
224
188
47
96
33
195
218
93
130
226
215
32
219
196
163
241
61
185
172
155
26
88
233
7
74
89
62
66
29
235
9
3
134
119
248
38
78
43
232
107
199
217
103
247
164
2
141
191
118
160
116
244
243
186
120
58
90
126
104
112
170
193
182
99
36
189
125
105
64
82
114
209
214
42
190
94
162
80
102
179
45
231
249
83
152
135
157
31
131
240
85
194
239
167
98
139
174
197
147
113
181
208
223
129
202
25
63
201
73
206
168
228
234
106
84
173
150
220
148
123
27
110
55
127
72
97
204
143
53
236
145
200
4
229
221
140
158
30
128
34
124
10
75
137
49
16
242
211
175
17
183
50
225
44
142
101
115
15
245
153
70
132
20
210
39
159
203
149
166
180
146
133
14
13
11
5
77
108
6
12
22

> <PUBCHEM_MMFF94_PARTIAL_CHARGES>
38
1 1.51
10 -0.57
11 -0.77
12 -0.7
13 -0.77
14 -0.57
15 -0.7
16 -0.47
17 -0.49
18 -0.99
19 0.28
2 1.51
20 0.28
22 0.58
23 0.28
25 0.33
26 -0.04
27 0.56
28 0.69
29 0.34
3 -0.56
30 0.45
31 -0.12
32 0.62
34 0.14
4 -0.68
42 0.4
47 0.15
49 0.37
5 -0.55
53 0.36
54 0.36
58 0.5
59 0.5
6 -0.56
7 -0.55
8 -0.54
9 -0.57

> <PUBCHEM_EFFECTIVE_ROTOR_COUNT>
10

> <PUBCHEM_PHARMACOPHORE_FEATURES>
17
1 10 acceptor
1 11 acceptor
1 12 acceptor
1 13 acceptor
1 14 acceptor
1 15 acceptor
1 17 donor
1 18 cation
1 18 donor
1 3 acceptor
1 4 acceptor
1 4 donor
1 6 acceptor
1 9 acceptor
5 3 19 20 21 22 rings
6 16 17 26 28 31 32 rings
6 6 24 25 27 29 30 rings

> <PUBCHEM_HEAVY_ATOM_COUNT>
34

> <PUBCHEM_ATOM_DEF_STEREO_COUNT>
6

> <PUBCHEM_ATOM_UDEF_STEREO_COUNT>
0

> <PUBCHEM_BOND_DEF_STEREO_COUNT>
0

> <PUBCHEM_BOND_UDEF_STEREO_COUNT>
0

> <PUBCHEM_ISOTOPIC_ATOM_COUNT>
0

> <PUBCHEM_COMPONENT_COUNT>
1

> <PUBCHEM_CACTVS_TAUTO_COUNT>
15

> <PUBCHEM_CONFORMER_ID>
00ECCEBC00000001

> <PUBCHEM_MMFF94_ENERGY>
28.7338

> <PUBCHEM_FEATURE_SELFOVERLAP>
86.288

> <PUBCHEM_SHAPE_FINGERPRINT>
10032420 55 17759236302166867997
11513181 2 18113620101379268838
12539773 59 17978806613912119526
12788726 201 17761753097467351375
13009979 54 18051721874723418586
13965767 371 18342737437933412748
15274700 34 18201165459841290189
15297060 5 18041548196346260394
15420108 30 18341055194281683984
19319366 153 17770212761084712147
20511986 3 18341333305882731525
21860390 5 17914876858818100849
22149856 69 18042388297336160545
23559900 14 17759786440896548201
35225 105 17676494925344346252
50150288 127 16397679146427309573
5951187 136 15793426390842793369
6287921 2 18337668719236120986

> <PUBCHEM_SHAPE_MULTIPOLES>
616.16
8.23
5.54
3
4.37
2.72
-0.64
-4.81
4.96
0.6
-1.9
-1.42
-0.24
-4.73

> <PUBCHEM_SHAPE_SELFOVERLAP>
1254.892

> <PUBCHEM_SHAPE_VOLUME>
358.8

> <PUBCHEM_COORDINATE_TYPE>
2
5
10

$$$$

