47205559
  -OEChem-06241222593D

 29 29  0     0  0  0  0  0  0999 V2000
    4.5620    0.2558    0.0130 O   0  0  0  0  0  0  0  0  0  0  0  0
    2.1601    1.4811   -0.0313 O   0  0  0  0  0  0  0  0  0  0  0  0
   -1.4565   -0.7612   -0.0481 N   0  0  0  0  0  0  0  0  0  0  0  0
    3.3679   -0.4885   -0.0015 N   0  0  0  0  0  0  0  0  0  0  0  0
   -2.9901    0.9841   -0.0050 N   0  0  0  0  0  0  0  0  0  0  0  0
   -3.7126   -1.3148    0.0087 N   0  0  0  0  0  0  0  0  0  0  0  0
   -0.3321    0.1448   -0.0751 C   0  0  0  0  0  0  0  0  0  0  0  0
    0.9771   -0.6334   -0.0437 C   0  0  0  0  0  0  0  0  0  0  0  0
    2.2108    0.2542   -0.0299 C   0  0  0  0  0  0  0  0  0  0  0  0
   -2.7777   -0.3456   -0.0132 C   0  0  0  0  0  0  0  0  0  0  0  0
    5.6558   -0.6509    0.0418 C   0  0  0  0  0  0  0  0  0  0  0  0
    6.9486    0.1365    0.0577 C   0  0  0  0  0  0  0  0  0  0  0  0
   -4.2873    1.3534    0.0294 C   0  0  0  0  0  0  0  0  0  0  0  0
   -4.9876   -0.8751    0.0425 C   0  0  0  0  0  0  0  0  0  0  0  0
   -5.3384    0.4595    0.0546 C   0  0  0  0  0  0  0  0  0  0  0  0
   -0.3698    0.7643   -0.9794 H   0  0  0  0  0  0  0  0  0  0  0  0
   -0.3733    0.8197    0.7888 H   0  0  0  0  0  0  0  0  0  0  0  0
    1.0396   -1.2929   -0.9185 H   0  0  0  0  0  0  0  0  0  0  0  0
    1.0093   -1.2728    0.8478 H   0  0  0  0  0  0  0  0  0  0  0  0
   -1.2925   -1.7614   -0.0603 H   0  0  0  0  0  0  0  0  0  0  0  0
    3.4251   -1.5013    0.0044 H   0  0  0  0  0  0  0  0  0  0  0  0
    5.5956   -1.2767    0.9399 H   0  0  0  0  0  0  0  0  0  0  0  0
    5.6282   -1.2939   -0.8457 H   0  0  0  0  0  0  0  0  0  0  0  0
    7.0205    0.7778   -0.8270 H   0  0  0  0  0  0  0  0  0  0  0  0
    6.9884    0.7949    0.9318 H   0  0  0  0  0  0  0  0  0  0  0  0
    7.8136   -0.5322    0.0800 H   0  0  0  0  0  0  0  0  0  0  0  0
   -4.4646    2.4236    0.0363 H   0  0  0  0  0  0  0  0  0  0  0  0
   -5.7453   -1.6513    0.0603 H   0  0  0  0  0  0  0  0  0  0  0  0
   -6.3700    0.7839    0.0820 H   0  0  0  0  0  0  0  0  0  0  0  0
  1  4  1  0  0  0  0
  1 11  1  0  0  0  0
  2  9  2  0  0  0  0
  3  7  1  0  0  0  0
  3 10  1  0  0  0  0
  3 20  1  0  0  0  0
  4  9  1  0  0  0  0
  4 21  1  0  0  0  0
  5 10  1  0  0  0  0
  5 13  2  0  0  0  0
  6 10  2  0  0  0  0
  6 14  1  0  0  0  0
  7  8  1  0  0  0  0
  7 16  1  0  0  0  0
  7 17  1  0  0  0  0
  8  9  1  0  0  0  0
  8 18  1  0  0  0  0
  8 19  1  0  0  0  0
 11 12  1  0  0  0  0
 11 22  1  0  0  0  0
 11 23  1  0  0  0  0
 12 24  1  0  0  0  0
 12 25  1  0  0  0  0
 12 26  1  0  0  0  0
 13 15  1  0  0  0  0
 13 27  1  0  0  0  0
 14 15  2  0  0  0  0
 14 28  1  0  0  0  0
 15 29  1  0  0  0  0
M  END
> <PUBCHEM_COMPOUND_CID>
47205559

> <PUBCHEM_CONFORMER_RMSD>
0.8

> <PUBCHEM_CONFORMER_DIVERSEORDER>
1
76
9
138
28
125
109
35
137
104
15
83
17
143
42
113
105
128
134
88
87
53
142
33
141
68
31
5
121
58
34
59
43
124
92
47
19
75
120
10
130
115
51
72
136
3
132
139
82
62
99
95
25
69
13
144
6
12
89
2
32
52
57
117
24
106
23
60
18
70
101
4
127
39
93
56
86
81
14
131
135
30
46
85
27
79
133
26
145
16
55
40
74
22
63
103
29
21
67
37
114
45
100
98
44
64
107
80
123
41
116
61
111
146
49
108
140
36
112
66
91
65
96
11
102
78
20
122
50
73
94
90
38
118
119
8
110
129
54
71
97
126
7
77
48
84

> <PUBCHEM_MMFF94_PARTIAL_CHARGES>
19
1 -0.32
10 0.72
11 0.28
13 0.16
14 0.16
15 -0.15
2 -0.57
20 0.4
21 0.37
27 0.15
28 0.15
29 0.15
3 -0.87
4 -0.39
5 -0.62
6 -0.62
7 0.37
8 0.06
9 0.57

> <PUBCHEM_EFFECTIVE_ROTOR_COUNT>
7

> <PUBCHEM_PHARMACOPHORE_FEATURES>
6
1 2 acceptor
1 3 donor
1 4 donor
1 5 acceptor
4 3 5 6 10 cation
6 5 6 10 13 14 15 rings

> <PUBCHEM_HEAVY_ATOM_COUNT>
15

> <PUBCHEM_ATOM_DEF_STEREO_COUNT>
0

> <PUBCHEM_ATOM_UDEF_STEREO_COUNT>
0

> <PUBCHEM_BOND_DEF_STEREO_COUNT>
0

> <PUBCHEM_BOND_UDEF_STEREO_COUNT>
0

> <PUBCHEM_ISOTOPIC_ATOM_COUNT>
0

> <PUBCHEM_COMPONENT_COUNT>
1

> <PUBCHEM_CACTVS_TAUTO_COUNT>
4

> <PUBCHEM_CONFORMER_ID>
02D04CB700000001

> <PUBCHEM_MMFF94_ENERGY>
31.3916

> <PUBCHEM_FEATURE_SELFOVERLAP>
30.446

> <PUBCHEM_SHAPE_FINGERPRINT>
11315181 36 18272086080907915033
12091667 2 18334576836804154959
13288520 33 18410293593334771639
13533116 47 17274832398149625466
14123238 8 18343021094800761342
1420 363 17385720301251401110
14251718 22 18411981360435989594
14251731 8 18410856572529979200
14251764 18 18341892982743077195
17834072 33 18411980230938751100
17834076 25 17775566442456722450
19489759 90 18409449193683774707
20281389 69 18272371988238471980
20645477 70 17459182040347401190
21267235 1 18341044143203847427
23035841 295 9079118860533968276
23218964 4 18412265055826305262
23402539 116 18259991465655068733
23536379 177 18413389856480028634
23559900 14 18335709307958213313
3545911 37 18408040727899672563
4214541 1 18410573985557730477
42788 4 18410293610066195874
4463277 17 18411700981024228932
8209 1 18410856564509769862

> <PUBCHEM_SHAPE_MULTIPOLES>
277.03
16.28
1.18
0.58
17.03
0.15
0
-0.02
0.5
-1
0
-0.02
0
-0.02

> <PUBCHEM_SHAPE_SELFOVERLAP>
548.818

> <PUBCHEM_SHAPE_VOLUME>
163.4

> <PUBCHEM_COORDINATE_TYPE>
2
5
10

$$$$

