4207
  -OEChem-06251223572D

155162  0     1  0  0  0  0  0999 V2000
    7.7511    5.5254    0.0000 O   0  0  0  0  0  0  0  0  0  0  0  0
    6.0075    2.5321    0.0000 O   0  0  0  0  0  0  0  0  0  0  0  0
    9.4716    2.5187    0.0000 O   0  0  0  0  0  0  0  0  0  0  0  0
    6.0191    5.5321    0.0000 O   0  0  0  0  0  0  0  0  0  0  0  0
   10.3434    4.0154    0.0000 O   0  0  0  0  0  0  0  0  0  0  0  0
    4.2755    2.5388    0.0000 O   0  0  0  0  0  0  0  0  0  0  0  0
   17.3921   -1.0329    0.0000 O   0  0  0  0  0  0  0  0  0  0  0  0
   14.7882   -2.5229    0.0000 O   0  0  0  0  0  0  0  0  0  0  0  0
    4.7644   -0.3292    0.0000 O   0  0  0  0  0  0  0  0  0  0  0  0
    9.4870    6.5187    0.0000 O   0  0  0  0  0  0  0  0  0  0  0  0
    4.2793    3.5388    0.0000 O   0  0  0  0  0  0  0  0  0  0  0  0
    2.5357    0.5455    0.0000 O   0  0  0  0  0  0  0  0  0  0  0  0
    8.6036    0.9671    0.0000 O   0  0  0  0  0  0  0  0  0  0  0  0
   15.6485   -4.0262    0.0000 O   0  0  0  0  0  0  0  0  0  0  0  0
   16.5164   -3.5295    0.0000 O   0  0  0  0  0  0  0  0  0  0  0  0
   11.2533    3.5292    0.0000 O   0  0  0  0  0  0  0  0  0  0  0  0
    4.2611   -1.1933    0.0000 O   0  0  0  0  0  0  0  0  0  0  0  0
   13.0017    3.4946    0.0000 O   0  0  0  0  0  0  0  0  0  0  0  0
   13.0446   -5.5162    0.0000 O   0  0  0  0  0  0  0  0  0  0  0  0
   10.3434   -1.0262    0.0000 O   0  0  0  0  0  0  0  0  0  0  0  0
   14.7728   -6.5228    0.0000 O   0  0  0  0  0  0  0  0  0  0  0  0
   14.7501    3.5292    0.0000 O   0  0  0  0  0  0  0  0  0  0  0  0
    7.7434   -0.5362    0.0000 O   0  0  0  0  0  0  0  0  0  0  0  0
    7.7511   -2.5362    0.0000 O   0  0  0  0  0  0  0  0  0  0  0  0
   10.3357    0.9738    0.0000 C   0  0  3  0  0  0  0  0  0  0  0  0
    8.6152    5.0220    0.0000 C   0  0  3  0  0  0  0  0  0  0  0  0
    6.0114    3.5321    0.0000 C   0  0  3  0  0  0  0  0  0  0  0  0
   10.3357    2.0154    0.0000 C   0  0  3  0  0  0  0  0  0  0  0  0
    4.2678    0.5388    0.0000 C   0  0  3  0  0  0  0  0  0  0  0  0
    6.8793    4.0287    0.0000 C   0  0  0  0  0  0  0  0  0  0  0  0
    8.6114    4.0221    0.0000 C   0  0  0  0  0  0  0  0  0  0  0  0
    6.8832    5.0287    0.0000 C   0  0  3  0  0  0  0  0  0  0  0  0
    9.4832    5.5187    0.0000 C   0  0  3  0  0  0  0  0  0  0  0  0
    5.1473    4.0354    0.0000 C   0  0  3  0  0  0  0  0  0  0  0  0
    9.4754    3.5187    0.0000 C   0  0  3  0  0  0  0  0  0  0  0  0
    5.1357    1.0354    0.0000 C   0  0  0  0  0  0  0  0  0  0  0  0
    5.1396    2.0354    0.0000 C   0  0  3  0  0  0  0  0  0  0  0  0
    3.4037    1.0421    0.0000 C   0  0  3  0  0  0  0  0  0  0  0  0
   11.2418    0.4599    0.0000 C   0  0  0  0  0  0  0  0  0  0  0  0
    5.1511    5.0354    0.0000 C   0  0  3  0  0  0  0  0  0  0  0  0
   10.3473    5.0154    0.0000 C   0  0  3  0  0  0  0  0  0  0  0  0
    3.4075    2.0421    0.0000 C   0  0  3  0  0  0  0  0  0  0  0  0
   15.6562   -2.0262    0.0000 C   0  0  3  0  0  0  0  0  0  0  0  0
    9.4716    0.4704    0.0000 C   0  0  3  0  0  0  0  0  0  0  0  0
   16.5280   -0.5296    0.0000 C   0  0  3  0  0  0  0  0  0  0  0  0
   12.1357    0.9946    0.0000 C   0  0  0  0  0  0  0  0  0  0  0  0
   15.6600   -1.0262    0.0000 C   0  0  0  0  0  0  0  0  0  0  0  0
   16.5203   -2.5296    0.0000 C   0  0  3  0  0  0  0  0  0  0  0  0
   11.2418    2.5292    0.0000 C   0  0  0  0  0  0  0  0  0  0  0  0
   12.1357    1.9946    0.0000 C   0  0  0  0  0  0  0  0  0  0  0  0
   17.3882   -2.0329    0.0000 C   0  0  3  0  0  0  0  0  0  0  0  0
   16.5318    0.4704    0.0000 C   0  0  0  0  0  0  0  0  0  0  0  0
    3.7644   -0.3253    0.0000 C   0  0  0  0  0  0  0  0  0  0  0  0
   13.0017    0.4946    0.0000 C   0  0  0  0  0  0  0  0  0  0  0  0
   15.6678    0.9738    0.0000 C   0  0  0  0  0  0  0  0  0  0  0  0
   13.8677    0.9946    0.0000 C   0  0  0  0  0  0  0  0  0  0  0  0
   13.0017    2.4946    0.0000 C   0  0  0  0  0  0  0  0  0  0  0  0
    4.2870    5.5387    0.0000 C   0  0  0  0  0  0  0  0  0  0  0  0
   11.2152    5.5120    0.0000 C   0  0  0  0  0  0  0  0  0  0  0  0
   14.7844   -3.5229    0.0000 C   0  0  3  0  0  0  0  0  0  0  0  0
   13.8677    1.9946    0.0000 C   0  0  0  0  0  0  0  0  0  0  0  0
    2.5434    2.5454    0.0000 C   0  0  0  0  0  0  0  0  0  0  0  0
    9.4754   -0.5296    0.0000 C   0  0  0  0  0  0  0  0  0  0  0  0
   13.9164   -4.0195    0.0000 C   0  0  0  0  0  0  0  0  0  0  0  0
   14.7617    0.4599    0.0000 C   0  0  0  0  0  0  0  0  0  0  0  0
   13.9126   -5.0195    0.0000 C   0  0  3  0  0  0  0  0  0  0  0  0
   15.6678    2.0154    0.0000 C   0  0  0  0  0  0  0  0  0  0  0  0
   14.7767   -5.5228    0.0000 C   0  0  3  0  0  0  0  0  0  0  0  0
   18.2523   -2.5362    0.0000 C   0  0  0  0  0  0  0  0  0  0  0  0
   15.6446   -5.0262    0.0000 C   0  0  3  0  0  0  0  0  0  0  0  0
   14.7617    2.5292    0.0000 C   0  0  0  0  0  0  0  0  0  0  0  0
    8.6114   -1.0329    0.0000 C   0  0  3  0  0  0  0  0  0  0  0  0
    8.6152   -2.0329    0.0000 C   0  0  3  0  0  0  0  0  0  0  0  0
   16.5318    2.5187    0.0000 C   0  0  0  0  0  0  0  0  0  0  0  0
   16.5087   -5.5295    0.0000 C   0  0  0  0  0  0  0  0  0  0  0  0
    7.7396    0.4638    0.0000 C   0  0  0  0  0  0  0  0  0  0  0  0
    9.4832   -2.5296    0.0000 C   0  0  0  0  0  0  0  0  0  0  0  0
   10.3393    0.3538    0.0000 H   0  0  0  0  0  0  0  0  0  0  0  0
    8.0771    4.7141    0.0000 H   0  0  0  0  0  0  0  0  0  0  0  0
    6.5471    3.2200    0.0000 H   0  0  0  0  0  0  0  0  0  0  0  0
   10.3393    2.6354    0.0000 H   0  0  0  0  0  0  0  0  0  0  0  0
    7.0891    3.4453    0.0000 H   0  0  0  0  0  0  0  0  0  0  0  0
    7.4903    4.1340    0.0000 H   0  0  0  0  0  0  0  0  0  0  0  0
    8.0012    4.1321    0.0000 H   0  0  0  0  0  0  0  0  0  0  0  0
    8.3971    3.4403    0.0000 H   0  0  0  0  0  0  0  0  0  0  0  0
    6.8856    5.6487    0.0000 H   0  0  0  0  0  0  0  0  0  0  0  0
    8.9474    5.8308    0.0000 H   0  0  0  0  0  0  0  0  0  0  0  0
    4.6116    4.3475    0.0000 H   0  0  0  0  0  0  0  0  0  0  0  0
    8.9373    3.2108    0.0000 H   0  0  0  0  0  0  0  0  0  0  0  0
    5.3455    0.4520    0.0000 H   0  0  0  0  0  0  0  0  0  0  0  0
    5.7467    1.1407    0.0000 H   0  0  0  0  0  0  0  0  0  0  0  0
    5.1420    2.6554    0.0000 H   0  0  0  0  0  0  0  0  0  0  0  0
    3.4013    0.4221    0.0000 H   0  0  0  0  0  0  0  0  0  0  0  0
   10.8481   -0.0191    0.0000 H   0  0  0  0  0  0  0  0  0  0  0  0
   11.6464   -0.0099    0.0000 H   0  0  0  0  0  0  0  0  0  0  0  0
    5.1535    5.6554    0.0000 H   0  0  0  0  0  0  0  0  0  0  0  0
   10.8830    4.7033    0.0000 H   0  0  0  0  0  0  0  0  0  0  0  0
    3.4099    2.6621    0.0000 H   0  0  0  0  0  0  0  0  0  0  0  0
   15.6538   -2.6462    0.0000 H   0  0  0  0  0  0  0  0  0  0  0  0
    9.4692    1.0904    0.0000 H   0  0  0  0  0  0  0  0  0  0  0  0
   17.0661   -0.2216    0.0000 H   0  0  0  0  0  0  0  0  0  0  0  0
   15.4502   -0.4428    0.0000 H   0  0  0  0  0  0  0  0  0  0  0  0
   15.0491   -1.1315    0.0000 H   0  0  0  0  0  0  0  0  0  0  0  0
   17.0560   -2.8416    0.0000 H   0  0  0  0  0  0  0  0  0  0  0  0
   17.9264   -1.7250    0.0000 H   0  0  0  0  0  0  0  0  0  0  0  0
   17.1420    0.3604    0.0000 H   0  0  0  0  0  0  0  0  0  0  0  0
   16.7461    1.0522    0.0000 H   0  0  0  0  0  0  0  0  0  0  0  0
    3.2910    0.0750    0.0000 H   0  0  0  0  0  0  0  0  0  0  0  0
    3.2880   -0.7220    0.0000 H   0  0  0  0  0  0  0  0  0  0  0  0
   13.0017   -0.1254    0.0000 H   0  0  0  0  0  0  0  0  0  0  0  0
    4.5991    6.0745    0.0000 H   0  0  0  0  0  0  0  0  0  0  0  0
    3.7513    5.8508    0.0000 H   0  0  0  0  0  0  0  0  0  0  0  0
    3.9750    5.0030    0.0000 H   0  0  0  0  0  0  0  0  0  0  0  0
   14.2487   -3.2108    0.0000 H   0  0  0  0  0  0  0  0  0  0  0  0
   11.5231    4.9739    0.0000 H   0  0  0  0  0  0  0  0  0  0  0  0
   11.7533    5.8200    0.0000 H   0  0  0  0  0  0  0  0  0  0  0  0
   10.9073    6.0502    0.0000 H   0  0  0  0  0  0  0  0  0  0  0  0
    2.8555    3.0812    0.0000 H   0  0  0  0  0  0  0  0  0  0  0  0
    2.0077    2.8575    0.0000 H   0  0  0  0  0  0  0  0  0  0  0  0
    2.2314    2.0097    0.0000 H   0  0  0  0  0  0  0  0  0  0  0  0
   13.7066   -3.4361    0.0000 H   0  0  0  0  0  0  0  0  0  0  0  0
   13.3055   -4.1248    0.0000 H   0  0  0  0  0  0  0  0  0  0  0  0
   14.7545   -0.1600    0.0000 H   0  0  0  0  0  0  0  0  0  0  0  0
    5.3844   -0.3316    0.0000 H   0  0  0  0  0  0  0  0  0  0  0  0
   13.3769   -4.7074    0.0000 H   0  0  0  0  0  0  0  0  0  0  0  0
    8.9513    6.8308    0.0000 H   0  0  0  0  0  0  0  0  0  0  0  0
    3.7436    3.8508    0.0000 H   0  0  0  0  0  0  0  0  0  0  0  0
   15.3124   -5.8349    0.0000 H   0  0  0  0  0  0  0  0  0  0  0  0
   17.9403   -3.0720    0.0000 H   0  0  0  0  0  0  0  0  0  0  0  0
   18.7881   -2.8483    0.0000 H   0  0  0  0  0  0  0  0  0  0  0  0
   18.5644   -2.0005    0.0000 H   0  0  0  0  0  0  0  0  0  0  0  0
   16.1828   -4.7183    0.0000 H   0  0  0  0  0  0  0  0  0  0  0  0
    2.0000    0.8575    0.0000 H   0  0  0  0  0  0  0  0  0  0  0  0
    8.0756   -1.3450    0.0000 H   0  0  0  0  0  0  0  0  0  0  0  0
   17.0522   -3.8416    0.0000 H   0  0  0  0  0  0  0  0  0  0  0  0
    3.9490   -1.7290    0.0000 H   0  0  0  0  0  0  0  0  0  0  0  0
    8.0771   -1.7250    0.0000 H   0  0  0  0  0  0  0  0  0  0  0  0
   16.8439    1.9830    0.0000 H   0  0  0  0  0  0  0  0  0  0  0  0
   17.0676    2.8308    0.0000 H   0  0  0  0  0  0  0  0  0  0  0  0
   16.2198    3.0545    0.0000 H   0  0  0  0  0  0  0  0  0  0  0  0
   16.1967   -6.0653    0.0000 H   0  0  0  0  0  0  0  0  0  0  0  0
   17.0445   -5.8416    0.0000 H   0  0  0  0  0  0  0  0  0  0  0  0
   16.8208   -4.9938    0.0000 H   0  0  0  0  0  0  0  0  0  0  0  0
    7.4275    0.9995    0.0000 H   0  0  0  0  0  0  0  0  0  0  0  0
    7.2038    0.1517    0.0000 H   0  0  0  0  0  0  0  0  0  0  0  0
    8.0516   -0.0720    0.0000 H   0  0  0  0  0  0  0  0  0  0  0  0
   12.4648    3.8046    0.0000 H   0  0  0  0  0  0  0  0  0  0  0  0
   12.5089   -5.2041    0.0000 H   0  0  0  0  0  0  0  0  0  0  0  0
   14.2347   -6.8308    0.0000 H   0  0  0  0  0  0  0  0  0  0  0  0
   15.2834    3.8454    0.0000 H   0  0  0  0  0  0  0  0  0  0  0  0
    7.2077   -0.8483    0.0000 H   0  0  0  0  0  0  0  0  0  0  0  0
    9.1752   -3.0677    0.0000 H   0  0  0  0  0  0  0  0  0  0  0  0
   10.0213   -2.8375    0.0000 H   0  0  0  0  0  0  0  0  0  0  0  0
    9.7911   -1.9914    0.0000 H   0  0  0  0  0  0  0  0  0  0  0  0
    7.7535   -3.1562    0.0000 H   0  0  0  0  0  0  0  0  0  0  0  0
  1 26  1  0  0  0  0
  1 32  1  0  0  0  0
  2 27  1  0  0  0  0
  2 37  1  0  0  0  0
  3 28  1  0  0  0  0
  3 35  1  0  0  0  0
  4 32  1  0  0  0  0
  4 40  1  0  0  0  0
  5 35  1  0  0  0  0
  5 41  1  0  0  0  0
  6 37  1  0  0  0  0
  6 42  1  0  0  0  0
  7 45  1  0  0  0  0
  7 51  1  0  0  0  0
  8 43  1  0  0  0  0
  8 60  1  0  0  0  0
  9 29  1  0  0  0  0
  9124  1  0  0  0  0
 10 33  1  0  0  0  0
 10126  1  0  0  0  0
 11 34  1  0  0  0  0
 11127  1  0  0  0  0
 12 38  1  0  0  0  0
 12133  1  0  0  0  0
 13 44  1  0  0  0  0
 13 76  1  0  0  0  0
 14 60  1  0  0  0  0
 14 70  1  0  0  0  0
 15 48  1  0  0  0  0
 15135  1  0  0  0  0
 16 49  2  0  0  0  0
 17 53  1  0  0  0  0
 17136  1  0  0  0  0
 18 57  1  0  0  0  0
 18147  1  0  0  0  0
 19 66  1  0  0  0  0
 19148  1  0  0  0  0
 20 63  2  0  0  0  0
 21 68  1  0  0  0  0
 21149  1  0  0  0  0
 22 71  1  0  0  0  0
 22150  1  0  0  0  0
 23 72  1  0  0  0  0
 23151  1  0  0  0  0
 24 73  1  0  0  0  0
 24155  1  0  0  0  0
 25 28  1  0  0  0  0
 25 39  1  0  0  0  0
 25 44  1  0  0  0  0
 25 78  1  0  0  0  0
 26 31  1  0  0  0  0
 26 33  1  0  0  0  0
 26 79  1  0  0  0  0
 27 30  1  0  0  0  0
 27 34  1  0  0  0  0
 27 80  1  0  0  0  0
 28 49  1  0  0  0  0
 28 81  1  0  0  0  0
 29 36  1  0  0  0  0
 29 38  1  0  0  0  0
 29 53  1  0  0  0  0
 30 32  1  0  0  0  0
 30 82  1  0  0  0  0
 30 83  1  0  0  0  0
 31 35  1  0  0  0  0
 31 84  1  0  0  0  0
 31 85  1  0  0  0  0
 32 86  1  0  0  0  0
 33 41  1  0  0  0  0
 33 87  1  0  0  0  0
 34 40  1  0  0  0  0
 34 88  1  0  0  0  0
 35 89  1  0  0  0  0
 36 37  1  0  0  0  0
 36 90  1  0  0  0  0
 36 91  1  0  0  0  0
 37 92  1  0  0  0  0
 38 42  1  0  0  0  0
 38 93  1  0  0  0  0
 39 46  1  0  0  0  0
 39 94  1  0  0  0  0
 39 95  1  0  0  0  0
 40 58  1  0  0  0  0
 40 96  1  0  0  0  0
 41 59  1  0  0  0  0
 41 97  1  0  0  0  0
 42 62  1  0  0  0  0
 42 98  1  0  0  0  0
 43 47  1  0  0  0  0
 43 48  1  0  0  0  0
 43 99  1  0  0  0  0
 44 63  1  0  0  0  0
 44100  1  0  0  0  0
 45 47  1  0  0  0  0
 45 52  1  0  0  0  0
 45101  1  0  0  0  0
 46 50  2  0  0  0  0
 46 54  1  0  0  0  0
 47102  1  0  0  0  0
 47103  1  0  0  0  0
 48 51  1  0  0  0  0
 48104  1  0  0  0  0
 49 50  1  0  0  0  0
 50 57  1  0  0  0  0
 51 69  1  0  0  0  0
 51105  1  0  0  0  0
 52 55  1  0  0  0  0
 52106  1  0  0  0  0
 52107  1  0  0  0  0
 53108  1  0  0  0  0
 53109  1  0  0  0  0
 54 56  2  0  0  0  0
 54110  1  0  0  0  0
 55 65  2  0  0  0  0
 55 67  1  0  0  0  0
 56 61  1  0  0  0  0
 56 65  1  0  0  0  0
 57 61  2  0  0  0  0
 58111  1  0  0  0  0
 58112  1  0  0  0  0
 58113  1  0  0  0  0
 59115  1  0  0  0  0
 59116  1  0  0  0  0
 59117  1  0  0  0  0
 60 64  1  0  0  0  0
 60114  1  0  0  0  0
 61 71  1  0  0  0  0
 62118  1  0  0  0  0
 62119  1  0  0  0  0
 62120  1  0  0  0  0
 63 72  1  0  0  0  0
 64 66  1  0  0  0  0
 64121  1  0  0  0  0
 64122  1  0  0  0  0
 65123  1  0  0  0  0
 66 68  1  0  0  0  0
 66125  1  0  0  0  0
 67 71  2  0  0  0  0
 67 74  1  0  0  0  0
 68 70  1  0  0  0  0
 68128  1  0  0  0  0
 69129  1  0  0  0  0
 69130  1  0  0  0  0
 69131  1  0  0  0  0
 70 75  1  0  0  0  0
 70132  1  0  0  0  0
 72 73  1  0  0  0  0
 72134  1  0  0  0  0
 73 77  1  0  0  0  0
 73137  1  0  0  0  0
 74138  1  0  0  0  0
 74139  1  0  0  0  0
 74140  1  0  0  0  0
 75141  1  0  0  0  0
 75142  1  0  0  0  0
 75143  1  0  0  0  0
 76144  1  0  0  0  0
 76145  1  0  0  0  0
 76146  1  0  0  0  0
 77152  1  0  0  0  0
 77153  1  0  0  0  0
 77154  1  0  0  0  0
M  END
> <PUBCHEM_COMPOUND_CID>
4207

> <PUBCHEM_COMPOUND_CANONICALIZED>
1

> <PUBCHEM_CACTVS_COMPLEXITY>
1950

> <PUBCHEM_CACTVS_HBOND_ACCEPTOR>
24

> <PUBCHEM_CACTVS_HBOND_DONOR>
12

> <PUBCHEM_CACTVS_ROTATABLE_BOND>
16

> <PUBCHEM_CACTVS_SUBSKEYS>
AAADcfB8PgAAAAAAAAAAAAAAAAAAAAAAAAA0aNEiQAAAAADBUAAAGgAACAAADVSwmAMyDsAABgCIAqBSAAICAAAkIAAAiAFECMgZNzaCFRaicUAl4BUPmQfK7vzuwAADAAAYAADAAAYAADAAAAAAAAAAAA==

> <PUBCHEM_IUPAC_OPENEYE_NAME>
2-[4-[4-[4,5-dihydroxy-4-(hydroxymethyl)-6-methyl-tetrahydropyran-2-yl]oxy-5-hydroxy-6-methyl-tetrahydropyran-2-yl]oxy-5-hydroxy-6-methyl-tetrahydropyran-2-yl]oxy-3-(3,4-dihydroxy-1-methoxy-2-oxo-pentyl)-6-[[4-(4,5-dihydroxy-6-methyl-tetrahydropyran-2-yl)oxy-5-hydroxy-6-methyl-tetrahydropyran-2-yl]methyl]-8,9-dihydroxy-7-methyl-3,4-dihydro-2H-anthracen-1-one

> <PUBCHEM_IUPAC_CAS_NAME>
2-[[4-[[4-[[4,5-dihydroxy-4-(hydroxymethyl)-6-methyl-2-oxanyl]oxy]-5-hydroxy-6-methyl-2-oxanyl]oxy]-5-hydroxy-6-methyl-2-oxanyl]oxy]-3-(3,4-dihydroxy-1-methoxy-2-oxopentyl)-6-[[4-[(4,5-dihydroxy-6-methyl-2-oxanyl)oxy]-5-hydroxy-6-methyl-2-oxanyl]methyl]-8,9-dihydroxy-7-methyl-3,4-dihydro-2H-anthracen-1-one

> <PUBCHEM_IUPAC_NAME>
2-[4-[4-[4,5-dihydroxy-4-(hydroxymethyl)-6-methyloxan-2-yl]oxy-5-hydroxy-6-methyloxan-2-yl]oxy-5-hydroxy-6-methyloxan-2-yl]oxy-3-(3,4-dihydroxy-1-methoxy-2-oxopentyl)-6-[[4-(4,5-dihydroxy-6-methyloxan-2-yl)oxy-5-hydroxy-6-methyloxan-2-yl]methyl]-8,9-dihydroxy-7-methyl-3,4-dihydro-2H-anthracen-1-one

> <PUBCHEM_IUPAC_SYSTEMATIC_NAME>
2-[4-[4-[4-(hydroxymethyl)-6-methyl-4,5-bis(oxidanyl)oxan-2-yl]oxy-6-methyl-5-oxidanyl-oxan-2-yl]oxy-6-methyl-5-oxidanyl-oxan-2-yl]oxy-3-[1-methoxy-3,4-bis(oxidanyl)-2-oxidanylidene-pentyl]-7-methyl-6-[[6-methyl-4-[6-methyl-4,5-bis(oxidanyl)oxan-2-yl]oxy-5-oxidanyl-oxan-2-yl]methyl]-8,9-bis(oxidanyl)-3,4-dihydro-2H-anthracen-1-one

> <PUBCHEM_IUPAC_TRADITIONAL_NAME>
3-(3,4-dihydroxy-2-keto-1-methoxy-pentyl)-2-[4-[4-(4,5-dihydroxy-6-methyl-4-methylol-tetrahydropyran-2-yl)oxy-5-hydroxy-6-methyl-tetrahydropyran-2-yl]oxy-5-hydroxy-6-methyl-tetrahydropyran-2-yl]oxy-6-[[4-(4,5-dihydroxy-6-methyl-tetrahydropyran-2-yl)oxy-5-hydroxy-6-methyl-tetrahydropyran-2-yl]methyl]-8,9-dihydroxy-7-methyl-3,4-dihydro-2H-anthracen-1-one

> <PUBCHEM_IUPAC_INCHI>
InChI=1S/C53H78O24/c1-19-26(11-29-13-32(44(60)22(4)69-29)74-35-14-31(56)43(59)21(3)70-35)9-27-10-28-12-30(50(68-8)49(65)42(58)20(2)55)51(48(64)40(28)47(63)39(27)41(19)57)77-37-16-33(45(61)24(6)72-37)75-36-15-34(46(62)23(5)71-36)76-38-17-53(67,18-54)52(66)25(7)73-38/h9-10,20-25,29-38,42-46,50-52,54-63,66-67H,11-18H2,1-8H3

> <PUBCHEM_IUPAC_INCHIKEY>
YYLMAPWKLCSQNP-UHFFFAOYSA-N

> <PUBCHEM_XLOGP3_AA>
0.3

> <PUBCHEM_EXACT_MASS>
1098.488303

> <PUBCHEM_MOLECULAR_FORMULA>
C53H78O24

> <PUBCHEM_MOLECULAR_WEIGHT>
1099.17202

> <PUBCHEM_OPENEYE_CAN_SMILES>
CC1C(C(CC(O1)CC2=CC3=CC4=C(C(=O)C(C(C4)C(C(=O)C(C(C)O)O)OC)OC5CC(C(C(O5)C)O)OC6CC(C(C(O6)C)O)OC7CC(C(C(O7)C)O)(CO)O)C(=C3C(=C2C)O)O)OC8CC(C(C(O8)C)O)O)O

> <PUBCHEM_OPENEYE_ISO_SMILES>
CC1C(C(CC(O1)CC2=CC3=CC4=C(C(=O)C(C(C4)C(C(=O)C(C(C)O)O)OC)OC5CC(C(C(O5)C)O)OC6CC(C(C(O6)C)O)OC7CC(C(C(O7)C)O)(CO)O)C(=C3C(=C2C)O)O)OC8CC(C(C(O8)C)O)O)O

> <PUBCHEM_CACTVS_TPSA>
369

> <PUBCHEM_MONOISOTOPIC_WEIGHT>
1098.488303

> <PUBCHEM_TOTAL_CHARGE>
0

> <PUBCHEM_HEAVY_ATOM_COUNT>
77

> <PUBCHEM_ATOM_DEF_STEREO_COUNT>
0

> <PUBCHEM_ATOM_UDEF_STEREO_COUNT>
25

> <PUBCHEM_BOND_DEF_STEREO_COUNT>
0

> <PUBCHEM_BOND_UDEF_STEREO_COUNT>
0

> <PUBCHEM_ISOTOPIC_ATOM_COUNT>
0

> <PUBCHEM_COMPONENT_COUNT>
1

> <PUBCHEM_CACTVS_TAUTO_COUNT>
999

> <PUBCHEM_COORDINATE_TYPE>
1
5
255

> <PUBCHEM_BONDANNOTATIONS>
26  1  3
32  1  3
33  10  3
34  11  3
38  12  3
48  15  3
66  19  3
27  2  3
37  2  3
68  21  3
72  23  3
73  24  3
25  39  3
28  3  3
35  3  3
40  58  3
41  59  3
42  62  3
44  63  3
45  52  3
46  50  8
46  54  8
50  57  8
51  69  3
54  56  8
55  65  8
55  67  8
56  61  8
56  65  8
57  61  8
61  71  8
67  71  8
70  75  3
43  8  3
60  8  3
29  9  3

$$$$

