164543
  -OEChem-07051212503D

 35 38  0     1  0  0  0  0  0999 V2000
    0.0690   -1.2909   -0.0985 N   0  0  2  0  0  0  0  0  0  0  0  0
   -0.3408    0.0245    0.4521 C   0  0  1  0  0  0  0  0  0  0  0  0
    0.5938    1.0935   -0.1662 C   0  0  0  0  0  0  0  0  0  0  0  0
   -0.9053   -2.3362    0.2262 C   0  0  0  0  0  0  0  0  0  0  0  0
   -1.8127    0.3545    0.2121 C   0  0  0  0  0  0  0  0  0  0  0  0
    1.4048   -1.6631    0.3980 C   0  0  0  0  0  0  0  0  0  0  0  0
   -2.2195   -2.0399   -0.4920 C   0  0  0  0  0  0  0  0  0  0  0  0
   -2.7081   -0.6434   -0.2175 C   0  0  0  0  0  0  0  0  0  0  0  0
    2.0562    0.7251   -0.1055 C   0  0  0  0  0  0  0  0  0  0  0  0
    2.4443   -0.6027    0.1322 C   0  0  0  0  0  0  0  0  0  0  0  0
   -2.3192    1.6361    0.4860 C   0  0  0  0  0  0  0  0  0  0  0  0
   -4.0597   -0.3330   -0.4293 C   0  0  0  0  0  0  0  0  0  0  0  0
    3.0347    1.7015   -0.3354 C   0  0  0  0  0  0  0  0  0  0  0  0
    3.8067   -0.9282    0.1762 C   0  0  0  0  0  0  0  0  0  0  0  0
   -3.6687    1.9329    0.2857 C   0  0  0  0  0  0  0  0  0  0  0  0
   -4.5369    0.9511   -0.1791 C   0  0  0  0  0  0  0  0  0  0  0  0
    4.3878    1.3656   -0.3019 C   0  0  0  0  0  0  0  0  0  0  0  0
    4.7735    0.0525   -0.0431 C   0  0  0  0  0  0  0  0  0  0  0  0
   -0.2048    0.0111    1.5443 H   0  0  0  0  0  0  0  0  0  0  0  0
    0.4642    2.0464    0.3610 H   0  0  0  0  0  0  0  0  0  0  0  0
    0.3307    1.2603   -1.2197 H   0  0  0  0  0  0  0  0  0  0  0  0
   -1.0640   -2.4037    1.3110 H   0  0  0  0  0  0  0  0  0  0  0  0
   -0.5466   -3.3158   -0.1128 H   0  0  0  0  0  0  0  0  0  0  0  0
    1.7195   -2.5852   -0.1069 H   0  0  0  0  0  0  0  0  0  0  0  0
    1.3804   -1.8593    1.4781 H   0  0  0  0  0  0  0  0  0  0  0  0
   -2.9700   -2.7696   -0.1651 H   0  0  0  0  0  0  0  0  0  0  0  0
   -2.0901   -2.1561   -1.5755 H   0  0  0  0  0  0  0  0  0  0  0  0
   -1.6712    2.4211    0.8658 H   0  0  0  0  0  0  0  0  0  0  0  0
   -4.7484   -1.0959   -0.7838 H   0  0  0  0  0  0  0  0  0  0  0  0
    2.7465    2.7295   -0.5398 H   0  0  0  0  0  0  0  0  0  0  0  0
    4.1206   -1.9487    0.3801 H   0  0  0  0  0  0  0  0  0  0  0  0
   -4.0405    2.9316    0.4957 H   0  0  0  0  0  0  0  0  0  0  0  0
   -5.5858    1.1825   -0.3384 H   0  0  0  0  0  0  0  0  0  0  0  0
    5.1408    2.1286   -0.4765 H   0  0  0  0  0  0  0  0  0  0  0  0
    5.8274   -0.2080   -0.0123 H   0  0  0  0  0  0  0  0  0  0  0  0
  1  2  1  0  0  0  0
  1  4  1  0  0  0  0
  1  6  1  0  0  0  0
  2  3  1  0  0  0  0
  2  5  1  0  0  0  0
  2 19  1  0  0  0  0
  3  9  1  0  0  0  0
  3 20  1  0  0  0  0
  3 21  1  0  0  0  0
  4  7  1  0  0  0  0
  4 22  1  0  0  0  0
  4 23  1  0  0  0  0
  5  8  1  0  0  0  0
  5 11  2  0  0  0  0
  6 10  1  0  0  0  0
  6 24  1  0  0  0  0
  6 25  1  0  0  0  0
  7  8  1  0  0  0  0
  7 26  1  0  0  0  0
  7 27  1  0  0  0  0
  8 12  2  0  0  0  0
  9 10  1  0  0  0  0
  9 13  2  0  0  0  0
 10 14  2  0  0  0  0
 11 15  1  0  0  0  0
 11 28  1  0  0  0  0
 12 16  1  0  0  0  0
 12 29  1  0  0  0  0
 13 17  1  0  0  0  0
 13 30  1  0  0  0  0
 14 18  1  0  0  0  0
 14 31  1  0  0  0  0
 15 16  2  0  0  0  0
 15 32  1  0  0  0  0
 16 33  1  0  0  0  0
 17 18  2  0  0  0  0
 17 34  1  0  0  0  0
 18 35  1  0  0  0  0
M  END
> <PUBCHEM_COMPOUND_CID>
164543

> <PUBCHEM_CONFORMER_RMSD>
0.6

> <PUBCHEM_CONFORMER_DIVERSEORDER>
1
2

> <PUBCHEM_MMFF94_PARTIAL_CHARGES>
26
1 -0.81
10 -0.14
11 -0.15
12 -0.15
13 -0.15
14 -0.15
15 -0.15
16 -0.15
17 -0.15
18 -0.15
2 0.41
28 0.15
29 0.15
3 0.14
30 0.15
31 0.15
32 0.15
33 0.15
34 0.15
35 0.15
4 0.27
5 -0.14
6 0.41
7 0.14
8 -0.14
9 -0.14

> <PUBCHEM_EFFECTIVE_ROTOR_COUNT>
0.8

> <PUBCHEM_PHARMACOPHORE_FEATURES>
5
1 1 cation
6 1 2 3 6 9 10 rings
6 1 2 4 5 7 8 rings
6 5 8 11 12 15 16 rings
6 9 10 13 14 17 18 rings

> <PUBCHEM_HEAVY_ATOM_COUNT>
18

> <PUBCHEM_ATOM_DEF_STEREO_COUNT>
1

> <PUBCHEM_ATOM_UDEF_STEREO_COUNT>
0

> <PUBCHEM_BOND_DEF_STEREO_COUNT>
0

> <PUBCHEM_BOND_UDEF_STEREO_COUNT>
0

> <PUBCHEM_ISOTOPIC_ATOM_COUNT>
0

> <PUBCHEM_COMPONENT_COUNT>
1

> <PUBCHEM_CACTVS_TAUTO_COUNT>
1

> <PUBCHEM_CONFORMER_ID>
000282BF00000001

> <PUBCHEM_MMFF94_ENERGY>
49.8729

> <PUBCHEM_FEATURE_SELFOVERLAP>
25.438

> <PUBCHEM_SHAPE_FINGERPRINT>
10062212 137 18410020926592517890
10411042 1 17329991292363410794
10608611 8 18336266726246977680
10616163 171 18335981969662337742
10646746 165 18335139765593917648
10967382 1 18338797917650959960
11132069 177 18409172108132043952
11471102 20 18341896316133590604
12107183 9 17762339519042447272
12173636 292 18408610236083597343
12236239 1 18343866623337028353
12390115 104 17970048115218460681
12403814 3 17917998291057443613
12500047 106 18335987493037317712
12644460 14 17988645267289970546
13140716 1 18341899576077150122
13380535 76 18408884052991453959
13583140 156 17203890755940794009
138480 1 17618222144823741827
14790565 3 18262792003756032609
14897335 6 18411136943700094794
15196674 1 18411138030326820686
15420108 30 16385627927961164058
15442244 35 18339645641648965618
15536298 74 18335420196846011710
15775835 57 18413386548806655789
16945 1 18264773159909138011
17492 89 18410573959672843574
18186145 218 18341615944736641404
19862831 5 18113898268797942536
200 152 18113058224818835501
20300324 65 18113340786875855349
20510252 161 18263358110198640867
21267235 1 18410847759273236875
21524375 3 18410855486077508547
231179 274 17632023030033145388
23227448 37 18410293584148705959
23402539 116 18260836998613176373
23402655 69 18410291394042510356
23557571 272 18115861910687215647
23558518 356 17769935680096772392
23559900 14 18187366494101472680
2748010 2 17327743894410207811
2838139 119 17129608944923245757
335352 9 18339360885364700910
34934 24 18412548691477540464
350125 39 18410570652969154985
3545911 37 18410290306993804124
4028521 119 18413395336621018941
4214541 1 18410012130451828012
4340502 62 17203602723129069947
474 4 17846213315699867172
495365 180 17458638778687113936
4990 188 18040709290659937740
5104073 3 18412545396710124114
633830 44 17632294549824250994
69090 78 18411139142718069097
77779 3 18411135835609081940
7832392 63 18411700963596290452
9709674 26 18334569131680597838

> <PUBCHEM_SHAPE_MULTIPOLES>
365.45
9.1
2.26
0.7
2.44
0.47
0
-3.22
0.78
-0.74
-0.04
-0.08
0
-0.65

> <PUBCHEM_SHAPE_SELFOVERLAP>
809.25

> <PUBCHEM_SHAPE_VOLUME>
194.1

> <PUBCHEM_COORDINATE_TYPE>
2
5
10

$$$$

