184515
  -OEChem-07051213103D

 67 71  0     1  0  0  0  0  0999 V2000
   -4.0656    0.9443   -1.9870 O   0  0  0  0  0  0  0  0  0  0  0  0
    2.3319    0.6501    0.3313 O   0  0  0  0  0  0  0  0  0  0  0  0
    0.5620    0.2405    2.7442 O   0  0  0  0  0  0  0  0  0  0  0  0
   -2.4922    2.5454   -1.7667 O   0  0  0  0  0  0  0  0  0  0  0  0
    4.1058   -0.7227   -0.3108 O   0  0  0  0  0  0  0  0  0  0  0  0
   -7.4244    0.8217    0.6745 O   0  0  0  0  0  0  0  0  0  0  0  0
    4.0970    2.8608    0.4017 O   0  0  0  0  0  0  0  0  0  0  0  0
    6.8704    2.0365    0.9581 O   0  0  0  0  0  0  0  0  0  0  0  0
    7.6743   -0.0853   -0.8329 O   0  0  0  0  0  0  0  0  0  0  0  0
    4.7266   -2.9779   -1.7547 O   0  0  0  0  0  0  0  0  0  0  0  0
   -2.5650   -0.5222    0.0678 C   0  0  1  0  0  0  0  0  0  0  0  0
   -1.0615   -0.8623   -0.3213 C   0  0  1  0  0  0  0  0  0  0  0  0
    0.0366   -0.0108    0.3807 C   0  0  2  0  0  0  0  0  0  0  0  0
   -2.8112    1.0076    0.0898 C   0  0  1  0  0  0  0  0  0  0  0  0
   -0.3218    1.4859    0.3542 C   0  0  0  0  0  0  0  0  0  0  0  0
   -1.7289    1.7872    0.8437 C   0  0  0  0  0  0  0  0  0  0  0  0
   -3.5090   -1.1929   -0.9860 C   0  0  0  0  0  0  0  0  0  0  0  0
   -0.7264   -2.3732   -0.2239 C   0  0  0  0  0  0  0  0  0  0  0  0
   -2.9662   -1.0757    1.4585 C   0  0  0  0  0  0  0  0  0  0  0  0
    1.3969   -0.1527   -0.3500 C   0  0  0  0  0  0  0  0  0  0  0  0
    0.2787   -0.5107    1.8123 C   0  0  0  0  0  0  0  0  0  0  0  0
   -4.6428   -0.2972   -1.5007 C   0  0  1  0  0  0  0  0  0  0  0  0
   -3.0686    1.5681   -1.3019 C   0  0  0  0  0  0  0  0  0  0  0  0
   -0.1937   -2.8053    1.1092 C   0  0  0  0  0  0  0  0  0  0  0  0
    0.2452   -1.9748    2.0597 C   0  0  0  0  0  0  0  0  0  0  0  0
   -5.8412   -0.1284   -0.5928 C   0  0  0  0  0  0  0  0  0  0  0  0
    3.6176    0.6165   -0.2873 C   0  0  2  0  0  0  0  0  0  0  0  0
    4.5533    1.5137    0.5229 C   0  0  1  0  0  0  0  0  0  0  0  0
   -6.6617   -1.1537   -0.0788 C   0  0  0  0  0  0  0  0  0  0  0  0
   -6.3398    1.0535   -0.1108 C   0  0  0  0  0  0  0  0  0  0  0  0
    5.9925    1.4179    0.0163 C   0  0  2  0  0  0  0  0  0  0  0  0
    5.3831   -0.8294   -0.9420 C   0  0  1  0  0  0  0  0  0  0  0  0
    6.4256   -0.0390   -0.1477 C   0  0  1  0  0  0  0  0  0  0  0  0
   -7.6134   -0.5239    0.6888 C   0  0  0  0  0  0  0  0  0  0  0  0
    5.7359   -2.3115   -1.0184 C   0  0  0  0  0  0  0  0  0  0  0  0
   -0.9848   -0.6088   -1.3907 H   0  0  0  0  0  0  0  0  0  0  0  0
   -3.7316    1.2261    0.6453 H   0  0  0  0  0  0  0  0  0  0  0  0
   -0.2154    1.8692   -0.6686 H   0  0  0  0  0  0  0  0  0  0  0  0
    0.3754    2.0725    0.9662 H   0  0  0  0  0  0  0  0  0  0  0  0
   -1.7958    1.5637    1.9150 H   0  0  0  0  0  0  0  0  0  0  0  0
   -1.9112    2.8656    0.7543 H   0  0  0  0  0  0  0  0  0  0  0  0
   -3.9098   -2.1432   -0.6116 H   0  0  0  0  0  0  0  0  0  0  0  0
   -2.9149   -1.4565   -1.8719 H   0  0  0  0  0  0  0  0  0  0  0  0
    0.0226   -2.6300   -0.9836 H   0  0  0  0  0  0  0  0  0  0  0  0
   -1.6053   -2.9809   -0.4637 H   0  0  0  0  0  0  0  0  0  0  0  0
   -2.8884   -2.1661    1.5058 H   0  0  0  0  0  0  0  0  0  0  0  0
   -2.3616   -0.6557    2.2656 H   0  0  0  0  0  0  0  0  0  0  0  0
   -4.0090   -0.8317    1.6919 H   0  0  0  0  0  0  0  0  0  0  0  0
    1.3070    0.1780   -1.3924 H   0  0  0  0  0  0  0  0  0  0  0  0
    1.7372   -1.1932   -0.3523 H   0  0  0  0  0  0  0  0  0  0  0  0
   -5.0364   -0.7830   -2.4043 H   0  0  0  0  0  0  0  0  0  0  0  0
   -0.1797   -3.8737    1.3076 H   0  0  0  0  0  0  0  0  0  0  0  0
    0.5951   -2.3410    3.0175 H   0  0  0  0  0  0  0  0  0  0  0  0
    3.5132    0.9977   -1.3123 H   0  0  0  0  0  0  0  0  0  0  0  0
    4.5133    1.2557    1.5886 H   0  0  0  0  0  0  0  0  0  0  0  0
   -6.5779   -2.2186   -0.2419 H   0  0  0  0  0  0  0  0  0  0  0  0
   -6.0627    2.0918   -0.2226 H   0  0  0  0  0  0  0  0  0  0  0  0
    6.1138    1.9642   -0.9273 H   0  0  0  0  0  0  0  0  0  0  0  0
    5.2994   -0.4469   -1.9684 H   0  0  0  0  0  0  0  0  0  0  0  0
    6.5729   -0.4914    0.8414 H   0  0  0  0  0  0  0  0  0  0  0  0
   -8.4491   -0.8722    1.2779 H   0  0  0  0  0  0  0  0  0  0  0  0
    5.7776   -2.7655   -0.0227 H   0  0  0  0  0  0  0  0  0  0  0  0
    6.6936   -2.4747   -1.5208 H   0  0  0  0  0  0  0  0  0  0  0  0
    3.1765    2.8855    0.7148 H   0  0  0  0  0  0  0  0  0  0  0  0
    6.5697    2.9538    1.0755 H   0  0  0  0  0  0  0  0  0  0  0  0
    8.3080    0.4437   -0.3188 H   0  0  0  0  0  0  0  0  0  0  0  0
    3.8803   -2.8220   -1.3017 H   0  0  0  0  0  0  0  0  0  0  0  0
  1 22  1  0  0  0  0
  1 23  1  0  0  0  0
  2 20  1  0  0  0  0
  2 27  1  0  0  0  0
  3 21  2  0  0  0  0
  4 23  2  0  0  0  0
  5 27  1  0  0  0  0
  5 32  1  0  0  0  0
  6 30  1  0  0  0  0
  6 34  1  0  0  0  0
  7 28  1  0  0  0  0
  7 64  1  0  0  0  0
  8 31  1  0  0  0  0
  8 65  1  0  0  0  0
  9 33  1  0  0  0  0
  9 66  1  0  0  0  0
 10 35  1  0  0  0  0
 10 67  1  0  0  0  0
 11 12  1  0  0  0  0
 11 14  1  0  0  0  0
 11 17  1  0  0  0  0
 11 19  1  0  0  0  0
 12 13  1  0  0  0  0
 12 18  1  0  0  0  0
 12 36  1  0  0  0  0
 13 15  1  0  0  0  0
 13 20  1  0  0  0  0
 13 21  1  0  0  0  0
 14 16  1  0  0  0  0
 14 23  1  0  0  0  0
 14 37  1  0  0  0  0
 15 16  1  0  0  0  0
 15 38  1  0  0  0  0
 15 39  1  0  0  0  0
 16 40  1  0  0  0  0
 16 41  1  0  0  0  0
 17 22  1  0  0  0  0
 17 42  1  0  0  0  0
 17 43  1  0  0  0  0
 18 24  1  0  0  0  0
 18 44  1  0  0  0  0
 18 45  1  0  0  0  0
 19 46  1  0  0  0  0
 19 47  1  0  0  0  0
 19 48  1  0  0  0  0
 20 49  1  0  0  0  0
 20 50  1  0  0  0  0
 21 25  1  0  0  0  0
 22 26  1  0  0  0  0
 22 51  1  0  0  0  0
 24 25  2  0  0  0  0
 24 52  1  0  0  0  0
 25 53  1  0  0  0  0
 26 29  1  0  0  0  0
 26 30  2  0  0  0  0
 27 28  1  0  0  0  0
 27 54  1  0  0  0  0
 28 31  1  0  0  0  0
 28 55  1  0  0  0  0
 29 34  2  0  0  0  0
 29 56  1  0  0  0  0
 30 57  1  0  0  0  0
 31 33  1  0  0  0  0
 31 58  1  0  0  0  0
 32 33  1  0  0  0  0
 32 35  1  0  0  0  0
 32 59  1  0  0  0  0
 33 60  1  0  0  0  0
 34 61  1  0  0  0  0
 35 62  1  0  0  0  0
 35 63  1  0  0  0  0
M  END
> <PUBCHEM_COMPOUND_CID>
184515

> <PUBCHEM_CONFORMER_RMSD>
1

> <PUBCHEM_CONFORMER_DIVERSEORDER>
1
15
37
38
56
23
30
3
32
13
19
54
35
49
27
8
42
43
7
45
41
51
18
29
33
11
25
6
17
48
34
40
10
21
50
53
9
5
46
22
12
44
36
31
4
57
26
52
14
55
39
24
16
20
2
28
47

> <PUBCHEM_MMFF94_PARTIAL_CHARGES>
38
1 -0.43
10 -0.68
13 0.06
14 0.06
18 0.14
2 -0.56
20 0.28
21 0.49
22 0.46
23 0.66
24 -0.29
25 -0.14
26 -0.18
27 0.56
28 0.28
29 -0.15
3 -0.57
30 -0.01
31 0.28
32 0.28
33 0.28
34 -0.01
35 0.28
4 -0.57
5 -0.56
52 0.15
53 0.15
56 0.15
57 0.15
6 -0.28
61 0.15
64 0.4
65 0.4
66 0.4
67 0.4
7 -0.68
8 -0.68
9 -0.68

> <PUBCHEM_EFFECTIVE_ROTOR_COUNT>
7.4

> <PUBCHEM_PHARMACOPHORE_FEATURES>
18
1 10 acceptor
1 10 donor
1 2 acceptor
1 3 acceptor
1 4 acceptor
1 5 acceptor
1 6 acceptor
1 7 acceptor
1 7 donor
1 8 acceptor
1 8 donor
1 9 acceptor
1 9 donor
5 6 26 29 30 34 rings
6 1 11 14 17 22 23 rings
6 11 12 13 14 15 16 rings
6 12 13 18 21 24 25 rings
6 5 27 28 31 32 33 rings

> <PUBCHEM_HEAVY_ATOM_COUNT>
35

> <PUBCHEM_ATOM_DEF_STEREO_COUNT>
10

> <PUBCHEM_ATOM_UDEF_STEREO_COUNT>
0

> <PUBCHEM_BOND_DEF_STEREO_COUNT>
0

> <PUBCHEM_BOND_UDEF_STEREO_COUNT>
0

> <PUBCHEM_ISOTOPIC_ATOM_COUNT>
0

> <PUBCHEM_COMPONENT_COUNT>
1

> <PUBCHEM_CACTVS_TAUTO_COUNT>
3

> <PUBCHEM_CONFORMER_ID>
0002D0C300000001

> <PUBCHEM_MMFF94_ENERGY>
100.9244

> <PUBCHEM_FEATURE_SELFOVERLAP>
91.489

> <PUBCHEM_SHAPE_FINGERPRINT>
10591671 39 17132110256234337687
10674148 151 17676205783840456691
11578080 2 17243595083077193176
11991303 11 15410602658426004963
13533116 47 17967252014251808158
13811026 1 18335702698330865007
14251764 18 13470690338829428612
14856354 85 17240486875933613861
15064986 266 18187348957475404144
15082195 135 18341319013064598732
15119646 104 17240478143600677062
15183329 4 18113901571643630446
15849732 13 16988561286450146910
17349148 13 16877936162242621092
1813 80 4751154138273712426
18608769 82 18131349674816098923
20567600 234 13398627264429042371
21033648 29 18199756847500643336
21344244 181 18408598179958267306
21521721 280 18335137574902095299
21781051 124 17274523353060618147
22393880 68 18199197354478722756
23522609 53 17168970211109149889
23559900 14 18262806155751906848
25019877 29 18413108342585512119
2747138 104 17846488228562772065
3383291 50 17846215531976754323
34797466 226 18341894078413587412
3633792 109 18041272240697943322
4015057 19 18186519878764250912
404807 14 17321246245127522438
4073 2 18339641123348950218
4093350 32 17894911836819206518
4098825 35 18186800309362216625
4258327 124 17274244042942753100
4340502 62 16630532834293895443
6669772 16 18411141337879699118

> <PUBCHEM_SHAPE_MULTIPOLES>
661.59
19.19
2.62
1.66
5.54
0.45
-0.35
-2.32
3.93
2.2
0.15
-0.23
0.34
2.17

> <PUBCHEM_SHAPE_SELFOVERLAP>
1426.36

> <PUBCHEM_SHAPE_VOLUME>
356.5

> <PUBCHEM_COORDINATE_TYPE>
2
5
10

$$$$

