585993
  -OEChem-06241222453D

 37 38  0     0  0  0  0  0  0999 V2000
   -0.4215    1.3195   -0.5721 O   0  0  0  0  0  0  0  0  0  0  0  0
   -1.3340   -1.2323   -1.1904 O   0  0  0  0  0  0  0  0  0  0  0  0
   -6.1654   -1.2616    0.3668 O   0  0  0  0  0  0  0  0  0  0  0  0
    5.4399   -1.6269    0.3167 O   0  5  0  0  0  0  0  0  0  0  0  0
    3.5097   -2.2298    1.1711 O   0  0  0  0  0  0  0  0  0  0  0  0
    4.2401   -1.3873    0.5954 N   0  3  0  0  0  0  0  0  0  0  0  0
    0.3988    1.7146    0.5256 C   0  0  0  0  0  0  0  0  0  0  0  0
    1.8310    1.4033    0.2039 C   0  0  0  0  0  0  0  0  0  0  0  0
   -1.7027    0.9544   -0.2877 C   0  0  0  0  0  0  0  0  0  0  0  0
   -2.1606   -0.3262   -0.5976 C   0  0  0  0  0  0  0  0  0  0  0  0
    2.3606    0.1646    0.5475 C   0  0  0  0  0  0  0  0  0  0  0  0
   -2.5587    1.8733    0.3194 C   0  0  0  0  0  0  0  0  0  0  0  0
   -3.4745   -0.6879   -0.3006 C   0  0  0  0  0  0  0  0  0  0  0  0
    2.6159    2.3573   -0.4343 C   0  0  0  0  0  0  0  0  0  0  0  0
   -4.3306    0.2310    0.3064 C   0  0  0  0  0  0  0  0  0  0  0  0
    3.6922   -0.1240    0.2491 C   0  0  0  0  0  0  0  0  0  0  0  0
   -3.8727    1.5116    0.6163 C   0  0  0  0  0  0  0  0  0  0  0  0
    3.9474    2.0688   -0.7326 C   0  0  0  0  0  0  0  0  0  0  0  0
    4.4856    0.8281   -0.3910 C   0  0  0  0  0  0  0  0  0  0  0  0
   -1.0886   -2.4460   -0.4824 C   0  0  0  0  0  0  0  0  0  0  0  0
    0.2886   -2.9589   -0.8455 C   0  0  0  0  0  0  0  0  0  0  0  0
   -5.7006   -0.1458    0.6162 C   0  0  0  0  0  0  0  0  0  0  0  0
    0.1054    1.1972    1.4493 H   0  0  0  0  0  0  0  0  0  0  0  0
    0.2736    2.7902    0.7004 H   0  0  0  0  0  0  0  0  0  0  0  0
    1.7227   -0.5576    1.0509 H   0  0  0  0  0  0  0  0  0  0  0  0
   -2.2188    2.8771    0.5592 H   0  0  0  0  0  0  0  0  0  0  0  0
   -3.8267   -1.6850   -0.5533 H   0  0  0  0  0  0  0  0  0  0  0  0
    2.2064    3.3261   -0.7067 H   0  0  0  0  0  0  0  0  0  0  0  0
   -4.5283    2.2392    1.0877 H   0  0  0  0  0  0  0  0  0  0  0  0
    4.5647    2.8102   -1.2316 H   0  0  0  0  0  0  0  0  0  0  0  0
    5.5267    0.6382   -0.6395 H   0  0  0  0  0  0  0  0  0  0  0  0
   -1.1359   -2.2826    0.6015 H   0  0  0  0  0  0  0  0  0  0  0  0
   -1.8479   -3.1841   -0.7628 H   0  0  0  0  0  0  0  0  0  0  0  0
    0.5213   -3.8771   -0.2993 H   0  0  0  0  0  0  0  0  0  0  0  0
    0.3493   -3.1643   -1.9195 H   0  0  0  0  0  0  0  0  0  0  0  0
    1.0543   -2.2112   -0.6260 H   0  0  0  0  0  0  0  0  0  0  0  0
   -6.3293    0.6235    1.0962 H   0  0  0  0  0  0  0  0  0  0  0  0
  1  7  1  0  0  0  0
  1  9  1  0  0  0  0
  2 10  1  0  0  0  0
  2 20  1  0  0  0  0
  3 22  2  0  0  0  0
  4  6  1  0  0  0  0
  5  6  2  0  0  0  0
  6 16  1  0  0  0  0
  7  8  1  0  0  0  0
  7 23  1  0  0  0  0
  7 24  1  0  0  0  0
  8 11  2  0  0  0  0
  8 14  1  0  0  0  0
  9 10  2  0  0  0  0
  9 12  1  0  0  0  0
 10 13  1  0  0  0  0
 11 16  1  0  0  0  0
 11 25  1  0  0  0  0
 12 17  2  0  0  0  0
 12 26  1  0  0  0  0
 13 15  2  0  0  0  0
 13 27  1  0  0  0  0
 14 18  2  0  0  0  0
 14 28  1  0  0  0  0
 15 17  1  0  0  0  0
 15 22  1  0  0  0  0
 16 19  2  0  0  0  0
 17 29  1  0  0  0  0
 18 19  1  0  0  0  0
 18 30  1  0  0  0  0
 19 31  1  0  0  0  0
 20 21  1  0  0  0  0
 20 32  1  0  0  0  0
 20 33  1  0  0  0  0
 21 34  1  0  0  0  0
 21 35  1  0  0  0  0
 21 36  1  0  0  0  0
 22 37  1  0  0  0  0
M  CHG  2   4  -1   6   1
M  END
> <PUBCHEM_COMPOUND_CID>
585993

> <PUBCHEM_CONFORMER_RMSD>
0.8

> <PUBCHEM_CONFORMER_DIVERSEORDER>
1
72
64
108
66
32
89
87
29
106
90
119
81
84
11
25
63
97
38
37
65
67
23
46
74
28
86
120
43
107
76
92
22
19
17
75
105
68
57
35
121
4
85
56
36
83
52
44
2
71
73
42
54
33
20
59
30
95
109
77
91
94
117
82
125
40
26
124
99
98
3
69
27
101
70
113
93
88
115
8
21
18
102
122
62
112
12
10
49
96
58
110
100
78
5
61
34
41
16
48
9
80
55
15
13
39
104
123
60
116
7
53
14
47
118
45
50
111
79
103
31
24
6
51
114

> <PUBCHEM_MMFF94_PARTIAL_CHARGES>
29
1 -0.36
10 0.08
11 -0.15
12 -0.15
13 -0.15
14 -0.15
15 0.09
16 0.13
17 -0.15
18 -0.15
19 -0.15
2 -0.36
20 0.28
22 0.42
25 0.15
26 0.15
27 0.15
28 0.15
29 0.15
3 -0.57
30 0.15
31 0.15
37 0.06
4 -0.52
5 -0.52
6 0.91
7 0.42
8 -0.14
9 0.08

> <PUBCHEM_EFFECTIVE_ROTOR_COUNT>
7

> <PUBCHEM_PHARMACOPHORE_FEATURES>
8
1 1 acceptor
1 2 acceptor
1 3 acceptor
1 4 acceptor
1 4 anion
1 5 acceptor
6 8 11 14 16 18 19 rings
6 9 10 12 13 15 17 rings

> <PUBCHEM_HEAVY_ATOM_COUNT>
22

> <PUBCHEM_ATOM_DEF_STEREO_COUNT>
0

> <PUBCHEM_ATOM_UDEF_STEREO_COUNT>
0

> <PUBCHEM_BOND_DEF_STEREO_COUNT>
0

> <PUBCHEM_BOND_UDEF_STEREO_COUNT>
0

> <PUBCHEM_ISOTOPIC_ATOM_COUNT>
0

> <PUBCHEM_COMPONENT_COUNT>
1

> <PUBCHEM_CACTVS_TAUTO_COUNT>
1

> <PUBCHEM_CONFORMER_ID>
0008F10900000001

> <PUBCHEM_MMFF94_ENERGY>
74.205

> <PUBCHEM_FEATURE_SELFOVERLAP>
40.681

> <PUBCHEM_SHAPE_FINGERPRINT>
10616163 171 18264487282918003262
10759866 29 18269829835924553996
12107183 9 17979352285317603969
12236239 1 18413103944686602161
12553582 1 18337684074282021100
12592029 89 18334569166251105267
12633257 1 18187083936048808742
12788726 201 17822278098303618528
13167823 11 18411981372920348193
13533116 47 18340486677591522753
13551218 46 18409448102746464943
13862211 1 18260833662114423919
14341114 176 18343014480646090699
14617045 38 18341324509936467060
15196674 1 18410856576925394193
15537594 2 18337668620757367332
1813 80 17418094316945408500
20028762 73 17968382260534335927
20645477 70 18059859463095565760
21065198 48 18410287021434065281
21267235 1 18410569617802869746
23559900 14 17894896452315106652
2838139 119 6626653708499039955
3004659 81 18411132554897828036
3680242 22 18336821000050144954
465052 167 18343012264685630555
5104073 3 18334573555576125497
7970288 3 17985275324634547898

> <PUBCHEM_SHAPE_MULTIPOLES>
418.42
11.96
2.94
0.92
4.2
1.34
-0.01
1.43
2.37
-1.73
-0.29
-0.2
0.18
-1.36

> <PUBCHEM_SHAPE_SELFOVERLAP>
888.918

> <PUBCHEM_SHAPE_VOLUME>
233.8

> <PUBCHEM_COORDINATE_TYPE>
2
5
10

$$$$

