17395446
  -OEChem-06241222502D

 42 45  0     0  0  0  0  0  0999 V2000
   12.7086    0.3047    0.0000 O   0  0  0  0  0  0  0  0  0  0  0  0
   12.7086   -1.3047    0.0000 O   0  0  0  0  0  0  0  0  0  0  0  0
    7.4323    1.5000    0.0000 O   0  0  0  0  0  0  0  0  0  0  0  0
    8.2983    0.0000    0.0000 N   0  0  0  0  0  0  0  0  0  0  0  0
    4.9836   -0.3364    0.0000 N   0  0  0  0  0  0  0  0  0  0  0  0
    5.4836   -1.2024    0.0000 N   0  0  0  0  0  0  0  0  0  0  0  0
    9.1643    0.5000    0.0000 C   0  0  0  0  0  0  0  0  0  0  0  0
   10.0303    0.0000    0.0000 C   0  0  0  0  0  0  0  0  0  0  0  0
   10.8964    0.5000    0.0000 C   0  0  0  0  0  0  0  0  0  0  0  0
   11.7624    0.0000    0.0000 C   0  0  0  0  0  0  0  0  0  0  0  0
   11.7624   -1.0000    0.0000 C   0  0  0  0  0  0  0  0  0  0  0  0
   10.0303   -1.0000    0.0000 C   0  0  0  0  0  0  0  0  0  0  0  0
    7.4323    0.5000    0.0000 C   0  0  0  0  0  0  0  0  0  0  0  0
    6.5662    0.0000    0.0000 C   0  0  0  0  0  0  0  0  0  0  0  0
   10.8964   -1.5000    0.0000 C   0  0  0  0  0  0  0  0  0  0  0  0
    8.2983   -1.0000    0.0000 C   0  0  0  0  0  0  0  0  0  0  0  0
    5.6527    0.4067    0.0000 C   0  0  0  0  0  0  0  0  0  0  0  0
   13.2922   -0.5000    0.0000 C   0  0  0  0  0  0  0  0  0  0  0  0
    6.4617   -0.9945    0.0000 C   0  0  0  0  0  0  0  0  0  0  0  0
    3.9890   -0.2319    0.0000 C   0  0  0  0  0  0  0  0  0  0  0  0
    3.5823    0.6817    0.0000 C   0  0  0  0  0  0  0  0  0  0  0  0
    3.4013   -1.0409    0.0000 C   0  0  0  0  0  0  0  0  0  0  0  0
    2.5878    0.7862    0.0000 C   0  0  0  0  0  0  0  0  0  0  0  0
    2.4067   -0.9364    0.0000 C   0  0  0  0  0  0  0  0  0  0  0  0
    2.0000   -0.0228    0.0000 C   0  0  0  0  0  0  0  0  0  0  0  0
    9.5628    0.9749    0.0000 H   0  0  0  0  0  0  0  0  0  0  0  0
    8.7658    0.9749    0.0000 H   0  0  0  0  0  0  0  0  0  0  0  0
   10.8964    1.1200    0.0000 H   0  0  0  0  0  0  0  0  0  0  0  0
    9.4934   -1.3100    0.0000 H   0  0  0  0  0  0  0  0  0  0  0  0
   10.8964   -2.1200    0.0000 H   0  0  0  0  0  0  0  0  0  0  0  0
    7.6783   -1.0000    0.0000 H   0  0  0  0  0  0  0  0  0  0  0  0
    8.2983   -1.6200    0.0000 H   0  0  0  0  0  0  0  0  0  0  0  0
    8.9183   -1.0000    0.0000 H   0  0  0  0  0  0  0  0  0  0  0  0
    5.5238    1.0132    0.0000 H   0  0  0  0  0  0  0  0  0  0  0  0
   13.7531   -0.9147    0.0000 H   0  0  0  0  0  0  0  0  0  0  0  0
   13.7531   -0.0853    0.0000 H   0  0  0  0  0  0  0  0  0  0  0  0
    6.9225   -1.4094    0.0000 H   0  0  0  0  0  0  0  0  0  0  0  0
    3.9467    1.1833    0.0000 H   0  0  0  0  0  0  0  0  0  0  0  0
    3.6534   -1.6073    0.0000 H   0  0  0  0  0  0  0  0  0  0  0  0
    2.3356    1.3526    0.0000 H   0  0  0  0  0  0  0  0  0  0  0  0
    2.0423   -1.4380    0.0000 H   0  0  0  0  0  0  0  0  0  0  0  0
    1.3834    0.0420    0.0000 H   0  0  0  0  0  0  0  0  0  0  0  0
  1 10  1  0  0  0  0
  1 18  1  0  0  0  0
  2 11  1  0  0  0  0
  2 18  1  0  0  0  0
  3 13  2  0  0  0  0
  4  7  1  0  0  0  0
  4 13  1  0  0  0  0
  4 16  1  0  0  0  0
  5  6  1  0  0  0  0
  5 17  1  0  0  0  0
  5 20  1  0  0  0  0
  6 19  2  0  0  0  0
  7  8  1  0  0  0  0
  7 26  1  0  0  0  0
  7 27  1  0  0  0  0
  8  9  2  0  0  0  0
  8 12  1  0  0  0  0
  9 10  1  0  0  0  0
  9 28  1  0  0  0  0
 10 11  2  0  0  0  0
 11 15  1  0  0  0  0
 12 15  2  0  0  0  0
 12 29  1  0  0  0  0
 13 14  1  0  0  0  0
 14 17  2  0  0  0  0
 14 19  1  0  0  0  0
 15 30  1  0  0  0  0
 16 31  1  0  0  0  0
 16 32  1  0  0  0  0
 16 33  1  0  0  0  0
 17 34  1  0  0  0  0
 18 35  1  0  0  0  0
 18 36  1  0  0  0  0
 19 37  1  0  0  0  0
 20 21  2  0  0  0  0
 20 22  1  0  0  0  0
 21 23  1  0  0  0  0
 21 38  1  0  0  0  0
 22 24  2  0  0  0  0
 22 39  1  0  0  0  0
 23 25  2  0  0  0  0
 23 40  1  0  0  0  0
 24 25  1  0  0  0  0
 24 41  1  0  0  0  0
 25 42  1  0  0  0  0
M  END
> <PUBCHEM_COMPOUND_CID>
17395446

> <PUBCHEM_COMPOUND_CANONICALIZED>
1

> <PUBCHEM_CACTVS_COMPLEXITY>
469

> <PUBCHEM_CACTVS_HBOND_ACCEPTOR>
4

> <PUBCHEM_CACTVS_HBOND_DONOR>
0

> <PUBCHEM_CACTVS_ROTATABLE_BOND>
4

> <PUBCHEM_CACTVS_SUBSKEYS>
AAADceB7MAAAAAAAAAAAAAAAAAAAAWJAAAAwYAAAAAAAAEgB0AAAHgAIAAAADAzBmgc+zpMIBACqAjV3VACSDCA1ogAYmCEu7NgdJurE8duktKpkzhHO6Mew0BIOIAABAAAAQABAAAIAAACAAAAAAAAAAA==

> <PUBCHEM_IUPAC_OPENEYE_NAME>
N-(1,3-benzodioxol-5-ylmethyl)-N-methyl-1-phenyl-pyrazole-4-carboxamide

> <PUBCHEM_IUPAC_CAS_NAME>
N-(1,3-benzodioxol-5-ylmethyl)-N-methyl-1-phenyl-4-pyrazolecarboxamide

> <PUBCHEM_IUPAC_NAME>
N-(1,3-benzodioxol-5-ylmethyl)-N-methyl-1-phenylpyrazole-4-carboxamide

> <PUBCHEM_IUPAC_SYSTEMATIC_NAME>
N-(1,3-benzodioxol-5-ylmethyl)-N-methyl-1-phenyl-pyrazole-4-carboxamide

> <PUBCHEM_IUPAC_TRADITIONAL_NAME>
N-methyl-1-phenyl-N-piperonyl-pyrazole-4-carboxamide

> <PUBCHEM_IUPAC_INCHI>
InChI=1S/C19H17N3O3/c1-21(11-14-7-8-17-18(9-14)25-13-24-17)19(23)15-10-20-22(12-15)16-5-3-2-4-6-16/h2-10,12H,11,13H2,1H3

> <PUBCHEM_IUPAC_INCHIKEY>
LPYJCASDHMHJQX-UHFFFAOYSA-N

> <PUBCHEM_XLOGP3_AA>
2.7

> <PUBCHEM_EXACT_MASS>
335.126991

> <PUBCHEM_MOLECULAR_FORMULA>
C19H17N3O3

> <PUBCHEM_MOLECULAR_WEIGHT>
335.35658

> <PUBCHEM_OPENEYE_CAN_SMILES>
CN(CC1=CC2=C(C=C1)OCO2)C(=O)C3=CN(N=C3)C4=CC=CC=C4

> <PUBCHEM_OPENEYE_ISO_SMILES>
CN(CC1=CC2=C(C=C1)OCO2)C(=O)C3=CN(N=C3)C4=CC=CC=C4

> <PUBCHEM_CACTVS_TPSA>
56.6

> <PUBCHEM_MONOISOTOPIC_WEIGHT>
335.126991

> <PUBCHEM_TOTAL_CHARGE>
0

> <PUBCHEM_HEAVY_ATOM_COUNT>
25

> <PUBCHEM_ATOM_DEF_STEREO_COUNT>
0

> <PUBCHEM_ATOM_UDEF_STEREO_COUNT>
0

> <PUBCHEM_BOND_DEF_STEREO_COUNT>
0

> <PUBCHEM_BOND_UDEF_STEREO_COUNT>
0

> <PUBCHEM_ISOTOPIC_ATOM_COUNT>
0

> <PUBCHEM_COMPONENT_COUNT>
1

> <PUBCHEM_CACTVS_TAUTO_COUNT>
1

> <PUBCHEM_COORDINATE_TYPE>
1
5
255

> <PUBCHEM_BONDANNOTATIONS>
10  11  8
11  15  8
12  15  8
14  17  8
14  19  8
20  21  8
20  22  8
21  23  8
22  24  8
23  25  8
24  25  8
5  17  8
5  6  8
6  19  8
8  12  8
8  9  8
9  10  8

$$$$

