9548566
  -OEChem-07051212492D

 18 17  0     0  0  0  0  0  0999 V2000
    2.8660   -0.4400    0.0000 O   0  0  0  0  0  0  0  0  0  0  0  0
    3.7320    0.0600    0.0000 N   0  0  0  0  0  0  0  0  0  0  0  0
    5.4641    0.0600    0.0000 C   0  0  0  0  0  0  0  0  0  0  0  0
    6.3301   -0.4400    0.0000 C   0  0  0  0  0  0  0  0  0  0  0  0
    5.4641    1.0600    0.0000 C   0  0  0  0  0  0  0  0  0  0  0  0
    4.5981   -0.4400    0.0000 C   0  0  0  0  0  0  0  0  0  0  0  0
    2.0000    0.0600    0.0000 C   0  0  0  0  0  0  0  0  0  0  0  0
    5.4641   -0.5600    0.0000 H   0  0  0  0  0  0  0  0  0  0  0  0
    6.0841    1.0600    0.0000 H   0  0  0  0  0  0  0  0  0  0  0  0
    5.4641    1.6800    0.0000 H   0  0  0  0  0  0  0  0  0  0  0  0
    4.8441    1.0600    0.0000 H   0  0  0  0  0  0  0  0  0  0  0  0
    6.0201   -0.9769    0.0000 H   0  0  0  0  0  0  0  0  0  0  0  0
    6.8671   -0.7500    0.0000 H   0  0  0  0  0  0  0  0  0  0  0  0
    6.6401    0.0969    0.0000 H   0  0  0  0  0  0  0  0  0  0  0  0
    4.5981   -1.0600    0.0000 H   0  0  0  0  0  0  0  0  0  0  0  0
    2.3100    0.5969    0.0000 H   0  0  0  0  0  0  0  0  0  0  0  0
    1.4631    0.3700    0.0000 H   0  0  0  0  0  0  0  0  0  0  0  0
    1.6900   -0.4769    0.0000 H   0  0  0  0  0  0  0  0  0  0  0  0
  1  2  1  0  0  0  0
  1  7  1  0  0  0  0
  2  6  2  0  0  0  0
  3  4  1  0  0  0  0
  3  5  1  0  0  0  0
  3  6  1  0  0  0  0
  3  8  1  0  0  0  0
  4 12  1  0  0  0  0
  4 13  1  0  0  0  0
  4 14  1  0  0  0  0
  5  9  1  0  0  0  0
  5 10  1  0  0  0  0
  5 11  1  0  0  0  0
  6 15  1  0  0  0  0
  7 16  1  0  0  0  0
  7 17  1  0  0  0  0
  7 18  1  0  0  0  0
M  END
> <PUBCHEM_COMPOUND_CID>
9548566

> <PUBCHEM_COMPOUND_CANONICALIZED>
1

> <PUBCHEM_CACTVS_COMPLEXITY>
59.1

> <PUBCHEM_CACTVS_HBOND_ACCEPTOR>
2

> <PUBCHEM_CACTVS_HBOND_DONOR>
0

> <PUBCHEM_CACTVS_ROTATABLE_BOND>
2

> <PUBCHEM_CACTVS_SUBSKEYS>
AAADccBiIAAAAAAAAAAAAAAAAAAAAAAAAAAAAAAAAAAAAAAAAAAAHgAEAAAADQDBAAYCAAAQAAAgABAhAAAAAAAAAAAAAAAwAAAAAAAAAAAAAAAAAAAAAAAAAAAAAAAAAAAAAAAAAAAAAAAAAAAAAAAAAA==

> <PUBCHEM_IUPAC_OPENEYE_NAME>
N-methoxy-2-methyl-propan-1-imine

> <PUBCHEM_IUPAC_CAS_NAME>
N-methoxy-2-methyl-1-propanimine

> <PUBCHEM_IUPAC_NAME>
N-methoxy-2-methylpropan-1-imine

> <PUBCHEM_IUPAC_SYSTEMATIC_NAME>
N-methoxy-2-methyl-propan-1-imine

> <PUBCHEM_IUPAC_TRADITIONAL_NAME>
(E)-methoxy(2-methylpropylidene)amine

> <PUBCHEM_IUPAC_INCHI>
InChI=1S/C5H11NO/c1-5(2)4-6-7-3/h4-5H,1-3H3/b6-4+

> <PUBCHEM_IUPAC_INCHIKEY>
BWDHKWDASNPZLC-GQCTYLIASA-N

> <PUBCHEM_XLOGP3_AA>
1.4

> <PUBCHEM_EXACT_MASS>
101.084064

> <PUBCHEM_MOLECULAR_FORMULA>
C5H11NO

> <PUBCHEM_MOLECULAR_WEIGHT>
101.14694

> <PUBCHEM_OPENEYE_CAN_SMILES>
CC(C)C=NOC

> <PUBCHEM_OPENEYE_ISO_SMILES>
CC(C)/C=N/OC

> <PUBCHEM_CACTVS_TPSA>
21.6

> <PUBCHEM_MONOISOTOPIC_WEIGHT>
101.084064

> <PUBCHEM_TOTAL_CHARGE>
0

> <PUBCHEM_HEAVY_ATOM_COUNT>
7

> <PUBCHEM_ATOM_DEF_STEREO_COUNT>
0

> <PUBCHEM_ATOM_UDEF_STEREO_COUNT>
0

> <PUBCHEM_BOND_DEF_STEREO_COUNT>
1

> <PUBCHEM_BOND_UDEF_STEREO_COUNT>
0

> <PUBCHEM_ISOTOPIC_ATOM_COUNT>
0

> <PUBCHEM_COMPONENT_COUNT>
1

> <PUBCHEM_CACTVS_TAUTO_COUNT>
2

> <PUBCHEM_COORDINATE_TYPE>
1
5
255

$$$$

