6174
  -OEChem-06261201092D

 58 57  0     1  0  0  0  0  0999 V2000
    2.2690    4.1977    0.0000 O   0  0  0  0  0  0  0  0  0  0  0  0
    3.1350    6.6977    0.0000 O   0  0  0  0  0  0  0  0  0  0  0  0
    9.6730    0.3100    0.0000 O   0  0  0  0  0  0  0  0  0  0  0  0
   10.5390    2.8100    0.0000 O   0  0  0  0  0  0  0  0  0  0  0  0
   12.2711    1.8100    0.0000 O   0  0  0  0  0  0  0  0  0  0  0  0
    7.9409    1.3100    0.0000 O   0  0  0  0  0  0  0  0  0  0  0  0
    4.8671    5.6977    0.0000 O   0  0  0  0  0  0  0  0  0  0  0  0
    0.5369    5.1977    0.0000 O   0  0  0  0  0  0  0  0  0  0  0  0
    1.4030    6.6977    0.0000 O   0  0  0  0  0  0  0  0  0  0  0  0
    4.0010    4.1977    0.0000 O   0  0  0  0  0  0  0  0  0  0  0  0
    8.8070    2.8100    0.0000 O   0  0  0  0  0  0  0  0  0  0  0  0
   11.4050    0.3100    0.0000 O   0  0  0  0  0  0  0  0  0  0  0  0
    9.7704    9.3278    0.0000 N   0  0  3  0  0  0  0  0  0  0  0  0
   11.4454    6.2400    0.0000 N   0  0  0  0  0  0  0  0  0  0  0  0
   10.5794    8.7400    0.0000 C   0  0  3  0  0  0  0  0  0  0  0  0
   11.3884    9.3278    0.0000 C   0  0  0  0  0  0  0  0  0  0  0  0
   11.0794   10.2788    0.0000 C   0  0  0  0  0  0  0  0  0  0  0  0
   10.0794   10.2788    0.0000 C   0  0  0  0  0  0  0  0  0  0  0  0
   10.5794    7.7400    0.0000 C   0  0  0  0  0  0  0  0  0  0  0  0
    8.8193    9.0188    0.0000 C   0  0  0  0  0  0  0  0  0  0  0  0
    9.7134    7.2400    0.0000 C   0  0  0  0  0  0  0  0  0  0  0  0
   11.4454    7.2400    0.0000 C   0  0  0  0  0  0  0  0  0  0  0  0
    9.7134    6.2400    0.0000 C   0  0  0  0  0  0  0  0  0  0  0  0
   10.5794    5.7400    0.0000 C   0  0  0  0  0  0  0  0  0  0  0  0
    2.2690    5.1977    0.0000 C   0  0  2  0  0  0  0  0  0  0  0  0
    3.1350    5.6977    0.0000 C   0  0  2  0  0  0  0  0  0  0  0  0
    9.6730    1.3100    0.0000 C   0  0  2  0  0  0  0  0  0  0  0  0
   10.5390    1.8100    0.0000 C   0  0  2  0  0  0  0  0  0  0  0  0
   11.4050    1.3100    0.0000 C   0  0  0  0  0  0  0  0  0  0  0  0
    8.8070    1.8100    0.0000 C   0  0  0  0  0  0  0  0  0  0  0  0
    4.0010    5.1977    0.0000 C   0  0  0  0  0  0  0  0  0  0  0  0
    1.4030    5.6977    0.0000 C   0  0  0  0  0  0  0  0  0  0  0  0
   11.1318    8.4585    0.0000 H   0  0  0  0  0  0  0  0  0  0  0  0
   11.6984    8.7908    0.0000 H   0  0  0  0  0  0  0  0  0  0  0  0
   11.9548    9.5800    0.0000 H   0  0  0  0  0  0  0  0  0  0  0  0
   11.6858   10.4077    0.0000 H   0  0  0  0  0  0  0  0  0  0  0  0
   11.0146   10.8954    0.0000 H   0  0  0  0  0  0  0  0  0  0  0  0
   10.1442   10.8954    0.0000 H   0  0  0  0  0  0  0  0  0  0  0  0
    9.4729   10.4077    0.0000 H   0  0  0  0  0  0  0  0  0  0  0  0
    8.6277    9.6084    0.0000 H   0  0  0  0  0  0  0  0  0  0  0  0
    8.2296    8.8272    0.0000 H   0  0  0  0  0  0  0  0  0  0  0  0
    9.0109    8.4291    0.0000 H   0  0  0  0  0  0  0  0  0  0  0  0
    9.1764    7.5500    0.0000 H   0  0  0  0  0  0  0  0  0  0  0  0
   11.9823    7.5500    0.0000 H   0  0  0  0  0  0  0  0  0  0  0  0
    9.1764    5.9300    0.0000 H   0  0  0  0  0  0  0  0  0  0  0  0
   10.5794    5.1200    0.0000 H   0  0  0  0  0  0  0  0  0  0  0  0
   10.0021    2.1200    0.0000 H   0  0  0  0  0  0  0  0  0  0  0  0
   10.2099    1.0000    0.0000 H   0  0  0  0  0  0  0  0  0  0  0  0
    3.6720    6.0077    0.0000 H   0  0  0  0  0  0  0  0  0  0  0  0
    2.8059    4.8877    0.0000 H   0  0  0  0  0  0  0  0  0  0  0  0
   11.0759    3.1200    0.0000 H   0  0  0  0  0  0  0  0  0  0  0  0
    9.1360    0.0000    0.0000 H   0  0  0  0  0  0  0  0  0  0  0  0
    3.6720    7.0077    0.0000 H   0  0  0  0  0  0  0  0  0  0  0  0
    1.7320    3.8877    0.0000 H   0  0  0  0  0  0  0  0  0  0  0  0
   12.8080    1.5000    0.0000 H   0  0  0  0  0  0  0  0  0  0  0  0
    7.4040    1.6200    0.0000 H   0  0  0  0  0  0  0  0  0  0  0  0
    5.4040    5.3877    0.0000 H   0  0  0  0  0  0  0  0  0  0  0  0
    0.0000    5.5077    0.0000 H   0  0  0  0  0  0  0  0  0  0  0  0
 25  1  1  1  0  0  0
  1 54  1  0  0  0  0
 26  2  1  1  0  0  0
  2 53  1  0  0  0  0
 27  3  1  1  0  0  0
  3 52  1  0  0  0  0
 28  4  1  1  0  0  0
  4 51  1  0  0  0  0
  5 29  1  0  0  0  0
  5 55  1  0  0  0  0
  6 30  1  0  0  0  0
  6 56  1  0  0  0  0
  7 31  1  0  0  0  0
  7 57  1  0  0  0  0
  8 32  1  0  0  0  0
  8 58  1  0  0  0  0
  9 32  2  0  0  0  0
 10 31  2  0  0  0  0
 11 30  2  0  0  0  0
 12 29  2  0  0  0  0
 13 15  1  0  0  0  0
 13 18  1  0  0  0  0
 13 20  1  0  0  0  0
 14 22  1  0  0  0  0
 14 24  2  0  0  0  0
 15 16  1  0  0  0  0
 15 19  1  0  0  0  0
 15 33  1  0  0  0  0
 16 17  1  0  0  0  0
 16 34  1  0  0  0  0
 16 35  1  0  0  0  0
 17 18  1  0  0  0  0
 17 36  1  0  0  0  0
 17 37  1  0  0  0  0
 18 38  1  0  0  0  0
 18 39  1  0  0  0  0
 19 21  1  0  0  0  0
 19 22  2  0  0  0  0
 20 40  1  0  0  0  0
 20 41  1  0  0  0  0
 20 42  1  0  0  0  0
 21 23  2  0  0  0  0
 21 43  1  0  0  0  0
 22 44  1  0  0  0  0
 23 24  1  0  0  0  0
 23 45  1  0  0  0  0
 24 46  1  0  0  0  0
 25 26  1  0  0  0  0
 25 32  1  0  0  0  0
 25 50  1  0  0  0  0
 26 31  1  0  0  0  0
 26 49  1  0  0  0  0
 27 28  1  0  0  0  0
 27 30  1  0  0  0  0
 27 48  1  0  0  0  0
 28 29  1  0  0  0  0
 28 47  1  0  0  0  0
M  END
> <PUBCHEM_COMPOUND_CID>
6174

> <PUBCHEM_COMPOUND_CANONICALIZED>
1

> <PUBCHEM_CACTVS_COMPLEXITY>
281

> <PUBCHEM_CACTVS_HBOND_ACCEPTOR>
14

> <PUBCHEM_CACTVS_HBOND_DONOR>
8

> <PUBCHEM_CACTVS_ROTATABLE_BOND>
7

> <PUBCHEM_CACTVS_SUBSKEYS>
AAADceB7PAAAAAAAAAAAAAAAAAAAAWAAAAAsAAAAAAAAAAABgAAAHgAACAAADDzhmgY+iJMIEgCoAjD3TAKCgCAxAiAI2CF4ZJgJMPbA0ZGEYAhloADJyAdTgIAOAAAAAAAAAAAAAAAAAAAAAAAAAAAAAA==

> <PUBCHEM_IUPAC_OPENEYE_NAME>
(2R,3R)-2,3-dihydroxybutanedioic acid; 3-(1-methylpyrrolidin-2-yl)pyridine

> <PUBCHEM_IUPAC_CAS_NAME>
(2R,3R)-2,3-dihydroxybutanedioic acid; 3-(1-methyl-2-pyrrolidinyl)pyridine

> <PUBCHEM_IUPAC_NAME>
(2R,3R)-2,3-dihydroxybutanedioic acid; 3-(1-methylpyrrolidin-2-yl)pyridine

> <PUBCHEM_IUPAC_SYSTEMATIC_NAME>
(2R,3R)-2,3-bis(oxidanyl)butanedioic acid; 3-(1-methylpyrrolidin-2-yl)pyridine

> <PUBCHEM_IUPAC_TRADITIONAL_NAME>
(2R,3R)-2,3-dihydroxysuccinic acid; nicotine

> <PUBCHEM_IUPAC_INCHI>
InChI=1S/C10H14N2.2C4H6O6/c1-12-7-3-5-10(12)9-4-2-6-11-8-9;2*5-1(3(7)8)2(6)4(9)10/h2,4,6,8,10H,3,5,7H2,1H3;2*1-2,5-6H,(H,7,8)(H,9,10)/t;2*1-,2-/m.11/s1

> <PUBCHEM_IUPAC_INCHIKEY>
RFEJUZJILGIRHQ-WBPXWQEISA-N

> <PUBCHEM_EXACT_MASS>
462.148574

> <PUBCHEM_MOLECULAR_FORMULA>
C18H26N2O12

> <PUBCHEM_MOLECULAR_WEIGHT>
462.40524

> <PUBCHEM_OPENEYE_CAN_SMILES>
CN1CCCC1C2=CN=CC=C2.C(C(C(=O)O)O)(C(=O)O)O.C(C(C(=O)O)O)(C(=O)O)O

> <PUBCHEM_OPENEYE_ISO_SMILES>
CN1CCCC1C2=CN=CC=C2.[C@@H]([C@H](C(=O)O)O)(C(=O)O)O.[C@@H]([C@H](C(=O)O)O)(C(=O)O)O

> <PUBCHEM_CACTVS_TPSA>
246

> <PUBCHEM_MONOISOTOPIC_WEIGHT>
462.148574

> <PUBCHEM_TOTAL_CHARGE>
0

> <PUBCHEM_HEAVY_ATOM_COUNT>
32

> <PUBCHEM_ATOM_DEF_STEREO_COUNT>
4

> <PUBCHEM_ATOM_UDEF_STEREO_COUNT>
1

> <PUBCHEM_BOND_DEF_STEREO_COUNT>
0

> <PUBCHEM_BOND_UDEF_STEREO_COUNT>
0

> <PUBCHEM_ISOTOPIC_ATOM_COUNT>
0

> <PUBCHEM_COMPONENT_COUNT>
3

> <PUBCHEM_CACTVS_TAUTO_COUNT>
1

> <PUBCHEM_COORDINATE_TYPE>
1
5
255

> <PUBCHEM_BONDANNOTATIONS>
25  1  5
14  22  8
14  24  8
15  19  3
19  21  8
19  22  8
26  2  5
21  23  8
23  24  8
27  3  5
28  4  5

$$$$

