10979740
  -OEChem-07051213152D

 55 56  0     1  0  0  0  0  0999 V2000
    5.8301   -4.1830    0.0000 O   0  0  0  0  0  0  0  0  0  0  0  0
    2.0000    3.1830    0.0000 O   0  0  0  0  0  0  0  0  0  0  0  0
    7.1962   -1.8170    0.0000 N   0  0  3  0  0  0  0  0  0  0  0  0
    7.1962   -2.8170    0.0000 C   0  0  2  0  0  0  0  0  0  0  0  0
    6.3301   -3.3170    0.0000 C   0  0  2  0  0  0  0  0  0  0  0  0
    8.1424   -3.1217    0.0000 C   0  0  0  0  0  0  0  0  0  0  0  0
    8.1424   -1.5123    0.0000 C   0  0  0  0  0  0  0  0  0  0  0  0
    8.7260   -2.3170    0.0000 C   0  0  0  0  0  0  0  0  0  0  0  0
    5.4641   -2.8170    0.0000 C   0  0  0  0  0  0  0  0  0  0  0  0
    6.3301   -1.3170    0.0000 C   0  0  0  0  0  0  0  0  0  0  0  0
    5.4641   -1.8170    0.0000 C   0  0  0  0  0  0  0  0  0  0  0  0
    6.8301   -4.1830    0.0000 C   0  0  0  0  0  0  0  0  0  0  0  0
    4.5981   -1.3170    0.0000 C   0  0  0  0  0  0  0  0  0  0  0  0
    4.5981   -0.3170    0.0000 C   0  0  1  0  0  0  0  0  0  0  0  0
    3.7320    0.1830    0.0000 C   0  0  0  0  0  0  0  0  0  0  0  0
    5.4641    0.1830    0.0000 C   0  0  0  0  0  0  0  0  0  0  0  0
    3.7320    1.1830    0.0000 C   0  0  0  0  0  0  0  0  0  0  0  0
    2.8660    1.6830    0.0000 C   0  0  0  0  0  0  0  0  0  0  0  0
    2.8660    2.6830    0.0000 C   0  0  2  0  0  0  0  0  0  0  0  0
    2.0000    1.1830    0.0000 C   0  0  0  0  0  0  0  0  0  0  0  0
    3.7320    3.1830    0.0000 C   0  0  0  0  0  0  0  0  0  0  0  0
    3.7320    4.1830    0.0000 C   0  0  0  0  0  0  0  0  0  0  0  0
    7.2861   -3.6622    0.0000 H   0  0  0  0  0  0  0  0  0  0  0  0
    7.8913   -3.6886    0.0000 H   0  0  0  0  0  0  0  0  0  0  0  0
    8.6798   -3.4310    0.0000 H   0  0  0  0  0  0  0  0  0  0  0  0
    8.6798   -1.2030    0.0000 H   0  0  0  0  0  0  0  0  0  0  0  0
    7.8913   -0.9453    0.0000 H   0  0  0  0  0  0  0  0  0  0  0  0
    9.1868   -2.7317    0.0000 H   0  0  0  0  0  0  0  0  0  0  0  0
    9.1868   -1.9023    0.0000 H   0  0  0  0  0  0  0  0  0  0  0  0
    4.8535   -2.7093    0.0000 H   0  0  0  0  0  0  0  0  0  0  0  0
    5.2520   -3.3996    0.0000 H   0  0  0  0  0  0  0  0  0  0  0  0
    6.7287   -0.8420    0.0000 H   0  0  0  0  0  0  0  0  0  0  0  0
    5.9316   -0.8420    0.0000 H   0  0  0  0  0  0  0  0  0  0  0  0
    6.2932   -4.4930    0.0000 H   0  0  0  0  0  0  0  0  0  0  0  0
    7.1401   -4.7200    0.0000 H   0  0  0  0  0  0  0  0  0  0  0  0
    7.3671   -3.8730    0.0000 H   0  0  0  0  0  0  0  0  0  0  0  0
    5.2101   -4.1830    0.0000 H   0  0  0  0  0  0  0  0  0  0  0  0
    4.0611   -1.6270    0.0000 H   0  0  0  0  0  0  0  0  0  0  0  0
    4.5981    0.3030    0.0000 H   0  0  0  0  0  0  0  0  0  0  0  0
    3.1215    0.2907    0.0000 H   0  0  0  0  0  0  0  0  0  0  0  0
    3.5200   -0.3996    0.0000 H   0  0  0  0  0  0  0  0  0  0  0  0
    5.7741   -0.3539    0.0000 H   0  0  0  0  0  0  0  0  0  0  0  0
    6.0010    0.4930    0.0000 H   0  0  0  0  0  0  0  0  0  0  0  0
    5.1541    0.7199    0.0000 H   0  0  0  0  0  0  0  0  0  0  0  0
    4.2690    1.4930    0.0000 H   0  0  0  0  0  0  0  0  0  0  0  0
    2.8660    3.3030    0.0000 H   0  0  0  0  0  0  0  0  0  0  0  0
    1.6900    1.7200    0.0000 H   0  0  0  0  0  0  0  0  0  0  0  0
    1.4631    0.8730    0.0000 H   0  0  0  0  0  0  0  0  0  0  0  0
    2.3100    0.6461    0.0000 H   0  0  0  0  0  0  0  0  0  0  0  0
    3.9441    2.6004    0.0000 H   0  0  0  0  0  0  0  0  0  0  0  0
    4.3426    3.2907    0.0000 H   0  0  0  0  0  0  0  0  0  0  0  0
    4.3520    4.1830    0.0000 H   0  0  0  0  0  0  0  0  0  0  0  0
    3.7320    4.8030    0.0000 H   0  0  0  0  0  0  0  0  0  0  0  0
    3.1120    4.1830    0.0000 H   0  0  0  0  0  0  0  0  0  0  0  0
    2.0000    3.8030    0.0000 H   0  0  0  0  0  0  0  0  0  0  0  0
  5  1  1  1  0  0  0
  1 37  1  0  0  0  0
 19  2  1  1  0  0  0
  2 55  1  0  0  0  0
  3  4  1  0  0  0  0
  3  7  1  0  0  0  0
  3 10  1  0  0  0  0
  4  5  1  0  0  0  0
  4  6  1  0  0  0  0
  4 23  1  6  0  0  0
  5  9  1  0  0  0  0
  5 12  1  0  0  0  0
  6  8  1  0  0  0  0
  6 24  1  0  0  0  0
  6 25  1  0  0  0  0
  7  8  1  0  0  0  0
  7 26  1  0  0  0  0
  7 27  1  0  0  0  0
  8 28  1  0  0  0  0
  8 29  1  0  0  0  0
  9 11  1  0  0  0  0
  9 30  1  0  0  0  0
  9 31  1  0  0  0  0
 10 11  1  0  0  0  0
 10 32  1  0  0  0  0
 10 33  1  0  0  0  0
 11 13  2  0  0  0  0
 12 34  1  0  0  0  0
 12 35  1  0  0  0  0
 12 36  1  0  0  0  0
 13 14  1  0  0  0  0
 13 38  1  0  0  0  0
 14 15  1  0  0  0  0
 14 16  1  1  0  0  0
 14 39  1  0  0  0  0
 15 17  1  0  0  0  0
 15 40  1  0  0  0  0
 15 41  1  0  0  0  0
 16 42  1  0  0  0  0
 16 43  1  0  0  0  0
 16 44  1  0  0  0  0
 17 18  2  0  0  0  0
 17 45  1  0  0  0  0
 18 19  1  0  0  0  0
 18 20  1  0  0  0  0
 19 21  1  0  0  0  0
 19 46  1  0  0  0  0
 20 47  1  0  0  0  0
 20 48  1  0  0  0  0
 20 49  1  0  0  0  0
 21 22  1  0  0  0  0
 21 50  1  0  0  0  0
 21 51  1  0  0  0  0
 22 52  1  0  0  0  0
 22 53  1  0  0  0  0
 22 54  1  0  0  0  0
M  END
> <PUBCHEM_COMPOUND_CID>
10979740

> <PUBCHEM_COMPOUND_CANONICALIZED>
1

> <PUBCHEM_CACTVS_COMPLEXITY>
443

> <PUBCHEM_CACTVS_HBOND_ACCEPTOR>
3

> <PUBCHEM_CACTVS_HBOND_DONOR>
2

> <PUBCHEM_CACTVS_ROTATABLE_BOND>
5

> <PUBCHEM_CACTVS_SUBSKEYS>
AAADcfB6MAAAAAAAAAAAAAAAAAAAAWAAAAAsAAAAAAAAAFgAAAAAHgAACAAADXzhgAYCAAMAAgCAAiBCAACAAAAgAAAACAAIAAgCFAIAgQAEUAAEwACYEAOwkIIOAAAAAAAAAAAAAAAAAAAAAAAAAAAAAA==

> <PUBCHEM_IUPAC_OPENEYE_NAME>
(6Z,8S,8aS)-6-[(E,2R,6S)-6-hydroxy-2,5-dimethyl-oct-4-enylidene]-8-methyl-1,2,3,5,7,8a-hexahydroindolizin-8-ol

> <PUBCHEM_IUPAC_CAS_NAME>
(6Z,8S,8aS)-6-[(E,2R,6S)-6-hydroxy-2,5-dimethyloct-4-enylidene]-8-methyl-1,2,3,5,7,8a-hexahydroindolizin-8-ol

> <PUBCHEM_IUPAC_NAME>
(6Z,8S,8aS)-6-[(E,2R,6S)-6-hydroxy-2,5-dimethyloct-4-enylidene]-8-methyl-1,2,3,5,7,8a-hexahydroindolizin-8-ol

> <PUBCHEM_IUPAC_SYSTEMATIC_NAME>
(6Z,8S,8aS)-6-[(E,2R,6S)-2,5-dimethyl-6-oxidanyl-oct-4-enylidene]-8-methyl-1,2,3,5,7,8a-hexahydroindolizin-8-ol

> <PUBCHEM_IUPAC_TRADITIONAL_NAME>
(6Z,8S,8aS)-6-[(E,2R,6S)-6-hydroxy-2,5-dimethyl-oct-4-enylidene]-8-methyl-indolizidin-8-ol

> <PUBCHEM_IUPAC_INCHI>
InChI=1S/C19H33NO2/c1-5-17(21)15(3)9-8-14(2)11-16-12-19(4,22)18-7-6-10-20(18)13-16/h9,11,14,17-18,21-22H,5-8,10,12-13H2,1-4H3/b15-9+,16-11-/t14-,17+,18+,19+/m1/s1

> <PUBCHEM_IUPAC_INCHIKEY>
CUBVJLHFQCEJGM-SZIIBLSRSA-N

> <PUBCHEM_XLOGP3_AA>
2.8

> <PUBCHEM_EXACT_MASS>
307.251129

> <PUBCHEM_MOLECULAR_FORMULA>
C19H33NO2

> <PUBCHEM_MOLECULAR_WEIGHT>
307.47082

> <PUBCHEM_OPENEYE_CAN_SMILES>
CCC(C(=CCC(C)C=C1CC(C2CCCN2C1)(C)O)C)O

> <PUBCHEM_OPENEYE_ISO_SMILES>
CC[C@@H](/C(=C/C[C@@H](C)/C=C\1/C[C@]([C@@H]2CCCN2C1)(C)O)/C)O

> <PUBCHEM_CACTVS_TPSA>
43.7

> <PUBCHEM_MONOISOTOPIC_WEIGHT>
307.251129

> <PUBCHEM_TOTAL_CHARGE>
0

> <PUBCHEM_HEAVY_ATOM_COUNT>
22

> <PUBCHEM_ATOM_DEF_STEREO_COUNT>
4

> <PUBCHEM_ATOM_UDEF_STEREO_COUNT>
0

> <PUBCHEM_BOND_DEF_STEREO_COUNT>
2

> <PUBCHEM_BOND_UDEF_STEREO_COUNT>
0

> <PUBCHEM_ISOTOPIC_ATOM_COUNT>
0

> <PUBCHEM_COMPONENT_COUNT>
1

> <PUBCHEM_CACTVS_TAUTO_COUNT>
1

> <PUBCHEM_COORDINATE_TYPE>
1
5
255

> <PUBCHEM_BONDANNOTATIONS>
5  1  5
14  16  5
19  2  5
4  23  6

$$$$

