68222
  -OEChem-07051213002D

 32 34  0     0  0  0  0  0  0999 V2000
    8.2103   -0.7824    0.0000 O   0  0  0  0  0  0  0  0  0  0  0  0
    6.3981    2.0223    0.0000 O   0  0  0  0  0  0  0  0  0  0  0  0
    4.6497   -2.0123    0.0000 O   0  0  0  0  0  0  0  0  0  0  0  0
    2.8680    1.0464    0.0000 O   0  0  0  0  0  0  0  0  0  0  0  0
    6.3981   -0.9777    0.0000 N   0  0  0  0  0  0  0  0  0  0  0  0
    5.5320    0.5223    0.0000 C   0  0  0  0  0  0  0  0  0  0  0  0
    5.5320   -0.4777    0.0000 C   0  0  0  0  0  0  0  0  0  0  0  0
    6.3981    1.0223    0.0000 C   0  0  0  0  0  0  0  0  0  0  0  0
    7.2641    0.5223    0.0000 C   0  0  0  0  0  0  0  0  0  0  0  0
    7.2641   -0.4777    0.0000 C   0  0  0  0  0  0  0  0  0  0  0  0
    4.6381   -1.0124    0.0000 C   0  0  0  0  0  0  0  0  0  0  0  0
    4.6381    1.0570    0.0000 C   0  0  0  0  0  0  0  0  0  0  0  0
    3.7320    0.5431    0.0000 C   0  0  0  0  0  0  0  0  0  0  0  0
    3.7320   -0.4985    0.0000 C   0  0  0  0  0  0  0  0  0  0  0  0
    8.2103    0.8270    0.0000 C   0  0  0  0  0  0  0  0  0  0  0  0
    8.7939    0.0223    0.0000 C   0  0  0  0  0  0  0  0  0  0  0  0
    7.2641    2.5223    0.0000 C   0  0  0  0  0  0  0  0  0  0  0  0
    3.7895   -2.5223    0.0000 C   0  0  0  0  0  0  0  0  0  0  0  0
    2.0000    0.5498    0.0000 C   0  0  0  0  0  0  0  0  0  0  0  0
    4.6453    1.6769    0.0000 H   0  0  0  0  0  0  0  0  0  0  0  0
    3.1963   -0.8106    0.0000 H   0  0  0  0  0  0  0  0  0  0  0  0
    8.4029    1.4163    0.0000 H   0  0  0  0  0  0  0  0  0  0  0  0
    9.4139    0.0223    0.0000 H   0  0  0  0  0  0  0  0  0  0  0  0
    7.5741    1.9854    0.0000 H   0  0  0  0  0  0  0  0  0  0  0  0
    7.8010    2.8323    0.0000 H   0  0  0  0  0  0  0  0  0  0  0  0
    6.9541    3.0592    0.0000 H   0  0  0  0  0  0  0  0  0  0  0  0
    3.4733   -1.9890    0.0000 H   0  0  0  0  0  0  0  0  0  0  0  0
    3.2562   -2.8385    0.0000 H   0  0  0  0  0  0  0  0  0  0  0  0
    4.1057   -3.0556    0.0000 H   0  0  0  0  0  0  0  0  0  0  0  0
    1.6921    1.0879    0.0000 H   0  0  0  0  0  0  0  0  0  0  0  0
    1.4619    0.2419    0.0000 H   0  0  0  0  0  0  0  0  0  0  0  0
    2.3079    0.0117    0.0000 H   0  0  0  0  0  0  0  0  0  0  0  0
  1 10  1  0  0  0  0
  1 16  1  0  0  0  0
  2  8  1  0  0  0  0
  2 17  1  0  0  0  0
  3 11  1  0  0  0  0
  3 18  1  0  0  0  0
  4 13  1  0  0  0  0
  4 19  1  0  0  0  0
  5  7  1  0  0  0  0
  5 10  2  0  0  0  0
  6  7  2  0  0  0  0
  6  8  1  0  0  0  0
  6 12  1  0  0  0  0
  7 11  1  0  0  0  0
  8  9  2  0  0  0  0
  9 10  1  0  0  0  0
  9 15  1  0  0  0  0
 11 14  2  0  0  0  0
 12 13  2  0  0  0  0
 12 20  1  0  0  0  0
 13 14  1  0  0  0  0
 14 21  1  0  0  0  0
 15 16  2  0  0  0  0
 15 22  1  0  0  0  0
 16 23  1  0  0  0  0
 17 24  1  0  0  0  0
 17 25  1  0  0  0  0
 17 26  1  0  0  0  0
 18 27  1  0  0  0  0
 18 28  1  0  0  0  0
 18 29  1  0  0  0  0
 19 30  1  0  0  0  0
 19 31  1  0  0  0  0
 19 32  1  0  0  0  0
M  END
> <PUBCHEM_COMPOUND_CID>
68222

> <PUBCHEM_COMPOUND_CANONICALIZED>
1

> <PUBCHEM_CACTVS_COMPLEXITY>
314

> <PUBCHEM_CACTVS_HBOND_ACCEPTOR>
5

> <PUBCHEM_CACTVS_HBOND_DONOR>
0

> <PUBCHEM_CACTVS_ROTATABLE_BOND>
3

> <PUBCHEM_CACTVS_SUBSKEYS>
AAADccByOAAAAAAAAAAAAAAAAAAAASAAAAA8QAAAAAAAAFix/gAAHgAAAAAADAyhngIyxvIIFECoAy1y1ASCiCAtYCAImCEnTNgOJ/bEtZuPOWjn5B3Y6Yf++f2eAEABCAACEAAAgAIQAAQgAAAAAAAAAA==

> <PUBCHEM_IUPAC_OPENEYE_NAME>
4,6,8-trimethoxyfuro[2,3-b]quinoline

> <PUBCHEM_IUPAC_CAS_NAME>
4,6,8-trimethoxyfuro[2,3-b]quinoline

> <PUBCHEM_IUPAC_NAME>
4,6,8-trimethoxyfuro[2,3-b]quinoline

> <PUBCHEM_IUPAC_SYSTEMATIC_NAME>
4,6,8-trimethoxyfuro[2,3-b]quinoline

> <PUBCHEM_IUPAC_TRADITIONAL_NAME>
4,6,8-trimethoxyfuro[2,3-b]quinoline

> <PUBCHEM_IUPAC_INCHI>
InChI=1S/C14H13NO4/c1-16-8-6-10-12(11(7-8)17-2)15-14-9(4-5-19-14)13(10)18-3/h4-7H,1-3H3

> <PUBCHEM_IUPAC_INCHIKEY>
SHAVHFJCSQWTFF-UHFFFAOYSA-N

> <PUBCHEM_XLOGP3_AA>
2.8

> <PUBCHEM_EXACT_MASS>
259.084458

> <PUBCHEM_MOLECULAR_FORMULA>
C14H13NO4

> <PUBCHEM_MOLECULAR_WEIGHT>
259.25732

> <PUBCHEM_OPENEYE_CAN_SMILES>
COC1=CC(=C2C(=C1)C(=C3C=COC3=N2)OC)OC

> <PUBCHEM_OPENEYE_ISO_SMILES>
COC1=CC(=C2C(=C1)C(=C3C=COC3=N2)OC)OC

> <PUBCHEM_CACTVS_TPSA>
53.7

> <PUBCHEM_MONOISOTOPIC_WEIGHT>
259.084458

> <PUBCHEM_TOTAL_CHARGE>
0

> <PUBCHEM_HEAVY_ATOM_COUNT>
19

> <PUBCHEM_ATOM_DEF_STEREO_COUNT>
0

> <PUBCHEM_ATOM_UDEF_STEREO_COUNT>
0

> <PUBCHEM_BOND_DEF_STEREO_COUNT>
0

> <PUBCHEM_BOND_UDEF_STEREO_COUNT>
0

> <PUBCHEM_ISOTOPIC_ATOM_COUNT>
0

> <PUBCHEM_COMPONENT_COUNT>
1

> <PUBCHEM_CACTVS_TAUTO_COUNT>
1

> <PUBCHEM_COORDINATE_TYPE>
1
5
255

> <PUBCHEM_BONDANNOTATIONS>
1  10  8
1  16  8
11  14  8
12  13  8
13  14  8
15  16  8
5  10  8
5  7  8
6  12  8
6  7  8
6  8  8
7  11  8
8  9  8
9  10  8
9  15  8

$$$$

