11954122
  -OEChem-07051213062D

 23 24  0     0  0  0  0  0  0999 V2000
    2.0000    0.1550    0.0000 Cl  0  0  0  0  0  0  0  0  0  0  0  0
    5.4641    1.1550    0.0000 Cl  0  0  0  0  0  0  0  0  0  0  0  0
    5.4641   -1.8450    0.0000 Cl  0  0  0  0  0  0  0  0  0  0  0  0
    3.7320   -2.8450    0.0000 O   0  0  0  0  0  0  0  0  0  0  0  0
    3.7320    0.1550    0.0000 C   0  0  0  0  0  0  0  0  0  0  0  0
    3.7320    1.1550    0.0000 C   0  0  0  0  0  0  0  0  0  0  0  0
    2.8660   -0.3450    0.0000 C   0  0  0  0  0  0  0  0  0  0  0  0
    4.5981   -0.3450    0.0000 C   0  0  0  0  0  0  0  0  0  0  0  0
    4.5981    1.6550    0.0000 C   0  0  0  0  0  0  0  0  0  0  0  0
    2.8660    1.6550    0.0000 C   0  0  0  0  0  0  0  0  0  0  0  0
    4.5981   -1.3450    0.0000 C   0  0  0  0  0  0  0  0  0  0  0  0
    2.8660   -1.3450    0.0000 C   0  0  0  0  0  0  0  0  0  0  0  0
    3.7320   -1.8450    0.0000 C   0  0  0  0  0  0  0  0  0  0  0  0
    4.5981    2.6550    0.0000 C   0  0  0  0  0  0  0  0  0  0  0  0
    2.8660    2.6550    0.0000 C   0  0  0  0  0  0  0  0  0  0  0  0
    3.7320    3.1550    0.0000 C   0  0  0  0  0  0  0  0  0  0  0  0
    5.1350   -0.0350    0.0000 H   0  0  0  0  0  0  0  0  0  0  0  0
    2.3291    1.3450    0.0000 H   0  0  0  0  0  0  0  0  0  0  0  0
    2.3291   -1.6550    0.0000 H   0  0  0  0  0  0  0  0  0  0  0  0
    5.1350    2.9650    0.0000 H   0  0  0  0  0  0  0  0  0  0  0  0
    2.3291    2.9650    0.0000 H   0  0  0  0  0  0  0  0  0  0  0  0
    3.7320    3.7750    0.0000 H   0  0  0  0  0  0  0  0  0  0  0  0
    3.1951   -3.1550    0.0000 H   0  0  0  0  0  0  0  0  0  0  0  0
  1  7  1  0  0  0  0
  2  9  1  0  0  0  0
  3 11  1  0  0  0  0
  4 13  1  0  0  0  0
  4 23  1  0  0  0  0
  5  6  1  0  0  0  0
  5  7  1  0  0  0  0
  5  8  2  0  0  0  0
  6  9  1  0  0  0  0
  6 10  2  0  0  0  0
  7 12  2  0  0  0  0
  8 11  1  0  0  0  0
  8 17  1  0  0  0  0
  9 14  2  0  0  0  0
 10 15  1  0  0  0  0
 10 18  1  0  0  0  0
 11 13  2  0  0  0  0
 12 13  1  0  0  0  0
 12 19  1  0  0  0  0
 14 16  1  0  0  0  0
 14 20  1  0  0  0  0
 15 16  2  0  0  0  0
 15 21  1  0  0  0  0
 16 22  1  0  0  0  0
M  END
> <PUBCHEM_COMPOUND_CID>
11954122

> <PUBCHEM_COMPOUND_CANONICALIZED>
1

> <PUBCHEM_CACTVS_COMPLEXITY>
236

> <PUBCHEM_CACTVS_HBOND_ACCEPTOR>
1

> <PUBCHEM_CACTVS_HBOND_DONOR>
1

> <PUBCHEM_CACTVS_ROTATABLE_BOND>
1

> <PUBCHEM_CACTVS_SUBSKEYS>
AAADcYBwIAAGAAAAAAAAAAAAAAAAAAAAAAAwYAAAAAAAAAABQAAAGgIACAAADAaAmCAwBoAAAgCAAiBCAAACAAAgJUAIiAAGC4gIJiKDExKAcAAkwBEImAeAwPAOoAAQIQABCABAACBCAAIQAAAAAAAAAA==

> <PUBCHEM_IUPAC_OPENEYE_NAME>
2,5-dichloro-4-(2-chlorophenyl)phenol

> <PUBCHEM_IUPAC_CAS_NAME>
2,5-dichloro-4-(2-chlorophenyl)phenol

> <PUBCHEM_IUPAC_NAME>
2,5-dichloro-4-(2-chlorophenyl)phenol

> <PUBCHEM_IUPAC_SYSTEMATIC_NAME>
2,5-bis(chloranyl)-4-(2-chlorophenyl)phenol

> <PUBCHEM_IUPAC_TRADITIONAL_NAME>
2,5-dichloro-4-(2-chlorophenyl)phenol

> <PUBCHEM_IUPAC_INCHI>
InChI=1S/C12H7Cl3O/c13-9-4-2-1-3-7(9)8-5-11(15)12(16)6-10(8)14/h1-6,16H

> <PUBCHEM_IUPAC_INCHIKEY>
BGKASHGJDDQEFI-UHFFFAOYSA-N

> <PUBCHEM_XLOGP3>
5.1

> <PUBCHEM_EXACT_MASS>
271.956248

> <PUBCHEM_MOLECULAR_FORMULA>
C12H7Cl3O

> <PUBCHEM_MOLECULAR_WEIGHT>
273.54238

> <PUBCHEM_OPENEYE_CAN_SMILES>
C1=CC=C(C(=C1)C2=CC(=C(C=C2Cl)O)Cl)Cl

> <PUBCHEM_OPENEYE_ISO_SMILES>
C1=CC=C(C(=C1)C2=CC(=C(C=C2Cl)O)Cl)Cl

> <PUBCHEM_CACTVS_TPSA>
20.2

> <PUBCHEM_MONOISOTOPIC_WEIGHT>
271.956248

> <PUBCHEM_TOTAL_CHARGE>
0

> <PUBCHEM_HEAVY_ATOM_COUNT>
16

> <PUBCHEM_ATOM_DEF_STEREO_COUNT>
0

> <PUBCHEM_ATOM_UDEF_STEREO_COUNT>
0

> <PUBCHEM_BOND_DEF_STEREO_COUNT>
0

> <PUBCHEM_BOND_UDEF_STEREO_COUNT>
0

> <PUBCHEM_ISOTOPIC_ATOM_COUNT>
0

> <PUBCHEM_COMPONENT_COUNT>
1

> <PUBCHEM_CACTVS_TAUTO_COUNT>
3

> <PUBCHEM_COORDINATE_TYPE>
1
5
255

> <PUBCHEM_BONDANNOTATIONS>
10  15  8
11  13  8
12  13  8
14  16  8
15  16  8
5  7  8
5  8  8
6  10  8
6  9  8
7  12  8
8  11  8
9  14  8

$$$$

