9180
  -OEChem-07051213133D

 29 32  0     0  0  0  0  0  0999 V2000
   -1.4070    1.5766    0.0000 N   0  0  0  0  0  0  0  0  0  0  0  0
    0.3453   -0.0986   -0.0005 C   0  0  0  0  0  0  0  0  0  0  0  0
    1.7566   -0.3904   -0.0005 C   0  0  0  0  0  0  0  0  0  0  0  0
   -0.1042    1.2367   -0.0003 C   0  0  0  0  0  0  0  0  0  0  0  0
    2.6774    0.6849   -0.0002 C   0  0  0  0  0  0  0  0  0  0  0  0
   -0.6724   -1.0765   -0.0007 C   0  0  0  0  0  0  0  0  0  0  0  0
   -2.0313   -0.7345   -0.0004 C   0  0  0  0  0  0  0  0  0  0  0  0
   -2.3574    0.6267    0.0000 C   0  0  0  0  0  0  0  0  0  0  0  0
    0.8332    2.2564    0.0000 C   0  0  0  0  0  0  0  0  0  0  0  0
    2.2013    1.9963   -0.0001 C   0  0  0  0  0  0  0  0  0  0  0  0
    2.3034   -1.6983   -0.0002 C   0  0  0  0  0  0  0  0  0  0  0  0
    4.0621    0.4435    0.0004 C   0  0  0  0  0  0  0  0  0  0  0  0
   -3.0459   -1.7088   -0.0002 C   0  0  0  0  0  0  0  0  0  0  0  0
   -3.7043    0.9814    0.0006 C   0  0  0  0  0  0  0  0  0  0  0  0
    3.6821   -1.9266    0.0005 C   0  0  0  0  0  0  0  0  0  0  0  0
    4.5619   -0.8551    0.0007 C   0  0  0  0  0  0  0  0  0  0  0  0
   -4.3855   -1.3314    0.0002 C   0  0  0  0  0  0  0  0  0  0  0  0
   -4.7152    0.0176    0.0007 C   0  0  0  0  0  0  0  0  0  0  0  0
   -0.4157   -2.1339   -0.0009 H   0  0  0  0  0  0  0  0  0  0  0  0
    0.5048    3.2947    0.0002 H   0  0  0  0  0  0  0  0  0  0  0  0
    2.8903    2.8387    0.0002 H   0  0  0  0  0  0  0  0  0  0  0  0
    1.6611   -2.5751   -0.0002 H   0  0  0  0  0  0  0  0  0  0  0  0
    4.7681    1.2721    0.0007 H   0  0  0  0  0  0  0  0  0  0  0  0
   -2.7965   -2.7676   -0.0005 H   0  0  0  0  0  0  0  0  0  0  0  0
   -3.9865    2.0327    0.0011 H   0  0  0  0  0  0  0  0  0  0  0  0
    4.0627   -2.9439    0.0008 H   0  0  0  0  0  0  0  0  0  0  0  0
    5.6339   -1.0272    0.0012 H   0  0  0  0  0  0  0  0  0  0  0  0
   -5.1660   -2.0859    0.0004 H   0  0  0  0  0  0  0  0  0  0  0  0
   -5.7571    0.3242    0.0011 H   0  0  0  0  0  0  0  0  0  0  0  0
  1  4  2  0  0  0  0
  1  8  1  0  0  0  0
  2  3  1  0  0  0  0
  2  4  1  0  0  0  0
  2  6  2  0  0  0  0
  3  5  1  0  0  0  0
  3 11  2  0  0  0  0
  4  9  1  0  0  0  0
  5 10  1  0  0  0  0
  5 12  2  0  0  0  0
  6  7  1  0  0  0  0
  6 19  1  0  0  0  0
  7  8  1  0  0  0  0
  7 13  2  0  0  0  0
  8 14  2  0  0  0  0
  9 10  2  0  0  0  0
  9 20  1  0  0  0  0
 10 21  1  0  0  0  0
 11 15  1  0  0  0  0
 11 22  1  0  0  0  0
 12 16  1  0  0  0  0
 12 23  1  0  0  0  0
 13 17  1  0  0  0  0
 13 24  1  0  0  0  0
 14 18  1  0  0  0  0
 14 25  1  0  0  0  0
 15 16  2  0  0  0  0
 15 26  1  0  0  0  0
 16 27  1  0  0  0  0
 17 18  2  0  0  0  0
 17 28  1  0  0  0  0
 18 29  1  0  0  0  0
M  END
> <PUBCHEM_COMPOUND_CID>
9180

> <PUBCHEM_CONFORMER_RMSD>
0.4

> <PUBCHEM_CONFORMER_DIVERSEORDER>
1

> <PUBCHEM_MMFF94_PARTIAL_CHARGES>
25
1 -0.62
10 -0.15
11 -0.15
12 -0.15
13 -0.15
14 -0.15
15 -0.15
16 -0.15
17 -0.15
18 -0.15
19 0.15
20 0.15
21 0.15
22 0.15
23 0.15
24 0.15
25 0.15
26 0.15
27 0.15
28 0.15
29 0.15
4 0.31
6 -0.15
8 0.31
9 -0.15

> <PUBCHEM_EFFECTIVE_ROTOR_COUNT>
0

> <PUBCHEM_PHARMACOPHORE_FEATURES>
5
1 1 acceptor
6 1 2 4 6 7 8 rings
6 2 3 4 5 9 10 rings
6 3 5 11 12 15 16 rings
6 7 8 13 14 17 18 rings

> <PUBCHEM_HEAVY_ATOM_COUNT>
18

> <PUBCHEM_ATOM_DEF_STEREO_COUNT>
0

> <PUBCHEM_ATOM_UDEF_STEREO_COUNT>
0

> <PUBCHEM_BOND_DEF_STEREO_COUNT>
0

> <PUBCHEM_BOND_UDEF_STEREO_COUNT>
0

> <PUBCHEM_ISOTOPIC_ATOM_COUNT>
0

> <PUBCHEM_COMPONENT_COUNT>
1

> <PUBCHEM_CACTVS_TAUTO_COUNT>
1

> <PUBCHEM_CONFORMER_ID>
000023DC00000001

> <PUBCHEM_MMFF94_ENERGY>
62.9144

> <PUBCHEM_FEATURE_SELFOVERLAP>
25.454

> <PUBCHEM_SHAPE_FINGERPRINT>
10062212 137 18259989258311111663
10616163 171 18263923246148406639
10967382 1 18338517430548388838
11471102 20 18411421687305257804
11806522 49 18412544305978295062
12032990 46 18410854373538378668
12236239 1 17821728321657841375
12403259 226 18411143502653823661
13140716 1 18409158897060555041
13288520 33 18337106860573281294
138480 1 18338517430591444336
13862211 1 18410862074452124882
14115302 16 17775273946230193342
14252887 29 17894623782116011918
14790565 3 17835797504796524004
14866123 147 17397539187439437898
15196674 1 18410856555350123012
15352361 1 18410575123639856270
15442244 35 18409445920771196889
15536298 74 18335140860472968096
16945 1 18266458702628727140
17492 89 18337954463663966647
17804303 29 18409164420093234693
1813 80 17418093221675584692
18186145 218 17703799097913574475
18522853 276 18335139795289410752
19141452 34 18335138687715459959
200 152 18113903745329566335
20281475 54 18411134740434898821
20645477 70 18341052921489200999
21029758 11 18408326605144275017
21267235 1 18410283718398167854
21421861 104 17843970479446084074
221490 88 18269830926287058347
23366157 5 18059295336279102076
23402539 116 18335428988301324903
23463225 33 18410009935697003644
23559900 14 18409454669709334144
2748010 2 18338807796302776092
2871803 45 18343587356042306926
3004659 81 18201999967306469438
335352 9 18338516464676743253
34934 24 18409174294328458742
4214541 1 18410856585852828421
4921388 177 16128081266228715315
5104073 3 18409730655469674609
633830 44 17203328884229969813
7364860 26 18335703776346485784
77779 3 18411135831467173379
8809292 202 18272366451724804395
9709674 26 18269552750040656659
9981440 41 17403180296265737769

> <PUBCHEM_SHAPE_MULTIPOLES>
365.45
8.96
2.21
0.61
2.31
0.31
0
-2.96
0
-0.75
0
-0.01
-0.01
0

> <PUBCHEM_SHAPE_SELFOVERLAP>
843.176

> <PUBCHEM_SHAPE_VOLUME>
186.2

> <PUBCHEM_COORDINATE_TYPE>
2
5
10

$$$$

