5360
  -OEChem-06261200392D

126127  0     0  0  0  0  0  0999 V2000
   24.3916    2.2112    0.0000 S   0  0  0  0  0  0  0  0  0  0  0  0
    4.9642   -0.6721    0.0000 S   0  0  0  0  0  0  0  0  0  0  0  0
   28.2921   -0.0373    0.0000 S   0  0  0  0  0  0  0  0  0  0  0  0
    7.2125    3.2286    0.0000 S   0  0  0  0  0  0  0  0  0  0  0  0
   27.2575    3.4432    0.0000 S   0  0  0  0  0  0  0  0  0  0  0  0
    3.7320    2.1940    0.0000 S   0  0  0  0  0  0  0  0  0  0  0  0
   24.3915    3.9432    0.0000 Na  0  3  0  0  0  0  0  0  0  0  0  0
    3.4641   -1.5381    0.0000 Na  0  3  0  0  0  0  0  0  0  0  0  0
   29.8020   -0.8859    0.0000 Na  0  3  0  0  0  0  0  0  0  0  0  0
    8.0611    4.7385    0.0000 Na  0  3  0  0  0  0  0  0  0  0  0  0
   27.2575    5.1752    0.0000 Na  0  3  0  0  0  0  0  0  0  0  0  0
    2.0000    2.1940    0.0000 Na  0  3  0  0  0  0  0  0  0  0  0  0
   24.8915    3.0772    0.0000 O   0  5  0  0  0  0  0  0  0  0  0  0
    4.4642   -1.5381    0.0000 O   0  5  0  0  0  0  0  0  0  0  0  0
   29.2921   -0.0257    0.0000 O   0  5  0  0  0  0  0  0  0  0  0  0
    7.2009    4.2285    0.0000 O   0  5  0  0  0  0  0  0  0  0  0  0
   23.5255    2.7112    0.0000 O   0  0  0  0  0  0  0  0  0  0  0  0
   23.8915    1.3451    0.0000 O   0  0  0  0  0  0  0  0  0  0  0  0
    4.0981   -0.1720    0.0000 O   0  0  0  0  0  0  0  0  0  0  0  0
    5.8301   -1.1720    0.0000 O   0  0  0  0  0  0  0  0  0  0  0  0
    2.8660    2.6940    0.0000 O   0  5  0  0  0  0  0  0  0  0  0  0
   27.7575    4.3092    0.0000 O   0  5  0  0  0  0  0  0  0  0  0  0
    8.2124    3.2401    0.0000 O   0  0  0  0  0  0  0  0  0  0  0  0
    6.2126    3.2170    0.0000 O   0  0  0  0  0  0  0  0  0  0  0  0
   28.3037   -1.0372    0.0000 O   0  0  0  0  0  0  0  0  0  0  0  0
   28.2806    0.9627    0.0000 O   0  0  0  0  0  0  0  0  0  0  0  0
   26.3915    3.9432    0.0000 O   0  0  0  0  0  0  0  0  0  0  0  0
   28.1236    2.9432    0.0000 O   0  0  0  0  0  0  0  0  0  0  0  0
    3.2320    1.3280    0.0000 O   0  0  0  0  0  0  0  0  0  0  0  0
    4.2320    3.0600    0.0000 O   0  0  0  0  0  0  0  0  0  0  0  0
   24.2029   -1.7692    0.0000 O   0  0  0  0  0  0  0  0  0  0  0  0
    9.2239    0.1362    0.0000 O   0  0  0  0  0  0  0  0  0  0  0  0
   19.2032   -1.7114    0.0000 O   0  0  0  0  0  0  0  0  0  0  0  0
   11.7138   -0.7587    0.0000 O   0  0  0  0  0  0  0  0  0  0  0  0
   16.6934   -2.5484    0.0000 O   0  0  0  0  0  0  0  0  0  0  0  0
   24.2229   -0.0373    0.0000 N   0  0  0  0  0  0  0  0  0  0  0  0
    7.7141   -0.7124    0.0000 N   0  0  0  0  0  0  0  0  0  0  0  0
   20.6931   -2.5947    0.0000 N   0  0  0  0  0  0  0  0  0  0  0  0
   11.6937   -2.4906    0.0000 N   0  0  0  0  0  0  0  0  0  0  0  0
   16.6734   -4.2804    0.0000 N   0  0  0  0  0  0  0  0  0  0  0  0
   15.1835   -3.3971    0.0000 N   0  0  0  0  0  0  0  0  0  0  0  0
    6.3301    0.6940    0.0000 C   0  0  0  0  0  0  0  0  0  0  0  0
   25.7575    0.8451    0.0000 C   0  0  0  0  0  0  0  0  0  0  0  0
    6.3301    1.6940    0.0000 C   0  0  0  0  0  0  0  0  0  0  0  0
   26.7575    0.8451    0.0000 C   0  0  0  0  0  0  0  0  0  0  0  0
    5.4641    0.1940    0.0000 C   0  0  0  0  0  0  0  0  0  0  0  0
   25.2575    1.7112    0.0000 C   0  0  0  0  0  0  0  0  0  0  0  0
    7.2241    2.2286    0.0000 C   0  0  0  0  0  0  0  0  0  0  0  0
   27.2922   -0.0488    0.0000 C   0  0  0  0  0  0  0  0  0  0  0  0
   25.2229   -0.0488    0.0000 C   0  0  0  0  0  0  0  0  0  0  0  0
    7.2241    0.1593    0.0000 C   0  0  0  0  0  0  0  0  0  0  0  0
    5.4641    2.1940    0.0000 C   0  0  0  0  0  0  0  0  0  0  0  0
   27.2575    1.7112    0.0000 C   0  0  0  0  0  0  0  0  0  0  0  0
    4.5981    1.6940    0.0000 C   0  0  0  0  0  0  0  0  0  0  0  0
   26.7575    2.5772    0.0000 C   0  0  0  0  0  0  0  0  0  0  0  0
   25.7575    2.5772    0.0000 C   0  0  0  0  0  0  0  0  0  0  0  0
    4.5981    0.6940    0.0000 C   0  0  0  0  0  0  0  0  0  0  0  0
   26.7783   -0.9549    0.0000 C   0  0  0  0  0  0  0  0  0  0  0  0
    8.1301    1.7148    0.0000 C   0  0  0  0  0  0  0  0  0  0  0  0
   25.7367   -0.9549    0.0000 C   0  0  0  0  0  0  0  0  0  0  0  0
    8.1301    0.6732    0.0000 C   0  0  0  0  0  0  0  0  0  0  0  0
    8.7140   -0.7240    0.0000 C   0  0  0  0  0  0  0  0  0  0  0  0
   23.7130   -0.8974    0.0000 C   0  0  0  0  0  0  0  0  0  0  0  0
    9.2039   -1.5957    0.0000 C   0  0  0  0  0  0  0  0  0  0  0  0
   22.7130   -0.8859    0.0000 C   0  0  0  0  0  0  0  0  0  0  0  0
   10.2038   -1.6073    0.0000 C   0  0  0  0  0  0  0  0  0  0  0  0
   22.2030   -1.7461    0.0000 C   0  0  0  0  0  0  0  0  0  0  0  0
   10.6938   -2.4791    0.0000 C   0  0  0  0  0  0  0  0  0  0  0  0
   21.2031   -1.7345    0.0000 C   0  0  0  0  0  0  0  0  0  0  0  0
    8.6940   -2.4559    0.0000 C   0  0  0  0  0  0  0  0  0  0  0  0
   22.2231   -0.0141    0.0000 C   0  0  0  0  0  0  0  0  0  0  0  0
   20.7132   -0.8628    0.0000 C   0  0  0  0  0  0  0  0  0  0  0  0
   10.1838   -3.3392    0.0000 C   0  0  0  0  0  0  0  0  0  0  0  0
    9.1840   -3.3276    0.0000 C   0  0  0  0  0  0  0  0  0  0  0  0
   21.2231   -0.0026    0.0000 C   0  0  0  0  0  0  0  0  0  0  0  0
   19.7132   -0.8512    0.0000 C   0  0  0  0  0  0  0  0  0  0  0  0
   10.6738   -4.2110    0.0000 C   0  0  0  0  0  0  0  0  0  0  0  0
   12.2037   -1.6304    0.0000 C   0  0  0  0  0  0  0  0  0  0  0  0
   19.6932   -2.5831    0.0000 C   0  0  0  0  0  0  0  0  0  0  0  0
   19.1832   -3.4433    0.0000 C   0  0  0  0  0  0  0  0  0  0  0  0
   13.2036   -1.6420    0.0000 C   0  0  0  0  0  0  0  0  0  0  0  0
   18.1833   -3.4318    0.0000 C   0  0  0  0  0  0  0  0  0  0  0  0
   13.6936   -2.5138    0.0000 C   0  0  0  0  0  0  0  0  0  0  0  0
   17.6733   -4.2919    0.0000 C   0  0  0  0  0  0  0  0  0  0  0  0
   14.6935   -2.5253    0.0000 C   0  0  0  0  0  0  0  0  0  0  0  0
   19.6732   -4.3151    0.0000 C   0  0  0  0  0  0  0  0  0  0  0  0
   13.7136   -0.7818    0.0000 C   0  0  0  0  0  0  0  0  0  0  0  0
   15.2035   -1.6651    0.0000 C   0  0  0  0  0  0  0  0  0  0  0  0
   18.1632   -5.1637    0.0000 C   0  0  0  0  0  0  0  0  0  0  0  0
   19.1632   -5.1752    0.0000 C   0  0  0  0  0  0  0  0  0  0  0  0
   14.7136   -0.7934    0.0000 C   0  0  0  0  0  0  0  0  0  0  0  0
   16.1834   -3.4086    0.0000 C   0  0  0  0  0  0  0  0  0  0  0  0
   27.8775    1.7112    0.0000 H   0  0  0  0  0  0  0  0  0  0  0  0
    5.4641    2.8140    0.0000 H   0  0  0  0  0  0  0  0  0  0  0  0
   25.4475    3.1141    0.0000 H   0  0  0  0  0  0  0  0  0  0  0  0
    4.0611    0.3840    0.0000 H   0  0  0  0  0  0  0  0  0  0  0  0
    8.6659    2.0269    0.0000 H   0  0  0  0  0  0  0  0  0  0  0  0
   27.0904   -1.4906    0.0000 H   0  0  0  0  0  0  0  0  0  0  0  0
   25.4246   -1.4906    0.0000 H   0  0  0  0  0  0  0  0  0  0  0  0
    8.6659    0.3611    0.0000 H   0  0  0  0  0  0  0  0  0  0  0  0
   23.6896    0.2789    0.0000 H   0  0  0  0  0  0  0  0  0  0  0  0
    7.3979   -1.2457    0.0000 H   0  0  0  0  0  0  0  0  0  0  0  0
   22.5068   -2.2866    0.0000 H   0  0  0  0  0  0  0  0  0  0  0  0
   10.5200   -1.0740    0.0000 H   0  0  0  0  0  0  0  0  0  0  0  0
   22.5393    0.5192    0.0000 H   0  0  0  0  0  0  0  0  0  0  0  0
    8.0740   -2.4487    0.0000 H   0  0  0  0  0  0  0  0  0  0  0  0
   20.9194    0.5379    0.0000 H   0  0  0  0  0  0  0  0  0  0  0  0
    8.8678   -3.8609    0.0000 H   0  0  0  0  0  0  0  0  0  0  0  0
   20.9969   -3.1352    0.0000 H   0  0  0  0  0  0  0  0  0  0  0  0
   11.9975   -3.0311    0.0000 H   0  0  0  0  0  0  0  0  0  0  0  0
   10.1333   -4.5148    0.0000 H   0  0  0  0  0  0  0  0  0  0  0  0
   10.9775   -4.7515    0.0000 H   0  0  0  0  0  0  0  0  0  0  0  0
   11.2142   -3.9072    0.0000 H   0  0  0  0  0  0  0  0  0  0  0  0
   19.7204   -0.2312    0.0000 H   0  0  0  0  0  0  0  0  0  0  0  0
   19.0933   -0.8440    0.0000 H   0  0  0  0  0  0  0  0  0  0  0  0
   19.7060   -1.4712    0.0000 H   0  0  0  0  0  0  0  0  0  0  0  0
   13.3774   -3.0471    0.0000 H   0  0  0  0  0  0  0  0  0  0  0  0
   17.8795   -2.8913    0.0000 H   0  0  0  0  0  0  0  0  0  0  0  0
   20.2931   -4.3222    0.0000 H   0  0  0  0  0  0  0  0  0  0  0  0
   13.4098   -0.2413    0.0000 H   0  0  0  0  0  0  0  0  0  0  0  0
   17.8471   -5.6970    0.0000 H   0  0  0  0  0  0  0  0  0  0  0  0
   15.8235   -1.6723    0.0000 H   0  0  0  0  0  0  0  0  0  0  0  0
   19.4670   -5.7157    0.0000 H   0  0  0  0  0  0  0  0  0  0  0  0
   15.0297   -0.2601    0.0000 H   0  0  0  0  0  0  0  0  0  0  0  0
   16.3572   -4.8137    0.0000 H   0  0  0  0  0  0  0  0  0  0  0  0
   14.8673   -3.9304    0.0000 H   0  0  0  0  0  0  0  0  0  0  0  0
  1 13  1  0  0  0  0
  1 17  2  0  0  0  0
  1 18  2  0  0  0  0
  1 47  1  0  0  0  0
  2 14  1  0  0  0  0
  2 19  2  0  0  0  0
  2 20  2  0  0  0  0
  2 46  1  0  0  0  0
  3 15  1  0  0  0  0
  3 25  2  0  0  0  0
  3 26  2  0  0  0  0
  3 49  1  0  0  0  0
  4 16  1  0  0  0  0
  4 23  2  0  0  0  0
  4 24  2  0  0  0  0
  4 48  1  0  0  0  0
  5 22  1  0  0  0  0
  5 27  2  0  0  0  0
  5 28  2  0  0  0  0
  5 55  1  0  0  0  0
  6 21  1  0  0  0  0
  6 29  2  0  0  0  0
  6 30  2  0  0  0  0
  6 54  1  0  0  0  0
 31 63  2  0  0  0  0
 32 62  2  0  0  0  0
 33 79  2  0  0  0  0
 34 78  2  0  0  0  0
 35 92  2  0  0  0  0
 36 50  1  0  0  0  0
 36 63  1  0  0  0  0
 36101  1  0  0  0  0
 37 51  1  0  0  0  0
 37 62  1  0  0  0  0
 37102  1  0  0  0  0
 38 69  1  0  0  0  0
 38 79  1  0  0  0  0
 38109  1  0  0  0  0
 39 68  1  0  0  0  0
 39 78  1  0  0  0  0
 39110  1  0  0  0  0
 40 84  1  0  0  0  0
 40 92  1  0  0  0  0
 40125  1  0  0  0  0
 41 85  1  0  0  0  0
 41 92  1  0  0  0  0
 41126  1  0  0  0  0
 42 44  1  0  0  0  0
 42 46  1  0  0  0  0
 42 51  2  0  0  0  0
 43 45  1  0  0  0  0
 43 47  1  0  0  0  0
 43 50  2  0  0  0  0
 44 48  2  0  0  0  0
 44 52  1  0  0  0  0
 45 49  2  0  0  0  0
 45 53  1  0  0  0  0
 46 57  2  0  0  0  0
 47 56  2  0  0  0  0
 48 59  1  0  0  0  0
 49 58  1  0  0  0  0
 50 60  1  0  0  0  0
 51 61  1  0  0  0  0
 52 54  2  0  0  0  0
 52 94  1  0  0  0  0
 53 55  2  0  0  0  0
 53 93  1  0  0  0  0
 54 57  1  0  0  0  0
 55 56  1  0  0  0  0
 56 95  1  0  0  0  0
 57 96  1  0  0  0  0
 58 60  2  0  0  0  0
 58 98  1  0  0  0  0
 59 61  2  0  0  0  0
 59 97  1  0  0  0  0
 60 99  1  0  0  0  0
 61100  1  0  0  0  0
 62 64  1  0  0  0  0
 63 65  1  0  0  0  0
 64 66  2  0  0  0  0
 64 70  1  0  0  0  0
 65 67  2  0  0  0  0
 65 71  1  0  0  0  0
 66 68  1  0  0  0  0
 66104  1  0  0  0  0
 67 69  1  0  0  0  0
 67103  1  0  0  0  0
 68 73  2  0  0  0  0
 69 72  2  0  0  0  0
 70 74  2  0  0  0  0
 70106  1  0  0  0  0
 71 75  2  0  0  0  0
 71105  1  0  0  0  0
 72 75  1  0  0  0  0
 72 76  1  0  0  0  0
 73 74  1  0  0  0  0
 73 77  1  0  0  0  0
 74108  1  0  0  0  0
 75107  1  0  0  0  0
 76114  1  0  0  0  0
 76115  1  0  0  0  0
 76116  1  0  0  0  0
 77111  1  0  0  0  0
 77112  1  0  0  0  0
 77113  1  0  0  0  0
 78 81  1  0  0  0  0
 79 80  1  0  0  0  0
 80 82  2  0  0  0  0
 80 86  1  0  0  0  0
 81 83  2  0  0  0  0
 81 87  1  0  0  0  0
 82 84  1  0  0  0  0
 82118  1  0  0  0  0
 83 85  1  0  0  0  0
 83117  1  0  0  0  0
 84 89  2  0  0  0  0
 85 88  2  0  0  0  0
 86 90  2  0  0  0  0
 86119  1  0  0  0  0
 87 91  2  0  0  0  0
 87120  1  0  0  0  0
 88 91  1  0  0  0  0
 88122  1  0  0  0  0
 89 90  1  0  0  0  0
 89121  1  0  0  0  0
 90123  1  0  0  0  0
 91124  1  0  0  0  0
M  CHG  8   7   1   8   1   9   1  10   1  11   1  12   1  13  -1  14  -1
M  CHG  4  15  -1  16  -1  21  -1  22  -1
M  END
> <PUBCHEM_COMPOUND_CID>
5360

> <PUBCHEM_COMPOUND_CANONICALIZED>
1

> <PUBCHEM_CACTVS_COMPLEXITY>
3050

> <PUBCHEM_CACTVS_HBOND_ACCEPTOR>
23

> <PUBCHEM_CACTVS_HBOND_DONOR>
6

> <PUBCHEM_CACTVS_ROTATABLE_BOND>
16

> <PUBCHEM_CACTVS_SUBSKEYS>
AAADcfB/vjBwAAAAAAAAAAAAAAAAAAAAAAAwYMGDAAAAAADBVAAAHgQQAAAADAiB2AAzwcLAAAKIAiVSUHDCAEAlAgAIiBkAZMiIIDLAlZGEIQxolALIyacciICO0AQAwEAWAACgCAGAgCwAAAAAAAAAAA==

> <PUBCHEM_IUPAC_OPENEYE_NAME>
hexasodium 8-[[4-methyl-3-[[3-[[3-[[2-methyl-5-[(4,6,8-trisulfonato-1-naphthyl)carbamoyl]phenyl]carbamoyl]phenyl]carbamoylamino]benzoyl]amino]benzoyl]amino]naphthalene-1,3,5-trisulfonate

> <PUBCHEM_IUPAC_CAS_NAME>
hexasodium 8-[[[4-methyl-3-[[[3-[[[3-[[2-methyl-5-[oxo-[(4,6,8-trisulfonato-1-naphthalenyl)amino]methyl]anilino]-oxomethyl]anilino]-oxomethyl]amino]phenyl]-oxomethyl]amino]phenyl]-oxomethyl]amino]naphthalene-1,3,5-trisulfonate

> <PUBCHEM_IUPAC_NAME>
hexasodium 8-[[4-methyl-3-[[3-[[3-[[2-methyl-5-[(4,6,8-trisulfonatonaphthalen-1-yl)carbamoyl]phenyl]carbamoyl]phenyl]carbamoylamino]benzoyl]amino]benzoyl]amino]naphthalene-1,3,5-trisulfonate

> <PUBCHEM_IUPAC_SYSTEMATIC_NAME>
hexasodium 8-[[4-methyl-3-[[3-[[3-[[2-methyl-5-[(4,6,8-trisulfonatonaphthalen-1-yl)carbamoyl]phenyl]carbamoyl]phenyl]carbamoylamino]phenyl]carbonylamino]phenyl]carbonylamino]naphthalene-1,3,5-trisulfonate

> <PUBCHEM_IUPAC_TRADITIONAL_NAME>
hexasodium 8-[[4-methyl-3-[[3-[[3-[[2-methyl-5-[(4,6,8-trisulfonato-1-naphthyl)carbamoyl]phenyl]carbamoyl]phenyl]carbamoylamino]benzoyl]amino]benzoyl]amino]naphthalene-1,3,5-trisulfonate

> <PUBCHEM_IUPAC_INCHI>
InChI=1S/C51H40N6O23S6.6Na/c1-25-9-11-29(49(60)54-37-13-15-41(83(69,70)71)35-21-33(81(63,64)65)23-43(45(35)37)85(75,76)77)19-39(25)56-47(58)27-5-3-7-31(17-27)52-51(62)53-32-8-4-6-28(18-32)48(59)57-40-20-30(12-10-26(40)2)50(61)55-38-14-16-42(84(72,73)74)36-22-34(82(66,67)68)24-44(46(36)38)86(78,79)80;;;;;;/h3-24H,1-2H3,(H,54,60)(H,55,61)(H,56,58)(H,57,59)(H2,52,53,62)(H,63,64,65)(H,66,67,68)(H,69,70,71)(H,72,73,74)(H,75,76,77)(H,78,79,80);;;;;;/q;6*+1/p-6

> <PUBCHEM_IUPAC_INCHIKEY>
VAPNKLKDKUDFHK-UHFFFAOYSA-H

> <PUBCHEM_EXACT_MASS>
1427.938573

> <PUBCHEM_MOLECULAR_FORMULA>
C51H34N6Na6O23S6

> <PUBCHEM_MOLECULAR_WEIGHT>
1429.170676

> <PUBCHEM_OPENEYE_CAN_SMILES>
CC1=C(C=C(C=C1)C(=O)NC2=C3C(=CC(=CC3=C(C=C2)S(=O)(=O)[O-])S(=O)(=O)[O-])S(=O)(=O)[O-])NC(=O)C4=CC(=CC=C4)NC(=O)NC5=CC=CC(=C5)C(=O)NC6=C(C=CC(=C6)C(=O)NC7=C8C(=CC(=CC8=C(C=C7)S(=O)(=O)[O-])S(=O)(=O)[O-])S(=O)(=O)[O-])C.[Na+].[Na+].[Na+].[Na+].[Na+].[Na+]

> <PUBCHEM_OPENEYE_ISO_SMILES>
CC1=C(C=C(C=C1)C(=O)NC2=C3C(=CC(=CC3=C(C=C2)S(=O)(=O)[O-])S(=O)(=O)[O-])S(=O)(=O)[O-])NC(=O)C4=CC(=CC=C4)NC(=O)NC5=CC=CC(=C5)C(=O)NC6=C(C=CC(=C6)C(=O)NC7=C8C(=CC(=CC8=C(C=C7)S(=O)(=O)[O-])S(=O)(=O)[O-])S(=O)(=O)[O-])C.[Na+].[Na+].[Na+].[Na+].[Na+].[Na+]

> <PUBCHEM_CACTVS_TPSA>
551

> <PUBCHEM_MONOISOTOPIC_WEIGHT>
1427.938573

> <PUBCHEM_TOTAL_CHARGE>
0

> <PUBCHEM_HEAVY_ATOM_COUNT>
92

> <PUBCHEM_ATOM_DEF_STEREO_COUNT>
0

> <PUBCHEM_ATOM_UDEF_STEREO_COUNT>
0

> <PUBCHEM_BOND_DEF_STEREO_COUNT>
0

> <PUBCHEM_BOND_UDEF_STEREO_COUNT>
0

> <PUBCHEM_ISOTOPIC_ATOM_COUNT>
0

> <PUBCHEM_COMPONENT_COUNT>
7

> <PUBCHEM_CACTVS_TAUTO_COUNT>
155

> <PUBCHEM_NONSTANDARDBOND>
10  16  6
11  22  6
12  21  6
7  13  6
8  14  6
9  15  6

> <PUBCHEM_COORDINATE_TYPE>
1
5
255

> <PUBCHEM_BONDANNOTATIONS>
42  44  8
42  46  8
42  51  8
43  45  8
43  47  8
43  50  8
44  48  8
44  52  8
45  49  8
45  53  8
46  57  8
47  56  8
48  59  8
49  58  8
50  60  8
51  61  8
52  54  8
53  55  8
54  57  8
55  56  8
58  60  8
59  61  8
64  66  8
64  70  8
65  67  8
65  71  8
66  68  8
67  69  8
68  73  8
69  72  8
70  74  8
71  75  8
72  75  8
73  74  8
80  82  8
80  86  8
81  83  8
81  87  8
82  84  8
83  85  8
84  89  8
85  88  8
86  90  8
87  91  8
88  91  8
89  90  8

$$$$

