13845
  -OEChem-06241222403D

 38 37  0     1  0  0  0  0  0999 V2000
    3.6615    0.4919    0.1477 C   0  0  1  0  0  0  0  0  0  0  0  0
    2.2547    0.8712    0.6596 C   0  0  0  0  0  0  0  0  0  0  0  0
    1.0881    0.1921   -0.0659 C   0  0  0  0  0  0  0  0  0  0  0  0
   -0.2543    0.5931    0.5547 C   0  0  0  0  0  0  0  0  0  0  0  0
   -1.4243   -0.0535   -0.1904 C   0  0  0  0  0  0  0  0  0  0  0  0
    3.9627   -1.0028    0.3669 C   0  0  0  0  0  0  0  0  0  0  0  0
   -2.7916    0.2894    0.4083 C   0  0  0  0  0  0  0  0  0  0  0  0
    3.8593    0.9100   -1.3119 C   0  0  0  0  0  0  0  0  0  0  0  0
   -3.9601   -0.3766   -0.3216 C   0  0  0  0  0  0  0  0  0  0  0  0
   -5.3017    0.0566    0.2710 C   0  0  0  0  0  0  0  0  0  0  0  0
    5.3743   -1.3995   -0.0445 C   0  0  0  0  0  0  0  0  0  0  0  0
   -6.4686   -0.5720   -0.4738 C   0  0  0  0  0  0  0  0  0  0  0  0
    4.3783    1.0680    0.7487 H   0  0  0  0  0  0  0  0  0  0  0  0
    2.1350    1.9599    0.5847 H   0  0  0  0  0  0  0  0  0  0  0  0
    2.1980    0.6313    1.7294 H   0  0  0  0  0  0  0  0  0  0  0  0
    1.1866   -0.8970   -0.0133 H   0  0  0  0  0  0  0  0  0  0  0  0
    1.0936    0.4709   -1.1255 H   0  0  0  0  0  0  0  0  0  0  0  0
   -0.3638    1.6839    0.5281 H   0  0  0  0  0  0  0  0  0  0  0  0
   -0.2780    0.2902    1.6085 H   0  0  0  0  0  0  0  0  0  0  0  0
   -1.4036    0.2621   -1.2409 H   0  0  0  0  0  0  0  0  0  0  0  0
   -1.2974   -1.1433   -0.1850 H   0  0  0  0  0  0  0  0  0  0  0  0
    3.2603   -1.6266   -0.1965 H   0  0  0  0  0  0  0  0  0  0  0  0
    3.8256   -1.2449    1.4277 H   0  0  0  0  0  0  0  0  0  0  0  0
   -2.8082   -0.0106    1.4634 H   0  0  0  0  0  0  0  0  0  0  0  0
   -2.9236    1.3784    0.3871 H   0  0  0  0  0  0  0  0  0  0  0  0
    4.9159    0.8677   -1.5949 H   0  0  0  0  0  0  0  0  0  0  0  0
    3.3018    0.2629   -1.9966 H   0  0  0  0  0  0  0  0  0  0  0  0
    3.5264    1.9415   -1.4698 H   0  0  0  0  0  0  0  0  0  0  0  0
   -3.9253   -0.1095   -1.3848 H   0  0  0  0  0  0  0  0  0  0  0  0
   -3.8598   -1.4667   -0.2584 H   0  0  0  0  0  0  0  0  0  0  0  0
   -5.3514   -0.2299    1.3279 H   0  0  0  0  0  0  0  0  0  0  0  0
   -5.3949    1.1479    0.2257 H   0  0  0  0  0  0  0  0  0  0  0  0
    5.5147   -1.3277   -1.1270 H   0  0  0  0  0  0  0  0  0  0  0  0
    6.1204   -0.7679    0.4478 H   0  0  0  0  0  0  0  0  0  0  0  0
    5.5688   -2.4382    0.2425 H   0  0  0  0  0  0  0  0  0  0  0  0
   -6.4664   -0.2764   -1.5279 H   0  0  0  0  0  0  0  0  0  0  0  0
   -6.4234   -1.6645   -0.4230 H   0  0  0  0  0  0  0  0  0  0  0  0
   -7.4173   -0.2503   -0.0328 H   0  0  0  0  0  0  0  0  0  0  0  0
  1  2  1  0  0  0  0
  1  6  1  0  0  0  0
  1  8  1  0  0  0  0
  1 13  1  0  0  0  0
  2  3  1  0  0  0  0
  2 14  1  0  0  0  0
  2 15  1  0  0  0  0
  3  4  1  0  0  0  0
  3 16  1  0  0  0  0
  3 17  1  0  0  0  0
  4  5  1  0  0  0  0
  4 18  1  0  0  0  0
  4 19  1  0  0  0  0
  5  7  1  0  0  0  0
  5 20  1  0  0  0  0
  5 21  1  0  0  0  0
  6 11  1  0  0  0  0
  6 22  1  0  0  0  0
  6 23  1  0  0  0  0
  7  9  1  0  0  0  0
  7 24  1  0  0  0  0
  7 25  1  0  0  0  0
  8 26  1  0  0  0  0
  8 27  1  0  0  0  0
  8 28  1  0  0  0  0
  9 10  1  0  0  0  0
  9 29  1  0  0  0  0
  9 30  1  0  0  0  0
 10 12  1  0  0  0  0
 10 31  1  0  0  0  0
 10 32  1  0  0  0  0
 11 33  1  0  0  0  0
 11 34  1  0  0  0  0
 11 35  1  0  0  0  0
 12 36  1  0  0  0  0
 12 37  1  0  0  0  0
 12 38  1  0  0  0  0
M  END
> <PUBCHEM_COMPOUND_CID>
13845

> <PUBCHEM_CONFORMER_RMSD>
0.8

> <PUBCHEM_CONFORMER_DIVERSEORDER>
1
252
118
19
235
3
123
147
185
217
104
254
66
166
41
85
134
198
2
138
18
98
71
75
120
29
215
50
201
5
40
21
141
253
239
77
256
36
187
111
135
122
8
237
112
168
196
97
6
167
88
130
73
51
30
81
116
80
214
119
174
233
52
216
157
164
32
208
95
203
12
245
10
220
47
170
195
33
246
39
109
176
13
243
20
69
110
92
72
87
169
125
106
250
24
227
240
26
17
149
65
67
161
38
194
94
48
155
53
234
101
11
96
210
213
145
140
59
9
108
184
223
229
74
37
14
197
4
238
255
162
70
22
15
186
102
193
137
132
100
91
126
90
247
152
86
154
257
131
115
82
230
191
62
58
206
64
188
228
160
139
143
222
236
42
151
207
148
221
181
244
159
7
182
153
150
34
105
136
144
219
16
158
31
165
46
25
190
200
60
129
177
133
55
209
212
103
242
84
61
107
249
27
248
202
128
127
99
199
49
146
45
43
56
117
79
171
28
231
76
178
189
68
44
78
163
179
173
183
63
89
83
205
241
172
114
121
175
224
57
192
54
156
124
113
218
35
232
225
23
251
226
142
211
93
204
180

> <PUBCHEM_MMFF94_PARTIAL_CHARGES>
0

> <PUBCHEM_EFFECTIVE_ROTOR_COUNT>
8

> <PUBCHEM_PHARMACOPHORE_FEATURES>
3
1 11 hydrophobe
1 12 hydrophobe
1 8 hydrophobe

> <PUBCHEM_HEAVY_ATOM_COUNT>
12

> <PUBCHEM_ATOM_DEF_STEREO_COUNT>
0

> <PUBCHEM_ATOM_UDEF_STEREO_COUNT>
1

> <PUBCHEM_BOND_DEF_STEREO_COUNT>
0

> <PUBCHEM_BOND_UDEF_STEREO_COUNT>
0

> <PUBCHEM_ISOTOPIC_ATOM_COUNT>
0

> <PUBCHEM_COMPONENT_COUNT>
1

> <PUBCHEM_CACTVS_TAUTO_COUNT>
1

> <PUBCHEM_CONFORMER_ID>
0000361500000001

> <PUBCHEM_MMFF94_ENERGY>
0.9325

> <PUBCHEM_FEATURE_SELFOVERLAP>
15.224

> <PUBCHEM_SHAPE_FINGERPRINT>
10354089 29 7420943180078137154
11287383 113 16988557970803972305
117890 112 9295293846013557991
11858739 19 18335703874861513415
12714333 28 12319733669975313862
13533116 47 18260830423261027650
13690532 89 18334295374606688873
13836976 161 18272929436629015454
13862211 1 17821452344307945551
14123238 8 18342175553548397565
1420 363 17203323408436473785
14251718 22 11167934762962345785
14252887 29 15647047188429745100
14455015 7 18342451552078017187
15048467 5 10735873976072074739
15242439 84 16559028289845618840
17834072 33 18411982434241065135
17834072 8 17203608194094692490
17834076 25 12679463088210414745
20369508 70 18187088351823997112
20605781 2 10879988064741596546
20645477 70 18272369802231909202
20767249 13 17603587430714976923
20767249 213 10592042462486496707
21130983 4 11095884891386528799
23218964 4 18334297587132031153
23402539 116 17530970194207460041
23402655 69 12751235904415440304
29717793 49 18343863337671203428
42 15 18040435503178775513
42788 4 16702024167164370429
449060 50 9079117760700619817
465052 167 18187079546719105606
522135 26 18343301457618371136
5374978 207 15791452617125538698

> <PUBCHEM_SHAPE_MULTIPOLES>
246.95
15.17
1.09
0.89
14.14
0.18
-0.15
4.79
-2.02
-1.44
-0.02
-0.45
-0.16
-0.58

> <PUBCHEM_SHAPE_SELFOVERLAP>
436.804

> <PUBCHEM_SHAPE_VOLUME>
163

> <PUBCHEM_COORDINATE_TYPE>
2
5
10

$$$$

