6439
  -OEChem-06261201192D

 18 17  0     0  0  0  0  0  0999 V2000
    5.6350   -0.6160    0.0000 O   0  0  0  0  0  0  0  0  0  0  0  0
    4.6350    1.1160    0.0000 O   0  0  0  0  0  0  0  0  0  0  0  0
    3.7690    0.6160    0.0000 O   0  0  0  0  0  0  0  0  0  0  0  0
    4.7690   -1.1160    0.0000 O   0  0  0  0  0  0  0  0  0  0  0  0
    6.8671    0.2500    0.0000 O   0  0  0  0  0  0  0  0  0  0  0  0
    2.5369   -0.2500    0.0000 O   0  0  0  0  0  0  0  0  0  0  0  0
    6.0010    1.7500    0.0000 O   0  0  0  0  0  0  0  0  0  0  0  0
    3.4030   -1.7500    0.0000 O   0  0  0  0  0  0  0  0  0  0  0  0
    4.2690   -0.2500    0.0000 C   0  0  0  0  0  0  0  0  0  0  0  0
    5.1350    0.2500    0.0000 C   0  0  0  0  0  0  0  0  0  0  0  0
    6.0010    0.7500    0.0000 C   0  0  0  0  0  0  0  0  0  0  0  0
    3.4030   -0.7500    0.0000 C   0  0  0  0  0  0  0  0  0  0  0  0
    6.2550   -0.6160    0.0000 H   0  0  0  0  0  0  0  0  0  0  0  0
    4.9450    1.6530    0.0000 H   0  0  0  0  0  0  0  0  0  0  0  0
    3.1490    0.6160    0.0000 H   0  0  0  0  0  0  0  0  0  0  0  0
    4.4590   -1.6530    0.0000 H   0  0  0  0  0  0  0  0  0  0  0  0
    7.4040    0.5600    0.0000 H   0  0  0  0  0  0  0  0  0  0  0  0
    2.0000   -0.5600    0.0000 H   0  0  0  0  0  0  0  0  0  0  0  0
  1 10  1  0  0  0  0
  1 13  1  0  0  0  0
  2 10  1  0  0  0  0
  2 14  1  0  0  0  0
  3  9  1  0  0  0  0
  3 15  1  0  0  0  0
  4  9  1  0  0  0  0
  4 16  1  0  0  0  0
  5 11  1  0  0  0  0
  5 17  1  0  0  0  0
  6 12  1  0  0  0  0
  6 18  1  0  0  0  0
  7 11  2  0  0  0  0
  8 12  2  0  0  0  0
  9 10  1  0  0  0  0
  9 12  1  0  0  0  0
 10 11  1  0  0  0  0
M  END
> <PUBCHEM_COMPOUND_CID>
6439

> <PUBCHEM_COMPOUND_CANONICALIZED>
1

> <PUBCHEM_CACTVS_COMPLEXITY>
191

> <PUBCHEM_CACTVS_HBOND_ACCEPTOR>
8

> <PUBCHEM_CACTVS_HBOND_DONOR>
6

> <PUBCHEM_CACTVS_ROTATABLE_BOND>
3

> <PUBCHEM_CACTVS_SUBSKEYS>
AAADcYBgPAAAAAAAAAAAAAAAAAAAAAAAAAAAAAAAAAAAAAAAAAAACgAACAAACAQAgAAACAAAAgAIAACQCAIAAAAAAAAAAAFAAAABABQAAAAAQAAFIAABAABDAAAAAAAAAAAAAAAAAAAAAAAAAAAAAAAAAA==

> <PUBCHEM_IUPAC_OPENEYE_NAME>
2,2,3,3-tetrahydroxybutanedioic acid

> <PUBCHEM_IUPAC_CAS_NAME>
2,2,3,3-tetrahydroxybutanedioic acid

> <PUBCHEM_IUPAC_NAME>
2,2,3,3-tetrahydroxybutanedioic acid

> <PUBCHEM_IUPAC_SYSTEMATIC_NAME>
2,2,3,3-tetrakis(oxidanyl)butanedioic acid

> <PUBCHEM_IUPAC_TRADITIONAL_NAME>
2,2,3,3-tetrahydroxysuccinic acid

> <PUBCHEM_IUPAC_INCHI>
InChI=1S/C4H6O8/c5-1(6)3(9,10)4(11,12)2(7)8/h9-12H,(H,5,6)(H,7,8)

> <PUBCHEM_IUPAC_INCHIKEY>
XHWHHMNORMIBBB-UHFFFAOYSA-N

> <PUBCHEM_XLOGP3_AA>
-3.4

> <PUBCHEM_EXACT_MASS>
182.006267

> <PUBCHEM_MOLECULAR_FORMULA>
C4H6O8

> <PUBCHEM_MOLECULAR_WEIGHT>
182.08564

> <PUBCHEM_OPENEYE_CAN_SMILES>
C(=O)(C(C(C(=O)O)(O)O)(O)O)O

> <PUBCHEM_OPENEYE_ISO_SMILES>
C(=O)(C(C(C(=O)O)(O)O)(O)O)O

> <PUBCHEM_CACTVS_TPSA>
156

> <PUBCHEM_MONOISOTOPIC_WEIGHT>
182.006267

> <PUBCHEM_TOTAL_CHARGE>
0

> <PUBCHEM_HEAVY_ATOM_COUNT>
12

> <PUBCHEM_ATOM_DEF_STEREO_COUNT>
0

> <PUBCHEM_ATOM_UDEF_STEREO_COUNT>
0

> <PUBCHEM_BOND_DEF_STEREO_COUNT>
0

> <PUBCHEM_BOND_UDEF_STEREO_COUNT>
0

> <PUBCHEM_ISOTOPIC_ATOM_COUNT>
0

> <PUBCHEM_COMPONENT_COUNT>
1

> <PUBCHEM_CACTVS_TAUTO_COUNT>
1

> <PUBCHEM_COORDINATE_TYPE>
1
5
255

$$$$

