440937
  -OEChem-07051212513D

 40 41  0     1  0  0  0  0  0999 V2000
    0.1888   -3.8996    0.0172 P   0  0  0  0  0  0  0  0  0  0  0  0
    0.6782    0.3316    0.2864 O   0  0  0  0  0  0  0  0  0  0  0  0
    4.1751   -0.2805   -0.6138 O   0  0  0  0  0  0  0  0  0  0  0  0
    4.2031    2.4376    0.3694 O   0  0  0  0  0  0  0  0  0  0  0  0
   -0.5794    2.2846    0.5056 O   0  0  0  0  0  0  0  0  0  0  0  0
    1.6749    3.7992   -0.2900 O   0  0  0  0  0  0  0  0  0  0  0  0
    0.4929   -2.3441   -0.3157 O   0  0  0  0  0  0  0  0  0  0  0  0
    0.4534   -4.0098    1.6089 O   0  0  0  0  0  0  0  0  0  0  0  0
    1.4615   -4.6629   -0.6250 O   0  0  0  0  0  0  0  0  0  0  0  0
   -1.1490   -4.3968   -0.4468 O   0  0  0  0  0  0  0  0  0  0  0  0
   -5.4681   -0.0822   -0.4322 O   0  0  0  0  0  0  0  0  0  0  0  0
    3.0932    0.3371    0.0783 C   0  0  1  0  0  0  0  0  0  0  0  0
    3.0689    1.8299   -0.2509 C   0  0  1  0  0  0  0  0  0  0  0  0
    1.7802   -0.3317   -0.3355 C   0  0  1  0  0  0  0  0  0  0  0  0
    1.7910    2.4900    0.2668 C   0  0  2  0  0  0  0  0  0  0  0  0
    0.5511    1.6890   -0.1304 C   0  0  1  0  0  0  0  0  0  0  0  0
    1.7343   -1.7962    0.0886 C   0  0  0  0  0  0  0  0  0  0  0  0
   -1.7928    1.6975    0.2729 C   0  0  0  0  0  0  0  0  0  0  0  0
   -2.2794    1.6093   -1.0277 C   0  0  0  0  0  0  0  0  0  0  0  0
   -2.5314    1.1923    1.3385 C   0  0  0  0  0  0  0  0  0  0  0  0
   -3.5166    1.0103   -1.2652 C   0  0  0  0  0  0  0  0  0  0  0  0
   -3.7686    0.5932    1.1012 C   0  0  0  0  0  0  0  0  0  0  0  0
   -4.2612    0.5023   -0.2007 C   0  0  0  0  0  0  0  0  0  0  0  0
    3.2724    0.2039    1.1523 H   0  0  0  0  0  0  0  0  0  0  0  0
    3.1796    1.9965   -1.3295 H   0  0  0  0  0  0  0  0  0  0  0  0
    1.6424   -0.2902   -1.4246 H   0  0  0  0  0  0  0  0  0  0  0  0
    1.8405    2.6117    1.3554 H   0  0  0  0  0  0  0  0  0  0  0  0
    0.4193    1.7335   -1.2196 H   0  0  0  0  0  0  0  0  0  0  0  0
    1.8123   -1.8749    1.1781 H   0  0  0  0  0  0  0  0  0  0  0  0
    2.5516   -2.3596   -0.3713 H   0  0  0  0  0  0  0  0  0  0  0  0
    4.0212   -0.1739   -1.5681 H   0  0  0  0  0  0  0  0  0  0  0  0
    4.9961    1.9878    0.0304 H   0  0  0  0  0  0  0  0  0  0  0  0
    1.6313    3.7129   -1.2576 H   0  0  0  0  0  0  0  0  0  0  0  0
   -1.7227    2.0151   -1.8673 H   0  0  0  0  0  0  0  0  0  0  0  0
   -2.1511    1.2603    2.3539 H   0  0  0  0  0  0  0  0  0  0  0  0
   -3.8969    0.9458   -2.2810 H   0  0  0  0  0  0  0  0  0  0  0  0
   -4.3387    0.2010    1.9391 H   0  0  0  0  0  0  0  0  0  0  0  0
    0.2640   -4.8579    2.0638 H   0  0  0  0  0  0  0  0  0  0  0  0
    1.4711   -5.6437   -0.6353 H   0  0  0  0  0  0  0  0  0  0  0  0
   -5.8435   -0.3765    0.4155 H   0  0  0  0  0  0  0  0  0  0  0  0
  1  7  1  0  0  0  0
  1  8  1  0  0  0  0
  1  9  1  0  0  0  0
  1 10  2  0  0  0  0
  2 14  1  0  0  0  0
  2 16  1  0  0  0  0
  3 12  1  0  0  0  0
  3 31  1  0  0  0  0
  4 13  1  0  0  0  0
  4 32  1  0  0  0  0
  5 16  1  0  0  0  0
  5 18  1  0  0  0  0
  6 15  1  0  0  0  0
  6 33  1  0  0  0  0
  7 17  1  0  0  0  0
  8 38  1  0  0  0  0
  9 39  1  0  0  0  0
 11 23  1  0  0  0  0
 11 40  1  0  0  0  0
 12 13  1  0  0  0  0
 12 14  1  0  0  0  0
 12 24  1  0  0  0  0
 13 15  1  0  0  0  0
 13 25  1  0  0  0  0
 14 17  1  0  0  0  0
 14 26  1  0  0  0  0
 15 16  1  0  0  0  0
 15 27  1  0  0  0  0
 16 28  1  0  0  0  0
 17 29  1  0  0  0  0
 17 30  1  0  0  0  0
 18 19  2  0  0  0  0
 18 20  1  0  0  0  0
 19 21  1  0  0  0  0
 19 34  1  0  0  0  0
 20 22  2  0  0  0  0
 20 35  1  0  0  0  0
 21 23  2  0  0  0  0
 21 36  1  0  0  0  0
 22 23  1  0  0  0  0
 22 37  1  0  0  0  0
M  END
> <PUBCHEM_COMPOUND_CID>
440937

> <PUBCHEM_CONFORMER_RMSD>
0.8

> <PUBCHEM_CONFORMER_DIVERSEORDER>
1
144
109
84
99
155
138
111
152
135
118
4
86
140
17
101
106
33
139
102
110
67
143
8
129
42
64
2
29
154
75
151
133
71
132
90
113
6
125
89
47
61
77
127
11
97
54
105
117
80
148
32
62
56
36
14
137
19
153
98
12
34
136
122
142
5
38
103
95
82
112
23
53
141
76
49
131
22
145
107
18
7
85
149
24
150
39
45
88
130
9
57
116
16
59
60
40
128
108
43
46
51
79
55
96
147
50
73
104
119
120
123
115
83
121
13
74
146
63
25
65
28
68
20
114
37
70
94
52
3
124
81
69
30
126
10
35
100
21
93
91
58
92
27
78
87
44
72
134
66
48
41
31
15
26

> <PUBCHEM_MMFF94_PARTIAL_CHARGES>
33
1 1.51
10 -0.7
11 -0.53
12 0.28
13 0.28
14 0.28
15 0.28
16 0.56
17 0.28
18 0.08
19 -0.15
2 -0.56
20 -0.15
21 -0.15
22 -0.15
23 0.08
3 -0.68
31 0.4
32 0.4
33 0.4
34 0.15
35 0.15
36 0.15
37 0.15
38 0.5
39 0.5
4 -0.68
40 0.45
5 -0.36
6 -0.68
7 -0.55
8 -0.77
9 -0.77

> <PUBCHEM_EFFECTIVE_ROTOR_COUNT>
6.2

> <PUBCHEM_PHARMACOPHORE_FEATURES>
15
1 10 acceptor
1 11 donor
1 2 acceptor
1 3 acceptor
1 3 donor
1 4 acceptor
1 4 donor
1 5 acceptor
1 6 acceptor
1 6 donor
1 8 acceptor
1 9 acceptor
4 1 8 9 10 anion
6 18 19 20 21 22 23 rings
6 2 12 13 14 15 16 rings

> <PUBCHEM_HEAVY_ATOM_COUNT>
23

> <PUBCHEM_ATOM_DEF_STEREO_COUNT>
5

> <PUBCHEM_ATOM_UDEF_STEREO_COUNT>
0

> <PUBCHEM_BOND_DEF_STEREO_COUNT>
0

> <PUBCHEM_BOND_UDEF_STEREO_COUNT>
0

> <PUBCHEM_ISOTOPIC_ATOM_COUNT>
0

> <PUBCHEM_COMPONENT_COUNT>
1

> <PUBCHEM_CACTVS_TAUTO_COUNT>
2

> <PUBCHEM_CONFORMER_ID>
0006BA6900000001

> <PUBCHEM_MMFF94_ENERGY>
32.7282

> <PUBCHEM_FEATURE_SELFOVERLAP>
76.207

> <PUBCHEM_SHAPE_FINGERPRINT>
10064457 181 18265328413334243701
104564 63 17401478252460547092
10688039 33 17191510001646174555
108634 29 18047468924648792086
1100329 8 18410299077786482098
11578080 2 16446729494086875906
12107183 9 17541085907457942545
12156800 1 17615162925507020491
12553582 1 17257648349013341011
12788726 201 17548708383037697530
13052359 8 18195249906151066544
138480 1 17977665638711907951
14178342 30 17974860767459526360
14866123 147 18340216172552208026
17138139 8 17536343365708771839
19427546 20 17837480853304491284
19591789 44 18410570652262396598
19930381 70 18267021842125075571
20028762 73 18259991474192892662
20645477 70 18342183305848679597
21452121 199 17765164155940547378
21641784 216 16904957458711151612
23558518 356 17550676517468205248
23559900 14 17979367678379730169
33824 294 18411700989049836569
6438718 38 17535736400440085023
7097593 13 17757541229061775617
81228 2 17693096266849855264

> <PUBCHEM_SHAPE_MULTIPOLES>
418.49
7.47
5.76
1.03
6.21
8.17
0.15
-3.11
-0.75
-4.66
0.1
0.72
0.18
0.04

> <PUBCHEM_SHAPE_SELFOVERLAP>
858.126

> <PUBCHEM_SHAPE_VOLUME>
242.1

> <PUBCHEM_COORDINATE_TYPE>
2
5
10

$$$$

