329983
  -OEChem-07051212583D

 25 26  0     1  0  0  0  0  0999 V2000
    1.0437   -1.7724    0.0545 O   0  0  0  0  0  0  0  0  0  0  0  0
   -2.1990    0.0459   -0.3384 C   0  0  1  0  0  0  0  0  0  0  0  0
   -1.6703    1.3478    0.3244 C   0  0  0  0  0  0  0  0  0  0  0  0
   -1.3449   -1.1890    0.0538 C   0  0  0  0  0  0  0  0  0  0  0  0
   -0.2120    1.6677   -0.0751 C   0  0  0  0  0  0  0  0  0  0  0  0
    0.6293    0.4460   -0.0200 C   0  0  0  0  0  0  0  0  0  0  0  0
    0.0855   -0.8173    0.0179 C   0  0  0  0  0  0  0  0  0  0  0  0
   -3.6654   -0.1864    0.0189 C   0  0  0  0  0  0  0  0  0  0  0  0
    2.0300    0.2600   -0.0146 C   0  0  0  0  0  0  0  0  0  0  0  0
    2.2316   -1.1043    0.0320 C   0  0  0  0  0  0  0  0  0  0  0  0
    3.0715    1.3020   -0.0535 C   0  0  0  0  0  0  0  0  0  0  0  0
   -2.1329    0.1776   -1.4276 H   0  0  0  0  0  0  0  0  0  0  0  0
   -1.7285    1.2421    1.4161 H   0  0  0  0  0  0  0  0  0  0  0  0
   -2.3081    2.1977    0.0538 H   0  0  0  0  0  0  0  0  0  0  0  0
   -1.5484   -2.0193   -0.6313 H   0  0  0  0  0  0  0  0  0  0  0  0
   -1.5994   -1.5218    1.0672 H   0  0  0  0  0  0  0  0  0  0  0  0
    0.1871    2.4443    0.5865 H   0  0  0  0  0  0  0  0  0  0  0  0
   -0.1960    2.0641   -1.0975 H   0  0  0  0  0  0  0  0  0  0  0  0
   -3.7975   -0.3051    1.0996 H   0  0  0  0  0  0  0  0  0  0  0  0
   -4.2824    0.6578   -0.3065 H   0  0  0  0  0  0  0  0  0  0  0  0
   -4.0457   -1.0887   -0.4713 H   0  0  0  0  0  0  0  0  0  0  0  0
    3.1132   -1.7287    0.0530 H   0  0  0  0  0  0  0  0  0  0  0  0
    3.0231    1.9266    0.8443 H   0  0  0  0  0  0  0  0  0  0  0  0
    4.0746    0.8663   -0.1072 H   0  0  0  0  0  0  0  0  0  0  0  0
    2.9389    1.9472   -0.9281 H   0  0  0  0  0  0  0  0  0  0  0  0
  1  7  1  0  0  0  0
  1 10  1  0  0  0  0
  2  3  1  0  0  0  0
  2  4  1  0  0  0  0
  2  8  1  0  0  0  0
  2 12  1  0  0  0  0
  3  5  1  0  0  0  0
  3 13  1  0  0  0  0
  3 14  1  0  0  0  0
  4  7  1  0  0  0  0
  4 15  1  0  0  0  0
  4 16  1  0  0  0  0
  5  6  1  0  0  0  0
  5 17  1  0  0  0  0
  5 18  1  0  0  0  0
  6  7  2  0  0  0  0
  6  9  1  0  0  0  0
  8 19  1  0  0  0  0
  8 20  1  0  0  0  0
  8 21  1  0  0  0  0
  9 10  2  0  0  0  0
  9 11  1  0  0  0  0
 10 22  1  0  0  0  0
 11 23  1  0  0  0  0
 11 24  1  0  0  0  0
 11 25  1  0  0  0  0
M  END
> <PUBCHEM_COMPOUND_CID>
329983

> <PUBCHEM_CONFORMER_RMSD>
0.4

> <PUBCHEM_CONFORMER_DIVERSEORDER>
3
1
2

> <PUBCHEM_MMFF94_PARTIAL_CHARGES>
9
1 -0.28
10 -0.01
11 0.18
22 0.15
4 0.18
5 0.18
6 -0.18
7 -0.04
9 -0.18

> <PUBCHEM_EFFECTIVE_ROTOR_COUNT>
0.8

> <PUBCHEM_PHARMACOPHORE_FEATURES>
3
1 1 acceptor
5 1 6 7 9 10 rings
6 2 3 4 5 6 7 rings

> <PUBCHEM_HEAVY_ATOM_COUNT>
11

> <PUBCHEM_ATOM_DEF_STEREO_COUNT>
0

> <PUBCHEM_ATOM_UDEF_STEREO_COUNT>
1

> <PUBCHEM_BOND_DEF_STEREO_COUNT>
0

> <PUBCHEM_BOND_UDEF_STEREO_COUNT>
0

> <PUBCHEM_ISOTOPIC_ATOM_COUNT>
0

> <PUBCHEM_COMPONENT_COUNT>
1

> <PUBCHEM_CACTVS_TAUTO_COUNT>
1

> <PUBCHEM_CONFORMER_ID>
000508FF00000003

> <PUBCHEM_MMFF94_ENERGY>
11.0762

> <PUBCHEM_FEATURE_SELFOVERLAP>
15.317

> <PUBCHEM_SHAPE_FINGERPRINT>
10219947 1 18411980247912781349
11471102 20 18411142437464458949
12423570 1 17703795764665453837
12897270 3 18410292518796401668
13380535 76 18411983525052222410
14325111 11 18410855486056448481
15775835 57 18260827072827580537
16945 1 18408608032607099097
17844478 74 18060694005474494669
193761 8 17978229687965720052
19973954 147 18265332995984791876
20201158 50 18342459223016071651
20645477 70 18337960090455694463
21040471 1 18338798918774004738
21501502 16 18337388373882950672
23235685 24 18340493270160450669
23402655 69 18336277799221131005
23552423 10 18269554008217868534
241688 4 18124877016944898608
2748010 2 18267305511328999141
369184 2 16702028564535739320
5084963 1 18188776187512686410
528886 8 18337958882910046346
53812653 166 18262240993331119944
7364860 26 18261674869866352014

> <PUBCHEM_SHAPE_MULTIPOLES>
220.51
4.59
1.74
0.63
1.3
0.03
0
0.43
0.07
-0.46
-0.05
0.05
0.03
-0.09

> <PUBCHEM_SHAPE_SELFOVERLAP>
463.197

> <PUBCHEM_SHAPE_VOLUME>
127.3

> <PUBCHEM_COORDINATE_TYPE>
2
5
10

$$$$

