5280878
  -OEChem-07051212512D

 74 73  0     1  0  0  0  0  0999 V2000
    7.7331    1.4050    0.0000 S   0  0  0  0  0  0  0  0  0  0  0  0
    6.8671    3.9050    0.0000 O   0  0  0  0  0  0  0  0  0  0  0  0
    2.5369    2.4050    0.0000 O   0  0  0  0  0  0  0  0  0  0  0  0
    3.4030    3.9050    0.0000 O   0  0  0  0  0  0  0  0  0  0  0  0
    5.1350   -0.0950    0.0000 O   0  0  0  0  0  0  0  0  0  0  0  0
    4.2690   -3.5950    0.0000 O   0  0  0  0  0  0  0  0  0  0  0  0
    6.0010   -3.5950    0.0000 O   0  0  0  0  0  0  0  0  0  0  0  0
    7.7331   -0.5950    0.0000 N   0  0  0  0  0  0  0  0  0  0  0  0
    6.0010   -1.5950    0.0000 N   0  0  0  0  0  0  0  0  0  0  0  0
    6.8671    2.9050    0.0000 C   0  0  1  0  0  0  0  0  0  0  0  0
    6.0010    2.4050    0.0000 C   0  0  0  0  0  0  0  0  0  0  0  0
    7.7331    2.4050    0.0000 C   0  0  1  0  0  0  0  0  0  0  0  0
    5.1350    2.9050    0.0000 C   0  0  0  0  0  0  0  0  0  0  0  0
    4.2690    2.4050    0.0000 C   0  0  0  0  0  0  0  0  0  0  0  0
    8.5991    2.9050    0.0000 C   0  0  0  0  0  0  0  0  0  0  0  0
    6.8671    0.9050    0.0000 C   0  0  0  0  0  0  0  0  0  0  0  0
    6.8671   -0.0950    0.0000 C   0  0  1  0  0  0  0  0  0  0  0  0
    9.4651    2.4050    0.0000 C   0  0  0  0  0  0  0  0  0  0  0  0
    3.4030    2.9050    0.0000 C   0  0  0  0  0  0  0  0  0  0  0  0
   12.9292   -1.5950    0.0000 C   0  0  0  0  0  0  0  0  0  0  0  0
   12.0632   -2.0950    0.0000 C   0  0  0  0  0  0  0  0  0  0  0  0
    6.0010   -0.5950    0.0000 C   0  0  0  0  0  0  0  0  0  0  0  0
   12.9292   -0.5950    0.0000 C   0  0  0  0  0  0  0  0  0  0  0  0
   12.0632   -3.0950    0.0000 C   0  0  0  0  0  0  0  0  0  0  0  0
   10.3312    2.9050    0.0000 C   0  0  0  0  0  0  0  0  0  0  0  0
   13.7953   -0.0950    0.0000 C   0  0  0  0  0  0  0  0  0  0  0  0
   12.9292   -3.5950    0.0000 C   0  0  0  0  0  0  0  0  0  0  0  0
    5.1350   -2.0950    0.0000 C   0  0  0  0  0  0  0  0  0  0  0  0
   13.7953    0.9050    0.0000 C   0  0  0  0  0  0  0  0  0  0  0  0
   11.1972    2.4050    0.0000 C   0  0  0  0  0  0  0  0  0  0  0  0
   12.9292    1.4050    0.0000 C   0  0  0  0  0  0  0  0  0  0  0  0
   12.0632    2.9050    0.0000 C   0  0  0  0  0  0  0  0  0  0  0  0
   12.9292    2.4050    0.0000 C   0  0  0  0  0  0  0  0  0  0  0  0
    5.1350   -3.0950    0.0000 C   0  0  0  0  0  0  0  0  0  0  0  0
    6.3301    3.2150    0.0000 H   0  0  0  0  0  0  0  0  0  0  0  0
    5.6025    1.9300    0.0000 H   0  0  0  0  0  0  0  0  0  0  0  0
    6.3996    1.9300    0.0000 H   0  0  0  0  0  0  0  0  0  0  0  0
    8.2700    2.0950    0.0000 H   0  0  0  0  0  0  0  0  0  0  0  0
    5.5335    3.3800    0.0000 H   0  0  0  0  0  0  0  0  0  0  0  0
    4.7365    3.3800    0.0000 H   0  0  0  0  0  0  0  0  0  0  0  0
    3.8705    1.9300    0.0000 H   0  0  0  0  0  0  0  0  0  0  0  0
    4.6675    1.9300    0.0000 H   0  0  0  0  0  0  0  0  0  0  0  0
    8.5991    3.5250    0.0000 H   0  0  0  0  0  0  0  0  0  0  0  0
    6.6550    1.4876    0.0000 H   0  0  0  0  0  0  0  0  0  0  0  0
    6.2565    0.7973    0.0000 H   0  0  0  0  0  0  0  0  0  0  0  0
    7.4040    0.2150    0.0000 H   0  0  0  0  0  0  0  0  0  0  0  0
    6.3301    4.2150    0.0000 H   0  0  0  0  0  0  0  0  0  0  0  0
    9.4651    1.7850    0.0000 H   0  0  0  0  0  0  0  0  0  0  0  0
   13.1413   -2.1776    0.0000 H   0  0  0  0  0  0  0  0  0  0  0  0
   13.5398   -1.4873    0.0000 H   0  0  0  0  0  0  0  0  0  0  0  0
   11.8512   -1.5124    0.0000 H   0  0  0  0  0  0  0  0  0  0  0  0
   11.4526   -2.2027    0.0000 H   0  0  0  0  0  0  0  0  0  0  0  0
   12.7172   -0.0124    0.0000 H   0  0  0  0  0  0  0  0  0  0  0  0
   12.3187   -0.7027    0.0000 H   0  0  0  0  0  0  0  0  0  0  0  0
   11.4526   -2.9873    0.0000 H   0  0  0  0  0  0  0  0  0  0  0  0
   11.8512   -3.6776    0.0000 H   0  0  0  0  0  0  0  0  0  0  0  0
    7.7331   -1.2150    0.0000 H   0  0  0  0  0  0  0  0  0  0  0  0
    8.2700   -0.2850    0.0000 H   0  0  0  0  0  0  0  0  0  0  0  0
   10.3312    3.5250    0.0000 H   0  0  0  0  0  0  0  0  0  0  0  0
    6.5380   -1.9050    0.0000 H   0  0  0  0  0  0  0  0  0  0  0  0
   14.3322   -0.4050    0.0000 H   0  0  0  0  0  0  0  0  0  0  0  0
   12.6192   -4.1319    0.0000 H   0  0  0  0  0  0  0  0  0  0  0  0
   13.4662   -3.9050    0.0000 H   0  0  0  0  0  0  0  0  0  0  0  0
   13.2392   -3.0581    0.0000 H   0  0  0  0  0  0  0  0  0  0  0  0
    4.9230   -1.5124    0.0000 H   0  0  0  0  0  0  0  0  0  0  0  0
    4.5244   -2.2027    0.0000 H   0  0  0  0  0  0  0  0  0  0  0  0
   14.3322    1.2150    0.0000 H   0  0  0  0  0  0  0  0  0  0  0  0
    2.0000    2.7150    0.0000 H   0  0  0  0  0  0  0  0  0  0  0  0
   11.1972    1.7850    0.0000 H   0  0  0  0  0  0  0  0  0  0  0  0
   12.3187    1.5127    0.0000 H   0  0  0  0  0  0  0  0  0  0  0  0
   12.7172    0.8224    0.0000 H   0  0  0  0  0  0  0  0  0  0  0  0
   12.0632    3.5250    0.0000 H   0  0  0  0  0  0  0  0  0  0  0  0
   13.4662    2.7150    0.0000 H   0  0  0  0  0  0  0  0  0  0  0  0
    4.2690   -4.2150    0.0000 H   0  0  0  0  0  0  0  0  0  0  0  0
  1 12  1  0  0  0  0
  1 16  1  0  0  0  0
 10  2  1  6  0  0  0
  2 47  1  0  0  0  0
  3 19  1  0  0  0  0
  3 68  1  0  0  0  0
  4 19  2  0  0  0  0
  5 22  2  0  0  0  0
  6 34  1  0  0  0  0
  6 74  1  0  0  0  0
  7 34  2  0  0  0  0
 17  8  1  6  0  0  0
  8 57  1  0  0  0  0
  8 58  1  0  0  0  0
  9 22  1  0  0  0  0
  9 28  1  0  0  0  0
  9 60  1  0  0  0  0
 10 11  1  0  0  0  0
 10 12  1  0  0  0  0
 10 35  1  0  0  0  0
 11 13  1  0  0  0  0
 11 36  1  0  0  0  0
 11 37  1  0  0  0  0
 12 15  1  1  0  0  0
 12 38  1  0  0  0  0
 13 14  1  0  0  0  0
 13 39  1  0  0  0  0
 13 40  1  0  0  0  0
 14 19  1  0  0  0  0
 14 41  1  0  0  0  0
 14 42  1  0  0  0  0
 15 18  2  0  0  0  0
 15 43  1  0  0  0  0
 16 17  1  0  0  0  0
 16 44  1  0  0  0  0
 16 45  1  0  0  0  0
 17 22  1  0  0  0  0
 17 46  1  0  0  0  0
 18 25  1  0  0  0  0
 18 48  1  0  0  0  0
 20 21  1  0  0  0  0
 20 23  1  0  0  0  0
 20 49  1  0  0  0  0
 20 50  1  0  0  0  0
 21 24  1  0  0  0  0
 21 51  1  0  0  0  0
 21 52  1  0  0  0  0
 23 26  1  0  0  0  0
 23 53  1  0  0  0  0
 23 54  1  0  0  0  0
 24 27  1  0  0  0  0
 24 55  1  0  0  0  0
 24 56  1  0  0  0  0
 25 30  2  0  0  0  0
 25 59  1  0  0  0  0
 26 29  2  0  0  0  0
 26 61  1  0  0  0  0
 27 62  1  0  0  0  0
 27 63  1  0  0  0  0
 27 64  1  0  0  0  0
 28 34  1  0  0  0  0
 28 65  1  0  0  0  0
 28 66  1  0  0  0  0
 29 31  1  0  0  0  0
 29 67  1  0  0  0  0
 30 32  1  0  0  0  0
 30 69  1  0  0  0  0
 31 33  1  0  0  0  0
 31 70  1  0  0  0  0
 31 71  1  0  0  0  0
 32 33  2  0  0  0  0
 32 72  1  0  0  0  0
 33 73  1  0  0  0  0
M  END
> <PUBCHEM_COMPOUND_CID>
5280878

> <PUBCHEM_COMPOUND_CANONICALIZED>
1

> <PUBCHEM_CACTVS_COMPLEXITY>
706

> <PUBCHEM_CACTVS_HBOND_ACCEPTOR>
8

> <PUBCHEM_CACTVS_HBOND_DONOR>
5

> <PUBCHEM_CACTVS_ROTATABLE_BOND>
20

> <PUBCHEM_CACTVS_SUBSKEYS>
AAADcfB7OABAAAAAAAAAAAAAAAAAAAAAAAAAAAAAAAAAAAAAAAAAHgQQCAAACDzlwAaCCALAAgiIACHSGAAAAAAgABAICIGIAAgKUBIgASAUQAAE1gC4gAOI7CTAAAAAAAAAAAAAAAAAAAAAAAAAAAAAAA==

> <PUBCHEM_IUPAC_OPENEYE_NAME>
(5S,6R,7E,9E,11Z,14Z)-6-[(2R)-2-amino-3-(carboxymethylamino)-3-oxo-propyl]sulfanyl-5-hydroxy-icosa-7,9,11,14-tetraenoic acid

> <PUBCHEM_IUPAC_CAS_NAME>
(5S,6R,7E,9E,11Z,14Z)-6-[[(2R)-2-amino-3-(carboxymethylamino)-3-oxopropyl]thio]-5-hydroxyeicosa-7,9,11,14-tetraenoic acid

> <PUBCHEM_IUPAC_NAME>
(5S,6R,7E,9E,11Z,14Z)-6-[(2R)-2-amino-3-(carboxymethylamino)-3-oxopropyl]sulfanyl-5-hydroxyicosa-7,9,11,14-tetraenoic acid

> <PUBCHEM_IUPAC_SYSTEMATIC_NAME>
(5S,6R,7E,9E,11Z,14Z)-6-[(2R)-2-azanyl-3-(2-hydroxy-2-oxoethylamino)-3-oxidanylidene-propyl]sulfanyl-5-oxidanyl-icosa-7,9,11,14-tetraenoic acid

> <PUBCHEM_IUPAC_TRADITIONAL_NAME>
(5S,6R,7E,9E,11Z,14Z)-6-[[(2R)-2-amino-3-(carboxymethylamino)-3-keto-propyl]thio]-5-hydroxy-eicosa-7,9,11,14-tetraenoic acid

> <PUBCHEM_IUPAC_INCHI>
InChI=1S/C25H40N2O6S/c1-2-3-4-5-6-7-8-9-10-11-12-13-16-22(21(28)15-14-17-23(29)30)34-19-20(26)25(33)27-18-24(31)32/h6-7,9-13,16,20-22,28H,2-5,8,14-15,17-19,26H2,1H3,(H,27,33)(H,29,30)(H,31,32)/b7-6-,10-9-,12-11+,16-13+/t20-,21-,22+/m0/s1

> <PUBCHEM_IUPAC_INCHIKEY>
YEESKJGWJFYOOK-IJHYULJSSA-N

> <PUBCHEM_XLOGP3_AA>
1.4

> <PUBCHEM_EXACT_MASS>
496.260708

> <PUBCHEM_MOLECULAR_FORMULA>
C25H40N2O6S

> <PUBCHEM_MOLECULAR_WEIGHT>
496.6599

> <PUBCHEM_OPENEYE_CAN_SMILES>
CCCCCC=CCC=CC=CC=CC(C(CCCC(=O)O)O)SCC(C(=O)NCC(=O)O)N

> <PUBCHEM_OPENEYE_ISO_SMILES>
CCCCC/C=C\C/C=C\C=C\C=C\[C@H]([C@H](CCCC(=O)O)O)SC[C@@H](C(=O)NCC(=O)O)N

> <PUBCHEM_CACTVS_TPSA>
175

> <PUBCHEM_MONOISOTOPIC_WEIGHT>
496.260708

> <PUBCHEM_TOTAL_CHARGE>
0

> <PUBCHEM_HEAVY_ATOM_COUNT>
34

> <PUBCHEM_ATOM_DEF_STEREO_COUNT>
3

> <PUBCHEM_ATOM_UDEF_STEREO_COUNT>
0

> <PUBCHEM_BOND_DEF_STEREO_COUNT>
4

> <PUBCHEM_BOND_UDEF_STEREO_COUNT>
0

> <PUBCHEM_ISOTOPIC_ATOM_COUNT>
0

> <PUBCHEM_COMPONENT_COUNT>
1

> <PUBCHEM_CACTVS_TAUTO_COUNT>
2

> <PUBCHEM_COORDINATE_TYPE>
1
5
255

> <PUBCHEM_BONDANNOTATIONS>
12  15  5
10  2  6
17  8  6

$$$$

