73441
  -OEChem-07051213033D

 61 65  0     1  0  0  0  0  0999 V2000
    6.0122    0.8256    0.4936 O   0  0  0  0  0  0  0  0  0  0  0  0
    4.1320   -0.0363    2.1892 O   0  0  0  0  0  0  0  0  0  0  0  0
    6.3804   -1.1584   -1.4982 O   0  0  0  0  0  0  0  0  0  0  0  0
    4.4284   -2.4299    1.1596 O   0  0  0  0  0  0  0  0  0  0  0  0
   -5.0725   -0.6322    0.9004 O   0  0  0  0  0  0  0  0  0  0  0  0
    1.6099   -1.9812    1.3744 O   0  0  0  0  0  0  0  0  0  0  0  0
   -6.5452    0.0058   -2.9041 O   0  0  0  0  0  0  0  0  0  0  0  0
    0.0789    2.9909    0.2717 O   0  0  0  0  0  0  0  0  0  0  0  0
   -8.3581   -0.1490   -0.6888 O   0  0  0  0  0  0  0  0  0  0  0  0
   -2.3393    2.2820   -0.0095 O   0  0  0  0  0  0  0  0  0  0  0  0
    4.6751    0.8910   -0.0132 C   0  0  2  0  0  0  0  0  0  0  0  0
    3.7950   -0.1134    0.7987 C   0  0  1  0  0  0  0  0  0  0  0  0
    4.6896    0.5893   -1.5344 C   0  0  0  0  0  0  0  0  0  0  0  0
    5.0325   -0.8701   -1.8768 C   0  0  2  0  0  0  0  0  0  0  0  0
    4.1124   -1.8315   -1.1293 C   0  0  0  0  0  0  0  0  0  0  0  0
    4.1495   -1.5397    0.3544 C   0  0  0  0  0  0  0  0  0  0  0  0
    2.3036    0.2048    0.7187 C   0  0  0  0  0  0  0  0  0  0  0  0
    4.1695    2.3034    0.1658 C   0  0  0  0  0  0  0  0  0  0  0  0
    1.8959    1.4725    0.4961 C   0  0  0  0  0  0  0  0  0  0  0  0
    4.9210   -1.1051   -3.3858 C   0  0  0  0  0  0  0  0  0  0  0  0
    2.8723    2.5480    0.3971 C   0  0  0  0  0  0  0  0  0  0  0  0
    1.2953   -0.8690    0.9671 C   0  0  0  0  0  0  0  0  0  0  0  0
   -0.1261   -0.5628    0.7313 C   0  0  0  0  0  0  0  0  0  0  0  0
    0.4512    1.8305    0.4074 C   0  0  0  0  0  0  0  0  0  0  0  0
   -4.3043    0.2716    0.0978 C   0  0  2  0  0  0  0  0  0  0  0  0
   -0.5346    0.7402    0.4653 C   0  0  0  0  0  0  0  0  0  0  0  0
   -4.6869    0.1184   -1.3755 C   0  0  0  0  0  0  0  0  0  0  0  0
   -6.1851    0.3389   -1.5656 C   0  0  2  0  0  0  0  0  0  0  0  0
   -6.9894   -0.5362   -0.6021 C   0  0  1  0  0  0  0  0  0  0  0  0
   -2.8338   -0.0062    0.3193 C   0  0  0  0  0  0  0  0  0  0  0  0
   -6.4785   -0.3722    0.8357 C   0  0  1  0  0  0  0  0  0  0  0  0
   -1.8917    1.0207    0.2601 C   0  0  0  0  0  0  0  0  0  0  0  0
   -1.0753   -1.5917    0.7929 C   0  0  0  0  0  0  0  0  0  0  0  0
   -2.4260   -1.3110    0.5850 C   0  0  0  0  0  0  0  0  0  0  0  0
   -7.1581   -1.3377    1.8016 C   0  0  0  0  0  0  0  0  0  0  0  0
    3.7153    0.8370   -1.9775 H   0  0  0  0  0  0  0  0  0  0  0  0
    5.4395    1.2381   -2.0087 H   0  0  0  0  0  0  0  0  0  0  0  0
    4.4396   -2.8681   -1.2748 H   0  0  0  0  0  0  0  0  0  0  0  0
    3.0745   -1.7528   -1.4709 H   0  0  0  0  0  0  0  0  0  0  0  0
    4.8642    3.1320    0.0634 H   0  0  0  0  0  0  0  0  0  0  0  0
    3.9056   -0.9201   -3.7513 H   0  0  0  0  0  0  0  0  0  0  0  0
    5.6112   -0.4520   -3.9319 H   0  0  0  0  0  0  0  0  0  0  0  0
    5.2002   -2.1337   -3.6415 H   0  0  0  0  0  0  0  0  0  0  0  0
    2.5356    3.5741    0.5020 H   0  0  0  0  0  0  0  0  0  0  0  0
    6.0378    1.2744    1.3559 H   0  0  0  0  0  0  0  0  0  0  0  0
    5.0793   -0.2345    2.2815 H   0  0  0  0  0  0  0  0  0  0  0  0
   -4.5486    1.2781    0.4592 H   0  0  0  0  0  0  0  0  0  0  0  0
    6.4873   -0.9664   -0.5519 H   0  0  0  0  0  0  0  0  0  0  0  0
   -4.1247    0.8090   -2.0155 H   0  0  0  0  0  0  0  0  0  0  0  0
   -4.4297   -0.8897   -1.7298 H   0  0  0  0  0  0  0  0  0  0  0  0
   -6.4362    1.3960   -1.4205 H   0  0  0  0  0  0  0  0  0  0  0  0
   -6.9211   -1.5874   -0.9095 H   0  0  0  0  0  0  0  0  0  0  0  0
   -6.6735    0.6471    1.1946 H   0  0  0  0  0  0  0  0  0  0  0  0
   -0.7825   -2.6185    0.9961 H   0  0  0  0  0  0  0  0  0  0  0  0
   -3.1357   -2.1329    0.6232 H   0  0  0  0  0  0  0  0  0  0  0  0
   -6.7551   -1.2117    2.8125 H   0  0  0  0  0  0  0  0  0  0  0  0
   -8.2397   -1.1770    1.8365 H   0  0  0  0  0  0  0  0  0  0  0  0
   -6.9661   -2.3774    1.5146 H   0  0  0  0  0  0  0  0  0  0  0  0
   -6.3278   -0.9304   -3.0515 H   0  0  0  0  0  0  0  0  0  0  0  0
   -8.6338   -0.2573   -1.6152 H   0  0  0  0  0  0  0  0  0  0  0  0
   -3.1264    2.2509   -0.5756 H   0  0  0  0  0  0  0  0  0  0  0  0
  1 11  1  0  0  0  0
  1 45  1  0  0  0  0
  2 12  1  0  0  0  0
  2 46  1  0  0  0  0
  3 14  1  0  0  0  0
  3 48  1  0  0  0  0
  4 16  2  0  0  0  0
  5 25  1  0  0  0  0
  5 31  1  0  0  0  0
  6 22  2  0  0  0  0
  7 28  1  0  0  0  0
  7 59  1  0  0  0  0
  8 24  2  0  0  0  0
  9 29  1  0  0  0  0
  9 60  1  0  0  0  0
 10 32  1  0  0  0  0
 10 61  1  0  0  0  0
 11 12  1  0  0  0  0
 11 13  1  0  0  0  0
 11 18  1  0  0  0  0
 12 16  1  0  0  0  0
 12 17  1  0  0  0  0
 13 14  1  0  0  0  0
 13 36  1  0  0  0  0
 13 37  1  0  0  0  0
 14 15  1  0  0  0  0
 14 20  1  0  0  0  0
 15 16  1  0  0  0  0
 15 38  1  0  0  0  0
 15 39  1  0  0  0  0
 17 19  2  0  0  0  0
 17 22  1  0  0  0  0
 18 21  2  0  0  0  0
 18 40  1  0  0  0  0
 19 21  1  0  0  0  0
 19 24  1  0  0  0  0
 20 41  1  0  0  0  0
 20 42  1  0  0  0  0
 20 43  1  0  0  0  0
 21 44  1  0  0  0  0
 22 23  1  0  0  0  0
 23 26  2  0  0  0  0
 23 33  1  0  0  0  0
 24 26  1  0  0  0  0
 25 27  1  0  0  0  0
 25 30  1  0  0  0  0
 25 47  1  0  0  0  0
 26 32  1  0  0  0  0
 27 28  1  0  0  0  0
 27 49  1  0  0  0  0
 27 50  1  0  0  0  0
 28 29  1  0  0  0  0
 28 51  1  0  0  0  0
 29 31  1  0  0  0  0
 29 52  1  0  0  0  0
 30 32  2  0  0  0  0
 30 34  1  0  0  0  0
 31 35  1  0  0  0  0
 31 53  1  0  0  0  0
 33 34  2  0  0  0  0
 33 54  1  0  0  0  0
 34 55  1  0  0  0  0
 35 56  1  0  0  0  0
 35 57  1  0  0  0  0
 35 58  1  0  0  0  0
M  END
> <PUBCHEM_COMPOUND_CID>
73441

> <PUBCHEM_CONFORMER_RMSD>
0.8

> <PUBCHEM_CONFORMER_DIVERSEORDER>
1
11
8
14
3
13
10
12
2
9
6
7
5
4

> <PUBCHEM_MMFF94_PARTIAL_CHARGES>
41
1 -0.68
10 -0.53
11 0.42
12 0.48
14 0.28
15 0.06
16 0.45
17 -0.12
18 -0.29
19 0.01
2 -0.68
21 -0.15
22 0.47
23 0.09
24 0.47
25 0.42
26 0.09
28 0.28
29 0.28
3 -0.68
30 -0.14
31 0.28
32 0.08
33 -0.15
34 -0.15
4 -0.57
40 0.15
44 0.15
45 0.4
46 0.4
48 0.4
5 -0.56
54 0.15
55 0.15
59 0.4
6 -0.57
60 0.4
61 0.45
7 -0.68
8 -0.57
9 -0.68

> <PUBCHEM_EFFECTIVE_ROTOR_COUNT>
2.8

> <PUBCHEM_PHARMACOPHORE_FEATURES>
20
1 1 acceptor
1 1 donor
1 10 donor
1 2 acceptor
1 2 donor
1 3 acceptor
1 3 donor
1 4 acceptor
1 5 acceptor
1 6 acceptor
1 7 acceptor
1 7 donor
1 8 acceptor
1 9 acceptor
1 9 donor
6 11 12 13 14 15 16 rings
6 11 12 17 18 19 21 rings
6 17 19 22 23 24 26 rings
6 23 26 30 32 33 34 rings
6 5 25 27 28 29 31 rings

> <PUBCHEM_HEAVY_ATOM_COUNT>
35

> <PUBCHEM_ATOM_DEF_STEREO_COUNT>
7

> <PUBCHEM_ATOM_UDEF_STEREO_COUNT>
0

> <PUBCHEM_BOND_DEF_STEREO_COUNT>
0

> <PUBCHEM_BOND_UDEF_STEREO_COUNT>
0

> <PUBCHEM_ISOTOPIC_ATOM_COUNT>
0

> <PUBCHEM_COMPONENT_COUNT>
1

> <PUBCHEM_CACTVS_TAUTO_COUNT>
10

> <PUBCHEM_CONFORMER_ID>
00011EE100000001

> <PUBCHEM_MMFF94_ENERGY>
106.4288

> <PUBCHEM_FEATURE_SELFOVERLAP>
101.628

> <PUBCHEM_SHAPE_FINGERPRINT>
10299344 5 16588021308201592559
10319926 262 13840265888645665935
10554248 39 16772975686701678491
10670039 82 18059849623383539236
10673678 19 16558169533068666838
10693767 8 18260271879765009542
11331351 85 17530955909036062201
11828532 37 18269822147638045470
11991303 11 17846215515151267819
12236239 1 17822009796903629793
12422481 6 16877940568541872957
12838862 33 18268447767173275936
13150687 139 18115855314947161244
13533116 47 16805036333222825666
13540713 4 18125713487595449458
1361 2 17967531276845926526
13617811 41 17704069582011232493
13782708 43 15285366107000990709
13835254 42 17603863442478392984
14347332 77 17895470440102278353
14856354 85 16128367135548034323
14931854 50 18272076250002244014
15064981 113 17096376215075814245
15082195 135 17418084421419626428
15119646 104 16950276317451469341
15131766 46 15553021231831245070
15183329 4 18260548914108980447
15352257 5 16515404071271836223
15439362 3 17342643471976044308
15475509 35 15430037699310620742
15840311 113 12319740276072865143
18608769 82 17987794095330297867
19319366 153 17846784018106902946
20105231 36 18339348717965613475
2026 5 17533483789674770918
20775438 99 18114189601342575838
21057603 130 16732974363299045614
21267235 1 18411975871430875448
21641784 216 17988356074278797237
21781051 124 17774425101863279475
21792938 703 17896045347461300471
22122407 14 14620501342068342669
221357 26 18409164424362023168
2303208 19 18059853944500031243
23081809 10 16950279577653575361
23516275 137 15937506239922917991
23522609 53 16734366241450316145
23559900 14 18337671906391933744
23569914 152 17398692567269610829
23569914 2 15120174264262466279
23569943 247 17677602245709061343
23576562 1 18199754640419722919
24771293 8 18042135275526710400
24771750 20 17698146362411820013
29717793 49 18040999540065066109
3004659 81 17775291603341836090
335352 9 18341613694822663672
34797466 226 18261391126582497668
3886686 26 5684303987183552318
394071 54 18187930512974471000
4058900 60 17274824718215402115
4073 2 16154567362801160015
4093350 32 17676202451452483736
46194498 28 18187918491809018764
5372103 7 17415820424732739044
9831232 110 16805875307570220309

> <PUBCHEM_SHAPE_MULTIPOLES>
661.59
19.38
2.28
2.03
28.99
0.95
1.33
-5.76
6.62
-3.06
-0.11
-0.25
-1.1
1.46

> <PUBCHEM_SHAPE_SELFOVERLAP>
1472.876

> <PUBCHEM_SHAPE_VOLUME>
347.5

> <PUBCHEM_COORDINATE_TYPE>
2
5
10

$$$$

