25244947
  -OEChem-07051213113D

 41 41  0     0  0  0  0  0  0999 V2000
   -3.7596    2.6230    0.6195 O   0  0  0  0  0  0  0  0  0  0  0  0
    0.4412    0.1707    2.0409 O   0  0  0  0  0  0  0  0  0  0  0  0
    4.6708    0.3674   -1.4899 O   0  0  0  0  0  0  0  0  0  0  0  0
   -3.1463    0.3629   -1.2254 C   0  0  0  0  0  0  0  0  0  0  0  0
   -2.1506    1.1515   -0.3919 C   0  0  0  0  0  0  0  0  0  0  0  0
   -3.2557   -1.1145   -0.8215 C   0  0  0  0  0  0  0  0  0  0  0  0
    0.2564    2.0018   -0.1547 C   0  0  0  0  0  0  0  0  0  0  0  0
   -0.8782    1.2759   -0.8194 C   0  0  0  0  0  0  0  0  0  0  0  0
    1.4455    1.1020    0.0736 C   0  0  0  0  0  0  0  0  0  0  0  0
   -2.6807    1.7365    0.8917 C   0  0  0  0  0  0  0  0  0  0  0  0
   -1.9699   -1.8658   -1.0380 C   0  0  0  0  0  0  0  0  0  0  0  0
   -1.2273   -2.5245   -0.1280 C   0  0  0  0  0  0  0  0  0  0  0  0
    1.4796    0.2286    1.1607 C   0  0  0  0  0  0  0  0  0  0  0  0
    2.5176    1.1488   -0.8172 C   0  0  0  0  0  0  0  0  0  0  0  0
    3.6239    0.3222   -0.6214 C   0  0  0  0  0  0  0  0  0  0  0  0
    2.5860   -0.5980    1.3569 C   0  0  0  0  0  0  0  0  0  0  0  0
    0.0525   -3.2571   -0.4138 C   0  0  0  0  0  0  0  0  0  0  0  0
   -1.6633   -2.5802    1.3122 C   0  0  0  0  0  0  0  0  0  0  0  0
    3.6581   -0.5512    0.4659 C   0  0  0  0  0  0  0  0  0  0  0  0
   -2.8736    0.4262   -2.2881 H   0  0  0  0  0  0  0  0  0  0  0  0
   -4.1379    0.8268   -1.1598 H   0  0  0  0  0  0  0  0  0  0  0  0
   -4.0205   -1.5852   -1.4524 H   0  0  0  0  0  0  0  0  0  0  0  0
   -3.6315   -1.1920    0.2021 H   0  0  0  0  0  0  0  0  0  0  0  0
   -0.0179    2.4711    0.7937 H   0  0  0  0  0  0  0  0  0  0  0  0
    0.5480    2.8369   -0.8053 H   0  0  0  0  0  0  0  0  0  0  0  0
   -0.6185    0.8177   -1.7742 H   0  0  0  0  0  0  0  0  0  0  0  0
   -1.9353    2.2910    1.4630 H   0  0  0  0  0  0  0  0  0  0  0  0
   -3.0526    0.9308    1.5339 H   0  0  0  0  0  0  0  0  0  0  0  0
   -1.6153   -1.8701   -2.0682 H   0  0  0  0  0  0  0  0  0  0  0  0
    2.4924    1.8271   -1.6669 H   0  0  0  0  0  0  0  0  0  0  0  0
    2.6253   -1.2838    2.1989 H   0  0  0  0  0  0  0  0  0  0  0  0
    0.8761   -2.8407    0.1728 H   0  0  0  0  0  0  0  0  0  0  0  0
   -0.0529   -4.3178   -0.1645 H   0  0  0  0  0  0  0  0  0  0  0  0
    0.3278   -3.1869   -1.4713 H   0  0  0  0  0  0  0  0  0  0  0  0
   -2.2792   -3.4679    1.4872 H   0  0  0  0  0  0  0  0  0  0  0  0
   -0.7900   -2.6436    1.9717 H   0  0  0  0  0  0  0  0  0  0  0  0
   -2.2112   -1.6923    1.6364 H   0  0  0  0  0  0  0  0  0  0  0  0
    4.5170   -1.1978    0.6236 H   0  0  0  0  0  0  0  0  0  0  0  0
   -4.0928    2.9391    1.4766 H   0  0  0  0  0  0  0  0  0  0  0  0
    0.6381   -0.4961    2.7209 H   0  0  0  0  0  0  0  0  0  0  0  0
    4.4795    1.0251   -2.1805 H   0  0  0  0  0  0  0  0  0  0  0  0
  1 10  1  0  0  0  0
  1 39  1  0  0  0  0
  2 13  1  0  0  0  0
  2 40  1  0  0  0  0
  3 15  1  0  0  0  0
  3 41  1  0  0  0  0
  4  5  1  0  0  0  0
  4  6  1  0  0  0  0
  4 20  1  0  0  0  0
  4 21  1  0  0  0  0
  5  8  2  0  0  0  0
  5 10  1  0  0  0  0
  6 11  1  0  0  0  0
  6 22  1  0  0  0  0
  6 23  1  0  0  0  0
  7  8  1  0  0  0  0
  7  9  1  0  0  0  0
  7 24  1  0  0  0  0
  7 25  1  0  0  0  0
  8 26  1  0  0  0  0
  9 13  2  0  0  0  0
  9 14  1  0  0  0  0
 10 27  1  0  0  0  0
 10 28  1  0  0  0  0
 11 12  2  0  0  0  0
 11 29  1  0  0  0  0
 12 17  1  0  0  0  0
 12 18  1  0  0  0  0
 13 16  1  0  0  0  0
 14 15  2  0  0  0  0
 14 30  1  0  0  0  0
 15 19  1  0  0  0  0
 16 19  2  0  0  0  0
 16 31  1  0  0  0  0
 17 32  1  0  0  0  0
 17 33  1  0  0  0  0
 17 34  1  0  0  0  0
 18 35  1  0  0  0  0
 18 36  1  0  0  0  0
 18 37  1  0  0  0  0
 19 38  1  0  0  0  0
M  END
> <PUBCHEM_COMPOUND_CID>
25244947

> <PUBCHEM_CONFORMER_RMSD>
1

> <PUBCHEM_CONFORMER_DIVERSEORDER>
1
41
17
123
138
63
14
104
70
34
93
45
13
91
126
78
137
69
99
43
49
96
64
68
11
74
98
105
54
48
125
65
136
33
135
142
39
141
88
145
86
2
56
67
79
23
95
140
109
22
102
62
40
84
106
8
19
117
5
55
4
128
16
89
24
118
73
90
46
21
119
81
114
120
97
15
72
29
42
112
108
26
51
144
121
131
28
100
61
10
53
31
6
87
115
82
32
25
116
44
143
107
103
110
47
132
36
60
50
59
71
94
76
38
75
77
85
122
133
130
66
12
58
92
7
80
129
37
124
134
113
127
35
52
27
139
111
101
20
3
18
146
30
57
83
9

> <PUBCHEM_MMFF94_PARTIAL_CHARGES>
27
1 -0.68
10 0.42
11 -0.29
12 -0.28
13 0.08
14 -0.15
15 0.08
16 -0.15
17 0.14
18 0.14
19 -0.15
2 -0.53
26 0.15
29 0.15
3 -0.53
30 0.15
31 0.15
38 0.15
39 0.4
4 0.14
40 0.45
41 0.45
5 -0.28
6 0.14
7 0.28
8 -0.29
9 -0.14

> <PUBCHEM_EFFECTIVE_ROTOR_COUNT>
6

> <PUBCHEM_PHARMACOPHORE_FEATURES>
7
1 1 acceptor
1 1 donor
1 2 donor
1 3 donor
3 12 17 18 hydrophobe
4 4 5 6 11 hydrophobe
6 9 13 14 15 16 19 rings

> <PUBCHEM_HEAVY_ATOM_COUNT>
19

> <PUBCHEM_ATOM_DEF_STEREO_COUNT>
0

> <PUBCHEM_ATOM_UDEF_STEREO_COUNT>
0

> <PUBCHEM_BOND_DEF_STEREO_COUNT>
1

> <PUBCHEM_BOND_UDEF_STEREO_COUNT>
0

> <PUBCHEM_ISOTOPIC_ATOM_COUNT>
0

> <PUBCHEM_COMPONENT_COUNT>
1

> <PUBCHEM_CACTVS_TAUTO_COUNT>
45

> <PUBCHEM_CONFORMER_ID>
0181351300000001

> <PUBCHEM_MMFF94_ENERGY>
30.0383

> <PUBCHEM_FEATURE_SELFOVERLAP>
35.52

> <PUBCHEM_SHAPE_FINGERPRINT>
104564 63 18337667520961233995
10759866 29 17989210326494593150
11578080 2 18042681707162284664
11759241 127 13326270568873772212
121448 382 16987160409957808800
12553582 1 18412550907095570540
12592029 89 18267016344619788377
12788726 201 18262231111049292841
13135754 10 17911760697036913211
13583140 156 13109846991215455652
14081887 123 17901970546576510040
1420 336 18196107555143253351
14251740 79 18043230513962297510
14251745 187 18260832604882848510
15309172 13 18341617087214116921
15415430 112 18342455907259108420
15415430 2 18262526883702937919
16752209 62 18267045919701064319
20645476 183 17989214719982120359
20681677 155 18336540599184581700
20691752 17 18056754553943603127
20871999 31 18335414652085534860
21634736 98 18057322778159074812
23557571 272 17977116656071060042
81228 2 18196106451452456249
90525 40 18342179985580029223

> <PUBCHEM_SHAPE_MULTIPOLES>
373.4
6.72
3.18
1.49
3.81
1.76
-0.34
-1.47
1.63
-2.93
-0.22
0.26
0.11
-0.8

> <PUBCHEM_SHAPE_SELFOVERLAP>
753.869

> <PUBCHEM_SHAPE_VOLUME>
218.3

> <PUBCHEM_COORDINATE_TYPE>
2
5
10

$$$$

