9201
  -OEChem-07051213052D

 29 32  0     0  0  0  0  0  0999 V2000
    5.3181    0.8444    0.0000 C   0  0  0  0  0  0  0  0  0  0  0  0
    4.5124    1.4266    0.0000 C   0  0  0  0  0  0  0  0  0  0  0  0
    5.0091   -0.1067    0.0000 C   0  0  0  0  0  0  0  0  0  0  0  0
    3.7086    0.8416    0.0000 C   0  0  0  0  0  0  0  0  0  0  0  0
    4.0150   -0.1041    0.0000 C   0  0  0  0  0  0  0  0  0  0  0  0
    6.2962    1.0523    0.0000 C   0  0  0  0  0  0  0  0  0  0  0  0
    5.6782   -0.8498    0.0000 C   0  0  0  0  0  0  0  0  0  0  0  0
    6.9654    0.3092    0.0000 C   0  0  0  0  0  0  0  0  0  0  0  0
    6.6564   -0.6419    0.0000 C   0  0  0  0  0  0  0  0  0  0  0  0
    3.3334   -0.8836    0.0000 C   0  0  0  0  0  0  0  0  0  0  0  0
    2.6994    1.0734    0.0000 C   0  0  0  0  0  0  0  0  0  0  0  0
    7.9808    0.5414    0.0000 C   0  0  0  0  0  0  0  0  0  0  0  0
    7.3413   -1.4266    0.0000 C   0  0  0  0  0  0  0  0  0  0  0  0
    2.3191   -0.6752    0.0000 C   0  0  0  0  0  0  0  0  0  0  0  0
    2.0000    0.3098    0.0000 C   0  0  0  0  0  0  0  0  0  0  0  0
    8.6837   -0.2273    0.0000 C   0  0  0  0  0  0  0  0  0  0  0  0
    8.3618   -1.2179    0.0000 C   0  0  0  0  0  0  0  0  0  0  0  0
    4.9263    1.8882    0.0000 H   0  0  0  0  0  0  0  0  0  0  0  0
    4.0968    1.8868    0.0000 H   0  0  0  0  0  0  0  0  0  0  0  0
    6.4878    1.6420    0.0000 H   0  0  0  0  0  0  0  0  0  0  0  0
    5.4866   -1.4394    0.0000 H   0  0  0  0  0  0  0  0  0  0  0  0
    3.5313   -1.4711    0.0000 H   0  0  0  0  0  0  0  0  0  0  0  0
    2.5152    1.6654    0.0000 H   0  0  0  0  0  0  0  0  0  0  0  0
    8.1655    1.1332    0.0000 H   0  0  0  0  0  0  0  0  0  0  0  0
    7.1429   -2.0140    0.0000 H   0  0  0  0  0  0  0  0  0  0  0  0
    1.9056   -1.1372    0.0000 H   0  0  0  0  0  0  0  0  0  0  0  0
    1.3942    0.4416    0.0000 H   0  0  0  0  0  0  0  0  0  0  0  0
    9.2897   -0.0960    0.0000 H   0  0  0  0  0  0  0  0  0  0  0  0
    8.7749   -1.6803    0.0000 H   0  0  0  0  0  0  0  0  0  0  0  0
  1  2  1  0  0  0  0
  1  3  1  0  0  0  0
  1  6  2  0  0  0  0
  2  4  1  0  0  0  0
  2 18  1  0  0  0  0
  2 19  1  0  0  0  0
  3  5  1  0  0  0  0
  3  7  2  0  0  0  0
  4  5  1  0  0  0  0
  4 11  2  0  0  0  0
  5 10  2  0  0  0  0
  6  8  1  0  0  0  0
  6 20  1  0  0  0  0
  7  9  1  0  0  0  0
  7 21  1  0  0  0  0
  8  9  1  0  0  0  0
  8 12  2  0  0  0  0
  9 13  2  0  0  0  0
 10 14  1  0  0  0  0
 10 22  1  0  0  0  0
 11 15  1  0  0  0  0
 11 23  1  0  0  0  0
 12 16  1  0  0  0  0
 12 24  1  0  0  0  0
 13 17  1  0  0  0  0
 13 25  1  0  0  0  0
 14 15  2  0  0  0  0
 14 26  1  0  0  0  0
 15 27  1  0  0  0  0
 16 17  2  0  0  0  0
 16 28  1  0  0  0  0
 17 29  1  0  0  0  0
M  END
> <PUBCHEM_COMPOUND_CID>
9201

> <PUBCHEM_COMPOUND_CANONICALIZED>
1

> <PUBCHEM_CACTVS_COMPLEXITY>
282

> <PUBCHEM_CACTVS_HBOND_ACCEPTOR>
0

> <PUBCHEM_CACTVS_HBOND_DONOR>
0

> <PUBCHEM_CACTVS_ROTATABLE_BOND>
0

> <PUBCHEM_CACTVS_SUBSKEYS>
AAADccB4AAAAAAAAAAAAAAAAAAAAAYAAAAAwYMAAAAAAAGDBVAAAGAAAAAAADACAGAAwAMAAAACAAiBCAAACAAAgAAAIiAAAAIgIICKAERCAIAAggAAIiAcAgMAOwAACAAAQAACAAAQAACAAAQAACAAAAA==

> <PUBCHEM_IUPAC_OPENEYE_NAME>
11H-benzo[b]fluorene

> <PUBCHEM_IUPAC_CAS_NAME>
11H-benzo[b]fluorene

> <PUBCHEM_IUPAC_NAME>
11H-benzo[b]fluorene

> <PUBCHEM_IUPAC_SYSTEMATIC_NAME>
11H-benzo[b]fluorene

> <PUBCHEM_IUPAC_TRADITIONAL_NAME>
11H-benzo[b]fluorene

> <PUBCHEM_IUPAC_INCHI>
InChI=1S/C17H12/c1-2-6-13-11-17-15(9-12(13)5-1)10-14-7-3-4-8-16(14)17/h1-9,11H,10H2

> <PUBCHEM_IUPAC_INCHIKEY>
HAPOJKSPCGLOOD-UHFFFAOYSA-N

> <PUBCHEM_XLOGP3>
5.8

> <PUBCHEM_EXACT_MASS>
216.0939

> <PUBCHEM_MOLECULAR_FORMULA>
C17H12

> <PUBCHEM_MOLECULAR_WEIGHT>
216.27718

> <PUBCHEM_OPENEYE_CAN_SMILES>
C1C2=CC=CC=C2C3=CC4=CC=CC=C4C=C31

> <PUBCHEM_OPENEYE_ISO_SMILES>
C1C2=CC=CC=C2C3=CC4=CC=CC=C4C=C31

> <PUBCHEM_CACTVS_TPSA>
0

> <PUBCHEM_MONOISOTOPIC_WEIGHT>
216.0939

> <PUBCHEM_TOTAL_CHARGE>
0

> <PUBCHEM_HEAVY_ATOM_COUNT>
17

> <PUBCHEM_ATOM_DEF_STEREO_COUNT>
0

> <PUBCHEM_ATOM_UDEF_STEREO_COUNT>
0

> <PUBCHEM_BOND_DEF_STEREO_COUNT>
0

> <PUBCHEM_BOND_UDEF_STEREO_COUNT>
0

> <PUBCHEM_ISOTOPIC_ATOM_COUNT>
0

> <PUBCHEM_COMPONENT_COUNT>
1

> <PUBCHEM_CACTVS_TAUTO_COUNT>
1

> <PUBCHEM_COORDINATE_TYPE>
1
5
255

> <PUBCHEM_BONDANNOTATIONS>
1  3  8
1  6  8
10  14  8
11  15  8
12  16  8
13  17  8
14  15  8
16  17  8
3  7  8
4  11  8
4  5  8
5  10  8
6  8  8
7  9  8
8  12  8
8  9  8
9  13  8

$$$$

