17395790
  -OEChem-06241222523D

 32 34  0     0  0  0  0  0  0999 V2000
   -5.4343    1.8849    0.6847 S   0  0  0  0  0  0  0  0  0  0  0  0
    0.0038   -2.3858   -0.4554 O   0  0  0  0  0  0  0  0  0  0  0  0
   -0.7465   -0.2349    0.1261 N   0  0  0  0  0  0  0  0  0  0  0  0
    3.8387    2.1408   -0.3234 N   0  0  0  0  0  0  0  0  0  0  0  0
    5.4611    0.5921    0.2115 N   0  0  0  0  0  0  0  0  0  0  0  0
    5.1204    1.8478   -0.0896 N   0  0  0  0  0  0  0  0  0  0  0  0
    1.6073   -0.7571   -0.0381 C   0  0  0  0  0  0  0  0  0  0  0  0
    3.2414    0.9486   -0.1624 C   0  0  0  0  0  0  0  0  0  0  0  0
    1.8822    0.6020   -0.2767 C   0  0  0  0  0  0  0  0  0  0  0  0
    4.2757   -0.0389    0.1786 C   0  0  0  0  0  0  0  0  0  0  0  0
   -2.1343   -0.3985    0.0759 C   0  0  0  0  0  0  0  0  0  0  0  0
    2.6067   -1.7111    0.2914 C   0  0  0  0  0  0  0  0  0  0  0  0
    0.2257   -1.2083   -0.1344 C   0  0  0  0  0  0  0  0  0  0  0  0
    3.9719   -1.3930    0.4122 C   0  0  0  0  0  0  0  0  0  0  0  0
   -2.9750    0.6764    0.3649 C   0  0  0  0  0  0  0  0  0  0  0  0
   -2.6778   -1.6377   -0.2630 C   0  0  0  0  0  0  0  0  0  0  0  0
   -4.3593    0.5121    0.3153 C   0  0  0  0  0  0  0  0  0  0  0  0
   -4.0620   -1.8019   -0.3127 C   0  0  0  0  0  0  0  0  0  0  0  0
   -4.9028   -0.7271   -0.0236 C   0  0  0  0  0  0  0  0  0  0  0  0
   -4.9428    3.0894   -0.5811 C   0  0  0  0  0  0  0  0  0  0  0  0
    1.1509    1.3442   -0.5665 H   0  0  0  0  0  0  0  0  0  0  0  0
    2.3229   -2.7482    0.4710 H   0  0  0  0  0  0  0  0  0  0  0  0
    4.7179   -2.1352    0.6659 H   0  0  0  0  0  0  0  0  0  0  0  0
   -0.4488    0.6889    0.4260 H   0  0  0  0  0  0  0  0  0  0  0  0
   -2.5426    1.6375    0.6354 H   0  0  0  0  0  0  0  0  0  0  0  0
   -2.1079   -2.5228   -0.5016 H   0  0  0  0  0  0  0  0  0  0  0  0
   -4.4868   -2.7662   -0.5765 H   0  0  0  0  0  0  0  0  0  0  0  0
   -5.9791   -0.8743   -0.0677 H   0  0  0  0  0  0  0  0  0  0  0  0
    5.8282    2.5716   -0.1404 H   0  0  0  0  0  0  0  0  0  0  0  0
   -5.6030    3.9589   -0.5228 H   0  0  0  0  0  0  0  0  0  0  0  0
   -5.0304    2.6502   -1.5785 H   0  0  0  0  0  0  0  0  0  0  0  0
   -3.9149    3.4239   -0.4196 H   0  0  0  0  0  0  0  0  0  0  0  0
  1 17  1  0  0  0  0
  1 20  1  0  0  0  0
  2 13  2  0  0  0  0
  3 11  1  0  0  0  0
  3 13  1  0  0  0  0
  3 24  1  0  0  0  0
  4  6  1  0  0  0  0
  4  8  2  0  0  0  0
  5  6  1  0  0  0  0
  5 10  2  0  0  0  0
  6 29  1  0  0  0  0
  7  9  2  0  0  0  0
  7 12  1  0  0  0  0
  7 13  1  0  0  0  0
  8  9  1  0  0  0  0
  8 10  1  0  0  0  0
  9 21  1  0  0  0  0
 10 14  1  0  0  0  0
 11 15  2  0  0  0  0
 11 16  1  0  0  0  0
 12 14  2  0  0  0  0
 12 22  1  0  0  0  0
 14 23  1  0  0  0  0
 15 17  1  0  0  0  0
 15 25  1  0  0  0  0
 16 18  2  0  0  0  0
 16 26  1  0  0  0  0
 17 19  2  0  0  0  0
 18 19  1  0  0  0  0
 18 27  1  0  0  0  0
 19 28  1  0  0  0  0
 20 30  1  0  0  0  0
 20 31  1  0  0  0  0
 20 32  1  0  0  0  0
M  END
> <PUBCHEM_COMPOUND_CID>
17395790

> <PUBCHEM_CONFORMER_RMSD>
0.6

> <PUBCHEM_CONFORMER_DIVERSEORDER>
3
33
44
22
47
46
54
49
21
17
50
38
43
4
24
52
28
31
19
56
9
55
5
39
40
12
57
45
2
35
32
1
29
25
18
30
11
48
53
15
51
42
16
20
41
26
7
27
37
13
36
6
14
23
8
10
34

> <PUBCHEM_MMFF94_PARTIAL_CHARGES>
29
1 -0.33
10 0.29
11 0.12
12 -0.15
13 0.54
14 -0.15
15 -0.15
16 -0.15
17 0.1
18 -0.15
19 -0.15
2 -0.57
20 0.23
21 0.15
22 0.15
23 0.15
24 0.37
25 0.15
26 0.15
27 0.15
28 0.15
29 0.27
3 -0.55
4 -0.71
5 -0.71
6 0.57
7 0.09
8 0.29
9 -0.15

> <PUBCHEM_EFFECTIVE_ROTOR_COUNT>
4

> <PUBCHEM_PHARMACOPHORE_FEATURES>
8
1 2 acceptor
1 20 hydrophobe
1 3 donor
1 4 acceptor
1 5 acceptor
5 4 5 6 8 10 rings
6 11 15 16 17 18 19 rings
6 7 8 9 10 12 14 rings

> <PUBCHEM_HEAVY_ATOM_COUNT>
20

> <PUBCHEM_ATOM_DEF_STEREO_COUNT>
0

> <PUBCHEM_ATOM_UDEF_STEREO_COUNT>
0

> <PUBCHEM_BOND_DEF_STEREO_COUNT>
0

> <PUBCHEM_BOND_UDEF_STEREO_COUNT>
0

> <PUBCHEM_ISOTOPIC_ATOM_COUNT>
0

> <PUBCHEM_COMPONENT_COUNT>
1

> <PUBCHEM_CACTVS_TAUTO_COUNT>
9

> <PUBCHEM_CONFORMER_ID>
0109704E00000003

> <PUBCHEM_MMFF94_ENERGY>
63.9419

> <PUBCHEM_FEATURE_SELFOVERLAP>
40.775

> <PUBCHEM_SHAPE_FINGERPRINT>
10014705 185 18410575115424169305
10411042 1 17690561214424248250
10498660 4 18259979388064977769
10595046 47 18338519638272706079
11595378 159 16701749361787126213
12107183 9 18052544566511949219
12236239 1 18334576828546601242
12390115 104 18187629324524482873
12403259 118 18410023129899983498
13073987 5 18342176656970286835
13167372 99 18411138077714145848
13167823 11 18410577270875876787
13740256 8 9655574114936251007
13785724 45 17834115625773683146
14429114 114 18193277390617962304
14528608 73 18336546023638222654
14790565 3 18339638932730792228
15188451 53 15625646217024227273
15196674 1 18410011039498278379
17834072 32 18409447033399666149
17844677 252 18411410726633218347
17959699 21 18410855486156643097
20281389 69 18271805774331367321
20715895 44 18121784091290287745
21065198 48 18412548708167253987
21421861 104 17845385499798581682
21709351 56 18336833082019781303
23402539 116 18114185198557147174
23402655 69 18334296457123206654
23559900 14 17896881156286181047
245318 6 16983763941120091036
268830 7 18201449094205089443
2916195 48 18041286448328393968
300161 21 18408046216704320643
3472631 163 18334292106764493165
34797466 226 17458898241313042621
3545911 37 18408882923457058227
4073 2 18060131003886962602
4214541 1 18410011048483838905
474 4 17988079968300479142
5104073 3 18343584048906946883
542803 24 18409448076765658171
54446538 1 18410577253626864129
6327066 14 18268435818885702693
633830 44 18409732884542603951
636775 72 17760649171316068568
77779 3 18410573980993997707
8272917 22 18410008871152288830
90127 26 18340756113627287651

> <PUBCHEM_SHAPE_MULTIPOLES>
389.65
13.83
2.68
0.7
0.56
0.93
-0.02
7.69
-0.88
1.65
0.39
0.29
0.07
-0.5

> <PUBCHEM_SHAPE_SELFOVERLAP>
836.431

> <PUBCHEM_SHAPE_VOLUME>
217.1

> <PUBCHEM_COORDINATE_TYPE>
2
5
10

$$$$

