441855
  -OEChem-07051212562D

120127  0     1  0  0  0  0  0999 V2000
   18.3157   -1.4044    0.0000 O   0  0  0  0  0  0  0  0  0  0  0  0
   17.4497    2.0956    0.0000 O   0  0  0  0  0  0  0  0  0  0  0  0
   20.8456    0.0956    0.0000 O   0  0  0  0  0  0  0  0  0  0  0  0
   12.9226   -2.4567    0.0000 O   0  0  0  0  0  0  0  0  0  0  0  0
   19.5754    3.4689    0.0000 O   0  0  0  0  0  0  0  0  0  0  0  0
   12.0624   -0.9534    0.0000 O   0  0  0  0  0  0  0  0  0  0  0  0
   21.3360    3.7446    0.0000 O   0  0  0  0  0  0  0  0  0  0  0  0
    9.4586   -2.4434    0.0000 O   0  0  0  0  0  0  0  0  0  0  0  0
    9.4663   -0.4434    0.0000 O   0  0  0  0  0  0  0  0  0  0  0  0
    7.7342   -0.4367    0.0000 O   0  0  0  0  0  0  0  0  0  0  0  0
    5.9945   -2.4300    0.0000 O   0  0  0  0  0  0  0  0  0  0  0  0
    7.7227   -3.4367    0.0000 O   0  0  0  0  0  0  0  0  0  0  0  0
    5.1343   -0.9267    0.0000 O   0  0  0  0  0  0  0  0  0  0  0  0
    2.5304   -2.4167    0.0000 O   0  0  0  0  0  0  0  0  0  0  0  0
    2.5381   -0.4167    0.0000 O   0  0  0  0  0  0  0  0  0  0  0  0
   18.3157   -0.4044    0.0000 C   0  0  1  0  0  0  0  0  0  0  0  0
   17.4497   -0.9044    0.0000 C   0  0  1  0  0  0  0  0  0  0  0  0
   18.3157    0.5956    0.0000 C   0  0  2  0  0  0  0  0  0  0  0  0
   16.5837   -0.4044    0.0000 C   0  0  1  0  0  0  0  0  0  0  0  0
   15.6737   -0.9112    0.0000 C   0  0  2  0  0  0  0  0  0  0  0  0
   17.4497    1.0956    0.0000 C   0  0  1  0  0  0  0  0  0  0  0  0
   15.6656   -1.9528    0.0000 C   0  0  2  0  0  0  0  0  0  0  0  0
   19.2619    0.9003    0.0000 C   0  0  2  0  0  0  0  0  0  0  0  0
   16.5837    0.5956    0.0000 C   0  0  0  0  0  0  0  0  0  0  0  0
   19.2619   -0.7091    0.0000 C   0  0  0  0  0  0  0  0  0  0  0  0
   17.4658   -1.9459    0.0000 C   0  0  0  0  0  0  0  0  0  0  0  0
   19.8456    0.0956    0.0000 C   0  0  2  0  0  0  0  0  0  0  0  0
   16.5677   -2.4736    0.0000 C   0  0  0  0  0  0  0  0  0  0  0  0
   14.7468   -0.3472    0.0000 C   0  0  0  0  0  0  0  0  0  0  0  0
   18.3157    1.5956    0.0000 C   0  0  0  0  0  0  0  0  0  0  0  0
   14.7302   -2.5026    0.0000 C   0  0  0  0  0  0  0  0  0  0  0  0
   15.6814    0.0887    0.0000 C   0  0  0  0  0  0  0  0  0  0  0  0
   13.7990   -0.8751    0.0000 C   0  0  0  0  0  0  0  0  0  0  0  0
   13.7906   -1.9601    0.0000 C   0  0  2  0  0  0  0  0  0  0  0  0
   19.5726    1.8509    0.0000 C   0  0  0  0  0  0  0  0  0  0  0  0
   18.9862    2.6609    0.0000 C   0  0  0  0  0  0  0  0  0  0  0  0
   20.5242    2.1582    0.0000 C   0  0  0  0  0  0  0  0  0  0  0  0
   20.5259    3.1582    0.0000 C   0  0  0  0  0  0  0  0  0  0  0  0
   12.0586   -1.9534    0.0000 C   0  0  2  0  0  0  0  0  0  0  0  0
   11.1906   -2.4500    0.0000 C   0  0  0  0  0  0  0  0  0  0  0  0
   10.3265   -1.9467    0.0000 C   0  0  1  0  0  0  0  0  0  0  0  0
   11.1983   -0.4501    0.0000 C   0  0  1  0  0  0  0  0  0  0  0  0
   10.3304   -0.9467    0.0000 C   0  0  1  0  0  0  0  0  0  0  0  0
   11.2022    0.5499    0.0000 C   0  0  0  0  0  0  0  0  0  0  0  0
    8.5983   -0.9400    0.0000 C   0  0  2  0  0  0  0  0  0  0  0  0
    8.5945   -1.9400    0.0000 C   0  0  0  0  0  0  0  0  0  0  0  0
    7.7265   -2.4367    0.0000 C   0  0  1  0  0  0  0  0  0  0  0  0
    6.8663   -0.9334    0.0000 C   0  0  1  0  0  0  0  0  0  0  0  0
    6.8624   -1.9334    0.0000 C   0  0  1  0  0  0  0  0  0  0  0  0
    6.0022   -0.4300    0.0000 C   0  0  0  0  0  0  0  0  0  0  0  0
    5.1304   -1.9267    0.0000 C   0  0  2  0  0  0  0  0  0  0  0  0
    4.2625   -2.4233    0.0000 C   0  0  0  0  0  0  0  0  0  0  0  0
    3.3984   -1.9200    0.0000 C   0  0  1  0  0  0  0  0  0  0  0  0
    4.2702   -0.4234    0.0000 C   0  0  1  0  0  0  0  0  0  0  0  0
    3.4022   -0.9200    0.0000 C   0  0  1  0  0  0  0  0  0  0  0  0
    4.2740    0.5766    0.0000 C   0  0  0  0  0  0  0  0  0  0  0  0
   18.1891   -1.3237    0.0000 H   0  0  0  0  0  0  0  0  0  0  0  0
   17.3198    0.0206    0.0000 H   0  0  0  0  0  0  0  0  0  0  0  0
   16.9128    1.4056    0.0000 H   0  0  0  0  0  0  0  0  0  0  0  0
   15.6689   -2.8028    0.0000 H   0  0  0  0  0  0  0  0  0  0  0  0
   19.8744    0.9965    0.0000 H   0  0  0  0  0  0  0  0  0  0  0  0
   16.3716    1.1782    0.0000 H   0  0  0  0  0  0  0  0  0  0  0  0
   15.9731    0.4879    0.0000 H   0  0  0  0  0  0  0  0  0  0  0  0
   19.0109   -1.2760    0.0000 H   0  0  0  0  0  0  0  0  0  0  0  0
   19.7993   -1.0184    0.0000 H   0  0  0  0  0  0  0  0  0  0  0  0
   17.6838   -2.5263    0.0000 H   0  0  0  0  0  0  0  0  0  0  0  0
   18.0749   -1.8304    0.0000 H   0  0  0  0  0  0  0  0  0  0  0  0
   20.1273   -0.4567    0.0000 H   0  0  0  0  0  0  0  0  0  0  0  0
   16.1704   -2.9496    0.0000 H   0  0  0  0  0  0  0  0  0  0  0  0
   16.9687   -2.9465    0.0000 H   0  0  0  0  0  0  0  0  0  0  0  0
   15.1550    0.1195    0.0000 H   0  0  0  0  0  0  0  0  0  0  0  0
   14.3569    0.1349    0.0000 H   0  0  0  0  0  0  0  0  0  0  0  0
   18.9357    1.5956    0.0000 H   0  0  0  0  0  0  0  0  0  0  0  0
   18.3157    2.2156    0.0000 H   0  0  0  0  0  0  0  0  0  0  0  0
   17.6957    1.5956    0.0000 H   0  0  0  0  0  0  0  0  0  0  0  0
   14.3329   -2.9785    0.0000 H   0  0  0  0  0  0  0  0  0  0  0  0
   15.1312   -2.9755    0.0000 H   0  0  0  0  0  0  0  0  0  0  0  0
   16.3014    0.0840    0.0000 H   0  0  0  0  0  0  0  0  0  0  0  0
   15.6862    0.7087    0.0000 H   0  0  0  0  0  0  0  0  0  0  0  0
   15.0614    0.0935    0.0000 H   0  0  0  0  0  0  0  0  0  0  0  0
   13.5944   -0.2898    0.0000 H   0  0  0  0  0  0  0  0  0  0  0  0
   13.1873   -0.9765    0.0000 H   0  0  0  0  0  0  0  0  0  0  0  0
   13.2555   -1.6470    0.0000 H   0  0  0  0  0  0  0  0  0  0  0  0
   18.8527   -1.7144    0.0000 H   0  0  0  0  0  0  0  0  0  0  0  0
   16.9128    2.4056    0.0000 H   0  0  0  0  0  0  0  0  0  0  0  0
   21.1556   -0.4413    0.0000 H   0  0  0  0  0  0  0  0  0  0  0  0
   18.5262    3.0766    0.0000 H   0  0  0  0  0  0  0  0  0  0  0  0
   18.5248    2.2468    0.0000 H   0  0  0  0  0  0  0  0  0  0  0  0
   21.0252    1.7929    0.0000 H   0  0  0  0  0  0  0  0  0  0  0  0
   12.0562   -2.5734    0.0000 H   0  0  0  0  0  0  0  0  0  0  0  0
   10.7903   -2.9234    0.0000 H   0  0  0  0  0  0  0  0  0  0  0  0
   11.5873   -2.9265    0.0000 H   0  0  0  0  0  0  0  0  0  0  0  0
    9.7908   -1.6346    0.0000 H   0  0  0  0  0  0  0  0  0  0  0  0
   11.7364   -0.1421    0.0000 H   0  0  0  0  0  0  0  0  0  0  0  0
   10.3328   -0.3267    0.0000 H   0  0  0  0  0  0  0  0  0  0  0  0
   11.8222    0.5475    0.0000 H   0  0  0  0  0  0  0  0  0  0  0  0
   11.2046    1.1699    0.0000 H   0  0  0  0  0  0  0  0  0  0  0  0
   10.5822    0.5523    0.0000 H   0  0  0  0  0  0  0  0  0  0  0  0
    9.4562   -3.0634    0.0000 H   0  0  0  0  0  0  0  0  0  0  0  0
    9.1341   -1.2521    0.0000 H   0  0  0  0  0  0  0  0  0  0  0  0
    8.8043   -2.5235    0.0000 H   0  0  0  0  0  0  0  0  0  0  0  0
    9.2055   -1.8347    0.0000 H   0  0  0  0  0  0  0  0  0  0  0  0
    8.2623   -2.7488    0.0000 H   0  0  0  0  0  0  0  0  0  0  0  0
    6.8687   -0.3134    0.0000 H   0  0  0  0  0  0  0  0  0  0  0  0
    6.3267   -1.6213    0.0000 H   0  0  0  0  0  0  0  0  0  0  0  0
    6.3143    0.1057    0.0000 H   0  0  0  0  0  0  0  0  0  0  0  0
    5.4665   -0.1180    0.0000 H   0  0  0  0  0  0  0  0  0  0  0  0
    5.6901   -0.9658    0.0000 H   0  0  0  0  0  0  0  0  0  0  0  0
    7.1846   -3.7446    0.0000 H   0  0  0  0  0  0  0  0  0  0  0  0
    5.1280   -2.5467    0.0000 H   0  0  0  0  0  0  0  0  0  0  0  0
    3.8621   -2.8968    0.0000 H   0  0  0  0  0  0  0  0  0  0  0  0
    4.6592   -2.8998    0.0000 H   0  0  0  0  0  0  0  0  0  0  0  0
    2.8626   -1.6079    0.0000 H   0  0  0  0  0  0  0  0  0  0  0  0
    4.8083   -0.1154    0.0000 H   0  0  0  0  0  0  0  0  0  0  0  0
    2.8641   -1.2279    0.0000 H   0  0  0  0  0  0  0  0  0  0  0  0
    4.8940    0.5742    0.0000 H   0  0  0  0  0  0  0  0  0  0  0  0
    4.2764    1.1966    0.0000 H   0  0  0  0  0  0  0  0  0  0  0  0
    3.6540    0.5790    0.0000 H   0  0  0  0  0  0  0  0  0  0  0  0
    2.5280   -3.0367    0.0000 H   0  0  0  0  0  0  0  0  0  0  0  0
    2.0000   -0.7246    0.0000 H   0  0  0  0  0  0  0  0  0  0  0  0
 16  1  1  1  0  0  0
  1 84  1  0  0  0  0
 21  2  1  1  0  0  0
  2 85  1  0  0  0  0
 27  3  1  1  0  0  0
  3 86  1  0  0  0  0
 34  4  1  1  0  0  0
 39  4  1  1  0  0  0
  5 36  1  0  0  0  0
  5 38  1  0  0  0  0
  6 39  1  0  0  0  0
  6 42  1  0  0  0  0
  7 38  2  0  0  0  0
 41  8  1  6  0  0  0
  8 99  1  0  0  0  0
 43  9  1  6  0  0  0
 45  9  1  1  0  0  0
 10 45  1  0  0  0  0
 10 48  1  0  0  0  0
 49 11  1  6  0  0  0
 51 11  1  1  0  0  0
 47 12  1  6  0  0  0
 12109  1  0  0  0  0
 13 51  1  0  0  0  0
 13 54  1  0  0  0  0
 53 14  1  6  0  0  0
 14119  1  0  0  0  0
 55 15  1  6  0  0  0
 15120  1  0  0  0  0
 16 17  1  0  0  0  0
 16 18  1  0  0  0  0
 16 25  1  0  0  0  0
 17 19  1  0  0  0  0
 17 26  1  0  0  0  0
 17 57  1  1  0  0  0
 18 21  1  0  0  0  0
 18 23  1  0  0  0  0
 18 30  1  1  0  0  0
 19 20  1  0  0  0  0
 19 24  1  0  0  0  0
 19 58  1  6  0  0  0
 20 22  1  0  0  0  0
 20 29  1  0  0  0  0
 20 32  1  1  0  0  0
 21 24  1  0  0  0  0
 21 59  1  0  0  0  0
 22 28  1  0  0  0  0
 22 31  1  0  0  0  0
 22 60  1  1  0  0  0
 23 27  1  0  0  0  0
 23 35  1  1  0  0  0
 23 61  1  0  0  0  0
 24 62  1  0  0  0  0
 24 63  1  0  0  0  0
 25 27  1  0  0  0  0
 25 64  1  0  0  0  0
 25 65  1  0  0  0  0
 26 28  1  0  0  0  0
 26 66  1  0  0  0  0
 26 67  1  0  0  0  0
 27 68  1  0  0  0  0
 28 69  1  0  0  0  0
 28 70  1  0  0  0  0
 29 33  1  0  0  0  0
 29 71  1  0  0  0  0
 29 72  1  0  0  0  0
 30 73  1  0  0  0  0
 30 74  1  0  0  0  0
 30 75  1  0  0  0  0
 31 34  1  0  0  0  0
 31 76  1  0  0  0  0
 31 77  1  0  0  0  0
 32 78  1  0  0  0  0
 32 79  1  0  0  0  0
 32 80  1  0  0  0  0
 33 34  1  0  0  0  0
 33 81  1  0  0  0  0
 33 82  1  0  0  0  0
 34 83  1  0  0  0  0
 35 36  1  0  0  0  0
 35 37  2  0  0  0  0
 36 87  1  0  0  0  0
 36 88  1  0  0  0  0
 37 38  1  0  0  0  0
 37 89  1  0  0  0  0
 39 40  1  0  0  0  0
 39 90  1  0  0  0  0
 40 41  1  0  0  0  0
 40 91  1  0  0  0  0
 40 92  1  0  0  0  0
 41 43  1  0  0  0  0
 41 93  1  0  0  0  0
 42 43  1  0  0  0  0
 42 44  1  1  0  0  0
 42 94  1  0  0  0  0
 43 95  1  0  0  0  0
 44 96  1  0  0  0  0
 44 97  1  0  0  0  0
 44 98  1  0  0  0  0
 45 46  1  0  0  0  0
 45100  1  0  0  0  0
 46 47  1  0  0  0  0
 46101  1  0  0  0  0
 46102  1  0  0  0  0
 47 49  1  0  0  0  0
 47103  1  0  0  0  0
 48 49  1  0  0  0  0
 48 50  1  1  0  0  0
 48104  1  0  0  0  0
 49105  1  0  0  0  0
 50106  1  0  0  0  0
 50107  1  0  0  0  0
 50108  1  0  0  0  0
 51 52  1  0  0  0  0
 51110  1  0  0  0  0
 52 53  1  0  0  0  0
 52111  1  0  0  0  0
 52112  1  0  0  0  0
 53 55  1  0  0  0  0
 53113  1  0  0  0  0
 54 55  1  0  0  0  0
 54 56  1  1  0  0  0
 54114  1  0  0  0  0
 55115  1  0  0  0  0
 56116  1  0  0  0  0
 56117  1  0  0  0  0
 56118  1  0  0  0  0
M  END
> <PUBCHEM_COMPOUND_CID>
441855

> <PUBCHEM_COMPOUND_CANONICALIZED>
1

> <PUBCHEM_CACTVS_COMPLEXITY>
1480

> <PUBCHEM_CACTVS_HBOND_ACCEPTOR>
15

> <PUBCHEM_CACTVS_HBOND_DONOR>
7

> <PUBCHEM_CACTVS_ROTATABLE_BOND>
7

> <PUBCHEM_CACTVS_SUBSKEYS>
AAADcfB8PAAAAAAAAAAAAAAAAAAAAYIAAAA0aNECAAAAAGDAAAAAGgAACAAAD1SwgAMCCAAABgCIAiDSCAAAAAAgAAAACAAAAEgRFAIAIQAiUAAFwAAPIQPA4PwPgAAAAAAAAADAAAYQADAAAYQADAAAAA==

> <PUBCHEM_IUPAC_OPENEYE_NAME>
3-[(3S,5R,8R,9S,10S,12R,13S,14S,16S,17R)-3-[(2R,4S,5S,6R)-5-[(2S,4S,5S,6R)-5-[(2S,4S,5S,6R)-4,5-dihydroxy-6-methyl-tetrahydropyran-2-yl]oxy-4-hydroxy-6-methyl-tetrahydropyran-2-yl]oxy-4-hydroxy-6-methyl-tetrahydropyran-2-yl]oxy-12,14,16-trihydroxy-10,13-dimethyl-1,2,3,4,5,6,7,8,9,11,12,15,16,17-tetradecahydrocyclopenta[a]phenanthren-17-yl]-2H-furan-5-one

> <PUBCHEM_IUPAC_CAS_NAME>
3-[(3S,5R,8R,9S,10S,12R,13S,14S,16S,17R)-3-[[(2R,4S,5S,6R)-5-[[(2S,4S,5S,6R)-5-[[(2S,4S,5S,6R)-4,5-dihydroxy-6-methyl-2-oxanyl]oxy]-4-hydroxy-6-methyl-2-oxanyl]oxy]-4-hydroxy-6-methyl-2-oxanyl]oxy]-12,14,16-trihydroxy-10,13-dimethyl-1,2,3,4,5,6,7,8,9,11,12,15,16,17-tetradecahydrocyclopenta[a]phenanthren-17-yl]-2H-furan-5-one

> <PUBCHEM_IUPAC_NAME>
3-[(3S,5R,8R,9S,10S,12R,13S,14S,16S,17R)-3-[(2R,4S,5S,6R)-5-[(2S,4S,5S,6R)-5-[(2S,4S,5S,6R)-4,5-dihydroxy-6-methyloxan-2-yl]oxy-4-hydroxy-6-methyloxan-2-yl]oxy-4-hydroxy-6-methyloxan-2-yl]oxy-12,14,16-trihydroxy-10,13-dimethyl-1,2,3,4,5,6,7,8,9,11,12,15,16,17-tetradecahydrocyclopenta[a]phenanthren-17-yl]-2H-furan-5-one

> <PUBCHEM_IUPAC_SYSTEMATIC_NAME>
3-[(3S,5R,8R,9S,10S,12R,13S,14S,16S,17R)-10,13-dimethyl-3-[(2R,4S,5S,6R)-6-methyl-5-[(2S,4S,5S,6R)-6-methyl-5-[(2S,4S,5S,6R)-6-methyl-4,5-bis(oxidanyl)oxan-2-yl]oxy-4-oxidanyl-oxan-2-yl]oxy-4-oxidanyl-oxan-2-yl]oxy-12,14,16-tris(oxidanyl)-1,2,3,4,5,6,7,8,9,11,12,15,16,17-tetradecahydrocyclopenta[a]phenanthren-17-yl]-2H-furan-5-one

> <PUBCHEM_IUPAC_TRADITIONAL_NAME>
3-[(3S,5R,8R,9S,10S,12R,13S,14S,16S,17R)-3-[(2R,4S,5S,6R)-5-[(2S,4S,5S,6R)-5-[(2S,4S,5S,6R)-4,5-dihydroxy-6-methyl-tetrahydropyran-2-yl]oxy-4-hydroxy-6-methyl-tetrahydropyran-2-yl]oxy-4-hydroxy-6-methyl-tetrahydropyran-2-yl]oxy-12,14,16-trihydroxy-10,13-dimethyl-1,2,3,4,5,6,7,8,9,11,12,15,16,17-tetradecahydrocyclopenta[a]phenanthren-17-yl]-2H-furan-5-one

> <PUBCHEM_IUPAC_INCHI>
InChI=1S/C41H64O15/c1-18-36(48)26(42)13-33(51-18)55-38-20(3)53-34(15-28(38)44)56-37-19(2)52-32(14-27(37)43)54-23-8-9-39(4)22(11-23)6-7-24-25(39)12-30(46)40(5)35(21-10-31(47)50-17-21)29(45)16-41(24,40)49/h10,18-20,22-30,32-38,42-46,48-49H,6-9,11-17H2,1-5H3/t18-,19-,20-,22-,23+,24-,25+,26+,27+,28+,29+,30-,32+,33+,34+,35+,36-,37-,38-,39+,40-,41+/m1/s1

> <PUBCHEM_IUPAC_INCHIKEY>
AASCKLXRKILUGL-KDVLELMDSA-N

> <PUBCHEM_XLOGP3>
0.3

> <PUBCHEM_EXACT_MASS>
796.424521

> <PUBCHEM_MOLECULAR_FORMULA>
C41H64O15

> <PUBCHEM_MOLECULAR_WEIGHT>
796.93786

> <PUBCHEM_OPENEYE_CAN_SMILES>
CC1C(C(CC(O1)OC2C(OC(CC2O)OC3C(OC(CC3O)OC4CCC5(C(C4)CCC6C5CC(C7(C6(CC(C7C8=CC(=O)OC8)O)O)C)O)C)C)C)O)O

> <PUBCHEM_OPENEYE_ISO_SMILES>
C[C@@H]1[C@H]([C@H](C[C@@H](O1)O[C@@H]2[C@H](O[C@H](C[C@@H]2O)O[C@@H]3[C@H](O[C@H](C[C@@H]3O)O[C@H]4CC[C@]5([C@@H](C4)CC[C@@H]6[C@@H]5C[C@H]([C@]7([C@@]6(C[C@@H]([C@@H]7C8=CC(=O)OC8)O)O)C)O)C)C)C)O)O

> <PUBCHEM_CACTVS_TPSA>
223

> <PUBCHEM_MONOISOTOPIC_WEIGHT>
796.424521

> <PUBCHEM_TOTAL_CHARGE>
0

> <PUBCHEM_HEAVY_ATOM_COUNT>
56

> <PUBCHEM_ATOM_DEF_STEREO_COUNT>
22

> <PUBCHEM_ATOM_UDEF_STEREO_COUNT>
0

> <PUBCHEM_BOND_DEF_STEREO_COUNT>
0

> <PUBCHEM_BOND_UDEF_STEREO_COUNT>
0

> <PUBCHEM_ISOTOPIC_ATOM_COUNT>
0

> <PUBCHEM_COMPONENT_COUNT>
1

> <PUBCHEM_CACTVS_TAUTO_COUNT>
1

> <PUBCHEM_COORDINATE_TYPE>
1
5
255

> <PUBCHEM_BONDANNOTATIONS>
16  1  5
49  11  6
51  11  5
47  12  6
53  14  6
55  15  6
17  57  5
18  30  5
19  58  6
21  2  5
20  32  5
22  60  5
23  35  5
27  3  5
34  4  5
39  4  5
42  44  5
48  50  5
54  56  5
41  8  6
43  9  6
45  9  5

$$$$

