442927
  -OEChem-07051213003D

 46 49  0     0  0  0  0  0  0999 V2000
    5.2126    0.5298   -0.5508 O   0  0  0  0  0  0  0  0  0  0  0  0
    2.8662    1.9413   -0.3389 O   0  0  0  0  0  0  0  0  0  0  0  0
    2.8041   -1.9684    0.5895 N   0  0  0  0  0  0  0  0  0  0  0  0
    0.2235    0.6649   -0.0090 C   0  0  0  0  0  0  0  0  0  0  0  0
    0.0228    2.0498   -0.5911 C   0  0  0  0  0  0  0  0  0  0  0  0
   -0.2803    3.1025    0.4784 C   0  0  0  0  0  0  0  0  0  0  0  0
   -0.9381   -0.0339    0.4288 C   0  0  0  0  0  0  0  0  0  0  0  0
    1.4856    0.0336    0.1049 C   0  0  0  0  0  0  0  0  0  0  0  0
   -1.3332    2.6809    1.5114 C   0  0  0  0  0  0  0  0  0  0  0  0
   -2.2968    0.5939    0.4409 C   0  0  0  0  0  0  0  0  0  0  0  0
    1.5694   -1.3077    0.5372 C   0  0  0  0  0  0  0  0  0  0  0  0
   -2.4443    1.8430    0.9391 C   0  0  0  0  0  0  0  0  0  0  0  0
   -0.8272   -1.3571    0.8782 C   0  0  0  0  0  0  0  0  0  0  0  0
    0.4100   -1.9904    0.9155 C   0  0  0  0  0  0  0  0  0  0  0  0
    2.7858    0.7313   -0.1687 C   0  0  0  0  0  0  0  0  0  0  0  0
   -3.5120   -0.0768   -0.0881 C   0  0  0  0  0  0  0  0  0  0  0  0
    3.9816   -1.3735    0.2052 C   0  0  0  0  0  0  0  0  0  0  0  0
    4.0377   -0.0863   -0.1791 C   0  0  0  0  0  0  0  0  0  0  0  0
   -4.2881   -0.8661    0.7553 C   0  0  0  0  0  0  0  0  0  0  0  0
   -3.8669    0.0889   -1.4234 C   0  0  0  0  0  0  0  0  0  0  0  0
    5.1986   -2.2567    0.2520 C   0  0  0  0  0  0  0  0  0  0  0  0
   -5.4297   -1.4955    0.2589 C   0  0  0  0  0  0  0  0  0  0  0  0
   -5.0085   -0.5403   -1.9199 C   0  0  0  0  0  0  0  0  0  0  0  0
   -5.7898   -1.3326   -1.0788 C   0  0  0  0  0  0  0  0  0  0  0  0
    5.4170    0.4256   -1.9474 C   0  0  0  0  0  0  0  0  0  0  0  0
   -0.8051    2.0076   -1.3132 H   0  0  0  0  0  0  0  0  0  0  0  0
    0.8592    2.3722   -1.2146 H   0  0  0  0  0  0  0  0  0  0  0  0
    0.6416    3.3646    1.0124 H   0  0  0  0  0  0  0  0  0  0  0  0
   -0.6143    4.0180   -0.0259 H   0  0  0  0  0  0  0  0  0  0  0  0
   -1.7601    3.5791    1.9739 H   0  0  0  0  0  0  0  0  0  0  0  0
   -0.8541    2.1320    2.3328 H   0  0  0  0  0  0  0  0  0  0  0  0
   -3.4290    2.3077    0.9448 H   0  0  0  0  0  0  0  0  0  0  0  0
   -1.6947   -1.9178    1.2147 H   0  0  0  0  0  0  0  0  0  0  0  0
    0.4659   -3.0209    1.2588 H   0  0  0  0  0  0  0  0  0  0  0  0
    2.8305   -2.9357    0.8866 H   0  0  0  0  0  0  0  0  0  0  0  0
   -4.0243   -0.9988    1.8015 H   0  0  0  0  0  0  0  0  0  0  0  0
   -3.2671    0.7027   -2.0907 H   0  0  0  0  0  0  0  0  0  0  0  0
    6.1272   -1.7238    0.0269 H   0  0  0  0  0  0  0  0  0  0  0  0
    5.0989   -3.0742   -0.4701 H   0  0  0  0  0  0  0  0  0  0  0  0
    5.3110   -2.6925    1.2510 H   0  0  0  0  0  0  0  0  0  0  0  0
   -6.0389   -2.1112    0.9141 H   0  0  0  0  0  0  0  0  0  0  0  0
   -5.2891   -0.4137   -2.9615 H   0  0  0  0  0  0  0  0  0  0  0  0
   -6.6788   -1.8224   -1.4654 H   0  0  0  0  0  0  0  0  0  0  0  0
    6.3600    0.9239   -2.1915 H   0  0  0  0  0  0  0  0  0  0  0  0
    4.6170    0.9270   -2.5034 H   0  0  0  0  0  0  0  0  0  0  0  0
    5.4958   -0.6194   -2.2666 H   0  0  0  0  0  0  0  0  0  0  0  0
  1 18  1  0  0  0  0
  1 25  1  0  0  0  0
  2 15  2  0  0  0  0
  3 11  1  0  0  0  0
  3 17  1  0  0  0  0
  3 35  1  0  0  0  0
  4  5  1  0  0  0  0
  4  7  2  0  0  0  0
  4  8  1  0  0  0  0
  5  6  1  0  0  0  0
  5 26  1  0  0  0  0
  5 27  1  0  0  0  0
  6  9  1  0  0  0  0
  6 28  1  0  0  0  0
  6 29  1  0  0  0  0
  7 10  1  0  0  0  0
  7 13  1  0  0  0  0
  8 11  2  0  0  0  0
  8 15  1  0  0  0  0
  9 12  1  0  0  0  0
  9 30  1  0  0  0  0
  9 31  1  0  0  0  0
 10 12  2  0  0  0  0
 10 16  1  0  0  0  0
 11 14  1  0  0  0  0
 12 32  1  0  0  0  0
 13 14  2  0  0  0  0
 13 33  1  0  0  0  0
 14 34  1  0  0  0  0
 15 18  1  0  0  0  0
 16 19  2  0  0  0  0
 16 20  1  0  0  0  0
 17 18  2  0  0  0  0
 17 21  1  0  0  0  0
 19 22  1  0  0  0  0
 19 36  1  0  0  0  0
 20 23  2  0  0  0  0
 20 37  1  0  0  0  0
 21 38  1  0  0  0  0
 21 39  1  0  0  0  0
 21 40  1  0  0  0  0
 22 24  2  0  0  0  0
 22 41  1  0  0  0  0
 23 24  1  0  0  0  0
 23 42  1  0  0  0  0
 24 43  1  0  0  0  0
 25 44  1  0  0  0  0
 25 45  1  0  0  0  0
 25 46  1  0  0  0  0
M  END
> <PUBCHEM_COMPOUND_CID>
442927

> <PUBCHEM_CONFORMER_RMSD>
0.6

> <PUBCHEM_CONFORMER_DIVERSEORDER>
2
6
7
1
5
4
3

> <PUBCHEM_MMFF94_PARTIAL_CHARGES>
33
1 -0.36
10 -0.06
11 0.1
12 -0.29
13 -0.15
14 -0.15
15 0.47
16 0.03
17 -0.04
18 0.09
19 -0.15
2 -0.57
20 -0.15
21 0.14
22 -0.15
23 -0.15
24 -0.15
25 0.28
3 -0.6
32 0.15
33 0.15
34 0.15
35 0.4
36 0.15
37 0.15
4 -0.14
41 0.15
42 0.15
43 0.15
5 0.14
7 0.03
8 0.09
9 0.14

> <PUBCHEM_EFFECTIVE_ROTOR_COUNT>
2.6

> <PUBCHEM_PHARMACOPHORE_FEATURES>
8
1 1 acceptor
1 2 acceptor
1 3 cation
1 3 donor
6 16 19 20 22 23 24 rings
6 3 8 11 15 17 18 rings
6 4 7 8 11 13 14 rings
7 4 5 6 7 9 10 12 rings

> <PUBCHEM_HEAVY_ATOM_COUNT>
25

> <PUBCHEM_ATOM_DEF_STEREO_COUNT>
0

> <PUBCHEM_ATOM_UDEF_STEREO_COUNT>
0

> <PUBCHEM_BOND_DEF_STEREO_COUNT>
0

> <PUBCHEM_BOND_UDEF_STEREO_COUNT>
0

> <PUBCHEM_ISOTOPIC_ATOM_COUNT>
0

> <PUBCHEM_COMPONENT_COUNT>
1

> <PUBCHEM_CACTVS_TAUTO_COUNT>
20

> <PUBCHEM_CONFORMER_ID>
0006C22F00000002

> <PUBCHEM_MMFF94_ENERGY>
96.9656

> <PUBCHEM_FEATURE_SELFOVERLAP>
40.634

> <PUBCHEM_SHAPE_FINGERPRINT>
10693767 8 18335998509761145695
11045515 52 18343587356480501341
11089746 13 13398630515761620102
11135609 187 18272649008996681628
12166972 35 17989202642222691711
12236239 1 18259703402425444027
12403260 363 18199189667072870634
12553582 1 18187092732717031975
12788726 201 18260263079138999682
13540713 5 18197209472326943520
13544653 18 18408887334820994409
13583140 156 15841541947202525032
13862211 1 18410295804483605210
13911987 19 18271799099382581335
14347332 77 18115865368505082606
14466204 15 9943539517714103783
14767858 380 18340761555640664524
14787075 74 18343017783133231922
14931854 50 18341884195931132156
15196674 1 18341889744765030104
15238133 3 12607404399462625358
15475509 35 15068613916355682222
17349148 13 18411414020635575610
17492 54 18131063814614202532
17492 89 18191021403247774862
1813 80 17749107768944903277
18222031 100 17895205372200955151
19784866 140 18408044005086332967
200 152 18409451388543918617
20028762 73 18335426798238132910
20775438 99 17251781995482671823
21267235 1 18411410722206616259
21641784 216 18201707488001594292
221357 26 18342469123348102023
22393880 68 17917725625174870271
23402539 116 18334013921416031515
23559900 14 18267584598504730104
25147074 1 18338789143012019809
2838139 119 15482681173244135751
3004659 81 18202009849367029411
314194 84 18335422327297899323
329604 57 18412265038509500367
4098825 35 17989210378392721749
46194498 28 17416972725470603317
463206 1 18262242093207010943
484989 97 17984693412347597915
5104073 3 18335984285087099720
602551 16 16154000062066980391
6058803 2 18124024904703788944
6669772 16 17903643981746744884
7471813 234 18259993647662400881
7970288 3 18186811257688308535

> <PUBCHEM_SHAPE_MULTIPOLES>
497.77
12.2
2.73
1.35
0.16
1.4
-0.51
-6.59
-5.4
0.44
0.91
-0.63
0.11
-1.41

> <PUBCHEM_SHAPE_SELFOVERLAP>
1096.461

> <PUBCHEM_SHAPE_VOLUME>
265.9

> <PUBCHEM_COORDINATE_TYPE>
2
5
10

$$$$

