2431
  -OEChem-07051212522D

 30 30  0     0  0  0  0  0  0999 V2000
    2.0000   -0.5000    0.0000 Br  0  0  0  0  0  0  0  0  0  0  0  0
    4.5981    1.0000    0.0000 N   0  3  0  0  0  0  0  0  0  0  0  0
    3.7320    0.5000    0.0000 C   0  0  0  0  0  0  0  0  0  0  0  0
    5.4641    1.5000    0.0000 C   0  0  0  0  0  0  0  0  0  0  0  0
    4.0981    1.8660    0.0000 C   0  0  0  0  0  0  0  0  0  0  0  0
    5.0981    0.1340    0.0000 C   0  0  0  0  0  0  0  0  0  0  0  0
    3.7320   -0.5000    0.0000 C   0  0  0  0  0  0  0  0  0  0  0  0
    5.4641    2.5000    0.0000 C   0  0  0  0  0  0  0  0  0  0  0  0
    2.8660   -1.0000    0.0000 C   0  0  0  0  0  0  0  0  0  0  0  0
    4.5981   -1.0000    0.0000 C   0  0  0  0  0  0  0  0  0  0  0  0
    2.8660   -2.0000    0.0000 C   0  0  0  0  0  0  0  0  0  0  0  0
    4.5981   -2.0000    0.0000 C   0  0  0  0  0  0  0  0  0  0  0  0
    3.7320   -2.5000    0.0000 C   0  0  0  0  0  0  0  0  0  0  0  0
    3.5200    1.0826    0.0000 H   0  0  0  0  0  0  0  0  0  0  0  0
    3.1215    0.3923    0.0000 H   0  0  0  0  0  0  0  0  0  0  0  0
    5.6762    0.9174    0.0000 H   0  0  0  0  0  0  0  0  0  0  0  0
    6.0747    1.6077    0.0000 H   0  0  0  0  0  0  0  0  0  0  0  0
    4.6350    2.1760    0.0000 H   0  0  0  0  0  0  0  0  0  0  0  0
    3.7881    2.4030    0.0000 H   0  0  0  0  0  0  0  0  0  0  0  0
    4.5611   -0.1760    0.0000 H   0  0  0  0  0  0  0  0  0  0  0  0
    5.4081   -0.4030    0.0000 H   0  0  0  0  0  0  0  0  0  0  0  0
    5.6350    0.4440    0.0000 H   0  0  0  0  0  0  0  0  0  0  0  0
    3.5611    1.5560    0.0000 H   0  0  0  0  0  0  0  0  0  0  0  0
    6.0841    2.5000    0.0000 H   0  0  0  0  0  0  0  0  0  0  0  0
    5.4641    3.1200    0.0000 H   0  0  0  0  0  0  0  0  0  0  0  0
    4.8441    2.5000    0.0000 H   0  0  0  0  0  0  0  0  0  0  0  0
    5.1350   -0.6900    0.0000 H   0  0  0  0  0  0  0  0  0  0  0  0
    2.3291   -2.3100    0.0000 H   0  0  0  0  0  0  0  0  0  0  0  0
    5.1350   -2.3100    0.0000 H   0  0  0  0  0  0  0  0  0  0  0  0
    3.7320   -3.1200    0.0000 H   0  0  0  0  0  0  0  0  0  0  0  0
  1  9  1  0  0  0  0
  2  3  1  0  0  0  0
  2  4  1  0  0  0  0
  2  5  1  0  0  0  0
  2  6  1  0  0  0  0
  3  7  1  0  0  0  0
  3 14  1  0  0  0  0
  3 15  1  0  0  0  0
  4  8  1  0  0  0  0
  4 16  1  0  0  0  0
  4 17  1  0  0  0  0
  5 18  1  0  0  0  0
  5 19  1  0  0  0  0
  5 23  1  0  0  0  0
  6 20  1  0  0  0  0
  6 21  1  0  0  0  0
  6 22  1  0  0  0  0
  7  9  1  0  0  0  0
  7 10  2  0  0  0  0
  8 24  1  0  0  0  0
  8 25  1  0  0  0  0
  8 26  1  0  0  0  0
  9 11  2  0  0  0  0
 10 12  1  0  0  0  0
 10 27  1  0  0  0  0
 11 13  1  0  0  0  0
 11 28  1  0  0  0  0
 12 13  2  0  0  0  0
 12 29  1  0  0  0  0
 13 30  1  0  0  0  0
M  CHG  1   2   1
M  END
> <PUBCHEM_COMPOUND_CID>
2431

> <PUBCHEM_COMPOUND_CANONICALIZED>
1

> <PUBCHEM_CACTVS_COMPLEXITY>
156

> <PUBCHEM_CACTVS_HBOND_ACCEPTOR>
0

> <PUBCHEM_CACTVS_HBOND_DONOR>
0

> <PUBCHEM_CACTVS_ROTATABLE_BOND>
3

> <PUBCHEM_CACTVS_SUBSKEYS>
AAADceByAAAAEAAAAAAAAAAAAAAAAAAAAAAwAAAAAAAAAAABAAAAHABAAAABrADBGAQyAIMAAACAAiBCAACCAAAgAAQIiAAIBKgIICKAkRGEIAhggACIihcQgAAOAAAAAAAAgAAAAAAAAAEAAAAAAAAAAA==

> <PUBCHEM_IUPAC_OPENEYE_NAME>
(2-bromophenyl)methyl-ethyl-dimethyl-ammonium

> <PUBCHEM_IUPAC_CAS_NAME>
(2-bromophenyl)methyl-ethyl-dimethylammonium

> <PUBCHEM_IUPAC_NAME>
(2-bromophenyl)methyl-ethyl-dimethylazanium

> <PUBCHEM_IUPAC_SYSTEMATIC_NAME>
(2-bromophenyl)methyl-ethyl-dimethyl-azanium

> <PUBCHEM_IUPAC_TRADITIONAL_NAME>
(2-bromobenzyl)-ethyl-dimethyl-ammonium

> <PUBCHEM_IUPAC_INCHI>
InChI=1S/C11H17BrN/c1-4-13(2,3)9-10-7-5-6-8-11(10)12/h5-8H,4,9H2,1-3H3/q+1

> <PUBCHEM_IUPAC_INCHIKEY>
AAQOQKQBGPPFNS-UHFFFAOYSA-N

> <PUBCHEM_XLOGP3_AA>
2.8

> <PUBCHEM_EXACT_MASS>
242.054437

> <PUBCHEM_MOLECULAR_FORMULA>
C11H17BrN+

> <PUBCHEM_MOLECULAR_WEIGHT>
243.16338

> <PUBCHEM_OPENEYE_CAN_SMILES>
CC[N+](C)(C)CC1=CC=CC=C1Br

> <PUBCHEM_OPENEYE_ISO_SMILES>
CC[N+](C)(C)CC1=CC=CC=C1Br

> <PUBCHEM_CACTVS_TPSA>
0

> <PUBCHEM_MONOISOTOPIC_WEIGHT>
242.054437

> <PUBCHEM_TOTAL_CHARGE>
1

> <PUBCHEM_HEAVY_ATOM_COUNT>
13

> <PUBCHEM_ATOM_DEF_STEREO_COUNT>
0

> <PUBCHEM_ATOM_UDEF_STEREO_COUNT>
0

> <PUBCHEM_BOND_DEF_STEREO_COUNT>
0

> <PUBCHEM_BOND_UDEF_STEREO_COUNT>
0

> <PUBCHEM_ISOTOPIC_ATOM_COUNT>
0

> <PUBCHEM_COMPONENT_COUNT>
1

> <PUBCHEM_CACTVS_TAUTO_COUNT>
1

> <PUBCHEM_COORDINATE_TYPE>
1
5
255

> <PUBCHEM_BONDANNOTATIONS>
10  12  8
11  13  8
12  13  8
7  10  8
7  9  8
9  11  8

$$$$

