7659351
  -OEChem-07051213052D

 59 63  0     1  0  0  0  0  0999 V2000
    3.1386   -3.0084    0.0000 O   0  0  0  0  0  0  0  0  0  0  0  0
    3.0169   -0.6218    0.0000 O   0  0  0  0  0  0  0  0  0  0  0  0
    9.7997    1.6080    0.0000 O   0  0  0  0  0  0  0  0  0  0  0  0
    8.9279    3.1046    0.0000 O   0  0  0  0  0  0  0  0  0  0  0  0
    4.4597   -1.5364    0.0000 C   0  0  2  0  0  0  0  0  0  0  0  0
    3.7227   -2.2035    0.0000 C   0  0  1  0  0  0  0  0  0  0  0  0
    5.3258   -2.0364    0.0000 C   0  0  2  0  0  0  0  0  0  0  0  0
    4.1278   -3.1113    0.0000 C   0  0  1  0  0  0  0  0  0  0  0  0
    6.1918   -1.5364    0.0000 C   0  0  1  0  0  0  0  0  0  0  0  0
    5.1166   -3.0082    0.0000 C   0  0  0  0  0  0  0  0  0  0  0  0
    6.1918   -0.5364    0.0000 C   0  0  2  0  0  0  0  0  0  0  0  0
    4.4597   -0.5364    0.0000 C   0  0  0  0  0  0  0  0  0  0  0  0
    5.3258   -0.0364    0.0000 C   0  0  0  0  0  0  0  0  0  0  0  0
    7.0857   -0.0018    0.0000 C   0  0  2  0  0  0  0  0  0  0  0  0
    3.5937   -1.0364    0.0000 C   0  0  0  0  0  0  0  0  0  0  0  0
    7.0857   -2.0711    0.0000 C   0  0  0  0  0  0  0  0  0  0  0  0
    2.9132   -1.6164    0.0000 C   0  0  0  0  0  0  0  0  0  0  0  0
    7.9918   -0.5156    0.0000 C   0  0  0  0  0  0  0  0  0  0  0  0
    7.0606    1.0830    0.0000 C   0  0  0  0  0  0  0  0  0  0  0  0
    7.9918   -1.5572    0.0000 C   0  0  0  0  0  0  0  0  0  0  0  0
    6.2159    0.4916    0.0000 C   0  0  0  0  0  0  0  0  0  0  0  0
    8.9356    0.0196    0.0000 C   0  0  0  0  0  0  0  0  0  0  0  0
    7.9918    1.6399    0.0000 C   0  0  0  0  0  0  0  0  0  0  0  0
    2.0000   -2.0240    0.0000 C   0  0  0  0  0  0  0  0  0  0  0  0
    8.9356    1.1046    0.0000 C   0  0  2  0  0  0  0  0  0  0  0  0
    9.7958    2.6080    0.0000 C   0  0  0  0  0  0  0  0  0  0  0  0
   10.6599    3.1113    0.0000 C   0  0  0  0  0  0  0  0  0  0  0  0
    6.0128   -2.5369    0.0000 H   0  0  0  0  0  0  0  0  0  0  0  0
    4.1279   -3.9613    0.0000 H   0  0  0  0  0  0  0  0  0  0  0  0
    6.1852   -2.3864    0.0000 H   0  0  0  0  0  0  0  0  0  0  0  0
    5.1157   -3.6282    0.0000 H   0  0  0  0  0  0  0  0  0  0  0  0
    5.7330   -3.0743    0.0000 H   0  0  0  0  0  0  0  0  0  0  0  0
    6.1852    0.3136    0.0000 H   0  0  0  0  0  0  0  0  0  0  0  0
    4.2477    0.0462    0.0000 H   0  0  0  0  0  0  0  0  0  0  0  0
    3.8492   -0.6441    0.0000 H   0  0  0  0  0  0  0  0  0  0  0  0
    5.7243    0.4385    0.0000 H   0  0  0  0  0  0  0  0  0  0  0  0
    4.9272    0.4385    0.0000 H   0  0  0  0  0  0  0  0  0  0  0  0
    3.9037   -0.4995    0.0000 H   0  0  0  0  0  0  0  0  0  0  0  0
    3.0568   -0.7264    0.0000 H   0  0  0  0  0  0  0  0  0  0  0  0
    3.2837   -1.5734    0.0000 H   0  0  0  0  0  0  0  0  0  0  0  0
    6.6811   -2.5409    0.0000 H   0  0  0  0  0  0  0  0  0  0  0  0
    7.4794   -2.5501    0.0000 H   0  0  0  0  0  0  0  0  0  0  0  0
    6.8381    1.6616    0.0000 H   0  0  0  0  0  0  0  0  0  0  0  0
    6.4524    0.9628    0.0000 H   0  0  0  0  0  0  0  0  0  0  0  0
    8.5275   -1.8693    0.0000 H   0  0  0  0  0  0  0  0  0  0  0  0
    6.5217    1.0309    0.0000 H   0  0  0  0  0  0  0  0  0  0  0  0
    5.6766    0.7974    0.0000 H   0  0  0  0  0  0  0  0  0  0  0  0
    5.9100   -0.0478    0.0000 H   0  0  0  0  0  0  0  0  0  0  0  0
    9.1446   -0.5641    0.0000 H   0  0  0  0  0  0  0  0  0  0  0  0
    9.5464    0.1257    0.0000 H   0  0  0  0  0  0  0  0  0  0  0  0
    8.3854    2.1189    0.0000 H   0  0  0  0  0  0  0  0  0  0  0  0
    7.5872    2.1096    0.0000 H   0  0  0  0  0  0  0  0  0  0  0  0
    1.7473   -1.4578    0.0000 H   0  0  0  0  0  0  0  0  0  0  0  0
    1.4338   -2.2766    0.0000 H   0  0  0  0  0  0  0  0  0  0  0  0
    2.2527   -2.5901    0.0000 H   0  0  0  0  0  0  0  0  0  0  0  0
    8.9320    1.7246    0.0000 H   0  0  0  0  0  0  0  0  0  0  0  0
   10.9720    2.5755    0.0000 H   0  0  0  0  0  0  0  0  0  0  0  0
   11.1956    3.4234    0.0000 H   0  0  0  0  0  0  0  0  0  0  0  0
   10.3478    3.6470    0.0000 H   0  0  0  0  0  0  0  0  0  0  0  0
  1  6  1  0  0  0  0
  1  8  1  0  0  0  0
  2 17  2  0  0  0  0
 25  3  1  6  0  0  0
  3 26  1  0  0  0  0
  4 26  2  0  0  0  0
  5  6  1  0  0  0  0
  5  7  1  0  0  0  0
  5 12  1  0  0  0  0
  5 15  1  6  0  0  0
  6  8  1  0  0  0  0
  6 17  1  6  0  0  0
  7  9  1  0  0  0  0
  7 10  1  0  0  0  0
  7 28  1  1  0  0  0
  8 10  1  0  0  0  0
  8 29  1  6  0  0  0
  9 11  1  0  0  0  0
  9 16  1  0  0  0  0
  9 30  1  6  0  0  0
 10 31  1  0  0  0  0
 10 32  1  0  0  0  0
 11 13  1  0  0  0  0
 11 14  1  0  0  0  0
 11 33  1  1  0  0  0
 12 13  1  0  0  0  0
 12 34  1  0  0  0  0
 12 35  1  0  0  0  0
 13 36  1  0  0  0  0
 13 37  1  0  0  0  0
 14 18  1  0  0  0  0
 14 19  1  0  0  0  0
 14 21  1  6  0  0  0
 15 38  1  0  0  0  0
 15 39  1  0  0  0  0
 15 40  1  0  0  0  0
 16 20  1  0  0  0  0
 16 41  1  0  0  0  0
 16 42  1  0  0  0  0
 17 24  1  0  0  0  0
 18 20  2  0  0  0  0
 18 22  1  0  0  0  0
 19 23  1  0  0  0  0
 19 43  1  0  0  0  0
 19 44  1  0  0  0  0
 20 45  1  0  0  0  0
 21 46  1  0  0  0  0
 21 47  1  0  0  0  0
 21 48  1  0  0  0  0
 22 25  1  0  0  0  0
 22 49  1  0  0  0  0
 22 50  1  0  0  0  0
 23 25  1  0  0  0  0
 23 51  1  0  0  0  0
 23 52  1  0  0  0  0
 24 53  1  0  0  0  0
 24 54  1  0  0  0  0
 24 55  1  0  0  0  0
 25 56  1  0  0  0  0
 26 27  1  0  0  0  0
 27 57  1  0  0  0  0
 27 58  1  0  0  0  0
 27 59  1  0  0  0  0
M  END
> <PUBCHEM_COMPOUND_CID>
7659351

> <PUBCHEM_COMPOUND_CANONICALIZED>
1

> <PUBCHEM_CACTVS_COMPLEXITY>
741

> <PUBCHEM_CACTVS_HBOND_ACCEPTOR>
4

> <PUBCHEM_CACTVS_HBOND_DONOR>
0

> <PUBCHEM_CACTVS_ROTATABLE_BOND>
3

> <PUBCHEM_CACTVS_SUBSKEYS>
AAADcfB4OAAAAAAAAAAAAAAAEgAAAYAAAAA0YIEAAAAAAGCAAAAAGgAAAAAAD1SggAICCAAABACIAqDSCAIAAAAgAAAACAFAAAgAABYAAQQCAAAE4AAIAAOIyPCPgAAAAAAAAADAAAQAACAAAYAADAAAAA==

> <PUBCHEM_IUPAC_INCHI>
InChI=1S/C23H32O4/c1-13(24)23-20(27-23)12-19-17-6-5-15-11-16(26-14(2)25)7-9-21(15,3)18(17)8-10-22(19,23)4/h5,16-20H,6-12H2,1-4H3/t16-,17+,18-,19-,20+,21-,22-,23+/m0/s1

> <PUBCHEM_IUPAC_INCHIKEY>
YRLVTBXOGJMZNC-QHKUYLHMSA-N

> <PUBCHEM_XLOGP3_AA>
3.5

> <PUBCHEM_EXACT_MASS>
372.23006

> <PUBCHEM_MOLECULAR_FORMULA>
C23H32O4

> <PUBCHEM_MOLECULAR_WEIGHT>
372.49778

> <PUBCHEM_OPENEYE_CAN_SMILES>
CC(=O)C12C(O1)CC3C2(CCC4C3CC=C5C4(CCC(C5)OC(=O)C)C)C

> <PUBCHEM_OPENEYE_ISO_SMILES>
CC(=O)[C@]12[C@H](O1)C[C@@H]3[C@@]2(CC[C@H]4[C@H]3CC=C5[C@@]4(CC[C@@H](C5)OC(=O)C)C)C

> <PUBCHEM_CACTVS_TPSA>
55.9

> <PUBCHEM_MONOISOTOPIC_WEIGHT>
372.23006

> <PUBCHEM_TOTAL_CHARGE>
0

> <PUBCHEM_HEAVY_ATOM_COUNT>
27

> <PUBCHEM_ATOM_DEF_STEREO_COUNT>
8

> <PUBCHEM_ATOM_UDEF_STEREO_COUNT>
0

> <PUBCHEM_BOND_DEF_STEREO_COUNT>
0

> <PUBCHEM_BOND_UDEF_STEREO_COUNT>
0

> <PUBCHEM_ISOTOPIC_ATOM_COUNT>
0

> <PUBCHEM_COMPONENT_COUNT>
1

> <PUBCHEM_CACTVS_TAUTO_COUNT>
2

> <PUBCHEM_COORDINATE_TYPE>
1
5
255

> <PUBCHEM_BONDANNOTATIONS>
11  33  5
14  21  6
25  3  6
5  15  6
6  17  6
7  28  5
8  29  6
9  30  6

$$$$

