151001
  -OEChem-07051213023D

 25 25  0     1  0  0  0  0  0999 V2000
    1.4920    1.4578   -1.2245 O   0  0  0  0  0  0  0  0  0  0  0  0
    3.0046    1.4708    0.4646 O   0  0  0  0  0  0  0  0  0  0  0  0
    3.4740   -1.2071   -0.0218 N   0  0  0  0  0  0  0  0  0  0  0  0
   -4.1650    0.6783   -0.3107 N   0  0  0  0  0  0  0  0  0  0  0  0
    1.1251   -1.1746    0.6772 C   0  0  0  0  0  0  0  0  0  0  0  0
    2.1515   -0.6660   -0.3457 C   0  0  1  0  0  0  0  0  0  0  0  0
   -0.2722   -0.6853    0.4163 C   0  0  0  0  0  0  0  0  0  0  0  0
   -0.6994    0.5055    0.9893 C   0  0  0  0  0  0  0  0  0  0  0  0
   -1.1192   -1.4299   -0.3944 C   0  0  0  0  0  0  0  0  0  0  0  0
    2.2745    0.8477   -0.2961 C   0  0  0  0  0  0  0  0  0  0  0  0
   -1.9960    0.9596    0.7474 C   0  0  0  0  0  0  0  0  0  0  0  0
   -2.4157   -0.9758   -0.6362 C   0  0  0  0  0  0  0  0  0  0  0  0
   -2.8541    0.2188   -0.0654 C   0  0  0  0  0  0  0  0  0  0  0  0
    1.1221   -2.2733    0.6891 H   0  0  0  0  0  0  0  0  0  0  0  0
    1.4199   -0.8749    1.6932 H   0  0  0  0  0  0  0  0  0  0  0  0
    1.8856   -0.9736   -1.3637 H   0  0  0  0  0  0  0  0  0  0  0  0
   -0.0425    1.0898    1.6276 H   0  0  0  0  0  0  0  0  0  0  0  0
   -0.7868   -2.3606   -0.8458 H   0  0  0  0  0  0  0  0  0  0  0  0
   -2.3261    1.8918    1.1986 H   0  0  0  0  0  0  0  0  0  0  0  0
   -3.0747   -1.5617   -1.2720 H   0  0  0  0  0  0  0  0  0  0  0  0
    4.1399   -0.9360   -0.7447 H   0  0  0  0  0  0  0  0  0  0  0  0
    3.4387   -2.2258   -0.0377 H   0  0  0  0  0  0  0  0  0  0  0  0
   -4.7879    0.1411   -0.8991 H   0  0  0  0  0  0  0  0  0  0  0  0
   -4.4838    1.5439    0.1039 H   0  0  0  0  0  0  0  0  0  0  0  0
    1.5822    2.4341   -1.1937 H   0  0  0  0  0  0  0  0  0  0  0  0
  1 10  1  0  0  0  0
  1 25  1  0  0  0  0
  2 10  2  0  0  0  0
  3  6  1  0  0  0  0
  3 21  1  0  0  0  0
  3 22  1  0  0  0  0
  4 13  1  0  0  0  0
  4 23  1  0  0  0  0
  4 24  1  0  0  0  0
  5  6  1  0  0  0  0
  5  7  1  0  0  0  0
  5 14  1  0  0  0  0
  5 15  1  0  0  0  0
  6 10  1  0  0  0  0
  6 16  1  0  0  0  0
  7  8  2  0  0  0  0
  7  9  1  0  0  0  0
  8 11  1  0  0  0  0
  8 17  1  0  0  0  0
  9 12  2  0  0  0  0
  9 18  1  0  0  0  0
 11 13  2  0  0  0  0
 11 19  1  0  0  0  0
 12 13  1  0  0  0  0
 12 20  1  0  0  0  0
M  END
> <PUBCHEM_COMPOUND_CID>
151001

> <PUBCHEM_CONFORMER_RMSD>
0.6

> <PUBCHEM_CONFORMER_DIVERSEORDER>
1
10
3
7
11
6
5
4
2
9
8

> <PUBCHEM_MMFF94_PARTIAL_CHARGES>
22
1 -0.65
10 0.66
11 -0.15
12 -0.15
13 0.1
17 0.15
18 0.15
19 0.15
2 -0.57
20 0.15
21 0.36
22 0.36
23 0.4
24 0.4
25 0.5
3 -0.99
4 -0.9
5 0.14
6 0.33
7 -0.14
8 -0.15
9 -0.15

> <PUBCHEM_EFFECTIVE_ROTOR_COUNT>
3

> <PUBCHEM_PHARMACOPHORE_FEATURES>
8
1 1 acceptor
1 2 acceptor
1 3 cation
1 3 donor
1 4 cation
1 4 donor
3 1 2 10 anion
6 7 8 9 11 12 13 rings

> <PUBCHEM_HEAVY_ATOM_COUNT>
13

> <PUBCHEM_ATOM_DEF_STEREO_COUNT>
1

> <PUBCHEM_ATOM_UDEF_STEREO_COUNT>
0

> <PUBCHEM_BOND_DEF_STEREO_COUNT>
0

> <PUBCHEM_BOND_UDEF_STEREO_COUNT>
0

> <PUBCHEM_ISOTOPIC_ATOM_COUNT>
0

> <PUBCHEM_COMPONENT_COUNT>
1

> <PUBCHEM_CACTVS_TAUTO_COUNT>
1

> <PUBCHEM_CONFORMER_ID>
00024DD900000001

> <PUBCHEM_MMFF94_ENERGY>
34.9691

> <PUBCHEM_FEATURE_SELFOVERLAP>
40.653

> <PUBCHEM_SHAPE_FINGERPRINT>
10857977 72 14189568642125009231
12897270 3 17895187753844199634
14325111 11 18409729543268316355
14897335 6 18336550434448186320
14993402 34 18339356486927948846
15207287 21 15285365041158290790
15775835 57 18410851040633473940
16945 1 18262509424355008875
18186145 218 18202289112641181015
18619055 16 18187086143656801779
20201158 50 5328738565274116149
20279233 1 14273740667803810127
20645476 183 18410862087785575767
20653085 51 18131346393297131967
21119208 17 18336265733898431751
23402539 116 17386296509347021361
23552423 10 18335703874882963059
23557571 272 17677610848021301574
23559900 14 17821734940408432906
7364860 26 18260268585772707546
81228 2 14924764826814960523
9939556 21 18408605855106406286

> <PUBCHEM_SHAPE_MULTIPOLES>
245.83
5.7
1.57
0.94
0.77
0.02
0.01
0.89
0.73
-0.58
0.08
-0.01
0.14
-0.4

> <PUBCHEM_SHAPE_SELFOVERLAP>
507.463

> <PUBCHEM_SHAPE_VOLUME>
140.7

> <PUBCHEM_COORDINATE_TYPE>
2
5
10

$$$$

