13178
  -OEChem-06261207513D

 18 17  0     0  0  0  0  0  0999 V2000
   -2.5757    1.2607   -0.0009 O   0  0  0  0  0  0  0  0  0  0  0  0
    1.8977    1.7094    0.0005 O   0  5  0  0  0  0  0  0  0  0  0  0
    0.0452    0.6022    0.0007 N   0  0  0  0  0  0  0  0  0  0  0  0
   -3.2472   -0.9645   -0.0003 N   0  0  0  0  0  0  0  0  0  0  0  0
   -4.5903   -0.6485    0.0019 N   0  0  0  0  0  0  0  0  0  0  0  0
    3.5457   -0.6957    0.0001 N   0  3  0  0  0  0  0  0  0  0  0  0
    4.6239   -0.7327   -0.0005 N   0  0  0  0  0  0  0  0  0  0  0  0
   -0.9026   -0.4833   -0.0009 C   0  0  0  0  0  0  0  0  0  0  0  0
   -2.3148    0.0599   -0.0016 C   0  0  0  0  0  0  0  0  0  0  0  0
    1.4326    0.5373    0.0008 C   0  0  0  0  0  0  0  0  0  0  0  0
    2.0855   -0.6449    0.0003 C   0  0  0  0  0  0  0  0  0  0  0  0
   -0.7717   -1.1058    0.8914 H   0  0  0  0  0  0  0  0  0  0  0  0
   -0.7704   -1.1043   -0.8942 H   0  0  0  0  0  0  0  0  0  0  0  0
   -0.3243    1.5490    0.0004 H   0  0  0  0  0  0  0  0  0  0  0  0
   -2.9842   -1.9450   -0.0003 H   0  0  0  0  0  0  0  0  0  0  0  0
    1.5593   -1.5934    0.0002 H   0  0  0  0  0  0  0  0  0  0  0  0
   -4.9998   -1.1036    0.8168 H   0  0  0  0  0  0  0  0  0  0  0  0
   -5.0026   -1.1039   -0.8113 H   0  0  0  0  0  0  0  0  0  0  0  0
  1  9  2  0  0  0  0
  2 10  1  0  0  0  0
  3  8  1  0  0  0  0
  3 10  1  0  0  0  0
  3 14  1  0  0  0  0
  4  5  1  0  0  0  0
  4  9  1  0  0  0  0
  4 15  1  0  0  0  0
  5 17  1  0  0  0  0
  5 18  1  0  0  0  0
  6  7  3  0  0  0  0
  6 11  1  0  0  0  0
  8  9  1  0  0  0  0
  8 12  1  0  0  0  0
  8 13  1  0  0  0  0
 10 11  2  0  0  0  0
 11 16  1  0  0  0  0
M  CHG  2   2  -1   6   1
M  END
> <PUBCHEM_COMPOUND_CID>
13178

> <PUBCHEM_CONFORMER_RMSD>
0.6

> <PUBCHEM_CONFORMER_DIVERSEORDER>
1
3
6
4
9
2
8
11
10
7
5
13
12

> <PUBCHEM_MMFF94_PARTIAL_CHARGES>
16
1 -0.57
10 -0.05
11 -0.02
14 0.4
15 0.37
16 0.15
17 0.36
18 0.36
2 -0.85
3 -0.87
4 -0.42
5 -0.73
6 1.36
7 -0.49
8 0.43
9 0.57

> <PUBCHEM_EFFECTIVE_ROTOR_COUNT>
4

> <PUBCHEM_PHARMACOPHORE_FEATURES>
5
1 1 acceptor
1 3 cation
1 3 donor
1 4 donor
1 5 donor

> <PUBCHEM_HEAVY_ATOM_COUNT>
11

> <PUBCHEM_ATOM_DEF_STEREO_COUNT>
0

> <PUBCHEM_ATOM_UDEF_STEREO_COUNT>
0

> <PUBCHEM_BOND_DEF_STEREO_COUNT>
0

> <PUBCHEM_BOND_UDEF_STEREO_COUNT>
1

> <PUBCHEM_ISOTOPIC_ATOM_COUNT>
0

> <PUBCHEM_COMPONENT_COUNT>
1

> <PUBCHEM_CACTVS_TAUTO_COUNT>
2

> <PUBCHEM_CONFORMER_ID>
0000337A00000001

> <PUBCHEM_MMFF94_ENERGY>
17.2332

> <PUBCHEM_FEATURE_SELFOVERLAP>
26.883

> <PUBCHEM_SHAPE_FINGERPRINT>
11062470 55 17676209104208898018
12932764 1 17346611767593847089
13690532 89 18410856577052066170
14252887 29 17967526909249164982
14325111 11 18410575059267964417
177051 138 18333733502705921939
20201158 50 18411697703273410466
20645477 70 18410576162953519783
20871998 22 18187919651202164734
22485316 2 18342742957187842946
23402539 116 17895202125406340925

> <PUBCHEM_SHAPE_MULTIPOLES>
189.73
8.1
1.23
0.55
0.12
0.41
0
-2.83
0
-0.16
0
0
-0.01
0

> <PUBCHEM_SHAPE_SELFOVERLAP>
363.718

> <PUBCHEM_SHAPE_VOLUME>
114.5

> <PUBCHEM_COORDINATE_TYPE>
2
5
10

$$$$

