94149
  -OEChem-07051212573D

 52 55  0     1  0  0  0  0  0999 V2000
   -2.0088    1.9163    1.0633 O   0  0  0  0  0  0  0  0  0  0  0  0
    4.6771   -1.4631    0.2828 O   0  0  0  0  0  0  0  0  0  0  0  0
   -4.6619    1.9212    0.5661 O   0  0  0  0  0  0  0  0  0  0  0  0
   -5.8895   -0.3013   -0.5230 O   0  0  0  0  0  0  0  0  0  0  0  0
    6.0940    0.8817   -0.0047 O   0  0  0  0  0  0  0  0  0  0  0  0
    0.4451   -1.4549   -0.2800 N   0  0  2  0  0  0  0  0  0  0  0  0
   -0.2499   -0.3002    0.3404 C   0  0  1  0  0  0  0  0  0  0  0  0
    0.4266    0.9859   -0.1950 C   0  0  0  0  0  0  0  0  0  0  0  0
   -0.2738   -2.7085   -0.0371 C   0  0  0  0  0  0  0  0  0  0  0  0
   -1.7571   -0.2906    0.0929 C   0  0  0  0  0  0  0  0  0  0  0  0
    1.8278   -1.5518    0.2186 C   0  0  0  0  0  0  0  0  0  0  0  0
   -1.6171   -2.6666   -0.7609 C   0  0  0  0  0  0  0  0  0  0  0  0
   -2.4059   -1.4336   -0.4123 C   0  0  0  0  0  0  0  0  0  0  0  0
    1.9338    0.9482   -0.1271 C   0  0  0  0  0  0  0  0  0  0  0  0
    2.6065   -0.2725    0.0381 C   0  0  0  0  0  0  0  0  0  0  0  0
   -2.5376    0.8269    0.4335 C   0  0  0  0  0  0  0  0  0  0  0  0
   -3.7916   -1.4183   -0.6298 C   0  0  0  0  0  0  0  0  0  0  0  0
    4.0068   -0.2898    0.0899 C   0  0  0  0  0  0  0  0  0  0  0  0
    2.6717    2.1301   -0.2774 C   0  0  0  0  0  0  0  0  0  0  0  0
   -3.9182    0.8289    0.2264 C   0  0  0  0  0  0  0  0  0  0  0  0
   -4.5440   -0.2904   -0.3120 C   0  0  0  0  0  0  0  0  0  0  0  0
    4.7323    0.8930   -0.0500 C   0  0  0  0  0  0  0  0  0  0  0  0
    4.0654    2.1015   -0.2367 C   0  0  0  0  0  0  0  0  0  0  0  0
    4.9497   -1.8368    1.6305 C   0  0  0  0  0  0  0  0  0  0  0  0
   -4.8536    2.9109   -0.4416 C   0  0  0  0  0  0  0  0  0  0  0  0
   -6.7098   -0.7686    0.5462 C   0  0  0  0  0  0  0  0  0  0  0  0
    6.7820    0.7027   -1.2410 C   0  0  0  0  0  0  0  0  0  0  0  0
   -0.1189   -0.3524    1.4321 H   0  0  0  0  0  0  0  0  0  0  0  0
    0.1217    1.8604    0.3843 H   0  0  0  0  0  0  0  0  0  0  0  0
    0.1373    1.1593   -1.2404 H   0  0  0  0  0  0  0  0  0  0  0  0
   -0.4192   -2.8774    1.0384 H   0  0  0  0  0  0  0  0  0  0  0  0
    0.2955   -3.5612   -0.4273 H   0  0  0  0  0  0  0  0  0  0  0  0
    2.3330   -2.3514   -0.3370 H   0  0  0  0  0  0  0  0  0  0  0  0
    1.8333   -1.8169    1.2837 H   0  0  0  0  0  0  0  0  0  0  0  0
   -2.1880   -3.5638   -0.4928 H   0  0  0  0  0  0  0  0  0  0  0  0
   -1.4596   -2.6828   -1.8468 H   0  0  0  0  0  0  0  0  0  0  0  0
   -4.2847   -2.2953   -1.0434 H   0  0  0  0  0  0  0  0  0  0  0  0
    2.1633    3.0796   -0.4254 H   0  0  0  0  0  0  0  0  0  0  0  0
    4.6242    3.0266   -0.3494 H   0  0  0  0  0  0  0  0  0  0  0  0
   -2.7212    2.5447    1.2714 H   0  0  0  0  0  0  0  0  0  0  0  0
    5.3987   -2.8338    1.6245 H   0  0  0  0  0  0  0  0  0  0  0  0
    4.0332   -1.8713    2.2269 H   0  0  0  0  0  0  0  0  0  0  0  0
    5.6607   -1.1379    2.0822 H   0  0  0  0  0  0  0  0  0  0  0  0
   -5.4152    2.4964   -1.2847 H   0  0  0  0  0  0  0  0  0  0  0  0
   -3.8924    3.3032   -0.7889 H   0  0  0  0  0  0  0  0  0  0  0  0
   -5.4303    3.7329   -0.0088 H   0  0  0  0  0  0  0  0  0  0  0  0
   -6.5768   -0.1448    1.4357 H   0  0  0  0  0  0  0  0  0  0  0  0
   -6.4765   -1.8120    0.7804 H   0  0  0  0  0  0  0  0  0  0  0  0
   -7.7543   -0.7066    0.2289 H   0  0  0  0  0  0  0  0  0  0  0  0
    6.5521    1.5219   -1.9297 H   0  0  0  0  0  0  0  0  0  0  0  0
    6.5153   -0.2566   -1.6955 H   0  0  0  0  0  0  0  0  0  0  0  0
    7.8565    0.7069   -1.0388 H   0  0  0  0  0  0  0  0  0  0  0  0
  1 16  1  0  0  0  0
  1 40  1  0  0  0  0
  2 18  1  0  0  0  0
  2 24  1  0  0  0  0
  3 20  1  0  0  0  0
  3 25  1  0  0  0  0
  4 21  1  0  0  0  0
  4 26  1  0  0  0  0
  5 22  1  0  0  0  0
  5 27  1  0  0  0  0
  6  7  1  0  0  0  0
  6  9  1  0  0  0  0
  6 11  1  0  0  0  0
  7  8  1  0  0  0  0
  7 10  1  0  0  0  0
  7 28  1  0  0  0  0
  8 14  1  0  0  0  0
  8 29  1  0  0  0  0
  8 30  1  0  0  0  0
  9 12  1  0  0  0  0
  9 31  1  0  0  0  0
  9 32  1  0  0  0  0
 10 13  1  0  0  0  0
 10 16  2  0  0  0  0
 11 15  1  0  0  0  0
 11 33  1  0  0  0  0
 11 34  1  0  0  0  0
 12 13  1  0  0  0  0
 12 35  1  0  0  0  0
 12 36  1  0  0  0  0
 13 17  2  0  0  0  0
 14 15  2  0  0  0  0
 14 19  1  0  0  0  0
 15 18  1  0  0  0  0
 16 20  1  0  0  0  0
 17 21  1  0  0  0  0
 17 37  1  0  0  0  0
 18 22  2  0  0  0  0
 19 23  2  0  0  0  0
 19 38  1  0  0  0  0
 20 21  2  0  0  0  0
 22 23  1  0  0  0  0
 23 39  1  0  0  0  0
 24 41  1  0  0  0  0
 24 42  1  0  0  0  0
 24 43  1  0  0  0  0
 25 44  1  0  0  0  0
 25 45  1  0  0  0  0
 25 46  1  0  0  0  0
 26 47  1  0  0  0  0
 26 48  1  0  0  0  0
 26 49  1  0  0  0  0
 27 50  1  0  0  0  0
 27 51  1  0  0  0  0
 27 52  1  0  0  0  0
M  END
> <PUBCHEM_COMPOUND_CID>
94149

> <PUBCHEM_CONFORMER_RMSD>
0.8

> <PUBCHEM_CONFORMER_DIVERSEORDER>
2
6
8
7
3
5
4
1

> <PUBCHEM_MMFF94_PARTIAL_CHARGES>
31
1 -0.53
10 -0.14
11 0.41
12 0.14
13 -0.14
14 -0.14
15 -0.14
16 0.08
17 -0.15
18 0.08
19 -0.15
2 -0.36
20 0.08
21 0.08
22 0.08
23 -0.15
24 0.28
25 0.28
26 0.28
27 0.28
3 -0.36
37 0.15
38 0.15
39 0.15
4 -0.36
40 0.45
5 -0.36
6 -0.81
7 0.41
8 0.14
9 0.27

> <PUBCHEM_EFFECTIVE_ROTOR_COUNT>
4.8

> <PUBCHEM_PHARMACOPHORE_FEATURES>
10
1 1 donor
1 2 acceptor
1 3 acceptor
1 4 acceptor
1 5 acceptor
1 6 cation
6 10 13 16 17 20 21 rings
6 14 15 18 19 22 23 rings
6 6 7 8 11 14 15 rings
6 6 7 9 10 12 13 rings

> <PUBCHEM_HEAVY_ATOM_COUNT>
27

> <PUBCHEM_ATOM_DEF_STEREO_COUNT>
1

> <PUBCHEM_ATOM_UDEF_STEREO_COUNT>
0

> <PUBCHEM_BOND_DEF_STEREO_COUNT>
0

> <PUBCHEM_BOND_UDEF_STEREO_COUNT>
0

> <PUBCHEM_ISOTOPIC_ATOM_COUNT>
0

> <PUBCHEM_COMPONENT_COUNT>
1

> <PUBCHEM_CACTVS_TAUTO_COUNT>
9

> <PUBCHEM_CONFORMER_ID>
00016FC500000002

> <PUBCHEM_MMFF94_ENERGY>
120.9522

> <PUBCHEM_FEATURE_SELFOVERLAP>
50.82

> <PUBCHEM_SHAPE_FINGERPRINT>
10595046 47 18339645529452152380
11578080 2 17416140588557839463
12107183 9 18123756623470771504
12166972 35 18341328916225506621
12236239 1 18343304781854447635
12390115 104 18041828615098554633
12403259 415 18114189618047236209
12788726 201 18040430018505734025
12838862 33 18337127686585064193
13073987 5 18343022202670241377
13533116 47 18273220806893754994
13583140 156 17917703570053263832
13782708 43 15338567149183759514
13785724 45 17763186134971311802
14117953 113 18121223344174853380
14739800 52 18043830692840109536
14790565 3 18411136956606180236
15131766 46 16126108635252733788
15183329 4 18408605855053314559
15196674 1 18410293635472022289
15420108 30 17035840574444609992
1577012 14 18410575114907484001
17349148 13 18186805776971473206
18608769 82 18265048038401943363
18681886 176 18041280959797948224
20511986 3 18338250314206693592
20715895 44 18121504823926806169
21267235 1 18336539439595763023
21279426 13 18263359347075109406
21421861 104 17845950627659092178
23402539 116 18187086105017940237
23559900 14 18042128652771217192
3004659 81 18408321082169565244
335352 9 18410853231952693772
34797466 226 17240760645317138080
350125 39 18409449181031124169
3545911 37 18335980891677865028
3680242 22 18340206413858886938
4073 2 17988638528829109386
4214541 1 18408322168226799852
474 4 18060136496817395420
5104073 3 18411702092682125257
6328613 192 18270955740395759748

> <PUBCHEM_SHAPE_MULTIPOLES>
521.32
15.17
2.82
0.91
2.09
0.09
0.1
3.66
-0.5
-0.92
-0.08
0.49
-0.16
-1.41

> <PUBCHEM_SHAPE_SELFOVERLAP>
1134.001

> <PUBCHEM_SHAPE_VOLUME>
285

> <PUBCHEM_COORDINATE_TYPE>
2
5
10

$$$$

