17395673
  -OEChem-06241222512D

 45 47  0     0  0  0  0  0  0999 V2000
    3.7040    3.7594    0.0000 O   0  0  0  0  0  0  0  0  0  0  0  0
    3.7320   -0.5194    0.0000 O   0  0  0  0  0  0  0  0  0  0  0  0
    5.4641    3.4806    0.0000 N   0  0  0  0  0  0  0  0  0  0  0  0
    5.4641   -0.5194    0.0000 N   0  0  0  0  0  0  0  0  0  0  0  0
    2.8660   -4.0194    0.0000 N   0  0  0  0  0  0  0  0  0  0  0  0
    6.2731    4.0684    0.0000 C   0  0  0  0  0  0  0  0  0  0  0  0
    5.9641    5.0194    0.0000 C   0  0  0  0  0  0  0  0  0  0  0  0
    4.9641    5.0194    0.0000 C   0  0  0  0  0  0  0  0  0  0  0  0
    4.6551    4.0684    0.0000 C   0  0  0  0  0  0  0  0  0  0  0  0
    5.4641    2.4806    0.0000 C   0  0  0  0  0  0  0  0  0  0  0  0
    4.5981    1.9806    0.0000 C   0  0  0  0  0  0  0  0  0  0  0  0
    6.3301    1.9806    0.0000 C   0  0  0  0  0  0  0  0  0  0  0  0
    5.4641    0.4806    0.0000 C   0  0  0  0  0  0  0  0  0  0  0  0
    4.5981    0.9806    0.0000 C   0  0  0  0  0  0  0  0  0  0  0  0
    6.3301    0.9806    0.0000 C   0  0  0  0  0  0  0  0  0  0  0  0
    4.5981   -2.0194    0.0000 C   0  0  0  0  0  0  0  0  0  0  0  0
    3.7320   -3.5194    0.0000 C   0  0  0  0  0  0  0  0  0  0  0  0
    4.5981   -1.0194    0.0000 C   0  0  0  0  0  0  0  0  0  0  0  0
    3.7320   -2.5194    0.0000 C   0  0  0  0  0  0  0  0  0  0  0  0
    5.4641   -2.5194    0.0000 C   0  0  0  0  0  0  0  0  0  0  0  0
    4.5981   -4.0194    0.0000 C   0  0  0  0  0  0  0  0  0  0  0  0
    5.4641   -3.5194    0.0000 C   0  0  0  0  0  0  0  0  0  0  0  0
    2.8660   -5.0194    0.0000 C   0  0  0  0  0  0  0  0  0  0  0  0
    2.0000   -3.5194    0.0000 C   0  0  0  0  0  0  0  0  0  0  0  0
    6.5831    3.5314    0.0000 H   0  0  0  0  0  0  0  0  0  0  0  0
    6.8395    4.3205    0.0000 H   0  0  0  0  0  0  0  0  0  0  0  0
    6.5706    5.1483    0.0000 H   0  0  0  0  0  0  0  0  0  0  0  0
    5.8993    5.6360    0.0000 H   0  0  0  0  0  0  0  0  0  0  0  0
    5.0289    5.6360    0.0000 H   0  0  0  0  0  0  0  0  0  0  0  0
    4.3576    5.1483    0.0000 H   0  0  0  0  0  0  0  0  0  0  0  0
    4.0611    2.2906    0.0000 H   0  0  0  0  0  0  0  0  0  0  0  0
    6.8671    2.2906    0.0000 H   0  0  0  0  0  0  0  0  0  0  0  0
    4.0611    0.6706    0.0000 H   0  0  0  0  0  0  0  0  0  0  0  0
    6.8671    0.6706    0.0000 H   0  0  0  0  0  0  0  0  0  0  0  0
    6.0010   -0.8294    0.0000 H   0  0  0  0  0  0  0  0  0  0  0  0
    3.1951   -2.2094    0.0000 H   0  0  0  0  0  0  0  0  0  0  0  0
    6.0010   -2.2094    0.0000 H   0  0  0  0  0  0  0  0  0  0  0  0
    4.5981   -4.6394    0.0000 H   0  0  0  0  0  0  0  0  0  0  0  0
    6.0010   -3.8294    0.0000 H   0  0  0  0  0  0  0  0  0  0  0  0
    2.2460   -5.0194    0.0000 H   0  0  0  0  0  0  0  0  0  0  0  0
    2.3100   -2.9825    0.0000 H   0  0  0  0  0  0  0  0  0  0  0  0
    1.4631   -3.2094    0.0000 H   0  0  0  0  0  0  0  0  0  0  0  0
    2.8660   -5.6394    0.0000 H   0  0  0  0  0  0  0  0  0  0  0  0
    3.4860   -5.0194    0.0000 H   0  0  0  0  0  0  0  0  0  0  0  0
    1.6900   -4.0564    0.0000 H   0  0  0  0  0  0  0  0  0  0  0  0
  1  9  2  0  0  0  0
  2 18  2  0  0  0  0
  3  6  1  0  0  0  0
  3  9  1  0  0  0  0
  3 10  1  0  0  0  0
  4 13  1  0  0  0  0
  4 18  1  0  0  0  0
  4 35  1  0  0  0  0
  5 17  1  0  0  0  0
  5 23  1  0  0  0  0
  5 24  1  0  0  0  0
  6  7  1  0  0  0  0
  6 25  1  0  0  0  0
  6 26  1  0  0  0  0
  7  8  1  0  0  0  0
  7 27  1  0  0  0  0
  7 28  1  0  0  0  0
  8  9  1  0  0  0  0
  8 29  1  0  0  0  0
  8 30  1  0  0  0  0
 10 11  2  0  0  0  0
 10 12  1  0  0  0  0
 11 14  1  0  0  0  0
 11 31  1  0  0  0  0
 12 15  2  0  0  0  0
 12 32  1  0  0  0  0
 13 14  2  0  0  0  0
 13 15  1  0  0  0  0
 14 33  1  0  0  0  0
 15 34  1  0  0  0  0
 16 18  1  0  0  0  0
 16 19  2  0  0  0  0
 16 20  1  0  0  0  0
 17 19  1  0  0  0  0
 17 21  2  0  0  0  0
 19 36  1  0  0  0  0
 20 22  2  0  0  0  0
 20 37  1  0  0  0  0
 21 22  1  0  0  0  0
 21 38  1  0  0  0  0
 22 39  1  0  0  0  0
 23 40  1  0  0  0  0
 23 43  1  0  0  0  0
 23 44  1  0  0  0  0
 24 41  1  0  0  0  0
 24 42  1  0  0  0  0
 24 45  1  0  0  0  0
M  END
> <PUBCHEM_COMPOUND_CID>
17395673

> <PUBCHEM_COMPOUND_CANONICALIZED>
1

> <PUBCHEM_CACTVS_COMPLEXITY>
458

> <PUBCHEM_CACTVS_HBOND_ACCEPTOR>
3

> <PUBCHEM_CACTVS_HBOND_DONOR>
1

> <PUBCHEM_CACTVS_ROTATABLE_BOND>
4

> <PUBCHEM_CACTVS_SUBSKEYS>
AAADceB7MAAAAAAAAAAAAAAAAAAAAWAAAAAwYAAAAAAAAAABQAAAHgAQAAAADAjBmAQywIPAAACIAiVSUACCAAAlAgAIiAEIZMgIIDLAlZGEIQhglgDIyYcciACOAACAQAAAAAAAAQCAAAAAAAAAAAAAAA==

> <PUBCHEM_IUPAC_OPENEYE_NAME>
3-(dimethylamino)-N-[4-(2-oxopyrrolidin-1-yl)phenyl]benzamide

> <PUBCHEM_IUPAC_CAS_NAME>
3-(dimethylamino)-N-[4-(2-oxo-1-pyrrolidinyl)phenyl]benzamide

> <PUBCHEM_IUPAC_NAME>
3-(dimethylamino)-N-[4-(2-oxopyrrolidin-1-yl)phenyl]benzamide

> <PUBCHEM_IUPAC_SYSTEMATIC_NAME>
3-(dimethylamino)-N-[4-(2-oxidanylidenepyrrolidin-1-yl)phenyl]benzamide

> <PUBCHEM_IUPAC_TRADITIONAL_NAME>
3-(dimethylamino)-N-[4-(2-ketopyrrolidino)phenyl]benzamide

> <PUBCHEM_IUPAC_INCHI>
InChI=1S/C19H21N3O2/c1-21(2)17-6-3-5-14(13-17)19(24)20-15-8-10-16(11-9-15)22-12-4-7-18(22)23/h3,5-6,8-11,13H,4,7,12H2,1-2H3,(H,20,24)

> <PUBCHEM_IUPAC_INCHIKEY>
MZLVLSKACSRPQH-UHFFFAOYSA-N

> <PUBCHEM_XLOGP3_AA>
2.3

> <PUBCHEM_EXACT_MASS>
323.163377

> <PUBCHEM_MOLECULAR_FORMULA>
C19H21N3O2

> <PUBCHEM_MOLECULAR_WEIGHT>
323.38894

> <PUBCHEM_OPENEYE_CAN_SMILES>
CN(C)C1=CC=CC(=C1)C(=O)NC2=CC=C(C=C2)N3CCCC3=O

> <PUBCHEM_OPENEYE_ISO_SMILES>
CN(C)C1=CC=CC(=C1)C(=O)NC2=CC=C(C=C2)N3CCCC3=O

> <PUBCHEM_CACTVS_TPSA>
52.6

> <PUBCHEM_MONOISOTOPIC_WEIGHT>
323.163377

> <PUBCHEM_TOTAL_CHARGE>
0

> <PUBCHEM_HEAVY_ATOM_COUNT>
24

> <PUBCHEM_ATOM_DEF_STEREO_COUNT>
0

> <PUBCHEM_ATOM_UDEF_STEREO_COUNT>
0

> <PUBCHEM_BOND_DEF_STEREO_COUNT>
0

> <PUBCHEM_BOND_UDEF_STEREO_COUNT>
0

> <PUBCHEM_ISOTOPIC_ATOM_COUNT>
0

> <PUBCHEM_COMPONENT_COUNT>
1

> <PUBCHEM_CACTVS_TAUTO_COUNT>
4

> <PUBCHEM_COORDINATE_TYPE>
1
5
255

> <PUBCHEM_BONDANNOTATIONS>
10  11  8
10  12  8
11  14  8
12  15  8
13  14  8
13  15  8
16  19  8
16  20  8
17  19  8
17  21  8
20  22  8
21  22  8

$$$$

