92434
  -OEChem-07051213133D

 52 53  0     0  0  0  0  0  0999 V2000
   -3.5416    1.3624   -1.2641 S   0  0  0  0  0  0  0  0  0  0  0  0
    7.5341    1.4475   -1.2169 F   0  0  0  0  0  0  0  0  0  0  0  0
    8.4918    0.2361    0.3239 F   0  0  0  0  0  0  0  0  0  0  0  0
    7.3020    1.9812    0.8851 F   0  0  0  0  0  0  0  0  0  0  0  0
   -3.8663    0.2323   -2.1192 O   0  0  0  0  0  0  0  0  0  0  0  0
   -4.1418    2.6618   -1.5183 O   0  0  0  0  0  0  0  0  0  0  0  0
   -6.1532   -1.0002   -0.8371 O   0  0  0  0  0  0  0  0  0  0  0  0
   -4.1471   -2.1275   -0.7773 O   0  0  0  0  0  0  0  0  0  0  0  0
   -1.2870   -0.6271   -0.5632 O   0  0  0  0  0  0  0  0  0  0  0  0
    5.0118    0.8617   -0.2363 O   0  0  0  0  0  0  0  0  0  0  0  0
   -1.8399    1.5400   -1.1948 N   0  0  0  0  0  0  0  0  0  0  0  0
    0.3872    0.9841   -0.7952 N   0  0  0  0  0  0  0  0  0  0  0  0
    2.5071   -2.9968    0.4961 N   0  0  0  0  0  0  0  0  0  0  0  0
    1.4201   -1.0212   -0.1474 N   0  0  0  0  0  0  0  0  0  0  0  0
    2.7182    0.9619   -0.5218 N   0  0  0  0  0  0  0  0  0  0  0  0
    3.8019   -1.0745    0.1386 N   0  0  0  0  0  0  0  0  0  0  0  0
   -3.9143    0.9330    0.3968 C   0  0  0  0  0  0  0  0  0  0  0  0
   -3.5897    1.8114    1.4308 C   0  0  0  0  0  0  0  0  0  0  0  0
   -4.5335   -0.2835    0.6840 C   0  0  0  0  0  0  0  0  0  0  0  0
   -3.8844    1.4733    2.7515 C   0  0  0  0  0  0  0  0  0  0  0  0
   -4.8284   -0.6215    2.0047 C   0  0  0  0  0  0  0  0  0  0  0  0
   -2.9268    3.1233    1.1624 C   0  0  0  0  0  0  0  0  0  0  0  0
   -4.5038    0.2568    3.0385 C   0  0  0  0  0  0  0  0  0  0  0  0
   -4.8908   -1.2296   -0.3654 C   0  0  0  0  0  0  0  0  0  0  0  0
   -0.9134    0.5108   -0.8201 C   0  0  0  0  0  0  0  0  0  0  0  0
    1.5664    0.2736   -0.4720 C   0  0  0  0  0  0  0  0  0  0  0  0
    2.5799   -1.6310    0.1459 C   0  0  0  0  0  0  0  0  0  0  0  0
    3.7940    0.2237   -0.2043 C   0  0  0  0  0  0  0  0  0  0  0  0
    1.2289   -3.6776    0.5281 C   0  0  0  0  0  0  0  0  0  0  0  0
    3.7114   -3.7366    0.8141 C   0  0  0  0  0  0  0  0  0  0  0  0
   -6.6214   -1.8689   -1.8742 C   0  0  0  0  0  0  0  0  0  0  0  0
    6.1482    0.0787    0.1000 C   0  0  0  0  0  0  0  0  0  0  0  0
    7.3805    0.9424    0.0269 C   0  0  0  0  0  0  0  0  0  0  0  0
   -3.6382    2.1438    3.5707 H   0  0  0  0  0  0  0  0  0  0  0  0
   -5.3108   -1.5664    2.2417 H   0  0  0  0  0  0  0  0  0  0  0  0
   -2.8603    3.7124    2.0863 H   0  0  0  0  0  0  0  0  0  0  0  0
   -3.4948    3.7505    0.4732 H   0  0  0  0  0  0  0  0  0  0  0  0
   -1.8962    2.9991    0.8251 H   0  0  0  0  0  0  0  0  0  0  0  0
   -1.4659    2.4849   -1.3486 H   0  0  0  0  0  0  0  0  0  0  0  0
   -4.7331   -0.0067    4.0669 H   0  0  0  0  0  0  0  0  0  0  0  0
    0.5338    1.9607   -1.0352 H   0  0  0  0  0  0  0  0  0  0  0  0
    1.3290   -4.7267    0.8259 H   0  0  0  0  0  0  0  0  0  0  0  0
    0.7581   -3.6652   -0.4612 H   0  0  0  0  0  0  0  0  0  0  0  0
    0.5527   -3.2011    1.2466 H   0  0  0  0  0  0  0  0  0  0  0  0
    3.4977   -4.7800    1.0696 H   0  0  0  0  0  0  0  0  0  0  0  0
    4.2246   -3.2921    1.6740 H   0  0  0  0  0  0  0  0  0  0  0  0
    4.3974   -3.7464   -0.0401 H   0  0  0  0  0  0  0  0  0  0  0  0
   -5.9778   -1.7888   -2.7552 H   0  0  0  0  0  0  0  0  0  0  0  0
   -6.6555   -2.9012   -1.5136 H   0  0  0  0  0  0  0  0  0  0  0  0
   -7.6329   -1.5577   -2.1480 H   0  0  0  0  0  0  0  0  0  0  0  0
    6.0505   -0.3147    1.1189 H   0  0  0  0  0  0  0  0  0  0  0  0
    6.2544   -0.7553   -0.6039 H   0  0  0  0  0  0  0  0  0  0  0  0
  1  5  2  0  0  0  0
  1  6  2  0  0  0  0
  1 11  1  0  0  0  0
  1 17  1  0  0  0  0
  2 33  1  0  0  0  0
  3 33  1  0  0  0  0
  4 33  1  0  0  0  0
  7 24  1  0  0  0  0
  7 31  1  0  0  0  0
  8 24  2  0  0  0  0
  9 25  2  0  0  0  0
 10 28  1  0  0  0  0
 10 32  1  0  0  0  0
 11 25  1  0  0  0  0
 11 39  1  0  0  0  0
 12 25  1  0  0  0  0
 12 26  1  0  0  0  0
 12 41  1  0  0  0  0
 13 27  1  0  0  0  0
 13 29  1  0  0  0  0
 13 30  1  0  0  0  0
 14 26  2  0  0  0  0
 14 27  1  0  0  0  0
 15 26  1  0  0  0  0
 15 28  2  0  0  0  0
 16 27  2  0  0  0  0
 16 28  1  0  0  0  0
 17 18  2  0  0  0  0
 17 19  1  0  0  0  0
 18 20  1  0  0  0  0
 18 22  1  0  0  0  0
 19 21  2  0  0  0  0
 19 24  1  0  0  0  0
 20 23  2  0  0  0  0
 20 34  1  0  0  0  0
 21 23  1  0  0  0  0
 21 35  1  0  0  0  0
 22 36  1  0  0  0  0
 22 37  1  0  0  0  0
 22 38  1  0  0  0  0
 23 40  1  0  0  0  0
 29 42  1  0  0  0  0
 29 43  1  0  0  0  0
 29 44  1  0  0  0  0
 30 45  1  0  0  0  0
 30 46  1  0  0  0  0
 30 47  1  0  0  0  0
 31 48  1  0  0  0  0
 31 49  1  0  0  0  0
 31 50  1  0  0  0  0
 32 33  1  0  0  0  0
 32 51  1  0  0  0  0
 32 52  1  0  0  0  0
M  END
> <PUBCHEM_COMPOUND_CID>
92434

> <PUBCHEM_CONFORMER_RMSD>
1.2

> <PUBCHEM_CONFORMER_DIVERSEORDER>
1
53
160
17
95
64
136
89
115
91
46
65
55
155
107
110
70
122
42
162
75
24
54
59
83
90
121
116
130
125
128
156
49
71
152
78
3
123
119
57
96
158
32
140
150
30
104
92
117
126
43
66
118
45
18
15
144
14
113
112
29
68
80
120
142
141
161
48
39
124
38
84
79
106
41
109
98
149
97
148
131
25
5
135
58
138
146
86
129
159
21
87
13
37
81
103
47
72
52
145
10
31
67
33
51
60
69
147
114
157
153
93
22
82
99
77
101
23
2
134
6
111
151
50
74
85
62
26
61
4
76
35
154
19
137
127
102
27
139
73
100
7
56
105
133
44
88
16
9
63
12
108
28
94
20
132
143
11
40
36
34
8

> <PUBCHEM_MMFF94_PARTIAL_CHARGES>
38
1 1.45
10 -0.36
11 -0.79
12 -0.55
13 -0.84
14 -0.62
15 -0.62
16 -0.62
17 -0.01
18 -0.14
19 0.09
2 -0.34
20 -0.15
21 -0.15
22 0.14
23 -0.15
24 0.63
25 0.87
26 0.74
27 0.72
28 0.7
29 0.37
3 -0.34
30 0.37
31 0.28
32 0.28
33 1.02
34 0.15
35 0.15
39 0.42
4 -0.34
40 0.15
41 0.37
5 -0.65
6 -0.65
7 -0.43
8 -0.57
9 -0.57

> <PUBCHEM_EFFECTIVE_ROTOR_COUNT>
11

> <PUBCHEM_PHARMACOPHORE_FEATURES>
9
1 11 donor
1 12 donor
1 5 acceptor
1 6 acceptor
1 8 acceptor
1 9 acceptor
4 13 14 16 27 cation
6 14 15 16 26 27 28 rings
6 17 18 19 20 21 23 rings

> <PUBCHEM_HEAVY_ATOM_COUNT>
33

> <PUBCHEM_ATOM_DEF_STEREO_COUNT>
0

> <PUBCHEM_ATOM_UDEF_STEREO_COUNT>
0

> <PUBCHEM_BOND_DEF_STEREO_COUNT>
0

> <PUBCHEM_BOND_UDEF_STEREO_COUNT>
0

> <PUBCHEM_ISOTOPIC_ATOM_COUNT>
0

> <PUBCHEM_COMPONENT_COUNT>
1

> <PUBCHEM_CACTVS_TAUTO_COUNT>
9

> <PUBCHEM_CONFORMER_ID>
0001691200000001

> <PUBCHEM_MMFF94_ENERGY>
87.2711

> <PUBCHEM_FEATURE_SELFOVERLAP>
45.738

> <PUBCHEM_SHAPE_FINGERPRINT>
11007060 377 18413388730850872562
11273773 118 15864061100743634512
11315181 36 16271925995623815645
11445158 3 17273969156435000734
12082328 90 16950557783991329852
12373685 5 17559975348917049265
12596602 18 17967812764475007915
13631057 29 18335707083603244135
13782708 43 17559956705260992010
14118638 360 18261115187755542679
14279260 333 7709197719626140052
14347329 18 15213576874961604794
14394314 77 18334851732740457201
1454969 45 18272937090075640326
14849402 71 18041840576778549704
14856354 85 18040991791664282087
15183329 4 6627473978132249684
15361156 5 17701248368159888455
17913733 40 18412257359667086362
19377110 9 18408608084621525706
21458453 9 17418093166458669108
21623969 137 18202558497653958842
21756936 100 17022618689053475413
32027 91 17413876758145794754
4073 2 17774720969211795780
508706 21 17059487582097679507
5104073 3 18058727056249771696
5758199 1 18409161092015599016

> <PUBCHEM_SHAPE_MULTIPOLES>
596.05
19.7
3.36
2.01
33.46
2.33
-0.95
-3.82
0.17
0.68
-0.62
-4.63
-0.54
-2.34

> <PUBCHEM_SHAPE_SELFOVERLAP>
1244.399

> <PUBCHEM_SHAPE_VOLUME>
342.5

> <PUBCHEM_COORDINATE_TYPE>
2
5
10

$$$$

