12014
  -OEChem-06261206233D

 18 17  0     0  0  0  0  0  0999 V2000
    1.4162    0.1367   -0.6109 C   0  0  0  0  0  0  0  0  0  0  0  0
   -0.0036   -0.1951   -0.2155 C   0  0  0  0  0  0  0  0  0  0  0  0
    2.2687    0.5356    0.5848 C   0  0  0  0  0  0  0  0  0  0  0  0
   -0.2461   -1.6327    0.1636 C   0  0  0  0  0  0  0  0  0  0  0  0
   -1.0088    0.7000   -0.1643 C   0  0  0  0  0  0  0  0  0  0  0  0
   -2.4263    0.4555    0.2423 C   0  0  0  0  0  0  0  0  0  0  0  0
    1.4101    0.9667   -1.3288 H   0  0  0  0  0  0  0  0  0  0  0  0
    1.8745   -0.7099   -1.1351 H   0  0  0  0  0  0  0  0  0  0  0  0
    3.2833    0.7849    0.2581 H   0  0  0  0  0  0  0  0  0  0  0  0
    2.3393   -0.2806    1.3114 H   0  0  0  0  0  0  0  0  0  0  0  0
    1.8536    1.4116    1.0946 H   0  0  0  0  0  0  0  0  0  0  0  0
   -1.2996   -1.9202    0.1834 H   0  0  0  0  0  0  0  0  0  0  0  0
    0.2304   -2.2975   -0.5658 H   0  0  0  0  0  0  0  0  0  0  0  0
    0.1877   -1.8417    1.1468 H   0  0  0  0  0  0  0  0  0  0  0  0
   -0.7869    1.7260   -0.4532 H   0  0  0  0  0  0  0  0  0  0  0  0
   -3.0545    0.3163   -0.6423 H   0  0  0  0  0  0  0  0  0  0  0  0
   -2.7996    1.3305    0.7855 H   0  0  0  0  0  0  0  0  0  0  0  0
   -2.5495   -0.3988    0.9116 H   0  0  0  0  0  0  0  0  0  0  0  0
  1  2  1  0  0  0  0
  1  3  1  0  0  0  0
  1  7  1  0  0  0  0
  1  8  1  0  0  0  0
  2  4  1  0  0  0  0
  2  5  2  0  0  0  0
  3  9  1  0  0  0  0
  3 10  1  0  0  0  0
  3 11  1  0  0  0  0
  4 12  1  0  0  0  0
  4 13  1  0  0  0  0
  4 14  1  0  0  0  0
  5  6  1  0  0  0  0
  5 15  1  0  0  0  0
  6 16  1  0  0  0  0
  6 17  1  0  0  0  0
  6 18  1  0  0  0  0
M  END
> <PUBCHEM_COMPOUND_CID>
12014

> <PUBCHEM_CONFORMER_RMSD>
0.4

> <PUBCHEM_CONFORMER_DIVERSEORDER>
1

> <PUBCHEM_MMFF94_PARTIAL_CHARGES>
6
1 0.14
15 0.15
2 -0.28
4 0.14
5 -0.29
6 0.14

> <PUBCHEM_EFFECTIVE_ROTOR_COUNT>
1

> <PUBCHEM_PHARMACOPHORE_FEATURES>
3
1 3 hydrophobe
1 4 hydrophobe
1 6 hydrophobe

> <PUBCHEM_HEAVY_ATOM_COUNT>
6

> <PUBCHEM_ATOM_DEF_STEREO_COUNT>
0

> <PUBCHEM_ATOM_UDEF_STEREO_COUNT>
0

> <PUBCHEM_BOND_DEF_STEREO_COUNT>
0

> <PUBCHEM_BOND_UDEF_STEREO_COUNT>
1

> <PUBCHEM_ISOTOPIC_ATOM_COUNT>
0

> <PUBCHEM_COMPONENT_COUNT>
1

> <PUBCHEM_CACTVS_TAUTO_COUNT>
1

> <PUBCHEM_CONFORMER_ID>
00002EEE00000001

> <PUBCHEM_MMFF94_ENERGY>
3.0257

> <PUBCHEM_FEATURE_SELFOVERLAP>
15.224

> <PUBCHEM_SHAPE_FINGERPRINT>
14390081 3 18113900515430147161
16714656 1 18342730797718579764
20096714 4 18261111906468716684
21040471 1 18412256242263335086
23552449 1 17972322815206534272
23552449 11 17841157967367435739
29004967 10 17988069097564361561
5460574 1 10159697988642733989

> <PUBCHEM_SHAPE_MULTIPOLES>
123.48
2.97
1.23
0.76
0.13
0.63
0
-1.05
0.51
0.16
0.09
-0.19
-0.04
0.08

> <PUBCHEM_SHAPE_SELFOVERLAP>
215.842

> <PUBCHEM_SHAPE_VOLUME>
83.1

> <PUBCHEM_COORDINATE_TYPE>
2
5
10

$$$$

