10420098
  -OEChem-07051213092D

 26 26  0     0  0  0  0  0  0999 V2000
    2.5369   -0.0950    0.0000 O   0  0  0  0  0  0  0  0  0  0  0  0
    3.4030    2.4050    0.0000 O   0  0  0  0  0  0  0  0  0  0  0  0
    6.0010   -2.0950    0.0000 O   0  0  0  0  0  0  0  0  0  0  0  0
    4.2690   -0.0950    0.0000 C   0  0  0  0  0  0  0  0  0  0  0  0
    4.2690    0.9050    0.0000 C   0  0  0  0  0  0  0  0  0  0  0  0
    3.4030   -0.5950    0.0000 C   0  0  0  0  0  0  0  0  0  0  0  0
    5.1350   -0.5950    0.0000 C   0  0  0  0  0  0  0  0  0  0  0  0
    3.4030    1.4050    0.0000 C   0  0  0  0  0  0  0  0  0  0  0  0
    5.1350   -1.5950    0.0000 C   0  0  0  0  0  0  0  0  0  0  0  0
    3.4030   -1.5950    0.0000 C   0  0  0  0  0  0  0  0  0  0  0  0
    4.2690   -2.0950    0.0000 C   0  0  0  0  0  0  0  0  0  0  0  0
    5.1350    1.4050    0.0000 C   0  0  0  0  0  0  0  0  0  0  0  0
    6.0010    0.9050    0.0000 C   0  0  0  0  0  0  0  0  0  0  0  0
    6.8671    1.4050    0.0000 C   0  0  0  0  0  0  0  0  0  0  0  0
    5.6720   -0.2850    0.0000 H   0  0  0  0  0  0  0  0  0  0  0  0
    2.7924    1.5127    0.0000 H   0  0  0  0  0  0  0  0  0  0  0  0
    3.1909    0.8224    0.0000 H   0  0  0  0  0  0  0  0  0  0  0  0
    2.8660   -1.9050    0.0000 H   0  0  0  0  0  0  0  0  0  0  0  0
    4.2690   -2.7150    0.0000 H   0  0  0  0  0  0  0  0  0  0  0  0
    5.1350    2.0250    0.0000 H   0  0  0  0  0  0  0  0  0  0  0  0
    6.0010    0.2850    0.0000 H   0  0  0  0  0  0  0  0  0  0  0  0
    2.0000   -0.4050    0.0000 H   0  0  0  0  0  0  0  0  0  0  0  0
    2.8660    2.7150    0.0000 H   0  0  0  0  0  0  0  0  0  0  0  0
    6.0010   -2.7150    0.0000 H   0  0  0  0  0  0  0  0  0  0  0  0
    7.4040    1.0950    0.0000 H   0  0  0  0  0  0  0  0  0  0  0  0
    6.8671    2.0250    0.0000 H   0  0  0  0  0  0  0  0  0  0  0  0
  1  6  1  0  0  0  0
  1 22  1  0  0  0  0
  2  8  1  0  0  0  0
  2 23  1  0  0  0  0
  3  9  1  0  0  0  0
  3 24  1  0  0  0  0
  4  5  1  0  0  0  0
  4  6  2  0  0  0  0
  4  7  1  0  0  0  0
  5  8  1  0  0  0  0
  5 12  2  0  0  0  0
  6 10  1  0  0  0  0
  7  9  2  0  0  0  0
  7 15  1  0  0  0  0
  8 16  1  0  0  0  0
  8 17  1  0  0  0  0
  9 11  1  0  0  0  0
 10 11  2  0  0  0  0
 10 18  1  0  0  0  0
 11 19  1  0  0  0  0
 12 13  1  0  0  0  0
 12 20  1  0  0  0  0
 13 14  2  0  0  0  0
 13 21  1  0  0  0  0
 14 25  1  0  0  0  0
 14 26  1  0  0  0  0
M  END
> <PUBCHEM_COMPOUND_CID>
10420098

> <PUBCHEM_COMPOUND_CANONICALIZED>
1

> <PUBCHEM_CACTVS_COMPLEXITY>
223

> <PUBCHEM_CACTVS_HBOND_ACCEPTOR>
3

> <PUBCHEM_CACTVS_HBOND_DONOR>
3

> <PUBCHEM_CACTVS_ROTATABLE_BOND>
3

> <PUBCHEM_CACTVS_SUBSKEYS>
AAADccBwMAAAAAAAAAAAAAAAAAAAAAAAAAAwAAAAAAAAAAABAAAAGgAACAAADASgmAIwBoAAAgCAAiBCAAACAAAgIAAIiAAGCIgINiKCERKAcAAkwBEImAfA4LQOAQABAAAIAAACAAIAABAAAAAAAAAAAA==

> <PUBCHEM_IUPAC_OPENEYE_NAME>
2-[(1E)-1-(hydroxymethyl)buta-1,3-dienyl]benzene-1,4-diol

> <PUBCHEM_IUPAC_CAS_NAME>
2-[(2E)-1-hydroxypenta-2,4-dien-2-yl]benzene-1,4-diol

> <PUBCHEM_IUPAC_NAME>
2-[(2E)-1-hydroxypenta-2,4-dien-2-yl]benzene-1,4-diol

> <PUBCHEM_IUPAC_SYSTEMATIC_NAME>
2-[(2E)-1-oxidanylpenta-2,4-dien-2-yl]benzene-1,4-diol

> <PUBCHEM_IUPAC_TRADITIONAL_NAME>
2-[(1E)-1-methylolbuta-1,3-dienyl]hydroquinone

> <PUBCHEM_IUPAC_INCHI>
InChI=1S/C11H12O3/c1-2-3-8(7-12)10-6-9(13)4-5-11(10)14/h2-6,12-14H,1,7H2/b8-3-

> <PUBCHEM_IUPAC_INCHIKEY>
ZUPUPHLFVHTOID-BAQGIRSFSA-N

> <PUBCHEM_XLOGP3_AA>
2

> <PUBCHEM_EXACT_MASS>
192.078644

> <PUBCHEM_MOLECULAR_FORMULA>
C11H12O3

> <PUBCHEM_MOLECULAR_WEIGHT>
192.21118

> <PUBCHEM_OPENEYE_CAN_SMILES>
C=CC=C(CO)C1=C(C=CC(=C1)O)O

> <PUBCHEM_OPENEYE_ISO_SMILES>
C=C/C=C(/CO)\C1=C(C=CC(=C1)O)O

> <PUBCHEM_CACTVS_TPSA>
60.7

> <PUBCHEM_MONOISOTOPIC_WEIGHT>
192.078644

> <PUBCHEM_TOTAL_CHARGE>
0

> <PUBCHEM_HEAVY_ATOM_COUNT>
14

> <PUBCHEM_ATOM_DEF_STEREO_COUNT>
0

> <PUBCHEM_ATOM_UDEF_STEREO_COUNT>
0

> <PUBCHEM_BOND_DEF_STEREO_COUNT>
1

> <PUBCHEM_BOND_UDEF_STEREO_COUNT>
0

> <PUBCHEM_ISOTOPIC_ATOM_COUNT>
0

> <PUBCHEM_COMPONENT_COUNT>
1

> <PUBCHEM_CACTVS_TAUTO_COUNT>
14

> <PUBCHEM_COORDINATE_TYPE>
1
5
255

> <PUBCHEM_BONDANNOTATIONS>
10  11  8
4  6  8
4  7  8
6  10  8
7  9  8
9  11  8

$$$$

