46174050
  -OEChem-07051213113D

 39 40  0     1  0  0  0  0  0999 V2000
    0.0222   -1.6195   -1.6787 O   0  0  0  0  0  0  0  0  0  0  0  0
    3.0729   -2.0481    1.1360 O   0  0  0  0  0  0  0  0  0  0  0  0
    1.9674    2.9142   -0.9968 O   0  0  0  0  0  0  0  0  0  0  0  0
    0.6640   -1.7639   -0.3908 C   0  0  2  0  0  0  0  0  0  0  0  0
   -1.6173   -1.7606   -0.0186 C   0  0  0  0  0  0  0  0  0  0  0  0
   -1.4058   -1.6389   -1.4829 C   0  0  0  0  0  0  0  0  0  0  0  0
   -2.9717   -1.7979    0.5843 C   0  0  0  0  0  0  0  0  0  0  0  0
   -0.4416   -1.8296    0.6044 C   0  0  0  0  0  0  0  0  0  0  0  0
    1.6302   -0.6287   -0.1485 C   0  0  0  0  0  0  0  0  0  0  0  0
   -3.7464   -0.5066    0.3215 C   0  0  0  0  0  0  0  0  0  0  0  0
    2.7879   -0.8266    0.6038 C   0  0  0  0  0  0  0  0  0  0  0  0
    1.3543    0.6284   -0.6863 C   0  0  0  0  0  0  0  0  0  0  0  0
   -3.0903    0.6666    0.9941 C   0  0  0  0  0  0  0  0  0  0  0  0
    2.2363    1.6876   -0.4719 C   0  0  0  0  0  0  0  0  0  0  0  0
    3.6698    0.2326    0.8185 C   0  0  0  0  0  0  0  0  0  0  0  0
   -2.6676    1.8116    0.4256 C   0  0  0  0  0  0  0  0  0  0  0  0
    3.3940    1.4896    0.2806 C   0  0  0  0  0  0  0  0  0  0  0  0
   -2.0166    2.9504    1.1581 C   0  0  0  0  0  0  0  0  0  0  0  0
   -2.8417    2.0394   -1.0523 C   0  0  0  0  0  0  0  0  0  0  0  0
    1.1991   -2.7197   -0.4249 H   0  0  0  0  0  0  0  0  0  0  0  0
   -1.8169   -2.4948   -2.0264 H   0  0  0  0  0  0  0  0  0  0  0  0
   -1.8158   -0.7153   -1.8979 H   0  0  0  0  0  0  0  0  0  0  0  0
   -3.5280   -2.6438    0.1623 H   0  0  0  0  0  0  0  0  0  0  0  0
   -2.9066   -1.9818    1.6645 H   0  0  0  0  0  0  0  0  0  0  0  0
   -0.3067   -1.9328    1.6714 H   0  0  0  0  0  0  0  0  0  0  0  0
   -3.8926   -0.3804   -0.7529 H   0  0  0  0  0  0  0  0  0  0  0  0
   -4.7513   -0.6138    0.7491 H   0  0  0  0  0  0  0  0  0  0  0  0
    0.4520    0.8012   -1.2665 H   0  0  0  0  0  0  0  0  0  0  0  0
   -2.9573    0.5633    2.0705 H   0  0  0  0  0  0  0  0  0  0  0  0
    4.5755    0.0927    1.4026 H   0  0  0  0  0  0  0  0  0  0  0  0
    4.0847    2.3109    0.4511 H   0  0  0  0  0  0  0  0  0  0  0  0
   -3.6399    1.4555   -1.5129 H   0  0  0  0  0  0  0  0  0  0  0  0
   -1.9039    1.8342   -1.5779 H   0  0  0  0  0  0  0  0  0  0  0  0
   -2.6234    3.8576    1.0746 H   0  0  0  0  0  0  0  0  0  0  0  0
   -1.8937    2.7264    2.2229 H   0  0  0  0  0  0  0  0  0  0  0  0
   -3.1041    3.0877   -1.2382 H   0  0  0  0  0  0  0  0  0  0  0  0
   -1.0239    3.1515    0.7425 H   0  0  0  0  0  0  0  0  0  0  0  0
    3.9126   -1.9938    1.6237 H   0  0  0  0  0  0  0  0  0  0  0  0
    1.1245    2.8732   -1.4805 H   0  0  0  0  0  0  0  0  0  0  0  0
  1  4  1  0  0  0  0
  1  6  1  0  0  0  0
  2 11  1  0  0  0  0
  2 38  1  0  0  0  0
  3 14  1  0  0  0  0
  3 39  1  0  0  0  0
  4  8  1  0  0  0  0
  4  9  1  0  0  0  0
  4 20  1  0  0  0  0
  5  6  1  0  0  0  0
  5  7  1  0  0  0  0
  5  8  2  0  0  0  0
  6 21  1  0  0  0  0
  6 22  1  0  0  0  0
  7 10  1  0  0  0  0
  7 23  1  0  0  0  0
  7 24  1  0  0  0  0
  8 25  1  0  0  0  0
  9 11  2  0  0  0  0
  9 12  1  0  0  0  0
 10 13  1  0  0  0  0
 10 26  1  0  0  0  0
 10 27  1  0  0  0  0
 11 15  1  0  0  0  0
 12 14  2  0  0  0  0
 12 28  1  0  0  0  0
 13 16  2  0  0  0  0
 13 29  1  0  0  0  0
 14 17  1  0  0  0  0
 15 17  2  0  0  0  0
 15 30  1  0  0  0  0
 16 18  1  0  0  0  0
 16 19  1  0  0  0  0
 17 31  1  0  0  0  0
 18 34  1  0  0  0  0
 18 35  1  0  0  0  0
 18 37  1  0  0  0  0
 19 32  1  0  0  0  0
 19 33  1  0  0  0  0
 19 36  1  0  0  0  0
M  END
> <PUBCHEM_COMPOUND_CID>
46174050

> <PUBCHEM_CONFORMER_RMSD>
0.6

> <PUBCHEM_CONFORMER_DIVERSEORDER>
1
186
256
141
326
5
213
104
136
151
257
123
325
289
204
142
349
193
208
54
81
127
112
170
99
114
173
134
237
168
217
231
65
28
143
125
16
197
166
36
316
163
353
177
299
43
45
126
176
181
304
302
322
338
120
240
116
184
196
49
308
18
271
242
341
235
77
178
180
87
108
314
95
29
150
330
155
131
203
310
128
47
70
172
32
298
117
200
139
357
223
275
207
60
286
31
133
339
73
320
72
288
76
58
273
17
312
171
355
38
113
83
146
354
174
57
278
202
159
145
293
86
307
332
190
161
103
317
280
216
210
42
199
340
296
107
211
284
14
248
132
233
25
313
148
67
26
153
101
129
144
227
8
324
276
160
331
333
82
30
342
55
79
251
68
56
110
335
147
236
121
183
277
135
290
230
64
346
156
50
21
244
2
246
212
228
352
309
243
283
48
287
182
226
140
238
194
219
98
241
329
52
214
111
53
305
272
291
84
7
285
187
59
3
252
119
11
118
344
185
41
215
63
191
347
220
100
158
260
62
301
265
175
93
258
71
348
24
88
109
165
10
124
321
149
343
295
300
189
90
44
319
195
294
218
13
249
303
336
9
318
337
328
167
239
259
20
306
179
268
323
334
192
91
102
69
253
80
33
225
154
23
169
274
350
279
96
221
311
115
234
89
250
12
85
61
75
262
263
27
6
232
327
152
229
94
351
46
261
92
122
282
19
270
37
4
34
345
254
35
255
315
206
78
245
39
267
198
15
157
224
137
74
106
138
247
222
188
97
164
130
66
205
292
40
297
264
51
266
281
105
22
162
356
269
209
201

> <PUBCHEM_MMFF94_PARTIAL_CHARGES>
26
1 -0.56
10 0.14
11 0.08
12 -0.15
13 -0.29
14 0.08
15 -0.15
16 -0.28
17 -0.15
18 0.14
19 0.14
2 -0.53
25 0.15
28 0.15
29 0.15
3 -0.53
30 0.15
31 0.15
38 0.45
39 0.45
4 0.56
5 -0.28
6 0.42
7 0.14
8 -0.29
9 -0.14

> <PUBCHEM_EFFECTIVE_ROTOR_COUNT>
4.6

> <PUBCHEM_PHARMACOPHORE_FEATURES>
6
1 1 acceptor
1 2 donor
1 3 donor
3 16 18 19 hydrophobe
5 1 4 5 6 8 rings
6 9 11 12 14 15 17 rings

> <PUBCHEM_HEAVY_ATOM_COUNT>
19

> <PUBCHEM_ATOM_DEF_STEREO_COUNT>
0

> <PUBCHEM_ATOM_UDEF_STEREO_COUNT>
1

> <PUBCHEM_BOND_DEF_STEREO_COUNT>
0

> <PUBCHEM_BOND_UDEF_STEREO_COUNT>
0

> <PUBCHEM_ISOTOPIC_ATOM_COUNT>
0

> <PUBCHEM_COMPONENT_COUNT>
1

> <PUBCHEM_CACTVS_TAUTO_COUNT>
7

> <PUBCHEM_CONFORMER_ID>
02C08F6200000001

> <PUBCHEM_MMFF94_ENERGY>
33.6223

> <PUBCHEM_FEATURE_SELFOVERLAP>
30.446

> <PUBCHEM_SHAPE_FINGERPRINT>
10759866 29 18271797982933709756
11221954 11 18117828013993051905
11370993 70 18121787385356176009
11759241 127 18113617885476317455
12077114 3 18342744060814888541
12633257 1 18054785345719179297
13140716 1 18268724972746376138
14251757 17 17609450048231768996
14787075 74 17624692358879338299
14790565 3 18272084947606644524
15442244 35 18340490062125952882
17492 89 18412261740054583283
17859628 37 18195526132387402756
18981168 100 18041262361887923935
192875 21 18337405927767749861
20621476 13 16683444949969590169
20715895 44 18197785599604564805
20739085 24 17988651757792870488
21524375 3 18260544502782266231
22094290 62 18338517555234452250
22749437 52 18263082278756371897
23419403 2 15301438024393499515
3524813 1 17751078007460584873
44154327 71 18337373956157896385
5939293 188 17327453030920032481
7097593 13 18201161047923414338
9925002 15 16233369181207990679

> <PUBCHEM_SHAPE_MULTIPOLES>
373.4
6.58
3.35
1.28
0.74
1.52
-0.25
1.72
1.77
-0.94
-0.09
-0.19
-0.04
-0.77

> <PUBCHEM_SHAPE_SELFOVERLAP>
780.98

> <PUBCHEM_SHAPE_VOLUME>
213.4

> <PUBCHEM_COORDINATE_TYPE>
2
5
10

$$$$

