440410
  -OEChem-07051212493D

 16 16  0     1  0  0  0  0  0999 V2000
   -0.7828   -0.9158   -1.9224 Cl  0  0  0  0  0  0  0  0  0  0  0  0
    3.6482   -0.8950    0.5975 Cl  0  0  0  0  0  0  0  0  0  0  0  0
    0.2819    0.8670   -0.3147 O   0  0  0  0  0  0  0  0  0  0  0  0
   -3.6341   -0.3956    0.8482 O   0  0  0  0  0  0  0  0  0  0  0  0
    2.3047    1.8982    0.0621 O   0  0  0  0  0  0  0  0  0  0  0  0
   -2.5122    1.2320   -0.2801 O   0  0  0  0  0  0  0  0  0  0  0  0
   -0.1893   -0.4903   -0.3016 C   0  0  1  0  0  0  0  0  0  0  0  0
   -1.3021   -0.6287    0.7269 C   0  0  0  0  0  0  0  0  0  0  0  0
    1.0182   -1.2795    0.0328 C   0  0  0  0  0  0  0  0  0  0  0  0
    2.0631   -0.4798    0.2031 C   0  0  0  0  0  0  0  0  0  0  0  0
    1.6155    0.8963   -0.0119 C   0  0  0  0  0  0  0  0  0  0  0  0
   -2.5111    0.1913    0.3600 C   0  0  0  0  0  0  0  0  0  0  0  0
   -1.5989   -1.6815    0.8161 H   0  0  0  0  0  0  0  0  0  0  0  0
   -0.9730   -0.2807    1.7139 H   0  0  0  0  0  0  0  0  0  0  0  0
    1.0400   -2.3561    0.1308 H   0  0  0  0  0  0  0  0  0  0  0  0
   -4.4407    0.1160    0.6249 H   0  0  0  0  0  0  0  0  0  0  0  0
  1  7  1  0  0  0  0
  2 10  1  0  0  0  0
  3  7  1  0  0  0  0
  3 11  1  0  0  0  0
  4 12  1  0  0  0  0
  4 16  1  0  0  0  0
  5 11  2  0  0  0  0
  6 12  2  0  0  0  0
  7  8  1  0  0  0  0
  7  9  1  0  0  0  0
  8 12  1  0  0  0  0
  8 13  1  0  0  0  0
  8 14  1  0  0  0  0
  9 10  2  0  0  0  0
  9 15  1  0  0  0  0
 10 11  1  0  0  0  0
M  END
> <PUBCHEM_COMPOUND_CID>
440410

> <PUBCHEM_CONFORMER_RMSD>
0.6

> <PUBCHEM_CONFORMER_DIVERSEORDER>
1
4
9
11
8
7
3
10
12
5
6
2

> <PUBCHEM_MMFF94_PARTIAL_CHARGES>
14
1 -0.29
10 0.15
11 0.71
12 0.66
15 0.15
16 0.5
2 -0.14
3 -0.43
4 -0.65
5 -0.57
6 -0.57
7 0.71
8 0.06
9 -0.29

> <PUBCHEM_EFFECTIVE_ROTOR_COUNT>
2.4

> <PUBCHEM_PHARMACOPHORE_FEATURES>
5
1 4 acceptor
1 5 acceptor
1 6 acceptor
3 4 6 12 anion
5 3 7 9 10 11 rings

> <PUBCHEM_HEAVY_ATOM_COUNT>
12

> <PUBCHEM_ATOM_DEF_STEREO_COUNT>
0

> <PUBCHEM_ATOM_UDEF_STEREO_COUNT>
1

> <PUBCHEM_BOND_DEF_STEREO_COUNT>
0

> <PUBCHEM_BOND_UDEF_STEREO_COUNT>
0

> <PUBCHEM_ISOTOPIC_ATOM_COUNT>
0

> <PUBCHEM_COMPONENT_COUNT>
1

> <PUBCHEM_CACTVS_TAUTO_COUNT>
1

> <PUBCHEM_CONFORMER_ID>
0006B85A00000001

> <PUBCHEM_MMFF94_ENERGY>
13.0842

> <PUBCHEM_FEATURE_SELFOVERLAP>
25.428

> <PUBCHEM_SHAPE_FINGERPRINT>
10219947 1 18114183098371062070
12032990 46 18267581489201459298
12251169 10 18411982459615516066
124424 183 18059582458799709634
12932764 1 18335417928739308557
14325111 11 18413105039649626385
14993402 34 17895483616998340454
15375462 478 18408323302235036689
15775835 57 18042117670186231265
16945 1 18335696195343839510
18186145 218 14129325308837725459
19973954 147 18339636845329271993
20281407 28 16272210816369285914
20871998 22 18193269917780392930
23402539 116 14707217659566424762
5084963 1 18259701211696763083

> <PUBCHEM_SHAPE_MULTIPOLES>
227.22
5.01
1.44
1.12
0.23
0.44
0.45
0.1
-1.74
-0.62
0.24
0.49
-0.41
-0.24

> <PUBCHEM_SHAPE_SELFOVERLAP>
456.63

> <PUBCHEM_SHAPE_VOLUME>
134.5

> <PUBCHEM_COORDINATE_TYPE>
2
5
10

$$$$

