442457
  -OEChem-07051212582D

 49 51  0     1  0  0  0  0  0999 V2000
    6.8671   -0.5746    0.0000 O   0  0  0  0  0  0  0  0  0  0  0  0
    6.8671   -3.5746    0.0000 O   0  0  0  0  0  0  0  0  0  0  0  0
    2.5369   -1.0746    0.0000 O   0  0  0  0  0  0  0  0  0  0  0  0
    2.5369    0.9254    0.0000 O   0  0  0  0  0  0  0  0  0  0  0  0
    8.6155   -3.6092    0.0000 O   0  0  0  0  0  0  0  0  0  0  0  0
   10.3972   -0.5505    0.0000 O   0  0  0  0  0  0  0  0  0  0  0  0
    6.0010   -1.0746    0.0000 C   0  0  1  0  0  0  0  0  0  0  0  0
    6.0010   -2.0746    0.0000 C   0  0  0  0  0  0  0  0  0  0  0  0
    5.1350   -0.5746    0.0000 C   0  0  0  0  0  0  0  0  0  0  0  0
    6.8671   -2.5746    0.0000 C   0  0  0  0  0  0  0  0  0  0  0  0
    7.7331   -2.0746    0.0000 C   0  0  0  0  0  0  0  0  0  0  0  0
    7.7331   -1.0746    0.0000 C   0  0  0  0  0  0  0  0  0  0  0  0
    5.1350    0.4254    0.0000 C   0  0  0  0  0  0  0  0  0  0  0  0
    4.2690    0.9254    0.0000 C   0  0  0  0  0  0  0  0  0  0  0  0
    4.2690   -1.0746    0.0000 C   0  0  0  0  0  0  0  0  0  0  0  0
    3.4030   -0.5746    0.0000 C   0  0  0  0  0  0  0  0  0  0  0  0
    3.4030    0.4254    0.0000 C   0  0  0  0  0  0  0  0  0  0  0  0
    4.2690    1.9254    0.0000 C   0  0  0  0  0  0  0  0  0  0  0  0
    8.6270   -2.6093    0.0000 C   0  0  0  0  0  0  0  0  0  0  0  0
    8.6270   -0.5399    0.0000 C   0  0  0  0  0  0  0  0  0  0  0  0
    9.5331   -1.0538    0.0000 C   0  0  0  0  0  0  0  0  0  0  0  0
    9.5331   -2.0954    0.0000 C   0  0  0  0  0  0  0  0  0  0  0  0
    5.1350    2.4254    0.0000 C   0  0  0  0  0  0  0  0  0  0  0  0
    5.1350    3.4254    0.0000 C   0  0  0  0  0  0  0  0  0  0  0  0
    6.0010    3.9254    0.0000 C   0  0  0  0  0  0  0  0  0  0  0  0
    4.2690    3.9254    0.0000 C   0  0  0  0  0  0  0  0  0  0  0  0
    2.5369   -2.0746    0.0000 C   0  0  0  0  0  0  0  0  0  0  0  0
    5.4641   -1.3846    0.0000 H   0  0  0  0  0  0  0  0  0  0  0  0
    5.3905   -1.9670    0.0000 H   0  0  0  0  0  0  0  0  0  0  0  0
    5.7890   -2.6572    0.0000 H   0  0  0  0  0  0  0  0  0  0  0  0
    5.6720    0.7354    0.0000 H   0  0  0  0  0  0  0  0  0  0  0  0
    4.2690   -1.6946    0.0000 H   0  0  0  0  0  0  0  0  0  0  0  0
    4.0569    2.5080    0.0000 H   0  0  0  0  0  0  0  0  0  0  0  0
    3.6584    1.8177    0.0000 H   0  0  0  0  0  0  0  0  0  0  0  0
    8.6199    0.0800    0.0000 H   0  0  0  0  0  0  0  0  0  0  0  0
   10.0688   -2.4075    0.0000 H   0  0  0  0  0  0  0  0  0  0  0  0
    5.6720    2.1154    0.0000 H   0  0  0  0  0  0  0  0  0  0  0  0
    2.0000    0.6154    0.0000 H   0  0  0  0  0  0  0  0  0  0  0  0
    9.1488   -3.9254    0.0000 H   0  0  0  0  0  0  0  0  0  0  0  0
    6.3110    3.3885    0.0000 H   0  0  0  0  0  0  0  0  0  0  0  0
    6.5380    4.2354    0.0000 H   0  0  0  0  0  0  0  0  0  0  0  0
    5.6910    4.4623    0.0000 H   0  0  0  0  0  0  0  0  0  0  0  0
    4.5790    4.4623    0.0000 H   0  0  0  0  0  0  0  0  0  0  0  0
    3.7320    4.2354    0.0000 H   0  0  0  0  0  0  0  0  0  0  0  0
    3.9590    3.3885    0.0000 H   0  0  0  0  0  0  0  0  0  0  0  0
    1.9169   -2.0746    0.0000 H   0  0  0  0  0  0  0  0  0  0  0  0
    2.5369   -2.6946    0.0000 H   0  0  0  0  0  0  0  0  0  0  0  0
    3.1569   -2.0746    0.0000 H   0  0  0  0  0  0  0  0  0  0  0  0
   10.9353   -0.8584    0.0000 H   0  0  0  0  0  0  0  0  0  0  0  0
  1  7  1  0  0  0  0
  1 12  1  0  0  0  0
  2 10  2  0  0  0  0
  3 16  1  0  0  0  0
  3 27  1  0  0  0  0
  4 17  1  0  0  0  0
  4 38  1  0  0  0  0
  5 19  1  0  0  0  0
  5 39  1  0  0  0  0
  6 21  1  0  0  0  0
  6 49  1  0  0  0  0
  7  8  1  0  0  0  0
  7  9  1  1  0  0  0
  7 28  1  0  0  0  0
  8 10  1  0  0  0  0
  8 29  1  0  0  0  0
  8 30  1  0  0  0  0
  9 13  2  0  0  0  0
  9 15  1  0  0  0  0
 10 11  1  0  0  0  0
 11 12  1  0  0  0  0
 11 19  2  0  0  0  0
 12 20  2  0  0  0  0
 13 14  1  0  0  0  0
 13 31  1  0  0  0  0
 14 17  2  0  0  0  0
 14 18  1  0  0  0  0
 15 16  2  0  0  0  0
 15 32  1  0  0  0  0
 16 17  1  0  0  0  0
 18 23  1  0  0  0  0
 18 33  1  0  0  0  0
 18 34  1  0  0  0  0
 19 22  1  0  0  0  0
 20 21  1  0  0  0  0
 20 35  1  0  0  0  0
 21 22  2  0  0  0  0
 22 36  1  0  0  0  0
 23 24  2  0  0  0  0
 23 37  1  0  0  0  0
 24 25  1  0  0  0  0
 24 26  1  0  0  0  0
 25 40  1  0  0  0  0
 25 41  1  0  0  0  0
 25 42  1  0  0  0  0
 26 43  1  0  0  0  0
 26 44  1  0  0  0  0
 26 45  1  0  0  0  0
 27 46  1  0  0  0  0
 27 47  1  0  0  0  0
 27 48  1  0  0  0  0
M  END
> <PUBCHEM_COMPOUND_CID>
442457

> <PUBCHEM_COMPOUND_CANONICALIZED>
1

> <PUBCHEM_CACTVS_COMPLEXITY>
557

> <PUBCHEM_CACTVS_HBOND_ACCEPTOR>
6

> <PUBCHEM_CACTVS_HBOND_DONOR>
3

> <PUBCHEM_CACTVS_ROTATABLE_BOND>
4

> <PUBCHEM_CACTVS_SUBSKEYS>
AAADceB4OAAAAAAAAAAAAAAAAAAAAAAAAAA0YIAAAAAAAACRQAAAGgAACAAADBSgmAIyBoAABgCIAqBSAAACCAAkIAAAiAEGiMgNJzaGNRqCeWOl4BULuQfI7PzOIAADCAAIQABAAAYQABCAAAAAAAAAAA==

> <PUBCHEM_IUPAC_OPENEYE_NAME>
(2S)-5,7-dihydroxy-2-[4-hydroxy-3-methoxy-5-(3-methylbut-2-enyl)phenyl]chroman-4-one

> <PUBCHEM_IUPAC_CAS_NAME>
(2S)-5,7-dihydroxy-2-[4-hydroxy-3-methoxy-5-(3-methylbut-2-enyl)phenyl]-3,4-dihydro-2H-1-benzopyran-4-one

> <PUBCHEM_IUPAC_NAME>
(2S)-5,7-dihydroxy-2-[4-hydroxy-3-methoxy-5-(3-methylbut-2-enyl)phenyl]-2,3-dihydrochromen-4-one

> <PUBCHEM_IUPAC_SYSTEMATIC_NAME>
(2S)-2-[3-methoxy-5-(3-methylbut-2-enyl)-4-oxidanyl-phenyl]-5,7-bis(oxidanyl)-2,3-dihydrochromen-4-one

> <PUBCHEM_IUPAC_TRADITIONAL_NAME>
(2S)-5,7-dihydroxy-2-[4-hydroxy-3-methoxy-5-(3-methylbut-2-enyl)phenyl]chroman-4-one

> <PUBCHEM_IUPAC_INCHI>
InChI=1S/C21H22O6/c1-11(2)4-5-12-6-13(7-19(26-3)21(12)25)17-10-16(24)20-15(23)8-14(22)9-18(20)27-17/h4,6-9,17,22-23,25H,5,10H2,1-3H3/t17-/m0/s1

> <PUBCHEM_IUPAC_INCHIKEY>
UQFQODVSORPELA-KRWDZBQOSA-N

> <PUBCHEM_XLOGP3_AA>
4.3

> <PUBCHEM_EXACT_MASS>
370.141638

> <PUBCHEM_MOLECULAR_FORMULA>
C21H22O6

> <PUBCHEM_MOLECULAR_WEIGHT>
370.39578

> <PUBCHEM_OPENEYE_CAN_SMILES>
CC(=CCC1=C(C(=CC(=C1)C2CC(=O)C3=C(C=C(C=C3O2)O)O)OC)O)C

> <PUBCHEM_OPENEYE_ISO_SMILES>
CC(=CCC1=C(C(=CC(=C1)[C@@H]2CC(=O)C3=C(C=C(C=C3O2)O)O)OC)O)C

> <PUBCHEM_CACTVS_TPSA>
96.2

> <PUBCHEM_MONOISOTOPIC_WEIGHT>
370.141638

> <PUBCHEM_TOTAL_CHARGE>
0

> <PUBCHEM_HEAVY_ATOM_COUNT>
27

> <PUBCHEM_ATOM_DEF_STEREO_COUNT>
1

> <PUBCHEM_ATOM_UDEF_STEREO_COUNT>
0

> <PUBCHEM_BOND_DEF_STEREO_COUNT>
0

> <PUBCHEM_BOND_UDEF_STEREO_COUNT>
0

> <PUBCHEM_ISOTOPIC_ATOM_COUNT>
0

> <PUBCHEM_COMPONENT_COUNT>
1

> <PUBCHEM_CACTVS_TAUTO_COUNT>
63

> <PUBCHEM_COORDINATE_TYPE>
1
5
255

> <PUBCHEM_BONDANNOTATIONS>
11  12  8
11  19  8
12  20  8
13  14  8
14  17  8
15  16  8
16  17  8
19  22  8
20  21  8
21  22  8
7  9  5
9  13  8
9  15  8

$$$$

