11736
  -OEChem-06261206032D

  6  5  0     0  0  0  0  0  0999 V2000
    2.0000    0.2500    0.0000 Cl  0  0  0  0  0  0  0  0  0  0  0  0
    4.5981   -0.2500    0.0000 Cl  0  0  0  0  0  0  0  0  0  0  0  0
    2.8660   -1.2500    0.0000 F   0  0  0  0  0  0  0  0  0  0  0  0
    3.7320    1.2500    0.0000 F   0  0  0  0  0  0  0  0  0  0  0  0
    2.8660   -0.2500    0.0000 C   0  0  0  0  0  0  0  0  0  0  0  0
    3.7320    0.2500    0.0000 C   0  0  0  0  0  0  0  0  0  0  0  0
  1  5  1  0  0  0  0
  2  6  1  0  0  0  0
  3  5  1  0  0  0  0
  4  6  1  0  0  0  0
  5  6  2  3  0  0  0
M  END
> <PUBCHEM_COMPOUND_CID>
11736

> <PUBCHEM_COMPOUND_CANONICALIZED>
1

> <PUBCHEM_CACTVS_COMPLEXITY>
67.6

> <PUBCHEM_CACTVS_HBOND_ACCEPTOR>
2

> <PUBCHEM_CACTVS_HBOND_DONOR>
0

> <PUBCHEM_CACTVS_ROTATABLE_BOND>
0

> <PUBCHEM_CACTVS_SUBSKEYS>
AAADcQBAAYAGAAAAAAAAAAAAAAAAAAAAAAAAAAAAAAAAAAAAAAAACQIAAAAAAAIAAAAAAAAAAACAAAAAAAAAAAAAAAAAAAAAAAAAAAAAAAAAAAAAAAAAAAAAAAAAAAAAAAAAAAAAAAAAAAAAAAAAAAAAAA==

> <PUBCHEM_IUPAC_OPENEYE_NAME>
1,2-dichloro-1,2-difluoro-ethylene

> <PUBCHEM_IUPAC_CAS_NAME>
1,2-dichloro-1,2-difluoroethene

> <PUBCHEM_IUPAC_NAME>
1,2-dichloro-1,2-difluoroethene

> <PUBCHEM_IUPAC_SYSTEMATIC_NAME>
1,2-bis(chloranyl)-1,2-bis(fluoranyl)ethene

> <PUBCHEM_IUPAC_TRADITIONAL_NAME>
1,2-dichloro-1,2-difluoro-ethylene

> <PUBCHEM_IUPAC_INCHI>
InChI=1S/C2Cl2F2/c3-1(5)2(4)6

> <PUBCHEM_IUPAC_INCHIKEY>
UPVJEODAZWTJKZ-UHFFFAOYSA-N

> <PUBCHEM_XLOGP3_AA>
2.4

> <PUBCHEM_EXACT_MASS>
131.934512

> <PUBCHEM_MOLECULAR_FORMULA>
C2Cl2F2

> <PUBCHEM_MOLECULAR_WEIGHT>
132.924206

> <PUBCHEM_OPENEYE_CAN_SMILES>
C(=C(F)Cl)(F)Cl

> <PUBCHEM_OPENEYE_ISO_SMILES>
C(=C(F)Cl)(F)Cl

> <PUBCHEM_CACTVS_TPSA>
0

> <PUBCHEM_MONOISOTOPIC_WEIGHT>
131.934512

> <PUBCHEM_TOTAL_CHARGE>
0

> <PUBCHEM_HEAVY_ATOM_COUNT>
6

> <PUBCHEM_ATOM_DEF_STEREO_COUNT>
0

> <PUBCHEM_ATOM_UDEF_STEREO_COUNT>
0

> <PUBCHEM_BOND_DEF_STEREO_COUNT>
0

> <PUBCHEM_BOND_UDEF_STEREO_COUNT>
1

> <PUBCHEM_ISOTOPIC_ATOM_COUNT>
0

> <PUBCHEM_COMPONENT_COUNT>
1

> <PUBCHEM_CACTVS_TAUTO_COUNT>
1

> <PUBCHEM_COORDINATE_TYPE>
1
5
255

> <PUBCHEM_BONDANNOTATIONS>
5  6  1

$$$$

