17395820
  -OEChem-06241222523D

 40 41  0     1  0  0  0  0  0999 V2000
    6.4576   -1.3865   -0.4691 Cl  0  0  0  0  0  0  0  0  0  0  0  0
   -0.1582   -0.4953   -1.3336 O   0  0  0  0  0  0  0  0  0  0  0  0
   -0.9813   -0.8147    0.8124 N   0  0  0  0  0  0  0  0  0  0  0  0
   -5.7110    0.3030   -0.4423 N   0  0  0  0  0  0  0  0  0  0  0  0
    0.8848    0.7125    0.4999 C   0  0  2  0  0  0  0  0  0  0  0  0
    0.6635    2.1627   -0.0214 C   0  0  0  0  0  0  0  0  0  0  0  0
    2.2918    0.1841    0.2552 C   0  0  0  0  0  0  0  0  0  0  0  0
   -0.1196   -0.2655   -0.1262 C   0  0  0  0  0  0  0  0  0  0  0  0
   -0.7661    2.6565    0.2437 C   0  0  0  0  0  0  0  0  0  0  0  0
    1.6429    3.1422    0.6434 C   0  0  0  0  0  0  0  0  0  0  0  0
    2.8856   -0.6725    1.1822 C   0  0  0  0  0  0  0  0  0  0  0  0
    2.9865    0.5558   -0.8959 C   0  0  0  0  0  0  0  0  0  0  0  0
   -2.0364   -1.7345    0.4567 C   0  0  0  0  0  0  0  0  0  0  0  0
    4.1740   -1.1574    0.9583 C   0  0  0  0  0  0  0  0  0  0  0  0
    4.2751    0.0708   -1.1199 C   0  0  0  0  0  0  0  0  0  0  0  0
   -3.3204   -1.0224    0.1426 C   0  0  0  0  0  0  0  0  0  0  0  0
    4.8689   -0.7857   -0.1927 C   0  0  0  0  0  0  0  0  0  0  0  0
   -3.5930   -0.6164   -1.1591 C   0  0  0  0  0  0  0  0  0  0  0  0
   -4.2416   -0.7666    1.1521 C   0  0  0  0  0  0  0  0  0  0  0  0
   -4.7916    0.0367   -1.3971 C   0  0  0  0  0  0  0  0  0  0  0  0
   -5.4113   -0.1067    0.8107 C   0  0  0  0  0  0  0  0  0  0  0  0
    0.7304    0.7407    1.5879 H   0  0  0  0  0  0  0  0  0  0  0  0
    0.8000    2.2114   -1.1079 H   0  0  0  0  0  0  0  0  0  0  0  0
   -1.0087    2.6125    1.3109 H   0  0  0  0  0  0  0  0  0  0  0  0
   -1.5023    2.0543   -0.2978 H   0  0  0  0  0  0  0  0  0  0  0  0
   -0.8889    3.6931   -0.0887 H   0  0  0  0  0  0  0  0  0  0  0  0
    1.5399    3.1222    1.7340 H   0  0  0  0  0  0  0  0  0  0  0  0
    2.6861    2.9265    0.3992 H   0  0  0  0  0  0  0  0  0  0  0  0
    1.4460    4.1673    0.3102 H   0  0  0  0  0  0  0  0  0  0  0  0
   -0.8974   -0.5520    1.7896 H   0  0  0  0  0  0  0  0  0  0  0  0
    2.3540   -0.9714    2.0818 H   0  0  0  0  0  0  0  0  0  0  0  0
    2.5534    1.1979   -1.6549 H   0  0  0  0  0  0  0  0  0  0  0  0
   -1.7191   -2.3437   -0.3980 H   0  0  0  0  0  0  0  0  0  0  0  0
   -2.1741   -2.4196    1.3010 H   0  0  0  0  0  0  0  0  0  0  0  0
    4.6238   -1.8249    1.6889 H   0  0  0  0  0  0  0  0  0  0  0  0
    4.8028    0.3637   -2.0240 H   0  0  0  0  0  0  0  0  0  0  0  0
   -2.9000   -0.8012   -1.9723 H   0  0  0  0  0  0  0  0  0  0  0  0
   -4.0604   -1.0676    2.1782 H   0  0  0  0  0  0  0  0  0  0  0  0
   -5.0521    0.3731   -2.3953 H   0  0  0  0  0  0  0  0  0  0  0  0
   -6.1618    0.1176    1.5615 H   0  0  0  0  0  0  0  0  0  0  0  0
  1 17  1  0  0  0  0
  2  8  2  0  0  0  0
  3  8  1  0  0  0  0
  3 13  1  0  0  0  0
  3 30  1  0  0  0  0
  4 20  2  0  0  0  0
  4 21  1  0  0  0  0
  5  6  1  0  0  0  0
  5  7  1  0  0  0  0
  5  8  1  0  0  0  0
  5 22  1  0  0  0  0
  6  9  1  0  0  0  0
  6 10  1  0  0  0  0
  6 23  1  0  0  0  0
  7 11  2  0  0  0  0
  7 12  1  0  0  0  0
  9 24  1  0  0  0  0
  9 25  1  0  0  0  0
  9 26  1  0  0  0  0
 10 27  1  0  0  0  0
 10 28  1  0  0  0  0
 10 29  1  0  0  0  0
 11 14  1  0  0  0  0
 11 31  1  0  0  0  0
 12 15  2  0  0  0  0
 12 32  1  0  0  0  0
 13 16  1  0  0  0  0
 13 33  1  0  0  0  0
 13 34  1  0  0  0  0
 14 17  2  0  0  0  0
 14 35  1  0  0  0  0
 15 17  1  0  0  0  0
 15 36  1  0  0  0  0
 16 18  2  0  0  0  0
 16 19  1  0  0  0  0
 18 20  1  0  0  0  0
 18 37  1  0  0  0  0
 19 21  2  0  0  0  0
 19 38  1  0  0  0  0
 20 39  1  0  0  0  0
 21 40  1  0  0  0  0
M  END
> <PUBCHEM_COMPOUND_CID>
17395820

> <PUBCHEM_CONFORMER_RMSD>
0.8

> <PUBCHEM_CONFORMER_DIVERSEORDER>
1
50
11
31
53
36
41
35
59
16
39
58
46
12
42
49
55
28
34
30
38
63
43
7
57
32
56
37
5
27
62
3
54
23
14
60
40
44
47
33
24
29
26
61
52
45
17
4
2
13
10
51
25
18
21
15
9
48
6
22
20
19
8

> <PUBCHEM_MMFF94_PARTIAL_CHARGES>
27
1 -0.18
11 -0.15
12 -0.15
13 0.44
14 -0.15
15 -0.15
16 -0.14
17 0.18
18 -0.15
19 -0.15
2 -0.57
20 0.16
21 0.16
3 -0.73
30 0.37
31 0.15
32 0.15
35 0.15
36 0.15
37 0.15
38 0.15
39 0.15
4 -0.62
40 0.15
5 0.2
7 -0.14
8 0.57

> <PUBCHEM_EFFECTIVE_ROTOR_COUNT>
6

> <PUBCHEM_PHARMACOPHORE_FEATURES>
6
1 2 acceptor
1 3 donor
1 4 acceptor
3 6 9 10 hydrophobe
6 4 16 18 19 20 21 rings
6 7 11 12 14 15 17 rings

> <PUBCHEM_HEAVY_ATOM_COUNT>
21

> <PUBCHEM_ATOM_DEF_STEREO_COUNT>
0

> <PUBCHEM_ATOM_UDEF_STEREO_COUNT>
1

> <PUBCHEM_BOND_DEF_STEREO_COUNT>
0

> <PUBCHEM_BOND_UDEF_STEREO_COUNT>
0

> <PUBCHEM_ISOTOPIC_ATOM_COUNT>
0

> <PUBCHEM_COMPONENT_COUNT>
1

> <PUBCHEM_CACTVS_TAUTO_COUNT>
2

> <PUBCHEM_CONFORMER_ID>
0109706C00000001

> <PUBCHEM_MMFF94_ENERGY>
49.1972

> <PUBCHEM_FEATURE_SELFOVERLAP>
30.446

> <PUBCHEM_SHAPE_FINGERPRINT>
10366900 7 17346607331557301483
11265709 11 18409447003461781576
12166972 35 17894916179315745945
12403259 118 5833993840820078650
12516196 113 18408042901205943466
12553582 1 18411425011763159810
12596602 18 14201400499684271654
12633257 1 18335137570971111687
12760667 363 18336828701427718334
12788726 201 18270122443229408954
128620 24 10591770882808675851
13134695 92 18261674766344415057
13590594 115 18408036329595589081
14251752 14 17704076226404526098
14347329 18 16772135702994214573
146900 427 10519988166466663375
14848160 23 14779268609485319375
15042514 8 18192427700510859048
15099037 51 18410856547066481383
15183329 4 17988926703527546375
15188451 53 16371304242067544183
15788980 27 17095240298523917443
15848700 24 18187087251895592156
16752209 62 18341058513642109184
17349148 13 17676196945209419059
17492 89 17973449797804624503
17834072 8 18272654554025911167
17844677 252 17060049350628918799
17980427 23 17313372422985013249
18006028 8 18334575763610710254
1813 80 18113610197147273308
18186145 218 18340209575144402251
18222031 100 18113902658602568172
18643901 69 17822559630174895390
192875 21 17821725005864176065
19489759 90 16008748026592497547
19784866 140 18272369806447625362
200 152 18131349726608634546
20832881 197 18343867731538837514
21033648 29 17702962357107404709
21236236 1 18262796388384566761
22079108 93 11239991239923797854
221357 26 18343310253943606165
22224240 67 16081095883706433310
23175994 123 18412262830996413709
23402539 116 18186802495901315051
23536379 177 16272211907385950378
23557571 272 18187924045259559352
23559900 14 18339927013435652640
23622692 88 6771860775950613154
3004659 81 17988924483683757450
314173 85 18333734628398758450
34934 24 18191305975375401692
351380 180 4678819445398556139
4325135 7 6555405414668453603
465052 167 18335412439766193398
5104073 3 18115864101737598683
8863177 126 17986378998074791883
9841814 1 18341062830590995040
9971528 1 18040722437264849312

> <PUBCHEM_SHAPE_MULTIPOLES>
418.21
13.18
2.22
1.24
1.55
2.33
0.15
-6.21
1.79
-1.02
-0.5
0.39
-0.17
0.2

> <PUBCHEM_SHAPE_SELFOVERLAP>
866.576

> <PUBCHEM_SHAPE_VOLUME>
239.3

> <PUBCHEM_COORDINATE_TYPE>
2
5
10

$$$$

