7846984
  -OEChem-06241222483D

 43 45  0     1  0  0  0  0  0999 V2000
    4.6582    0.3481   -0.1895 S   0  0  0  0  0  0  0  0  0  0  0  0
   -4.4361   -1.6816    0.6727 F   0  0  0  0  0  0  0  0  0  0  0  0
   -5.9053    0.5940    0.9660 F   0  0  0  0  0  0  0  0  0  0  0  0
   -4.8553    3.0103    0.2347 F   0  0  0  0  0  0  0  0  0  0  0  0
    1.3139   -3.1890   -0.6051 O   0  0  0  0  0  0  0  0  0  0  0  0
    0.9604   -2.1674    1.4329 O   0  0  0  0  0  0  0  0  0  0  0  0
    0.1606   -0.7933   -1.2473 O   0  0  0  0  0  0  0  0  0  0  0  0
    2.5166    0.4420    1.2448 N   0  0  0  0  0  0  0  0  0  0  0  0
   -1.8632   -1.5944   -0.3673 N   0  0  0  0  0  0  0  0  0  0  0  0
    3.8291   -1.6302    1.5359 C   0  0  0  0  0  0  0  0  0  0  0  0
    3.2039   -2.7734    0.7152 C   0  0  0  0  0  0  0  0  0  0  0  0
    3.5593   -0.2989    0.9504 C   0  0  0  0  0  0  0  0  0  0  0  0
   -0.0924   -3.1542   -0.8685 C   0  0  1  0  0  0  0  0  0  0  0  0
    3.6735    1.7572   -0.3239 C   0  0  0  0  0  0  0  0  0  0  0  0
    2.5680    1.6247    0.5218 C   0  0  0  0  0  0  0  0  0  0  0  0
    1.7016   -2.6573    0.5921 C   0  0  0  0  0  0  0  0  0  0  0  0
   -0.5679   -1.7036   -0.8627 C   0  0  0  0  0  0  0  0  0  0  0  0
   -0.3712   -3.8311   -2.2024 C   0  0  0  0  0  0  0  0  0  0  0  0
    3.8655    2.8975   -1.1204 C   0  0  0  0  0  0  0  0  0  0  0  0
    1.6227    2.6722    0.5700 C   0  0  0  0  0  0  0  0  0  0  0  0
   -2.6316   -0.4160   -0.2125 C   0  0  0  0  0  0  0  0  0  0  0  0
    2.9152    3.9195   -1.0537 C   0  0  0  0  0  0  0  0  0  0  0  0
    1.8076    3.8103   -0.2202 C   0  0  0  0  0  0  0  0  0  0  0  0
   -3.9112   -0.5025    0.3102 C   0  0  0  0  0  0  0  0  0  0  0  0
   -2.0852    0.8000   -0.5878 C   0  0  0  0  0  0  0  0  0  0  0  0
   -4.6663    0.6607    0.4619 C   0  0  0  0  0  0  0  0  0  0  0  0
   -2.8400    1.9630   -0.4362 C   0  0  0  0  0  0  0  0  0  0  0  0
   -4.1304    1.8934    0.0888 C   0  0  0  0  0  0  0  0  0  0  0  0
    3.4226   -1.6554    2.5551 H   0  0  0  0  0  0  0  0  0  0  0  0
    4.9069   -1.8081    1.6343 H   0  0  0  0  0  0  0  0  0  0  0  0
    3.4278   -3.7365    1.1864 H   0  0  0  0  0  0  0  0  0  0  0  0
    3.6451   -2.7762   -0.2891 H   0  0  0  0  0  0  0  0  0  0  0  0
   -0.5971   -3.7253   -0.0787 H   0  0  0  0  0  0  0  0  0  0  0  0
   -0.0023   -4.8620   -2.1950 H   0  0  0  0  0  0  0  0  0  0  0  0
   -1.4416   -3.8380   -2.4296 H   0  0  0  0  0  0  0  0  0  0  0  0
    0.1474   -3.3125   -3.0167 H   0  0  0  0  0  0  0  0  0  0  0  0
   -2.3337   -2.4504   -0.0815 H   0  0  0  0  0  0  0  0  0  0  0  0
    4.7278    2.9895   -1.7735 H   0  0  0  0  0  0  0  0  0  0  0  0
    0.7529    2.5965    1.2164 H   0  0  0  0  0  0  0  0  0  0  0  0
    3.0448    4.8106   -1.6623 H   0  0  0  0  0  0  0  0  0  0  0  0
    1.0782    4.6147   -0.1820 H   0  0  0  0  0  0  0  0  0  0  0  0
   -1.0976    0.9377   -1.0021 H   0  0  0  0  0  0  0  0  0  0  0  0
   -2.4242    2.9236   -0.7260 H   0  0  0  0  0  0  0  0  0  0  0  0
  1 12  1  0  0  0  0
  1 14  1  0  0  0  0
  2 24  1  0  0  0  0
  3 26  1  0  0  0  0
  4 28  1  0  0  0  0
  5 13  1  0  0  0  0
  5 16  1  0  0  0  0
  6 16  2  0  0  0  0
  7 17  2  0  0  0  0
  8 12  2  0  0  0  0
  8 15  1  0  0  0  0
  9 17  1  0  0  0  0
  9 21  1  0  0  0  0
  9 37  1  0  0  0  0
 10 11  1  0  0  0  0
 10 12  1  0  0  0  0
 10 29  1  0  0  0  0
 10 30  1  0  0  0  0
 11 16  1  0  0  0  0
 11 31  1  0  0  0  0
 11 32  1  0  0  0  0
 13 17  1  0  0  0  0
 13 18  1  0  0  0  0
 13 33  1  0  0  0  0
 14 15  1  0  0  0  0
 14 19  2  0  0  0  0
 15 20  2  0  0  0  0
 18 34  1  0  0  0  0
 18 35  1  0  0  0  0
 18 36  1  0  0  0  0
 19 22  1  0  0  0  0
 19 38  1  0  0  0  0
 20 23  1  0  0  0  0
 20 39  1  0  0  0  0
 21 24  2  0  0  0  0
 21 25  1  0  0  0  0
 22 23  2  0  0  0  0
 22 40  1  0  0  0  0
 23 41  1  0  0  0  0
 24 26  1  0  0  0  0
 25 27  2  0  0  0  0
 25 42  1  0  0  0  0
 26 28  2  0  0  0  0
 27 28  1  0  0  0  0
 27 43  1  0  0  0  0
M  END
> <PUBCHEM_COMPOUND_CID>
7846984

> <PUBCHEM_CONFORMER_RMSD>
1.2

> <PUBCHEM_CONFORMER_DIVERSEORDER>
1
28
24
169
231
206
82
203
252
31
60
114
25
118
239
55
207
183
216
133
72
4
37
170
98
241
158
141
69
139
91
47
58
7
15
222
264
23
105
17
13
261
173
192
166
257
148
80
9
74
42
39
250
97
99
251
86
197
258
199
254
101
162
247
243
149
161
164
104
242
198
107
174
64
146
246
262
11
196
210
26
96
63
155
188
144
22
75
225
253
40
70
157
147
255
150
236
182
79
53
143
84
181
14
29
95
19
134
226
106
78
153
223
190
124
36
175
108
142
88
167
230
191
76
185
16
240
172
234
194
102
85
127
59
208
212
152
201
34
109
57
113
180
18
159
227
89
111
205
61
128
232
49
12
126
209
129
165
71
112
263
38
233
2
119
77
54
103
20
215
68
27
193
132
117
219
50
195
168
135
200
30
110
5
214
123
43
122
67
81
62
121
245
259
202
125
221
100
73
90
136
248
33
178
156
6
137
44
87
48
204
171
228
213
151
176
52
145
218
116
131
138
46
32
211
10
93
235
94
3
41
187
238
244
45
249
220
130
186
120
229
65
21
177
115
217
179
160
8
184
256
56
189
92
140
66
163
51
224
83
35
260
154
237

> <PUBCHEM_MMFF94_PARTIAL_CHARGES>
34
1 -0.08
10 0.18
11 0.06
12 0.2
13 0.34
14 0.04
15 0.23
16 0.66
17 0.57
19 -0.15
2 -0.19
20 -0.15
21 0.12
22 -0.15
23 -0.15
24 0.19
25 -0.15
26 0.19
27 -0.15
28 0.19
3 -0.19
37 0.37
38 0.15
39 0.15
4 -0.19
40 0.15
41 0.15
42 0.15
43 0.15
5 -0.43
6 -0.57
7 -0.57
8 -0.57
9 -0.55

> <PUBCHEM_EFFECTIVE_ROTOR_COUNT>
8

> <PUBCHEM_PHARMACOPHORE_FEATURES>
7
1 6 acceptor
1 7 acceptor
1 8 acceptor
1 9 donor
5 1 8 12 14 15 rings
6 14 15 19 20 22 23 rings
6 21 24 25 26 27 28 rings

> <PUBCHEM_HEAVY_ATOM_COUNT>
28

> <PUBCHEM_ATOM_DEF_STEREO_COUNT>
1

> <PUBCHEM_ATOM_UDEF_STEREO_COUNT>
0

> <PUBCHEM_BOND_DEF_STEREO_COUNT>
0

> <PUBCHEM_BOND_UDEF_STEREO_COUNT>
0

> <PUBCHEM_ISOTOPIC_ATOM_COUNT>
0

> <PUBCHEM_COMPONENT_COUNT>
1

> <PUBCHEM_CACTVS_TAUTO_COUNT>
4

> <PUBCHEM_CONFORMER_ID>
0077BC4800000001

> <PUBCHEM_MMFF94_ENERGY>
53.6904

> <PUBCHEM_FEATURE_SELFOVERLAP>
35.593

> <PUBCHEM_SHAPE_FINGERPRINT>
10006869 2 18122627146068161247
10483366 6 18191844908314881278
10811444 77 18053401060960066349
10871710 139 17689715259920542119
11059048 146 17766832837051367668
11211813 163 17695330496913676460
11578080 2 16987454181620885247
12403259 118 18338813285260742939
12422481 6 17977702945404484042
12633257 1 18058462060877946443
12788726 201 17401495849036471822
12925494 130 18266180720252407913
12978246 48 18410580556525637648
13583140 156 17701840962215430719
13965767 371 17756749486485593402
14123250 116 17764878996182343006
14955137 171 18339642360405182430
150020 26 18263373636257522201
151778 21 18411699855067836944
15475509 84 17047121567513752634
1601671 61 18337957895605742434
16760501 71 18337666551068784657
16992727 255 18199731589315181124
17921350 177 17628665199042793204
18785283 64 18339636845376491317
1979834 28 18116441529387360459
20465049 17 18339907243906690116
20739085 24 18192432085487527186
21049683 271 17463399874210363494
21860390 5 18190747628978082279
23558518 356 17977676303400267870
23559900 14 18120078740207442431
2637199 183 18341607067350424708
338550 245 18341052913464113064
3388396 114 17110455091431891932
3610482 184 17410759282331357460
4573279 73 18189354432978851221
469060 322 14329777080556181514
5048184 11 18195247711285797036
5081480 168 17390193221416024727
5312544 6 18268157452647026039
5776283 40 18051385424487001620
7288768 16 17343507696182170464
9980921 221 16257828865530825772

> <PUBCHEM_SHAPE_MULTIPOLES>
530.69
10.23
5.48
1.35
9.67
0.03
-0.24
-6.21
2.57
-3
-1.81
-0.55
0.9
-2.06

> <PUBCHEM_SHAPE_SELFOVERLAP>
1135.364

> <PUBCHEM_SHAPE_VOLUME>
296.2

> <PUBCHEM_COORDINATE_TYPE>
2
5
10

$$$$

