100659
  -OEChem-07051212592D

 53 53  0     0  0  0  0  0  0999 V2000
    2.5369   -3.6900    0.0000 O   0  0  0  0  0  0  0  0  0  0  0  0
    6.0010   -3.6900    0.0000 O   0  0  0  0  0  0  0  0  0  0  0  0
    6.0010   -5.6900    0.0000 O   0  0  0  0  0  0  0  0  0  0  0  0
    2.5369   -5.6900    0.0000 O   0  0  0  0  0  0  0  0  0  0  0  0
    6.8671    0.8100    0.0000 C   0  0  0  0  0  0  0  0  0  0  0  0
    6.8671    1.8100    0.0000 C   0  0  0  0  0  0  0  0  0  0  0  0
    6.0010    0.3100    0.0000 C   0  0  0  0  0  0  0  0  0  0  0  0
    7.7331    2.3100    0.0000 C   0  0  0  0  0  0  0  0  0  0  0  0
    6.0010   -0.6900    0.0000 C   0  0  0  0  0  0  0  0  0  0  0  0
    7.7331    3.3100    0.0000 C   0  0  0  0  0  0  0  0  0  0  0  0
    5.1350   -1.1900    0.0000 C   0  0  0  0  0  0  0  0  0  0  0  0
    8.5991    3.8100    0.0000 C   0  0  0  0  0  0  0  0  0  0  0  0
    5.1350   -2.1900    0.0000 C   0  0  0  0  0  0  0  0  0  0  0  0
    8.5991    4.8100    0.0000 C   0  0  0  0  0  0  0  0  0  0  0  0
    4.2690   -2.6900    0.0000 C   0  0  0  0  0  0  0  0  0  0  0  0
    9.4651    5.3100    0.0000 C   0  0  0  0  0  0  0  0  0  0  0  0
    4.2690   -3.6900    0.0000 C   0  0  0  0  0  0  0  0  0  0  0  0
    9.4651    6.3100    0.0000 C   0  0  0  0  0  0  0  0  0  0  0  0
    3.4030   -4.1900    0.0000 C   0  0  0  0  0  0  0  0  0  0  0  0
    5.1350   -4.1900    0.0000 C   0  0  0  0  0  0  0  0  0  0  0  0
    5.1350   -5.1900    0.0000 C   0  0  0  0  0  0  0  0  0  0  0  0
    3.4030   -5.1900    0.0000 C   0  0  0  0  0  0  0  0  0  0  0  0
    4.2690   -5.6900    0.0000 C   0  0  0  0  0  0  0  0  0  0  0  0
    7.0791    0.2274    0.0000 H   0  0  0  0  0  0  0  0  0  0  0  0
    7.4776    0.9177    0.0000 H   0  0  0  0  0  0  0  0  0  0  0  0
    6.6550    2.3926    0.0000 H   0  0  0  0  0  0  0  0  0  0  0  0
    6.2565    1.7023    0.0000 H   0  0  0  0  0  0  0  0  0  0  0  0
    5.7890    0.8926    0.0000 H   0  0  0  0  0  0  0  0  0  0  0  0
    5.3905    0.2023    0.0000 H   0  0  0  0  0  0  0  0  0  0  0  0
    7.9451    1.7274    0.0000 H   0  0  0  0  0  0  0  0  0  0  0  0
    8.3437    2.4177    0.0000 H   0  0  0  0  0  0  0  0  0  0  0  0
    6.2131   -1.2726    0.0000 H   0  0  0  0  0  0  0  0  0  0  0  0
    6.6116   -0.5823    0.0000 H   0  0  0  0  0  0  0  0  0  0  0  0
    7.5210    3.8926    0.0000 H   0  0  0  0  0  0  0  0  0  0  0  0
    7.1225    3.2023    0.0000 H   0  0  0  0  0  0  0  0  0  0  0  0
    4.9230   -0.6074    0.0000 H   0  0  0  0  0  0  0  0  0  0  0  0
    4.5244   -1.2977    0.0000 H   0  0  0  0  0  0  0  0  0  0  0  0
    8.8112    3.2274    0.0000 H   0  0  0  0  0  0  0  0  0  0  0  0
    9.2097    3.9177    0.0000 H   0  0  0  0  0  0  0  0  0  0  0  0
    5.3471   -2.7726    0.0000 H   0  0  0  0  0  0  0  0  0  0  0  0
    5.7456   -2.0823    0.0000 H   0  0  0  0  0  0  0  0  0  0  0  0
    8.3871    5.3926    0.0000 H   0  0  0  0  0  0  0  0  0  0  0  0
    7.9885    4.7023    0.0000 H   0  0  0  0  0  0  0  0  0  0  0  0
    4.0569   -2.1074    0.0000 H   0  0  0  0  0  0  0  0  0  0  0  0
    3.6584   -2.7977    0.0000 H   0  0  0  0  0  0  0  0  0  0  0  0
    9.6772    4.7274    0.0000 H   0  0  0  0  0  0  0  0  0  0  0  0
   10.0757    5.4177    0.0000 H   0  0  0  0  0  0  0  0  0  0  0  0
   10.0851    6.3100    0.0000 H   0  0  0  0  0  0  0  0  0  0  0  0
    9.4651    6.9300    0.0000 H   0  0  0  0  0  0  0  0  0  0  0  0
    8.8451    6.3100    0.0000 H   0  0  0  0  0  0  0  0  0  0  0  0
    4.2690   -6.3100    0.0000 H   0  0  0  0  0  0  0  0  0  0  0  0
    2.0000   -4.0000    0.0000 H   0  0  0  0  0  0  0  0  0  0  0  0
    6.0010   -6.3100    0.0000 H   0  0  0  0  0  0  0  0  0  0  0  0
  1 19  1  0  0  0  0
  1 52  1  0  0  0  0
  2 20  2  0  0  0  0
  3 21  1  0  0  0  0
  3 53  1  0  0  0  0
  4 22  2  0  0  0  0
  5  6  1  0  0  0  0
  5  7  1  0  0  0  0
  5 24  1  0  0  0  0
  5 25  1  0  0  0  0
  6  8  1  0  0  0  0
  6 26  1  0  0  0  0
  6 27  1  0  0  0  0
  7  9  1  0  0  0  0
  7 28  1  0  0  0  0
  7 29  1  0  0  0  0
  8 10  1  0  0  0  0
  8 30  1  0  0  0  0
  8 31  1  0  0  0  0
  9 11  1  0  0  0  0
  9 32  1  0  0  0  0
  9 33  1  0  0  0  0
 10 12  1  0  0  0  0
 10 34  1  0  0  0  0
 10 35  1  0  0  0  0
 11 13  1  0  0  0  0
 11 36  1  0  0  0  0
 11 37  1  0  0  0  0
 12 14  1  0  0  0  0
 12 38  1  0  0  0  0
 12 39  1  0  0  0  0
 13 15  1  0  0  0  0
 13 40  1  0  0  0  0
 13 41  1  0  0  0  0
 14 16  1  0  0  0  0
 14 42  1  0  0  0  0
 14 43  1  0  0  0  0
 15 17  1  0  0  0  0
 15 44  1  0  0  0  0
 15 45  1  0  0  0  0
 16 18  1  0  0  0  0
 16 46  1  0  0  0  0
 16 47  1  0  0  0  0
 17 19  2  0  0  0  0
 17 20  1  0  0  0  0
 18 48  1  0  0  0  0
 18 49  1  0  0  0  0
 18 50  1  0  0  0  0
 19 22  1  0  0  0  0
 20 21  1  0  0  0  0
 21 23  2  0  0  0  0
 22 23  1  0  0  0  0
 23 51  1  0  0  0  0
M  END
> <PUBCHEM_COMPOUND_CID>
100659

> <PUBCHEM_COMPOUND_CANONICALIZED>
1

> <PUBCHEM_CACTVS_COMPLEXITY>
460

> <PUBCHEM_CACTVS_HBOND_ACCEPTOR>
4

> <PUBCHEM_CACTVS_HBOND_DONOR>
2

> <PUBCHEM_CACTVS_ROTATABLE_BOND>
12

> <PUBCHEM_CACTVS_SUBSKEYS>
AAADceB4OAAAAAAAAAAAAAAAAAAAAAAAAAAgAAAAAAAAAAAAAAAAGgAACAAADASAgAACAAAAAgCIAqBSAAIAAAAgIAAACAFAAEgAABIAAAAAQAAEwAAIAYOIyKCAAAAAAAAAAAAAAAAAAAAAAAAAAAAAAA==

> <PUBCHEM_IUPAC_OPENEYE_NAME>
2,5-dihydroxy-3-tridecyl-1,4-benzoquinone

> <PUBCHEM_IUPAC_CAS_NAME>
2,5-dihydroxy-3-tridecylcyclohexa-2,5-diene-1,4-dione

> <PUBCHEM_IUPAC_NAME>
2,5-dihydroxy-3-tridecylcyclohexa-2,5-diene-1,4-dione

> <PUBCHEM_IUPAC_SYSTEMATIC_NAME>
2,5-bis(oxidanyl)-3-tridecyl-cyclohexa-2,5-diene-1,4-dione

> <PUBCHEM_IUPAC_TRADITIONAL_NAME>
2,5-dihydroxy-3-tridecyl-p-benzoquinone

> <PUBCHEM_IUPAC_INCHI>
InChI=1S/C19H30O4/c1-2-3-4-5-6-7-8-9-10-11-12-13-15-18(22)16(20)14-17(21)19(15)23/h14,20,23H,2-13H2,1H3

> <PUBCHEM_IUPAC_INCHIKEY>
AMKNOBHCKRZHIO-UHFFFAOYSA-N

> <PUBCHEM_XLOGP3_AA>
6.5

> <PUBCHEM_EXACT_MASS>
322.214409

> <PUBCHEM_MOLECULAR_FORMULA>
C19H30O4

> <PUBCHEM_MOLECULAR_WEIGHT>
322.4391

> <PUBCHEM_OPENEYE_CAN_SMILES>
CCCCCCCCCCCCCC1=C(C(=O)C=C(C1=O)O)O

> <PUBCHEM_OPENEYE_ISO_SMILES>
CCCCCCCCCCCCCC1=C(C(=O)C=C(C1=O)O)O

> <PUBCHEM_CACTVS_TPSA>
74.6

> <PUBCHEM_MONOISOTOPIC_WEIGHT>
322.214409

> <PUBCHEM_TOTAL_CHARGE>
0

> <PUBCHEM_HEAVY_ATOM_COUNT>
23

> <PUBCHEM_ATOM_DEF_STEREO_COUNT>
0

> <PUBCHEM_ATOM_UDEF_STEREO_COUNT>
0

> <PUBCHEM_BOND_DEF_STEREO_COUNT>
0

> <PUBCHEM_BOND_UDEF_STEREO_COUNT>
0

> <PUBCHEM_ISOTOPIC_ATOM_COUNT>
0

> <PUBCHEM_COMPONENT_COUNT>
1

> <PUBCHEM_CACTVS_TAUTO_COUNT>
91

> <PUBCHEM_COORDINATE_TYPE>
1
5
255

$$$$

