9924
  -OEChem-06261204112D

 30 31  0     1  0  0  0  0  0999 V2000
    6.0010   -0.2500    0.0000 O   0  0  0  0  0  0  0  0  0  0  0  0
    2.5369   -0.2500    0.0000 O   0  0  0  0  0  0  0  0  0  0  0  0
    3.4030    0.2500    0.0000 N   0  0  0  0  0  0  0  0  0  0  0  0
    5.1350    0.2500    0.0000 C   0  0  3  0  0  0  0  0  0  0  0  0
    5.1350    1.2500    0.0000 C   0  0  0  0  0  0  0  0  0  0  0  0
    4.2690   -0.2500    0.0000 C   0  0  0  0  0  0  0  0  0  0  0  0
    4.2690   -1.2500    0.0000 C   0  0  0  0  0  0  0  0  0  0  0  0
    6.0010    1.7500    0.0000 C   0  0  0  0  0  0  0  0  0  0  0  0
    4.2690    1.7500    0.0000 C   0  0  0  0  0  0  0  0  0  0  0  0
    3.4030   -1.7500    0.0000 C   0  0  0  0  0  0  0  0  0  0  0  0
    5.1350   -1.7500    0.0000 C   0  0  0  0  0  0  0  0  0  0  0  0
    6.0010    2.7500    0.0000 C   0  0  0  0  0  0  0  0  0  0  0  0
    4.2690    2.7500    0.0000 C   0  0  0  0  0  0  0  0  0  0  0  0
    5.1350    3.2500    0.0000 C   0  0  0  0  0  0  0  0  0  0  0  0
    3.4030   -2.7500    0.0000 C   0  0  0  0  0  0  0  0  0  0  0  0
    5.1350   -2.7500    0.0000 C   0  0  0  0  0  0  0  0  0  0  0  0
    4.2690   -3.2500    0.0000 C   0  0  0  0  0  0  0  0  0  0  0  0
    5.1350   -0.6000    0.0000 H   0  0  0  0  0  0  0  0  0  0  0  0
    6.5380    1.4400    0.0000 H   0  0  0  0  0  0  0  0  0  0  0  0
    3.7320    1.4400    0.0000 H   0  0  0  0  0  0  0  0  0  0  0  0
    2.8660   -1.4400    0.0000 H   0  0  0  0  0  0  0  0  0  0  0  0
    5.6720   -1.4400    0.0000 H   0  0  0  0  0  0  0  0  0  0  0  0
    6.5380    3.0600    0.0000 H   0  0  0  0  0  0  0  0  0  0  0  0
    3.7320    3.0600    0.0000 H   0  0  0  0  0  0  0  0  0  0  0  0
    6.5380    0.0600    0.0000 H   0  0  0  0  0  0  0  0  0  0  0  0
    5.1350    3.8700    0.0000 H   0  0  0  0  0  0  0  0  0  0  0  0
    2.8660   -3.0600    0.0000 H   0  0  0  0  0  0  0  0  0  0  0  0
    5.6720   -3.0600    0.0000 H   0  0  0  0  0  0  0  0  0  0  0  0
    4.2690   -3.8700    0.0000 H   0  0  0  0  0  0  0  0  0  0  0  0
    2.0000    0.0600    0.0000 H   0  0  0  0  0  0  0  0  0  0  0  0
  1  4  1  0  0  0  0
  1 25  1  0  0  0  0
  2  3  1  0  0  0  0
  2 30  1  0  0  0  0
  3  6  2  3  0  0  0
  4  5  1  0  0  0  0
  4  6  1  0  0  0  0
  4 18  1  0  0  0  0
  5  8  2  0  0  0  0
  5  9  1  0  0  0  0
  6  7  1  0  0  0  0
  7 10  2  0  0  0  0
  7 11  1  0  0  0  0
  8 12  1  0  0  0  0
  8 19  1  0  0  0  0
  9 13  2  0  0  0  0
  9 20  1  0  0  0  0
 10 15  1  0  0  0  0
 10 21  1  0  0  0  0
 11 16  2  0  0  0  0
 11 22  1  0  0  0  0
 12 14  2  0  0  0  0
 12 23  1  0  0  0  0
 13 14  1  0  0  0  0
 13 24  1  0  0  0  0
 14 26  1  0  0  0  0
 15 17  2  0  0  0  0
 15 27  1  0  0  0  0
 16 17  1  0  0  0  0
 16 28  1  0  0  0  0
 17 29  1  0  0  0  0
M  END
> <PUBCHEM_COMPOUND_CID>
9924

> <PUBCHEM_COMPOUND_CANONICALIZED>
1

> <PUBCHEM_CACTVS_COMPLEXITY>
253

> <PUBCHEM_CACTVS_HBOND_ACCEPTOR>
3

> <PUBCHEM_CACTVS_HBOND_DONOR>
2

> <PUBCHEM_CACTVS_ROTATABLE_BOND>
3

> <PUBCHEM_CACTVS_SUBSKEYS>
AAADccByMAAAAAAAAAAAAAAAAAAAAAAAAAAwYAAAAAAAAAABQAAAHgAECAAADByhmAIwAIAQAgCgAyBiAAQCAAAgAAAIiAAwCJgINqKAERCAcAAkwAEImAeAwOAOAAAAAAAAAAAAAAAAAAAAAAAAAAAAAA==

> <PUBCHEM_IUPAC_OPENEYE_NAME>
2-hydroxy-1,2-diphenyl-ethanone oxime

> <PUBCHEM_IUPAC_CAS_NAME>
2-hydroxy-1,2-diphenylethanone oxime

> <PUBCHEM_IUPAC_NAME>
2-hydroxyimino-1,2-diphenylethanol

> <PUBCHEM_IUPAC_SYSTEMATIC_NAME>
2-hydroxyimino-1,2-diphenyl-ethanol

> <PUBCHEM_IUPAC_TRADITIONAL_NAME>
2-hydroxy-1,2-diphenyl-ethanone oxime

> <PUBCHEM_IUPAC_INCHI>
InChI=1S/C14H13NO2/c16-14(12-9-5-2-6-10-12)13(15-17)11-7-3-1-4-8-11/h1-10,14,16-17H

> <PUBCHEM_IUPAC_INCHIKEY>
WAKHLWOJMHVUJC-UHFFFAOYSA-N

> <PUBCHEM_XLOGP3>
2.4

> <PUBCHEM_EXACT_MASS>
227.094629

> <PUBCHEM_MOLECULAR_FORMULA>
C14H13NO2

> <PUBCHEM_MOLECULAR_WEIGHT>
227.25852

> <PUBCHEM_OPENEYE_CAN_SMILES>
C1=CC=C(C=C1)C(C(=NO)C2=CC=CC=C2)O

> <PUBCHEM_OPENEYE_ISO_SMILES>
C1=CC=C(C=C1)C(C(=NO)C2=CC=CC=C2)O

> <PUBCHEM_CACTVS_TPSA>
52.8

> <PUBCHEM_MONOISOTOPIC_WEIGHT>
227.094629

> <PUBCHEM_TOTAL_CHARGE>
0

> <PUBCHEM_HEAVY_ATOM_COUNT>
17

> <PUBCHEM_ATOM_DEF_STEREO_COUNT>
0

> <PUBCHEM_ATOM_UDEF_STEREO_COUNT>
1

> <PUBCHEM_BOND_DEF_STEREO_COUNT>
0

> <PUBCHEM_BOND_UDEF_STEREO_COUNT>
1

> <PUBCHEM_ISOTOPIC_ATOM_COUNT>
0

> <PUBCHEM_COMPONENT_COUNT>
1

> <PUBCHEM_CACTVS_TAUTO_COUNT>
4

> <PUBCHEM_COORDINATE_TYPE>
1
5
255

> <PUBCHEM_BONDANNOTATIONS>
10  15  8
11  16  8
12  14  8
13  14  8
15  17  8
16  17  8
3  6  1
4  18  3
5  8  8
5  9  8
7  10  8
7  11  8
8  12  8
9  13  8

$$$$

