24892784
  -OEChem-07051213083D

 53 52  0     1  0  0  0  0  0999 V2000
   -4.0789    0.4050    1.1302 P   0  0  0  0  0  0  0  0  0  0  0  0
   -3.1175    1.1761    0.0900 O   0  0  0  0  0  0  0  0  0  0  0  0
    0.3424    0.8595   -1.0572 O   0  0  0  0  0  0  0  0  0  0  0  0
   -5.0663   -0.4547    0.1810 O   0  0  0  0  0  0  0  0  0  0  0  0
   -5.0294    1.5942    1.6756 O   0  0  0  0  0  0  0  0  0  0  0  0
   -3.3697   -0.3788    2.1956 O   0  0  0  0  0  0  0  0  0  0  0  0
    3.0939    2.2483    0.2188 O   0  0  0  0  0  0  0  0  0  0  0  0
    5.0734    1.0660    0.3351 O   0  0  0  0  0  0  0  0  0  0  0  0
   -1.9377    0.5048   -0.3609 C   0  0  2  0  0  0  0  0  0  0  0  0
   -0.8831    1.5581   -0.7902 C   0  0  0  0  0  0  0  0  0  0  0  0
   -2.3441   -0.4812   -1.4679 C   0  0  0  0  0  0  0  0  0  0  0  0
   -1.2006   -1.3687   -1.9899 C   0  0  0  0  0  0  0  0  0  0  0  0
   -0.5657    2.5528    0.3292 C   0  0  0  0  0  0  0  0  0  0  0  0
   -1.2656    2.3198   -2.0645 C   0  0  0  0  0  0  0  0  0  0  0  0
   -0.6069   -2.3180   -0.9668 C   0  0  0  0  0  0  0  0  0  0  0  0
    0.7166   -2.2902   -0.7153 C   0  0  0  0  0  0  0  0  0  0  0  0
   -1.5987   -3.2132   -0.2784 C   0  0  0  0  0  0  0  0  0  0  0  0
    1.4975   -3.1092    0.2755 C   0  0  0  0  0  0  0  0  0  0  0  0
    2.1970   -2.2441    1.3323 C   0  0  0  0  0  0  0  0  0  0  0  0
    3.1712   -1.2351    0.7501 C   0  0  0  0  0  0  0  0  0  0  0  0
    4.3491   -1.8252    0.0228 C   0  0  0  0  0  0  0  0  0  0  0  0
    2.9633    0.0797    0.9472 C   0  0  0  0  0  0  0  0  0  0  0  0
    3.8653    1.1573    0.4772 C   0  0  0  0  0  0  0  0  0  0  0  0
    3.7945    3.3969   -0.2696 C   0  0  0  0  0  0  0  0  0  0  0  0
   -1.5184   -0.0629    0.4785 H   0  0  0  0  0  0  0  0  0  0  0  0
   -3.1486   -1.1307   -1.1109 H   0  0  0  0  0  0  0  0  0  0  0  0
   -2.7955    0.0616   -2.3073 H   0  0  0  0  0  0  0  0  0  0  0  0
   -0.4383   -0.7732   -2.5003 H   0  0  0  0  0  0  0  0  0  0  0  0
   -1.6217   -1.9946   -2.7899 H   0  0  0  0  0  0  0  0  0  0  0  0
   -0.2335    2.0266    1.2315 H   0  0  0  0  0  0  0  0  0  0  0  0
    0.2529    3.2238    0.0446 H   0  0  0  0  0  0  0  0  0  0  0  0
   -1.4353    3.1657    0.5868 H   0  0  0  0  0  0  0  0  0  0  0  0
   -1.2975    1.6593   -2.9369 H   0  0  0  0  0  0  0  0  0  0  0  0
   -0.5144    3.0829   -2.3010 H   0  0  0  0  0  0  0  0  0  0  0  0
   -2.2344    2.8183   -1.9606 H   0  0  0  0  0  0  0  0  0  0  0  0
    1.0068    1.5090   -1.3442 H   0  0  0  0  0  0  0  0  0  0  0  0
    1.3245   -1.6119   -1.3121 H   0  0  0  0  0  0  0  0  0  0  0  0
   -2.1750   -2.6528    0.4641 H   0  0  0  0  0  0  0  0  0  0  0  0
   -1.1322   -4.0596    0.2302 H   0  0  0  0  0  0  0  0  0  0  0  0
   -2.2950   -3.6400   -1.0086 H   0  0  0  0  0  0  0  0  0  0  0  0
    0.8587   -3.8233    0.8027 H   0  0  0  0  0  0  0  0  0  0  0  0
    2.2273   -3.7164   -0.2720 H   0  0  0  0  0  0  0  0  0  0  0  0
    2.7459   -2.8992    2.0208 H   0  0  0  0  0  0  0  0  0  0  0  0
    1.4333   -1.7412    1.9405 H   0  0  0  0  0  0  0  0  0  0  0  0
   -5.7140   -1.0626    0.5969 H   0  0  0  0  0  0  0  0  0  0  0  0
   -5.6572    1.4031    2.4047 H   0  0  0  0  0  0  0  0  0  0  0  0
    4.9551   -2.4197    0.7145 H   0  0  0  0  0  0  0  0  0  0  0  0
    4.0157   -2.4796   -0.7882 H   0  0  0  0  0  0  0  0  0  0  0  0
    5.0052   -1.0918   -0.4457 H   0  0  0  0  0  0  0  0  0  0  0  0
    2.0722    0.4129    1.4739 H   0  0  0  0  0  0  0  0  0  0  0  0
    3.0646    4.1929   -0.4391 H   0  0  0  0  0  0  0  0  0  0  0  0
    4.2874    3.1645   -1.2184 H   0  0  0  0  0  0  0  0  0  0  0  0
    4.5229    3.7394    0.4715 H   0  0  0  0  0  0  0  0  0  0  0  0
  1  2  1  0  0  0  0
  1  4  1  0  0  0  0
  1  5  1  0  0  0  0
  1  6  2  0  0  0  0
  2  9  1  0  0  0  0
  3 10  1  0  0  0  0
  3 36  1  0  0  0  0
  4 45  1  0  0  0  0
  5 46  1  0  0  0  0
  7 23  1  0  0  0  0
  7 24  1  0  0  0  0
  8 23  2  0  0  0  0
  9 10  1  0  0  0  0
  9 11  1  0  0  0  0
  9 25  1  0  0  0  0
 10 13  1  0  0  0  0
 10 14  1  0  0  0  0
 11 12  1  0  0  0  0
 11 26  1  0  0  0  0
 11 27  1  0  0  0  0
 12 15  1  0  0  0  0
 12 28  1  0  0  0  0
 12 29  1  0  0  0  0
 13 30  1  0  0  0  0
 13 31  1  0  0  0  0
 13 32  1  0  0  0  0
 14 33  1  0  0  0  0
 14 34  1  0  0  0  0
 14 35  1  0  0  0  0
 15 16  2  0  0  0  0
 15 17  1  0  0  0  0
 16 18  1  0  0  0  0
 16 37  1  0  0  0  0
 17 38  1  0  0  0  0
 17 39  1  0  0  0  0
 17 40  1  0  0  0  0
 18 19  1  0  0  0  0
 18 41  1  0  0  0  0
 18 42  1  0  0  0  0
 19 20  1  0  0  0  0
 19 43  1  0  0  0  0
 19 44  1  0  0  0  0
 20 21  1  0  0  0  0
 20 22  2  0  0  0  0
 21 47  1  0  0  0  0
 21 48  1  0  0  0  0
 21 49  1  0  0  0  0
 22 23  1  0  0  0  0
 22 50  1  0  0  0  0
 24 51  1  0  0  0  0
 24 52  1  0  0  0  0
 24 53  1  0  0  0  0
M  END
> <PUBCHEM_COMPOUND_CID>
24892784

> <PUBCHEM_CONFORMER_RMSD>
1.4

> <PUBCHEM_CONFORMER_DIVERSEORDER>
1
26
21
29
57
69
30
75
23
42
18
40
32
76
5
31
20
71
9
52
77
56
60
47
73
46
62
25
49
66
14
44
74
24
37
33
8
51
39
34
6
72
63
22
19
43
10
35
27
67
36
48
58
45
68
50
11
64
4
2
28
53
16
59
70
55
7
54
41
17
13
61
38
15
3
65
12

> <PUBCHEM_MMFF94_PARTIAL_CHARGES>
26
1 1.51
10 0.28
12 0.14
15 -0.28
16 -0.29
17 0.14
18 0.14
19 0.14
2 -0.55
20 -0.28
21 0.14
22 -0.14
23 0.71
24 0.28
3 -0.68
36 0.4
37 0.15
4 -0.77
45 0.5
46 0.5
5 -0.77
50 0.15
6 -0.7
7 -0.43
8 -0.57
9 0.28

> <PUBCHEM_EFFECTIVE_ROTOR_COUNT>
11

> <PUBCHEM_PHARMACOPHORE_FEATURES>
11
1 17 hydrophobe
1 21 hydrophobe
1 3 acceptor
1 3 donor
1 4 acceptor
1 5 acceptor
1 6 acceptor
1 8 acceptor
3 10 13 14 hydrophobe
4 1 4 5 6 anion
4 16 18 19 20 hydrophobe

> <PUBCHEM_HEAVY_ATOM_COUNT>
24

> <PUBCHEM_ATOM_DEF_STEREO_COUNT>
1

> <PUBCHEM_ATOM_UDEF_STEREO_COUNT>
0

> <PUBCHEM_BOND_DEF_STEREO_COUNT>
2

> <PUBCHEM_BOND_UDEF_STEREO_COUNT>
0

> <PUBCHEM_ISOTOPIC_ATOM_COUNT>
0

> <PUBCHEM_COMPONENT_COUNT>
1

> <PUBCHEM_CACTVS_TAUTO_COUNT>
1

> <PUBCHEM_CONFORMER_ID>
017BD57000000001

> <PUBCHEM_MMFF94_ENERGY>
16.5302

> <PUBCHEM_FEATURE_SELFOVERLAP>
55.872

> <PUBCHEM_SHAPE_FINGERPRINT>
10366900 7 17916579976597191098
12156800 1 16909422700259355062
12539773 59 17822872882670110532
12633257 1 18336277833122374690
12717326 69 16911964775838350099
12788726 201 17257349865955368325
13140716 1 18340488876641398790
13583140 156 17772203147687500103
13615921 28 16769047260335232466
14765038 42 18261670364535784480
14840074 17 18059008376497195188
15163728 17 16154249720427121771
15342168 16 18114463461167605411
20626108 58 15122640542005872675
20681677 76 17983025732095863887
21623110 236 18338806606623254415
23559900 14 17557691758024750279
3187 122 17631738291066231477
392239 28 18272933842648283147
44154327 71 18408326592195777182
469060 322 17630059160748502234
5081480 168 17098045324522022558
6034566 193 17555166957067841996
7471813 234 10919971238245401388

> <PUBCHEM_SHAPE_MULTIPOLES>
456.67
9.04
4.11
1.68
0.18
0.16
0.07
-3.34
-4.36
2.71
0.62
-1.78
-0.07
-0.82

> <PUBCHEM_SHAPE_SELFOVERLAP>
872.092

> <PUBCHEM_SHAPE_VOLUME>
283.1

> <PUBCHEM_COORDINATE_TYPE>
2
5
10

$$$$

