4080
  -OEChem-06251223523D

 49 52  0     1  0  0  0  0  0999 V2000
   -4.7131    1.1525   -0.0969 O   0  0  0  0  0  0  0  0  0  0  0  0
    5.9892   -0.1366   -0.2250 O   0  0  0  0  0  0  0  0  0  0  0  0
   -2.5510    0.0577   -0.4619 C   0  0  2  0  0  0  0  0  0  0  0  0
   -1.8679    1.0474    0.5213 C   0  0  2  0  0  0  0  0  0  0  0  0
   -0.3244    1.1040    0.5125 C   0  0  1  0  0  0  0  0  0  0  0  0
   -3.9789   -0.0484    0.1664 C   0  0  1  0  0  0  0  0  0  0  0  0
    0.3376   -0.2916    0.4392 C   0  0  1  0  0  0  0  0  0  0  0  0
   -1.8050   -1.3013   -0.4749 C   0  0  0  0  0  0  0  0  0  0  0  0
   -2.4113    0.6366    1.9085 C   0  0  0  0  0  0  0  0  0  0  0  0
   -0.2936   -1.1692   -0.6550 C   0  0  0  0  0  0  0  0  0  0  0  0
   -3.7223   -0.1189    1.6751 C   0  0  0  0  0  0  0  0  0  0  0  0
    0.2200    2.0107   -0.6026 C   0  0  0  0  0  0  0  0  0  0  0  0
   -2.6289    0.6207   -1.8956 C   0  0  0  0  0  0  0  0  0  0  0  0
    1.8461   -0.2154    0.2576 C   0  0  0  0  0  0  0  0  0  0  0  0
    1.7192    2.2347   -0.4228 C   0  0  0  0  0  0  0  0  0  0  0  0
    2.4843    0.9603   -0.1789 C   0  0  0  0  0  0  0  0  0  0  0  0
   -4.7601   -1.1965   -0.3144 C   0  0  0  0  0  0  0  0  0  0  0  0
    2.6261   -1.3546    0.5249 C   0  0  0  0  0  0  0  0  0  0  0  0
    3.8803    0.9745   -0.3309 C   0  0  0  0  0  0  0  0  0  0  0  0
    4.0108   -1.3302    0.3606 C   0  0  0  0  0  0  0  0  0  0  0  0
    4.6379   -0.1656   -0.0683 C   0  0  0  0  0  0  0  0  0  0  0  0
   -5.3980   -2.1343   -0.7075 C   0  0  0  0  0  0  0  0  0  0  0  0
    6.7031   -1.3367    0.0685 C   0  0  0  0  0  0  0  0  0  0  0  0
   -2.2467    2.0618    0.3292 H   0  0  0  0  0  0  0  0  0  0  0  0
   -0.0155    1.5707    1.4606 H   0  0  0  0  0  0  0  0  0  0  0  0
    0.1627   -0.7832    1.4065 H   0  0  0  0  0  0  0  0  0  0  0  0
   -2.1972   -1.9374   -1.2785 H   0  0  0  0  0  0  0  0  0  0  0  0
   -1.9822   -1.8508    0.4578 H   0  0  0  0  0  0  0  0  0  0  0  0
   -2.5775    1.5255    2.5279 H   0  0  0  0  0  0  0  0  0  0  0  0
   -1.7146   -0.0050    2.4585 H   0  0  0  0  0  0  0  0  0  0  0  0
    0.1400   -2.1771   -0.6254 H   0  0  0  0  0  0  0  0  0  0  0  0
   -0.0584   -0.7786   -1.6517 H   0  0  0  0  0  0  0  0  0  0  0  0
   -3.6092   -1.1521    2.0262 H   0  0  0  0  0  0  0  0  0  0  0  0
   -4.5348    0.3357    2.2538 H   0  0  0  0  0  0  0  0  0  0  0  0
   -0.2879    2.9823   -0.5930 H   0  0  0  0  0  0  0  0  0  0  0  0
    0.0464    1.5718   -1.5889 H   0  0  0  0  0  0  0  0  0  0  0  0
   -2.9608    1.6644   -1.9083 H   0  0  0  0  0  0  0  0  0  0  0  0
   -1.6669    0.5869   -2.4109 H   0  0  0  0  0  0  0  0  0  0  0  0
   -3.3283    0.0395   -2.5071 H   0  0  0  0  0  0  0  0  0  0  0  0
    1.8868    2.9022    0.4319 H   0  0  0  0  0  0  0  0  0  0  0  0
    2.1080    2.7387   -1.3159 H   0  0  0  0  0  0  0  0  0  0  0  0
   -4.9971    1.1456   -1.0267 H   0  0  0  0  0  0  0  0  0  0  0  0
    2.1531   -2.2726    0.8663 H   0  0  0  0  0  0  0  0  0  0  0  0
    4.3804    1.8855   -0.6533 H   0  0  0  0  0  0  0  0  0  0  0  0
    4.5355   -2.2520    0.5868 H   0  0  0  0  0  0  0  0  0  0  0  0
   -5.9632   -2.9666   -1.0565 H   0  0  0  0  0  0  0  0  0  0  0  0
    7.7642   -1.1335   -0.1098 H   0  0  0  0  0  0  0  0  0  0  0  0
    6.4157   -2.1508   -0.6054 H   0  0  0  0  0  0  0  0  0  0  0  0
    6.6039   -1.6163    1.1229 H   0  0  0  0  0  0  0  0  0  0  0  0
  1  6  1  0  0  0  0
  1 42  1  0  0  0  0
  2 21  1  0  0  0  0
  2 23  1  0  0  0  0
  3  4  1  0  0  0  0
  3  6  1  0  0  0  0
  3  8  1  0  0  0  0
  3 13  1  0  0  0  0
  4  5  1  0  0  0  0
  4  9  1  0  0  0  0
  4 24  1  0  0  0  0
  5  7  1  0  0  0  0
  5 12  1  0  0  0  0
  5 25  1  0  0  0  0
  6 11  1  0  0  0  0
  6 17  1  0  0  0  0
  7 10  1  0  0  0  0
  7 14  1  0  0  0  0
  7 26  1  0  0  0  0
  8 10  1  0  0  0  0
  8 27  1  0  0  0  0
  8 28  1  0  0  0  0
  9 11  1  0  0  0  0
  9 29  1  0  0  0  0
  9 30  1  0  0  0  0
 10 31  1  0  0  0  0
 10 32  1  0  0  0  0
 11 33  1  0  0  0  0
 11 34  1  0  0  0  0
 12 15  1  0  0  0  0
 12 35  1  0  0  0  0
 12 36  1  0  0  0  0
 13 37  1  0  0  0  0
 13 38  1  0  0  0  0
 13 39  1  0  0  0  0
 14 16  2  0  0  0  0
 14 18  1  0  0  0  0
 15 16  1  0  0  0  0
 15 40  1  0  0  0  0
 15 41  1  0  0  0  0
 16 19  1  0  0  0  0
 17 22  3  0  0  0  0
 18 20  2  0  0  0  0
 18 43  1  0  0  0  0
 19 21  2  0  0  0  0
 19 44  1  0  0  0  0
 20 21  1  0  0  0  0
 20 45  1  0  0  0  0
 22 46  1  0  0  0  0
 23 47  1  0  0  0  0
 23 48  1  0  0  0  0
 23 49  1  0  0  0  0
M  END
> <PUBCHEM_COMPOUND_CID>
4080

> <PUBCHEM_CONFORMER_RMSD>
0.6

> <PUBCHEM_CONFORMER_DIVERSEORDER>
47
16
50
28
5
81
76
13
32
15
84
24
43
22
71
25
36
33
48
78
11
63
17
58
37
10
23
21
39
3
38
85
62
26
65
54
27
79
2
74
42
44
41
18
34
20
49
70
56
45
75
14
31
7
1
69
72
60
82
67
6
66
77
8
52
35
29
55
53
80
40
64
12
9
51
61
19
46
73
68
83
59
57
4
30

> <PUBCHEM_MMFF94_PARTIAL_CHARGES>
19
1 -0.68
14 -0.14
15 0.14
16 -0.14
17 -0.2
18 -0.15
19 -0.15
2 -0.36
20 -0.15
21 0.08
22 -0.18
23 0.28
42 0.4
43 0.15
44 0.15
45 0.15
46 0.18
6 0.48
7 0.14

> <PUBCHEM_EFFECTIVE_ROTOR_COUNT>
2.4

> <PUBCHEM_PHARMACOPHORE_FEATURES>
8
1 1 acceptor
1 1 donor
1 2 acceptor
1 22 hydrophobe
5 3 4 6 9 11 rings
6 14 16 18 19 20 21 rings
6 3 4 5 7 8 10 rings
6 5 7 12 14 15 16 rings

> <PUBCHEM_HEAVY_ATOM_COUNT>
23

> <PUBCHEM_ATOM_DEF_STEREO_COUNT>
0

> <PUBCHEM_ATOM_UDEF_STEREO_COUNT>
5

> <PUBCHEM_BOND_DEF_STEREO_COUNT>
0

> <PUBCHEM_BOND_UDEF_STEREO_COUNT>
0

> <PUBCHEM_ISOTOPIC_ATOM_COUNT>
0

> <PUBCHEM_COMPONENT_COUNT>
1

> <PUBCHEM_CACTVS_TAUTO_COUNT>
1

> <PUBCHEM_CONFORMER_ID>
00000FF00000002F

> <PUBCHEM_MMFF94_ENERGY>
84.0972

> <PUBCHEM_FEATURE_SELFOVERLAP>
40.819

> <PUBCHEM_SHAPE_FINGERPRINT>
10062212 137 18114184112457948351
10366900 7 17203615865185695721
11315181 36 17894910732917406408
11578080 2 18042711488223389409
12011746 2 17060625477615915311
12166972 35 18335984172906616600
12236239 1 18260828194135720304
12516196 113 18335422361852641208
12553582 1 18339653312565797938
12596602 18 17967534541047009954
12916754 54 18339927013593797549
13288520 33 18187082866538693640
13862211 1 18341896307833994842
14739800 52 16951696779465150488
15196674 1 18410294687739224252
15209289 33 17676487241732496475
15788980 27 18272368676438560320
17349148 13 18040996211449444775
1813 80 18337095852741102060
18222031 100 18413112758043415608
18681886 176 18334018259665388034
19489759 90 16056880251730504288
19784866 240 18408884010336835959
200 152 18410856551413891025
20028762 73 18187649072394726982
20612939 158 18201997673556654284
20645477 70 18343305838384857868
21033648 29 17988937660058106212
21267235 1 18410006620109156934
21641784 216 17631715189144145444
21682296 61 18410849992835858270
21709351 56 18343306959344916237
23198884 109 15051729824563288052
23402539 116 18261114088312064228
23522609 53 18121467320583847672
23557571 272 16558752347066360652
23559900 14 16343699907034678772
23569943 247 17973715077098400330
335352 9 18410857685570321421
34797466 226 16443619092241959640
465052 167 18335978666869326063
5104073 3 18187078408452266595
542803 24 16877940547071920968
559249 180 18335422378773950087
7495541 125 16878228580384571698

> <PUBCHEM_SHAPE_MULTIPOLES>
461.59
12.48
1.93
1.21
9.63
0.16
0.19
-6.03
-0.48
-0.08
-0.32
-1.38
0.17
-0.84

> <PUBCHEM_SHAPE_SELFOVERLAP>
1000.966

> <PUBCHEM_SHAPE_VOLUME>
251.4

> <PUBCHEM_COORDINATE_TYPE>
2
5
10

$$$$

