443811
  -OEChem-07051213033D

 58 62  0     1  0  0  0  0  0999 V2000
   -4.9561   -0.9212    0.8827 O   0  0  0  0  0  0  0  0  0  0  0  0
   -6.7997    0.5462   -2.5082 O   0  0  0  0  0  0  0  0  0  0  0  0
   -8.3802   -0.1287   -0.2138 O   0  0  0  0  0  0  0  0  0  0  0  0
    6.3718   -0.8184    1.4339 O   0  0  0  0  0  0  0  0  0  0  0  0
   -2.2944    2.1575    0.3789 O   0  0  0  0  0  0  0  0  0  0  0  0
    3.4735   -2.3814   -1.3206 O   0  0  0  0  0  0  0  0  0  0  0  0
    2.5220    3.6801    0.2766 O   0  0  0  0  0  0  0  0  0  0  0  0
    1.7281   -2.2193    0.5594 O   0  0  0  0  0  0  0  0  0  0  0  0
    0.1740    2.7920    0.6507 O   0  0  0  0  0  0  0  0  0  0  0  0
   -4.2629    0.1501    0.2325 C   0  0  2  0  0  0  0  0  0  0  0  0
   -4.7947    0.3309   -1.1904 C   0  0  0  0  0  0  0  0  0  0  0  0
   -6.3019    0.5710   -1.1727 C   0  0  2  0  0  0  0  0  0  0  0  0
   -7.0143   -0.5093   -0.3565 C   0  0  1  0  0  0  0  0  0  0  0  0
   -6.3584   -0.6699    1.0216 C   0  0  1  0  0  0  0  0  0  0  0  0
    6.5483   -0.8229    0.0133 C   0  0  2  0  0  0  0  0  0  0  0  0
    6.1305    0.5441   -0.5355 C   0  0  0  0  0  0  0  0  0  0  0  0
   -2.7808   -0.1533    0.2348 C   0  0  0  0  0  0  0  0  0  0  0  0
    4.6610    0.7913   -0.3020 C   0  0  0  0  0  0  0  0  0  0  0  0
    5.6985   -1.9332   -0.6031 C   0  0  0  0  0  0  0  0  0  0  0  0
    3.7294   -0.2631   -0.3030 C   0  0  0  0  0  0  0  0  0  0  0  0
    2.3751   -0.0068    0.0053 C   0  0  0  0  0  0  0  0  0  0  0  0
    4.2281   -1.5930   -0.7552 C   0  0  0  0  0  0  0  0  0  0  0  0
   -0.4736    0.5667    0.3081 C   0  0  0  0  0  0  0  0  0  0  0  0
    1.9522    1.3200    0.1798 C   0  0  0  0  0  0  0  0  0  0  0  0
   -1.8387    0.8728    0.3141 C   0  0  0  0  0  0  0  0  0  0  0  0
   -0.0564   -0.7600    0.2269 C   0  0  0  0  0  0  0  0  0  0  0  0
   -6.9476   -1.8374    1.8069 C   0  0  0  0  0  0  0  0  0  0  0  0
    8.0348   -1.0711   -0.2585 C   0  0  0  0  0  0  0  0  0  0  0  0
    1.3816   -1.0845    0.2573 C   0  0  0  0  0  0  0  0  0  0  0  0
   -2.3636   -1.4811    0.1547 C   0  0  0  0  0  0  0  0  0  0  0  0
    4.2194    2.1041   -0.0992 C   0  0  0  0  0  0  0  0  0  0  0  0
    0.5257    1.6448    0.4056 C   0  0  0  0  0  0  0  0  0  0  0  0
    2.8720    2.3712    0.1216 C   0  0  0  0  0  0  0  0  0  0  0  0
   -1.0028   -1.7882    0.1540 C   0  0  0  0  0  0  0  0  0  0  0  0
   -4.4575    1.0453    0.8359 H   0  0  0  0  0  0  0  0  0  0  0  0
   -4.2919    1.1547   -1.7111 H   0  0  0  0  0  0  0  0  0  0  0  0
   -4.5907   -0.5673   -1.7900 H   0  0  0  0  0  0  0  0  0  0  0  0
   -6.5156    1.5672   -0.7664 H   0  0  0  0  0  0  0  0  0  0  0  0
   -6.9928   -1.4572   -0.9080 H   0  0  0  0  0  0  0  0  0  0  0  0
   -6.5017    0.2381    1.6222 H   0  0  0  0  0  0  0  0  0  0  0  0
    6.3321    0.6159   -1.6114 H   0  0  0  0  0  0  0  0  0  0  0  0
    6.7093    1.3268   -0.0281 H   0  0  0  0  0  0  0  0  0  0  0  0
    5.7599   -2.8416    0.0078 H   0  0  0  0  0  0  0  0  0  0  0  0
    6.0627   -2.1618   -1.6126 H   0  0  0  0  0  0  0  0  0  0  0  0
   -6.4417   -1.9406    2.7732 H   0  0  0  0  0  0  0  0  0  0  0  0
   -8.0178   -1.7008    1.9881 H   0  0  0  0  0  0  0  0  0  0  0  0
   -6.7991   -2.7822    1.2725 H   0  0  0  0  0  0  0  0  0  0  0  0
    8.2583   -1.0666   -1.3303 H   0  0  0  0  0  0  0  0  0  0  0  0
    8.6525   -0.3074    0.2279 H   0  0  0  0  0  0  0  0  0  0  0  0
    8.3486   -2.0351    0.1580 H   0  0  0  0  0  0  0  0  0  0  0  0
   -3.0765   -2.2978    0.0789 H   0  0  0  0  0  0  0  0  0  0  0  0
    4.9321    2.9260   -0.1245 H   0  0  0  0  0  0  0  0  0  0  0  0
   -0.6999   -2.8298    0.0897 H   0  0  0  0  0  0  0  0  0  0  0  0
   -7.7617    0.6814   -2.4626 H   0  0  0  0  0  0  0  0  0  0  0  0
   -8.4100    0.6977    0.2979 H   0  0  0  0  0  0  0  0  0  0  0  0
    5.4231   -0.8575    1.6379 H   0  0  0  0  0  0  0  0  0  0  0  0
   -3.1398    2.2446   -0.0887 H   0  0  0  0  0  0  0  0  0  0  0  0
    1.5586    3.7797    0.2952 H   0  0  0  0  0  0  0  0  0  0  0  0
  1 10  1  0  0  0  0
  1 14  1  0  0  0  0
  2 12  1  0  0  0  0
  2 54  1  0  0  0  0
  3 13  1  0  0  0  0
  3 55  1  0  0  0  0
  4 15  1  0  0  0  0
  4 56  1  0  0  0  0
  5 25  1  0  0  0  0
  5 57  1  0  0  0  0
  6 22  2  0  0  0  0
  7 33  1  0  0  0  0
  7 58  1  0  0  0  0
  8 29  2  0  0  0  0
  9 32  2  0  0  0  0
 10 11  1  0  0  0  0
 10 17  1  0  0  0  0
 10 35  1  0  0  0  0
 11 12  1  0  0  0  0
 11 36  1  0  0  0  0
 11 37  1  0  0  0  0
 12 13  1  0  0  0  0
 12 38  1  0  0  0  0
 13 14  1  0  0  0  0
 13 39  1  0  0  0  0
 14 27  1  0  0  0  0
 14 40  1  0  0  0  0
 15 16  1  0  0  0  0
 15 19  1  0  0  0  0
 15 28  1  0  0  0  0
 16 18  1  0  0  0  0
 16 41  1  0  0  0  0
 16 42  1  0  0  0  0
 17 25  2  0  0  0  0
 17 30  1  0  0  0  0
 18 20  1  0  0  0  0
 18 31  2  0  0  0  0
 19 22  1  0  0  0  0
 19 43  1  0  0  0  0
 19 44  1  0  0  0  0
 20 21  2  0  0  0  0
 20 22  1  0  0  0  0
 21 24  1  0  0  0  0
 21 29  1  0  0  0  0
 23 25  1  0  0  0  0
 23 26  2  0  0  0  0
 23 32  1  0  0  0  0
 24 32  1  0  0  0  0
 24 33  2  0  0  0  0
 26 29  1  0  0  0  0
 26 34  1  0  0  0  0
 27 45  1  0  0  0  0
 27 46  1  0  0  0  0
 27 47  1  0  0  0  0
 28 48  1  0  0  0  0
 28 49  1  0  0  0  0
 28 50  1  0  0  0  0
 30 34  2  0  0  0  0
 30 51  1  0  0  0  0
 31 33  1  0  0  0  0
 31 52  1  0  0  0  0
 34 53  1  0  0  0  0
M  END
> <PUBCHEM_COMPOUND_CID>
443811

> <PUBCHEM_CONFORMER_RMSD>
0.8

> <PUBCHEM_CONFORMER_DIVERSEORDER>
2
9
14
11
8
18
19
16
5
10
13
7
1
4
15
12
3
17
6

> <PUBCHEM_MMFF94_PARTIAL_CHARGES>
39
1 -0.56
10 0.42
12 0.28
13 0.28
14 0.28
15 0.28
16 0.14
17 -0.14
18 -0.14
19 0.06
2 -0.68
20 0.09
21 0.09
22 0.42
23 0.09
24 0.09
25 0.08
26 0.09
29 0.4
3 -0.68
30 -0.15
31 -0.15
32 0.4
33 0.08
34 -0.15
4 -0.68
5 -0.53
51 0.15
52 0.15
53 0.15
54 0.4
55 0.4
56 0.4
57 0.45
58 0.45
6 -0.57
7 -0.53
8 -0.57
9 -0.57

> <PUBCHEM_EFFECTIVE_ROTOR_COUNT>
2.8

> <PUBCHEM_PHARMACOPHORE_FEATURES>
17
1 1 acceptor
1 2 acceptor
1 2 donor
1 3 acceptor
1 3 donor
1 4 acceptor
1 4 donor
1 5 donor
1 6 acceptor
1 7 donor
1 8 acceptor
1 9 acceptor
6 1 10 11 12 13 14 rings
6 15 16 18 19 20 22 rings
6 17 23 25 26 30 34 rings
6 18 20 21 24 31 33 rings
6 21 23 24 26 29 32 rings

> <PUBCHEM_HEAVY_ATOM_COUNT>
34

> <PUBCHEM_ATOM_DEF_STEREO_COUNT>
5

> <PUBCHEM_ATOM_UDEF_STEREO_COUNT>
0

> <PUBCHEM_BOND_DEF_STEREO_COUNT>
0

> <PUBCHEM_BOND_UDEF_STEREO_COUNT>
0

> <PUBCHEM_ISOTOPIC_ATOM_COUNT>
0

> <PUBCHEM_COMPONENT_COUNT>
1

> <PUBCHEM_CACTVS_TAUTO_COUNT>
129

> <PUBCHEM_CONFORMER_ID>
0006C5A300000002

> <PUBCHEM_MMFF94_ENERGY>
114.8154

> <PUBCHEM_FEATURE_SELFOVERLAP>
86.347

> <PUBCHEM_SHAPE_FINGERPRINT>
10050765 1 18122343480177451690
10411042 1 18192708063555309182
11135926 11 18334859442032972231
11497681 19 18119250559498472455
11646440 116 18187361030491187210
11719270 70 18411422825820381098
12107698 1 18186802495374229733
12166972 35 17846492608611873180
12236239 1 17675919898734140481
12664476 115 18060422426577285597
12838862 33 18336561451761974002
13533116 47 18040713645440634992
1361 2 18040712606222450390
13685833 64 18410287008321679994
13782708 43 18060134289674055067
13811026 1 18342459235521054953
13835254 42 17459180949789646520
14117953 113 18187640319725585974
14170010 4 18333170557617050394
14415361 349 17385443220237790966
14856354 85 16298385739479089149
15131766 46 16914515660116115420
15183329 4 18259983769100210343
15400415 2 17255121147386934281
15419008 47 17988928876971448789
15439362 3 17272555133269861268
15475509 35 13985206861525797324
15483637 11 18048878494192931998
15510794 2 18273210869062085963
15849732 13 17821732744878259190
16090146 7 15051441756147796272
17492 89 17975409432905829582
18365409 1 17023478430264728190
18608769 82 18130784530477326179
19841028 212 17202779236513315978
20028762 73 18186801396395566638
21033648 29 18130518427251838705
21033650 10 16630529583368285437
21267235 1 18409439298332377706
21279426 13 18342175544499656963
21781051 124 17987783129751543314
21792934 111 18334019397236012625
21792961 116 18201159939948088355
21859007 373 17987819491013353388
221357 26 18409730677071487604
22311459 1 18408884048891704466
23522609 53 17314486181494304345
23559900 14 18335987445824800496
23569914 152 17399820666321093303
24771293 8 17967819336508447456
24771750 20 18053649292583645452
249057 3 18335420149612337006
255183 451 17897713504411985542
27425 322 16557898993400574508
3004659 81 18272088297290446336
3178227 256 18410283701350206931
335352 9 18410290294588872494
3383291 50 18409727356919824139
350125 39 18410852170267960024
3633792 109 18335706078775880513
4073 2 17987792995407388771
4098825 35 16486983941544996715
4112364 45 5544615618164067858
46194498 28 17988644064857903108
474113 269 17559406945373650866
484989 97 18271516503435172403
9962374 69 18260839150238713311

> <PUBCHEM_SHAPE_MULTIPOLES>
646.88
21.4
2.62
1.16
16.13
1.37
0.28
-7.22
2.63
-2.7
-0.33
1.86
-0.2
1.76

> <PUBCHEM_SHAPE_SELFOVERLAP>
1448.052

> <PUBCHEM_SHAPE_VOLUME>
339.5

> <PUBCHEM_COORDINATE_TYPE>
2
5
10

$$$$

