25195328
  -OEChem-07051213122D

 40 43  0     1  0  0  0  0  0999 V2000
    2.8921   -2.0533    0.0000 O   0  0  0  0  0  0  0  0  0  0  0  0
    6.4604   -1.0229    0.0000 O   0  0  0  0  0  0  0  0  0  0  0  0
    2.0000    0.5258    0.0000 O   0  0  0  0  0  0  0  0  0  0  0  0
    2.9042    2.0226    0.0000 O   0  0  0  0  0  0  0  0  0  0  0  0
    3.7484    3.5541    0.0000 O   0  0  0  0  0  0  0  0  0  0  0  0
    3.7542   -1.5466    0.0000 C   0  0  1  0  0  0  0  0  0  0  0  0
    4.6523   -1.0189    0.0000 C   0  0  3  0  0  0  0  0  0  0  0  0
    2.8522   -1.0258    0.0000 C   0  0  0  0  0  0  0  0  0  0  0  0
    3.7459   -2.6316    0.0000 C   0  0  0  0  0  0  0  0  0  0  0  0
    4.6362    0.0226    0.0000 C   0  0  0  0  0  0  0  0  0  0  0  0
    3.7702    0.5226    0.0000 C   0  0  0  0  0  0  0  0  0  0  0  0
    5.6042   -1.5395    0.0000 C   0  0  0  0  0  0  0  0  0  0  0  0
    2.8602    0.0158    0.0000 C   0  0  0  0  0  0  0  0  0  0  0  0
    4.6855   -3.1741    0.0000 C   0  0  0  0  0  0  0  0  0  0  0  0
    5.6209   -2.6244    0.0000 C   0  0  0  0  0  0  0  0  0  0  0  0
    5.5022    0.5226    0.0000 C   0  0  0  0  0  0  0  0  0  0  0  0
    3.7702    1.5226    0.0000 C   0  0  0  0  0  0  0  0  0  0  0  0
    5.5022    1.5226    0.0000 C   0  0  0  0  0  0  0  0  0  0  0  0
    4.6362    2.0226    0.0000 C   0  0  0  0  0  0  0  0  0  0  0  0
    4.6894   -4.1741    0.0000 C   0  0  0  0  0  0  0  0  0  0  0  0
    6.4122    2.0295    0.0000 C   0  0  0  0  0  0  0  0  0  0  0  0
    4.6202    3.0642    0.0000 C   0  0  0  0  0  0  0  0  0  0  0  0
    5.5182    3.5919    0.0000 C   0  0  0  0  0  0  0  0  0  0  0  0
    6.4203    3.0711    0.0000 C   0  0  0  0  0  0  0  0  0  0  0  0
    5.3801   -0.5798    0.0000 H   0  0  0  0  0  0  0  0  0  0  0  0
    2.2421   -0.9150    0.0000 H   0  0  0  0  0  0  0  0  0  0  0  0
    2.6386   -1.6079    0.0000 H   0  0  0  0  0  0  0  0  0  0  0  0
    3.1358   -2.5208    0.0000 H   0  0  0  0  0  0  0  0  0  0  0  0
    3.5323   -3.2136    0.0000 H   0  0  0  0  0  0  0  0  0  0  0  0
    6.1614   -2.9281    0.0000 H   0  0  0  0  0  0  0  0  0  0  0  0
    6.0392    0.2126    0.0000 H   0  0  0  0  0  0  0  0  0  0  0  0
    2.8969   -2.6733    0.0000 H   0  0  0  0  0  0  0  0  0  0  0  0
    4.0694   -4.1765    0.0000 H   0  0  0  0  0  0  0  0  0  0  0  0
    4.6918   -4.7941    0.0000 H   0  0  0  0  0  0  0  0  0  0  0  0
    5.3094   -4.1717    0.0000 H   0  0  0  0  0  0  0  0  0  0  0  0
    6.9456    1.7133    0.0000 H   0  0  0  0  0  0  0  0  0  0  0  0
    2.9042    2.6426    0.0000 H   0  0  0  0  0  0  0  0  0  0  0  0
    5.5158    4.2119    0.0000 H   0  0  0  0  0  0  0  0  0  0  0  0
    6.9584    3.3790    0.0000 H   0  0  0  0  0  0  0  0  0  0  0  0
    3.7412    4.1741    0.0000 H   0  0  0  0  0  0  0  0  0  0  0  0
  6  1  1  6  0  0  0
  1 32  1  0  0  0  0
  2 12  2  0  0  0  0
  3 13  2  0  0  0  0
  4 17  1  0  0  0  0
  4 37  1  0  0  0  0
  5 22  1  0  0  0  0
  5 40  1  0  0  0  0
  6  7  1  0  0  0  0
  6  8  1  0  0  0  0
  6  9  1  0  0  0  0
  7 10  1  0  0  0  0
  7 12  1  0  0  0  0
  7 25  1  0  0  0  0
  8 13  1  0  0  0  0
  8 26  1  0  0  0  0
  8 27  1  0  0  0  0
  9 14  1  0  0  0  0
  9 28  1  0  0  0  0
  9 29  1  0  0  0  0
 10 11  2  0  0  0  0
 10 16  1  0  0  0  0
 11 13  1  0  0  0  0
 11 17  1  0  0  0  0
 12 15  1  0  0  0  0
 14 15  2  0  0  0  0
 14 20  1  0  0  0  0
 15 30  1  0  0  0  0
 16 18  2  0  0  0  0
 16 31  1  0  0  0  0
 17 19  2  0  0  0  0
 18 19  1  0  0  0  0
 18 21  1  0  0  0  0
 19 22  1  0  0  0  0
 20 33  1  0  0  0  0
 20 34  1  0  0  0  0
 20 35  1  0  0  0  0
 21 24  2  0  0  0  0
 21 36  1  0  0  0  0
 22 23  2  0  0  0  0
 23 24  1  0  0  0  0
 23 38  1  0  0  0  0
 24 39  1  0  0  0  0
M  END
> <PUBCHEM_COMPOUND_CID>
25195328

> <PUBCHEM_COMPOUND_CANONICALIZED>
1

> <PUBCHEM_CACTVS_COMPLEXITY>
611

> <PUBCHEM_CACTVS_HBOND_ACCEPTOR>
5

> <PUBCHEM_CACTVS_HBOND_DONOR>
3

> <PUBCHEM_CACTVS_ROTATABLE_BOND>
0

> <PUBCHEM_CACTVS_SUBSKEYS>
AAADceB4OAAAAAAAAAAAAAAAAAAAAAAAAAAwYMEAAAAAAADBUAAAGgAACAAADUSAmAAyBsAAAgCIAqBSAAACAAAkIAAIiAEGCMgIJzaCFRKAcUAl4BUImQeI7vTuwAADAAAYAADAAAYAADAAAAAAAAAAAA==

> <PUBCHEM_IUPAC_OPENEYE_NAME>
(4aR)-4a,7,8-trihydroxy-3-methyl-5,12b-dihydro-4H-benzo[a]anthracene-1,6-dione

> <PUBCHEM_IUPAC_CAS_NAME>
(4aR)-4a,7,8-trihydroxy-3-methyl-5,12b-dihydro-4H-benzo[a]anthracene-1,6-dione

> <PUBCHEM_IUPAC_NAME>
(4aR)-4a,7,8-trihydroxy-3-methyl-5,12b-dihydro-4H-benzo[a]anthracene-1,6-dione

> <PUBCHEM_IUPAC_SYSTEMATIC_NAME>
(4aR)-3-methyl-4a,7,8-tris(oxidanyl)-5,12b-dihydro-4H-benzo[a]anthracene-1,6-dione

> <PUBCHEM_IUPAC_TRADITIONAL_NAME>
(4aR)-4a,7,8-trihydroxy-3-methyl-5,12b-dihydro-4H-benz[a]anthracene-1,6-quinone

> <PUBCHEM_IUPAC_INCHI>
InChI=1S/C19H16O5/c1-9-5-13(21)17-11-6-10-3-2-4-12(20)15(10)18(23)16(11)14(22)8-19(17,24)7-9/h2-6,17,20,23-24H,7-8H2,1H3/t17?,19-/m1/s1

> <PUBCHEM_IUPAC_INCHIKEY>
DAZPSZLIQWNPOM-WHCXFUJUSA-N

> <PUBCHEM_XLOGP3_AA>
1.9

> <PUBCHEM_EXACT_MASS>
324.099774

> <PUBCHEM_MOLECULAR_FORMULA>
C19H16O5

> <PUBCHEM_MOLECULAR_WEIGHT>
324.32734

> <PUBCHEM_OPENEYE_CAN_SMILES>
CC1=CC(=O)C2C3=C(C(=O)CC2(C1)O)C(=C4C(=C3)C=CC=C4O)O

> <PUBCHEM_OPENEYE_ISO_SMILES>
CC1=CC(=O)C2C3=C(C(=O)C[C@@]2(C1)O)C(=C4C(=C3)C=CC=C4O)O

> <PUBCHEM_CACTVS_TPSA>
94.8

> <PUBCHEM_MONOISOTOPIC_WEIGHT>
324.099774

> <PUBCHEM_TOTAL_CHARGE>
0

> <PUBCHEM_HEAVY_ATOM_COUNT>
24

> <PUBCHEM_ATOM_DEF_STEREO_COUNT>
1

> <PUBCHEM_ATOM_UDEF_STEREO_COUNT>
1

> <PUBCHEM_BOND_DEF_STEREO_COUNT>
0

> <PUBCHEM_BOND_UDEF_STEREO_COUNT>
0

> <PUBCHEM_ISOTOPIC_ATOM_COUNT>
0

> <PUBCHEM_COMPONENT_COUNT>
1

> <PUBCHEM_CACTVS_TAUTO_COUNT>
629

> <PUBCHEM_COORDINATE_TYPE>
1
5
255

> <PUBCHEM_BONDANNOTATIONS>
6  1  6
10  11  8
10  16  8
11  17  8
16  18  8
17  19  8
18  19  8
18  21  8
19  22  8
21  24  8
22  23  8
23  24  8
7  25  3

$$$$

