443694
  -OEChem-07051213033D

 38 42  0     1  0  0  0  0  0999 V2000
   -0.4293    1.0605   -2.6027 O   0  0  0  0  0  0  0  0  0  0  0  0
   -3.5310   -1.9188    1.7907 O   0  0  0  0  0  0  0  0  0  0  0  0
    3.6749   -1.6556   -0.5798 O   0  0  0  0  0  0  0  0  0  0  0  0
    4.3944    0.1872    0.7945 O   0  0  0  0  0  0  0  0  0  0  0  0
   -1.5596    1.8852    0.6333 N   0  0  2  0  0  0  0  0  0  0  0  0
   -1.1136   -0.1178   -0.5214 C   0  0  1  0  0  0  0  0  0  0  0  0
   -1.9014    0.4433    0.6911 C   0  0  2  0  0  0  0  0  0  0  0  0
   -1.4213    0.9535   -1.5951 C   0  0  1  0  0  0  0  0  0  0  0  0
   -1.5995    2.2528   -0.8031 C   0  0  0  0  0  0  0  0  0  0  0  0
    0.3805   -0.0690   -0.1441 C   0  0  0  0  0  0  0  0  0  0  0  0
   -3.4140    0.1801    0.6088 C   0  0  0  0  0  0  0  0  0  0  0  0
   -0.1844    2.0473    1.1653 C   0  0  0  0  0  0  0  0  0  0  0  0
   -1.6388   -1.4713   -0.9449 C   0  0  0  0  0  0  0  0  0  0  0  0
    0.8213    1.0302    0.6556 C   0  0  0  0  0  0  0  0  0  0  0  0
   -3.6838   -1.3253    0.5036 C   0  0  1  0  0  0  0  0  0  0  0  0
   -2.7674   -2.0159   -0.4644 C   0  0  0  0  0  0  0  0  0  0  0  0
    1.3224   -1.0066   -0.5974 C   0  0  0  0  0  0  0  0  0  0  0  0
    2.1712    1.1651    1.0120 C   0  0  0  0  0  0  0  0  0  0  0  0
    2.6434   -0.8382   -0.2290 C   0  0  0  0  0  0  0  0  0  0  0  0
    3.0555    0.2140    0.5527 C   0  0  0  0  0  0  0  0  0  0  0  0
    4.7805   -1.0008    0.0742 C   0  0  0  0  0  0  0  0  0  0  0  0
   -1.5598    0.0041    1.6413 H   0  0  0  0  0  0  0  0  0  0  0  0
   -2.3675    0.7333   -2.1074 H   0  0  0  0  0  0  0  0  0  0  0  0
   -0.8669    3.0225   -1.0729 H   0  0  0  0  0  0  0  0  0  0  0  0
   -2.5872    2.6775   -1.0196 H   0  0  0  0  0  0  0  0  0  0  0  0
   -3.8580    0.6839   -0.2582 H   0  0  0  0  0  0  0  0  0  0  0  0
   -3.9015    0.5907    1.5020 H   0  0  0  0  0  0  0  0  0  0  0  0
   -0.2345    1.9518    2.2579 H   0  0  0  0  0  0  0  0  0  0  0  0
    0.1746    3.0634    0.9594 H   0  0  0  0  0  0  0  0  0  0  0  0
   -1.0929   -2.0314   -1.6990 H   0  0  0  0  0  0  0  0  0  0  0  0
   -4.7247   -1.4729    0.1945 H   0  0  0  0  0  0  0  0  0  0  0  0
   -3.0644   -3.0010   -0.8140 H   0  0  0  0  0  0  0  0  0  0  0  0
    1.0494   -1.8441   -1.2281 H   0  0  0  0  0  0  0  0  0  0  0  0
   -0.3549    0.1915   -3.0325 H   0  0  0  0  0  0  0  0  0  0  0  0
    2.5091    1.9905    1.6295 H   0  0  0  0  0  0  0  0  0  0  0  0
   -3.7442   -2.8642    1.7089 H   0  0  0  0  0  0  0  0  0  0  0  0
    5.5237   -0.7262   -0.6831 H   0  0  0  0  0  0  0  0  0  0  0  0
    5.2390   -1.7047    0.7782 H   0  0  0  0  0  0  0  0  0  0  0  0
  1  8  1  0  0  0  0
  1 34  1  0  0  0  0
  2 15  1  0  0  0  0
  2 36  1  0  0  0  0
  3 19  1  0  0  0  0
  3 21  1  0  0  0  0
  4 20  1  0  0  0  0
  4 21  1  0  0  0  0
  5  7  1  0  0  0  0
  5  9  1  0  0  0  0
  5 12  1  0  0  0  0
  6  7  1  0  0  0  0
  6  8  1  0  0  0  0
  6 10  1  0  0  0  0
  6 13  1  0  0  0  0
  7 11  1  0  0  0  0
  7 22  1  0  0  0  0
  8  9  1  0  0  0  0
  8 23  1  0  0  0  0
  9 24  1  0  0  0  0
  9 25  1  0  0  0  0
 10 14  1  0  0  0  0
 10 17  2  0  0  0  0
 11 15  1  0  0  0  0
 11 26  1  0  0  0  0
 11 27  1  0  0  0  0
 12 14  1  0  0  0  0
 12 28  1  0  0  0  0
 12 29  1  0  0  0  0
 13 16  2  0  0  0  0
 13 30  1  0  0  0  0
 14 18  2  0  0  0  0
 15 16  1  0  0  0  0
 15 31  1  0  0  0  0
 16 32  1  0  0  0  0
 17 19  1  0  0  0  0
 17 33  1  0  0  0  0
 18 20  1  0  0  0  0
 18 35  1  0  0  0  0
 19 20  2  0  0  0  0
 21 37  1  0  0  0  0
 21 38  1  0  0  0  0
M  END
> <PUBCHEM_COMPOUND_CID>
443694

> <PUBCHEM_CONFORMER_RMSD>
0.6

> <PUBCHEM_CONFORMER_DIVERSEORDER>
1

> <PUBCHEM_MMFF94_PARTIAL_CHARGES>
26
1 -0.68
10 -0.14
12 0.41
13 -0.29
14 -0.14
15 0.42
16 -0.29
17 -0.15
18 -0.15
19 0.08
2 -0.68
20 0.08
21 0.56
3 -0.36
30 0.15
32 0.15
33 0.15
34 0.4
35 0.15
36 0.4
4 -0.36
5 -0.81
6 0.28
7 0.27
8 0.28
9 0.27

> <PUBCHEM_EFFECTIVE_ROTOR_COUNT>
1.6

> <PUBCHEM_PHARMACOPHORE_FEATURES>
11
1 1 acceptor
1 1 donor
1 2 acceptor
1 2 donor
1 3 acceptor
1 4 acceptor
1 5 cation
5 3 4 19 20 21 rings
6 10 14 17 18 19 20 rings
6 6 7 11 13 15 16 rings
8 5 6 7 8 9 10 12 14 rings

> <PUBCHEM_HEAVY_ATOM_COUNT>
21

> <PUBCHEM_ATOM_DEF_STEREO_COUNT>
3

> <PUBCHEM_ATOM_UDEF_STEREO_COUNT>
1

> <PUBCHEM_BOND_DEF_STEREO_COUNT>
0

> <PUBCHEM_BOND_UDEF_STEREO_COUNT>
0

> <PUBCHEM_ISOTOPIC_ATOM_COUNT>
0

> <PUBCHEM_COMPONENT_COUNT>
1

> <PUBCHEM_CACTVS_TAUTO_COUNT>
1

> <PUBCHEM_CONFORMER_ID>
0006C52E00000001

> <PUBCHEM_MMFF94_ENERGY>
65.1274

> <PUBCHEM_FEATURE_SELFOVERLAP>
56.011

> <PUBCHEM_SHAPE_FINGERPRINT>
11132069 177 18114465582464679314
11552529 35 16806174232957655103
11578080 2 18129394725856997717
11725454 13 7060113107352870739
12011746 2 18261114114630552613
12251169 10 17822286843120341411
12403814 3 18273215300407817789
12633257 1 17604416427975304691
12714826 92 18272377485368881693
12892183 10 17314226649083060643
13024252 1 14261058948150239285
13140716 1 18113620040816507931
13214271 11 17895198821932866308
13224815 77 18187657903163023842
13296908 3 18260554463169777530
13544653 18 18339078186011158587
14223421 5 18261950876874999702
14787075 74 18267586815039631602
14790565 3 17469325829319172240
15061688 2 6915996832856056323
15209289 33 18413385427963123458
15309172 13 15791730814794288901
15653759 3 18408887356089992282
16945 1 17823695270492460737
17357779 13 18195833819913654759
17844478 74 18410013225678927520
1813 80 17917427579939674421
18186145 218 8862400737590038267
18927931 339 18041568065455977390
19141452 34 18114181904676336279
192875 21 12030969996572305780
200 152 17313965064231519549
20361792 2 17489591112966337343
23402539 116 16917071074819323022
23419403 2 18126869117698944733
23493267 7 18197225955915787272
23557571 272 18059871549007085620
23559900 14 18043537333899834522
23566358 27 18192425273701323460
2748010 2 18115045055468557104
2838139 119 6121677674146952643
5104073 3 18187651366444651570
6442390 28 17481435189284189501
6786 2 17050782915659563453
83771 10 18408323259179888314
8809292 202 18408040727820856706
9709674 26 17823700961350541014

> <PUBCHEM_SHAPE_MULTIPOLES>
403.71
7.01
2.22
1.47
5.88
0.25
-0.57
-3.76
2.06
-1.12
0.09
-0.89
0.28
0.93

> <PUBCHEM_SHAPE_SELFOVERLAP>
915.556

> <PUBCHEM_SHAPE_VOLUME>
210.4

> <PUBCHEM_COORDINATE_TYPE>
2
5
10

$$$$

