155764
  -OEChem-07051212573D

 50 52  0     1  0  0  0  0  0999 V2000
   -5.0628    0.6092    0.8554 O   0  0  0  0  0  0  0  0  0  0  0  0
    3.5184    2.8180    0.2479 O   0  0  0  0  0  0  0  0  0  0  0  0
   -1.5658   -0.6727    0.0401 C   0  0  1  0  0  0  0  0  0  0  0  0
   -0.9022    0.6848   -0.4079 C   0  0  1  0  0  0  0  0  0  0  0  0
   -3.1379   -0.7100    0.1015 C   0  0  0  0  0  0  0  0  0  0  0  0
   -1.5242    1.8250    0.4438 C   0  0  0  0  0  0  0  0  0  0  0  0
   -3.6393    0.5226    0.9061 C   0  0  1  0  0  0  0  0  0  0  0  0
   -0.9302   -1.8428   -0.7294 C   0  0  0  0  0  0  0  0  0  0  0  0
   -3.0489    1.8425    0.4241 C   0  0  0  0  0  0  0  0  0  0  0  0
    0.6288    0.5844   -0.2005 C   0  0  0  0  0  0  0  0  0  0  0  0
    0.5479   -1.9720   -0.3730 C   0  0  0  0  0  0  0  0  0  0  0  0
   -1.0760    1.0290   -1.9075 C   0  0  0  0  0  0  0  0  0  0  0  0
   -3.8229   -0.7982   -1.2784 C   0  0  0  0  0  0  0  0  0  0  0  0
   -3.5930   -1.9769    0.8818 C   0  0  0  0  0  0  0  0  0  0  0  0
    1.2855   -0.6651   -0.2335 C   0  0  0  0  0  0  0  0  0  0  0  0
    1.4183    1.7425   -0.0468 C   0  0  0  0  0  0  0  0  0  0  0  0
    2.6832   -0.7262   -0.0797 C   0  0  0  0  0  0  0  0  0  0  0  0
    2.8048    1.6665    0.0990 C   0  0  0  0  0  0  0  0  0  0  0  0
    3.4377    0.4314    0.0851 C   0  0  0  0  0  0  0  0  0  0  0  0
    3.3883   -2.0098   -0.0780 C   0  0  0  0  0  0  0  0  0  0  0  0
    4.9255    0.3751    0.2472 C   0  0  0  0  0  0  0  0  0  0  0  0
    3.6648   -2.7572    1.0031 C   0  0  0  0  0  0  0  0  0  0  0  0
   -1.2576   -0.8099    1.0915 H   0  0  0  0  0  0  0  0  0  0  0  0
   -1.1812    2.8078    0.0990 H   0  0  0  0  0  0  0  0  0  0  0  0
   -1.1884    1.7308    1.4857 H   0  0  0  0  0  0  0  0  0  0  0  0
   -3.3728    0.3955    1.9632 H   0  0  0  0  0  0  0  0  0  0  0  0
   -1.0408   -1.7080   -1.8101 H   0  0  0  0  0  0  0  0  0  0  0  0
   -1.4121   -2.7970   -0.4971 H   0  0  0  0  0  0  0  0  0  0  0  0
   -3.4097    2.6523    1.0713 H   0  0  0  0  0  0  0  0  0  0  0  0
   -3.4225    2.0958   -0.5745 H   0  0  0  0  0  0  0  0  0  0  0  0
    1.0166   -2.5995   -1.1407 H   0  0  0  0  0  0  0  0  0  0  0  0
    0.6170   -2.5042    0.5851 H   0  0  0  0  0  0  0  0  0  0  0  0
   -0.6390    0.2713   -2.5659 H   0  0  0  0  0  0  0  0  0  0  0  0
   -2.1152    1.1647   -2.2002 H   0  0  0  0  0  0  0  0  0  0  0  0
   -0.5715    1.9727   -2.1530 H   0  0  0  0  0  0  0  0  0  0  0  0
   -3.3630   -1.5620   -1.9126 H   0  0  0  0  0  0  0  0  0  0  0  0
   -4.8798   -1.0750   -1.1781 H   0  0  0  0  0  0  0  0  0  0  0  0
   -3.8110    0.1465   -1.8215 H   0  0  0  0  0  0  0  0  0  0  0  0
   -3.0898   -2.0478    1.8526 H   0  0  0  0  0  0  0  0  0  0  0  0
   -4.6721   -1.9624    1.0742 H   0  0  0  0  0  0  0  0  0  0  0  0
   -3.3861   -2.8974    0.3272 H   0  0  0  0  0  0  0  0  0  0  0  0
    0.9624    2.7289   -0.0532 H   0  0  0  0  0  0  0  0  0  0  0  0
   -5.3205    0.9263   -0.0265 H   0  0  0  0  0  0  0  0  0  0  0  0
    3.6987   -2.3684   -1.0566 H   0  0  0  0  0  0  0  0  0  0  0  0
    5.4148    1.1295   -0.3800 H   0  0  0  0  0  0  0  0  0  0  0  0
    5.1962    0.5478    1.2942 H   0  0  0  0  0  0  0  0  0  0  0  0
    5.3755   -0.5715   -0.0635 H   0  0  0  0  0  0  0  0  0  0  0  0
    4.4014    2.6348    0.6049 H   0  0  0  0  0  0  0  0  0  0  0  0
    4.1915   -3.6993    0.8982 H   0  0  0  0  0  0  0  0  0  0  0  0
    3.3720   -2.4430    1.9991 H   0  0  0  0  0  0  0  0  0  0  0  0
  1  7  1  0  0  0  0
  1 43  1  0  0  0  0
  2 18  1  0  0  0  0
  2 48  1  0  0  0  0
  3  4  1  0  0  0  0
  3  5  1  0  0  0  0
  3  8  1  0  0  0  0
  3 23  1  0  0  0  0
  4  6  1  0  0  0  0
  4 10  1  0  0  0  0
  4 12  1  0  0  0  0
  5  7  1  0  0  0  0
  5 13  1  0  0  0  0
  5 14  1  0  0  0  0
  6  9  1  0  0  0  0
  6 24  1  0  0  0  0
  6 25  1  0  0  0  0
  7  9  1  0  0  0  0
  7 26  1  0  0  0  0
  8 11  1  0  0  0  0
  8 27  1  0  0  0  0
  8 28  1  0  0  0  0
  9 29  1  0  0  0  0
  9 30  1  0  0  0  0
 10 15  1  0  0  0  0
 10 16  2  0  0  0  0
 11 15  1  0  0  0  0
 11 31  1  0  0  0  0
 11 32  1  0  0  0  0
 12 33  1  0  0  0  0
 12 34  1  0  0  0  0
 12 35  1  0  0  0  0
 13 36  1  0  0  0  0
 13 37  1  0  0  0  0
 13 38  1  0  0  0  0
 14 39  1  0  0  0  0
 14 40  1  0  0  0  0
 14 41  1  0  0  0  0
 15 17  2  0  0  0  0
 16 18  1  0  0  0  0
 16 42  1  0  0  0  0
 17 19  1  0  0  0  0
 17 20  1  0  0  0  0
 18 19  2  0  0  0  0
 19 21  1  0  0  0  0
 20 22  2  0  0  0  0
 20 44  1  0  0  0  0
 21 45  1  0  0  0  0
 21 46  1  0  0  0  0
 21 47  1  0  0  0  0
 22 49  1  0  0  0  0
 22 50  1  0  0  0  0
M  END
> <PUBCHEM_COMPOUND_CID>
155764

> <PUBCHEM_CONFORMER_RMSD>
0.6

> <PUBCHEM_CONFORMER_DIVERSEORDER>
1
2

> <PUBCHEM_MMFF94_PARTIAL_CHARGES>
20
1 -0.68
10 -0.14
11 0.14
15 -0.14
16 -0.15
17 0.03
18 0.08
19 -0.14
2 -0.53
20 -0.18
21 0.14
22 -0.3
4 0.14
42 0.15
43 0.4
44 0.15
48 0.45
49 0.15
50 0.15
7 0.28

> <PUBCHEM_EFFECTIVE_ROTOR_COUNT>
2.2

> <PUBCHEM_PHARMACOPHORE_FEATURES>
8
1 1 acceptor
1 1 donor
1 2 donor
1 22 hydrophobe
3 5 13 14 hydrophobe
6 10 15 16 17 18 19 rings
6 3 4 5 6 7 9 rings
6 3 4 8 10 11 15 rings

> <PUBCHEM_HEAVY_ATOM_COUNT>
22

> <PUBCHEM_ATOM_DEF_STEREO_COUNT>
3

> <PUBCHEM_ATOM_UDEF_STEREO_COUNT>
0

> <PUBCHEM_BOND_DEF_STEREO_COUNT>
0

> <PUBCHEM_BOND_UDEF_STEREO_COUNT>
0

> <PUBCHEM_ISOTOPIC_ATOM_COUNT>
0

> <PUBCHEM_COMPONENT_COUNT>
1

> <PUBCHEM_CACTVS_TAUTO_COUNT>
3

> <PUBCHEM_CONFORMER_ID>
0002607400000001

> <PUBCHEM_MMFF94_ENERGY>
92.8947

> <PUBCHEM_FEATURE_SELFOVERLAP>
40.63

> <PUBCHEM_SHAPE_FINGERPRINT>
10062212 137 18187370947650138607
10366900 7 18131346380660234562
10616163 171 18335980874392845118
10863032 1 18409444756903449601
10967382 1 18337392647628494332
11578080 2 17488475237755815892
12107183 9 17904195180769345737
12236239 1 17676207961420608213
12251169 10 18410290319773152496
12553582 1 18050856808201372190
12633257 1 18263634237998837011
12644460 14 18342174479817129962
12670546 56 18040442053009274012
12788726 201 17749940184798563600
12892183 10 18339917104882712683
13140716 1 18337389460446340704
13224815 77 18342176635299836007
13533116 47 18411421717718363939
13544653 18 18270957947681602883
13583140 156 17417270782709446600
14178342 30 17974868180820401154
14223421 5 18413671296564198798
14289901 80 18261678090500746673
14341114 176 18338225059197424536
14787075 74 17825386276136260937
14790565 3 17909256993276334732
14866123 147 16678938047675431954
15196674 1 18408884061655046651
15442244 35 18337110184798736626
15536298 74 18333729134966833526
16945 1 18265050232523024469
17492 89 18408601465750751487
17804303 29 18268420416061444271
1813 80 17132105853528927749
19050596 39 18409164394070333832
19591789 44 18410008806542870806
200 152 18187940469003418709
20028762 73 18187373155211367935
20281475 54 18273491282110904670
21267235 1 18336537240224549286
21501502 16 18335422378351794501
221490 88 18412255143126468090
22182313 1 17988379146800328580
23184049 59 18410852178836730607
2334 1 18408886234966514340
23366157 5 18201998829002868996
23402539 116 18040721337642458189
23463225 33 18410572911583726508
23559900 14 18336548308534398370
2748010 2 18266752440232739062
3286 77 18270959167024715828
335352 9 18193555807513537653
350125 39 18411134719445450052
4409770 3 17121991682778925348
5104073 3 18408601478703407563
7097593 13 18198349644131211442
7364860 26 18408042901569920734
84936 31 16299787766126448839
9709674 26 18408598171399520110

> <PUBCHEM_SHAPE_MULTIPOLES>
441.01
8.78
2.77
1.07
0.21
0.26
0.28
0.52
-2.19
1.73
-0.4
-0.77
0.06
-0.4

> <PUBCHEM_SHAPE_SELFOVERLAP>
942.115

> <PUBCHEM_SHAPE_VOLUME>
245.5

> <PUBCHEM_COORDINATE_TYPE>
2
5
10

$$$$

