17396145
  -OEChem-06241222542D

 40 42  0     1  0  0  0  0  0999 V2000
    4.5981    1.9426    0.0000 S   0  0  0  0  0  0  0  0  0  0  0  0
    2.8660   -5.0573    0.0000 F   0  0  0  0  0  0  0  0  0  0  0  0
    6.9535    4.5586    0.0000 O   0  0  0  0  0  0  0  0  0  0  0  0
    2.8660    0.9426    0.0000 O   0  0  0  0  0  0  0  0  0  0  0  0
    5.5686    3.4372    0.0000 N   0  0  0  0  0  0  0  0  0  0  0  0
    7.0468    2.7790    0.0000 N   0  0  0  0  0  0  0  0  0  0  0  0
    6.3776    2.0359    0.0000 N   0  0  0  0  0  0  0  0  0  0  0  0
    3.7320   -0.5574    0.0000 N   0  0  0  0  0  0  0  0  0  0  0  0
    4.8255    4.1063    0.0000 C   0  0  0  0  0  0  0  0  0  0  0  0
    4.5165    5.0573    0.0000 C   0  0  0  0  0  0  0  0  0  0  0  0
    3.8473    4.3142    0.0000 C   0  0  0  0  0  0  0  0  0  0  0  0
    5.4641    2.4426    0.0000 C   0  0  0  0  0  0  0  0  0  0  0  0
    6.5468    3.6451    0.0000 C   0  0  0  0  0  0  0  0  0  0  0  0
    4.5981    0.9426    0.0000 C   0  0  3  0  0  0  0  0  0  0  0  0
    3.7320    0.4426    0.0000 C   0  0  0  0  0  0  0  0  0  0  0  0
    5.4641    0.4426    0.0000 C   0  0  0  0  0  0  0  0  0  0  0  0
    2.8660   -1.0574    0.0000 C   0  0  0  0  0  0  0  0  0  0  0  0
    2.8660   -2.0574    0.0000 C   0  0  0  0  0  0  0  0  0  0  0  0
    2.0000   -2.5574    0.0000 C   0  0  0  0  0  0  0  0  0  0  0  0
    3.7320   -2.5574    0.0000 C   0  0  0  0  0  0  0  0  0  0  0  0
    2.0000   -3.5574    0.0000 C   0  0  0  0  0  0  0  0  0  0  0  0
    3.7320   -3.5574    0.0000 C   0  0  0  0  0  0  0  0  0  0  0  0
    2.8660   -4.0573    0.0000 C   0  0  0  0  0  0  0  0  0  0  0  0
    5.3455    4.4440    0.0000 H   0  0  0  0  0  0  0  0  0  0  0  0
    3.3216    4.6428    0.0000 H   0  0  0  0  0  0  0  0  0  0  0  0
    3.6151    3.7394    0.0000 H   0  0  0  0  0  0  0  0  0  0  0  0
    5.0639    5.3484    0.0000 H   0  0  0  0  0  0  0  0  0  0  0  0
    4.1348    5.5459    0.0000 H   0  0  0  0  0  0  0  0  0  0  0  0
    7.6634    2.7142    0.0000 H   0  0  0  0  0  0  0  0  0  0  0  0
    5.1350    1.2526    0.0000 H   0  0  0  0  0  0  0  0  0  0  0  0
    5.1541   -0.0943    0.0000 H   0  0  0  0  0  0  0  0  0  0  0  0
    6.0010    0.1326    0.0000 H   0  0  0  0  0  0  0  0  0  0  0  0
    5.7741    0.9796    0.0000 H   0  0  0  0  0  0  0  0  0  0  0  0
    4.2690   -0.8674    0.0000 H   0  0  0  0  0  0  0  0  0  0  0  0
    2.6540   -0.4747    0.0000 H   0  0  0  0  0  0  0  0  0  0  0  0
    2.2554   -1.1650    0.0000 H   0  0  0  0  0  0  0  0  0  0  0  0
    1.4631   -2.2474    0.0000 H   0  0  0  0  0  0  0  0  0  0  0  0
    4.2690   -2.2474    0.0000 H   0  0  0  0  0  0  0  0  0  0  0  0
    1.4631   -3.8674    0.0000 H   0  0  0  0  0  0  0  0  0  0  0  0
    4.2690   -3.8674    0.0000 H   0  0  0  0  0  0  0  0  0  0  0  0
  1 12  1  0  0  0  0
  1 14  1  0  0  0  0
  2 23  1  0  0  0  0
  3 13  2  0  0  0  0
  4 15  2  0  0  0  0
  5  9  1  0  0  0  0
  5 12  1  0  0  0  0
  5 13  1  0  0  0  0
  6  7  1  0  0  0  0
  6 13  1  0  0  0  0
  6 29  1  0  0  0  0
  7 12  2  0  0  0  0
  8 15  1  0  0  0  0
  8 17  1  0  0  0  0
  8 34  1  0  0  0  0
  9 10  1  0  0  0  0
  9 11  1  0  0  0  0
  9 24  1  0  0  0  0
 10 11  1  0  0  0  0
 10 27  1  0  0  0  0
 10 28  1  0  0  0  0
 11 25  1  0  0  0  0
 11 26  1  0  0  0  0
 14 15  1  0  0  0  0
 14 16  1  0  0  0  0
 14 30  1  0  0  0  0
 16 31  1  0  0  0  0
 16 32  1  0  0  0  0
 16 33  1  0  0  0  0
 17 18  1  0  0  0  0
 17 35  1  0  0  0  0
 17 36  1  0  0  0  0
 18 19  2  0  0  0  0
 18 20  1  0  0  0  0
 19 21  1  0  0  0  0
 19 37  1  0  0  0  0
 20 22  2  0  0  0  0
 20 38  1  0  0  0  0
 21 23  2  0  0  0  0
 21 39  1  0  0  0  0
 22 23  1  0  0  0  0
 22 40  1  0  0  0  0
M  END
> <PUBCHEM_COMPOUND_CID>
17396145

> <PUBCHEM_COMPOUND_CANONICALIZED>
1

> <PUBCHEM_CACTVS_COMPLEXITY>
504

> <PUBCHEM_CACTVS_HBOND_ACCEPTOR>
5

> <PUBCHEM_CACTVS_HBOND_DONOR>
2

> <PUBCHEM_CACTVS_ROTATABLE_BOND>
6

> <PUBCHEM_CACTVS_SUBSKEYS>
AAADceBzsQBAAAAAAAAAAAAAGAAAAQAAAAAwAAAAAAAAAAABAAAAHwQYAAAADCjF2AyzAIPiAAioAiFSMACSAABgABAPiIEIBIiIICKAmRGEIAhglgKIiAcQgAAOAAAAAAAAAAAAAAAAAAAAAAAAAAAAAA==

> <PUBCHEM_IUPAC_OPENEYE_NAME>
2-[(4-cyclopropyl-5-oxo-1H-1,2,4-triazol-3-yl)sulfanyl]-N-[(4-fluorophenyl)methyl]propanamide

> <PUBCHEM_IUPAC_CAS_NAME>
2-[(4-cyclopropyl-5-oxo-1H-1,2,4-triazol-3-yl)thio]-N-[(4-fluorophenyl)methyl]propanamide

> <PUBCHEM_IUPAC_NAME>
2-[(4-cyclopropyl-5-oxo-1H-1,2,4-triazol-3-yl)sulfanyl]-N-[(4-fluorophenyl)methyl]propanamide

> <PUBCHEM_IUPAC_SYSTEMATIC_NAME>
2-[(4-cyclopropyl-5-oxidanylidene-1H-1,2,4-triazol-3-yl)sulfanyl]-N-[(4-fluorophenyl)methyl]propanamide

> <PUBCHEM_IUPAC_TRADITIONAL_NAME>
2-[(4-cyclopropyl-5-keto-1H-1,2,4-triazol-3-yl)thio]-N-(4-fluorobenzyl)propionamide

> <PUBCHEM_IUPAC_INCHI>
InChI=1S/C15H17FN4O2S/c1-9(13(21)17-8-10-2-4-11(16)5-3-10)23-15-19-18-14(22)20(15)12-6-7-12/h2-5,9,12H,6-8H2,1H3,(H,17,21)(H,18,22)

> <PUBCHEM_IUPAC_INCHIKEY>
NOVHULYPIQTQKM-UHFFFAOYSA-N

> <PUBCHEM_XLOGP3_AA>
2.2

> <PUBCHEM_EXACT_MASS>
336.105625

> <PUBCHEM_MOLECULAR_FORMULA>
C15H17FN4O2S

> <PUBCHEM_MOLECULAR_WEIGHT>
336.384483

> <PUBCHEM_OPENEYE_CAN_SMILES>
CC(C(=O)NCC1=CC=C(C=C1)F)SC2=NNC(=O)N2C3CC3

> <PUBCHEM_OPENEYE_ISO_SMILES>
CC(C(=O)NCC1=CC=C(C=C1)F)SC2=NNC(=O)N2C3CC3

> <PUBCHEM_CACTVS_TPSA>
99.1

> <PUBCHEM_MONOISOTOPIC_WEIGHT>
336.105625

> <PUBCHEM_TOTAL_CHARGE>
0

> <PUBCHEM_HEAVY_ATOM_COUNT>
23

> <PUBCHEM_ATOM_DEF_STEREO_COUNT>
0

> <PUBCHEM_ATOM_UDEF_STEREO_COUNT>
1

> <PUBCHEM_BOND_DEF_STEREO_COUNT>
0

> <PUBCHEM_BOND_UDEF_STEREO_COUNT>
0

> <PUBCHEM_ISOTOPIC_ATOM_COUNT>
0

> <PUBCHEM_COMPONENT_COUNT>
1

> <PUBCHEM_CACTVS_TAUTO_COUNT>
4

> <PUBCHEM_COORDINATE_TYPE>
1
5
255

> <PUBCHEM_BONDANNOTATIONS>
14  16  3
18  19  8
18  20  8
19  21  8
20  22  8
21  23  8
22  23  8
5  12  8
5  13  8
6  13  8
6  7  8
7  12  8

$$$$

