155764
  -OEChem-07051212562D

 50 52  0     1  0  0  0  0  0999 V2000
    2.5381   -2.0095    0.0000 O   0  0  0  0  0  0  0  0  0  0  0  0
    6.9464    2.5839    0.0000 O   0  0  0  0  0  0  0  0  0  0  0  0
    5.2022   -1.4854    0.0000 C   0  0  1  0  0  0  0  0  0  0  0  0
    5.2022   -0.4854    0.0000 C   0  0  1  0  0  0  0  0  0  0  0  0
    4.3083   -2.0200    0.0000 C   0  0  0  0  0  0  0  0  0  0  0  0
    4.3083    0.0493    0.0000 C   0  0  0  0  0  0  0  0  0  0  0  0
    3.4022   -1.5062    0.0000 C   0  0  1  0  0  0  0  0  0  0  0  0
    6.0682   -1.9854    0.0000 C   0  0  0  0  0  0  0  0  0  0  0  0
    3.4022   -0.4646    0.0000 C   0  0  0  0  0  0  0  0  0  0  0  0
    6.0682    0.0146    0.0000 C   0  0  0  0  0  0  0  0  0  0  0  0
    6.9343   -1.4854    0.0000 C   0  0  0  0  0  0  0  0  0  0  0  0
    5.2022    0.5146    0.0000 C   0  0  0  0  0  0  0  0  0  0  0  0
    3.8183   -2.8918    0.0000 C   0  0  0  0  0  0  0  0  0  0  0  0
    4.8183   -2.8802    0.0000 C   0  0  0  0  0  0  0  0  0  0  0  0
    6.9343   -0.4854    0.0000 C   0  0  0  0  0  0  0  0  0  0  0  0
    6.0522    1.0561    0.0000 C   0  0  0  0  0  0  0  0  0  0  0  0
    7.8443    0.0215    0.0000 C   0  0  0  0  0  0  0  0  0  0  0  0
    6.9502    1.5839    0.0000 C   0  0  0  0  0  0  0  0  0  0  0  0
    7.8523    1.0631    0.0000 C   0  0  0  0  0  0  0  0  0  0  0  0
    8.7045   -0.4885    0.0000 C   0  0  0  0  0  0  0  0  0  0  0  0
    8.7202    1.5597    0.0000 C   0  0  0  0  0  0  0  0  0  0  0  0
    9.5762    0.0014    0.0000 C   0  0  0  0  0  0  0  0  0  0  0  0
    5.2088   -2.3354    0.0000 H   0  0  0  0  0  0  0  0  0  0  0  0
    4.7129    0.5191    0.0000 H   0  0  0  0  0  0  0  0  0  0  0  0
    3.9147    0.5283    0.0000 H   0  0  0  0  0  0  0  0  0  0  0  0
    2.8647   -1.1972    0.0000 H   0  0  0  0  0  0  0  0  0  0  0  0
    5.6697   -2.4603    0.0000 H   0  0  0  0  0  0  0  0  0  0  0  0
    6.4668   -2.4603    0.0000 H   0  0  0  0  0  0  0  0  0  0  0  0
    3.1932    0.1191    0.0000 H   0  0  0  0  0  0  0  0  0  0  0  0
    2.7914   -0.5707    0.0000 H   0  0  0  0  0  0  0  0  0  0  0  0
    7.1463   -2.0680    0.0000 H   0  0  0  0  0  0  0  0  0  0  0  0
    7.5449   -1.3777    0.0000 H   0  0  0  0  0  0  0  0  0  0  0  0
    5.8222    0.5146    0.0000 H   0  0  0  0  0  0  0  0  0  0  0  0
    5.2022    1.1346    0.0000 H   0  0  0  0  0  0  0  0  0  0  0  0
    4.5822    0.5146    0.0000 H   0  0  0  0  0  0  0  0  0  0  0  0
    3.2778   -2.5880    0.0000 H   0  0  0  0  0  0  0  0  0  0  0  0
    3.5146   -3.4323    0.0000 H   0  0  0  0  0  0  0  0  0  0  0  0
    4.3588   -3.1956    0.0000 H   0  0  0  0  0  0  0  0  0  0  0  0
    4.2850   -3.1964    0.0000 H   0  0  0  0  0  0  0  0  0  0  0  0
    5.1344   -3.4136    0.0000 H   0  0  0  0  0  0  0  0  0  0  0  0
    5.3516   -2.5640    0.0000 H   0  0  0  0  0  0  0  0  0  0  0  0
    5.5117    1.3599    0.0000 H   0  0  0  0  0  0  0  0  0  0  0  0
    2.0000   -1.7016    0.0000 H   0  0  0  0  0  0  0  0  0  0  0  0
    8.6973   -1.1085    0.0000 H   0  0  0  0  0  0  0  0  0  0  0  0
    9.0282    1.0216    0.0000 H   0  0  0  0  0  0  0  0  0  0  0  0
    9.2584    1.8676    0.0000 H   0  0  0  0  0  0  0  0  0  0  0  0
    8.4123    2.0978    0.0000 H   0  0  0  0  0  0  0  0  0  0  0  0
    6.4082    2.8918    0.0000 H   0  0  0  0  0  0  0  0  0  0  0  0
   10.1095   -0.3148    0.0000 H   0  0  0  0  0  0  0  0  0  0  0  0
    9.5834    0.6214    0.0000 H   0  0  0  0  0  0  0  0  0  0  0  0
  7  1  1  6  0  0  0
  1 43  1  0  0  0  0
  2 18  1  0  0  0  0
  2 48  1  0  0  0  0
  3  4  1  0  0  0  0
  3  5  1  0  0  0  0
  3  8  1  0  0  0  0
  3 23  1  1  0  0  0
  4  6  1  0  0  0  0
  4 10  1  0  0  0  0
  4 12  1  6  0  0  0
  5  7  1  0  0  0  0
  5 13  1  0  0  0  0
  5 14  1  0  0  0  0
  6  9  1  0  0  0  0
  6 24  1  0  0  0  0
  6 25  1  0  0  0  0
  7  9  1  0  0  0  0
  7 26  1  0  0  0  0
  8 11  1  0  0  0  0
  8 27  1  0  0  0  0
  8 28  1  0  0  0  0
  9 29  1  0  0  0  0
  9 30  1  0  0  0  0
 10 15  1  0  0  0  0
 10 16  2  0  0  0  0
 11 15  1  0  0  0  0
 11 31  1  0  0  0  0
 11 32  1  0  0  0  0
 12 33  1  0  0  0  0
 12 34  1  0  0  0  0
 12 35  1  0  0  0  0
 13 36  1  0  0  0  0
 13 37  1  0  0  0  0
 13 38  1  0  0  0  0
 14 39  1  0  0  0  0
 14 40  1  0  0  0  0
 14 41  1  0  0  0  0
 15 17  2  0  0  0  0
 16 18  1  0  0  0  0
 16 42  1  0  0  0  0
 17 19  1  0  0  0  0
 17 20  1  0  0  0  0
 18 19  2  0  0  0  0
 19 21  1  0  0  0  0
 20 22  2  0  0  0  0
 20 44  1  0  0  0  0
 21 45  1  0  0  0  0
 21 46  1  0  0  0  0
 21 47  1  0  0  0  0
 22 49  1  0  0  0  0
 22 50  1  0  0  0  0
M  END
> <PUBCHEM_COMPOUND_CID>
155764

> <PUBCHEM_COMPOUND_CANONICALIZED>
1

> <PUBCHEM_CACTVS_COMPLEXITY>
443

> <PUBCHEM_CACTVS_HBOND_ACCEPTOR>
2

> <PUBCHEM_CACTVS_HBOND_DONOR>
2

> <PUBCHEM_CACTVS_ROTATABLE_BOND>
1

> <PUBCHEM_CACTVS_SUBSKEYS>
AAADceB4MAAAAAAAAAAAAAAAAAAAAAAAAAAwYMAAAAAAAADBAAAAGgAACAAADxSgmAIyBoAAAgCAAiBCAAACAAAgIAAIiAAGCIgINiKCEBKAcAAkwBEImAeAwPAP4AADAAAYAADAAAYAADAAAAAAAAAAAA==

> <PUBCHEM_IUPAC_OPENEYE_NAME>
(2R,4aR,10aS)-1,1,4a,7-tetramethyl-8-vinyl-2,3,4,9,10,10a-hexahydrophenanthrene-2,6-diol

> <PUBCHEM_IUPAC_CAS_NAME>
(2R,4aR,10aS)-8-ethenyl-1,1,4a,7-tetramethyl-2,3,4,9,10,10a-hexahydrophenanthrene-2,6-diol

> <PUBCHEM_IUPAC_NAME>
(2R,4aR,10aS)-8-ethenyl-1,1,4a,7-tetramethyl-2,3,4,9,10,10a-hexahydrophenanthrene-2,6-diol

> <PUBCHEM_IUPAC_SYSTEMATIC_NAME>
(2R,4aR,10aS)-8-ethenyl-1,1,4a,7-tetramethyl-2,3,4,9,10,10a-hexahydrophenanthrene-2,6-diol

> <PUBCHEM_IUPAC_TRADITIONAL_NAME>
(2R,4aR,10aS)-1,1,4a,7-tetramethyl-8-vinyl-2,3,4,9,10,10a-hexahydrophenanthrene-2,6-diol

> <PUBCHEM_IUPAC_INCHI>
InChI=1S/C20H28O2/c1-6-13-12(2)16(21)11-15-14(13)7-8-17-19(3,4)18(22)9-10-20(15,17)5/h6,11,17-18,21-22H,1,7-10H2,2-5H3/t17-,18-,20+/m1/s1

> <PUBCHEM_IUPAC_INCHIKEY>
KNSRUHGNXCWGHF-GGPKGHCWSA-N

> <PUBCHEM_XLOGP3_AA>
5.2

> <PUBCHEM_EXACT_MASS>
300.20893

> <PUBCHEM_MOLECULAR_FORMULA>
C20H28O2

> <PUBCHEM_MOLECULAR_WEIGHT>
300.43512

> <PUBCHEM_OPENEYE_CAN_SMILES>
CC1=C(C=C2C(=C1C=C)CCC3C2(CCC(C3(C)C)O)C)O

> <PUBCHEM_OPENEYE_ISO_SMILES>
CC1=C(C=C2C(=C1C=C)CC[C@H]3[C@]2(CC[C@H](C3(C)C)O)C)O

> <PUBCHEM_CACTVS_TPSA>
40.5

> <PUBCHEM_MONOISOTOPIC_WEIGHT>
300.20893

> <PUBCHEM_TOTAL_CHARGE>
0

> <PUBCHEM_HEAVY_ATOM_COUNT>
22

> <PUBCHEM_ATOM_DEF_STEREO_COUNT>
3

> <PUBCHEM_ATOM_UDEF_STEREO_COUNT>
0

> <PUBCHEM_BOND_DEF_STEREO_COUNT>
0

> <PUBCHEM_BOND_UDEF_STEREO_COUNT>
0

> <PUBCHEM_ISOTOPIC_ATOM_COUNT>
0

> <PUBCHEM_COMPONENT_COUNT>
1

> <PUBCHEM_CACTVS_TAUTO_COUNT>
3

> <PUBCHEM_COORDINATE_TYPE>
1
5
255

> <PUBCHEM_BONDANNOTATIONS>
7  1  6
10  15  8
10  16  8
15  17  8
16  18  8
17  19  8
18  19  8
3  23  5
4  12  6

$$$$

