47499
  -OEChem-07051212533D

 56 59  0     1  0  0  0  0  0999 V2000
    5.2714   -0.8589    0.3674 S   0  0  0  0  0  0  0  0  0  0  0  0
    0.5368   -1.5657    0.0458 O   0  0  0  0  0  0  0  0  0  0  0  0
   -1.6380   -0.3378    2.7492 O   0  0  0  0  0  0  0  0  0  0  0  0
   -0.3518    2.4289    1.7566 O   0  0  0  0  0  0  0  0  0  0  0  0
    2.9591    2.3831    1.8618 O   0  0  0  0  0  0  0  0  0  0  0  0
   -3.1161    1.8245    0.8674 O   0  0  0  0  0  0  0  0  0  0  0  0
    2.9572    2.7600   -0.3939 O   0  0  0  0  0  0  0  0  0  0  0  0
   -3.0889    2.7143   -2.1214 O   0  0  0  0  0  0  0  0  0  0  0  0
   -5.3006    2.2227   -2.0968 O   0  0  0  0  0  0  0  0  0  0  0  0
   -8.1084   -2.7933   -0.0440 O   0  0  0  0  0  0  0  0  0  0  0  0
    0.9036    0.5559    1.0890 N   0  0  0  0  0  0  0  0  0  0  0  0
   -1.9145   -0.0874    0.3330 N   0  0  0  0  0  0  0  0  0  0  0  0
    7.9711   -1.0837   -0.1930 N   0  0  0  0  0  0  0  0  0  0  0  0
    6.8141   -0.3740   -1.8843 N   0  0  0  0  0  0  0  0  0  0  0  0
    8.8614   -0.9047   -1.1788 N   0  0  0  0  0  0  0  0  0  0  0  0
    8.1480   -0.4708   -2.2108 N   0  0  0  0  0  0  0  0  0  0  0  0
   -1.0086   -0.0498    1.4860 C   0  0  2  0  0  0  0  0  0  0  0  0
    0.3348   -0.7685    1.2225 C   0  0  1  0  0  0  0  0  0  0  0  0
   -0.1536    1.2578    1.5350 C   0  0  0  0  0  0  0  0  0  0  0  0
    2.1120    0.7287    0.5059 C   0  0  0  0  0  0  0  0  0  0  0  0
    2.6758   -0.3055   -0.1611 C   0  0  0  0  0  0  0  0  0  0  0  0
    1.9211   -1.6299   -0.3474 C   0  0  0  0  0  0  0  0  0  0  0  0
   -2.9042    0.8691    0.1227 C   0  0  0  0  0  0  0  0  0  0  0  0
    4.0311   -0.2997   -0.8144 C   0  0  0  0  0  0  0  0  0  0  0  0
    2.7172    2.0630    0.5740 C   0  0  0  0  0  0  0  0  0  0  0  0
   -2.0510   -1.6839    2.9335 C   0  0  0  0  0  0  0  0  0  0  0  0
   -3.7158    0.6207   -1.1474 C   0  0  1  0  0  0  0  0  0  0  0  0
   -4.8937   -0.2950   -0.8520 C   0  0  0  0  0  0  0  0  0  0  0  0
   -4.1461    1.9064   -1.8406 C   0  0  0  0  0  0  0  0  0  0  0  0
   -5.8845    0.1103    0.0423 C   0  0  0  0  0  0  0  0  0  0  0  0
   -4.9834   -1.5399   -1.4748 C   0  0  0  0  0  0  0  0  0  0  0  0
    6.7273   -0.7584   -0.6316 C   0  0  0  0  0  0  0  0  0  0  0  0
   -6.9648   -0.7290    0.3137 C   0  0  0  0  0  0  0  0  0  0  0  0
   -6.0637   -2.3794   -1.2033 C   0  0  0  0  0  0  0  0  0  0  0  0
   -7.0545   -1.9739   -0.3091 C   0  0  0  0  0  0  0  0  0  0  0  0
    8.4004   -1.5566    1.0988 C   0  0  0  0  0  0  0  0  0  0  0  0
    0.7333   -1.2873    2.1054 H   0  0  0  0  0  0  0  0  0  0  0  0
   -1.8360   -0.8479   -0.3381 H   0  0  0  0  0  0  0  0  0  0  0  0
    1.9281   -1.9187   -1.4033 H   0  0  0  0  0  0  0  0  0  0  0  0
    2.4022   -2.4247    0.2326 H   0  0  0  0  0  0  0  0  0  0  0  0
    4.2957    0.7028   -1.1641 H   0  0  0  0  0  0  0  0  0  0  0  0
    4.0340   -0.9459   -1.6994 H   0  0  0  0  0  0  0  0  0  0  0  0
   -3.0635    0.1190   -1.8767 H   0  0  0  0  0  0  0  0  0  0  0  0
   -2.7454   -1.9865    2.1444 H   0  0  0  0  0  0  0  0  0  0  0  0
   -1.1887   -2.3555    2.9521 H   0  0  0  0  0  0  0  0  0  0  0  0
   -2.5666   -1.7557    3.8949 H   0  0  0  0  0  0  0  0  0  0  0  0
    3.3654    3.2716    1.9510 H   0  0  0  0  0  0  0  0  0  0  0  0
   -5.8323    1.0767    0.5363 H   0  0  0  0  0  0  0  0  0  0  0  0
   -4.2192   -1.8703   -2.1731 H   0  0  0  0  0  0  0  0  0  0  0  0
   -7.7301   -0.4014    1.0123 H   0  0  0  0  0  0  0  0  0  0  0  0
   -6.1280   -3.3481   -1.6912 H   0  0  0  0  0  0  0  0  0  0  0  0
   -3.3718    3.5494   -2.5514 H   0  0  0  0  0  0  0  0  0  0  0  0
    8.1444   -0.8032    1.8476 H   0  0  0  0  0  0  0  0  0  0  0  0
    9.4823   -1.7134    1.0894 H   0  0  0  0  0  0  0  0  0  0  0  0
    7.8935   -2.5015    1.3092 H   0  0  0  0  0  0  0  0  0  0  0  0
   -8.6956   -2.3545    0.5953 H   0  0  0  0  0  0  0  0  0  0  0  0
  1 24  1  0  0  0  0
  1 32  1  0  0  0  0
  2 18  1  0  0  0  0
  2 22  1  0  0  0  0
  3 17  1  0  0  0  0
  3 26  1  0  0  0  0
  4 19  2  0  0  0  0
  5 25  1  0  0  0  0
  5 47  1  0  0  0  0
  6 23  2  0  0  0  0
  7 25  2  0  0  0  0
  8 29  1  0  0  0  0
  8 52  1  0  0  0  0
  9 29  2  0  0  0  0
 10 35  1  0  0  0  0
 10 56  1  0  0  0  0
 11 18  1  0  0  0  0
 11 19  1  0  0  0  0
 11 20  1  0  0  0  0
 12 17  1  0  0  0  0
 12 23  1  0  0  0  0
 12 38  1  0  0  0  0
 13 15  1  0  0  0  0
 13 32  1  0  0  0  0
 13 36  1  0  0  0  0
 14 16  1  0  0  0  0
 14 32  2  0  0  0  0
 15 16  2  0  0  0  0
 17 18  1  0  0  0  0
 17 19  1  0  0  0  0
 18 37  1  0  0  0  0
 20 21  2  0  0  0  0
 20 25  1  0  0  0  0
 21 22  1  0  0  0  0
 21 24  1  0  0  0  0
 22 39  1  0  0  0  0
 22 40  1  0  0  0  0
 23 27  1  0  0  0  0
 24 41  1  0  0  0  0
 24 42  1  0  0  0  0
 26 44  1  0  0  0  0
 26 45  1  0  0  0  0
 26 46  1  0  0  0  0
 27 28  1  0  0  0  0
 27 29  1  0  0  0  0
 27 43  1  0  0  0  0
 28 30  2  0  0  0  0
 28 31  1  0  0  0  0
 30 33  1  0  0  0  0
 30 48  1  0  0  0  0
 31 34  2  0  0  0  0
 31 49  1  0  0  0  0
 33 35  2  0  0  0  0
 33 50  1  0  0  0  0
 34 35  1  0  0  0  0
 34 51  1  0  0  0  0
 36 53  1  0  0  0  0
 36 54  1  0  0  0  0
 36 55  1  0  0  0  0
M  END
> <PUBCHEM_COMPOUND_CID>
47499

> <PUBCHEM_CONFORMER_RMSD>
1

> <PUBCHEM_CONFORMER_DIVERSEORDER>
2
55
84
32
23
80
91
76
74
87
62
30
70
47
7
86
48
40
83
82
58
99
103
25
63
11
81
105
97
13
53
39
77
41
101
98
17
79
36
85
26
68
66
73
3
33
19
93
61
31
24
59
90
35
65
106
45
89
54
75
15
34
18
67
9
52
28
42
22
38
64
100
20
49
21
8
29
78
72
95
12
16
57
94
46
27
92
4
10
50
56
88
69
96
60
43
5
44
14
37
102
71
6
51
1
104

> <PUBCHEM_MMFF94_PARTIAL_CHARGES>
43
1 -0.29
10 -0.53
11 -0.39
12 -0.65
13 0.31
14 -0.34
15 -0.42
17 0.54
18 0.48
19 0.58
2 -0.54
20 0.12
21 -0.28
22 0.42
23 0.57
24 0.37
25 0.71
26 0.28
27 0.27
28 -0.14
29 0.66
3 -0.54
30 -0.15
31 -0.15
32 0.24
33 -0.15
34 -0.15
35 0.08
36 0.26
38 0.37
4 -0.57
47 0.5
48 0.15
49 0.15
5 -0.65
50 0.15
51 0.15
52 0.5
56 0.45
6 -0.57
7 -0.57
8 -0.65
9 -0.57

> <PUBCHEM_EFFECTIVE_ROTOR_COUNT>
10.6

> <PUBCHEM_PHARMACOPHORE_FEATURES>
18
1 10 donor
1 12 donor
1 2 acceptor
1 27 anion
1 3 acceptor
1 4 acceptor
1 5 acceptor
1 6 acceptor
1 7 acceptor
1 8 acceptor
1 9 acceptor
3 13 14 32 cation
3 5 7 25 anion
3 8 9 29 anion
4 11 17 18 19 rings
5 13 14 15 16 32 rings
6 2 11 18 20 21 22 rings
6 28 30 31 33 34 35 rings

> <PUBCHEM_HEAVY_ATOM_COUNT>
36

> <PUBCHEM_ATOM_DEF_STEREO_COUNT>
2

> <PUBCHEM_ATOM_UDEF_STEREO_COUNT>
1

> <PUBCHEM_BOND_DEF_STEREO_COUNT>
0

> <PUBCHEM_BOND_UDEF_STEREO_COUNT>
0

> <PUBCHEM_ISOTOPIC_ATOM_COUNT>
0

> <PUBCHEM_COMPONENT_COUNT>
1

> <PUBCHEM_CACTVS_TAUTO_COUNT>
4

> <PUBCHEM_CONFORMER_ID>
0000B98B00000002

> <PUBCHEM_MMFF94_ENERGY>
83.9631

> <PUBCHEM_FEATURE_SELFOVERLAP>
92.041

> <PUBCHEM_SHAPE_FINGERPRINT>
10076449 9 18334852805490484267
10670039 82 17275109456982350053
10674148 151 18335139800460058875
10930396 42 18191331389471989440
11135609 12 16805314500884665444
11135926 11 17385729131229896159
12082328 90 17967810600080457684
12166972 35 18410293588544445340
13673619 4 18334016056579111111
13690498 29 18411708690490350437
13782708 43 18411428284602072771
13811026 1 17822298993946695448
13947920 75 16558748996680886219
14068700 675 18260826012593716072
14279260 333 17022892484871949319
15183329 4 16702023106365373250
15461852 350 18343297089805742038
1577012 14 16988565748715555900
21033650 10 18130790109318207249
21150785 3 18342736321785299542
21267235 1 17968093114191476771
21756936 100 13182731520754335064
21927370 108 16298378081167512794
23569917 315 18261948657237751598
23576562 1 14979382947108916199
25269216 80 17489872623125647719
2838139 119 17203603817818469628
3383291 50 17821449045520621566
354706 132 17346600811643848701
3552219 110 16805314470814730610
4098825 35 18271807951373137621
484989 97 18338511924443195891
4938544 92 10952042356044853313
54039377 194 17894908516456065823
9953998 17 6483350010853096990
999808 66 17167863071218022615

> <PUBCHEM_SHAPE_MULTIPOLES>
662
23.68
2.69
2.21
27.1
1.06
0.57
-15.38
-12.39
-2.99
-0.22
-0.15
0.31
1.34

> <PUBCHEM_SHAPE_SELFOVERLAP>
1408.82

> <PUBCHEM_SHAPE_VOLUME>
370.4

> <PUBCHEM_COORDINATE_TYPE>
2
5
10

$$$$

