178004
  -OEChem-07051213053D

 23 24  0     0  0  0  0  0  0999 V2000
    0.4900    2.6189    0.0745 Cl  0  0  0  0  0  0  0  0  0  0  0  0
   -0.9901   -0.2315   -2.3894 Cl  0  0  0  0  0  0  0  0  0  0  0  0
    3.6607    2.4705   -0.1495 Cl  0  0  0  0  0  0  0  0  0  0  0  0
    3.3889   -2.9239    0.1535 Cl  0  0  0  0  0  0  0  0  0  0  0  0
   -4.1340   -0.2170   -2.0354 Cl  0  0  0  0  0  0  0  0  0  0  0  0
   -5.3543   -0.0666    0.9090 Cl  0  0  0  0  0  0  0  0  0  0  0  0
    4.7154   -0.2686   -0.0827 O   0  0  0  0  0  0  0  0  0  0  0  0
    0.5738   -0.0910    0.2110 C   0  0  0  0  0  0  0  0  0  0  0  0
   -0.8741   -0.0880    0.3169 C   0  0  0  0  0  0  0  0  0  0  0  0
    1.3135    1.0859    0.0950 C   0  0  0  0  0  0  0  0  0  0  0  0
    1.2241   -1.3246    0.2284 C   0  0  0  0  0  0  0  0  0  0  0  0
   -1.7036   -0.1485   -0.8031 C   0  0  0  0  0  0  0  0  0  0  0  0
   -1.4307   -0.0220    1.5943 C   0  0  0  0  0  0  0  0  0  0  0  0
    2.7037    1.0291   -0.0037 C   0  0  0  0  0  0  0  0  0  0  0  0
    2.6145   -1.3816    0.1297 C   0  0  0  0  0  0  0  0  0  0  0  0
    3.3542   -0.2048    0.0137 C   0  0  0  0  0  0  0  0  0  0  0  0
   -3.0895   -0.1429   -0.6457 C   0  0  0  0  0  0  0  0  0  0  0  0
   -2.8166   -0.0164    1.7517 C   0  0  0  0  0  0  0  0  0  0  0  0
   -3.6459   -0.0770    0.6319 C   0  0  0  0  0  0  0  0  0  0  0  0
    0.6506   -2.2457    0.3184 H   0  0  0  0  0  0  0  0  0  0  0  0
   -0.8013    0.0260    2.4801 H   0  0  0  0  0  0  0  0  0  0  0  0
   -3.2324    0.0356    2.7549 H   0  0  0  0  0  0  0  0  0  0  0  0
    5.0615    0.6376   -0.1557 H   0  0  0  0  0  0  0  0  0  0  0  0
  1 10  1  0  0  0  0
  2 12  1  0  0  0  0
  3 14  1  0  0  0  0
  4 15  1  0  0  0  0
  5 17  1  0  0  0  0
  6 19  1  0  0  0  0
  7 16  1  0  0  0  0
  7 23  1  0  0  0  0
  8  9  1  0  0  0  0
  8 10  1  0  0  0  0
  8 11  2  0  0  0  0
  9 12  2  0  0  0  0
  9 13  1  0  0  0  0
 10 14  2  0  0  0  0
 11 15  1  0  0  0  0
 11 20  1  0  0  0  0
 12 17  1  0  0  0  0
 13 18  2  0  0  0  0
 13 21  1  0  0  0  0
 14 16  1  0  0  0  0
 15 16  2  0  0  0  0
 17 19  2  0  0  0  0
 18 19  1  0  0  0  0
 18 22  1  0  0  0  0
M  END
> <PUBCHEM_COMPOUND_CID>
178004

> <PUBCHEM_CONFORMER_RMSD>
0.6

> <PUBCHEM_CONFORMER_DIVERSEORDER>
2
1

> <PUBCHEM_MMFF94_PARTIAL_CHARGES>
21
1 -0.18
10 0.18
11 -0.15
12 0.18
13 -0.15
14 0.18
15 0.18
16 0.08
17 0.18
18 -0.15
19 0.18
2 -0.18
20 0.15
21 0.15
22 0.15
23 0.45
3 -0.18
4 -0.18
5 -0.18
6 -0.18
7 -0.53

> <PUBCHEM_EFFECTIVE_ROTOR_COUNT>
1

> <PUBCHEM_PHARMACOPHORE_FEATURES>
3
1 7 donor
6 8 10 11 14 15 16 rings
6 9 12 13 17 18 19 rings

> <PUBCHEM_HEAVY_ATOM_COUNT>
19

> <PUBCHEM_ATOM_DEF_STEREO_COUNT>
0

> <PUBCHEM_ATOM_UDEF_STEREO_COUNT>
0

> <PUBCHEM_BOND_DEF_STEREO_COUNT>
0

> <PUBCHEM_BOND_UDEF_STEREO_COUNT>
0

> <PUBCHEM_ISOTOPIC_ATOM_COUNT>
0

> <PUBCHEM_COMPONENT_COUNT>
1

> <PUBCHEM_CACTVS_TAUTO_COUNT>
3

> <PUBCHEM_CONFORMER_ID>
0002B75400000002

> <PUBCHEM_MMFF94_ENERGY>
55.2365

> <PUBCHEM_FEATURE_SELFOVERLAP>
15.223

> <PUBCHEM_SHAPE_FINGERPRINT>
10062212 137 17385447605372563983
11471102 20 18412825763996916504
12236239 1 17749387070230130363
12403259 415 17632579335814720965
12553582 1 18336547239393990390
13134695 92 18410857672173924092
13140716 1 18267305331742076850
13538477 17 17313388885620603143
13581323 91 16153433856406795055
13583140 156 18189607251406131361
13760787 5 18333733498579831293
14386348 63 17632571660613237091
15219456 202 17918277523686653033
15342168 16 18054501418279453300
15375358 24 17632305544450087293
15375462 189 18040435494673211242
16945 1 18411980261161693212
17357779 13 18201441419135494028
1813 80 17971457744975727118
18186145 218 18411421682846675662
19049666 15 17632025267700563481
19422 9 17894351064044880847
19784866 34 18192993717097472320
200 152 18334297582430823691
20600515 1 15984820377196954309
20645476 183 17822854157029379223
20645477 70 18343020003889916706
21033648 29 17775012263048520389
21065201 7 16200432481025751347
21639500 275 18338239249875170704
22112679 90 17458065949655050192
2255824 54 18335134302606734582
23175994 123 18130498712565791165
23402539 116 15357702993798007877
23526113 38 17916040116445481270
23557571 272 16774076280154083511
23559900 14 16558758965864443826
23598291 2 17967532354671422068
3286 77 18201151152271037883
4409770 3 15664180087303348823
474 4 18044385928699963928
5281201 14 17918272082110750007
633830 44 18116410597376006628
77492 1 17821445759489973995
8272917 22 18335410301093818059
9981440 41 16669114456684104576

> <PUBCHEM_SHAPE_MULTIPOLES>
396.36
8.91
2.16
1.61
3.39
0.23
0.69
-0.97
-0.39
-3.8
-0.08
2.31
-0.15
-0.33

> <PUBCHEM_SHAPE_SELFOVERLAP>
808.78

> <PUBCHEM_SHAPE_VOLUME>
235.8

> <PUBCHEM_COORDINATE_TYPE>
2
5
10

$$$$

