582821
  -OEChem-06241222443D

 12 12  0     0  0  0  0  0  0999 V2000
   -2.2978    0.1796   -1.4631 Cl  0  0  0  0  0  0  0  0  0  0  0  0
   -2.2974    0.1744    1.4640 Cl  0  0  0  0  0  0  0  0  0  0  0  0
    1.0963   -1.4393   -0.0024 S   0  0  0  0  0  0  0  0  0  0  0  0
   -0.0326   -0.1517   -0.0006 C   0  0  0  0  0  0  0  0  0  0  0  0
   -1.4808   -0.4532   -0.0007 C   0  0  0  0  0  0  0  0  0  0  0  0
    0.5867    1.0788    0.0016 C   0  0  0  0  0  0  0  0  0  0  0  0
    2.0069    0.9629    0.0016 C   0  0  0  0  0  0  0  0  0  0  0  0
    2.4187   -0.3515   -0.0005 C   0  0  0  0  0  0  0  0  0  0  0  0
   -1.6698   -1.5309   -0.0026 H   0  0  0  0  0  0  0  0  0  0  0  0
    0.0540    2.0214    0.0033 H   0  0  0  0  0  0  0  0  0  0  0  0
    2.6915    1.8011    0.0031 H   0  0  0  0  0  0  0  0  0  0  0  0
    3.4330   -0.7250   -0.0009 H   0  0  0  0  0  0  0  0  0  0  0  0
  1  5  1  0  0  0  0
  2  5  1  0  0  0  0
  3  4  1  0  0  0  0
  3  8  1  0  0  0  0
  4  5  1  0  0  0  0
  4  6  2  0  0  0  0
  5  9  1  0  0  0  0
  6  7  1  0  0  0  0
  6 10  1  0  0  0  0
  7  8  2  0  0  0  0
  7 11  1  0  0  0  0
  8 12  1  0  0  0  0
M  END
> <PUBCHEM_COMPOUND_CID>
582821

> <PUBCHEM_CONFORMER_RMSD>
0.4

> <PUBCHEM_CONFORMER_DIVERSEORDER>
1
3
4
2
5
6

> <PUBCHEM_MMFF94_PARTIAL_CHARGES>
11
1 -0.29
10 0.15
11 0.15
12 0.15
2 -0.29
3 -0.08
4 -0.14
5 0.76
6 -0.15
7 -0.15
8 -0.11

> <PUBCHEM_EFFECTIVE_ROTOR_COUNT>
1

> <PUBCHEM_PHARMACOPHORE_FEATURES>
1
5 3 4 6 7 8 rings

> <PUBCHEM_HEAVY_ATOM_COUNT>
8

> <PUBCHEM_ATOM_DEF_STEREO_COUNT>
0

> <PUBCHEM_ATOM_UDEF_STEREO_COUNT>
0

> <PUBCHEM_BOND_DEF_STEREO_COUNT>
0

> <PUBCHEM_BOND_UDEF_STEREO_COUNT>
0

> <PUBCHEM_ISOTOPIC_ATOM_COUNT>
0

> <PUBCHEM_COMPONENT_COUNT>
1

> <PUBCHEM_CACTVS_TAUTO_COUNT>
1

> <PUBCHEM_CONFORMER_ID>
0008E4A500000001

> <PUBCHEM_MMFF94_ENERGY>
5.0679

> <PUBCHEM_FEATURE_SELFOVERLAP>
5.074

> <PUBCHEM_SHAPE_FINGERPRINT>
12932741 1 17632296791311921839
12932764 1 17918272030550127610
15310529 11 16845566500723013738
21040471 1 18194402191339068320
21930827 45 16702023136087369869
29004967 10 18201431493460473248
5084963 1 18197782102519503667

> <PUBCHEM_SHAPE_MULTIPOLES>
172.23
3.67
1.23
1.19
0.49
0.14
0
-0.18
0
-0.62
0
1.28
-0.08
0

> <PUBCHEM_SHAPE_SELFOVERLAP>
316.72

> <PUBCHEM_SHAPE_VOLUME>
110.1

> <PUBCHEM_COORDINATE_TYPE>
2
5
10

$$$$

