7068
  -OEChem-06261201433D

 72 77  0     0  0  0  0  0  0999 V2000
    3.4405    2.1718   -0.8767 O   0  0  0  0  0  0  0  0  0  0  0  0
   -3.4130   -1.8986    1.6438 O   0  0  0  0  0  0  0  0  0  0  0  0
    7.7936   -3.0678   -0.4667 O   0  0  0  0  0  0  0  0  0  0  0  0
   -7.2554   -1.5688   -2.2783 O   0  0  0  0  0  0  0  0  0  0  0  0
    5.4748   -2.2761    0.5245 O   0  0  0  0  0  0  0  0  0  0  0  0
   -5.4484    1.2466   -1.8099 O   0  0  0  0  0  0  0  0  0  0  0  0
    4.9275   -0.0998   -0.1608 N   0  0  0  0  0  0  0  0  0  0  0  0
   -4.8905   -0.2955   -0.1257 N   0  0  0  0  0  0  0  0  0  0  0  0
    0.7417   -0.1784   -0.1427 C   0  0  0  0  0  0  0  0  0  0  0  0
   -0.7047   -0.2113   -0.1349 C   0  0  0  0  0  0  0  0  0  0  0  0
    3.5111   -0.1163   -0.1590 C   0  0  0  0  0  0  0  0  0  0  0  0
   -3.4937   -0.2755   -0.1216 C   0  0  0  0  0  0  0  0  0  0  0  0
    1.4112    0.9895   -0.5084 C   0  0  0  0  0  0  0  0  0  0  0  0
   -1.3790   -1.0451    0.7572 C   0  0  0  0  0  0  0  0  0  0  0  0
    2.8057    1.0206   -0.5164 C   0  0  0  0  0  0  0  0  0  0  0  0
   -2.7735   -1.0770    0.7641 C   0  0  0  0  0  0  0  0  0  0  0  0
    7.2280   -0.8082    0.0965 C   0  0  0  0  0  0  0  0  0  0  0  0
   -7.2078    0.2206   -0.6861 C   0  0  0  0  0  0  0  0  0  0  0  0
    8.9919    0.8561    0.2888 C   0  0  0  0  0  0  0  0  0  0  0  0
   -9.2015    0.8540    0.5048 C   0  0  0  0  0  0  0  0  0  0  0  0
    1.4667   -1.3151    0.2148 C   0  0  0  0  0  0  0  0  0  0  0  0
   -1.4250    0.5904   -1.0205 C   0  0  0  0  0  0  0  0  0  0  0  0
    9.9513   -0.1342   -0.0304 C   0  0  0  0  0  0  0  0  0  0  0  0
   -9.9137   -0.1580   -0.1819 C   0  0  0  0  0  0  0  0  0  0  0  0
    2.8613   -1.2840    0.2066 C   0  0  0  0  0  0  0  0  0  0  0  0
   -2.8195    0.5581   -1.0139 C   0  0  0  0  0  0  0  0  0  0  0  0
    7.6340    0.5026    0.3482 C   0  0  0  0  0  0  0  0  0  0  0  0
   -7.8342    1.0325    0.2386 C   0  0  0  0  0  0  0  0  0  0  0  0
    8.1714   -1.7820   -0.2176 C   0  0  0  0  0  0  0  0  0  0  0  0
   -7.8789   -0.7702   -1.3665 C   0  0  0  0  0  0  0  0  0  0  0  0
    5.8107   -1.1366    0.1671 C   0  0  0  0  0  0  0  0  0  0  0  0
   -5.7598    0.4401   -0.9403 C   0  0  0  0  0  0  0  0  0  0  0  0
    9.5245   -1.4484   -0.2811 C   0  0  0  0  0  0  0  0  0  0  0  0
   -9.2376   -0.9616   -1.1143 C   0  0  0  0  0  0  0  0  0  0  0  0
    9.4188    2.1704    0.5395 C   0  0  0  0  0  0  0  0  0  0  0  0
   -9.8777    1.6576    1.4373 C   0  0  0  0  0  0  0  0  0  0  0  0
   11.3092    0.2192   -0.0902 C   0  0  0  0  0  0  0  0  0  0  0  0
  -11.2810   -0.3369    0.0845 C   0  0  0  0  0  0  0  0  0  0  0  0
   10.7722    2.5034    0.4762 C   0  0  0  0  0  0  0  0  0  0  0  0
  -11.2365    1.4662    1.6890 C   0  0  0  0  0  0  0  0  0  0  0  0
   11.7155    1.5299    0.1618 C   0  0  0  0  0  0  0  0  0  0  0  0
  -11.9368    0.4707    1.0140 C   0  0  0  0  0  0  0  0  0  0  0  0
    3.7406    3.0987    0.1644 C   0  0  0  0  0  0  0  0  0  0  0  0
   -3.7341   -1.3538    2.9219 C   0  0  0  0  0  0  0  0  0  0  0  0
    0.8821    1.9039   -0.7648 H   0  0  0  0  0  0  0  0  0  0  0  0
   -0.8541   -1.6623    1.4820 H   0  0  0  0  0  0  0  0  0  0  0  0
    0.9885   -2.2554    0.4756 H   0  0  0  0  0  0  0  0  0  0  0  0
   -0.9426    1.2308   -1.7540 H   0  0  0  0  0  0  0  0  0  0  0  0
    3.3444   -2.2069    0.4884 H   0  0  0  0  0  0  0  0  0  0  0  0
   -3.2996    1.2026   -1.7358 H   0  0  0  0  0  0  0  0  0  0  0  0
    6.9197    1.2717    0.6345 H   0  0  0  0  0  0  0  0  0  0  0  0
   -7.2726    1.8061    0.7583 H   0  0  0  0  0  0  0  0  0  0  0  0
    5.3190    0.7804   -0.4854 H   0  0  0  0  0  0  0  0  0  0  0  0
   -5.3183   -0.9253    0.5499 H   0  0  0  0  0  0  0  0  0  0  0  0
   10.2566   -2.2156   -0.5275 H   0  0  0  0  0  0  0  0  0  0  0  0
   -9.7716   -1.7443   -1.6503 H   0  0  0  0  0  0  0  0  0  0  0  0
    8.6995    2.9483    0.7867 H   0  0  0  0  0  0  0  0  0  0  0  0
   -9.3503    2.4416    1.9768 H   0  0  0  0  0  0  0  0  0  0  0  0
   12.0642   -0.5253   -0.3340 H   0  0  0  0  0  0  0  0  0  0  0  0
  -11.8483   -1.1088   -0.4313 H   0  0  0  0  0  0  0  0  0  0  0  0
   11.0892    3.5236    0.6723 H   0  0  0  0  0  0  0  0  0  0  0  0
  -11.7477    2.0946    2.4124 H   0  0  0  0  0  0  0  0  0  0  0  0
   12.7689    1.7900    0.1125 H   0  0  0  0  0  0  0  0  0  0  0  0
  -12.9946    0.3221    1.2106 H   0  0  0  0  0  0  0  0  0  0  0  0
    8.5833   -3.5992   -0.6662 H   0  0  0  0  0  0  0  0  0  0  0  0
   -6.3168   -1.3313   -2.3498 H   0  0  0  0  0  0  0  0  0  0  0  0
    4.2847    3.9403   -0.2728 H   0  0  0  0  0  0  0  0  0  0  0  0
    2.8179    3.4758    0.6167 H   0  0  0  0  0  0  0  0  0  0  0  0
    4.3710    2.6355    0.9301 H   0  0  0  0  0  0  0  0  0  0  0  0
   -2.8205   -1.0942    3.4661 H   0  0  0  0  0  0  0  0  0  0  0  0
   -4.3735   -0.4712    2.8210 H   0  0  0  0  0  0  0  0  0  0  0  0
   -4.2758   -2.1139    3.4916 H   0  0  0  0  0  0  0  0  0  0  0  0
  1 15  1  0  0  0  0
  1 43  1  0  0  0  0
  2 16  1  0  0  0  0
  2 44  1  0  0  0  0
  3 29  1  0  0  0  0
  3 65  1  0  0  0  0
  4 30  1  0  0  0  0
  4 66  1  0  0  0  0
  5 31  2  0  0  0  0
  6 32  2  0  0  0  0
  7 11  1  0  0  0  0
  7 31  1  0  0  0  0
  7 53  1  0  0  0  0
  8 12  1  0  0  0  0
  8 32  1  0  0  0  0
  8 54  1  0  0  0  0
  9 10  1  0  0  0  0
  9 13  2  0  0  0  0
  9 21  1  0  0  0  0
 10 14  2  0  0  0  0
 10 22  1  0  0  0  0
 11 15  2  0  0  0  0
 11 25  1  0  0  0  0
 12 16  2  0  0  0  0
 12 26  1  0  0  0  0
 13 15  1  0  0  0  0
 13 45  1  0  0  0  0
 14 16  1  0  0  0  0
 14 46  1  0  0  0  0
 17 27  2  0  0  0  0
 17 29  1  0  0  0  0
 17 31  1  0  0  0  0
 18 28  2  0  0  0  0
 18 30  1  0  0  0  0
 18 32  1  0  0  0  0
 19 23  1  0  0  0  0
 19 27  1  0  0  0  0
 19 35  2  0  0  0  0
 20 24  1  0  0  0  0
 20 28  1  0  0  0  0
 20 36  2  0  0  0  0
 21 25  2  0  0  0  0
 21 47  1  0  0  0  0
 22 26  2  0  0  0  0
 22 48  1  0  0  0  0
 23 33  1  0  0  0  0
 23 37  2  0  0  0  0
 24 34  1  0  0  0  0
 24 38  2  0  0  0  0
 25 49  1  0  0  0  0
 26 50  1  0  0  0  0
 27 51  1  0  0  0  0
 28 52  1  0  0  0  0
 29 33  2  0  0  0  0
 30 34  2  0  0  0  0
 33 55  1  0  0  0  0
 34 56  1  0  0  0  0
 35 39  1  0  0  0  0
 35 57  1  0  0  0  0
 36 40  1  0  0  0  0
 36 58  1  0  0  0  0
 37 41  1  0  0  0  0
 37 59  1  0  0  0  0
 38 42  1  0  0  0  0
 38 60  1  0  0  0  0
 39 41  2  0  0  0  0
 39 61  1  0  0  0  0
 40 42  2  0  0  0  0
 40 62  1  0  0  0  0
 41 63  1  0  0  0  0
 42 64  1  0  0  0  0
 43 67  1  0  0  0  0
 43 68  1  0  0  0  0
 43 69  1  0  0  0  0
 44 70  1  0  0  0  0
 44 71  1  0  0  0  0
 44 72  1  0  0  0  0
M  END
> <PUBCHEM_COMPOUND_CID>
7068

> <PUBCHEM_CONFORMER_RMSD>
1.2

> <PUBCHEM_CONFORMER_DIVERSEORDER>
3
2
16
23
14
17
6
20
19
24
11
7
13
21
12
22
15
26
5
18
9
8
10
1
4
25

> <PUBCHEM_MMFF94_PARTIAL_CHARGES>
60
1 -0.36
11 0.12
12 0.12
13 -0.15
14 -0.15
15 0.08
16 0.08
17 0.09
18 0.09
2 -0.36
21 -0.15
22 -0.15
25 -0.15
26 -0.15
27 -0.15
28 -0.15
29 0.08
3 -0.53
30 0.08
31 0.54
32 0.54
33 -0.15
34 -0.15
35 -0.15
36 -0.15
37 -0.15
38 -0.15
39 -0.15
4 -0.53
40 -0.15
41 -0.15
42 -0.15
43 0.28
44 0.28
45 0.15
46 0.15
47 0.15
48 0.15
49 0.15
5 -0.57
50 0.15
51 0.15
52 0.15
53 0.37
54 0.37
55 0.15
56 0.15
57 0.15
58 0.15
59 0.15
6 -0.57
60 0.15
61 0.15
62 0.15
63 0.15
64 0.15
65 0.45
66 0.45
7 -0.55
8 -0.55

> <PUBCHEM_EFFECTIVE_ROTOR_COUNT>
9

> <PUBCHEM_PHARMACOPHORE_FEATURES>
14
1 1 acceptor
1 2 acceptor
1 3 donor
1 4 donor
1 5 acceptor
1 6 acceptor
1 7 donor
1 8 donor
6 10 12 14 16 22 26 rings
6 17 19 23 27 29 33 rings
6 18 20 24 28 30 34 rings
6 19 23 35 37 39 41 rings
6 20 24 36 38 40 42 rings
6 9 11 13 15 21 25 rings

> <PUBCHEM_HEAVY_ATOM_COUNT>
44

> <PUBCHEM_ATOM_DEF_STEREO_COUNT>
0

> <PUBCHEM_ATOM_UDEF_STEREO_COUNT>
0

> <PUBCHEM_BOND_DEF_STEREO_COUNT>
0

> <PUBCHEM_BOND_UDEF_STEREO_COUNT>
0

> <PUBCHEM_ISOTOPIC_ATOM_COUNT>
0

> <PUBCHEM_COMPONENT_COUNT>
1

> <PUBCHEM_CACTVS_TAUTO_COUNT>
22

> <PUBCHEM_CONFORMER_ID>
00001B9C00000003

> <PUBCHEM_MMFF94_ENERGY>
183.7182

> <PUBCHEM_FEATURE_SELFOVERLAP>
71.095

> <PUBCHEM_SHAPE_FINGERPRINT>
10168742 298 15502366808713065404
10580692 12 18343303677684089445
11061554 47 18130792277854685748
12089408 11 18040158422038290783
12144603 126 18113339712654262974
12522641 33 17457781201998163590
12559415 86 16443334412364889553
12664476 115 18273497875286864485
13947947 74 17846217777885810752
14040221 8 17167859777099530112
15061470 23 18187365445781266849
15247644 1 13901910020436142672
15347591 1 18125717881468448334
15510794 2 18272652347030133482
16728433 110 18202566172265158228
20105231 36 14836403623258280217
232437 2 18408042926580342294
249057 3 17203607077419098031
3092352 35 18187366516093313023
4625314 4 7781501638269569572
4874694 18 17775569736987400026
5028188 123 18040438777173158615
5381727 24 13039188108562807817
6201320 215 12607143836413362159
67123 10 18335424564922723542

> <PUBCHEM_SHAPE_MULTIPOLES>
860.32
53.04
2.26
1.39
5.08
0.37
-0.38
13.84
-6.25
-4.97
-0.27
4.07
-0.26
-0.85

> <PUBCHEM_SHAPE_SELFOVERLAP>
1932.797

> <PUBCHEM_SHAPE_VOLUME>
452.6

> <PUBCHEM_COORDINATE_TYPE>
2
5
10

$$$$

