5281207
  -OEChem-07051212552D

 41 42  0     1  0  0  0  0  0999 V2000
    2.8660   -4.4044    0.0000 O   0  0  0  0  0  0  0  0  0  0  0  0
    2.0000   -2.9044    0.0000 O   0  0  0  0  0  0  0  0  0  0  0  0
    8.9477    2.3209    0.0000 O   0  5  0  0  0  0  0  0  0  0  0  0
    7.3654    1.6164    0.0000 O   0  0  0  0  0  0  0  0  0  0  0  0
    6.3301   -4.4044    0.0000 O   0  0  0  0  0  0  0  0  0  0  0  0
    7.1962   -2.9044    0.0000 O   0  0  0  0  0  0  0  0  0  0  0  0
    5.4641    1.0956    0.0000 N   0  3  0  0  0  0  0  0  0  0  0  0
    4.9641    2.6345    0.0000 N   0  0  0  0  0  0  0  0  0  0  0  0
    4.5981   -3.4044    0.0000 N   0  0  0  0  0  0  0  0  0  0  0  0
    8.1342    4.1480    0.0000 N   0  0  0  0  0  0  0  0  0  0  0  0
    3.7320   -1.9044    0.0000 C   0  0  0  0  0  0  0  0  0  0  0  0
    3.7320   -2.9044    0.0000 C   0  0  1  0  0  0  0  0  0  0  0  0
    6.5519    3.4435    0.0000 C   0  0  0  0  0  0  0  0  0  0  0  0
    5.9641    2.6345    0.0000 C   0  0  0  0  0  0  0  0  0  0  0  0
    4.5981   -1.4044    0.0000 C   0  0  0  0  0  0  0  0  0  0  0  0
    7.5464    3.3390    0.0000 C   0  0  1  0  0  0  0  0  0  0  0  0
    6.2731    1.6834    0.0000 C   0  0  0  0  0  0  0  0  0  0  0  0
    4.5981   -0.4044    0.0000 C   0  0  0  0  0  0  0  0  0  0  0  0
    4.6551    1.6834    0.0000 C   0  0  0  0  0  0  0  0  0  0  0  0
    5.4641   -1.9044    0.0000 C   0  0  0  0  0  0  0  0  0  0  0  0
    5.4641    0.0956    0.0000 C   0  0  0  0  0  0  0  0  0  0  0  0
    5.4641   -2.9044    0.0000 C   0  0  0  0  0  0  0  0  0  0  0  0
    2.8660   -3.4044    0.0000 C   0  0  0  0  0  0  0  0  0  0  0  0
    7.9532    2.4254    0.0000 C   0  0  0  0  0  0  0  0  0  0  0  0
    6.3301   -3.4044    0.0000 C   0  0  0  0  0  0  0  0  0  0  0  0
    3.5200   -1.3218    0.0000 H   0  0  0  0  0  0  0  0  0  0  0  0
    3.1215   -2.0120    0.0000 H   0  0  0  0  0  0  0  0  0  0  0  0
    3.7320   -3.5244    0.0000 H   0  0  0  0  0  0  0  0  0  0  0  0
    6.7228    4.0395    0.0000 H   0  0  0  0  0  0  0  0  0  0  0  0
    5.9946    3.7153    0.0000 H   0  0  0  0  0  0  0  0  0  0  0  0
    7.2942    3.9054    0.0000 H   0  0  0  0  0  0  0  0  0  0  0  0
    6.8628    1.4918    0.0000 H   0  0  0  0  0  0  0  0  0  0  0  0
    4.5997    3.1361    0.0000 H   0  0  0  0  0  0  0  0  0  0  0  0
    4.0611   -0.0944    0.0000 H   0  0  0  0  0  0  0  0  0  0  0  0
    4.0654    1.4918    0.0000 H   0  0  0  0  0  0  0  0  0  0  0  0
    6.0010   -1.5944    0.0000 H   0  0  0  0  0  0  0  0  0  0  0  0
    6.0010   -0.2144    0.0000 H   0  0  0  0  0  0  0  0  0  0  0  0
    8.7508    4.0832    0.0000 H   0  0  0  0  0  0  0  0  0  0  0  0
    7.8820    4.7144    0.0000 H   0  0  0  0  0  0  0  0  0  0  0  0
    2.3291   -4.7144    0.0000 H   0  0  0  0  0  0  0  0  0  0  0  0
    6.8671   -4.7144    0.0000 H   0  0  0  0  0  0  0  0  0  0  0  0
  1 23  1  0  0  0  0
  1 40  1  0  0  0  0
  2 23  2  0  0  0  0
  3 24  1  0  0  0  0
  4 24  2  0  0  0  0
  5 25  1  0  0  0  0
  5 41  1  0  0  0  0
  6 25  2  0  0  0  0
  7 17  1  0  0  0  0
  7 19  2  0  0  0  0
  7 21  1  0  0  0  0
  8 14  1  0  0  0  0
  8 19  1  0  0  0  0
  8 33  1  0  0  0  0
  9 12  1  0  0  0  0
  9 22  2  0  0  0  0
 16 10  1  6  0  0  0
 10 38  1  0  0  0  0
 10 39  1  0  0  0  0
 11 12  1  0  0  0  0
 11 15  1  0  0  0  0
 11 26  1  0  0  0  0
 11 27  1  0  0  0  0
 12 23  1  6  0  0  0
 12 28  1  0  0  0  0
 13 14  1  0  0  0  0
 13 16  1  0  0  0  0
 13 29  1  0  0  0  0
 13 30  1  0  0  0  0
 14 17  2  0  0  0  0
 15 18  1  0  0  0  0
 15 20  2  0  0  0  0
 16 24  1  0  0  0  0
 16 31  1  0  0  0  0
 17 32  1  0  0  0  0
 18 21  2  0  0  0  0
 18 34  1  0  0  0  0
 19 35  1  0  0  0  0
 20 22  1  0  0  0  0
 20 36  1  0  0  0  0
 21 37  1  0  0  0  0
 22 25  1  0  0  0  0
M  CHG  2   3  -1   7   1
M  END
> <PUBCHEM_COMPOUND_CID>
5281207

> <PUBCHEM_COMPOUND_CANONICALIZED>
1

> <PUBCHEM_CACTVS_COMPLEXITY>
651

> <PUBCHEM_CACTVS_HBOND_ACCEPTOR>
8

> <PUBCHEM_CACTVS_HBOND_DONOR>
4

> <PUBCHEM_CACTVS_ROTATABLE_BOND>
6

> <PUBCHEM_CACTVS_SUBSKEYS>
AAADceBzuAAAAAAAAAAAAAAAAAAAAWAAAAAgAAAAAAAAAAABgAAAHgAQCAAADCjBlgQtmBfNkgCoAzT3bAQAgC2xEqAJWYG4cBiKaBJA2QGUQAAM0AJIwCK8EQIAAAAAAAAAAAAAAAAAAAAAAAAAAAAAAA==

> <PUBCHEM_IUPAC_OPENEYE_NAME>
(2S)-2-amino-3-[3-[(E)-2-[(2S)-2,6-dicarboxy-2,3-dihydropyridin-4-yl]vinyl]-1H-imidazol-3-ium-5-yl]propanoate

> <PUBCHEM_IUPAC_CAS_NAME>
(2S)-2-amino-3-[3-[(E)-2-[(2S)-2,6-dicarboxy-2,3-dihydropyridin-4-yl]ethenyl]-1H-imidazol-3-ium-5-yl]propanoate

> <PUBCHEM_IUPAC_NAME>
(2S)-2-amino-3-[3-[(E)-2-[(2S)-2,6-dicarboxy-2,3-dihydropyridin-4-yl]ethenyl]-1H-imidazol-3-ium-5-yl]propanoate

> <PUBCHEM_IUPAC_SYSTEMATIC_NAME>
(2S)-2-azanyl-3-[3-[(E)-2-[(2S)-2,6-dicarboxy-2,3-dihydropyridin-4-yl]ethenyl]-1H-imidazol-3-ium-5-yl]propanoate

> <PUBCHEM_IUPAC_TRADITIONAL_NAME>
(2S)-2-amino-3-[3-[(E)-2-[(2S)-2,6-dicarboxy-2,3-dihydropyridin-4-yl]vinyl]-1H-imidazol-3-ium-5-yl]propionate

> <PUBCHEM_IUPAC_INCHI>
InChI=1S/C15H16N4O6/c16-10(13(20)21)5-9-6-19(7-17-9)2-1-8-3-11(14(22)23)18-12(4-8)15(24)25/h1-3,6-7,10,12H,4-5,16H2,(H3,20,21,22,23,24,25)/b2-1+/t10-,12-/m0/s1

> <PUBCHEM_IUPAC_INCHIKEY>
OROLDOQHKPWCGQ-INISDOFMSA-N

> <PUBCHEM_XLOGP3_AA>
-2.8

> <PUBCHEM_EXACT_MASS>
348.106984

> <PUBCHEM_MOLECULAR_FORMULA>
C15H16N4O6

> <PUBCHEM_MOLECULAR_WEIGHT>
348.31074

> <PUBCHEM_OPENEYE_CAN_SMILES>
C1C(N=C(C=C1C=C[N+]2=CNC(=C2)CC(C(=O)[O-])N)C(=O)O)C(=O)O

> <PUBCHEM_OPENEYE_ISO_SMILES>
C1[C@H](N=C(C=C1/C=C/[N+]2=CNC(=C2)C[C@@H](C(=O)[O-])N)C(=O)O)C(=O)O

> <PUBCHEM_CACTVS_TPSA>
173

> <PUBCHEM_MONOISOTOPIC_WEIGHT>
348.106984

> <PUBCHEM_TOTAL_CHARGE>
0

> <PUBCHEM_HEAVY_ATOM_COUNT>
25

> <PUBCHEM_ATOM_DEF_STEREO_COUNT>
2

> <PUBCHEM_ATOM_UDEF_STEREO_COUNT>
0

> <PUBCHEM_BOND_DEF_STEREO_COUNT>
1

> <PUBCHEM_BOND_UDEF_STEREO_COUNT>
0

> <PUBCHEM_ISOTOPIC_ATOM_COUNT>
0

> <PUBCHEM_COMPONENT_COUNT>
1

> <PUBCHEM_CACTVS_TAUTO_COUNT>
4

> <PUBCHEM_COORDINATE_TYPE>
1
5
255

> <PUBCHEM_BONDANNOTATIONS>
16  10  6
12  23  6
14  17  8
7  17  8
7  19  8
8  14  8
8  19  8

$$$$

