440737
  -OEChem-07051212503D

 19 20  0     0  0  0  0  0  0999 V2000
    2.4715    1.7428    0.0008 O   0  0  0  0  0  0  0  0  0  0  0  0
   -2.4759   -1.6492    0.0000 O   0  0  0  0  0  0  0  0  0  0  0  0
   -0.3479    1.7962   -0.0004 N   0  0  0  0  0  0  0  0  0  0  0  0
    0.3659    0.5914   -0.0004 C   0  0  0  0  0  0  0  0  0  0  0  0
   -0.3295   -0.6333   -0.0001 C   0  0  0  0  0  0  0  0  0  0  0  0
    1.7639    0.5776   -0.0004 C   0  0  0  0  0  0  0  0  0  0  0  0
    0.3611   -1.8477    0.0001 C   0  0  0  0  0  0  0  0  0  0  0  0
   -1.8186   -0.6162    0.0002 C   0  0  0  0  0  0  0  0  0  0  0  0
    2.4549   -0.6357   -0.0002 C   0  0  0  0  0  0  0  0  0  0  0  0
    1.7557   -1.8434    0.0001 C   0  0  0  0  0  0  0  0  0  0  0  0
   -1.7138    1.8042    0.0000 C   0  0  0  0  0  0  0  0  0  0  0  0
   -2.4873    0.7132    0.0003 C   0  0  0  0  0  0  0  0  0  0  0  0
    0.1473    2.6776   -0.0009 H   0  0  0  0  0  0  0  0  0  0  0  0
   -0.1652   -2.7977    0.0004 H   0  0  0  0  0  0  0  0  0  0  0  0
    3.5417   -0.6547    0.0001 H   0  0  0  0  0  0  0  0  0  0  0  0
    2.2998   -2.7836    0.0004 H   0  0  0  0  0  0  0  0  0  0  0  0
   -2.1380    2.8012   -0.0001 H   0  0  0  0  0  0  0  0  0  0  0  0
   -3.5684    0.7624    0.0005 H   0  0  0  0  0  0  0  0  0  0  0  0
    3.4221    1.5373    0.0010 H   0  0  0  0  0  0  0  0  0  0  0  0
  1  6  1  0  0  0  0
  1 19  1  0  0  0  0
  2  8  2  0  0  0  0
  3  4  1  0  0  0  0
  3 11  1  0  0  0  0
  3 13  1  0  0  0  0
  4  5  2  0  0  0  0
  4  6  1  0  0  0  0
  5  7  1  0  0  0  0
  5  8  1  0  0  0  0
  6  9  2  0  0  0  0
  7 10  2  0  0  0  0
  7 14  1  0  0  0  0
  8 12  1  0  0  0  0
  9 10  1  0  0  0  0
  9 15  1  0  0  0  0
 10 16  1  0  0  0  0
 11 12  2  0  0  0  0
 11 17  1  0  0  0  0
 12 18  1  0  0  0  0
M  END
> <PUBCHEM_COMPOUND_CID>
440737

> <PUBCHEM_CONFORMER_RMSD>
0.4

> <PUBCHEM_CONFORMER_DIVERSEORDER>
1

> <PUBCHEM_MMFF94_PARTIAL_CHARGES>
19
1 -0.53
10 -0.15
11 -0.05
12 -0.14
13 0.4
14 0.15
15 0.15
16 0.15
17 0.15
18 0.15
19 0.45
2 -0.57
3 -0.6
4 0.1
5 0.09
6 0.08
7 -0.15
8 0.47
9 -0.15

> <PUBCHEM_EFFECTIVE_ROTOR_COUNT>
0

> <PUBCHEM_PHARMACOPHORE_FEATURES>
6
1 1 donor
1 2 acceptor
1 3 cation
1 3 donor
6 3 4 5 8 11 12 rings
6 4 5 6 7 9 10 rings

> <PUBCHEM_HEAVY_ATOM_COUNT>
12

> <PUBCHEM_ATOM_DEF_STEREO_COUNT>
0

> <PUBCHEM_ATOM_UDEF_STEREO_COUNT>
0

> <PUBCHEM_BOND_DEF_STEREO_COUNT>
0

> <PUBCHEM_BOND_UDEF_STEREO_COUNT>
0

> <PUBCHEM_ISOTOPIC_ATOM_COUNT>
0

> <PUBCHEM_COMPONENT_COUNT>
1

> <PUBCHEM_CACTVS_TAUTO_COUNT>
14

> <PUBCHEM_CONFORMER_ID>
0006B9A100000001

> <PUBCHEM_MMFF94_ENERGY>
36.3983

> <PUBCHEM_FEATURE_SELFOVERLAP>
30.474

> <PUBCHEM_SHAPE_FINGERPRINT>
10967382 1 18266740362288843137
11206711 2 18411975892705277854
12423570 1 11568711638384448447
12524768 44 18339639074306216959
12897270 3 18410856559645070951
16945 1 18266460003961431430
17990270 104 18265052603471955502
193761 8 18410575127612764870
19973954 147 18410574023827294794
21040471 1 18050567640304601478
21501502 16 18410855485903253331
2334 1 18338798918357221381
23552423 10 18343017813234757206
23559900 14 17901944468553674582
241688 4 18412262856607968617
25 1 16975907303547972829
2748010 2 18410855442948299263
5084963 1 18186800287929610818
528886 8 18410298050687944163
66348 1 18410575131918281727
7364860 26 18261956344737301230

> <PUBCHEM_SHAPE_MULTIPOLES>
230.23
3.65
2.26
0.59
0.18
0.05
0
0.09
0
-0.09
0
0
-0.01
0

> <PUBCHEM_SHAPE_SELFOVERLAP>
505.334

> <PUBCHEM_SHAPE_VOLUME>
123.2

> <PUBCHEM_COORDINATE_TYPE>
2
5
10

$$$$

