5281455
  -OEChem-07051212573D

 51 54  0     1  0  0  0  0  0999 V2000
    1.6544    1.3408    2.6850 O   0  0  0  0  0  0  0  0  0  0  0  0
    1.4130   -2.2593   -0.6345 O   0  0  0  0  0  0  0  0  0  0  0  0
    3.1858   -0.6351    0.7085 O   0  0  0  0  0  0  0  0  0  0  0  0
   -1.7606    0.0245    0.0250 O   0  0  0  0  0  0  0  0  0  0  0  0
    0.4268    2.1756   -1.4962 O   0  0  0  0  0  0  0  0  0  0  0  0
    0.6042   -4.3789   -0.2811 O   0  0  0  0  0  0  0  0  0  0  0  0
   -3.0243    1.6913    0.9872 O   0  0  0  0  0  0  0  0  0  0  0  0
    1.0976    1.7028    1.4078 C   0  0  1  0  0  0  0  0  0  0  0  0
    2.0277    1.4395    0.2461 C   0  0  1  0  0  0  0  0  0  0  0  0
    2.2571   -0.0275   -0.1898 C   0  0  2  0  0  0  0  0  0  0  0  0
   -0.3869    1.4763    1.3141 C   0  0  0  0  0  0  0  0  0  0  0  0
    1.0034   -0.9114   -0.3015 C   0  0  2  0  0  0  0  0  0  0  0  0
    1.5540    2.7428    2.4211 C   0  0  0  0  0  0  0  0  0  0  0  0
    0.2090   -1.0424    0.9960 C   0  0  1  0  0  0  0  0  0  0  0  0
    1.7688    2.2208   -1.0522 C   0  0  1  0  0  0  0  0  0  0  0  0
   -0.8762    0.0321    1.1526 C   0  0  2  0  0  0  0  0  0  0  0  0
    2.8943    0.2121   -1.5519 C   0  0  0  0  0  0  0  0  0  0  0  0
    2.6128    1.4411   -2.0132 C   0  0  0  0  0  0  0  0  0  0  0  0
   -0.2744   -2.4538    0.8807 C   0  0  0  0  0  0  0  0  0  0  0  0
    3.7062   -0.8135   -2.2628 C   0  0  0  0  0  0  0  0  0  0  0  0
    0.5929   -3.1813   -0.0627 C   0  0  0  0  0  0  0  0  0  0  0  0
   -1.3066   -3.0597    1.4741 C   0  0  0  0  0  0  0  0  0  0  0  0
   -2.7972    0.9096    0.0748 C   0  0  0  0  0  0  0  0  0  0  0  0
   -3.6289    0.7797   -1.1601 C   0  0  0  0  0  0  0  0  0  0  0  0
   -3.3023    1.6551   -2.3335 C   0  0  0  0  0  0  0  0  0  0  0  0
   -4.6379   -0.1087   -1.0977 C   0  0  0  0  0  0  0  0  0  0  0  0
   -5.0129   -0.9725    0.0646 C   0  0  0  0  0  0  0  0  0  0  0  0
    3.0191    1.7858    0.5926 H   0  0  0  0  0  0  0  0  0  0  0  0
   -0.7456    2.1529    0.5347 H   0  0  0  0  0  0  0  0  0  0  0  0
   -0.8434    1.8585    2.2390 H   0  0  0  0  0  0  0  0  0  0  0  0
    0.3677   -0.5817   -1.1308 H   0  0  0  0  0  0  0  0  0  0  0  0
    2.4732    3.2876    2.2449 H   0  0  0  0  0  0  0  0  0  0  0  0
    0.8124    3.3054    2.9744 H   0  0  0  0  0  0  0  0  0  0  0  0
    0.8771   -1.0218    1.8661 H   0  0  0  0  0  0  0  0  0  0  0  0
    2.0878    3.2631   -0.9618 H   0  0  0  0  0  0  0  0  0  0  0  0
   -1.4771   -0.2221    2.0366 H   0  0  0  0  0  0  0  0  0  0  0  0
    2.9326    1.8265   -2.9711 H   0  0  0  0  0  0  0  0  0  0  0  0
    3.2895   -1.5662    0.4477 H   0  0  0  0  0  0  0  0  0  0  0  0
    4.1184   -0.4186   -3.1976 H   0  0  0  0  0  0  0  0  0  0  0  0
    3.1009   -1.6882   -2.5149 H   0  0  0  0  0  0  0  0  0  0  0  0
    4.5480   -1.1364   -1.6428 H   0  0  0  0  0  0  0  0  0  0  0  0
    0.2491    1.3284   -1.9354 H   0  0  0  0  0  0  0  0  0  0  0  0
   -1.9459   -2.5275    2.1698 H   0  0  0  0  0  0  0  0  0  0  0  0
   -1.5427   -4.1020    1.2868 H   0  0  0  0  0  0  0  0  0  0  0  0
   -4.0116    1.5116   -3.1548 H   0  0  0  0  0  0  0  0  0  0  0  0
   -3.3325    2.7094   -2.0409 H   0  0  0  0  0  0  0  0  0  0  0  0
   -2.2996    1.4267   -2.7081 H   0  0  0  0  0  0  0  0  0  0  0  0
   -5.2710   -0.2222   -1.9759 H   0  0  0  0  0  0  0  0  0  0  0  0
   -6.0432   -0.7554    0.3640 H   0  0  0  0  0  0  0  0  0  0  0  0
   -4.3768   -0.8428    0.9434 H   0  0  0  0  0  0  0  0  0  0  0  0
   -4.9610   -2.0252   -0.2312 H   0  0  0  0  0  0  0  0  0  0  0  0
  1  8  1  0  0  0  0
  1 13  1  0  0  0  0
  2 12  1  0  0  0  0
  2 21  1  0  0  0  0
  3 10  1  0  0  0  0
  3 38  1  0  0  0  0
  4 16  1  0  0  0  0
  4 23  1  0  0  0  0
  5 15  1  0  0  0  0
  5 42  1  0  0  0  0
  6 21  2  0  0  0  0
  7 23  2  0  0  0  0
  8  9  1  0  0  0  0
  8 11  1  0  0  0  0
  8 13  1  0  0  0  0
  9 10  1  0  0  0  0
  9 15  1  0  0  0  0
  9 28  1  0  0  0  0
 10 12  1  0  0  0  0
 10 17  1  0  0  0  0
 11 16  1  0  0  0  0
 11 29  1  0  0  0  0
 11 30  1  0  0  0  0
 12 14  1  0  0  0  0
 12 31  1  0  0  0  0
 13 32  1  0  0  0  0
 13 33  1  0  0  0  0
 14 16  1  0  0  0  0
 14 19  1  0  0  0  0
 14 34  1  0  0  0  0
 15 18  1  0  0  0  0
 15 35  1  0  0  0  0
 16 36  1  0  0  0  0
 17 18  2  0  0  0  0
 17 20  1  0  0  0  0
 18 37  1  0  0  0  0
 19 21  1  0  0  0  0
 19 22  2  0  0  0  0
 20 39  1  0  0  0  0
 20 40  1  0  0  0  0
 20 41  1  0  0  0  0
 22 43  1  0  0  0  0
 22 44  1  0  0  0  0
 23 24  1  0  0  0  0
 24 25  1  0  0  0  0
 24 26  2  0  0  0  0
 25 45  1  0  0  0  0
 25 46  1  0  0  0  0
 25 47  1  0  0  0  0
 26 27  1  0  0  0  0
 26 48  1  0  0  0  0
 27 49  1  0  0  0  0
 27 50  1  0  0  0  0
 27 51  1  0  0  0  0
M  END
> <PUBCHEM_COMPOUND_CID>
5281455

> <PUBCHEM_CONFORMER_RMSD>
0.8

> <PUBCHEM_CONFORMER_DIVERSEORDER>
1
8
9
7
5
4
3
2
6

> <PUBCHEM_MMFF94_PARTIAL_CHARGES>
35
1 -0.3
10 0.42
11 0.09
12 0.28
13 -0.05
14 0.14
15 0.42
16 0.28
17 -0.28
18 -0.29
19 -0.12
2 -0.43
20 0.14
21 0.71
22 -0.3
23 0.71
24 -0.12
25 0.14
26 -0.29
27 0.14
3 -0.68
32 0.1
33 0.1
37 0.15
38 0.4
4 -0.43
42 0.4
43 0.15
44 0.15
48 0.15
5 -0.68
6 -0.57
7 -0.57
8 -0.04
9 0.09

> <PUBCHEM_EFFECTIVE_ROTOR_COUNT>
4.2

> <PUBCHEM_PHARMACOPHORE_FEATURES>
12
1 1 acceptor
1 25 hydrophobe
1 27 hydrophobe
1 3 acceptor
1 3 donor
1 5 acceptor
1 5 donor
1 6 acceptor
1 7 acceptor
5 2 12 14 19 21 rings
5 9 10 15 17 18 rings
7 8 9 10 11 12 14 16 rings

> <PUBCHEM_HEAVY_ATOM_COUNT>
27

> <PUBCHEM_ATOM_DEF_STEREO_COUNT>
7

> <PUBCHEM_ATOM_UDEF_STEREO_COUNT>
0

> <PUBCHEM_BOND_DEF_STEREO_COUNT>
1

> <PUBCHEM_BOND_UDEF_STEREO_COUNT>
0

> <PUBCHEM_ISOTOPIC_ATOM_COUNT>
0

> <PUBCHEM_COMPONENT_COUNT>
1

> <PUBCHEM_CACTVS_TAUTO_COUNT>
1

> <PUBCHEM_CONFORMER_ID>
005096AF00000001

> <PUBCHEM_MMFF94_ENERGY>
84.4273

> <PUBCHEM_FEATURE_SELFOVERLAP>
60.972

> <PUBCHEM_SHAPE_FINGERPRINT>
10165383 225 18054756620967243529
10764073 3 16257639160422936953
107951 10 15306369080693388444
10863032 1 15194987371794215004
11578080 2 17904195936947839968
12160290 23 17981892934846201027
12597179 24 17680724622365688784
13149001 5 18115297857227470116
14787075 74 17967255321440170080
15849732 13 17631476530332190288
16945 1 18266719428992906008
17492 54 17845637210055669580
20567600 347 18192176839997626747
20775438 99 17462019669242094863
21285901 2 17762313839518088207
21452121 99 18270678645610158650
22182313 1 17974562494754639387
22907989 373 17912338962959561647
23419403 2 17318991863541976288
23526113 38 18114169809826650880
23559900 14 17843704363805062775
238 59 18411978057574600815
25222932 49 16957371367660203157
2748010 2 18046620110114234538
298252 57 17703495619877474228
3052486 1 17840886070463499331
3060560 45 18201728335798709053
3323516 105 18260546672151889055
484989 97 18196353837258654603
5845 1 8193998672674465219
6669772 16 17970653817059730706
81228 2 17620471312033023483

> <PUBCHEM_SHAPE_MULTIPOLES>
514.56
6.49
3.76
2.34
7.5
3.71
0.16
-1.5
-3.64
-0.59
0.6
-1.17
-1.48
1.37

> <PUBCHEM_SHAPE_SELFOVERLAP>
1110.248

> <PUBCHEM_SHAPE_VOLUME>
282.8

> <PUBCHEM_COORDINATE_TYPE>
2
5
10

$$$$

