23724659
  -OEChem-07051213083D

 24 24  0     0  0  0  0  0  0999 V2000
    2.1930   -1.1525   -1.4136 O   0  0  0  0  0  0  0  0  0  0  0  0
   -0.6716    2.8707    0.9525 O   0  0  0  0  0  0  0  0  0  0  0  0
   -0.9677    2.8153   -1.3030 O   0  0  0  0  0  0  0  0  0  0  0  0
    4.1380   -0.5742    0.1694 O   0  0  0  0  0  0  0  0  0  0  0  0
    2.7999    0.8431    1.3609 O   0  0  0  0  0  0  0  0  0  0  0  0
   -0.4852   -0.5076   -0.1158 C   0  0  0  0  0  0  0  0  0  0  0  0
   -1.8660    0.0124    0.0830 C   0  0  0  0  0  0  0  0  0  0  0  0
   -0.2858   -1.9627   -0.0533 C   0  0  0  0  0  0  0  0  0  0  0  0
   -2.9366   -0.9644    0.3297 C   0  0  0  0  0  0  0  0  0  0  0  0
   -1.3223   -2.7865    0.1769 C   0  0  0  0  0  0  0  0  0  0  0  0
    0.5897    0.2678   -0.3490 C   0  0  0  0  0  0  0  0  0  0  0  0
   -2.6666   -2.2802    0.3715 C   0  0  0  0  0  0  0  0  0  0  0  0
   -2.1954    1.3167    0.0522 C   0  0  0  0  0  0  0  0  0  0  0  0
    1.9168   -0.3533   -0.5324 C   0  0  0  0  0  0  0  0  0  0  0  0
   -1.2286    2.3984   -0.1838 C   0  0  0  0  0  0  0  0  0  0  0  0
    2.9883    0.0570    0.4548 C   0  0  0  0  0  0  0  0  0  0  0  0
    0.6869   -2.4281   -0.1455 H   0  0  0  0  0  0  0  0  0  0  0  0
   -3.9536   -0.6151    0.4798 H   0  0  0  0  0  0  0  0  0  0  0  0
    0.6743    1.3349   -0.3782 H   0  0  0  0  0  0  0  0  0  0  0  0
   -1.1750   -3.8595    0.2403 H   0  0  0  0  0  0  0  0  0  0  0  0
   -3.4555   -3.0016    0.5549 H   0  0  0  0  0  0  0  0  0  0  0  0
   -3.2189    1.6486    0.2046 H   0  0  0  0  0  0  0  0  0  0  0  0
   -0.0294    3.5911    0.7763 H   0  0  0  0  0  0  0  0  0  0  0  0
    4.1101   -1.1791   -0.6027 H   0  0  0  0  0  0  0  0  0  0  0  0
  1 14  2  0  0  0  0
  2 15  1  0  0  0  0
  2 23  1  0  0  0  0
  3 15  2  0  0  0  0
  4 16  1  0  0  0  0
  4 24  1  0  0  0  0
  5 16  2  0  0  0  0
  6  7  1  0  0  0  0
  6  8  1  0  0  0  0
  6 11  2  0  0  0  0
  7  9  1  0  0  0  0
  7 13  2  0  0  0  0
  8 10  2  0  0  0  0
  8 17  1  0  0  0  0
  9 12  2  0  0  0  0
  9 18  1  0  0  0  0
 10 12  1  0  0  0  0
 10 20  1  0  0  0  0
 11 14  1  0  0  0  0
 11 19  1  0  0  0  0
 12 21  1  0  0  0  0
 13 15  1  0  0  0  0
 13 22  1  0  0  0  0
 14 16  1  0  0  0  0
M  END
> <PUBCHEM_COMPOUND_CID>
23724659

> <PUBCHEM_CONFORMER_RMSD>
0.6

> <PUBCHEM_CONFORMER_DIVERSEORDER>
1
2
4
5
3

> <PUBCHEM_MMFF94_PARTIAL_CHARGES>
22
1 -0.57
10 -0.15
11 -0.14
12 -0.15
13 -0.14
14 0.56
15 0.71
16 0.72
17 0.15
18 0.15
19 0.15
2 -0.65
20 0.15
21 0.15
22 0.15
23 0.5
24 0.5
3 -0.57
4 -0.65
5 -0.57
8 -0.15
9 -0.15

> <PUBCHEM_EFFECTIVE_ROTOR_COUNT>
3

> <PUBCHEM_PHARMACOPHORE_FEATURES>
8
1 1 acceptor
1 2 acceptor
1 3 acceptor
1 4 acceptor
1 5 acceptor
3 2 3 15 anion
3 4 5 16 anion
6 6 7 8 9 10 12 rings

> <PUBCHEM_HEAVY_ATOM_COUNT>
16

> <PUBCHEM_ATOM_DEF_STEREO_COUNT>
0

> <PUBCHEM_ATOM_UDEF_STEREO_COUNT>
0

> <PUBCHEM_BOND_DEF_STEREO_COUNT>
2

> <PUBCHEM_BOND_UDEF_STEREO_COUNT>
0

> <PUBCHEM_ISOTOPIC_ATOM_COUNT>
0

> <PUBCHEM_COMPONENT_COUNT>
1

> <PUBCHEM_CACTVS_TAUTO_COUNT>
1

> <PUBCHEM_CONFORMER_ID>
016A027300000001

> <PUBCHEM_MMFF94_ENERGY>
68.527

> <PUBCHEM_FEATURE_SELFOVERLAP>
40.72

> <PUBCHEM_SHAPE_FINGERPRINT>
10989021 7 18050566240504192995
12644460 14 17478305562674117451
13083527 12 17182235625229092791
13140716 1 18339632352851236545
14022349 108 17545315276979308953
14614273 12 18198345263311594029
15490181 7 17979068607074975687
16945 1 18342449374508433919
19049666 15 18043804501723193438
193761 8 17907855463958730839
19868273 325 18339921515666484375
20388701 513 18410859836826592874
20510252 161 18408884065891842530
21524375 3 17905889528356423095
21650355 55 18268721523407699954
220403 375 17768259268456529277
2297311 6 18336812105837272918
2334 1 18194673774805772767
23388829 49 17035299081583621223
23402539 116 18335432244208535607
23419403 2 17693411878374470901
23557571 272 18335973195386588708
23559900 14 18336262427411969486
23598294 1 18341621420661805506
2748010 2 18337658806920970423
305870 269 17837776990444241066
350125 39 17835791281240108067
5902787 121 17912081651326764595
7364860 26 17543620942487875655
81228 2 18339909481194436419
84936 182 17184485745578930333
8809292 202 18335137643843020346
90316 7 18342185427145487369

> <PUBCHEM_SHAPE_MULTIPOLES>
299.93
4.89
3.24
0.97
4.17
1.65
-0.06
-1.97
0.93
-2.29
-0.13
0.46
0.27
0.57

> <PUBCHEM_SHAPE_SELFOVERLAP>
633.414

> <PUBCHEM_SHAPE_VOLUME>
164.6

> <PUBCHEM_COORDINATE_TYPE>
2
5
10

$$$$

