5281474
  -OEChem-07051212573D

 58 59  0     1  0  0  0  0  0999 V2000
    0.3833   -2.6927   -0.1879 O   0  0  0  0  0  0  0  0  0  0  0  0
   -2.3258   -0.7071   -0.9571 O   0  0  0  0  0  0  0  0  0  0  0  0
   -0.8523    1.8402   -0.6281 O   0  0  0  0  0  0  0  0  0  0  0  0
   -1.5377   -3.3777   -1.2212 O   0  0  0  0  0  0  0  0  0  0  0  0
   -2.4313   -1.8120    1.0602 O   0  0  0  0  0  0  0  0  0  0  0  0
    0.2983    3.6246   -1.5383 O   0  0  0  0  0  0  0  0  0  0  0  0
   -0.0748   -0.3655   -0.0682 C   0  0  1  0  0  0  0  0  0  0  0  0
   -0.9555   -1.0151   -1.1532 C   0  0  1  0  0  0  0  0  0  0  0  0
    0.9927   -1.4485    0.1922 C   0  0  2  0  0  0  0  0  0  0  0  0
    0.3526    1.1012   -0.3628 C   0  0  2  0  0  0  0  0  0  0  0  0
   -0.7783   -2.4856   -0.8736 C   0  0  0  0  0  0  0  0  0  0  0  0
    1.0794    1.8626    0.7748 C   0  0  0  0  0  0  0  0  0  0  0  0
   -0.5967   -0.7337   -2.6080 C   0  0  0  0  0  0  0  0  0  0  0  0
    2.2960   -1.2906   -0.5360 C   0  0  0  0  0  0  0  0  0  0  0  0
    2.5270    1.4997    1.0411 C   0  0  0  0  0  0  0  0  0  0  0  0
    3.5208   -1.4370    0.0123 C   0  0  0  0  0  0  0  0  0  0  0  0
    4.6759   -0.6533   -0.5897 C   0  0  0  0  0  0  0  0  0  0  0  0
    4.7714    0.7596    0.0471 C   0  0  0  0  0  0  0  0  0  0  0  0
    3.4240    1.4470    0.0324 C   0  0  0  0  0  0  0  0  0  0  0  0
   -2.8241   -0.9440    0.2938 C   0  0  0  0  0  0  0  0  0  0  0  0
    2.8171    1.1385    2.4722 C   0  0  0  0  0  0  0  0  0  0  0  0
    3.8158   -2.1574    1.2961 C   0  0  0  0  0  0  0  0  0  0  0  0
   -0.6688    3.1464   -0.9610 C   0  0  0  0  0  0  0  0  0  0  0  0
   -3.9317    0.0145    0.5908 C   0  0  0  0  0  0  0  0  0  0  0  0
   -1.8545    3.9434   -0.5084 C   0  0  0  0  0  0  0  0  0  0  0  0
   -4.7338    0.5528   -0.5567 C   0  0  0  0  0  0  0  0  0  0  0  0
   -4.0949    0.3399    1.8864 C   0  0  0  0  0  0  0  0  0  0  0  0
   -3.2940   -0.1503    3.0508 C   0  0  0  0  0  0  0  0  0  0  0  0
   -0.6328   -0.2846    0.8712 H   0  0  0  0  0  0  0  0  0  0  0  0
    1.1642   -1.4935    1.2731 H   0  0  0  0  0  0  0  0  0  0  0  0
    0.9506    1.1239   -1.2802 H   0  0  0  0  0  0  0  0  0  0  0  0
    0.4905    1.7009    1.6893 H   0  0  0  0  0  0  0  0  0  0  0  0
    1.0654    2.9512    0.6575 H   0  0  0  0  0  0  0  0  0  0  0  0
   -0.7519    0.3196   -2.8625 H   0  0  0  0  0  0  0  0  0  0  0  0
    0.4331   -1.0085   -2.8494 H   0  0  0  0  0  0  0  0  0  0  0  0
   -1.2506   -1.3042   -3.2792 H   0  0  0  0  0  0  0  0  0  0  0  0
    2.2335   -0.7912   -1.5000 H   0  0  0  0  0  0  0  0  0  0  0  0
    5.6198   -1.1928   -0.4494 H   0  0  0  0  0  0  0  0  0  0  0  0
    4.5426   -0.5520   -1.6750 H   0  0  0  0  0  0  0  0  0  0  0  0
    5.4865    1.3662   -0.5207 H   0  0  0  0  0  0  0  0  0  0  0  0
    5.1798    0.6788    1.0583 H   0  0  0  0  0  0  0  0  0  0  0  0
    3.1069    1.7706   -0.9579 H   0  0  0  0  0  0  0  0  0  0  0  0
    2.2529    0.2472    2.7640 H   0  0  0  0  0  0  0  0  0  0  0  0
    2.5179    1.9624    3.1297 H   0  0  0  0  0  0  0  0  0  0  0  0
    3.8738    0.9499    2.6700 H   0  0  0  0  0  0  0  0  0  0  0  0
    2.9564   -2.7177    1.6744 H   0  0  0  0  0  0  0  0  0  0  0  0
    4.1405   -1.4615    2.0739 H   0  0  0  0  0  0  0  0  0  0  0  0
    4.6190   -2.8844    1.1338 H   0  0  0  0  0  0  0  0  0  0  0  0
   -1.9741    3.8482    0.5739 H   0  0  0  0  0  0  0  0  0  0  0  0
   -2.7526    3.5985   -1.0267 H   0  0  0  0  0  0  0  0  0  0  0  0
   -1.6952    4.9986   -0.7484 H   0  0  0  0  0  0  0  0  0  0  0  0
   -5.1420   -0.2672   -1.1562 H   0  0  0  0  0  0  0  0  0  0  0  0
   -5.5764    1.1575   -0.2054 H   0  0  0  0  0  0  0  0  0  0  0  0
   -4.1156    1.1867   -1.2003 H   0  0  0  0  0  0  0  0  0  0  0  0
   -4.8948    1.0345    2.1366 H   0  0  0  0  0  0  0  0  0  0  0  0
   -3.4600    0.5173    3.9038 H   0  0  0  0  0  0  0  0  0  0  0  0
   -2.2175   -0.1347    2.8581 H   0  0  0  0  0  0  0  0  0  0  0  0
   -3.6148   -1.1511    3.3540 H   0  0  0  0  0  0  0  0  0  0  0  0
  1  9  1  0  0  0  0
  1 11  1  0  0  0  0
  2  8  1  0  0  0  0
  2 20  1  0  0  0  0
  3 10  1  0  0  0  0
  3 23  1  0  0  0  0
  4 11  2  0  0  0  0
  5 20  2  0  0  0  0
  6 23  2  0  0  0  0
  7  8  1  0  0  0  0
  7  9  1  0  0  0  0
  7 10  1  0  0  0  0
  7 29  1  0  0  0  0
  8 11  1  0  0  0  0
  8 13  1  0  0  0  0
  9 14  1  0  0  0  0
  9 30  1  0  0  0  0
 10 12  1  0  0  0  0
 10 31  1  0  0  0  0
 12 15  1  0  0  0  0
 12 32  1  0  0  0  0
 12 33  1  0  0  0  0
 13 34  1  0  0  0  0
 13 35  1  0  0  0  0
 13 36  1  0  0  0  0
 14 16  2  0  0  0  0
 14 37  1  0  0  0  0
 15 19  2  0  0  0  0
 15 21  1  0  0  0  0
 16 17  1  0  0  0  0
 16 22  1  0  0  0  0
 17 18  1  0  0  0  0
 17 38  1  0  0  0  0
 17 39  1  0  0  0  0
 18 19  1  0  0  0  0
 18 40  1  0  0  0  0
 18 41  1  0  0  0  0
 19 42  1  0  0  0  0
 20 24  1  0  0  0  0
 21 43  1  0  0  0  0
 21 44  1  0  0  0  0
 21 45  1  0  0  0  0
 22 46  1  0  0  0  0
 22 47  1  0  0  0  0
 22 48  1  0  0  0  0
 23 25  1  0  0  0  0
 24 26  1  0  0  0  0
 24 27  2  0  0  0  0
 25 49  1  0  0  0  0
 25 50  1  0  0  0  0
 25 51  1  0  0  0  0
 26 52  1  0  0  0  0
 26 53  1  0  0  0  0
 26 54  1  0  0  0  0
 27 28  1  0  0  0  0
 27 55  1  0  0  0  0
 28 56  1  0  0  0  0
 28 57  1  0  0  0  0
 28 58  1  0  0  0  0
M  END
> <PUBCHEM_COMPOUND_CID>
5281474

> <PUBCHEM_CONFORMER_RMSD>
0.8

> <PUBCHEM_CONFORMER_DIVERSEORDER>
6
58
40
37
89
47
8
66
53
59
87
57
52
65
83
14
9
33
68
7
77
50
75
56
67
49
88
78
80
92
82
26
70
84
36
64
3
25
81
13
15
85
90
10
71
76
46
27
79
24
72
16
63
54
60
21
23
73
29
42
12
51
2
11
20
4
86
44
55
38
35
39
30
41
61
34
43
48
31
91
62
74
5
45
18
19
22
69
28
32
1
17

> <PUBCHEM_MMFF94_PARTIAL_CHARGES>
29
1 -0.43
10 0.28
11 0.66
12 0.14
14 -0.29
15 -0.28
16 -0.28
17 0.14
18 0.14
19 -0.29
2 -0.43
20 0.71
21 0.14
22 0.14
23 0.66
24 -0.12
25 0.06
26 0.14
27 -0.29
28 0.14
3 -0.43
37 0.15
4 -0.57
42 0.15
5 -0.57
55 0.15
6 -0.57
8 0.34
9 0.42

> <PUBCHEM_EFFECTIVE_ROTOR_COUNT>
6.2

> <PUBCHEM_PHARMACOPHORE_FEATURES>
6
1 26 hydrophobe
1 28 hydrophobe
1 4 acceptor
1 5 acceptor
1 6 acceptor
5 1 7 8 9 11 rings

> <PUBCHEM_HEAVY_ATOM_COUNT>
28

> <PUBCHEM_ATOM_DEF_STEREO_COUNT>
4

> <PUBCHEM_ATOM_UDEF_STEREO_COUNT>
0

> <PUBCHEM_BOND_DEF_STEREO_COUNT>
3

> <PUBCHEM_BOND_UDEF_STEREO_COUNT>
0

> <PUBCHEM_ISOTOPIC_ATOM_COUNT>
0

> <PUBCHEM_COMPONENT_COUNT>
1

> <PUBCHEM_CACTVS_TAUTO_COUNT>
1

> <PUBCHEM_CONFORMER_ID>
005096C200000006

> <PUBCHEM_MMFF94_ENERGY>
90.0308

> <PUBCHEM_FEATURE_SELFOVERLAP>
30.448

> <PUBCHEM_SHAPE_FINGERPRINT>
10382601 240 18338516331659364184
11115154 58 16521630425616967143
11582403 64 14129614544693901701
12160290 23 17912676718987966900
12166972 35 18261393283468405233
12422481 6 18121199129339077873
12553582 1 18197232360107651180
12633257 1 18186524323696848586
12788726 201 18272366533661459888
13140716 1 18337404746567795594
133893 2 16982665515854503724
13692114 37 17976005338064127029
13965767 371 18044629088373277081
14178342 30 17831033325154674490
14790565 3 18335976549550818508
14840074 17 18338496595635993625
14955137 171 18055335956036334824
15219462 58 16702017617202984568
1601671 61 17894899768019068594
16945 1 18194427527477832500
19591789 44 18263932209760490428
20691752 17 18269009617308789266
20739085 24 18338779178756263280
21033648 29 18187370917564314769
23184049 59 18334850606625263411
23419403 2 17028504537815749309
23559900 14 16630527396723575058
2748010 2 18266475354338454740
350125 39 18337396058027985432
35225 105 17415864619175553889
474 4 17749939072755500195
6287921 2 17686623442145388968
6992083 37 18191302685060895437
7097593 13 18122620548754729605

> <PUBCHEM_SHAPE_MULTIPOLES>
541.01
8.01
3.8
2.06
1.52
2.06
0.95
-0.49
3.14
-0.49
-1.53
-1.25
0.09
0.34

> <PUBCHEM_SHAPE_SELFOVERLAP>
1119.119

> <PUBCHEM_SHAPE_VOLUME>
308

> <PUBCHEM_COORDINATE_TYPE>
2
5
10

$$$$

