5281627
  -OEChem-07051212583D

 58 63  0     0  0  0  0  0  0999 V2000
    5.0149   -0.4005    0.5851 O   0  0  0  0  0  0  0  0  0  0  0  0
    0.3977   -3.4057    0.1805 O   0  0  0  0  0  0  0  0  0  0  0  0
   -4.4399    0.6569    0.3305 O   0  0  0  0  0  0  0  0  0  0  0  0
    0.9807   -1.6196   -1.7990 O   0  0  0  0  0  0  0  0  0  0  0  0
    2.0955   -3.6971    2.3428 O   0  0  0  0  0  0  0  0  0  0  0  0
    2.6488    0.1844   -2.6797 O   0  0  0  0  0  0  0  0  0  0  0  0
   -9.1955    1.2403   -0.4042 O   0  0  0  0  0  0  0  0  0  0  0  0
   -7.9727   -1.0532   -0.7626 O   0  0  0  0  0  0  0  0  0  0  0  0
   -6.4966    4.8804    1.0178 O   0  0  0  0  0  0  0  0  0  0  0  0
   10.1539    3.2839    0.5803 O   0  0  0  0  0  0  0  0  0  0  0  0
    3.0046   -0.9746   -0.6515 C   0  0  0  0  0  0  0  0  0  0  0  0
    3.8583   -1.1239    0.4403 C   0  0  0  0  0  0  0  0  0  0  0  0
    1.8389   -1.7381   -0.7462 C   0  0  0  0  0  0  0  0  0  0  0  0
    1.5332   -2.6538    0.2613 C   0  0  0  0  0  0  0  0  0  0  0  0
    5.3508    0.5128   -0.4029 C   0  0  0  0  0  0  0  0  0  0  0  0
   -3.2316   -1.3973    0.0345 C   0  0  0  0  0  0  0  0  0  0  0  0
   -4.5231   -0.6830   -0.0167 C   0  0  0  0  0  0  0  0  0  0  0  0
    3.3531   -0.0003   -1.6967 C   0  0  0  0  0  0  0  0  0  0  0  0
    3.5499   -2.0398    1.4464 C   0  0  0  0  0  0  0  0  0  0  0  0
    2.3866   -2.8045    1.3554 C   0  0  0  0  0  0  0  0  0  0  0  0
   -6.8272    0.8882   -0.0534 C   0  0  0  0  0  0  0  0  0  0  0  0
   -5.5865    1.4099    0.3090 C   0  0  0  0  0  0  0  0  0  0  0  0
    4.6086    0.7510   -1.4958 C   0  0  0  0  0  0  0  0  0  0  0  0
   -0.8118   -2.7360    0.1319 C   0  0  0  0  0  0  0  0  0  0  0  0
    6.6099    1.2398   -0.1447 C   0  0  0  0  0  0  0  0  0  0  0  0
   -5.6567   -1.2982   -0.3895 C   0  0  0  0  0  0  0  0  0  0  0  0
   -6.9176   -0.5305   -0.4309 C   0  0  0  0  0  0  0  0  0  0  0  0
   -2.9872   -2.4600   -0.8351 C   0  0  0  0  0  0  0  0  0  0  0  0
   -2.2564   -1.0094    0.9533 C   0  0  0  0  0  0  0  0  0  0  0  0
   -1.7674   -3.1348   -0.7861 C   0  0  0  0  0  0  0  0  0  0  0  0
   -1.0366   -1.6842    1.0022 C   0  0  0  0  0  0  0  0  0  0  0  0
   -7.9620    1.7026   -0.0579 C   0  0  0  0  0  0  0  0  0  0  0  0
   -5.4732    2.7527    0.6696 C   0  0  0  0  0  0  0  0  0  0  0  0
   -6.6043    3.5694    0.6666 C   0  0  0  0  0  0  0  0  0  0  0  0
   -7.8458    3.0452    0.3037 C   0  0  0  0  0  0  0  0  0  0  0  0
    6.7738    2.5470   -0.6093 C   0  0  0  0  0  0  0  0  0  0  0  0
    7.6433    0.6230    0.5651 C   0  0  0  0  0  0  0  0  0  0  0  0
    7.9637    3.2332   -0.3659 C   0  0  0  0  0  0  0  0  0  0  0  0
    8.8330    1.3093    0.8087 C   0  0  0  0  0  0  0  0  0  0  0  0
    8.9932    2.6143    0.3432 C   0  0  0  0  0  0  0  0  0  0  0  0
    4.2134   -2.1588    2.2993 H   0  0  0  0  0  0  0  0  0  0  0  0
    4.8795    1.4565   -2.2725 H   0  0  0  0  0  0  0  0  0  0  0  0
   -5.7217   -2.3485   -0.6482 H   0  0  0  0  0  0  0  0  0  0  0  0
   -3.7117   -2.7781   -1.5798 H   0  0  0  0  0  0  0  0  0  0  0  0
   -2.4255   -0.1929    1.6510 H   0  0  0  0  0  0  0  0  0  0  0  0
   -1.5759   -3.9585   -1.4673 H   0  0  0  0  0  0  0  0  0  0  0  0
   -0.3024   -1.3761    1.7404 H   0  0  0  0  0  0  0  0  0  0  0  0
   -4.5073    3.1635    0.9524 H   0  0  0  0  0  0  0  0  0  0  0  0
   -8.7282    3.6810    0.3008 H   0  0  0  0  0  0  0  0  0  0  0  0
    5.9880    3.0717   -1.1463 H   0  0  0  0  0  0  0  0  0  0  0  0
    7.5490   -0.3961    0.9321 H   0  0  0  0  0  0  0  0  0  0  0  0
    1.2942   -0.9490   -2.4244 H   0  0  0  0  0  0  0  0  0  0  0  0
    8.0746    4.2512   -0.7296 H   0  0  0  0  0  0  0  0  0  0  0  0
    9.6323    0.8215    1.3599 H   0  0  0  0  0  0  0  0  0  0  0  0
    1.2569   -4.1374    2.1199 H   0  0  0  0  0  0  0  0  0  0  0  0
   -9.1544    0.2990   -0.6324 H   0  0  0  0  0  0  0  0  0  0  0  0
   -7.3743    5.2955    0.9601 H   0  0  0  0  0  0  0  0  0  0  0  0
   10.0915    4.1716    0.1876 H   0  0  0  0  0  0  0  0  0  0  0  0
  1 12  1  0  0  0  0
  1 15  1  0  0  0  0
  2 14  1  0  0  0  0
  2 24  1  0  0  0  0
  3 17  1  0  0  0  0
  3 22  1  0  0  0  0
  4 13  1  0  0  0  0
  4 52  1  0  0  0  0
  5 20  1  0  0  0  0
  5 55  1  0  0  0  0
  6 18  2  0  0  0  0
  7 32  1  0  0  0  0
  7 56  1  0  0  0  0
  8 27  2  0  0  0  0
  9 34  1  0  0  0  0
  9 57  1  0  0  0  0
 10 40  1  0  0  0  0
 10 58  1  0  0  0  0
 11 12  2  0  0  0  0
 11 13  1  0  0  0  0
 11 18  1  0  0  0  0
 12 19  1  0  0  0  0
 13 14  2  0  0  0  0
 14 20  1  0  0  0  0
 15 23  2  0  0  0  0
 15 25  1  0  0  0  0
 16 17  1  0  0  0  0
 16 28  2  0  0  0  0
 16 29  1  0  0  0  0
 17 26  2  0  0  0  0
 18 23  1  0  0  0  0
 19 20  2  0  0  0  0
 19 41  1  0  0  0  0
 21 22  1  0  0  0  0
 21 27  1  0  0  0  0
 21 32  2  0  0  0  0
 22 33  2  0  0  0  0
 23 42  1  0  0  0  0
 24 30  2  0  0  0  0
 24 31  1  0  0  0  0
 25 36  2  0  0  0  0
 25 37  1  0  0  0  0
 26 27  1  0  0  0  0
 26 43  1  0  0  0  0
 28 30  1  0  0  0  0
 28 44  1  0  0  0  0
 29 31  2  0  0  0  0
 29 45  1  0  0  0  0
 30 46  1  0  0  0  0
 31 47  1  0  0  0  0
 32 35  1  0  0  0  0
 33 34  1  0  0  0  0
 33 48  1  0  0  0  0
 34 35  2  0  0  0  0
 35 49  1  0  0  0  0
 36 38  1  0  0  0  0
 36 50  1  0  0  0  0
 37 39  2  0  0  0  0
 37 51  1  0  0  0  0
 38 40  2  0  0  0  0
 38 53  1  0  0  0  0
 39 40  1  0  0  0  0
 39 54  1  0  0  0  0
M  END
> <PUBCHEM_COMPOUND_CID>
5281627

> <PUBCHEM_CONFORMER_RMSD>
0.8

> <PUBCHEM_CONFORMER_DIVERSEORDER>
1
6
34
16
25
19
31
18
11
32
28
14
36
7
21
35
15
33
26
2
8
30
27
17
29
20
4
12
22
13
5
23
9
24
3
10

> <PUBCHEM_MMFF94_PARTIAL_CHARGES>
58
1 -0.16
10 -0.53
11 0.09
12 0.08
13 0.08
14 0.08
15 0.05
16 0.03
17 0.05
18 0.47
19 -0.15
2 -0.17
20 0.08
21 0.09
22 0.08
23 -0.14
24 0.08
25 0.03
26 -0.14
27 0.47
28 -0.15
29 -0.15
3 -0.16
30 -0.15
31 -0.15
32 0.08
33 -0.15
34 0.08
35 -0.15
36 -0.15
37 -0.15
38 -0.15
39 -0.15
4 -0.53
40 0.08
41 0.15
42 0.15
43 0.15
44 0.15
45 0.15
46 0.15
47 0.15
48 0.15
49 0.15
5 -0.53
50 0.15
51 0.15
52 0.45
53 0.15
54 0.15
55 0.45
56 0.45
57 0.45
58 0.45
6 -0.57
7 -0.53
8 -0.57
9 -0.53

> <PUBCHEM_EFFECTIVE_ROTOR_COUNT>
4

> <PUBCHEM_PHARMACOPHORE_FEATURES>
16
1 1 acceptor
1 10 donor
1 2 acceptor
1 3 acceptor
1 4 donor
1 5 donor
1 6 acceptor
1 7 donor
1 8 acceptor
1 9 donor
6 1 11 12 15 18 23 rings
6 11 12 13 14 19 20 rings
6 16 24 28 29 30 31 rings
6 21 22 32 33 34 35 rings
6 25 36 37 38 39 40 rings
6 3 17 21 22 26 27 rings

> <PUBCHEM_HEAVY_ATOM_COUNT>
40

> <PUBCHEM_ATOM_DEF_STEREO_COUNT>
0

> <PUBCHEM_ATOM_UDEF_STEREO_COUNT>
0

> <PUBCHEM_BOND_DEF_STEREO_COUNT>
0

> <PUBCHEM_BOND_UDEF_STEREO_COUNT>
0

> <PUBCHEM_ISOTOPIC_ATOM_COUNT>
0

> <PUBCHEM_COMPONENT_COUNT>
1

> <PUBCHEM_CACTVS_TAUTO_COUNT>
684

> <PUBCHEM_CONFORMER_ID>
0050975B00000001

> <PUBCHEM_MMFF94_ENERGY>
138.9639

> <PUBCHEM_FEATURE_SELFOVERLAP>
81.247

> <PUBCHEM_SHAPE_FINGERPRINT>
10190108 129 17346035684401003174
10190206 1 17603579738339178985
10280341 67 18188220814631227272
10533779 1 18412552010918490181
10693767 8 7493288842184190130
10930396 42 16486976198774029845
10939801 23 18411138060771828669
11181472 205 18343299238001409900
11578821 258 18194683662660291124
11973864 47 18335143064614118059
12013929 29 18045216300597355713
12133447 93 18337658781272688124
12522641 68 18187083923180913958
13008946 267 18341893026732584642
13248334 5 18195528323217817906
13726171 33 18261384603339286211
13782708 43 9150587104129960707
14040222 383 18336830797002500744
14394314 77 18343585118438400436
15150948 74 18413670227429527317
15152005 290 18409167701448437310
15289351 153 18411423917047444770
15347591 1 18410011048168679067
15439362 3 18409164425080286150
15840311 113 18343302587622421214
16728433 281 17604420912206180953
19053607 189 18260839244886360187
19303781 99 10159695746775353344
19304144 158 18187358805725203239
19438510 23 18273493468233649002
20505436 4 18410864230874724558
20721686 146 18335419025005807716
20982279 24 6266310862077586813
21298829 104 18413668015251603653
21774942 28 18407757028530874940
21781055 127 18060128814492222238
21792938 703 7492995298122265310
21792965 68 18410570644252684962
23516275 100 18338234985237384077
24771293 8 18412262831181348813
25242607 90 8862948251916307558
25269216 80 17241060808160791479
2851757 15 18408880733329926358
306946 40 16950572026889101512
3504750 166 11095870546638963097
3918712 181 18336828705865383273
4366758 26 18412820261991823548
44249763 50 17241348927251681903
44426699 153 14547638971204142944
44802255 64 17458341888720097975
4516262 110 18272662250407359031
474113 269 10447633653825833897
54039377 194 8790890696000172658
5776283 40 18261676986974266281
5937810 71 17821999939711463033
6058803 2 16338901458752342862
6201320 82 18261095405136632192
6204607 403 17897717907450218689
636775 72 18408885101053268393
636775 8 9727365640878849480
6673363 416 18188491264500085327
6698420 124 18202283568577433002
99344 41 18411980273540972389

> <PUBCHEM_SHAPE_MULTIPOLES>
764.49
31.17
5.07
1.4
8.66
2.28
-0.26
42.12
2.17
-1.96
1.65
1.37
-0.64
-2.48

> <PUBCHEM_SHAPE_SELFOVERLAP>
1743.652

> <PUBCHEM_SHAPE_VOLUME>
393.3

> <PUBCHEM_COORDINATE_TYPE>
2
5
10

$$$$

