11318
  -OEChem-06261205313D

 20 21  0     0  0  0  0  0  0999 V2000
   -1.4461   -2.1173   -0.0002 O   0  0  0  0  0  0  0  0  0  0  0  0
   -3.3679   -0.1610    0.0011 O   0  0  0  0  0  0  0  0  0  0  0  0
    0.2998   -0.4560   -0.0001 C   0  0  0  0  0  0  0  0  0  0  0  0
    0.6629    0.9118    0.0000 C   0  0  0  0  0  0  0  0  0  0  0  0
   -1.0603   -0.8056   -0.0003 C   0  0  0  0  0  0  0  0  0  0  0  0
   -0.3450    1.8899   -0.0001 C   0  0  0  0  0  0  0  0  0  0  0  0
    1.3077   -1.4342    0.0000 C   0  0  0  0  0  0  0  0  0  0  0  0
    2.0231    1.2613    0.0002 C   0  0  0  0  0  0  0  0  0  0  0  0
   -2.0483    0.1793   -0.0005 C   0  0  0  0  0  0  0  0  0  0  0  0
   -1.6914    1.5244   -0.0004 C   0  0  0  0  0  0  0  0  0  0  0  0
    2.6542   -1.0688    0.0001 C   0  0  0  0  0  0  0  0  0  0  0  0
    3.0112    0.2763    0.0002 C   0  0  0  0  0  0  0  0  0  0  0  0
   -0.0889    2.9475    0.0001 H   0  0  0  0  0  0  0  0  0  0  0  0
    1.0884   -2.4980    0.0168 H   0  0  0  0  0  0  0  0  0  0  0  0
    2.3253    2.3065    0.0006 H   0  0  0  0  0  0  0  0  0  0  0  0
   -2.4510    2.3017   -0.0001 H   0  0  0  0  0  0  0  0  0  0  0  0
    3.4245   -1.8346    0.0041 H   0  0  0  0  0  0  0  0  0  0  0  0
    4.0595    0.5601    0.0014 H   0  0  0  0  0  0  0  0  0  0  0  0
   -0.7893   -2.6595   -0.4646 H   0  0  0  0  0  0  0  0  0  0  0  0
   -3.9048    0.6500    0.0012 H   0  0  0  0  0  0  0  0  0  0  0  0
  1  5  1  0  0  0  0
  1 19  1  0  0  0  0
  2  9  1  0  0  0  0
  2 20  1  0  0  0  0
  3  4  1  0  0  0  0
  3  5  1  0  0  0  0
  3  7  2  0  0  0  0
  4  6  1  0  0  0  0
  4  8  2  0  0  0  0
  5  9  2  0  0  0  0
  6 10  2  0  0  0  0
  6 13  1  0  0  0  0
  7 11  1  0  0  0  0
  7 14  1  0  0  0  0
  8 12  1  0  0  0  0
  8 15  1  0  0  0  0
  9 10  1  0  0  0  0
 10 16  1  0  0  0  0
 11 12  2  0  0  0  0
 11 17  1  0  0  0  0
 12 18  1  0  0  0  0
M  END
> <PUBCHEM_COMPOUND_CID>
11318

> <PUBCHEM_CONFORMER_RMSD>
0.4

> <PUBCHEM_CONFORMER_DIVERSEORDER>
1

> <PUBCHEM_MMFF94_PARTIAL_CHARGES>
18
1 -0.53
10 -0.15
11 -0.15
12 -0.15
13 0.15
14 0.15
15 0.15
16 0.15
17 0.15
18 0.15
19 0.45
2 -0.53
20 0.45
5 0.08
6 -0.15
7 -0.15
8 -0.15
9 0.08

> <PUBCHEM_EFFECTIVE_ROTOR_COUNT>
0

> <PUBCHEM_PHARMACOPHORE_FEATURES>
4
1 1 donor
1 2 donor
6 3 4 5 6 9 10 rings
6 3 4 7 8 11 12 rings

> <PUBCHEM_HEAVY_ATOM_COUNT>
12

> <PUBCHEM_ATOM_DEF_STEREO_COUNT>
0

> <PUBCHEM_ATOM_UDEF_STEREO_COUNT>
0

> <PUBCHEM_BOND_DEF_STEREO_COUNT>
0

> <PUBCHEM_BOND_UDEF_STEREO_COUNT>
0

> <PUBCHEM_ISOTOPIC_ATOM_COUNT>
0

> <PUBCHEM_COMPONENT_COUNT>
1

> <PUBCHEM_CACTVS_TAUTO_COUNT>
13

> <PUBCHEM_CONFORMER_ID>
00002C3600000001

> <PUBCHEM_MMFF94_ENERGY>
36.7469

> <PUBCHEM_FEATURE_SELFOVERLAP>
20.329

> <PUBCHEM_SHAPE_FINGERPRINT>
10967382 1 18410856538196614598
11206711 2 18268710682794148541
12032990 46 18411692188730340827
12423570 1 15014896528218810229
12524768 44 18408599283795763966
12897270 3 18410573968219560332
13380535 76 18410015429071282710
14325111 11 18338797917646009952
16945 1 18410856564087887076
17844478 74 18060127756822763665
193761 8 17618221706715147145
20201158 50 18411139142792058530
20588541 1 18409445873347013571
20871998 184 18187362095379708959
21040471 1 18338797939394990624
21501502 16 18338232790355016768
2334 1 17978509724149375104
23402539 116 18262815045695665791
23402655 69 18335995237391035989
23463225 33 18413390955743710360
23552423 10 18272087132937486828
23559900 14 18189893305414487678
2748010 2 18050286964228815660
369184 2 18409169938936240992
5084963 1 18115029730682074424
528886 8 18409735019341088842
53812653 166 18188777124137602840
8809292 202 18271802402339064994

> <PUBCHEM_SHAPE_MULTIPOLES>
235.22
4.12
1.97
0.6
0
0.07
0
0.32
0
-0.21
0
0.04
-0.02
0

> <PUBCHEM_SHAPE_SELFOVERLAP>
520.947

> <PUBCHEM_SHAPE_VOLUME>
126.7

> <PUBCHEM_COORDINATE_TYPE>
2
5
10

$$$$

