12916
  -OEChem-06261207322D

 29 28  0     0  0  0  0  0  0999 V2000
    3.9030    4.0369    0.0000 I   0  0  0  0  0  0  0  0  0  0  0  0
    5.6350    1.0369    0.0000 I   0  0  0  0  0  0  0  0  0  0  0  0
    7.3671    4.0369    0.0000 I   0  0  0  0  0  0  0  0  0  0  0  0
    8.2331    0.5369    0.0000 Na  0  3  0  0  0  0  0  0  0  0  0  0
    7.3671    1.0369    0.0000 O   0  5  0  0  0  0  0  0  0  0  0  0
    8.2331    2.5369    0.0000 O   0  0  0  0  0  0  0  0  0  0  0  0
    7.3671    5.0369    0.0000 O   0  0  0  0  0  0  0  0  0  0  0  0
    4.7690    0.5369    0.0000 O   0  0  0  0  0  0  0  0  0  0  0  0
    5.6350    5.0369    0.0000 N   0  0  0  0  0  0  0  0  0  0  0  0
    3.9030    2.0369    0.0000 N   0  0  0  0  0  0  0  0  0  0  0  0
    5.6350    4.0369    0.0000 C   0  0  0  0  0  0  0  0  0  0  0  0
    4.7690    2.5369    0.0000 C   0  0  0  0  0  0  0  0  0  0  0  0
    4.7690    3.5369    0.0000 C   0  0  0  0  0  0  0  0  0  0  0  0
    6.5010    2.5369    0.0000 C   0  0  0  0  0  0  0  0  0  0  0  0
    5.6350    2.0369    0.0000 C   0  0  0  0  0  0  0  0  0  0  0  0
    6.5010    3.5369    0.0000 C   0  0  0  0  0  0  0  0  0  0  0  0
    7.3671    2.0369    0.0000 C   0  0  0  0  0  0  0  0  0  0  0  0
    6.5010    5.5369    0.0000 C   0  0  0  0  0  0  0  0  0  0  0  0
    3.9030    1.0369    0.0000 C   0  0  0  0  0  0  0  0  0  0  0  0
    6.5010    6.5369    0.0000 C   0  0  0  0  0  0  0  0  0  0  0  0
    3.0369    0.5369    0.0000 C   0  0  0  0  0  0  0  0  0  0  0  0
    5.0981    5.3469    0.0000 H   0  0  0  0  0  0  0  0  0  0  0  0
    3.3660    2.3469    0.0000 H   0  0  0  0  0  0  0  0  0  0  0  0
    7.1210    6.5369    0.0000 H   0  0  0  0  0  0  0  0  0  0  0  0
    6.5010    7.1569    0.0000 H   0  0  0  0  0  0  0  0  0  0  0  0
    5.8810    6.5369    0.0000 H   0  0  0  0  0  0  0  0  0  0  0  0
    2.7269    1.0739    0.0000 H   0  0  0  0  0  0  0  0  0  0  0  0
    2.5000    0.2269    0.0000 H   0  0  0  0  0  0  0  0  0  0  0  0
    3.3469    0.0000    0.0000 H   0  0  0  0  0  0  0  0  0  0  0  0
  1 13  1  0  0  0  0
  2 15  1  0  0  0  0
  3 16  1  0  0  0  0
  5 17  1  0  0  0  0
  6 17  2  0  0  0  0
  7 18  2  0  0  0  0
  8 19  2  0  0  0  0
  9 11  1  0  0  0  0
  9 18  1  0  0  0  0
  9 22  1  0  0  0  0
 10 12  1  0  0  0  0
 10 19  1  0  0  0  0
 10 23  1  0  0  0  0
 11 13  2  0  0  0  0
 11 16  1  0  0  0  0
 12 13  1  0  0  0  0
 12 15  2  0  0  0  0
 14 15  1  0  0  0  0
 14 16  2  0  0  0  0
 14 17  1  0  0  0  0
 18 20  1  0  0  0  0
 19 21  1  0  0  0  0
 20 24  1  0  0  0  0
 20 25  1  0  0  0  0
 20 26  1  0  0  0  0
 21 27  1  0  0  0  0
 21 28  1  0  0  0  0
 21 29  1  0  0  0  0
M  CHG  2   4   1   5  -1
M  END
> <PUBCHEM_COMPOUND_CID>
12916

> <PUBCHEM_COMPOUND_CANONICALIZED>
1

> <PUBCHEM_CACTVS_COMPLEXITY>
385

> <PUBCHEM_CACTVS_HBOND_ACCEPTOR>
4

> <PUBCHEM_CACTVS_HBOND_DONOR>
2

> <PUBCHEM_CACTVS_ROTATABLE_BOND>
2

> <PUBCHEM_CACTVS_SUBSKEYS>
AAADccBzOCAAAwAAAAAAAAAAAAAAAAAAAAAwAAAAAAAAAAABAAAAHgAwAAAADAiDmAACyILAAACIAgXQWACCAAAlAAAAiAEATMgIJjLA1NGEMQhk1AHIyQe8yCCOAAAAQAQAAAAAAACACAAAAAAAAAAAAA==

> <PUBCHEM_IUPAC_OPENEYE_NAME>
sodium 3,5-diacetamido-2,4,6-triiodo-benzoate

> <PUBCHEM_IUPAC_CAS_NAME>
sodium 3,5-diacetamido-2,4,6-triiodobenzoate

> <PUBCHEM_IUPAC_NAME>
sodium 3,5-diacetamido-2,4,6-triiodobenzoate

> <PUBCHEM_IUPAC_SYSTEMATIC_NAME>
sodium 3,5-diacetamido-2,4,6-tris(iodanyl)benzoate

> <PUBCHEM_IUPAC_TRADITIONAL_NAME>
sodium 3,5-diacetamido-2,4,6-triiodo-benzoate

> <PUBCHEM_IUPAC_INCHI>
InChI=1S/C11H9I3N2O4.Na/c1-3(17)15-9-6(12)5(11(19)20)7(13)10(8(9)14)16-4(2)18;/h1-2H3,(H,15,17)(H,16,18)(H,19,20);/q;+1/p-1

> <PUBCHEM_IUPAC_INCHIKEY>
ZEYOIOAKZLALAP-UHFFFAOYSA-M

> <PUBCHEM_EXACT_MASS>
635.751595

> <PUBCHEM_MOLECULAR_FORMULA>
C11H8I3N2NaO4

> <PUBCHEM_MOLECULAR_WEIGHT>
635.895399

> <PUBCHEM_OPENEYE_CAN_SMILES>
CC(=O)NC1=C(C(=C(C(=C1I)C(=O)[O-])I)NC(=O)C)I.[Na+]

> <PUBCHEM_OPENEYE_ISO_SMILES>
CC(=O)NC1=C(C(=C(C(=C1I)C(=O)[O-])I)NC(=O)C)I.[Na+]

> <PUBCHEM_CACTVS_TPSA>
98.3

> <PUBCHEM_MONOISOTOPIC_WEIGHT>
635.751595

> <PUBCHEM_TOTAL_CHARGE>
0

> <PUBCHEM_HEAVY_ATOM_COUNT>
21

> <PUBCHEM_ATOM_DEF_STEREO_COUNT>
0

> <PUBCHEM_ATOM_UDEF_STEREO_COUNT>
0

> <PUBCHEM_BOND_DEF_STEREO_COUNT>
0

> <PUBCHEM_BOND_UDEF_STEREO_COUNT>
0

> <PUBCHEM_ISOTOPIC_ATOM_COUNT>
0

> <PUBCHEM_COMPONENT_COUNT>
2

> <PUBCHEM_CACTVS_TAUTO_COUNT>
3

> <PUBCHEM_COORDINATE_TYPE>
1
5
255

> <PUBCHEM_BONDANNOTATIONS>
11  13  8
11  16  8
12  13  8
12  15  8
14  15  8
14  16  8

$$$$

