6444
  -OEChem-06261201193D

 41 45  0     1  0  0  0  0  0999 V2000
   -1.8596   -0.9325    1.3115 O   0  0  0  0  0  0  0  0  0  0  0  0
    2.4292   -1.5313   -0.1019 O   0  0  0  0  0  0  0  0  0  0  0  0
   -2.0160   -2.9616   -0.4982 O   0  0  0  0  0  0  0  0  0  0  0  0
   -4.1876    0.7462    0.7739 O   0  0  0  0  0  0  0  0  0  0  0  0
    3.0600    1.1443    0.4655 N   0  0  1  0  0  0  0  0  0  0  0  0
    0.4108   -0.4420    0.6553 C   0  0  1  0  0  0  0  0  0  0  0  0
    1.4243   -0.5810   -0.4725 C   0  0  1  0  0  0  0  0  0  0  0  0
    1.9736    0.9109   -0.4976 C   0  0  2  0  0  0  0  0  0  0  0  0
   -0.6101   -1.5632    0.8830 C   0  0  2  0  0  0  0  0  0  0  0  0
    1.2047   -0.0030    1.9647 C   0  0  0  0  0  0  0  0  0  0  0  0
   -0.6022    0.5958    0.1709 C   0  0  0  0  0  0  0  0  0  0  0  0
    0.7994   -1.1707   -1.7523 C   0  0  0  0  0  0  0  0  0  0  0  0
    1.0414    1.8342   -1.3428 C   0  0  0  0  0  0  0  0  0  0  0  0
    2.7467    0.4094    1.7404 C   0  0  0  0  0  0  0  0  0  0  0  0
   -0.3797    1.6493   -0.7495 C   0  0  0  0  0  0  0  0  0  0  0  0
    0.1343   -2.5162   -1.4417 C   0  0  0  0  0  0  0  0  0  0  0  0
   -0.9372   -2.3771   -0.3783 C   0  0  0  0  0  0  0  0  0  0  0  0
   -1.8560    0.2657    0.6355 C   0  0  0  0  0  0  0  0  0  0  0  0
    4.3900    0.8987   -0.0546 C   0  0  0  0  0  0  0  0  0  0  0  0
   -1.4762    2.4351   -1.0900 C   0  0  0  0  0  0  0  0  0  0  0  0
   -2.9457    1.0465    0.3191 C   0  0  0  0  0  0  0  0  0  0  0  0
   -2.7441    2.1424   -0.5402 C   0  0  0  0  0  0  0  0  0  0  0  0
    2.6378    0.7697   -1.3701 H   0  0  0  0  0  0  0  0  0  0  0  0
   -0.2845   -2.2702    1.6536 H   0  0  0  0  0  0  0  0  0  0  0  0
    1.1999   -0.8214    2.6944 H   0  0  0  0  0  0  0  0  0  0  0  0
    0.6952    0.8497    2.4313 H   0  0  0  0  0  0  0  0  0  0  0  0
    1.5791   -1.3352   -2.5063 H   0  0  0  0  0  0  0  0  0  0  0  0
    0.0542   -0.5176   -2.2143 H   0  0  0  0  0  0  0  0  0  0  0  0
    1.0306    1.5815   -2.4091 H   0  0  0  0  0  0  0  0  0  0  0  0
    1.3484    2.8787   -1.2234 H   0  0  0  0  0  0  0  0  0  0  0  0
    3.0538    1.0411    2.5824 H   0  0  0  0  0  0  0  0  0  0  0  0
    3.3518   -0.5029    1.8156 H   0  0  0  0  0  0  0  0  0  0  0  0
    0.8611   -3.2605   -1.1003 H   0  0  0  0  0  0  0  0  0  0  0  0
   -0.3315   -2.9037   -2.3548 H   0  0  0  0  0  0  0  0  0  0  0  0
    3.0571   -1.6058   -0.8401 H   0  0  0  0  0  0  0  0  0  0  0  0
    4.5612   -0.1374   -0.3596 H   0  0  0  0  0  0  0  0  0  0  0  0
    5.1372    1.1416    0.7097 H   0  0  0  0  0  0  0  0  0  0  0  0
    4.6083    1.5531   -0.9066 H   0  0  0  0  0  0  0  0  0  0  0  0
   -1.3690    3.2655   -1.7817 H   0  0  0  0  0  0  0  0  0  0  0  0
   -3.5868    2.7707   -0.8228 H   0  0  0  0  0  0  0  0  0  0  0  0
   -4.8156    1.4048    0.4307 H   0  0  0  0  0  0  0  0  0  0  0  0
  1  9  1  0  0  0  0
  1 18  1  0  0  0  0
  2  7  1  0  0  0  0
  2 35  1  0  0  0  0
  3 17  2  0  0  0  0
  4 21  1  0  0  0  0
  4 41  1  0  0  0  0
  5  8  1  0  0  0  0
  5 14  1  0  0  0  0
  5 19  1  0  0  0  0
  6  7  1  0  0  0  0
  6  9  1  0  0  0  0
  6 10  1  0  0  0  0
  6 11  1  0  0  0  0
  7  8  1  0  0  0  0
  7 12  1  0  0  0  0
  8 13  1  0  0  0  0
  8 23  1  0  0  0  0
  9 17  1  0  0  0  0
  9 24  1  0  0  0  0
 10 14  1  0  0  0  0
 10 25  1  0  0  0  0
 10 26  1  0  0  0  0
 11 15  2  0  0  0  0
 11 18  1  0  0  0  0
 12 16  1  0  0  0  0
 12 27  1  0  0  0  0
 12 28  1  0  0  0  0
 13 15  1  0  0  0  0
 13 29  1  0  0  0  0
 13 30  1  0  0  0  0
 14 31  1  0  0  0  0
 14 32  1  0  0  0  0
 15 20  1  0  0  0  0
 16 17  1  0  0  0  0
 16 33  1  0  0  0  0
 16 34  1  0  0  0  0
 18 21  2  0  0  0  0
 19 36  1  0  0  0  0
 19 37  1  0  0  0  0
 19 38  1  0  0  0  0
 20 22  2  0  0  0  0
 20 39  1  0  0  0  0
 21 22  1  0  0  0  0
 22 40  1  0  0  0  0
M  END
> <PUBCHEM_COMPOUND_CID>
6444

> <PUBCHEM_CONFORMER_RMSD>
0.6

> <PUBCHEM_CONFORMER_DIVERSEORDER>
1
2

> <PUBCHEM_MMFF94_PARTIAL_CHARGES>
24
1 -0.36
11 -0.14
13 0.14
14 0.27
15 -0.14
16 0.06
17 0.45
18 0.08
19 0.27
2 -0.68
20 -0.15
21 0.08
22 -0.15
3 -0.57
35 0.4
39 0.15
4 -0.53
40 0.15
41 0.45
5 -0.81
6 0.14
7 0.28
8 0.27
9 0.34

> <PUBCHEM_EFFECTIVE_ROTOR_COUNT>
1.4

> <PUBCHEM_PHARMACOPHORE_FEATURES>
11
1 1 acceptor
1 2 acceptor
1 2 donor
1 3 acceptor
1 4 donor
1 5 cation
5 1 6 9 11 18 rings
6 11 15 18 20 21 22 rings
6 5 6 7 8 10 14 rings
6 6 7 8 11 13 15 rings
6 6 7 9 12 16 17 rings

> <PUBCHEM_HEAVY_ATOM_COUNT>
22

> <PUBCHEM_ATOM_DEF_STEREO_COUNT>
3

> <PUBCHEM_ATOM_UDEF_STEREO_COUNT>
1

> <PUBCHEM_BOND_DEF_STEREO_COUNT>
0

> <PUBCHEM_BOND_UDEF_STEREO_COUNT>
0

> <PUBCHEM_ISOTOPIC_ATOM_COUNT>
0

> <PUBCHEM_COMPONENT_COUNT>
1

> <PUBCHEM_CACTVS_TAUTO_COUNT>
9

> <PUBCHEM_CONFORMER_ID>
0000192C00000001

> <PUBCHEM_MMFF94_ENERGY>
131.4258

> <PUBCHEM_FEATURE_SELFOVERLAP>
57.229

> <PUBCHEM_SHAPE_FINGERPRINT>
10165383 225 18187632609584101536
10863032 1 17530976781879969463
10871710 139 17764579924582709380
10948715 1 18408323310740763584
11578080 2 17678745531632332240
12011746 2 18272934946486370604
12035758 1 18192149519673928914
12423570 1 10780627921764180850
13140716 1 18055624032378006857
13172582 1 18343578529937306705
13681431 1 17104817314983742814
141345 1 14526261788150403582
144361 1 17690229964542841414
14817 1 16912018999178072742
15852999 172 18187367652998629483
15881359 60 18198366063621742437
16945 1 18130211675685443076
17357779 13 17607546634532023207
1813 80 15122668189005606714
18981168 100 16881059706962685568
20905425 154 17337313429543704075
22112679 90 18051686638225366749
22182313 1 18269257114777849455
22344851 262 18342452595855010824
22802520 49 17404007619083657885
2334 1 18200029693360593845
23388829 49 17764031263811050844
23419403 2 17033908706586989386
23559900 14 17984410013673775558
238 59 17904785605786834469
25 1 17603585278540885440
2748010 2 18055626467761321501
34934 24 18059858329002737772
4340502 62 17821718443243571379
495365 180 17831041356728154813
5845 1 4781669876237068494
69090 78 18411138043290934865
7364860 26 17690007055877536829
81228 2 17975722513681162531
84936 31 17389963470835798679

> <PUBCHEM_SHAPE_MULTIPOLES>
424.29
4.91
2.83
1.58
0.87
1.2
-0.17
-2.48
-1.2
-1.37
1.3
0.45
0.19
0.3

> <PUBCHEM_SHAPE_SELFOVERLAP>
958.145

> <PUBCHEM_SHAPE_VOLUME>
220.5

> <PUBCHEM_COORDINATE_TYPE>
2
5
10

$$$$

