5882
  -OEChem-07051213063D

 41 44  0     1  0  0  0  0  0999 V2000
   -4.6357   -1.1518   -0.3066 O   0  0  0  0  0  0  0  0  0  0  0  0
   -1.6828    0.6790   -0.3087 C   0  0  2  0  0  0  0  0  0  0  0  0
   -2.3432   -0.5858    0.2792 C   0  0  2  0  0  0  0  0  0  0  0  0
   -0.2127    0.7741    0.0955 C   0  0  1  0  0  0  0  0  0  0  0  0
    0.5388   -0.4537   -0.5071 C   0  0  2  0  0  0  0  0  0  0  0  0
   -1.6739   -1.8000   -0.3552 C   0  0  0  0  0  0  0  0  0  0  0  0
   -2.6488    1.8035    0.0467 C   0  0  0  0  0  0  0  0  0  0  0  0
   -0.1516   -1.7893   -0.1148 C   0  0  0  0  0  0  0  0  0  0  0  0
    0.4576    2.0573   -0.3973 C   0  0  0  0  0  0  0  0  0  0  0  0
   -3.7741   -0.2991   -0.1388 C   0  0  0  0  0  0  0  0  0  0  0  0
   -4.0175    1.1931   -0.2910 C   0  0  0  0  0  0  0  0  0  0  0  0
   -2.3487   -0.6948    1.8153 C   0  0  0  0  0  0  0  0  0  0  0  0
    2.0343   -0.3860   -0.2112 C   0  0  0  0  0  0  0  0  0  0  0  0
    1.8787    2.1434    0.1520 C   0  0  0  0  0  0  0  0  0  0  0  0
    2.6566    0.8536    0.0543 C   0  0  0  0  0  0  0  0  0  0  0  0
    2.8431   -1.5341   -0.2825 C   0  0  0  0  0  0  0  0  0  0  0  0
    4.0419    0.9057    0.2895 C   0  0  0  0  0  0  0  0  0  0  0  0
    4.2195   -1.4669   -0.0548 C   0  0  0  0  0  0  0  0  0  0  0  0
    4.8185   -0.2480    0.2356 C   0  0  0  0  0  0  0  0  0  0  0  0
   -1.7057    0.6100   -1.4103 H   0  0  0  0  0  0  0  0  0  0  0  0
   -0.1299    0.7574    1.1899 H   0  0  0  0  0  0  0  0  0  0  0  0
    0.4643   -0.3818   -1.6034 H   0  0  0  0  0  0  0  0  0  0  0  0
   -1.8669   -1.8152   -1.4360 H   0  0  0  0  0  0  0  0  0  0  0  0
   -2.1022   -2.7299    0.0384 H   0  0  0  0  0  0  0  0  0  0  0  0
   -2.4711    2.7119   -0.5371 H   0  0  0  0  0  0  0  0  0  0  0  0
   -2.5869    2.0711    1.1070 H   0  0  0  0  0  0  0  0  0  0  0  0
    0.0566   -2.0147    0.9384 H   0  0  0  0  0  0  0  0  0  0  0  0
    0.2715   -2.6181   -0.6942 H   0  0  0  0  0  0  0  0  0  0  0  0
   -0.0985    2.9448   -0.0760 H   0  0  0  0  0  0  0  0  0  0  0  0
    0.4793    2.0733   -1.4946 H   0  0  0  0  0  0  0  0  0  0  0  0
   -4.2962    1.4014   -1.3280 H   0  0  0  0  0  0  0  0  0  0  0  0
   -4.7921    1.5367    0.3977 H   0  0  0  0  0  0  0  0  0  0  0  0
   -1.3434   -0.7514    2.2410 H   0  0  0  0  0  0  0  0  0  0  0  0
   -2.8613    0.1470    2.2927 H   0  0  0  0  0  0  0  0  0  0  0  0
   -2.8849   -1.5992    2.1281 H   0  0  0  0  0  0  0  0  0  0  0  0
    1.8346    2.4289    1.2110 H   0  0  0  0  0  0  0  0  0  0  0  0
    2.4119    2.9400   -0.3809 H   0  0  0  0  0  0  0  0  0  0  0  0
    2.4211   -2.5050   -0.5240 H   0  0  0  0  0  0  0  0  0  0  0  0
    4.5220    1.8551    0.5158 H   0  0  0  0  0  0  0  0  0  0  0  0
    4.8218   -2.3692   -0.1095 H   0  0  0  0  0  0  0  0  0  0  0  0
    5.8881   -0.1941    0.4151 H   0  0  0  0  0  0  0  0  0  0  0  0
  1 10  2  0  0  0  0
  2  3  1  0  0  0  0
  2  4  1  0  0  0  0
  2  7  1  0  0  0  0
  2 20  1  0  0  0  0
  3  6  1  0  0  0  0
  3 10  1  0  0  0  0
  3 12  1  0  0  0  0
  4  5  1  0  0  0  0
  4  9  1  0  0  0  0
  4 21  1  0  0  0  0
  5  8  1  0  0  0  0
  5 13  1  0  0  0  0
  5 22  1  0  0  0  0
  6  8  1  0  0  0  0
  6 23  1  0  0  0  0
  6 24  1  0  0  0  0
  7 11  1  0  0  0  0
  7 25  1  0  0  0  0
  7 26  1  0  0  0  0
  8 27  1  0  0  0  0
  8 28  1  0  0  0  0
  9 14  1  0  0  0  0
  9 29  1  0  0  0  0
  9 30  1  0  0  0  0
 10 11  1  0  0  0  0
 11 31  1  0  0  0  0
 11 32  1  0  0  0  0
 12 33  1  0  0  0  0
 12 34  1  0  0  0  0
 12 35  1  0  0  0  0
 13 15  1  0  0  0  0
 13 16  2  0  0  0  0
 14 15  1  0  0  0  0
 14 36  1  0  0  0  0
 14 37  1  0  0  0  0
 15 17  2  0  0  0  0
 16 18  1  0  0  0  0
 16 38  1  0  0  0  0
 17 19  1  0  0  0  0
 17 39  1  0  0  0  0
 18 19  2  0  0  0  0
 18 40  1  0  0  0  0
 19 41  1  0  0  0  0
M  END
> <PUBCHEM_COMPOUND_CID>
5882

> <PUBCHEM_CONFORMER_RMSD>
0.6

> <PUBCHEM_CONFORMER_DIVERSEORDER>
1

> <PUBCHEM_MMFF94_PARTIAL_CHARGES>
16
1 -0.57
10 0.45
11 0.06
13 -0.14
14 0.14
15 -0.14
16 -0.15
17 -0.15
18 -0.15
19 -0.15
3 0.06
38 0.15
39 0.15
40 0.15
41 0.15
5 0.14

> <PUBCHEM_EFFECTIVE_ROTOR_COUNT>
1.2

> <PUBCHEM_PHARMACOPHORE_FEATURES>
5
1 1 acceptor
5 2 3 7 10 11 rings
6 13 15 16 17 18 19 rings
6 2 3 4 5 6 8 rings
6 4 5 9 13 14 15 rings

> <PUBCHEM_HEAVY_ATOM_COUNT>
19

> <PUBCHEM_ATOM_DEF_STEREO_COUNT>
4

> <PUBCHEM_ATOM_UDEF_STEREO_COUNT>
0

> <PUBCHEM_BOND_DEF_STEREO_COUNT>
0

> <PUBCHEM_BOND_UDEF_STEREO_COUNT>
0

> <PUBCHEM_ISOTOPIC_ATOM_COUNT>
0

> <PUBCHEM_COMPONENT_COUNT>
1

> <PUBCHEM_CACTVS_TAUTO_COUNT>
2

> <PUBCHEM_CONFORMER_ID>
000016FA00000001

> <PUBCHEM_MMFF94_ENERGY>
58.9487

> <PUBCHEM_FEATURE_SELFOVERLAP>
25.471

> <PUBCHEM_SHAPE_FINGERPRINT>
10062212 137 18260837007524721287
10366900 7 17989203746198293018
10608611 8 18410014320974956124
10967382 1 18410012113498630292
11132069 177 18335424573523148882
11471102 20 18409732850651558228
11615757 297 17676485042809260016
12011746 2 18411702114209669788
12236239 1 17530965778722324671
12251169 10 18335702715425870358
12403259 226 18337116674637213301
12403260 363 18408609141083214453
124424 183 18201718457231327706
128620 24 6411295736745540034
13140716 1 18194110829305808355
13296908 3 18342735221803893906
13675066 3 18343580724712768978
14115302 16 17274813640972551014
14866123 147 17180238328371701586
15099037 51 18412266163875211253
15196674 1 18410013251512028380
15309172 13 18261384555235068427
15375358 24 18410013260291841038
15442244 35 18409449197915542284
15536298 74 18334014990883941676
15848702 151 17895187869771731598
16945 1 18266730294843342380
17349148 13 17822010899813484311
17492 89 18337111150882477158
17802600 8 18409452466169344197
17804303 29 18410290315557514508
1813 80 17418376904803581652
18186145 218 18040703792664007110
19591789 44 18338801237924865686
200 152 17968101915054077069
20028762 73 18114748127295280255
20510252 161 18260266386359003753
20645477 70 18335984246406240486
21029758 11 18335144206321271265
21267235 1 18410004442887772542
21279426 13 18124881419286188869
221490 88 18269549447004687890
22854114 59 17967536761687441936
23184049 59 18408317800186732198
23402539 116 18334866017310683269
23463225 33 18411418410498444588
23559900 14 18408046212615367480
2748010 2 18338228383591827908
296302 2 18412260640531509100
3286 77 18411140208049579773
335352 9 18265897036833513637
34934 24 18410863161579640394
350125 39 18410007741628546469
351380 180 18411140233903545375
4214541 1 18410013264333737149
474 4 17202475599088385340
4921388 177 16056585530911155697
5104073 3 18409449201941439609
69090 78 18334298656025279383
7364860 26 18263926540688840408
8809292 202 18273209819950335792
9709674 26 18411133615200998551

> <PUBCHEM_SHAPE_MULTIPOLES>
385.14
8.63
2.18
0.85
1.95
0.37
0.3
-1.04
0.25
0.12
-0.15
-0.41
-0.13
0.3

> <PUBCHEM_SHAPE_SELFOVERLAP>
843.067

> <PUBCHEM_SHAPE_VOLUME>
208.5

> <PUBCHEM_COORDINATE_TYPE>
2
5
10

$$$$

