23724579
  -OEChem-07051213083D

 79 82  0     1  0  0  0  0  0999 V2000
   -7.9544    0.5981   -1.2312 O   0  0  0  0  0  0  0  0  0  0  0  0
    0.5047    0.0822    0.9382 C   0  0  1  0  0  0  0  0  0  0  0  0
   -0.2440   -1.0598    0.2172 C   0  0  2  0  0  0  0  0  0  0  0  0
   -1.7577   -1.0254    0.4557 C   0  0  1  0  0  0  0  0  0  0  0  0
   -2.3130    0.3379   -0.0712 C   0  0  1  0  0  0  0  0  0  0  0  0
   -3.8760    0.4361    0.0872 C   0  0  2  0  0  0  0  0  0  0  0  0
    1.9553   -0.2837    0.5394 C   0  0  2  0  0  0  0  0  0  0  0  0
   -0.0042    1.4128    0.3658 C   0  0  0  0  0  0  0  0  0  0  0  0
   -4.4979   -0.7912   -0.6547 C   0  0  1  0  0  0  0  0  0  0  0  0
   -1.5316    1.5469    0.5079 C   0  0  0  0  0  0  0  0  0  0  0  0
    0.5411   -2.3076    0.6098 C   0  0  0  0  0  0  0  0  0  0  0  0
   -2.4603   -2.2119   -0.2194 C   0  0  0  0  0  0  0  0  0  0  0  0
    2.0001   -1.8222    0.6931 C   0  0  0  0  0  0  0  0  0  0  0  0
   -3.9812   -2.1276   -0.1110 C   0  0  0  0  0  0  0  0  0  0  0  0
   -4.4166    1.7243   -0.5967 C   0  0  0  0  0  0  0  0  0  0  0  0
    0.3327    0.0790    2.4781 C   0  0  0  0  0  0  0  0  0  0  0  0
    3.0697    0.4201    1.3002 C   0  0  1  0  0  0  0  0  0  0  0  0
   -6.0310   -0.7551   -0.6870 C   0  0  0  0  0  0  0  0  0  0  0  0
   -4.2762    0.4736    1.5844 C   0  0  0  0  0  0  0  0  0  0  0  0
   -5.9438    1.7778   -0.6786 C   0  0  0  0  0  0  0  0  0  0  0  0
   -6.5357    0.5344   -1.3336 C   0  0  2  0  0  0  0  0  0  0  0  0
    4.4458   -0.0851    0.8154 C   0  0  0  0  0  0  0  0  0  0  0  0
    2.9311    1.9388    1.1508 C   0  0  0  0  0  0  0  0  0  0  0  0
    4.6714    0.0978   -0.6905 C   0  0  0  0  0  0  0  0  0  0  0  0
    6.0555   -0.3933   -1.1792 C   0  0  2  0  0  0  0  0  0  0  0  0
    7.2532    0.1896   -0.3750 C   0  0  0  0  0  0  0  0  0  0  0  0
    6.1604   -0.1407   -2.6902 C   0  0  0  0  0  0  0  0  0  0  0  0
    8.5963   -0.3656   -0.8641 C   0  0  0  0  0  0  0  0  0  0  0  0
    7.3065    1.7196   -0.3609 C   0  0  0  0  0  0  0  0  0  0  0  0
   -0.0970   -0.9402   -0.8696 H   0  0  0  0  0  0  0  0  0  0  0  0
   -1.9474   -1.1108    1.5303 H   0  0  0  0  0  0  0  0  0  0  0  0
   -2.1110    0.3559   -1.1543 H   0  0  0  0  0  0  0  0  0  0  0  0
    2.0436   -0.0541   -0.5308 H   0  0  0  0  0  0  0  0  0  0  0  0
    0.2562    1.4937   -0.6974 H   0  0  0  0  0  0  0  0  0  0  0  0
    0.4278    2.2820    0.8625 H   0  0  0  0  0  0  0  0  0  0  0  0
   -4.1714   -0.7377   -1.7053 H   0  0  0  0  0  0  0  0  0  0  0  0
   -1.8326    2.4652   -0.0084 H   0  0  0  0  0  0  0  0  0  0  0  0
   -1.7803    1.6918    1.5637 H   0  0  0  0  0  0  0  0  0  0  0  0
    0.2127   -2.7008    1.5784 H   0  0  0  0  0  0  0  0  0  0  0  0
    0.4312   -3.1093   -0.1276 H   0  0  0  0  0  0  0  0  0  0  0  0
   -2.1263   -3.1537    0.2313 H   0  0  0  0  0  0  0  0  0  0  0  0
   -2.1796   -2.2540   -1.2797 H   0  0  0  0  0  0  0  0  0  0  0  0
    2.4310   -2.1323    1.6518 H   0  0  0  0  0  0  0  0  0  0  0  0
    2.6031   -2.2752   -0.1014 H   0  0  0  0  0  0  0  0  0  0  0  0
   -4.2916   -2.2715    0.9301 H   0  0  0  0  0  0  0  0  0  0  0  0
   -4.4195   -2.9555   -0.6815 H   0  0  0  0  0  0  0  0  0  0  0  0
   -4.0119    1.7940   -1.6151 H   0  0  0  0  0  0  0  0  0  0  0  0
   -4.0730    2.6184   -0.0634 H   0  0  0  0  0  0  0  0  0  0  0  0
    0.8285    0.9379    2.9405 H   0  0  0  0  0  0  0  0  0  0  0  0
   -0.7156    0.1330    2.7840 H   0  0  0  0  0  0  0  0  0  0  0  0
    0.7479   -0.8212    2.9424 H   0  0  0  0  0  0  0  0  0  0  0  0
    3.0163    0.1825    2.3700 H   0  0  0  0  0  0  0  0  0  0  0  0
   -6.4538   -0.8735    0.3178 H   0  0  0  0  0  0  0  0  0  0  0  0
   -6.4170   -1.6089   -1.2591 H   0  0  0  0  0  0  0  0  0  0  0  0
   -3.9199    1.3896    2.0673 H   0  0  0  0  0  0  0  0  0  0  0  0
   -5.3603    0.4531    1.7266 H   0  0  0  0  0  0  0  0  0  0  0  0
   -3.8740   -0.3697    2.1508 H   0  0  0  0  0  0  0  0  0  0  0  0
   -6.2494    2.6660   -1.2459 H   0  0  0  0  0  0  0  0  0  0  0  0
   -6.3736    1.9203    0.3204 H   0  0  0  0  0  0  0  0  0  0  0  0
   -6.2849    0.5301   -2.4007 H   0  0  0  0  0  0  0  0  0  0  0  0
    4.5754   -1.1423    1.0752 H   0  0  0  0  0  0  0  0  0  0  0  0
    5.2078    0.4588    1.3838 H   0  0  0  0  0  0  0  0  0  0  0  0
    3.8801    2.4290    1.3998 H   0  0  0  0  0  0  0  0  0  0  0  0
    2.2057    2.3505    1.8551 H   0  0  0  0  0  0  0  0  0  0  0  0
    2.6753    2.2410    0.1306 H   0  0  0  0  0  0  0  0  0  0  0  0
    4.5403    1.1510   -0.9640 H   0  0  0  0  0  0  0  0  0  0  0  0
    3.9237   -0.4669   -1.2566 H   0  0  0  0  0  0  0  0  0  0  0  0
   -8.1888    0.5853   -0.2875 H   0  0  0  0  0  0  0  0  0  0  0  0
    6.0756   -1.4832   -1.0374 H   0  0  0  0  0  0  0  0  0  0  0  0
    7.1566   -0.1467    0.6646 H   0  0  0  0  0  0  0  0  0  0  0  0
    7.0641   -0.5897   -3.1121 H   0  0  0  0  0  0  0  0  0  0  0  0
    6.1655    0.9286   -2.9228 H   0  0  0  0  0  0  0  0  0  0  0  0
    5.3092   -0.5891   -3.2149 H   0  0  0  0  0  0  0  0  0  0  0  0
    8.5719   -1.4589   -0.9175 H   0  0  0  0  0  0  0  0  0  0  0  0
    9.3992   -0.0858   -0.1729 H   0  0  0  0  0  0  0  0  0  0  0  0
    8.8655    0.0238   -1.8510 H   0  0  0  0  0  0  0  0  0  0  0  0
    7.4412    2.1284   -1.3671 H   0  0  0  0  0  0  0  0  0  0  0  0
    8.1469    2.0669    0.2506 H   0  0  0  0  0  0  0  0  0  0  0  0
    6.3981    2.1546    0.0649 H   0  0  0  0  0  0  0  0  0  0  0  0
  1 21  1  0  0  0  0
  1 68  1  0  0  0  0
  2  3  1  0  0  0  0
  2  7  1  0  0  0  0
  2  8  1  0  0  0  0
  2 16  1  0  0  0  0
  3  4  1  0  0  0  0
  3 11  1  0  0  0  0
  3 30  1  0  0  0  0
  4  5  1  0  0  0  0
  4 12  1  0  0  0  0
  4 31  1  0  0  0  0
  5  6  1  0  0  0  0
  5 10  1  0  0  0  0
  5 32  1  0  0  0  0
  6  9  1  0  0  0  0
  6 15  1  0  0  0  0
  6 19  1  0  0  0  0
  7 13  1  0  0  0  0
  7 17  1  0  0  0  0
  7 33  1  0  0  0  0
  8 10  1  0  0  0  0
  8 34  1  0  0  0  0
  8 35  1  0  0  0  0
  9 14  1  0  0  0  0
  9 18  1  0  0  0  0
  9 36  1  0  0  0  0
 10 37  1  0  0  0  0
 10 38  1  0  0  0  0
 11 13  1  0  0  0  0
 11 39  1  0  0  0  0
 11 40  1  0  0  0  0
 12 14  1  0  0  0  0
 12 41  1  0  0  0  0
 12 42  1  0  0  0  0
 13 43  1  0  0  0  0
 13 44  1  0  0  0  0
 14 45  1  0  0  0  0
 14 46  1  0  0  0  0
 15 20  1  0  0  0  0
 15 47  1  0  0  0  0
 15 48  1  0  0  0  0
 16 49  1  0  0  0  0
 16 50  1  0  0  0  0
 16 51  1  0  0  0  0
 17 22  1  0  0  0  0
 17 23  1  0  0  0  0
 17 52  1  0  0  0  0
 18 21  1  0  0  0  0
 18 53  1  0  0  0  0
 18 54  1  0  0  0  0
 19 55  1  0  0  0  0
 19 56  1  0  0  0  0
 19 57  1  0  0  0  0
 20 21  1  0  0  0  0
 20 58  1  0  0  0  0
 20 59  1  0  0  0  0
 21 60  1  0  0  0  0
 22 24  1  0  0  0  0
 22 61  1  0  0  0  0
 22 62  1  0  0  0  0
 23 63  1  0  0  0  0
 23 64  1  0  0  0  0
 23 65  1  0  0  0  0
 24 25  1  0  0  0  0
 24 66  1  0  0  0  0
 24 67  1  0  0  0  0
 25 26  1  0  0  0  0
 25 27  1  0  0  0  0
 25 69  1  0  0  0  0
 26 28  1  0  0  0  0
 26 29  1  0  0  0  0
 26 70  1  0  0  0  0
 27 71  1  0  0  0  0
 27 72  1  0  0  0  0
 27 73  1  0  0  0  0
 28 74  1  0  0  0  0
 28 75  1  0  0  0  0
 28 76  1  0  0  0  0
 29 77  1  0  0  0  0
 29 78  1  0  0  0  0
 29 79  1  0  0  0  0
M  END
> <PUBCHEM_COMPOUND_CID>
23724579

> <PUBCHEM_CONFORMER_RMSD>
0.8

> <PUBCHEM_CONFORMER_DIVERSEORDER>
2
17
12
19
3
13
11
1
10
16
7
18
15
4
8
14
9
6
5

> <PUBCHEM_MMFF94_PARTIAL_CHARGES>
3
1 -0.68
21 0.28
68 0.4

> <PUBCHEM_EFFECTIVE_ROTOR_COUNT>
7.2

> <PUBCHEM_PHARMACOPHORE_FEATURES>
10
1 1 acceptor
1 1 donor
1 23 hydrophobe
1 27 hydrophobe
3 26 28 29 hydrophobe
5 17 22 24 25 26 hydrophobe
5 2 3 7 11 13 rings
6 2 3 4 5 8 10 rings
6 4 5 6 9 12 14 rings
6 6 9 15 18 20 21 rings

> <PUBCHEM_HEAVY_ATOM_COUNT>
29

> <PUBCHEM_ATOM_DEF_STEREO_COUNT>
9

> <PUBCHEM_ATOM_UDEF_STEREO_COUNT>
1

> <PUBCHEM_BOND_DEF_STEREO_COUNT>
0

> <PUBCHEM_BOND_UDEF_STEREO_COUNT>
0

> <PUBCHEM_ISOTOPIC_ATOM_COUNT>
0

> <PUBCHEM_COMPONENT_COUNT>
1

> <PUBCHEM_CACTVS_TAUTO_COUNT>
1

> <PUBCHEM_CONFORMER_ID>
016A022300000002

> <PUBCHEM_MMFF94_ENERGY>
96.6798

> <PUBCHEM_FEATURE_SELFOVERLAP>
50.849

> <PUBCHEM_SHAPE_FINGERPRINT>
10 15 11600004353934323142
10076449 9 18334852793528605675
10554248 39 17915765234297006495
106641 1 12463566288232319109
10670039 82 18410856598342630609
10835480 77 18187364265330080736
11315181 36 17822008688274579017
11456790 92 13398643727904124860
12011746 2 18187653505143003259
12166972 35 14056726729209174546
12236239 1 17632583755278065923
12954195 1 17895186757301362032
13540713 4 18045509607644153315
13668630 136 14490188310940185012
13673619 4 14562533994088252794
13685833 64 15502376729527796948
13690498 29 18116436929900172319
13782708 43 15719393936160223940
13811026 1 18113056039492689774
14251752 14 18342176679014458474
14251764 18 6988312850707123752
14294032 229 18129383872501124636
14840074 17 17275103929390854959
14856354 85 17846213320153512183
14931854 50 18187093883905488793
15183329 4 18335700559742677970
15301273 46 11095888185710633024
1577012 14 17846788407262161730
15961568 22 17489590107643648221
16994733 274 17275110552130743861
17980427 23 13614229361401206715
18335252 114 17346881157191866524
18608769 82 18270674260929091291
18681886 176 18338243673628162769
19958102 18 18187352273375085190
20105231 36 18260547797929771287
2026 5 16081360908135176310
20567600 247 15502375651411904470
21150785 3 18040437693606873884
21267235 1 18334857169894668963
21637258 2 14779267527021581290
21756936 100 17275383183748212466
21792961 116 18334289881433694938
22122407 14 16056585569951496564
221357 26 18040155119688540056
2215653 11 17821728338663624358
22224240 67 13758355579079354385
22393880 68 18334584503225975875
23559900 14 18041283167031486696
23569914 152 16594492174127341444
23576562 1 18199749141775277196
2838139 119 16415760808682520662
3004659 81 18408889521138878312
335352 9 18409455778174659549
4058900 60 17989202693778708427
4073 2 17775286084367286019
4093350 32 15267072483750672250
4325135 7 18130790070261970934
437815 12 17385721396315418984
5265222 85 18335704879752089423
9953998 17 12391509780731472365

> <PUBCHEM_SHAPE_MULTIPOLES>
590.94
21.09
2.02
1.65
17.79
0.37
0.08
-4.66
13.36
-1.29
-0.16
1.14
-0.14
0.67

> <PUBCHEM_SHAPE_SELFOVERLAP>
1215.933

> <PUBCHEM_SHAPE_VOLUME>
339.7

> <PUBCHEM_COORDINATE_TYPE>
2
5
10

$$$$

