255267
  -OEChem-07051213062D

 45 47  0     0  0  0  0  0  0999 V2000
    7.1962    1.5670    0.0000 O   0  0  0  0  0  0  0  0  0  0  0  0
   10.7263    1.5911    0.0000 O   0  0  0  0  0  0  0  0  0  0  0  0
    2.8660   -1.9330    0.0000 O   0  0  0  0  0  0  0  0  0  0  0  0
    6.3301    1.0670    0.0000 C   0  0  0  0  0  0  0  0  0  0  0  0
    6.3301    0.0670    0.0000 C   0  0  0  0  0  0  0  0  0  0  0  0
    7.1962   -0.4330    0.0000 C   0  0  0  0  0  0  0  0  0  0  0  0
    8.0622    0.0670    0.0000 C   0  0  0  0  0  0  0  0  0  0  0  0
    5.8301    1.9330    0.0000 C   0  0  0  0  0  0  0  0  0  0  0  0
    5.3301    1.0670    0.0000 C   0  0  0  0  0  0  0  0  0  0  0  0
    8.0622    1.0670    0.0000 C   0  0  0  0  0  0  0  0  0  0  0  0
    5.4641   -0.4330    0.0000 C   0  0  0  0  0  0  0  0  0  0  0  0
    7.1962   -1.4330    0.0000 C   0  0  0  0  0  0  0  0  0  0  0  0
    8.9561   -0.4677    0.0000 C   0  0  0  0  0  0  0  0  0  0  0  0
    8.9561    1.6016    0.0000 C   0  0  0  0  0  0  0  0  0  0  0  0
    8.0622   -1.9330    0.0000 C   0  0  0  0  0  0  0  0  0  0  0  0
    4.5981    0.0670    0.0000 C   0  0  0  0  0  0  0  0  0  0  0  0
    5.4641   -1.4330    0.0000 C   0  0  0  0  0  0  0  0  0  0  0  0
    9.8622    0.0462    0.0000 C   0  0  0  0  0  0  0  0  0  0  0  0
    9.8622    1.0878    0.0000 C   0  0  0  0  0  0  0  0  0  0  0  0
    3.7320   -0.4330    0.0000 C   0  0  0  0  0  0  0  0  0  0  0  0
    4.5981   -1.9330    0.0000 C   0  0  0  0  0  0  0  0  0  0  0  0
    3.7320   -1.4330    0.0000 C   0  0  0  0  0  0  0  0  0  0  0  0
    2.0000   -1.4330    0.0000 C   0  0  0  0  0  0  0  0  0  0  0  0
    5.3301    1.6870    0.0000 H   0  0  0  0  0  0  0  0  0  0  0  0
    4.7101    1.0670    0.0000 H   0  0  0  0  0  0  0  0  0  0  0  0
    5.3301    0.4470    0.0000 H   0  0  0  0  0  0  0  0  0  0  0  0
    6.3671    2.2430    0.0000 H   0  0  0  0  0  0  0  0  0  0  0  0
    5.5201    2.4700    0.0000 H   0  0  0  0  0  0  0  0  0  0  0  0
    5.2932    1.6230    0.0000 H   0  0  0  0  0  0  0  0  0  0  0  0
    6.5856   -1.3254    0.0000 H   0  0  0  0  0  0  0  0  0  0  0  0
    6.9841   -2.0156    0.0000 H   0  0  0  0  0  0  0  0  0  0  0  0
    8.9490   -1.0876    0.0000 H   0  0  0  0  0  0  0  0  0  0  0  0
    8.9490    2.2216    0.0000 H   0  0  0  0  0  0  0  0  0  0  0  0
    7.7522   -2.4700    0.0000 H   0  0  0  0  0  0  0  0  0  0  0  0
    8.5991   -2.2430    0.0000 H   0  0  0  0  0  0  0  0  0  0  0  0
    8.3722   -1.3961    0.0000 H   0  0  0  0  0  0  0  0  0  0  0  0
    4.5981    0.6870    0.0000 H   0  0  0  0  0  0  0  0  0  0  0  0
    6.0010   -1.7430    0.0000 H   0  0  0  0  0  0  0  0  0  0  0  0
   10.3979   -0.2659    0.0000 H   0  0  0  0  0  0  0  0  0  0  0  0
    3.1951   -0.1230    0.0000 H   0  0  0  0  0  0  0  0  0  0  0  0
    4.5981   -2.5530    0.0000 H   0  0  0  0  0  0  0  0  0  0  0  0
   11.2644    1.2832    0.0000 H   0  0  0  0  0  0  0  0  0  0  0  0
    2.3100   -0.8961    0.0000 H   0  0  0  0  0  0  0  0  0  0  0  0
    1.4631   -1.1230    0.0000 H   0  0  0  0  0  0  0  0  0  0  0  0
    1.6900   -1.9700    0.0000 H   0  0  0  0  0  0  0  0  0  0  0  0
  1  4  1  0  0  0  0
  1 10  1  0  0  0  0
  2 19  1  0  0  0  0
  2 42  1  0  0  0  0
  3 22  1  0  0  0  0
  3 23  1  0  0  0  0
  4  5  1  0  0  0  0
  4  8  1  0  0  0  0
  4  9  1  0  0  0  0
  5  6  2  0  0  0  0
  5 11  1  0  0  0  0
  6  7  1  0  0  0  0
  6 12  1  0  0  0  0
  7 10  2  0  0  0  0
  7 13  1  0  0  0  0
  8 27  1  0  0  0  0
  8 28  1  0  0  0  0
  8 29  1  0  0  0  0
  9 24  1  0  0  0  0
  9 25  1  0  0  0  0
  9 26  1  0  0  0  0
 10 14  1  0  0  0  0
 11 16  2  0  0  0  0
 11 17  1  0  0  0  0
 12 15  1  0  0  0  0
 12 30  1  0  0  0  0
 12 31  1  0  0  0  0
 13 18  2  0  0  0  0
 13 32  1  0  0  0  0
 14 19  2  0  0  0  0
 14 33  1  0  0  0  0
 15 34  1  0  0  0  0
 15 35  1  0  0  0  0
 15 36  1  0  0  0  0
 16 20  1  0  0  0  0
 16 37  1  0  0  0  0
 17 21  2  0  0  0  0
 17 38  1  0  0  0  0
 18 19  1  0  0  0  0
 18 39  1  0  0  0  0
 20 22  2  0  0  0  0
 20 40  1  0  0  0  0
 21 22  1  0  0  0  0
 21 41  1  0  0  0  0
 23 43  1  0  0  0  0
 23 44  1  0  0  0  0
 23 45  1  0  0  0  0
M  END
> <PUBCHEM_COMPOUND_CID>
255267

> <PUBCHEM_COMPOUND_CANONICALIZED>
1

> <PUBCHEM_CACTVS_COMPLEXITY>
446

> <PUBCHEM_CACTVS_HBOND_ACCEPTOR>
3

> <PUBCHEM_CACTVS_HBOND_DONOR>
1

> <PUBCHEM_CACTVS_ROTATABLE_BOND>
3

> <PUBCHEM_CACTVS_SUBSKEYS>
AAADceB4MAAAAAAAAAAAAAAAAAAAAAAAAAAwYIAAAAAAAACBQAAAGgAACAAADESAmAIyBoAABgCAAiBCAAACCAAgIAAIiAAGCIgMJyKGMRqCeCClwBUIuAeA4OwOIAAACAAIAABAAAAQABAAAAAAAAAAAA==

> <PUBCHEM_IUPAC_OPENEYE_NAME>
4-ethyl-3-(4-methoxyphenyl)-2,2-dimethyl-chromen-7-ol

> <PUBCHEM_IUPAC_CAS_NAME>
4-ethyl-3-(4-methoxyphenyl)-2,2-dimethyl-1-benzopyran-7-ol

> <PUBCHEM_IUPAC_NAME>
4-ethyl-3-(4-methoxyphenyl)-2,2-dimethylchromen-7-ol

> <PUBCHEM_IUPAC_SYSTEMATIC_NAME>
4-ethyl-3-(4-methoxyphenyl)-2,2-dimethyl-chromen-7-ol

> <PUBCHEM_IUPAC_TRADITIONAL_NAME>
4-ethyl-3-(4-methoxyphenyl)-2,2-dimethyl-chromen-7-ol

> <PUBCHEM_IUPAC_INCHI>
InChI=1S/C20H22O3/c1-5-16-17-11-8-14(21)12-18(17)23-20(2,3)19(16)13-6-9-15(22-4)10-7-13/h6-12,21H,5H2,1-4H3

> <PUBCHEM_IUPAC_INCHIKEY>
YHXWLHMIDZAYPE-UHFFFAOYSA-N

> <PUBCHEM_XLOGP3_AA>
4

> <PUBCHEM_EXACT_MASS>
310.156895

> <PUBCHEM_MOLECULAR_FORMULA>
C20H22O3

> <PUBCHEM_MOLECULAR_WEIGHT>
310.38688

> <PUBCHEM_OPENEYE_CAN_SMILES>
CCC1=C(C(OC2=C1C=CC(=C2)O)(C)C)C3=CC=C(C=C3)OC

> <PUBCHEM_OPENEYE_ISO_SMILES>
CCC1=C(C(OC2=C1C=CC(=C2)O)(C)C)C3=CC=C(C=C3)OC

> <PUBCHEM_CACTVS_TPSA>
38.7

> <PUBCHEM_MONOISOTOPIC_WEIGHT>
310.156895

> <PUBCHEM_TOTAL_CHARGE>
0

> <PUBCHEM_HEAVY_ATOM_COUNT>
23

> <PUBCHEM_ATOM_DEF_STEREO_COUNT>
0

> <PUBCHEM_ATOM_UDEF_STEREO_COUNT>
0

> <PUBCHEM_BOND_DEF_STEREO_COUNT>
0

> <PUBCHEM_BOND_UDEF_STEREO_COUNT>
0

> <PUBCHEM_ISOTOPIC_ATOM_COUNT>
0

> <PUBCHEM_COMPONENT_COUNT>
1

> <PUBCHEM_CACTVS_TAUTO_COUNT>
6

> <PUBCHEM_COORDINATE_TYPE>
1
5
255

> <PUBCHEM_BONDANNOTATIONS>
10  14  8
11  16  8
11  17  8
13  18  8
14  19  8
16  20  8
17  21  8
18  19  8
20  22  8
21  22  8
7  10  8
7  13  8

$$$$

