9543280
  -OEChem-07051213113D

 30 33  0     1  0  0  0  0  0999 V2000
    1.9614    2.9668   -0.1987 O   0  0  0  0  0  0  0  0  0  0  0  0
   -0.2226    2.5495    1.3952 O   0  0  0  0  0  0  0  0  0  0  0  0
    1.0401    1.9548   -0.5941 C   0  0  2  0  0  0  0  0  0  0  0  0
   -0.3419    2.2666   -0.0013 C   0  0  1  0  0  0  0  0  0  0  0  0
    0.5901   -0.4726   -0.0586 C   0  0  0  0  0  0  0  0  0  0  0  0
   -0.8027   -0.2132   -0.0839 C   0  0  0  0  0  0  0  0  0  0  0  0
    1.5361    0.5682   -0.2246 C   0  0  0  0  0  0  0  0  0  0  0  0
   -1.2995    1.1086   -0.1339 C   0  0  0  0  0  0  0  0  0  0  0  0
    1.0507   -1.8014    0.1054 C   0  0  0  0  0  0  0  0  0  0  0  0
   -1.7231   -1.2872   -0.0310 C   0  0  0  0  0  0  0  0  0  0  0  0
    2.9081    0.2805   -0.1856 C   0  0  0  0  0  0  0  0  0  0  0  0
   -2.6791    1.3463   -0.1878 C   0  0  0  0  0  0  0  0  0  0  0  0
    0.1237   -2.8474    0.1895 C   0  0  0  0  0  0  0  0  0  0  0  0
   -1.2447   -2.5956    0.1026 C   0  0  0  0  0  0  0  0  0  0  0  0
    2.4286   -2.0575    0.1620 C   0  0  0  0  0  0  0  0  0  0  0  0
   -3.1007   -1.0259   -0.0960 C   0  0  0  0  0  0  0  0  0  0  0  0
    3.3498   -1.0223    0.0250 C   0  0  0  0  0  0  0  0  0  0  0  0
   -3.5741    0.2816   -0.1840 C   0  0  0  0  0  0  0  0  0  0  0  0
    0.9754    1.9770   -1.6903 H   0  0  0  0  0  0  0  0  0  0  0  0
   -0.7396    3.1695   -0.4800 H   0  0  0  0  0  0  0  0  0  0  0  0
    3.6459    1.0636   -0.3380 H   0  0  0  0  0  0  0  0  0  0  0  0
   -3.0616    2.3633   -0.2144 H   0  0  0  0  0  0  0  0  0  0  0  0
    0.4584   -3.8763    0.3064 H   0  0  0  0  0  0  0  0  0  0  0  0
   -1.9346   -3.4354    0.1557 H   0  0  0  0  0  0  0  0  0  0  0  0
    2.7985   -3.0716    0.2987 H   0  0  0  0  0  0  0  0  0  0  0  0
   -3.8205   -1.8415   -0.0679 H   0  0  0  0  0  0  0  0  0  0  0  0
    4.4142   -1.2360    0.0565 H   0  0  0  0  0  0  0  0  0  0  0  0
   -4.6429    0.4701   -0.2249 H   0  0  0  0  0  0  0  0  0  0  0  0
    1.6033    3.8210   -0.4948 H   0  0  0  0  0  0  0  0  0  0  0  0
   -1.1137    2.7130    1.7488 H   0  0  0  0  0  0  0  0  0  0  0  0
  1  3  1  0  0  0  0
  1 29  1  0  0  0  0
  2  4  1  0  0  0  0
  2 30  1  0  0  0  0
  3  4  1  0  0  0  0
  3  7  1  0  0  0  0
  3 19  1  0  0  0  0
  4  8  1  0  0  0  0
  4 20  1  0  0  0  0
  5  6  1  0  0  0  0
  5  7  1  0  0  0  0
  5  9  2  0  0  0  0
  6  8  1  0  0  0  0
  6 10  2  0  0  0  0
  7 11  2  0  0  0  0
  8 12  2  0  0  0  0
  9 13  1  0  0  0  0
  9 15  1  0  0  0  0
 10 14  1  0  0  0  0
 10 16  1  0  0  0  0
 11 17  1  0  0  0  0
 11 21  1  0  0  0  0
 12 18  1  0  0  0  0
 12 22  1  0  0  0  0
 13 14  2  0  0  0  0
 13 23  1  0  0  0  0
 14 24  1  0  0  0  0
 15 17  2  0  0  0  0
 15 25  1  0  0  0  0
 16 18  2  0  0  0  0
 16 26  1  0  0  0  0
 17 27  1  0  0  0  0
 18 28  1  0  0  0  0
M  END
> <PUBCHEM_COMPOUND_CID>
9543280

> <PUBCHEM_CONFORMER_RMSD>
0.6

> <PUBCHEM_CONFORMER_DIVERSEORDER>
1
2

> <PUBCHEM_MMFF94_PARTIAL_CHARGES>
24
1 -0.68
11 -0.15
12 -0.15
13 -0.15
14 -0.15
15 -0.15
16 -0.15
17 -0.15
18 -0.15
2 -0.68
21 0.15
22 0.15
23 0.15
24 0.15
25 0.15
26 0.15
27 0.15
28 0.15
29 0.4
3 0.42
30 0.4
4 0.42
7 -0.14
8 -0.14

> <PUBCHEM_EFFECTIVE_ROTOR_COUNT>
0.4

> <PUBCHEM_PHARMACOPHORE_FEATURES>
8
1 1 acceptor
1 1 donor
1 2 acceptor
1 2 donor
6 3 4 5 6 7 8 rings
6 5 6 9 10 13 14 rings
6 5 7 9 11 15 17 rings
6 6 8 10 12 16 18 rings

> <PUBCHEM_HEAVY_ATOM_COUNT>
18

> <PUBCHEM_ATOM_DEF_STEREO_COUNT>
2

> <PUBCHEM_ATOM_UDEF_STEREO_COUNT>
0

> <PUBCHEM_BOND_DEF_STEREO_COUNT>
0

> <PUBCHEM_BOND_UDEF_STEREO_COUNT>
0

> <PUBCHEM_ISOTOPIC_ATOM_COUNT>
0

> <PUBCHEM_COMPONENT_COUNT>
1

> <PUBCHEM_CACTVS_TAUTO_COUNT>
1

> <PUBCHEM_CONFORMER_ID>
00919E7000000001

> <PUBCHEM_MMFF94_ENERGY>
61.3765

> <PUBCHEM_FEATURE_SELFOVERLAP>
40.728

> <PUBCHEM_SHAPE_FINGERPRINT>
10411042 1 17474953607151539755
108231 29 18335140890484900841
10967382 1 18339642222306254862
1100329 8 18411136913661840602
11132069 177 18266186199970599250
11680986 33 18268709398619921706
13027679 85 18336826403192609277
13132413 78 18409731802241857157
13140716 1 18339640018982725090
14178342 30 17617387611555902432
14790565 3 18194660765382319692
15001771 113 18409724101386776080
15196674 1 18339924912801070719
16945 1 18341331102257650711
193761 8 18123469375789236006
19591789 44 17115215972041932942
20510252 161 18190183566986521834
20905425 154 17904755579491106790
21267235 1 18339353175397595103
21501502 16 18122344579852421375
2334 1 17979071583133682527
23388829 49 18194401314849339325
23402539 116 18263659513829074510
23419403 2 16679301599234160078
23463225 33 18270401727530484262
23559900 14 18335413531784989804
238 59 17839224901603649015
2748010 2 17186437941448060719
2897 32 18340204188770135759
335352 9 17979638166750879375
350125 39 18268703918674240059
427121 178 15724426590334298809
589210 1 18123188996034447550
7364860 26 18336828576493507868
81228 2 18120928666568661026

> <PUBCHEM_SHAPE_MULTIPOLES>
358.69
4.62
3.45
0.72
0.51
0.48
-0.1
-0.62
0.29
-0.6
-0.32
0.02
0.23
-0.21

> <PUBCHEM_SHAPE_SELFOVERLAP>
826.84

> <PUBCHEM_SHAPE_VOLUME>
184.6

> <PUBCHEM_COORDINATE_TYPE>
2
5
10

$$$$

