98579
  -OEChem-07051212462D

 19 20  0     0  0  0  0  0  0999 V2000
    7.0331   -0.3754    0.0000 O   0  0  0  0  0  0  0  0  0  0  0  0
    4.9335    1.7126    0.0000 O   0  0  0  0  0  0  0  0  0  0  0  0
    2.3127   -0.3989    0.0000 O   0  0  0  0  0  0  0  0  0  0  0  0
    6.7514    1.3785    0.0000 O   0  0  0  0  0  0  0  0  0  0  0  0
    6.7689   -2.1320    0.0000 O   0  0  0  0  0  0  0  0  0  0  0  0
    3.1314   -2.0777    0.0000 O   0  0  0  0  0  0  0  0  0  0  0  0
    5.5008    0.1170    0.0000 C   0  0  0  0  0  0  0  0  0  0  0  0
    5.5058   -0.8830    0.0000 C   0  0  0  0  0  0  0  0  0  0  0  0
    4.7159    0.7365    0.0000 C   0  0  0  0  0  0  0  0  0  0  0  0
    4.7271   -1.5104    0.0000 C   0  0  0  0  0  0  0  0  0  0  0  0
    6.4455    0.4264    0.0000 C   0  0  0  0  0  0  0  0  0  0  0  0
    6.4535   -1.1830    0.0000 C   0  0  0  0  0  0  0  0  0  0  0  0
    3.7420    0.5092    0.0000 C   0  0  0  0  0  0  0  0  0  0  0  0
    3.7510   -1.2928    0.0000 C   0  0  0  0  0  0  0  0  0  0  0  0
    3.3127   -0.3940    0.0000 C   0  0  0  0  0  0  0  0  0  0  0  0
    4.8680   -2.1142    0.0000 H   0  0  0  0  0  0  0  0  0  0  0  0
    3.3531    0.9920    0.0000 H   0  0  0  0  0  0  0  0  0  0  0  0
    4.4769    2.1320    0.0000 H   0  0  0  0  0  0  0  0  0  0  0  0
    2.0000    0.1364    0.0000 H   0  0  0  0  0  0  0  0  0  0  0  0
  1 11  1  0  0  0  0
  1 12  1  0  0  0  0
  2  9  1  0  0  0  0
  2 18  1  0  0  0  0
  3 15  1  0  0  0  0
  3 19  1  0  0  0  0
  4 11  2  0  0  0  0
  5 12  2  0  0  0  0
  6 14  2  0  0  0  0
  7  8  1  0  0  0  0
  7  9  2  0  0  0  0
  7 11  1  0  0  0  0
  8 10  2  0  0  0  0
  8 12  1  0  0  0  0
  9 13  1  0  0  0  0
 10 14  1  0  0  0  0
 10 16  1  0  0  0  0
 13 15  2  0  0  0  0
 13 17  1  0  0  0  0
 14 15  1  0  0  0  0
M  END
> <PUBCHEM_COMPOUND_CID>
98579

> <PUBCHEM_COMPOUND_CANONICALIZED>
1

> <PUBCHEM_CACTVS_COMPLEXITY>
491

> <PUBCHEM_CACTVS_HBOND_ACCEPTOR>
6

> <PUBCHEM_CACTVS_HBOND_DONOR>
2

> <PUBCHEM_CACTVS_ROTATABLE_BOND>
0

> <PUBCHEM_CACTVS_SUBSKEYS>
AAADcYBwOAAAAAAAAAAAAAAAAAAAASAAAAAAAAAABAAAAACAAAAAGgAACAAADASAgAAACAAABgCIAqDSCAIAAAAgIAAACAFAAEgIBBAAIAACUAAEQAAIsYIDAAAAAAAAAAAAAAAAAAAAAAAAAAAAAAAAAA==

> <PUBCHEM_IUPAC_OPENEYE_NAME>
6,8-dihydroxycyclohepta[c]furan-1,3,5-trione

> <PUBCHEM_IUPAC_CAS_NAME>
6,8-dihydroxycyclohepta[c]furan-1,3,5-trione

> <PUBCHEM_IUPAC_NAME>
6,8-dihydroxycyclohepta[c]furan-1,3,5-trione

> <PUBCHEM_IUPAC_SYSTEMATIC_NAME>
6,8-bis(oxidanyl)cyclohepta[c]furan-1,3,5-trione

> <PUBCHEM_IUPAC_TRADITIONAL_NAME>
6,8-dihydroxycyclohepta[c]furan-1,3,5-trione

> <PUBCHEM_IUPAC_INCHI>
InChI=1S/C9H4O6/c10-4-1-3-7(6(12)2-5(4)11)9(14)15-8(3)13/h1-2,12H,(H,10,11)

> <PUBCHEM_IUPAC_INCHIKEY>
IECSWTFJOUGQFO-UHFFFAOYSA-N

> <PUBCHEM_XLOGP3_AA>
0.2

> <PUBCHEM_EXACT_MASS>
208.000788

> <PUBCHEM_MOLECULAR_FORMULA>
C9H4O6

> <PUBCHEM_MOLECULAR_WEIGHT>
208.12446

> <PUBCHEM_OPENEYE_CAN_SMILES>
C1=C2C(=C(C=C(C1=O)O)O)C(=O)OC2=O

> <PUBCHEM_OPENEYE_ISO_SMILES>
C1=C2C(=C(C=C(C1=O)O)O)C(=O)OC2=O

> <PUBCHEM_CACTVS_TPSA>
101

> <PUBCHEM_MONOISOTOPIC_WEIGHT>
208.000788

> <PUBCHEM_TOTAL_CHARGE>
0

> <PUBCHEM_HEAVY_ATOM_COUNT>
15

> <PUBCHEM_ATOM_DEF_STEREO_COUNT>
0

> <PUBCHEM_ATOM_UDEF_STEREO_COUNT>
0

> <PUBCHEM_BOND_DEF_STEREO_COUNT>
0

> <PUBCHEM_BOND_UDEF_STEREO_COUNT>
0

> <PUBCHEM_ISOTOPIC_ATOM_COUNT>
0

> <PUBCHEM_COMPONENT_COUNT>
1

> <PUBCHEM_CACTVS_TAUTO_COUNT>
14

> <PUBCHEM_COORDINATE_TYPE>
1
5
255

> <PUBCHEM_BONDANNOTATIONS>
10  14  8
13  15  8
14  15  8
7  8  8
7  9  8
8  10  8
9  13  8

$$$$

