151670
  -OEChem-07051212583D

 50 52  0     0  0  0  0  0  0999 V2000
    0.3524    0.3558    1.8031 O   0  0  0  0  0  0  0  0  0  0  0  0
    3.8048    1.6894   -1.2315 O   0  0  0  0  0  0  0  0  0  0  0  0
   -0.6368    3.2578   -1.8789 O   0  0  0  0  0  0  0  0  0  0  0  0
   -1.9603    2.7234    1.1861 O   0  0  0  0  0  0  0  0  0  0  0  0
    5.7737   -0.3993    0.3404 O   0  0  0  0  0  0  0  0  0  0  0  0
    2.0902    1.0088    0.3005 C   0  0  0  0  0  0  0  0  0  0  0  0
    3.0799    0.2022    1.0787 C   0  0  0  0  0  0  0  0  0  0  0  0
   -0.1671    1.8053   -0.0269 C   0  0  0  0  0  0  0  0  0  0  0  0
    0.7545    1.0519    0.7002 C   0  0  0  0  0  0  0  0  0  0  0  0
   -2.5596    0.8142   -0.1575 C   0  0  0  0  0  0  0  0  0  0  0  0
   -3.6804    0.4738    0.8273 C   0  0  0  0  0  0  0  0  0  0  0  0
   -1.5641    1.8511    0.3894 C   0  0  0  0  0  0  0  0  0  0  0  0
    2.5042    1.7192   -0.8263 C   0  0  0  0  0  0  0  0  0  0  0  0
    3.4800   -1.0918    0.4024 C   0  0  0  0  0  0  0  0  0  0  0  0
    0.2470    2.5157   -1.1537 C   0  0  0  0  0  0  0  0  0  0  0  0
    1.5826    2.4726   -1.5533 C   0  0  0  0  0  0  0  0  0  0  0  0
   -4.6291   -0.5502    0.2597 C   0  0  0  0  0  0  0  0  0  0  0  0
    4.8047   -1.3184    0.0704 C   0  0  0  0  0  0  0  0  0  0  0  0
    2.4956   -2.0264    0.1285 C   0  0  0  0  0  0  0  0  0  0  0  0
   -5.7358   -0.1282   -0.4621 C   0  0  0  0  0  0  0  0  0  0  0  0
   -4.3807   -1.8990    0.4679 C   0  0  0  0  0  0  0  0  0  0  0  0
    5.1559   -2.5151   -0.5541 C   0  0  0  0  0  0  0  0  0  0  0  0
    2.8468   -3.2232   -0.4960 C   0  0  0  0  0  0  0  0  0  0  0  0
    4.1770   -3.4675   -0.8373 C   0  0  0  0  0  0  0  0  0  0  0  0
    0.4127    1.0365    3.0536 C   0  0  0  0  0  0  0  0  0  0  0  0
   -6.6139   -1.0762   -0.9876 C   0  0  0  0  0  0  0  0  0  0  0  0
   -5.2588   -2.8469   -0.0576 C   0  0  0  0  0  0  0  0  0  0  0  0
   -6.3753   -2.4354   -0.7853 C   0  0  0  0  0  0  0  0  0  0  0  0
    2.6958   -0.0755    2.0678 H   0  0  0  0  0  0  0  0  0  0  0  0
    3.9425    0.8310    1.3320 H   0  0  0  0  0  0  0  0  0  0  0  0
   -2.9751    1.2227   -1.0866 H   0  0  0  0  0  0  0  0  0  0  0  0
   -2.0038   -0.0952   -0.4168 H   0  0  0  0  0  0  0  0  0  0  0  0
   -3.2519    0.1063    1.7689 H   0  0  0  0  0  0  0  0  0  0  0  0
   -4.2374    1.3803    1.0978 H   0  0  0  0  0  0  0  0  0  0  0  0
    1.9131    3.0235   -2.4305 H   0  0  0  0  0  0  0  0  0  0  0  0
    1.4568   -1.8600    0.3953 H   0  0  0  0  0  0  0  0  0  0  0  0
   -5.9292    0.9279   -0.6268 H   0  0  0  0  0  0  0  0  0  0  0  0
   -3.5128   -2.2293    1.0315 H   0  0  0  0  0  0  0  0  0  0  0  0
    6.1883   -2.7189   -0.8254 H   0  0  0  0  0  0  0  0  0  0  0  0
    2.0851   -3.9659   -0.7145 H   0  0  0  0  0  0  0  0  0  0  0  0
    4.3796    1.2816   -0.5681 H   0  0  0  0  0  0  0  0  0  0  0  0
    4.4504   -4.3997   -1.3230 H   0  0  0  0  0  0  0  0  0  0  0  0
   -0.1678    3.6759   -2.6212 H   0  0  0  0  0  0  0  0  0  0  0  0
   -0.4839    1.6468    3.1912 H   0  0  0  0  0  0  0  0  0  0  0  0
    1.3042    1.6676    3.1331 H   0  0  0  0  0  0  0  0  0  0  0  0
    0.4453    0.2866    3.8489 H   0  0  0  0  0  0  0  0  0  0  0  0
   -7.4829   -0.7559   -1.5548 H   0  0  0  0  0  0  0  0  0  0  0  0
   -5.0728   -3.9054    0.0993 H   0  0  0  0  0  0  0  0  0  0  0  0
   -7.0588   -3.1735   -1.1948 H   0  0  0  0  0  0  0  0  0  0  0  0
    6.6303   -0.7409    0.0313 H   0  0  0  0  0  0  0  0  0  0  0  0
  1  9  1  0  0  0  0
  1 25  1  0  0  0  0
  2 13  1  0  0  0  0
  2 41  1  0  0  0  0
  3 15  1  0  0  0  0
  3 43  1  0  0  0  0
  4 12  2  0  0  0  0
  5 18  1  0  0  0  0
  5 50  1  0  0  0  0
  6  7  1  0  0  0  0
  6  9  2  0  0  0  0
  6 13  1  0  0  0  0
  7 14  1  0  0  0  0
  7 29  1  0  0  0  0
  7 30  1  0  0  0  0
  8  9  1  0  0  0  0
  8 12  1  0  0  0  0
  8 15  2  0  0  0  0
 10 11  1  0  0  0  0
 10 12  1  0  0  0  0
 10 31  1  0  0  0  0
 10 32  1  0  0  0  0
 11 17  1  0  0  0  0
 11 33  1  0  0  0  0
 11 34  1  0  0  0  0
 13 16  2  0  0  0  0
 14 18  1  0  0  0  0
 14 19  2  0  0  0  0
 15 16  1  0  0  0  0
 16 35  1  0  0  0  0
 17 20  2  0  0  0  0
 17 21  1  0  0  0  0
 18 22  2  0  0  0  0
 19 23  1  0  0  0  0
 19 36  1  0  0  0  0
 20 26  1  0  0  0  0
 20 37  1  0  0  0  0
 21 27  2  0  0  0  0
 21 38  1  0  0  0  0
 22 24  1  0  0  0  0
 22 39  1  0  0  0  0
 23 24  2  0  0  0  0
 23 40  1  0  0  0  0
 24 42  1  0  0  0  0
 25 44  1  0  0  0  0
 25 45  1  0  0  0  0
 25 46  1  0  0  0  0
 26 28  2  0  0  0  0
 26 47  1  0  0  0  0
 27 28  1  0  0  0  0
 27 48  1  0  0  0  0
 28 49  1  0  0  0  0
M  END
> <PUBCHEM_COMPOUND_CID>
151670

> <PUBCHEM_CONFORMER_RMSD>
0.8

> <PUBCHEM_CONFORMER_DIVERSEORDER>
2
318
372
110
344
24
142
326
258
77
80
400
456
104
449
263
357
215
40
426
451
115
349
217
341
177
301
408
18
397
336
256
203
191
324
418
48
327
373
248
376
86
313
268
286
447
410
407
395
352
148
304
102
199
245
307
49
82
20
443
101
50
420
292
333
204
370
112
125
309
288
431
187
250
100
64
128
111
158
289
382
169
296
415
252
338
342
164
356
208
434
380
126
183
345
365
129
231
95
384
239
348
225
282
188
186
114
62
441
201
212
454
73
340
291
249
300
107
438
374
162
283
463
266
293
255
334
151
321
246
440
227
192
189
122
394
276
383
118
70
93
98
329
279
442
312
59
322
260
337
181
153
3
444
12
242
75
281
424
211
459
7
412
71
437
97
387
308
247
450
427
381
13
198
460
331
157
277
272
163
39
5
42
311
152
237
269
222
124
290
184
445
23
416
332
398
229
423
458
347
138
131
453
366
251
22
200
58
218
287
389
302
135
275
37
243
155
353
127
403
315
11
96
136
105
202
108
219
8
214
439
240
432
68
361
461
355
297
375
323
15
74
88
38
106
254
267
319
17
194
10
87
172
280
379
19
339
197
179
67
230
234
391
253
320
1
89
284
72
462
213
261
134
21
185
144
141
224
335
285
149
385
360
180
455
143
119
81
241
221
392
413
55
109
30
436
4
226
85
161
65
171
123
156
140
419
367
417
228
92
317
295
154
386
9
371
52
368
446
377
120
196
133
220
303
25
26
421
354
350
175
32
66
270
369
6
262
430
117
235
195
406
174
35
91
76
31
404
83
145
51
305
316
150
273
378
238
325
363
44
314
165
193
401
362
103
84
36
351
16
428
60
358
422
435
364
390
414
264
34
176
207
399
429
402
209
232
306
146
14
257
182
63
168
159
167
216
170
173
139
388
448
396
56
393
233
94
33
116
190
113
425
178
29
54
45
28
27
46
411
328
160
47
343
223
409
452
121
274
265
130
166
206
346
433
137
299
457
236
147
405
43
210
259
310
79
53
69
61
278
41
271
78
132
330
99
359
205
298
90
294
244
57

> <PUBCHEM_MMFF94_PARTIAL_CHARGES>
41
1 -0.36
10 0.06
11 0.14
12 0.42
13 0.08
14 -0.14
15 0.08
16 -0.15
17 -0.14
18 0.08
19 -0.15
2 -0.53
20 -0.15
21 -0.15
22 -0.15
23 -0.15
24 -0.15
25 0.28
26 -0.15
27 -0.15
28 -0.15
3 -0.53
35 0.15
36 0.15
37 0.15
38 0.15
39 0.15
4 -0.57
40 0.15
41 0.45
42 0.15
43 0.45
47 0.15
48 0.15
49 0.15
5 -0.53
50 0.45
6 -0.14
7 0.29
8 0.09
9 0.08

> <PUBCHEM_EFFECTIVE_ROTOR_COUNT>
7

> <PUBCHEM_PHARMACOPHORE_FEATURES>
8
1 1 acceptor
1 2 donor
1 3 donor
1 4 acceptor
1 5 donor
6 14 18 19 22 23 24 rings
6 17 20 21 26 27 28 rings
6 6 8 9 13 15 16 rings

> <PUBCHEM_HEAVY_ATOM_COUNT>
28

> <PUBCHEM_ATOM_DEF_STEREO_COUNT>
0

> <PUBCHEM_ATOM_UDEF_STEREO_COUNT>
0

> <PUBCHEM_BOND_DEF_STEREO_COUNT>
0

> <PUBCHEM_BOND_UDEF_STEREO_COUNT>
0

> <PUBCHEM_ISOTOPIC_ATOM_COUNT>
0

> <PUBCHEM_COMPONENT_COUNT>
1

> <PUBCHEM_CACTVS_TAUTO_COUNT>
63

> <PUBCHEM_CONFORMER_ID>
0002507600000002

> <PUBCHEM_MMFF94_ENERGY>
95.908

> <PUBCHEM_FEATURE_SELFOVERLAP>
40.595

> <PUBCHEM_SHAPE_FINGERPRINT>
10042902 136 18336254760325640526
11315621 136 18199748046991360091
11443803 9 18127975201497407008
11497681 19 18261670467809938006
11796584 16 18041267876747549853
12623949 98 17968370256121608718
12633257 1 15792022134215966965
13583140 156 17459487708854024912
1454969 45 18342171142975752468
14848178 5 18335143102762414163
15475509 35 17895199861526137331
16989378 47 18265027228884260734
17909252 39 18411417272005382049
19141452 34 18050841418668919001
19315092 285 17241333460995237139
20775438 99 18200594679445278106
20775530 9 18337392759192525907
21307412 95 17905891727189781759
21315764 119 18410018754261809931
21475661 188 9511164262408779906
22393880 68 17632309973147087917
23379529 103 18339357573364874615
23559900 14 18410865339481760307
244849 19 17679616499307554657
25222932 49 17169000979842842359
2838139 119 10952042342811792035
3004659 81 18272658922149907259
338550 245 18336831870892244999
4280585 95 18201162151666569354
437795 51 17530974532287739368
439807 62 18339640020027911635
44802255 64 13181579301810493418
46194498 28 17774727442154688565
463206 1 18263084310582130595
5951187 136 10807944802761869242
7808743 9 9404507777269612781
7970288 3 18262522473241425983

> <PUBCHEM_SHAPE_MULTIPOLES>
546.88
14.23
4.22
1.61
16
1.33
0.77
15.1
-3.06
-1.71
-1.65
-0.31
-1.19
-0.42

> <PUBCHEM_SHAPE_SELFOVERLAP>
1186.896

> <PUBCHEM_SHAPE_VOLUME>
297.9

> <PUBCHEM_COORDINATE_TYPE>
2
5
10

$$$$

