157245
  -OEChem-07051213113D

 27 30  0     0  0  0  0  0  0999 V2000
   -4.5873    0.0000    0.0006 O   0  0  0  0  0  0  0  0  0  0  0  0
   -0.4218    0.0000   -0.0001 C   0  0  0  0  0  0  0  0  0  0  0  0
    0.9952    0.0000    0.0000 C   0  0  0  0  0  0  0  0  0  0  0  0
   -1.1287   -1.2251   -0.0001 C   0  0  0  0  0  0  0  0  0  0  0  0
   -1.1287    1.2250   -0.0001 C   0  0  0  0  0  0  0  0  0  0  0  0
    1.7021    1.2251    0.0000 C   0  0  0  0  0  0  0  0  0  0  0  0
    1.7021   -1.2250    0.0000 C   0  0  0  0  0  0  0  0  0  0  0  0
   -0.4113   -2.4290   -0.0001 C   0  0  0  0  0  0  0  0  0  0  0  0
   -0.4115    2.4290   -0.0001 C   0  0  0  0  0  0  0  0  0  0  0  0
    0.9848    2.4290    0.0000 C   0  0  0  0  0  0  0  0  0  0  0  0
    0.9849   -2.4290    0.0000 C   0  0  0  0  0  0  0  0  0  0  0  0
   -2.5311   -1.2084   -0.0002 C   0  0  0  0  0  0  0  0  0  0  0  0
   -2.5311    1.2083   -0.0001 C   0  0  0  0  0  0  0  0  0  0  0  0
    3.1045    1.2084    0.0000 C   0  0  0  0  0  0  0  0  0  0  0  0
    3.1045   -1.2083    0.0001 C   0  0  0  0  0  0  0  0  0  0  0  0
   -3.2259    0.0000   -0.0002 C   0  0  0  0  0  0  0  0  0  0  0  0
    3.7993    0.0000    0.0001 C   0  0  0  0  0  0  0  0  0  0  0  0
   -0.9335   -3.3837   -0.0001 H   0  0  0  0  0  0  0  0  0  0  0  0
   -0.9335    3.3837   -0.0001 H   0  0  0  0  0  0  0  0  0  0  0  0
    1.5071    3.3836    0.0000 H   0  0  0  0  0  0  0  0  0  0  0  0
    1.5072   -3.3836    0.0000 H   0  0  0  0  0  0  0  0  0  0  0  0
   -3.0906   -2.1421   -0.0001 H   0  0  0  0  0  0  0  0  0  0  0  0
   -3.0842    2.1460    0.0000 H   0  0  0  0  0  0  0  0  0  0  0  0
    3.6694    2.1382    0.0000 H   0  0  0  0  0  0  0  0  0  0  0  0
    3.6695   -2.1380    0.0002 H   0  0  0  0  0  0  0  0  0  0  0  0
    4.8856    0.0001    0.0001 H   0  0  0  0  0  0  0  0  0  0  0  0
   -4.9036    0.9198    0.0006 H   0  0  0  0  0  0  0  0  0  0  0  0
  1 16  1  0  0  0  0
  1 27  1  0  0  0  0
  2  3  1  0  0  0  0
  2  4  2  0  0  0  0
  2  5  1  0  0  0  0
  3  6  2  0  0  0  0
  3  7  1  0  0  0  0
  4  8  1  0  0  0  0
  4 12  1  0  0  0  0
  5  9  1  0  0  0  0
  5 13  2  0  0  0  0
  6 10  1  0  0  0  0
  6 14  1  0  0  0  0
  7 11  1  0  0  0  0
  7 15  2  0  0  0  0
  8 11  2  0  0  0  0
  8 18  1  0  0  0  0
  9 10  2  0  0  0  0
  9 19  1  0  0  0  0
 10 20  1  0  0  0  0
 11 21  1  0  0  0  0
 12 16  2  0  0  0  0
 12 22  1  0  0  0  0
 13 16  1  0  0  0  0
 13 23  1  0  0  0  0
 14 17  2  0  0  0  0
 14 24  1  0  0  0  0
 15 17  1  0  0  0  0
 15 25  1  0  0  0  0
 17 26  1  0  0  0  0
M  END
> <PUBCHEM_COMPOUND_CID>
157245

> <PUBCHEM_CONFORMER_RMSD>
0.4

> <PUBCHEM_CONFORMER_DIVERSEORDER>
1

> <PUBCHEM_MMFF94_PARTIAL_CHARGES>
21
1 -0.53
10 -0.15
11 -0.15
12 -0.15
13 -0.15
14 -0.15
15 -0.15
16 0.08
17 -0.15
18 0.15
19 0.15
20 0.15
21 0.15
22 0.15
23 0.15
24 0.15
25 0.15
26 0.15
27 0.45
8 -0.15
9 -0.15

> <PUBCHEM_EFFECTIVE_ROTOR_COUNT>
0

> <PUBCHEM_PHARMACOPHORE_FEATURES>
5
1 1 donor
6 2 3 4 7 8 11 rings
6 2 3 5 6 9 10 rings
6 2 4 5 12 13 16 rings
6 3 6 7 14 15 17 rings

> <PUBCHEM_HEAVY_ATOM_COUNT>
17

> <PUBCHEM_ATOM_DEF_STEREO_COUNT>
0

> <PUBCHEM_ATOM_UDEF_STEREO_COUNT>
0

> <PUBCHEM_BOND_DEF_STEREO_COUNT>
0

> <PUBCHEM_BOND_UDEF_STEREO_COUNT>
0

> <PUBCHEM_ISOTOPIC_ATOM_COUNT>
0

> <PUBCHEM_COMPONENT_COUNT>
1

> <PUBCHEM_CACTVS_TAUTO_COUNT>
2

> <PUBCHEM_CONFORMER_ID>
0002663D00000001

> <PUBCHEM_MMFF94_ENERGY>
57.2727

> <PUBCHEM_FEATURE_SELFOVERLAP>
25.503

> <PUBCHEM_SHAPE_FINGERPRINT>
10411042 1 17762055845454794511
10967382 1 18410575089037277926
11132069 177 18409174302770603008
11471102 20 18411142433053382133
11680986 33 18195244416876770801
12011746 2 18411135844214834662
13140716 1 18266743476134838930
13221675 6 18410855455859717691
13380535 76 18411138021768924394
13862211 1 18410862078731293894
14251717 144 18410014334065320095
14790565 3 18339063935131004516
15196674 1 18410573985198923919
15536298 74 18333168366809208834
16945 1 18410856572619636994
193761 8 17834396005020912740
19591789 44 18410571799055828190
20028762 73 18042966472226985503
20510252 161 18260831544115792208
20588541 1 18411697677455653134
20905425 154 18048033266277157542
21267235 1 18410283735657112842
21501502 16 18122342642695427456
2334 1 18410575063394022726
23402539 116 18334305249032109526
23419403 2 15536798229187948648
23463225 33 18413108376891839352
23559900 14 18190452772054811076
238 59 17838382654137481597
25 1 18341617014051843535
2748010 2 18410855417299814726
335352 9 18050568744095372732
34934 24 18338524023761025176
43471831 8 18269558406549547786
5104073 3 18410855438685013803
528886 8 18410016511323588914
537710 114 18412257333164163148
53812653 166 18335423430750709424
589210 1 17690280413212856298
5939293 188 18336830792807538816
69090 78 18335144163397848719
7364860 26 18334576845488807682
7832392 63 18264210218762045982
8809292 202 18272646818483914667

> <PUBCHEM_SHAPE_MULTIPOLES>
343.98
5.62
2.73
0.61
1.74
0
0
0
0
-0.47
0
-0.02
0
0

> <PUBCHEM_SHAPE_SELFOVERLAP>
805.082

> <PUBCHEM_SHAPE_VOLUME>
176.4

> <PUBCHEM_COORDINATE_TYPE>
2
5
10

$$$$

