75902
  -OEChem-07051213132D

 12 12  0     0  0  0  0  0  0999 V2000
    5.4641   -0.8100    0.0000 Cl  0  0  0  0  0  0  0  0  0  0  0  0
    2.0000   -0.8100    0.0000 Cl  0  0  0  0  0  0  0  0  0  0  0  0
    5.4641    1.1900    0.0000 F   0  0  0  0  0  0  0  0  0  0  0  0
    2.0000    1.1900    0.0000 F   0  0  0  0  0  0  0  0  0  0  0  0
    3.7320   -1.8100    0.0000 O   0  0  0  0  0  0  0  0  0  0  0  0
    3.7320    1.1900    0.0000 N   0  0  0  0  0  0  0  0  0  0  0  0
    3.7320   -0.8100    0.0000 C   0  0  0  0  0  0  0  0  0  0  0  0
    4.5981   -0.3100    0.0000 C   0  0  0  0  0  0  0  0  0  0  0  0
    2.8660   -0.3100    0.0000 C   0  0  0  0  0  0  0  0  0  0  0  0
    4.5981    0.6900    0.0000 C   0  0  0  0  0  0  0  0  0  0  0  0
    2.8660    0.6900    0.0000 C   0  0  0  0  0  0  0  0  0  0  0  0
    3.7320    1.8100    0.0000 H   0  0  0  0  0  0  0  0  0  0  0  0
  1  8  1  0  0  0  0
  2  9  1  0  0  0  0
  3 10  1  0  0  0  0
  4 11  1  0  0  0  0
  5  7  2  0  0  0  0
  6 10  1  0  0  0  0
  6 11  1  0  0  0  0
  6 12  1  0  0  0  0
  7  8  1  0  0  0  0
  7  9  1  0  0  0  0
  8 10  2  0  0  0  0
  9 11  2  0  0  0  0
M  END
> <PUBCHEM_COMPOUND_CID>
75902

> <PUBCHEM_COMPOUND_CANONICALIZED>
1

> <PUBCHEM_CACTVS_COMPLEXITY>
258

> <PUBCHEM_CACTVS_HBOND_ACCEPTOR>
4

> <PUBCHEM_CACTVS_HBOND_DONOR>
1

> <PUBCHEM_CACTVS_ROTATABLE_BOND>
0

> <PUBCHEM_CACTVS_SUBSKEYS>
AAADcQBiIYAGAAAAAAAAAAAAAAAAAAAAAAAgAAAAAAAAAAAAAAAADwIQAAAACAYBgAAAAALAAACIAIBQQAAAAAAgAAAAAAAAAkhAAAAAAAAAAAAAAAAAAEAAAAAAAAAAAAAAAAAAAAAAAAAAAAAAAAAAAA==

> <PUBCHEM_IUPAC_OPENEYE_NAME>
3,5-dichloro-2,6-difluoro-1H-pyridin-4-one

> <PUBCHEM_IUPAC_CAS_NAME>
3,5-dichloro-2,6-difluoro-1H-pyridin-4-one

> <PUBCHEM_IUPAC_NAME>
3,5-dichloro-2,6-difluoro-1H-pyridin-4-one

> <PUBCHEM_IUPAC_SYSTEMATIC_NAME>
3,5-bis(chloranyl)-2,6-bis(fluoranyl)-1H-pyridin-4-one

> <PUBCHEM_IUPAC_TRADITIONAL_NAME>
3,5-dichloro-2,6-difluoro-4-pyridone

> <PUBCHEM_IUPAC_INCHI>
InChI=1S/C5HCl2F2NO/c6-1-3(11)2(7)5(9)10-4(1)8/h(H,10,11)

> <PUBCHEM_IUPAC_INCHIKEY>
MJAWMRVEIWPJRW-UHFFFAOYSA-N

> <PUBCHEM_XLOGP3_AA>
2.4

> <PUBCHEM_EXACT_MASS>
198.940325

> <PUBCHEM_MOLECULAR_FORMULA>
C5HCl2F2NO

> <PUBCHEM_MOLECULAR_WEIGHT>
199.970346

> <PUBCHEM_OPENEYE_CAN_SMILES>
C1(=C(NC(=C(C1=O)Cl)F)F)Cl

> <PUBCHEM_OPENEYE_ISO_SMILES>
C1(=C(NC(=C(C1=O)Cl)F)F)Cl

> <PUBCHEM_CACTVS_TPSA>
29.1

> <PUBCHEM_MONOISOTOPIC_WEIGHT>
198.940325

> <PUBCHEM_TOTAL_CHARGE>
0

> <PUBCHEM_HEAVY_ATOM_COUNT>
11

> <PUBCHEM_ATOM_DEF_STEREO_COUNT>
0

> <PUBCHEM_ATOM_UDEF_STEREO_COUNT>
0

> <PUBCHEM_BOND_DEF_STEREO_COUNT>
0

> <PUBCHEM_BOND_UDEF_STEREO_COUNT>
0

> <PUBCHEM_ISOTOPIC_ATOM_COUNT>
0

> <PUBCHEM_COMPONENT_COUNT>
1

> <PUBCHEM_CACTVS_TAUTO_COUNT>
3

> <PUBCHEM_COORDINATE_TYPE>
1
5
255

> <PUBCHEM_BONDANNOTATIONS>
6  10  8
6  11  8
7  8  8
7  9  8
8  10  8
9  11  8

$$$$

