43507
  -OEChem-07051212523D

 56 59  0     1  0  0  0  0  0999 V2000
    0.3578    2.1374   -2.3202 S   0  0  0  0  0  0  0  0  0  0  0  0
   -3.5973   -0.0319   -0.6670 S   0  0  0  0  0  0  0  0  0  0  0  0
    1.8392    1.8040    2.0738 O   0  0  0  0  0  0  0  0  0  0  0  0
   -1.8194    2.5622    2.5458 O   0  0  0  0  0  0  0  0  0  0  0  0
    4.6591    1.4712    0.7259 O   0  0  0  0  0  0  0  0  0  0  0  0
   -1.2903    0.3648    2.1972 O   0  0  0  0  0  0  0  0  0  0  0  0
   -4.8871   -4.5983    0.1236 O   0  0  0  0  0  0  0  0  0  0  0  0
   -5.3603   -2.8999    1.5619 O   0  0  0  0  0  0  0  0  0  0  0  0
    0.3440    2.3298    0.3278 N   0  0  0  0  0  0  0  0  0  0  0  0
    3.0656    1.7030   -0.9450 N   0  0  0  0  0  0  0  0  0  0  0  0
   -6.0371   -1.2352   -0.5839 N   0  0  0  0  0  0  0  0  0  0  0  0
   -6.1229    0.9048   -0.2437 N   0  0  0  0  0  0  0  0  0  0  0  0
    3.3391   -3.0469   -1.6278 N   0  0  0  0  0  0  0  0  0  0  0  0
   -7.3354   -0.9598   -0.3972 N   0  0  0  0  0  0  0  0  0  0  0  0
   -7.3818    0.3504   -0.1891 N   0  0  0  0  0  0  0  0  0  0  0  0
    0.8528    3.0373   -0.8331 C   0  0  1  0  0  0  0  0  0  0  0  0
    2.2627    2.7303   -0.2825 C   0  0  1  0  0  0  0  0  0  0  0  0
    1.5193    2.2176    0.9839 C   0  0  0  0  0  0  0  0  0  0  0  0
   -0.9596    1.9865    0.4910 C   0  0  0  0  0  0  0  0  0  0  0  0
   -1.8336    2.0166   -0.5431 C   0  0  0  0  0  0  0  0  0  0  0  0
   -1.4245    2.3328   -1.9800 C   0  0  0  0  0  0  0  0  0  0  0  0
   -3.3112    1.7290   -0.4251 C   0  0  0  0  0  0  0  0  0  0  0  0
    4.2139    1.1530   -0.3738 C   0  0  0  0  0  0  0  0  0  0  0  0
   -1.3641    1.5186    1.8251 C   0  0  0  0  0  0  0  0  0  0  0  0
    4.8552    0.1130   -1.2717 C   0  0  0  0  0  0  0  0  0  0  0  0
    5.6252   -0.9358   -0.5137 C   0  0  0  0  0  0  0  0  0  0  0  0
    4.9989   -2.0989   -0.0860 C   0  0  0  0  0  0  0  0  0  0  0  0
    6.9713   -0.7140   -0.2537 C   0  0  0  0  0  0  0  0  0  0  0  0
   -5.3556   -0.0958   -0.4834 C   0  0  0  0  0  0  0  0  0  0  0  0
    3.5522   -2.3495   -0.3594 C   0  0  0  0  0  0  0  0  0  0  0  0
    5.7314   -3.0573    0.6144 C   0  0  0  0  0  0  0  0  0  0  0  0
    7.7039   -1.6724    0.4468 C   0  0  0  0  0  0  0  0  0  0  0  0
    7.0839   -2.8441    0.8809 C   0  0  0  0  0  0  0  0  0  0  0  0
   -5.6090   -2.5870   -0.8414 C   0  0  0  0  0  0  0  0  0  0  0  0
   -5.2864   -3.3355    0.4227 C   0  0  0  0  0  0  0  0  0  0  0  0
    0.5968    4.1034   -0.8292 H   0  0  0  0  0  0  0  0  0  0  0  0
    2.8538    3.6339   -0.0919 H   0  0  0  0  0  0  0  0  0  0  0  0
   -1.7203    3.3594   -2.2227 H   0  0  0  0  0  0  0  0  0  0  0  0
   -1.9400    1.6655   -2.6782 H   0  0  0  0  0  0  0  0  0  0  0  0
    2.7899    1.3767   -1.8682 H   0  0  0  0  0  0  0  0  0  0  0  0
   -3.6867    2.0275    0.5596 H   0  0  0  0  0  0  0  0  0  0  0  0
   -3.8726    2.3143   -1.1626 H   0  0  0  0  0  0  0  0  0  0  0  0
    4.1190   -0.3398   -1.9441 H   0  0  0  0  0  0  0  0  0  0  0  0
    5.5395    0.6550   -1.9390 H   0  0  0  0  0  0  0  0  0  0  0  0
   -2.1023    2.2939    3.4460 H   0  0  0  0  0  0  0  0  0  0  0  0
    7.4655    0.1954   -0.5843 H   0  0  0  0  0  0  0  0  0  0  0  0
    2.9654   -1.4256   -0.3387 H   0  0  0  0  0  0  0  0  0  0  0  0
    3.1285   -2.9610    0.4478 H   0  0  0  0  0  0  0  0  0  0  0  0
    5.2625   -3.9759    0.9574 H   0  0  0  0  0  0  0  0  0  0  0  0
    8.7568   -1.5063    0.6547 H   0  0  0  0  0  0  0  0  0  0  0  0
    7.6544   -3.5904    1.4260 H   0  0  0  0  0  0  0  0  0  0  0  0
   -6.4244   -3.0994   -1.3636 H   0  0  0  0  0  0  0  0  0  0  0  0
   -4.7325   -2.5623   -1.4946 H   0  0  0  0  0  0  0  0  0  0  0  0
    3.7656   -3.9720   -1.5847 H   0  0  0  0  0  0  0  0  0  0  0  0
    2.3406   -3.2046   -1.7592 H   0  0  0  0  0  0  0  0  0  0  0  0
   -4.6677   -5.1130    0.9294 H   0  0  0  0  0  0  0  0  0  0  0  0
  1 16  1  0  0  0  0
  1 21  1  0  0  0  0
  2 22  1  0  0  0  0
  2 29  1  0  0  0  0
  3 18  2  0  0  0  0
  4 24  1  0  0  0  0
  4 45  1  0  0  0  0
  5 23  2  0  0  0  0
  6 24  2  0  0  0  0
  7 35  1  0  0  0  0
  7 56  1  0  0  0  0
  8 35  2  0  0  0  0
  9 16  1  0  0  0  0
  9 18  1  0  0  0  0
  9 19  1  0  0  0  0
 10 17  1  0  0  0  0
 10 23  1  0  0  0  0
 10 40  1  0  0  0  0
 11 14  1  0  0  0  0
 11 29  1  0  0  0  0
 11 34  1  0  0  0  0
 12 15  1  0  0  0  0
 12 29  2  0  0  0  0
 13 30  1  0  0  0  0
 13 54  1  0  0  0  0
 13 55  1  0  0  0  0
 14 15  2  0  0  0  0
 16 17  1  0  0  0  0
 16 36  1  0  0  0  0
 17 18  1  0  0  0  0
 17 37  1  0  0  0  0
 19 20  2  0  0  0  0
 19 24  1  0  0  0  0
 20 21  1  0  0  0  0
 20 22  1  0  0  0  0
 21 38  1  0  0  0  0
 21 39  1  0  0  0  0
 22 41  1  0  0  0  0
 22 42  1  0  0  0  0
 23 25  1  0  0  0  0
 25 26  1  0  0  0  0
 25 43  1  0  0  0  0
 25 44  1  0  0  0  0
 26 27  1  0  0  0  0
 26 28  2  0  0  0  0
 27 30  1  0  0  0  0
 27 31  2  0  0  0  0
 28 32  1  0  0  0  0
 28 46  1  0  0  0  0
 30 47  1  0  0  0  0
 30 48  1  0  0  0  0
 31 33  1  0  0  0  0
 31 49  1  0  0  0  0
 32 33  2  0  0  0  0
 32 50  1  0  0  0  0
 33 51  1  0  0  0  0
 34 35  1  0  0  0  0
 34 52  1  0  0  0  0
 34 53  1  0  0  0  0
M  END
> <PUBCHEM_COMPOUND_CID>
43507

> <PUBCHEM_CONFORMER_RMSD>
1.2

> <PUBCHEM_CONFORMER_DIVERSEORDER>
1
27
60
80
85
61
64
33
25
58
88
68
73
19
95
69
93
15
34
44
47
29
12
94
62
91
31
86
32
43
92
82
70
78
40
59
26
41
52
8
38
17
53
2
51
87
24
76
81
66
77
75
30
4
5
39
23
83
65
56
49
6
13
45
57
46
21
36
48
35
16
74
79
54
89
9
3
71
63
55
14
50
84
37
67
22
11
20
10
72
42
7
18
90
28

> <PUBCHEM_MMFF94_PARTIAL_CHARGES>
43
1 -0.45
10 -0.65
11 0.31
12 -0.34
13 -0.99
14 -0.42
16 0.44
17 0.28
18 0.58
19 0.12
2 -0.29
20 -0.28
21 0.37
22 0.37
23 0.57
24 0.71
25 0.2
26 -0.14
27 -0.14
28 -0.15
29 0.24
3 -0.57
30 0.41
31 -0.15
32 -0.15
33 -0.15
34 0.32
35 0.66
4 -0.65
40 0.37
45 0.5
46 0.15
49 0.15
5 -0.57
50 0.15
51 0.15
54 0.36
55 0.36
56 0.5
6 -0.57
7 -0.65
8 -0.57
9 -0.39

> <PUBCHEM_EFFECTIVE_ROTOR_COUNT>
11.6

> <PUBCHEM_PHARMACOPHORE_FEATURES>
16
1 10 donor
1 13 cation
1 13 donor
1 3 acceptor
1 4 acceptor
1 5 acceptor
1 6 acceptor
1 7 acceptor
1 8 acceptor
3 11 12 29 cation
3 4 6 24 anion
3 7 8 35 anion
4 9 16 17 18 rings
5 11 12 14 15 29 rings
6 1 9 16 19 20 21 rings
6 26 27 28 31 32 33 rings

> <PUBCHEM_HEAVY_ATOM_COUNT>
35

> <PUBCHEM_ATOM_DEF_STEREO_COUNT>
2

> <PUBCHEM_ATOM_UDEF_STEREO_COUNT>
0

> <PUBCHEM_BOND_DEF_STEREO_COUNT>
0

> <PUBCHEM_BOND_UDEF_STEREO_COUNT>
0

> <PUBCHEM_ISOTOPIC_ATOM_COUNT>
0

> <PUBCHEM_COMPONENT_COUNT>
1

> <PUBCHEM_CACTVS_TAUTO_COUNT>
2

> <PUBCHEM_CONFORMER_ID>
0000A9F300000001

> <PUBCHEM_MMFF94_ENERGY>
81.1773

> <PUBCHEM_FEATURE_SELFOVERLAP>
81.562

> <PUBCHEM_SHAPE_FINGERPRINT>
117089 54 17984696719667763419
11991303 11 13758065278193303697
12758862 65 17530966865301915554
13347071 3 18337387132880840038
1361 4 18340488859176193004
13690498 29 17917156108132304773
13782708 43 18410859828247467813
14040221 299 18261673769769851303
14068700 675 18260831509555353321
14951699 99 8214146278139115699
15019793 15 18121783820269933631
15352257 5 18411700984870764559
15419009 47 18342458158386460757
15475509 35 18187089442487474032
18603816 31 18339911693492881041
19841028 212 18412547639490361802
20775438 99 17488173800003513676
2838139 119 10159692473799269908
4169191 19 8935004763606853723
439807 62 18341613741212631862
5718773 13 18341335582509875180
7970288 3 18412829074920836309

> <PUBCHEM_SHAPE_MULTIPOLES>
657.9
20.75
5.03
1.76
0.61
3.59
0.5
23.36
-0.58
1.7
0.08
0.31
-1.09
-0.14

> <PUBCHEM_SHAPE_SELFOVERLAP>
1382.192

> <PUBCHEM_SHAPE_VOLUME>
372.2

> <PUBCHEM_COORDINATE_TYPE>
2
5
10

$$$$

