582964
  -OEChem-06241222442D

 30 30  0     0  0  0  0  0  0999 V2000
    3.7320    1.3170    0.0000 O   0  0  0  0  0  0  0  0  0  0  0  0
    5.4641    1.3170    0.0000 C   0  0  0  0  0  0  0  0  0  0  0  0
    4.5981    0.8170    0.0000 C   0  0  0  0  0  0  0  0  0  0  0  0
    6.3301    1.8170    0.0000 C   0  0  0  0  0  0  0  0  0  0  0  0
    4.9641    2.1830    0.0000 C   0  0  0  0  0  0  0  0  0  0  0  0
    5.9641    0.4510    0.0000 C   0  0  0  0  0  0  0  0  0  0  0  0
    4.5981   -0.1830    0.0000 C   0  0  0  0  0  0  0  0  0  0  0  0
    3.7320   -0.6830    0.0000 C   0  0  0  0  0  0  0  0  0  0  0  0
    5.4641   -0.6830    0.0000 C   0  0  0  0  0  0  0  0  0  0  0  0
    3.7320   -1.6830    0.0000 C   0  0  0  0  0  0  0  0  0  0  0  0
    5.4641   -1.6830    0.0000 C   0  0  0  0  0  0  0  0  0  0  0  0
    4.5981   -2.1830    0.0000 C   0  0  0  0  0  0  0  0  0  0  0  0
    2.8660   -0.1830    0.0000 C   0  0  0  0  0  0  0  0  0  0  0  0
    2.0000   -0.6830    0.0000 C   0  0  0  0  0  0  0  0  0  0  0  0
    5.4272    0.1410    0.0000 H   0  0  0  0  0  0  0  0  0  0  0  0
    6.2741   -0.0860    0.0000 H   0  0  0  0  0  0  0  0  0  0  0  0
    6.5010    0.7610    0.0000 H   0  0  0  0  0  0  0  0  0  0  0  0
    5.5010    2.4930    0.0000 H   0  0  0  0  0  0  0  0  0  0  0  0
    4.6541    2.7200    0.0000 H   0  0  0  0  0  0  0  0  0  0  0  0
    4.4272    1.8730    0.0000 H   0  0  0  0  0  0  0  0  0  0  0  0
    6.6401    1.2800    0.0000 H   0  0  0  0  0  0  0  0  0  0  0  0
    6.8671    2.1270    0.0000 H   0  0  0  0  0  0  0  0  0  0  0  0
    6.0201    2.3539    0.0000 H   0  0  0  0  0  0  0  0  0  0  0  0
    6.0010   -0.3730    0.0000 H   0  0  0  0  0  0  0  0  0  0  0  0
    3.1951   -1.9930    0.0000 H   0  0  0  0  0  0  0  0  0  0  0  0
    6.0010   -1.9930    0.0000 H   0  0  0  0  0  0  0  0  0  0  0  0
    4.5981   -2.8030    0.0000 H   0  0  0  0  0  0  0  0  0  0  0  0
    2.8660    0.4370    0.0000 H   0  0  0  0  0  0  0  0  0  0  0  0
    1.4631   -0.3730    0.0000 H   0  0  0  0  0  0  0  0  0  0  0  0
    2.0000   -1.3030    0.0000 H   0  0  0  0  0  0  0  0  0  0  0  0
  1  3  2  0  0  0  0
  2  3  1  0  0  0  0
  2  4  1  0  0  0  0
  2  5  1  0  0  0  0
  2  6  1  0  0  0  0
  3  7  1  0  0  0  0
  4 21  1  0  0  0  0
  4 22  1  0  0  0  0
  4 23  1  0  0  0  0
  5 18  1  0  0  0  0
  5 19  1  0  0  0  0
  5 20  1  0  0  0  0
  6 15  1  0  0  0  0
  6 16  1  0  0  0  0
  6 17  1  0  0  0  0
  7  8  1  0  0  0  0
  7  9  2  0  0  0  0
  8 10  2  0  0  0  0
  8 13  1  0  0  0  0
  9 11  1  0  0  0  0
  9 24  1  0  0  0  0
 10 12  1  0  0  0  0
 10 25  1  0  0  0  0
 11 12  2  0  0  0  0
 11 26  1  0  0  0  0
 12 27  1  0  0  0  0
 13 14  2  0  0  0  0
 13 28  1  0  0  0  0
 14 29  1  0  0  0  0
 14 30  1  0  0  0  0
M  END
> <PUBCHEM_COMPOUND_CID>
582964

> <PUBCHEM_COMPOUND_CANONICALIZED>
1

> <PUBCHEM_CACTVS_COMPLEXITY>
222

> <PUBCHEM_CACTVS_HBOND_ACCEPTOR>
1

> <PUBCHEM_CACTVS_HBOND_DONOR>
0

> <PUBCHEM_CACTVS_ROTATABLE_BOND>
3

> <PUBCHEM_CACTVS_SUBSKEYS>
AAADceBwIAAAAAAAAAAAAAAAAAAAAAAAAAAwAAAAAAAAAAABAAAAGgAAAAAADgSAmAAyAIAAAACIAqBSAAACAAAkAAAIiAEAAMgIIDKAFRCAIQAggAAIiYcIiMCPgAAAAAAQAAAAAAAAACAAAAAAAAAAAA==

> <PUBCHEM_IUPAC_OPENEYE_NAME>
2,2-dimethyl-1-(2-vinylphenyl)propan-1-one

> <PUBCHEM_IUPAC_CAS_NAME>
1-(2-ethenylphenyl)-2,2-dimethyl-1-propanone

> <PUBCHEM_IUPAC_NAME>
1-(2-ethenylphenyl)-2,2-dimethylpropan-1-one

> <PUBCHEM_IUPAC_SYSTEMATIC_NAME>
1-(2-ethenylphenyl)-2,2-dimethyl-propan-1-one

> <PUBCHEM_IUPAC_TRADITIONAL_NAME>
2,2-dimethyl-1-(2-vinylphenyl)propan-1-one

> <PUBCHEM_IUPAC_INCHI>
InChI=1S/C13H16O/c1-5-10-8-6-7-9-11(10)12(14)13(2,3)4/h5-9H,1H2,2-4H3

> <PUBCHEM_IUPAC_INCHIKEY>
WYXZNPWSOGGCCT-UHFFFAOYSA-N

> <PUBCHEM_XLOGP3_AA>
3.8

> <PUBCHEM_EXACT_MASS>
188.120115

> <PUBCHEM_MOLECULAR_FORMULA>
C13H16O

> <PUBCHEM_MOLECULAR_WEIGHT>
188.26554

> <PUBCHEM_OPENEYE_CAN_SMILES>
CC(C)(C)C(=O)C1=CC=CC=C1C=C

> <PUBCHEM_OPENEYE_ISO_SMILES>
CC(C)(C)C(=O)C1=CC=CC=C1C=C

> <PUBCHEM_CACTVS_TPSA>
17.1

> <PUBCHEM_MONOISOTOPIC_WEIGHT>
188.120115

> <PUBCHEM_TOTAL_CHARGE>
0

> <PUBCHEM_HEAVY_ATOM_COUNT>
14

> <PUBCHEM_ATOM_DEF_STEREO_COUNT>
0

> <PUBCHEM_ATOM_UDEF_STEREO_COUNT>
0

> <PUBCHEM_BOND_DEF_STEREO_COUNT>
0

> <PUBCHEM_BOND_UDEF_STEREO_COUNT>
0

> <PUBCHEM_ISOTOPIC_ATOM_COUNT>
0

> <PUBCHEM_COMPONENT_COUNT>
1

> <PUBCHEM_CACTVS_TAUTO_COUNT>
1

> <PUBCHEM_COORDINATE_TYPE>
1
5
255

> <PUBCHEM_BONDANNOTATIONS>
10  12  8
11  12  8
7  8  8
7  9  8
8  10  8
9  11  8

$$$$

