440736
  -OEChem-07051212502D

 25 25  0     0  0  0  0  0  0999 V2000
    5.1350    1.3450    0.0000 O   0  0  0  0  0  0  0  0  0  0  0  0
    8.5991    0.3450    0.0000 O   0  0  0  0  0  0  0  0  0  0  0  0
    6.8671    1.3450    0.0000 N   0  0  0  0  0  0  0  0  0  0  0  0
    2.5369   -0.1550    0.0000 N   0  0  0  0  0  0  0  0  0  0  0  0
    6.0010   -0.1550    0.0000 C   0  0  0  0  0  0  0  0  0  0  0  0
    4.2690   -0.1550    0.0000 C   0  0  0  0  0  0  0  0  0  0  0  0
    5.1350    0.3450    0.0000 C   0  0  0  0  0  0  0  0  0  0  0  0
    6.8671    0.3450    0.0000 C   0  0  0  0  0  0  0  0  0  0  0  0
    3.4030    0.3450    0.0000 C   0  0  0  0  0  0  0  0  0  0  0  0
    6.0010   -1.1550    0.0000 C   0  0  0  0  0  0  0  0  0  0  0  0
    7.7331   -0.1550    0.0000 C   0  0  0  0  0  0  0  0  0  0  0  0
    6.8671   -1.6550    0.0000 C   0  0  0  0  0  0  0  0  0  0  0  0
    7.7331   -1.1550    0.0000 C   0  0  0  0  0  0  0  0  0  0  0  0
    3.8705   -0.6299    0.0000 H   0  0  0  0  0  0  0  0  0  0  0  0
    4.6675   -0.6299    0.0000 H   0  0  0  0  0  0  0  0  0  0  0  0
    3.8015    0.8199    0.0000 H   0  0  0  0  0  0  0  0  0  0  0  0
    3.0044    0.8199    0.0000 H   0  0  0  0  0  0  0  0  0  0  0  0
    5.4641   -1.4650    0.0000 H   0  0  0  0  0  0  0  0  0  0  0  0
    6.8671   -2.2750    0.0000 H   0  0  0  0  0  0  0  0  0  0  0  0
    8.2700   -1.4650    0.0000 H   0  0  0  0  0  0  0  0  0  0  0  0
    7.4040    1.6550    0.0000 H   0  0  0  0  0  0  0  0  0  0  0  0
    6.3301    1.6550    0.0000 H   0  0  0  0  0  0  0  0  0  0  0  0
    2.0000    0.1550    0.0000 H   0  0  0  0  0  0  0  0  0  0  0  0
    2.5369   -0.7750    0.0000 H   0  0  0  0  0  0  0  0  0  0  0  0
    9.1360    0.0350    0.0000 H   0  0  0  0  0  0  0  0  0  0  0  0
  1  7  2  0  0  0  0
  2 11  1  0  0  0  0
  2 25  1  0  0  0  0
  3  8  1  0  0  0  0
  3 21  1  0  0  0  0
  3 22  1  0  0  0  0
  4  9  1  0  0  0  0
  4 23  1  0  0  0  0
  4 24  1  0  0  0  0
  5  7  1  0  0  0  0
  5  8  2  0  0  0  0
  5 10  1  0  0  0  0
  6  7  1  0  0  0  0
  6  9  1  0  0  0  0
  6 14  1  0  0  0  0
  6 15  1  0  0  0  0
  8 11  1  0  0  0  0
  9 16  1  0  0  0  0
  9 17  1  0  0  0  0
 10 12  2  0  0  0  0
 10 18  1  0  0  0  0
 11 13  2  0  0  0  0
 12 13  1  0  0  0  0
 12 19  1  0  0  0  0
 13 20  1  0  0  0  0
M  END
> <PUBCHEM_COMPOUND_CID>
440736

> <PUBCHEM_COMPOUND_CANONICALIZED>
1

> <PUBCHEM_CACTVS_COMPLEXITY>
185

> <PUBCHEM_CACTVS_HBOND_ACCEPTOR>
4

> <PUBCHEM_CACTVS_HBOND_DONOR>
3

> <PUBCHEM_CACTVS_ROTATABLE_BOND>
3

> <PUBCHEM_CACTVS_SUBSKEYS>
AAADccBzMAAAAAAAAAAAAAAAAAAAAAAAAAAwAAAAAAAAAAABAAAAHgAQCAAADAzBmAQwxoBAAgCIAqRSQACCAAAkIAAIiIEHTMgKJjqSlZOAcYBk0BEI2ceayLCOAAABAAACEAAAAAIAAAQgAAAAAAAAAA==

> <PUBCHEM_IUPAC_OPENEYE_NAME>
3-amino-1-(2-amino-3-hydroxy-phenyl)propan-1-one

> <PUBCHEM_IUPAC_CAS_NAME>
3-amino-1-(2-amino-3-hydroxyphenyl)-1-propanone

> <PUBCHEM_IUPAC_NAME>
3-amino-1-(2-amino-3-hydroxyphenyl)propan-1-one

> <PUBCHEM_IUPAC_SYSTEMATIC_NAME>
3-azanyl-1-(2-azanyl-3-oxidanyl-phenyl)propan-1-one

> <PUBCHEM_IUPAC_TRADITIONAL_NAME>
3-amino-1-(2-amino-3-hydroxy-phenyl)propan-1-one

> <PUBCHEM_IUPAC_INCHI>
InChI=1S/C9H12N2O2/c10-5-4-7(12)6-2-1-3-8(13)9(6)11/h1-3,13H,4-5,10-11H2

> <PUBCHEM_IUPAC_INCHIKEY>
ODOPEICAGBYCFH-UHFFFAOYSA-N

> <PUBCHEM_XLOGP3_AA>
0.1

> <PUBCHEM_EXACT_MASS>
180.089878

> <PUBCHEM_MOLECULAR_FORMULA>
C9H12N2O2

> <PUBCHEM_MOLECULAR_WEIGHT>
180.20378

> <PUBCHEM_OPENEYE_CAN_SMILES>
C1=CC(=C(C(=C1)O)N)C(=O)CCN

> <PUBCHEM_OPENEYE_ISO_SMILES>
C1=CC(=C(C(=C1)O)N)C(=O)CCN

> <PUBCHEM_CACTVS_TPSA>
89.3

> <PUBCHEM_MONOISOTOPIC_WEIGHT>
180.089878

> <PUBCHEM_TOTAL_CHARGE>
0

> <PUBCHEM_HEAVY_ATOM_COUNT>
13

> <PUBCHEM_ATOM_DEF_STEREO_COUNT>
0

> <PUBCHEM_ATOM_UDEF_STEREO_COUNT>
0

> <PUBCHEM_BOND_DEF_STEREO_COUNT>
0

> <PUBCHEM_BOND_UDEF_STEREO_COUNT>
0

> <PUBCHEM_ISOTOPIC_ATOM_COUNT>
0

> <PUBCHEM_COMPONENT_COUNT>
1

> <PUBCHEM_CACTVS_TAUTO_COUNT>
21

> <PUBCHEM_COORDINATE_TYPE>
1
5
255

> <PUBCHEM_BONDANNOTATIONS>
10  12  8
11  13  8
12  13  8
5  10  8
5  8  8
8  11  8

$$$$

