321920
  -OEChem-07051213033D

 31 35  0     0  0  0  0  0  0999 V2000
   -3.9709   -1.5653    0.0001 O   0  0  0  0  0  0  0  0  0  0  0  0
   -4.3510    0.8130    0.0000 O   0  0  0  0  0  0  0  0  0  0  0  0
    0.2425    3.0763   -0.0002 O   0  0  0  0  0  0  0  0  0  0  0  0
    1.7264    1.3161    0.0001 N   0  0  0  0  0  0  0  0  0  0  0  0
    1.9624   -0.0518    0.0003 C   0  0  0  0  0  0  0  0  0  0  0  0
    3.0121    2.0250    0.0003 C   0  0  0  0  0  0  0  0  0  0  0  0
    4.1159    0.9436   -0.0007 C   0  0  0  0  0  0  0  0  0  0  0  0
    3.3234   -0.3256    0.0001 C   0  0  0  0  0  0  0  0  0  0  0  0
    0.9588   -1.0048    0.0003 C   0  0  0  0  0  0  0  0  0  0  0  0
   -0.4314   -0.5226    0.0001 C   0  0  0  0  0  0  0  0  0  0  0  0
   -0.6782    0.8889    0.0000 C   0  0  0  0  0  0  0  0  0  0  0  0
    0.4625    1.8683    0.0001 C   0  0  0  0  0  0  0  0  0  0  0  0
    3.7504   -1.6364   -0.0002 C   0  0  0  0  0  0  0  0  0  0  0  0
    1.3991   -2.3334    0.0000 C   0  0  0  0  0  0  0  0  0  0  0  0
   -1.5358   -1.3939    0.0001 C   0  0  0  0  0  0  0  0  0  0  0  0
   -1.9847    1.4020    0.0000 C   0  0  0  0  0  0  0  0  0  0  0  0
    2.7776   -2.6433   -0.0002 C   0  0  0  0  0  0  0  0  0  0  0  0
   -2.8088   -0.8552    0.0000 C   0  0  0  0  0  0  0  0  0  0  0  0
   -3.0263    0.5005    0.0000 C   0  0  0  0  0  0  0  0  0  0  0  0
   -4.9439   -0.5013   -0.0004 C   0  0  0  0  0  0  0  0  0  0  0  0
    3.0632    2.6657    0.8875 H   0  0  0  0  0  0  0  0  0  0  0  0
    3.0629    2.6672   -0.8858 H   0  0  0  0  0  0  0  0  0  0  0  0
    4.7415    1.0223    0.8935 H   0  0  0  0  0  0  0  0  0  0  0  0
    4.7396    1.0221   -0.8964 H   0  0  0  0  0  0  0  0  0  0  0  0
    4.8052   -1.8872   -0.0005 H   0  0  0  0  0  0  0  0  0  0  0  0
    0.6957   -3.1617   -0.0001 H   0  0  0  0  0  0  0  0  0  0  0  0
   -1.4189   -2.4724    0.0002 H   0  0  0  0  0  0  0  0  0  0  0  0
   -2.1867    2.4676    0.0000 H   0  0  0  0  0  0  0  0  0  0  0  0
    3.0870   -3.6857   -0.0004 H   0  0  0  0  0  0  0  0  0  0  0  0
   -5.5741   -0.6020   -0.8915 H   0  0  0  0  0  0  0  0  0  0  0  0
   -5.5749   -0.6021    0.8902 H   0  0  0  0  0  0  0  0  0  0  0  0
  1 18  1  0  0  0  0
  1 20  1  0  0  0  0
  2 19  1  0  0  0  0
  2 20  1  0  0  0  0
  3 12  2  0  0  0  0
  4  5  1  0  0  0  0
  4  6  1  0  0  0  0
  4 12  1  0  0  0  0
  5  8  2  0  0  0  0
  5  9  1  0  0  0  0
  6  7  1  0  0  0  0
  6 21  1  0  0  0  0
  6 22  1  0  0  0  0
  7  8  1  0  0  0  0
  7 23  1  0  0  0  0
  7 24  1  0  0  0  0
  8 13  1  0  0  0  0
  9 10  1  0  0  0  0
  9 14  2  0  0  0  0
 10 11  1  0  0  0  0
 10 15  2  0  0  0  0
 11 12  1  0  0  0  0
 11 16  2  0  0  0  0
 13 17  2  0  0  0  0
 13 25  1  0  0  0  0
 14 17  1  0  0  0  0
 14 26  1  0  0  0  0
 15 18  1  0  0  0  0
 15 27  1  0  0  0  0
 16 19  1  0  0  0  0
 16 28  1  0  0  0  0
 17 29  1  0  0  0  0
 18 19  2  0  0  0  0
 20 30  1  0  0  0  0
 20 31  1  0  0  0  0
M  END
> <PUBCHEM_COMPOUND_CID>
321920

> <PUBCHEM_CONFORMER_RMSD>
0.6

> <PUBCHEM_CONFORMER_DIVERSEORDER>
1

> <PUBCHEM_MMFF94_PARTIAL_CHARGES>
23
1 -0.36
11 0.09
12 0.54
13 -0.15
14 -0.15
15 -0.15
16 -0.15
17 -0.15
18 0.08
19 0.08
2 -0.36
20 0.56
25 0.15
26 0.15
27 0.15
28 0.15
29 0.15
3 -0.57
4 -0.48
5 0.12
6 0.3
7 0.14
8 -0.14

> <PUBCHEM_EFFECTIVE_ROTOR_COUNT>
1

> <PUBCHEM_PHARMACOPHORE_FEATURES>
8
1 1 acceptor
1 2 acceptor
1 3 acceptor
5 1 2 18 19 20 rings
5 4 5 6 7 8 rings
6 10 11 15 16 18 19 rings
6 4 5 9 10 11 12 rings
6 5 8 9 13 14 17 rings

> <PUBCHEM_HEAVY_ATOM_COUNT>
20

> <PUBCHEM_ATOM_DEF_STEREO_COUNT>
0

> <PUBCHEM_ATOM_UDEF_STEREO_COUNT>
0

> <PUBCHEM_BOND_DEF_STEREO_COUNT>
0

> <PUBCHEM_BOND_UDEF_STEREO_COUNT>
0

> <PUBCHEM_ISOTOPIC_ATOM_COUNT>
0

> <PUBCHEM_COMPONENT_COUNT>
1

> <PUBCHEM_CACTVS_TAUTO_COUNT>
1

> <PUBCHEM_CONFORMER_ID>
0004E98000000001

> <PUBCHEM_MMFF94_ENERGY>
64.678

> <PUBCHEM_FEATURE_SELFOVERLAP>
40.977

> <PUBCHEM_SHAPE_FINGERPRINT>
10411042 1 18122343751146006758
10608611 8 18340772623386348469
10616163 171 18337388215069796791
10967382 1 18410856525591352514
10980938 120 18410855443154111906
11471102 20 18411141324561494567
11578080 2 17273712050791484342
116883 192 18192147324728868830
11806522 49 18411700946247720215
12107183 9 17830446546806896609
12236239 1 17821727235157794011
12553582 1 18337399330476567062
13140716 1 18193277613928861760
138480 1 18410575089301450752
14178342 30 17901689076063500058
14223421 5 18339083812455070796
14790565 3 18123743150227974724
15042514 8 17330840626472505458
15196674 1 18410855473292671015
15230672 131 13731076056125693123
15442244 35 18265049317673897857
15536298 74 18335138700125439170
16945 1 18266459802166520802
17492 89 18409448102741989247
1813 80 17346311618104712677
18186145 218 17775570857488222671
19591789 44 18410292497469647974
200 152 18114186320034163191
20645477 70 18408887355974305103
20905425 154 18336262461418214996
21267235 1 18337944683796119094
21421861 104 17986678275395110002
21452121 103 18334868190706715872
21501502 16 18337666550482988080
221490 88 18341324518147054771
23184049 29 18122907796288954814
2334 1 18338516344311962116
23402539 116 18334867142159942278
23463225 33 18410574006816191748
23559900 14 18337960103008039802
2748010 2 18410855421985211076
2871803 45 18341615935882995046
335352 9 18050568739811045885
33824 294 18411420583804552922
34934 24 18408610236041489982
350125 39 18410856590580461840
474 4 17988076691018938308
5104073 3 18410854373881329459
7364860 26 18408886213349090506
8272917 22 18409161108462491999
8809292 202 18272646861570848083
9709674 26 18412821374261167971

> <PUBCHEM_SHAPE_MULTIPOLES>
389
8.07
2.77
0.6
5.41
0.33
0
-1.51
0
-1.84
0
-0.03
-0.02
0

> <PUBCHEM_SHAPE_SELFOVERLAP>
904.804

> <PUBCHEM_SHAPE_VOLUME>
199.8

> <PUBCHEM_COORDINATE_TYPE>
2
5
10

$$$$

