13878151
  -OEChem-07051213102D

120126  0     1  0  0  0  0  0999 V2000
    8.6036   -0.9029    0.0000 O   0  0  0  0  0  0  0  0  0  0  0  0
   10.4179   -2.6808    0.0000 O   0  0  0  0  0  0  0  0  0  0  0  0
   17.5287    2.1836    0.0000 O   0  0  0  0  0  0  0  0  0  0  0  0
   16.6743    0.6770    0.0000 O   0  0  0  0  0  0  0  0  0  0  0  0
    7.7434    0.6004    0.0000 O   0  0  0  0  0  0  0  0  0  0  0  0
    6.8678   -1.8962    0.0000 O   0  0  0  0  0  0  0  0  0  0  0  0
    5.1396   -0.8896    0.0000 O   0  0  0  0  0  0  0  0  0  0  0  0
    5.1473    1.1104    0.0000 O   0  0  0  0  0  0  0  0  0  0  0  0
    5.1357   -1.8896    0.0000 O   0  0  0  0  0  0  0  0  0  0  0  0
    6.8600   -3.8962    0.0000 O   0  0  0  0  0  0  0  0  0  0  0  0
    5.1242   -4.8895    0.0000 O   0  0  0  0  0  0  0  0  0  0  0  0
    3.3960   -3.8829    0.0000 O   0  0  0  0  0  0  0  0  0  0  0  0
    2.5357   -2.3795    0.0000 O   0  0  0  0  0  0  0  0  0  0  0  0
   13.1307    0.6494    0.0000 C   0  0  2  0  0  0  0  0  0  0  0  0
   12.2647    1.1494    0.0000 C   0  0  1  0  0  0  0  0  0  0  0  0
   11.3547    0.6426    0.0000 C   0  0  2  0  0  0  0  0  0  0  0  0
   13.9967    1.1494    0.0000 C   0  0  1  0  0  0  0  0  0  0  0  0
   11.3467   -0.3990    0.0000 C   0  0  2  0  0  0  0  0  0  0  0  0
   13.1468   -0.3921    0.0000 C   0  0  0  0  0  0  0  0  0  0  0  0
   10.4112   -0.9487    0.0000 C   0  0  1  0  0  0  0  0  0  0  0  0
   12.2487   -0.9198    0.0000 C   0  0  0  0  0  0  0  0  0  0  0  0
   13.9967    2.1494    0.0000 C   0  0  0  0  0  0  0  0  0  0  0  0
   10.4278    1.2067    0.0000 C   0  0  0  0  0  0  0  0  0  0  0  0
   12.2647    2.1494    0.0000 C   0  0  0  0  0  0  0  0  0  0  0  0
   14.8907    2.6841    0.0000 C   0  0  1  0  0  0  0  0  0  0  0  0
   14.8907    0.6148    0.0000 C   0  0  0  0  0  0  0  0  0  0  0  0
   15.7967    2.1702    0.0000 C   0  0  1  0  0  0  0  0  0  0  0  0
    9.4716   -0.4063    0.0000 C   0  0  2  0  0  0  0  0  0  0  0  0
   13.7735   -0.1166    0.0000 C   0  0  0  0  0  0  0  0  0  0  0  0
   15.7967    1.1286    0.0000 C   0  0  0  0  0  0  0  0  0  0  0  0
   11.3624    1.6426    0.0000 C   0  0  0  0  0  0  0  0  0  0  0  0
    9.4800    0.6787    0.0000 C   0  0  0  0  0  0  0  0  0  0  0  0
   13.1307    2.6494    0.0000 C   0  0  0  0  0  0  0  0  0  0  0  0
   14.3389    0.2098    0.0000 C   0  0  0  0  0  0  0  0  0  0  0  0
   14.8656    3.7688    0.0000 C   0  0  0  0  0  0  0  0  0  0  0  0
   16.7405    2.7055    0.0000 C   0  0  0  0  0  0  0  0  0  0  0  0
   15.7967    4.3257    0.0000 C   0  0  0  0  0  0  0  0  0  0  0  0
    9.9146   -1.8167    0.0000 C   0  0  0  0  0  0  0  0  0  0  0  0
   10.9146   -1.8128    0.0000 C   0  0  0  0  0  0  0  0  0  0  0  0
   16.7405    3.7905    0.0000 C   0  0  0  0  0  0  0  0  0  0  0  0
   16.6666    1.6769    0.0000 C   0  0  0  0  0  0  0  0  0  0  0  0
   16.2867    5.1975    0.0000 C   0  0  0  0  0  0  0  0  0  0  0  0
   15.2868    5.1859    0.0000 C   0  0  0  0  0  0  0  0  0  0  0  0
    7.7396   -0.3996    0.0000 C   0  0  2  0  0  0  0  0  0  0  0  0
    6.8716   -0.8962    0.0000 C   0  0  1  0  0  0  0  0  0  0  0  0
    6.0075   -0.3929    0.0000 C   0  0  2  0  0  0  0  0  0  0  0  0
    6.8793    1.1038    0.0000 C   0  0  0  0  0  0  0  0  0  0  0  0
    6.0114    0.6071    0.0000 C   0  0  2  0  0  0  0  0  0  0  0  0
    5.9998   -2.3929    0.0000 C   0  0  2  0  0  0  0  0  0  0  0  0
    5.9960   -3.3929    0.0000 C   0  0  1  0  0  0  0  0  0  0  0  0
    5.1280   -3.8895    0.0000 C   0  0  2  0  0  0  0  0  0  0  0  0
    4.2678   -2.3862    0.0000 C   0  0  1  0  0  0  0  0  0  0  0  0
    4.2639   -3.3862    0.0000 C   0  0  1  0  0  0  0  0  0  0  0  0
    3.4037   -1.8829    0.0000 C   0  0  0  0  0  0  0  0  0  0  0  0
   13.0008    1.5744    0.0000 H   0  0  0  0  0  0  0  0  0  0  0  0
   11.3499   -1.2490    0.0000 H   0  0  0  0  0  0  0  0  0  0  0  0
   13.3648   -0.9725    0.0000 H   0  0  0  0  0  0  0  0  0  0  0  0
   13.7559   -0.2766    0.0000 H   0  0  0  0  0  0  0  0  0  0  0  0
   11.8514   -1.3958    0.0000 H   0  0  0  0  0  0  0  0  0  0  0  0
   12.6497   -1.3927    0.0000 H   0  0  0  0  0  0  0  0  0  0  0  0
   10.8361    1.6733    0.0000 H   0  0  0  0  0  0  0  0  0  0  0  0
   10.0379    1.6887    0.0000 H   0  0  0  0  0  0  0  0  0  0  0  0
   12.0526    2.7320    0.0000 H   0  0  0  0  0  0  0  0  0  0  0  0
   11.6541    2.0418    0.0000 H   0  0  0  0  0  0  0  0  0  0  0  0
   15.6202    3.1204    0.0000 H   0  0  0  0  0  0  0  0  0  0  0  0
   14.4861    0.1450    0.0000 H   0  0  0  0  0  0  0  0  0  0  0  0
   15.2843    0.1357    0.0000 H   0  0  0  0  0  0  0  0  0  0  0  0
    9.4704   -1.0263    0.0000 H   0  0  0  0  0  0  0  0  0  0  0  0
   13.2985   -0.5152    0.0000 H   0  0  0  0  0  0  0  0  0  0  0  0
   14.1720   -0.5916    0.0000 H   0  0  0  0  0  0  0  0  0  0  0  0
   14.2484    0.2819    0.0000 H   0  0  0  0  0  0  0  0  0  0  0  0
   16.0058    0.5449    0.0000 H   0  0  0  0  0  0  0  0  0  0  0  0
   16.4076    1.2347    0.0000 H   0  0  0  0  0  0  0  0  0  0  0  0
   11.9824    1.6378    0.0000 H   0  0  0  0  0  0  0  0  0  0  0  0
   11.3672    2.2625    0.0000 H   0  0  0  0  0  0  0  0  0  0  0  0
   10.7424    1.6473    0.0000 H   0  0  0  0  0  0  0  0  0  0  0  0
    9.2754    1.2640    0.0000 H   0  0  0  0  0  0  0  0  0  0  0  0
    8.8683    0.5773    0.0000 H   0  0  0  0  0  0  0  0  0  0  0  0
   13.1307    3.2694    0.0000 H   0  0  0  0  0  0  0  0  0  0  0  0
   13.7563   -0.0023    0.0000 H   0  0  0  0  0  0  0  0  0  0  0  0
   14.5510   -0.3728    0.0000 H   0  0  0  0  0  0  0  0  0  0  0  0
   14.9214    0.4219    0.0000 H   0  0  0  0  0  0  0  0  0  0  0  0
   14.6431    4.3475    0.0000 H   0  0  0  0  0  0  0  0  0  0  0  0
   14.2573    3.6486    0.0000 H   0  0  0  0  0  0  0  0  0  0  0  0
   16.9496    2.1218    0.0000 H   0  0  0  0  0  0  0  0  0  0  0  0
   17.3514    2.8116    0.0000 H   0  0  0  0  0  0  0  0  0  0  0  0
    9.4381   -1.4200    0.0000 H   0  0  0  0  0  0  0  0  0  0  0  0
    9.4412   -2.2170    0.0000 H   0  0  0  0  0  0  0  0  0  0  0  0
   10.3788   -2.1249    0.0000 H   0  0  0  0  0  0  0  0  0  0  0  0
   11.2266   -2.3486    0.0000 H   0  0  0  0  0  0  0  0  0  0  0  0
   11.4503   -1.5008    0.0000 H   0  0  0  0  0  0  0  0  0  0  0  0
   17.3514    3.6844    0.0000 H   0  0  0  0  0  0  0  0  0  0  0  0
   16.9496    4.3742    0.0000 H   0  0  0  0  0  0  0  0  0  0  0  0
   16.8272    4.8937    0.0000 H   0  0  0  0  0  0  0  0  0  0  0  0
   16.5905    5.7379    0.0000 H   0  0  0  0  0  0  0  0  0  0  0  0
   15.7462    5.5012    0.0000 H   0  0  0  0  0  0  0  0  0  0  0  0
   15.8201    5.5021    0.0000 H   0  0  0  0  0  0  0  0  0  0  0  0
   14.9706    5.7192    0.0000 H   0  0  0  0  0  0  0  0  0  0  0  0
   14.7534    4.8697    0.0000 H   0  0  0  0  0  0  0  0  0  0  0  0
    7.7372   -1.0196    0.0000 H   0  0  0  0  0  0  0  0  0  0  0  0
   10.1100   -3.2189    0.0000 H   0  0  0  0  0  0  0  0  0  0  0  0
   18.0681    1.8777    0.0000 H   0  0  0  0  0  0  0  0  0  0  0  0
    7.4074   -1.2083    0.0000 H   0  0  0  0  0  0  0  0  0  0  0  0
    5.4718   -0.0808    0.0000 H   0  0  0  0  0  0  0  0  0  0  0  0
    7.2797    1.5772    0.0000 H   0  0  0  0  0  0  0  0  0  0  0  0
    6.4826    1.5802    0.0000 H   0  0  0  0  0  0  0  0  0  0  0  0
    6.0138    1.2271    0.0000 H   0  0  0  0  0  0  0  0  0  0  0  0
    6.5356   -2.7050    0.0000 H   0  0  0  0  0  0  0  0  0  0  0  0
    4.6038   -0.5775    0.0000 H   0  0  0  0  0  0  0  0  0  0  0  0
    5.1497    1.7304    0.0000 H   0  0  0  0  0  0  0  0  0  0  0  0
    6.5341   -3.0850    0.0000 H   0  0  0  0  0  0  0  0  0  0  0  0
    5.6638   -4.2016    0.0000 H   0  0  0  0  0  0  0  0  0  0  0  0
    4.2702   -1.7662    0.0000 H   0  0  0  0  0  0  0  0  0  0  0  0
    3.7282   -3.0741    0.0000 H   0  0  0  0  0  0  0  0  0  0  0  0
    6.8577   -4.5162    0.0000 H   0  0  0  0  0  0  0  0  0  0  0  0
    3.8040   -1.4095    0.0000 H   0  0  0  0  0  0  0  0  0  0  0  0
    3.0070   -1.4064    0.0000 H   0  0  0  0  0  0  0  0  0  0  0  0
    4.5860   -5.1975    0.0000 H   0  0  0  0  0  0  0  0  0  0  0  0
    3.3936   -4.5028    0.0000 H   0  0  0  0  0  0  0  0  0  0  0  0
    2.0000   -2.0675    0.0000 H   0  0  0  0  0  0  0  0  0  0  0  0
 28  1  1  1  0  0  0
 44  1  1  1  0  0  0
  2 38  1  0  0  0  0
  2101  1  0  0  0  0
  3 41  1  0  0  0  0
  3102  1  0  0  0  0
  4 41  2  0  0  0  0
  5 44  1  0  0  0  0
  5 47  1  0  0  0  0
 45  6  1  6  0  0  0
 49  6  1  1  0  0  0
 46  7  1  1  0  0  0
  7109  1  0  0  0  0
 48  8  1  1  0  0  0
  8110  1  0  0  0  0
  9 49  1  0  0  0  0
  9 52  1  0  0  0  0
 50 10  1  6  0  0  0
 10115  1  0  0  0  0
 51 11  1  1  0  0  0
 11118  1  0  0  0  0
 53 12  1  6  0  0  0
 12119  1  0  0  0  0
 13 54  1  0  0  0  0
 13120  1  0  0  0  0
 14 15  1  0  0  0  0
 14 17  1  0  0  0  0
 14 19  1  0  0  0  0
 14 29  1  1  0  0  0
 15 16  1  0  0  0  0
 15 24  1  0  0  0  0
 15 55  1  6  0  0  0
 16 18  1  0  0  0  0
 16 23  1  0  0  0  0
 16 31  1  1  0  0  0
 17 22  1  0  0  0  0
 17 26  1  0  0  0  0
 17 34  1  6  0  0  0
 18 20  1  0  0  0  0
 18 21  1  0  0  0  0
 18 56  1  6  0  0  0
 19 21  1  0  0  0  0
 19 57  1  0  0  0  0
 19 58  1  0  0  0  0
 20 28  1  0  0  0  0
 20 38  1  0  0  0  0
 20 39  1  1  0  0  0
 21 59  1  0  0  0  0
 21 60  1  0  0  0  0
 22 25  1  0  0  0  0
 22 33  2  0  0  0  0
 23 32  1  0  0  0  0
 23 61  1  0  0  0  0
 23 62  1  0  0  0  0
 24 33  1  0  0  0  0
 24 63  1  0  0  0  0
 24 64  1  0  0  0  0
 25 27  1  0  0  0  0
 25 35  1  0  0  0  0
 25 65  1  1  0  0  0
 26 30  1  0  0  0  0
 26 66  1  0  0  0  0
 26 67  1  0  0  0  0
 27 30  1  0  0  0  0
 27 36  1  0  0  0  0
 27 41  1  1  0  0  0
 28 32  1  0  0  0  0
 28 68  1  0  0  0  0
 29 69  1  0  0  0  0
 29 70  1  0  0  0  0
 29 71  1  0  0  0  0
 30 72  1  0  0  0  0
 30 73  1  0  0  0  0
 31 74  1  0  0  0  0
 31 75  1  0  0  0  0
 31 76  1  0  0  0  0
 32 77  1  0  0  0  0
 32 78  1  0  0  0  0
 33 79  1  0  0  0  0
 34 80  1  0  0  0  0
 34 81  1  0  0  0  0
 34 82  1  0  0  0  0
 35 37  1  0  0  0  0
 35 83  1  0  0  0  0
 35 84  1  0  0  0  0
 36 40  1  0  0  0  0
 36 85  1  0  0  0  0
 36 86  1  0  0  0  0
 37 40  1  0  0  0  0
 37 42  1  0  0  0  0
 37 43  1  0  0  0  0
 38 87  1  0  0  0  0
 38 88  1  0  0  0  0
 39 89  1  0  0  0  0
 39 90  1  0  0  0  0
 39 91  1  0  0  0  0
 40 92  1  0  0  0  0
 40 93  1  0  0  0  0
 42 94  1  0  0  0  0
 42 95  1  0  0  0  0
 42 96  1  0  0  0  0
 43 97  1  0  0  0  0
 43 98  1  0  0  0  0
 43 99  1  0  0  0  0
 44 45  1  0  0  0  0
 44100  1  0  0  0  0
 45 46  1  0  0  0  0
 45103  1  0  0  0  0
 46 48  1  0  0  0  0
 46104  1  0  0  0  0
 47 48  1  0  0  0  0
 47105  1  0  0  0  0
 47106  1  0  0  0  0
 48107  1  0  0  0  0
 49 50  1  0  0  0  0
 49108  1  0  0  0  0
 50 51  1  0  0  0  0
 50111  1  0  0  0  0
 51 53  1  0  0  0  0
 51112  1  0  0  0  0
 52 53  1  0  0  0  0
 52 54  1  1  0  0  0
 52113  1  0  0  0  0
 53114  1  0  0  0  0
 54116  1  0  0  0  0
 54117  1  0  0  0  0
M  END
> <PUBCHEM_COMPOUND_CID>
13878151

> <PUBCHEM_COMPOUND_CANONICALIZED>
1

> <PUBCHEM_CACTVS_COMPLEXITY>
1460

> <PUBCHEM_CACTVS_HBOND_ACCEPTOR>
13

> <PUBCHEM_CACTVS_HBOND_DONOR>
8

> <PUBCHEM_CACTVS_ROTATABLE_BOND>
7

> <PUBCHEM_CACTVS_SUBSKEYS>
AAADcfB8PAAAAAAAAAAAAAAAAAAAAAAAAAA0aMGCAAAAAADAAAAAGgAACAAADxSwgAMCCAAABgCIAiDSCAAAAAAgAAAACAEAAAgREBIAAQAiQAAFgAAPAAPI6PyPgAAAAAAAAADAAAYAADAAAAAAAAAAAA==

> <PUBCHEM_IUPAC_OPENEYE_NAME>
(4aS,6aR,6aS,6bR,8aR,9R,10S,12aR,14bS)-10-[(2S,3R,4S,5S)-4,5-dihydroxy-3-[(2S,3R,4S,5S,6R)-3,4,5-trihydroxy-6-(hydroxymethyl)tetrahydropyran-2-yl]oxy-tetrahydropyran-2-yl]oxy-9-(hydroxymethyl)-2,2,6a,6b,9,12a-hexamethyl-1,3,4,5,6,6a,7,8,8a,10,11,12,13,14b-tetradecahydropicene-4a-carboxylic acid

> <PUBCHEM_IUPAC_CAS_NAME>
(4aS,6aR,6aS,6bR,8aR,9R,10S,12aR,14bS)-10-[[(2S,3R,4S,5S)-4,5-dihydroxy-3-[[(2S,3R,4S,5S,6R)-3,4,5-trihydroxy-6-(hydroxymethyl)-2-oxanyl]oxy]-2-oxanyl]oxy]-9-(hydroxymethyl)-2,2,6a,6b,9,12a-hexamethyl-1,3,4,5,6,6a,7,8,8a,10,11,12,13,14b-tetradecahydropicene-4a-carboxylic acid

> <PUBCHEM_IUPAC_NAME>
(4aS,6aR,6aS,6bR,8aR,9R,10S,12aR,14bS)-10-[(2S,3R,4S,5S)-4,5-dihydroxy-3-[(2S,3R,4S,5S,6R)-3,4,5-trihydroxy-6-(hydroxymethyl)oxan-2-yl]oxyoxan-2-yl]oxy-9-(hydroxymethyl)-2,2,6a,6b,9,12a-hexamethyl-1,3,4,5,6,6a,7,8,8a,10,11,12,13,14b-tetradecahydropicene-4a-carboxylic acid

> <PUBCHEM_IUPAC_SYSTEMATIC_NAME>
(4aS,6aR,6aS,6bR,8aR,9R,10S,12aR,14bS)-9-(hydroxymethyl)-10-[(2S,3R,4S,5S)-3-[(2S,3R,4S,5S,6R)-6-(hydroxymethyl)-3,4,5-tris(oxidanyl)oxan-2-yl]oxy-4,5-bis(oxidanyl)oxan-2-yl]oxy-2,2,6a,6b,9,12a-hexamethyl-1,3,4,5,6,6a,7,8,8a,10,11,12,13,14b-tetradecahydropicene-4a-carboxylic acid

> <PUBCHEM_IUPAC_TRADITIONAL_NAME>
(4aS,6aR,6aS,6bR,8aR,9R,10S,12aR,14bS)-10-[(2S,3R,4S,5S)-4,5-dihydroxy-3-[(2S,3R,4S,5S,6R)-3,4,5-trihydroxy-6-methylol-tetrahydropyran-2-yl]oxy-tetrahydropyran-2-yl]oxy-2,2,6a,6b,9,12a-hexamethyl-9-methylol-1,3,4,5,6,6a,7,8,8a,10,11,12,13,14b-tetradecahydropicene-4a-carboxylic acid

> <PUBCHEM_IUPAC_INCHI>
InChI=1S/C41H66O13/c1-36(2)13-15-41(35(49)50)16-14-39(5)21(22(41)17-36)7-8-26-37(3)11-10-27(38(4,20-43)25(37)9-12-40(26,39)6)53-34-32(28(45)23(44)19-51-34)54-33-31(48)30(47)29(46)24(18-42)52-33/h7,22-34,42-48H,8-20H2,1-6H3,(H,49,50)/t22-,23-,24+,25+,26+,27-,28-,29+,30-,31+,32+,33-,34-,37-,38-,39+,40+,41-/m0/s1

> <PUBCHEM_IUPAC_INCHIKEY>
RROGHRHLBLVQSG-UUWFFIQNSA-N

> <PUBCHEM_XLOGP3_AA>
3.1

> <PUBCHEM_EXACT_MASS>
766.450342

> <PUBCHEM_MOLECULAR_FORMULA>
C41H66O13

> <PUBCHEM_MOLECULAR_WEIGHT>
766.95494

> <PUBCHEM_OPENEYE_CAN_SMILES>
CC1(CCC2(CCC3(C(=CCC4C3(CCC5C4(CCC(C5(C)CO)OC6C(C(C(CO6)O)O)OC7C(C(C(C(O7)CO)O)O)O)C)C)C2C1)C)C(=O)O)C

> <PUBCHEM_OPENEYE_ISO_SMILES>
C[C@]12CC[C@@H]([C@@]([C@@H]1CC[C@@]3([C@@H]2CC=C4[C@]3(CC[C@@]5([C@H]4CC(CC5)(C)C)C(=O)O)C)C)(C)CO)O[C@H]6[C@@H]([C@H]([C@H](CO6)O)O)O[C@H]7[C@@H]([C@H]([C@@H]([C@H](O7)CO)O)O)O

> <PUBCHEM_CACTVS_TPSA>
216

> <PUBCHEM_MONOISOTOPIC_WEIGHT>
766.450342

> <PUBCHEM_TOTAL_CHARGE>
0

> <PUBCHEM_HEAVY_ATOM_COUNT>
54

> <PUBCHEM_ATOM_DEF_STEREO_COUNT>
18

> <PUBCHEM_ATOM_UDEF_STEREO_COUNT>
0

> <PUBCHEM_BOND_DEF_STEREO_COUNT>
0

> <PUBCHEM_BOND_UDEF_STEREO_COUNT>
0

> <PUBCHEM_ISOTOPIC_ATOM_COUNT>
0

> <PUBCHEM_COMPONENT_COUNT>
1

> <PUBCHEM_CACTVS_TAUTO_COUNT>
1

> <PUBCHEM_COORDINATE_TYPE>
1
5
255

> <PUBCHEM_BONDANNOTATIONS>
28  1  5
44  1  5
50  10  6
51  11  5
53  12  6
14  29  5
15  55  6
16  31  5
17  34  6
18  56  6
20  39  5
25  65  5
27  41  5
52  54  5
45  6  6
49  6  5
46  7  5
48  8  5

$$$$

