2830
  -OEChem-07051213063D

 53 57  0     0  0  0  0  0  0999 V2000
    1.0170   -3.3156    0.4905 O   0  0  0  0  0  0  0  0  0  0  0  0
   -7.7221   -1.4276   -1.5580 O   0  0  0  0  0  0  0  0  0  0  0  0
    6.5937   -0.7677   -2.7308 O   0  0  0  0  0  0  0  0  0  0  0  0
   -0.2758   -1.3472    0.7599 N   0  0  0  0  0  0  0  0  0  0  0  0
   -2.1454    0.6272    0.8507 N   0  0  0  0  0  0  0  0  0  0  0  0
    1.3646   -0.0628    1.6852 N   0  0  0  0  0  0  0  0  0  0  0  0
    0.0479   -0.1016    1.2737 C   0  0  0  0  0  0  0  0  0  0  0  0
   -0.8680    0.8886    1.3258 C   0  0  0  0  0  0  0  0  0  0  0  0
   -0.6004    2.2590    1.8650 C   0  0  0  0  0  0  0  0  0  0  0  0
   -2.4830   -0.6167    0.3374 C   0  0  0  0  0  0  0  0  0  0  0  0
    1.8392   -1.2484    1.4314 C   0  0  0  0  0  0  0  0  0  0  0  0
   -1.5464   -1.5911    0.2935 C   0  0  0  0  0  0  0  0  0  0  0  0
    0.8085   -2.1700    0.8118 C   0  0  0  0  0  0  0  0  0  0  0  0
    3.2232   -1.7169    1.6930 C   0  0  0  0  0  0  0  0  0  0  0  0
   -0.1157    3.1779    0.7820 C   0  0  0  0  0  0  0  0  0  0  0  0
   -3.8545   -0.8299   -0.1596 C   0  0  0  0  0  0  0  0  0  0  0  0
    4.1223   -1.4635    0.5127 C   0  0  0  0  0  0  0  0  0  0  0  0
   -1.0337    3.9168    0.0445 C   0  0  0  0  0  0  0  0  0  0  0  0
    1.2469    3.2815    0.5262 C   0  0  0  0  0  0  0  0  0  0  0  0
   -4.8467   -1.3069    0.7010 C   0  0  0  0  0  0  0  0  0  0  0  0
   -4.1696   -0.5549   -1.4928 C   0  0  0  0  0  0  0  0  0  0  0  0
    4.8133   -0.2630    0.4251 C   0  0  0  0  0  0  0  0  0  0  0  0
    4.2479   -2.4340   -0.4715 C   0  0  0  0  0  0  0  0  0  0  0  0
   -6.1448   -1.5076    0.2315 C   0  0  0  0  0  0  0  0  0  0  0  0
   -5.4676   -0.7557   -1.9623 C   0  0  0  0  0  0  0  0  0  0  0  0
   -0.5831    4.7707   -0.9623 C   0  0  0  0  0  0  0  0  0  0  0  0
    1.6974    4.1354   -0.4805 C   0  0  0  0  0  0  0  0  0  0  0  0
   -6.4552   -1.2321   -1.1002 C   0  0  0  0  0  0  0  0  0  0  0  0
    5.6465   -0.0283   -0.6687 C   0  0  0  0  0  0  0  0  0  0  0  0
    5.0810   -2.1993   -1.5653 C   0  0  0  0  0  0  0  0  0  0  0  0
    0.7824    4.8801   -1.2248 C   0  0  0  0  0  0  0  0  0  0  0  0
    5.7803   -0.9964   -1.6639 C   0  0  0  0  0  0  0  0  0  0  0  0
    0.1413    2.2185    2.6739 H   0  0  0  0  0  0  0  0  0  0  0  0
   -1.5013    2.6704    2.3393 H   0  0  0  0  0  0  0  0  0  0  0  0
   -2.8445    1.3591    0.8779 H   0  0  0  0  0  0  0  0  0  0  0  0
   -1.7369   -2.5839   -0.0981 H   0  0  0  0  0  0  0  0  0  0  0  0
    3.2126   -2.7825    1.9493 H   0  0  0  0  0  0  0  0  0  0  0  0
    3.6095   -1.1967    2.5781 H   0  0  0  0  0  0  0  0  0  0  0  0
   -2.0998    3.8400    0.2395 H   0  0  0  0  0  0  0  0  0  0  0  0
    1.9718    2.7120    1.1007 H   0  0  0  0  0  0  0  0  0  0  0  0
   -4.6209   -1.5256    1.7421 H   0  0  0  0  0  0  0  0  0  0  0  0
   -3.4113   -0.1821   -2.1772 H   0  0  0  0  0  0  0  0  0  0  0  0
    4.7141    0.4986    1.1934 H   0  0  0  0  0  0  0  0  0  0  0  0
    3.7112   -3.3758   -0.4044 H   0  0  0  0  0  0  0  0  0  0  0  0
   -6.9052   -1.8788    0.9133 H   0  0  0  0  0  0  0  0  0  0  0  0
   -5.7035   -0.5389   -3.0007 H   0  0  0  0  0  0  0  0  0  0  0  0
   -1.2955    5.3504   -1.5419 H   0  0  0  0  0  0  0  0  0  0  0  0
    2.7608    4.2211   -0.6843 H   0  0  0  0  0  0  0  0  0  0  0  0
    6.1852    0.9133   -0.7341 H   0  0  0  0  0  0  0  0  0  0  0  0
    5.1818   -2.9576   -2.3370 H   0  0  0  0  0  0  0  0  0  0  0  0
    1.1332    5.5450   -2.0086 H   0  0  0  0  0  0  0  0  0  0  0  0
   -8.2731   -1.7593   -0.8283 H   0  0  0  0  0  0  0  0  0  0  0  0
    6.9973    0.1122   -2.6365 H   0  0  0  0  0  0  0  0  0  0  0  0
  1 13  2  0  0  0  0
  2 28  1  0  0  0  0
  2 52  1  0  0  0  0
  3 32  1  0  0  0  0
  3 53  1  0  0  0  0
  4  7  1  0  0  0  0
  4 12  1  0  0  0  0
  4 13  1  0  0  0  0
  5  8  1  0  0  0  0
  5 10  1  0  0  0  0
  5 35  1  0  0  0  0
  6  7  1  0  0  0  0
  6 11  2  0  0  0  0
  7  8  2  0  0  0  0
  8  9  1  0  0  0  0
  9 15  1  0  0  0  0
  9 33  1  0  0  0  0
  9 34  1  0  0  0  0
 10 12  2  0  0  0  0
 10 16  1  0  0  0  0
 11 13  1  0  0  0  0
 11 14  1  0  0  0  0
 12 36  1  0  0  0  0
 14 17  1  0  0  0  0
 14 37  1  0  0  0  0
 14 38  1  0  0  0  0
 15 18  2  0  0  0  0
 15 19  1  0  0  0  0
 16 20  2  0  0  0  0
 16 21  1  0  0  0  0
 17 22  2  0  0  0  0
 17 23  1  0  0  0  0
 18 26  1  0  0  0  0
 18 39  1  0  0  0  0
 19 27  2  0  0  0  0
 19 40  1  0  0  0  0
 20 24  1  0  0  0  0
 20 41  1  0  0  0  0
 21 25  2  0  0  0  0
 21 42  1  0  0  0  0
 22 29  1  0  0  0  0
 22 43  1  0  0  0  0
 23 30  2  0  0  0  0
 23 44  1  0  0  0  0
 24 28  2  0  0  0  0
 24 45  1  0  0  0  0
 25 28  1  0  0  0  0
 25 46  1  0  0  0  0
 26 31  2  0  0  0  0
 26 47  1  0  0  0  0
 27 31  1  0  0  0  0
 27 48  1  0  0  0  0
 29 32  2  0  0  0  0
 29 49  1  0  0  0  0
 30 32  1  0  0  0  0
 30 50  1  0  0  0  0
 31 51  1  0  0  0  0
M  END
> <PUBCHEM_COMPOUND_CID>
2830

> <PUBCHEM_CONFORMER_RMSD>
0.8

> <PUBCHEM_CONFORMER_DIVERSEORDER>
1
23
39
60
65
37
40
43
57
52
49
5
58
53
34
36
50
63
56
26
28
35
64
59
4
31
55
41
30
14
61
54
47
45
3
38
25
22
29
48
12
32
51
46
33
44
13
19
8
62
11
24
21
16
10
9
27
15
17
7
18
6
20
42
2

> <PUBCHEM_MMFF94_PARTIAL_CHARGES>
49
1 -0.57
10 0.07
11 0.39
12 -0.04
13 0.63
14 0.2
15 -0.14
16 0.03
17 -0.14
18 -0.15
19 -0.15
2 -0.53
20 -0.15
21 -0.15
22 -0.15
23 -0.15
24 -0.15
25 -0.15
26 -0.15
27 -0.15
28 0.08
29 -0.15
3 -0.53
30 -0.15
31 -0.15
32 0.08
35 0.4
36 0.15
39 0.15
4 -0.28
40 0.15
41 0.15
42 0.15
43 0.15
44 0.15
45 0.15
46 0.15
47 0.15
48 0.15
49 0.15
5 -0.6
50 0.15
51 0.15
52 0.45
53 0.45
6 -0.62
7 0.28
8 -0.04
9 0.28

> <PUBCHEM_EFFECTIVE_ROTOR_COUNT>
5

> <PUBCHEM_PHARMACOPHORE_FEATURES>
11
1 1 acceptor
1 2 donor
1 3 donor
1 5 cation
1 5 donor
1 6 acceptor
5 4 6 7 11 13 rings
6 15 18 19 26 27 31 rings
6 16 20 21 24 25 28 rings
6 17 22 23 29 30 32 rings
6 4 5 7 8 10 12 rings

> <PUBCHEM_HEAVY_ATOM_COUNT>
32

> <PUBCHEM_ATOM_DEF_STEREO_COUNT>
0

> <PUBCHEM_ATOM_UDEF_STEREO_COUNT>
0

> <PUBCHEM_BOND_DEF_STEREO_COUNT>
0

> <PUBCHEM_BOND_UDEF_STEREO_COUNT>
0

> <PUBCHEM_ISOTOPIC_ATOM_COUNT>
0

> <PUBCHEM_COMPONENT_COUNT>
1

> <PUBCHEM_CACTVS_TAUTO_COUNT>
8

> <PUBCHEM_CONFORMER_ID>
00000B0E00000001

> <PUBCHEM_MMFF94_ENERGY>
98.7451

> <PUBCHEM_FEATURE_SELFOVERLAP>
55.94

> <PUBCHEM_SHAPE_FINGERPRINT>
10556698 54 17483446015910166445
10670039 82 18267853047552195302
10693767 8 18187932729024367591
10871710 139 18126548227944397928
11062273 29 18054810389404814685
11386260 185 18268449953622749533
11720765 8 18263361395817837821
11991303 11 17760646267389700873
12717326 69 5616682068361477453
12788726 201 18271243928121133858
13617811 41 18411141350658975986
13911987 19 18201993339455111291
14040221 299 14924216162386366366
14114211 80 17253698895031605544
14117953 113 18196375823924359956
14347332 77 18116995688007541346
14556957 393 18200014253200870900
14565420 104 10447934996630002951
15198563 99 18339639061274291980
15439362 3 18123757452521557921
15705408 1 18197793111122207645
15775530 1 17626100841463534507
16728300 4 5905503818006111382
16994733 274 15267348431289336183
17852330 53 9942415946296046221
1813 80 18333740121466900563
18365409 1 17679015148822153825
19246450 95 8501826783041031686
20511986 3 12463302392942321283
20642791 239 18201153252520452818
21049683 271 18130782318510652725
21344244 246 18120935010055872636
21365058 113 18412826867977565845
21641784 216 18340767151729953580
22122407 14 14835536100268669270
22907989 373 18120941873703995688
23559900 14 18267038171949645939
23576562 1 18267313032713761295
24771293 8 18262245421685164720
24771750 20 17839451194313207725
255183 451 18335986351388439567
3388396 114 18198600230267457020
340366 18 18115879498836924655
3534868 343 17986682664989427386
3729539 64 18198892639412978349
4017518 198 17756424856258195208
4066623 53 18413107269655849932
4353968 344 18266174127846776382
4461854 278 17830160670228498225
46194498 28 18128275414961944021
5081480 168 18270700679161659301
6608658 132 18270666667510547782
6669772 16 17978791212080163820
6700243 42 17970617700674581262

> <PUBCHEM_SHAPE_MULTIPOLES>
625.99
14.55
5.54
1.94
8.59
10.6
0.58
-15.16
11.18
-1.93
1.08
-0.97
-0.31
-0.29

> <PUBCHEM_SHAPE_SELFOVERLAP>
1397.803

> <PUBCHEM_SHAPE_VOLUME>
330.3

> <PUBCHEM_COORDINATE_TYPE>
2
5
10

$$$$

