440974
  -OEChem-07051212512D

 22 22  0     1  0  0  0  0  0999 V2000
    3.7690    2.0600    0.0000 O   0  0  0  0  0  0  0  0  0  0  0  0
    2.5369    1.1940    0.0000 O   0  0  0  0  0  0  0  0  0  0  0  0
    5.7690    2.0600    0.0000 O   0  0  0  0  0  0  0  0  0  0  0  0
    4.2690    2.9260    0.0000 O   0  0  0  0  0  0  0  0  0  0  0  0
    5.1350   -2.3060    0.0000 O   0  0  0  0  0  0  0  0  0  0  0  0
    3.4030   -2.3060    0.0000 O   0  0  0  0  0  0  0  0  0  0  0  0
    4.2690    1.1940    0.0000 C   0  0  1  0  0  0  0  0  0  0  0  0
    3.4030    0.6940    0.0000 C   0  0  2  0  0  0  0  0  0  0  0  0
    5.1350    0.6940    0.0000 C   0  0  0  0  0  0  0  0  0  0  0  0
    3.4030   -0.3060    0.0000 C   0  0  0  0  0  0  0  0  0  0  0  0
    4.2690   -0.8060    0.0000 C   0  0  0  0  0  0  0  0  0  0  0  0
    5.1350   -0.3060    0.0000 C   0  0  0  0  0  0  0  0  0  0  0  0
    4.7690    2.0600    0.0000 C   0  0  0  0  0  0  0  0  0  0  0  0
    4.2690   -1.8060    0.0000 C   0  0  0  0  0  0  0  0  0  0  0  0
    3.4030    1.3140    0.0000 H   0  0  0  0  0  0  0  0  0  0  0  0
    5.6720    1.0040    0.0000 H   0  0  0  0  0  0  0  0  0  0  0  0
    2.8660   -0.6160    0.0000 H   0  0  0  0  0  0  0  0  0  0  0  0
    5.6720   -0.6160    0.0000 H   0  0  0  0  0  0  0  0  0  0  0  0
    3.1490    2.0600    0.0000 H   0  0  0  0  0  0  0  0  0  0  0  0
    2.0000    0.8840    0.0000 H   0  0  0  0  0  0  0  0  0  0  0  0
    6.0790    2.5969    0.0000 H   0  0  0  0  0  0  0  0  0  0  0  0
    5.1350   -2.9260    0.0000 H   0  0  0  0  0  0  0  0  0  0  0  0
  7  1  1  6  0  0  0
  1 19  1  0  0  0  0
  8  2  1  6  0  0  0
  2 20  1  0  0  0  0
  3 13  1  0  0  0  0
  3 21  1  0  0  0  0
  4 13  2  0  0  0  0
  5 14  1  0  0  0  0
  5 22  1  0  0  0  0
  6 14  2  0  0  0  0
  7  8  1  0  0  0  0
  7  9  1  0  0  0  0
  7 13  1  0  0  0  0
  8 10  1  0  0  0  0
  8 15  1  0  0  0  0
  9 12  2  0  0  0  0
  9 16  1  0  0  0  0
 10 11  2  0  0  0  0
 10 17  1  0  0  0  0
 11 12  1  0  0  0  0
 11 14  1  0  0  0  0
 12 18  1  0  0  0  0
M  END
> <PUBCHEM_COMPOUND_CID>
440974

> <PUBCHEM_COMPOUND_CANONICALIZED>
1

> <PUBCHEM_CACTVS_COMPLEXITY>
342

> <PUBCHEM_CACTVS_HBOND_ACCEPTOR>
6

> <PUBCHEM_CACTVS_HBOND_DONOR>
4

> <PUBCHEM_CACTVS_ROTATABLE_BOND>
2

> <PUBCHEM_CACTVS_SUBSKEYS>
AAADccBwOAAAAAAAAAAAAAAAAAAAAAAAAAAgAAAAAAAAAAAAAAAAGgAACAAADFSggAIACAAAAgCIAiDSCAIAAAAgAAAICAFAAEgJFBQAAQAAUAAF4AAJkYIAAAAIAAAAAAAAAAAAAAAAAAAAAAAAAAAAAA==

> <PUBCHEM_IUPAC_OPENEYE_NAME>
(3S,4R)-3,4-dihydroxycyclohexa-1,5-diene-1,4-dicarboxylic acid

> <PUBCHEM_IUPAC_CAS_NAME>
(3S,4R)-3,4-dihydroxycyclohexa-1,5-diene-1,4-dicarboxylic acid

> <PUBCHEM_IUPAC_NAME>
(3S,4R)-3,4-dihydroxycyclohexa-1,5-diene-1,4-dicarboxylic acid

> <PUBCHEM_IUPAC_SYSTEMATIC_NAME>
(3S,4R)-3,4-bis(oxidanyl)cyclohexa-1,5-diene-1,4-dicarboxylic acid

> <PUBCHEM_IUPAC_TRADITIONAL_NAME>
(3S,4R)-3,4-dihydroxycyclohexa-1,5-diene-1,4-dicarboxylic acid

> <PUBCHEM_IUPAC_INCHI>
InChI=1S/C8H8O6/c9-5-3-4(6(10)11)1-2-8(5,14)7(12)13/h1-3,5,9,14H,(H,10,11)(H,12,13)/t5-,8+/m0/s1

> <PUBCHEM_IUPAC_INCHIKEY>
UKFMEOHAOCKDOL-YLWLKBPMSA-N

> <PUBCHEM_XLOGP3_AA>
-0.7

> <PUBCHEM_EXACT_MASS>
200.032088

> <PUBCHEM_MOLECULAR_FORMULA>
C8H8O6

> <PUBCHEM_MOLECULAR_WEIGHT>
200.14552

> <PUBCHEM_OPENEYE_CAN_SMILES>
C1=CC(C(C=C1C(=O)O)O)(C(=O)O)O

> <PUBCHEM_OPENEYE_ISO_SMILES>
C1=C[C@@]([C@H](C=C1C(=O)O)O)(C(=O)O)O

> <PUBCHEM_CACTVS_TPSA>
115

> <PUBCHEM_MONOISOTOPIC_WEIGHT>
200.032088

> <PUBCHEM_TOTAL_CHARGE>
0

> <PUBCHEM_HEAVY_ATOM_COUNT>
14

> <PUBCHEM_ATOM_DEF_STEREO_COUNT>
2

> <PUBCHEM_ATOM_UDEF_STEREO_COUNT>
0

> <PUBCHEM_BOND_DEF_STEREO_COUNT>
0

> <PUBCHEM_BOND_UDEF_STEREO_COUNT>
0

> <PUBCHEM_ISOTOPIC_ATOM_COUNT>
0

> <PUBCHEM_COMPONENT_COUNT>
1

> <PUBCHEM_CACTVS_TAUTO_COUNT>
1

> <PUBCHEM_COORDINATE_TYPE>
1
5
255

> <PUBCHEM_BONDANNOTATIONS>
7  1  6
8  2  6

$$$$

