9543281
  -OEChem-07051213113D

 28 31  0     0  0  0  0  0  0999 V2000
    1.3524   -3.2271    0.0003 O   0  0  0  0  0  0  0  0  0  0  0  0
   -1.3517   -3.2270   -0.0006 O   0  0  0  0  0  0  0  0  0  0  0  0
    0.7085    0.4035    0.0001 C   0  0  0  0  0  0  0  0  0  0  0  0
   -0.7086    0.4033    0.0001 C   0  0  0  0  0  0  0  0  0  0  0  0
    1.4154   -0.8215    0.0000 C   0  0  0  0  0  0  0  0  0  0  0  0
   -1.4154   -0.8219    0.0001 C   0  0  0  0  0  0  0  0  0  0  0  0
    1.4152    1.6285    0.0000 C   0  0  0  0  0  0  0  0  0  0  0  0
   -1.4155    1.6283    0.0000 C   0  0  0  0  0  0  0  0  0  0  0  0
    0.6983   -2.0254    0.0002 C   0  0  0  0  0  0  0  0  0  0  0  0
   -0.6980   -2.0256    0.0001 C   0  0  0  0  0  0  0  0  0  0  0  0
    0.6979    2.8324    0.0000 C   0  0  0  0  0  0  0  0  0  0  0  0
   -0.6984    2.8323    0.0000 C   0  0  0  0  0  0  0  0  0  0  0  0
    2.8179   -0.8047   -0.0001 C   0  0  0  0  0  0  0  0  0  0  0  0
   -2.8178   -0.8052    0.0002 C   0  0  0  0  0  0  0  0  0  0  0  0
    2.8176    1.6119   -0.0001 C   0  0  0  0  0  0  0  0  0  0  0  0
   -2.8179    1.6114    0.0000 C   0  0  0  0  0  0  0  0  0  0  0  0
    3.5126    0.4037   -0.0001 C   0  0  0  0  0  0  0  0  0  0  0  0
   -3.5127    0.4031    0.0000 C   0  0  0  0  0  0  0  0  0  0  0  0
    1.2200    3.7870   -0.0001 H   0  0  0  0  0  0  0  0  0  0  0  0
   -1.2207    3.7869    0.0000 H   0  0  0  0  0  0  0  0  0  0  0  0
    3.4132   -1.7132   -0.0171 H   0  0  0  0  0  0  0  0  0  0  0  0
   -3.3934   -1.7281    0.0002 H   0  0  0  0  0  0  0  0  0  0  0  0
    3.3825    2.5418   -0.0012 H   0  0  0  0  0  0  0  0  0  0  0  0
   -3.3829    2.5411   -0.0001 H   0  0  0  0  0  0  0  0  0  0  0  0
    4.5990    0.4045   -0.0041 H   0  0  0  0  0  0  0  0  0  0  0  0
   -4.5990    0.4033    0.0000 H   0  0  0  0  0  0  0  0  0  0  0  0
    2.1926   -3.1494    0.4791 H   0  0  0  0  0  0  0  0  0  0  0  0
   -0.6899   -3.9402   -0.0004 H   0  0  0  0  0  0  0  0  0  0  0  0
  1  9  1  0  0  0  0
  1 27  1  0  0  0  0
  2 10  1  0  0  0  0
  2 28  1  0  0  0  0
  3  4  1  0  0  0  0
  3  5  1  0  0  0  0
  3  7  2  0  0  0  0
  4  6  1  0  0  0  0
  4  8  2  0  0  0  0
  5  9  1  0  0  0  0
  5 13  2  0  0  0  0
  6 10  1  0  0  0  0
  6 14  2  0  0  0  0
  7 11  1  0  0  0  0
  7 15  1  0  0  0  0
  8 12  1  0  0  0  0
  8 16  1  0  0  0  0
  9 10  2  0  0  0  0
 11 12  2  0  0  0  0
 11 19  1  0  0  0  0
 12 20  1  0  0  0  0
 13 17  1  0  0  0  0
 13 21  1  0  0  0  0
 14 18  1  0  0  0  0
 14 22  1  0  0  0  0
 15 17  2  0  0  0  0
 15 23  1  0  0  0  0
 16 18  2  0  0  0  0
 16 24  1  0  0  0  0
 17 25  1  0  0  0  0
 18 26  1  0  0  0  0
M  END
> <PUBCHEM_COMPOUND_CID>
9543281

> <PUBCHEM_CONFORMER_RMSD>
0.4

> <PUBCHEM_CONFORMER_DIVERSEORDER>
1

> <PUBCHEM_MMFF94_PARTIAL_CHARGES>
22
1 -0.53
10 0.08
11 -0.15
12 -0.15
13 -0.15
14 -0.15
15 -0.15
16 -0.15
17 -0.15
18 -0.15
19 0.15
2 -0.53
20 0.15
21 0.15
22 0.15
23 0.15
24 0.15
25 0.15
26 0.15
27 0.45
28 0.45
9 0.08

> <PUBCHEM_EFFECTIVE_ROTOR_COUNT>
0

> <PUBCHEM_PHARMACOPHORE_FEATURES>
6
1 1 donor
1 2 donor
6 3 4 5 6 9 10 rings
6 3 4 7 8 11 12 rings
6 3 5 7 13 15 17 rings
6 4 6 8 14 16 18 rings

> <PUBCHEM_HEAVY_ATOM_COUNT>
18

> <PUBCHEM_ATOM_DEF_STEREO_COUNT>
0

> <PUBCHEM_ATOM_UDEF_STEREO_COUNT>
0

> <PUBCHEM_BOND_DEF_STEREO_COUNT>
0

> <PUBCHEM_BOND_UDEF_STEREO_COUNT>
0

> <PUBCHEM_ISOTOPIC_ATOM_COUNT>
0

> <PUBCHEM_COMPONENT_COUNT>
1

> <PUBCHEM_CACTVS_TAUTO_COUNT>
10

> <PUBCHEM_CONFORMER_ID>
00919E7100000001

> <PUBCHEM_MMFF94_ENERGY>
64.4488

> <PUBCHEM_FEATURE_SELFOVERLAP>
30.584

> <PUBCHEM_SHAPE_FINGERPRINT>
10693767 8 18042421260377188231
10967382 1 18410573998068008037
11132069 177 18409455786363933840
13140716 1 18266178327121251808
13380535 76 18410858762958226791
14790565 3 18338776975370384453
15196674 1 18410573985151717485
15309172 13 18410002265138848137
16945 1 18410855460128174790
193761 8 17762056935911581964
19591789 44 18410849966865328007
20510252 161 17974283222985134800
20739085 24 17979887696088429097
20905425 154 18047187733171350398
21267235 1 18410565189058461410
21501502 16 17977664543294670449
2334 1 17978509724117759078
23402539 116 18334307456402375260
23419403 2 15608574348159696528
23463225 33 18341614840914410248
23559900 14 18334288744317076108
238 59 17767732465074466141
2748010 2 18194401082799708054
335352 9 18194683889295460628
350125 39 18050562142984014856
54173680 148 18267583498945265586
589210 1 17689717463148892556
7364860 26 18192150627416495894

> <PUBCHEM_SHAPE_MULTIPOLES>
358.69
4.62
3.63
0.61
0
1.09
0
-0.69
0
0
0
0
-0.03
0

> <PUBCHEM_SHAPE_SELFOVERLAP>
840.733

> <PUBCHEM_SHAPE_VOLUME>
183.1

> <PUBCHEM_COORDINATE_TYPE>
2
5
10

$$$$

