439899
  -OEChem-07051212483D

 65 68  0     1  0  0  0  0  0999 V2000
   -5.8013    1.8423   -1.8991 O   0  0  0  0  0  0  0  0  0  0  0  0
    6.7772    2.5666    0.3997 O   0  0  0  0  0  0  0  0  0  0  0  0
    4.6431    3.0387   -0.2157 O   0  0  0  0  0  0  0  0  0  0  0  0
    1.1336   -0.8566    0.2071 C   0  0  1  0  0  0  0  0  0  0  0  0
   -0.0915   -1.6743   -0.2562 C   0  0  2  0  0  0  0  0  0  0  0  0
   -1.3756   -1.3018    0.4934 C   0  0  1  0  0  0  0  0  0  0  0  0
   -1.6754    0.2124    0.2471 C   0  0  1  0  0  0  0  0  0  0  0  0
   -3.0068    0.6676    0.9499 C   0  0  2  0  0  0  0  0  0  0  0  0
    2.2177   -1.5106   -0.6841 C   0  0  2  0  0  0  0  0  0  0  0  0
    0.8540    0.6214   -0.0985 C   0  0  0  0  0  0  0  0  0  0  0  0
   -0.4469    1.1050    0.5687 C   0  0  0  0  0  0  0  0  0  0  0  0
    0.4022   -3.1173   -0.2121 C   0  0  0  0  0  0  0  0  0  0  0  0
   -4.1832   -0.2553    0.4826 C   0  0  2  0  0  0  0  0  0  0  0  0
   -2.5546   -2.1831    0.0594 C   0  0  0  0  0  0  0  0  0  0  0  0
    1.8848   -3.0195   -0.6168 C   0  0  0  0  0  0  0  0  0  0  0  0
   -3.8707   -1.7460    0.6983 C   0  0  0  0  0  0  0  0  0  0  0  0
   -3.3870    2.1422    0.6258 C   0  0  0  0  0  0  0  0  0  0  0  0
    1.4739   -1.0212    1.7097 C   0  0  0  0  0  0  0  0  0  0  0  0
    3.6663   -1.2075   -0.3292 C   0  0  2  0  0  0  0  0  0  0  0  0
   -2.8774    0.5922    2.4943 C   0  0  0  0  0  0  0  0  0  0  0  0
   -4.5965   -0.0141   -0.9817 C   0  0  0  0  0  0  0  0  0  0  0  0
   -3.7301    2.3933   -0.8338 C   0  0  0  0  0  0  0  0  0  0  0  0
   -4.8241    1.4508   -1.2628 C   0  0  0  0  0  0  0  0  0  0  0  0
    3.9173    0.3137   -0.3747 C   0  0  0  0  0  0  0  0  0  0  0  0
    4.6071   -1.9752   -1.2640 C   0  0  0  0  0  0  0  0  0  0  0  0
    5.3337    0.7174    0.0395 C   0  0  0  0  0  0  0  0  0  0  0  0
    5.5101    2.2191    0.0531 C   0  0  0  0  0  0  0  0  0  0  0  0
   -0.2753   -1.4512   -1.3208 H   0  0  0  0  0  0  0  0  0  0  0  0
   -1.2218   -1.4779    1.5627 H   0  0  0  0  0  0  0  0  0  0  0  0
   -1.8256    0.3181   -0.8363 H   0  0  0  0  0  0  0  0  0  0  0  0
    2.0487   -1.1897   -1.7239 H   0  0  0  0  0  0  0  0  0  0  0  0
    0.7680    0.7716   -1.1825 H   0  0  0  0  0  0  0  0  0  0  0  0
    1.6077    1.3199    0.2519 H   0  0  0  0  0  0  0  0  0  0  0  0
   -0.2933    1.1680    1.6504 H   0  0  0  0  0  0  0  0  0  0  0  0
   -0.6328    2.1280    0.2229 H   0  0  0  0  0  0  0  0  0  0  0  0
   -0.1552   -3.7620   -0.8993 H   0  0  0  0  0  0  0  0  0  0  0  0
    0.3074   -3.5438    0.7929 H   0  0  0  0  0  0  0  0  0  0  0  0
   -5.0633   -0.0148    1.0970 H   0  0  0  0  0  0  0  0  0  0  0  0
   -2.3622   -3.2260    0.3386 H   0  0  0  0  0  0  0  0  0  0  0  0
   -2.6499   -2.1720   -1.0328 H   0  0  0  0  0  0  0  0  0  0  0  0
    2.4977   -3.5502    0.1208 H   0  0  0  0  0  0  0  0  0  0  0  0
    2.0501   -3.4956   -1.5898 H   0  0  0  0  0  0  0  0  0  0  0  0
   -4.6867   -2.3607    0.2986 H   0  0  0  0  0  0  0  0  0  0  0  0
   -3.8345   -1.9617    1.7728 H   0  0  0  0  0  0  0  0  0  0  0  0
   -2.5923    2.8301    0.9354 H   0  0  0  0  0  0  0  0  0  0  0  0
   -4.2649    2.4180    1.2280 H   0  0  0  0  0  0  0  0  0  0  0  0
    2.3118   -0.3825    2.0062 H   0  0  0  0  0  0  0  0  0  0  0  0
    0.6397   -0.7487    2.3616 H   0  0  0  0  0  0  0  0  0  0  0  0
    1.7470   -2.0500    1.9652 H   0  0  0  0  0  0  0  0  0  0  0  0
    3.8827   -1.5609    0.6870 H   0  0  0  0  0  0  0  0  0  0  0  0
   -2.1508    1.3188    2.8724 H   0  0  0  0  0  0  0  0  0  0  0  0
   -3.8351    0.8223    2.9764 H   0  0  0  0  0  0  0  0  0  0  0  0
   -2.5718   -0.3939    2.8517 H   0  0  0  0  0  0  0  0  0  0  0  0
   -5.5271   -0.5540   -1.1932 H   0  0  0  0  0  0  0  0  0  0  0  0
   -3.8451   -0.3677   -1.6942 H   0  0  0  0  0  0  0  0  0  0  0  0
   -2.8655    2.2549   -1.4895 H   0  0  0  0  0  0  0  0  0  0  0  0
   -4.0823    3.4231   -0.9569 H   0  0  0  0  0  0  0  0  0  0  0  0
    3.6607    0.7332   -1.3540 H   0  0  0  0  0  0  0  0  0  0  0  0
    3.3175    0.7957    0.3867 H   0  0  0  0  0  0  0  0  0  0  0  0
    4.4872   -1.6458   -2.3018 H   0  0  0  0  0  0  0  0  0  0  0  0
    5.6542   -1.8288   -0.9826 H   0  0  0  0  0  0  0  0  0  0  0  0
    4.4324   -3.0547   -1.2287 H   0  0  0  0  0  0  0  0  0  0  0  0
    5.5572    0.3351    1.0415 H   0  0  0  0  0  0  0  0  0  0  0  0
    6.0647    0.3180   -0.6703 H   0  0  0  0  0  0  0  0  0  0  0  0
    6.9001    3.5398    0.4073 H   0  0  0  0  0  0  0  0  0  0  0  0
  1 23  2  0  0  0  0
  2 27  1  0  0  0  0
  2 65  1  0  0  0  0
  3 27  2  0  0  0  0
  4  5  1  0  0  0  0
  4  9  1  0  0  0  0
  4 10  1  0  0  0  0
  4 18  1  0  0  0  0
  5  6  1  0  0  0  0
  5 12  1  0  0  0  0
  5 28  1  0  0  0  0
  6  7  1  0  0  0  0
  6 14  1  0  0  0  0
  6 29  1  0  0  0  0
  7  8  1  0  0  0  0
  7 11  1  0  0  0  0
  7 30  1  0  0  0  0
  8 13  1  0  0  0  0
  8 17  1  0  0  0  0
  8 20  1  0  0  0  0
  9 15  1  0  0  0  0
  9 19  1  0  0  0  0
  9 31  1  0  0  0  0
 10 11  1  0  0  0  0
 10 32  1  0  0  0  0
 10 33  1  0  0  0  0
 11 34  1  0  0  0  0
 11 35  1  0  0  0  0
 12 15  1  0  0  0  0
 12 36  1  0  0  0  0
 12 37  1  0  0  0  0
 13 16  1  0  0  0  0
 13 21  1  0  0  0  0
 13 38  1  0  0  0  0
 14 16  1  0  0  0  0
 14 39  1  0  0  0  0
 14 40  1  0  0  0  0
 15 41  1  0  0  0  0
 15 42  1  0  0  0  0
 16 43  1  0  0  0  0
 16 44  1  0  0  0  0
 17 22  1  0  0  0  0
 17 45  1  0  0  0  0
 17 46  1  0  0  0  0
 18 47  1  0  0  0  0
 18 48  1  0  0  0  0
 18 49  1  0  0  0  0
 19 24  1  0  0  0  0
 19 25  1  0  0  0  0
 19 50  1  0  0  0  0
 20 51  1  0  0  0  0
 20 52  1  0  0  0  0
 20 53  1  0  0  0  0
 21 23  1  0  0  0  0
 21 54  1  0  0  0  0
 21 55  1  0  0  0  0
 22 23  1  0  0  0  0
 22 56  1  0  0  0  0
 22 57  1  0  0  0  0
 24 26  1  0  0  0  0
 24 58  1  0  0  0  0
 24 59  1  0  0  0  0
 25 60  1  0  0  0  0
 25 61  1  0  0  0  0
 25 62  1  0  0  0  0
 26 27  1  0  0  0  0
 26 63  1  0  0  0  0
 26 64  1  0  0  0  0
M  END
> <PUBCHEM_COMPOUND_CID>
439899

> <PUBCHEM_CONFORMER_RMSD>
0.8

> <PUBCHEM_CONFORMER_DIVERSEORDER>
1
7
6
5
3
4
2

> <PUBCHEM_MMFF94_PARTIAL_CHARGES>
9
1 -0.57
2 -0.65
21 0.06
22 0.06
23 0.45
26 0.06
27 0.66
3 -0.57
65 0.5

> <PUBCHEM_EFFECTIVE_ROTOR_COUNT>
6

> <PUBCHEM_PHARMACOPHORE_FEATURES>
9
1 1 acceptor
1 2 acceptor
1 25 hydrophobe
1 3 acceptor
3 2 3 27 anion
5 4 5 9 12 15 rings
6 4 5 6 7 10 11 rings
6 6 7 8 13 14 16 rings
6 8 13 17 21 22 23 rings

> <PUBCHEM_HEAVY_ATOM_COUNT>
27

> <PUBCHEM_ATOM_DEF_STEREO_COUNT>
8

> <PUBCHEM_ATOM_UDEF_STEREO_COUNT>
0

> <PUBCHEM_BOND_DEF_STEREO_COUNT>
0

> <PUBCHEM_BOND_UDEF_STEREO_COUNT>
0

> <PUBCHEM_ISOTOPIC_ATOM_COUNT>
0

> <PUBCHEM_COMPONENT_COUNT>
1

> <PUBCHEM_CACTVS_TAUTO_COUNT>
3

> <PUBCHEM_CONFORMER_ID>
0006B65B00000001

> <PUBCHEM_MMFF94_ENERGY>
89.8616

> <PUBCHEM_FEATURE_SELFOVERLAP>
45.86

> <PUBCHEM_SHAPE_FINGERPRINT>
10411042 1 17182780970602711046
10498660 4 18411415154507097667
10763959 59 18202277010061742348
11089746 13 18271811288816148326
11135609 187 18336271223568697809
11578080 2 17345215430538809764
11961588 58 18272381892553914647
12403259 118 17560514010920082500
12403259 415 18341321262556264246
12422481 6 17703793600603570628
12769317 202 18260551108932389776
12788726 201 16808414187820718089
13224815 77 18262796388584922851
14251764 30 7853573530338353268
14528608 73 18336546105195037742
14739800 52 17988658418506308400
14790565 3 18335412444535505144
14848178 96 18335136505829745752
15196674 1 18335693953745710754
200 152 17386860563840234759
20715895 44 18411705400455853852
21033648 144 18410004442449649990
21033648 29 17775559862208135453
21623110 236 18334001792243901545
21709351 56 18262513822818414102
21859007 373 17988093313070070452
22393880 68 18342454889241517999
22950370 63 9151173168905947486
23559900 14 18191581059393777326
2838139 119 18057616562675586221
34797466 226 18114175354312756855
350125 39 18263357002160122209
4371632 12 15794849957948127520
5104073 3 18340757209091901114
633830 44 17678155273891544902
9981440 41 18131067113012352283

> <PUBCHEM_SHAPE_MULTIPOLES>
538.04
13.04
3.45
1.39
9.13
0.06
0.34
10.31
-3.26
2.75
-0.56
-1.62
0.26
1.72

> <PUBCHEM_SHAPE_SELFOVERLAP>
1128.969

> <PUBCHEM_SHAPE_VOLUME>
301.9

> <PUBCHEM_COORDINATE_TYPE>
2
5
10

$$$$

