582821
  -OEChem-06241222442D

 12 12  0     0  0  0  0  0  0999 V2000
    4.7770   -1.1191    0.0000 Cl  0  0  0  0  0  0  0  0  0  0  0  0
    5.3122    0.5282    0.0000 Cl  0  0  0  0  0  0  0  0  0  0  0  0
    2.8090   -0.4197    0.0000 S   0  0  0  0  0  0  0  0  0  0  0  0
    3.6180    0.1681    0.0000 C   0  0  0  0  0  0  0  0  0  0  0  0
    4.5691   -0.1410    0.0000 C   0  0  0  0  0  0  0  0  0  0  0  0
    3.3090    1.1191    0.0000 C   0  0  0  0  0  0  0  0  0  0  0  0
    2.3090    1.1191    0.0000 C   0  0  0  0  0  0  0  0  0  0  0  0
    2.0000    0.1681    0.0000 C   0  0  0  0  0  0  0  0  0  0  0  0
    4.1083   -0.5558    0.0000 H   0  0  0  0  0  0  0  0  0  0  0  0
    3.6734    1.6207    0.0000 H   0  0  0  0  0  0  0  0  0  0  0  0
    1.9446    1.6207    0.0000 H   0  0  0  0  0  0  0  0  0  0  0  0
    1.4103   -0.0235    0.0000 H   0  0  0  0  0  0  0  0  0  0  0  0
  1  5  1  0  0  0  0
  2  5  1  0  0  0  0
  3  4  1  0  0  0  0
  3  8  1  0  0  0  0
  4  5  1  0  0  0  0
  4  6  2  0  0  0  0
  5  9  1  0  0  0  0
  6  7  1  0  0  0  0
  6 10  1  0  0  0  0
  7  8  2  0  0  0  0
  7 11  1  0  0  0  0
  8 12  1  0  0  0  0
M  END
> <PUBCHEM_COMPOUND_CID>
582821

> <PUBCHEM_COMPOUND_CANONICALIZED>
1

> <PUBCHEM_CACTVS_COMPLEXITY>
74.8

> <PUBCHEM_CACTVS_HBOND_ACCEPTOR>
1

> <PUBCHEM_CACTVS_HBOND_DONOR>
0

> <PUBCHEM_CACTVS_ROTATABLE_BOND>
1

> <PUBCHEM_CACTVS_SUBSKEYS>
AAADcYBgAABGAAAAAAAAAAAAAAAAASAAAAAAAAAAAAAAAAABgAAAGAYAAAAACAOEUMCwAYAAAAiEACBCAAADAIAgCBBIiBgAAogIICKhERCAAAAggAAoiAYAAAAAAAAAAAAAAAAAAAAAAAAAAAAAAAAAAA==

> <PUBCHEM_IUPAC_OPENEYE_NAME>
2-(dichloromethyl)thiophene

> <PUBCHEM_IUPAC_CAS_NAME>
2-(dichloromethyl)thiophene

> <PUBCHEM_IUPAC_NAME>
2-(dichloromethyl)thiophene

> <PUBCHEM_IUPAC_SYSTEMATIC_NAME>
2-[bis(chloranyl)methyl]thiophene

> <PUBCHEM_IUPAC_TRADITIONAL_NAME>
2-(dichloromethyl)thiophene

> <PUBCHEM_IUPAC_INCHI>
InChI=1S/C5H4Cl2S/c6-5(7)4-2-1-3-8-4/h1-3,5H

> <PUBCHEM_IUPAC_INCHIKEY>
DRNCSQASKNFBRF-UHFFFAOYSA-N

> <PUBCHEM_XLOGP3_AA>
2.7

> <PUBCHEM_EXACT_MASS>
165.941076

> <PUBCHEM_MOLECULAR_FORMULA>
C5H4Cl2S

> <PUBCHEM_MOLECULAR_WEIGHT>
167.05626

> <PUBCHEM_OPENEYE_CAN_SMILES>
C1=CSC(=C1)C(Cl)Cl

> <PUBCHEM_OPENEYE_ISO_SMILES>
C1=CSC(=C1)C(Cl)Cl

> <PUBCHEM_CACTVS_TPSA>
28.2

> <PUBCHEM_MONOISOTOPIC_WEIGHT>
165.941076

> <PUBCHEM_TOTAL_CHARGE>
0

> <PUBCHEM_HEAVY_ATOM_COUNT>
8

> <PUBCHEM_ATOM_DEF_STEREO_COUNT>
0

> <PUBCHEM_ATOM_UDEF_STEREO_COUNT>
0

> <PUBCHEM_BOND_DEF_STEREO_COUNT>
0

> <PUBCHEM_BOND_UDEF_STEREO_COUNT>
0

> <PUBCHEM_ISOTOPIC_ATOM_COUNT>
0

> <PUBCHEM_COMPONENT_COUNT>
1

> <PUBCHEM_CACTVS_TAUTO_COUNT>
1

> <PUBCHEM_COORDINATE_TYPE>
1
5
255

> <PUBCHEM_BONDANNOTATIONS>
3  4  8
3  8  8
4  6  8
6  7  8
7  8  8

$$$$

