11953899
  -OEChem-07051212552D

 93 97  0     1  0  0  0  0  0999 V2000
   14.6613   -4.2500    0.0000 O   0  0  0  0  0  0  0  0  0  0  0  0
   12.9292   -3.2500    0.0000 O   0  0  0  0  0  0  0  0  0  0  0  0
   12.0632   -1.7500    0.0000 O   0  0  0  0  0  0  0  0  0  0  0  0
   12.9292   -6.2500    0.0000 O   0  0  0  0  0  0  0  0  0  0  0  0
   16.3933   -4.2500    0.0000 O   0  0  0  0  0  0  0  0  0  0  0  0
   14.6613   -7.2500    0.0000 O   0  0  0  0  0  0  0  0  0  0  0  0
    4.2690    4.7500    0.0000 O   0  0  0  0  0  0  0  0  0  0  0  0
   16.3933   -6.2500    0.0000 O   0  0  0  0  0  0  0  0  0  0  0  0
   11.1972   -4.2500    0.0000 O   0  0  0  0  0  0  0  0  0  0  0  0
    9.4651   -1.2500    0.0000 O   0  0  0  0  0  0  0  0  0  0  0  0
    9.4651   -3.2500    0.0000 O   0  0  0  0  0  0  0  0  0  0  0  0
    5.1350    7.2500    0.0000 O   0  0  0  0  0  0  0  0  0  0  0  0
    6.8671    6.2500    0.0000 O   0  0  0  0  0  0  0  0  0  0  0  0
    5.1350    3.2500    0.0000 O   0  0  0  0  0  0  0  0  0  0  0  0
    6.8671    4.2500    0.0000 O   0  0  0  0  0  0  0  0  0  0  0  0
    2.5369    5.7500    0.0000 O   0  0  0  0  0  0  0  0  0  0  0  0
   10.3312    0.2500    0.0000 O   0  0  0  0  0  0  0  0  0  0  0  0
   14.6613   -2.2500    0.0000 N   0  0  0  0  0  0  0  0  0  0  0  0
   13.7953   -4.7500    0.0000 C   0  0  1  0  0  0  0  0  0  0  0  0
   13.7953   -5.7500    0.0000 C   0  0  2  0  0  0  0  0  0  0  0  0
   14.6613   -6.2500    0.0000 C   0  0  1  0  0  0  0  0  0  0  0  0
   15.5273   -5.7500    0.0000 C   0  0  2  0  0  0  0  0  0  0  0  0
   15.5273   -4.7500    0.0000 C   0  0  1  0  0  0  0  0  0  0  0  0
   12.9292   -4.2500    0.0000 C   0  0  0  0  0  0  0  0  0  0  0  0
   12.0632   -2.7500    0.0000 C   0  0  2  0  0  0  0  0  0  0  0  0
   11.1972   -3.2500    0.0000 C   0  0  1  0  0  0  0  0  0  0  0  0
   10.3312   -2.7500    0.0000 C   0  0  2  0  0  0  0  0  0  0  0  0
   10.3312   -1.7500    0.0000 C   0  0  1  0  0  0  0  0  0  0  0  0
    5.1350    6.2500    0.0000 C   0  0  1  0  0  0  0  0  0  0  0  0
    6.0010    5.7500    0.0000 C   0  0  1  0  0  0  0  0  0  0  0  0
    4.2690    5.7500    0.0000 C   0  0  1  0  0  0  0  0  0  0  0  0
    6.0010    4.7500    0.0000 C   0  0  2  0  0  0  0  0  0  0  0  0
   11.1972   -1.2500    0.0000 C   0  0  0  0  0  0  0  0  0  0  0  0
    5.1350    4.2500    0.0000 C   0  0  1  0  0  0  0  0  0  0  0  0
    3.4030    6.2500    0.0000 C   0  0  0  0  0  0  0  0  0  0  0  0
   16.3933   -3.2500    0.0000 C   0  0  1  0  0  0  0  0  0  0  0  0
   17.2594   -2.7500    0.0000 C   0  0  0  0  0  0  0  0  0  0  0  0
    6.0010    2.7500    0.0000 C   0  0  0  0  0  0  0  0  0  0  0  0
    9.4651   -0.2500    0.0000 C   0  0  0  0  0  0  0  0  0  0  0  0
   15.5273   -2.7500    0.0000 C   0  0  0  0  0  0  0  0  0  0  0  0
   18.1254   -3.2500    0.0000 C   0  0  0  0  0  0  0  0  0  0  0  0
   17.2594   -1.7500    0.0000 C   0  0  0  0  0  0  0  0  0  0  0  0
    6.0010    1.7500    0.0000 C   0  0  0  0  0  0  0  0  0  0  0  0
    6.8671    3.2500    0.0000 C   0  0  0  0  0  0  0  0  0  0  0  0
    8.5991    0.2500    0.0000 C   0  0  0  0  0  0  0  0  0  0  0  0
    7.7331    1.7500    0.0000 C   0  0  0  0  0  0  0  0  0  0  0  0
    6.8671    1.2500    0.0000 C   0  0  0  0  0  0  0  0  0  0  0  0
    7.7331    2.7500    0.0000 C   0  0  0  0  0  0  0  0  0  0  0  0
    8.5991    1.2500    0.0000 C   0  0  0  0  0  0  0  0  0  0  0  0
   18.9914   -2.7500    0.0000 C   0  0  0  0  0  0  0  0  0  0  0  0
   18.1254   -1.2500    0.0000 C   0  0  0  0  0  0  0  0  0  0  0  0
   18.9914   -1.7500    0.0000 C   0  0  0  0  0  0  0  0  0  0  0  0
   13.7953   -4.1300    0.0000 H   0  0  0  0  0  0  0  0  0  0  0  0
   13.7953   -6.3700    0.0000 H   0  0  0  0  0  0  0  0  0  0  0  0
   14.1244   -6.5600    0.0000 H   0  0  0  0  0  0  0  0  0  0  0  0
   15.5273   -6.3700    0.0000 H   0  0  0  0  0  0  0  0  0  0  0  0
   15.5273   -4.1300    0.0000 H   0  0  0  0  0  0  0  0  0  0  0  0
   12.3187   -4.1423    0.0000 H   0  0  0  0  0  0  0  0  0  0  0  0
   12.7172   -4.8326    0.0000 H   0  0  0  0  0  0  0  0  0  0  0  0
   12.0632   -3.3700    0.0000 H   0  0  0  0  0  0  0  0  0  0  0  0
   10.6603   -3.5600    0.0000 H   0  0  0  0  0  0  0  0  0  0  0  0
    9.7942   -2.4400    0.0000 H   0  0  0  0  0  0  0  0  0  0  0  0
    9.7942   -2.0600    0.0000 H   0  0  0  0  0  0  0  0  0  0  0  0
    5.6720    6.5600    0.0000 H   0  0  0  0  0  0  0  0  0  0  0  0
    6.5380    5.4400    0.0000 H   0  0  0  0  0  0  0  0  0  0  0  0
    3.7320    5.4400    0.0000 H   0  0  0  0  0  0  0  0  0  0  0  0
    6.5380    5.0600    0.0000 H   0  0  0  0  0  0  0  0  0  0  0  0
   11.5957   -0.7751    0.0000 H   0  0  0  0  0  0  0  0  0  0  0  0
   10.7987   -0.7751    0.0000 H   0  0  0  0  0  0  0  0  0  0  0  0
    5.6720    3.9400    0.0000 H   0  0  0  0  0  0  0  0  0  0  0  0
   12.3923   -5.9400    0.0000 H   0  0  0  0  0  0  0  0  0  0  0  0
   14.1244   -7.5600    0.0000 H   0  0  0  0  0  0  0  0  0  0  0  0
   16.9303   -5.9400    0.0000 H   0  0  0  0  0  0  0  0  0  0  0  0
    3.8015    6.7250    0.0000 H   0  0  0  0  0  0  0  0  0  0  0  0
    3.0044    6.7250    0.0000 H   0  0  0  0  0  0  0  0  0  0  0  0
   16.9303   -3.5600    0.0000 H   0  0  0  0  0  0  0  0  0  0  0  0
   10.6603   -4.5600    0.0000 H   0  0  0  0  0  0  0  0  0  0  0  0
    8.9282   -2.9400    0.0000 H   0  0  0  0  0  0  0  0  0  0  0  0
    4.5981    7.5600    0.0000 H   0  0  0  0  0  0  0  0  0  0  0  0
    6.8671    6.8700    0.0000 H   0  0  0  0  0  0  0  0  0  0  0  0
    7.4040    4.5600    0.0000 H   0  0  0  0  0  0  0  0  0  0  0  0
    2.0000    6.0600    0.0000 H   0  0  0  0  0  0  0  0  0  0  0  0
   18.1254   -3.8700    0.0000 H   0  0  0  0  0  0  0  0  0  0  0  0
   16.7224   -1.4400    0.0000 H   0  0  0  0  0  0  0  0  0  0  0  0
    5.4641    1.4400    0.0000 H   0  0  0  0  0  0  0  0  0  0  0  0
    6.8671    3.8700    0.0000 H   0  0  0  0  0  0  0  0  0  0  0  0
    8.0622   -0.0600    0.0000 H   0  0  0  0  0  0  0  0  0  0  0  0
    6.8671    0.6300    0.0000 H   0  0  0  0  0  0  0  0  0  0  0  0
    8.2700    3.0600    0.0000 H   0  0  0  0  0  0  0  0  0  0  0  0
    9.1360    1.5600    0.0000 H   0  0  0  0  0  0  0  0  0  0  0  0
   19.5284   -3.0600    0.0000 H   0  0  0  0  0  0  0  0  0  0  0  0
   18.1254   -0.6300    0.0000 H   0  0  0  0  0  0  0  0  0  0  0  0
   19.5284   -1.4400    0.0000 H   0  0  0  0  0  0  0  0  0  0  0  0
  1 19  1  0  0  0  0
  1 23  1  0  0  0  0
  2 24  1  0  0  0  0
 25  2  1  1  0  0  0
  3 25  1  0  0  0  0
  3 33  1  0  0  0  0
 20  4  1  6  0  0  0
  4 71  1  0  0  0  0
 23  5  1  1  0  0  0
 36  5  1  6  0  0  0
 21  6  1  1  0  0  0
  6 72  1  0  0  0  0
  7 31  1  0  0  0  0
  7 34  1  0  0  0  0
 22  8  1  6  0  0  0
  8 73  1  0  0  0  0
 26  9  1  6  0  0  0
  9 77  1  0  0  0  0
 28 10  1  6  0  0  0
 10 39  1  0  0  0  0
 27 11  1  1  0  0  0
 11 78  1  0  0  0  0
 29 12  1  1  0  0  0
 12 79  1  0  0  0  0
 30 13  1  6  0  0  0
 13 80  1  0  0  0  0
 34 14  1  6  0  0  0
 14 38  1  0  0  0  0
 32 15  1  1  0  0  0
 15 81  1  0  0  0  0
 16 35  1  0  0  0  0
 16 82  1  0  0  0  0
 17 39  2  0  0  0  0
 18 40  3  0  0  0  0
 19 20  1  0  0  0  0
 19 24  1  1  0  0  0
 19 53  1  0  0  0  0
 20 21  1  0  0  0  0
 20 54  1  0  0  0  0
 21 22  1  0  0  0  0
 21 55  1  0  0  0  0
 22 23  1  0  0  0  0
 22 56  1  0  0  0  0
 23 57  1  0  0  0  0
 24 58  1  0  0  0  0
 24 59  1  0  0  0  0
 25 26  1  0  0  0  0
 25 60  1  0  0  0  0
 26 27  1  0  0  0  0
 26 61  1  0  0  0  0
 27 28  1  0  0  0  0
 27 62  1  0  0  0  0
 28 33  1  0  0  0  0
 28 63  1  0  0  0  0
 29 30  1  0  0  0  0
 29 31  1  0  0  0  0
 29 64  1  0  0  0  0
 30 32  1  0  0  0  0
 30 65  1  0  0  0  0
 31 35  1  6  0  0  0
 31 66  1  0  0  0  0
 32 34  1  0  0  0  0
 32 67  1  0  0  0  0
 33 68  1  0  0  0  0
 33 69  1  0  0  0  0
 34 70  1  0  0  0  0
 35 74  1  0  0  0  0
 35 75  1  0  0  0  0
 36 37  1  0  0  0  0
 36 40  1  0  0  0  0
 36 76  1  0  0  0  0
 37 41  2  0  0  0  0
 37 42  1  0  0  0  0
 38 43  2  0  0  0  0
 38 44  1  0  0  0  0
 39 45  1  0  0  0  0
 41 50  1  0  0  0  0
 41 83  1  0  0  0  0
 42 51  2  0  0  0  0
 42 84  1  0  0  0  0
 43 47  1  0  0  0  0
 43 85  1  0  0  0  0
 44 48  2  0  0  0  0
 44 86  1  0  0  0  0
 45 49  2  0  0  0  0
 45 87  1  0  0  0  0
 46 47  2  0  0  0  0
 46 48  1  0  0  0  0
 46 49  1  0  0  0  0
 47 88  1  0  0  0  0
 48 89  1  0  0  0  0
 49 90  1  0  0  0  0
 50 52  2  0  0  0  0
 50 91  1  0  0  0  0
 51 52  1  0  0  0  0
 51 92  1  0  0  0  0
 52 93  1  0  0  0  0
M  END
> <PUBCHEM_COMPOUND_CID>
11953899

> <PUBCHEM_COMPOUND_CANONICALIZED>
1

> <PUBCHEM_CACTVS_COMPLEXITY>
1200

> <PUBCHEM_CACTVS_HBOND_ACCEPTOR>
18

> <PUBCHEM_CACTVS_HBOND_DONOR>
9

> <PUBCHEM_CACTVS_ROTATABLE_BOND>
13

> <PUBCHEM_CACTVS_SUBSKEYS>
AAADcfB+PgAAAAAAAAAAAAAAAAAAAAAAAAA0aJECAAAAAAABQAAAHgAACAAADBSxmAMwDoAABgCYBiDSCAACCAAgIAAIiAAGCMgdtiKEMRqieCClwBEPqY/A4KwOIAAAAAAAAABAAAAAAAAAAAAAAAAAAA==

> <PUBCHEM_IUPAC_OPENEYE_NAME>
[(3R,4R,5R,6R)-6-[[(2R,3S,4S,5R,6R)-6-[(S)-cyano(phenyl)methoxy]-3,4,5-trihydroxy-tetrahydropyran-2-yl]methoxy]-4,5-dihydroxy-tetrahydropyran-3-yl] (E)-3-[4-[(2S,3R,4S,5S,6R)-3,4,5-trihydroxy-6-(hydroxymethyl)tetrahydropyran-2-yl]oxyphenyl]prop-2-enoate

> <PUBCHEM_IUPAC_CAS_NAME>
(E)-3-[4-[[(2S,3R,4S,5S,6R)-3,4,5-trihydroxy-6-(hydroxymethyl)-2-oxanyl]oxy]phenyl]-2-propenoic acid [(3R,4R,5R,6R)-6-[[(2R,3S,4S,5R,6R)-6-[(S)-cyano(phenyl)methoxy]-3,4,5-trihydroxy-2-oxanyl]methoxy]-4,5-dihydroxy-3-oxanyl] ester

> <PUBCHEM_IUPAC_NAME>
[(3R,4R,5R,6R)-6-[[(2R,3S,4S,5R,6R)-6-[(S)-cyano(phenyl)methoxy]-3,4,5-trihydroxyoxan-2-yl]methoxy]-4,5-dihydroxyoxan-3-yl] (E)-3-[4-[(2S,3R,4S,5S,6R)-3,4,5-trihydroxy-6-(hydroxymethyl)oxan-2-yl]oxyphenyl]prop-2-enoate

> <PUBCHEM_IUPAC_SYSTEMATIC_NAME>
[(3R,4R,5R,6R)-6-[[(2R,3S,4S,5R,6R)-6-[(S)-cyano(phenyl)methoxy]-3,4,5-tris(oxidanyl)oxan-2-yl]methoxy]-4,5-bis(oxidanyl)oxan-3-yl] (E)-3-[4-[(2S,3R,4S,5S,6R)-6-(hydroxymethyl)-3,4,5-tris(oxidanyl)oxan-2-yl]oxyphenyl]prop-2-enoate

> <PUBCHEM_IUPAC_TRADITIONAL_NAME>
(E)-3-[4-[(2S,3R,4S,5S,6R)-3,4,5-trihydroxy-6-methylol-tetrahydropyran-2-yl]oxyphenyl]acrylic acid [(3R,4R,5R,6R)-6-[[(2R,3S,4S,5R,6R)-6-[(S)-cyano(phenyl)methoxy]-3,4,5-trihydroxy-tetrahydropyran-2-yl]methoxy]-4,5-dihydroxy-tetrahydropyran-3-yl] ester

> <PUBCHEM_IUPAC_INCHI>
InChI=1S/C34H41NO17/c35-12-19(17-4-2-1-3-5-17)50-34-31(45)28(42)25(39)22(52-34)15-47-32-29(43)26(40)21(14-46-32)49-23(37)11-8-16-6-9-18(10-7-16)48-33-30(44)27(41)24(38)20(13-36)51-33/h1-11,19-22,24-34,36,38-45H,13-15H2/b11-8+/t19-,20-,21-,22-,24-,25-,26+,27+,28+,29-,30-,31-,32+,33-,34-/m1/s1

> <PUBCHEM_IUPAC_INCHIKEY>
HIRMPNNQGZEXOM-ZXSTXTMUSA-N

> <PUBCHEM_XLOGP3_AA>
-2.1

> <PUBCHEM_EXACT_MASS>
735.237449

> <PUBCHEM_MOLECULAR_FORMULA>
C34H41NO17

> <PUBCHEM_MOLECULAR_WEIGHT>
735.68584

> <PUBCHEM_OPENEYE_CAN_SMILES>
C1C(C(C(C(O1)OCC2C(C(C(C(O2)OC(C#N)C3=CC=CC=C3)O)O)O)O)O)OC(=O)C=CC4=CC=C(C=C4)OC5C(C(C(C(O5)CO)O)O)O

> <PUBCHEM_OPENEYE_ISO_SMILES>
C1[C@H]([C@@H]([C@H]([C@@H](O1)OC[C@@H]2[C@H]([C@@H]([C@H]([C@@H](O2)O[C@H](C#N)C3=CC=CC=C3)O)O)O)O)O)OC(=O)/C=C/C4=CC=C(C=C4)O[C@H]5[C@@H]([C@H]([C@@H]([C@H](O5)CO)O)O)O

> <PUBCHEM_CACTVS_TPSA>
288

> <PUBCHEM_MONOISOTOPIC_WEIGHT>
735.237449

> <PUBCHEM_TOTAL_CHARGE>
0

> <PUBCHEM_HEAVY_ATOM_COUNT>
52

> <PUBCHEM_ATOM_DEF_STEREO_COUNT>
15

> <PUBCHEM_ATOM_UDEF_STEREO_COUNT>
0

> <PUBCHEM_BOND_DEF_STEREO_COUNT>
1

> <PUBCHEM_BOND_UDEF_STEREO_COUNT>
0

> <PUBCHEM_ISOTOPIC_ATOM_COUNT>
0

> <PUBCHEM_COMPONENT_COUNT>
1

> <PUBCHEM_CACTVS_TAUTO_COUNT>
1

> <PUBCHEM_COORDINATE_TYPE>
1
5
255

> <PUBCHEM_BONDANNOTATIONS>
28  10  6
27  11  5
29  12  5
30  13  6
34  14  6
32  15  5
19  24  5
25  2  5
31  35  6
37  41  8
37  42  8
38  43  8
38  44  8
20  4  6
41  50  8
42  51  8
43  47  8
44  48  8
46  47  8
46  48  8
23  5  5
36  5  6
50  52  8
51  52  8
21  6  5
22  8  6
26  9  6

$$$$

