5281922
  -OEChem-07051213013D

 27 29  0     1  0  0  0  0  0999 V2000
   -2.5593   -1.1955   -1.1098 O   0  0  0  0  0  0  0  0  0  0  0  0
    3.5381    0.2119   -1.5355 O   0  0  0  0  0  0  0  0  0  0  0  0
    5.0618    1.3664    0.5297 O   0  0  0  0  0  0  0  0  0  0  0  0
   -2.6076   -0.1121   -0.1823 C   0  0  1  0  0  0  0  0  0  0  0  0
   -2.3443   -1.5391    0.2749 C   0  0  2  0  0  0  0  0  0  0  0  0
   -1.6383    1.0213   -0.1262 C   0  0  0  0  0  0  0  0  0  0  0  0
   -3.8633    0.5875    0.1642 C   0  0  0  0  0  0  0  0  0  0  0  0
   -2.2514    2.1814    0.1710 C   0  0  0  0  0  0  0  0  0  0  0  0
   -3.6625    1.9054    0.3477 C   0  0  0  0  0  0  0  0  0  0  0  0
   -1.0139   -2.0327    0.4853 C   0  0  0  0  0  0  0  0  0  0  0  0
   -0.2388    0.8530   -0.2569 C   0  0  0  0  0  0  0  0  0  0  0  0
    1.9218   -0.5637    0.0045 C   0  0  0  0  0  0  0  0  0  0  0  0
    0.1825   -2.1463    0.5193 C   0  0  0  0  0  0  0  0  0  0  0  0
    3.3490   -0.1473   -0.1712 C   0  0  2  0  0  0  0  0  0  0  0  0
    0.8691    0.3886   -0.2157 C   0  0  0  0  0  0  0  0  0  0  0  0
    1.5675   -1.8157    0.3806 C   0  0  0  0  0  0  0  0  0  0  0  0
    3.6895    1.0368    0.7204 C   0  0  0  0  0  0  0  0  0  0  0  0
   -3.1448   -2.0723    0.7745 H   0  0  0  0  0  0  0  0  0  0  0  0
   -4.8218    0.0932    0.2425 H   0  0  0  0  0  0  0  0  0  0  0  0
   -1.7966    3.1483    0.3140 H   0  0  0  0  0  0  0  0  0  0  0  0
   -4.4062    2.6416    0.6035 H   0  0  0  0  0  0  0  0  0  0  0  0
    4.0368   -0.9762    0.0343 H   0  0  0  0  0  0  0  0  0  0  0  0
    2.3096   -2.5830    0.5705 H   0  0  0  0  0  0  0  0  0  0  0  0
    3.5324    0.8017    1.7783 H   0  0  0  0  0  0  0  0  0  0  0  0
    3.1094    1.9274    0.4559 H   0  0  0  0  0  0  0  0  0  0  0  0
    4.4550    0.5213   -1.6321 H   0  0  0  0  0  0  0  0  0  0  0  0
    5.2570    2.1212    1.1109 H   0  0  0  0  0  0  0  0  0  0  0  0
  1  4  1  0  0  0  0
  1  5  1  0  0  0  0
  2 14  1  0  0  0  0
  2 26  1  0  0  0  0
  3 17  1  0  0  0  0
  3 27  1  0  0  0  0
  4  5  1  0  0  0  0
  4  6  1  0  0  0  0
  4  7  1  0  0  0  0
  5 10  1  0  0  0  0
  5 18  1  0  0  0  0
  6  8  2  0  0  0  0
  6 11  1  0  0  0  0
  7  9  2  0  0  0  0
  7 19  1  0  0  0  0
  8  9  1  0  0  0  0
  8 20  1  0  0  0  0
  9 21  1  0  0  0  0
 10 13  3  0  0  0  0
 11 15  3  0  0  0  0
 12 14  1  0  0  0  0
 12 15  1  0  0  0  0
 12 16  2  0  0  0  0
 13 16  1  0  0  0  0
 14 17  1  0  0  0  0
 14 22  1  0  0  0  0
 16 23  1  0  0  0  0
 17 24  1  0  0  0  0
 17 25  1  0  0  0  0
M  END
> <PUBCHEM_COMPOUND_CID>
5281922

> <PUBCHEM_CONFORMER_RMSD>
0.6

> <PUBCHEM_CONFORMER_DIVERSEORDER>
1
7
2
3
4
5
6

> <PUBCHEM_MMFF94_PARTIAL_CHARGES>
24
1 -0.3
10 -0.1
11 -0.06
12 -0.07
13 -0.06
14 0.42
15 -0.06
16 -0.09
17 0.28
18 0.1
19 0.15
2 -0.68
20 0.15
21 0.15
23 0.15
26 0.4
27 0.4
3 -0.68
4 0.23
5 0.15
6 0.02
7 -0.19
8 -0.15
9 -0.15

> <PUBCHEM_EFFECTIVE_ROTOR_COUNT>
2.2

> <PUBCHEM_PHARMACOPHORE_FEATURES>
6
1 1 acceptor
1 2 acceptor
1 2 donor
1 3 acceptor
1 3 donor
5 4 6 7 8 9 rings

> <PUBCHEM_HEAVY_ATOM_COUNT>
17

> <PUBCHEM_ATOM_DEF_STEREO_COUNT>
3

> <PUBCHEM_ATOM_UDEF_STEREO_COUNT>
0

> <PUBCHEM_BOND_DEF_STEREO_COUNT>
1

> <PUBCHEM_BOND_UDEF_STEREO_COUNT>
0

> <PUBCHEM_ISOTOPIC_ATOM_COUNT>
0

> <PUBCHEM_COMPONENT_COUNT>
1

> <PUBCHEM_CACTVS_TAUTO_COUNT>
1

> <PUBCHEM_CONFORMER_ID>
0050988200000001

> <PUBCHEM_MMFF94_ENERGY>
59.0896

> <PUBCHEM_FEATURE_SELFOVERLAP>
30.453

> <PUBCHEM_SHAPE_FINGERPRINT>
10411042 1 17474950926802017810
10493431 412 18410851088331859945
10498660 4 18410859888508735749
10608611 8 18407761443324764320
10646746 165 18409730647470472416
10967382 1 18340486780575571265
11132069 177 18343302565477334012
11543360 7 16515697623221841933
12173636 292 18339080492440167477
12346645 44 18411421738723500618
12390115 104 18262782030335218184
12403814 3 17346883342771167685
12491281 212 18342733039728581050
13140716 1 17838048209039419587
13221675 6 18411979200030555335
13583140 156 15841561747001596844
13764800 53 18201425974422593595
14123255 52 18339363088313846665
15196674 1 18411982502823567259
15536298 74 18337109097882198110
15775835 57 18337668732431739547
16945 1 18340485569294787875
18186145 218 18337390538857749780
20112054 60 18341049605938147674
20510252 161 18335416837928405051
20671657 1 18122342642701215386
21501502 16 18338807813303524546
2334 1 18341895246275478575
23402539 116 18264499381777884375
23557571 272 18115865200774614870
23559900 14 18334292085563677260
2748010 2 18198615717307303431
34934 24 18337398226875687213
4340502 62 17060048307521760145
474 4 17917702518002625132
5104073 3 18270394035655306865
526903 126 18408887338751984585
5939293 188 16970273423120191369
633830 44 18335139812864880164
7364860 26 18120375612431249782
9709674 26 18335135380205741238
9981440 41 18341339907273495826

> <PUBCHEM_SHAPE_MULTIPOLES>
332.24
7.61
2.38
0.87
5.25
0.55
0.17
-4.26
-0.32
-0.89
-0.45
0.36
0.02
-0.07

> <PUBCHEM_SHAPE_SELFOVERLAP>
722.689

> <PUBCHEM_SHAPE_VOLUME>
179.4

> <PUBCHEM_COORDINATE_TYPE>
2
5
10

$$$$

