26715
  -OEChem-07051213133D

 24 25  0     0  0  0  0  0  0999 V2000
    0.1535    0.4199   -1.2098 O   0  0  0  0  0  0  0  0  0  0  0  0
    1.1683   -0.4819    0.6734 N   0  0  0  0  0  0  0  0  0  0  0  0
    2.2844   -0.7926    1.3858 N   0  0  0  0  0  0  0  0  0  0  0  0
   -1.6976    0.9760    0.2085 C   0  0  0  0  0  0  0  0  0  0  0  0
   -1.0328    0.0819   -0.6309 C   0  0  0  0  0  0  0  0  0  0  0  0
   -2.9115    0.6133    0.7923 C   0  0  0  0  0  0  0  0  0  0  0  0
   -1.5820   -1.1747   -0.8864 C   0  0  0  0  0  0  0  0  0  0  0  0
   -1.1249    2.3251    0.4932 C   0  0  0  0  0  0  0  0  0  0  0  0
   -3.4605   -0.6433    0.5366 C   0  0  0  0  0  0  0  0  0  0  0  0
   -2.7958   -1.5372   -0.3027 C   0  0  0  0  0  0  0  0  0  0  0  0
    1.3141    0.1205   -0.5176 C   0  0  0  0  0  0  0  0  0  0  0  0
    2.5262    0.4480   -1.0716 C   0  0  0  0  0  0  0  0  0  0  0  0
    3.6619    0.1319   -0.3468 C   0  0  0  0  0  0  0  0  0  0  0  0
    3.4965   -0.4871    0.8759 C   0  0  0  0  0  0  0  0  0  0  0  0
   -3.4407    1.2978    1.4498 H   0  0  0  0  0  0  0  0  0  0  0  0
   -1.0711   -1.8764   -1.5403 H   0  0  0  0  0  0  0  0  0  0  0  0
   -0.2803    2.2415    1.1844 H   0  0  0  0  0  0  0  0  0  0  0  0
   -0.7882    2.8091   -0.4297 H   0  0  0  0  0  0  0  0  0  0  0  0
   -1.8671    2.9905    0.9475 H   0  0  0  0  0  0  0  0  0  0  0  0
   -4.4054   -0.9259    0.9915 H   0  0  0  0  0  0  0  0  0  0  0  0
   -3.2234   -2.5156   -0.5017 H   0  0  0  0  0  0  0  0  0  0  0  0
    2.6006    0.9348   -2.0371 H   0  0  0  0  0  0  0  0  0  0  0  0
    4.6501    0.3633   -0.7274 H   0  0  0  0  0  0  0  0  0  0  0  0
    4.3459   -0.7601    1.4911 H   0  0  0  0  0  0  0  0  0  0  0  0
  1  5  1  0  0  0  0
  1 11  1  0  0  0  0
  2  3  1  0  0  0  0
  2 11  2  0  0  0  0
  3 14  2  0  0  0  0
  4  5  1  0  0  0  0
  4  6  2  0  0  0  0
  4  8  1  0  0  0  0
  5  7  2  0  0  0  0
  6  9  1  0  0  0  0
  6 15  1  0  0  0  0
  7 10  1  0  0  0  0
  7 16  1  0  0  0  0
  8 17  1  0  0  0  0
  8 18  1  0  0  0  0
  8 19  1  0  0  0  0
  9 10  2  0  0  0  0
  9 20  1  0  0  0  0
 10 21  1  0  0  0  0
 11 12  1  0  0  0  0
 12 13  2  0  0  0  0
 12 22  1  0  0  0  0
 13 14  1  0  0  0  0
 13 23  1  0  0  0  0
 14 24  1  0  0  0  0
M  END
> <PUBCHEM_COMPOUND_CID>
26715

> <PUBCHEM_CONFORMER_RMSD>
0.6

> <PUBCHEM_CONFORMER_DIVERSEORDER>
1
8
9
4
6
5
11
12
10
3
2
7

> <PUBCHEM_MMFF94_PARTIAL_CHARGES>
21
1 -0.17
10 -0.15
11 0.39
12 -0.15
13 -0.15
14 0.16
15 0.15
16 0.15
2 -0.31
20 0.15
21 0.15
22 0.15
23 0.15
24 0.15
3 -0.31
4 -0.14
5 0.08
6 -0.15
7 -0.15
8 0.14
9 -0.15

> <PUBCHEM_EFFECTIVE_ROTOR_COUNT>
2

> <PUBCHEM_PHARMACOPHORE_FEATURES>
3
1 3 acceptor
6 2 3 11 12 13 14 rings
6 4 5 6 7 9 10 rings

> <PUBCHEM_HEAVY_ATOM_COUNT>
14

> <PUBCHEM_ATOM_DEF_STEREO_COUNT>
0

> <PUBCHEM_ATOM_UDEF_STEREO_COUNT>
0

> <PUBCHEM_BOND_DEF_STEREO_COUNT>
0

> <PUBCHEM_BOND_UDEF_STEREO_COUNT>
0

> <PUBCHEM_ISOTOPIC_ATOM_COUNT>
0

> <PUBCHEM_COMPONENT_COUNT>
1

> <PUBCHEM_CACTVS_TAUTO_COUNT>
1

> <PUBCHEM_CONFORMER_ID>
0000685B00000001

> <PUBCHEM_MMFF94_ENERGY>
45.6491

> <PUBCHEM_FEATURE_SELFOVERLAP>
15.223

> <PUBCHEM_SHAPE_FINGERPRINT>
10857977 72 17967246477722361549
11132069 177 17967247598666582253
11137873 295 15840999995275356162
11578080 2 18056505888159348069
12251169 10 17894347748530360857
124424 183 16588024666771052934
12932764 1 18273496771216220212
13024252 1 17418094330315028293
13380536 127 18410293639978109580
13538477 17 18412545439575601517
13581323 91 18334294270842343758
13764800 53 17749386030959061585
15076042 46 18266457792285356627
15219456 202 16805596005873405942
15375462 189 18200587008501045483
15653759 3 17458344143519248746
16945 1 18259984898629129861
17844478 74 17022616477008090008
18175812 5 16805319972678294381
19049666 15 16952235754272048092
19422 9 18271802449746897494
200 152 17704360952344347731
20361792 2 17703794703803218071
20645464 45 16805323301277994239
20645477 70 16916801689833211690
21486144 27 15502381114536412252
21650355 55 18261680285561383131
22445834 79 18202283649178874146
23559900 14 17968646233333860804
474 4 17842269264691960060
581208 293 17060337392805705988
77492 1 18201712942482776812
90316 7 18408881871438445481

> <PUBCHEM_SHAPE_MULTIPOLES>
272.28
6.24
1.52
1.17
2.58
0.63
0.06
-1.2
1.23
-1.32
0.07
0.58
-0.12
-0.58

> <PUBCHEM_SHAPE_SELFOVERLAP>
585.011

> <PUBCHEM_SHAPE_VOLUME>
149.4

> <PUBCHEM_COORDINATE_TYPE>
2
5
10

$$$$

