254190
  -OEChem-07051213062D

 46 49  0     1  0  0  0  0  0999 V2000
    2.9176   -2.3164    0.0000 O   0  0  0  0  0  0  0  0  0  0  0  0
    9.1931    2.2705    0.0000 O   0  0  0  0  0  0  0  0  0  0  0  0
    3.8000   -0.7818    0.0000 C   0  0  2  0  0  0  0  0  0  0  0  0
    3.8000    0.2182    0.0000 C   0  0  2  0  0  0  0  0  0  0  0  0
    4.6660   -1.2818    0.0000 C   0  0  0  0  0  0  0  0  0  0  0  0
    4.6660    0.7182    0.0000 C   0  0  0  0  0  0  0  0  0  0  0  0
    2.9061    0.7529    0.0000 C   0  0  0  0  0  0  0  0  0  0  0  0
    5.5321   -0.7818    0.0000 C   0  0  0  0  0  0  0  0  0  0  0  0
    5.5321    0.2182    0.0000 C   0  0  0  0  0  0  0  0  0  0  0  0
    2.9061   -1.3164    0.0000 C   0  0  0  0  0  0  0  0  0  0  0  0
    2.0000    0.2390    0.0000 C   0  0  0  0  0  0  0  0  0  0  0  0
    3.8000   -1.7818    0.0000 C   0  0  0  0  0  0  0  0  0  0  0  0
    2.0000   -0.8026    0.0000 C   0  0  0  0  0  0  0  0  0  0  0  0
    4.6500    1.7597    0.0000 C   0  0  0  0  0  0  0  0  0  0  0  0
    6.4421    0.7251    0.0000 C   0  0  0  0  0  0  0  0  0  0  0  0
    5.5480    2.2875    0.0000 C   0  0  0  0  0  0  0  0  0  0  0  0
    6.4501    1.7667    0.0000 C   0  0  0  0  0  0  0  0  0  0  0  0
    7.3689    0.1610    0.0000 C   0  0  0  0  0  0  0  0  0  0  0  0
    7.3855    2.3164    0.0000 C   0  0  0  0  0  0  0  0  0  0  0  0
    8.3168    0.6889    0.0000 C   0  0  0  0  0  0  0  0  0  0  0  0
    8.3252    1.7739    0.0000 C   0  0  0  0  0  0  0  0  0  0  0  0
   10.0572    1.7672    0.0000 C   0  0  0  0  0  0  0  0  0  0  0  0
    3.8066    1.0682    0.0000 H   0  0  0  0  0  0  0  0  0  0  0  0
    4.2675   -1.7567    0.0000 H   0  0  0  0  0  0  0  0  0  0  0  0
    5.0646   -1.7567    0.0000 H   0  0  0  0  0  0  0  0  0  0  0  0
    3.3107    1.2227    0.0000 H   0  0  0  0  0  0  0  0  0  0  0  0
    2.5124    1.2319    0.0000 H   0  0  0  0  0  0  0  0  0  0  0  0
    5.7441   -1.3644    0.0000 H   0  0  0  0  0  0  0  0  0  0  0  0
    6.1426   -0.6741    0.0000 H   0  0  0  0  0  0  0  0  0  0  0  0
    1.7909    0.8227    0.0000 H   0  0  0  0  0  0  0  0  0  0  0  0
    1.3891    0.1329    0.0000 H   0  0  0  0  0  0  0  0  0  0  0  0
    3.1800   -1.7818    0.0000 H   0  0  0  0  0  0  0  0  0  0  0  0
    3.8000   -2.4018    0.0000 H   0  0  0  0  0  0  0  0  0  0  0  0
    4.4200   -1.7818    0.0000 H   0  0  0  0  0  0  0  0  0  0  0  0
    1.3891   -0.6965    0.0000 H   0  0  0  0  0  0  0  0  0  0  0  0
    1.7909   -1.3863    0.0000 H   0  0  0  0  0  0  0  0  0  0  0  0
    4.4319    2.3401    0.0000 H   0  0  0  0  0  0  0  0  0  0  0  0
    4.0408    1.6442    0.0000 H   0  0  0  0  0  0  0  0  0  0  0  0
    5.9453    2.7634    0.0000 H   0  0  0  0  0  0  0  0  0  0  0  0
    5.1470    2.7604    0.0000 H   0  0  0  0  0  0  0  0  0  0  0  0
    7.3570   -0.4589    0.0000 H   0  0  0  0  0  0  0  0  0  0  0  0
    7.3831    2.9364    0.0000 H   0  0  0  0  0  0  0  0  0  0  0  0
    8.8501    0.3727    0.0000 H   0  0  0  0  0  0  0  0  0  0  0  0
    9.7451    1.2315    0.0000 H   0  0  0  0  0  0  0  0  0  0  0  0
   10.5929    1.4551    0.0000 H   0  0  0  0  0  0  0  0  0  0  0  0
   10.3693    2.3030    0.0000 H   0  0  0  0  0  0  0  0  0  0  0  0
  1 10  2  0  0  0  0
  2 21  1  0  0  0  0
  2 22  1  0  0  0  0
  3  4  1  0  0  0  0
  3  5  1  0  0  0  0
  3 10  1  0  0  0  0
  3 12  1  1  0  0  0
  4  6  1  0  0  0  0
  4  7  1  0  0  0  0
  4 23  1  6  0  0  0
  5  8  1  0  0  0  0
  5 24  1  0  0  0  0
  5 25  1  0  0  0  0
  6  9  2  0  0  0  0
  6 14  1  0  0  0  0
  7 11  1  0  0  0  0
  7 26  1  0  0  0  0
  7 27  1  0  0  0  0
  8  9  1  0  0  0  0
  8 28  1  0  0  0  0
  8 29  1  0  0  0  0
  9 15  1  0  0  0  0
 10 13  1  0  0  0  0
 11 13  1  0  0  0  0
 11 30  1  0  0  0  0
 11 31  1  0  0  0  0
 12 32  1  0  0  0  0
 12 33  1  0  0  0  0
 12 34  1  0  0  0  0
 13 35  1  0  0  0  0
 13 36  1  0  0  0  0
 14 16  1  0  0  0  0
 14 37  1  0  0  0  0
 14 38  1  0  0  0  0
 15 17  2  0  0  0  0
 15 18  1  0  0  0  0
 16 17  1  0  0  0  0
 16 39  1  0  0  0  0
 16 40  1  0  0  0  0
 17 19  1  0  0  0  0
 18 20  2  0  0  0  0
 18 41  1  0  0  0  0
 19 21  2  0  0  0  0
 19 42  1  0  0  0  0
 20 21  1  0  0  0  0
 20 43  1  0  0  0  0
 22 44  1  0  0  0  0
 22 45  1  0  0  0  0
 22 46  1  0  0  0  0
M  END
> <PUBCHEM_COMPOUND_CID>
254190

> <PUBCHEM_COMPOUND_CANONICALIZED>
1

> <PUBCHEM_CACTVS_COMPLEXITY>
506

> <PUBCHEM_CACTVS_HBOND_ACCEPTOR>
2

> <PUBCHEM_CACTVS_HBOND_DONOR>
0

> <PUBCHEM_CACTVS_ROTATABLE_BOND>
1

> <PUBCHEM_CACTVS_SUBSKEYS>
AAADceB4MAAAAAAAAAAAAAAAAAAAAAAAAAAwYIEAAAAAAADBAAAAGgAAAAAADwSAmAIyBoAABACIAqBSAAACCAAgIAAIiAEGCIgMJjKEMRqAMCAkwBEIqAeIyPCPoAABAAAQAABAAAIAACAAAAAAAAAAAA==

> <PUBCHEM_IUPAC_OPENEYE_NAME>
(4aS,12aS)-8-methoxy-12a-methyl-2,3,4,4a,5,6,11,12-octahydrochrysen-1-one

> <PUBCHEM_IUPAC_CAS_NAME>
(4aS,12aS)-8-methoxy-12a-methyl-2,3,4,4a,5,6,11,12-octahydrochrysen-1-one

> <PUBCHEM_IUPAC_NAME>
(4aS,12aS)-8-methoxy-12a-methyl-2,3,4,4a,5,6,11,12-octahydrochrysen-1-one

> <PUBCHEM_IUPAC_SYSTEMATIC_NAME>
(4aS,12aS)-8-methoxy-12a-methyl-2,3,4,4a,5,6,11,12-octahydrochrysen-1-one

> <PUBCHEM_IUPAC_TRADITIONAL_NAME>
(4aS,12aS)-8-methoxy-12a-methyl-2,3,4,4a,5,6,11,12-octahydrochrysen-1-one

> <PUBCHEM_IUPAC_INCHI>
InChI=1S/C20H24O2/c1-20-11-10-16-15-9-7-14(22-2)12-13(15)6-8-17(16)18(20)4-3-5-19(20)21/h7,9,12,18H,3-6,8,10-11H2,1-2H3/t18-,20-/m0/s1

> <PUBCHEM_IUPAC_INCHIKEY>
CDCUHRTZLOKMFC-ICSRJNTNSA-N

> <PUBCHEM_XLOGP3_AA>
3.3

> <PUBCHEM_EXACT_MASS>
296.17763

> <PUBCHEM_MOLECULAR_FORMULA>
C20H24O2

> <PUBCHEM_MOLECULAR_WEIGHT>
296.40336

> <PUBCHEM_OPENEYE_CAN_SMILES>
CC12CCC3=C(C1CCCC2=O)CCC4=C3C=CC(=C4)OC

> <PUBCHEM_OPENEYE_ISO_SMILES>
C[C@]12CCC3=C([C@@H]1CCCC2=O)CCC4=C3C=CC(=C4)OC

> <PUBCHEM_CACTVS_TPSA>
26.3

> <PUBCHEM_MONOISOTOPIC_WEIGHT>
296.17763

> <PUBCHEM_TOTAL_CHARGE>
0

> <PUBCHEM_HEAVY_ATOM_COUNT>
22

> <PUBCHEM_ATOM_DEF_STEREO_COUNT>
2

> <PUBCHEM_ATOM_UDEF_STEREO_COUNT>
0

> <PUBCHEM_BOND_DEF_STEREO_COUNT>
0

> <PUBCHEM_BOND_UDEF_STEREO_COUNT>
0

> <PUBCHEM_ISOTOPIC_ATOM_COUNT>
0

> <PUBCHEM_COMPONENT_COUNT>
1

> <PUBCHEM_CACTVS_TAUTO_COUNT>
2

> <PUBCHEM_COORDINATE_TYPE>
1
5
255

> <PUBCHEM_BONDANNOTATIONS>
15  17  8
15  18  8
17  19  8
18  20  8
19  21  8
20  21  8
3  12  5
4  23  6

$$$$

