3034646
  -OEChem-07051213092D

 38 40  0     1  0  0  0  0  0999 V2000
    4.2690   -4.7150    0.0000 S   0  0  0  0  0  0  0  0  0  0  0  0
    6.4504    3.3034    0.0000 P   0  0  0  0  0  0  0  0  0  0  0  0
    5.8055   -0.1498    0.0000 O   0  0  0  0  0  0  0  0  0  0  0  0
    8.1515   -1.2416    0.0000 O   0  0  0  0  0  0  0  0  0  0  0  0
    8.1552    0.9340    0.0000 O   0  0  0  0  0  0  0  0  0  0  0  0
    6.7577    2.3518    0.0000 O   0  0  0  0  0  0  0  0  0  0  0  0
    6.1430    4.2550    0.0000 O   0  0  0  0  0  0  0  0  0  0  0  0
    7.4020    3.6108    0.0000 O   0  0  0  0  0  0  0  0  0  0  0  0
    5.4988    2.9960    0.0000 O   0  0  0  0  0  0  0  0  0  0  0  0
    6.0812   -1.9103    0.0000 N   0  0  0  0  0  0  0  0  0  0  0  0
    4.2690   -1.7150    0.0000 N   0  0  0  0  0  0  0  0  0  0  0  0
    6.0812   -3.5198    0.0000 N   0  0  0  0  0  0  0  0  0  0  0  0
    3.4030   -3.2150    0.0000 N   0  0  0  0  0  0  0  0  0  0  0  0
    2.5369   -1.7150    0.0000 N   0  0  0  0  0  0  0  0  0  0  0  0
    7.3435   -0.6524    0.0000 C   0  0  1  0  0  0  0  0  0  0  0  0
    6.3919   -0.9598    0.0000 C   0  0  1  0  0  0  0  0  0  0  0  0
    7.3452    0.3476    0.0000 C   0  0  1  0  0  0  0  0  0  0  0  0
    6.3947    0.6582    0.0000 C   0  0  1  0  0  0  0  0  0  0  0  0
    6.0873    1.6098    0.0000 C   0  0  0  0  0  0  0  0  0  0  0  0
    5.1350   -2.2150    0.0000 C   0  0  0  0  0  0  0  0  0  0  0  0
    6.6648   -2.7150    0.0000 C   0  0  0  0  0  0  0  0  0  0  0  0
    5.1350   -3.2150    0.0000 C   0  0  0  0  0  0  0  0  0  0  0  0
    4.2690   -3.7150    0.0000 C   0  0  0  0  0  0  0  0  0  0  0  0
    3.4030   -2.2150    0.0000 C   0  0  0  0  0  0  0  0  0  0  0  0
    7.8964   -0.3719    0.0000 H   0  0  0  0  0  0  0  0  0  0  0  0
    5.7794   -1.0557    0.0000 H   0  0  0  0  0  0  0  0  0  0  0  0
    7.2493    0.9601    0.0000 H   0  0  0  0  0  0  0  0  0  0  0  0
    5.7825    0.7563    0.0000 H   0  0  0  0  0  0  0  0  0  0  0  0
    5.7065    2.0991    0.0000 H   0  0  0  0  0  0  0  0  0  0  0  0
    5.5394    1.3197    0.0000 H   0  0  0  0  0  0  0  0  0  0  0  0
    8.7183   -0.9904    0.0000 H   0  0  0  0  0  0  0  0  0  0  0  0
    8.7212    0.6808    0.0000 H   0  0  0  0  0  0  0  0  0  0  0  0
    7.2848   -2.7150    0.0000 H   0  0  0  0  0  0  0  0  0  0  0  0
    4.2690   -1.0950    0.0000 H   0  0  0  0  0  0  0  0  0  0  0  0
    2.0000   -2.0250    0.0000 H   0  0  0  0  0  0  0  0  0  0  0  0
    2.5369   -1.0950    0.0000 H   0  0  0  0  0  0  0  0  0  0  0  0
    6.5587    4.7150    0.0000 H   0  0  0  0  0  0  0  0  0  0  0  0
    7.5319    4.2170    0.0000 H   0  0  0  0  0  0  0  0  0  0  0  0
  1 23  2  0  0  0  0
  2  6  1  0  0  0  0
  2  7  1  0  0  0  0
  2  8  1  0  0  0  0
  2  9  2  0  0  0  0
  3 16  1  0  0  0  0
  3 18  1  0  0  0  0
 15  4  1  1  0  0  0
  4 31  1  0  0  0  0
 17  5  1  1  0  0  0
  5 32  1  0  0  0  0
  6 19  1  0  0  0  0
  7 37  1  0  0  0  0
  8 38  1  0  0  0  0
 16 10  1  6  0  0  0
 10 20  1  0  0  0  0
 10 21  1  0  0  0  0
 11 20  1  0  0  0  0
 11 24  1  0  0  0  0
 11 34  1  0  0  0  0
 12 21  2  0  0  0  0
 12 22  1  0  0  0  0
 13 23  1  0  0  0  0
 13 24  2  0  0  0  0
 14 24  1  0  0  0  0
 14 35  1  0  0  0  0
 14 36  1  0  0  0  0
 15 16  1  0  0  0  0
 15 17  1  0  0  0  0
 15 25  1  0  0  0  0
 16 26  1  0  0  0  0
 17 18  1  0  0  0  0
 17 27  1  0  0  0  0
 18 19  1  6  0  0  0
 18 28  1  0  0  0  0
 19 29  1  0  0  0  0
 19 30  1  0  0  0  0
 20 22  2  0  0  0  0
 21 33  1  0  0  0  0
 22 23  1  0  0  0  0
M  END
> <PUBCHEM_COMPOUND_CID>
3034646

> <PUBCHEM_COMPOUND_CANONICALIZED>
1

> <PUBCHEM_CACTVS_COMPLEXITY>
602

> <PUBCHEM_CACTVS_HBOND_ACCEPTOR>
9

> <PUBCHEM_CACTVS_HBOND_DONOR>
6

> <PUBCHEM_CACTVS_ROTATABLE_BOND>
4

> <PUBCHEM_CACTVS_SUBSKEYS>
AAADccBzuAJAAAAAAAAAAAAAAAAAAWJAAAAgAAAAAAAAAEABgAAAHgQQCCAACBzh1gYFsBfMFxCkQQZhZICAgC0REKABUAAoVACDWAJAyAAeQAAPAALTACDwMAIAAAAAAAAAAAAAAAAAAAAAAAAAAAAAAA==

> <PUBCHEM_IUPAC_OPENEYE_NAME>
[(2R,3S,4R,5R)-5-(2-amino-6-thioxo-3H-purin-9-yl)-3,4-dihydroxy-tetrahydrofuran-2-yl]methyl dihydrogen phosphate

> <PUBCHEM_IUPAC_CAS_NAME>
[(2R,3S,4R,5R)-5-(2-amino-6-sulfanylidene-3H-purin-9-yl)-3,4-dihydroxy-2-oxolanyl]methyl dihydrogen phosphate

> <PUBCHEM_IUPAC_NAME>
[(2R,3S,4R,5R)-5-(2-amino-6-sulfanylidene-3H-purin-9-yl)-3,4-dihydroxyoxolan-2-yl]methyl dihydrogen phosphate

> <PUBCHEM_IUPAC_SYSTEMATIC_NAME>
[(2R,3S,4R,5R)-5-(2-azanyl-6-sulfanylidene-3H-purin-9-yl)-3,4-bis(oxidanyl)oxolan-2-yl]methyl dihydrogen phosphate

> <PUBCHEM_IUPAC_TRADITIONAL_NAME>
[(2R,3S,4R,5R)-5-(2-amino-6-thioxo-3H-purin-9-yl)-3,4-dihydroxy-tetrahydrofuran-2-yl]methyl dihydrogen phosphate

> <PUBCHEM_IUPAC_INCHI>
InChI=1S/C10H14N5O7PS/c11-10-13-7-4(8(24)14-10)12-2-15(7)9-6(17)5(16)3(22-9)1-21-23(18,19)20/h2-3,5-6,9,16-17H,1H2,(H2,18,19,20)(H3,11,13,14,24)/t3-,5-,6-,9-/m1/s1

> <PUBCHEM_IUPAC_INCHIKEY>
BPZXYEUJBFHASJ-UUOKFMHZSA-N

> <PUBCHEM_XLOGP3>
-2.8

> <PUBCHEM_EXACT_MASS>
379.035155

> <PUBCHEM_MOLECULAR_FORMULA>
C10H14N5O7PS

> <PUBCHEM_MOLECULAR_WEIGHT>
379.286222

> <PUBCHEM_OPENEYE_CAN_SMILES>
C1=NC2=C(N1C3C(C(C(O3)COP(=O)(O)O)O)O)NC(=NC2=S)N

> <PUBCHEM_OPENEYE_ISO_SMILES>
C1=NC2=C(N1[C@H]3[C@@H]([C@@H]([C@H](O3)COP(=O)(O)O)O)O)NC(=NC2=S)N

> <PUBCHEM_CACTVS_TPSA>
217

> <PUBCHEM_MONOISOTOPIC_WEIGHT>
379.035155

> <PUBCHEM_TOTAL_CHARGE>
0

> <PUBCHEM_HEAVY_ATOM_COUNT>
24

> <PUBCHEM_ATOM_DEF_STEREO_COUNT>
4

> <PUBCHEM_ATOM_UDEF_STEREO_COUNT>
0

> <PUBCHEM_BOND_DEF_STEREO_COUNT>
0

> <PUBCHEM_BOND_UDEF_STEREO_COUNT>
0

> <PUBCHEM_ISOTOPIC_ATOM_COUNT>
0

> <PUBCHEM_COMPONENT_COUNT>
1

> <PUBCHEM_CACTVS_TAUTO_COUNT>
9

> <PUBCHEM_COORDINATE_TYPE>
1
5
255

> <PUBCHEM_BONDANNOTATIONS>
16  10  6
10  20  8
10  21  8
11  20  8
11  24  8
12  21  8
12  22  8
13  23  8
13  24  8
18  19  6
20  22  8
22  23  8
15  4  5
17  5  5

$$$$

