440550
  -OEChem-07051212503D

 22 21  0     1  0  0  0  0  0999 V2000
   -2.1580    1.0597    0.5015 O   0  0  0  0  0  0  0  0  0  0  0  0
   -2.8995   -0.7175   -0.7654 O   0  0  0  0  0  0  0  0  0  0  0  0
    4.1370   -0.1298    0.2160 O   0  0  0  0  0  0  0  0  0  0  0  0
    2.7322    1.4331   -0.6452 O   0  0  0  0  0  0  0  0  0  0  0  0
   -0.7602   -2.2111   -0.0893 N   0  0  0  0  0  0  0  0  0  0  0  0
    0.4248   -0.0169   -0.0645 C   0  0  0  0  0  0  0  0  0  0  0  0
   -0.7731   -0.8434    0.4285 C   0  0  1  0  0  0  0  0  0  0  0  0
    1.7891   -0.5373    0.3827 C   0  0  0  0  0  0  0  0  0  0  0  0
   -2.0703   -0.1975   -0.0299 C   0  0  0  0  0  0  0  0  0  0  0  0
    2.9086    0.3608   -0.0810 C   0  0  0  0  0  0  0  0  0  0  0  0
   -3.3306    1.7998    0.1466 C   0  0  0  0  0  0  0  0  0  0  0  0
    0.4013    0.0475   -1.1616 H   0  0  0  0  0  0  0  0  0  0  0  0
    0.3187    1.0180    0.2872 H   0  0  0  0  0  0  0  0  0  0  0  0
   -0.7835   -0.8890    1.5233 H   0  0  0  0  0  0  0  0  0  0  0  0
    1.8277   -0.5913    1.4760 H   0  0  0  0  0  0  0  0  0  0  0  0
    1.9643   -1.5359   -0.0315 H   0  0  0  0  0  0  0  0  0  0  0  0
   -0.7791   -2.1996   -1.1082 H   0  0  0  0  0  0  0  0  0  0  0  0
   -1.5971   -2.7068    0.2143 H   0  0  0  0  0  0  0  0  0  0  0  0
   -3.3704    1.9488   -0.9367 H   0  0  0  0  0  0  0  0  0  0  0  0
   -3.2759    2.7772    0.6334 H   0  0  0  0  0  0  0  0  0  0  0  0
   -4.2270    1.2812    0.4995 H   0  0  0  0  0  0  0  0  0  0  0  0
    4.8532    0.4712   -0.0811 H   0  0  0  0  0  0  0  0  0  0  0  0
  1  9  1  0  0  0  0
  1 11  1  0  0  0  0
  2  9  2  0  0  0  0
  3 10  1  0  0  0  0
  3 22  1  0  0  0  0
  4 10  2  0  0  0  0
  5  7  1  0  0  0  0
  5 17  1  0  0  0  0
  5 18  1  0  0  0  0
  6  7  1  0  0  0  0
  6  8  1  0  0  0  0
  6 12  1  0  0  0  0
  6 13  1  0  0  0  0
  7  9  1  0  0  0  0
  7 14  1  0  0  0  0
  8 10  1  0  0  0  0
  8 15  1  0  0  0  0
  8 16  1  0  0  0  0
 11 19  1  0  0  0  0
 11 20  1  0  0  0  0
 11 21  1  0  0  0  0
M  END
> <PUBCHEM_COMPOUND_CID>
440550

> <PUBCHEM_CONFORMER_RMSD>
0.6

> <PUBCHEM_CONFORMER_DIVERSEORDER>
2
32
6
35
23
8
33
11
37
22
36
15
14
27
13
19
26
28
25
16
7
34
10
20
5
18
17
12
30
21
29
3
24
9
1
31
4

> <PUBCHEM_MMFF94_PARTIAL_CHARGES>
13
1 -0.43
10 0.66
11 0.28
17 0.36
18 0.36
2 -0.57
22 0.5
3 -0.65
4 -0.57
5 -0.99
7 0.33
8 0.06
9 0.66

> <PUBCHEM_EFFECTIVE_ROTOR_COUNT>
5

> <PUBCHEM_PHARMACOPHORE_FEATURES>
6
1 2 acceptor
1 3 acceptor
1 4 acceptor
1 5 cation
1 5 donor
3 3 4 10 anion

> <PUBCHEM_HEAVY_ATOM_COUNT>
11

> <PUBCHEM_ATOM_DEF_STEREO_COUNT>
1

> <PUBCHEM_ATOM_UDEF_STEREO_COUNT>
0

> <PUBCHEM_BOND_DEF_STEREO_COUNT>
0

> <PUBCHEM_BOND_UDEF_STEREO_COUNT>
0

> <PUBCHEM_ISOTOPIC_ATOM_COUNT>
0

> <PUBCHEM_COMPONENT_COUNT>
1

> <PUBCHEM_CACTVS_TAUTO_COUNT>
1

> <PUBCHEM_CONFORMER_ID>
0006B8E600000002

> <PUBCHEM_MMFF94_ENERGY>
10.262

> <PUBCHEM_FEATURE_SELFOVERLAP>
30.504

> <PUBCHEM_SHAPE_FINGERPRINT>
10149128 111 18411695521487877465
12162725 195 18411699859525996868
12932764 1 17458349615044002195
14144814 61 18343586239609006658
14325111 11 18410011056694036834
14390081 3 18409167684162813224
14897335 6 18264211473060937621
15775835 57 18341611563696153353
18511873 20 18343584062250478664
20653085 51 18338786901139051619
20711983 171 18408318895535495564
21524375 3 18340487863102378849
23402539 116 18262247633645919815
305870 269 18270118057809661211
3248919 1 18342178834645020314
9939556 21 18341894039848428958

> <PUBCHEM_SHAPE_MULTIPOLES>
197.92
6.31
1.69
0.71
2.87
0.15
0.01
-2.64
0.22
-1.06
0.08
-0.08
-0.01
-0.53

> <PUBCHEM_SHAPE_SELFOVERLAP>
374.863

> <PUBCHEM_SHAPE_VOLUME>
122.1

> <PUBCHEM_COORDINATE_TYPE>
2
5
10

$$$$

