15565
  -OEChem-07051213142D

 29 32  0     0  0  0  0  0  0999 V2000
    3.6662   -0.4285    0.0000 C   0  0  0  0  0  0  0  0  0  0  0  0
    2.8571    0.1593    0.0000 C   0  0  0  0  0  0  0  0  0  0  0  0
    4.4752    0.1593    0.0000 C   0  0  0  0  0  0  0  0  0  0  0  0
    3.1662    1.1104    0.0000 C   0  0  0  0  0  0  0  0  0  0  0  0
    4.1662    1.1104    0.0000 C   0  0  0  0  0  0  0  0  0  0  0  0
    3.7590   -1.4659    0.0000 C   0  0  0  0  0  0  0  0  0  0  0  0
    2.8554   -1.9116    0.0000 C   0  0  0  0  0  0  0  0  0  0  0  0
    2.0008   -0.3716    0.0000 C   0  0  0  0  0  0  0  0  0  0  0  0
    5.4332   -0.2496    0.0000 C   0  0  0  0  0  0  0  0  0  0  0  0
    4.7073   -1.8969    0.0000 C   0  0  0  0  0  0  0  0  0  0  0  0
    2.0000   -1.3792    0.0000 C   0  0  0  0  0  0  0  0  0  0  0  0
    2.6315    2.0043    0.0000 C   0  0  0  0  0  0  0  0  0  0  0  0
    4.7008    2.0043    0.0000 C   0  0  0  0  0  0  0  0  0  0  0  0
    5.5500   -1.2847    0.0000 C   0  0  0  0  0  0  0  0  0  0  0  0
    2.8062   -2.9104    0.0000 C   0  0  0  0  0  0  0  0  0  0  0  0
    3.1453    2.9104    0.0000 C   0  0  0  0  0  0  0  0  0  0  0  0
    4.1870    2.9104    0.0000 C   0  0  0  0  0  0  0  0  0  0  0  0
    1.4592   -0.0699    0.0000 H   0  0  0  0  0  0  0  0  0  0  0  0
    5.9305    0.1206    0.0000 H   0  0  0  0  0  0  0  0  0  0  0  0
    4.7698   -2.5138    0.0000 H   0  0  0  0  0  0  0  0  0  0  0  0
    1.4579   -1.6800    0.0000 H   0  0  0  0  0  0  0  0  0  0  0  0
    2.0115    1.9972    0.0000 H   0  0  0  0  0  0  0  0  0  0  0  0
    5.3208    1.9972    0.0000 H   0  0  0  0  0  0  0  0  0  0  0  0
    6.1174   -1.5347    0.0000 H   0  0  0  0  0  0  0  0  0  0  0  0
    2.1869   -2.8799    0.0000 H   0  0  0  0  0  0  0  0  0  0  0  0
    2.7756   -3.5296    0.0000 H   0  0  0  0  0  0  0  0  0  0  0  0
    3.4254   -2.9409    0.0000 H   0  0  0  0  0  0  0  0  0  0  0  0
    2.8333    3.4461    0.0000 H   0  0  0  0  0  0  0  0  0  0  0  0
    4.4990    3.4461    0.0000 H   0  0  0  0  0  0  0  0  0  0  0  0
  1  2  2  0  0  0  0
  1  3  1  0  0  0  0
  1  6  1  0  0  0  0
  2  4  1  0  0  0  0
  2  8  1  0  0  0  0
  3  5  1  0  0  0  0
  3  9  2  0  0  0  0
  4  5  1  0  0  0  0
  4 12  2  0  0  0  0
  5 13  2  0  0  0  0
  6  7  2  0  0  0  0
  6 10  1  0  0  0  0
  7 11  1  0  0  0  0
  7 15  1  0  0  0  0
  8 11  2  0  0  0  0
  8 18  1  0  0  0  0
  9 14  1  0  0  0  0
  9 19  1  0  0  0  0
 10 14  2  0  0  0  0
 10 20  1  0  0  0  0
 11 21  1  0  0  0  0
 12 16  1  0  0  0  0
 12 22  1  0  0  0  0
 13 17  1  0  0  0  0
 13 23  1  0  0  0  0
 14 24  1  0  0  0  0
 15 25  1  0  0  0  0
 15 26  1  0  0  0  0
 15 27  1  0  0  0  0
 16 17  2  0  0  0  0
 16 28  1  0  0  0  0
 17 29  1  0  0  0  0
M  END
> <PUBCHEM_COMPOUND_CID>
15565

> <PUBCHEM_COMPOUND_CANONICALIZED>
1

> <PUBCHEM_CACTVS_COMPLEXITY>
294

> <PUBCHEM_CACTVS_HBOND_ACCEPTOR>
0

> <PUBCHEM_CACTVS_HBOND_DONOR>
0

> <PUBCHEM_CACTVS_ROTATABLE_BOND>
0

> <PUBCHEM_CACTVS_SUBSKEYS>
AAADccB4AAAAAAAAAAAAAAAAAAAAAYAAAAAwYMAAAAAAAGDBVAAAGAAAAAAADACAGAAyAMAAAACAAiBCAAACAAAgAAAIiAAAAIgIICKAERCAIAAggAAIiAcAgMAOwAACAAAQAACAAAQAACAAAQAACAAAAA==

> <PUBCHEM_IUPAC_OPENEYE_NAME>
3-methylfluoranthene

> <PUBCHEM_IUPAC_CAS_NAME>
3-methylfluoranthene

> <PUBCHEM_IUPAC_NAME>
3-methylfluoranthene

> <PUBCHEM_IUPAC_SYSTEMATIC_NAME>
3-methylfluoranthene

> <PUBCHEM_IUPAC_TRADITIONAL_NAME>
3-methylfluoranthene

> <PUBCHEM_IUPAC_INCHI>
InChI=1S/C17H12/c1-11-9-10-16-14-6-3-2-5-13(14)15-8-4-7-12(11)17(15)16/h2-10H,1H3

> <PUBCHEM_IUPAC_INCHIKEY>
XHJKUHDKEFRGSK-UHFFFAOYSA-N

> <PUBCHEM_XLOGP3>
5.5

> <PUBCHEM_EXACT_MASS>
216.0939

> <PUBCHEM_MOLECULAR_FORMULA>
C17H12

> <PUBCHEM_MOLECULAR_WEIGHT>
216.27718

> <PUBCHEM_OPENEYE_CAN_SMILES>
CC1=C2C=CC=C3C2=C(C=C1)C4=CC=CC=C43

> <PUBCHEM_OPENEYE_ISO_SMILES>
CC1=C2C=CC=C3C2=C(C=C1)C4=CC=CC=C43

> <PUBCHEM_CACTVS_TPSA>
0

> <PUBCHEM_MONOISOTOPIC_WEIGHT>
216.0939

> <PUBCHEM_TOTAL_CHARGE>
0

> <PUBCHEM_HEAVY_ATOM_COUNT>
17

> <PUBCHEM_ATOM_DEF_STEREO_COUNT>
0

> <PUBCHEM_ATOM_UDEF_STEREO_COUNT>
0

> <PUBCHEM_BOND_DEF_STEREO_COUNT>
0

> <PUBCHEM_BOND_UDEF_STEREO_COUNT>
0

> <PUBCHEM_ISOTOPIC_ATOM_COUNT>
0

> <PUBCHEM_COMPONENT_COUNT>
1

> <PUBCHEM_CACTVS_TAUTO_COUNT>
1

> <PUBCHEM_COORDINATE_TYPE>
1
5
255

> <PUBCHEM_BONDANNOTATIONS>
1  2  8
1  3  8
1  6  8
10  14  8
12  16  8
13  17  8
16  17  8
2  8  8
3  9  8
4  12  8
4  5  8
5  13  8
6  10  8
6  7  8
7  11  8
8  11  8
9  14  8

$$$$

