9113
  -OEChem-06261203252D

 64 74  0     0  0  0  0  0  0999 V2000
    7.7968   -4.6164    0.0000 C   0  0  0  0  0  0  0  0  0  0  0  0
    4.0424    4.0636    0.0000 C   0  0  0  0  0  0  0  0  0  0  0  0
    6.9308   -3.1164    0.0000 C   0  0  0  0  0  0  0  0  0  0  0  0
    5.0392    2.2901    0.0000 C   0  0  0  0  0  0  0  0  0  0  0  0
    6.9308   -4.1164    0.0000 C   0  0  0  0  0  0  0  0  0  0  0  0
    5.0574    3.4672    0.0000 C   0  0  0  0  0  0  0  0  0  0  0  0
    7.7968   -2.6164    0.0000 C   0  0  0  0  0  0  0  0  0  0  0  0
    4.0605    1.7250    0.0000 C   0  0  0  0  0  0  0  0  0  0  0  0
    6.0128   -1.5679    0.0000 C   0  0  0  0  0  0  0  0  0  0  0  0
    5.9962    0.5875    0.0000 C   0  0  0  0  0  0  0  0  0  0  0  0
    6.9149   -1.0471    0.0000 C   0  0  0  0  0  0  0  0  0  0  0  0
    5.0565    0.0450    0.0000 C   0  0  0  0  0  0  0  0  0  0  0  0
    7.8129   -5.6579    0.0000 C   0  0  0  0  0  0  0  0  0  0  0  0
    4.0330    5.2898    0.0000 C   0  0  0  0  0  0  0  0  0  0  0  0
    8.6629   -4.1164    0.0000 C   0  0  0  0  0  0  0  0  0  0  0  0
    3.0229    3.4750    0.0000 C   0  0  0  0  0  0  0  0  0  0  0  0
    6.0208   -2.6095    0.0000 C   0  0  0  0  0  0  0  0  0  0  0  0
    6.0136    1.7175    0.0000 C   0  0  0  0  0  0  0  0  0  0  0  0
    7.8129   -1.5748    0.0000 C   0  0  0  0  0  0  0  0  0  0  0  0
    4.0692    0.5949    0.0000 C   0  0  0  0  0  0  0  0  0  0  0  0
    8.6629   -3.1164    0.0000 C   0  0  0  0  0  0  0  0  0  0  0  0
    3.0320    2.2979    0.0000 C   0  0  0  0  0  0  0  0  0  0  0  0
    5.0649   -1.0400    0.0000 C   0  0  0  0  0  0  0  0  0  0  0  0
    6.9316    0.0378    0.0000 C   0  0  0  0  0  0  0  0  0  0  0  0
    6.9149   -6.1856    0.0000 C   0  0  0  0  0  0  0  0  0  0  0  0
    5.0949    5.9030    0.0000 C   0  0  0  0  0  0  0  0  0  0  0  0
    8.6900   -6.1206    0.0000 C   0  0  0  0  0  0  0  0  0  0  0  0
    3.0003    5.8399    0.0000 C   0  0  0  0  0  0  0  0  0  0  0  0
    6.0208   -4.6232    0.0000 C   0  0  0  0  0  0  0  0  0  0  0  0
    6.1332    4.0556    0.0000 C   0  0  0  0  0  0  0  0  0  0  0  0
    9.5223   -4.6111    0.0000 C   0  0  0  0  0  0  0  0  0  0  0  0
    2.0112    4.0628    0.0000 C   0  0  0  0  0  0  0  0  0  0  0  0
    6.0128   -5.6648    0.0000 C   0  0  0  0  0  0  0  0  0  0  0  0
    6.1521    5.2817    0.0000 C   0  0  0  0  0  0  0  0  0  0  0  0
    9.5358   -5.6028    0.0000 C   0  0  0  0  0  0  0  0  0  0  0  0
    2.0000    5.2328    0.0000 C   0  0  0  0  0  0  0  0  0  0  0  0
    6.9410   -7.2271    0.0000 C   0  0  0  0  0  0  0  0  0  0  0  0
    5.0722    7.1318    0.0000 C   0  0  0  0  0  0  0  0  0  0  0  0
    8.7402   -7.1612    0.0000 C   0  0  0  0  0  0  0  0  0  0  0  0
    2.9491    7.0679    0.0000 C   0  0  0  0  0  0  0  0  0  0  0  0
    7.8598   -7.7182    0.0000 C   0  0  0  0  0  0  0  0  0  0  0  0
    3.9920    7.7182    0.0000 C   0  0  0  0  0  0  0  0  0  0  0  0
    5.4875   -2.9257    0.0000 H   0  0  0  0  0  0  0  0  0  0  0  0
    6.5541    2.0213    0.0000 H   0  0  0  0  0  0  0  0  0  0  0  0
    8.3534   -1.2711    0.0000 H   0  0  0  0  0  0  0  0  0  0  0  0
    3.5359    0.2787    0.0000 H   0  0  0  0  0  0  0  0  0  0  0  0
    9.1998   -2.8064    0.0000 H   0  0  0  0  0  0  0  0  0  0  0  0
    2.4987    1.9817    0.0000 H   0  0  0  0  0  0  0  0  0  0  0  0
    4.5316   -1.3562    0.0000 H   0  0  0  0  0  0  0  0  0  0  0  0
    7.4721    0.3415    0.0000 H   0  0  0  0  0  0  0  0  0  0  0  0
    5.4875   -4.3070    0.0000 H   0  0  0  0  0  0  0  0  0  0  0  0
    6.6641    3.7353    0.0000 H   0  0  0  0  0  0  0  0  0  0  0  0
   10.0570   -4.2972    0.0000 H   0  0  0  0  0  0  0  0  0  0  0  0
    1.4754    3.7510    0.0000 H   0  0  0  0  0  0  0  0  0  0  0  0
    5.4747   -5.9727    0.0000 H   0  0  0  0  0  0  0  0  0  0  0  0
    6.6926    5.5854    0.0000 H   0  0  0  0  0  0  0  0  0  0  0  0
   10.0787   -5.9021    0.0000 H   0  0  0  0  0  0  0  0  0  0  0  0
    1.4582    5.5344    0.0000 H   0  0  0  0  0  0  0  0  0  0  0  0
    6.4132   -7.5525    0.0000 H   0  0  0  0  0  0  0  0  0  0  0  0
    5.6020    7.4537    0.0000 H   0  0  0  0  0  0  0  0  0  0  0  0
    9.2903   -7.4471    0.0000 H   0  0  0  0  0  0  0  0  0  0  0  0
    2.4008    7.3574    0.0000 H   0  0  0  0  0  0  0  0  0  0  0  0
    7.8824   -8.3378    0.0000 H   0  0  0  0  0  0  0  0  0  0  0  0
    3.9734    8.3379    0.0000 H   0  0  0  0  0  0  0  0  0  0  0  0
  1  5  2  0  0  0  0
  1 13  1  0  0  0  0
  1 15  1  0  0  0  0
  2  6  2  0  0  0  0
  2 14  1  0  0  0  0
  2 16  1  0  0  0  0
  3  5  1  0  0  0  0
  3  7  1  0  0  0  0
  3 17  2  0  0  0  0
  4  6  1  0  0  0  0
  4  8  1  0  0  0  0
  4 18  2  0  0  0  0
  5 29  1  0  0  0  0
  6 30  1  0  0  0  0
  7 19  2  0  0  0  0
  7 21  1  0  0  0  0
  8 20  2  0  0  0  0
  8 22  1  0  0  0  0
  9 11  2  0  0  0  0
  9 17  1  0  0  0  0
  9 23  1  0  0  0  0
 10 12  1  0  0  0  0
 10 18  1  0  0  0  0
 10 24  2  0  0  0  0
 11 19  1  0  0  0  0
 11 24  1  0  0  0  0
 12 20  1  0  0  0  0
 12 23  2  0  0  0  0
 13 25  1  0  0  0  0
 13 27  2  0  0  0  0
 14 26  1  0  0  0  0
 14 28  2  0  0  0  0
 15 21  2  0  0  0  0
 15 31  1  0  0  0  0
 16 22  2  0  0  0  0
 16 32  1  0  0  0  0
 17 43  1  0  0  0  0
 18 44  1  0  0  0  0
 19 45  1  0  0  0  0
 20 46  1  0  0  0  0
 21 47  1  0  0  0  0
 22 48  1  0  0  0  0
 23 49  1  0  0  0  0
 24 50  1  0  0  0  0
 25 33  1  0  0  0  0
 25 37  2  0  0  0  0
 26 34  1  0  0  0  0
 26 38  2  0  0  0  0
 27 35  1  0  0  0  0
 27 39  1  0  0  0  0
 28 36  1  0  0  0  0
 28 40  1  0  0  0  0
 29 33  2  0  0  0  0
 29 51  1  0  0  0  0
 30 34  2  0  0  0  0
 30 52  1  0  0  0  0
 31 35  2  0  0  0  0
 31 53  1  0  0  0  0
 32 36  2  0  0  0  0
 32 54  1  0  0  0  0
 33 55  1  0  0  0  0
 34 56  1  0  0  0  0
 35 57  1  0  0  0  0
 36 58  1  0  0  0  0
 37 41  1  0  0  0  0
 37 59  1  0  0  0  0
 38 42  1  0  0  0  0
 38 60  1  0  0  0  0
 39 41  2  0  0  0  0
 39 61  1  0  0  0  0
 40 42  2  0  0  0  0
 40 62  1  0  0  0  0
 41 63  1  0  0  0  0
 42 64  1  0  0  0  0
M  END
> <PUBCHEM_COMPOUND_CID>
9113

> <PUBCHEM_COMPOUND_CANONICALIZED>
1

> <PUBCHEM_CACTVS_COMPLEXITY>
961

> <PUBCHEM_CACTVS_HBOND_ACCEPTOR>
0

> <PUBCHEM_CACTVS_HBOND_DONOR>
0

> <PUBCHEM_CACTVS_ROTATABLE_BOND>
0

> <PUBCHEM_CACTVS_SUBSKEYS>
AAADceB8AAAAAAAAAAAAAAAAAAAAAAAAAAAwYMGDAAAAAADBVAAAGAAAAAAADACAGAAwAMAAAACAAiBCAAACAAAgAAAIiAAAAIgIICKAERCAIAAggAAIiAcAgMAOwAACAAAQAACAAAQAACAAAAAAAAAAAA==

> <PUBCHEM_IUPAC_INCHI>
InChI=1S/C42H22/c1-3-23-7-9-27-15-33-19-29-18-32-22-38-34(16-28-10-8-24-4-2-6-26-12-14-36(38)42(28)40(24)26)20-30(32)17-31(29)21-37(33)35-13-11-25(5-1)39(23)41(27)35/h1-22H

> <PUBCHEM_IUPAC_INCHIKEY>
IQAQPYAQWJUAGG-UHFFFAOYSA-N

> <PUBCHEM_XLOGP3>
12.9

> <PUBCHEM_EXACT_MASS>
526.172151

> <PUBCHEM_MOLECULAR_FORMULA>
C42H22

> <PUBCHEM_MOLECULAR_WEIGHT>
526.62408

> <PUBCHEM_OPENEYE_CAN_SMILES>
C1=CC2=C3C(=C1)C=CC4=C3C(=CC5=CC6=CC7=C(C=C8C=C9C=CC1=C3C9=C(C8=C7)C=CC3=CC=C1)C=C6C=C45)C=C2

> <PUBCHEM_OPENEYE_ISO_SMILES>
C1=CC2=C3C(=C1)C=CC4=C3C(=CC5=CC6=CC7=C(C=C8C=C9C=CC1=C3C9=C(C8=C7)C=CC3=CC=C1)C=C6C=C45)C=C2

> <PUBCHEM_CACTVS_TPSA>
0

> <PUBCHEM_MONOISOTOPIC_WEIGHT>
526.172151

> <PUBCHEM_TOTAL_CHARGE>
0

> <PUBCHEM_HEAVY_ATOM_COUNT>
42

> <PUBCHEM_ATOM_DEF_STEREO_COUNT>
0

> <PUBCHEM_ATOM_UDEF_STEREO_COUNT>
0

> <PUBCHEM_BOND_DEF_STEREO_COUNT>
0

> <PUBCHEM_BOND_UDEF_STEREO_COUNT>
0

> <PUBCHEM_ISOTOPIC_ATOM_COUNT>
0

> <PUBCHEM_COMPONENT_COUNT>
1

> <PUBCHEM_CACTVS_TAUTO_COUNT>
1

> <PUBCHEM_COORDINATE_TYPE>
1
5
255

> <PUBCHEM_BONDANNOTATIONS>
1  13  8
1  15  8
1  5  8
10  12  8
10  18  8
10  24  8
11  19  8
11  24  8
12  20  8
12  23  8
13  25  8
13  27  8
14  26  8
14  28  8
15  21  8
15  31  8
16  22  8
16  32  8
2  14  8
2  16  8
2  6  8
25  33  8
25  37  8
26  34  8
26  38  8
27  35  8
27  39  8
28  36  8
28  40  8
29  33  8
3  17  8
3  5  8
3  7  8
30  34  8
31  35  8
32  36  8
37  41  8
38  42  8
39  41  8
4  18  8
4  6  8
4  8  8
40  42  8
5  29  8
6  30  8
7  19  8
7  21  8
8  20  8
8  22  8
9  11  8
9  17  8
9  23  8

$$$$

