108192
  -OEChem-07051213013D

 69 73  0     1  0  0  0  0  0999 V2000
   -2.1941    0.8919   -0.6618 O   0  0  0  0  0  0  0  0  0  0  0  0
   -3.8626   -0.5829    0.0337 O   0  0  0  0  0  0  0  0  0  0  0  0
    8.2715   -0.4279    1.8596 O   0  0  0  0  0  0  0  0  0  0  0  0
   -3.9063    3.0674   -0.0958 O   0  0  0  0  0  0  0  0  0  0  0  0
   -6.7496    2.3222   -0.2798 O   0  0  0  0  0  0  0  0  0  0  0  0
   -7.2503   -0.0592    1.3096 O   0  0  0  0  0  0  0  0  0  0  0  0
   -6.4013   -2.6192    1.3509 O   0  0  0  0  0  0  0  0  0  0  0  0
   -4.7389   -2.9727   -0.1679 O   0  0  0  0  0  0  0  0  0  0  0  0
    1.0184   -0.8240   -0.5041 C   0  0  2  0  0  0  0  0  0  0  0  0
    0.2395    0.5010   -0.6110 C   0  0  2  0  0  0  0  0  0  0  0  0
    2.5032   -0.6659   -0.8461 C   0  0  1  0  0  0  0  0  0  0  0  0
    3.1407    0.3590    0.1444 C   0  0  1  0  0  0  0  0  0  0  0  0
    4.6867    0.5618   -0.0954 C   0  0  2  0  0  0  0  0  0  0  0  0
    0.8228    1.4786    0.4169 C   0  0  0  0  0  0  0  0  0  0  0  0
   -1.1752   -0.0125   -0.2815 C   0  0  2  0  0  0  0  0  0  0  0  0
    2.3335    1.6858    0.2054 C   0  0  0  0  0  0  0  0  0  0  0  0
    0.1691   -1.8023   -1.3115 C   0  0  0  0  0  0  0  0  0  0  0  0
    3.2422   -2.0073   -0.7643 C   0  0  0  0  0  0  0  0  0  0  0  0
   -1.2773   -1.3446   -1.0498 C   0  0  0  0  0  0  0  0  0  0  0  0
    5.3757   -0.8064   -0.1818 C   0  0  0  0  0  0  0  0  0  0  0  0
    0.2623    1.1532   -2.0170 C   0  0  0  0  0  0  0  0  0  0  0  0
    4.7245   -1.8388   -1.0715 C   0  0  0  0  0  0  0  0  0  0  0  0
    5.2643    1.3740    1.1004 C   0  0  0  0  0  0  0  0  0  0  0  0
    4.9727    1.3290   -1.4062 C   0  0  0  0  0  0  0  0  0  0  0  0
    6.7810    1.3239    1.1956 C   0  0  0  0  0  0  0  0  0  0  0  0
    6.5142   -1.1158    0.4610 C   0  0  0  0  0  0  0  0  0  0  0  0
    7.2562   -0.1038    1.2469 C   0  0  0  0  0  0  0  0  0  0  0  0
   -3.3608    0.7464    0.1472 C   0  0  2  0  0  0  0  0  0  0  0  0
   -4.4028    1.7520   -0.3429 C   0  0  1  0  0  0  0  0  0  0  0  0
   -5.7348    1.5681    0.3848 C   0  0  2  0  0  0  0  0  0  0  0  0
   -5.0174   -0.7965    0.8373 C   0  0  1  0  0  0  0  0  0  0  0  0
   -6.1665    0.1013    0.3958 C   0  0  1  0  0  0  0  0  0  0  0  0
   -5.3408   -2.2358    0.5990 C   0  0  0  0  0  0  0  0  0  0  0  0
    0.9704   -1.1731    0.5413 H   0  0  0  0  0  0  0  0  0  0  0  0
    2.5985   -0.2967   -1.8731 H   0  0  0  0  0  0  0  0  0  0  0  0
    3.0393   -0.0909    1.1458 H   0  0  0  0  0  0  0  0  0  0  0  0
    0.6636    1.0964    1.4336 H   0  0  0  0  0  0  0  0  0  0  0  0
    0.3071    2.4452    0.3674 H   0  0  0  0  0  0  0  0  0  0  0  0
   -1.2281   -0.2174    0.7981 H   0  0  0  0  0  0  0  0  0  0  0  0
    2.4878    2.2661   -0.7095 H   0  0  0  0  0  0  0  0  0  0  0  0
    2.6997    2.3083    1.0292 H   0  0  0  0  0  0  0  0  0  0  0  0
    0.3223   -2.8386   -0.9933 H   0  0  0  0  0  0  0  0  0  0  0  0
    0.3996   -1.7461   -2.3812 H   0  0  0  0  0  0  0  0  0  0  0  0
    2.8138   -2.7191   -1.4794 H   0  0  0  0  0  0  0  0  0  0  0  0
    3.1193   -2.4467    0.2342 H   0  0  0  0  0  0  0  0  0  0  0  0
   -1.8294   -1.2405   -1.9905 H   0  0  0  0  0  0  0  0  0  0  0  0
   -1.8039   -2.0936   -0.4482 H   0  0  0  0  0  0  0  0  0  0  0  0
   -0.1917    0.5145   -2.7812 H   0  0  0  0  0  0  0  0  0  0  0  0
   -0.2972    2.0960   -2.0130 H   0  0  0  0  0  0  0  0  0  0  0  0
    1.2738    1.3865   -2.3596 H   0  0  0  0  0  0  0  0  0  0  0  0
    4.8499   -1.5359   -2.1184 H   0  0  0  0  0  0  0  0  0  0  0  0
    5.2153   -2.8151   -0.9744 H   0  0  0  0  0  0  0  0  0  0  0  0
    4.8531    0.9817    2.0412 H   0  0  0  0  0  0  0  0  0  0  0  0
    4.9551    2.4243    1.0412 H   0  0  0  0  0  0  0  0  0  0  0  0
    4.4705    0.8792   -2.2684 H   0  0  0  0  0  0  0  0  0  0  0  0
    4.6452    2.3720   -1.3430 H   0  0  0  0  0  0  0  0  0  0  0  0
    6.0443    1.3457   -1.6371 H   0  0  0  0  0  0  0  0  0  0  0  0
    7.0998    1.8296    2.1139 H   0  0  0  0  0  0  0  0  0  0  0  0
    7.2595    1.8241    0.3480 H   0  0  0  0  0  0  0  0  0  0  0  0
    6.9655   -2.0995    0.3857 H   0  0  0  0  0  0  0  0  0  0  0  0
   -3.0876    0.9618    1.1895 H   0  0  0  0  0  0  0  0  0  0  0  0
   -4.5427    1.6592   -1.4271 H   0  0  0  0  0  0  0  0  0  0  0  0
   -5.6685    1.9659    1.4053 H   0  0  0  0  0  0  0  0  0  0  0  0
   -4.7605   -0.6744    1.8969 H   0  0  0  0  0  0  0  0  0  0  0  0
   -6.5272   -0.1919   -0.5987 H   0  0  0  0  0  0  0  0  0  0  0  0
   -4.5888    3.6949   -0.3894 H   0  0  0  0  0  0  0  0  0  0  0  0
   -7.5502    2.2903    0.2702 H   0  0  0  0  0  0  0  0  0  0  0  0
   -8.0111    0.4305    0.9547 H   0  0  0  0  0  0  0  0  0  0  0  0
   -6.6308   -3.5620    1.2072 H   0  0  0  0  0  0  0  0  0  0  0  0
  1 15  1  0  0  0  0
  1 28  1  0  0  0  0
  2 28  1  0  0  0  0
  2 31  1  0  0  0  0
  3 27  2  0  0  0  0
  4 29  1  0  0  0  0
  4 66  1  0  0  0  0
  5 30  1  0  0  0  0
  5 67  1  0  0  0  0
  6 32  1  0  0  0  0
  6 68  1  0  0  0  0
  7 33  1  0  0  0  0
  7 69  1  0  0  0  0
  8 33  2  0  0  0  0
  9 10  1  0  0  0  0
  9 11  1  0  0  0  0
  9 17  1  0  0  0  0
  9 34  1  0  0  0  0
 10 14  1  0  0  0  0
 10 15  1  0  0  0  0
 10 21  1  0  0  0  0
 11 12  1  0  0  0  0
 11 18  1  0  0  0  0
 11 35  1  0  0  0  0
 12 13  1  0  0  0  0
 12 16  1  0  0  0  0
 12 36  1  0  0  0  0
 13 20  1  0  0  0  0
 13 23  1  0  0  0  0
 13 24  1  0  0  0  0
 14 16  1  0  0  0  0
 14 37  1  0  0  0  0
 14 38  1  0  0  0  0
 15 19  1  0  0  0  0
 15 39  1  0  0  0  0
 16 40  1  0  0  0  0
 16 41  1  0  0  0  0
 17 19  1  0  0  0  0
 17 42  1  0  0  0  0
 17 43  1  0  0  0  0
 18 22  1  0  0  0  0
 18 44  1  0  0  0  0
 18 45  1  0  0  0  0
 19 46  1  0  0  0  0
 19 47  1  0  0  0  0
 20 22  1  0  0  0  0
 20 26  2  0  0  0  0
 21 48  1  0  0  0  0
 21 49  1  0  0  0  0
 21 50  1  0  0  0  0
 22 51  1  0  0  0  0
 22 52  1  0  0  0  0
 23 25  1  0  0  0  0
 23 53  1  0  0  0  0
 23 54  1  0  0  0  0
 24 55  1  0  0  0  0
 24 56  1  0  0  0  0
 24 57  1  0  0  0  0
 25 27  1  0  0  0  0
 25 58  1  0  0  0  0
 25 59  1  0  0  0  0
 26 27  1  0  0  0  0
 26 60  1  0  0  0  0
 28 29  1  0  0  0  0
 28 61  1  0  0  0  0
 29 30  1  0  0  0  0
 29 62  1  0  0  0  0
 30 32  1  0  0  0  0
 30 63  1  0  0  0  0
 31 32  1  0  0  0  0
 31 33  1  0  0  0  0
 31 64  1  0  0  0  0
 32 65  1  0  0  0  0
M  END
> <PUBCHEM_COMPOUND_CID>
108192

> <PUBCHEM_CONFORMER_RMSD>
0.8

> <PUBCHEM_CONFORMER_DIVERSEORDER>
1
7
10
4
26
22
13
2
3
18
9
15
6
27
8
12
16
11
28
14
19
24
20
21
23
25
5
17

> <PUBCHEM_MMFF94_PARTIAL_CHARGES>
26
1 -0.56
13 0.14
15 0.28
2 -0.56
20 -0.28
22 0.14
25 0.06
26 -0.14
27 0.49
28 0.56
29 0.28
3 -0.57
30 0.28
31 0.34
32 0.28
33 0.66
4 -0.68
5 -0.68
6 -0.68
60 0.15
66 0.4
67 0.4
68 0.4
69 0.5
7 -0.65
8 -0.57

> <PUBCHEM_EFFECTIVE_ROTOR_COUNT>
6

> <PUBCHEM_PHARMACOPHORE_FEATURES>
17
1 1 acceptor
1 2 acceptor
1 3 acceptor
1 4 acceptor
1 4 donor
1 5 acceptor
1 5 donor
1 6 acceptor
1 6 donor
1 7 acceptor
1 8 acceptor
3 7 8 33 anion
5 9 10 15 17 19 rings
6 11 12 13 18 20 22 rings
6 13 20 23 25 26 27 rings
6 2 28 29 30 31 32 rings
6 9 10 11 12 14 16 rings

> <PUBCHEM_HEAVY_ATOM_COUNT>
33

> <PUBCHEM_ATOM_DEF_STEREO_COUNT>
11

> <PUBCHEM_ATOM_UDEF_STEREO_COUNT>
0

> <PUBCHEM_BOND_DEF_STEREO_COUNT>
0

> <PUBCHEM_BOND_UDEF_STEREO_COUNT>
0

> <PUBCHEM_ISOTOPIC_ATOM_COUNT>
0

> <PUBCHEM_COMPONENT_COUNT>
1

> <PUBCHEM_CACTVS_TAUTO_COUNT>
5

> <PUBCHEM_CONFORMER_ID>
0001A6A000000001

> <PUBCHEM_MMFF94_ENERGY>
99.7536

> <PUBCHEM_FEATURE_SELFOVERLAP>
86.494

> <PUBCHEM_SHAPE_FINGERPRINT>
10 15 18335704918965808336
10100884 174 17984143656397287819
10299344 5 17775283859373207296
10319926 262 18410297995275395297
10533779 47 17822005459224894858
10835480 77 18261113032293850481
11135926 11 17846788433681169355
11646440 116 17458060456803381224
13690498 29 9943508705977288473
13782708 43 17917994979722119186
13811026 1 18410576180539265311
14251764 18 18343865498609575780
14294032 229 17604438379912046094
14341114 176 18336538396003223117
14461889 52 18408886230919804858
14747282 305 16772409494390802298
15064986 96 17822854303454744478
15348495 7 18335702706530071857
1577012 14 18060412491611334132
16994733 274 4823221593087631490
18608769 82 18334297530690821067
21033648 29 18041289802433958697
21130935 74 18413392047019410122
21150785 3 6194833791895791840
21267235 1 18261668277534612654
21424621 283 5256414902365333375
21623969 137 18259701203339034406
21781051 124 18338221710157434758
21792934 111 18188777266082325032
22149856 69 18115849906311347051
23081809 10 17561074787577659198
23522609 53 17487590070212760333
23559900 14 18410013230834251145
24771293 8 17823149947580999744
3178227 256 18186796963493139696
3383291 50 17845927425909000579
350125 39 18336539430984807645
394071 54 16225767398521327568
397830 11 18260828176760951710
4073 2 18343577426125430667
4093350 32 16225764147542093574
4144715 1 18192138502686792151
4340502 62 18261110781830896078
4403749 210 18187092723953225823
4874694 18 18337962284999275247
504843 32 16298675988188003591
5104073 3 18335135457351343114
5364581 5 18337391522336890289
6009941 240 18341334469797081369
6086070 43 16081667590259089227
9831232 110 18269548494255886310
9953998 17 18408885144598514425

> <PUBCHEM_SHAPE_MULTIPOLES>
632.17
21.64
2.63
1.36
1.62
0.42
-0.06
0.13
10.99
3.3
-0.12
-1.16
0.08
1.65

> <PUBCHEM_SHAPE_SELFOVERLAP>
1357.658

> <PUBCHEM_SHAPE_VOLUME>
343.3

> <PUBCHEM_COORDINATE_TYPE>
2
5
10

$$$$

