12067
  -OEChem-07051213143D

 19 19  0     0  0  0  0  0  0999 V2000
    3.5132   -0.2395   -0.0005 O   0  5  0  0  0  0  0  0  0  0  0  0
   -3.5130   -0.2402    0.0001 O   0  5  0  0  0  0  0  0  0  0  0  0
    2.4157   -2.1407    0.0004 O   0  0  0  0  0  0  0  0  0  0  0  0
   -2.4152   -2.1412   -0.0004 O   0  0  0  0  0  0  0  0  0  0  0  0
    2.4377   -0.8860   -0.0001 N   0  3  0  0  0  0  0  0  0  0  0  0
   -2.4375   -0.8866    0.0000 N   0  3  0  0  0  0  0  0  0  0  0  0
   -0.0002    1.9160    0.0001 C   0  0  0  0  0  0  0  0  0  0  0  0
    1.2081   -0.1762    0.0002 C   0  0  0  0  0  0  0  0  0  0  0  0
   -1.2079   -0.1765   -0.0001 C   0  0  0  0  0  0  0  0  0  0  0  0
   -1.2080    1.2184   -0.0001 C   0  0  0  0  0  0  0  0  0  0  0  0
    1.2079    1.2187    0.0001 C   0  0  0  0  0  0  0  0  0  0  0  0
    0.0002   -0.8737    0.0002 C   0  0  0  0  0  0  0  0  0  0  0  0
   -0.0010    3.4075    0.0000 C   0  0  0  0  0  0  0  0  0  0  0  0
   -2.1372    1.7839    0.0020 H   0  0  0  0  0  0  0  0  0  0  0  0
    2.1369    1.7842    0.0024 H   0  0  0  0  0  0  0  0  0  0  0  0
    0.0003   -1.9613    0.0002 H   0  0  0  0  0  0  0  0  0  0  0  0
   -0.0100    3.7830    1.0280 H   0  0  0  0  0  0  0  0  0  0  0  0
    0.8833    3.8040   -0.5104 H   0  0  0  0  0  0  0  0  0  0  0  0
   -0.8768    3.8025   -0.5260 H   0  0  0  0  0  0  0  0  0  0  0  0
  1  5  1  0  0  0  0
  2  6  1  0  0  0  0
  3  5  2  0  0  0  0
  4  6  2  0  0  0  0
  5  8  1  0  0  0  0
  6  9  1  0  0  0  0
  7 10  2  0  0  0  0
  7 11  1  0  0  0  0
  7 13  1  0  0  0  0
  8 11  2  0  0  0  0
  8 12  1  0  0  0  0
  9 10  1  0  0  0  0
  9 12  2  0  0  0  0
 10 14  1  0  0  0  0
 11 15  1  0  0  0  0
 12 16  1  0  0  0  0
 13 17  1  0  0  0  0
 13 18  1  0  0  0  0
 13 19  1  0  0  0  0
M  CHG  4   1  -1   2  -1   5   1   6   1
M  END
> <PUBCHEM_COMPOUND_CID>
12067

> <PUBCHEM_CONFORMER_RMSD>
0.6

> <PUBCHEM_CONFORMER_DIVERSEORDER>
1

> <PUBCHEM_MMFF94_PARTIAL_CHARGES>
16
1 -0.52
10 -0.15
11 -0.15
12 -0.15
13 0.14
14 0.15
15 0.15
16 0.15
2 -0.52
3 -0.52
4 -0.52
5 0.91
6 0.91
7 -0.14
8 0.13
9 0.13

> <PUBCHEM_EFFECTIVE_ROTOR_COUNT>
2

> <PUBCHEM_PHARMACOPHORE_FEATURES>
7
1 1 acceptor
1 1 anion
1 2 acceptor
1 2 anion
1 3 acceptor
1 4 acceptor
6 7 8 9 10 11 12 rings

> <PUBCHEM_HEAVY_ATOM_COUNT>
13

> <PUBCHEM_ATOM_DEF_STEREO_COUNT>
0

> <PUBCHEM_ATOM_UDEF_STEREO_COUNT>
0

> <PUBCHEM_BOND_DEF_STEREO_COUNT>
0

> <PUBCHEM_BOND_UDEF_STEREO_COUNT>
0

> <PUBCHEM_ISOTOPIC_ATOM_COUNT>
0

> <PUBCHEM_COMPONENT_COUNT>
1

> <PUBCHEM_CACTVS_TAUTO_COUNT>
1

> <PUBCHEM_CONFORMER_ID>
00002F2300000001

> <PUBCHEM_MMFF94_ENERGY>
40.4293

> <PUBCHEM_FEATURE_SELFOVERLAP>
35.684

> <PUBCHEM_SHAPE_FINGERPRINT>
1 1 17690560784372818845
14128692 85 18410851019168927068
14648413 74 18125160437995325553
16945 1 18410855464423291492
17990270 104 18195812864536082467
19021347 4 17329147386633074736
193761 8 18410856568246327936
20201158 50 18413392016300354899
20645477 70 17908718228536685207
20711985 365 18123753316240652894
20871998 184 18115592702173622916
20871998 22 18334848437598389174
21040471 1 17546164568213037760
23526114 1 18123187900786008821
23530152 11 17186155362564242439
23552423 10 18122059797961707461
23559900 14 18265060318013843506
241688 4 18411138068976602809
2748010 2 18409457976602114876
3071541 12 18122057607296927445
3071541 158 18272374122541845341
7364860 26 18120654626154043721
81228 2 18268423723233962400

> <PUBCHEM_SHAPE_MULTIPOLES>
234.09
4.16
2.91
0.57
0
2.09
0
-2.88
0
0
0
0
0.06
0

> <PUBCHEM_SHAPE_SELFOVERLAP>
492.656

> <PUBCHEM_SHAPE_VOLUME>
134

> <PUBCHEM_COORDINATE_TYPE>
2
5
10

$$$$

