5482
  -OEChem-06261200423D

 36 38  0     1  0  0  0  0  0999 V2000
   -1.7343   -1.4552   -2.6992 Cl  0  0  0  0  0  0  0  0  0  0  0  0
   -5.8775   -0.3380    0.5497 Cl  0  0  0  0  0  0  0  0  0  0  0  0
   -0.9307    3.3780    1.2951 Cl  0  0  0  0  0  0  0  0  0  0  0  0
    1.5762    4.7242    0.4698 S   0  0  0  0  0  0  0  0  0  0  0  0
    0.6907    0.1654    0.0616 O   0  0  0  0  0  0  0  0  0  0  0  0
    2.0651   -2.3552    0.5330 N   0  0  0  0  0  0  0  0  0  0  0  0
    3.9356   -3.1982   -0.2785 N   0  0  0  0  0  0  0  0  0  0  0  0
    0.0335   -1.0815   -0.2021 C   0  0  1  0  0  0  0  0  0  0  0  0
    0.6364   -2.1475    0.7355 C   0  0  0  0  0  0  0  0  0  0  0  0
   -1.4423   -0.9030   -0.0468 C   0  0  0  0  0  0  0  0  0  0  0  0
    0.2556    1.1701   -0.8371 C   0  0  0  0  0  0  0  0  0  0  0  0
   -2.3153   -1.0532   -1.1244 C   0  0  0  0  0  0  0  0  0  0  0  0
   -1.9408   -0.5783    1.2148 C   0  0  0  0  0  0  0  0  0  0  0  0
    3.0618   -1.6884    1.1687 C   0  0  0  0  0  0  0  0  0  0  0  0
    0.9696    2.4517   -0.5219 C   0  0  0  0  0  0  0  0  0  0  0  0
    2.6228   -3.2493   -0.3238 C   0  0  0  0  0  0  0  0  0  0  0  0
   -3.6869   -0.8785   -0.9402 C   0  0  0  0  0  0  0  0  0  0  0  0
   -3.3123   -0.4037    1.3990 C   0  0  0  0  0  0  0  0  0  0  0  0
   -4.1854   -0.5537    0.3215 C   0  0  0  0  0  0  0  0  0  0  0  0
    4.2158   -2.2275    0.6504 C   0  0  0  0  0  0  0  0  0  0  0  0
    2.2039    2.8046   -1.1179 C   0  0  0  0  0  0  0  0  0  0  0  0
    0.5069    3.3915    0.3577 C   0  0  0  0  0  0  0  0  0  0  0  0
    2.6518    4.0259   -0.6649 C   0  0  0  0  0  0  0  0  0  0  0  0
    0.3235   -1.3747   -1.2154 H   0  0  0  0  0  0  0  0  0  0  0  0
    0.5233   -1.8687    1.7902 H   0  0  0  0  0  0  0  0  0  0  0  0
    0.1436   -3.1171    0.5939 H   0  0  0  0  0  0  0  0  0  0  0  0
   -0.8216    1.3553   -0.7829 H   0  0  0  0  0  0  0  0  0  0  0  0
    0.4910    0.8702   -1.8665 H   0  0  0  0  0  0  0  0  0  0  0  0
   -1.2798   -0.4424    2.0662 H   0  0  0  0  0  0  0  0  0  0  0  0
    2.8837   -0.9175    1.9054 H   0  0  0  0  0  0  0  0  0  0  0  0
    2.0392   -3.9068   -0.9537 H   0  0  0  0  0  0  0  0  0  0  0  0
   -4.3694   -0.9951   -1.7796 H   0  0  0  0  0  0  0  0  0  0  0  0
   -3.6862   -0.1473    2.3869 H   0  0  0  0  0  0  0  0  0  0  0  0
    5.2340   -1.9653    0.8982 H   0  0  0  0  0  0  0  0  0  0  0  0
    2.7455    2.2058   -1.8391 H   0  0  0  0  0  0  0  0  0  0  0  0
    3.5594    4.5414   -0.9459 H   0  0  0  0  0  0  0  0  0  0  0  0
  1 12  1  0  0  0  0
  2 19  1  0  0  0  0
  3 22  1  0  0  0  0
  4 22  1  0  0  0  0
  4 23  1  0  0  0  0
  5  8  1  0  0  0  0
  5 11  1  0  0  0  0
  6  9  1  0  0  0  0
  6 14  1  0  0  0  0
  6 16  1  0  0  0  0
  7 16  2  0  0  0  0
  7 20  1  0  0  0  0
  8  9  1  0  0  0  0
  8 10  1  0  0  0  0
  8 24  1  0  0  0  0
  9 25  1  0  0  0  0
  9 26  1  0  0  0  0
 10 12  2  0  0  0  0
 10 13  1  0  0  0  0
 11 15  1  0  0  0  0
 11 27  1  0  0  0  0
 11 28  1  0  0  0  0
 12 17  1  0  0  0  0
 13 18  2  0  0  0  0
 13 29  1  0  0  0  0
 14 20  2  0  0  0  0
 14 30  1  0  0  0  0
 15 21  1  0  0  0  0
 15 22  2  0  0  0  0
 16 31  1  0  0  0  0
 17 19  2  0  0  0  0
 17 32  1  0  0  0  0
 18 19  1  0  0  0  0
 18 33  1  0  0  0  0
 20 34  1  0  0  0  0
 21 23  2  0  0  0  0
 21 35  1  0  0  0  0
 23 36  1  0  0  0  0
M  END
> <PUBCHEM_COMPOUND_CID>
5482

> <PUBCHEM_CONFORMER_RMSD>
0.8

> <PUBCHEM_CONFORMER_DIVERSEORDER>
1
51
105
91
41
170
97
101
52
121
19
103
74
94
166
125
18
47
164
89
71
137
34
126
95
5
156
64
31
119
82
21
168
68
120
46
129
29
149
88
135
54
75
80
61
106
155
147
78
100
165
107
148
45
102
79
140
16
130
15
62
175
57
144
44
87
160
172
158
84
49
7
90
169
14
171
70
99
65
161
3
77
138
162
114
86
2
33
109
20
63
150
50
134
173
40
122
9
128
83
93
145
56
25
96
6
116
174
30
28
154
69
53
153
146
17
22
59
159
10
113
127
143
35
12
73
23
58
139
4
167
24
152
37
123
43
132
76
136
133
39
8
176
32
36
131
38
11
151
26
141
81
55
27
60
85
115
72
104
13
67
42
157
163
124
66
48
117
111
92
112
108
110
98
142
118

> <PUBCHEM_MMFF94_PARTIAL_CHARGES>
31
1 -0.18
10 -0.14
11 0.46
12 0.18
13 -0.15
14 -0.3
15 -0.18
16 0.04
17 -0.15
18 -0.15
19 0.18
2 -0.18
20 0.08
21 -0.15
22 0.16
23 -0.11
29 0.15
3 -0.12
30 0.15
31 0.15
32 0.15
33 0.15
34 0.15
35 0.15
36 0.15
4 -0.08
5 -0.56
6 0.05
7 -0.57
8 0.42
9 0.26

> <PUBCHEM_EFFECTIVE_ROTOR_COUNT>
6

> <PUBCHEM_PHARMACOPHORE_FEATURES>
5
1 5 acceptor
3 6 7 16 cation
5 4 15 21 22 23 rings
5 6 7 14 16 20 rings
6 10 12 13 17 18 19 rings

> <PUBCHEM_HEAVY_ATOM_COUNT>
23

> <PUBCHEM_ATOM_DEF_STEREO_COUNT>
0

> <PUBCHEM_ATOM_UDEF_STEREO_COUNT>
1

> <PUBCHEM_BOND_DEF_STEREO_COUNT>
0

> <PUBCHEM_BOND_UDEF_STEREO_COUNT>
0

> <PUBCHEM_ISOTOPIC_ATOM_COUNT>
0

> <PUBCHEM_COMPONENT_COUNT>
1

> <PUBCHEM_CACTVS_TAUTO_COUNT>
1

> <PUBCHEM_CONFORMER_ID>
0000156A00000001

> <PUBCHEM_MMFF94_ENERGY>
41.8146

> <PUBCHEM_FEATURE_SELFOVERLAP>
25.371

> <PUBCHEM_SHAPE_FINGERPRINT>
10006869 2 17261881460559440649
10074138 170 17549280566717001459
10165383 225 17842823439747166021
10756046 70 18186807959173965455
1100329 8 18195244417551971416
11036077 51 17401207768479239872
11578080 2 17101760552563323042
12160290 23 17400958642995424168
12173636 292 17474667252632356565
12788726 201 17695637633205870482
12930653 34 17838042707634790611
13004483 165 18122638411482048635
13140716 1 17981607070354527472
133893 2 17911555049517876399
13681431 1 18341345430474200530
14713325 29 17616816969263942638
14955137 171 18410003368845703399
15842332 3 17896893053957176879
17913733 40 17979616962877180107
17980427 23 18042117834070150577
17980427 26 18119535336133506565
1813 80 18261947574008518390
18785283 64 18129942256655454511
21033648 29 17679043709858098475
21041028 32 18339359781241483925
21120745 212 18050269656154360212
21202864 24 17614837848064440192
21304303 282 6473588409309244872
21344244 78 18334020497221933083
21524375 3 17758663465477208397
23175994 123 18272086166776008707
23419403 2 17917725599014585967
23558518 356 16683749497483916559
23559900 14 18412831274783212971
266924 1 17899145914532910143
283562 15 17983855872207882370
3091708 16 9069641048685271328
3187 122 18054254243385841904
3610482 184 17048755374139164622
513202 73 17760073417009726135
532947 4 18267017259479308372
5385378 56 18267856195230674985
7471813 234 18334582364848960609
81228 2 17909002237116111618
84936 182 18119529834565125873
9981440 41 17762343513610037033

> <PUBCHEM_SHAPE_MULTIPOLES>
466.96
7.74
6.03
1.57
8.61
3.04
0.71
-1.41
-0.9
-10.64
-0.74
0.89
-0.22
-1.66

> <PUBCHEM_SHAPE_SELFOVERLAP>
964.003

> <PUBCHEM_SHAPE_VOLUME>
271.7

> <PUBCHEM_COORDINATE_TYPE>
2
5
10

$$$$

