439751
  -OEChem-07051212473D

 16 15  0     0  0  0  0  0  0999 V2000
   -2.2347   -0.1193    0.0124 S   0  0  0  0  0  0  0  0  0  0  0  0
   -0.6733    0.3798    0.0054 O   0  0  0  0  0  0  0  0  0  0  0  0
    4.1256   -0.0442   -0.0007 O   0  0  0  0  0  0  0  0  0  0  0  0
   -3.0773    1.2657   -0.1696 O   0  0  0  0  0  0  0  0  0  0  0  0
    1.8302    1.3449    0.0024 O   0  0  0  0  0  0  0  0  0  0  0  0
   -2.4499   -0.9212   -1.1778 O   0  0  0  0  0  0  0  0  0  0  0  0
   -2.5445   -0.6613    1.3223 O   0  0  0  0  0  0  0  0  0  0  0  0
    0.3724   -0.5689    0.0103 C   0  0  0  0  0  0  0  0  0  0  0  0
    1.7219    0.1195    0.0024 C   0  0  0  0  0  0  0  0  0  0  0  0
    2.9297   -0.7949   -0.0072 C   0  0  0  0  0  0  0  0  0  0  0  0
    0.3017   -1.1859    0.9114 H   0  0  0  0  0  0  0  0  0  0  0  0
    0.3006   -1.1983   -0.8821 H   0  0  0  0  0  0  0  0  0  0  0  0
    2.9081   -1.4037   -0.9149 H   0  0  0  0  0  0  0  0  0  0  0  0
    2.9094   -1.4434    0.8730 H   0  0  0  0  0  0  0  0  0  0  0  0
   -2.8003    2.0077    0.4175 H   0  0  0  0  0  0  0  0  0  0  0  0
    4.1691    0.4293    0.8476 H   0  0  0  0  0  0  0  0  0  0  0  0
  1  2  1  0  0  0  0
  1  4  1  0  0  0  0
  1  6  2  0  0  0  0
  1  7  2  0  0  0  0
  2  8  1  0  0  0  0
  3 10  1  0  0  0  0
  3 16  1  0  0  0  0
  4 15  1  0  0  0  0
  5  9  2  0  0  0  0
  8  9  1  0  0  0  0
  8 11  1  0  0  0  0
  8 12  1  0  0  0  0
  9 10  1  0  0  0  0
 10 13  1  0  0  0  0
 10 14  1  0  0  0  0
M  END
> <PUBCHEM_COMPOUND_CID>
439751

> <PUBCHEM_CONFORMER_RMSD>
0.6

> <PUBCHEM_CONFORMER_DIVERSEORDER>
1
17
24
8
11
7
6
23
12
16
21
20
3
18
2
19
14
5
15
22
10
4
9
13

> <PUBCHEM_MMFF94_PARTIAL_CHARGES>
12
1 1.67
10 0.34
15 0.5
16 0.4
2 -0.46
3 -0.68
4 -0.68
5 -0.57
6 -0.65
7 -0.65
8 0.34
9 0.45

> <PUBCHEM_EFFECTIVE_ROTOR_COUNT>
4

> <PUBCHEM_PHARMACOPHORE_FEATURES>
7
1 3 acceptor
1 3 donor
1 4 acceptor
1 5 acceptor
1 6 acceptor
1 7 acceptor
4 1 4 6 7 anion

> <PUBCHEM_HEAVY_ATOM_COUNT>
10

> <PUBCHEM_ATOM_DEF_STEREO_COUNT>
0

> <PUBCHEM_ATOM_UDEF_STEREO_COUNT>
0

> <PUBCHEM_BOND_DEF_STEREO_COUNT>
0

> <PUBCHEM_BOND_UDEF_STEREO_COUNT>
0

> <PUBCHEM_ISOTOPIC_ATOM_COUNT>
0

> <PUBCHEM_COMPONENT_COUNT>
1

> <PUBCHEM_CACTVS_TAUTO_COUNT>
4

> <PUBCHEM_CONFORMER_ID>
0006B5C700000001

> <PUBCHEM_MMFF94_ENERGY>
0.3018

> <PUBCHEM_FEATURE_SELFOVERLAP>
35.587

> <PUBCHEM_SHAPE_FINGERPRINT>
11062470 55 18187085078810783000
12932741 1 17560807580334586373
12932764 1 18187360995804485008
14325111 11 18410575080642411734
20645477 70 18189056571911115310
3248919 1 17917715673308033124

> <PUBCHEM_SHAPE_MULTIPOLES>
174.43
6.25
1.09
0.83
2.61
0.22
0.06
-0.04
-0.01
-0.21
-0.06
-0.67
-0.22
0.02

> <PUBCHEM_SHAPE_SELFOVERLAP>
317.62

> <PUBCHEM_SHAPE_VOLUME>
110.8

> <PUBCHEM_COORDINATE_TYPE>
2
5
10

$$$$

