167691
  -OEChem-07051213003D

 74 79  0     1  0  0  0  0  0999 V2000
   -3.9498   -1.5168   -1.3575 O   0  0  0  0  0  0  0  0  0  0  0  0
    5.1013   -2.2841   -1.0590 O   0  0  0  0  0  0  0  0  0  0  0  0
    7.4104    2.1997   -0.0151 O   0  0  0  0  0  0  0  0  0  0  0  0
   -3.6673    1.1074    0.0414 N   0  0  1  0  0  0  0  0  0  0  0  0
   -0.2005   -0.3842    0.7842 C   0  0  2  0  0  0  0  0  0  0  0  0
    0.5071   -1.7372    0.5063 C   0  0  2  0  0  0  0  0  0  0  0  0
    2.1424    0.0268    0.5003 C   0  0  2  0  0  0  0  0  0  0  0  0
    1.8596   -1.3513   -0.1143 C   0  0  1  0  0  0  0  0  0  0  0  0
   -1.6025   -0.2801    0.1534 C   0  0  1  0  0  0  0  0  0  0  0  0
    0.7886    0.7102    0.3312 C   0  0  0  0  0  0  0  0  0  0  0  0
    3.4147    0.6908   -0.0900 C   0  0  2  0  0  0  0  0  0  0  0  0
   -2.4309   -1.5202    0.5478 C   0  0  2  0  0  0  0  0  0  0  0  0
   -0.3026   -2.6642   -0.3941 C   0  0  0  0  0  0  0  0  0  0  0  0
    4.5932   -0.2823    0.2177 C   0  0  1  0  0  0  0  0  0  0  0  0
   -1.7431   -2.8307    0.0855 C   0  0  0  0  0  0  0  0  0  0  0  0
   -3.9069   -1.3953    0.0699 C   0  0  1  0  0  0  0  0  0  0  0  0
    3.0080   -2.3213    0.1207 C   0  0  0  0  0  0  0  0  0  0  0  0
   -2.3106    1.0046    0.5993 C   0  0  0  0  0  0  0  0  0  0  0  0
   -4.5254   -0.0171    0.4873 C   0  0  2  0  0  0  0  0  0  0  0  0
    3.6983    2.0340    0.6306 C   0  0  0  0  0  0  0  0  0  0  0  0
    4.3078   -1.6784   -0.3417 C   0  0  0  0  0  0  0  0  0  0  0  0
    3.2749    0.9587   -1.6093 C   0  0  0  0  0  0  0  0  0  0  0  0
    5.9497    0.2852   -0.2005 C   0  0  0  0  0  0  0  0  0  0  0  0
    5.0690    2.6240    0.2855 C   0  0  0  0  0  0  0  0  0  0  0  0
    6.2089    1.6263    0.4900 C   0  0  2  0  0  0  0  0  0  0  0  0
   -5.9602    0.1517   -0.0729 C   0  0  0  0  0  0  0  0  0  0  0  0
   -4.2357    2.4149    0.4175 C   0  0  0  0  0  0  0  0  0  0  0  0
   -4.7417   -2.5603    0.6324 C   0  0  0  0  0  0  0  0  0  0  0  0
   -5.6264    2.6533   -0.1818 C   0  0  2  0  0  0  0  0  0  0  0  0
   -6.5597    1.5197    0.2391 C   0  0  0  0  0  0  0  0  0  0  0  0
   -5.5705    2.8163   -1.7038 C   0  0  0  0  0  0  0  0  0  0  0  0
   -0.3060   -0.2971    1.8761 H   0  0  0  0  0  0  0  0  0  0  0  0
    0.6708   -2.2402    1.4693 H   0  0  0  0  0  0  0  0  0  0  0  0
    2.3076   -0.1026    1.5824 H   0  0  0  0  0  0  0  0  0  0  0  0
    1.7223   -1.2455   -1.1985 H   0  0  0  0  0  0  0  0  0  0  0  0
   -1.4973   -0.2470   -0.9401 H   0  0  0  0  0  0  0  0  0  0  0  0
    0.6011    0.9870   -0.7115 H   0  0  0  0  0  0  0  0  0  0  0  0
    0.7026    1.6111    0.9464 H   0  0  0  0  0  0  0  0  0  0  0  0
   -2.4565   -1.5496    1.6484 H   0  0  0  0  0  0  0  0  0  0  0  0
    0.1800   -3.6469   -0.4551 H   0  0  0  0  0  0  0  0  0  0  0  0
   -0.3213   -2.2712   -1.4189 H   0  0  0  0  0  0  0  0  0  0  0  0
    4.6468   -0.4321    1.3075 H   0  0  0  0  0  0  0  0  0  0  0  0
   -2.3036   -3.3170   -0.7209 H   0  0  0  0  0  0  0  0  0  0  0  0
   -1.7565   -3.5377    0.9254 H   0  0  0  0  0  0  0  0  0  0  0  0
    2.8457   -3.2489   -0.4379 H   0  0  0  0  0  0  0  0  0  0  0  0
    3.1141   -2.5761    1.1807 H   0  0  0  0  0  0  0  0  0  0  0  0
   -2.3404    1.0577    1.6963 H   0  0  0  0  0  0  0  0  0  0  0  0
   -1.7191    1.8614    0.2535 H   0  0  0  0  0  0  0  0  0  0  0  0
   -4.5900    0.0083    1.5853 H   0  0  0  0  0  0  0  0  0  0  0  0
    3.6533    1.8838    1.7174 H   0  0  0  0  0  0  0  0  0  0  0  0
    2.9212    2.7692    0.3883 H   0  0  0  0  0  0  0  0  0  0  0  0
    4.1670    1.4270   -2.0348 H   0  0  0  0  0  0  0  0  0  0  0  0
    3.1117    0.0428   -2.1838 H   0  0  0  0  0  0  0  0  0  0  0  0
    2.4409    1.6369   -1.8166 H   0  0  0  0  0  0  0  0  0  0  0  0
    6.7518   -0.4160    0.0651 H   0  0  0  0  0  0  0  0  0  0  0  0
    6.0241    0.3918   -1.2895 H   0  0  0  0  0  0  0  0  0  0  0  0
    5.0782    2.9951   -0.7465 H   0  0  0  0  0  0  0  0  0  0  0  0
    5.2510    3.5121    0.9040 H   0  0  0  0  0  0  0  0  0  0  0  0
    6.3483    1.4619    1.5654 H   0  0  0  0  0  0  0  0  0  0  0  0
   -6.6256   -0.6034    0.3590 H   0  0  0  0  0  0  0  0  0  0  0  0
   -5.9714   -0.0058   -1.1578 H   0  0  0  0  0  0  0  0  0  0  0  0
   -3.5721    3.2191    0.0743 H   0  0  0  0  0  0  0  0  0  0  0  0
   -4.2968    2.5010    1.5112 H   0  0  0  0  0  0  0  0  0  0  0  0
   -5.7461   -2.5843    0.1979 H   0  0  0  0  0  0  0  0  0  0  0  0
   -4.3054   -3.5322    0.3800 H   0  0  0  0  0  0  0  0  0  0  0  0
   -4.8298   -2.4990    1.7218 H   0  0  0  0  0  0  0  0  0  0  0  0
   -6.0221    3.5905    0.2304 H   0  0  0  0  0  0  0  0  0  0  0  0
   -7.5358    1.6202   -0.2496 H   0  0  0  0  0  0  0  0  0  0  0  0
   -6.7417    1.5878    1.3194 H   0  0  0  0  0  0  0  0  0  0  0  0
   -3.5452   -0.7193   -1.7382 H   0  0  0  0  0  0  0  0  0  0  0  0
   -4.9461    3.6750   -1.9733 H   0  0  0  0  0  0  0  0  0  0  0  0
   -5.1569    1.9357   -2.2046 H   0  0  0  0  0  0  0  0  0  0  0  0
   -6.5723    2.9945   -2.1088 H   0  0  0  0  0  0  0  0  0  0  0  0
    8.1266    1.5595    0.1356 H   0  0  0  0  0  0  0  0  0  0  0  0
  1 16  1  0  0  0  0
  1 70  1  0  0  0  0
  2 21  2  0  0  0  0
  3 25  1  0  0  0  0
  3 74  1  0  0  0  0
  4 18  1  0  0  0  0
  4 19  1  0  0  0  0
  4 27  1  0  0  0  0
  5  6  1  0  0  0  0
  5  9  1  0  0  0  0
  5 10  1  0  0  0  0
  5 32  1  0  0  0  0
  6  8  1  0  0  0  0
  6 13  1  0  0  0  0
  6 33  1  0  0  0  0
  7  8  1  0  0  0  0
  7 10  1  0  0  0  0
  7 11  1  0  0  0  0
  7 34  1  0  0  0  0
  8 17  1  0  0  0  0
  8 35  1  0  0  0  0
  9 12  1  0  0  0  0
  9 18  1  0  0  0  0
  9 36  1  0  0  0  0
 10 37  1  0  0  0  0
 10 38  1  0  0  0  0
 11 14  1  0  0  0  0
 11 20  1  0  0  0  0
 11 22  1  0  0  0  0
 12 15  1  0  0  0  0
 12 16  1  0  0  0  0
 12 39  1  0  0  0  0
 13 15  1  0  0  0  0
 13 40  1  0  0  0  0
 13 41  1  0  0  0  0
 14 21  1  0  0  0  0
 14 23  1  0  0  0  0
 14 42  1  0  0  0  0
 15 43  1  0  0  0  0
 15 44  1  0  0  0  0
 16 19  1  0  0  0  0
 16 28  1  0  0  0  0
 17 21  1  0  0  0  0
 17 45  1  0  0  0  0
 17 46  1  0  0  0  0
 18 47  1  0  0  0  0
 18 48  1  0  0  0  0
 19 26  1  0  0  0  0
 19 49  1  0  0  0  0
 20 24  1  0  0  0  0
 20 50  1  0  0  0  0
 20 51  1  0  0  0  0
 22 52  1  0  0  0  0
 22 53  1  0  0  0  0
 22 54  1  0  0  0  0
 23 25  1  0  0  0  0
 23 55  1  0  0  0  0
 23 56  1  0  0  0  0
 24 25  1  0  0  0  0
 24 57  1  0  0  0  0
 24 58  1  0  0  0  0
 25 59  1  0  0  0  0
 26 30  1  0  0  0  0
 26 60  1  0  0  0  0
 26 61  1  0  0  0  0
 27 29  1  0  0  0  0
 27 62  1  0  0  0  0
 27 63  1  0  0  0  0
 28 64  1  0  0  0  0
 28 65  1  0  0  0  0
 28 66  1  0  0  0  0
 29 30  1  0  0  0  0
 29 31  1  0  0  0  0
 29 67  1  0  0  0  0
 30 68  1  0  0  0  0
 30 69  1  0  0  0  0
 31 71  1  0  0  0  0
 31 72  1  0  0  0  0
 31 73  1  0  0  0  0
M  END
> <PUBCHEM_COMPOUND_CID>
167691

> <PUBCHEM_CONFORMER_RMSD>
0.8

> <PUBCHEM_CONFORMER_DIVERSEORDER>
1
3
2

> <PUBCHEM_MMFF94_PARTIAL_CHARGES>
14
1 -0.68
14 0.06
16 0.28
17 0.06
18 0.27
19 0.27
2 -0.57
21 0.45
25 0.28
27 0.27
3 -0.68
4 -0.81
70 0.4
74 0.4

> <PUBCHEM_EFFECTIVE_ROTOR_COUNT>
2.8

> <PUBCHEM_PHARMACOPHORE_FEATURES>
12
1 1 acceptor
1 1 donor
1 2 acceptor
1 3 acceptor
1 3 donor
1 4 cation
5 5 6 7 8 10 rings
6 11 14 20 23 24 25 rings
6 4 19 26 27 29 30 rings
6 4 9 12 16 18 19 rings
6 5 6 9 12 13 15 rings
6 7 8 11 14 17 21 rings

> <PUBCHEM_HEAVY_ATOM_COUNT>
31

> <PUBCHEM_ATOM_DEF_STEREO_COUNT>
12

> <PUBCHEM_ATOM_UDEF_STEREO_COUNT>
0

> <PUBCHEM_BOND_DEF_STEREO_COUNT>
0

> <PUBCHEM_BOND_UDEF_STEREO_COUNT>
0

> <PUBCHEM_ISOTOPIC_ATOM_COUNT>
0

> <PUBCHEM_COMPONENT_COUNT>
1

> <PUBCHEM_CACTVS_TAUTO_COUNT>
3

> <PUBCHEM_CONFORMER_ID>
00028F0B00000001

> <PUBCHEM_MMFF94_ENERGY>
93.1328

> <PUBCHEM_FEATURE_SELFOVERLAP>
61.077

> <PUBCHEM_SHAPE_FINGERPRINT>
10 15 18201997725111995329
10050765 1 18410855456039767538
10411042 1 17690560785133214675
10595046 47 18408325471220239187
10835480 77 18408606967645438656
12107183 9 18198352955688010778
12236239 1 18130792218236352746
12403259 415 18412539929132346331
12422481 6 17417810694780143805
12788726 201 17240472641662915464
13073987 5 18343582919278131362
13690498 29 17605287181587874023
13911987 19 17095238107789760223
14394314 77 18336260232811249801
14790565 3 18410008879562420779
14950920 106 14189278375492915869
15183329 4 18333448763538378881
15196674 1 18409446981480627379
15289351 153 17894351082612445760
15320467 1 18410292536014330993
15400415 2 18408885097232600146
17844677 252 18411692171524169467
18608769 82 18338795599286960123
20511986 3 18340497732541644611
20715895 44 18410013277619312464
21033648 144 18342746242916920197
21033648 29 16988569056293885759
21236236 1 18409167680331959171
21279426 13 18335697282213412006
21298829 104 18412261722942778884
21304253 335 18343015588763588086
21424621 283 18060137652105595786
21859007 373 17916033536582399956
22393880 68 18410006667232562375
23559900 14 18260272983381128874
23569914 152 17174599972377424828
23569914 2 17762671365460207469
249057 3 18336826519584397110
2747138 104 18057586699858213467
2838139 119 18411424994292854181
3004659 81 18339077198348113186
335352 9 18337668728675264894
34797466 226 17895185614855540983
350125 39 18409728452135646274
4073 2 18273209768764533290
4098825 35 18335421270498255891
4144715 1 18271795839587150675
5104073 3 18272650155779103219
5283173 99 18409167679883767904
6086070 43 17385733460651446928
9981440 41 18272364257413618387

> <PUBCHEM_SHAPE_MULTIPOLES>
615.38
17.56
3.58
0.99
2.92
0.05
0.32
-11.81
1.37
-1.34
0.33
-0.27
-0.21
1.44

> <PUBCHEM_SHAPE_SELFOVERLAP>
1320.101

> <PUBCHEM_SHAPE_VOLUME>
336.3

> <PUBCHEM_COORDINATE_TYPE>
2
5
10

$$$$

