8325
  -OEChem-06261202443D

 38 41  0     0  0  0  0  0  0999 V2000
    6.0993   -0.1514    0.1740 Cl  0  0  0  0  0  0  0  0  0  0  0  0
   -0.1228   -1.4361   -0.0811 O   0  0  0  0  0  0  0  0  0  0  0  0
    4.1406    1.7819   -0.0023 O   0  0  0  0  0  0  0  0  0  0  0  0
   -3.3194    2.0285    0.7706 O   0  0  0  0  0  0  0  0  0  0  0  0
   -1.7491    0.6028   -0.2421 N   0  0  0  0  0  0  0  0  0  0  0  0
    0.7060    0.7832   -0.1295 C   0  0  0  0  0  0  0  0  0  0  0  0
    1.8361    1.6033   -0.1073 C   0  0  0  0  0  0  0  0  0  0  0  0
    2.1965   -1.2751    0.0261 C   0  0  0  0  0  0  0  0  0  0  0  0
    3.3266   -0.4550    0.0487 C   0  0  0  0  0  0  0  0  0  0  0  0
    0.8449   -0.6858   -0.0635 C   0  0  0  0  0  0  0  0  0  0  0  0
   -0.5694    1.3542   -0.2147 C   0  0  0  0  0  0  0  0  0  0  0  0
    3.1877    1.0142   -0.0174 C   0  0  0  0  0  0  0  0  0  0  0  0
    1.6908    2.9944   -0.1701 C   0  0  0  0  0  0  0  0  0  0  0  0
   -0.7098    2.7409   -0.2771 C   0  0  0  0  0  0  0  0  0  0  0  0
    2.3419   -2.6661    0.0888 C   0  0  0  0  0  0  0  0  0  0  0  0
    4.6020   -1.0260    0.1346 C   0  0  0  0  0  0  0  0  0  0  0  0
    0.4179    3.5593   -0.2547 C   0  0  0  0  0  0  0  0  0  0  0  0
    3.6147   -3.2310    0.1741 C   0  0  0  0  0  0  0  0  0  0  0  0
    4.7424   -2.4127    0.1971 C   0  0  0  0  0  0  0  0  0  0  0  0
   -3.0121    0.9690    0.2350 C   0  0  0  0  0  0  0  0  0  0  0  0
   -4.0701   -0.0646    0.0876 C   0  0  0  0  0  0  0  0  0  0  0  0
   -5.1288   -0.0633    0.9713 C   0  0  0  0  0  0  0  0  0  0  0  0
   -3.9587   -0.9905   -0.9283 C   0  0  0  0  0  0  0  0  0  0  0  0
   -6.1219   -1.0330    0.8329 C   0  0  0  0  0  0  0  0  0  0  0  0
   -4.9519   -1.9600   -1.0667 C   0  0  0  0  0  0  0  0  0  0  0  0
   -6.0334   -1.9813   -0.1860 C   0  0  0  0  0  0  0  0  0  0  0  0
    2.5515    3.6575   -0.1571 H   0  0  0  0  0  0  0  0  0  0  0  0
   -1.6718    3.2301   -0.3904 H   0  0  0  0  0  0  0  0  0  0  0  0
    1.4801   -3.3279    0.0729 H   0  0  0  0  0  0  0  0  0  0  0  0
    0.3070    4.6382   -0.3140 H   0  0  0  0  0  0  0  0  0  0  0  0
   -1.6117   -0.3814   -0.4494 H   0  0  0  0  0  0  0  0  0  0  0  0
    3.7265   -4.3104    0.2229 H   0  0  0  0  0  0  0  0  0  0  0  0
    5.7227   -2.8786    0.2642 H   0  0  0  0  0  0  0  0  0  0  0  0
   -5.2109    0.6634    1.7740 H   0  0  0  0  0  0  0  0  0  0  0  0
   -3.1525   -0.9866   -1.6548 H   0  0  0  0  0  0  0  0  0  0  0  0
   -6.9636   -1.0505    1.5191 H   0  0  0  0  0  0  0  0  0  0  0  0
   -4.8878   -2.6938   -1.8650 H   0  0  0  0  0  0  0  0  0  0  0  0
   -6.8075   -2.7353   -0.2948 H   0  0  0  0  0  0  0  0  0  0  0  0
  1 16  1  0  0  0  0
  2 10  2  0  0  0  0
  3 12  2  0  0  0  0
  4 20  2  0  0  0  0
  5 11  1  0  0  0  0
  5 20  1  0  0  0  0
  5 31  1  0  0  0  0
  6  7  2  0  0  0  0
  6 10  1  0  0  0  0
  6 11  1  0  0  0  0
  7 12  1  0  0  0  0
  7 13  1  0  0  0  0
  8  9  2  0  0  0  0
  8 10  1  0  0  0  0
  8 15  1  0  0  0  0
  9 12  1  0  0  0  0
  9 16  1  0  0  0  0
 11 14  2  0  0  0  0
 13 17  2  0  0  0  0
 13 27  1  0  0  0  0
 14 17  1  0  0  0  0
 14 28  1  0  0  0  0
 15 18  2  0  0  0  0
 15 29  1  0  0  0  0
 16 19  2  0  0  0  0
 17 30  1  0  0  0  0
 18 19  1  0  0  0  0
 18 32  1  0  0  0  0
 19 33  1  0  0  0  0
 20 21  1  0  0  0  0
 21 22  2  0  0  0  0
 21 23  1  0  0  0  0
 22 24  1  0  0  0  0
 22 34  1  0  0  0  0
 23 25  2  0  0  0  0
 23 35  1  0  0  0  0
 24 26  2  0  0  0  0
 24 36  1  0  0  0  0
 25 26  1  0  0  0  0
 25 37  1  0  0  0  0
 26 38  1  0  0  0  0
M  END
> <PUBCHEM_COMPOUND_CID>
8325

> <PUBCHEM_CONFORMER_RMSD>
0.6

> <PUBCHEM_CONFORMER_DIVERSEORDER>
2
4
3
1

> <PUBCHEM_MMFF94_PARTIAL_CHARGES>
38
1 -0.18
10 0.4
11 0.12
12 0.4
13 -0.15
14 -0.15
15 -0.15
16 0.18
17 -0.15
18 -0.15
19 -0.15
2 -0.57
20 0.54
21 0.09
22 -0.15
23 -0.15
24 -0.15
25 -0.15
26 -0.15
27 0.15
28 0.15
29 0.15
3 -0.57
30 0.15
31 0.37
32 0.15
33 0.15
34 0.15
35 0.15
36 0.15
37 0.15
38 0.15
4 -0.57
5 -0.55
6 0.09
7 0.09
8 0.09
9 0.09

> <PUBCHEM_EFFECTIVE_ROTOR_COUNT>
3

> <PUBCHEM_PHARMACOPHORE_FEATURES>
8
1 2 acceptor
1 3 acceptor
1 4 acceptor
1 5 donor
6 21 22 23 24 25 26 rings
6 6 7 11 13 14 17 rings
6 6 7 8 9 10 12 rings
6 8 9 15 16 18 19 rings

> <PUBCHEM_HEAVY_ATOM_COUNT>
26

> <PUBCHEM_ATOM_DEF_STEREO_COUNT>
0

> <PUBCHEM_ATOM_UDEF_STEREO_COUNT>
0

> <PUBCHEM_BOND_DEF_STEREO_COUNT>
0

> <PUBCHEM_BOND_UDEF_STEREO_COUNT>
0

> <PUBCHEM_ISOTOPIC_ATOM_COUNT>
0

> <PUBCHEM_COMPONENT_COUNT>
1

> <PUBCHEM_CACTVS_TAUTO_COUNT>
5

> <PUBCHEM_CONFORMER_ID>
0000208500000002

> <PUBCHEM_MMFF94_ENERGY>
95.0757

> <PUBCHEM_FEATURE_SELFOVERLAP>
40.637

> <PUBCHEM_SHAPE_FINGERPRINT>
10411042 1 18339643451131281030
10622 236 17679886825119143751
1100329 8 18266179426807290310
11578080 2 16880212009473195922
11963148 33 18341620321562614954
12107183 9 18263633139089076825
12166972 35 17846776304160139222
12236239 1 18040711425437979609
12422481 6 17313386793755577878
12596602 18 17313383396393910650
12623949 98 17822564031957568470
13009979 54 18041271170802668057
13140716 1 17976824181388107656
13533116 47 18337107861490448417
13544653 18 18272081738437548445
1361 2 18340205172803229216
138480 1 18411419488377467460
13862211 1 18412829084001127706
13911852 28 18339364166334742223
14341114 176 18407754833570497331
1454969 45 18412543181287999660
14767858 380 18200297871824892742
14787075 74 18201716275920801714
14790565 3 17908415858386032012
14849402 71 18116434739625100584
14863182 85 18340764854270382876
15196674 1 18411136969485976169
15250474 111 18115876204998026327
15352361 1 18411982489938632811
15361156 5 17986090015305076588
15927050 60 17759521067583503292
16110190 28 18261388975373633423
17492 89 18123754416296138802
17857418 61 18408042914201751383
19141452 34 18120371210105602281
19319366 153 17614000686620649813
19591789 44 18410858806197972238
20028762 73 18259987037502517727
21197605 99 18336825269517052098
21267235 1 18409724071696415038
221490 88 18341333382890618100
22393880 68 17917162692506501391
22950370 63 18338513139823306151
23522609 53 18122309537194024684
23559900 14 18410865335065272417
24771293 8 18188501160094536872
314194 84 18411133602584842723
3421961 26 18410575063341574169
3737641 26 18263923413773372574
3882209 13 17119491359036640259
4073 2 18130219347119656339
4461854 278 17968366849812330967
46194498 28 17417534597039190829
463206 1 18339922606556860371
5104073 3 18262243338478053704
6431902 208 18412545418517730339
7970288 3 18339646736491813739
9709674 26 18343015554720243691

> <PUBCHEM_SHAPE_MULTIPOLES>
514.35
13.64
3.79
0.79
10.71
1.17
0.01
-9.7
-1.41
-2.21
0.24
0.78
-0.11
-0.82

> <PUBCHEM_SHAPE_SELFOVERLAP>
1154.215

> <PUBCHEM_SHAPE_VOLUME>
270.2

> <PUBCHEM_COORDINATE_TYPE>
2
5
10

$$$$

