5844
  -OEChem-06261200552D

 26 27  0     0  0  0  0  0  0999 V2000
    3.7321    2.3450    0.0000 S   0  0  0  0  0  0  0  0  0  0  0  0
    2.0000   -0.6550    0.0000 O   0  0  0  0  0  0  0  0  0  0  0  0
    5.4641   -0.6550    0.0000 O   0  0  0  0  0  0  0  0  0  0  0  0
    2.8660    0.8450    0.0000 N   0  0  0  0  0  0  0  0  0  0  0  0
    4.5981    0.8450    0.0000 N   0  0  0  0  0  0  0  0  0  0  0  0
    3.7321   -0.6550    0.0000 C   0  0  0  0  0  0  0  0  0  0  0  0
    4.5981   -1.1550    0.0000 C   0  0  0  0  0  0  0  0  0  0  0  0
    2.8660   -1.1550    0.0000 C   0  0  0  0  0  0  0  0  0  0  0  0
    4.5981   -2.1550    0.0000 C   0  0  0  0  0  0  0  0  0  0  0  0
    2.8660   -2.1550    0.0000 C   0  0  0  0  0  0  0  0  0  0  0  0
    3.7321   -2.6550    0.0000 C   0  0  0  0  0  0  0  0  0  0  0  0
    2.8660   -0.1550    0.0000 C   0  0  0  0  0  0  0  0  0  0  0  0
    4.5981   -0.1550    0.0000 C   0  0  0  0  0  0  0  0  0  0  0  0
    3.7321    1.3450    0.0000 C   0  0  0  0  0  0  0  0  0  0  0  0
    5.2087   -1.2627    0.0000 H   0  0  0  0  0  0  0  0  0  0  0  0
    4.8101   -0.5724    0.0000 H   0  0  0  0  0  0  0  0  0  0  0  0
    2.6540   -0.5724    0.0000 H   0  0  0  0  0  0  0  0  0  0  0  0
    2.2554   -1.2627    0.0000 H   0  0  0  0  0  0  0  0  0  0  0  0
    4.8101   -2.7376    0.0000 H   0  0  0  0  0  0  0  0  0  0  0  0
    5.2087   -2.0473    0.0000 H   0  0  0  0  0  0  0  0  0  0  0  0
    2.2554   -2.0473    0.0000 H   0  0  0  0  0  0  0  0  0  0  0  0
    2.6540   -2.7376    0.0000 H   0  0  0  0  0  0  0  0  0  0  0  0
    3.3335   -3.1299    0.0000 H   0  0  0  0  0  0  0  0  0  0  0  0
    4.1306   -3.1299    0.0000 H   0  0  0  0  0  0  0  0  0  0  0  0
    2.3291    1.1550    0.0000 H   0  0  0  0  0  0  0  0  0  0  0  0
    4.2690    2.6550    0.0000 H   0  0  0  0  0  0  0  0  0  0  0  0
  1 14  1  0  0  0  0
  1 26  1  0  0  0  0
  2 12  2  0  0  0  0
  3 13  2  0  0  0  0
  4 12  1  0  0  0  0
  4 14  1  0  0  0  0
  4 25  1  0  0  0  0
  5 13  1  0  0  0  0
  5 14  2  0  0  0  0
  6  7  1  0  0  0  0
  6  8  1  0  0  0  0
  6 12  1  0  0  0  0
  6 13  1  0  0  0  0
  7  9  1  0  0  0  0
  7 15  1  0  0  0  0
  7 16  1  0  0  0  0
  8 10  1  0  0  0  0
  8 17  1  0  0  0  0
  8 18  1  0  0  0  0
  9 11  1  0  0  0  0
  9 19  1  0  0  0  0
  9 20  1  0  0  0  0
 10 11  1  0  0  0  0
 10 21  1  0  0  0  0
 10 22  1  0  0  0  0
 11 23  1  0  0  0  0
 11 24  1  0  0  0  0
M  END
> <PUBCHEM_COMPOUND_CID>
5844

> <PUBCHEM_COMPOUND_CANONICALIZED>
1

> <PUBCHEM_CACTVS_COMPLEXITY>
319

> <PUBCHEM_CACTVS_HBOND_ACCEPTOR>
3

> <PUBCHEM_CACTVS_HBOND_DONOR>
2

> <PUBCHEM_CACTVS_ROTATABLE_BOND>
0

> <PUBCHEM_CACTVS_SUBSKEYS>
AAADccBzMABAAAAAAAAAAAAAAAAAAAAAAAAwQAAAAAAAAAAAAAAAHgQQAAAADgCBgAABAALAAAQoAAEQNAAAEAEAAAABAAEAAAAAABoIyAAEAAAAAAAAAAEYiECPAAAAAAAAAAAAAAAAAAAAAAAAAAAAAA==

> <PUBCHEM_IUPAC_OPENEYE_NAME>
3-sulfanyl-2,4-diazaspiro[5.5]undec-3-ene-1,5-dione

> <PUBCHEM_IUPAC_CAS_NAME>
3-mercapto-2,4-diazaspiro[5.5]undec-3-ene-1,5-dione

> <PUBCHEM_IUPAC_NAME>
3-sulfanyl-2,4-diazaspiro[5.5]undec-3-ene-1,5-dione

> <PUBCHEM_IUPAC_SYSTEMATIC_NAME>
3-sulfanyl-2,4-diazaspiro[5.5]undec-3-ene-1,5-dione

> <PUBCHEM_IUPAC_TRADITIONAL_NAME>
3-mercapto-2,4-diazaspiro[5.5]undec-3-ene-1,5-quinone

> <PUBCHEM_IUPAC_INCHI>
InChI=1S/C9H12N2O2S/c12-6-9(4-2-1-3-5-9)7(13)11-8(14)10-6/h1-5H2,(H2,10,11,12,13,14)

> <PUBCHEM_IUPAC_INCHIKEY>
XIOUPQUYEUYPAW-UHFFFAOYSA-N

> <PUBCHEM_XLOGP3_AA>
1.6

> <PUBCHEM_EXACT_MASS>
212.061949

> <PUBCHEM_MOLECULAR_FORMULA>
C9H12N2O2S

> <PUBCHEM_MOLECULAR_WEIGHT>
212.26878

> <PUBCHEM_OPENEYE_CAN_SMILES>
C1CCC2(CC1)C(=O)NC(=NC2=O)S

> <PUBCHEM_OPENEYE_ISO_SMILES>
C1CCC2(CC1)C(=O)NC(=NC2=O)S

> <PUBCHEM_CACTVS_TPSA>
59.5

> <PUBCHEM_MONOISOTOPIC_WEIGHT>
212.061949

> <PUBCHEM_TOTAL_CHARGE>
0

> <PUBCHEM_HEAVY_ATOM_COUNT>
14

> <PUBCHEM_ATOM_DEF_STEREO_COUNT>
0

> <PUBCHEM_ATOM_UDEF_STEREO_COUNT>
0

> <PUBCHEM_BOND_DEF_STEREO_COUNT>
0

> <PUBCHEM_BOND_UDEF_STEREO_COUNT>
0

> <PUBCHEM_ISOTOPIC_ATOM_COUNT>
0

> <PUBCHEM_COMPONENT_COUNT>
1

> <PUBCHEM_CACTVS_TAUTO_COUNT>
5

> <PUBCHEM_COORDINATE_TYPE>
1
5
255

$$$$

