5281328
  -OEChem-07051212563D

 78 81  0     1  0  0  0  0  0999 V2000
    8.0969   -0.4298    1.3624 O   0  0  0  0  0  0  0  0  0  0  0  0
   -0.2970    0.6902   -0.8105 C   0  0  1  0  0  0  0  0  0  0  0  0
    0.3460   -0.6893   -0.5651 C   0  0  2  0  0  0  0  0  0  0  0  0
    1.8663   -0.6913   -0.7539 C   0  0  1  0  0  0  0  0  0  0  0  0
    2.5107    0.3489    0.2083 C   0  0  1  0  0  0  0  0  0  0  0  0
   -1.7836    0.3118   -0.6006 C   0  0  2  0  0  0  0  0  0  0  0  0
    0.2740    1.6578    0.2355 C   0  0  0  0  0  0  0  0  0  0  0  0
    4.0800    0.4129    0.0240 C   0  0  2  0  0  0  0  0  0  0  0  0
   -0.5007   -1.6391   -1.4069 C   0  0  0  0  0  0  0  0  0  0  0  0
    1.8085    1.7337    0.1536 C   0  0  0  0  0  0  0  0  0  0  0  0
   -1.9206   -1.0485   -1.3244 C   0  0  0  0  0  0  0  0  0  0  0  0
    2.4458   -2.0885   -0.4869 C   0  0  0  0  0  0  0  0  0  0  0  0
   -2.8168    1.3319   -1.0566 C   0  0  1  0  0  0  0  0  0  0  0  0
   -0.0594    1.2521   -2.2343 C   0  0  0  0  0  0  0  0  0  0  0  0
    4.6761   -0.9984   -0.0747 C   0  0  0  0  0  0  0  0  0  0  0  0
    4.6875    1.1374    1.2624 C   0  0  0  0  0  0  0  0  0  0  0  0
    3.9275   -2.0945   -0.2881 C   0  0  0  0  0  0  0  0  0  0  0  0
    4.4648    1.1849   -1.2610 C   0  0  0  0  0  0  0  0  0  0  0  0
    6.1732   -1.1280    0.0872 C   0  0  0  0  0  0  0  0  0  0  0  0
    6.2090    1.0403    1.3652 C   0  0  0  0  0  0  0  0  0  0  0  0
   -4.2419    0.7869   -0.8205 C   0  0  0  0  0  0  0  0  0  0  0  0
    6.6731   -0.4116    1.3386 C   0  0  2  0  0  0  0  0  0  0  0  0
   -2.5863    2.6677   -0.3421 C   0  0  0  0  0  0  0  0  0  0  0  0
   -4.5169    0.3991    0.6394 C   0  0  0  0  0  0  0  0  0  0  0  0
   -5.8984   -0.1952    0.8408 C   0  0  0  0  0  0  0  0  0  0  0  0
   -6.0784   -1.6921    0.5915 C   0  0  0  0  0  0  0  0  0  0  0  0
   -6.9701    0.5486    1.1870 C   0  0  0  0  0  0  0  0  0  0  0  0
   -6.5409   -2.4231    1.8555 C   0  0  0  0  0  0  0  0  0  0  0  0
   -7.0135   -1.9939   -0.5812 C   0  0  0  0  0  0  0  0  0  0  0  0
   -7.0152    2.0190    1.4557 C   0  0  0  0  0  0  0  0  0  0  0  0
    0.1628   -0.9713    0.4858 H   0  0  0  0  0  0  0  0  0  0  0  0
    2.1034   -0.4277   -1.7908 H   0  0  0  0  0  0  0  0  0  0  0  0
    2.3242   -0.0302    1.2265 H   0  0  0  0  0  0  0  0  0  0  0  0
   -1.8995    0.1293    0.4757 H   0  0  0  0  0  0  0  0  0  0  0  0
   -0.0081    1.3374    1.2465 H   0  0  0  0  0  0  0  0  0  0  0  0
   -0.0912    2.6781    0.1162 H   0  0  0  0  0  0  0  0  0  0  0  0
   -0.4729   -2.6635   -1.0214 H   0  0  0  0  0  0  0  0  0  0  0  0
   -0.1582   -1.6671   -2.4474 H   0  0  0  0  0  0  0  0  0  0  0  0
    2.0769    2.2642   -0.7646 H   0  0  0  0  0  0  0  0  0  0  0  0
    2.1609    2.3584    0.9823 H   0  0  0  0  0  0  0  0  0  0  0  0
   -2.3283   -0.9425   -2.3361 H   0  0  0  0  0  0  0  0  0  0  0  0
   -2.5855   -1.7192   -0.7695 H   0  0  0  0  0  0  0  0  0  0  0  0
    2.2017   -2.7442   -1.3315 H   0  0  0  0  0  0  0  0  0  0  0  0
    1.9853   -2.5345    0.4034 H   0  0  0  0  0  0  0  0  0  0  0  0
   -2.7329    1.5112   -2.1357 H   0  0  0  0  0  0  0  0  0  0  0  0
   -0.4638    2.2633   -2.3404 H   0  0  0  0  0  0  0  0  0  0  0  0
    1.0022    1.3193   -2.4874 H   0  0  0  0  0  0  0  0  0  0  0  0
   -0.5255    0.6351   -3.0091 H   0  0  0  0  0  0  0  0  0  0  0  0
    4.2611    0.7130    2.1816 H   0  0  0  0  0  0  0  0  0  0  0  0
    4.4124    2.1988    1.2567 H   0  0  0  0  0  0  0  0  0  0  0  0
    4.4050   -3.0707   -0.3271 H   0  0  0  0  0  0  0  0  0  0  0  0
    4.2013    2.2451   -1.1902 H   0  0  0  0  0  0  0  0  0  0  0  0
    5.5414    1.1533   -1.4595 H   0  0  0  0  0  0  0  0  0  0  0  0
    3.9691    0.7736   -2.1463 H   0  0  0  0  0  0  0  0  0  0  0  0
    6.4843   -2.1797    0.1339 H   0  0  0  0  0  0  0  0  0  0  0  0
    6.6769   -0.7252   -0.8006 H   0  0  0  0  0  0  0  0  0  0  0  0
    6.6880    1.6065    0.5569 H   0  0  0  0  0  0  0  0  0  0  0  0
    6.5489    1.5167    2.2932 H   0  0  0  0  0  0  0  0  0  0  0  0
   -4.9689    1.5470   -1.1359 H   0  0  0  0  0  0  0  0  0  0  0  0
   -4.4203   -0.0779   -1.4712 H   0  0  0  0  0  0  0  0  0  0  0  0
    6.3169   -0.9276    2.2387 H   0  0  0  0  0  0  0  0  0  0  0  0
   -3.4893    3.2869   -0.4056 H   0  0  0  0  0  0  0  0  0  0  0  0
   -2.3607    2.5433    0.7215 H   0  0  0  0  0  0  0  0  0  0  0  0
   -1.8033    3.2559   -0.8246 H   0  0  0  0  0  0  0  0  0  0  0  0
   -4.3702    1.2635    1.2954 H   0  0  0  0  0  0  0  0  0  0  0  0
   -3.8052   -0.3499    1.0001 H   0  0  0  0  0  0  0  0  0  0  0  0
    8.3780   -1.3606    1.3493 H   0  0  0  0  0  0  0  0  0  0  0  0
   -5.0978   -2.1094    0.3260 H   0  0  0  0  0  0  0  0  0  0  0  0
   -7.9338    0.0562    1.3021 H   0  0  0  0  0  0  0  0  0  0  0  0
   -7.5587   -2.1424    2.1465 H   0  0  0  0  0  0  0  0  0  0  0  0
   -5.8748   -2.2094    2.6986 H   0  0  0  0  0  0  0  0  0  0  0  0
   -6.5329   -3.5067    1.6936 H   0  0  0  0  0  0  0  0  0  0  0  0
   -8.0455   -1.6925   -0.3723 H   0  0  0  0  0  0  0  0  0  0  0  0
   -7.0209   -3.0676   -0.7985 H   0  0  0  0  0  0  0  0  0  0  0  0
   -6.6861   -1.4738   -1.4879 H   0  0  0  0  0  0  0  0  0  0  0  0
   -6.0929    2.5425    1.1959 H   0  0  0  0  0  0  0  0  0  0  0  0
   -7.8205    2.4709    0.8673 H   0  0  0  0  0  0  0  0  0  0  0  0
   -7.2276    2.1966    2.5143 H   0  0  0  0  0  0  0  0  0  0  0  0
  1 22  1  0  0  0  0
  1 67  1  0  0  0  0
  2  3  1  0  0  0  0
  2  6  1  0  0  0  0
  2  7  1  0  0  0  0
  2 14  1  0  0  0  0
  3  4  1  0  0  0  0
  3  9  1  0  0  0  0
  3 31  1  0  0  0  0
  4  5  1  0  0  0  0
  4 12  1  0  0  0  0
  4 32  1  0  0  0  0
  5  8  1  0  0  0  0
  5 10  1  0  0  0  0
  5 33  1  0  0  0  0
  6 11  1  0  0  0  0
  6 13  1  0  0  0  0
  6 34  1  0  0  0  0
  7 10  1  0  0  0  0
  7 35  1  0  0  0  0
  7 36  1  0  0  0  0
  8 15  1  0  0  0  0
  8 16  1  0  0  0  0
  8 18  1  0  0  0  0
  9 11  1  0  0  0  0
  9 37  1  0  0  0  0
  9 38  1  0  0  0  0
 10 39  1  0  0  0  0
 10 40  1  0  0  0  0
 11 41  1  0  0  0  0
 11 42  1  0  0  0  0
 12 17  1  0  0  0  0
 12 43  1  0  0  0  0
 12 44  1  0  0  0  0
 13 21  1  0  0  0  0
 13 23  1  0  0  0  0
 13 45  1  0  0  0  0
 14 46  1  0  0  0  0
 14 47  1  0  0  0  0
 14 48  1  0  0  0  0
 15 17  2  0  0  0  0
 15 19  1  0  0  0  0
 16 20  1  0  0  0  0
 16 49  1  0  0  0  0
 16 50  1  0  0  0  0
 17 51  1  0  0  0  0
 18 52  1  0  0  0  0
 18 53  1  0  0  0  0
 18 54  1  0  0  0  0
 19 22  1  0  0  0  0
 19 55  1  0  0  0  0
 19 56  1  0  0  0  0
 20 22  1  0  0  0  0
 20 57  1  0  0  0  0
 20 58  1  0  0  0  0
 21 24  1  0  0  0  0
 21 59  1  0  0  0  0
 21 60  1  0  0  0  0
 22 61  1  0  0  0  0
 23 62  1  0  0  0  0
 23 63  1  0  0  0  0
 23 64  1  0  0  0  0
 24 25  1  0  0  0  0
 24 65  1  0  0  0  0
 24 66  1  0  0  0  0
 25 26  1  0  0  0  0
 25 27  2  0  0  0  0
 26 28  1  0  0  0  0
 26 29  1  0  0  0  0
 26 68  1  0  0  0  0
 27 30  1  0  0  0  0
 27 69  1  0  0  0  0
 28 70  1  0  0  0  0
 28 71  1  0  0  0  0
 28 72  1  0  0  0  0
 29 73  1  0  0  0  0
 29 74  1  0  0  0  0
 29 75  1  0  0  0  0
 30 76  1  0  0  0  0
 30 77  1  0  0  0  0
 30 78  1  0  0  0  0
M  END
> <PUBCHEM_COMPOUND_CID>
5281328

> <PUBCHEM_CONFORMER_RMSD>
0.8

> <PUBCHEM_CONFORMER_DIVERSEORDER>
3
18
14
6
16
11
17
8
10
4
15
2
13
1
9
7
5
12

> <PUBCHEM_MMFF94_PARTIAL_CHARGES>
15
1 -0.68
12 0.14
15 -0.28
17 -0.29
19 0.14
22 0.28
24 0.14
25 -0.28
26 0.14
27 -0.29
30 0.14
51 0.15
67 0.4
69 0.15
8 0.14

> <PUBCHEM_EFFECTIVE_ROTOR_COUNT>
7

> <PUBCHEM_PHARMACOPHORE_FEATURES>
10
1 1 acceptor
1 1 donor
1 23 hydrophobe
1 30 hydrophobe
3 26 28 29 hydrophobe
5 13 21 24 25 26 hydrophobe
5 2 3 6 9 11 rings
6 2 3 4 5 7 10 rings
6 4 5 8 12 15 17 rings
6 8 15 16 19 20 22 rings

> <PUBCHEM_HEAVY_ATOM_COUNT>
30

> <PUBCHEM_ATOM_DEF_STEREO_COUNT>
8

> <PUBCHEM_ATOM_UDEF_STEREO_COUNT>
0

> <PUBCHEM_BOND_DEF_STEREO_COUNT>
1

> <PUBCHEM_BOND_UDEF_STEREO_COUNT>
0

> <PUBCHEM_ISOTOPIC_ATOM_COUNT>
0

> <PUBCHEM_COMPONENT_COUNT>
1

> <PUBCHEM_CACTVS_TAUTO_COUNT>
1

> <PUBCHEM_CONFORMER_ID>
0050963000000003

> <PUBCHEM_MMFF94_ENERGY>
88.0059

> <PUBCHEM_FEATURE_SELFOVERLAP>
50.841

> <PUBCHEM_SHAPE_FINGERPRINT>
10 15 18409453561855607280
10100884 174 18120384151238607159
10670039 82 6699810861304025011
10693767 8 11599737177115627968
10763959 59 7997681017706886386
11456790 92 17676498263504841410
11578080 2 16879651271280095978
11646440 116 17894914023084154648
11963148 33 17918001585277125186
12166972 35 14908174261766862982
12236239 1 16877950450823588845
12422481 6 18259696814236048711
12596602 18 17967811656822131035
13668630 136 13254792451659890705
13782708 43 17632581560475898563
13811026 1 18411420605717382095
14068700 675 17418371372996584373
14251764 18 18261114041125413766
14849402 71 17750521676089131792
14931854 50 9439125403424106272
15183329 4 16773799177918382171
15188451 53 17561367266434836991
15461852 350 15864080871348406509
18608769 82 18411418389160991902
20105231 36 18260546750079051014
21130935 74 18260265265568205159
21267235 1 18335979865913989046
21424621 283 5112017135817336647
21623969 137 18407758144589583278
21637258 2 16774082860091414559
21781051 124 18340756088601503278
22149856 69 18335405890209800401
22224240 67 18114181956410837015
23522609 53 18055039191493678173
23569914 152 10444889314708248753
25222932 49 17846506941413592610
2838139 119 7060382496771573731
29717793 49 12175625096507861426
3009799 131 10015865383776851086
312425 54 18340480158337336147
3178227 256 18333452037020818256
3383291 50 18271811194005693203
3663271 9 18114179757218977963
4015057 19 12031492307698186527
4093350 32 16153707644373280174
4340502 62 18408604777507367366
4353968 344 11959471023825299650
4403749 210 18041003938734004695
5104073 3 18265054823927674544
6086070 43 16443930339837124825
9953998 17 18409447012425970481

> <PUBCHEM_SHAPE_MULTIPOLES>
611.52
20.96
2.46
1.62
7.1
0.25
-0.01
4.85
13.18
2.39
0.06
0.43
-0.09
0.51

> <PUBCHEM_SHAPE_SELFOVERLAP>
1266.949

> <PUBCHEM_SHAPE_VOLUME>
349.8

> <PUBCHEM_COORDINATE_TYPE>
2
5
10

$$$$

