11368
  -OEChem-06261205352D

 47 47  0     1  0  0  0  0  0999 V2000
    7.4040    5.4650    0.0000 Cl  0  0  0  0  0  0  0  0  0  0  0  0
    0.5369    4.8100    0.0000 O   0  0  0  0  0  0  0  0  0  0  0  0
    4.0010    7.8100    0.0000 O   0  0  0  0  0  0  0  0  0  0  0  0
    1.4030    0.3100    0.0000 O   0  0  0  0  0  0  0  0  0  0  0  0
    2.2690    5.8100    0.0000 N   0  0  0  0  0  0  0  0  0  0  0  0
    2.2690    4.8100    0.0000 C   0  0  3  0  0  0  0  0  0  0  0  0
    1.4030    4.3100    0.0000 C   0  0  3  0  0  0  0  0  0  0  0  0
    3.1350    6.3100    0.0000 C   0  0  3  0  0  0  0  0  0  0  0  0
    3.1350    4.3100    0.0000 C   0  0  0  0  0  0  0  0  0  0  0  0
    1.4030    3.3100    0.0000 C   0  0  0  0  0  0  0  0  0  0  0  0
    3.1350    7.3100    0.0000 C   0  0  0  0  0  0  0  0  0  0  0  0
    4.0010    5.8100    0.0000 C   0  0  0  0  0  0  0  0  0  0  0  0
    0.5369    2.8100    0.0000 C   0  0  0  0  0  0  0  0  0  0  0  0
    2.2690    2.8100    0.0000 C   0  0  0  0  0  0  0  0  0  0  0  0
    0.5369    1.8100    0.0000 C   0  0  0  0  0  0  0  0  0  0  0  0
    2.2690    1.8100    0.0000 C   0  0  0  0  0  0  0  0  0  0  0  0
    1.4030    1.3100    0.0000 C   0  0  0  0  0  0  0  0  0  0  0  0
    4.0010    8.8100    0.0000 C   0  0  0  0  0  0  0  0  0  0  0  0
    4.8671    9.3100    0.0000 C   0  0  0  0  0  0  0  0  0  0  0  0
    3.1350    9.3100    0.0000 C   0  0  0  0  0  0  0  0  0  0  0  0
    4.8671   10.3100    0.0000 C   0  0  0  0  0  0  0  0  0  0  0  0
    3.1350   10.3100    0.0000 C   0  0  0  0  0  0  0  0  0  0  0  0
    4.0010   10.8100    0.0000 C   0  0  0  0  0  0  0  0  0  0  0  0
    3.0051    5.2350    0.0000 H   0  0  0  0  0  0  0  0  0  0  0  0
    1.4030    5.1600    0.0000 H   0  0  0  0  0  0  0  0  0  0  0  0
    3.1350    5.4600    0.0000 H   0  0  0  0  0  0  0  0  0  0  0  0
    1.7320    6.1200    0.0000 H   0  0  0  0  0  0  0  0  0  0  0  0
    2.8250    3.7731    0.0000 H   0  0  0  0  0  0  0  0  0  0  0  0
    3.6720    4.0000    0.0000 H   0  0  0  0  0  0  0  0  0  0  0  0
    3.4450    4.8469    0.0000 H   0  0  0  0  0  0  0  0  0  0  0  0
    2.9230    7.8926    0.0000 H   0  0  0  0  0  0  0  0  0  0  0  0
    2.5244    7.2023    0.0000 H   0  0  0  0  0  0  0  0  0  0  0  0
    3.6910    5.2731    0.0000 H   0  0  0  0  0  0  0  0  0  0  0  0
    4.5380    5.5000    0.0000 H   0  0  0  0  0  0  0  0  0  0  0  0
    4.3110    6.3469    0.0000 H   0  0  0  0  0  0  0  0  0  0  0  0
    0.0000    3.1200    0.0000 H   0  0  0  0  0  0  0  0  0  0  0  0
    2.8059    3.1200    0.0000 H   0  0  0  0  0  0  0  0  0  0  0  0
    0.5369    5.4300    0.0000 H   0  0  0  0  0  0  0  0  0  0  0  0
    0.0000    1.5000    0.0000 H   0  0  0  0  0  0  0  0  0  0  0  0
    2.8059    1.5000    0.0000 H   0  0  0  0  0  0  0  0  0  0  0  0
    5.4040    9.0000    0.0000 H   0  0  0  0  0  0  0  0  0  0  0  0
    2.5981    9.0000    0.0000 H   0  0  0  0  0  0  0  0  0  0  0  0
    5.4040   10.6200    0.0000 H   0  0  0  0  0  0  0  0  0  0  0  0
    2.5981   10.6200    0.0000 H   0  0  0  0  0  0  0  0  0  0  0  0
    0.8660    0.0000    0.0000 H   0  0  0  0  0  0  0  0  0  0  0  0
    4.0010   11.4300    0.0000 H   0  0  0  0  0  0  0  0  0  0  0  0
    8.4040    5.4650    0.0000 H   0  0  0  0  0  0  0  0  0  0  0  0
  1 47  1  0  0  0  0
  2  7  1  0  0  0  0
  2 38  1  0  0  0  0
  3 11  1  0  0  0  0
  3 18  1  0  0  0  0
  4 17  1  0  0  0  0
  4 45  1  0  0  0  0
  5  6  1  0  0  0  0
  5  8  1  0  0  0  0
  5 27  1  0  0  0  0
  6  7  1  0  0  0  0
  6  9  1  0  0  0  0
  6 24  1  0  0  0  0
  7 10  1  0  0  0  0
  7 25  1  0  0  0  0
  8 11  1  0  0  0  0
  8 12  1  0  0  0  0
  8 26  1  0  0  0  0
  9 28  1  0  0  0  0
  9 29  1  0  0  0  0
  9 30  1  0  0  0  0
 10 13  2  0  0  0  0
 10 14  1  0  0  0  0
 11 31  1  0  0  0  0
 11 32  1  0  0  0  0
 12 33  1  0  0  0  0
 12 34  1  0  0  0  0
 12 35  1  0  0  0  0
 13 15  1  0  0  0  0
 13 36  1  0  0  0  0
 14 16  2  0  0  0  0
 14 37  1  0  0  0  0
 15 17  2  0  0  0  0
 15 39  1  0  0  0  0
 16 17  1  0  0  0  0
 16 40  1  0  0  0  0
 18 19  2  0  0  0  0
 18 20  1  0  0  0  0
 19 21  1  0  0  0  0
 19 41  1  0  0  0  0
 20 22  2  0  0  0  0
 20 42  1  0  0  0  0
 21 23  2  0  0  0  0
 21 43  1  0  0  0  0
 22 23  1  0  0  0  0
 22 44  1  0  0  0  0
 23 46  1  0  0  0  0
M  END
> <PUBCHEM_COMPOUND_CID>
11368

> <PUBCHEM_COMPOUND_CANONICALIZED>
1

> <PUBCHEM_CACTVS_COMPLEXITY>
299

> <PUBCHEM_CACTVS_HBOND_ACCEPTOR>
4

> <PUBCHEM_CACTVS_HBOND_DONOR>
4

> <PUBCHEM_CACTVS_ROTATABLE_BOND>
7

> <PUBCHEM_CACTVS_SUBSKEYS>
AAADceB6MAAEAAAAAAAAAAAAAAAAAAAAAAAwYAAAAAAAAAABQAAAHgAQCAAADDzhmAYyBoLABgCAAiBCAAACCAAgIAAIiIAOCIgONiKGsRuHeCCk0BGYuAeQ4KQOIAAAAAAAAABAAAAAAAAAAAAAAAAAAA==

> <PUBCHEM_IUPAC_OPENEYE_NAME>
4-[1-hydroxy-2-[(1-methyl-2-phenoxy-ethyl)amino]propyl]phenol hydrochloride

> <PUBCHEM_IUPAC_CAS_NAME>
4-[1-hydroxy-2-(1-phenoxypropan-2-ylamino)propyl]phenol hydrochloride

> <PUBCHEM_IUPAC_NAME>
4-[1-hydroxy-2-(1-phenoxypropan-2-ylamino)propyl]phenol hydrochloride

> <PUBCHEM_IUPAC_SYSTEMATIC_NAME>
4-[1-oxidanyl-2-(1-phenoxypropan-2-ylamino)propyl]phenol hydrochloride

> <PUBCHEM_IUPAC_TRADITIONAL_NAME>
4-[1-hydroxy-2-[(1-methyl-2-phenoxy-ethyl)amino]propyl]phenol hydrochloride

> <PUBCHEM_IUPAC_INCHI>
InChI=1S/C18H23NO3.ClH/c1-13(12-22-17-6-4-3-5-7-17)19-14(2)18(21)15-8-10-16(20)11-9-15;/h3-11,13-14,18-21H,12H2,1-2H3;1H

> <PUBCHEM_IUPAC_INCHIKEY>
QVPSGVSNYPRFAS-UHFFFAOYSA-N

> <PUBCHEM_EXACT_MASS>
337.144471

> <PUBCHEM_MOLECULAR_FORMULA>
C18H24ClNO3

> <PUBCHEM_MOLECULAR_WEIGHT>
337.84106

> <PUBCHEM_OPENEYE_CAN_SMILES>
CC(COC1=CC=CC=C1)NC(C)C(C2=CC=C(C=C2)O)O.Cl

> <PUBCHEM_OPENEYE_ISO_SMILES>
CC(COC1=CC=CC=C1)NC(C)C(C2=CC=C(C=C2)O)O.Cl

> <PUBCHEM_CACTVS_TPSA>
61.7

> <PUBCHEM_MONOISOTOPIC_WEIGHT>
337.144471

> <PUBCHEM_TOTAL_CHARGE>
0

> <PUBCHEM_HEAVY_ATOM_COUNT>
23

> <PUBCHEM_ATOM_DEF_STEREO_COUNT>
0

> <PUBCHEM_ATOM_UDEF_STEREO_COUNT>
3

> <PUBCHEM_BOND_DEF_STEREO_COUNT>
0

> <PUBCHEM_BOND_UDEF_STEREO_COUNT>
0

> <PUBCHEM_ISOTOPIC_ATOM_COUNT>
0

> <PUBCHEM_COMPONENT_COUNT>
2

> <PUBCHEM_CACTVS_TAUTO_COUNT>
2

> <PUBCHEM_COORDINATE_TYPE>
1
5
255

> <PUBCHEM_BONDANNOTATIONS>
10  13  8
10  14  8
13  15  8
14  16  8
15  17  8
16  17  8
18  19  8
18  20  8
19  21  8
20  22  8
21  23  8
22  23  8
6  24  3
7  25  3
8  26  3

$$$$

