47811
  -OEChem-07051212533D

 48 51  0     1  0  0  0  0  0999 V2000
    3.3967    3.4459   -0.4365 S   0  0  0  0  0  0  0  0  0  0  0  0
    1.5653   -1.4515   -0.2280 N   0  0  1  0  0  0  0  0  0  0  0  0
   -4.4146   -0.9214    0.2440 N   0  0  0  0  0  0  0  0  0  0  0  0
   -0.0294    0.4787   -0.4812 C   0  0  2  0  0  0  0  0  0  0  0  0
    0.2032   -0.9765    0.1199 C   0  0  1  0  0  0  0  0  0  0  0  0
    1.0564    1.4382    0.0243 C   0  0  0  0  0  0  0  0  0  0  0  0
    2.4502    0.8773   -0.2662 C   0  0  2  0  0  0  0  0  0  0  0  0
    2.5938   -0.5387    0.3022 C   0  0  0  0  0  0  0  0  0  0  0  0
   -0.9181   -1.9920   -0.3268 C   0  0  0  0  0  0  0  0  0  0  0  0
   -1.4404    0.9684   -0.2001 C   0  0  0  0  0  0  0  0  0  0  0  0
   -2.2725   -1.4102   -0.1064 C   0  0  0  0  0  0  0  0  0  0  0  0
   -2.4317   -0.0111   -0.0608 C   0  0  0  0  0  0  0  0  0  0  0  0
    1.8376   -2.8074    0.2582 C   0  0  0  0  0  0  0  0  0  0  0  0
    3.5290    1.7992    0.3018 C   0  0  0  0  0  0  0  0  0  0  0  0
   -3.7631    0.2897    0.1564 C   0  0  0  0  0  0  0  0  0  0  0  0
   -1.8776    2.2981   -0.1388 C   0  0  0  0  0  0  0  0  0  0  0  0
   -3.5192   -1.9590    0.0828 C   0  0  0  0  0  0  0  0  0  0  0  0
    3.2001   -3.2848   -0.2383 C   0  0  0  0  0  0  0  0  0  0  0  0
   -4.2043    1.6093    0.2421 C   0  0  0  0  0  0  0  0  0  0  0  0
   -3.2292    2.6069    0.0854 C   0  0  0  0  0  0  0  0  0  0  0  0
    3.4976   -4.6991    0.2352 C   0  0  0  0  0  0  0  0  0  0  0  0
    4.7702    4.2402    0.4309 C   0  0  0  0  0  0  0  0  0  0  0  0
    0.0584    0.4083   -1.5757 H   0  0  0  0  0  0  0  0  0  0  0  0
    0.1297   -0.8941    1.2165 H   0  0  0  0  0  0  0  0  0  0  0  0
    0.9168    2.4036   -0.4705 H   0  0  0  0  0  0  0  0  0  0  0  0
    0.9319    1.6082    1.1024 H   0  0  0  0  0  0  0  0  0  0  0  0
    2.5795    0.8142   -1.3570 H   0  0  0  0  0  0  0  0  0  0  0  0
    3.6012   -0.8413    0.0107 H   0  0  0  0  0  0  0  0  0  0  0  0
    2.5624   -0.5134    1.4000 H   0  0  0  0  0  0  0  0  0  0  0  0
   -0.8534   -2.9195    0.2523 H   0  0  0  0  0  0  0  0  0  0  0  0
   -0.7998   -2.2385   -1.3891 H   0  0  0  0  0  0  0  0  0  0  0  0
    1.7863   -2.8563    1.3534 H   0  0  0  0  0  0  0  0  0  0  0  0
    1.1058   -3.5174   -0.1388 H   0  0  0  0  0  0  0  0  0  0  0  0
    4.5226    1.3949    0.0804 H   0  0  0  0  0  0  0  0  0  0  0  0
    3.4288    1.8842    1.3895 H   0  0  0  0  0  0  0  0  0  0  0  0
   -1.1787    3.1195   -0.2680 H   0  0  0  0  0  0  0  0  0  0  0  0
   -3.8591   -2.9843    0.1215 H   0  0  0  0  0  0  0  0  0  0  0  0
    3.2415   -3.2528   -1.3337 H   0  0  0  0  0  0  0  0  0  0  0  0
    4.0295   -2.6859    0.1441 H   0  0  0  0  0  0  0  0  0  0  0  0
   -5.4065   -1.0357    0.4005 H   0  0  0  0  0  0  0  0  0  0  0  0
   -5.2457    1.8576    0.4114 H   0  0  0  0  0  0  0  0  0  0  0  0
   -3.5313    3.6510    0.1333 H   0  0  0  0  0  0  0  0  0  0  0  0
    3.5067   -4.7543    1.3287 H   0  0  0  0  0  0  0  0  0  0  0  0
    2.7478   -5.4039   -0.1382 H   0  0  0  0  0  0  0  0  0  0  0  0
    4.4774   -5.0242   -0.1293 H   0  0  0  0  0  0  0  0  0  0  0  0
    4.5970    4.2286    1.5102 H   0  0  0  0  0  0  0  0  0  0  0  0
    4.8498    5.2802    0.1032 H   0  0  0  0  0  0  0  0  0  0  0  0
    5.7104    3.7314    0.2029 H   0  0  0  0  0  0  0  0  0  0  0  0
  1 14  1  0  0  0  0
  1 22  1  0  0  0  0
  2  5  1  0  0  0  0
  2  8  1  0  0  0  0
  2 13  1  0  0  0  0
  3 15  1  0  0  0  0
  3 17  1  0  0  0  0
  3 40  1  0  0  0  0
  4  5  1  0  0  0  0
  4  6  1  0  0  0  0
  4 10  1  0  0  0  0
  4 23  1  0  0  0  0
  5  9  1  0  0  0  0
  5 24  1  0  0  0  0
  6  7  1  0  0  0  0
  6 25  1  0  0  0  0
  6 26  1  0  0  0  0
  7  8  1  0  0  0  0
  7 14  1  0  0  0  0
  7 27  1  0  0  0  0
  8 28  1  0  0  0  0
  8 29  1  0  0  0  0
  9 11  1  0  0  0  0
  9 30  1  0  0  0  0
  9 31  1  0  0  0  0
 10 12  2  0  0  0  0
 10 16  1  0  0  0  0
 11 12  1  0  0  0  0
 11 17  2  0  0  0  0
 12 15  1  0  0  0  0
 13 18  1  0  0  0  0
 13 32  1  0  0  0  0
 13 33  1  0  0  0  0
 14 34  1  0  0  0  0
 14 35  1  0  0  0  0
 15 19  2  0  0  0  0
 16 20  2  0  0  0  0
 16 36  1  0  0  0  0
 17 37  1  0  0  0  0
 18 21  1  0  0  0  0
 18 38  1  0  0  0  0
 18 39  1  0  0  0  0
 19 20  1  0  0  0  0
 19 41  1  0  0  0  0
 20 42  1  0  0  0  0
 21 43  1  0  0  0  0
 21 44  1  0  0  0  0
 21 45  1  0  0  0  0
 22 46  1  0  0  0  0
 22 47  1  0  0  0  0
 22 48  1  0  0  0  0
M  END
> <PUBCHEM_COMPOUND_CID>
47811

> <PUBCHEM_CONFORMER_RMSD>
0.8

> <PUBCHEM_CONFORMER_DIVERSEORDER>
1
4
5
2
3

> <PUBCHEM_MMFF94_PARTIAL_CHARGES>
22
1 -0.46
10 -0.14
11 -0.18
13 0.27
14 0.23
15 -0.15
16 -0.15
17 -0.3
19 -0.15
2 -0.81
20 -0.15
22 0.23
3 0.03
36 0.15
37 0.15
4 0.14
40 0.27
41 0.15
42 0.15
5 0.27
8 0.27
9 0.18

> <PUBCHEM_EFFECTIVE_ROTOR_COUNT>
5

> <PUBCHEM_PHARMACOPHORE_FEATURES>
9
1 2 cation
1 21 hydrophobe
1 22 hydrophobe
1 3 cation
1 3 donor
5 3 11 12 15 17 rings
6 10 12 15 16 19 20 rings
6 2 4 5 6 7 8 rings
6 4 5 9 10 11 12 rings

> <PUBCHEM_HEAVY_ATOM_COUNT>
22

> <PUBCHEM_ATOM_DEF_STEREO_COUNT>
3

> <PUBCHEM_ATOM_UDEF_STEREO_COUNT>
0

> <PUBCHEM_BOND_DEF_STEREO_COUNT>
0

> <PUBCHEM_BOND_UDEF_STEREO_COUNT>
0

> <PUBCHEM_ISOTOPIC_ATOM_COUNT>
0

> <PUBCHEM_COMPONENT_COUNT>
1

> <PUBCHEM_CACTVS_TAUTO_COUNT>
1

> <PUBCHEM_CONFORMER_ID>
0000BAC300000001

> <PUBCHEM_MMFF94_ENERGY>
51.4345

> <PUBCHEM_FEATURE_SELFOVERLAP>
45.907

> <PUBCHEM_SHAPE_FINGERPRINT>
10050765 1 18410574020402635605
10074138 170 17399260563888927232
10411042 1 17978511163206791934
10616163 171 18410571752011167335
10670039 82 18126837210608916780
10967382 1 18410855434790926733
1100329 8 18050001400638483169
12173636 292 18122065304152537980
12390115 104 18118666747918229392
12403259 226 18126004007968665261
12633257 1 18046336711456288211
12788726 201 16761119339581513228
12839892 36 18267039270975710632
13140716 1 18266448979508357115
138480 1 18266741470907487118
13911987 19 17836945407450526741
14223421 5 18411981364609624605
14466204 15 17329145187937276337
14790565 3 18123183498651018604
14844126 61 17333096322037105008
14955137 171 17690254420260867275
15042514 8 17404300699272998850
15196674 1 18338516339774661565
15442244 35 18266458896039554931
15536298 74 18336546113621688503
15927050 60 18120654627140799318
16087824 20 17402046098476823272
16945 1 18337677404039366391
17492 89 18411699911372326131
17804303 29 18123464149104278199
1813 80 17130416003279244654
19591789 44 17690278209789151441
20028762 73 17324633389096427767
20286276 3 18410849997346856547
20510252 161 18190735336992924137
20600515 1 17683803589983235508
20671657 1 18339354287841266364
20739085 24 18131072602413040340
21033648 29 17245581079844149291
21065198 57 18338236084631739161
21267235 1 18123460846580609907
21501502 16 18408887373443980103
221490 88 18340760541633172162
23366157 5 18201435904634758542
23559900 14 18337960115555143210
23566358 27 18411416232681169238
283562 15 18047471119413795265
3004659 81 17696741530724230246
3091708 16 9184527928082318698
335352 9 17978791538966566295
34934 24 18337394812656079959
350125 39 18339073890779871725
43471831 8 18339643321981425942
5104073 3 18341891866262960961
5486654 2 17978787905039709460
6442390 28 18194118508902655028
6700243 42 16247673785010554684
7097593 13 18268716176173318770
7364860 26 18409448120068888910
7808743 9 17689720758170362192
9709674 26 18412542141404916499
9981440 41 18196936565535656152

> <PUBCHEM_SHAPE_MULTIPOLES>
446.64
8.79
5.59
0.68
0.66
2.1
-0.01
-4.12
0.91
-9.15
0.29
-0.12
-0.07
0.01

> <PUBCHEM_SHAPE_SELFOVERLAP>
944.76

> <PUBCHEM_SHAPE_VOLUME>
254

> <PUBCHEM_COORDINATE_TYPE>
2
5
10

$$$$

