17396579
  -OEChem-06241222572D

 38 40  0     0  0  0  0  0  0999 V2000
    2.0000    2.2500    0.0000 Br  0  0  0  0  0  0  0  0  0  0  0  0
    8.0622   -2.2500    0.0000 O   0  0  0  0  0  0  0  0  0  0  0  0
    8.9282   -0.7500    0.0000 N   0  0  0  0  0  0  0  0  0  0  0  0
    5.4641    0.2500    0.0000 N   0  0  0  0  0  0  0  0  0  0  0  0
    8.0622    0.7500    0.0000 N   0  0  0  0  0  0  0  0  0  0  0  0
    6.3301    0.7500    0.0000 C   0  0  0  0  0  0  0  0  0  0  0  0
    7.1962    0.2500    0.0000 C   0  0  0  0  0  0  0  0  0  0  0  0
    8.9282    0.2500    0.0000 C   0  0  0  0  0  0  0  0  0  0  0  0
    4.5981    0.7500    0.0000 C   0  0  0  0  0  0  0  0  0  0  0  0
    7.1962   -0.7500    0.0000 C   0  0  0  0  0  0  0  0  0  0  0  0
    8.0622   -1.2500    0.0000 C   0  0  0  0  0  0  0  0  0  0  0  0
    9.8222   -1.2847    0.0000 C   0  0  0  0  0  0  0  0  0  0  0  0
   10.7282   -0.7708    0.0000 C   0  0  0  0  0  0  0  0  0  0  0  0
    4.5981    1.7500    0.0000 C   0  0  0  0  0  0  0  0  0  0  0  0
    9.8222    0.7847    0.0000 C   0  0  0  0  0  0  0  0  0  0  0  0
   10.7282    0.2708    0.0000 C   0  0  0  0  0  0  0  0  0  0  0  0
    3.7320    0.2500    0.0000 C   0  0  0  0  0  0  0  0  0  0  0  0
    3.7320    2.2500    0.0000 C   0  0  0  0  0  0  0  0  0  0  0  0
   11.5923   -1.2741    0.0000 C   0  0  0  0  0  0  0  0  0  0  0  0
    5.4641    2.2500    0.0000 C   0  0  0  0  0  0  0  0  0  0  0  0
    2.8660    0.7500    0.0000 C   0  0  0  0  0  0  0  0  0  0  0  0
    2.8660    1.7500    0.0000 C   0  0  0  0  0  0  0  0  0  0  0  0
    6.7287    1.2250    0.0000 H   0  0  0  0  0  0  0  0  0  0  0  0
    5.9316    1.2250    0.0000 H   0  0  0  0  0  0  0  0  0  0  0  0
    5.4641   -0.3700    0.0000 H   0  0  0  0  0  0  0  0  0  0  0  0
    6.6592   -1.0600    0.0000 H   0  0  0  0  0  0  0  0  0  0  0  0
    9.8150   -1.9046    0.0000 H   0  0  0  0  0  0  0  0  0  0  0  0
    9.8150    1.4046    0.0000 H   0  0  0  0  0  0  0  0  0  0  0  0
   11.2639    0.5829    0.0000 H   0  0  0  0  0  0  0  0  0  0  0  0
    3.7320   -0.3700    0.0000 H   0  0  0  0  0  0  0  0  0  0  0  0
    3.7320    2.8700    0.0000 H   0  0  0  0  0  0  0  0  0  0  0  0
   11.2802   -1.8099    0.0000 H   0  0  0  0  0  0  0  0  0  0  0  0
   12.1280   -1.5862    0.0000 H   0  0  0  0  0  0  0  0  0  0  0  0
   11.9044   -0.7384    0.0000 H   0  0  0  0  0  0  0  0  0  0  0  0
    5.7741    1.7131    0.0000 H   0  0  0  0  0  0  0  0  0  0  0  0
    6.0010    2.5600    0.0000 H   0  0  0  0  0  0  0  0  0  0  0  0
    5.1541    2.7869    0.0000 H   0  0  0  0  0  0  0  0  0  0  0  0
    2.3291    0.4400    0.0000 H   0  0  0  0  0  0  0  0  0  0  0  0
  1 22  1  0  0  0  0
  2 11  2  0  0  0  0
  3  8  1  0  0  0  0
  3 11  1  0  0  0  0
  3 12  1  0  0  0  0
  4  6  1  0  0  0  0
  4  9  1  0  0  0  0
  4 25  1  0  0  0  0
  5  7  1  0  0  0  0
  5  8  2  0  0  0  0
  6  7  1  0  0  0  0
  6 23  1  0  0  0  0
  6 24  1  0  0  0  0
  7 10  2  0  0  0  0
  8 15  1  0  0  0  0
  9 14  2  0  0  0  0
  9 17  1  0  0  0  0
 10 11  1  0  0  0  0
 10 26  1  0  0  0  0
 12 13  2  0  0  0  0
 12 27  1  0  0  0  0
 13 16  1  0  0  0  0
 13 19  1  0  0  0  0
 14 18  1  0  0  0  0
 14 20  1  0  0  0  0
 15 16  2  0  0  0  0
 15 28  1  0  0  0  0
 16 29  1  0  0  0  0
 17 21  2  0  0  0  0
 17 30  1  0  0  0  0
 18 22  2  0  0  0  0
 18 31  1  0  0  0  0
 19 32  1  0  0  0  0
 19 33  1  0  0  0  0
 19 34  1  0  0  0  0
 20 35  1  0  0  0  0
 20 36  1  0  0  0  0
 20 37  1  0  0  0  0
 21 22  1  0  0  0  0
 21 38  1  0  0  0  0
M  END
> <PUBCHEM_COMPOUND_CID>
17396579

> <PUBCHEM_COMPOUND_CANONICALIZED>
1

> <PUBCHEM_CACTVS_COMPLEXITY>
591

> <PUBCHEM_CACTVS_HBOND_ACCEPTOR>
3

> <PUBCHEM_CACTVS_HBOND_DONOR>
1

> <PUBCHEM_CACTVS_ROTATABLE_BOND>
3

> <PUBCHEM_CACTVS_SUBSKEYS>
AAADceB7IAAAEAAAAAAAAAAAAAAAAAAAAAAwQIAAAAAAAACBAAAAHgBQAAABrAjBmAQzwIPAAACoAid2dACCAAEhAgQJiIAYZPgIYCLAmZGUIAhglgDIy1cQgAAOAAAgEAACAAAAAEAgAAQAAAAAAAAAAA==

> <PUBCHEM_IUPAC_OPENEYE_NAME>
2-[(4-bromo-2-methyl-anilino)methyl]-7-methyl-pyrido[1,2-a]pyrimidin-4-one

> <PUBCHEM_IUPAC_CAS_NAME>
2-[(4-bromo-2-methylanilino)methyl]-7-methyl-4-pyrido[1,2-a]pyrimidinone

> <PUBCHEM_IUPAC_NAME>
2-[(4-bromo-2-methylanilino)methyl]-7-methylpyrido[1,2-a]pyrimidin-4-one

> <PUBCHEM_IUPAC_SYSTEMATIC_NAME>
2-[[(4-bromanyl-2-methyl-phenyl)amino]methyl]-7-methyl-pyrido[1,2-a]pyrimidin-4-one

> <PUBCHEM_IUPAC_TRADITIONAL_NAME>
2-[(4-bromo-2-methyl-anilino)methyl]-7-methyl-pyrido[1,2-a]pyrimidin-4-one

> <PUBCHEM_IUPAC_INCHI>
InChI=1S/C17H16BrN3O/c1-11-3-6-16-20-14(8-17(22)21(16)10-11)9-19-15-5-4-13(18)7-12(15)2/h3-8,10,19H,9H2,1-2H3

> <PUBCHEM_IUPAC_INCHIKEY>
XCQCCMBVVKRHBG-UHFFFAOYSA-N

> <PUBCHEM_XLOGP3_AA>
2.6

> <PUBCHEM_EXACT_MASS>
357.047674

> <PUBCHEM_MOLECULAR_FORMULA>
C17H16BrN3O

> <PUBCHEM_MOLECULAR_WEIGHT>
358.23244

> <PUBCHEM_OPENEYE_CAN_SMILES>
CC1=CN2C(=NC(=CC2=O)CNC3=C(C=C(C=C3)Br)C)C=C1

> <PUBCHEM_OPENEYE_ISO_SMILES>
CC1=CN2C(=NC(=CC2=O)CNC3=C(C=C(C=C3)Br)C)C=C1

> <PUBCHEM_CACTVS_TPSA>
44.7

> <PUBCHEM_MONOISOTOPIC_WEIGHT>
357.047674

> <PUBCHEM_TOTAL_CHARGE>
0

> <PUBCHEM_HEAVY_ATOM_COUNT>
22

> <PUBCHEM_ATOM_DEF_STEREO_COUNT>
0

> <PUBCHEM_ATOM_UDEF_STEREO_COUNT>
0

> <PUBCHEM_BOND_DEF_STEREO_COUNT>
0

> <PUBCHEM_BOND_UDEF_STEREO_COUNT>
0

> <PUBCHEM_ISOTOPIC_ATOM_COUNT>
0

> <PUBCHEM_COMPONENT_COUNT>
1

> <PUBCHEM_CACTVS_TAUTO_COUNT>
1

> <PUBCHEM_COORDINATE_TYPE>
1
5
255

> <PUBCHEM_BONDANNOTATIONS>
10  11  8
12  13  8
13  16  8
14  18  8
15  16  8
17  21  8
18  22  8
21  22  8
3  11  8
3  12  8
3  8  8
5  7  8
5  8  8
7  10  8
8  15  8
9  14  8
9  17  8

$$$$

