443304
  -OEChem-07051213012D

 33 33  0     1  0  0  0  0  0999 V2000
    6.3301    0.4400    0.0000 S   0  0  0  0  0  0  0  0  0  0  0  0
    3.7320    1.9400    0.0000 O   0  0  0  0  0  0  0  0  0  0  0  0
    5.4641    1.9400    0.0000 O   0  0  0  0  0  0  0  0  0  0  0  0
    2.8660    1.4400    0.0000 O   0  0  0  0  0  0  0  0  0  0  0  0
    8.9282    1.9400    0.0000 O   0  5  0  0  0  0  0  0  0  0  0  0
    7.1962    1.9400    0.0000 O   0  0  0  0  0  0  0  0  0  0  0  0
    9.7942   -2.5600    0.0000 O   0  5  0  0  0  0  0  0  0  0  0  0
   10.6603   -1.0600    0.0000 O   0  0  0  0  0  0  0  0  0  0  0  0
    3.7320   -0.0600    0.0000 N   0  0  0  0  0  0  0  0  0  0  0  0
    8.0622    1.4400    0.0000 N   0  3  0  0  0  0  0  0  0  0  0  0
    9.7942   -1.5600    0.0000 N   0  3  0  0  0  0  0  0  0  0  0  0
    4.5981    0.4400    0.0000 C   0  0  1  0  0  0  0  0  0  0  0  0
    5.4641   -0.0600    0.0000 C   0  0  0  0  0  0  0  0  0  0  0  0
    7.1962   -0.0600    0.0000 C   0  0  0  0  0  0  0  0  0  0  0  0
    8.0622    0.4400    0.0000 C   0  0  0  0  0  0  0  0  0  0  0  0
    4.5981    1.4400    0.0000 C   0  0  0  0  0  0  0  0  0  0  0  0
    7.1962   -1.0600    0.0000 C   0  0  0  0  0  0  0  0  0  0  0  0
    8.9282   -0.0600    0.0000 C   0  0  0  0  0  0  0  0  0  0  0  0
    8.9282   -1.0600    0.0000 C   0  0  0  0  0  0  0  0  0  0  0  0
    8.0622   -1.5600    0.0000 C   0  0  0  0  0  0  0  0  0  0  0  0
    2.8660    0.4400    0.0000 C   0  0  0  0  0  0  0  0  0  0  0  0
    2.0000   -0.0600    0.0000 C   0  0  0  0  0  0  0  0  0  0  0  0
    4.5981   -0.1800    0.0000 H   0  0  0  0  0  0  0  0  0  0  0  0
    5.0656   -0.5349    0.0000 H   0  0  0  0  0  0  0  0  0  0  0  0
    5.8626   -0.5349    0.0000 H   0  0  0  0  0  0  0  0  0  0  0  0
    3.7320   -0.6800    0.0000 H   0  0  0  0  0  0  0  0  0  0  0  0
    6.6592   -1.3700    0.0000 H   0  0  0  0  0  0  0  0  0  0  0  0
    9.4651    0.2500    0.0000 H   0  0  0  0  0  0  0  0  0  0  0  0
    8.0622   -2.1800    0.0000 H   0  0  0  0  0  0  0  0  0  0  0  0
    1.6900    0.4769    0.0000 H   0  0  0  0  0  0  0  0  0  0  0  0
    1.4631   -0.3700    0.0000 H   0  0  0  0  0  0  0  0  0  0  0  0
    2.3100   -0.5969    0.0000 H   0  0  0  0  0  0  0  0  0  0  0  0
    3.7320    2.5600    0.0000 H   0  0  0  0  0  0  0  0  0  0  0  0
  1 13  1  0  0  0  0
  1 14  1  0  0  0  0
  2 16  1  0  0  0  0
  2 33  1  0  0  0  0
  3 16  2  0  0  0  0
  4 21  2  0  0  0  0
  5 10  1  0  0  0  0
  6 10  2  0  0  0  0
  7 11  1  0  0  0  0
  8 11  2  0  0  0  0
 12  9  1  6  0  0  0
  9 21  1  0  0  0  0
  9 26  1  0  0  0  0
 10 15  1  0  0  0  0
 11 19  1  0  0  0  0
 12 13  1  0  0  0  0
 12 16  1  0  0  0  0
 12 23  1  0  0  0  0
 13 24  1  0  0  0  0
 13 25  1  0  0  0  0
 14 15  2  0  0  0  0
 14 17  1  0  0  0  0
 15 18  1  0  0  0  0
 17 20  2  0  0  0  0
 17 27  1  0  0  0  0
 18 19  2  0  0  0  0
 18 28  1  0  0  0  0
 19 20  1  0  0  0  0
 20 29  1  0  0  0  0
 21 22  1  0  0  0  0
 22 30  1  0  0  0  0
 22 31  1  0  0  0  0
 22 32  1  0  0  0  0
M  CHG  4   5  -1   7  -1  10   1  11   1
M  END
> <PUBCHEM_COMPOUND_CID>
443304

> <PUBCHEM_COMPOUND_CANONICALIZED>
1

> <PUBCHEM_CACTVS_COMPLEXITY>
462

> <PUBCHEM_CACTVS_HBOND_ACCEPTOR>
8

> <PUBCHEM_CACTVS_HBOND_DONOR>
2

> <PUBCHEM_CACTVS_ROTATABLE_BOND>
5

> <PUBCHEM_CACTVS_SUBSKEYS>
AAADccBzOABAAAAAAAAAAAAAAAAAAAAAAAAwAAAAAAAAAAABAAAAHgQUCAAACCjF0ASyyYLQQgiJACXSWwCCAAAgChAoiJ2IZIoKICKg0fGAYABglgC4yAcQAAAAAAQAAAQAAQAACAAACAACAAAAAAAAAA==

> <PUBCHEM_IUPAC_OPENEYE_NAME>
(2R)-2-acetamido-3-(2,4-dinitrophenyl)sulfanyl-propanoic acid

> <PUBCHEM_IUPAC_CAS_NAME>
(2R)-2-acetamido-3-[(2,4-dinitrophenyl)thio]propanoic acid

> <PUBCHEM_IUPAC_NAME>
(2R)-2-acetamido-3-(2,4-dinitrophenyl)sulfanylpropanoic acid

> <PUBCHEM_IUPAC_SYSTEMATIC_NAME>
(2R)-2-acetamido-3-(2,4-dinitrophenyl)sulfanyl-propanoic acid

> <PUBCHEM_IUPAC_TRADITIONAL_NAME>
(2R)-2-acetamido-3-[(2,4-dinitrophenyl)thio]propionic acid

> <PUBCHEM_IUPAC_INCHI>
InChI=1S/C11H11N3O7S/c1-6(15)12-8(11(16)17)5-22-10-3-2-7(13(18)19)4-9(10)14(20)21/h2-4,8H,5H2,1H3,(H,12,15)(H,16,17)/t8-/m0/s1

> <PUBCHEM_IUPAC_INCHIKEY>
DKCMLZRPNSABAR-QMMMGPOBSA-N

> <PUBCHEM_XLOGP3_AA>
1

> <PUBCHEM_EXACT_MASS>
329.031771

> <PUBCHEM_MOLECULAR_FORMULA>
C11H11N3O7S

> <PUBCHEM_MOLECULAR_WEIGHT>
329.28594

> <PUBCHEM_OPENEYE_CAN_SMILES>
CC(=O)NC(CSC1=C(C=C(C=C1)[N+](=O)[O-])[N+](=O)[O-])C(=O)O

> <PUBCHEM_OPENEYE_ISO_SMILES>
CC(=O)N[C@@H](CSC1=C(C=C(C=C1)[N+](=O)[O-])[N+](=O)[O-])C(=O)O

> <PUBCHEM_CACTVS_TPSA>
183

> <PUBCHEM_MONOISOTOPIC_WEIGHT>
329.031771

> <PUBCHEM_TOTAL_CHARGE>
0

> <PUBCHEM_HEAVY_ATOM_COUNT>
22

> <PUBCHEM_ATOM_DEF_STEREO_COUNT>
1

> <PUBCHEM_ATOM_UDEF_STEREO_COUNT>
0

> <PUBCHEM_BOND_DEF_STEREO_COUNT>
0

> <PUBCHEM_BOND_UDEF_STEREO_COUNT>
0

> <PUBCHEM_ISOTOPIC_ATOM_COUNT>
0

> <PUBCHEM_COMPONENT_COUNT>
1

> <PUBCHEM_CACTVS_TAUTO_COUNT>
2

> <PUBCHEM_COORDINATE_TYPE>
1
5
255

> <PUBCHEM_BONDANNOTATIONS>
14  15  8
14  17  8
15  18  8
17  20  8
18  19  8
19  20  8
12  9  6

$$$$

