3822
  -OEChem-07051212533D

 51 54  0     0  0  0  0  0  0999 V2000
   -8.2678   -2.3580    0.7787 F   0  0  0  0  0  0  0  0  0  0  0  0
   -3.5326    0.7806   -1.9190 O   0  0  0  0  0  0  0  0  0  0  0  0
    3.7794    0.9137    1.9558 O   0  0  0  0  0  0  0  0  0  0  0  0
    2.6852    0.1565   -2.5256 O   0  0  0  0  0  0  0  0  0  0  0  0
   -0.4291    1.0271    0.6053 N   0  0  0  0  0  0  0  0  0  0  0  0
    3.1608    0.5849   -0.2754 N   0  0  0  0  0  0  0  0  0  0  0  0
    4.6695   -0.5883   -1.6980 N   0  0  0  0  0  0  0  0  0  0  0  0
   -3.2712    1.6854    0.2650 C   0  0  0  0  0  0  0  0  0  0  0  0
   -2.7541    0.8643    1.4456 C   0  0  0  0  0  0  0  0  0  0  0  0
   -2.1529    2.5014   -0.3820 C   0  0  0  0  0  0  0  0  0  0  0  0
   -1.4547    0.1170    1.1308 C   0  0  0  0  0  0  0  0  0  0  0  0
   -0.8872    1.6763   -0.6294 C   0  0  0  0  0  0  0  0  0  0  0  0
    0.8216    0.3055    0.3694 C   0  0  0  0  0  0  0  0  0  0  0  0
   -3.9331    0.8080   -0.7576 C   0  0  0  0  0  0  0  0  0  0  0  0
    1.9149    1.2704   -0.0652 C   0  0  0  0  0  0  0  0  0  0  0  0
   -5.0901   -0.0369   -0.3474 C   0  0  0  0  0  0  0  0  0  0  0  0
    4.0310    0.4697    0.8382 C   0  0  0  0  0  0  0  0  0  0  0  0
    3.4524    0.0592   -1.5639 C   0  0  0  0  0  0  0  0  0  0  0  0
   -5.9059    0.4069    0.6694 C   0  0  0  0  0  0  0  0  0  0  0  0
   -5.3014   -1.2309   -1.0006 C   0  0  0  0  0  0  0  0  0  0  0  0
    5.3078   -0.2338    0.6089 C   0  0  0  0  0  0  0  0  0  0  0  0
    5.5885   -0.7421   -0.6556 C   0  0  0  0  0  0  0  0  0  0  0  0
   -6.9889   -0.3841    1.0532 C   0  0  0  0  0  0  0  0  0  0  0  0
   -6.3844   -2.0220   -0.6171 C   0  0  0  0  0  0  0  0  0  0  0  0
    6.2314   -0.3919    1.6474 C   0  0  0  0  0  0  0  0  0  0  0  0
    6.7919   -1.4113   -0.8929 C   0  0  0  0  0  0  0  0  0  0  0  0
   -7.2283   -1.5985    0.4099 C   0  0  0  0  0  0  0  0  0  0  0  0
    7.4335   -1.0601    1.4100 C   0  0  0  0  0  0  0  0  0  0  0  0
    7.7135   -1.5689    0.1421 C   0  0  0  0  0  0  0  0  0  0  0  0
   -4.0170    2.4101    0.6116 H   0  0  0  0  0  0  0  0  0  0  0  0
   -3.4872    0.1452    1.8226 H   0  0  0  0  0  0  0  0  0  0  0  0
   -2.5576    1.5539    2.2783 H   0  0  0  0  0  0  0  0  0  0  0  0
   -1.8978    3.3322    0.2907 H   0  0  0  0  0  0  0  0  0  0  0  0
   -2.4838    2.9638   -1.3201 H   0  0  0  0  0  0  0  0  0  0  0  0
   -1.0985   -0.3465    2.0591 H   0  0  0  0  0  0  0  0  0  0  0  0
   -1.6583   -0.6958    0.4212 H   0  0  0  0  0  0  0  0  0  0  0  0
   -1.0487    0.9400   -1.4258 H   0  0  0  0  0  0  0  0  0  0  0  0
   -0.1621    2.4027   -1.0044 H   0  0  0  0  0  0  0  0  0  0  0  0
    0.6891   -0.4850   -0.3815 H   0  0  0  0  0  0  0  0  0  0  0  0
    1.1386   -0.1914    1.2955 H   0  0  0  0  0  0  0  0  0  0  0  0
    2.0469    2.0559    0.6891 H   0  0  0  0  0  0  0  0  0  0  0  0
    1.6812    1.7702   -1.0080 H   0  0  0  0  0  0  0  0  0  0  0  0
   -5.7642    1.3520    1.1805 H   0  0  0  0  0  0  0  0  0  0  0  0
   -4.6492   -1.5746   -1.7977 H   0  0  0  0  0  0  0  0  0  0  0  0
    4.9100   -0.9751   -2.6063 H   0  0  0  0  0  0  0  0  0  0  0  0
   -7.6486   -0.0534    1.8500 H   0  0  0  0  0  0  0  0  0  0  0  0
   -6.5702   -2.9682   -1.1167 H   0  0  0  0  0  0  0  0  0  0  0  0
    6.0348   -0.0040    2.6430 H   0  0  0  0  0  0  0  0  0  0  0  0
    7.0218   -1.8126   -1.8765 H   0  0  0  0  0  0  0  0  0  0  0  0
    8.1526   -1.1841    2.2147 H   0  0  0  0  0  0  0  0  0  0  0  0
    8.6499   -2.0885   -0.0394 H   0  0  0  0  0  0  0  0  0  0  0  0
  1 27  1  0  0  0  0
  2 14  2  0  0  0  0
  3 17  2  0  0  0  0
  4 18  2  0  0  0  0
  5 11  1  0  0  0  0
  5 12  1  0  0  0  0
  5 13  1  0  0  0  0
  6 15  1  0  0  0  0
  6 17  1  0  0  0  0
  6 18  1  0  0  0  0
  7 18  1  0  0  0  0
  7 22  1  0  0  0  0
  7 45  1  0  0  0  0
  8  9  1  0  0  0  0
  8 10  1  0  0  0  0
  8 14  1  0  0  0  0
  8 30  1  0  0  0  0
  9 11  1  0  0  0  0
  9 31  1  0  0  0  0
  9 32  1  0  0  0  0
 10 12  1  0  0  0  0
 10 33  1  0  0  0  0
 10 34  1  0  0  0  0
 11 35  1  0  0  0  0
 11 36  1  0  0  0  0
 12 37  1  0  0  0  0
 12 38  1  0  0  0  0
 13 15  1  0  0  0  0
 13 39  1  0  0  0  0
 13 40  1  0  0  0  0
 14 16  1  0  0  0  0
 15 41  1  0  0  0  0
 15 42  1  0  0  0  0
 16 19  2  0  0  0  0
 16 20  1  0  0  0  0
 17 21  1  0  0  0  0
 19 23  1  0  0  0  0
 19 43  1  0  0  0  0
 20 24  2  0  0  0  0
 20 44  1  0  0  0  0
 21 22  1  0  0  0  0
 21 25  2  0  0  0  0
 22 26  2  0  0  0  0
 23 27  2  0  0  0  0
 23 46  1  0  0  0  0
 24 27  1  0  0  0  0
 24 47  1  0  0  0  0
 25 28  1  0  0  0  0
 25 48  1  0  0  0  0
 26 29  1  0  0  0  0
 26 49  1  0  0  0  0
 28 29  2  0  0  0  0
 28 50  1  0  0  0  0
 29 51  1  0  0  0  0
M  END
> <PUBCHEM_COMPOUND_CID>
3822

> <PUBCHEM_CONFORMER_RMSD>
0.8

> <PUBCHEM_CONFORMER_DIVERSEORDER>
1
121
232
83
241
266
123
132
150
279
114
44
165
173
103
238
221
82
274
237
9
46
267
196
254
294
125
216
97
162
183
217
142
20
239
288
61
181
155
128
280
175
293
289
29
4
43
151
105
193
8
240
145
27
5
242
99
96
187
185
51
203
270
167
256
226
176
261
262
102
186
104
159
129
101
260
28
26
210
282
250
33
15
276
36
154
117
54
134
164
269
253
268
191
137
23
147
119
214
110
213
21
230
53
206
258
108
130
182
224
88
192
139
49
225
287
169
67
156
13
275
220
229
292
70
86
201
197
222
127
6
209
35
153
116
93
291
235
199
223
277
90
144
215
71
25
135
189
219
40
271
245
87
30
248
272
75
120
100
16
273
278
208
259
281
263
195
34
12
283
74
244
80
290
252
94
178
190
7
55
47
171
204
200
194
212
84
234
11
231
218
98
112
141
106
78
92
58
126
168
170
233
69
14
255
143
136
264
236
89
64
72
41
85
202
38
39
91
95
228
243
118
124
157
37
60
286
122
18
246
113
285
177
265
111
160
77
198
227
257
284
184
249
131
174
158
133
50
31
251
148
48
79
172
62
188
22
166
180
42
107
45
32
205
247
24
3
56
161
146
149
63
179
211
138
19
76
68
10
17
57
65
59
73
152
2
115
81
66
163
207
109
140
52

> <PUBCHEM_MMFF94_PARTIAL_CHARGES>
36
1 -0.19
11 0.27
12 0.27
13 0.27
14 0.42
15 0.3
16 0.09
17 0.54
18 0.69
19 -0.15
2 -0.57
20 -0.15
21 0.09
22 0.12
23 -0.15
24 -0.15
25 -0.15
26 -0.15
27 0.19
28 -0.15
29 -0.15
3 -0.57
4 -0.57
43 0.15
44 0.15
45 0.37
46 0.15
47 0.15
48 0.15
49 0.15
5 -0.81
50 0.15
51 0.15
6 -0.42
7 -0.55
8 0.06

> <PUBCHEM_EFFECTIVE_ROTOR_COUNT>
6.2

> <PUBCHEM_PHARMACOPHORE_FEATURES>
9
1 2 acceptor
1 3 acceptor
1 4 acceptor
1 5 cation
1 7 donor
6 16 19 20 23 24 27 rings
6 21 22 25 26 28 29 rings
6 5 8 9 10 11 12 rings
6 6 7 17 18 21 22 rings

> <PUBCHEM_HEAVY_ATOM_COUNT>
29

> <PUBCHEM_ATOM_DEF_STEREO_COUNT>
0

> <PUBCHEM_ATOM_UDEF_STEREO_COUNT>
0

> <PUBCHEM_BOND_DEF_STEREO_COUNT>
0

> <PUBCHEM_BOND_UDEF_STEREO_COUNT>
0

> <PUBCHEM_ISOTOPIC_ATOM_COUNT>
0

> <PUBCHEM_COMPONENT_COUNT>
1

> <PUBCHEM_CACTVS_TAUTO_COUNT>
6

> <PUBCHEM_CONFORMER_ID>
00000EEE00000001

> <PUBCHEM_MMFF94_ENERGY>
66.8189

> <PUBCHEM_FEATURE_SELFOVERLAP>
45.695

> <PUBCHEM_SHAPE_FINGERPRINT>
10 15 14923942345077925873
10029044 110 7853036922702000523
10066227 112 11672059757317741310
10670039 82 15339125666662047517
11135926 11 18340772632926128207
11297750 10 5326537304716246744
11386260 185 15267337384306695918
11991303 11 15984815983551393667
12166972 35 17775283859157514532
12616971 3 15357708474181922904
13668630 136 18272090508618316154
13685833 64 18259987089347287536
13782708 43 18335143111236239520
14068700 675 18131067143072082317
14251764 18 5328738574550041037
14294032 229 17629486556205434037
14556957 393 16343413011830282357
14849402 71 15937273109682893368
14931854 50 14117802426846900900
15064986 266 14692576551054047045
15183329 4 15339122359426556428
15352257 5 18334012800166401203
15419008 91 18263103109126874248
15461852 350 18272368698630639844
15510800 12 18337378388000182475
1577012 14 15985111850551873669
16110190 28 15719397213573964941
16992779 147 16299815022621945160
16994733 274 7997386344854863838
190975 80 17022911116038483495
19377110 9 14634867561371286034
20105231 36 15791724214363583164
2026 5 17986676072747677218
21150785 3 15410892967912701984
21424621 283 9007064565010013029
21623969 137 16660361489216972748
21781051 124 17988633056930556923
221357 26 14836405843988247510
23522609 53 18055038121698889045
23559900 14 16486964055831059996
23576562 1 13757773889798927274
3004659 81 16774080665511222224
3178227 256 16660369178031404122
3383291 50 18335420141133711067
397830 11 17894639127485911425
4340502 62 16225768528118643356
474113 269 12607140547649580792
504579 68 15554446297030793235
5104073 3 14563113376280592930
5718773 13 18341895194656600370
6009941 240 17822569521247389425
6328613 192 8790593832108758778
999808 66 18187366523854851447

> <PUBCHEM_SHAPE_MULTIPOLES>
556.98
24.85
1.92
1.71
0.72
0.14
0.35
18.06
-5.27
-2.67
0.09
1.46
-0.01
0.64

> <PUBCHEM_SHAPE_SELFOVERLAP>
1212.597

> <PUBCHEM_SHAPE_VOLUME>
301.5

> <PUBCHEM_COORDINATE_TYPE>
2
5
10

$$$$

