18303
  -OEChem-07051213132D

 12 12  0     1  0  0  0  0  0999 V2000
    3.7071    0.5000    0.0000 O   0  0  0  0  0  0  0  0  0  0  0  0
    2.0000    1.2071    0.0000 O   0  0  0  0  0  0  0  0  0  0  0  0
    3.7071   -0.5000    0.0000 C   0  0  3  0  0  0  0  0  0  0  0  0
    2.7071   -0.5000    0.0000 C   0  0  0  0  0  0  0  0  0  0  0  0
    2.7071    0.5000    0.0000 C   0  0  0  0  0  0  0  0  0  0  0  0
    4.4142   -1.2071    0.0000 C   0  0  0  0  0  0  0  0  0  0  0  0
    4.4924   -0.1747    0.0000 H   0  0  0  0  0  0  0  0  0  0  0  0
    2.0871   -0.5000    0.0000 H   0  0  0  0  0  0  0  0  0  0  0  0
    2.7071   -1.1200    0.0000 H   0  0  0  0  0  0  0  0  0  0  0  0
    3.9758   -1.6455    0.0000 H   0  0  0  0  0  0  0  0  0  0  0  0
    4.8526   -1.6455    0.0000 H   0  0  0  0  0  0  0  0  0  0  0  0
    4.8526   -0.7687    0.0000 H   0  0  0  0  0  0  0  0  0  0  0  0
  1  3  1  0  0  0  0
  1  5  1  0  0  0  0
  2  5  2  0  0  0  0
  3  4  1  0  0  0  0
  3  6  1  0  0  0  0
  3  7  1  0  0  0  0
  4  5  1  0  0  0  0
  4  8  1  0  0  0  0
  4  9  1  0  0  0  0
  6 10  1  0  0  0  0
  6 11  1  0  0  0  0
  6 12  1  0  0  0  0
M  END
> <PUBCHEM_COMPOUND_CID>
18303

> <PUBCHEM_COMPOUND_CANONICALIZED>
1

> <PUBCHEM_CACTVS_COMPLEXITY>
77.6

> <PUBCHEM_CACTVS_HBOND_ACCEPTOR>
2

> <PUBCHEM_CACTVS_HBOND_DONOR>
0

> <PUBCHEM_CACTVS_ROTATABLE_BOND>
0

> <PUBCHEM_CACTVS_SUBSKEYS>
AAADcYBgMAAAAAAAAAAAAAAAAABIAAAAAAAAAAAAAAAAAAAAAAAAGgAAAAAACBSggAICCAAABAAIAACQCAAAAAAAAAAAAAEAAAAAABQAAAACAAAEIAAAAAAAAAAAAAAAAAAAAAAAAAAAAAAAAAAAAAAAAA==

> <PUBCHEM_IUPAC_OPENEYE_NAME>
4-methyloxetan-2-one

> <PUBCHEM_IUPAC_CAS_NAME>
4-methyl-2-oxetanone

> <PUBCHEM_IUPAC_NAME>
4-methyloxetan-2-one

> <PUBCHEM_IUPAC_SYSTEMATIC_NAME>
4-methyloxetan-2-one

> <PUBCHEM_IUPAC_TRADITIONAL_NAME>
4-methyloxetan-2-one

> <PUBCHEM_IUPAC_INCHI>
InChI=1S/C4H6O2/c1-3-2-4(5)6-3/h3H,2H2,1H3

> <PUBCHEM_IUPAC_INCHIKEY>
GSCLMSFRWBPUSK-UHFFFAOYSA-N

> <PUBCHEM_XLOGP3_AA>
0.3

> <PUBCHEM_EXACT_MASS>
86.036779

> <PUBCHEM_MOLECULAR_FORMULA>
C4H6O2

> <PUBCHEM_MOLECULAR_WEIGHT>
86.08924

> <PUBCHEM_OPENEYE_CAN_SMILES>
CC1CC(=O)O1

> <PUBCHEM_OPENEYE_ISO_SMILES>
CC1CC(=O)O1

> <PUBCHEM_CACTVS_TPSA>
26.3

> <PUBCHEM_MONOISOTOPIC_WEIGHT>
86.036779

> <PUBCHEM_TOTAL_CHARGE>
0

> <PUBCHEM_HEAVY_ATOM_COUNT>
6

> <PUBCHEM_ATOM_DEF_STEREO_COUNT>
0

> <PUBCHEM_ATOM_UDEF_STEREO_COUNT>
1

> <PUBCHEM_BOND_DEF_STEREO_COUNT>
0

> <PUBCHEM_BOND_UDEF_STEREO_COUNT>
0

> <PUBCHEM_ISOTOPIC_ATOM_COUNT>
0

> <PUBCHEM_COMPONENT_COUNT>
1

> <PUBCHEM_CACTVS_TAUTO_COUNT>
2

> <PUBCHEM_COORDINATE_TYPE>
1
5
255

> <PUBCHEM_BONDANNOTATIONS>
3  7  3

$$$$

