51090865
  -OEChem-06241223003D

 45 47  0     0  0  0  0  0  0999 V2000
    5.4306   -0.0127    0.5095 O   0  0  0  0  0  0  0  0  0  0  0  0
    0.3223   -3.3381   -0.2748 O   0  0  0  0  0  0  0  0  0  0  0  0
    3.4882   -0.2809   -0.7355 N   0  0  0  0  0  0  0  0  0  0  0  0
   -0.5316   -1.1493    0.0105 N   0  0  0  0  0  0  0  0  0  0  0  0
   -2.1485    3.0726    0.8725 N   0  0  0  0  0  0  0  0  0  0  0  0
   -1.0867    1.5029   -0.2156 N   0  0  0  0  0  0  0  0  0  0  0  0
    2.2114   -0.7614   -0.8427 N   0  0  0  0  0  0  0  0  0  0  0  0
   -2.9927    2.0316    0.9334 N   0  0  0  0  0  0  0  0  0  0  0  0
    0.0752    3.7119   -0.0249 C   0  0  0  0  0  0  0  0  0  0  0  0
    2.6401   -2.1305    1.1670 C   0  0  0  0  0  0  0  0  0  0  0  0
    3.5812   -1.0342    1.5984 C   0  0  0  0  0  0  0  0  0  0  0  0
    1.8059   -1.6017    0.0495 C   0  0  0  0  0  0  0  0  0  0  0  0
   -1.0181    2.7501    0.1883 C   0  0  0  0  0  0  0  0  0  0  0  0
   -2.8009   -0.2258    0.0427 C   0  0  0  0  0  0  0  0  0  0  0  0
   -1.9343   -1.3121   -0.0774 C   0  0  0  0  0  0  0  0  0  0  0  0
    4.2715   -0.4184    0.4062 C   0  0  0  0  0  0  0  0  0  0  0  0
   -2.3040    1.1075    0.2604 C   0  0  0  0  0  0  0  0  0  0  0  0
    0.3253    4.0273   -1.5199 C   0  0  0  0  0  0  0  0  0  0  0  0
    1.4084    3.2727    0.6280 C   0  0  0  0  0  0  0  0  0  0  0  0
    0.4256   -2.1358   -0.0926 C   0  0  0  0  0  0  0  0  0  0  0  0
   -4.1792   -0.4198   -0.0477 C   0  0  0  0  0  0  0  0  0  0  0  0
   -2.4460   -2.5925   -0.2879 C   0  0  0  0  0  0  0  0  0  0  0  0
    3.9720    0.4236   -1.9107 C   0  0  0  0  0  0  0  0  0  0  0  0
   -4.6910   -1.7002   -0.2583 C   0  0  0  0  0  0  0  0  0  0  0  0
   -3.8245   -2.7866   -0.3784 C   0  0  0  0  0  0  0  0  0  0  0  0
   -0.2004    4.6646    0.4487 H   0  0  0  0  0  0  0  0  0  0  0  0
    3.1914   -3.0015    0.7959 H   0  0  0  0  0  0  0  0  0  0  0  0
    2.0078   -2.4480    2.0017 H   0  0  0  0  0  0  0  0  0  0  0  0
    4.3334   -1.4332    2.2868 H   0  0  0  0  0  0  0  0  0  0  0  0
    3.0357   -0.2340    2.1126 H   0  0  0  0  0  0  0  0  0  0  0  0
    1.7749    2.3401    0.1847 H   0  0  0  0  0  0  0  0  0  0  0  0
    0.6455    3.1308   -2.0626 H   0  0  0  0  0  0  0  0  0  0  0  0
    1.1002    4.7926   -1.6322 H   0  0  0  0  0  0  0  0  0  0  0  0
   -0.5905    4.3965   -1.9942 H   0  0  0  0  0  0  0  0  0  0  0  0
    1.2735    3.1012    1.7015 H   0  0  0  0  0  0  0  0  0  0  0  0
    2.1778    4.0408    0.4989 H   0  0  0  0  0  0  0  0  0  0  0  0
   -0.1960   -0.2038    0.1715 H   0  0  0  0  0  0  0  0  0  0  0  0
   -2.4096    3.9474    1.3119 H   0  0  0  0  0  0  0  0  0  0  0  0
   -4.8810    0.4069    0.0335 H   0  0  0  0  0  0  0  0  0  0  0  0
   -1.8444   -3.4841   -0.3911 H   0  0  0  0  0  0  0  0  0  0  0  0
    3.3178    1.2797   -2.1012 H   0  0  0  0  0  0  0  0  0  0  0  0
    4.9952    0.7805   -1.7689 H   0  0  0  0  0  0  0  0  0  0  0  0
    3.9444   -0.2574   -2.7664 H   0  0  0  0  0  0  0  0  0  0  0  0
   -5.7641   -1.8515   -0.3307 H   0  0  0  0  0  0  0  0  0  0  0  0
   -4.2244   -3.7831   -0.5427 H   0  0  0  0  0  0  0  0  0  0  0  0
  1 16  2  0  0  0  0
  2 20  2  0  0  0  0
  3  7  1  0  0  0  0
  3 16  1  0  0  0  0
  3 23  1  0  0  0  0
  4 15  1  0  0  0  0
  4 20  1  0  0  0  0
  4 37  1  0  0  0  0
  5  8  1  0  0  0  0
  5 13  1  0  0  0  0
  5 38  1  0  0  0  0
  6 13  2  0  0  0  0
  6 17  1  0  0  0  0
  7 12  2  0  0  0  0
  8 17  2  0  0  0  0
  9 13  1  0  0  0  0
  9 18  1  0  0  0  0
  9 19  1  0  0  0  0
  9 26  1  0  0  0  0
 10 11  1  0  0  0  0
 10 12  1  0  0  0  0
 10 27  1  0  0  0  0
 10 28  1  0  0  0  0
 11 16  1  0  0  0  0
 11 29  1  0  0  0  0
 11 30  1  0  0  0  0
 12 20  1  0  0  0  0
 14 15  1  0  0  0  0
 14 17  1  0  0  0  0
 14 21  2  0  0  0  0
 15 22  2  0  0  0  0
 18 32  1  0  0  0  0
 18 33  1  0  0  0  0
 18 34  1  0  0  0  0
 19 31  1  0  0  0  0
 19 35  1  0  0  0  0
 19 36  1  0  0  0  0
 21 24  1  0  0  0  0
 21 39  1  0  0  0  0
 22 25  1  0  0  0  0
 22 40  1  0  0  0  0
 23 41  1  0  0  0  0
 23 42  1  0  0  0  0
 23 43  1  0  0  0  0
 24 25  2  0  0  0  0
 24 44  1  0  0  0  0
 25 45  1  0  0  0  0
M  END
> <PUBCHEM_COMPOUND_CID>
51090865

> <PUBCHEM_CONFORMER_RMSD>
0.8

> <PUBCHEM_CONFORMER_DIVERSEORDER>
1
39
40
20
38
15
21
34
5
48
26
6
51
54
24
23
55
53
4
32
47
16
50
33
25
36
46
7
45
58
12
8
43
56
41
61
14
37
30
3
27
31
18
2
29
57
22
19
42
49
10
17
35
11
59
13
44
60
52
28
9

> <PUBCHEM_MMFF94_PARTIAL_CHARGES>
29
1 -0.57
10 0.06
11 0.06
12 0.39
13 0.01
14 0.05
15 0.12
16 0.57
17 0.46
2 -0.57
20 0.63
21 -0.15
22 -0.15
23 0.3
24 -0.15
25 -0.15
3 -0.3
37 0.37
38 0.27
39 0.15
4 -0.55
40 0.15
44 0.15
45 0.15
5 0.3
6 -0.57
7 -0.51
8 -0.71
9 0.18

> <PUBCHEM_EFFECTIVE_ROTOR_COUNT>
5.6

> <PUBCHEM_PHARMACOPHORE_FEATURES>
11
1 1 acceptor
1 2 acceptor
1 4 donor
1 5 donor
1 7 acceptor
3 5 6 13 cation
3 6 8 17 cation
3 9 18 19 hydrophobe
5 5 6 8 13 17 rings
6 14 15 21 22 24 25 rings
6 3 7 10 11 12 16 rings

> <PUBCHEM_HEAVY_ATOM_COUNT>
25

> <PUBCHEM_ATOM_DEF_STEREO_COUNT>
0

> <PUBCHEM_ATOM_UDEF_STEREO_COUNT>
0

> <PUBCHEM_BOND_DEF_STEREO_COUNT>
0

> <PUBCHEM_BOND_UDEF_STEREO_COUNT>
0

> <PUBCHEM_ISOTOPIC_ATOM_COUNT>
0

> <PUBCHEM_COMPONENT_COUNT>
1

> <PUBCHEM_CACTVS_TAUTO_COUNT>
88

> <PUBCHEM_CONFORMER_ID>
030B95B100000001

> <PUBCHEM_MMFF94_ENERGY>
55.3294

> <PUBCHEM_FEATURE_SELFOVERLAP>
58.567

> <PUBCHEM_SHAPE_FINGERPRINT>
10369192 42 16807031831395847176
10498660 4 18337670922569726462
10670039 82 18339915018029819030
10871710 139 18339625811347103797
1100329 8 18194964037344086895
11578080 2 17773623558023689981
11595378 159 18197522742925675314
12107183 9 17619923089786678922
12156800 1 15867398075636737481
12166972 35 17846500292535004734
12173636 292 17974853075346736821
12553582 1 18409721868420370603
12788726 201 18338785762888237487
13009979 54 18200883997221993482
13122387 1 18338233876976636808
13140716 1 18265327314349812019
13773456 30 17190960757207935508
138480 1 15167140448582133033
13941206 138 17049351944341847228
14081887 123 18263086668165261232
14117953 113 17980200013108994757
14790565 3 17831012799701964385
14931854 50 18124860279789890268
15006816 218 17688591563547966081
15927050 60 17328298048598063815
18336668 15 18130791109955637396
19591789 44 16177354462414916163
20642791 178 18341319008252575093
20642791 35 18263636269428807301
20715895 44 17482849148378695541
20905425 154 17829883239822777508
21857420 4 15293003099481686566
22113638 7 18338241435981791662
22749437 52 17619919791108934612
23366157 5 17913214152850996429
23557571 272 18114461244880032658
23559900 14 18265342703143871249
3178227 256 18340757248738207809
3298306 158 17545883724707101365
3524813 1 17895489063106672858
392239 28 18410016494613328928
469060 322 18337941342622722107
532947 4 17904205832599254535
7097593 13 17624146292099589930

> <PUBCHEM_SHAPE_MULTIPOLES>
472.86
8.55
5.08
1.17
2.8
4.93
-0.19
-4.97
0.01
-1.22
-0.17
1.22
0.32
-1.41

> <PUBCHEM_SHAPE_SELFOVERLAP>
1014

> <PUBCHEM_SHAPE_VOLUME>
262.5

> <PUBCHEM_COORDINATE_TYPE>
2
5
10

$$$$

