5281163
  -OEChem-07051212553D

 21 20  0     0  0  0  0  0  0999 V2000
    1.2489   -0.2853    0.0797 O   0  0  0  0  0  0  0  0  0  0  0  0
    0.2606    1.7403   -0.3907 O   0  0  0  0  0  0  0  0  0  0  0  0
   -1.0744   -0.2480   -0.1217 C   0  0  0  0  0  0  0  0  0  0  0  0
    2.5382    0.3368    0.0728 C   0  0  0  0  0  0  0  0  0  0  0  0
    0.1949    0.5398   -0.1682 C   0  0  0  0  0  0  0  0  0  0  0  0
   -1.0363   -1.6850   -0.5501 C   0  0  0  0  0  0  0  0  0  0  0  0
   -2.1685    0.4248    0.2799 C   0  0  0  0  0  0  0  0  0  0  0  0
    3.5924   -0.7101    0.3630 C   0  0  0  0  0  0  0  0  0  0  0  0
   -3.5557   -0.1132    0.4352 C   0  0  0  0  0  0  0  0  0  0  0  0
    2.7220    0.7848   -0.9101 H   0  0  0  0  0  0  0  0  0  0  0  0
    2.5707    1.1179    0.8406 H   0  0  0  0  0  0  0  0  0  0  0  0
   -2.0206   -2.0708   -0.8274 H   0  0  0  0  0  0  0  0  0  0  0  0
   -0.3980   -1.8039   -1.4327 H   0  0  0  0  0  0  0  0  0  0  0  0
   -0.6351   -2.3114    0.2530 H   0  0  0  0  0  0  0  0  0  0  0  0
   -2.0770    1.4754    0.5516 H   0  0  0  0  0  0  0  0  0  0  0  0
    4.5926   -0.2681    0.3652 H   0  0  0  0  0  0  0  0  0  0  0  0
    3.4112   -1.1802    1.3352 H   0  0  0  0  0  0  0  0  0  0  0  0
    3.5596   -1.5077   -0.3866 H   0  0  0  0  0  0  0  0  0  0  0  0
   -3.9306    0.1286    1.4351 H   0  0  0  0  0  0  0  0  0  0  0  0
   -3.6190   -1.1971    0.3179 H   0  0  0  0  0  0  0  0  0  0  0  0
   -4.2193    0.3538   -0.2988 H   0  0  0  0  0  0  0  0  0  0  0  0
  1  4  1  0  0  0  0
  1  5  1  0  0  0  0
  2  5  2  0  0  0  0
  3  5  1  0  0  0  0
  3  6  1  0  0  0  0
  3  7  2  0  0  0  0
  4  8  1  0  0  0  0
  4 10  1  0  0  0  0
  4 11  1  0  0  0  0
  6 12  1  0  0  0  0
  6 13  1  0  0  0  0
  6 14  1  0  0  0  0
  7  9  1  0  0  0  0
  7 15  1  0  0  0  0
  8 16  1  0  0  0  0
  8 17  1  0  0  0  0
  8 18  1  0  0  0  0
  9 19  1  0  0  0  0
  9 20  1  0  0  0  0
  9 21  1  0  0  0  0
M  END
> <PUBCHEM_COMPOUND_CID>
5281163

> <PUBCHEM_CONFORMER_RMSD>
0.6

> <PUBCHEM_CONFORMER_DIVERSEORDER>
1
14
8
18
4
9
2
17
12
3
15
6
19
13
16
5
7
10
11

> <PUBCHEM_MMFF94_PARTIAL_CHARGES>
9
1 -0.43
15 0.15
2 -0.57
3 -0.12
4 0.28
5 0.71
6 0.14
7 -0.29
9 0.14

> <PUBCHEM_EFFECTIVE_ROTOR_COUNT>
3

> <PUBCHEM_PHARMACOPHORE_FEATURES>
3
1 2 acceptor
1 6 hydrophobe
1 9 hydrophobe

> <PUBCHEM_HEAVY_ATOM_COUNT>
9

> <PUBCHEM_ATOM_DEF_STEREO_COUNT>
0

> <PUBCHEM_ATOM_UDEF_STEREO_COUNT>
0

> <PUBCHEM_BOND_DEF_STEREO_COUNT>
1

> <PUBCHEM_BOND_UDEF_STEREO_COUNT>
0

> <PUBCHEM_ISOTOPIC_ATOM_COUNT>
0

> <PUBCHEM_COMPONENT_COUNT>
1

> <PUBCHEM_CACTVS_TAUTO_COUNT>
1

> <PUBCHEM_CONFORMER_ID>
0050958B00000001

> <PUBCHEM_MMFF94_ENERGY>
10.1773

> <PUBCHEM_FEATURE_SELFOVERLAP>
15.223

> <PUBCHEM_SHAPE_FINGERPRINT>
10219947 1 18409725175302361545
11062470 55 5184347395616661235
12932764 1 18130520673160557632
13690532 89 18410016516083000639
14325111 11 18334574646507750209
14390081 3 9583525321486935030
14993402 34 18410012126372930839
15310529 11 16486985011060295278
207724 885 18413107238598931393
21040471 1 18188197720248515509
23235685 24 18187085065809895031
23402539 116 15791739624437078417
23552423 10 17908985409170573301
29004967 10 17775282759460769752

> <PUBCHEM_SHAPE_MULTIPOLES>
173.48
5.35
1.33
0.7
1.47
0.11
-0.01
0.77
-1.33
-0.08
0.27
-0.07
0.04
-0.25

> <PUBCHEM_SHAPE_SELFOVERLAP>
321.973

> <PUBCHEM_SHAPE_VOLUME>
109.8

> <PUBCHEM_COORDINATE_TYPE>
2
5
10

$$$$

