5460408
  -OEChem-07051212523D

 24 25  0     1  0  0  0  0  0999 V2000
   -0.4202   -1.3588    0.6552 O   0  0  0  0  0  0  0  0  0  0  0  0
    3.1639   -0.4607   -1.2789 O   0  0  0  0  0  0  0  0  0  0  0  0
    0.1580    3.0215   -0.6168 O   0  0  0  0  0  0  0  0  0  0  0  0
   -0.2177    2.0898    1.4295 O   0  0  0  0  0  0  0  0  0  0  0  0
    1.4415    0.0520    0.2512 N   0  0  0  0  0  0  0  0  0  0  0  0
   -4.2404   -0.5994    0.0274 N   0  0  0  0  0  0  0  0  0  0  0  0
    0.9325   -1.0500    1.0719 C   0  0  2  0  0  0  0  0  0  0  0  0
    0.3601    0.6916   -0.4495 C   0  0  1  0  0  0  0  0  0  0  0  0
    2.0998   -1.9001    0.5391 C   0  0  0  0  0  0  0  0  0  0  0  0
    2.4270   -0.6828   -0.3449 C   0  0  0  0  0  0  0  0  0  0  0  0
   -0.7562   -0.2984   -0.2084 C   0  0  0  0  0  0  0  0  0  0  0  0
    0.0674    1.9801    0.2462 C   0  0  0  0  0  0  0  0  0  0  0  0
   -1.9609   -0.2465   -0.7873 C   0  0  0  0  0  0  0  0  0  0  0  0
   -3.0548   -1.2382   -0.5348 C   0  0  0  0  0  0  0  0  0  0  0  0
    0.9818   -0.8303    2.1443 H   0  0  0  0  0  0  0  0  0  0  0  0
    0.5961    0.8067   -1.5115 H   0  0  0  0  0  0  0  0  0  0  0  0
    1.8147   -2.7924   -0.0235 H   0  0  0  0  0  0  0  0  0  0  0  0
    2.8760   -2.1421    1.2691 H   0  0  0  0  0  0  0  0  0  0  0  0
   -2.1788    0.5661   -1.4769 H   0  0  0  0  0  0  0  0  0  0  0  0
   -3.3270   -1.7109   -1.4848 H   0  0  0  0  0  0  0  0  0  0  0  0
   -2.7425   -2.0440    0.1368 H   0  0  0  0  0  0  0  0  0  0  0  0
   -0.0329    3.8781   -0.1784 H   0  0  0  0  0  0  0  0  0  0  0  0
   -4.5724    0.1339   -0.5976 H   0  0  0  0  0  0  0  0  0  0  0  0
   -4.0070   -0.1497    0.9117 H   0  0  0  0  0  0  0  0  0  0  0  0
  1  7  1  0  0  0  0
  1 11  1  0  0  0  0
  2 10  2  0  0  0  0
  3 12  1  0  0  0  0
  3 22  1  0  0  0  0
  4 12  2  0  0  0  0
  5  7  1  0  0  0  0
  5  8  1  0  0  0  0
  5 10  1  0  0  0  0
  6 14  1  0  0  0  0
  6 23  1  0  0  0  0
  6 24  1  0  0  0  0
  7  9  1  0  0  0  0
  7 15  1  0  0  0  0
  8 11  1  0  0  0  0
  8 12  1  0  0  0  0
  8 16  1  0  0  0  0
  9 10  1  0  0  0  0
  9 17  1  0  0  0  0
  9 18  1  0  0  0  0
 11 13  2  0  0  0  0
 13 14  1  0  0  0  0
 13 19  1  0  0  0  0
 14 20  1  0  0  0  0
 14 21  1  0  0  0  0
M  END
> <PUBCHEM_COMPOUND_CID>
5460408

> <PUBCHEM_CONFORMER_RMSD>
0.6

> <PUBCHEM_CONFORMER_DIVERSEORDER>
1
4
2
3

> <PUBCHEM_MMFF94_PARTIAL_CHARGES>
18
1 -0.33
10 0.58
11 -0.06
12 0.66
13 -0.29
14 0.41
19 0.15
2 -0.57
22 0.5
23 0.36
24 0.36
3 -0.65
4 -0.57
5 -0.59
6 -0.99
7 0.48
8 0.5
9 0.05

> <PUBCHEM_EFFECTIVE_ROTOR_COUNT>
2.6

> <PUBCHEM_PHARMACOPHORE_FEATURES>
8
1 1 acceptor
1 2 acceptor
1 3 acceptor
1 4 acceptor
1 6 cation
1 6 donor
3 3 4 12 anion
7 1 5 7 8 9 10 11 rings

> <PUBCHEM_HEAVY_ATOM_COUNT>
14

> <PUBCHEM_ATOM_DEF_STEREO_COUNT>
2

> <PUBCHEM_ATOM_UDEF_STEREO_COUNT>
0

> <PUBCHEM_BOND_DEF_STEREO_COUNT>
1

> <PUBCHEM_BOND_UDEF_STEREO_COUNT>
0

> <PUBCHEM_ISOTOPIC_ATOM_COUNT>
0

> <PUBCHEM_COMPONENT_COUNT>
1

> <PUBCHEM_CACTVS_TAUTO_COUNT>
1

> <PUBCHEM_CONFORMER_ID>
005351B800000001

> <PUBCHEM_MMFF94_ENERGY>
32.2948

> <PUBCHEM_FEATURE_SELFOVERLAP>
40.65

> <PUBCHEM_SHAPE_FINGERPRINT>
10353120 184 18410291436585955943
12423570 1 5379528280368982866
12725867 57 18265638544290100481
13538477 17 18053386792497705940
14120999 15 18271515451231455636
14617773 55 18196650915766454194
15490181 8 17331131498378048181
161256 15 18337403668177270988
16945 1 18202565042556584686
17775402 16 18272930501358437756
18410436 195 18260276239135163441
20339313 130 18114456773808476055
20645477 70 18119823404639546303
20708731 107 18194684765679707423
20820808 20 17560517305117644502
21524375 3 17259644542491125885
2255824 54 18196098746334017631
228727 97 18342446080431983254
23402539 116 18408611374624743438
23559900 14 17178857325131626154
2748010 2 18266485211304099741
3250762 1 17550375246659841842
4369600 1 18412547583033294522
53812653 217 17978778331578166380
7364860 26 17898857850775173213
81228 2 18046640167732955849

> <PUBCHEM_SHAPE_MULTIPOLES>
254.67
4.42
2.4
1.06
3.53
2.07
-0.08
-2.86
1.09
-0.26
-0.34
-0.33
0.11
-0.26

> <PUBCHEM_SHAPE_SELFOVERLAP>
536.831

> <PUBCHEM_SHAPE_VOLUME>
142.9

> <PUBCHEM_COORDINATE_TYPE>
2
5
10

$$$$

