235500
  -OEChem-07051213063D

 54 58  0     1  0  0  0  0  0999 V2000
    4.2045    0.9173    0.6063 O   0  0  0  0  0  0  0  0  0  0  0  0
    5.1860   -1.0057   -1.8477 O   0  0  0  0  0  0  0  0  0  0  0  0
   -5.6253   -0.0206    0.4322 O   0  0  0  0  0  0  0  0  0  0  0  0
    2.0350   -0.3042    0.9421 C   0  0  1  0  0  0  0  0  0  0  0  0
    2.8028    0.8590    0.3075 C   0  0  2  0  0  0  0  0  0  0  0  0
    0.6339   -0.3778    0.2204 C   0  0  2  0  0  0  0  0  0  0  0  0
   -0.1067    1.0037    0.2371 C   0  0  2  0  0  0  0  0  0  0  0  0
   -1.4373    0.8567   -0.5087 C   0  0  1  0  0  0  0  0  0  0  0  0
   -2.3661   -0.2046    0.1196 C   0  0  2  0  0  0  0  0  0  0  0  0
    3.8521    0.5798   -0.7465 C   0  0  2  0  0  0  0  0  0  0  0  0
    2.1248    2.1989    0.2998 C   0  0  0  0  0  0  0  0  0  0  0  0
    0.7705    2.0989   -0.3937 C   0  0  0  0  0  0  0  0  0  0  0  0
   -0.2776   -1.5318    0.7122 C   0  0  0  0  0  0  0  0  0  0  0  0
    2.8465   -1.6252    0.7845 C   0  0  0  0  0  0  0  0  0  0  0  0
   -1.6561   -1.5616    0.0275 C   0  0  0  0  0  0  0  0  0  0  0  0
   -3.5895   -0.0471   -0.8100 C   0  0  2  0  0  0  0  0  0  0  0  0
   -2.3409    2.0764   -0.6553 C   0  0  0  0  0  0  0  0  0  0  0  0
    1.8852   -0.0613    2.4630 C   0  0  0  0  0  0  0  0  0  0  0  0
   -3.7110    1.4773   -1.0195 C   0  0  0  0  0  0  0  0  0  0  0  0
    3.3074   -1.8974   -0.6422 C   0  0  0  0  0  0  0  0  0  0  0  0
    4.2187   -0.7991   -1.1242 C   0  0  0  0  0  0  0  0  0  0  0  0
   -2.7494    0.0901    1.5937 C   0  0  0  0  0  0  0  0  0  0  0  0
   -4.8582   -0.6521   -0.2927 C   0  0  0  0  0  0  0  0  0  0  0  0
   -5.1493   -2.0695   -0.7054 C   0  0  0  0  0  0  0  0  0  0  0  0
    0.8325   -0.5881   -0.8410 H   0  0  0  0  0  0  0  0  0  0  0  0
   -0.3090    1.3029    1.2706 H   0  0  0  0  0  0  0  0  0  0  0  0
   -1.1893    0.5367   -1.5350 H   0  0  0  0  0  0  0  0  0  0  0  0
    4.0186    1.3347   -1.5065 H   0  0  0  0  0  0  0  0  0  0  0  0
    2.7376    2.9485   -0.2156 H   0  0  0  0  0  0  0  0  0  0  0  0
    1.9960    2.5606    1.3262 H   0  0  0  0  0  0  0  0  0  0  0  0
    0.2681    3.0710   -0.3331 H   0  0  0  0  0  0  0  0  0  0  0  0
    0.9229    1.8818   -1.4588 H   0  0  0  0  0  0  0  0  0  0  0  0
   -0.4174   -1.4713    1.7959 H   0  0  0  0  0  0  0  0  0  0  0  0
    0.2033   -2.4962    0.5168 H   0  0  0  0  0  0  0  0  0  0  0  0
    2.2739   -2.4829    1.1532 H   0  0  0  0  0  0  0  0  0  0  0  0
    3.7407   -1.5764    1.4226 H   0  0  0  0  0  0  0  0  0  0  0  0
   -1.5191   -1.8460   -1.0238 H   0  0  0  0  0  0  0  0  0  0  0  0
   -2.2629   -2.3499    0.4865 H   0  0  0  0  0  0  0  0  0  0  0  0
   -3.3803   -0.4959   -1.7912 H   0  0  0  0  0  0  0  0  0  0  0  0
   -1.9875    2.7602   -1.4338 H   0  0  0  0  0  0  0  0  0  0  0  0
   -2.4054    2.6435    0.2799 H   0  0  0  0  0  0  0  0  0  0  0  0
    1.4262   -0.9191    2.9651 H   0  0  0  0  0  0  0  0  0  0  0  0
    2.8644    0.1010    2.9293 H   0  0  0  0  0  0  0  0  0  0  0  0
    1.2814    0.8202    2.6937 H   0  0  0  0  0  0  0  0  0  0  0  0
   -4.4937    1.9506   -0.4174 H   0  0  0  0  0  0  0  0  0  0  0  0
   -3.9515    1.6882   -2.0684 H   0  0  0  0  0  0  0  0  0  0  0  0
    2.4698   -1.9962   -1.3378 H   0  0  0  0  0  0  0  0  0  0  0  0
    3.8701   -2.8376   -0.6618 H   0  0  0  0  0  0  0  0  0  0  0  0
   -3.3743   -0.7140    1.9992 H   0  0  0  0  0  0  0  0  0  0  0  0
   -1.8782    0.1659    2.2496 H   0  0  0  0  0  0  0  0  0  0  0  0
   -3.3094    1.0240    1.7038 H   0  0  0  0  0  0  0  0  0  0  0  0
   -5.1568   -2.1434   -1.7957 H   0  0  0  0  0  0  0  0  0  0  0  0
   -4.4032   -2.7459   -0.2858 H   0  0  0  0  0  0  0  0  0  0  0  0
   -6.1351   -2.3620   -0.3323 H   0  0  0  0  0  0  0  0  0  0  0  0
  1  5  1  0  0  0  0
  1 10  1  0  0  0  0
  2 21  2  0  0  0  0
  3 23  2  0  0  0  0
  4  5  1  0  0  0  0
  4  6  1  0  0  0  0
  4 14  1  0  0  0  0
  4 18  1  0  0  0  0
  5 10  1  0  0  0  0
  5 11  1  0  0  0  0
  6  7  1  0  0  0  0
  6 13  1  0  0  0  0
  6 25  1  0  0  0  0
  7  8  1  0  0  0  0
  7 12  1  0  0  0  0
  7 26  1  0  0  0  0
  8  9  1  0  0  0  0
  8 17  1  0  0  0  0
  8 27  1  0  0  0  0
  9 15  1  0  0  0  0
  9 16  1  0  0  0  0
  9 22  1  0  0  0  0
 10 21  1  0  0  0  0
 10 28  1  0  0  0  0
 11 12  1  0  0  0  0
 11 29  1  0  0  0  0
 11 30  1  0  0  0  0
 12 31  1  0  0  0  0
 12 32  1  0  0  0  0
 13 15  1  0  0  0  0
 13 33  1  0  0  0  0
 13 34  1  0  0  0  0
 14 20  1  0  0  0  0
 14 35  1  0  0  0  0
 14 36  1  0  0  0  0
 15 37  1  0  0  0  0
 15 38  1  0  0  0  0
 16 19  1  0  0  0  0
 16 23  1  0  0  0  0
 16 39  1  0  0  0  0
 17 19  1  0  0  0  0
 17 40  1  0  0  0  0
 17 41  1  0  0  0  0
 18 42  1  0  0  0  0
 18 43  1  0  0  0  0
 18 44  1  0  0  0  0
 19 45  1  0  0  0  0
 19 46  1  0  0  0  0
 20 21  1  0  0  0  0
 20 47  1  0  0  0  0
 20 48  1  0  0  0  0
 22 49  1  0  0  0  0
 22 50  1  0  0  0  0
 22 51  1  0  0  0  0
 23 24  1  0  0  0  0
 24 52  1  0  0  0  0
 24 53  1  0  0  0  0
 24 54  1  0  0  0  0
M  END
> <PUBCHEM_COMPOUND_CID>
235500

> <PUBCHEM_CONFORMER_RMSD>
0.6

> <PUBCHEM_CONFORMER_DIVERSEORDER>
1
4
3
2

> <PUBCHEM_MMFF94_PARTIAL_CHARGES>
13
1 -0.3
10 0.05
11 0.09
16 0.06
2 -0.57
20 0.06
21 0.51
23 0.45
24 0.06
28 0.1
3 -0.57
4 0.09
5 -0.04

> <PUBCHEM_EFFECTIVE_ROTOR_COUNT>
3

> <PUBCHEM_PHARMACOPHORE_FEATURES>
7
1 1 acceptor
1 2 acceptor
1 3 acceptor
5 8 9 16 17 19 rings
6 4 5 6 7 11 12 rings
6 6 7 8 9 13 15 rings
7 1 4 5 10 14 20 21 rings

> <PUBCHEM_HEAVY_ATOM_COUNT>
24

> <PUBCHEM_ATOM_DEF_STEREO_COUNT>
8

> <PUBCHEM_ATOM_UDEF_STEREO_COUNT>
0

> <PUBCHEM_BOND_DEF_STEREO_COUNT>
0

> <PUBCHEM_BOND_UDEF_STEREO_COUNT>
0

> <PUBCHEM_ISOTOPIC_ATOM_COUNT>
0

> <PUBCHEM_COMPONENT_COUNT>
1

> <PUBCHEM_CACTVS_TAUTO_COUNT>
9

> <PUBCHEM_CONFORMER_ID>
000397EC00000001

> <PUBCHEM_MMFF94_ENERGY>
73.4428

> <PUBCHEM_FEATURE_SELFOVERLAP>
35.643

> <PUBCHEM_SHAPE_FINGERPRINT>
10366900 7 17703788102770936321
10498660 4 18059863912402116237
11578080 2 16880769426764941435
11796584 16 16587736530057447623
11961588 58 17417799592616471084
12011746 2 18201998828754871295
12236239 1 17749103379662192249
12403259 415 18342744031030179781
12553582 1 18341905077756117637
128620 24 18202288000065023957
13140716 1 17983301421614574392
13224815 77 17917714625441631417
13533116 47 17822571603810291569
13583140 156 14491039427165444450
13944108 23 16040583604091607957
15142383 8 16153982555764113121
15196674 1 18342747350796961925
15238133 3 17489037062195988560
15536298 74 18409173185952693745
15635459 17 18413671305370424216
15848702 151 18040990769578155247
16752209 62 18272658977668107329
16945 1 18272087154597102200
17349148 13 17489872626787521215
1813 80 14851601090193991456
18186145 218 18334016115822521017
19784866 240 16878212152098039830
19862831 5 18342457075379546764
200 152 17748544835754372737
20645477 70 18338519642646781868
20691752 17 16916788542964438780
20871999 31 18272362105217705854
21267235 1 18342173371098356282
221357 26 18410575106407129405
22393880 68 18271252706612235365
23559900 14 18333736796919444717
2838139 119 15840402836883343254
2871803 45 18272091582265071072
296302 2 13542458765408948976
3004659 81 18059291097695059006
312423 11 17559965478981872443
3323516 105 18411138052033752940
350125 39 18341891939910556397
4280585 95 17400356141127239110
4340502 62 17168153291412844234
46194498 28 18334570222881508964
465052 167 15574711361503660919
474 4 15697704948827613518
4990 188 18409168822408157548
5104073 3 18342466979748445833
5281201 14 18408323297845247500
9709674 26 18341051813593444843

> <PUBCHEM_SHAPE_MULTIPOLES>
476.3
10.44
2.18
1.43
4.8
0.3
-0.44
-3.04
3.38
0.09
0.36
-1.01
-0.22
0.54

> <PUBCHEM_SHAPE_SELFOVERLAP>
1030.839

> <PUBCHEM_SHAPE_VOLUME>
260.4

> <PUBCHEM_COORDINATE_TYPE>
2
5
10

$$$$

