6196
  -OEChem-07051212533D

 47 50  0     1  0  0  0  0  0999 V2000
    1.6788    1.4919    0.3527 S   0  0  0  0  0  0  0  0  0  0  0  0
    1.7832   -2.7264   -0.8387 O   0  0  0  0  0  0  0  0  0  0  0  0
    5.9270   -0.3228    0.5727 O   0  0  0  0  0  0  0  0  0  0  0  0
    4.9512    0.9267   -1.0651 O   0  0  0  0  0  0  0  0  0  0  0  0
   -1.2134   -2.4582   -1.4958 O   0  0  0  0  0  0  0  0  0  0  0  0
   -4.2840   -1.7120    1.2969 O   0  0  0  0  0  0  0  0  0  0  0  0
    2.7720   -0.5847   -0.8205 N   0  0  0  0  0  0  0  0  0  0  0  0
   -0.4168   -0.4137   -0.7885 N   0  0  0  0  0  0  0  0  0  0  0  0
   -4.2350   -0.3278    1.1841 N   0  0  0  0  0  0  0  0  0  0  0  0
    1.9302    0.5509   -1.1996 C   0  0  1  0  0  0  0  0  0  0  0  0
    2.7935    0.3961    1.3632 C   0  0  0  0  0  0  0  0  0  0  0  0
    3.5919   -0.4710    0.3639 C   0  0  2  0  0  0  0  0  0  0  0  0
    0.8348   -0.4678   -1.5559 C   0  0  1  0  0  0  0  0  0  0  0  0
    1.8275   -1.5381   -1.0621 C   0  0  0  0  0  0  0  0  0  0  0  0
    3.6715    1.2696    2.2651 C   0  0  0  0  0  0  0  0  0  0  0  0
    1.8931   -0.4839    2.2465 C   0  0  0  0  0  0  0  0  0  0  0  0
    4.8677    0.1332   -0.1393 C   0  0  0  0  0  0  0  0  0  0  0  0
   -1.3677   -1.4413   -0.8201 C   0  0  0  0  0  0  0  0  0  0  0  0
   -2.5547   -1.2551    0.0251 C   0  0  0  0  0  0  0  0  0  0  0  0
   -3.1763   -0.0816    0.4073 C   0  0  0  0  0  0  0  0  0  0  0  0
   -3.2605   -2.2557    0.5899 C   0  0  0  0  0  0  0  0  0  0  0  0
   -2.8196    1.2728    0.0740 C   0  0  0  0  0  0  0  0  0  0  0  0
   -3.1673   -3.7220    0.6045 C   0  0  0  0  0  0  0  0  0  0  0  0
   -3.3531    1.8711   -1.0653 C   0  0  0  0  0  0  0  0  0  0  0  0
   -1.9419    1.9800    0.8925 C   0  0  0  0  0  0  0  0  0  0  0  0
   -3.0073    3.1834   -1.3877 C   0  0  0  0  0  0  0  0  0  0  0  0
   -1.5960    3.2924    0.5701 C   0  0  0  0  0  0  0  0  0  0  0  0
   -2.1287    3.8941   -0.5699 C   0  0  0  0  0  0  0  0  0  0  0  0
    2.3293    1.1267   -2.0393 H   0  0  0  0  0  0  0  0  0  0  0  0
    3.7870   -1.4776    0.7519 H   0  0  0  0  0  0  0  0  0  0  0  0
    0.6396   -0.5386   -2.6326 H   0  0  0  0  0  0  0  0  0  0  0  0
    3.0685    1.8388    2.9827 H   0  0  0  0  0  0  0  0  0  0  0  0
    4.3659    0.6511    2.8453 H   0  0  0  0  0  0  0  0  0  0  0  0
    4.2663    1.9920    1.6950 H   0  0  0  0  0  0  0  0  0  0  0  0
    2.5016   -1.1552    2.8640 H   0  0  0  0  0  0  0  0  0  0  0  0
    1.2829    0.1193    2.9296 H   0  0  0  0  0  0  0  0  0  0  0  0
    1.2133   -1.1124    1.6622 H   0  0  0  0  0  0  0  0  0  0  0  0
   -0.5373    0.3477   -0.1341 H   0  0  0  0  0  0  0  0  0  0  0  0
    6.7727    0.0621    0.2584 H   0  0  0  0  0  0  0  0  0  0  0  0
   -3.8263   -4.1575    1.3626 H   0  0  0  0  0  0  0  0  0  0  0  0
   -3.4533   -4.1334   -0.3683 H   0  0  0  0  0  0  0  0  0  0  0  0
   -2.1451   -4.0436    0.8272 H   0  0  0  0  0  0  0  0  0  0  0  0
   -4.0386    1.3303   -1.7133 H   0  0  0  0  0  0  0  0  0  0  0  0
   -1.5228    1.5275    1.7882 H   0  0  0  0  0  0  0  0  0  0  0  0
   -3.4218    3.6519   -2.2755 H   0  0  0  0  0  0  0  0  0  0  0  0
   -0.9142    3.8470    1.2082 H   0  0  0  0  0  0  0  0  0  0  0  0
   -1.8596    4.9160   -0.8207 H   0  0  0  0  0  0  0  0  0  0  0  0
  1 10  1  0  0  0  0
  1 11  1  0  0  0  0
  2 14  2  0  0  0  0
  3 17  1  0  0  0  0
  3 39  1  0  0  0  0
  4 17  2  0  0  0  0
  5 18  2  0  0  0  0
  6  9  1  0  0  0  0
  6 21  1  0  0  0  0
  7 10  1  0  0  0  0
  7 12  1  0  0  0  0
  7 14  1  0  0  0  0
  8 13  1  0  0  0  0
  8 18  1  0  0  0  0
  8 38  1  0  0  0  0
  9 20  2  0  0  0  0
 10 13  1  0  0  0  0
 10 29  1  0  0  0  0
 11 12  1  0  0  0  0
 11 15  1  0  0  0  0
 11 16  1  0  0  0  0
 12 17  1  0  0  0  0
 12 30  1  0  0  0  0
 13 14  1  0  0  0  0
 13 31  1  0  0  0  0
 15 32  1  0  0  0  0
 15 33  1  0  0  0  0
 15 34  1  0  0  0  0
 16 35  1  0  0  0  0
 16 36  1  0  0  0  0
 16 37  1  0  0  0  0
 18 19  1  0  0  0  0
 19 20  1  0  0  0  0
 19 21  2  0  0  0  0
 20 22  1  0  0  0  0
 21 23  1  0  0  0  0
 22 24  2  0  0  0  0
 22 25  1  0  0  0  0
 23 40  1  0  0  0  0
 23 41  1  0  0  0  0
 23 42  1  0  0  0  0
 24 26  1  0  0  0  0
 24 43  1  0  0  0  0
 25 27  2  0  0  0  0
 25 44  1  0  0  0  0
 26 28  2  0  0  0  0
 26 45  1  0  0  0  0
 27 28  1  0  0  0  0
 27 46  1  0  0  0  0
 28 47  1  0  0  0  0
M  END
> <PUBCHEM_COMPOUND_CID>
6196

> <PUBCHEM_CONFORMER_RMSD>
0.8

> <PUBCHEM_CONFORMER_DIVERSEORDER>
2
27
7
13
12
20
18
9
3
8
5
26
17
21
16
4
15
19
22
25
10
28
1
23
24
6
11
14

> <PUBCHEM_MMFF94_PARTIAL_CHARGES>
33
1 -0.45
10 0.44
11 0.23
12 0.36
13 0.28
14 0.58
17 0.66
18 0.72
19 -0.09
2 -0.57
20 0.23
21 -0.04
22 0.05
23 0.18
24 -0.15
25 -0.15
26 -0.15
27 -0.15
28 -0.15
3 -0.65
38 0.37
39 0.5
4 -0.57
43 0.15
44 0.15
45 0.15
46 0.15
47 0.15
5 -0.57
6 -0.02
7 -0.59
8 -0.65
9 -0.41

> <PUBCHEM_EFFECTIVE_ROTOR_COUNT>
5.8

> <PUBCHEM_PHARMACOPHORE_FEATURES>
12
1 2 acceptor
1 3 acceptor
1 4 acceptor
1 5 acceptor
1 8 donor
1 9 acceptor
3 11 15 16 hydrophobe
3 3 4 17 anion
4 7 10 13 14 rings
5 6 9 19 20 21 rings
6 22 24 25 26 27 28 rings
7 1 7 10 11 12 13 14 rings

> <PUBCHEM_HEAVY_ATOM_COUNT>
28

> <PUBCHEM_ATOM_DEF_STEREO_COUNT>
3

> <PUBCHEM_ATOM_UDEF_STEREO_COUNT>
0

> <PUBCHEM_BOND_DEF_STEREO_COUNT>
0

> <PUBCHEM_BOND_UDEF_STEREO_COUNT>
0

> <PUBCHEM_ISOTOPIC_ATOM_COUNT>
0

> <PUBCHEM_COMPONENT_COUNT>
1

> <PUBCHEM_CACTVS_TAUTO_COUNT>
2

> <PUBCHEM_CONFORMER_ID>
0000183400000002

> <PUBCHEM_MMFF94_ENERGY>
74.9271

> <PUBCHEM_FEATURE_SELFOVERLAP>
64.913

> <PUBCHEM_SHAPE_FINGERPRINT>
10165383 225 17185267434528048101
10366900 7 18041289853784025433
11370993 70 18122909999433299541
11552529 35 18201446877948950902
11595378 159 18272939310283594744
12077114 3 18337116751529555653
12156800 1 13996950731745994677
12553582 1 18267861684272381079
12596602 18 17489584520207329552
12633257 1 18335406938339900737
12788726 201 18131066018101120241
13140716 1 18191017915839097909
13402501 40 18187085078811120961
13583140 156 18261123992823198834
13726171 33 18337093632143543168
14081887 123 18410856568572732555
14178342 30 18272646891582943158
14251751 93 18412543236653004576
14363568 33 17905035954940898041
14856354 85 18268418050125905838
16988056 13 7338849131890544371
17974551 9 17841708818372072131
19315092 285 16699516073171191346
20511986 3 16988294165001587660
21033648 29 17968390029744558416
22182313 1 17968646237760820470
22956985 138 17189813446588363811
23366157 5 17336171669177069271
23557571 272 18410290315800055625
23559900 14 18266173014288924118
238 59 17097237118507816964
3117164 225 18053955219125773794
3187 122 18340488868341192361
35225 105 18057065668479093097
3524813 1 17822006497519439851
3886686 26 17626116604373507259
4409770 3 18343308080774420525
469060 322 18267844147804679331
508706 21 18336264634360365613
6287921 2 17392767959899668209
84936 182 17257095295033899885
90316 7 18341044126139925347
9981440 41 17826551930117704291

> <PUBCHEM_SHAPE_MULTIPOLES>
535.79
9.41
3.98
1.73
8.05
0.86
0.44
-0.25
1.82
-5.87
-0.43
0.82
0.02
1.67

> <PUBCHEM_SHAPE_SELFOVERLAP>
1157.023

> <PUBCHEM_SHAPE_VOLUME>
297.2

> <PUBCHEM_COORDINATE_TYPE>
2
5
10

$$$$

