51031024
  -OEChem-07051213123D

 38 41  0     1  0  0  0  0  0999 V2000
   -0.7984    2.8118    1.2658 O   0  0  0  0  0  0  0  0  0  0  0  0
   -1.7145   -2.4682    0.8272 O   0  0  0  0  0  0  0  0  0  0  0  0
    2.2311    2.4970   -0.1031 O   0  0  0  0  0  0  0  0  0  0  0  0
    0.1954   -2.3705   -0.6573 O   0  0  0  0  0  0  0  0  0  0  0  0
    4.5911    1.5740    0.2358 O   0  0  0  0  0  0  0  0  0  0  0  0
   -0.5795    2.4066   -0.0852 C   0  0  2  0  0  0  0  0  0  0  0  0
   -1.9312    2.2143   -0.7784 C   0  0  0  0  0  0  0  0  0  0  0  0
    0.2684    1.1547   -0.1053 C   0  0  0  0  0  0  0  0  0  0  0  0
   -0.2710   -0.0798   -0.1650 C   0  0  0  0  0  0  0  0  0  0  0  0
   -2.5665    0.9050   -0.3872 C   0  0  0  0  0  0  0  0  0  0  0  0
   -1.7546   -0.2076   -0.0838 C   0  0  0  0  0  0  0  0  0  0  0  0
    1.7446    1.3717   -0.0938 C   0  0  0  0  0  0  0  0  0  0  0  0
    0.6238   -1.2675   -0.3364 C   0  0  0  0  0  0  0  0  0  0  0  0
    2.6165    0.1894   -0.0395 C   0  0  0  0  0  0  0  0  0  0  0  0
    2.0736   -1.0863   -0.1509 C   0  0  0  0  0  0  0  0  0  0  0  0
   -3.9654    0.7980   -0.3528 C   0  0  0  0  0  0  0  0  0  0  0  0
   -2.3881   -1.3928    0.3229 C   0  0  0  0  0  0  0  0  0  0  0  0
   -4.5702   -0.3965    0.0248 C   0  0  0  0  0  0  0  0  0  0  0  0
   -3.7820   -1.4874    0.3721 C   0  0  0  0  0  0  0  0  0  0  0  0
    3.9990    0.3516    0.1153 C   0  0  0  0  0  0  0  0  0  0  0  0
    2.9130   -2.2071   -0.1091 C   0  0  0  0  0  0  0  0  0  0  0  0
   -6.0567   -0.5000    0.0745 C   0  0  0  0  0  0  0  0  0  0  0  0
    4.8320   -0.7663    0.1605 C   0  0  0  0  0  0  0  0  0  0  0  0
    4.2896   -2.0443    0.0487 C   0  0  0  0  0  0  0  0  0  0  0  0
   -0.0654    3.2327   -0.5902 H   0  0  0  0  0  0  0  0  0  0  0  0
   -2.6003    3.0448   -0.5226 H   0  0  0  0  0  0  0  0  0  0  0  0
   -1.7967    2.2095   -1.8675 H   0  0  0  0  0  0  0  0  0  0  0  0
   -4.5781    1.6590   -0.6109 H   0  0  0  0  0  0  0  0  0  0  0  0
   -4.2594   -2.4072    0.7035 H   0  0  0  0  0  0  0  0  0  0  0  0
   -1.2980    3.6459    1.2462 H   0  0  0  0  0  0  0  0  0  0  0  0
    2.5145   -3.2146   -0.1948 H   0  0  0  0  0  0  0  0  0  0  0  0
   -6.3893   -1.5184   -0.1536 H   0  0  0  0  0  0  0  0  0  0  0  0
   -6.4195   -0.2269    1.0703 H   0  0  0  0  0  0  0  0  0  0  0  0
   -6.5242    0.1616   -0.6627 H   0  0  0  0  0  0  0  0  0  0  0  0
    5.9054   -0.6487    0.2831 H   0  0  0  0  0  0  0  0  0  0  0  0
    4.9385   -2.9146    0.0832 H   0  0  0  0  0  0  0  0  0  0  0  0
   -2.3397   -3.1738    1.0648 H   0  0  0  0  0  0  0  0  0  0  0  0
    3.9231    2.2725    0.3052 H   0  0  0  0  0  0  0  0  0  0  0  0
  1  6  1  0  0  0  0
  1 30  1  0  0  0  0
  2 17  1  0  0  0  0
  2 37  1  0  0  0  0
  3 12  2  0  0  0  0
  4 13  2  0  0  0  0
  5 20  1  0  0  0  0
  5 38  1  0  0  0  0
  6  7  1  0  0  0  0
  6  8  1  0  0  0  0
  6 25  1  0  0  0  0
  7 10  1  0  0  0  0
  7 26  1  0  0  0  0
  7 27  1  0  0  0  0
  8  9  2  0  0  0  0
  8 12  1  0  0  0  0
  9 11  1  0  0  0  0
  9 13  1  0  0  0  0
 10 11  2  0  0  0  0
 10 16  1  0  0  0  0
 11 17  1  0  0  0  0
 12 14  1  0  0  0  0
 13 15  1  0  0  0  0
 14 15  2  0  0  0  0
 14 20  1  0  0  0  0
 15 21  1  0  0  0  0
 16 18  2  0  0  0  0
 16 28  1  0  0  0  0
 17 19  2  0  0  0  0
 18 19  1  0  0  0  0
 18 22  1  0  0  0  0
 19 29  1  0  0  0  0
 20 23  2  0  0  0  0
 21 24  2  0  0  0  0
 21 31  1  0  0  0  0
 22 32  1  0  0  0  0
 22 33  1  0  0  0  0
 22 34  1  0  0  0  0
 23 24  1  0  0  0  0
 23 35  1  0  0  0  0
 24 36  1  0  0  0  0
M  END
> <PUBCHEM_COMPOUND_CID>
51031024

> <PUBCHEM_CONFORMER_RMSD>
0.6

> <PUBCHEM_CONFORMER_DIVERSEORDER>
1
2

> <PUBCHEM_MMFF94_PARTIAL_CHARGES>
32
1 -0.68
10 -0.14
11 0.03
12 0.47
13 0.47
14 0.09
15 0.09
16 -0.15
17 0.08
18 -0.14
19 -0.15
2 -0.53
20 0.08
21 -0.15
22 0.14
23 -0.15
24 -0.15
28 0.15
29 0.15
3 -0.57
30 0.4
31 0.15
35 0.15
36 0.15
37 0.45
38 0.45
4 -0.57
5 -0.53
6 0.42
7 0.14
8 -0.12
9 -0.01

> <PUBCHEM_EFFECTIVE_ROTOR_COUNT>
0.4

> <PUBCHEM_PHARMACOPHORE_FEATURES>
10
1 1 acceptor
1 1 donor
1 2 donor
1 3 acceptor
1 4 acceptor
1 5 donor
6 10 11 16 17 18 19 rings
6 14 15 20 21 23 24 rings
6 6 7 8 9 10 11 rings
6 8 9 12 13 14 15 rings

> <PUBCHEM_HEAVY_ATOM_COUNT>
24

> <PUBCHEM_ATOM_DEF_STEREO_COUNT>
1

> <PUBCHEM_ATOM_UDEF_STEREO_COUNT>
0

> <PUBCHEM_BOND_DEF_STEREO_COUNT>
0

> <PUBCHEM_BOND_UDEF_STEREO_COUNT>
0

> <PUBCHEM_ISOTOPIC_ATOM_COUNT>
0

> <PUBCHEM_COMPONENT_COUNT>
1

> <PUBCHEM_CACTVS_TAUTO_COUNT>
157

> <PUBCHEM_CONFORMER_ID>
030AABF000000001

> <PUBCHEM_MMFF94_ENERGY>
77.3467

> <PUBCHEM_FEATURE_SELFOVERLAP>
50.805

> <PUBCHEM_SHAPE_FINGERPRINT>
10 15 18337967706002020152
10616163 171 18339920390269105822
10688039 33 18130785676943385533
10759866 29 18058719218187566508
10906281 52 18338214034533366103
10967382 1 18410855425789529022
11578080 2 17025171622051857370
12011746 2 18411134744808987718
12403259 226 18340774843905715036
12788726 201 18040985271978461656
13140716 1 18121226368380046464
13402501 40 18411982464216288807
13544653 18 18342451539308919093
138480 1 14592087096948313108
13862211 1 18410860970935621799
14178342 30 18046911760211588040
14223421 5 18410857694043977196
14341114 176 18412538812446221547
14787075 74 18411984632874112447
14790565 3 17404574481489464372
14866123 147 17399231348978105746
15196674 1 18411138073445428725
15352361 1 18411982472563493855
15927050 60 17613156265394550300
16945 1 18337942514805615916
17349148 13 18410298042171875566
17492 89 18194404617701094406
1813 80 17203609280737217229
19141452 34 18335138662009167623
19591789 44 18337955575764428214
200 152 18186243935473061615
20028762 73 18187090559042399807
20261772 1 18186526496581016054
20510252 161 18337674229805275257
21029758 11 18409169909377755193
21267235 1 18410287056131095398
21279426 13 18268715072852014293
21421861 104 17987806335538744154
221490 88 18342170038388415874
23402539 116 18410581703804041175
23558518 356 18049710021256139289
23559900 14 18411423942426799720
2748010 2 18338234860318114149
2871803 45 18343586269368010834
3004659 81 18202565098844755718
335352 9 18339924938982227629
3380486 145 18196919003641424451
34934 24 18337957779256828170
350125 39 18411416232691880988
3680242 22 18270963582335739579
3886686 26 17046298008035638818
4214541 1 18341051933704764724
5104073 3 18337675324895550160
5283173 99 18129108986188381669
8809292 202 18343017821861744947
9709674 26 18412542111044700758

> <PUBCHEM_SHAPE_MULTIPOLES>
464.56
9.87
2.93
0.75
2.29
0.67
-0.05
-2.94
-0.5
-0.66
-0.22
0.17
0.1
0.49

> <PUBCHEM_SHAPE_SELFOVERLAP>
1056.589

> <PUBCHEM_SHAPE_VOLUME>
239.8

> <PUBCHEM_COORDINATE_TYPE>
2
5
10

$$$$

