7846983
  -OEChem-06241222483D

 43 45  0     1  0  0  0  0  0999 V2000
   -0.8172    3.0869   -1.4652 S   0  0  0  0  0  0  0  0  0  0  0  0
    1.0462   -1.5226   -2.3577 F   0  0  0  0  0  0  0  0  0  0  0  0
    3.7111   -1.2085   -1.8850 F   0  0  0  0  0  0  0  0  0  0  0  0
    4.6698   -1.2828    0.6747 F   0  0  0  0  0  0  0  0  0  0  0  0
   -3.4180   -1.0348   -0.6770 O   0  0  0  0  0  0  0  0  0  0  0  0
   -3.2800    0.1258    1.3121 O   0  0  0  0  0  0  0  0  0  0  0  0
   -1.6180   -2.1779    1.8941 O   0  0  0  0  0  0  0  0  0  0  0  0
   -1.0840    2.1761    0.9331 N   0  0  0  0  0  0  0  0  0  0  0  0
   -0.7361   -1.9221   -0.2668 N   0  0  0  0  0  0  0  0  0  0  0  0
   -3.2251    2.5952   -0.2247 C   0  0  0  0  0  0  0  0  0  0  0  0
   -3.8018    1.2744   -0.7675 C   0  0  0  0  0  0  0  0  0  0  0  0
   -1.7495    2.5716   -0.1269 C   0  0  0  0  0  0  0  0  0  0  0  0
   -3.1099   -2.2520    0.0099 C   0  0  2  0  0  0  0  0  0  0  0  0
    0.6229    2.7629   -0.5741 C   0  0  0  0  0  0  0  0  0  0  0  0
    0.2782    2.2801    0.6920 C   0  0  0  0  0  0  0  0  0  0  0  0
   -3.4706    0.0846    0.1043 C   0  0  0  0  0  0  0  0  0  0  0  0
   -1.7415   -2.1210    0.6739 C   0  0  0  0  0  0  0  0  0  0  0  0
   -3.1462   -3.4088   -0.9779 C   0  0  0  0  0  0  0  0  0  0  0  0
    1.9612    2.9244   -0.9672 C   0  0  0  0  0  0  0  0  0  0  0  0
    1.3116    1.9479    1.5946 C   0  0  0  0  0  0  0  0  0  0  0  0
    0.6493   -1.7583   -0.0279 C   0  0  0  0  0  0  0  0  0  0  0  0
    2.9644    2.5883   -0.0548 C   0  0  0  0  0  0  0  0  0  0  0  0
    2.6462    2.1061    1.2100 C   0  0  0  0  0  0  0  0  0  0  0  0
    1.5052   -1.5613   -1.0986 C   0  0  0  0  0  0  0  0  0  0  0  0
    1.1188   -1.7987    1.2745 C   0  0  0  0  0  0  0  0  0  0  0  0
    2.8701   -1.4000   -0.8603 C   0  0  0  0  0  0  0  0  0  0  0  0
    2.4835   -1.6374    1.5129 C   0  0  0  0  0  0  0  0  0  0  0  0
    3.3592   -1.4380    0.4456 C   0  0  0  0  0  0  0  0  0  0  0  0
   -3.5651    3.4216   -0.8608 H   0  0  0  0  0  0  0  0  0  0  0  0
   -3.6417    2.7879    0.7722 H   0  0  0  0  0  0  0  0  0  0  0  0
   -3.4079    1.0975   -1.7758 H   0  0  0  0  0  0  0  0  0  0  0  0
   -4.8927    1.3457   -0.8351 H   0  0  0  0  0  0  0  0  0  0  0  0
   -3.8644   -2.4280    0.7869 H   0  0  0  0  0  0  0  0  0  0  0  0
   -4.1714   -3.5628   -1.3324 H   0  0  0  0  0  0  0  0  0  0  0  0
   -2.5445   -3.2111   -1.8711 H   0  0  0  0  0  0  0  0  0  0  0  0
   -2.7945   -4.3378   -0.5184 H   0  0  0  0  0  0  0  0  0  0  0  0
   -1.0069   -1.8594   -1.2452 H   0  0  0  0  0  0  0  0  0  0  0  0
    2.2173    3.2994   -1.9533 H   0  0  0  0  0  0  0  0  0  0  0  0
    1.0742    1.5694    2.5848 H   0  0  0  0  0  0  0  0  0  0  0  0
    4.0070    2.7042   -0.3394 H   0  0  0  0  0  0  0  0  0  0  0  0
    3.4399    1.8488    1.9060 H   0  0  0  0  0  0  0  0  0  0  0  0
    0.5083   -1.9489    2.1522 H   0  0  0  0  0  0  0  0  0  0  0  0
    2.8661   -1.6656    2.5290 H   0  0  0  0  0  0  0  0  0  0  0  0
  1 12  1  0  0  0  0
  1 14  1  0  0  0  0
  2 24  1  0  0  0  0
  3 26  1  0  0  0  0
  4 28  1  0  0  0  0
  5 13  1  0  0  0  0
  5 16  1  0  0  0  0
  6 16  2  0  0  0  0
  7 17  2  0  0  0  0
  8 12  2  0  0  0  0
  8 15  1  0  0  0  0
  9 17  1  0  0  0  0
  9 21  1  0  0  0  0
  9 37  1  0  0  0  0
 10 11  1  0  0  0  0
 10 12  1  0  0  0  0
 10 29  1  0  0  0  0
 10 30  1  0  0  0  0
 11 16  1  0  0  0  0
 11 31  1  0  0  0  0
 11 32  1  0  0  0  0
 13 17  1  0  0  0  0
 13 18  1  0  0  0  0
 13 33  1  0  0  0  0
 14 15  1  0  0  0  0
 14 19  2  0  0  0  0
 15 20  2  0  0  0  0
 18 34  1  0  0  0  0
 18 35  1  0  0  0  0
 18 36  1  0  0  0  0
 19 22  1  0  0  0  0
 19 38  1  0  0  0  0
 20 23  1  0  0  0  0
 20 39  1  0  0  0  0
 21 24  2  0  0  0  0
 21 25  1  0  0  0  0
 22 23  2  0  0  0  0
 22 40  1  0  0  0  0
 23 41  1  0  0  0  0
 24 26  1  0  0  0  0
 25 27  2  0  0  0  0
 25 42  1  0  0  0  0
 26 28  2  0  0  0  0
 27 28  1  0  0  0  0
 27 43  1  0  0  0  0
M  END
> <PUBCHEM_COMPOUND_CID>
7846983

> <PUBCHEM_CONFORMER_RMSD>
1.2

> <PUBCHEM_CONFORMER_DIVERSEORDER>
1
44
142
242
251
74
258
253
56
243
216
171
50
124
93
2
264
27
64
240
192
102
227
172
219
231
218
200
206
65
107
159
211
29
210
249
11
111
54
241
267
201
230
193
119
113
141
191
203
265
127
254
205
225
79
122
146
235
177
8
224
78
234
49
89
14
187
53
103
169
152
37
256
237
156
131
129
233
69
47
101
94
164
97
255
222
108
173
43
67
244
12
71
96
68
239
161
63
268
13
133
41
138
25
80
247
33
77
223
221
16
117
181
257
22
212
266
126
229
4
168
72
55
62
36
199
182
179
95
15
195
106
104
262
110
90
245
246
144
70
151
228
153
272
76
130
61
10
271
42
73
125
250
149
163
260
120
75
162
40
207
91
112
109
270
18
194
35
52
170
252
180
7
32
220
30
166
196
140
34
20
123
21
24
85
155
39
121
105
87
84
81
38
31
115
259
157
46
204
48
51
197
58
202
261
118
188
189
269
174
82
28
176
60
208
134
158
186
3
19
190
86
160
198
9
217
154
184
175
23
226
213
92
215
145
178
136
185
83
143
132
5
209
248
6
165
139
66
45
147
57
99
128
114
88
150
236
26
17
100
214
167
232
183
137
135
263
59
98
148
238
116

> <PUBCHEM_MMFF94_PARTIAL_CHARGES>
34
1 -0.08
10 0.18
11 0.06
12 0.2
13 0.34
14 0.04
15 0.23
16 0.66
17 0.57
19 -0.15
2 -0.19
20 -0.15
21 0.12
22 -0.15
23 -0.15
24 0.19
25 -0.15
26 0.19
27 -0.15
28 0.19
3 -0.19
37 0.37
38 0.15
39 0.15
4 -0.19
40 0.15
41 0.15
42 0.15
43 0.15
5 -0.43
6 -0.57
7 -0.57
8 -0.57
9 -0.55

> <PUBCHEM_EFFECTIVE_ROTOR_COUNT>
8

> <PUBCHEM_PHARMACOPHORE_FEATURES>
7
1 6 acceptor
1 7 acceptor
1 8 acceptor
1 9 donor
5 1 8 12 14 15 rings
6 14 15 19 20 22 23 rings
6 21 24 25 26 27 28 rings

> <PUBCHEM_HEAVY_ATOM_COUNT>
28

> <PUBCHEM_ATOM_DEF_STEREO_COUNT>
1

> <PUBCHEM_ATOM_UDEF_STEREO_COUNT>
0

> <PUBCHEM_BOND_DEF_STEREO_COUNT>
0

> <PUBCHEM_BOND_UDEF_STEREO_COUNT>
0

> <PUBCHEM_ISOTOPIC_ATOM_COUNT>
0

> <PUBCHEM_COMPONENT_COUNT>
1

> <PUBCHEM_CACTVS_TAUTO_COUNT>
4

> <PUBCHEM_CONFORMER_ID>
0077BC4700000001

> <PUBCHEM_MMFF94_ENERGY>
52.9607

> <PUBCHEM_FEATURE_SELFOVERLAP>
35.595

> <PUBCHEM_SHAPE_FINGERPRINT>
10616163 171 18267307521548072153
1100329 8 18339082699889963505
11370993 70 16977878714763519557
11513181 2 18260828142628138870
11578080 2 17558861462165732935
12156800 1 16405414536955719593
12422481 6 18191896482086863000
12553582 1 17979068619754623373
12596599 1 18114175363124328171
12633257 1 18262799682813964713
13122387 1 18051132789439689865
13140716 1 18410289190539827323
13402501 40 18265060308564091857
17093844 170 18268153063001071396
17357779 13 18187368778480443166
17492 54 18056187205569247460
19930381 70 17259349864916803171
20600515 1 18192721265530045864
20691752 17 17917718989397416505
20764821 26 18342747312121163981
20775438 99 17901143834798571135
20905425 154 18263924341264236189
21141583 151 17830733514492961823
238 59 17618791249586117455
3052486 1 18201164342500420864
35225 105 17910132513357388583
463206 1 18335991882889903345
469060 322 17913173689990533721
484985 159 15899618293120817547

> <PUBCHEM_SHAPE_MULTIPOLES>
530.69
6.72
4.97
1.65
0.82
1.45
0.18
-2.06
0.31
0.65
0.64
-0.69
-0.38
0.29

> <PUBCHEM_SHAPE_SELFOVERLAP>
1136.385

> <PUBCHEM_SHAPE_VOLUME>
296.4

> <PUBCHEM_COORDINATE_TYPE>
2
5
10

$$$$

