11954054
  -OEChem-07051213062D

 58 59  0     1  0  0  0  0  0999 V2000
    7.7331    2.0427    0.0000 S   0  0  0  0  0  0  0  0  0  0  0  0
    6.0010    3.0427    0.0000 O   0  0  0  0  0  0  0  0  0  0  0  0
    6.0010   -0.9573    0.0000 O   0  0  0  0  0  0  0  0  0  0  0  0
    6.8671   -1.4573    0.0000 O   0  0  0  0  0  0  0  0  0  0  0  0
   10.3417    1.4981    0.0000 O   0  5  0  0  0  0  0  0  0  0  0  0
    8.6097    1.5181    0.0000 O   0  0  0  0  0  0  0  0  0  0  0  0
   10.3312   -4.4573    0.0000 O   0  0  0  0  0  0  0  0  0  0  0  0
    8.5991   -4.4573    0.0000 O   0  0  0  0  0  0  0  0  0  0  0  0
    2.5369    0.0427    0.0000 O   0  0  0  0  0  0  0  0  0  0  0  0
    3.4030    1.5427    0.0000 O   0  0  0  0  0  0  0  0  0  0  0  0
    7.7331    0.0427    0.0000 N   0  0  0  0  0  0  0  0  0  0  0  0
    9.4815    2.0081    0.0000 N   0  3  0  0  0  0  0  0  0  0  0  0
    5.1350    0.5427    0.0000 N   0  0  0  0  0  0  0  0  0  0  0  0
   10.3312   -2.4573    0.0000 N   0  0  0  0  0  0  0  0  0  0  0  0
    7.7331    3.0427    0.0000 C   0  0  3  0  0  0  0  0  0  0  0  0
    6.8671    3.5427    0.0000 C   0  0  3  0  0  0  0  0  0  0  0  0
    8.5991    3.5427    0.0000 C   0  0  0  0  0  0  0  0  0  0  0  0
    8.5991    4.5427    0.0000 C   0  0  0  0  0  0  0  0  0  0  0  0
    6.8671    1.5427    0.0000 C   0  0  0  0  0  0  0  0  0  0  0  0
    6.8671    0.5427    0.0000 C   0  0  1  0  0  0  0  0  0  0  0  0
    6.8671    4.5427    0.0000 C   0  0  0  0  0  0  0  0  0  0  0  0
    9.4931    3.0080    0.0000 C   0  0  0  0  0  0  0  0  0  0  0  0
    7.7331    5.0427    0.0000 C   0  0  0  0  0  0  0  0  0  0  0  0
    9.4931    5.0773    0.0000 C   0  0  0  0  0  0  0  0  0  0  0  0
   10.3991    3.5218    0.0000 C   0  0  0  0  0  0  0  0  0  0  0  0
    6.0010    0.0427    0.0000 C   0  0  0  0  0  0  0  0  0  0  0  0
   10.3991    4.5635    0.0000 C   0  0  0  0  0  0  0  0  0  0  0  0
    8.5991   -1.4573    0.0000 C   0  0  0  0  0  0  0  0  0  0  0  0
    8.5991   -2.4573    0.0000 C   0  0  0  0  0  0  0  0  0  0  0  0
    7.7331   -0.9573    0.0000 C   0  0  0  0  0  0  0  0  0  0  0  0
    9.4651   -2.9573    0.0000 C   0  0  1  0  0  0  0  0  0  0  0  0
    4.2690    0.0427    0.0000 C   0  0  0  0  0  0  0  0  0  0  0  0
    9.4651   -3.9573    0.0000 C   0  0  0  0  0  0  0  0  0  0  0  0
    3.4030    0.5427    0.0000 C   0  0  0  0  0  0  0  0  0  0  0  0
    8.4692    2.6177    0.0000 H   0  0  0  0  0  0  0  0  0  0  0  0
    6.1309    3.9677    0.0000 H   0  0  0  0  0  0  0  0  0  0  0  0
    6.6550    2.1253    0.0000 H   0  0  0  0  0  0  0  0  0  0  0  0
    6.2565    1.4350    0.0000 H   0  0  0  0  0  0  0  0  0  0  0  0
    7.4040    0.8527    0.0000 H   0  0  0  0  0  0  0  0  0  0  0  0
    6.3301    4.8527    0.0000 H   0  0  0  0  0  0  0  0  0  0  0  0
    7.7331    5.6627    0.0000 H   0  0  0  0  0  0  0  0  0  0  0  0
    9.4859    5.6973    0.0000 H   0  0  0  0  0  0  0  0  0  0  0  0
    8.2700    0.3527    0.0000 H   0  0  0  0  0  0  0  0  0  0  0  0
   10.9349    3.2098    0.0000 H   0  0  0  0  0  0  0  0  0  0  0  0
    9.2097   -1.5650    0.0000 H   0  0  0  0  0  0  0  0  0  0  0  0
    8.8112   -0.8747    0.0000 H   0  0  0  0  0  0  0  0  0  0  0  0
   10.9349    4.8755    0.0000 H   0  0  0  0  0  0  0  0  0  0  0  0
    5.4641    3.3527    0.0000 H   0  0  0  0  0  0  0  0  0  0  0  0
    7.9885   -2.3497    0.0000 H   0  0  0  0  0  0  0  0  0  0  0  0
    8.3871   -3.0399    0.0000 H   0  0  0  0  0  0  0  0  0  0  0  0
   10.0021   -3.2673    0.0000 H   0  0  0  0  0  0  0  0  0  0  0  0
    5.1350    1.1627    0.0000 H   0  0  0  0  0  0  0  0  0  0  0  0
    3.8705   -0.4323    0.0000 H   0  0  0  0  0  0  0  0  0  0  0  0
    4.6675   -0.4323    0.0000 H   0  0  0  0  0  0  0  0  0  0  0  0
   10.8681   -2.7673    0.0000 H   0  0  0  0  0  0  0  0  0  0  0  0
   10.3312   -1.8373    0.0000 H   0  0  0  0  0  0  0  0  0  0  0  0
   10.3312   -5.0773    0.0000 H   0  0  0  0  0  0  0  0  0  0  0  0
    2.0000    0.3527    0.0000 H   0  0  0  0  0  0  0  0  0  0  0  0
  1 15  1  0  0  0  0
  1 19  1  0  0  0  0
  2 16  1  0  0  0  0
  2 48  1  0  0  0  0
  3 26  2  0  0  0  0
  4 30  2  0  0  0  0
  5 12  1  0  0  0  0
  6 12  2  0  0  0  0
  7 33  1  0  0  0  0
  7 57  1  0  0  0  0
  8 33  2  0  0  0  0
  9 34  1  0  0  0  0
  9 58  1  0  0  0  0
 10 34  2  0  0  0  0
 20 11  1  6  0  0  0
 11 30  1  0  0  0  0
 11 43  1  0  0  0  0
 12 22  1  0  0  0  0
 13 26  1  0  0  0  0
 13 32  1  0  0  0  0
 13 52  1  0  0  0  0
 31 14  1  6  0  0  0
 14 55  1  0  0  0  0
 14 56  1  0  0  0  0
 15 16  1  0  0  0  0
 15 17  1  0  0  0  0
 15 35  1  0  0  0  0
 16 21  1  0  0  0  0
 16 36  1  0  0  0  0
 17 18  2  0  0  0  0
 17 22  1  0  0  0  0
 18 23  1  0  0  0  0
 18 24  1  0  0  0  0
 19 20  1  0  0  0  0
 19 37  1  0  0  0  0
 19 38  1  0  0  0  0
 20 26  1  0  0  0  0
 20 39  1  0  0  0  0
 21 23  2  0  0  0  0
 21 40  1  0  0  0  0
 22 25  2  0  0  0  0
 23 41  1  0  0  0  0
 24 27  2  0  0  0  0
 24 42  1  0  0  0  0
 25 27  1  0  0  0  0
 25 44  1  0  0  0  0
 27 47  1  0  0  0  0
 28 29  1  0  0  0  0
 28 30  1  0  0  0  0
 28 45  1  0  0  0  0
 28 46  1  0  0  0  0
 29 31  1  0  0  0  0
 29 49  1  0  0  0  0
 29 50  1  0  0  0  0
 31 33  1  0  0  0  0
 31 51  1  0  0  0  0
 32 34  1  0  0  0  0
 32 53  1  0  0  0  0
 32 54  1  0  0  0  0
M  CHG  2   5  -1  12   1
M  END
> <PUBCHEM_COMPOUND_CID>
11954054

> <PUBCHEM_COMPOUND_CANONICALIZED>
1

> <PUBCHEM_CACTVS_COMPLEXITY>
818

> <PUBCHEM_CACTVS_HBOND_ACCEPTOR>
11

> <PUBCHEM_CACTVS_HBOND_DONOR>
6

> <PUBCHEM_CACTVS_ROTATABLE_BOND>
11

> <PUBCHEM_CACTVS_SUBSKEYS>
AAADceB7vABAAAAAAAAAAAAAAAAAAAAAAAAwQAAAAAAAAACBAAAAHgQUCAAADDzl2AawyILQQgiJAiXSWwCCAAAgAhAoiIGIZIoKdDKgkbGUcABk1gG42Ae816IOgAAAQAASAAAAAACAACQAAAAAAAAAAA==

> <PUBCHEM_IUPAC_OPENEYE_NAME>
(2S)-2-amino-5-[[(1R)-2-(carboxymethylamino)-1-[(2-hydroxy-8-nitro-1,2-dihydronaphthalen-1-yl)sulfanylmethyl]-2-oxo-ethyl]amino]-5-oxo-pentanoic acid

> <PUBCHEM_IUPAC_CAS_NAME>
(2S)-2-amino-5-[[(2R)-1-(carboxymethylamino)-3-[(2-hydroxy-8-nitro-1,2-dihydronaphthalen-1-yl)thio]-1-oxopropan-2-yl]amino]-5-oxopentanoic acid

> <PUBCHEM_IUPAC_NAME>
(2S)-2-amino-5-[[(2R)-1-(carboxymethylamino)-3-[(2-hydroxy-8-nitro-1,2-dihydronaphthalen-1-yl)sulfanyl]-1-oxopropan-2-yl]amino]-5-oxopentanoic acid

> <PUBCHEM_IUPAC_SYSTEMATIC_NAME>
(2S)-2-azanyl-5-[[(2R)-1-(2-hydroxy-2-oxoethylamino)-3-[(8-nitro-2-oxidanyl-1,2-dihydronaphthalen-1-yl)sulfanyl]-1-oxidanylidene-propan-2-yl]amino]-5-oxidanylidene-pentanoic acid

> <PUBCHEM_IUPAC_TRADITIONAL_NAME>
(2S)-2-amino-5-[[(1R)-2-(carboxymethylamino)-1-[[(2-hydroxy-8-nitro-1,2-dihydronaphthalen-1-yl)thio]methyl]-2-keto-ethyl]amino]-5-keto-valeric acid

> <PUBCHEM_IUPAC_INCHI>
InChI=1S/C20H24N4O9S/c21-11(20(30)31)5-7-15(26)23-12(19(29)22-8-16(27)28)9-34-18-14(25)6-4-10-2-1-3-13(17(10)18)24(32)33/h1-4,6,11-12,14,18,25H,5,7-9,21H2,(H,22,29)(H,23,26)(H,27,28)(H,30,31)/t11-,12-,14?,18?/m0/s1

> <PUBCHEM_IUPAC_INCHIKEY>
RQCSOWVLCHNLLC-WXFCVCCESA-N

> <PUBCHEM_XLOGP3_AA>
-3.1

> <PUBCHEM_EXACT_MASS>
496.126399

> <PUBCHEM_MOLECULAR_FORMULA>
C20H24N4O9S

> <PUBCHEM_MOLECULAR_WEIGHT>
496.49096

> <PUBCHEM_OPENEYE_CAN_SMILES>
C1=CC2=C(C(C(C=C2)O)SCC(C(=O)NCC(=O)O)NC(=O)CCC(C(=O)O)N)C(=C1)[N+](=O)[O-]

> <PUBCHEM_OPENEYE_ISO_SMILES>
C1=CC2=C(C(C(C=C2)O)SC[C@@H](C(=O)NCC(=O)O)NC(=O)CC[C@@H](C(=O)O)N)C(=C1)[N+](=O)[O-]

> <PUBCHEM_CACTVS_TPSA>
250

> <PUBCHEM_MONOISOTOPIC_WEIGHT>
496.126399

> <PUBCHEM_TOTAL_CHARGE>
0

> <PUBCHEM_HEAVY_ATOM_COUNT>
34

> <PUBCHEM_ATOM_DEF_STEREO_COUNT>
2

> <PUBCHEM_ATOM_UDEF_STEREO_COUNT>
2

> <PUBCHEM_BOND_DEF_STEREO_COUNT>
0

> <PUBCHEM_BOND_UDEF_STEREO_COUNT>
0

> <PUBCHEM_ISOTOPIC_ATOM_COUNT>
0

> <PUBCHEM_COMPONENT_COUNT>
1

> <PUBCHEM_CACTVS_TAUTO_COUNT>
4

> <PUBCHEM_COORDINATE_TYPE>
1
5
255

> <PUBCHEM_BONDANNOTATIONS>
20  11  6
31  14  6
15  35  3
16  36  3
17  18  8
17  22  8
18  24  8
22  25  8
24  27  8
25  27  8

$$$$

