25201359
  -OEChem-07051213152D

 28 28  0     1  0  0  0  0  0999 V2000
    6.3301   -1.1230    0.0000 O   0  0  0  0  0  0  0  0  0  0  0  0
    2.0000    0.3770    0.0000 O   0  0  0  0  0  0  0  0  0  0  0  0
    4.5981    0.8770    0.0000 C   0  0  0  0  0  0  0  0  0  0  0  0
    5.4641    0.3770    0.0000 C   0  0  0  0  0  0  0  0  0  0  0  0
    5.4641   -0.6230    0.0000 C   0  0  1  0  0  0  0  0  0  0  0  0
    3.7320    0.3770    0.0000 C   0  0  0  0  0  0  0  0  0  0  0  0
    4.5981   -1.1230    0.0000 C   0  0  0  0  0  0  0  0  0  0  0  0
    3.7320   -0.6230    0.0000 C   0  0  0  0  0  0  0  0  0  0  0  0
    5.0981    1.7430    0.0000 C   0  0  0  0  0  0  0  0  0  0  0  0
    4.0981    1.7430    0.0000 C   0  0  0  0  0  0  0  0  0  0  0  0
    2.8660   -1.1230    0.0000 C   0  0  0  0  0  0  0  0  0  0  0  0
    2.8660    0.8770    0.0000 C   0  0  0  0  0  0  0  0  0  0  0  0
    6.0747    0.2693    0.0000 H   0  0  0  0  0  0  0  0  0  0  0  0
    5.6762    0.9596    0.0000 H   0  0  0  0  0  0  0  0  0  0  0  0
    5.4641   -1.2430    0.0000 H   0  0  0  0  0  0  0  0  0  0  0  0
    4.1996   -1.5980    0.0000 H   0  0  0  0  0  0  0  0  0  0  0  0
    4.9966   -1.5980    0.0000 H   0  0  0  0  0  0  0  0  0  0  0  0
    5.6350    1.4330    0.0000 H   0  0  0  0  0  0  0  0  0  0  0  0
    5.4081    2.2800    0.0000 H   0  0  0  0  0  0  0  0  0  0  0  0
    4.5611    2.0530    0.0000 H   0  0  0  0  0  0  0  0  0  0  0  0
    4.6350    2.0530    0.0000 H   0  0  0  0  0  0  0  0  0  0  0  0
    3.7881    2.2800    0.0000 H   0  0  0  0  0  0  0  0  0  0  0  0
    3.5611    1.4330    0.0000 H   0  0  0  0  0  0  0  0  0  0  0  0
    2.5560   -0.5861    0.0000 H   0  0  0  0  0  0  0  0  0  0  0  0
    2.3291   -1.4330    0.0000 H   0  0  0  0  0  0  0  0  0  0  0  0
    3.1760   -1.6600    0.0000 H   0  0  0  0  0  0  0  0  0  0  0  0
    2.8660    1.4970    0.0000 H   0  0  0  0  0  0  0  0  0  0  0  0
    6.3301   -1.7430    0.0000 H   0  0  0  0  0  0  0  0  0  0  0  0
  5  1  1  6  0  0  0
  1 28  1  0  0  0  0
  2 12  2  0  0  0  0
  3  4  1  0  0  0  0
  3  6  1  0  0  0  0
  3  9  1  0  0  0  0
  3 10  1  0  0  0  0
  4  5  1  0  0  0  0
  4 13  1  0  0  0  0
  4 14  1  0  0  0  0
  5  7  1  0  0  0  0
  5 15  1  0  0  0  0
  6  8  2  0  0  0  0
  6 12  1  0  0  0  0
  7  8  1  0  0  0  0
  7 16  1  0  0  0  0
  7 17  1  0  0  0  0
  8 11  1  0  0  0  0
  9 18  1  0  0  0  0
  9 19  1  0  0  0  0
  9 20  1  0  0  0  0
 10 21  1  0  0  0  0
 10 22  1  0  0  0  0
 10 23  1  0  0  0  0
 11 24  1  0  0  0  0
 11 25  1  0  0  0  0
 11 26  1  0  0  0  0
 12 27  1  0  0  0  0
M  END
> <PUBCHEM_COMPOUND_CID>
25201359

> <PUBCHEM_COMPOUND_CANONICALIZED>
1

> <PUBCHEM_CACTVS_COMPLEXITY>
226

> <PUBCHEM_CACTVS_HBOND_ACCEPTOR>
2

> <PUBCHEM_CACTVS_HBOND_DONOR>
1

> <PUBCHEM_CACTVS_ROTATABLE_BOND>
1

> <PUBCHEM_CACTVS_SUBSKEYS>
AAADceBwMAAAAAAAAAAAAAAAAAAAAAAAAAAgAAAAAAAAAAAAAAAAGgAACAAADhSggAICAAAAAgCIAghQgAAAAAAgAAAACAEAAEgAEBIAAAAAQAAEwAAIAQOIjMDPAAAAAAAAAAAAAAAAAAAAAAAAAAAAAA==

> <PUBCHEM_IUPAC_OPENEYE_NAME>
(4R)-4-hydroxy-2,6,6-trimethyl-cyclohexene-1-carbaldehyde

> <PUBCHEM_IUPAC_CAS_NAME>
(4R)-4-hydroxy-2,6,6-trimethyl-1-cyclohexenecarboxaldehyde

> <PUBCHEM_IUPAC_NAME>
(4R)-4-hydroxy-2,6,6-trimethylcyclohexene-1-carbaldehyde

> <PUBCHEM_IUPAC_SYSTEMATIC_NAME>
(4R)-2,6,6-trimethyl-4-oxidanyl-cyclohexene-1-carbaldehyde

> <PUBCHEM_IUPAC_TRADITIONAL_NAME>
(4R)-4-hydroxy-2,6,6-trimethyl-cyclohexene-1-carbaldehyde

> <PUBCHEM_IUPAC_INCHI>
InChI=1S/C10H16O2/c1-7-4-8(12)5-10(2,3)9(7)6-11/h6,8,12H,4-5H2,1-3H3/t8-/m1/s1

> <PUBCHEM_IUPAC_INCHIKEY>
SWPMTVXRLXPNDP-MRVPVSSYSA-N

> <PUBCHEM_XLOGP3_AA>
1.1

> <PUBCHEM_EXACT_MASS>
168.11503

> <PUBCHEM_MOLECULAR_FORMULA>
C10H16O2

> <PUBCHEM_MOLECULAR_WEIGHT>
168.23284

> <PUBCHEM_OPENEYE_CAN_SMILES>
CC1=C(C(CC(C1)O)(C)C)C=O

> <PUBCHEM_OPENEYE_ISO_SMILES>
CC1=C(C(C[C@@H](C1)O)(C)C)C=O

> <PUBCHEM_CACTVS_TPSA>
37.3

> <PUBCHEM_MONOISOTOPIC_WEIGHT>
168.11503

> <PUBCHEM_TOTAL_CHARGE>
0

> <PUBCHEM_HEAVY_ATOM_COUNT>
12

> <PUBCHEM_ATOM_DEF_STEREO_COUNT>
1

> <PUBCHEM_ATOM_UDEF_STEREO_COUNT>
0

> <PUBCHEM_BOND_DEF_STEREO_COUNT>
0

> <PUBCHEM_BOND_UDEF_STEREO_COUNT>
0

> <PUBCHEM_ISOTOPIC_ATOM_COUNT>
0

> <PUBCHEM_COMPONENT_COUNT>
1

> <PUBCHEM_CACTVS_TAUTO_COUNT>
1

> <PUBCHEM_COORDINATE_TYPE>
1
5
255

> <PUBCHEM_BONDANNOTATIONS>
5  1  6

$$$$

