439656
  -OEChem-07051212463D

 17 16  0     1  0  0  0  0  0999 V2000
    1.6893   -1.4661    0.1167 O   0  0  0  0  0  0  0  0  0  0  0  0
   -1.5628   -0.4245    1.1898 O   0  0  0  0  0  0  0  0  0  0  0  0
   -1.5354   -0.7534   -1.0453 O   0  0  0  0  0  0  0  0  0  0  0  0
    0.7085    0.6643   -1.4342 N   0  0  0  0  0  0  0  0  0  0  0  0
    0.2891    0.5305   -0.0302 C   0  0  1  0  0  0  0  0  0  0  0  0
    1.3977   -0.2159    0.7307 C   0  0  0  0  0  0  0  0  0  0  0  0
    0.0296    1.9377    0.5175 C   0  0  0  0  0  0  0  0  0  0  0  0
   -1.0160   -0.2726   -0.0449 C   0  0  0  0  0  0  0  0  0  0  0  0
    2.3239    0.3693    0.7653 H   0  0  0  0  0  0  0  0  0  0  0  0
    1.0953   -0.4192    1.7634 H   0  0  0  0  0  0  0  0  0  0  0  0
   -0.7904    2.4338   -0.0152 H   0  0  0  0  0  0  0  0  0  0  0  0
    0.9207    2.5709    0.4367 H   0  0  0  0  0  0  0  0  0  0  0  0
   -0.2501    1.8996    1.5766 H   0  0  0  0  0  0  0  0  0  0  0  0
    1.5836    1.1855   -1.4841 H   0  0  0  0  0  0  0  0  0  0  0  0
    0.0241    1.2166   -1.9505 H   0  0  0  0  0  0  0  0  0  0  0  0
    1.9436   -1.2843   -0.8042 H   0  0  0  0  0  0  0  0  0  0  0  0
   -2.3933   -0.9457    1.1600 H   0  0  0  0  0  0  0  0  0  0  0  0
  1  6  1  0  0  0  0
  1 16  1  0  0  0  0
  2  8  1  0  0  0  0
  2 17  1  0  0  0  0
  3  8  2  0  0  0  0
  4  5  1  0  0  0  0
  4 14  1  0  0  0  0
  4 15  1  0  0  0  0
  5  6  1  0  0  0  0
  5  7  1  0  0  0  0
  5  8  1  0  0  0  0
  6  9  1  0  0  0  0
  6 10  1  0  0  0  0
  7 11  1  0  0  0  0
  7 12  1  0  0  0  0
  7 13  1  0  0  0  0
M  END
> <PUBCHEM_COMPOUND_CID>
439656

> <PUBCHEM_CONFORMER_RMSD>
0.4

> <PUBCHEM_CONFORMER_DIVERSEORDER>
1
4
9
8
2
7
6
3
5

> <PUBCHEM_MMFF94_PARTIAL_CHARGES>
11
1 -0.68
14 0.36
15 0.36
16 0.4
17 0.5
2 -0.65
3 -0.57
4 -0.99
5 0.33
6 0.28
8 0.66

> <PUBCHEM_EFFECTIVE_ROTOR_COUNT>
2

> <PUBCHEM_PHARMACOPHORE_FEATURES>
7
1 1 acceptor
1 1 donor
1 2 acceptor
1 3 acceptor
1 4 cation
1 4 donor
3 2 3 8 anion

> <PUBCHEM_HEAVY_ATOM_COUNT>
8

> <PUBCHEM_ATOM_DEF_STEREO_COUNT>
1

> <PUBCHEM_ATOM_UDEF_STEREO_COUNT>
0

> <PUBCHEM_BOND_DEF_STEREO_COUNT>
0

> <PUBCHEM_BOND_UDEF_STEREO_COUNT>
0

> <PUBCHEM_ISOTOPIC_ATOM_COUNT>
0

> <PUBCHEM_COMPONENT_COUNT>
1

> <PUBCHEM_CACTVS_TAUTO_COUNT>
1

> <PUBCHEM_CONFORMER_ID>
0006B56800000001

> <PUBCHEM_MMFF94_ENERGY>
9.1707

> <PUBCHEM_FEATURE_SELFOVERLAP>
35.585

> <PUBCHEM_SHAPE_FINGERPRINT>
12423570 1 14249739183683873736
137420 1 10290928347850204768
18185500 45 18187939317366958318
21040471 1 17114684916331061401
24536 1 17130160710311939069
29004967 10 18342745091443581018
5943 1 5715306233557400732

> <PUBCHEM_SHAPE_MULTIPOLES>
142.05
1.86
1.51
1.16
0.12
0.58
0.2
-0.85
-0.2
-0.34
-0.13
0.15
0.02
-0.17

> <PUBCHEM_SHAPE_SELFOVERLAP>
267.213

> <PUBCHEM_SHAPE_VOLUME>
88.7

> <PUBCHEM_COORDINATE_TYPE>
2
5
10

$$$$

