17396176
  -OEChem-06241222553D

 42 45  0     0  0  0  0  0  0999 V2000
   -1.8064   -1.8790    1.8329 S   0  0  0  0  0  0  0  0  0  0  0  0
    4.7020    1.1818    0.9920 F   0  0  0  0  0  0  0  0  0  0  0  0
   -0.7325   -2.5138   -1.3980 O   0  0  0  0  0  0  0  0  0  0  0  0
   -2.2085    0.3627    0.2837 N   0  0  0  0  0  0  0  0  0  0  0  0
    1.0458   -2.8550    0.0455 N   0  0  0  0  0  0  0  0  0  0  0  0
   -2.7531    2.0190   -1.0871 N   0  0  0  0  0  0  0  0  0  0  0  0
   -3.8649   -0.2149   -0.9304 N   0  0  0  0  0  0  0  0  0  0  0  0
   -3.5902   -1.3031   -0.1061 N   0  0  0  0  0  0  0  0  0  0  0  0
   -1.3127    1.3377    0.5919 C   0  0  0  0  0  0  0  0  0  0  0  0
   -3.0257    0.8047   -0.6980 C   0  0  0  0  0  0  0  0  0  0  0  0
   -1.6745    2.3752   -0.2859 C   0  0  0  0  0  0  0  0  0  0  0  0
   -2.5732   -0.9219    0.6254 C   0  0  0  0  0  0  0  0  0  0  0  0
    2.0836   -2.4701   -0.9035 C   0  0  0  0  0  0  0  0  0  0  0  0
   -0.2591    1.4452    1.5013 C   0  0  0  0  0  0  0  0  0  0  0  0
   -1.2624   -3.2774    0.8225 C   0  0  0  0  0  0  0  0  0  0  0  0
   -0.9485    3.5787   -0.2537 C   0  0  0  0  0  0  0  0  0  0  0  0
    2.4216   -1.0106   -0.8051 C   0  0  0  0  0  0  0  0  0  0  0  0
   -0.3165   -2.8463   -0.2853 C   0  0  0  0  0  0  0  0  0  0  0  0
    0.4466    2.6532    1.5133 C   0  0  0  0  0  0  0  0  0  0  0  0
    0.1105    3.7010    0.6536 C   0  0  0  0  0  0  0  0  0  0  0  0
    1.5292   -3.2505    1.3667 C   0  0  0  0  0  0  0  0  0  0  0  0
    3.4249   -0.5840    0.0649 C   0  0  0  0  0  0  0  0  0  0  0  0
    1.7318   -0.0811   -1.5834 C   0  0  0  0  0  0  0  0  0  0  0  0
    3.7384    0.7720    0.1565 C   0  0  0  0  0  0  0  0  0  0  0  0
    2.0452    1.2750   -1.4918 C   0  0  0  0  0  0  0  0  0  0  0  0
    3.0486    1.7014   -0.6218 C   0  0  0  0  0  0  0  0  0  0  0  0
    2.9711   -3.0983   -0.7581 H   0  0  0  0  0  0  0  0  0  0  0  0
    1.7289   -2.6882   -1.9187 H   0  0  0  0  0  0  0  0  0  0  0  0
    0.0116    0.6370    2.1702 H   0  0  0  0  0  0  0  0  0  0  0  0
   -4.6200   -0.2510   -1.6045 H   0  0  0  0  0  0  0  0  0  0  0  0
   -0.8356   -4.0526    1.4611 H   0  0  0  0  0  0  0  0  0  0  0  0
   -2.1381   -3.7376    0.3503 H   0  0  0  0  0  0  0  0  0  0  0  0
   -1.1997    4.3997   -0.9177 H   0  0  0  0  0  0  0  0  0  0  0  0
    1.2753    2.7771    2.2064 H   0  0  0  0  0  0  0  0  0  0  0  0
    0.6807    4.6258    0.6876 H   0  0  0  0  0  0  0  0  0  0  0  0
    2.6046   -3.0827    1.4659 H   0  0  0  0  0  0  0  0  0  0  0  0
    1.0201   -2.6776    2.1443 H   0  0  0  0  0  0  0  0  0  0  0  0
    1.3364   -4.3180    1.5073 H   0  0  0  0  0  0  0  0  0  0  0  0
    3.9764   -1.2951    0.6730 H   0  0  0  0  0  0  0  0  0  0  0  0
    0.9481   -0.3977   -2.2661 H   0  0  0  0  0  0  0  0  0  0  0  0
    1.5091    1.9983   -2.0990 H   0  0  0  0  0  0  0  0  0  0  0  0
    3.2937    2.7570   -0.5510 H   0  0  0  0  0  0  0  0  0  0  0  0
  1 12  1  0  0  0  0
  1 15  1  0  0  0  0
  2 24  1  0  0  0  0
  3 18  2  0  0  0  0
  4  9  1  0  0  0  0
  4 10  1  0  0  0  0
  4 12  1  0  0  0  0
  5 13  1  0  0  0  0
  5 18  1  0  0  0  0
  5 21  1  0  0  0  0
  6 10  2  0  0  0  0
  6 11  1  0  0  0  0
  7  8  1  0  0  0  0
  7 10  1  0  0  0  0
  7 30  1  0  0  0  0
  8 12  2  0  0  0  0
  9 11  1  0  0  0  0
  9 14  2  0  0  0  0
 11 16  2  0  0  0  0
 13 17  1  0  0  0  0
 13 27  1  0  0  0  0
 13 28  1  0  0  0  0
 14 19  1  0  0  0  0
 14 29  1  0  0  0  0
 15 18  1  0  0  0  0
 15 31  1  0  0  0  0
 15 32  1  0  0  0  0
 16 20  1  0  0  0  0
 16 33  1  0  0  0  0
 17 22  2  0  0  0  0
 17 23  1  0  0  0  0
 19 20  2  0  0  0  0
 19 34  1  0  0  0  0
 20 35  1  0  0  0  0
 21 36  1  0  0  0  0
 21 37  1  0  0  0  0
 21 38  1  0  0  0  0
 22 24  1  0  0  0  0
 22 39  1  0  0  0  0
 23 25  2  0  0  0  0
 23 40  1  0  0  0  0
 24 26  2  0  0  0  0
 25 26  1  0  0  0  0
 25 41  1  0  0  0  0
 26 42  1  0  0  0  0
M  END
> <PUBCHEM_COMPOUND_CID>
17396176

> <PUBCHEM_CONFORMER_RMSD>
1.4

> <PUBCHEM_CONFORMER_DIVERSEORDER>
2
43
9
71
50
83
94
62
14
42
69
10
3
88
72
17
11
48
52
65
55
20
78
25
56
6
68
79
4
92
70
36
81
1
12
27
66
58
8
19
51
60
34
13
61
15
67
44
37
23
90
40
86
7
64
87
22
91
18
76
30
45
41
38
5
26
77
35
73
89
53
32
31
49
47
74
28
80
24
16
85
46
84
33
95
29
82
54
93
59
57
21
63
39
75

> <PUBCHEM_MMFF94_PARTIAL_CHARGES>
35
1 -0.37
10 0.27
11 0.23
12 0.6
13 0.44
14 -0.15
15 0.29
16 -0.15
17 -0.14
18 0.57
19 -0.15
2 -0.19
20 -0.15
21 0.3
22 -0.15
23 -0.15
24 0.19
25 -0.15
26 -0.15
29 0.15
3 -0.57
30 0.4
33 0.15
34 0.15
35 0.15
39 0.15
4 0.29
40 0.15
41 0.15
42 0.15
5 -0.66
6 -0.57
7 -0.44
8 -0.49
9 -0.15

> <PUBCHEM_EFFECTIVE_ROTOR_COUNT>
6

> <PUBCHEM_PHARMACOPHORE_FEATURES>
7
1 3 acceptor
1 7 donor
4 4 6 7 10 cation
5 4 6 9 10 11 rings
5 4 7 8 10 12 rings
6 17 22 23 24 25 26 rings
6 9 11 14 16 19 20 rings

> <PUBCHEM_HEAVY_ATOM_COUNT>
26

> <PUBCHEM_ATOM_DEF_STEREO_COUNT>
0

> <PUBCHEM_ATOM_UDEF_STEREO_COUNT>
0

> <PUBCHEM_BOND_DEF_STEREO_COUNT>
0

> <PUBCHEM_BOND_UDEF_STEREO_COUNT>
0

> <PUBCHEM_ISOTOPIC_ATOM_COUNT>
0

> <PUBCHEM_COMPONENT_COUNT>
1

> <PUBCHEM_CACTVS_TAUTO_COUNT>
2

> <PUBCHEM_CONFORMER_ID>
010971D000000002

> <PUBCHEM_MMFF94_ENERGY>
76.3036

> <PUBCHEM_FEATURE_SELFOVERLAP>
35.962

> <PUBCHEM_SHAPE_FINGERPRINT>
10675989 125 17907871939031941413
10708813 3 16752689988693678745
10759866 29 17915732077671142612
11370993 70 18271252710801636124
12035758 1 18267016155577813899
12054548 360 17908412563670894300
12156800 1 17183692684204174766
12553582 1 18192972873104031657
13122387 1 18194681694604010758
13140716 1 18193548089641935947
13402501 40 18336829671594006985
13965767 371 15238356907682188843
14223421 5 18190457349703263484
14790565 3 17614565174309993505
17492 54 18267298720990907685
192875 21 17836099131447855975
19930381 70 18409167701601320703
20715895 44 18058462074243065173
20764821 26 17833557790682095351
20905425 154 18337109098013969695
22749437 52 18342173414222219638
23419403 2 16446179759521263170
23559900 14 18192440873212544032
238 59 18191605068086284983
35225 105 17189876260547747544
463206 1 18336554841338171199

> <PUBCHEM_SHAPE_MULTIPOLES>
500.87
5.85
4.99
1.54
2.11
0.3
-0.19
-0.55
0.76
-0.45
-1.07
0.05
0.11
0.54

> <PUBCHEM_SHAPE_SELFOVERLAP>
1089.875

> <PUBCHEM_SHAPE_VOLUME>
278.3

> <PUBCHEM_COORDINATE_TYPE>
2
5
10

$$$$

