440114
  -OEChem-07051212483D

 49 52  0     1  0  0  0  0  0999 V2000
   -4.6241    1.1993    1.0974 O   0  0  0  0  0  0  0  0  0  0  0  0
    4.8807    0.1635    1.7790 O   0  0  0  0  0  0  0  0  0  0  0  0
    0.3771    0.4223   -0.2054 C   0  0  1  0  0  0  0  0  0  0  0  0
   -0.5146   -0.8342   -0.4802 C   0  0  2  0  0  0  0  0  0  0  0  0
    1.7546    0.3381   -0.9596 C   0  0  2  0  0  0  0  0  0  0  0  0
   -1.8100   -0.6848    0.3230 C   0  0  1  0  0  0  0  0  0  0  0  0
   -2.6053    0.5662   -0.1036 C   0  0  2  0  0  0  0  0  0  0  0  0
    2.4754   -0.9991   -0.5772 C   0  0  2  0  0  0  0  0  0  0  0  0
   -0.3976    1.7498   -0.4345 C   0  0  0  0  0  0  0  0  0  0  0  0
    0.2243   -2.1314   -0.1290 C   0  0  0  0  0  0  0  0  0  0  0  0
   -1.7738    1.7928    0.2563 C   0  0  0  0  0  0  0  0  0  0  0  0
    1.5829   -2.2285   -0.8192 C   0  0  0  0  0  0  0  0  0  0  0  0
   -2.8444   -1.8051    0.3160 C   0  0  0  0  0  0  0  0  0  0  0  0
    2.7053    1.5212   -0.6123 C   0  0  0  0  0  0  0  0  0  0  0  0
   -3.8540    0.3241    0.7250 C   0  0  0  0  0  0  0  0  0  0  0  0
    1.5539    0.3914   -2.4972 C   0  0  0  0  0  0  0  0  0  0  0  0
    3.0005   -1.0109    0.8711 C   0  0  0  0  0  0  0  0  0  0  0  0
   -4.0514   -1.1555    1.0091 C   0  0  0  0  0  0  0  0  0  0  0  0
   -3.0568    0.6090   -1.5752 C   0  0  0  0  0  0  0  0  0  0  0  0
    3.1701    1.5460    0.8349 C   0  0  0  0  0  0  0  0  0  0  0  0
    3.8073    0.2257    1.1817 C   0  0  0  0  0  0  0  0  0  0  0  0
    0.5944    0.4073    0.8718 H   0  0  0  0  0  0  0  0  0  0  0  0
   -0.7654   -0.8831   -1.5448 H   0  0  0  0  0  0  0  0  0  0  0  0
   -1.5129   -0.5679    1.3800 H   0  0  0  0  0  0  0  0  0  0  0  0
    3.3567   -1.1035   -1.2273 H   0  0  0  0  0  0  0  0  0  0  0  0
   -0.5358    1.9279   -1.5054 H   0  0  0  0  0  0  0  0  0  0  0  0
    0.1882    2.5934   -0.0536 H   0  0  0  0  0  0  0  0  0  0  0  0
   -0.3802   -2.9960   -0.4285 H   0  0  0  0  0  0  0  0  0  0  0  0
    0.3522   -2.2092    0.9571 H   0  0  0  0  0  0  0  0  0  0  0  0
   -1.6310    1.8487    1.3435 H   0  0  0  0  0  0  0  0  0  0  0  0
   -2.2987    2.7139   -0.0250 H   0  0  0  0  0  0  0  0  0  0  0  0
    2.0961   -3.1360   -0.4778 H   0  0  0  0  0  0  0  0  0  0  0  0
    1.4269   -2.3623   -1.8963 H   0  0  0  0  0  0  0  0  0  0  0  0
   -2.5088   -2.6917    0.8629 H   0  0  0  0  0  0  0  0  0  0  0  0
   -3.0960   -2.1174   -0.7033 H   0  0  0  0  0  0  0  0  0  0  0  0
    2.2426    2.4827   -0.8615 H   0  0  0  0  0  0  0  0  0  0  0  0
    3.5987    1.4513   -1.2496 H   0  0  0  0  0  0  0  0  0  0  0  0
    0.8653   -0.3720   -2.8667 H   0  0  0  0  0  0  0  0  0  0  0  0
    1.1689    1.3648   -2.8187 H   0  0  0  0  0  0  0  0  0  0  0  0
    2.5064    0.2399   -3.0191 H   0  0  0  0  0  0  0  0  0  0  0  0
    3.6422   -1.8873    1.0208 H   0  0  0  0  0  0  0  0  0  0  0  0
    2.1950   -1.0665    1.6096 H   0  0  0  0  0  0  0  0  0  0  0  0
   -4.0171   -1.3150    2.0906 H   0  0  0  0  0  0  0  0  0  0  0  0
   -4.9952   -1.5129    0.5920 H   0  0  0  0  0  0  0  0  0  0  0  0
   -3.7055   -0.2335   -1.8382 H   0  0  0  0  0  0  0  0  0  0  0  0
   -3.6407    1.5179   -1.7653 H   0  0  0  0  0  0  0  0  0  0  0  0
   -2.2191    0.6087   -2.2774 H   0  0  0  0  0  0  0  0  0  0  0  0
    2.3459    1.7349    1.5288 H   0  0  0  0  0  0  0  0  0  0  0  0
    3.9105    2.3420    0.9697 H   0  0  0  0  0  0  0  0  0  0  0  0
  1 15  2  0  0  0  0
  2 21  2  0  0  0  0
  3  4  1  0  0  0  0
  3  5  1  0  0  0  0
  3  9  1  0  0  0  0
  3 22  1  0  0  0  0
  4  6  1  0  0  0  0
  4 10  1  0  0  0  0
  4 23  1  0  0  0  0
  5  8  1  0  0  0  0
  5 14  1  0  0  0  0
  5 16  1  0  0  0  0
  6  7  1  0  0  0  0
  6 13  1  0  0  0  0
  6 24  1  0  0  0  0
  7 11  1  0  0  0  0
  7 15  1  0  0  0  0
  7 19  1  0  0  0  0
  8 12  1  0  0  0  0
  8 17  1  0  0  0  0
  8 25  1  0  0  0  0
  9 11  1  0  0  0  0
  9 26  1  0  0  0  0
  9 27  1  0  0  0  0
 10 12  1  0  0  0  0
 10 28  1  0  0  0  0
 10 29  1  0  0  0  0
 11 30  1  0  0  0  0
 11 31  1  0  0  0  0
 12 32  1  0  0  0  0
 12 33  1  0  0  0  0
 13 18  1  0  0  0  0
 13 34  1  0  0  0  0
 13 35  1  0  0  0  0
 14 20  1  0  0  0  0
 14 36  1  0  0  0  0
 14 37  1  0  0  0  0
 15 18  1  0  0  0  0
 16 38  1  0  0  0  0
 16 39  1  0  0  0  0
 16 40  1  0  0  0  0
 17 21  1  0  0  0  0
 17 41  1  0  0  0  0
 17 42  1  0  0  0  0
 18 43  1  0  0  0  0
 18 44  1  0  0  0  0
 19 45  1  0  0  0  0
 19 46  1  0  0  0  0
 19 47  1  0  0  0  0
 20 21  1  0  0  0  0
 20 48  1  0  0  0  0
 20 49  1  0  0  0  0
M  END
> <PUBCHEM_COMPOUND_CID>
440114

> <PUBCHEM_CONFORMER_RMSD>
0.6

> <PUBCHEM_CONFORMER_DIVERSEORDER>
1
2

> <PUBCHEM_MMFF94_PARTIAL_CHARGES>
8
1 -0.57
15 0.45
17 0.06
18 0.06
2 -0.57
20 0.06
21 0.45
7 0.06

> <PUBCHEM_EFFECTIVE_ROTOR_COUNT>
1.8

> <PUBCHEM_PHARMACOPHORE_FEATURES>
6
1 1 acceptor
1 2 acceptor
5 6 7 13 15 18 rings
6 3 4 5 8 10 12 rings
6 3 4 6 7 9 11 rings
6 5 8 14 17 20 21 rings

> <PUBCHEM_HEAVY_ATOM_COUNT>
21

> <PUBCHEM_ATOM_DEF_STEREO_COUNT>
6

> <PUBCHEM_ATOM_UDEF_STEREO_COUNT>
0

> <PUBCHEM_BOND_DEF_STEREO_COUNT>
0

> <PUBCHEM_BOND_UDEF_STEREO_COUNT>
0

> <PUBCHEM_ISOTOPIC_ATOM_COUNT>
0

> <PUBCHEM_COMPONENT_COUNT>
1

> <PUBCHEM_CACTVS_TAUTO_COUNT>
6

> <PUBCHEM_CONFORMER_ID>
0006B73200000001

> <PUBCHEM_MMFF94_ENERGY>
65.7336

> <PUBCHEM_FEATURE_SELFOVERLAP>
30.58

> <PUBCHEM_SHAPE_FINGERPRINT>
10062212 137 18272651208436278755
10759866 29 17702092578689814940
1100329 8 14591241782827335121
11132069 177 18412541020497242171
12011746 2 18339372954375594926
12077114 3 17702961338667048461
12251169 10 18342464737870007410
12382932 28 18410290294061423043
12403814 3 17775563122784632429
12553582 1 18341034264678976437
12633257 1 18336277781598319120
12644460 14 17274809221831057404
12892183 10 18129959922378104984
13140716 1 18411979143890012643
13224815 77 18410852148945805559
13544653 18 14979692017492414466
13583140 156 17346055423041599284
13675066 3 17989770007639934809
14081887 123 18260263045132715425
14178342 30 18409722950704604627
14223421 5 18337107976858459868
14289901 80 15936403468519594063
15375358 24 18408605885640474237
15536298 74 18260820540245750367
16945 1 18268991058285462111
17349148 13 18270975565384139871
17804303 29 18194958776109200894
1813 80 16917070001431141438
18186145 218 18334287690894326799
18981168 100 15141795292401442841
19862831 5 8862948277000406283
20559304 39 18271231794458513180
20715895 44 17915471699605912933
21452121 103 18187364393060280387
21756936 100 17680439858019269640
2334 1 18340760447354634975
23557571 272 17969205777167537823
23559900 14 18335968865980498270
2748010 2 18339913905000422951
2838139 119 15358562730819080472
296302 2 16805325491616252691
312423 11 15769482197212087021
394222 165 17414692299346702436
474 4 15213307378664474304
49207404 50 18336256860380168290
495365 180 17604428630029743631
5104073 3 18200865198086549961
5262128 65 11599721813447403642
633830 44 17894908508024516396
7097593 13 17988089992506806858
7364860 26 18115018744483155798
84936 31 17168986845285248622
90316 7 17989207053576591413
9709674 26 18336828709774722271

> <PUBCHEM_SHAPE_MULTIPOLES>
420.43
7.94
2.11
1.55
1.46
0.46
-0.48
-0.78
4.09
0.09
-0.09
-0.9
-0.22
0.27

> <PUBCHEM_SHAPE_SELFOVERLAP>
900.595

> <PUBCHEM_SHAPE_VOLUME>
231.3

> <PUBCHEM_COORDINATE_TYPE>
2
5
10

$$$$

