5311281
  -OEChem-07051213152D

 72 75  0     1  0  0  0  0  0999 V2000
    5.4641   -0.5943    0.0000 O   0  0  0  0  0  0  0  0  0  0  0  0
    7.2125   -3.6289    0.0000 O   0  0  0  0  0  0  0  0  0  0  0  0
    5.0017   -0.0228    0.0000 O   0  0  0  0  0  0  0  0  0  0  0  0
    5.9641    1.2717    0.0000 O   0  0  0  0  0  0  0  0  0  0  0  0
    2.8660    1.9057    0.0000 O   0  0  0  0  0  0  0  0  0  0  0  0
    6.7525    0.7664    0.0000 N   0  0  0  0  0  0  0  0  0  0  0  0
    7.2241   -0.5596    0.0000 C   0  0  2  0  0  0  0  0  0  0  0  0
    6.3301   -1.0943    0.0000 C   0  0  1  0  0  0  0  0  0  0  0  0
    7.5262    0.4307    0.0000 C   0  0  2  0  0  0  0  0  0  0  0  0
    8.1301   -1.0735    0.0000 C   0  0  1  0  0  0  0  0  0  0  0  0
    6.3301   -2.0943    0.0000 C   0  0  2  0  0  0  0  0  0  0  0  0
    7.2241   -2.6290    0.0000 C   0  0  1  0  0  0  0  0  0  0  0  0
    5.9976   -0.1137    0.0000 C   0  0  0  0  0  0  0  0  0  0  0  0
    8.1301   -2.1151    0.0000 C   0  0  0  0  0  0  0  0  0  0  0  0
    8.3836    0.9455    0.0000 C   0  0  0  0  0  0  0  0  0  0  0  0
    8.9942   -0.5702    0.0000 C   0  0  0  0  0  0  0  0  0  0  0  0
    5.4641   -2.5943    0.0000 C   0  0  0  0  0  0  0  0  0  0  0  0
    8.9942   -2.6184    0.0000 C   0  0  0  0  0  0  0  0  0  0  0  0
    8.3664    1.9454    0.0000 C   0  0  0  0  0  0  0  0  0  0  0  0
    4.5981   -2.0943    0.0000 C   0  0  0  0  0  0  0  0  0  0  0  0
    5.4641    0.4057    0.0000 C   0  0  0  0  0  0  0  0  0  0  0  0
    3.7320   -2.5943    0.0000 C   0  0  0  0  0  0  0  0  0  0  0  0
    9.2238    2.4602    0.0000 C   0  0  0  0  0  0  0  0  0  0  0  0
    7.4920    2.4304    0.0000 C   0  0  0  0  0  0  0  0  0  0  0  0
    2.8660   -2.0943    0.0000 C   0  0  1  0  0  0  0  0  0  0  0  0
    4.5981    0.9057    0.0000 C   0  0  0  0  0  0  0  0  0  0  0  0
    2.8660   -1.0943    0.0000 C   0  0  0  0  0  0  0  0  0  0  0  0
    9.2066    3.4600    0.0000 C   0  0  0  0  0  0  0  0  0  0  0  0
    7.4748    3.4303    0.0000 C   0  0  0  0  0  0  0  0  0  0  0  0
    2.0000   -0.5943    0.0000 C   0  0  0  0  0  0  0  0  0  0  0  0
    2.0000   -2.5943    0.0000 C   0  0  0  0  0  0  0  0  0  0  0  0
    3.7320    0.4057    0.0000 C   0  0  0  0  0  0  0  0  0  0  0  0
    2.0000    0.4057    0.0000 C   0  0  0  0  0  0  0  0  0  0  0  0
    2.8660    0.9057    0.0000 C   0  0  1  0  0  0  0  0  0  0  0  0
    8.3321    3.9451    0.0000 C   0  0  0  0  0  0  0  0  0  0  0  0
    8.0136   -0.2448    0.0000 H   0  0  0  0  0  0  0  0  0  0  0  0
    7.4855    1.0494    0.0000 H   0  0  0  0  0  0  0  0  0  0  0  0
    8.6677   -1.3824    0.0000 H   0  0  0  0  0  0  0  0  0  0  0  0
    6.3236   -2.9443    0.0000 H   0  0  0  0  0  0  0  0  0  0  0  0
    7.7580   -2.9441    0.0000 H   0  0  0  0  0  0  0  0  0  0  0  0
    6.6143    1.3708    0.0000 H   0  0  0  0  0  0  0  0  0  0  0  0
    8.6056    0.3666    0.0000 H   0  0  0  0  0  0  0  0  0  0  0  0
    8.9922    1.0636    0.0000 H   0  0  0  0  0  0  0  0  0  0  0  0
    9.3063   -1.1059    0.0000 H   0  0  0  0  0  0  0  0  0  0  0  0
    9.5300   -0.2581    0.0000 H   0  0  0  0  0  0  0  0  0  0  0  0
    8.6822   -0.0344    0.0000 H   0  0  0  0  0  0  0  0  0  0  0  0
    5.4641   -3.2143    0.0000 H   0  0  0  0  0  0  0  0  0  0  0  0
    8.9918   -3.2384    0.0000 H   0  0  0  0  0  0  0  0  0  0  0  0
    9.5323   -2.3105    0.0000 H   0  0  0  0  0  0  0  0  0  0  0  0
    7.7458   -3.9451    0.0000 H   0  0  0  0  0  0  0  0  0  0  0  0
    4.5981   -1.4743    0.0000 H   0  0  0  0  0  0  0  0  0  0  0  0
    3.3335   -3.0692    0.0000 H   0  0  0  0  0  0  0  0  0  0  0  0
    4.1306   -3.0692    0.0000 H   0  0  0  0  0  0  0  0  0  0  0  0
    9.7659    2.1594    0.0000 H   0  0  0  0  0  0  0  0  0  0  0  0
    6.9604    2.1113    0.0000 H   0  0  0  0  0  0  0  0  0  0  0  0
    2.8660   -2.7143    0.0000 H   0  0  0  0  0  0  0  0  0  0  0  0
    4.5981    1.5257    0.0000 H   0  0  0  0  0  0  0  0  0  0  0  0
    3.4766   -1.2020    0.0000 H   0  0  0  0  0  0  0  0  0  0  0  0
    3.0781   -0.5117    0.0000 H   0  0  0  0  0  0  0  0  0  0  0  0
    9.7381    3.7792    0.0000 H   0  0  0  0  0  0  0  0  0  0  0  0
    6.9326    3.7310    0.0000 H   0  0  0  0  0  0  0  0  0  0  0  0
    1.3894   -0.4866    0.0000 H   0  0  0  0  0  0  0  0  0  0  0  0
    1.7880   -1.1769    0.0000 H   0  0  0  0  0  0  0  0  0  0  0  0
    1.6900   -2.0574    0.0000 H   0  0  0  0  0  0  0  0  0  0  0  0
    1.4631   -2.9043    0.0000 H   0  0  0  0  0  0  0  0  0  0  0  0
    2.3100   -3.1312    0.0000 H   0  0  0  0  0  0  0  0  0  0  0  0
    3.7320   -0.2143    0.0000 H   0  0  0  0  0  0  0  0  0  0  0  0
    1.7880    0.9883    0.0000 H   0  0  0  0  0  0  0  0  0  0  0  0
    1.3894    0.2980    0.0000 H   0  0  0  0  0  0  0  0  0  0  0  0
    3.4030    1.2157    0.0000 H   0  0  0  0  0  0  0  0  0  0  0  0
    8.3215    4.5650    0.0000 H   0  0  0  0  0  0  0  0  0  0  0  0
    2.3291    2.2157    0.0000 H   0  0  0  0  0  0  0  0  0  0  0  0
  8  1  1  1  0  0  0
  1 21  1  0  0  0  0
 12  2  1  1  0  0  0
  2 50  1  0  0  0  0
  3 13  2  0  0  0  0
  4 21  2  0  0  0  0
 34  5  1  1  0  0  0
  5 72  1  0  0  0  0
  6  9  1  0  0  0  0
  6 13  1  0  0  0  0
  6 41  1  0  0  0  0
  7  8  1  0  0  0  0
  7  9  1  0  0  0  0
  7 10  1  0  0  0  0
  7 36  1  1  0  0  0
  8 11  1  0  0  0  0
  8 13  1  0  0  0  0
  9 15  1  1  0  0  0
  9 37  1  0  0  0  0
 10 14  1  0  0  0  0
 10 16  1  6  0  0  0
 10 38  1  0  0  0  0
 11 12  1  0  0  0  0
 11 17  1  0  0  0  0
 11 39  1  1  0  0  0
 12 14  1  0  0  0  0
 12 40  1  0  0  0  0
 14 18  2  0  0  0  0
 15 19  1  0  0  0  0
 15 42  1  0  0  0  0
 15 43  1  0  0  0  0
 16 44  1  0  0  0  0
 16 45  1  0  0  0  0
 16 46  1  0  0  0  0
 17 20  2  0  0  0  0
 17 47  1  0  0  0  0
 18 48  1  0  0  0  0
 18 49  1  0  0  0  0
 19 23  2  0  0  0  0
 19 24  1  0  0  0  0
 20 22  1  0  0  0  0
 20 51  1  0  0  0  0
 21 26  1  0  0  0  0
 22 25  1  0  0  0  0
 22 52  1  0  0  0  0
 22 53  1  0  0  0  0
 23 28  1  0  0  0  0
 23 54  1  0  0  0  0
 24 29  2  0  0  0  0
 24 55  1  0  0  0  0
 25 27  1  0  0  0  0
 25 31  1  6  0  0  0
 25 56  1  0  0  0  0
 26 32  2  0  0  0  0
 26 57  1  0  0  0  0
 27 30  1  0  0  0  0
 27 58  1  0  0  0  0
 27 59  1  0  0  0  0
 28 35  2  0  0  0  0
 28 60  1  0  0  0  0
 29 35  1  0  0  0  0
 29 61  1  0  0  0  0
 30 33  1  0  0  0  0
 30 62  1  0  0  0  0
 30 63  1  0  0  0  0
 31 64  1  0  0  0  0
 31 65  1  0  0  0  0
 31 66  1  0  0  0  0
 32 34  1  0  0  0  0
 32 67  1  0  0  0  0
 33 34  1  0  0  0  0
 33 68  1  0  0  0  0
 33 69  1  0  0  0  0
 34 70  1  0  0  0  0
 35 71  1  0  0  0  0
M  END
> <PUBCHEM_COMPOUND_CID>
5311281

> <PUBCHEM_COMPOUND_CANONICALIZED>
1

> <PUBCHEM_CACTVS_COMPLEXITY>
859

> <PUBCHEM_CACTVS_HBOND_ACCEPTOR>
5

> <PUBCHEM_CACTVS_HBOND_DONOR>
3

> <PUBCHEM_CACTVS_ROTATABLE_BOND>
2

> <PUBCHEM_CACTVS_SUBSKEYS>
AAADcfB6OAAAAAAAAAAAAAAAAAAAAWAAAAAwYAAAAAAAAFgBAAAAHgAQCAAADXzhmAYyCILABgCIAiHSGAICAAAgAAAIiIFIAMgKNDKAsRWHcAAn1gCYuYe++P+OgAAAAAAAAADAAAYQADAAAAAAAAAAAA==

> <PUBCHEM_IUPAC_INCHI>
InChI=1S/C29H37NO5/c1-18-9-7-13-22(31)15-16-25(32)35-29-23(14-8-10-18)27(33)20(3)19(2)26(29)24(30-28(29)34)17-21-11-5-4-6-12-21/h4-6,8,11-12,14-16,18-19,22-24,26-27,31,33H,3,7,9-10,13,17H2,1-2H3,(H,30,34)/b14-8+,16-15+/t18-,19-,22-,23+,24+,26+,27-,29-/m1/s1

> <PUBCHEM_IUPAC_INCHIKEY>
GBOGMAARMMDZGR-TYHYBEHESA-N

> <PUBCHEM_XLOGP3>
3.4

> <PUBCHEM_EXACT_MASS>
479.267173

> <PUBCHEM_MOLECULAR_FORMULA>
C29H37NO5

> <PUBCHEM_MOLECULAR_WEIGHT>
479.60778

> <PUBCHEM_OPENEYE_CAN_SMILES>
CC1CCCC(C=CC(=O)OC23C(C=CC1)C(C(=C)C(C2C(NC3=O)CC4=CC=CC=C4)C)O)O

> <PUBCHEM_OPENEYE_ISO_SMILES>
C[C@@H]1CCC[C@H](/C=C/C(=O)O[C@]23[C@@H](/C=C/C1)[C@@H](C(=C)[C@H]([C@H]2[C@@H](NC3=O)CC4=CC=CC=C4)C)O)O

> <PUBCHEM_CACTVS_TPSA>
95.9

> <PUBCHEM_MONOISOTOPIC_WEIGHT>
479.267173

> <PUBCHEM_TOTAL_CHARGE>
0

> <PUBCHEM_HEAVY_ATOM_COUNT>
35

> <PUBCHEM_ATOM_DEF_STEREO_COUNT>
8

> <PUBCHEM_ATOM_UDEF_STEREO_COUNT>
0

> <PUBCHEM_BOND_DEF_STEREO_COUNT>
2

> <PUBCHEM_BOND_UDEF_STEREO_COUNT>
0

> <PUBCHEM_ISOTOPIC_ATOM_COUNT>
0

> <PUBCHEM_COMPONENT_COUNT>
1

> <PUBCHEM_CACTVS_TAUTO_COUNT>
2

> <PUBCHEM_COORDINATE_TYPE>
1
5
255

> <PUBCHEM_BONDANNOTATIONS>
8  1  5
10  16  6
11  39  5
19  23  8
19  24  8
12  2  5
23  28  8
24  29  8
25  31  6
28  35  8
29  35  8
34  5  5
7  36  5
9  15  5

$$$$

