439474
  -OEChem-07051212453D

 35 35  0     1  0  0  0  0  0999 V2000
   -3.2701    0.5212   -0.1370 P   0  0  0  0  0  0  0  0  0  0  0  0
   -2.1040   -0.4271    0.4474 O   0  0  0  0  0  0  0  0  0  0  0  0
    0.3991   -0.1281   -2.1868 O   0  0  0  0  0  0  0  0  0  0  0  0
    0.6571   -2.5474   -0.6771 O   0  0  0  0  0  0  0  0  0  0  0  0
   -0.2554    1.8255    0.8109 O   0  0  0  0  0  0  0  0  0  0  0  0
    0.0204   -0.8132    2.4561 O   0  0  0  0  0  0  0  0  0  0  0  0
   -4.2878    0.6959    1.1076 O   0  0  0  0  0  0  0  0  0  0  0  0
   -4.0659   -0.4755   -1.1311 O   0  0  0  0  0  0  0  0  0  0  0  0
   -2.7993    1.8003   -0.7653 O   0  0  0  0  0  0  0  0  0  0  0  0
    2.5743   -0.3019   -0.1196 N   0  0  0  0  0  0  0  0  0  0  0  0
    4.6956    0.1769   -0.8965 N   0  0  0  0  0  0  0  0  0  0  0  0
    3.7698    1.6689    0.5569 N   0  0  0  0  0  0  0  0  0  0  0  0
   -1.1118   -0.9042   -0.4570 C   0  0  0  0  0  0  0  0  0  0  0  0
    1.4441    0.1054    0.7282 C   0  0  0  0  0  0  0  0  0  0  0  0
   -0.3870    0.2991   -1.0772 C   0  0  1  0  0  0  0  0  0  0  0  0
   -0.1576   -1.8628    0.2715 C   0  0  2  0  0  0  0  0  0  0  0  0
    0.5252    1.0326   -0.0831 C   0  0  1  0  0  0  0  0  0  0  0  0
    0.7556   -1.1527    1.2810 C   0  0  2  0  0  0  0  0  0  0  0  0
    3.5977    0.4870   -0.1289 C   0  0  0  0  0  0  0  0  0  0  0  0
   -1.6133   -1.4666   -1.2544 H   0  0  0  0  0  0  0  0  0  0  0  0
    1.7934    0.6419    1.6194 H   0  0  0  0  0  0  0  0  0  0  0  0
   -1.0547    1.0161   -1.5314 H   0  0  0  0  0  0  0  0  0  0  0  0
   -0.7506   -2.6140    0.8079 H   0  0  0  0  0  0  0  0  0  0  0  0
    1.1384    1.7427   -0.6525 H   0  0  0  0  0  0  0  0  0  0  0  0
    1.5309   -1.8578    1.6066 H   0  0  0  0  0  0  0  0  0  0  0  0
   -0.1948   -0.5680   -2.8187 H   0  0  0  0  0  0  0  0  0  0  0  0
    0.0651   -3.0248   -1.2829 H   0  0  0  0  0  0  0  0  0  0  0  0
    0.3584    2.3398    1.3624 H   0  0  0  0  0  0  0  0  0  0  0  0
   -0.6707   -0.1783    2.2017 H   0  0  0  0  0  0  0  0  0  0  0  0
   -5.0630    1.2885    1.0070 H   0  0  0  0  0  0  0  0  0  0  0  0
   -4.7809   -0.1115   -1.6955 H   0  0  0  0  0  0  0  0  0  0  0  0
    4.7187   -0.6655   -1.4608 H   0  0  0  0  0  0  0  0  0  0  0  0
    5.5115    0.7785   -0.9231 H   0  0  0  0  0  0  0  0  0  0  0  0
    4.6331    2.1946    0.4681 H   0  0  0  0  0  0  0  0  0  0  0  0
    3.0531    2.0854    1.1385 H   0  0  0  0  0  0  0  0  0  0  0  0
  1  2  1  0  0  0  0
  1  7  1  0  0  0  0
  1  8  1  0  0  0  0
  1  9  2  0  0  0  0
  2 13  1  0  0  0  0
  3 15  1  0  0  0  0
  3 26  1  0  0  0  0
  4 16  1  0  0  0  0
  4 27  1  0  0  0  0
  5 17  1  0  0  0  0
  5 28  1  0  0  0  0
  6 18  1  0  0  0  0
  6 29  1  0  0  0  0
  7 30  1  0  0  0  0
  8 31  1  0  0  0  0
 10 14  1  0  0  0  0
 10 19  2  0  0  0  0
 11 19  1  0  0  0  0
 11 32  1  0  0  0  0
 11 33  1  0  0  0  0
 12 19  1  0  0  0  0
 12 34  1  0  0  0  0
 12 35  1  0  0  0  0
 13 15  1  0  0  0  0
 13 16  1  0  0  0  0
 13 20  1  0  0  0  0
 14 17  1  0  0  0  0
 14 18  1  0  0  0  0
 14 21  1  0  0  0  0
 15 17  1  0  0  0  0
 15 22  1  0  0  0  0
 16 18  1  0  0  0  0
 16 23  1  0  0  0  0
 17 24  1  0  0  0  0
 18 25  1  0  0  0  0
M  END
> <PUBCHEM_COMPOUND_CID>
439474

> <PUBCHEM_CONFORMER_RMSD>
0.6

> <PUBCHEM_CONFORMER_DIVERSEORDER>
1
6
12
7
8
11
5
10
9
3
4
2

> <PUBCHEM_MMFF94_PARTIAL_CHARGES>
29
1 1.51
10 -0.7
11 -0.85
12 -0.85
13 0.28
14 0.25
15 0.28
16 0.28
17 0.28
18 0.28
19 0.55
2 -0.55
26 0.4
27 0.4
28 0.4
29 0.4
3 -0.68
30 0.5
31 0.5
32 0.4
33 0.4
34 0.4
35 0.4
4 -0.68
5 -0.68
6 -0.68
7 -0.77
8 -0.77
9 -0.7

> <PUBCHEM_EFFECTIVE_ROTOR_COUNT>
4.2

> <PUBCHEM_PHARMACOPHORE_FEATURES>
16
1 11 donor
1 12 donor
1 3 acceptor
1 3 donor
1 4 acceptor
1 4 donor
1 5 acceptor
1 5 donor
1 6 acceptor
1 6 donor
1 7 acceptor
1 8 acceptor
1 9 acceptor
4 1 7 8 9 anion
4 10 11 12 19 cation
6 13 14 15 16 17 18 rings

> <PUBCHEM_HEAVY_ATOM_COUNT>
19

> <PUBCHEM_ATOM_DEF_STEREO_COUNT>
4

> <PUBCHEM_ATOM_UDEF_STEREO_COUNT>
0

> <PUBCHEM_BOND_DEF_STEREO_COUNT>
0

> <PUBCHEM_BOND_UDEF_STEREO_COUNT>
0

> <PUBCHEM_ISOTOPIC_ATOM_COUNT>
0

> <PUBCHEM_COMPONENT_COUNT>
1

> <PUBCHEM_CACTVS_TAUTO_COUNT>
2

> <PUBCHEM_CONFORMER_ID>
0006B4B200000001

> <PUBCHEM_MMFF94_ENERGY>
29.3807

> <PUBCHEM_FEATURE_SELFOVERLAP>
81.29

> <PUBCHEM_SHAPE_FINGERPRINT>
10863032 1 18334858303206930630
10922049 32 18342734130850636626
10948715 1 18411702088555864710
10980938 120 18339370754682621115
11132069 177 17775010059128462606
11315181 36 16732972100030517436
12491281 212 18409161129905465779
12592029 89 18336260236641356586
13024252 1 17346319233340164858
14178342 30 16486403430092827001
14787075 74 17987790809416480977
14943859 89 18260268525257718738
14993402 34 18334584516263501263
15775835 57 18272937119676135329
16945 1 18060146409491118906
17834072 14 9223227455470943430
18186145 218 18334297561061787368
200 152 15936403455919548316
21501502 16 17842858864737461405
231179 274 17775297083350599989
23402539 116 17967250909843923796
23419403 2 17624370502345726354
23526113 38 17531246119590545594
23559900 14 18113334203202719478
25 1 18334575763141348378
298252 57 18411143497968356082
347723 3 16805598213613339314
528886 8 18333739000464650922
633830 44 18040433299871355653
69090 78 18336270046230122334

> <PUBCHEM_SHAPE_MULTIPOLES>
332.96
6.54
1.8
1.51
0.49
0.45
-0.13
-2.81
0.54
0.06
-0.1
-0.14
0.26
0.04

> <PUBCHEM_SHAPE_SELFOVERLAP>
663

> <PUBCHEM_SHAPE_VOLUME>
197.4

> <PUBCHEM_COORDINATE_TYPE>
2
5
10

$$$$

