14151
  -OEChem-06241222423D

 34 35  0     0  0  0  0  0  0999 V2000
   -1.0111   -1.0607   -1.5911 O   0  0  0  0  0  0  0  0  0  0  0  0
    1.2326   -1.1337    0.0426 N   0  0  0  0  0  0  0  0  0  0  0  0
   -0.0515   -1.3760    0.5016 N   0  0  0  0  0  0  0  0  0  0  0  0
   -2.4311   -1.5936    0.2951 C   0  0  0  0  0  0  0  0  0  0  0  0
    1.8221   -0.0121    0.7607 C   0  0  0  0  0  0  0  0  0  0  0  0
   -3.4016   -0.4457    0.2034 C   0  0  0  0  0  0  0  0  0  0  0  0
    3.2441    0.2412    0.3356 C   0  0  0  0  0  0  0  0  0  0  0  0
   -1.1082   -1.3160   -0.3931 C   0  0  0  0  0  0  0  0  0  0  0  0
   -3.4013    0.5295    1.1908 C   0  0  0  0  0  0  0  0  0  0  0  0
   -4.2820   -0.3794   -0.8674 C   0  0  0  0  0  0  0  0  0  0  0  0
    4.2804   -0.3992    1.0005 C   0  0  0  0  0  0  0  0  0  0  0  0
    3.4985    1.1110   -0.7156 C   0  0  0  0  0  0  0  0  0  0  0  0
   -4.3001    1.5928    1.1059 C   0  0  0  0  0  0  0  0  0  0  0  0
   -5.1806    0.6842   -0.9522 C   0  0  0  0  0  0  0  0  0  0  0  0
    5.5978   -0.1648    0.6066 C   0  0  0  0  0  0  0  0  0  0  0  0
    4.8160    1.3452   -1.1095 C   0  0  0  0  0  0  0  0  0  0  0  0
   -5.1895    1.6702    0.0344 C   0  0  0  0  0  0  0  0  0  0  0  0
    5.8656    0.7073   -0.4484 C   0  0  0  0  0  0  0  0  0  0  0  0
   -2.8605   -2.4887   -0.1732 H   0  0  0  0  0  0  0  0  0  0  0  0
   -2.2844   -1.8635    1.3483 H   0  0  0  0  0  0  0  0  0  0  0  0
    1.7993   -0.1903    1.8447 H   0  0  0  0  0  0  0  0  0  0  0  0
    1.2297    0.8974    0.5926 H   0  0  0  0  0  0  0  0  0  0  0  0
    1.7703   -1.9801    0.2289 H   0  0  0  0  0  0  0  0  0  0  0  0
   -0.1721   -1.6068    1.4831 H   0  0  0  0  0  0  0  0  0  0  0  0
   -2.7107    0.4791    2.0279 H   0  0  0  0  0  0  0  0  0  0  0  0
   -4.2820   -1.1411   -1.6420 H   0  0  0  0  0  0  0  0  0  0  0  0
    4.0828   -1.0818    1.8222 H   0  0  0  0  0  0  0  0  0  0  0  0
    2.6885    1.6117   -1.2385 H   0  0  0  0  0  0  0  0  0  0  0  0
   -4.3067    2.3610    1.8737 H   0  0  0  0  0  0  0  0  0  0  0  0
   -5.8731    0.7449   -1.7867 H   0  0  0  0  0  0  0  0  0  0  0  0
    6.4151   -0.6619    1.1209 H   0  0  0  0  0  0  0  0  0  0  0  0
    5.0246    2.0238   -1.9314 H   0  0  0  0  0  0  0  0  0  0  0  0
   -5.8890    2.4983   -0.0319 H   0  0  0  0  0  0  0  0  0  0  0  0
    6.8913    0.8895   -0.7553 H   0  0  0  0  0  0  0  0  0  0  0  0
  1  8  2  0  0  0  0
  2  3  1  0  0  0  0
  2  5  1  0  0  0  0
  2 23  1  0  0  0  0
  3  8  1  0  0  0  0
  3 24  1  0  0  0  0
  4  6  1  0  0  0  0
  4  8  1  0  0  0  0
  4 19  1  0  0  0  0
  4 20  1  0  0  0  0
  5  7  1  0  0  0  0
  5 21  1  0  0  0  0
  5 22  1  0  0  0  0
  6  9  2  0  0  0  0
  6 10  1  0  0  0  0
  7 11  2  0  0  0  0
  7 12  1  0  0  0  0
  9 13  1  0  0  0  0
  9 25  1  0  0  0  0
 10 14  2  0  0  0  0
 10 26  1  0  0  0  0
 11 15  1  0  0  0  0
 11 27  1  0  0  0  0
 12 16  2  0  0  0  0
 12 28  1  0  0  0  0
 13 17  2  0  0  0  0
 13 29  1  0  0  0  0
 14 17  1  0  0  0  0
 14 30  1  0  0  0  0
 15 18  2  0  0  0  0
 15 31  1  0  0  0  0
 16 18  1  0  0  0  0
 16 32  1  0  0  0  0
 17 33  1  0  0  0  0
 18 34  1  0  0  0  0
M  END
> <PUBCHEM_COMPOUND_CID>
14151

> <PUBCHEM_CONFORMER_RMSD>
0.8

> <PUBCHEM_CONFORMER_DIVERSEORDER>
3
24
47
2
20
35
41
30
28
42
4
33
26
1
31
46
19
39
49
21
50
37
36
5
32
6
18
40
12
17
27
15
38
43
16
34
45
25
9
13
14
48
10
29
11
23
7
22
8
44

> <PUBCHEM_MMFF94_PARTIAL_CHARGES>
30
1 -0.57
10 -0.15
11 -0.15
12 -0.15
13 -0.15
14 -0.15
15 -0.15
16 -0.15
17 -0.15
18 -0.15
2 -0.64
23 0.36
24 0.37
25 0.15
26 0.15
27 0.15
28 0.15
29 0.15
3 -0.42
30 0.15
31 0.15
32 0.15
33 0.15
34 0.15
4 0.2
5 0.41
6 -0.14
7 -0.14
8 0.57
9 -0.15

> <PUBCHEM_EFFECTIVE_ROTOR_COUNT>
6

> <PUBCHEM_PHARMACOPHORE_FEATURES>
5
1 1 acceptor
1 2 donor
1 3 donor
6 6 9 10 13 14 17 rings
6 7 11 12 15 16 18 rings

> <PUBCHEM_HEAVY_ATOM_COUNT>
18

> <PUBCHEM_ATOM_DEF_STEREO_COUNT>
0

> <PUBCHEM_ATOM_UDEF_STEREO_COUNT>
0

> <PUBCHEM_BOND_DEF_STEREO_COUNT>
0

> <PUBCHEM_BOND_UDEF_STEREO_COUNT>
0

> <PUBCHEM_ISOTOPIC_ATOM_COUNT>
0

> <PUBCHEM_COMPONENT_COUNT>
1

> <PUBCHEM_CACTVS_TAUTO_COUNT>
2

> <PUBCHEM_CONFORMER_ID>
0000374700000003

> <PUBCHEM_MMFF94_ENERGY>
40.3682

> <PUBCHEM_FEATURE_SELFOVERLAP>
26.862

> <PUBCHEM_SHAPE_FINGERPRINT>
105312 117 17676205771203630647
10591671 39 18261111842682640871
10670039 82 18114456855149448576
11045977 3 14836121039784251653
11089746 13 18113908147750211776
11370993 144 16773519961709301619
11552529 35 17273122501805347434
12236239 1 18342460331249437986
12555020 224 14996275916587154030
12596602 18 17346875650611640089
13288520 33 8718826496766864579
13668630 136 5617260329562013308
13785724 45 17696767919029534914
14123255 352 18413387631228052653
1420 369 9079122163036946632
14251752 14 18186235148228527846
14341114 176 16271928237802082524
14573314 32 17240477022598115412
15183329 4 17313379067462566606
15348495 7 15697991912535469552
15537594 2 10015866487652557049
167882 2 17604701317256227190
17349148 13 6988324949640513526
17780758 139 12607404399551932077
17834072 8 17748826306757863080
18785283 64 13613374993932884926
19489759 90 17531247257529778923
200 152 6843928273618908826
20281389 69 18272937119723932880
21054139 6 7709460511764450124
21150785 3 7997688753696815320
22061861 79 15140673696373707356
23402539 116 17312824891853147880
235170 7 15213295352571863945
23559900 14 14201694009127684050
26918003 58 12535352289876309879
270888 7 18265331897307192313
2767999 5 18408045125640482041
2838139 119 18261398874993773545
312425 54 15123789617350756481
314173 85 13326856630088794607
5104073 3 17488749961260227888
5283173 99 15357689825370165986
54446538 1 18412545370882446517
5924683 9 16199857368352669699
6328613 192 18340481167739650412
633830 44 18201440251321451842
8272917 22 18201722881902860802

> <PUBCHEM_SHAPE_MULTIPOLES>
354.6
15.47
1.63
1.22
6.95
0.07
-0.08
6.98
-0.54
-1.09
-0.06
-0.33
0.12
-1.32

> <PUBCHEM_SHAPE_SELFOVERLAP>
745.267

> <PUBCHEM_SHAPE_VOLUME>
199

> <PUBCHEM_COORDINATE_TYPE>
2
5
10

$$$$

