247749
  -OEChem-07051213062D

 61 65  0     1  0  0  0  0  0999 V2000
    9.5661    3.1251    0.0000 O   0  0  0  0  0  0  0  0  0  0  0  0
    8.9770    0.1255    0.0000 C   0  0  2  0  0  0  0  0  0  0  0  0
    8.9770    1.1255    0.0000 C   0  0  1  0  0  0  0  0  0  0  0  0
    8.1110   -0.3745    0.0000 C   0  0  1  0  0  0  0  0  0  0  0  0
    7.2450    0.1255    0.0000 C   0  0  1  0  0  0  0  0  0  0  0  0
    6.3350   -0.3813    0.0000 C   0  0  2  0  0  0  0  0  0  0  0  0
    9.9233    1.4302    0.0000 C   0  0  2  0  0  0  0  0  0  0  0  0
    8.1110    1.6255    0.0000 C   0  0  0  0  0  0  0  0  0  0  0  0
    7.2450    1.1255    0.0000 C   0  0  0  0  0  0  0  0  0  0  0  0
    9.9233   -0.1792    0.0000 C   0  0  0  0  0  0  0  0  0  0  0  0
    8.1271   -1.4160    0.0000 C   0  0  0  0  0  0  0  0  0  0  0  0
   10.5069    0.6255    0.0000 C   0  0  0  0  0  0  0  0  0  0  0  0
    6.3270   -1.4229    0.0000 C   0  0  0  0  0  0  0  0  0  0  0  0
    8.9770    2.1255    0.0000 C   0  0  0  0  0  0  0  0  0  0  0  0
    7.2290   -1.9438    0.0000 C   0  0  0  0  0  0  0  0  0  0  0  0
    5.4082    0.1828    0.0000 C   0  0  0  0  0  0  0  0  0  0  0  0
    6.3427    0.6186    0.0000 C   0  0  0  0  0  0  0  0  0  0  0  0
   10.2339    2.3808    0.0000 C   0  0  0  0  0  0  0  0  0  0  0  0
    4.4603   -0.3452    0.0000 C   0  0  0  0  0  0  0  0  0  0  0  0
    5.3915   -1.9727    0.0000 C   0  0  0  0  0  0  0  0  0  0  0  0
    4.4519   -1.4302    0.0000 C   0  0  0  0  0  0  0  0  0  0  0  0
   11.2124    2.5870    0.0000 C   0  0  0  0  0  0  0  0  0  0  0  0
    3.5840   -1.9268    0.0000 C   0  0  0  0  0  0  0  0  0  0  0  0
    2.6720   -1.5166    0.0000 C   0  0  0  0  0  0  0  0  0  0  0  0
    3.4756   -2.9209    0.0000 C   0  0  0  0  0  0  0  0  0  0  0  0
    2.0000   -2.2571    0.0000 C   0  0  0  0  0  0  0  0  0  0  0  0
    2.4967   -3.1251    0.0000 C   0  0  0  0  0  0  0  0  0  0  0  0
    9.0670   -0.7197    0.0000 H   0  0  0  0  0  0  0  0  0  0  0  0
    8.8504   -0.7938    0.0000 H   0  0  0  0  0  0  0  0  0  0  0  0
    7.9811    0.5505    0.0000 H   0  0  0  0  0  0  0  0  0  0  0  0
   10.5358    1.5264    0.0000 H   0  0  0  0  0  0  0  0  0  0  0  0
    8.5096    2.1005    0.0000 H   0  0  0  0  0  0  0  0  0  0  0  0
    7.7125    2.1005    0.0000 H   0  0  0  0  0  0  0  0  0  0  0  0
    7.0329    1.7081    0.0000 H   0  0  0  0  0  0  0  0  0  0  0  0
    6.6344    1.0178    0.0000 H   0  0  0  0  0  0  0  0  0  0  0  0
    9.6722   -0.7461    0.0000 H   0  0  0  0  0  0  0  0  0  0  0  0
   10.4606   -0.4884    0.0000 H   0  0  0  0  0  0  0  0  0  0  0  0
    8.3451   -1.9964    0.0000 H   0  0  0  0  0  0  0  0  0  0  0  0
    8.7362   -1.3005    0.0000 H   0  0  0  0  0  0  0  0  0  0  0  0
   10.9677    0.2108    0.0000 H   0  0  0  0  0  0  0  0  0  0  0  0
   10.9677    1.0402    0.0000 H   0  0  0  0  0  0  0  0  0  0  0  0
    9.5970    2.1255    0.0000 H   0  0  0  0  0  0  0  0  0  0  0  0
    8.9770    2.7455    0.0000 H   0  0  0  0  0  0  0  0  0  0  0  0
    8.3570    2.1255    0.0000 H   0  0  0  0  0  0  0  0  0  0  0  0
    6.8317   -2.4197    0.0000 H   0  0  0  0  0  0  0  0  0  0  0  0
    7.6300   -2.4166    0.0000 H   0  0  0  0  0  0  0  0  0  0  0  0
    5.8164    0.6494    0.0000 H   0  0  0  0  0  0  0  0  0  0  0  0
    5.0182    0.6648    0.0000 H   0  0  0  0  0  0  0  0  0  0  0  0
    6.9627    0.6139    0.0000 H   0  0  0  0  0  0  0  0  0  0  0  0
    6.3475    1.2386    0.0000 H   0  0  0  0  0  0  0  0  0  0  0  0
    5.7227    0.6234    0.0000 H   0  0  0  0  0  0  0  0  0  0  0  0
    4.2557    0.2401    0.0000 H   0  0  0  0  0  0  0  0  0  0  0  0
    3.8486   -0.4466    0.0000 H   0  0  0  0  0  0  0  0  0  0  0  0
    5.3939   -2.5926    0.0000 H   0  0  0  0  0  0  0  0  0  0  0  0
   11.3403    1.9803    0.0000 H   0  0  0  0  0  0  0  0  0  0  0  0
   11.8191    2.7148    0.0000 H   0  0  0  0  0  0  0  0  0  0  0  0
   11.0846    3.1937    0.0000 H   0  0  0  0  0  0  0  0  0  0  0  0
    2.5454   -0.9096    0.0000 H   0  0  0  0  0  0  0  0  0  0  0  0
    3.9348   -3.3376    0.0000 H   0  0  0  0  0  0  0  0  0  0  0  0
    1.3836   -2.1899    0.0000 H   0  0  0  0  0  0  0  0  0  0  0  0
    2.2423   -3.6905    0.0000 H   0  0  0  0  0  0  0  0  0  0  0  0
  1 18  2  0  0  0  0
  2  3  1  0  0  0  0
  2  4  1  0  0  0  0
  2 10  1  0  0  0  0
  2 28  1  6  0  0  0
  3  7  1  0  0  0  0
  3  8  1  0  0  0  0
  3 14  1  1  0  0  0
  4  5  1  0  0  0  0
  4 11  1  0  0  0  0
  4 29  1  1  0  0  0
  5  6  1  0  0  0  0
  5  9  1  0  0  0  0
  5 30  1  6  0  0  0
  6 13  1  0  0  0  0
  6 16  1  0  0  0  0
  6 17  1  1  0  0  0
  7 12  1  0  0  0  0
  7 18  1  1  0  0  0
  7 31  1  0  0  0  0
  8  9  1  0  0  0  0
  8 32  1  0  0  0  0
  8 33  1  0  0  0  0
  9 34  1  0  0  0  0
  9 35  1  0  0  0  0
 10 12  1  0  0  0  0
 10 36  1  0  0  0  0
 10 37  1  0  0  0  0
 11 15  1  0  0  0  0
 11 38  1  0  0  0  0
 11 39  1  0  0  0  0
 12 40  1  0  0  0  0
 12 41  1  0  0  0  0
 13 15  1  0  0  0  0
 13 20  2  0  0  0  0
 14 42  1  0  0  0  0
 14 43  1  0  0  0  0
 14 44  1  0  0  0  0
 15 45  1  0  0  0  0
 15 46  1  0  0  0  0
 16 19  1  0  0  0  0
 16 47  1  0  0  0  0
 16 48  1  0  0  0  0
 17 49  1  0  0  0  0
 17 50  1  0  0  0  0
 17 51  1  0  0  0  0
 18 22  1  0  0  0  0
 19 21  1  0  0  0  0
 19 52  1  0  0  0  0
 19 53  1  0  0  0  0
 20 21  1  0  0  0  0
 20 54  1  0  0  0  0
 21 23  2  0  0  0  0
 22 55  1  0  0  0  0
 22 56  1  0  0  0  0
 22 57  1  0  0  0  0
 23 24  1  0  0  0  0
 23 25  1  0  0  0  0
 24 26  2  0  0  0  0
 24 58  1  0  0  0  0
 25 27  2  0  0  0  0
 25 59  1  0  0  0  0
 26 27  1  0  0  0  0
 26 60  1  0  0  0  0
 27 61  1  0  0  0  0
M  END
> <PUBCHEM_COMPOUND_CID>
247749

> <PUBCHEM_COMPOUND_CANONICALIZED>
1

> <PUBCHEM_CACTVS_COMPLEXITY>
779

> <PUBCHEM_CACTVS_HBOND_ACCEPTOR>
1

> <PUBCHEM_CACTVS_HBOND_DONOR>
0

> <PUBCHEM_CACTVS_ROTATABLE_BOND>
1

> <PUBCHEM_CACTVS_SUBSKEYS>
AAADcfB4IAAAAAAAAAAAAAAAAAAAAYIAAAAwYIAAAAAAAGDAAAAAGgAAAAAADwSAgAACAAAAAACIAqBSAAAAAAAgAAAICAEAAAgIABIAAQAAAAAAgAAIgAMIiMCPgAAAAAAAAACAAAQAACAAAQAACAAAAA==

> <PUBCHEM_IUPAC_OPENEYE_NAME>
1-[(8S,9S,10R,13S,14S,17S)-3-cyclopenta-2,4-dien-1-ylidene-10,13-dimethyl-1,2,6,7,8,9,11,12,14,15,16,17-dodecahydrocyclopenta[a]phenanthren-17-yl]ethanone

> <PUBCHEM_IUPAC_CAS_NAME>
1-[(8S,9S,10R,13S,14S,17S)-3-(1-cyclopenta-2,4-dienylidene)-10,13-dimethyl-1,2,6,7,8,9,11,12,14,15,16,17-dodecahydrocyclopenta[a]phenanthren-17-yl]ethanone

> <PUBCHEM_IUPAC_NAME>
1-[(8S,9S,10R,13S,14S,17S)-3-cyclopenta-2,4-dien-1-ylidene-10,13-dimethyl-1,2,6,7,8,9,11,12,14,15,16,17-dodecahydrocyclopenta[a]phenanthren-17-yl]ethanone

> <PUBCHEM_IUPAC_SYSTEMATIC_NAME>
1-[(8S,9S,10R,13S,14S,17S)-3-cyclopenta-2,4-dien-1-ylidene-10,13-dimethyl-1,2,6,7,8,9,11,12,14,15,16,17-dodecahydrocyclopenta[a]phenanthren-17-yl]ethanone

> <PUBCHEM_IUPAC_TRADITIONAL_NAME>
1-[(8S,9S,10R,13S,14S,17S)-3-cyclopenta-2,4-dien-1-ylidene-10,13-dimethyl-1,2,6,7,8,9,11,12,14,15,16,17-dodecahydrocyclopenta[a]phenanthren-17-yl]ethanone

> <PUBCHEM_IUPAC_INCHI>
InChI=1S/C26H34O/c1-17(27)22-10-11-23-21-9-8-20-16-19(18-6-4-5-7-18)12-14-25(20,2)24(21)13-15-26(22,23)3/h4-7,16,21-24H,8-15H2,1-3H3/t21-,22+,23-,24-,25-,26+/m0/s1

> <PUBCHEM_IUPAC_INCHIKEY>
GNDKEWBKRBOJSG-FBQZJRKBSA-N

> <PUBCHEM_XLOGP3>
6.1

> <PUBCHEM_EXACT_MASS>
362.260966

> <PUBCHEM_MOLECULAR_FORMULA>
C26H34O

> <PUBCHEM_MOLECULAR_WEIGHT>
362.54756

> <PUBCHEM_OPENEYE_CAN_SMILES>
CC(=O)C1CCC2C1(CCC3C2CCC4=CC(=C5C=CC=C5)CCC34C)C

> <PUBCHEM_OPENEYE_ISO_SMILES>
CC(=O)[C@H]1CC[C@@H]2[C@@]1(CC[C@H]3[C@H]2CCC4=CC(=C5C=CC=C5)CC[C@]34C)C

> <PUBCHEM_CACTVS_TPSA>
17.1

> <PUBCHEM_MONOISOTOPIC_WEIGHT>
362.260966

> <PUBCHEM_TOTAL_CHARGE>
0

> <PUBCHEM_HEAVY_ATOM_COUNT>
27

> <PUBCHEM_ATOM_DEF_STEREO_COUNT>
6

> <PUBCHEM_ATOM_UDEF_STEREO_COUNT>
0

> <PUBCHEM_BOND_DEF_STEREO_COUNT>
0

> <PUBCHEM_BOND_UDEF_STEREO_COUNT>
0

> <PUBCHEM_ISOTOPIC_ATOM_COUNT>
0

> <PUBCHEM_COMPONENT_COUNT>
1

> <PUBCHEM_CACTVS_TAUTO_COUNT>
3

> <PUBCHEM_COORDINATE_TYPE>
1
5
255

> <PUBCHEM_BONDANNOTATIONS>
2  28  6
3  14  5
4  29  5
5  30  6
6  17  5
7  18  5

$$$$

