5281006
  -OEChem-07051212523D

 46 48  0     1  0  0  0  0  0999 V2000
    0.2350   -0.9159    0.9855 S   0  0  0  0  0  0  0  0  0  0  0  0
    1.9019    3.0195   -0.8461 O   0  0  0  0  0  0  0  0  0  0  0  0
   -2.4917    2.2993    1.6224 O   0  0  0  0  0  0  0  0  0  0  0  0
    3.7727    0.4868   -2.1363 O   0  0  0  0  0  0  0  0  0  0  0  0
    5.0935    1.1693   -0.3987 O   0  0  0  0  0  0  0  0  0  0  0  0
   -4.9489   -3.7835   -0.2074 O   0  0  0  0  0  0  0  0  0  0  0  0
    1.9849    0.9590    0.2997 N   0  0  0  0  0  0  0  0  0  0  0  0
   -0.9704    1.7165   -0.0274 N   0  0  0  0  0  0  0  0  0  0  0  0
   -4.4590    2.5432   -0.3017 N   0  0  0  0  0  0  0  0  0  0  0  0
    0.9856    0.6930    1.3190 C   0  0  1  0  0  0  0  0  0  0  0  0
    0.2363    1.9265    0.7707 C   0  0  1  0  0  0  0  0  0  0  0  0
    1.5130    2.1653   -0.0844 C   0  0  0  0  0  0  0  0  0  0  0  0
    3.0030    0.1099   -0.0012 C   0  0  0  0  0  0  0  0  0  0  0  0
    1.8165   -1.8121    1.1662 C   0  0  0  0  0  0  0  0  0  0  0  0
    2.9880   -1.1790    0.4176 C   0  0  0  0  0  0  0  0  0  0  0  0
   -2.2566    1.9245    0.4748 C   0  0  0  0  0  0  0  0  0  0  0  0
    4.0864    0.6547   -0.8375 C   0  0  0  0  0  0  0  0  0  0  0  0
   -3.3494    1.6165   -0.5431 C   0  0  1  0  0  0  0  0  0  0  0  0
    4.0633   -2.1278    0.1954 C   0  0  0  0  0  0  0  0  0  0  0  0
   -3.7784    0.1667   -0.4528 C   0  0  0  0  0  0  0  0  0  0  0  0
    5.3494   -1.7989    0.2942 C   0  0  0  0  0  0  0  0  0  0  0  0
   -3.6492   -0.6450   -1.5653 C   0  0  0  0  0  0  0  0  0  0  0  0
   -4.2903   -0.3114    0.7400 C   0  0  0  0  0  0  0  0  0  0  0  0
    6.4596   -2.7706    0.0631 C   0  0  0  0  0  0  0  0  0  0  0  0
   -4.0452   -1.9800   -1.4821 C   0  0  0  0  0  0  0  0  0  0  0  0
   -4.6862   -1.6463    0.8231 C   0  0  0  0  0  0  0  0  0  0  0  0
   -4.5637   -2.4806   -0.2878 C   0  0  0  0  0  0  0  0  0  0  0  0
    1.3694    0.8238    2.3378 H   0  0  0  0  0  0  0  0  0  0  0  0
    0.1005    2.7178    1.5188 H   0  0  0  0  0  0  0  0  0  0  0  0
   -0.8843    1.3861   -0.9858 H   0  0  0  0  0  0  0  0  0  0  0  0
    1.6280   -2.8273    0.7998 H   0  0  0  0  0  0  0  0  0  0  0  0
    2.0596   -1.8828    2.2326 H   0  0  0  0  0  0  0  0  0  0  0  0
   -2.9605    1.8319   -1.5463 H   0  0  0  0  0  0  0  0  0  0  0  0
    3.7789   -3.1358   -0.0942 H   0  0  0  0  0  0  0  0  0  0  0  0
    5.6713   -0.8286    0.6513 H   0  0  0  0  0  0  0  0  0  0  0  0
   -5.1790    2.4018   -1.0098 H   0  0  0  0  0  0  0  0  0  0  0  0
   -4.1339    3.5022   -0.4225 H   0  0  0  0  0  0  0  0  0  0  0  0
    4.4691    0.8356   -2.7326 H   0  0  0  0  0  0  0  0  0  0  0  0
   -3.2462   -0.2667   -2.5001 H   0  0  0  0  0  0  0  0  0  0  0  0
   -4.3982    0.3237    1.6142 H   0  0  0  0  0  0  0  0  0  0  0  0
    6.0945   -3.7594   -0.2323 H   0  0  0  0  0  0  0  0  0  0  0  0
    7.0520   -2.8849    0.9761 H   0  0  0  0  0  0  0  0  0  0  0  0
    7.1175   -2.4006   -0.7293 H   0  0  0  0  0  0  0  0  0  0  0  0
   -3.9441   -2.6197   -2.3547 H   0  0  0  0  0  0  0  0  0  0  0  0
   -5.0901   -2.0304    1.7559 H   0  0  0  0  0  0  0  0  0  0  0  0
   -4.7938   -4.2117   -1.0669 H   0  0  0  0  0  0  0  0  0  0  0  0
  1 10  1  0  0  0  0
  1 14  1  0  0  0  0
  2 12  2  0  0  0  0
  3 16  2  0  0  0  0
  4 17  1  0  0  0  0
  4 38  1  0  0  0  0
  5 17  2  0  0  0  0
  6 27  1  0  0  0  0
  6 46  1  0  0  0  0
  7 10  1  0  0  0  0
  7 12  1  0  0  0  0
  7 13  1  0  0  0  0
  8 11  1  0  0  0  0
  8 16  1  0  0  0  0
  8 30  1  0  0  0  0
  9 18  1  0  0  0  0
  9 36  1  0  0  0  0
  9 37  1  0  0  0  0
 10 11  1  0  0  0  0
 10 28  1  0  0  0  0
 11 12  1  0  0  0  0
 11 29  1  0  0  0  0
 13 15  2  0  0  0  0
 13 17  1  0  0  0  0
 14 15  1  0  0  0  0
 14 31  1  0  0  0  0
 14 32  1  0  0  0  0
 15 19  1  0  0  0  0
 16 18  1  0  0  0  0
 18 20  1  0  0  0  0
 18 33  1  0  0  0  0
 19 21  2  0  0  0  0
 19 34  1  0  0  0  0
 20 22  2  0  0  0  0
 20 23  1  0  0  0  0
 21 24  1  0  0  0  0
 21 35  1  0  0  0  0
 22 25  1  0  0  0  0
 22 39  1  0  0  0  0
 23 26  2  0  0  0  0
 23 40  1  0  0  0  0
 24 41  1  0  0  0  0
 24 42  1  0  0  0  0
 24 43  1  0  0  0  0
 25 27  2  0  0  0  0
 25 44  1  0  0  0  0
 26 27  1  0  0  0  0
 26 45  1  0  0  0  0
M  END
> <PUBCHEM_COMPOUND_CID>
5281006

> <PUBCHEM_CONFORMER_RMSD>
0.8

> <PUBCHEM_CONFORMER_DIVERSEORDER>
1
23
2
21
24
28
18
3
19
12
26
13
8
9
7
25
4
5
27
15
22
16
6
11
17
14
10
20

> <PUBCHEM_MMFF94_PARTIAL_CHARGES>
38
1 -0.45
10 0.44
11 0.28
12 0.58
13 0.12
14 0.37
15 -0.14
16 0.57
17 0.71
18 0.47
19 -0.15
2 -0.57
20 -0.14
21 -0.29
22 -0.15
23 -0.15
24 0.14
25 -0.15
26 -0.15
27 0.08
3 -0.57
30 0.37
34 0.15
35 0.15
36 0.36
37 0.36
38 0.5
39 0.15
4 -0.65
40 0.15
44 0.15
45 0.15
46 0.45
5 -0.57
6 -0.53
7 -0.39
8 -0.65
9 -0.99

> <PUBCHEM_EFFECTIVE_ROTOR_COUNT>
6.6

> <PUBCHEM_PHARMACOPHORE_FEATURES>
13
1 2 acceptor
1 24 hydrophobe
1 3 acceptor
1 4 acceptor
1 5 acceptor
1 6 donor
1 8 donor
1 9 cation
1 9 donor
3 4 5 17 anion
4 7 10 11 12 rings
6 1 7 10 13 14 15 rings
6 20 22 23 25 26 27 rings

> <PUBCHEM_HEAVY_ATOM_COUNT>
27

> <PUBCHEM_ATOM_DEF_STEREO_COUNT>
3

> <PUBCHEM_ATOM_UDEF_STEREO_COUNT>
0

> <PUBCHEM_BOND_DEF_STEREO_COUNT>
1

> <PUBCHEM_BOND_UDEF_STEREO_COUNT>
0

> <PUBCHEM_ISOTOPIC_ATOM_COUNT>
0

> <PUBCHEM_COMPONENT_COUNT>
1

> <PUBCHEM_CACTVS_TAUTO_COUNT>
4

> <PUBCHEM_CONFORMER_ID>
005094EE00000001

> <PUBCHEM_MMFF94_ENERGY>
79.8132

> <PUBCHEM_FEATURE_SELFOVERLAP>
66.281

> <PUBCHEM_SHAPE_FINGERPRINT>
10928967 22 17969502611206047999
11315621 136 18343019995606001922
11796584 16 18263644133635122188
12633257 1 15358254858741284807
13690498 29 18202002161818330717
13726171 33 17969197006697204264
13782708 43 17751366295258324138
14251751 18 18187368748537329370
14279260 333 18198909291555917450
15484559 13 13745165090231496612
15537594 2 18337662045283762803
17349148 13 18059576931746453920
17492 89 18338240362545928895
17909252 39 18263362490865024282
20775438 99 17470756320033294615
21054139 6 18342456994186533876
21133410 38 15742173240831552291
21709351 56 17917428795557856990
221357 26 18340210687546758715
221490 88 18412265016907998705
22393880 68 18059866107024733713
23379529 103 18334852861415041886
23402539 116 18270118062568631426
235170 7 17345210904218175885
23559900 14 18337122180943717953
249057 3 18269839890269264741
3004659 81 18129664226553771272
329604 57 18411700963179948846
4280585 95 18270975659984053722
439807 62 18342737399653473963
44062 13 18411421747809437421
46194498 28 17273979038811856813
463206 1 18341611576565211528
5104073 3 18040716969687170392
54039377 194 18340195388351179947
633830 44 17060047207213910640
6431902 208 18409454665161529398
7970288 3 17976261240752900543

> <PUBCHEM_SHAPE_MULTIPOLES>
515.21
13.45
3.76
1.33
4.85
0.74
0.25
10.07
2.46
-1.81
0.07
-0.29
-0.07
-1.39

> <PUBCHEM_SHAPE_SELFOVERLAP>
1090.478

> <PUBCHEM_SHAPE_VOLUME>
289.4

> <PUBCHEM_COORDINATE_TYPE>
2
5
10

$$$$

