47204989
  -OEChem-06241222562D

 36 38  0     0  0  0  0  0  0999 V2000
    5.1408    0.2854    0.0000 S   0  0  0  0  0  0  0  0  0  0  0  0
    7.2161    1.9665    0.0000 O   0  0  0  0  0  0  0  0  0  0  0  0
    9.9368   -1.7007    0.0000 O   0  0  0  0  0  0  0  0  0  0  0  0
    7.2247    0.2345    0.0000 N   0  0  0  0  0  0  0  0  0  0  0  0
    2.0000    1.0745    0.0000 C   0  0  0  0  0  0  0  0  0  0  0  0
    2.4294    1.9776    0.0000 C   0  0  0  0  0  0  0  0  0  0  0  0
    2.4384    0.1757    0.0000 C   0  0  0  0  0  0  0  0  0  0  0  0
    3.4032    2.2050    0.0000 C   0  0  0  0  0  0  0  0  0  0  0  0
    3.4144   -0.0420    0.0000 C   0  0  0  0  0  0  0  0  0  0  0  0
    4.1881    1.5854    0.0000 C   0  0  0  0  0  0  0  0  0  0  0  0
    4.1931    0.5854    0.0000 C   0  0  0  0  0  0  0  0  0  0  0  0
    5.1328    1.8949    0.0000 C   0  0  0  0  0  0  0  0  0  0  0  0
    5.7204    1.0930    0.0000 C   0  0  0  0  0  0  0  0  0  0  0  0
    6.7204    1.0980    0.0000 C   0  0  0  0  0  0  0  0  0  0  0  0
    8.2247    0.2395    0.0000 C   0  0  0  0  0  0  0  0  0  0  0  0
    8.7290   -0.6240    0.0000 C   0  0  0  0  0  0  0  0  0  0  0  0
    8.3268   -1.5396    0.0000 C   0  0  0  0  0  0  0  0  0  0  0  0
    9.7241   -0.7236    0.0000 C   0  0  0  0  0  0  0  0  0  0  0  0
    9.0733   -2.2050    0.0000 C   0  0  0  0  0  0  0  0  0  0  0  0
    1.5133    1.4586    0.0000 H   0  0  0  0  0  0  0  0  0  0  0  0
    1.5172    0.6855    0.0000 H   0  0  0  0  0  0  0  0  0  0  0  0
    2.4263    2.5976    0.0000 H   0  0  0  0  0  0  0  0  0  0  0  0
    1.8242    2.1126    0.0000 H   0  0  0  0  0  0  0  0  0  0  0  0
    1.8346    0.0347    0.0000 H   0  0  0  0  0  0  0  0  0  0  0  0
    2.4415   -0.4443    0.0000 H   0  0  0  0  0  0  0  0  0  0  0  0
    3.8860    2.5940    0.0000 H   0  0  0  0  0  0  0  0  0  0  0  0
    3.1314    2.7622    0.0000 H   0  0  0  0  0  0  0  0  0  0  0  0
    3.1482   -0.6019    0.0000 H   0  0  0  0  0  0  0  0  0  0  0  0
    3.9010   -0.4261    0.0000 H   0  0  0  0  0  0  0  0  0  0  0  0
    5.3225    2.4851    0.0000 H   0  0  0  0  0  0  0  0  0  0  0  0
    6.9174   -0.3040    0.0000 H   0  0  0  0  0  0  0  0  0  0  0  0
    8.8063    0.4545    0.0000 H   0  0  0  0  0  0  0  0  0  0  0  0
    8.1140    0.8495    0.0000 H   0  0  0  0  0  0  0  0  0  0  0  0
    7.7210   -1.6715    0.0000 H   0  0  0  0  0  0  0  0  0  0  0  0
   10.1366   -0.2608    0.0000 H   0  0  0  0  0  0  0  0  0  0  0  0
    9.0116   -2.8219    0.0000 H   0  0  0  0  0  0  0  0  0  0  0  0
  1 11  1  0  0  0  0
  1 13  1  0  0  0  0
  2 14  2  0  0  0  0
  3 18  1  0  0  0  0
  3 19  1  0  0  0  0
  4 14  1  0  0  0  0
  4 15  1  0  0  0  0
  4 31  1  0  0  0  0
  5  6  1  0  0  0  0
  5  7  1  0  0  0  0
  5 20  1  0  0  0  0
  5 21  1  0  0  0  0
  6  8  1  0  0  0  0
  6 22  1  0  0  0  0
  6 23  1  0  0  0  0
  7  9  1  0  0  0  0
  7 24  1  0  0  0  0
  7 25  1  0  0  0  0
  8 10  1  0  0  0  0
  8 26  1  0  0  0  0
  8 27  1  0  0  0  0
  9 11  1  0  0  0  0
  9 28  1  0  0  0  0
  9 29  1  0  0  0  0
 10 11  2  0  0  0  0
 10 12  1  0  0  0  0
 12 13  2  0  0  0  0
 12 30  1  0  0  0  0
 13 14  1  0  0  0  0
 15 16  1  0  0  0  0
 15 32  1  0  0  0  0
 15 33  1  0  0  0  0
 16 17  1  0  0  0  0
 16 18  2  0  0  0  0
 17 19  2  0  0  0  0
 17 34  1  0  0  0  0
 18 35  1  0  0  0  0
 19 36  1  0  0  0  0
M  END
> <PUBCHEM_COMPOUND_CID>
47204989

> <PUBCHEM_COMPOUND_CANONICALIZED>
1

> <PUBCHEM_CACTVS_COMPLEXITY>
323

> <PUBCHEM_CACTVS_HBOND_ACCEPTOR>
3

> <PUBCHEM_CACTVS_HBOND_DONOR>
1

> <PUBCHEM_CACTVS_ROTATABLE_BOND>
3

> <PUBCHEM_CACTVS_SUBSKEYS>
AAADceByMABAAAAAAAAAAAAAAAAAASJAAAAAAAAABgAAAACR4AAAHgQQAAAADADh2AYwBYLABEiMAilSkACDCIAkKBBIiJkODMgMJjqktRuGGSjmxhGoqYc8iMCOAAAAAAAAAAAAAAAAAAAAAAAAAAAAAA==

> <PUBCHEM_IUPAC_OPENEYE_NAME>
N-(3-furylmethyl)-5,6,7,8-tetrahydro-4H-cyclohepta[b]thiophene-2-carboxamide

> <PUBCHEM_IUPAC_CAS_NAME>
N-(3-furanylmethyl)-5,6,7,8-tetrahydro-4H-cyclohepta[b]thiophene-2-carboxamide

> <PUBCHEM_IUPAC_NAME>
N-(furan-3-ylmethyl)-5,6,7,8-tetrahydro-4H-cyclohepta[b]thiophene-2-carboxamide

> <PUBCHEM_IUPAC_SYSTEMATIC_NAME>
N-(furan-3-ylmethyl)-5,6,7,8-tetrahydro-4H-cyclohepta[b]thiophene-2-carboxamide

> <PUBCHEM_IUPAC_TRADITIONAL_NAME>
N-(3-furfuryl)-5,6,7,8-tetrahydro-4H-cyclohepta[b]thiophene-2-carboxamide

> <PUBCHEM_IUPAC_INCHI>
InChI=1S/C15H17NO2S/c17-15(16-9-11-6-7-18-10-11)14-8-12-4-2-1-3-5-13(12)19-14/h6-8,10H,1-5,9H2,(H,16,17)

> <PUBCHEM_IUPAC_INCHIKEY>
RXWXSQRMUVERQP-UHFFFAOYSA-N

> <PUBCHEM_XLOGP3_AA>
3.5

> <PUBCHEM_EXACT_MASS>
275.098

> <PUBCHEM_MOLECULAR_FORMULA>
C15H17NO2S

> <PUBCHEM_MOLECULAR_WEIGHT>
275.36598

> <PUBCHEM_OPENEYE_CAN_SMILES>
C1CCC2=C(CC1)SC(=C2)C(=O)NCC3=COC=C3

> <PUBCHEM_OPENEYE_ISO_SMILES>
C1CCC2=C(CC1)SC(=C2)C(=O)NCC3=COC=C3

> <PUBCHEM_CACTVS_TPSA>
70.5

> <PUBCHEM_MONOISOTOPIC_WEIGHT>
275.098

> <PUBCHEM_TOTAL_CHARGE>
0

> <PUBCHEM_HEAVY_ATOM_COUNT>
19

> <PUBCHEM_ATOM_DEF_STEREO_COUNT>
0

> <PUBCHEM_ATOM_UDEF_STEREO_COUNT>
0

> <PUBCHEM_BOND_DEF_STEREO_COUNT>
0

> <PUBCHEM_BOND_UDEF_STEREO_COUNT>
0

> <PUBCHEM_ISOTOPIC_ATOM_COUNT>
0

> <PUBCHEM_COMPONENT_COUNT>
1

> <PUBCHEM_CACTVS_TAUTO_COUNT>
5

> <PUBCHEM_COORDINATE_TYPE>
1
5
255

> <PUBCHEM_BONDANNOTATIONS>
1  11  8
1  13  8
10  11  8
10  12  8
12  13  8
16  17  8
16  18  8
17  19  8
3  18  8
3  19  8

$$$$

