5459866
  -OEChem-07051212482D

 60 63  0     0  0  0  0  0  0999 V2000
    2.8660    4.9400    0.0000 S   0  0  0  0  0  0  0  0  0  0  0  0
   11.5263   -4.0600    0.0000 S   0  0  0  0  0  0  0  0  0  0  0  0
    5.4641    0.4400    0.0000 O   0  0  0  0  0  0  0  0  0  0  0  0
    3.7320    4.4400    0.0000 O   0  0  0  0  0  0  0  0  0  0  0  0
   10.6603   -4.5600    0.0000 O   0  0  0  0  0  0  0  0  0  0  0  0
    2.0000    5.4400    0.0000 O   0  0  0  0  0  0  0  0  0  0  0  0
   12.3923   -3.5600    0.0000 O   0  0  0  0  0  0  0  0  0  0  0  0
    3.3660    5.8060    0.0000 O   0  0  0  0  0  0  0  0  0  0  0  0
    2.3660    4.0740    0.0000 O   0  0  0  0  0  0  0  0  0  0  0  0
   12.0263   -4.9260    0.0000 O   0  0  0  0  0  0  0  0  0  0  0  0
   11.0263   -3.1940    0.0000 O   0  0  0  0  0  0  0  0  0  0  0  0
    4.5981   -1.0600    0.0000 N   0  0  0  0  0  0  0  0  0  0  0  0
    6.3301   -3.0600    0.0000 N   0  0  0  0  0  0  0  0  0  0  0  0
    6.3301   -1.0600    0.0000 N   0  0  0  0  0  0  0  0  0  0  0  0
    4.5981   -3.0600    0.0000 C   0  0  0  0  0  0  0  0  0  0  0  0
    5.4641   -2.5600    0.0000 C   0  0  0  0  0  0  0  0  0  0  0  0
    5.4641   -1.5600    0.0000 C   0  0  0  0  0  0  0  0  0  0  0  0
    4.5981   -4.0600    0.0000 C   0  0  0  0  0  0  0  0  0  0  0  0
    7.1962   -2.5600    0.0000 C   0  0  0  0  0  0  0  0  0  0  0  0
    3.7320    0.4400    0.0000 C   0  0  0  0  0  0  0  0  0  0  0  0
    8.0622   -3.0600    0.0000 C   0  0  0  0  0  0  0  0  0  0  0  0
    3.7320    1.4400    0.0000 C   0  0  0  0  0  0  0  0  0  0  0  0
    4.5981   -0.0600    0.0000 C   0  0  0  0  0  0  0  0  0  0  0  0
    7.1962   -1.5600    0.0000 C   0  0  0  0  0  0  0  0  0  0  0  0
    3.7320   -4.5600    0.0000 C   0  0  0  0  0  0  0  0  0  0  0  0
    5.4641   -4.5600    0.0000 C   0  0  0  0  0  0  0  0  0  0  0  0
    8.0622   -4.0600    0.0000 C   0  0  0  0  0  0  0  0  0  0  0  0
    8.9282   -2.5600    0.0000 C   0  0  0  0  0  0  0  0  0  0  0  0
    4.5981    1.9400    0.0000 C   0  0  0  0  0  0  0  0  0  0  0  0
    2.8660    1.9400    0.0000 C   0  0  0  0  0  0  0  0  0  0  0  0
    3.7320   -5.5600    0.0000 C   0  0  0  0  0  0  0  0  0  0  0  0
    5.4641   -5.5600    0.0000 C   0  0  0  0  0  0  0  0  0  0  0  0
    8.9282   -4.5600    0.0000 C   0  0  0  0  0  0  0  0  0  0  0  0
    9.7942   -3.0600    0.0000 C   0  0  0  0  0  0  0  0  0  0  0  0
    4.5981    2.9400    0.0000 C   0  0  0  0  0  0  0  0  0  0  0  0
    2.8660    2.9400    0.0000 C   0  0  0  0  0  0  0  0  0  0  0  0
    3.7320    3.4400    0.0000 C   0  0  0  0  0  0  0  0  0  0  0  0
    9.7942   -4.0600    0.0000 C   0  0  0  0  0  0  0  0  0  0  0  0
    4.5981   -6.0600    0.0000 C   0  0  0  0  0  0  0  0  0  0  0  0
    4.3860   -2.4774    0.0000 H   0  0  0  0  0  0  0  0  0  0  0  0
    3.9875   -3.1677    0.0000 H   0  0  0  0  0  0  0  0  0  0  0  0
    3.1215    0.5477    0.0000 H   0  0  0  0  0  0  0  0  0  0  0  0
    3.5200   -0.1426    0.0000 H   0  0  0  0  0  0  0  0  0  0  0  0
    4.0611   -1.3700    0.0000 H   0  0  0  0  0  0  0  0  0  0  0  0
    7.7331   -1.2500    0.0000 H   0  0  0  0  0  0  0  0  0  0  0  0
    3.1951   -4.2500    0.0000 H   0  0  0  0  0  0  0  0  0  0  0  0
    6.0010   -4.2500    0.0000 H   0  0  0  0  0  0  0  0  0  0  0  0
    7.5252   -4.3700    0.0000 H   0  0  0  0  0  0  0  0  0  0  0  0
    8.9282   -1.9400    0.0000 H   0  0  0  0  0  0  0  0  0  0  0  0
    5.1350    1.6300    0.0000 H   0  0  0  0  0  0  0  0  0  0  0  0
    2.3291    1.6300    0.0000 H   0  0  0  0  0  0  0  0  0  0  0  0
    3.1951   -5.8700    0.0000 H   0  0  0  0  0  0  0  0  0  0  0  0
    6.0010   -5.8700    0.0000 H   0  0  0  0  0  0  0  0  0  0  0  0
    5.1350    3.2500    0.0000 H   0  0  0  0  0  0  0  0  0  0  0  0
    2.3291    3.2500    0.0000 H   0  0  0  0  0  0  0  0  0  0  0  0
    8.9282   -5.1800    0.0000 H   0  0  0  0  0  0  0  0  0  0  0  0
   10.3312   -2.7500    0.0000 H   0  0  0  0  0  0  0  0  0  0  0  0
    4.5981   -6.6800    0.0000 H   0  0  0  0  0  0  0  0  0  0  0  0
    2.0000    6.0600    0.0000 H   0  0  0  0  0  0  0  0  0  0  0  0
   12.9292   -3.8700    0.0000 H   0  0  0  0  0  0  0  0  0  0  0  0
  1  4  1  0  0  0  0
  1  6  1  0  0  0  0
  1  8  2  0  0  0  0
  1  9  2  0  0  0  0
  2  5  1  0  0  0  0
  2  7  1  0  0  0  0
  2 10  2  0  0  0  0
  2 11  2  0  0  0  0
  3 23  2  0  0  0  0
  4 37  1  0  0  0  0
  5 38  1  0  0  0  0
  6 59  1  0  0  0  0
  7 60  1  0  0  0  0
 12 17  1  0  0  0  0
 12 23  1  0  0  0  0
 12 44  1  0  0  0  0
 13 16  2  0  0  0  0
 13 19  1  0  0  0  0
 14 17  2  0  0  0  0
 14 24  1  0  0  0  0
 15 16  1  0  0  0  0
 15 18  1  0  0  0  0
 15 40  1  0  0  0  0
 15 41  1  0  0  0  0
 16 17  1  0  0  0  0
 18 25  2  0  0  0  0
 18 26  1  0  0  0  0
 19 21  1  0  0  0  0
 19 24  2  0  0  0  0
 20 22  1  0  0  0  0
 20 23  1  0  0  0  0
 20 42  1  0  0  0  0
 20 43  1  0  0  0  0
 21 27  2  0  0  0  0
 21 28  1  0  0  0  0
 22 29  2  0  0  0  0
 22 30  1  0  0  0  0
 24 45  1  0  0  0  0
 25 31  1  0  0  0  0
 25 46  1  0  0  0  0
 26 32  2  0  0  0  0
 26 47  1  0  0  0  0
 27 33  1  0  0  0  0
 27 48  1  0  0  0  0
 28 34  2  0  0  0  0
 28 49  1  0  0  0  0
 29 35  1  0  0  0  0
 29 50  1  0  0  0  0
 30 36  2  0  0  0  0
 30 51  1  0  0  0  0
 31 39  2  0  0  0  0
 31 52  1  0  0  0  0
 32 39  1  0  0  0  0
 32 53  1  0  0  0  0
 33 38  2  0  0  0  0
 33 56  1  0  0  0  0
 34 38  1  0  0  0  0
 34 57  1  0  0  0  0
 35 37  2  0  0  0  0
 35 54  1  0  0  0  0
 36 37  1  0  0  0  0
 36 55  1  0  0  0  0
 39 58  1  0  0  0  0
M  END
> <PUBCHEM_COMPOUND_CID>
5459866

> <PUBCHEM_COMPOUND_CANONICALIZED>
1

> <PUBCHEM_CACTVS_COMPLEXITY>
993

> <PUBCHEM_CACTVS_HBOND_ACCEPTOR>
11

> <PUBCHEM_CACTVS_HBOND_DONOR>
3

> <PUBCHEM_CACTVS_ROTATABLE_BOND>
10

> <PUBCHEM_CACTVS_SUBSKEYS>
AAADceB7PABgAAAAAAAAAAAAAAAAAAAAAAA8YMEAAAAAAAAB1AAAHgAQCAAADAzBngQ9tpLIEICoAzd3dDCCgC0xMiAJ2CE+fJiIZvLAnROUMAhs1RPIyCeY2IOOIAAAAAAAAABAAAAAAAAAAAAAAAAAAA==

> <PUBCHEM_IUPAC_OPENEYE_NAME>
[4-[6-benzyl-5-[[2-(4-sulfooxyphenyl)acetyl]amino]pyrazin-2-yl]phenyl] hydrogen sulfate

> <PUBCHEM_IUPAC_CAS_NAME>
sulfuric acid [4-[2-oxo-2-[[3-(phenylmethyl)-5-(4-sulfooxyphenyl)-2-pyrazinyl]amino]ethyl]phenyl] ester

> <PUBCHEM_IUPAC_NAME>
[4-[6-benzyl-5-[[2-(4-sulfooxyphenyl)acetyl]amino]pyrazin-2-yl]phenyl] hydrogen sulfate

> <PUBCHEM_IUPAC_SYSTEMATIC_NAME>
[4-[2-oxidanylidene-2-[[3-(phenylmethyl)-5-(4-sulfooxyphenyl)pyrazin-2-yl]amino]ethyl]phenyl] hydrogen sulfate

> <PUBCHEM_IUPAC_TRADITIONAL_NAME>
sulfuric acid [4-[6-benzyl-5-[[2-(4-sulfoxyphenyl)acetyl]amino]pyrazin-2-yl]phenyl] ester

> <PUBCHEM_IUPAC_INCHI>
InChI=1S/C25H21N3O9S2/c29-24(15-18-6-10-20(11-7-18)36-38(30,31)32)28-25-22(14-17-4-2-1-3-5-17)27-23(16-26-25)19-8-12-21(13-9-19)37-39(33,34)35/h1-13,16H,14-15H2,(H,26,28,29)(H,30,31,32)(H,33,34,35)

> <PUBCHEM_IUPAC_INCHIKEY>
OIGFBCOUXJVZJQ-UHFFFAOYSA-N

> <PUBCHEM_XLOGP3_AA>
2.6

> <PUBCHEM_EXACT_MASS>
571.071921

> <PUBCHEM_MOLECULAR_FORMULA>
C25H21N3O9S2

> <PUBCHEM_MOLECULAR_WEIGHT>
571.57894

> <PUBCHEM_OPENEYE_CAN_SMILES>
C1=CC=C(C=C1)CC2=NC(=CN=C2NC(=O)CC3=CC=C(C=C3)OS(=O)(=O)O)C4=CC=C(C=C4)OS(=O)(=O)O

> <PUBCHEM_OPENEYE_ISO_SMILES>
C1=CC=C(C=C1)CC2=NC(=CN=C2NC(=O)CC3=CC=C(C=C3)OS(=O)(=O)O)C4=CC=C(C=C4)OS(=O)(=O)O

> <PUBCHEM_CACTVS_TPSA>
199

> <PUBCHEM_MONOISOTOPIC_WEIGHT>
571.071921

> <PUBCHEM_TOTAL_CHARGE>
0

> <PUBCHEM_HEAVY_ATOM_COUNT>
39

> <PUBCHEM_ATOM_DEF_STEREO_COUNT>
0

> <PUBCHEM_ATOM_UDEF_STEREO_COUNT>
0

> <PUBCHEM_BOND_DEF_STEREO_COUNT>
0

> <PUBCHEM_BOND_UDEF_STEREO_COUNT>
0

> <PUBCHEM_ISOTOPIC_ATOM_COUNT>
0

> <PUBCHEM_COMPONENT_COUNT>
1

> <PUBCHEM_CACTVS_TAUTO_COUNT>
5

> <PUBCHEM_COORDINATE_TYPE>
1
5
255

> <PUBCHEM_BONDANNOTATIONS>
13  16  8
13  19  8
14  17  8
14  24  8
16  17  8
18  25  8
18  26  8
19  24  8
21  27  8
21  28  8
22  29  8
22  30  8
25  31  8
26  32  8
27  33  8
28  34  8
29  35  8
30  36  8
31  39  8
32  39  8
33  38  8
34  38  8
35  37  8
36  37  8

$$$$

