5281807
  -OEChem-07051212593D

 50 53  0     1  0  0  0  0  0999 V2000
    3.1727   -0.3865    0.9687 O   0  0  0  0  0  0  0  0  0  0  0  0
    2.5060    0.2490   -2.5840 O   0  0  0  0  0  0  0  0  0  0  0  0
    5.3788   -0.3651   -2.5064 O   0  0  0  0  0  0  0  0  0  0  0  0
    5.9623   -2.2921   -0.4446 O   0  0  0  0  0  0  0  0  0  0  0  0
    3.7630   -1.9467    3.1509 O   0  0  0  0  0  0  0  0  0  0  0  0
   -0.3613   -0.5884   -0.2664 O   0  0  0  0  0  0  0  0  0  0  0  0
    3.1961    2.4894    0.4538 O   0  0  0  0  0  0  0  0  0  0  0  0
   -3.1526    2.2878    0.4984 O   0  0  0  0  0  0  0  0  0  0  0  0
   -8.0757   -1.6488   -0.2159 O   0  0  0  0  0  0  0  0  0  0  0  0
    3.3037    0.1942   -1.4015 C   0  0  2  0  0  0  0  0  0  0  0  0
    4.4005   -0.8574   -1.5887 C   0  0  2  0  0  0  0  0  0  0  0  0
    2.3973   -0.1622   -0.2131 C   0  0  2  0  0  0  0  0  0  0  0  0
    5.1059   -1.1665   -0.2683 C   0  0  1  0  0  0  0  0  0  0  0  0
    4.0884   -1.4740    0.8318 C   0  0  1  0  0  0  0  0  0  0  0  0
    1.4025    0.9406    0.0918 C   0  0  0  0  0  0  0  0  0  0  0  0
    4.7626   -1.6784    2.1846 C   0  0  0  0  0  0  0  0  0  0  0  0
    0.0312    0.6856    0.0546 C   0  0  0  0  0  0  0  0  0  0  0  0
    1.8617    2.2183    0.4116 C   0  0  0  0  0  0  0  0  0  0  0  0
   -0.8773    1.7054    0.3359 C   0  0  0  0  0  0  0  0  0  0  0  0
    0.9525    3.2388    0.6930 C   0  0  0  0  0  0  0  0  0  0  0  0
   -0.4195    2.9864    0.6559 C   0  0  0  0  0  0  0  0  0  0  0  0
   -2.3219    1.4138    0.2867 C   0  0  0  0  0  0  0  0  0  0  0  0
   -2.7038    0.0136   -0.0457 C   0  0  0  0  0  0  0  0  0  0  0  0
   -1.7092   -0.8534   -0.2885 C   0  0  0  0  0  0  0  0  0  0  0  0
   -4.1095   -0.4209   -0.0899 C   0  0  0  0  0  0  0  0  0  0  0  0
   -4.7310   -0.9020    1.0643 C   0  0  0  0  0  0  0  0  0  0  0  0
   -4.8260   -0.3540   -1.2868 C   0  0  0  0  0  0  0  0  0  0  0  0
   -6.0630   -1.3142    1.0219 C   0  0  0  0  0  0  0  0  0  0  0  0
   -6.1580   -0.7661   -1.3291 C   0  0  0  0  0  0  0  0  0  0  0  0
   -6.7765   -1.2463   -0.1748 C   0  0  0  0  0  0  0  0  0  0  0  0
    3.7992    1.1641   -1.3214 H   0  0  0  0  0  0  0  0  0  0  0  0
    3.9913   -1.7726   -2.0342 H   0  0  0  0  0  0  0  0  0  0  0  0
    1.8698   -1.0944   -0.4472 H   0  0  0  0  0  0  0  0  0  0  0  0
    5.7368   -0.3153    0.0157 H   0  0  0  0  0  0  0  0  0  0  0  0
    3.5174   -2.3829    0.5979 H   0  0  0  0  0  0  0  0  0  0  0  0
    5.3023   -0.7804    2.5029 H   0  0  0  0  0  0  0  0  0  0  0  0
    5.4596   -2.5210    2.1669 H   0  0  0  0  0  0  0  0  0  0  0  0
    1.9078    1.0112   -2.5055 H   0  0  0  0  0  0  0  0  0  0  0  0
    4.9160   -0.1463   -3.3334 H   0  0  0  0  0  0  0  0  0  0  0  0
    5.4100   -3.0546   -0.6880 H   0  0  0  0  0  0  0  0  0  0  0  0
    1.3074    4.2353    0.9422 H   0  0  0  0  0  0  0  0  0  0  0  0
   -1.1106    3.7946    0.8777 H   0  0  0  0  0  0  0  0  0  0  0  0
    3.1478   -1.1935    3.1548 H   0  0  0  0  0  0  0  0  0  0  0  0
   -1.8669   -1.8962   -0.5354 H   0  0  0  0  0  0  0  0  0  0  0  0
    3.6758    1.6894    0.7267 H   0  0  0  0  0  0  0  0  0  0  0  0
   -4.1887   -0.9605    2.0050 H   0  0  0  0  0  0  0  0  0  0  0  0
   -4.3584    0.0187   -2.1950 H   0  0  0  0  0  0  0  0  0  0  0  0
   -6.5334   -1.6863    1.9282 H   0  0  0  0  0  0  0  0  0  0  0  0
   -6.7086   -0.7106   -2.2643 H   0  0  0  0  0  0  0  0  0  0  0  0
   -8.3403   -1.9507    0.6700 H   0  0  0  0  0  0  0  0  0  0  0  0
  1 12  1  0  0  0  0
  1 14  1  0  0  0  0
  2 10  1  0  0  0  0
  2 38  1  0  0  0  0
  3 11  1  0  0  0  0
  3 39  1  0  0  0  0
  4 13  1  0  0  0  0
  4 40  1  0  0  0  0
  5 16  1  0  0  0  0
  5 43  1  0  0  0  0
  6 17  1  0  0  0  0
  6 24  1  0  0  0  0
  7 18  1  0  0  0  0
  7 45  1  0  0  0  0
  8 22  2  0  0  0  0
  9 30  1  0  0  0  0
  9 50  1  0  0  0  0
 10 11  1  0  0  0  0
 10 12  1  0  0  0  0
 10 31  1  0  0  0  0
 11 13  1  0  0  0  0
 11 32  1  0  0  0  0
 12 15  1  0  0  0  0
 12 33  1  0  0  0  0
 13 14  1  0  0  0  0
 13 34  1  0  0  0  0
 14 16  1  0  0  0  0
 14 35  1  0  0  0  0
 15 17  1  0  0  0  0
 15 18  2  0  0  0  0
 16 36  1  0  0  0  0
 16 37  1  0  0  0  0
 17 19  2  0  0  0  0
 18 20  1  0  0  0  0
 19 21  1  0  0  0  0
 19 22  1  0  0  0  0
 20 21  2  0  0  0  0
 20 41  1  0  0  0  0
 21 42  1  0  0  0  0
 22 23  1  0  0  0  0
 23 24  2  0  0  0  0
 23 25  1  0  0  0  0
 24 44  1  0  0  0  0
 25 26  2  0  0  0  0
 25 27  1  0  0  0  0
 26 28  1  0  0  0  0
 26 46  1  0  0  0  0
 27 29  2  0  0  0  0
 27 47  1  0  0  0  0
 28 30  2  0  0  0  0
 28 48  1  0  0  0  0
 29 30  1  0  0  0  0
 29 49  1  0  0  0  0
M  END
> <PUBCHEM_COMPOUND_CID>
5281807

> <PUBCHEM_CONFORMER_RMSD>
0.8

> <PUBCHEM_CONFORMER_DIVERSEORDER>
1
4
5
2
10
6
8
7
9
3

> <PUBCHEM_MMFF94_PARTIAL_CHARGES>
43
1 -0.56
10 0.28
11 0.28
12 0.42
13 0.28
14 0.28
15 -0.14
16 0.28
17 0.08
18 0.08
19 0.09
2 -0.68
20 -0.15
21 -0.15
22 0.47
23 -0.01
24 -0.07
25 0.03
26 -0.15
27 -0.15
28 -0.15
29 -0.15
3 -0.68
30 0.08
38 0.4
39 0.4
4 -0.68
40 0.4
41 0.15
42 0.15
43 0.4
44 0.15
45 0.45
46 0.15
47 0.15
48 0.15
49 0.15
5 -0.68
50 0.45
6 -0.16
7 -0.53
8 -0.57
9 -0.53

> <PUBCHEM_EFFECTIVE_ROTOR_COUNT>
4.2

> <PUBCHEM_PHARMACOPHORE_FEATURES>
17
1 1 acceptor
1 2 acceptor
1 2 donor
1 3 acceptor
1 3 donor
1 4 acceptor
1 4 donor
1 5 acceptor
1 5 donor
1 6 acceptor
1 7 donor
1 8 acceptor
1 9 donor
6 1 10 11 12 13 14 rings
6 15 17 18 19 20 21 rings
6 25 26 27 28 29 30 rings
6 6 17 19 22 23 24 rings

> <PUBCHEM_HEAVY_ATOM_COUNT>
30

> <PUBCHEM_ATOM_DEF_STEREO_COUNT>
5

> <PUBCHEM_ATOM_UDEF_STEREO_COUNT>
0

> <PUBCHEM_BOND_DEF_STEREO_COUNT>
0

> <PUBCHEM_BOND_UDEF_STEREO_COUNT>
0

> <PUBCHEM_ISOTOPIC_ATOM_COUNT>
0

> <PUBCHEM_COMPONENT_COUNT>
1

> <PUBCHEM_CACTVS_TAUTO_COUNT>
10

> <PUBCHEM_CONFORMER_ID>
0050980F00000001

> <PUBCHEM_MMFF94_ENERGY>
96.6068

> <PUBCHEM_FEATURE_SELFOVERLAP>
86.307

> <PUBCHEM_SHAPE_FINGERPRINT>
10 15 7132713907896421103
10050765 1 18335137588141399401
10411042 1 18334856142732911728
10622 236 17558000707912652146
10673678 19 17414423988334647252
117089 54 18192137416425213126
11991303 11 17841149171686669397
12166972 35 18202561786997703269
12236239 1 18058440067120478550
12342043 65 17024019544725267534
12422481 6 16950279616065714429
12553582 1 18334295378944075182
12616971 3 17967820397533895247
12788726 201 18341889744627964818
13533116 47 18262239915484310681
13782708 43 18200883873063521967
13862211 1 18334293171789879351
14347332 77 18333726944739539909
14528608 73 13110967500810987111
14705955 166 16443343238359406746
14739800 52 15792581721210223961
15183329 4 16702023105975340575
15348495 7 15068627071782714135
17134984 74 17418089901951123786
17492 89 18120649399764868454
1813 80 18113613491033878181
18222031 100 18187082853732893645
19319366 153 18060703866804614818
1979834 28 16805315583211110461
20028762 73 17894629232482836799
20369508 70 18411142411420426368
21033648 29 16951138385727542603
21267235 1 18334008397776885023
21279426 13 18411427220020096957
21315764 119 16988291953773457415
21344244 78 17603590699148595689
21703447 108 18411146809451808856
21792934 111 16588019118459381523
23522609 53 17974813329662279945
23559900 14 17775003428305612521
27425 322 12823000994175176362
3004659 81 18131070445848749494
312425 54 16153423952708505231
3411729 13 18116440233014619160
397830 11 15285645387059722987
4098825 35 16845296090083100927
439807 62 17917711310344285011
465052 167 18261387828168927431
5104073 3 18260830389202204177
7970288 3 18334857250834916166
8863177 126 18127401264463553635
9841814 1 18336268959603721552

> <PUBCHEM_SHAPE_MULTIPOLES>
564.56
16.49
2.79
1.85
19.09
2.36
-0.09
-14.4
1.69
-1.56
-1.13
-3.03
-1.04
-0.77

> <PUBCHEM_SHAPE_SELFOVERLAP>
1243.63

> <PUBCHEM_SHAPE_VOLUME>
300.9

> <PUBCHEM_COORDINATE_TYPE>
2
5
10

$$$$

