16048618
  -OEChem-07051212503D

 35 35  0     1  0  0  0  0  0999 V2000
    0.5566    0.8018    0.0347 O   0  0  0  0  0  0  0  0  0  0  0  0
   -1.0318   -0.9078    0.0918 O   0  0  0  0  0  0  0  0  0  0  0  0
    3.6263   -1.9576   -0.2660 O   0  0  0  0  0  0  0  0  0  0  0  0
    2.9018    0.4015   -1.5461 O   0  0  0  0  0  0  0  0  0  0  0  0
    1.0253   -2.7679    0.7056 O   0  0  0  0  0  0  0  0  0  0  0  0
    0.9284    3.4859    0.4790 O   0  0  0  0  0  0  0  0  0  0  0  0
   -3.3434   -0.4357   -1.4537 O   0  0  0  0  0  0  0  0  0  0  0  0
   -5.7356    0.0597   -0.1423 O   0  0  0  0  0  0  0  0  0  0  0  0
    2.7027   -1.0717    0.3607 C   0  0  1  0  0  0  0  0  0  0  0  0
    2.9397    0.3610   -0.1182 C   0  0  2  0  0  0  0  0  0  0  0  0
    1.2778   -1.5268    0.0470 C   0  0  2  0  0  0  0  0  0  0  0  0
    1.8462    1.2805    0.4365 C   0  0  1  0  0  0  0  0  0  0  0  0
    0.2590   -0.4981    0.5426 C   0  0  1  0  0  0  0  0  0  0  0  0
    1.9791    2.7115   -0.0711 C   0  0  0  0  0  0  0  0  0  0  0  0
   -2.0372    0.0004    0.5135 C   0  0  0  0  0  0  0  0  0  0  0  0
   -3.3929   -0.4424   -0.0252 C   0  0  1  0  0  0  0  0  0  0  0  0
   -4.5021    0.5058    0.4111 C   0  0  0  0  0  0  0  0  0  0  0  0
    2.8841   -1.1334    1.4410 H   0  0  0  0  0  0  0  0  0  0  0  0
    3.9364    0.7004    0.1828 H   0  0  0  0  0  0  0  0  0  0  0  0
    1.1615   -1.7118   -1.0276 H   0  0  0  0  0  0  0  0  0  0  0  0
    1.8727    1.2919    1.5342 H   0  0  0  0  0  0  0  0  0  0  0  0
    0.2451   -0.4743    1.6408 H   0  0  0  0  0  0  0  0  0  0  0  0
    1.8912    2.7708   -1.1606 H   0  0  0  0  0  0  0  0  0  0  0  0
    2.9336    3.1526    0.2305 H   0  0  0  0  0  0  0  0  0  0  0  0
    3.4292   -2.8557    0.0506 H   0  0  0  0  0  0  0  0  0  0  0  0
    1.9852    0.2503   -1.8319 H   0  0  0  0  0  0  0  0  0  0  0  0
   -2.0624    0.0364    1.6088 H   0  0  0  0  0  0  0  0  0  0  0  0
   -1.8159    1.0026    0.1280 H   0  0  0  0  0  0  0  0  0  0  0  0
    0.1067   -3.0196    0.5094 H   0  0  0  0  0  0  0  0  0  0  0  0
   -3.6109   -1.4733    0.2751 H   0  0  0  0  0  0  0  0  0  0  0  0
    0.0886    3.0763    0.2090 H   0  0  0  0  0  0  0  0  0  0  0  0
   -4.5944    0.5304    1.5013 H   0  0  0  0  0  0  0  0  0  0  0  0
   -4.3216    1.5195    0.0383 H   0  0  0  0  0  0  0  0  0  0  0  0
   -4.2188   -0.7099   -1.7767 H   0  0  0  0  0  0  0  0  0  0  0  0
   -6.4215    0.6827    0.1524 H   0  0  0  0  0  0  0  0  0  0  0  0
  1 12  1  0  0  0  0
  1 13  1  0  0  0  0
  2 13  1  0  0  0  0
  2 15  1  0  0  0  0
  3  9  1  0  0  0  0
  3 25  1  0  0  0  0
  4 10  1  0  0  0  0
  4 26  1  0  0  0  0
  5 11  1  0  0  0  0
  5 29  1  0  0  0  0
  6 14  1  0  0  0  0
  6 31  1  0  0  0  0
  7 16  1  0  0  0  0
  7 34  1  0  0  0  0
  8 17  1  0  0  0  0
  8 35  1  0  0  0  0
  9 10  1  0  0  0  0
  9 11  1  0  0  0  0
  9 18  1  0  0  0  0
 10 12  1  0  0  0  0
 10 19  1  0  0  0  0
 11 13  1  0  0  0  0
 11 20  1  0  0  0  0
 12 14  1  0  0  0  0
 12 21  1  0  0  0  0
 13 22  1  0  0  0  0
 14 23  1  0  0  0  0
 14 24  1  0  0  0  0
 15 16  1  0  0  0  0
 15 27  1  0  0  0  0
 15 28  1  0  0  0  0
 16 17  1  0  0  0  0
 16 30  1  0  0  0  0
 17 32  1  0  0  0  0
 17 33  1  0  0  0  0
M  END
> <PUBCHEM_COMPOUND_CID>
16048618

> <PUBCHEM_CONFORMER_RMSD>
0.8

> <PUBCHEM_CONFORMER_DIVERSEORDER>
1
26
29
27
23
7
21
14
18
17
25
13
19
31
3
10
11
20
15
8
30
28
32
4
12
22
6
2
24
9
5
16
33

> <PUBCHEM_MMFF94_PARTIAL_CHARGES>
23
1 -0.56
10 0.28
11 0.28
12 0.28
13 0.56
14 0.28
15 0.28
16 0.28
17 0.28
2 -0.56
25 0.4
26 0.4
29 0.4
3 -0.68
31 0.4
34 0.4
35 0.4
4 -0.68
5 -0.68
6 -0.68
7 -0.68
8 -0.68
9 0.28

> <PUBCHEM_EFFECTIVE_ROTOR_COUNT>
6.2

> <PUBCHEM_PHARMACOPHORE_FEATURES>
15
1 1 acceptor
1 2 acceptor
1 3 acceptor
1 3 donor
1 4 acceptor
1 4 donor
1 5 acceptor
1 5 donor
1 6 acceptor
1 6 donor
1 7 acceptor
1 7 donor
1 8 acceptor
1 8 donor
6 1 9 10 11 12 13 rings

> <PUBCHEM_HEAVY_ATOM_COUNT>
17

> <PUBCHEM_ATOM_DEF_STEREO_COUNT>
6

> <PUBCHEM_ATOM_UDEF_STEREO_COUNT>
0

> <PUBCHEM_BOND_DEF_STEREO_COUNT>
0

> <PUBCHEM_BOND_UDEF_STEREO_COUNT>
0

> <PUBCHEM_ISOTOPIC_ATOM_COUNT>
0

> <PUBCHEM_COMPONENT_COUNT>
1

> <PUBCHEM_CACTVS_TAUTO_COUNT>
1

> <PUBCHEM_CONFORMER_ID>
00F4E1EA00000001

> <PUBCHEM_MMFF94_ENERGY>
42.5816

> <PUBCHEM_FEATURE_SELFOVERLAP>
76.197

> <PUBCHEM_SHAPE_FINGERPRINT>
11471102 20 18412545422585500019
116883 192 17974563907851386630
12730499 353 18272079462553339827
13134695 92 18411425033258783348
13380536 305 18339077095099722704
13464514 151 18192987119959023460
14178000 15 18337109072428691224
14251717 144 18411701001823981643
16945 1 18265883688639529874
17834072 33 18408889504291337831
18186145 218 18337112272152855469
20233049 118 18273214188428142788
20606313 2 18411136943921757922
20645477 70 18408322207213990391
212847 35 18273212010684453893
21478907 32 17834393797614042202
21639500 275 18339371759794457333
221357 26 18341055215693126181
221490 88 18340198579743814139
22289505 5 18199195155824673773
2255824 54 18336265660746701185
22854114 111 18411139117306968043
22892500 29 18413392016447710357
23402655 69 18408040727978819853
23558518 356 17697039132722128738
23598291 2 17970892569907012329
25 1 18341328877765304116
2748010 2 17690547599339892392
3060560 45 18333166167701908502
474 4 18338520716509938257
522135 26 18412261748659412715
633830 44 18335417911912932525
7364860 26 18409168783605973192
7832392 63 18262241010442300222
81228 2 16543019692724737739
84936 182 17970351403827899585
9971528 1 18260835920702732162
9981440 41 17613732413756183656

> <PUBCHEM_SHAPE_MULTIPOLES>
302.9
8.05
2.71
0.9
13.14
1.58
0.27
-0.35
1.21
-3.07
-0.49
0
-0.03
-0.2

> <PUBCHEM_SHAPE_SELFOVERLAP>
599.495

> <PUBCHEM_SHAPE_VOLUME>
177.4

> <PUBCHEM_COORDINATE_TYPE>
2
5
10

$$$$

