5485
  -OEChem-06261200422D

 46 49  0     1  0  0  0  0  0999 V2000
    5.2577   -1.3357    0.0000 S   0  0  0  0  0  0  0  0  0  0  0  0
    2.6691    0.3454    0.0000 S   0  0  0  0  0  0  0  0  0  0  0  0
    7.0468    0.7521    0.0000 N   0  3  3  0  0  0  0  0  0  0  0  0
    7.0468    1.7521    0.0000 C   0  0  3  0  0  0  0  0  0  0  0  0
    7.9407    0.2174    0.0000 C   0  0  0  0  0  0  0  0  0  0  0  0
    6.1808    0.2521    0.0000 C   0  0  0  0  0  0  0  0  0  0  0  0
    7.9407    2.2868    0.0000 C   0  0  0  0  0  0  0  0  0  0  0  0
    6.1808    2.2521    0.0000 C   0  0  0  0  0  0  0  0  0  0  0  0
    8.8468    0.7313    0.0000 C   0  0  0  0  0  0  0  0  0  0  0  0
    8.8468    1.7729    0.0000 C   0  0  0  0  0  0  0  0  0  0  0  0
    5.3147    1.7521    0.0000 C   0  0  0  0  0  0  0  0  0  0  0  0
    7.0468   -0.2479    0.0000 C   0  0  0  0  0  0  0  0  0  0  0  0
    5.3147    0.7521    0.0000 C   0  0  0  0  0  0  0  0  0  0  0  0
    4.4487    0.2521    0.0000 C   0  0  0  0  0  0  0  0  0  0  0  0
    3.5827    0.7521    0.0000 C   0  0  0  0  0  0  0  0  0  0  0  0
    4.4487   -0.7479    0.0000 C   0  0  0  0  0  0  0  0  0  0  0  0
    3.6397   -1.3357    0.0000 C   0  0  0  0  0  0  0  0  0  0  0  0
    3.4782    1.7466    0.0000 C   0  0  0  0  0  0  0  0  0  0  0  0
    3.9487   -2.2868    0.0000 C   0  0  0  0  0  0  0  0  0  0  0  0
    2.5000    1.9545    0.0000 C   0  0  0  0  0  0  0  0  0  0  0  0
    4.9487   -2.2868    0.0000 C   0  0  0  0  0  0  0  0  0  0  0  0
    2.0000    1.0885    0.0000 C   0  0  0  0  0  0  0  0  0  0  0  0
    7.0420    2.3721    0.0000 H   0  0  0  0  0  0  0  0  0  0  0  0
    7.5361   -0.2524    0.0000 H   0  0  0  0  0  0  0  0  0  0  0  0
    8.3343   -0.2616    0.0000 H   0  0  0  0  0  0  0  0  0  0  0  0
    5.7822   -0.2229    0.0000 H   0  0  0  0  0  0  0  0  0  0  0  0
    6.5793   -0.2229    0.0000 H   0  0  0  0  0  0  0  0  0  0  0  0
    8.3343    2.7658    0.0000 H   0  0  0  0  0  0  0  0  0  0  0  0
    7.5361    2.7565    0.0000 H   0  0  0  0  0  0  0  0  0  0  0  0
    6.5793    2.7270    0.0000 H   0  0  0  0  0  0  0  0  0  0  0  0
    5.7822    2.7270    0.0000 H   0  0  0  0  0  0  0  0  0  0  0  0
    9.0558    0.1476    0.0000 H   0  0  0  0  0  0  0  0  0  0  0  0
    9.4576    0.8374    0.0000 H   0  0  0  0  0  0  0  0  0  0  0  0
    9.4576    1.6668    0.0000 H   0  0  0  0  0  0  0  0  0  0  0  0
    9.0558    2.3566    0.0000 H   0  0  0  0  0  0  0  0  0  0  0  0
    5.1027    2.3347    0.0000 H   0  0  0  0  0  0  0  0  0  0  0  0
    4.7042    1.6444    0.0000 H   0  0  0  0  0  0  0  0  0  0  0  0
    6.4268   -0.2479    0.0000 H   0  0  0  0  0  0  0  0  0  0  0  0
    7.0468   -0.8679    0.0000 H   0  0  0  0  0  0  0  0  0  0  0  0
    7.6668   -0.2479    0.0000 H   0  0  0  0  0  0  0  0  0  0  0  0
    3.0500   -1.1441    0.0000 H   0  0  0  0  0  0  0  0  0  0  0  0
    3.9389    2.1615    0.0000 H   0  0  0  0  0  0  0  0  0  0  0  0
    2.2478    2.5209    0.0000 H   0  0  0  0  0  0  0  0  0  0  0  0
    3.5843   -2.7883    0.0000 H   0  0  0  0  0  0  0  0  0  0  0  0
    5.3131   -2.7883    0.0000 H   0  0  0  0  0  0  0  0  0  0  0  0
    1.3834    1.0237    0.0000 H   0  0  0  0  0  0  0  0  0  0  0  0
  1 16  1  0  0  0  0
  1 21  1  0  0  0  0
  2 15  1  0  0  0  0
  2 22  1  0  0  0  0
  3  4  1  0  0  0  0
  3  5  1  0  0  0  0
  3  6  1  0  0  0  0
  3 12  1  0  0  0  0
  4  7  1  0  0  0  0
  4  8  1  0  0  0  0
  4 23  1  0  0  0  0
  5  9  1  0  0  0  0
  5 24  1  0  0  0  0
  5 25  1  0  0  0  0
  6 13  1  0  0  0  0
  6 26  1  0  0  0  0
  6 27  1  0  0  0  0
  7 10  1  0  0  0  0
  7 28  1  0  0  0  0
  7 29  1  0  0  0  0
  8 11  1  0  0  0  0
  8 30  1  0  0  0  0
  8 31  1  0  0  0  0
  9 10  1  0  0  0  0
  9 32  1  0  0  0  0
  9 33  1  0  0  0  0
 10 34  1  0  0  0  0
 10 35  1  0  0  0  0
 11 13  1  0  0  0  0
 11 36  1  0  0  0  0
 11 37  1  0  0  0  0
 12 38  1  0  0  0  0
 12 39  1  0  0  0  0
 12 40  1  0  0  0  0
 13 14  2  0  0  0  0
 14 15  1  0  0  0  0
 14 16  1  0  0  0  0
 15 18  2  0  0  0  0
 16 17  2  0  0  0  0
 17 19  1  0  0  0  0
 17 41  1  0  0  0  0
 18 20  1  0  0  0  0
 18 42  1  0  0  0  0
 19 21  2  0  0  0  0
 19 44  1  0  0  0  0
 20 22  2  0  0  0  0
 20 43  1  0  0  0  0
 21 45  1  0  0  0  0
 22 46  1  0  0  0  0
M  CHG  1   3   1
M  END
> <PUBCHEM_COMPOUND_CID>
5485

> <PUBCHEM_COMPOUND_CANONICALIZED>
1

> <PUBCHEM_CACTVS_COMPLEXITY>
429

> <PUBCHEM_CACTVS_HBOND_ACCEPTOR>
2

> <PUBCHEM_CACTVS_HBOND_DONOR>
0

> <PUBCHEM_CACTVS_ROTATABLE_BOND>
2

> <PUBCHEM_CACTVS_SUBSKEYS>
AAADceB6AABgAAAAAAAAAAAAAAAAASJAAAAsWAAAAAAAAACx4AAAHAQAAAAADCjFUASyAYMAAAiEAiBCAACDAIAgCBBIiBgIAIgIICKgkRCEIAAggACoiAcQgIAAAAAAAAAAAAAAAAAAAAAAAAAAAAAAAA==

> <PUBCHEM_IUPAC_OPENEYE_NAME>
7-[bis(2-thienyl)methylene]-5-methyl-1,2,3,4,6,8,9,9a-octahydroquinolizin-5-ium

> <PUBCHEM_IUPAC_CAS_NAME>
7-(dithiophen-2-ylmethylidene)-5-methyl-1,2,3,4,6,8,9,9a-octahydroquinolizin-5-ium

> <PUBCHEM_IUPAC_NAME>
7-(dithiophen-2-ylmethylidene)-5-methyl-1,2,3,4,6,8,9,9a-octahydroquinolizin-5-ium

> <PUBCHEM_IUPAC_SYSTEMATIC_NAME>
7-(dithiophen-2-ylmethylidene)-5-methyl-1,2,3,4,6,8,9,9a-octahydroquinolizin-5-ium

> <PUBCHEM_IUPAC_TRADITIONAL_NAME>
3-[bis(2-thienyl)methylene]-5-methyl-quinolizidin-5-ium

> <PUBCHEM_IUPAC_INCHI>
InChI=1S/C19H24NS2/c1-20-11-3-2-6-16(20)10-9-15(14-20)19(17-7-4-12-21-17)18-8-5-13-22-18/h4-5,7-8,12-13,16H,2-3,6,9-11,14H2,1H3/q+1

> <PUBCHEM_IUPAC_INCHIKEY>
ZGSDGGRVFIYKKE-UHFFFAOYSA-N

> <PUBCHEM_XLOGP3_AA>
4.7

> <PUBCHEM_EXACT_MASS>
330.135017

> <PUBCHEM_MOLECULAR_FORMULA>
C19H24NS2+

> <PUBCHEM_MOLECULAR_WEIGHT>
330.53056

> <PUBCHEM_OPENEYE_CAN_SMILES>
C[N+]12CCCCC1CCC(=C(C3=CC=CS3)C4=CC=CS4)C2

> <PUBCHEM_OPENEYE_ISO_SMILES>
C[N+]12CCCCC1CCC(=C(C3=CC=CS3)C4=CC=CS4)C2

> <PUBCHEM_CACTVS_TPSA>
56.5

> <PUBCHEM_MONOISOTOPIC_WEIGHT>
330.135017

> <PUBCHEM_TOTAL_CHARGE>
1

> <PUBCHEM_HEAVY_ATOM_COUNT>
22

> <PUBCHEM_ATOM_DEF_STEREO_COUNT>
0

> <PUBCHEM_ATOM_UDEF_STEREO_COUNT>
2

> <PUBCHEM_BOND_DEF_STEREO_COUNT>
0

> <PUBCHEM_BOND_UDEF_STEREO_COUNT>
0

> <PUBCHEM_ISOTOPIC_ATOM_COUNT>
0

> <PUBCHEM_COMPONENT_COUNT>
1

> <PUBCHEM_CACTVS_TAUTO_COUNT>
1

> <PUBCHEM_COORDINATE_TYPE>
1
5
255

> <PUBCHEM_BONDANNOTATIONS>
1  16  8
1  21  8
15  18  8
16  17  8
17  19  8
18  20  8
19  21  8
2  15  8
2  22  8
20  22  8
3  12  3
4  7  3

$$$$

