14105084
  -OEChem-07051213152D

 72 73  0     1  0  0  0  0  0999 V2000
    8.2560   -1.5950    0.0000 O   0  0  0  0  0  0  0  0  0  0  0  0
   10.8541   -2.0950    0.0000 O   0  0  0  0  0  0  0  0  0  0  0  0
   10.8541   -0.0950    0.0000 O   0  0  0  0  0  0  0  0  0  0  0  0
    8.2560   -3.5950    0.0000 O   0  0  0  0  0  0  0  0  0  0  0  0
    3.5400    0.0867    0.0000 O   0  0  0  0  0  0  0  0  0  0  0  0
   10.8541    0.9050    0.0000 O   0  0  0  0  0  0  0  0  0  0  0  0
    5.6223   -3.5200    0.0000 O   0  0  0  0  0  0  0  0  0  0  0  0
    4.0400   -2.8155    0.0000 O   0  0  0  0  0  0  0  0  0  0  0  0
    9.9880   -3.5950    0.0000 O   0  0  0  0  0  0  0  0  0  0  0  0
    7.3900   -0.0950    0.0000 N   0  0  0  0  0  0  0  0  0  0  0  0
    9.1220    0.9050    0.0000 N   0  0  0  0  0  0  0  0  0  0  0  0
    5.6104   -0.1883    0.0000 N   0  0  0  0  0  0  0  0  0  0  0  0
    6.4194   -1.5895    0.0000 N   0  0  0  0  0  0  0  0  0  0  0  0
   10.8541    3.9050    0.0000 N   0  0  0  0  0  0  0  0  0  0  0  0
    2.3644   -1.5314    0.0000 N   0  0  0  0  0  0  0  0  0  0  0  0
   11.7201   -3.5950    0.0000 N   0  0  0  0  0  0  0  0  0  0  0  0
   14.3182    2.9050    0.0000 N   0  0  0  0  0  0  0  0  0  0  0  0
    9.1220   -0.0950    0.0000 C   0  0  2  0  0  0  0  0  0  0  0  0
    9.9880   -0.5950    0.0000 C   0  0  1  0  0  0  0  0  0  0  0  0
    8.2560   -0.5950    0.0000 C   0  0  1  0  0  0  0  0  0  0  0  0
    9.9880   -1.5950    0.0000 C   0  0  2  0  0  0  0  0  0  0  0  0
    9.1220   -2.0950    0.0000 C   0  0  1  0  0  0  0  0  0  0  0  0
    9.1220   -3.0950    0.0000 C   0  0  0  0  0  0  0  0  0  0  0  0
    4.9413   -0.9314    0.0000 C   0  0  1  0  0  0  0  0  0  0  0  0
    6.5239   -0.5950    0.0000 C   0  0  0  0  0  0  0  0  0  0  0  0
    5.4413   -1.7974    0.0000 C   0  0  1  0  0  0  0  0  0  0  0  0
    3.9467   -0.8269    0.0000 C   0  0  1  0  0  0  0  0  0  0  0  0
    9.9880    1.4050    0.0000 C   0  0  0  0  0  0  0  0  0  0  0  0
    9.9880    2.4050    0.0000 C   0  0  0  0  0  0  0  0  0  0  0  0
   10.8541    2.9050    0.0000 C   0  0  2  0  0  0  0  0  0  0  0  0
    3.3590   -1.6359    0.0000 C   0  0  0  0  0  0  0  0  0  0  0  0
    5.0345   -2.7110    0.0000 C   0  0  0  0  0  0  0  0  0  0  0  0
   10.8541   -3.0950    0.0000 C   0  0  0  0  0  0  0  0  0  0  0  0
   11.7201    2.4050    0.0000 C   0  0  0  0  0  0  0  0  0  0  0  0
   12.5861    2.9050    0.0000 C   0  0  0  0  0  0  0  0  0  0  0  0
   13.4521    2.4050    0.0000 C   0  0  0  0  0  0  0  0  0  0  0  0
    9.6589    0.2150    0.0000 H   0  0  0  0  0  0  0  0  0  0  0  0
    9.9880    0.0250    0.0000 H   0  0  0  0  0  0  0  0  0  0  0  0
    7.7190   -0.9050    0.0000 H   0  0  0  0  0  0  0  0  0  0  0  0
    9.9880   -2.2150    0.0000 H   0  0  0  0  0  0  0  0  0  0  0  0
    8.5851   -2.4050    0.0000 H   0  0  0  0  0  0  0  0  0  0  0  0
    7.3900    0.5250    0.0000 H   0  0  0  0  0  0  0  0  0  0  0  0
    8.5851    1.2150    0.0000 H   0  0  0  0  0  0  0  0  0  0  0  0
    4.6366   -0.1379    0.0000 H   0  0  0  0  0  0  0  0  0  0  0  0
    9.3341   -3.6776    0.0000 H   0  0  0  0  0  0  0  0  0  0  0  0
    9.7326   -2.9873    0.0000 H   0  0  0  0  0  0  0  0  0  0  0  0
    5.8314   -2.2793    0.0000 H   0  0  0  0  0  0  0  0  0  0  0  0
    5.4815    0.4182    0.0000 H   0  0  0  0  0  0  0  0  0  0  0  0
   11.3910   -0.4050    0.0000 H   0  0  0  0  0  0  0  0  0  0  0  0
    3.3301   -0.7621    0.0000 H   0  0  0  0  0  0  0  0  0  0  0  0
    9.7760    2.9876    0.0000 H   0  0  0  0  0  0  0  0  0  0  0  0
    9.3774    2.2973    0.0000 H   0  0  0  0  0  0  0  0  0  0  0  0
   11.3910    3.2150    0.0000 H   0  0  0  0  0  0  0  0  0  0  0  0
    3.1880   -2.2319    0.0000 H   0  0  0  0  0  0  0  0  0  0  0  0
    3.9162   -1.9077    0.0000 H   0  0  0  0  0  0  0  0  0  0  0  0
    8.2560   -4.2150    0.0000 H   0  0  0  0  0  0  0  0  0  0  0  0
   11.3216    1.9300    0.0000 H   0  0  0  0  0  0  0  0  0  0  0  0
   12.1186    1.9300    0.0000 H   0  0  0  0  0  0  0  0  0  0  0  0
    2.9234    0.1515    0.0000 H   0  0  0  0  0  0  0  0  0  0  0  0
   12.9846    3.3800    0.0000 H   0  0  0  0  0  0  0  0  0  0  0  0
   12.1876    3.3800    0.0000 H   0  0  0  0  0  0  0  0  0  0  0  0
   11.3910    4.2150    0.0000 H   0  0  0  0  0  0  0  0  0  0  0  0
   10.3171    4.2150    0.0000 H   0  0  0  0  0  0  0  0  0  0  0  0
    2.0000   -2.0330    0.0000 H   0  0  0  0  0  0  0  0  0  0  0  0
    2.1122   -0.9650    0.0000 H   0  0  0  0  0  0  0  0  0  0  0  0
   11.7201   -4.2150    0.0000 H   0  0  0  0  0  0  0  0  0  0  0  0
   12.2570   -3.2850    0.0000 H   0  0  0  0  0  0  0  0  0  0  0  0
   13.0536    1.9300    0.0000 H   0  0  0  0  0  0  0  0  0  0  0  0
   13.8507    1.9300    0.0000 H   0  0  0  0  0  0  0  0  0  0  0  0
    5.3701   -4.0864    0.0000 H   0  0  0  0  0  0  0  0  0  0  0  0
   14.8551    2.5950    0.0000 H   0  0  0  0  0  0  0  0  0  0  0  0
   14.3182    3.5250    0.0000 H   0  0  0  0  0  0  0  0  0  0  0  0
  1 20  1  0  0  0  0
  1 22  1  0  0  0  0
 21  2  1  1  0  0  0
  2 33  1  0  0  0  0
 19  3  1  6  0  0  0
  3 49  1  0  0  0  0
  4 23  1  0  0  0  0
  4 56  1  0  0  0  0
 27  5  1  1  0  0  0
  5 59  1  0  0  0  0
  6 28  2  0  0  0  0
  7 32  1  0  0  0  0
  7 70  1  0  0  0  0
  8 32  2  0  0  0  0
  9 33  2  0  0  0  0
 20 10  1  1  0  0  0
 10 25  1  0  0  0  0
 10 42  1  0  0  0  0
 18 11  1  6  0  0  0
 11 28  1  0  0  0  0
 11 43  1  0  0  0  0
 12 24  1  0  0  0  0
 12 25  1  0  0  0  0
 12 48  1  0  0  0  0
 13 25  2  0  0  0  0
 13 26  1  0  0  0  0
 30 14  1  1  0  0  0
 14 62  1  0  0  0  0
 14 63  1  0  0  0  0
 15 31  1  0  0  0  0
 15 64  1  0  0  0  0
 15 65  1  0  0  0  0
 16 33  1  0  0  0  0
 16 66  1  0  0  0  0
 16 67  1  0  0  0  0
 17 36  1  0  0  0  0
 17 71  1  0  0  0  0
 17 72  1  0  0  0  0
 18 19  1  0  0  0  0
 18 20  1  0  0  0  0
 18 37  1  0  0  0  0
 19 21  1  0  0  0  0
 19 38  1  0  0  0  0
 20 39  1  0  0  0  0
 21 22  1  0  0  0  0
 21 40  1  0  0  0  0
 22 23  1  1  0  0  0
 22 41  1  0  0  0  0
 23 45  1  0  0  0  0
 23 46  1  0  0  0  0
 24 26  1  0  0  0  0
 24 27  1  0  0  0  0
 24 44  1  6  0  0  0
 26 32  1  6  0  0  0
 26 47  1  0  0  0  0
 27 31  1  0  0  0  0
 27 50  1  0  0  0  0
 28 29  1  0  0  0  0
 29 30  1  0  0  0  0
 29 51  1  0  0  0  0
 29 52  1  0  0  0  0
 30 34  1  0  0  0  0
 30 53  1  0  0  0  0
 31 54  1  0  0  0  0
 31 55  1  0  0  0  0
 34 35  1  0  0  0  0
 34 57  1  0  0  0  0
 34 58  1  0  0  0  0
 35 36  1  0  0  0  0
 35 60  1  0  0  0  0
 35 61  1  0  0  0  0
 36 68  1  0  0  0  0
 36 69  1  0  0  0  0
M  END
> <PUBCHEM_COMPOUND_CID>
14105084

> <PUBCHEM_COMPOUND_CANONICALIZED>
1

> <PUBCHEM_CACTVS_COMPLEXITY>
803

> <PUBCHEM_CACTVS_HBOND_ACCEPTOR>
13

> <PUBCHEM_CACTVS_HBOND_DONOR>
11

> <PUBCHEM_CACTVS_ROTATABLE_BOND>
14

> <PUBCHEM_CACTVS_SUBSKEYS>
AAADcfB7/AAAAAAAAAAAAAAAAAAAAQAAAAAkAAAAAAAAAAAAAAAAHgAQCAAACDzhgAYBCALABgAoAAGQPAAAAAEAAAABAIGIAAGDUBoAyAAfQAAPFgKTAAH6WQMAAAAAAAAAAAAAAAAAAAAAAAAAAAAAAA==

> <PUBCHEM_IUPAC_OPENEYE_NAME>
(4S,5S)-5-[(1R)-2-amino-1-hydroxy-ethyl]-2-[[(2R,3R,4S,5R,6R)-5-carbamoyloxy-3-[[(3S)-3,6-diaminohexanoyl]amino]-4-hydroxy-6-(hydroxymethyl)tetrahydropyran-2-yl]amino]-4,5-dihydro-1H-imidazole-4-carboxylic acid

> <PUBCHEM_IUPAC_CAS_NAME>
(4S,5S)-5-[(1R)-2-amino-1-hydroxyethyl]-2-[[(2R,3R,4S,5R,6R)-5-carbamoyloxy-3-[[(3S)-3,6-diamino-1-oxohexyl]amino]-4-hydroxy-6-(hydroxymethyl)-2-oxanyl]amino]-4,5-dihydro-1H-imidazole-4-carboxylic acid

> <PUBCHEM_IUPAC_NAME>
(4S,5S)-5-[(1R)-2-amino-1-hydroxyethyl]-2-[[(2R,3R,4S,5R,6R)-5-carbamoyloxy-3-[[(3S)-3,6-diaminohexanoyl]amino]-4-hydroxy-6-(hydroxymethyl)oxan-2-yl]amino]-4,5-dihydro-1H-imidazole-4-carboxylic acid

> <PUBCHEM_IUPAC_SYSTEMATIC_NAME>
(4S,5S)-2-[[(2R,3R,4S,5R,6R)-5-aminocarbonyloxy-3-[[(3S)-3,6-bis(azanyl)hexanoyl]amino]-6-(hydroxymethyl)-4-oxidanyl-oxan-2-yl]amino]-5-[(1R)-2-azanyl-1-oxidanyl-ethyl]-4,5-dihydro-1H-imidazole-4-carboxylic acid

> <PUBCHEM_IUPAC_TRADITIONAL_NAME>
(4S,5S)-5-[(1R)-2-amino-1-hydroxy-ethyl]-2-[[(2R,3R,4S,5R,6R)-5-carbamoyloxy-3-[[(3S)-3,6-diaminohexanoyl]amino]-4-hydroxy-6-methylol-tetrahydropyran-2-yl]amino]-2-imidazoline-4-carboxylic acid

> <PUBCHEM_IUPAC_INCHI>
InChI=1S/C19H36N8O9/c20-3-1-2-7(22)4-10(30)24-13-14(31)15(36-18(23)34)9(6-28)35-16(13)27-19-25-11(8(29)5-21)12(26-19)17(32)33/h7-9,11-16,28-29,31H,1-6,20-22H2,(H2,23,34)(H,24,30)(H,32,33)(H2,25,26,27)/t7-,8+,9+,11+,12-,13+,14-,15-,16+/m0/s1

> <PUBCHEM_IUPAC_INCHIKEY>
AJUBASUIRHJEOK-AQLSXGMYSA-N

> <PUBCHEM_XLOGP3_AA>
-8.2

> <PUBCHEM_EXACT_MASS>
520.260525

> <PUBCHEM_MOLECULAR_FORMULA>
C19H36N8O9

> <PUBCHEM_MOLECULAR_WEIGHT>
520.53734

> <PUBCHEM_OPENEYE_CAN_SMILES>
C(CC(CC(=O)NC1C(C(C(OC1NC2=NC(C(N2)C(CN)O)C(=O)O)CO)OC(=O)N)O)N)CN

> <PUBCHEM_OPENEYE_ISO_SMILES>
C(C[C@@H](CC(=O)N[C@@H]1[C@@H]([C@H]([C@H](O[C@H]1NC2=N[C@@H]([C@H](N2)[C@@H](CN)O)C(=O)O)CO)OC(=O)N)O)N)CN

> <PUBCHEM_CACTVS_TPSA>
303

> <PUBCHEM_MONOISOTOPIC_WEIGHT>
520.260525

> <PUBCHEM_TOTAL_CHARGE>
0

> <PUBCHEM_HEAVY_ATOM_COUNT>
36

> <PUBCHEM_ATOM_DEF_STEREO_COUNT>
9

> <PUBCHEM_ATOM_UDEF_STEREO_COUNT>
0

> <PUBCHEM_BOND_DEF_STEREO_COUNT>
0

> <PUBCHEM_BOND_UDEF_STEREO_COUNT>
0

> <PUBCHEM_ISOTOPIC_ATOM_COUNT>
0

> <PUBCHEM_COMPONENT_COUNT>
1

> <PUBCHEM_CACTVS_TAUTO_COUNT>
12

> <PUBCHEM_COORDINATE_TYPE>
1
5
255

> <PUBCHEM_BONDANNOTATIONS>
20  10  5
18  11  6
30  14  5
21  2  5
22  23  5
24  44  6
26  32  6
19  3  6
27  5  5

$$$$

