8645
  -OEChem-07051213022D

 51 51  0     1  0  0  0  0  0999 V2000
    4.2690    0.0000    0.0000 O   0  0  0  0  0  0  0  0  0  0  0  0
    5.1350   -1.5000    0.0000 O   0  0  0  0  0  0  0  0  0  0  0  0
    2.5369    0.0000    0.0000 O   0  0  0  0  0  0  0  0  0  0  0  0
    6.0010    3.0000    0.0000 N   0  0  0  0  0  0  0  0  0  0  0  0
    5.1350    1.5000    0.0000 C   0  0  0  0  0  0  0  0  0  0  0  0
    5.1350    2.5000    0.0000 C   0  0  0  0  0  0  0  0  0  0  0  0
    5.1350    0.5000    0.0000 C   0  0  0  0  0  0  0  0  0  0  0  0
    6.1350    1.5000    0.0000 C   0  0  0  0  0  0  0  0  0  0  0  0
    4.1350    1.5000    0.0000 C   0  0  0  0  0  0  0  0  0  0  0  0
    6.0010    4.0000    0.0000 C   0  0  0  0  0  0  0  0  0  0  0  0
    6.8671    2.5000    0.0000 C   0  0  0  0  0  0  0  0  0  0  0  0
    6.8671    4.5000    0.0000 C   0  0  0  0  0  0  0  0  0  0  0  0
    7.7331    3.0000    0.0000 C   0  0  0  0  0  0  0  0  0  0  0  0
    3.4030   -1.5000    0.0000 C   0  0  3  0  0  0  0  0  0  0  0  0
    4.2690   -1.0000    0.0000 C   0  0  0  0  0  0  0  0  0  0  0  0
    3.4030   -2.5000    0.0000 C   0  0  0  0  0  0  0  0  0  0  0  0
    2.5369   -1.0000    0.0000 C   0  0  0  0  0  0  0  0  0  0  0  0
    2.5369   -3.0000    0.0000 C   0  0  0  0  0  0  0  0  0  0  0  0
    4.2690   -3.0000    0.0000 C   0  0  0  0  0  0  0  0  0  0  0  0
    2.5369   -4.0000    0.0000 C   0  0  0  0  0  0  0  0  0  0  0  0
    4.2690   -4.0000    0.0000 C   0  0  0  0  0  0  0  0  0  0  0  0
    3.4030   -4.5000    0.0000 C   0  0  0  0  0  0  0  0  0  0  0  0
    4.9230    3.0826    0.0000 H   0  0  0  0  0  0  0  0  0  0  0  0
    4.5244    2.3923    0.0000 H   0  0  0  0  0  0  0  0  0  0  0  0
    5.3471   -0.0826    0.0000 H   0  0  0  0  0  0  0  0  0  0  0  0
    5.7456    0.6077    0.0000 H   0  0  0  0  0  0  0  0  0  0  0  0
    6.1350    0.8800    0.0000 H   0  0  0  0  0  0  0  0  0  0  0  0
    6.7550    1.5000    0.0000 H   0  0  0  0  0  0  0  0  0  0  0  0
    6.1350    2.1200    0.0000 H   0  0  0  0  0  0  0  0  0  0  0  0
    4.1350    2.1200    0.0000 H   0  0  0  0  0  0  0  0  0  0  0  0
    3.5150    1.5000    0.0000 H   0  0  0  0  0  0  0  0  0  0  0  0
    4.1350    0.8800    0.0000 H   0  0  0  0  0  0  0  0  0  0  0  0
    5.7890    4.5826    0.0000 H   0  0  0  0  0  0  0  0  0  0  0  0
    5.3905    3.8923    0.0000 H   0  0  0  0  0  0  0  0  0  0  0  0
    6.4685    2.0250    0.0000 H   0  0  0  0  0  0  0  0  0  0  0  0
    7.2656    2.0250    0.0000 H   0  0  0  0  0  0  0  0  0  0  0  0
    7.1771    3.9631    0.0000 H   0  0  0  0  0  0  0  0  0  0  0  0
    7.4040    4.8100    0.0000 H   0  0  0  0  0  0  0  0  0  0  0  0
    6.5571    5.0369    0.0000 H   0  0  0  0  0  0  0  0  0  0  0  0
    8.0431    2.4631    0.0000 H   0  0  0  0  0  0  0  0  0  0  0  0
    8.2700    3.3100    0.0000 H   0  0  0  0  0  0  0  0  0  0  0  0
    7.4231    3.5369    0.0000 H   0  0  0  0  0  0  0  0  0  0  0  0
    3.4030   -0.6500    0.0000 H   0  0  0  0  0  0  0  0  0  0  0  0
    1.9264   -0.8923    0.0000 H   0  0  0  0  0  0  0  0  0  0  0  0
    2.3249   -1.5826    0.0000 H   0  0  0  0  0  0  0  0  0  0  0  0
    2.0000   -2.6900    0.0000 H   0  0  0  0  0  0  0  0  0  0  0  0
    4.8059   -2.6900    0.0000 H   0  0  0  0  0  0  0  0  0  0  0  0
    2.0000   -4.3100    0.0000 H   0  0  0  0  0  0  0  0  0  0  0  0
    4.8059   -4.3100    0.0000 H   0  0  0  0  0  0  0  0  0  0  0  0
    2.0000    0.3100    0.0000 H   0  0  0  0  0  0  0  0  0  0  0  0
    3.4030   -5.1200    0.0000 H   0  0  0  0  0  0  0  0  0  0  0  0
  1  7  1  0  0  0  0
  1 15  1  0  0  0  0
  2 15  2  0  0  0  0
  3 17  1  0  0  0  0
  3 50  1  0  0  0  0
  4  6  1  0  0  0  0
  4 10  1  0  0  0  0
  4 11  1  0  0  0  0
  5  6  1  0  0  0  0
  5  7  1  0  0  0  0
  5  8  1  0  0  0  0
  5  9  1  0  0  0  0
  6 23  1  0  0  0  0
  6 24  1  0  0  0  0
  7 25  1  0  0  0  0
  7 26  1  0  0  0  0
  8 27  1  0  0  0  0
  8 28  1  0  0  0  0
  8 29  1  0  0  0  0
  9 30  1  0  0  0  0
  9 31  1  0  0  0  0
  9 32  1  0  0  0  0
 10 12  1  0  0  0  0
 10 33  1  0  0  0  0
 10 34  1  0  0  0  0
 11 13  1  0  0  0  0
 11 35  1  0  0  0  0
 11 36  1  0  0  0  0
 12 37  1  0  0  0  0
 12 38  1  0  0  0  0
 12 39  1  0  0  0  0
 13 40  1  0  0  0  0
 13 41  1  0  0  0  0
 13 42  1  0  0  0  0
 14 15  1  0  0  0  0
 14 16  1  0  0  0  0
 14 17  1  0  0  0  0
 14 43  1  0  0  0  0
 16 18  2  0  0  0  0
 16 19  1  0  0  0  0
 17 44  1  0  0  0  0
 17 45  1  0  0  0  0
 18 20  1  0  0  0  0
 18 46  1  0  0  0  0
 19 21  2  0  0  0  0
 19 47  1  0  0  0  0
 20 22  2  0  0  0  0
 20 48  1  0  0  0  0
 21 22  1  0  0  0  0
 21 49  1  0  0  0  0
 22 51  1  0  0  0  0
M  END
> <PUBCHEM_COMPOUND_CID>
8645

> <PUBCHEM_COMPOUND_CANONICALIZED>
1

> <PUBCHEM_CACTVS_COMPLEXITY>
320

> <PUBCHEM_CACTVS_HBOND_ACCEPTOR>
4

> <PUBCHEM_CACTVS_HBOND_DONOR>
1

> <PUBCHEM_CACTVS_ROTATABLE_BOND>
10

> <PUBCHEM_CACTVS_SUBSKEYS>
AAADceB6MAAAAAAAAAAAAAAAAAAAAAAAAAAwAAAAAAAAAAABAAAAHgAACAAADwDhmAYyCIMABgCIAiDSCAACAAAgAAAIiAEIAIgIMDaAFRCGYAAn4AGIiAeIyOCOgAAAAAAAAAAAAAAAAAAAAAAAAAAAAA==

> <PUBCHEM_IUPAC_OPENEYE_NAME>
[3-(diethylamino)-2,2-dimethyl-propyl] 3-hydroxy-2-phenyl-propanoate

> <PUBCHEM_IUPAC_CAS_NAME>
3-hydroxy-2-phenylpropanoic acid [3-(diethylamino)-2,2-dimethylpropyl] ester

> <PUBCHEM_IUPAC_NAME>
[3-(diethylamino)-2,2-dimethylpropyl] 3-hydroxy-2-phenylpropanoate

> <PUBCHEM_IUPAC_SYSTEMATIC_NAME>
[3-(diethylamino)-2,2-dimethyl-propyl] 3-oxidanyl-2-phenyl-propanoate

> <PUBCHEM_IUPAC_TRADITIONAL_NAME>
3-hydroxy-2-phenyl-propionic acid [3-(diethylamino)-2,2-dimethyl-propyl] ester

> <PUBCHEM_IUPAC_INCHI>
InChI=1S/C18H29NO3/c1-5-19(6-2)13-18(3,4)14-22-17(21)16(12-20)15-10-8-7-9-11-15/h7-11,16,20H,5-6,12-14H2,1-4H3

> <PUBCHEM_IUPAC_INCHIKEY>
ORXLOAFNULMXBG-UHFFFAOYSA-N

> <PUBCHEM_XLOGP3_AA>
3

> <PUBCHEM_EXACT_MASS>
307.214744

> <PUBCHEM_MOLECULAR_FORMULA>
C18H29NO3

> <PUBCHEM_MOLECULAR_WEIGHT>
307.42776

> <PUBCHEM_OPENEYE_CAN_SMILES>
CCN(CC)CC(C)(C)COC(=O)C(CO)C1=CC=CC=C1

> <PUBCHEM_OPENEYE_ISO_SMILES>
CCN(CC)CC(C)(C)COC(=O)C(CO)C1=CC=CC=C1

> <PUBCHEM_CACTVS_TPSA>
49.8

> <PUBCHEM_MONOISOTOPIC_WEIGHT>
307.214744

> <PUBCHEM_TOTAL_CHARGE>
0

> <PUBCHEM_HEAVY_ATOM_COUNT>
22

> <PUBCHEM_ATOM_DEF_STEREO_COUNT>
0

> <PUBCHEM_ATOM_UDEF_STEREO_COUNT>
1

> <PUBCHEM_BOND_DEF_STEREO_COUNT>
0

> <PUBCHEM_BOND_UDEF_STEREO_COUNT>
0

> <PUBCHEM_ISOTOPIC_ATOM_COUNT>
0

> <PUBCHEM_COMPONENT_COUNT>
1

> <PUBCHEM_CACTVS_TAUTO_COUNT>
1

> <PUBCHEM_COORDINATE_TYPE>
1
5
255

> <PUBCHEM_BONDANNOTATIONS>
14  43  3
16  18  8
16  19  8
18  20  8
19  21  8
20  22  8
21  22  8

$$$$

