5105
  -OEChem-06261200313D

 53 54  0     0  0  0  0  0  0999 V2000
    2.0314   -1.8457    1.2714 O   0  0  0  0  0  0  0  0  0  0  0  0
    0.7647    2.7027   -1.2451 O   0  0  0  0  0  0  0  0  0  0  0  0
    0.5627    1.4287    1.1911 O   0  0  0  0  0  0  0  0  0  0  0  0
    2.0533    1.1915   -2.4256 O   0  0  0  0  0  0  0  0  0  0  0  0
   -2.8739   -0.6538    0.4073 N   0  0  0  0  0  0  0  0  0  0  0  0
    2.8786    1.5359    1.3922 N   0  0  0  0  0  0  0  0  0  0  0  0
   -2.8317    0.5361   -0.4543 C   0  0  0  0  0  0  0  0  0  0  0  0
   -4.1744   -0.7763    1.0807 C   0  0  0  0  0  0  0  0  0  0  0  0
   -3.0838    1.8106    0.3526 C   0  0  0  0  0  0  0  0  0  0  0  0
   -4.4702    0.4554    1.9379 C   0  0  0  0  0  0  0  0  0  0  0  0
   -4.4037    1.7347    1.1117 C   0  0  0  0  0  0  0  0  0  0  0  0
   -2.5847   -1.8587   -0.3700 C   0  0  0  0  0  0  0  0  0  0  0  0
   -1.1073   -2.0377   -0.5983 C   0  0  0  0  0  0  0  0  0  0  0  0
   -0.2114   -1.8559    0.4553 C   0  0  0  0  0  0  0  0  0  0  0  0
   -0.6345   -2.3856   -1.8636 C   0  0  0  0  0  0  0  0  0  0  0  0
    1.1572   -2.0222    0.2435 C   0  0  0  0  0  0  0  0  0  0  0  0
    0.7341   -2.5519   -2.0755 C   0  0  0  0  0  0  0  0  0  0  0  0
    1.6299   -2.3702   -1.0219 C   0  0  0  0  0  0  0  0  0  0  0  0
    3.3389   -1.3807    0.9395 C   0  0  0  0  0  0  0  0  0  0  0  0
    3.8913   -0.5879    2.1179 C   0  0  0  0  0  0  0  0  0  0  0  0
    3.0239    0.6099    2.4820 C   0  0  0  0  0  0  0  0  0  0  0  0
    1.6508    1.8711    0.8329 C   0  0  0  0  0  0  0  0  0  0  0  0
    1.7972    2.8684   -0.2966 C   0  0  0  0  0  0  0  0  0  0  0  0
    1.0198    1.8280   -2.2707 C   0  0  0  0  0  0  0  0  0  0  0  0
   -0.1581    1.7534   -3.1943 C   0  0  0  0  0  0  0  0  0  0  0  0
   -3.5720    0.4636   -1.2621 H   0  0  0  0  0  0  0  0  0  0  0  0
   -1.8460    0.6289   -0.9231 H   0  0  0  0  0  0  0  0  0  0  0  0
   -4.1725   -1.6524    1.7407 H   0  0  0  0  0  0  0  0  0  0  0  0
   -4.9803   -0.9197    0.3488 H   0  0  0  0  0  0  0  0  0  0  0  0
   -2.2628    1.9645    1.0638 H   0  0  0  0  0  0  0  0  0  0  0  0
   -3.0917    2.6775   -0.3179 H   0  0  0  0  0  0  0  0  0  0  0  0
   -5.4627    0.3603    2.3928 H   0  0  0  0  0  0  0  0  0  0  0  0
   -3.7455    0.5133    2.7600 H   0  0  0  0  0  0  0  0  0  0  0  0
   -5.2374    1.7542    0.3992 H   0  0  0  0  0  0  0  0  0  0  0  0
   -4.5146    2.6092    1.7621 H   0  0  0  0  0  0  0  0  0  0  0  0
   -3.1424   -1.8657   -1.3160 H   0  0  0  0  0  0  0  0  0  0  0  0
   -2.9071   -2.7547    0.1786 H   0  0  0  0  0  0  0  0  0  0  0  0
   -0.5641   -1.5954    1.4503 H   0  0  0  0  0  0  0  0  0  0  0  0
   -1.3211   -2.5315   -2.6932 H   0  0  0  0  0  0  0  0  0  0  0  0
    1.1012   -2.8283   -3.0596 H   0  0  0  0  0  0  0  0  0  0  0  0
    2.6840   -2.5367   -1.2230 H   0  0  0  0  0  0  0  0  0  0  0  0
    3.9851   -2.2458    0.7509 H   0  0  0  0  0  0  0  0  0  0  0  0
    3.3381   -0.7376    0.0504 H   0  0  0  0  0  0  0  0  0  0  0  0
    3.9592   -1.2411    2.9961 H   0  0  0  0  0  0  0  0  0  0  0  0
    4.9072   -0.2531    1.8769 H   0  0  0  0  0  0  0  0  0  0  0  0
    3.4955    1.1611    3.3029 H   0  0  0  0  0  0  0  0  0  0  0  0
    2.0401    0.2835    2.8353 H   0  0  0  0  0  0  0  0  0  0  0  0
    3.7194    1.9925    1.0512 H   0  0  0  0  0  0  0  0  0  0  0  0
    2.7879    2.8141   -0.7622 H   0  0  0  0  0  0  0  0  0  0  0  0
    1.6996    3.8705    0.1347 H   0  0  0  0  0  0  0  0  0  0  0  0
   -0.3556    0.7071   -3.4415 H   0  0  0  0  0  0  0  0  0  0  0  0
    0.0553    2.3251   -4.1003 H   0  0  0  0  0  0  0  0  0  0  0  0
   -1.0540    2.1603   -2.7168 H   0  0  0  0  0  0  0  0  0  0  0  0
  1 16  1  0  0  0  0
  1 19  1  0  0  0  0
  2 23  1  0  0  0  0
  2 24  1  0  0  0  0
  3 22  2  0  0  0  0
  4 24  2  0  0  0  0
  5  7  1  0  0  0  0
  5  8  1  0  0  0  0
  5 12  1  0  0  0  0
  6 21  1  0  0  0  0
  6 22  1  0  0  0  0
  6 48  1  0  0  0  0
  7  9  1  0  0  0  0
  7 26  1  0  0  0  0
  7 27  1  0  0  0  0
  8 10  1  0  0  0  0
  8 28  1  0  0  0  0
  8 29  1  0  0  0  0
  9 11  1  0  0  0  0
  9 30  1  0  0  0  0
  9 31  1  0  0  0  0
 10 11  1  0  0  0  0
 10 32  1  0  0  0  0
 10 33  1  0  0  0  0
 11 34  1  0  0  0  0
 11 35  1  0  0  0  0
 12 13  1  0  0  0  0
 12 36  1  0  0  0  0
 12 37  1  0  0  0  0
 13 14  2  0  0  0  0
 13 15  1  0  0  0  0
 14 16  1  0  0  0  0
 14 38  1  0  0  0  0
 15 17  2  0  0  0  0
 15 39  1  0  0  0  0
 16 18  2  0  0  0  0
 17 18  1  0  0  0  0
 17 40  1  0  0  0  0
 18 41  1  0  0  0  0
 19 20  1  0  0  0  0
 19 42  1  0  0  0  0
 19 43  1  0  0  0  0
 20 21  1  0  0  0  0
 20 44  1  0  0  0  0
 20 45  1  0  0  0  0
 21 46  1  0  0  0  0
 21 47  1  0  0  0  0
 22 23  1  0  0  0  0
 23 49  1  0  0  0  0
 23 50  1  0  0  0  0
 24 25  1  0  0  0  0
 25 51  1  0  0  0  0
 25 52  1  0  0  0  0
 25 53  1  0  0  0  0
M  END
> <PUBCHEM_COMPOUND_CID>
5105

> <PUBCHEM_CONFORMER_RMSD>
1.2

> <PUBCHEM_CONFORMER_DIVERSEORDER>
2
135
162
128
75
91
108
67
92
58
158
31
19
12
45
112
56
68
146
23
22
154
101
156
62
1
117
17
80
72
51
161
105
24
15
99
7
6
39
122
38
61
14
37
109
110
21
28
49
130
66
48
3
129
98
152
29
60
148
33
27
107
40
143
106
41
16
11
160
145
64
13
4
73
164
100
89
76
102
103
114
81
54
10
71
159
137
55
43
26
94
8
69
139
147
70
113
126
20
5
132
120
9
35
83
85
127
78
142
32
123
133
84
82
104
163
124
87
47
136
116
63
119
140
79
44
144
153
150
90
18
34
157
53
121
46
77
65
36
115
50
88
57
86
118
74
96
42
93
149
155
30
125
52
59
134
111
25
95
138
151
131
141
97

> <PUBCHEM_MMFF94_PARTIAL_CHARGES>
26
1 -0.36
12 0.41
13 -0.14
14 -0.15
15 -0.15
16 0.08
17 -0.15
18 -0.15
19 0.28
2 -0.43
21 0.3
22 0.57
23 0.34
24 0.66
25 0.06
3 -0.57
38 0.15
39 0.15
4 -0.57
40 0.15
41 0.15
48 0.37
5 -0.81
6 -0.73
7 0.27
8 0.27

> <PUBCHEM_EFFECTIVE_ROTOR_COUNT>
12.2

> <PUBCHEM_PHARMACOPHORE_FEATURES>
7
1 1 acceptor
1 3 acceptor
1 4 acceptor
1 5 cation
1 6 donor
6 13 14 15 16 17 18 rings
6 5 7 8 9 10 11 rings

> <PUBCHEM_HEAVY_ATOM_COUNT>
25

> <PUBCHEM_ATOM_DEF_STEREO_COUNT>
0

> <PUBCHEM_ATOM_UDEF_STEREO_COUNT>
0

> <PUBCHEM_BOND_DEF_STEREO_COUNT>
0

> <PUBCHEM_BOND_UDEF_STEREO_COUNT>
0

> <PUBCHEM_ISOTOPIC_ATOM_COUNT>
0

> <PUBCHEM_COMPONENT_COUNT>
1

> <PUBCHEM_CACTVS_TAUTO_COUNT>
2

> <PUBCHEM_CONFORMER_ID>
000013F100000002

> <PUBCHEM_MMFF94_ENERGY>
39.3263

> <PUBCHEM_FEATURE_SELFOVERLAP>
35.52

> <PUBCHEM_SHAPE_FINGERPRINT>
10382601 240 17845364467011514380
11244481 83 17345163684947037185
11725454 13 15792305769313236482
12156800 1 15221696935662524324
12422481 6 18269858522179838488
12539773 59 17257111267821939566
12788726 201 16113140826882952902
13965767 371 18190196735272381706
14251757 17 17535706838100981284
1601671 61 18334570287332502074
17859628 37 18188217601425619658
19026451 147 9583240492125468489
20600515 1 17837757186460977967
21860390 5 16661772261398739566
23419403 2 17903931293810279950
35225 105 17684112204584412301
513532 50 16878495869137427353
539174 4 17982752778339393958
6287921 2 17895468237026661671
6786 2 15549332331332683718

> <PUBCHEM_SHAPE_MULTIPOLES>
481.05
6.96
3.73
2.85
5.93
0.17
-1.56
-1.69
6.07
-1.08
-1.61
-1.64
-1.07
-0.57

> <PUBCHEM_SHAPE_SELFOVERLAP>
976.063

> <PUBCHEM_SHAPE_VOLUME>
278.7

> <PUBCHEM_COORDINATE_TYPE>
2
5
10

$$$$

