11033
  -OEChem-06261205153D

 23 23  0     0  0  0  0  0  0999 V2000
    1.1819   -1.2562   -0.2633 S   0  0  0  0  0  0  0  0  0  0  0  0
    1.1910   -2.5788    0.3481 O   0  0  0  0  0  0  0  0  0  0  0  0
    1.6087   -1.1015   -1.6473 O   0  0  0  0  0  0  0  0  0  0  0  0
    2.4249    1.5451   -0.8222 O   0  0  0  0  0  0  0  0  0  0  0  0
    2.0965   -0.1885    0.7165 N   0  0  0  0  0  0  0  0  0  0  0  0
   -4.2798    1.0467    0.2068 N   0  0  0  0  0  0  0  0  0  0  0  0
    3.3725    1.6982    1.2587 N   0  0  0  0  0  0  0  0  0  0  0  0
   -0.4217   -0.5796   -0.1253 C   0  0  0  0  0  0  0  0  0  0  0  0
   -0.8499    0.3906   -1.0313 C   0  0  0  0  0  0  0  0  0  0  0  0
   -1.2747   -1.0096    0.8910 C   0  0  0  0  0  0  0  0  0  0  0  0
   -2.9842    0.5009    0.0954 C   0  0  0  0  0  0  0  0  0  0  0  0
   -2.1312    0.9310   -0.9209 C   0  0  0  0  0  0  0  0  0  0  0  0
   -2.5560   -0.4694    1.0014 C   0  0  0  0  0  0  0  0  0  0  0  0
    2.6221    1.0711    0.2925 C   0  0  0  0  0  0  0  0  0  0  0  0
   -0.2027    0.7443   -1.8287 H   0  0  0  0  0  0  0  0  0  0  0  0
   -0.9591   -1.7594    1.6110 H   0  0  0  0  0  0  0  0  0  0  0  0
   -2.4529    1.6872   -1.6324 H   0  0  0  0  0  0  0  0  0  0  0  0
   -3.2109   -0.8117    1.7987 H   0  0  0  0  0  0  0  0  0  0  0  0
    2.3398   -0.5152    1.6602 H   0  0  0  0  0  0  0  0  0  0  0  0
   -4.5907    1.7506   -0.4494 H   0  0  0  0  0  0  0  0  0  0  0  0
   -4.8984    0.7357    0.9439 H   0  0  0  0  0  0  0  0  0  0  0  0
    3.8042    2.6001    1.0873 H   0  0  0  0  0  0  0  0  0  0  0  0
    3.5188    1.2822    2.1722 H   0  0  0  0  0  0  0  0  0  0  0  0
  1  2  2  0  0  0  0
  1  3  2  0  0  0  0
  1  5  1  0  0  0  0
  1  8  1  0  0  0  0
  4 14  2  0  0  0  0
  5 14  1  0  0  0  0
  5 19  1  0  0  0  0
  6 11  1  0  0  0  0
  6 20  1  0  0  0  0
  6 21  1  0  0  0  0
  7 14  1  0  0  0  0
  7 22  1  0  0  0  0
  7 23  1  0  0  0  0
  8  9  2  0  0  0  0
  8 10  1  0  0  0  0
  9 12  1  0  0  0  0
  9 15  1  0  0  0  0
 10 13  2  0  0  0  0
 10 16  1  0  0  0  0
 11 12  2  0  0  0  0
 11 13  1  0  0  0  0
 12 17  1  0  0  0  0
 13 18  1  0  0  0  0
M  END
> <PUBCHEM_COMPOUND_CID>
11033

> <PUBCHEM_CONFORMER_RMSD>
0.6

> <PUBCHEM_CONFORMER_DIVERSEORDER>
1
10
4
8
3
9
7
5
2
6

> <PUBCHEM_MMFF94_PARTIAL_CHARGES>
23
1 1.45
10 -0.15
11 0.1
12 -0.15
13 -0.15
14 0.87
15 0.15
16 0.15
17 0.15
18 0.15
19 0.42
2 -0.65
20 0.4
21 0.4
22 0.37
23 0.37
3 -0.65
4 -0.57
5 -0.79
6 -0.9
7 -0.8
8 -0.01
9 -0.15

> <PUBCHEM_EFFECTIVE_ROTOR_COUNT>
3

> <PUBCHEM_PHARMACOPHORE_FEATURES>
8
1 2 acceptor
1 3 acceptor
1 4 acceptor
1 5 donor
1 6 cation
1 6 donor
1 7 donor
6 8 9 10 11 12 13 rings

> <PUBCHEM_HEAVY_ATOM_COUNT>
14

> <PUBCHEM_ATOM_DEF_STEREO_COUNT>
0

> <PUBCHEM_ATOM_UDEF_STEREO_COUNT>
0

> <PUBCHEM_BOND_DEF_STEREO_COUNT>
0

> <PUBCHEM_BOND_UDEF_STEREO_COUNT>
0

> <PUBCHEM_ISOTOPIC_ATOM_COUNT>
0

> <PUBCHEM_COMPONENT_COUNT>
1

> <PUBCHEM_CACTVS_TAUTO_COUNT>
3

> <PUBCHEM_CONFORMER_ID>
00002B1900000001

> <PUBCHEM_MMFF94_ENERGY>
23.8317

> <PUBCHEM_FEATURE_SELFOVERLAP>
40.657

> <PUBCHEM_SHAPE_FINGERPRINT>
10857977 72 17489295400325930055
11031198 65 17894910724121769097
11132069 177 18201725015957800433
11543360 7 17749401386089526581
11769659 78 11887659659856548569
12251169 10 17632585924336828968
12326174 3 18115023146835287574
12382932 28 17917704674134366369
12696612 119 17846215514564945340
12932764 1 18340195410295105495
13571099 52 18334579005720259552
14115302 16 15502662649394849782
15219456 202 18341609334581616603
15775835 57 17968386653916074624
16945 1 17917137369279175383
170605 34 18113620075207842534
18186145 218 18266453394639915133
19786989 88 18041570229559987775
20645464 45 18272370879999324363
21028194 46 18188487952631939658
21524375 3 18116442448937518882
21947302 44 18410290358454180099
22096605 113 18333456447566966105
230 275 18413388756583382884
23557571 272 18270102527513822059
27216 239 17978239261675047016
2748010 2 17845354678965896651
7364860 26 18266177408209766286
8030462 33 15213299759366311823
81228 2 17545044801720207378

> <PUBCHEM_SHAPE_MULTIPOLES>
259.41
5.64
1.87
1.22
1.83
0.55
-0.15
-3.17
1.35
-1.31
0.11
-0.36
-0.05
0.79

> <PUBCHEM_SHAPE_SELFOVERLAP>
524.242

> <PUBCHEM_SHAPE_VOLUME>
151.3

> <PUBCHEM_COORDINATE_TYPE>
2
5
10

$$$$

