9561767
  -OEChem-07051213072D

 43 46  0     1  0  0  0  0  0999 V2000
    9.1857    2.1767    0.0000 O   0  0  0  0  0  0  0  0  0  0  0  0
   10.9586   -0.4446    0.0000 O   0  0  0  0  0  0  0  0  0  0  0  0
    2.5357   -2.1309    0.0000 O   0  0  0  0  0  0  0  0  0  0  0  0
   10.4586    0.4215    0.0000 N   0  0  0  0  0  0  0  0  0  0  0  0
    7.9288   -0.0785    0.0000 C   0  0  1  0  0  0  0  0  0  0  0  0
    7.0628   -0.5785    0.0000 C   0  0  1  0  0  0  0  0  0  0  0  0
    7.9288    0.9215    0.0000 C   0  0  2  0  0  0  0  0  0  0  0  0
    6.1968   -0.0785    0.0000 C   0  0  2  0  0  0  0  0  0  0  0  0
    7.0628    1.4215    0.0000 C   0  0  0  0  0  0  0  0  0  0  0  0
    6.1968    0.9215    0.0000 C   0  0  0  0  0  0  0  0  0  0  0  0
    8.8750   -0.3833    0.0000 C   0  0  0  0  0  0  0  0  0  0  0  0
    7.0789   -1.6200    0.0000 C   0  0  0  0  0  0  0  0  0  0  0  0
    8.8750    1.2262    0.0000 C   0  0  0  0  0  0  0  0  0  0  0  0
    5.2868   -0.5854    0.0000 C   0  0  0  0  0  0  0  0  0  0  0  0
    7.9288    1.9215    0.0000 C   0  0  0  0  0  0  0  0  0  0  0  0
    9.4586    0.4215    0.0000 C   0  0  0  0  0  0  0  0  0  0  0  0
    6.1808   -2.1478    0.0000 C   0  0  0  0  0  0  0  0  0  0  0  0
    5.2787   -1.6270    0.0000 C   0  0  0  0  0  0  0  0  0  0  0  0
    4.3599   -0.0213    0.0000 C   0  0  0  0  0  0  0  0  0  0  0  0
    4.3433   -2.1767    0.0000 C   0  0  0  0  0  0  0  0  0  0  0  0
    3.4120   -0.5493    0.0000 C   0  0  0  0  0  0  0  0  0  0  0  0
    3.4037   -1.6342    0.0000 C   0  0  0  0  0  0  0  0  0  0  0  0
    8.0188   -0.9238    0.0000 H   0  0  0  0  0  0  0  0  0  0  0  0
    7.8022   -0.9979    0.0000 H   0  0  0  0  0  0  0  0  0  0  0  0
    6.9329    0.3465    0.0000 H   0  0  0  0  0  0  0  0  0  0  0  0
    7.4613    1.8964    0.0000 H   0  0  0  0  0  0  0  0  0  0  0  0
    6.6643    1.8964    0.0000 H   0  0  0  0  0  0  0  0  0  0  0  0
    5.9847    1.5041    0.0000 H   0  0  0  0  0  0  0  0  0  0  0  0
    5.5862    0.8138    0.0000 H   0  0  0  0  0  0  0  0  0  0  0  0
    8.6240   -0.9502    0.0000 H   0  0  0  0  0  0  0  0  0  0  0  0
    9.4124   -0.6925    0.0000 H   0  0  0  0  0  0  0  0  0  0  0  0
    7.2969   -2.2004    0.0000 H   0  0  0  0  0  0  0  0  0  0  0  0
    7.6880   -1.5046    0.0000 H   0  0  0  0  0  0  0  0  0  0  0  0
    8.5488    1.9215    0.0000 H   0  0  0  0  0  0  0  0  0  0  0  0
    7.9288    2.5415    0.0000 H   0  0  0  0  0  0  0  0  0  0  0  0
    7.3088    1.9215    0.0000 H   0  0  0  0  0  0  0  0  0  0  0  0
    5.7835   -2.6238    0.0000 H   0  0  0  0  0  0  0  0  0  0  0  0
    6.5818   -2.6207    0.0000 H   0  0  0  0  0  0  0  0  0  0  0  0
    4.3719    0.5986    0.0000 H   0  0  0  0  0  0  0  0  0  0  0  0
    4.3457   -2.7967    0.0000 H   0  0  0  0  0  0  0  0  0  0  0  0
    2.8787   -0.2331    0.0000 H   0  0  0  0  0  0  0  0  0  0  0  0
   11.5786   -0.4446    0.0000 H   0  0  0  0  0  0  0  0  0  0  0  0
    2.0000   -1.8188    0.0000 H   0  0  0  0  0  0  0  0  0  0  0  0
  1 13  2  0  0  0  0
  2  4  1  0  0  0  0
  2 42  1  0  0  0  0
  3 22  1  0  0  0  0
  3 43  1  0  0  0  0
  4 16  2  0  0  0  0
  5  6  1  0  0  0  0
  5  7  1  0  0  0  0
  5 11  1  0  0  0  0
  5 23  1  6  0  0  0
  6  8  1  0  0  0  0
  6 12  1  0  0  0  0
  6 24  1  1  0  0  0
  7  9  1  0  0  0  0
  7 13  1  0  0  0  0
  7 15  1  1  0  0  0
  8 10  1  0  0  0  0
  8 14  1  0  0  0  0
  8 25  1  6  0  0  0
  9 10  1  0  0  0  0
  9 26  1  0  0  0  0
  9 27  1  0  0  0  0
 10 28  1  0  0  0  0
 10 29  1  0  0  0  0
 11 16  1  0  0  0  0
 11 30  1  0  0  0  0
 11 31  1  0  0  0  0
 12 17  1  0  0  0  0
 12 32  1  0  0  0  0
 12 33  1  0  0  0  0
 13 16  1  0  0  0  0
 14 18  2  0  0  0  0
 14 19  1  0  0  0  0
 15 34  1  0  0  0  0
 15 35  1  0  0  0  0
 15 36  1  0  0  0  0
 17 18  1  0  0  0  0
 17 37  1  0  0  0  0
 17 38  1  0  0  0  0
 18 20  1  0  0  0  0
 19 21  2  0  0  0  0
 19 39  1  0  0  0  0
 20 22  2  0  0  0  0
 20 40  1  0  0  0  0
 21 22  1  0  0  0  0
 21 41  1  0  0  0  0
M  END
> <PUBCHEM_COMPOUND_CID>
9561767

> <PUBCHEM_COMPOUND_CANONICALIZED>
1

> <PUBCHEM_CACTVS_COMPLEXITY>
517

> <PUBCHEM_CACTVS_HBOND_ACCEPTOR>
4

> <PUBCHEM_CACTVS_HBOND_DONOR>
2

> <PUBCHEM_CACTVS_ROTATABLE_BOND>
0

> <PUBCHEM_CACTVS_SUBSKEYS>
AAADceB6MAAAAAAAAAAAAAAAAAAAAYAAAAAwYMAAAAAAAGDBAAAAHgAECAAADwyBmAAyBoAQAgCoA6ByAAACAAAgIAAIiAE2CIgIJjKCERKAcAAkwBEImAeIyPCPoAABAAAQAADAAAYAACAAAAAACAAAAA==

> <PUBCHEM_IUPAC_OPENEYE_NAME>
(8R,9S,13S,14S,16E)-3-hydroxy-16-hydroxyimino-13-methyl-6,7,8,9,11,12,14,15-octahydrocyclopenta[a]phenanthren-17-one

> <PUBCHEM_IUPAC_CAS_NAME>
(8R,9S,13S,14S,16E)-3-hydroxy-16-hydroxyimino-13-methyl-6,7,8,9,11,12,14,15-octahydrocyclopenta[a]phenanthren-17-one

> <PUBCHEM_IUPAC_NAME>
(8R,9S,13S,14S,16E)-3-hydroxy-16-hydroxyimino-13-methyl-6,7,8,9,11,12,14,15-octahydrocyclopenta[a]phenanthren-17-one

> <PUBCHEM_IUPAC_SYSTEMATIC_NAME>
(8R,9S,13S,14S,16E)-16-hydroxyimino-13-methyl-3-oxidanyl-6,7,8,9,11,12,14,15-octahydrocyclopenta[a]phenanthren-17-one

> <PUBCHEM_IUPAC_TRADITIONAL_NAME>
(8R,9S,13S,14S,16E)-16-hydroximino-3-hydroxy-13-methyl-6,7,8,9,11,12,14,15-octahydrocyclopenta[a]phenanthren-17-one

> <PUBCHEM_IUPAC_INCHI>
InChI=1S/C18H21NO3/c1-18-7-6-13-12-5-3-11(20)8-10(12)2-4-14(13)15(18)9-16(19-22)17(18)21/h3,5,8,13-15,20,22H,2,4,6-7,9H2,1H3/b19-16+/t13-,14-,15+,18+/m1/s1

> <PUBCHEM_IUPAC_INCHIKEY>
IRFSYLYJKJQLIR-VGSXEYKCSA-N

> <PUBCHEM_XLOGP3_AA>
3.6

> <PUBCHEM_EXACT_MASS>
299.152144

> <PUBCHEM_MOLECULAR_FORMULA>
C18H21NO3

> <PUBCHEM_MOLECULAR_WEIGHT>
299.36424

> <PUBCHEM_OPENEYE_CAN_SMILES>
CC12CCC3C(C1CC(=NO)C2=O)CCC4=C3C=CC(=C4)O

> <PUBCHEM_OPENEYE_ISO_SMILES>
C[C@]12CC[C@H]3[C@H]([C@@H]1C/C(=N\O)/C2=O)CCC4=C3C=CC(=C4)O

> <PUBCHEM_CACTVS_TPSA>
69.9

> <PUBCHEM_MONOISOTOPIC_WEIGHT>
299.152144

> <PUBCHEM_TOTAL_CHARGE>
0

> <PUBCHEM_HEAVY_ATOM_COUNT>
22

> <PUBCHEM_ATOM_DEF_STEREO_COUNT>
4

> <PUBCHEM_ATOM_UDEF_STEREO_COUNT>
0

> <PUBCHEM_BOND_DEF_STEREO_COUNT>
1

> <PUBCHEM_BOND_UDEF_STEREO_COUNT>
0

> <PUBCHEM_ISOTOPIC_ATOM_COUNT>
0

> <PUBCHEM_COMPONENT_COUNT>
1

> <PUBCHEM_CACTVS_TAUTO_COUNT>
72

> <PUBCHEM_COORDINATE_TYPE>
1
5
255

> <PUBCHEM_BONDANNOTATIONS>
14  18  8
14  19  8
18  20  8
19  21  8
20  22  8
21  22  8
5  23  6
6  24  5
7  15  5
8  25  6

$$$$

