47205580
  -OEChem-06241222593D

 35 36  0     1  0  0  0  0  0999 V2000
    0.2285   -2.5757    0.2048 O   0  0  0  0  0  0  0  0  0  0  0  0
    2.5753   -0.0444   -0.1449 N   0  0  0  0  0  0  0  0  0  0  0  0
   -0.3112   -0.3983   -0.4993 N   0  0  0  0  0  0  0  0  0  0  0  0
    3.3915    1.2234    1.4855 N   0  0  0  0  0  0  0  0  0  0  0  0
    1.9478   -1.2398   -0.8394 C   0  0  2  0  0  0  0  0  0  0  0  0
    0.5321   -1.5052   -0.3139 C   0  0  0  0  0  0  0  0  0  0  0  0
   -1.6577   -0.2703   -0.1495 C   0  0  0  0  0  0  0  0  0  0  0  0
   -2.3547    0.9100   -0.4077 C   0  0  0  0  0  0  0  0  0  0  0  0
    2.8355   -2.4800   -0.7072 C   0  0  0  0  0  0  0  0  0  0  0  0
   -1.6875    2.0743   -1.0651 C   0  0  0  0  0  0  0  0  0  0  0  0
    2.9713    1.1207   -0.7393 C   0  0  0  0  0  0  0  0  0  0  0  0
   -2.3047   -1.3423    0.4654 C   0  0  0  0  0  0  0  0  0  0  0  0
   -3.6991    1.0183   -0.0511 C   0  0  0  0  0  0  0  0  0  0  0  0
    2.8474    0.0637    1.1905 C   0  0  0  0  0  0  0  0  0  0  0  0
   -0.7912    2.8461   -0.1017 C   0  0  0  0  0  0  0  0  0  0  0  0
   -3.6489   -1.2340    0.8220 C   0  0  0  0  0  0  0  0  0  0  0  0
   -4.3459   -0.0536    0.5640 C   0  0  0  0  0  0  0  0  0  0  0  0
    3.4716    1.8870    0.2868 C   0  0  0  0  0  0  0  0  0  0  0  0
    1.8767   -0.9532   -1.8963 H   0  0  0  0  0  0  0  0  0  0  0  0
    3.8428   -2.2786   -1.0872 H   0  0  0  0  0  0  0  0  0  0  0  0
    2.4181   -3.3175   -1.2763 H   0  0  0  0  0  0  0  0  0  0  0  0
    2.9311   -2.8013    0.3359 H   0  0  0  0  0  0  0  0  0  0  0  0
    0.1105    0.4010   -0.9611 H   0  0  0  0  0  0  0  0  0  0  0  0
   -2.4432    2.7649   -1.4617 H   0  0  0  0  0  0  0  0  0  0  0  0
   -1.1191    1.7503   -1.9451 H   0  0  0  0  0  0  0  0  0  0  0  0
    2.8662    1.2995   -1.8001 H   0  0  0  0  0  0  0  0  0  0  0  0
   -1.8414   -2.2892    0.7006 H   0  0  0  0  0  0  0  0  0  0  0  0
   -4.2564    1.9315   -0.2426 H   0  0  0  0  0  0  0  0  0  0  0  0
    2.6277   -0.7259    1.8959 H   0  0  0  0  0  0  0  0  0  0  0  0
   -1.3723    3.2432    0.7380 H   0  0  0  0  0  0  0  0  0  0  0  0
   -0.3268    3.6920   -0.6188 H   0  0  0  0  0  0  0  0  0  0  0  0
    0.0091    2.2280    0.3145 H   0  0  0  0  0  0  0  0  0  0  0  0
   -4.1542   -2.0677    1.3010 H   0  0  0  0  0  0  0  0  0  0  0  0
   -5.3923    0.0308    0.8425 H   0  0  0  0  0  0  0  0  0  0  0  0
    3.8845    2.8831    0.2235 H   0  0  0  0  0  0  0  0  0  0  0  0
  1  6  2  0  0  0  0
  2  5  1  0  0  0  0
  2 11  1  0  0  0  0
  2 14  1  0  0  0  0
  3  6  1  0  0  0  0
  3  7  1  0  0  0  0
  3 23  1  0  0  0  0
  4 14  2  0  0  0  0
  4 18  1  0  0  0  0
  5  6  1  0  0  0  0
  5  9  1  0  0  0  0
  5 19  1  0  0  0  0
  7  8  1  0  0  0  0
  7 12  2  0  0  0  0
  8 10  1  0  0  0  0
  8 13  2  0  0  0  0
  9 20  1  0  0  0  0
  9 21  1  0  0  0  0
  9 22  1  0  0  0  0
 10 15  1  0  0  0  0
 10 24  1  0  0  0  0
 10 25  1  0  0  0  0
 11 18  2  0  0  0  0
 11 26  1  0  0  0  0
 12 16  1  0  0  0  0
 12 27  1  0  0  0  0
 13 17  1  0  0  0  0
 13 28  1  0  0  0  0
 14 29  1  0  0  0  0
 15 30  1  0  0  0  0
 15 31  1  0  0  0  0
 15 32  1  0  0  0  0
 16 17  2  0  0  0  0
 16 33  1  0  0  0  0
 17 34  1  0  0  0  0
 18 35  1  0  0  0  0
M  END
> <PUBCHEM_COMPOUND_CID>
47205580

> <PUBCHEM_CONFORMER_RMSD>
0.6

> <PUBCHEM_CONFORMER_DIVERSEORDER>
1
127
175
147
122
81
91
98
106
10
95
159
49
9
194
77
190
126
152
193
57
150
149
61
138
134
172
110
93
137
115
173
130
168
118
33
154
96
187
18
27
30
178
195
69
54
7
167
125
29
65
72
16
87
82
163
145
97
99
25
141
41
157
120
174
184
139
64
124
28
12
60
143
56
151
17
104
71
102
160
39
109
31
111
196
76
5
144
92
105
162
169
13
166
58
119
116
86
8
59
136
3
189
55
15
85
2
142
26
198
62
73
4
199
50
67
182
108
113
75
37
94
66
103
90
83
156
170
135
123
79
19
46
48
158
20
70
44
36
68
153
100
165
35
32
183
114
6
146
131
107
22
171
23
121
132
186
112
177
21
80
140
43
45
14
47
88
40
101
74
161
148
34
191
63
180
197
11
52
78
179
51
24
164
129
181
192
42
185
89
128
117
53
188
133
155
176
38
84

> <PUBCHEM_MMFF94_PARTIAL_CHARGES>
24
1 -0.57
10 0.14
11 -0.3
12 -0.15
13 -0.15
14 0.04
16 -0.15
17 -0.15
18 0.08
2 0.05
23 0.37
26 0.15
27 0.15
28 0.15
29 0.15
3 -0.55
33 0.15
34 0.15
35 0.15
4 -0.57
5 0.32
6 0.57
7 0.12
8 -0.14

> <PUBCHEM_EFFECTIVE_ROTOR_COUNT>
5

> <PUBCHEM_PHARMACOPHORE_FEATURES>
6
1 1 acceptor
1 15 hydrophobe
1 3 donor
3 2 4 14 cation
5 2 4 11 14 18 rings
6 7 8 12 13 16 17 rings

> <PUBCHEM_HEAVY_ATOM_COUNT>
18

> <PUBCHEM_ATOM_DEF_STEREO_COUNT>
0

> <PUBCHEM_ATOM_UDEF_STEREO_COUNT>
1

> <PUBCHEM_BOND_DEF_STEREO_COUNT>
0

> <PUBCHEM_BOND_UDEF_STEREO_COUNT>
0

> <PUBCHEM_ISOTOPIC_ATOM_COUNT>
0

> <PUBCHEM_COMPONENT_COUNT>
1

> <PUBCHEM_CACTVS_TAUTO_COUNT>
2

> <PUBCHEM_CONFORMER_ID>
02D04CCC00000001

> <PUBCHEM_MMFF94_ENERGY>
40.5606

> <PUBCHEM_FEATURE_SELFOVERLAP>
30.446

> <PUBCHEM_SHAPE_FINGERPRINT>
10498660 4 18413102844821423388
10608611 8 18339360889290220959
10759866 29 17988642969999678008
11132069 177 18342457024071885345
11615756 256 18335693992078689145
12403259 226 18195525015601382575
12633257 1 18123467447491202401
13134695 92 17387140977844167182
13140716 1 18340201998606171547
14026960 21 18411700945973407116
14223421 5 18339923830484922109
14341114 328 17774725238578411688
15219456 202 18409165541079698895
17802600 8 18266178511878906158
18186145 218 18041268933066826982
19049666 15 18122347036441741958
19786989 88 17385721417484261463
20681677 274 18342176725484067603
20715895 44 17773615990666204973
21524375 3 18261401001139695958
21618674 68 18408603673405126589
22854114 111 18187366540807815126
23557571 272 18272085006944538489
23559900 14 18270958067402604391
2748010 2 18411699932329399175
350125 39 18338507664082856238
3524813 1 18187367567320985952
394222 165 16412635888777064716
44154327 71 18269269076061796028
49207404 50 18411132511362592755
5104073 3 18339916108724724235
6049 1 18338510975207359462
7097593 13 17558290944442889146
7364860 26 18262236754383313798
7808743 9 17977665312721966680
81228 2 17987221404412167069
90316 7 17418099844847821789
9709674 26 18339083799485753565
9925002 15 16598726973263525247

> <PUBCHEM_SHAPE_MULTIPOLES>
349.62
7.53
2.86
1.06
1.5
0.22
-0.16
0.86
-1.66
-0.94
0.37
-0.53
0.13
1.31

> <PUBCHEM_SHAPE_SELFOVERLAP>
733.219

> <PUBCHEM_SHAPE_VOLUME>
199.3

> <PUBCHEM_COORDINATE_TYPE>
2
5
10

$$$$

