92903
  -OEChem-07051213033D

 20 20  0     1  0  0  0  0  0999 V2000
   -0.6228    1.4822   -0.9738 O   0  0  0  0  0  0  0  0  0  0  0  0
   -2.2943   -0.5250    0.1372 O   0  0  0  0  0  0  0  0  0  0  0  0
   -0.4197    0.9989    0.3541 C   0  0  1  0  0  0  0  0  0  0  0  0
   -0.9144   -0.4457    0.4776 C   0  0  2  0  0  0  0  0  0  0  0  0
    1.0740    1.0875    0.6703 C   0  0  0  0  0  0  0  0  0  0  0  0
   -0.1064   -1.4065   -0.3958 C   0  0  0  0  0  0  0  0  0  0  0  0
    1.8989    0.1217   -0.1848 C   0  0  0  0  0  0  0  0  0  0  0  0
    1.3847   -1.3132   -0.0848 C   0  0  0  0  0  0  0  0  0  0  0  0
   -0.9971    1.6479    1.0218 H   0  0  0  0  0  0  0  0  0  0  0  0
   -0.8256   -0.7564    1.5262 H   0  0  0  0  0  0  0  0  0  0  0  0
    1.2363    0.8593    1.7307 H   0  0  0  0  0  0  0  0  0  0  0  0
    1.4376    2.1068    0.4954 H   0  0  0  0  0  0  0  0  0  0  0  0
   -0.2854   -1.1901   -1.4567 H   0  0  0  0  0  0  0  0  0  0  0  0
   -0.4562   -2.4342   -0.2408 H   0  0  0  0  0  0  0  0  0  0  0  0
    2.9478    0.1582    0.1307 H   0  0  0  0  0  0  0  0  0  0  0  0
    1.8730    0.4443   -1.2328 H   0  0  0  0  0  0  0  0  0  0  0  0
    1.9462   -1.9550   -0.7728 H   0  0  0  0  0  0  0  0  0  0  0  0
    1.5685   -1.6937    0.9276 H   0  0  0  0  0  0  0  0  0  0  0  0
   -0.3189    2.4056   -1.0002 H   0  0  0  0  0  0  0  0  0  0  0  0
   -2.5706   -1.4512    0.2442 H   0  0  0  0  0  0  0  0  0  0  0  0
  1  3  1  0  0  0  0
  1 19  1  0  0  0  0
  2  4  1  0  0  0  0
  2 20  1  0  0  0  0
  3  4  1  0  0  0  0
  3  5  1  0  0  0  0
  3  9  1  0  0  0  0
  4  6  1  0  0  0  0
  4 10  1  0  0  0  0
  5  7  1  0  0  0  0
  5 11  1  0  0  0  0
  5 12  1  0  0  0  0
  6  8  1  0  0  0  0
  6 13  1  0  0  0  0
  6 14  1  0  0  0  0
  7  8  1  0  0  0  0
  7 15  1  0  0  0  0
  7 16  1  0  0  0  0
  8 17  1  0  0  0  0
  8 18  1  0  0  0  0
M  END
> <PUBCHEM_COMPOUND_CID>
92903

> <PUBCHEM_CONFORMER_RMSD>
0.4

> <PUBCHEM_CONFORMER_DIVERSEORDER>
1
2

> <PUBCHEM_MMFF94_PARTIAL_CHARGES>
6
1 -0.68
19 0.4
2 -0.68
20 0.4
3 0.28
4 0.28

> <PUBCHEM_EFFECTIVE_ROTOR_COUNT>
1.2

> <PUBCHEM_PHARMACOPHORE_FEATURES>
5
1 1 acceptor
1 1 donor
1 2 acceptor
1 2 donor
6 3 4 5 6 7 8 rings

> <PUBCHEM_HEAVY_ATOM_COUNT>
8

> <PUBCHEM_ATOM_DEF_STEREO_COUNT>
2

> <PUBCHEM_ATOM_UDEF_STEREO_COUNT>
0

> <PUBCHEM_BOND_DEF_STEREO_COUNT>
0

> <PUBCHEM_BOND_UDEF_STEREO_COUNT>
0

> <PUBCHEM_ISOTOPIC_ATOM_COUNT>
0

> <PUBCHEM_COMPONENT_COUNT>
1

> <PUBCHEM_CACTVS_TAUTO_COUNT>
1

> <PUBCHEM_CONFORMER_ID>
00016AE700000001

> <PUBCHEM_MMFF94_ENERGY>
8.6216

> <PUBCHEM_FEATURE_SELFOVERLAP>
25.378

> <PUBCHEM_SHAPE_FINGERPRINT>
12423570 1 10334342396979810648
137420 1 6942229423278543075
16714656 1 18339353051075164924
18185500 45 18191023391743188670
21040471 1 17902791860208104314
23552423 10 18054775437292995758
24536 1 17754741863798580970
29004967 10 18129653106545799467
5084963 1 18342452698886882994

> <PUBCHEM_SHAPE_MULTIPOLES>
152.9
2.16
1.65
0.81
0.26
0.03
-0.07
0.31
0.06
-0.14
-0.15
0.04
-0.19
0.2

> <PUBCHEM_SHAPE_SELFOVERLAP>
295.972

> <PUBCHEM_SHAPE_VOLUME>
92

> <PUBCHEM_COORDINATE_TYPE>
2
5
10

$$$$

