443269
  -OEChem-07051213013D

 44 46  0     0  0  0  0  0  0999 V2000
    8.4270   -0.9833    0.0049 Cl  0  0  0  0  0  0  0  0  0  0  0  0
    2.6834    1.6612   -0.9276 O   0  0  0  0  0  0  0  0  0  0  0  0
   -2.0874    0.2710   -0.0431 N   0  0  0  0  0  0  0  0  0  0  0  0
   -3.6044    2.1375    0.1023 N   0  0  0  0  0  0  0  0  0  0  0  0
   -1.2894    2.4770   -0.0197 N   0  0  0  0  0  0  0  0  0  0  0  0
    0.5861    1.0153   -0.1968 N   0  0  0  0  0  0  0  0  0  0  0  0
    0.7826    3.3975   -0.1546 N   0  0  0  0  0  0  0  0  0  0  0  0
   -4.4494   -0.1270    0.0784 C   0  0  0  0  0  0  0  0  0  0  0  0
   -3.1245   -0.5844   -0.0115 C   0  0  0  0  0  0  0  0  0  0  0  0
   -4.6195    1.2536    0.1320 C   0  0  0  0  0  0  0  0  0  0  0  0
   -3.9793   -2.8651   -0.0353 C   0  0  0  0  0  0  0  0  0  0  0  0
   -2.9141   -1.9601   -0.0672 C   0  0  0  0  0  0  0  0  0  0  0  0
   -5.5258   -1.0307    0.1109 C   0  0  0  0  0  0  0  0  0  0  0  0
   -5.2866   -2.4002    0.0537 C   0  0  0  0  0  0  0  0  0  0  0  0
   -2.3836    1.5851    0.0150 C   0  0  0  0  0  0  0  0  0  0  0  0
   -5.9783    1.8696    0.2286 C   0  0  0  0  0  0  0  0  0  0  0  0
   -3.7113   -4.3312   -0.0963 C   0  0  0  0  0  0  0  0  0  0  0  0
    3.9578   -0.5454    0.2315 C   0  0  0  0  0  0  0  0  0  0  0  0
    2.4608   -0.3997    0.3082 C   0  0  0  0  0  0  0  0  0  0  0  0
    4.5271   -1.1815   -0.8623 C   0  0  0  0  0  0  0  0  0  0  0  0
    4.7463   -0.0420    1.2567 C   0  0  0  0  0  0  0  0  0  0  0  0
    0.0688    2.2135   -0.1265 C   0  0  0  0  0  0  0  0  0  0  0  0
    1.9504    0.8799   -0.3264 C   0  0  0  0  0  0  0  0  0  0  0  0
    5.9135   -1.3174   -0.9328 C   0  0  0  0  0  0  0  0  0  0  0  0
    6.1329   -0.1778    1.1864 C   0  0  0  0  0  0  0  0  0  0  0  0
    6.7165   -0.8153    0.0916 C   0  0  0  0  0  0  0  0  0  0  0  0
   -1.8949   -2.3375   -0.1388 H   0  0  0  0  0  0  0  0  0  0  0  0
   -6.5566   -0.6943    0.1797 H   0  0  0  0  0  0  0  0  0  0  0  0
   -6.1247   -3.0911    0.0776 H   0  0  0  0  0  0  0  0  0  0  0  0
   -5.9106    2.9628    0.2596 H   0  0  0  0  0  0  0  0  0  0  0  0
   -6.5867    1.6055   -0.6422 H   0  0  0  0  0  0  0  0  0  0  0  0
   -6.4856    1.5485    1.1439 H   0  0  0  0  0  0  0  0  0  0  0  0
   -3.6120   -4.6518   -1.1381 H   0  0  0  0  0  0  0  0  0  0  0  0
   -2.7905   -4.5840    0.4403 H   0  0  0  0  0  0  0  0  0  0  0  0
   -4.5205   -4.9042    0.3691 H   0  0  0  0  0  0  0  0  0  0  0  0
    1.9775   -1.2500   -0.1888 H   0  0  0  0  0  0  0  0  0  0  0  0
    2.1400   -0.4205    1.3572 H   0  0  0  0  0  0  0  0  0  0  0  0
   -1.5799    3.4492    0.0306 H   0  0  0  0  0  0  0  0  0  0  0  0
    3.9106   -1.5741   -1.6661 H   0  0  0  0  0  0  0  0  0  0  0  0
    4.3015    0.4579    2.1125 H   0  0  0  0  0  0  0  0  0  0  0  0
    6.3545   -1.8162   -1.7920 H   0  0  0  0  0  0  0  0  0  0  0  0
    6.7461    0.2186    1.9917 H   0  0  0  0  0  0  0  0  0  0  0  0
    1.7939    3.4135   -0.2258 H   0  0  0  0  0  0  0  0  0  0  0  0
    0.3144    4.2954   -0.0978 H   0  0  0  0  0  0  0  0  0  0  0  0
  1 26  1  0  0  0  0
  2 23  2  0  0  0  0
  3  9  2  0  0  0  0
  3 15  1  0  0  0  0
  4 10  1  0  0  0  0
  4 15  2  0  0  0  0
  5 15  1  0  0  0  0
  5 22  1  0  0  0  0
  5 38  1  0  0  0  0
  6 22  2  0  0  0  0
  6 23  1  0  0  0  0
  7 22  1  0  0  0  0
  7 43  1  0  0  0  0
  7 44  1  0  0  0  0
  8  9  1  0  0  0  0
  8 10  2  0  0  0  0
  8 13  1  0  0  0  0
  9 12  1  0  0  0  0
 10 16  1  0  0  0  0
 11 12  2  0  0  0  0
 11 14  1  0  0  0  0
 11 17  1  0  0  0  0
 12 27  1  0  0  0  0
 13 14  2  0  0  0  0
 13 28  1  0  0  0  0
 14 29  1  0  0  0  0
 16 30  1  0  0  0  0
 16 31  1  0  0  0  0
 16 32  1  0  0  0  0
 17 33  1  0  0  0  0
 17 34  1  0  0  0  0
 17 35  1  0  0  0  0
 18 19  1  0  0  0  0
 18 20  2  0  0  0  0
 18 21  1  0  0  0  0
 19 23  1  0  0  0  0
 19 36  1  0  0  0  0
 19 37  1  0  0  0  0
 20 24  1  0  0  0  0
 20 39  1  0  0  0  0
 21 25  2  0  0  0  0
 21 40  1  0  0  0  0
 24 26  2  0  0  0  0
 24 41  1  0  0  0  0
 25 26  1  0  0  0  0
 25 42  1  0  0  0  0
M  END
> <PUBCHEM_COMPOUND_CID>
443269

> <PUBCHEM_CONFORMER_RMSD>
0.8

> <PUBCHEM_CONFORMER_DIVERSEORDER>
1
147
73
190
221
122
189
68
230
245
144
114
113
273
127
8
94
149
156
49
110
42
293
124
35
186
283
299
20
112
199
34
270
266
282
59
76
100
236
175
262
161
205
125
258
129
284
86
207
145
158
192
54
63
295
155
287
229
24
244
120
18
276
21
90
88
193
294
242
225
215
10
9
81
291
52
259
252
234
17
95
183
292
286
191
67
213
228
165
46
269
51
162
197
196
79
233
224
222
260
198
134
288
182
72
285
75
96
83
264
84
14
6
231
180
280
16
133
211
55
65
195
226
101
3
87
216
261
257
249
126
140
239
203
154
36
92
139
247
116
27
13
274
137
253
184
166
256
220
157
250
279
223
246
45
123
271
105
206
265
11
148
5
168
99
22
173
267
66
171
29
218
219
172
268
235
57
61
209
39
106
289
47
160
33
50
281
272
210
181
152
93
4
131
130
102
167
170
31
243
43
188
177
290
19
121
30
159
41
254
135
164
109
151
200
232
108
251
204
179
217
37
97
194
255
298
56
132
58
70
263
237
163
78
118
26
178
60
185
44
296
277
117
146
28
227
128
40
138
174
103
80
248
212
176
85
23
208
278
238
214
143
53
64
2
98
48
91
15
71
104
202
240
62
201
89
32
82
38
275
12
136
107
187
25
115
300
150
241
141
169
74
7
297
153
142
111
69
119
77

> <PUBCHEM_MMFF94_PARTIAL_CHARGES>
35
1 -0.18
10 0.17
11 -0.14
12 -0.15
13 -0.15
14 -0.15
15 0.72
16 0.14
17 0.14
18 -0.14
19 0.2
2 -0.57
20 -0.15
21 -0.15
22 0.55
23 0.72
24 -0.15
25 -0.15
26 0.18
27 0.15
28 0.15
29 0.15
3 -0.62
38 0.4
39 0.15
4 -0.62
40 0.15
41 0.15
42 0.15
43 0.4
44 0.4
5 -0.55
6 -0.66
7 -0.85
9 0.31

> <PUBCHEM_EFFECTIVE_ROTOR_COUNT>
5

> <PUBCHEM_PHARMACOPHORE_FEATURES>
9
1 2 acceptor
1 3 acceptor
1 5 donor
1 6 donor
1 7 donor
4 3 4 5 15 cation
6 18 20 21 24 25 26 rings
6 3 4 8 9 10 15 rings
6 8 9 11 12 13 14 rings

> <PUBCHEM_HEAVY_ATOM_COUNT>
26

> <PUBCHEM_ATOM_DEF_STEREO_COUNT>
0

> <PUBCHEM_ATOM_UDEF_STEREO_COUNT>
0

> <PUBCHEM_BOND_DEF_STEREO_COUNT>
0

> <PUBCHEM_BOND_UDEF_STEREO_COUNT>
0

> <PUBCHEM_ISOTOPIC_ATOM_COUNT>
0

> <PUBCHEM_COMPONENT_COUNT>
1

> <PUBCHEM_CACTVS_TAUTO_COUNT>
11

> <PUBCHEM_CONFORMER_ID>
0006C38500000001

> <PUBCHEM_MMFF94_ENERGY>
78.7088

> <PUBCHEM_FEATURE_SELFOVERLAP>
45.827

> <PUBCHEM_SHAPE_FINGERPRINT>
10050765 1 18339079268543916429
10391435 84 18410303493007516304
10411042 1 18122063105841828235
10693767 8 17539143757844228815
10940486 97 18272367607314386573
11045977 3 17968105230537130640
11524674 6 17386011688659554615
12107183 9 18410848906773648089
12643181 29 18412267263334149839
12760667 363 18335423427062526983
12838862 33 18268445675249765829
13402501 40 18260547848535409734
13911882 115 17895186749428865246
14068700 675 18272088301691285620
14117953 113 18408324376489077455
14251751 18 18335421227253125634
14394314 77 18341612667402723321
14420673 8 18410570695692123963
14866123 147 18410005504425345803
15021287 119 17489295417601440397
15183329 4 17989211446916496394
15250474 111 18342739580995655079
15348495 7 18186525375763162128
15352361 1 18410573955271445847
15537594 2 17989205992386924971
15728490 51 18412265009346621068
16110190 28 18335981991152673493
16120349 21 18336815426258657491
17138139 8 17846505794636148042
17492 89 18123187897119087619
17627616 140 17987245601947411203
17780758 139 18040712589168635873
18608769 82 18408326601682666538
19301676 85 17834684799240757007
20028762 73 18411419506106066674
20567600 70 18410857629603838432
21033648 29 17531826700200257250
21054139 6 18060137665898021154
21267235 1 18341890771425841619
21623969 137 17240481434073016542
23428019 142 17346315955906124875
23522609 53 17914869098330071548
23559900 14 18335990778830393337
249057 3 18342740732838200749
3004659 81 18202563969126023164
312425 54 17967806210523745554
335352 9 18411984685289628005
3383291 50 18411418385198899579
3882209 13 17107380903717682774
397830 11 18115320981795862944
4073 2 18407478869153073602
44062 13 18411697660845665103
4409770 3 18058179508440230653
4625314 4 18410572921176175956
5104073 3 18189046521861683689
559249 180 18341895203958496571

> <PUBCHEM_SHAPE_MULTIPOLES>
506.16
19.82
3.69
0.83
27.29
1.35
-0.07
9.59
-1.49
-6.55
0.31
1.08
0.05
0.09

> <PUBCHEM_SHAPE_SELFOVERLAP>
1089.339

> <PUBCHEM_SHAPE_VOLUME>
278.8

> <PUBCHEM_COORDINATE_TYPE>
2
5
10

$$$$

