13307
  -OEChem-06261208463D

 39 41  0     1  0  0  0  0  0999 V2000
   -0.0824    0.9634   -1.8003 O   0  0  0  0  0  0  0  0  0  0  0  0
    2.0564   -1.7933    1.2840 O   0  0  0  0  0  0  0  0  0  0  0  0
   -2.2792   -2.7448    0.2156 O   0  0  0  0  0  0  0  0  0  0  0  0
    1.0206   -0.3492   -0.2299 N   0  0  0  0  0  0  0  0  0  0  0  0
   -0.1074   -2.2172    0.7152 N   0  0  0  0  0  0  0  0  0  0  0  0
    2.2310    0.4563   -0.3794 C   0  0  0  0  0  0  0  0  0  0  0  0
    2.5992    1.0972    0.9633 C   0  0  0  0  0  0  0  0  0  0  0  0
    3.3751   -0.4157   -0.9079 C   0  0  0  0  0  0  0  0  0  0  0  0
    3.9038    1.8861    0.8643 C   0  0  0  0  0  0  0  0  0  0  0  0
    4.6785    0.3755   -1.0050 C   0  0  0  0  0  0  0  0  0  0  0  0
    5.0431    1.0247    0.3270 C   0  0  0  0  0  0  0  0  0  0  0  0
   -0.0993    0.0255   -0.9971 C   0  0  0  0  0  0  0  0  0  0  0  0
   -1.3727   -0.7682   -0.7925 C   0  0  1  0  0  0  0  0  0  0  0  0
    1.0589   -1.4656    0.6353 C   0  0  0  0  0  0  0  0  0  0  0  0
   -1.3097   -1.9979    0.0761 C   0  0  0  0  0  0  0  0  0  0  0  0
   -2.4516    0.1426   -0.2923 C   0  0  0  0  0  0  0  0  0  0  0  0
   -3.7478    0.0124   -0.7819 C   0  0  0  0  0  0  0  0  0  0  0  0
   -2.1510    1.1128    0.6592 C   0  0  0  0  0  0  0  0  0  0  0  0
   -4.7526    0.8603   -0.3160 C   0  0  0  0  0  0  0  0  0  0  0  0
   -3.1559    1.9606    1.1250 C   0  0  0  0  0  0  0  0  0  0  0  0
   -4.4567    1.8344    0.6373 C   0  0  0  0  0  0  0  0  0  0  0  0
    2.0642    1.2652   -1.1006 H   0  0  0  0  0  0  0  0  0  0  0  0
    2.7143    0.3657    1.7681 H   0  0  0  0  0  0  0  0  0  0  0  0
    1.7934    1.7706    1.2816 H   0  0  0  0  0  0  0  0  0  0  0  0
    3.1129   -0.8004   -1.9016 H   0  0  0  0  0  0  0  0  0  0  0  0
    3.5772   -1.2944   -0.2910 H   0  0  0  0  0  0  0  0  0  0  0  0
    4.1725    2.2809    1.8507 H   0  0  0  0  0  0  0  0  0  0  0  0
    3.7576    2.7503    0.2046 H   0  0  0  0  0  0  0  0  0  0  0  0
    4.5767    1.1519   -1.7733 H   0  0  0  0  0  0  0  0  0  0  0  0
    5.4899   -0.2865   -1.3280 H   0  0  0  0  0  0  0  0  0  0  0  0
    5.9428    1.6380    0.2043 H   0  0  0  0  0  0  0  0  0  0  0  0
    5.2853    0.2438    1.0584 H   0  0  0  0  0  0  0  0  0  0  0  0
   -1.6314   -1.1328   -1.7977 H   0  0  0  0  0  0  0  0  0  0  0  0
   -0.0676   -3.0333    1.3197 H   0  0  0  0  0  0  0  0  0  0  0  0
   -3.9920   -0.7430   -1.5237 H   0  0  0  0  0  0  0  0  0  0  0  0
   -1.1523    1.2228    1.0719 H   0  0  0  0  0  0  0  0  0  0  0  0
   -5.7656    0.7617   -0.6951 H   0  0  0  0  0  0  0  0  0  0  0  0
   -2.9268    2.7163    1.8707 H   0  0  0  0  0  0  0  0  0  0  0  0
   -5.2394    2.4937    1.0010 H   0  0  0  0  0  0  0  0  0  0  0  0
  1 12  2  0  0  0  0
  2 14  2  0  0  0  0
  3 15  2  0  0  0  0
  4  6  1  0  0  0  0
  4 12  1  0  0  0  0
  4 14  1  0  0  0  0
  5 14  1  0  0  0  0
  5 15  1  0  0  0  0
  5 34  1  0  0  0  0
  6  7  1  0  0  0  0
  6  8  1  0  0  0  0
  6 22  1  0  0  0  0
  7  9  1  0  0  0  0
  7 23  1  0  0  0  0
  7 24  1  0  0  0  0
  8 10  1  0  0  0  0
  8 25  1  0  0  0  0
  8 26  1  0  0  0  0
  9 11  1  0  0  0  0
  9 27  1  0  0  0  0
  9 28  1  0  0  0  0
 10 11  1  0  0  0  0
 10 29  1  0  0  0  0
 10 30  1  0  0  0  0
 11 31  1  0  0  0  0
 11 32  1  0  0  0  0
 12 13  1  0  0  0  0
 13 15  1  0  0  0  0
 13 16  1  0  0  0  0
 13 33  1  0  0  0  0
 16 17  2  0  0  0  0
 16 18  1  0  0  0  0
 17 19  1  0  0  0  0
 17 35  1  0  0  0  0
 18 20  2  0  0  0  0
 18 36  1  0  0  0  0
 19 21  2  0  0  0  0
 19 37  1  0  0  0  0
 20 21  1  0  0  0  0
 20 38  1  0  0  0  0
 21 39  1  0  0  0  0
M  END
> <PUBCHEM_COMPOUND_CID>
13307

> <PUBCHEM_CONFORMER_RMSD>
0.6

> <PUBCHEM_CONFORMER_DIVERSEORDER>
1
7
8
6
5
3
4
2
10
9

> <PUBCHEM_MMFF94_PARTIAL_CHARGES>
22
1 -0.57
12 0.57
13 0.27
14 0.69
15 0.57
16 -0.14
17 -0.15
18 -0.15
19 -0.15
2 -0.57
20 -0.15
21 -0.15
3 -0.57
34 0.37
35 0.15
36 0.15
37 0.15
38 0.15
39 0.15
4 -0.42
5 -0.49
6 0.3

> <PUBCHEM_EFFECTIVE_ROTOR_COUNT>
3.8

> <PUBCHEM_PHARMACOPHORE_FEATURES>
8
1 1 acceptor
1 13 anion
1 2 acceptor
1 3 acceptor
1 5 donor
6 16 17 18 19 20 21 rings
6 4 5 12 13 14 15 rings
6 6 7 8 9 10 11 rings

> <PUBCHEM_HEAVY_ATOM_COUNT>
21

> <PUBCHEM_ATOM_DEF_STEREO_COUNT>
0

> <PUBCHEM_ATOM_UDEF_STEREO_COUNT>
1

> <PUBCHEM_BOND_DEF_STEREO_COUNT>
0

> <PUBCHEM_BOND_UDEF_STEREO_COUNT>
0

> <PUBCHEM_ISOTOPIC_ATOM_COUNT>
0

> <PUBCHEM_COMPONENT_COUNT>
1

> <PUBCHEM_CACTVS_TAUTO_COUNT>
3

> <PUBCHEM_CONFORMER_ID>
000033FB00000001

> <PUBCHEM_MMFF94_ENERGY>
47.6446

> <PUBCHEM_FEATURE_SELFOVERLAP>
40.594

> <PUBCHEM_SHAPE_FINGERPRINT>
10382601 240 17845936346106985498
10493431 412 18272086093449828197
10498660 4 18261396697435038809
10646746 165 18335138653234181408
11132069 177 18060143115557021814
11405975 8 18408323268402916442
12236239 1 18408887373660232245
12293681 4 18113329826045768608
12390115 104 18270106899948810812
12633257 1 18271541809957610096
12644460 14 17774726479976720418
13140716 1 17916580912920991700
13149001 5 5616667709578586661
13464514 151 18187920724812035178
13583140 156 17241326855139934486
14123255 52 18410011074027094801
14178342 30 18202002075444607642
14739800 52 18042708185724990992
14787075 74 18048043969614973943
14955137 171 17345731058880336356
15209294 21 18412829079273754132
15238133 3 18115035224414861896
15309172 13 17917991680743961782
15534591 1 18333452040830449671
1741750 31 18410013225668631531
18186145 218 18408889572013756549
19784866 170 17561362906826617492
200 152 6627468497252612221
20261772 1 17704073984415741116
204376 136 18201715163133842991
20510252 161 18122906430104421483
20645477 70 16660633090665412892
20739085 24 17844238742844623596
21033648 29 18341622550381382229
21524375 3 18335418014865514415
22079108 93 18409726253629407217
23227448 37 18262238811461580409
23402539 116 18186525384590402053
23557571 272 18190177880102207695
23558518 356 17911515398437646516
23559900 14 18334572435158768684
25147074 1 18199767919483551890
2637199 183 18261668272268824394
283562 15 18055075350237624707
3472631 163 17895753040893644761
350125 39 17985553492469725740
351380 180 17822012012294806036
4028521 119 18187366536418129681
474 4 18341331115274850060
5104073 3 18344149197952318938
633830 44 18114465681676136805
7495541 125 14851899014621223701

> <PUBCHEM_SHAPE_MULTIPOLES>
404.6
9.5
2.35
1.23
2.51
0.82
0.15
-5.78
0.19
-1.03
-0.99
0.33
-0.05
-0.19

> <PUBCHEM_SHAPE_SELFOVERLAP>
869.139

> <PUBCHEM_SHAPE_VOLUME>
218.8

> <PUBCHEM_COORDINATE_TYPE>
2
5
10

$$$$

