14127
  -OEChem-06241222423D

 34 34  0     0  0  0  0  0  0999 V2000
   -0.2074    0.3235    0.0404 O   0  0  0  0  0  0  0  0  0  0  0  0
    0.7696    2.3877    0.3294 O   0  0  0  0  0  0  0  0  0  0  0  0
    5.7091   -1.5818   -0.1832 O   0  0  0  0  0  0  0  0  0  0  0  0
   -3.9641    0.3775    0.0041 C   0  0  0  0  0  0  0  0  0  0  0  0
   -5.0518   -0.6935   -0.1175 C   0  0  0  0  0  0  0  0  0  0  0  0
   -2.5458   -0.1886   -0.0467 C   0  0  0  0  0  0  0  0  0  0  0  0
   -6.4709   -0.1242   -0.0914 C   0  0  0  0  0  0  0  0  0  0  0  0
   -1.5007    0.9080    0.1107 C   0  0  0  0  0  0  0  0  0  0  0  0
   -7.5131   -1.2314   -0.1419 C   0  0  0  0  0  0  0  0  0  0  0  0
    0.8442    1.1800    0.1651 C   0  0  0  0  0  0  0  0  0  0  0  0
    2.1331    0.4487    0.0733 C   0  0  0  0  0  0  0  0  0  0  0  0
    3.2351    1.1010   -0.4403 C   0  0  0  0  0  0  0  0  0  0  0  0
    2.1889   -0.8611    0.5044 C   0  0  0  0  0  0  0  0  0  0  0  0
    4.4458    0.4137   -0.5269 C   0  0  0  0  0  0  0  0  0  0  0  0
    3.3996   -1.5485    0.4180 C   0  0  0  0  0  0  0  0  0  0  0  0
    4.5283   -0.9110   -0.0975 C   0  0  0  0  0  0  0  0  0  0  0  0
   -4.1037    0.9211    0.9468 H   0  0  0  0  0  0  0  0  0  0  0  0
   -4.0899    1.1086   -0.8042 H   0  0  0  0  0  0  0  0  0  0  0  0
   -4.9044   -1.2518   -1.0503 H   0  0  0  0  0  0  0  0  0  0  0  0
   -4.9343   -1.4125    0.7030 H   0  0  0  0  0  0  0  0  0  0  0  0
   -2.3830   -0.7167   -0.9945 H   0  0  0  0  0  0  0  0  0  0  0  0
   -2.4083   -0.9382    0.7424 H   0  0  0  0  0  0  0  0  0  0  0  0
   -6.6174    0.4655    0.8208 H   0  0  0  0  0  0  0  0  0  0  0  0
   -6.6153    0.5513   -0.9423 H   0  0  0  0  0  0  0  0  0  0  0  0
   -1.6100    1.6480   -0.6908 H   0  0  0  0  0  0  0  0  0  0  0  0
   -1.6236    1.4072    1.0791 H   0  0  0  0  0  0  0  0  0  0  0  0
   -8.5205   -0.8041   -0.1248 H   0  0  0  0  0  0  0  0  0  0  0  0
   -7.4108   -1.8246   -1.0563 H   0  0  0  0  0  0  0  0  0  0  0  0
   -7.4145   -1.9030    0.7169 H   0  0  0  0  0  0  0  0  0  0  0  0
    3.1826    2.1309   -0.7809 H   0  0  0  0  0  0  0  0  0  0  0  0
    1.3285   -1.3755    0.9219 H   0  0  0  0  0  0  0  0  0  0  0  0
    5.3174    0.9212   -0.9315 H   0  0  0  0  0  0  0  0  0  0  0  0
    3.4583   -2.5794    0.7565 H   0  0  0  0  0  0  0  0  0  0  0  0
    6.3811   -0.9898   -0.5626 H   0  0  0  0  0  0  0  0  0  0  0  0
  1  8  1  0  0  0  0
  1 10  1  0  0  0  0
  2 10  2  0  0  0  0
  3 16  1  0  0  0  0
  3 34  1  0  0  0  0
  4  5  1  0  0  0  0
  4  6  1  0  0  0  0
  4 17  1  0  0  0  0
  4 18  1  0  0  0  0
  5  7  1  0  0  0  0
  5 19  1  0  0  0  0
  5 20  1  0  0  0  0
  6  8  1  0  0  0  0
  6 21  1  0  0  0  0
  6 22  1  0  0  0  0
  7  9  1  0  0  0  0
  7 23  1  0  0  0  0
  7 24  1  0  0  0  0
  8 25  1  0  0  0  0
  8 26  1  0  0  0  0
  9 27  1  0  0  0  0
  9 28  1  0  0  0  0
  9 29  1  0  0  0  0
 10 11  1  0  0  0  0
 11 12  2  0  0  0  0
 11 13  1  0  0  0  0
 12 14  1  0  0  0  0
 12 30  1  0  0  0  0
 13 15  2  0  0  0  0
 13 31  1  0  0  0  0
 14 16  2  0  0  0  0
 14 32  1  0  0  0  0
 15 16  1  0  0  0  0
 15 33  1  0  0  0  0
M  END
> <PUBCHEM_COMPOUND_CID>
14127

> <PUBCHEM_CONFORMER_RMSD>
0.8

> <PUBCHEM_CONFORMER_DIVERSEORDER>
1
45
83
61
17
43
5
47
18
53
85
8
55
4
74
27
63
79
21
71
41
66
12
2
67
16
77
68
87
84
13
62
65
15
39
78
51
76
92
46
31
86
30
24
81
3
42
11
36
64
57
90
37
80
82
10
33
48
69
32
72
28
75
44
26
56
9
52
25
70
40
60
34
38
59
6
91
23
29
54
50
89
88
14
19
7
49
22
73
35
58
20

> <PUBCHEM_MMFF94_PARTIAL_CHARGES>
16
1 -0.43
10 0.63
11 0.09
12 -0.15
13 -0.15
14 -0.15
15 -0.15
16 0.08
2 -0.57
3 -0.53
30 0.15
31 0.15
32 0.15
33 0.15
34 0.45
8 0.28

> <PUBCHEM_EFFECTIVE_ROTOR_COUNT>
7

> <PUBCHEM_PHARMACOPHORE_FEATURES>
5
1 2 acceptor
1 3 donor
1 9 hydrophobe
4 4 5 6 7 hydrophobe
6 11 12 13 14 15 16 rings

> <PUBCHEM_HEAVY_ATOM_COUNT>
16

> <PUBCHEM_ATOM_DEF_STEREO_COUNT>
0

> <PUBCHEM_ATOM_UDEF_STEREO_COUNT>
0

> <PUBCHEM_BOND_DEF_STEREO_COUNT>
0

> <PUBCHEM_BOND_UDEF_STEREO_COUNT>
0

> <PUBCHEM_ISOTOPIC_ATOM_COUNT>
0

> <PUBCHEM_COMPONENT_COUNT>
1

> <PUBCHEM_CACTVS_TAUTO_COUNT>
3

> <PUBCHEM_CONFORMER_ID>
0000372F00000001

> <PUBCHEM_MMFF94_ENERGY>
26.6735

> <PUBCHEM_FEATURE_SELFOVERLAP>
25.372

> <PUBCHEM_SHAPE_FINGERPRINT>
106641 1 17458352918522563154
12236239 1 18186798084954259905
125118 31 6915993569203605707
12596602 18 17385442128862130595
12714333 28 12463569578134985351
13533116 47 18260830350230830937
13668630 136 18408038528971785071
13685833 64 18409166614926972563
13836976 161 18272928315336407950
13862211 1 18409448111125474483
14251764 18 18186799167233205857
14350574 20 18272371962721460045
14576447 43 18271242828772984250
15183329 4 18271530888156079689
15188451 53 15864652578486553997
15348495 7 14201690706561415143
17834072 33 18410856547108432573
200 152 18408886260651974040
20369508 70 18334861593020082176
20526848 3 9871743611469164295
20645477 70 18342176695529903690
21130983 4 10447931681252944951
21150785 3 11599725040159788027
21267235 1 18335978748784700446
221357 26 18273219698966226629
2215653 11 18272938202788790991
23402539 116 17822014216467434885
23522609 53 18120342481439085705
23559900 14 18269277864108066241
28498 318 18409732877107177359
2871803 45 18060420235347229882
29717793 49 18409163328955160045
3004659 81 18202284714467926490
3472631 163 11959716179709683778
351380 3 18333453144885055463
46194498 28 17418093182989263357
465052 167 18261107452925273711
6327066 14 17271425913443106220

> <PUBCHEM_SHAPE_MULTIPOLES>
311.66
16.72
1.65
0.67
27.53
0.24
0
-8.54
1.97
-1.41
-0.13
-0.16
0
-0.31

> <PUBCHEM_SHAPE_SELFOVERLAP>
625.343

> <PUBCHEM_SHAPE_VOLUME>
183.9

> <PUBCHEM_COORDINATE_TYPE>
2
5
10

$$$$

