3008110
  -OEChem-07051212563D

 35 37  0     0  0  0  0  0  0999 V2000
    2.5575    1.7626    0.0119 O   0  0  0  0  0  0  0  0  0  0  0  0
    0.7238   -2.6868   -0.0420 O   0  0  0  0  0  0  0  0  0  0  0  0
   -4.5884    0.8397    0.2566 O   0  0  0  0  0  0  0  0  0  0  0  0
   -1.8230   -2.9771    0.0465 O   0  0  0  0  0  0  0  0  0  0  0  0
    3.2643   -2.2462   -0.1219 O   0  0  0  0  0  0  0  0  0  0  0  0
   -0.9158    0.6161    0.1119 C   0  0  0  0  0  0  0  0  0  0  0  0
   -0.7524   -0.7897    0.0676 C   0  0  0  0  0  0  0  0  0  0  0  0
   -2.2109    1.1551    0.1757 C   0  0  0  0  0  0  0  0  0  0  0  0
    1.6573   -0.4919   -0.0157 C   0  0  0  0  0  0  0  0  0  0  0  0
    0.5417   -1.3330    0.0037 C   0  0  0  0  0  0  0  0  0  0  0  0
    1.4986    0.8896    0.0280 C   0  0  0  0  0  0  0  0  0  0  0  0
    0.2192    1.4433    0.0913 C   0  0  0  0  0  0  0  0  0  0  0  0
   -1.8899   -1.6133    0.0883 C   0  0  0  0  0  0  0  0  0  0  0  0
   -3.3293    0.3215    0.1954 C   0  0  0  0  0  0  0  0  0  0  0  0
   -3.1692   -1.0601    0.1519 C   0  0  0  0  0  0  0  0  0  0  0  0
    3.0180   -1.0486   -0.0817 C   0  0  0  0  0  0  0  0  0  0  0  0
   -2.4369    2.6371    0.2240 C   0  0  0  0  0  0  0  0  0  0  0  0
    3.8398    1.2417   -0.0501 C   0  0  0  0  0  0  0  0  0  0  0  0
    4.1211   -0.0686   -0.0958 C   0  0  0  0  0  0  0  0  0  0  0  0
    4.9087    2.2887   -0.0620 C   0  0  0  0  0  0  0  0  0  0  0  0
   -5.2343    1.1197   -0.9834 C   0  0  0  0  0  0  0  0  0  0  0  0
    0.1370    2.5271    0.1180 H   0  0  0  0  0  0  0  0  0  0  0  0
   -4.0491   -1.6991    0.1684 H   0  0  0  0  0  0  0  0  0  0  0  0
   -3.4775    2.9200    0.4072 H   0  0  0  0  0  0  0  0  0  0  0  0
   -1.8647    3.0862    1.0434 H   0  0  0  0  0  0  0  0  0  0  0  0
   -2.1373    3.0959   -0.7243 H   0  0  0  0  0  0  0  0  0  0  0  0
    5.1366   -0.4440   -0.1438 H   0  0  0  0  0  0  0  0  0  0  0  0
   -0.0989   -3.1433   -0.2723 H   0  0  0  0  0  0  0  0  0  0  0  0
    4.7837    2.9460   -0.9285 H   0  0  0  0  0  0  0  0  0  0  0  0
    5.9127    1.8547   -0.1113 H   0  0  0  0  0  0  0  0  0  0  0  0
    4.8501    2.8984    0.8454 H   0  0  0  0  0  0  0  0  0  0  0  0
   -2.7198   -3.3522    0.0698 H   0  0  0  0  0  0  0  0  0  0  0  0
   -4.6281    1.7886   -1.6024 H   0  0  0  0  0  0  0  0  0  0  0  0
   -6.1878    1.6103   -0.7696 H   0  0  0  0  0  0  0  0  0  0  0  0
   -5.4335    0.1894   -1.5246 H   0  0  0  0  0  0  0  0  0  0  0  0
  1 11  1  0  0  0  0
  1 18  1  0  0  0  0
  2 10  1  0  0  0  0
  2 28  1  0  0  0  0
  3 14  1  0  0  0  0
  3 21  1  0  0  0  0
  4 13  1  0  0  0  0
  4 32  1  0  0  0  0
  5 16  2  0  0  0  0
  6  7  1  0  0  0  0
  6  8  1  0  0  0  0
  6 12  2  0  0  0  0
  7 10  2  0  0  0  0
  7 13  1  0  0  0  0
  8 14  2  0  0  0  0
  8 17  1  0  0  0  0
  9 10  1  0  0  0  0
  9 11  2  0  0  0  0
  9 16  1  0  0  0  0
 11 12  1  0  0  0  0
 12 22  1  0  0  0  0
 13 15  2  0  0  0  0
 14 15  1  0  0  0  0
 15 23  1  0  0  0  0
 16 19  1  0  0  0  0
 17 24  1  0  0  0  0
 17 25  1  0  0  0  0
 17 26  1  0  0  0  0
 18 19  2  0  0  0  0
 18 20  1  0  0  0  0
 19 27  1  0  0  0  0
 20 29  1  0  0  0  0
 20 30  1  0  0  0  0
 20 31  1  0  0  0  0
 21 33  1  0  0  0  0
 21 34  1  0  0  0  0
 21 35  1  0  0  0  0
M  END
> <PUBCHEM_COMPOUND_CID>
3008110

> <PUBCHEM_CONFORMER_RMSD>
0.6

> <PUBCHEM_CONFORMER_DIVERSEORDER>
1

> <PUBCHEM_MMFF94_PARTIAL_CHARGES>
24
1 -0.16
10 0.08
11 0.08
12 -0.15
13 0.08
14 0.08
15 -0.15
16 0.47
17 0.14
18 -0.06
19 -0.14
2 -0.53
20 0.14
21 0.28
22 0.15
23 0.15
27 0.15
28 0.45
3 -0.36
32 0.45
4 -0.53
5 -0.57
8 -0.14
9 0.09

> <PUBCHEM_EFFECTIVE_ROTOR_COUNT>
1

> <PUBCHEM_PHARMACOPHORE_FEATURES>
8
1 1 acceptor
1 2 donor
1 3 acceptor
1 4 donor
1 5 acceptor
6 1 9 11 16 18 19 rings
6 6 7 8 13 14 15 rings
6 6 7 9 10 11 12 rings

> <PUBCHEM_HEAVY_ATOM_COUNT>
21

> <PUBCHEM_ATOM_DEF_STEREO_COUNT>
0

> <PUBCHEM_ATOM_UDEF_STEREO_COUNT>
0

> <PUBCHEM_BOND_DEF_STEREO_COUNT>
0

> <PUBCHEM_BOND_UDEF_STEREO_COUNT>
0

> <PUBCHEM_ISOTOPIC_ATOM_COUNT>
0

> <PUBCHEM_COMPONENT_COUNT>
1

> <PUBCHEM_CACTVS_TAUTO_COUNT>
67

> <PUBCHEM_CONFORMER_ID>
002DE66E00000001

> <PUBCHEM_MMFF94_ENERGY>
79.861

> <PUBCHEM_FEATURE_SELFOVERLAP>
40.663

> <PUBCHEM_SHAPE_FINGERPRINT>
10366900 7 17822295656135010593
10411042 1 17402049393154725635
10498660 4 18410853231167067116
10608611 8 18410011044051922936
10616163 171 18337667491096786542
10967382 1 18410291445196930938
1100329 8 17185312587017765689
11132069 177 18411983537689081088
11370993 70 18411704308996090405
11471102 20 18410295851664578117
12173636 292 18410575101953991125
12403259 415 18129662027652244517
12403260 363 18265060317259229177
12969540 114 18200331995282128037
13140716 1 18412824702865896042
138480 1 17546163464296088667
14790565 3 18191860339768833001
15196674 1 18410855442974848291
15442244 35 18266457783927641138
15536298 74 18335136505755756126
16945 1 18337665420827500379
17492 89 18411135831462866690
19591789 44 18267302221283661003
200 152 18040724696897701173
20510252 161 18334007268174301120
20645477 70 18335139838255025095
21267235 1 18337662126529763434
21421861 104 17917162701165079906
21501502 16 18409731750918624610
21859007 373 17558010582037145156
22182313 1 18265029393326380215
23227448 37 18410575046203656437
2334 1 18410008802157992282
23366157 5 18130785673080837082
23402539 116 18335990765665494364
23402655 69 18334014981924975997
23559900 14 18334857225792339206
238 59 17265292076571936477
2748010 2 18337666404248495047
335352 9 18338797939342399430
34934 24 18411423881964876784
350125 39 18267581488689717320
3545911 37 18411697668955727148
474 4 17774715368970288724
495365 180 17531543004988847616
5104073 3 18412542106717806563
69090 78 18409169930631052047
7364860 26 18335980986404801694
9709674 26 18408316675158943622
9981440 41 18197780990893147082

> <PUBCHEM_SHAPE_MULTIPOLES>
402.82
9.01
2.89
0.66
0.08
0.81
0.05
-4.39
1.1
0.39
-0.03
-0.28
-0.09
0.2

> <PUBCHEM_SHAPE_SELFOVERLAP>
900.115

> <PUBCHEM_SHAPE_VOLUME>
215

> <PUBCHEM_COORDINATE_TYPE>
2
5
10

$$$$

