46173950
  -OEChem-07051213103D

 92 95  0     1  0  0  0  0  0999 V2000
   -0.4255    1.9113    0.1079 O   0  0  0  0  0  0  0  0  0  0  0  0
   -3.7871    0.4874    0.3161 O   0  0  0  0  0  0  0  0  0  0  0  0
   -0.1315    0.4384   -1.7034 O   0  0  0  0  0  0  0  0  0  0  0  0
    3.2548   -0.2603   -0.7474 O   0  0  0  0  0  0  0  0  0  0  0  0
   -3.7841    3.3344   -0.1430 O   0  0  0  0  0  0  0  0  0  0  0  0
   -3.8840   -1.7779   -0.3610 O   0  0  0  0  0  0  0  0  0  0  0  0
    3.8749   -1.3513    1.2588 O   0  0  0  0  0  0  0  0  0  0  0  0
    2.4203    1.9758   -2.1052 O   0  0  0  0  0  0  0  0  0  0  0  0
   -7.4207   -0.3063   -1.9141 O   0  0  0  0  0  0  0  0  0  0  0  0
   -7.4810   -2.0051    0.4044 O   0  0  0  0  0  0  0  0  0  0  0  0
    7.5384   -0.9219   -0.6067 O   0  0  0  0  0  0  0  0  0  0  0  0
    6.2936   -3.5108   -0.4910 O   0  0  0  0  0  0  0  0  0  0  0  0
   -0.4246   -2.3433   -2.0650 O   0  0  0  0  0  0  0  0  0  0  0  0
    2.7080   -3.7518    1.8316 O   0  0  0  0  0  0  0  0  0  0  0  0
    5.8023    2.8381    1.0766 O   0  0  0  0  0  0  0  0  0  0  0  0
   -1.1285    0.8145    2.8369 N   0  0  0  0  0  0  0  0  0  0  0  0
   -1.1257    3.8113    2.3544 N   0  0  0  0  0  0  0  0  0  0  0  0
   -4.9963    1.2847   -2.1446 N   0  0  0  0  0  0  0  0  0  0  0  0
    5.6505    1.2905   -0.6559 N   0  0  0  0  0  0  0  0  0  0  0  0
   -3.7277   -3.7606    1.6238 N   0  0  0  0  0  0  0  0  0  0  0  0
   -1.8408    1.8870   -0.0510 C   0  0  1  0  0  0  0  0  0  0  0  0
   -2.4427    0.7156    0.7450 C   0  0  1  0  0  0  0  0  0  0  0  0
   -2.4692    0.9478    2.2669 C   0  0  2  0  0  0  0  0  0  0  0  0
   -2.4401    3.2503    0.3366 C   0  0  2  0  0  0  0  0  0  0  0  0
   -2.4667    3.5081    1.8542 C   0  0  1  0  0  0  0  0  0  0  0  0
   -3.0833    2.3174    2.6121 C   0  0  0  0  0  0  0  0  0  0  0  0
    0.2350    1.7118   -1.1361 C   0  0  2  0  0  0  0  0  0  0  0  0
    1.9265    0.1850   -0.5739 C   0  0  1  0  0  0  0  0  0  0  0  0
    1.7369    1.6532   -0.8981 C   0  0  1  0  0  0  0  0  0  0  0  0
    0.9719   -0.4731   -1.5567 C   0  0  1  0  0  0  0  0  0  0  0  0
   -3.8301   -0.4134   -0.7885 C   0  0  1  0  0  0  0  0  0  0  0  0
   -5.0280   -0.1078   -1.6959 C   0  0  1  0  0  0  0  0  0  0  0  0
    4.0074   -0.1711    0.4607 C   0  0  1  0  0  0  0  0  0  0  0  0
   -6.3471   -0.4118   -0.9774 C   0  0  2  0  0  0  0  0  0  0  0  0
    5.4892    0.0884    0.1628 C   0  0  1  0  0  0  0  0  0  0  0  0
   -6.3257   -1.8371   -0.4137 C   0  0  1  0  0  0  0  0  0  0  0  0
   -5.0533   -2.0912    0.4036 C   0  0  1  0  0  0  0  0  0  0  0  0
    6.1260   -1.1225   -0.5280 C   0  0  2  0  0  0  0  0  0  0  0  0
    5.8553   -2.3957    0.2814 C   0  0  1  0  0  0  0  0  0  0  0  0
    0.4611   -1.8236   -1.0869 C   0  0  0  0  0  0  0  0  0  0  0  0
    4.3652   -2.5333    0.6168 C   0  0  1  0  0  0  0  0  0  0  0  0
   -4.9294   -3.5513    0.8305 C   0  0  0  0  0  0  0  0  0  0  0  0
    4.0971   -3.6997    1.5640 C   0  0  0  0  0  0  0  0  0  0  0  0
    5.7926    2.5589   -0.1194 C   0  0  0  0  0  0  0  0  0  0  0  0
    5.9662    3.6109   -1.1820 C   0  0  0  0  0  0  0  0  0  0  0  0
   -2.1068    1.7475   -1.1074 H   0  0  0  0  0  0  0  0  0  0  0  0
   -1.8498   -0.1927    0.5690 H   0  0  0  0  0  0  0  0  0  0  0  0
   -3.1026    0.1795    2.7291 H   0  0  0  0  0  0  0  0  0  0  0  0
   -1.8757    4.0473   -0.1642 H   0  0  0  0  0  0  0  0  0  0  0  0
   -3.0964    4.3838    2.0573 H   0  0  0  0  0  0  0  0  0  0  0  0
   -4.1562    2.2805    2.3784 H   0  0  0  0  0  0  0  0  0  0  0  0
   -3.0297    2.4917    3.6954 H   0  0  0  0  0  0  0  0  0  0  0  0
   -0.0396    2.5068   -1.8394 H   0  0  0  0  0  0  0  0  0  0  0  0
    1.5709   -0.0173    0.4473 H   0  0  0  0  0  0  0  0  0  0  0  0
    2.0969    2.3128   -0.1031 H   0  0  0  0  0  0  0  0  0  0  0  0
    1.4301   -0.5863   -2.5475 H   0  0  0  0  0  0  0  0  0  0  0  0
   -2.9242   -0.3188   -1.4002 H   0  0  0  0  0  0  0  0  0  0  0  0
   -4.9658   -0.7487   -2.5857 H   0  0  0  0  0  0  0  0  0  0  0  0
    3.6411    0.6686    1.0658 H   0  0  0  0  0  0  0  0  0  0  0  0
   -6.5454    0.3139   -0.1791 H   0  0  0  0  0  0  0  0  0  0  0  0
    6.0129    0.2628    1.1125 H   0  0  0  0  0  0  0  0  0  0  0  0
   -1.1738    0.9189    3.8496 H   0  0  0  0  0  0  0  0  0  0  0  0
   -0.7700   -0.1226    2.6588 H   0  0  0  0  0  0  0  0  0  0  0  0
   -6.4011   -2.5581   -1.2367 H   0  0  0  0  0  0  0  0  0  0  0  0
   -5.0658   -1.4731    1.3121 H   0  0  0  0  0  0  0  0  0  0  0  0
   -1.1711    4.0297    3.3488 H   0  0  0  0  0  0  0  0  0  0  0  0
   -0.7666    4.6450    1.8915 H   0  0  0  0  0  0  0  0  0  0  0  0
    5.7646   -1.2315   -1.5575 H   0  0  0  0  0  0  0  0  0  0  0  0
   -4.1089    4.2315    0.0447 H   0  0  0  0  0  0  0  0  0  0  0  0
    6.4534   -2.3801    1.2005 H   0  0  0  0  0  0  0  0  0  0  0  0
   -0.0967   -1.7305   -0.1499 H   0  0  0  0  0  0  0  0  0  0  0  0
    1.2851   -2.5297   -0.9475 H   0  0  0  0  0  0  0  0  0  0  0  0
    3.7777   -2.7045   -0.2947 H   0  0  0  0  0  0  0  0  0  0  0  0
    2.2332    2.9091   -2.3040 H   0  0  0  0  0  0  0  0  0  0  0  0
   -5.8016   -3.8565    1.4177 H   0  0  0  0  0  0  0  0  0  0  0  0
   -4.8745   -4.1980   -0.0529 H   0  0  0  0  0  0  0  0  0  0  0  0
   -5.7713    1.4553   -2.7840 H   0  0  0  0  0  0  0  0  0  0  0  0
   -4.1418    1.4555   -2.6729 H   0  0  0  0  0  0  0  0  0  0  0  0
    5.6007    1.1862   -1.6654 H   0  0  0  0  0  0  0  0  0  0  0  0
    4.6155   -3.5541    2.5176 H   0  0  0  0  0  0  0  0  0  0  0  0
    4.4094   -4.6515    1.1239 H   0  0  0  0  0  0  0  0  0  0  0  0
   -7.2589   -0.9412   -2.6326 H   0  0  0  0  0  0  0  0  0  0  0  0
   -7.4095   -1.3914    1.1553 H   0  0  0  0  0  0  0  0  0  0  0  0
    7.8795   -0.8142    0.2975 H   0  0  0  0  0  0  0  0  0  0  0  0
    5.7466   -3.5536   -1.2938 H   0  0  0  0  0  0  0  0  0  0  0  0
   -0.7425   -3.2015   -1.7362 H   0  0  0  0  0  0  0  0  0  0  0  0
   -3.6263   -4.7530    1.8323 H   0  0  0  0  0  0  0  0  0  0  0  0
   -2.9069   -3.4959    1.0807 H   0  0  0  0  0  0  0  0  0  0  0  0
    2.5600   -4.4981    2.4370 H   0  0  0  0  0  0  0  0  0  0  0  0
    5.9654    4.6033   -0.7227 H   0  0  0  0  0  0  0  0  0  0  0  0
    6.9167    3.4563   -1.7001 H   0  0  0  0  0  0  0  0  0  0  0  0
    5.1446    3.5559   -1.9018 H   0  0  0  0  0  0  0  0  0  0  0  0
  1 21  1  0  0  0  0
  1 27  1  0  0  0  0
  2 22  1  0  0  0  0
  2 31  1  0  0  0  0
  3 27  1  0  0  0  0
  3 30  1  0  0  0  0
  4 28  1  0  0  0  0
  4 33  1  0  0  0  0
  5 24  1  0  0  0  0
  5 69  1  0  0  0  0
  6 31  1  0  0  0  0
  6 37  1  0  0  0  0
  7 33  1  0  0  0  0
  7 41  1  0  0  0  0
  8 29  1  0  0  0  0
  8 74  1  0  0  0  0
  9 34  1  0  0  0  0
  9 82  1  0  0  0  0
 10 36  1  0  0  0  0
 10 83  1  0  0  0  0
 11 38  1  0  0  0  0
 11 84  1  0  0  0  0
 12 39  1  0  0  0  0
 12 85  1  0  0  0  0
 13 40  1  0  0  0  0
 13 86  1  0  0  0  0
 14 43  1  0  0  0  0
 14 89  1  0  0  0  0
 15 44  2  0  0  0  0
 16 23  1  0  0  0  0
 16 62  1  0  0  0  0
 16 63  1  0  0  0  0
 17 25  1  0  0  0  0
 17 66  1  0  0  0  0
 17 67  1  0  0  0  0
 18 32  1  0  0  0  0
 18 77  1  0  0  0  0
 18 78  1  0  0  0  0
 19 35  1  0  0  0  0
 19 44  1  0  0  0  0
 19 79  1  0  0  0  0
 20 42  1  0  0  0  0
 20 87  1  0  0  0  0
 20 88  1  0  0  0  0
 21 22  1  0  0  0  0
 21 24  1  0  0  0  0
 21 46  1  0  0  0  0
 22 23  1  0  0  0  0
 22 47  1  0  0  0  0
 23 26  1  0  0  0  0
 23 48  1  0  0  0  0
 24 25  1  0  0  0  0
 24 49  1  0  0  0  0
 25 26  1  0  0  0  0
 25 50  1  0  0  0  0
 26 51  1  0  0  0  0
 26 52  1  0  0  0  0
 27 29  1  0  0  0  0
 27 53  1  0  0  0  0
 28 29  1  0  0  0  0
 28 30  1  0  0  0  0
 28 54  1  0  0  0  0
 29 55  1  0  0  0  0
 30 40  1  0  0  0  0
 30 56  1  0  0  0  0
 31 32  1  0  0  0  0
 31 57  1  0  0  0  0
 32 34  1  0  0  0  0
 32 58  1  0  0  0  0
 33 35  1  0  0  0  0
 33 59  1  0  0  0  0
 34 36  1  0  0  0  0
 34 60  1  0  0  0  0
 35 38  1  0  0  0  0
 35 61  1  0  0  0  0
 36 37  1  0  0  0  0
 36 64  1  0  0  0  0
 37 42  1  0  0  0  0
 37 65  1  0  0  0  0
 38 39  1  0  0  0  0
 38 68  1  0  0  0  0
 39 41  1  0  0  0  0
 39 70  1  0  0  0  0
 40 71  1  0  0  0  0
 40 72  1  0  0  0  0
 41 43  1  0  0  0  0
 41 73  1  0  0  0  0
 42 75  1  0  0  0  0
 42 76  1  0  0  0  0
 43 80  1  0  0  0  0
 43 81  1  0  0  0  0
 44 45  1  0  0  0  0
 45 90  1  0  0  0  0
 45 91  1  0  0  0  0
 45 92  1  0  0  0  0
M  END
> <PUBCHEM_COMPOUND_CID>
46173950

> <PUBCHEM_CONFORMER_RMSD>
1.4

> <PUBCHEM_CONFORMER_DIVERSEORDER>
1
5
9
21
7
17
18
15
16
8
12
23
19
10
24
13
22
6
4
3
11
20
14
2

> <PUBCHEM_MMFF94_PARTIAL_CHARGES>
61
1 -0.56
10 -0.68
11 -0.68
12 -0.68
13 -0.68
14 -0.68
15 -0.57
16 -0.99
17 -0.99
18 -0.99
19 -0.73
2 -0.56
20 -0.99
21 0.28
22 0.28
23 0.27
24 0.28
25 0.27
27 0.56
28 0.28
29 0.28
3 -0.56
30 0.28
31 0.56
32 0.27
33 0.56
34 0.28
35 0.3
36 0.28
37 0.28
38 0.28
39 0.28
4 -0.56
40 0.28
41 0.28
42 0.27
43 0.28
44 0.57
45 0.06
5 -0.68
6 -0.56
62 0.36
63 0.36
66 0.36
67 0.36
69 0.4
7 -0.56
74 0.4
77 0.36
78 0.36
79 0.37
8 -0.68
82 0.4
83 0.4
84 0.4
85 0.4
86 0.4
87 0.36
88 0.36
89 0.4
9 -0.68

> <PUBCHEM_EFFECTIVE_ROTOR_COUNT>
15.6

> <PUBCHEM_PHARMACOPHORE_FEATURES>
36
1 1 acceptor
1 10 acceptor
1 10 donor
1 11 acceptor
1 11 donor
1 12 acceptor
1 12 donor
1 13 acceptor
1 13 donor
1 14 acceptor
1 14 donor
1 15 acceptor
1 16 cation
1 16 donor
1 17 cation
1 17 donor
1 18 cation
1 18 donor
1 19 donor
1 2 acceptor
1 20 cation
1 20 donor
1 3 acceptor
1 4 acceptor
1 5 acceptor
1 5 donor
1 6 acceptor
1 7 acceptor
1 8 acceptor
1 8 donor
1 9 acceptor
1 9 donor
5 3 27 28 29 30 rings
6 21 22 23 24 25 26 rings
6 6 31 32 34 36 37 rings
6 7 33 35 38 39 41 rings

> <PUBCHEM_HEAVY_ATOM_COUNT>
45

> <PUBCHEM_ATOM_DEF_STEREO_COUNT>
19

> <PUBCHEM_ATOM_UDEF_STEREO_COUNT>
0

> <PUBCHEM_BOND_DEF_STEREO_COUNT>
0

> <PUBCHEM_BOND_UDEF_STEREO_COUNT>
0

> <PUBCHEM_ISOTOPIC_ATOM_COUNT>
0

> <PUBCHEM_COMPONENT_COUNT>
1

> <PUBCHEM_CACTVS_TAUTO_COUNT>
2

> <PUBCHEM_CONFORMER_ID>
02C08EFE00000001

> <PUBCHEM_MMFF94_ENERGY>
107.0896

> <PUBCHEM_FEATURE_SELFOVERLAP>
182.835

> <PUBCHEM_SHAPE_FINGERPRINT>
11456790 92 18337658734813979219
117089 54 18044933726410373966
12106331 60 18186523240958765607
13560911 23 18262238953828537088
13811026 1 18271531922314848287
14068700 675 17676498224481135901
14118638 360 18113615673710883084
15001296 14 18273221901984009626
15183329 4 14549023177799476885
15328829 1 18336823083863612852
15347590 135 18262245391968644216
19315092 285 18335991955983209472
21223535 225 15338298791506435495
22223350 30 17606979295296539983
392239 28 16443074889108278003
42767 28 18273219711260506170
469060 322 17749657542007174065
6086070 43 18194128640894030404
6523845 18 15068621600083725220
77296 10 18272653441407699325

> <PUBCHEM_SHAPE_MULTIPOLES>
813.13
18.93
5.23
2.22
5.08
0.42
-0.75
8.48
3.62
1.92
-2.54
-1.86
-0.77
-2.12

> <PUBCHEM_SHAPE_SELFOVERLAP>
1681.107

> <PUBCHEM_SHAPE_VOLUME>
457.9

> <PUBCHEM_COORDINATE_TYPE>
2
5
10

$$$$

