180912
  -OEChem-07051213043D

 24 25  0     0  0  0  0  0  0999 V2000
   -0.0764   -2.7154    0.0001 Cl  0  0  0  0  0  0  0  0  0  0  0  0
   -0.0788    2.7165    0.0009 Cl  0  0  0  0  0  0  0  0  0  0  0  0
   -3.2531    2.6885    0.0000 Cl  0  0  0  0  0  0  0  0  0  0  0  0
   -3.2509   -2.6900   -0.0007 Cl  0  0  0  0  0  0  0  0  0  0  0  0
   -4.4094   -0.0010   -0.0010 O   0  0  0  0  0  0  0  0  0  0  0  0
    5.3545   -0.0012   -0.0004 O   0  0  0  0  0  0  0  0  0  0  0  0
   -0.2429    0.0002    0.0006 C   0  0  0  0  0  0  0  0  0  0  0  0
    1.2039    0.0009    0.0000 C   0  0  0  0  0  0  0  0  0  0  0  0
   -0.9503   -1.2079    0.0003 C   0  0  0  0  0  0  0  0  0  0  0  0
   -0.9512    1.2080    0.0007 C   0  0  0  0  0  0  0  0  0  0  0  0
    1.9011    0.0019   -1.2080 C   0  0  0  0  0  0  0  0  0  0  0  0
    1.9015   -0.0003    1.2080 C   0  0  0  0  0  0  0  0  0  0  0  0
   -2.3460    1.2076    0.0004 C   0  0  0  0  0  0  0  0  0  0  0  0
   -2.3451   -1.2084    0.0000 C   0  0  0  0  0  0  0  0  0  0  0  0
   -3.0430   -0.0007    0.0000 C   0  0  0  0  0  0  0  0  0  0  0  0
    3.2960    0.0015   -1.2082 C   0  0  0  0  0  0  0  0  0  0  0  0
    3.2964   -0.0006    1.2077 C   0  0  0  0  0  0  0  0  0  0  0  0
    3.9936    0.0003   -0.0004 C   0  0  0  0  0  0  0  0  0  0  0  0
    1.3727    0.0026   -2.1586 H   0  0  0  0  0  0  0  0  0  0  0  0
    1.3736   -0.0013    2.1587 H   0  0  0  0  0  0  0  0  0  0  0  0
    3.8274    0.0019   -2.1561 H   0  0  0  0  0  0  0  0  0  0  0  0
    3.8343   -0.0018    2.1518 H   0  0  0  0  0  0  0  0  0  0  0  0
   -4.7185    0.9213   -0.0009 H   0  0  0  0  0  0  0  0  0  0  0  0
    5.6696   -0.0007   -0.9206 H   0  0  0  0  0  0  0  0  0  0  0  0
  1  9  1  0  0  0  0
  2 10  1  0  0  0  0
  3 13  1  0  0  0  0
  4 14  1  0  0  0  0
  5 15  1  0  0  0  0
  5 23  1  0  0  0  0
  6 18  1  0  0  0  0
  6 24  1  0  0  0  0
  7  8  1  0  0  0  0
  7  9  2  0  0  0  0
  7 10  1  0  0  0  0
  8 11  2  0  0  0  0
  8 12  1  0  0  0  0
  9 14  1  0  0  0  0
 10 13  2  0  0  0  0
 11 16  1  0  0  0  0
 11 19  1  0  0  0  0
 12 17  2  0  0  0  0
 12 20  1  0  0  0  0
 13 15  1  0  0  0  0
 14 15  2  0  0  0  0
 16 18  2  0  0  0  0
 16 21  1  0  0  0  0
 17 18  1  0  0  0  0
 17 22  1  0  0  0  0
M  END
> <PUBCHEM_COMPOUND_CID>
180912

> <PUBCHEM_CONFORMER_RMSD>
0.6

> <PUBCHEM_CONFORMER_DIVERSEORDER>
1

> <PUBCHEM_MMFF94_PARTIAL_CHARGES>
22
1 -0.18
10 0.18
11 -0.15
12 -0.15
13 0.18
14 0.18
15 0.08
16 -0.15
17 -0.15
18 0.08
19 0.15
2 -0.18
20 0.15
21 0.15
22 0.15
23 0.45
24 0.45
3 -0.18
4 -0.18
5 -0.53
6 -0.53
9 0.18

> <PUBCHEM_EFFECTIVE_ROTOR_COUNT>
1

> <PUBCHEM_PHARMACOPHORE_FEATURES>
4
1 5 donor
1 6 donor
6 7 9 10 13 14 15 rings
6 8 11 12 16 17 18 rings

> <PUBCHEM_HEAVY_ATOM_COUNT>
18

> <PUBCHEM_ATOM_DEF_STEREO_COUNT>
0

> <PUBCHEM_ATOM_UDEF_STEREO_COUNT>
0

> <PUBCHEM_BOND_DEF_STEREO_COUNT>
0

> <PUBCHEM_BOND_UDEF_STEREO_COUNT>
0

> <PUBCHEM_ISOTOPIC_ATOM_COUNT>
0

> <PUBCHEM_COMPONENT_COUNT>
1

> <PUBCHEM_CACTVS_TAUTO_COUNT>
4

> <PUBCHEM_CONFORMER_ID>
0002C2B000000001

> <PUBCHEM_MMFF94_ENERGY>
54.6826

> <PUBCHEM_FEATURE_SELFOVERLAP>
20.297

> <PUBCHEM_SHAPE_FINGERPRINT>
10411042 1 18122624947118511815
10493431 412 18191295182244361177
10498660 4 18338797943468853708
10967382 1 18410855507784408103
11132069 177 18410009935950172143
12236239 1 17703791422817377640
12390115 104 18044080466452360713
12500047 106 18336833094714642260
12553582 1 18268991999379587715
13103583 49 17555131854996406315
13140716 1 18266171730847979177
13538477 17 18130791122550252002
13581323 91 18411986862315456474
14614273 12 18200598119745113621
14790565 3 18338502132498327681
15042514 8 18339918195984429419
15219456 202 17821727277680043358
16752209 62 18340776965767310563
16945 1 18410855460782231043
17804303 29 18335702693956269763
18175812 5 17749393628835127804
18186145 218 17822286937430143968
19049666 15 17822845523876185990
200 152 16559037081759672596
20028762 73 17971467395931512039
20279233 1 17749385962297490030
20510252 161 18261672670305195481
20600515 1 18335132111852069748
20645476 183 17775003462127703003
20871999 31 18410005512170858748
21267235 1 18341885286256784274
2297311 6 18335409171912856980
23175994 123 17022614274154162512
23184049 29 18194967331588673547
2334 1 17978510828673342949
23366157 5 17770221552825082189
23402539 116 18335989696492762406
23526113 38 17603862364425152622
23557571 272 18259981595941931316
23559900 14 18189049953872459422
23598291 2 17846490392698405198
23598294 1 18341061769322278306
2748010 2 18122632643883749581
43471831 8 18341897458215655059
474 4 17130415784589418652
573450 72 18271816739208554162
5902787 121 18339926987317559129
69090 78 17530689792376461903
7364860 26 17830456437610618214
77492 1 17704072893462191232
81228 2 18262783172791172617
9709674 26 18261104227336574550

> <PUBCHEM_SHAPE_MULTIPOLES>
366.17
7.69
2.73
0.94
4.83
0
0
0
0
-3.41
0
0.85
0
0

> <PUBCHEM_SHAPE_SELFOVERLAP>
763.948

> <PUBCHEM_SHAPE_VOLUME>
211.9

> <PUBCHEM_COORDINATE_TYPE>
2
5
10

$$$$

