74688
  -OEChem-07051212503D

 22 23  0     0  0  0  0  0  0999 V2000
   -3.0087   -2.0660   -0.1399 O   0  0  0  0  0  0  0  0  0  0  0  0
    2.7755   -1.1870    1.3682 O   0  0  0  0  0  0  0  0  0  0  0  0
    0.3830    2.2334    0.1264 N   0  0  0  0  0  0  0  0  0  0  0  0
   -0.0393    0.0810   -0.2813 C   0  0  0  0  0  0  0  0  0  0  0  0
    1.3401    0.3375   -0.5191 C   0  0  0  0  0  0  0  0  0  0  0  0
   -0.6167    1.2868    0.1225 C   0  0  0  0  0  0  0  0  0  0  0  0
    1.5690    1.6693   -0.2600 C   0  0  0  0  0  0  0  0  0  0  0  0
    2.3527   -0.6410   -0.9634 C   0  0  0  0  0  0  0  0  0  0  0  0
   -0.8545   -1.0648   -0.3710 C   0  0  0  0  0  0  0  0  0  0  0  0
   -1.9740    1.4045    0.4424 C   0  0  0  0  0  0  0  0  0  0  0  0
   -2.2139   -0.9620   -0.0543 C   0  0  0  0  0  0  0  0  0  0  0  0
   -2.7629    0.2547    0.3460 C   0  0  0  0  0  0  0  0  0  0  0  0
    3.0500   -1.3465    0.1835 C   0  0  0  0  0  0  0  0  0  0  0  0
    2.4682    2.2671   -0.3145 H   0  0  0  0  0  0  0  0  0  0  0  0
    0.2583    3.2042    0.3783 H   0  0  0  0  0  0  0  0  0  0  0  0
    1.9031   -1.4105   -1.6003 H   0  0  0  0  0  0  0  0  0  0  0  0
    3.1285   -0.1433   -1.5568 H   0  0  0  0  0  0  0  0  0  0  0  0
   -0.4298   -2.0155   -0.6817 H   0  0  0  0  0  0  0  0  0  0  0  0
   -2.4023    2.3513    0.7541 H   0  0  0  0  0  0  0  0  0  0  0  0
   -3.8212    0.3186    0.5887 H   0  0  0  0  0  0  0  0  0  0  0  0
    3.8449   -2.0504   -0.1182 H   0  0  0  0  0  0  0  0  0  0  0  0
   -2.4695   -2.8212   -0.4313 H   0  0  0  0  0  0  0  0  0  0  0  0
  1 11  1  0  0  0  0
  1 22  1  0  0  0  0
  2 13  2  0  0  0  0
  3  6  1  0  0  0  0
  3  7  1  0  0  0  0
  3 15  1  0  0  0  0
  4  5  1  0  0  0  0
  4  6  2  0  0  0  0
  4  9  1  0  0  0  0
  5  7  2  0  0  0  0
  5  8  1  0  0  0  0
  6 10  1  0  0  0  0
  7 14  1  0  0  0  0
  8 13  1  0  0  0  0
  8 16  1  0  0  0  0
  8 17  1  0  0  0  0
  9 11  2  0  0  0  0
  9 18  1  0  0  0  0
 10 12  2  0  0  0  0
 10 19  1  0  0  0  0
 11 12  1  0  0  0  0
 12 20  1  0  0  0  0
 13 21  1  0  0  0  0
M  END
> <PUBCHEM_COMPOUND_CID>
74688

> <PUBCHEM_CONFORMER_RMSD>
0.6

> <PUBCHEM_CONFORMER_DIVERSEORDER>
1
4
3
2

> <PUBCHEM_MMFF94_PARTIAL_CHARGES>
19
1 -0.53
10 -0.15
11 0.08
12 -0.15
13 0.45
14 0.15
15 0.27
18 0.15
19 0.15
2 -0.57
20 0.15
21 0.06
22 0.45
3 0.03
5 -0.18
6 -0.15
7 -0.3
8 0.24
9 -0.15

> <PUBCHEM_EFFECTIVE_ROTOR_COUNT>
2

> <PUBCHEM_PHARMACOPHORE_FEATURES>
6
1 1 donor
1 2 acceptor
1 3 cation
1 3 donor
5 3 4 5 6 7 rings
6 4 6 9 10 11 12 rings

> <PUBCHEM_HEAVY_ATOM_COUNT>
13

> <PUBCHEM_ATOM_DEF_STEREO_COUNT>
0

> <PUBCHEM_ATOM_UDEF_STEREO_COUNT>
0

> <PUBCHEM_BOND_DEF_STEREO_COUNT>
0

> <PUBCHEM_BOND_UDEF_STEREO_COUNT>
0

> <PUBCHEM_ISOTOPIC_ATOM_COUNT>
0

> <PUBCHEM_COMPONENT_COUNT>
1

> <PUBCHEM_CACTVS_TAUTO_COUNT>
19

> <PUBCHEM_CONFORMER_ID>
000123C000000001

> <PUBCHEM_MMFF94_ENERGY>
18.7681

> <PUBCHEM_FEATURE_SELFOVERLAP>
30.537

> <PUBCHEM_SHAPE_FINGERPRINT>
10130415 120 18411414038047618377
10857977 72 18187367678900139652
11769659 78 18341614793595852007
12202030 40 16701727251263221171
12382932 28 18262801894637829898
12423570 1 8141268362548554934
12932764 1 18201991140484018565
15375462 189 18201712981485798114
16945 1 18264198295806095389
17804303 29 17829325032083313782
17990270 104 18261944163798677918
20645477 70 18192430762864999255
20653091 64 18340485565210622264
20871998 184 18114465664211424582
21501502 16 18336819797759780917
21501925 9 18335428919597613683
21650355 55 18195263315138964322
22445834 79 18200029676243768458
232386 152 18412258471689166846
2334 1 18336260124760852973
23388829 49 17899717673126144748
23463225 33 18411131463337701463
23552423 10 18198051491600798325
23559900 14 18117554257584457374
2748010 2 18335416833739140493
6338986 31 18189633673633914823
7364860 26 18189049794378667248

> <PUBCHEM_SHAPE_MULTIPOLES>
250.81
4.6
2.13
0.85
0.48
0.33
0.11
-2.39
0.62
-0.36
0.08
0.5
-0.16
-0.52

> <PUBCHEM_SHAPE_SELFOVERLAP>
547.023

> <PUBCHEM_SHAPE_VOLUME>
137.5

> <PUBCHEM_COORDINATE_TYPE>
2
5
10

$$$$

