9906
  -OEChem-06261204102D

 15 15  0     0  0  0  0  0  0999 V2000
    2.0000    0.5000    0.0000 F   0  0  0  0  0  0  0  0  0  0  0  0
    5.4641    0.5000    0.0000 F   0  0  0  0  0  0  0  0  0  0  0  0
    3.7320    2.5000    0.0000 F   0  0  0  0  0  0  0  0  0  0  0  0
    4.7320    1.5000    0.0000 F   0  0  0  0  0  0  0  0  0  0  0  0
    2.7320    1.5000    0.0000 F   0  0  0  0  0  0  0  0  0  0  0  0
    5.4641   -1.5000    0.0000 F   0  0  0  0  0  0  0  0  0  0  0  0
    2.0000   -1.5000    0.0000 F   0  0  0  0  0  0  0  0  0  0  0  0
    3.7320   -2.5000    0.0000 F   0  0  0  0  0  0  0  0  0  0  0  0
    3.7320    0.5000    0.0000 C   0  0  0  0  0  0  0  0  0  0  0  0
    2.8660    0.0000    0.0000 C   0  0  0  0  0  0  0  0  0  0  0  0
    4.5981    0.0000    0.0000 C   0  0  0  0  0  0  0  0  0  0  0  0
    3.7320    1.5000    0.0000 C   0  0  0  0  0  0  0  0  0  0  0  0
    4.5981   -1.0000    0.0000 C   0  0  0  0  0  0  0  0  0  0  0  0
    2.8660   -1.0000    0.0000 C   0  0  0  0  0  0  0  0  0  0  0  0
    3.7320   -1.5000    0.0000 C   0  0  0  0  0  0  0  0  0  0  0  0
  1 10  1  0  0  0  0
  2 11  1  0  0  0  0
  3 12  1  0  0  0  0
  4 12  1  0  0  0  0
  5 12  1  0  0  0  0
  6 13  1  0  0  0  0
  7 14  1  0  0  0  0
  8 15  1  0  0  0  0
  9 10  2  0  0  0  0
  9 11  1  0  0  0  0
  9 12  1  0  0  0  0
 10 14  1  0  0  0  0
 11 13  2  0  0  0  0
 13 15  1  0  0  0  0
 14 15  2  0  0  0  0
M  END
> <PUBCHEM_COMPOUND_CID>
9906

> <PUBCHEM_COMPOUND_CANONICALIZED>
1

> <PUBCHEM_CACTVS_COMPLEXITY>
210

> <PUBCHEM_CACTVS_HBOND_ACCEPTOR>
8

> <PUBCHEM_CACTVS_HBOND_DONOR>
0

> <PUBCHEM_CACTVS_ROTATABLE_BOND>
0

> <PUBCHEM_CACTVS_SUBSKEYS>
AAADcQBgAcAAAAAAAAAAAAAAAAAAAAAAAAAwAAAAAAAAAAABAAAACQAAAAAADAAAGBgAAIAAAACAAgBAAAACAAAgAAAAiAAAAIgIICKAEBCAIAAggAAIiAcAgAAOAAAAAAAAAAAAAAAAAAAAAAAAAAAAAA==

> <PUBCHEM_IUPAC_OPENEYE_NAME>
1,2,3,4,5-pentafluoro-6-(trifluoromethyl)benzene

> <PUBCHEM_IUPAC_CAS_NAME>
1,2,3,4,5-pentafluoro-6-(trifluoromethyl)benzene

> <PUBCHEM_IUPAC_NAME>
1,2,3,4,5-pentafluoro-6-(trifluoromethyl)benzene

> <PUBCHEM_IUPAC_SYSTEMATIC_NAME>
1,2,3,4,5-pentakis(fluoranyl)-6-(trifluoromethyl)benzene

> <PUBCHEM_IUPAC_TRADITIONAL_NAME>
1,2,3,4,5-pentafluoro-6-(trifluoromethyl)benzene

> <PUBCHEM_IUPAC_INCHI>
InChI=1S/C7F8/c8-2-1(7(13,14)15)3(9)5(11)6(12)4(2)10

> <PUBCHEM_IUPAC_INCHIKEY>
USPWUOFNOTUBAD-UHFFFAOYSA-N

> <PUBCHEM_XLOGP3_AA>
3.3

> <PUBCHEM_EXACT_MASS>
235.987226

> <PUBCHEM_MOLECULAR_FORMULA>
C7F8

> <PUBCHEM_MOLECULAR_WEIGHT>
236.062126

> <PUBCHEM_OPENEYE_CAN_SMILES>
C1(=C(C(=C(C(=C1F)F)F)F)F)C(F)(F)F

> <PUBCHEM_OPENEYE_ISO_SMILES>
C1(=C(C(=C(C(=C1F)F)F)F)F)C(F)(F)F

> <PUBCHEM_CACTVS_TPSA>
0

> <PUBCHEM_MONOISOTOPIC_WEIGHT>
235.987226

> <PUBCHEM_TOTAL_CHARGE>
0

> <PUBCHEM_HEAVY_ATOM_COUNT>
15

> <PUBCHEM_ATOM_DEF_STEREO_COUNT>
0

> <PUBCHEM_ATOM_UDEF_STEREO_COUNT>
0

> <PUBCHEM_BOND_DEF_STEREO_COUNT>
0

> <PUBCHEM_BOND_UDEF_STEREO_COUNT>
0

> <PUBCHEM_ISOTOPIC_ATOM_COUNT>
0

> <PUBCHEM_COMPONENT_COUNT>
1

> <PUBCHEM_CACTVS_TAUTO_COUNT>
1

> <PUBCHEM_COORDINATE_TYPE>
1
5
255

> <PUBCHEM_BONDANNOTATIONS>
10  14  8
11  13  8
13  15  8
14  15  8
9  10  8
9  11  8

$$$$

