7383
  -OEChem-06261202033D

 15 15  0     0  0  0  0  0  0999 V2000
    2.8970    0.1730    1.7763 Cl  0  0  0  0  0  0  0  0  0  0  0  0
   -2.6025    2.1849    0.0190 Cl  0  0  0  0  0  0  0  0  0  0  0  0
   -3.8269   -0.8090    0.1117 Cl  0  0  0  0  0  0  0  0  0  0  0  0
    2.3632    0.0944   -0.1984 S   0  0  0  0  0  0  0  0  0  0  0  0
    2.6384    1.4109   -0.7430 O   0  0  0  0  0  0  0  0  0  0  0  0
    3.0032   -1.1018   -0.7140 O   0  0  0  0  0  0  0  0  0  0  0  0
    0.6352   -0.1387   -0.1109 C   0  0  0  0  0  0  0  0  0  0  0  0
   -0.2172    0.9650   -0.0809 C   0  0  0  0  0  0  0  0  0  0  0  0
    0.1071   -1.4291   -0.0720 C   0  0  0  0  0  0  0  0  0  0  0  0
   -1.5978    0.7783   -0.0119 C   0  0  0  0  0  0  0  0  0  0  0  0
   -1.2736   -1.6158   -0.0030 C   0  0  0  0  0  0  0  0  0  0  0  0
   -2.1260   -0.5121    0.0270 C   0  0  0  0  0  0  0  0  0  0  0  0
    0.1900    1.9730   -0.1053 H   0  0  0  0  0  0  0  0  0  0  0  0
    0.7531   -2.3024   -0.0891 H   0  0  0  0  0  0  0  0  0  0  0  0
   -1.6680   -2.6284    0.0278 H   0  0  0  0  0  0  0  0  0  0  0  0
  1  4  1  0  0  0  0
  2 10  1  0  0  0  0
  3 12  1  0  0  0  0
  4  5  2  0  0  0  0
  4  6  2  0  0  0  0
  4  7  1  0  0  0  0
  7  8  2  0  0  0  0
  7  9  1  0  0  0  0
  8 10  1  0  0  0  0
  8 13  1  0  0  0  0
  9 11  2  0  0  0  0
  9 14  1  0  0  0  0
 10 12  2  0  0  0  0
 11 12  1  0  0  0  0
 11 15  1  0  0  0  0
M  END
> <PUBCHEM_COMPOUND_CID>
7383

> <PUBCHEM_CONFORMER_RMSD>
0.4

> <PUBCHEM_CONFORMER_DIVERSEORDER>
2
1

> <PUBCHEM_MMFF94_PARTIAL_CHARGES>
15
1 -0.19
10 0.18
11 -0.15
12 0.18
13 0.15
14 0.15
15 0.15
2 -0.18
3 -0.18
4 1.49
5 -0.65
6 -0.65
7 -0.01
8 -0.15
9 -0.15

> <PUBCHEM_EFFECTIVE_ROTOR_COUNT>
1

> <PUBCHEM_PHARMACOPHORE_FEATURES>
1
6 7 8 9 10 11 12 rings

> <PUBCHEM_HEAVY_ATOM_COUNT>
12

> <PUBCHEM_ATOM_DEF_STEREO_COUNT>
0

> <PUBCHEM_ATOM_UDEF_STEREO_COUNT>
0

> <PUBCHEM_BOND_DEF_STEREO_COUNT>
0

> <PUBCHEM_BOND_UDEF_STEREO_COUNT>
0

> <PUBCHEM_ISOTOPIC_ATOM_COUNT>
0

> <PUBCHEM_COMPONENT_COUNT>
1

> <PUBCHEM_CACTVS_TAUTO_COUNT>
1

> <PUBCHEM_CONFORMER_ID>
00001CD700000002

> <PUBCHEM_MMFF94_ENERGY>
16.8922

> <PUBCHEM_FEATURE_SELFOVERLAP>
5.074

> <PUBCHEM_SHAPE_FINGERPRINT>
10857977 72 18336833004567769467
11132069 177 18334298652136273091
12032990 46 18339633443952641243
12716758 59 18334296508478029011
12932764 1 17385725781218181836
13380535 21 18120642785261232159
13380535 76 18267306628484505269
13538477 17 18059580113948292538
14144814 61 18343864420039949960
14325111 11 18410851087878010261
15219456 202 17895202120715533282
15775835 57 17988072404615385036
16945 1 18336831896619265735
18186145 218 16950280706464946706
193761 8 18050845825832488967
20510252 161 18334293167178414137
20559304 39 18272375256681742882
20645464 45 17894926108800151178
20653085 51 18340755044048263177
20715346 28 18113344127991178920
21028194 46 18187081788501908842
21040471 1 18338236075777982485
21501502 16 18266454498093173311
23402539 116 18336277760128672727
23402655 69 18265350563603923565
23463225 33 18343302603926311226
23552423 10 18343016701065308206
23559900 14 18115585002342058334
2748010 2 18265328598312827407
3248919 1 18412270531746129428
369184 2 17022624164967966074
5084963 1 18261104201376489458
53812653 166 18190743230941860337
6333449 129 18335702797125337413
7364860 26 18335416817033985844
8030462 33 16988841691927213844

> <PUBCHEM_SHAPE_MULTIPOLES>
244.67
5.63
1.86
0.97
0.04
0.47
0.38
0.19
0.59
-1.11
-0.15
1
0.07
0.1

> <PUBCHEM_SHAPE_SELFOVERLAP>
469.309

> <PUBCHEM_SHAPE_VOLUME>
153.1

> <PUBCHEM_COORDINATE_TYPE>
2
5
10

$$$$

