9216
  -OEChem-07051212543D

 22 24  0     0  0  0  0  0  0999 V2000
    0.0000    1.4269    0.0001 O   0  0  0  0  0  0  0  0  0  0  0  0
    0.0000   -1.4269    0.0000 O   0  0  0  0  0  0  0  0  0  0  0  0
    1.1616    0.6970   -0.0001 C   0  0  0  0  0  0  0  0  0  0  0  0
   -1.1616    0.6971    0.0000 C   0  0  0  0  0  0  0  0  0  0  0  0
    1.1616   -0.6971    0.0000 C   0  0  0  0  0  0  0  0  0  0  0  0
   -1.1616   -0.6970    0.0000 C   0  0  0  0  0  0  0  0  0  0  0  0
    2.3668    1.3984    0.0000 C   0  0  0  0  0  0  0  0  0  0  0  0
   -2.3668    1.3984    0.0000 C   0  0  0  0  0  0  0  0  0  0  0  0
    2.3668   -1.3984   -0.0001 C   0  0  0  0  0  0  0  0  0  0  0  0
   -2.3668   -1.3984    0.0000 C   0  0  0  0  0  0  0  0  0  0  0  0
    3.5734    0.6981    0.0000 C   0  0  0  0  0  0  0  0  0  0  0  0
   -3.5734    0.6979    0.0000 C   0  0  0  0  0  0  0  0  0  0  0  0
    3.5734   -0.6979    0.0000 C   0  0  0  0  0  0  0  0  0  0  0  0
   -3.5733   -0.6980    0.0000 C   0  0  0  0  0  0  0  0  0  0  0  0
    2.3744    2.4847    0.0000 H   0  0  0  0  0  0  0  0  0  0  0  0
   -2.3746    2.4847    0.0000 H   0  0  0  0  0  0  0  0  0  0  0  0
    2.3746   -2.4847    0.0000 H   0  0  0  0  0  0  0  0  0  0  0  0
   -2.3746   -2.4847    0.0001 H   0  0  0  0  0  0  0  0  0  0  0  0
    4.5148    1.2399    0.0001 H   0  0  0  0  0  0  0  0  0  0  0  0
   -4.5148    1.2397   -0.0001 H   0  0  0  0  0  0  0  0  0  0  0  0
    4.5148   -1.2397    0.0001 H   0  0  0  0  0  0  0  0  0  0  0  0
   -4.5147   -1.2398    0.0000 H   0  0  0  0  0  0  0  0  0  0  0  0
  1  3  1  0  0  0  0
  1  4  1  0  0  0  0
  2  5  1  0  0  0  0
  2  6  1  0  0  0  0
  3  5  1  0  0  0  0
  3  7  2  0  0  0  0
  4  6  1  0  0  0  0
  4  8  2  0  0  0  0
  5  9  2  0  0  0  0
  6 10  2  0  0  0  0
  7 11  1  0  0  0  0
  7 15  1  0  0  0  0
  8 12  1  0  0  0  0
  8 16  1  0  0  0  0
  9 13  1  0  0  0  0
  9 17  1  0  0  0  0
 10 14  1  0  0  0  0
 10 18  1  0  0  0  0
 11 13  2  0  0  0  0
 11 19  1  0  0  0  0
 12 14  2  0  0  0  0
 12 20  1  0  0  0  0
 13 21  1  0  0  0  0
 14 22  1  0  0  0  0
M  END
> <PUBCHEM_COMPOUND_CID>
9216

> <PUBCHEM_CONFORMER_RMSD>
0.4

> <PUBCHEM_CONFORMER_DIVERSEORDER>
1

> <PUBCHEM_MMFF94_PARTIAL_CHARGES>
22
1 -0.17
10 -0.15
11 -0.15
12 -0.15
13 -0.15
14 -0.15
15 0.15
16 0.15
17 0.15
18 0.15
19 0.15
2 -0.17
20 0.15
21 0.15
22 0.15
3 0.08
4 0.08
5 0.08
6 0.08
7 -0.15
8 -0.15
9 -0.15

> <PUBCHEM_EFFECTIVE_ROTOR_COUNT>
0.4

> <PUBCHEM_PHARMACOPHORE_FEATURES>
5
1 1 acceptor
1 2 acceptor
6 1 2 3 4 5 6 rings
6 3 5 7 9 11 13 rings
6 4 6 8 10 12 14 rings

> <PUBCHEM_HEAVY_ATOM_COUNT>
14

> <PUBCHEM_ATOM_DEF_STEREO_COUNT>
0

> <PUBCHEM_ATOM_UDEF_STEREO_COUNT>
0

> <PUBCHEM_BOND_DEF_STEREO_COUNT>
0

> <PUBCHEM_BOND_UDEF_STEREO_COUNT>
0

> <PUBCHEM_ISOTOPIC_ATOM_COUNT>
0

> <PUBCHEM_COMPONENT_COUNT>
1

> <PUBCHEM_CACTVS_TAUTO_COUNT>
1

> <PUBCHEM_CONFORMER_ID>
0000240000000001

> <PUBCHEM_MMFF94_ENERGY>
42.7133

> <PUBCHEM_FEATURE_SELFOVERLAP>
25.449

> <PUBCHEM_SHAPE_FINGERPRINT>
10608611 8 18410859858175095136
10967382 1 18410855481634731238
11132069 177 18409736157333342464
11471102 20 18410860966350101460
12032990 46 18410849966865159107
13221675 6 18410856563940161538
13296908 3 18410854364911689699
13380535 76 18410575084663475175
14144814 61 18410575097547980954
14325111 11 18410575084668542048
15196674 1 18410575088958046208
15219456 202 18409730664027914252
15442244 35 18194119844304811082
15536298 74 18334295370760010372
15775835 57 18410569591399991780
16945 1 18410856563934756870
17844478 74 18060132154816514261
18186145 218 18131353037448184078
18522853 276 18407762533972125048
193761 8 17545884192431144982
200 152 18041008323642179037
20201158 50 18409729581701657762
20510252 161 18260265278394650001
20645477 70 18336831982503132007
21267235 1 18410565189058844674
21501502 16 18410573985151451136
21501925 9 18411710884844163370
2334 1 18410855434358358023
23402539 116 18261684721888047254
23402655 69 18335989748079972621
23463225 33 18412826897556870900
23559900 14 18335424616741996618
2748010 2 18410573985151451311
3312278 4 18409444773909252009
335352 9 18122626329516966303
5104073 3 18410856559639790560
528886 8 18410298012059540826
53812653 166 18333736784298475624
69090 78 18334299768759263279
7364860 26 18333450945988140454
8809292 202 18272083877173298907
9709674 26 18409725149380194214

> <PUBCHEM_SHAPE_MULTIPOLES>
276.37
6.48
1.69
0.6
0
0
0
0
0
0
0
0
0
0

> <PUBCHEM_SHAPE_SELFOVERLAP>
623.461

> <PUBCHEM_SHAPE_VOLUME>
143.9

> <PUBCHEM_COORDINATE_TYPE>
2
5
10

$$$$

