443273
  -OEChem-07051213013D

 34 36  0     0  0  0  0  0  0999 V2000
    5.6632    2.0505   -1.2575 Cl  0  0  0  0  0  0  0  0  0  0  0  0
   -1.1237   -1.8456   -0.8301 O   0  0  0  0  0  0  0  0  0  0  0  0
   -1.9044    1.8108    0.8449 O   0  0  0  0  0  0  0  0  0  0  0  0
   -0.4868   -0.6680    0.9655 N   0  0  0  0  0  0  0  0  0  0  0  0
    0.1538   -2.3102   -0.4927 N   0  0  0  0  0  0  0  0  0  0  0  0
    1.7384   -1.7143    1.2820 C   0  0  0  0  0  0  0  0  0  0  0  0
    2.7321   -0.7624    0.6408 C   0  0  0  0  0  0  0  0  0  0  0  0
    0.4615   -1.5682    0.5754 C   0  0  0  0  0  0  0  0  0  0  0  0
   -2.7074   -0.2573   -0.0816 C   0  0  0  0  0  0  0  0  0  0  0  0
   -1.4159   -0.8849    0.0789 C   0  0  0  0  0  0  0  0  0  0  0  0
   -2.9122    1.0671    0.3051 C   0  0  0  0  0  0  0  0  0  0  0  0
    2.8416    0.5243    1.1322 C   0  0  0  0  0  0  0  0  0  0  0  0
    3.4997   -1.2077   -0.4184 C   0  0  0  0  0  0  0  0  0  0  0  0
   -3.7570   -0.9937   -0.6309 C   0  0  0  0  0  0  0  0  0  0  0  0
   -4.1665    1.6551    0.1426 C   0  0  0  0  0  0  0  0  0  0  0  0
    3.7536    1.3992    0.5418 C   0  0  0  0  0  0  0  0  0  0  0  0
    4.4119   -0.3328   -1.0085 C   0  0  0  0  0  0  0  0  0  0  0  0
   -5.0115   -0.4056   -0.7933 C   0  0  0  0  0  0  0  0  0  0  0  0
   -5.2163    0.9188   -0.4066 C   0  0  0  0  0  0  0  0  0  0  0  0
    4.5388    0.9706   -0.5285 C   0  0  0  0  0  0  0  0  0  0  0  0
   -1.0928    2.5543   -0.0609 C   0  0  0  0  0  0  0  0  0  0  0  0
    2.1112   -2.7447    1.2326 H   0  0  0  0  0  0  0  0  0  0  0  0
    1.6243   -1.4819    2.3476 H   0  0  0  0  0  0  0  0  0  0  0  0
    2.2330    0.8669    1.9637 H   0  0  0  0  0  0  0  0  0  0  0  0
    3.4077   -2.2208   -0.7986 H   0  0  0  0  0  0  0  0  0  0  0  0
   -3.6307   -2.0304   -0.9336 H   0  0  0  0  0  0  0  0  0  0  0  0
   -4.3342    2.6861    0.4424 H   0  0  0  0  0  0  0  0  0  0  0  0
    3.8410    2.4123    0.9258 H   0  0  0  0  0  0  0  0  0  0  0  0
    5.0169   -0.6805   -1.8420 H   0  0  0  0  0  0  0  0  0  0  0  0
   -5.8296   -0.9793   -1.2190 H   0  0  0  0  0  0  0  0  0  0  0  0
   -6.1931    1.3764   -0.5324 H   0  0  0  0  0  0  0  0  0  0  0  0
   -1.6880    3.3257   -0.5597 H   0  0  0  0  0  0  0  0  0  0  0  0
   -0.6314    1.8981   -0.8056 H   0  0  0  0  0  0  0  0  0  0  0  0
   -0.2991    3.0418    0.5121 H   0  0  0  0  0  0  0  0  0  0  0  0
  1 20  1  0  0  0  0
  2  5  1  0  0  0  0
  2 10  1  0  0  0  0
  3 11  1  0  0  0  0
  3 21  1  0  0  0  0
  4  8  1  0  0  0  0
  4 10  2  0  0  0  0
  5  8  2  0  0  0  0
  6  7  1  0  0  0  0
  6  8  1  0  0  0  0
  6 22  1  0  0  0  0
  6 23  1  0  0  0  0
  7 12  2  0  0  0  0
  7 13  1  0  0  0  0
  9 10  1  0  0  0  0
  9 11  1  0  0  0  0
  9 14  2  0  0  0  0
 11 15  2  0  0  0  0
 12 16  1  0  0  0  0
 12 24  1  0  0  0  0
 13 17  2  0  0  0  0
 13 25  1  0  0  0  0
 14 18  1  0  0  0  0
 14 26  1  0  0  0  0
 15 19  1  0  0  0  0
 15 27  1  0  0  0  0
 16 20  2  0  0  0  0
 16 28  1  0  0  0  0
 17 20  1  0  0  0  0
 17 29  1  0  0  0  0
 18 19  2  0  0  0  0
 18 30  1  0  0  0  0
 19 31  1  0  0  0  0
 21 32  1  0  0  0  0
 21 33  1  0  0  0  0
 21 34  1  0  0  0  0
M  END
> <PUBCHEM_COMPOUND_CID>
443273

> <PUBCHEM_CONFORMER_RMSD>
0.6

> <PUBCHEM_CONFORMER_DIVERSEORDER>
1
69
13
97
92
35
18
91
19
83
12
96
67
15
45
94
99
80
93
41
37
11
61
55
32
36
86
44
56
30
48
46
38
34
42
95
51
82
27
88
39
84
29
65
75
64
89
6
17
20
31
63
5
68
40
62
43
100
87
22
98
33
66
90
81
74
26
85
28
53
47
16
71
73
72
70
14
2
3
49
50
4
8
58
7
77
9
10
52
57
76
59
23
78
21
54
79
24
25
60

> <PUBCHEM_MMFF94_PARTIAL_CHARGES>
29
1 -0.18
10 0.43
11 0.08
12 -0.15
13 -0.15
14 -0.15
15 -0.15
16 -0.15
17 -0.15
18 -0.15
19 -0.15
2 -0.02
20 0.18
21 0.28
24 0.15
25 0.15
26 0.15
27 0.15
28 0.15
29 0.15
3 -0.36
30 0.15
31 0.15
4 -0.57
5 -0.41
6 0.32
7 -0.14
8 0.34
9 0.05

> <PUBCHEM_EFFECTIVE_ROTOR_COUNT>
4

> <PUBCHEM_PHARMACOPHORE_FEATURES>
5
1 3 acceptor
3 4 5 8 cation
5 2 4 5 8 10 rings
6 7 12 13 16 17 20 rings
6 9 11 14 15 18 19 rings

> <PUBCHEM_HEAVY_ATOM_COUNT>
21

> <PUBCHEM_ATOM_DEF_STEREO_COUNT>
0

> <PUBCHEM_ATOM_UDEF_STEREO_COUNT>
0

> <PUBCHEM_BOND_DEF_STEREO_COUNT>
0

> <PUBCHEM_BOND_UDEF_STEREO_COUNT>
0

> <PUBCHEM_ISOTOPIC_ATOM_COUNT>
0

> <PUBCHEM_COMPONENT_COUNT>
1

> <PUBCHEM_CACTVS_TAUTO_COUNT>
1

> <PUBCHEM_CONFORMER_ID>
0006C38900000001

> <PUBCHEM_MMFF94_ENERGY>
56.6587

> <PUBCHEM_FEATURE_SELFOVERLAP>
25.371

> <PUBCHEM_SHAPE_FINGERPRINT>
10498660 4 18410579508479738192
10670039 82 18340762728351722828
10730089 173 18409446969054446964
10871710 139 18411696608352318093
10906281 52 18262514914467658909
12596602 18 17275102791092918648
12670546 177 17821446858991240854
14528608 73 18409174315892894709
14739800 52 18265915600494693552
14790565 3 17830735718788007825
14840074 17 18412257363936121373
14931854 50 18408317783524503796
15183329 4 18337098056560302798
15196674 1 18409169930414962721
15210252 30 18272649009603583420
15342168 16 17775002358526609086
15575132 122 18272932756248514661
17492 54 18341056246189721937
20645477 70 13912613727556592622
20715895 44 17551814924499344133
21049683 271 18341897330416363957
21652331 79 18412828018506606777
21857420 4 15366484608100158844
221357 26 18113335327803883328
23114952 82 17460869846261528127
23227448 37 18189623739147302878
23366157 5 18050285070423441175
23557571 272 18262231097563218911
23559900 14 17826806029348098471
245318 6 17272833334969646564
2637199 183 18410288151242182874
270888 7 18059573517406189780
2838139 119 18412827958862504500
3004659 81 18334856165072781598
3472631 163 18342736269897221028
34797466 226 16515984574941244553
4028521 119 18411140233676711528
465052 167 6483068609017301005
474 4 17989204832814319734
53794403 172 18054224332754499164
633830 44 18271811258356056611
76465 3 7276838969748727242
7808743 9 18200311001376567428
7970288 3 6555420803510662124

> <PUBCHEM_SHAPE_MULTIPOLES>
412.34
11.91
2.48
1.12
1.45
0.47
0.03
5.86
-4.01
0.55
-0.06
0.74
-0.05
-1.1

> <PUBCHEM_SHAPE_SELFOVERLAP>
891.912

> <PUBCHEM_SHAPE_VOLUME>
228.5

> <PUBCHEM_COORDINATE_TYPE>
2
5
10

$$$$

