442937
  -OEChem-07051213003D

 41 44  0     1  0  0  0  0  0999 V2000
    1.9240    0.8217   -0.2977 N   0  0  1  0  0  0  0  0  0  0  0  0
   -2.5275    1.5363    0.2532 N   0  0  0  0  0  0  0  0  0  0  0  0
   -0.4124    0.7766   -0.7911 C   0  0  2  0  0  0  0  0  0  0  0  0
    0.4950   -1.3426   -0.7659 C   0  0  2  0  0  0  0  0  0  0  0  0
    1.5980   -0.6075    0.1501 C   0  0  1  0  0  0  0  0  0  0  0  0
    0.0842   -0.3008   -1.7781 C   0  0  0  0  0  0  0  0  0  0  0  0
   -1.9134    0.5740   -0.6685 C   0  0  1  0  0  0  0  0  0  0  0  0
    0.7339    1.7288   -0.5749 C   0  0  0  0  0  0  0  0  0  0  0  0
   -1.9779   -0.9214   -0.1351 C   0  0  0  0  0  0  0  0  0  0  0  0
    2.8959   -1.4309    0.1500 C   0  0  0  0  0  0  0  0  0  0  0  0
   -0.8692   -1.7298   -0.1012 C   0  0  0  0  0  0  0  0  0  0  0  0
    2.9027    1.4665    0.5763 C   0  0  0  0  0  0  0  0  0  0  0  0
    3.9628   -0.7851    1.0300 C   0  0  0  0  0  0  0  0  0  0  0  0
    4.2029    0.6641    0.6221 C   0  0  0  0  0  0  0  0  0  0  0  0
   -3.3173   -1.3338    0.4053 C   0  0  0  0  0  0  0  0  0  0  0  0
   -3.8968   -0.2426    1.3054 C   0  0  0  0  0  0  0  0  0  0  0  0
   -3.8849    1.1265    0.6201 C   0  0  0  0  0  0  0  0  0  0  0  0
   -0.3124    0.5054    0.2787 H   0  0  0  0  0  0  0  0  0  0  0  0
    0.9079   -2.2194   -1.2764 H   0  0  0  0  0  0  0  0  0  0  0  0
    1.2291   -0.5771    1.1862 H   0  0  0  0  0  0  0  0  0  0  0  0
    0.9159    0.0230   -2.4167 H   0  0  0  0  0  0  0  0  0  0  0  0
   -0.6868   -0.6572   -2.4742 H   0  0  0  0  0  0  0  0  0  0  0  0
   -2.4117    0.6348   -1.6441 H   0  0  0  0  0  0  0  0  0  0  0  0
    0.9368    2.3424   -1.4584 H   0  0  0  0  0  0  0  0  0  0  0  0
    0.5382    2.3972    0.2735 H   0  0  0  0  0  0  0  0  0  0  0  0
    3.2785   -1.5283   -0.8742 H   0  0  0  0  0  0  0  0  0  0  0  0
    2.6943   -2.4450    0.5149 H   0  0  0  0  0  0  0  0  0  0  0  0
   -0.9291   -2.7231    0.3343 H   0  0  0  0  0  0  0  0  0  0  0  0
    2.4969    1.5808    1.5892 H   0  0  0  0  0  0  0  0  0  0  0  0
    3.1349    2.4706    0.2015 H   0  0  0  0  0  0  0  0  0  0  0  0
    4.8977   -1.3520    0.9587 H   0  0  0  0  0  0  0  0  0  0  0  0
    3.6439   -0.8221    2.0789 H   0  0  0  0  0  0  0  0  0  0  0  0
    4.9006    1.1334    1.3251 H   0  0  0  0  0  0  0  0  0  0  0  0
    4.6821    0.6880   -0.3650 H   0  0  0  0  0  0  0  0  0  0  0  0
   -3.9958   -1.5070   -0.4389 H   0  0  0  0  0  0  0  0  0  0  0  0
   -3.2523   -2.2740    0.9646 H   0  0  0  0  0  0  0  0  0  0  0  0
   -2.5493    2.4579   -0.1817 H   0  0  0  0  0  0  0  0  0  0  0  0
   -4.9251   -0.5052    1.5796 H   0  0  0  0  0  0  0  0  0  0  0  0
   -3.3220   -0.1907    2.2394 H   0  0  0  0  0  0  0  0  0  0  0  0
   -4.5313    1.1165   -0.2661 H   0  0  0  0  0  0  0  0  0  0  0  0
   -4.2987    1.8707    1.3094 H   0  0  0  0  0  0  0  0  0  0  0  0
  1  5  1  0  0  0  0
  1  8  1  0  0  0  0
  1 12  1  0  0  0  0
  2  7  1  0  0  0  0
  2 17  1  0  0  0  0
  2 37  1  0  0  0  0
  3  6  1  0  0  0  0
  3  7  1  0  0  0  0
  3  8  1  0  0  0  0
  3 18  1  0  0  0  0
  4  5  1  0  0  0  0
  4  6  1  0  0  0  0
  4 11  1  0  0  0  0
  4 19  1  0  0  0  0
  5 10  1  0  0  0  0
  5 20  1  0  0  0  0
  6 21  1  0  0  0  0
  6 22  1  0  0  0  0
  7  9  1  0  0  0  0
  7 23  1  0  0  0  0
  8 24  1  0  0  0  0
  8 25  1  0  0  0  0
  9 11  2  0  0  0  0
  9 15  1  0  0  0  0
 10 13  1  0  0  0  0
 10 26  1  0  0  0  0
 10 27  1  0  0  0  0
 11 28  1  0  0  0  0
 12 14  1  0  0  0  0
 12 29  1  0  0  0  0
 12 30  1  0  0  0  0
 13 14  1  0  0  0  0
 13 31  1  0  0  0  0
 13 32  1  0  0  0  0
 14 33  1  0  0  0  0
 14 34  1  0  0  0  0
 15 16  1  0  0  0  0
 15 35  1  0  0  0  0
 15 36  1  0  0  0  0
 16 17  1  0  0  0  0
 16 38  1  0  0  0  0
 16 39  1  0  0  0  0
 17 40  1  0  0  0  0
 17 41  1  0  0  0  0
M  END
> <PUBCHEM_COMPOUND_CID>
442937

> <PUBCHEM_CONFORMER_RMSD>
0.6

> <PUBCHEM_CONFORMER_DIVERSEORDER>
1

> <PUBCHEM_MMFF94_PARTIAL_CHARGES>
13
1 -0.81
11 -0.29
12 0.27
15 0.14
17 0.27
2 -0.9
28 0.15
37 0.36
4 0.14
5 0.27
7 0.41
8 0.27
9 -0.28

> <PUBCHEM_EFFECTIVE_ROTOR_COUNT>
2

> <PUBCHEM_PHARMACOPHORE_FEATURES>
7
1 1 cation
1 2 cation
1 2 donor
6 1 3 4 5 6 8 rings
6 1 5 10 12 13 14 rings
6 2 7 9 15 16 17 rings
6 3 4 6 7 9 11 rings

> <PUBCHEM_HEAVY_ATOM_COUNT>
17

> <PUBCHEM_ATOM_DEF_STEREO_COUNT>
4

> <PUBCHEM_ATOM_UDEF_STEREO_COUNT>
0

> <PUBCHEM_BOND_DEF_STEREO_COUNT>
0

> <PUBCHEM_BOND_UDEF_STEREO_COUNT>
0

> <PUBCHEM_ISOTOPIC_ATOM_COUNT>
0

> <PUBCHEM_COMPONENT_COUNT>
1

> <PUBCHEM_CACTVS_TAUTO_COUNT>
1

> <PUBCHEM_CONFORMER_ID>
0006C23900000001

> <PUBCHEM_MMFF94_ENERGY>
98.7206

> <PUBCHEM_FEATURE_SELFOVERLAP>
36.25

> <PUBCHEM_SHAPE_FINGERPRINT>
10498660 4 5472863589342226851
1100329 8 15313219634928761826
11132069 177 18411982481221993815
11471102 22 18342171159316779986
11543360 7 9295281746610514074
12077114 3 18341053007847684173
12119455 92 17168145654222318854
12251169 10 18411418397201955975
12382932 28 18409450314343347097
12507560 40 18410292531660158961
12633257 1 18339645645421590042
12644460 14 17559655292323192540
12670546 177 8790886272136372473
12670546 56 18261119521403482666
12696612 119 18340761572562090077
12788726 201 14892657601773765268
12892183 10 18339361868352860610
13140716 1 18411703230858929466
13299463 15 9943518630859991783
13581323 91 18273492373042926439
13705890 14 11312054340141324158
14178342 30 18270665576583586257
14943859 89 15719391720089032542
15209289 33 17632295700617309930
15209294 21 18186802461008859449
15219456 202 18187922919202882430
15309172 13 18408330981621017174
15375462 189 17846224396820908330
15375462 478 18335985281276807999
15653759 3 18131351933557011041
15775835 57 17458628899618787089
16945 1 18268710506705582143
17804303 29 18340760554581143726
17844478 74 17846510244079477444
1813 80 16845851308668290526
18186145 218 6194845881896271158
19862831 5 8862948277037134682
200 152 18262253122877881311
20361792 2 15554447383741993071
20671657 53 12967126116336080390
20871999 31 9079117743995289859
21065199 12 18411699889358549211
21501502 16 18339642235201699895
21637258 2 15482673472182995040
21731228 192 18260266339103930575
22445834 79 18270967847116821106
231179 274 14562527418187451595
23184049 59 18409450305969618886
23382010 3 7709453918271758420
23402539 116 18114472141671174399
23463225 33 18342458123335671388
23557571 272 15936682671622200391
23559900 14 18266723857146640110
25 1 6627482820947399910
2748010 2 18268713981323588319
3082319 5 9079119959586582154
4280585 95 10588724175054993416
474 4 4750872667127881666
5104073 3 18411702079818250986
5262128 65 11383562268765470986
7097593 13 18341615884543841042
83771 10 17775570849003451874
84936 31 16588863641140027078
90316 7 17845937436918097373

> <PUBCHEM_SHAPE_MULTIPOLES>
339.89
7.32
1.86
1.17
0.67
0.06
-0.18
0.48
3.87
0.01
0
-0.15
-0.03
-0.03

> <PUBCHEM_SHAPE_SELFOVERLAP>
718.255

> <PUBCHEM_SHAPE_VOLUME>
184.2

> <PUBCHEM_COORDINATE_TYPE>
2
5
10

$$$$

