10297
  -OEChem-07051213093D

 24 24  0     1  0  0  0  0  0999 V2000
   -1.4627   -0.7780   -1.4851 O   0  0  0  0  0  0  0  0  0  0  0  0
   -3.4340    0.6148    0.1154 N   0  0  0  0  0  0  0  0  0  0  0  0
   -1.1151    0.3432   -0.6680 C   0  0  1  0  0  0  0  0  0  0  0  0
   -2.0495    0.4120    0.5609 C   0  0  2  0  0  0  0  0  0  0  0  0
    0.3478    0.1872   -0.3115 C   0  0  0  0  0  0  0  0  0  0  0  0
   -2.0070   -0.8636    1.4042 C   0  0  0  0  0  0  0  0  0  0  0  0
    1.1225    1.3191   -0.1275 C   0  0  0  0  0  0  0  0  0  0  0  0
    0.8784   -1.0840   -0.1781 C   0  0  0  0  0  0  0  0  0  0  0  0
    2.4707    1.1753    0.2005 C   0  0  0  0  0  0  0  0  0  0  0  0
    2.2265   -1.2278    0.1501 C   0  0  0  0  0  0  0  0  0  0  0  0
    3.0225   -0.0981    0.3392 C   0  0  0  0  0  0  0  0  0  0  0  0
   -1.2367    1.2375   -1.2928 H   0  0  0  0  0  0  0  0  0  0  0  0
   -1.7614    1.2612    1.1922 H   0  0  0  0  0  0  0  0  0  0  0  0
   -1.0281   -1.0016    1.8730 H   0  0  0  0  0  0  0  0  0  0  0  0
   -2.7353   -0.8102    2.2224 H   0  0  0  0  0  0  0  0  0  0  0  0
   -2.2397   -1.7582    0.8163 H   0  0  0  0  0  0  0  0  0  0  0  0
    0.7002    2.3142   -0.2315 H   0  0  0  0  0  0  0  0  0  0  0  0
    0.2821   -1.9820   -0.3082 H   0  0  0  0  0  0  0  0  0  0  0  0
   -3.4983    1.4853   -0.4108 H   0  0  0  0  0  0  0  0  0  0  0  0
   -4.0423    0.7242    0.9259 H   0  0  0  0  0  0  0  0  0  0  0  0
   -2.4035   -0.6880   -1.7145 H   0  0  0  0  0  0  0  0  0  0  0  0
    3.0904    2.0548    0.3485 H   0  0  0  0  0  0  0  0  0  0  0  0
    2.6561   -2.2192    0.2610 H   0  0  0  0  0  0  0  0  0  0  0  0
    4.0720   -0.2102    0.5956 H   0  0  0  0  0  0  0  0  0  0  0  0
  1  3  1  0  0  0  0
  1 21  1  0  0  0  0
  2  4  1  0  0  0  0
  2 19  1  0  0  0  0
  2 20  1  0  0  0  0
  3  4  1  0  0  0  0
  3  5  1  0  0  0  0
  3 12  1  0  0  0  0
  4  6  1  0  0  0  0
  4 13  1  0  0  0  0
  5  7  2  0  0  0  0
  5  8  1  0  0  0  0
  6 14  1  0  0  0  0
  6 15  1  0  0  0  0
  6 16  1  0  0  0  0
  7  9  1  0  0  0  0
  7 17  1  0  0  0  0
  8 10  2  0  0  0  0
  8 18  1  0  0  0  0
  9 11  2  0  0  0  0
  9 22  1  0  0  0  0
 10 11  1  0  0  0  0
 10 23  1  0  0  0  0
 11 24  1  0  0  0  0
M  END
> <PUBCHEM_COMPOUND_CID>
10297

> <PUBCHEM_CONFORMER_RMSD>
0.4

> <PUBCHEM_CONFORMER_DIVERSEORDER>
3
6
2
1
4
5

> <PUBCHEM_MMFF94_PARTIAL_CHARGES>
18
1 -0.68
10 -0.15
11 -0.15
17 0.15
18 0.15
19 0.36
2 -0.99
20 0.36
21 0.4
22 0.15
23 0.15
24 0.15
3 0.42
4 0.27
5 -0.14
7 -0.15
8 -0.15
9 -0.15

> <PUBCHEM_EFFECTIVE_ROTOR_COUNT>
2

> <PUBCHEM_PHARMACOPHORE_FEATURES>
5
1 1 acceptor
1 1 donor
1 2 cation
1 2 donor
6 5 7 8 9 10 11 rings

> <PUBCHEM_HEAVY_ATOM_COUNT>
11

> <PUBCHEM_ATOM_DEF_STEREO_COUNT>
2

> <PUBCHEM_ATOM_UDEF_STEREO_COUNT>
0

> <PUBCHEM_BOND_DEF_STEREO_COUNT>
0

> <PUBCHEM_BOND_UDEF_STEREO_COUNT>
0

> <PUBCHEM_ISOTOPIC_ATOM_COUNT>
0

> <PUBCHEM_COMPONENT_COUNT>
1

> <PUBCHEM_CACTVS_TAUTO_COUNT>
1

> <PUBCHEM_CONFORMER_ID>
0000283900000003

> <PUBCHEM_MMFF94_ENERGY>
21.5017

> <PUBCHEM_FEATURE_SELFOVERLAP>
25.374

> <PUBCHEM_SHAPE_FINGERPRINT>
10219947 1 18334293201574724558
10857977 72 17703788080989975592
12932764 1 18041278785821900848
15775835 57 17894631426640931528
16945 1 18113899385816461084
20201158 50 18202281437254970538
20871998 22 17901102242076780310
21028194 46 15936687163725351793
29004967 10 18272087218926510024
3248919 1 17988647358791324028
369184 2 18411422808354928089
5084963 1 18042139682056874260

> <PUBCHEM_SHAPE_MULTIPOLES>
215.52
4.63
1.33
1.04
0.89
0.03
-0.09
-0.26
0.93
-0.51
0.09
0.6
0.22
0.22

> <PUBCHEM_SHAPE_SELFOVERLAP>
438.883

> <PUBCHEM_SHAPE_VOLUME>
125.7

> <PUBCHEM_COORDINATE_TYPE>
2
5
10

$$$$

