19662
  -OEChem-07051213123D

 21 22  0     0  0  0  0  0  0999 V2000
    0.0054    2.6582    0.7105 Cl  0  0  0  0  0  0  0  0  0  0  0  0
   -0.8971   -2.5739   -0.1769 S   0  0  0  0  0  0  0  0  0  0  0  0
    1.6657   -2.6562    0.4341 O   0  0  0  0  0  0  0  0  0  0  0  0
    3.5579    1.4523   -0.1662 O   0  0  0  0  0  0  0  0  0  0  0  0
    2.0933    0.4093   -1.5554 O   0  0  0  0  0  0  0  0  0  0  0  0
    0.6052   -0.5472    0.4461 N   0  0  0  0  0  0  0  0  0  0  0  0
   -0.6748    0.0031    0.2067 C   0  0  0  0  0  0  0  0  0  0  0  0
   -1.6213   -0.9589   -0.1456 C   0  0  0  0  0  0  0  0  0  0  0  0
    1.7403    0.2651    0.8247 C   0  0  0  0  0  0  0  0  0  0  0  0
    0.6938   -1.9288    0.2911 C   0  0  0  0  0  0  0  0  0  0  0  0
   -1.0311    1.3438    0.2921 C   0  0  0  0  0  0  0  0  0  0  0  0
   -2.9354   -0.6130   -0.4198 C   0  0  0  0  0  0  0  0  0  0  0  0
   -2.3532    1.7037    0.0181 C   0  0  0  0  0  0  0  0  0  0  0  0
   -3.2991    0.7317   -0.3357 C   0  0  0  0  0  0  0  0  0  0  0  0
    2.4504    0.7109   -0.4237 C   0  0  0  0  0  0  0  0  0  0  0  0
    2.4515   -0.4073    1.3247 H   0  0  0  0  0  0  0  0  0  0  0  0
    1.5310    1.0296    1.5647 H   0  0  0  0  0  0  0  0  0  0  0  0
   -3.6720   -1.3612   -0.6941 H   0  0  0  0  0  0  0  0  0  0  0  0
   -2.6757    2.7415    0.0727 H   0  0  0  0  0  0  0  0  0  0  0  0
   -4.3229    1.0284   -0.5459 H   0  0  0  0  0  0  0  0  0  0  0  0
    4.0189    1.7192   -0.9900 H   0  0  0  0  0  0  0  0  0  0  0  0
  1 11  1  0  0  0  0
  2  8  1  0  0  0  0
  2 10  1  0  0  0  0
  3 10  2  0  0  0  0
  4 15  1  0  0  0  0
  4 21  1  0  0  0  0
  5 15  2  0  0  0  0
  6  7  1  0  0  0  0
  6  9  1  0  0  0  0
  6 10  1  0  0  0  0
  7  8  2  0  0  0  0
  7 11  1  0  0  0  0
  8 12  1  0  0  0  0
  9 15  1  0  0  0  0
  9 16  1  0  0  0  0
  9 17  1  0  0  0  0
 11 13  2  0  0  0  0
 12 14  2  0  0  0  0
 12 18  1  0  0  0  0
 13 14  1  0  0  0  0
 13 19  1  0  0  0  0
 14 20  1  0  0  0  0
M  END
> <PUBCHEM_COMPOUND_CID>
19662

> <PUBCHEM_CONFORMER_RMSD>
0.6

> <PUBCHEM_CONFORMER_DIVERSEORDER>
1
4
3
2

> <PUBCHEM_MMFF94_PARTIAL_CHARGES>
19
1 -0.18
10 0.77
11 0.18
12 -0.15
13 -0.15
14 -0.15
15 0.66
18 0.15
19 0.15
2 -0.24
20 0.15
21 0.5
3 -0.57
4 -0.65
5 -0.57
6 -0.48
7 0.12
8 0.1
9 0.36

> <PUBCHEM_EFFECTIVE_ROTOR_COUNT>
2

> <PUBCHEM_PHARMACOPHORE_FEATURES>
5
1 4 acceptor
1 5 acceptor
3 4 5 15 anion
5 2 6 7 8 10 rings
6 7 8 11 12 13 14 rings

> <PUBCHEM_HEAVY_ATOM_COUNT>
15

> <PUBCHEM_ATOM_DEF_STEREO_COUNT>
0

> <PUBCHEM_ATOM_UDEF_STEREO_COUNT>
0

> <PUBCHEM_BOND_DEF_STEREO_COUNT>
0

> <PUBCHEM_BOND_UDEF_STEREO_COUNT>
0

> <PUBCHEM_ISOTOPIC_ATOM_COUNT>
0

> <PUBCHEM_COMPONENT_COUNT>
1

> <PUBCHEM_CACTVS_TAUTO_COUNT>
1

> <PUBCHEM_CONFORMER_ID>
00004CCE00000001

> <PUBCHEM_MMFF94_ENERGY>
40.1339

> <PUBCHEM_FEATURE_SELFOVERLAP>
25.492

> <PUBCHEM_SHAPE_FINGERPRINT>
10967382 1 18409736157591759827
11206711 2 18266189344208316103
12202030 40 14996585987508888391
12423570 1 11736599861676065483
13140716 1 17977669706288387931
13380535 220 17762336220523452490
14614273 12 18272097097193249877
15775835 57 18273216374155098316
16945 1 18337401430931553747
17775402 16 18409736183351403797
193761 8 17905048401755602001
19591789 44 18050845516616150611
20645476 183 17916862413683109294
21501502 16 18264494056202553211
21524375 3 18273497853600505208
22802520 49 18042944584661207278
2334 1 18337115656676794491
23402539 116 18261682471874070124
23419403 2 16181659526909626969
23463225 33 18194690482270765259
23552423 10 18196658621111914867
23557571 272 17901653879054403052
23559900 14 18261390006656472808
2748010 2 18336836406482639075
2897 32 17978229688018422171
3071541 158 17838057365751282919
353137 74 18408035221477493873
53812653 8 18411983533446750811
6992083 37 16967168401987855801
7364860 26 18264773340492988582

> <PUBCHEM_SHAPE_MULTIPOLES>
291.82
4.39
2.95
0.88
0.44
0.81
0.15
-1.46
0.98
0.17
-0.48
0.37
-0.11
-0.35

> <PUBCHEM_SHAPE_SELFOVERLAP>
608.025

> <PUBCHEM_SHAPE_VOLUME>
167.8

> <PUBCHEM_COORDINATE_TYPE>
2
5
10

$$$$

