11945
  -OEChem-06261206193D

 19 20  0     0  0  0  0  0  0999 V2000
   -3.7685    0.6192    0.0002 O   0  5  0  0  0  0  0  0  0  0  0  0
   -3.2144   -1.5048   -0.0002 O   0  0  0  0  0  0  0  0  0  0  0  0
    2.4943    1.1582    0.0000 N   0  0  0  0  0  0  0  0  0  0  0  0
   -2.9027   -0.2892    0.0001 N   0  3  0  0  0  0  0  0  0  0  0  0
    0.8129   -0.5681    0.0000 C   0  0  0  0  0  0  0  0  0  0  0  0
    1.1995    0.7885   -0.0001 C   0  0  0  0  0  0  0  0  0  0  0  0
   -0.5480   -0.9181    0.0000 C   0  0  0  0  0  0  0  0  0  0  0  0
   -1.5292    0.0692    0.0000 C   0  0  0  0  0  0  0  0  0  0  0  0
    0.1977    1.7551    0.0000 C   0  0  0  0  0  0  0  0  0  0  0  0
   -1.1555    1.4073   -0.0001 C   0  0  0  0  0  0  0  0  0  0  0  0
    1.8211   -1.5415    0.0000 C   0  0  0  0  0  0  0  0  0  0  0  0
    3.1561   -1.1636    0.0001 C   0  0  0  0  0  0  0  0  0  0  0  0
    3.4367    0.1877    0.0001 C   0  0  0  0  0  0  0  0  0  0  0  0
   -0.8146   -1.9736    0.0001 H   0  0  0  0  0  0  0  0  0  0  0  0
    0.4648    2.8104   -0.0001 H   0  0  0  0  0  0  0  0  0  0  0  0
   -1.8873    2.2111   -0.0001 H   0  0  0  0  0  0  0  0  0  0  0  0
    1.5719   -2.6002    0.0001 H   0  0  0  0  0  0  0  0  0  0  0  0
    3.9483   -1.9029    0.0001 H   0  0  0  0  0  0  0  0  0  0  0  0
    4.4620    0.5427    0.0002 H   0  0  0  0  0  0  0  0  0  0  0  0
  1  4  1  0  0  0  0
  2  4  2  0  0  0  0
  3  6  1  0  0  0  0
  3 13  2  0  0  0  0
  4  8  1  0  0  0  0
  5  6  2  0  0  0  0
  5  7  1  0  0  0  0
  5 11  1  0  0  0  0
  6  9  1  0  0  0  0
  7  8  2  0  0  0  0
  7 14  1  0  0  0  0
  8 10  1  0  0  0  0
  9 10  2  0  0  0  0
  9 15  1  0  0  0  0
 10 16  1  0  0  0  0
 11 12  2  0  0  0  0
 11 17  1  0  0  0  0
 12 13  1  0  0  0  0
 12 18  1  0  0  0  0
 13 19  1  0  0  0  0
M  CHG  2   1  -1   4   1
M  END
> <PUBCHEM_COMPOUND_CID>
11945

> <PUBCHEM_CONFORMER_RMSD>
0.4

> <PUBCHEM_CONFORMER_DIVERSEORDER>
1

> <PUBCHEM_MMFF94_PARTIAL_CHARGES>
18
1 -0.52
10 -0.15
11 -0.15
12 -0.15
13 0.16
14 0.15
15 0.15
16 0.15
17 0.15
18 0.15
19 0.15
2 -0.52
3 -0.62
4 0.91
6 0.31
7 -0.15
8 0.13
9 -0.15

> <PUBCHEM_EFFECTIVE_ROTOR_COUNT>
1

> <PUBCHEM_PHARMACOPHORE_FEATURES>
6
1 1 acceptor
1 1 anion
1 2 acceptor
1 3 acceptor
6 3 5 6 11 12 13 rings
6 5 6 7 8 9 10 rings

> <PUBCHEM_HEAVY_ATOM_COUNT>
13

> <PUBCHEM_ATOM_DEF_STEREO_COUNT>
0

> <PUBCHEM_ATOM_UDEF_STEREO_COUNT>
0

> <PUBCHEM_BOND_DEF_STEREO_COUNT>
0

> <PUBCHEM_BOND_UDEF_STEREO_COUNT>
0

> <PUBCHEM_ISOTOPIC_ATOM_COUNT>
0

> <PUBCHEM_COMPONENT_COUNT>
1

> <PUBCHEM_CACTVS_TAUTO_COUNT>
1

> <PUBCHEM_CONFORMER_ID>
00002EA900000001

> <PUBCHEM_MMFF94_ENERGY>
41.1236

> <PUBCHEM_FEATURE_SELFOVERLAP>
30.559

> <PUBCHEM_SHAPE_FINGERPRINT>
10219947 1 18260828202335414190
10608611 8 18411987970063993773
10967382 1 18410575131934209862
11132069 177 18408891741056435658
11471102 20 18411142445574391109
11769659 78 18411706495055374714
11806522 49 18266464200582680447
12032990 46 18410568487662137390
12932764 1 17418103143218745459
14144814 61 18408602573735288555
14325111 11 18410855443001124577
15536298 74 18333449842049754544
16945 1 18410855447517696416
17844478 74 18060415833032300589
18186145 218 17846502547165922823
193761 8 17690280834045804770
20201158 50 18413388752098667331
20645477 70 18409452526642200271
20871998 22 18189892200769096374
21267235 1 18410283718445692599
21501502 16 18267017435235467736
21501925 9 18410303483853267602
23402539 116 18410023138843423886
23402655 69 18409454716969766373
23463225 33 18411699902428086564
23552423 10 18272366524923552668
23559900 14 18265902526593203146
2748010 2 18338240495542183244
3312278 4 18410571786365566081
528886 8 18409453578555324506
53812653 166 18261117318438902232
7364860 26 18263645056890125592
8809292 202 18272927228382731859

> <PUBCHEM_SHAPE_MULTIPOLES>
245.83
5.57
1.72
0.59
1.8
0.12
0
-1.14
0
-0.09
0
-0.06
0
0

> <PUBCHEM_SHAPE_SELFOVERLAP>
541.917

> <PUBCHEM_SHAPE_VOLUME>
132.4

> <PUBCHEM_COORDINATE_TYPE>
2
5
10

$$$$

