56928155
  -OEChem-07051213152D

 74 79  0     1  0  0  0  0  0999 V2000
    2.7841   -1.1067    0.0000 O   0  0  0  0  0  0  0  0  0  0  0  0
    4.6501    0.3933    0.0000 O   0  0  0  0  0  0  0  0  0  0  0  0
    4.0054   -2.4498    0.0000 O   0  0  0  0  0  0  0  0  0  0  0  0
    3.9547    2.4371    0.0000 O   0  0  0  0  0  0  0  0  0  0  0  0
    4.6365   -3.9886    0.0000 O   0  0  0  0  0  0  0  0  0  0  0  0
    4.5537    3.9886    0.0000 O   0  0  0  0  0  0  0  0  0  0  0  0
    9.4330    0.6323    0.0000 O   0  0  0  0  0  0  0  0  0  0  0  0
    6.4166    0.1510    0.0000 O   0  0  0  0  0  0  0  0  0  0  0  0
   11.0682    0.0727    0.0000 O   0  0  0  0  0  0  0  0  0  0  0  0
    2.9180   -0.6067    0.0000 C   0  0  1  0  0  0  0  0  0  0  0  0
    3.7841   -1.1067    0.0000 C   0  0  2  0  0  0  0  0  0  0  0  0
    2.9180    0.3933    0.0000 C   0  0  2  0  0  0  0  0  0  0  0  0
    4.6501   -0.6067    0.0000 C   0  0  1  0  0  0  0  0  0  0  0  0
    3.2847   -1.5357    0.0000 C   0  0  3  0  0  0  0  0  0  0  0  0
    3.2841   -1.9727    0.0000 C   0  0  0  0  0  0  0  0  0  0  0  0
    4.2834   -1.5357    0.0000 C   0  0  0  0  0  0  0  0  0  0  0  0
    3.7841    0.8933    0.0000 C   0  0  1  0  0  0  0  0  0  0  0  0
    2.0520   -1.1067    0.0000 C   0  0  0  0  0  0  0  0  0  0  0  0
    2.0080    0.9002    0.0000 C   0  0  0  0  0  0  0  0  0  0  0  0
    3.2531    1.5082    0.0000 C   0  0  0  0  0  0  0  0  0  0  0  0
    3.8001    1.9348    0.0000 C   0  0  0  0  0  0  0  0  0  0  0  0
    2.0000    1.9418    0.0000 C   0  0  0  0  0  0  0  0  0  0  0  0
    2.9021    2.4626    0.0000 C   0  0  0  0  0  0  0  0  0  0  0  0
    4.9989   -3.0566    0.0000 C   0  0  0  0  0  0  0  0  0  0  0  0
    2.9059    3.4626    0.0000 C   0  0  0  0  0  0  0  0  0  0  0  0
    4.9354    3.0643    0.0000 C   0  0  0  0  0  0  0  0  0  0  0  0
    6.1413   -3.2803    0.0000 C   0  0  0  0  0  0  0  0  0  0  0  0
    6.0729    3.3116    0.0000 C   0  0  0  0  0  0  0  0  0  0  0  0
    7.2902   -3.0930    0.0000 C   0  0  0  0  0  0  0  0  0  0  0  0
    7.2254    3.1483    0.0000 C   0  0  0  0  0  0  0  0  0  0  0  0
    7.2729    0.6675    0.0000 C   0  0  2  0  0  0  0  0  0  0  0  0
    9.4451   -0.5318    0.0000 C   0  0  1  0  0  0  0  0  0  0  0  0
    8.2494    2.5946    0.0000 C   0  0  0  0  0  0  0  0  0  0  0  0
    8.3025   -2.5182    0.0000 C   0  0  0  0  0  0  0  0  0  0  0  0
    9.0519   -1.6274    0.0000 C   0  0  0  0  0  0  0  0  0  0  0  0
    9.0172    1.7196    0.0000 C   0  0  0  0  0  0  0  0  0  0  0  0
   10.4312   -0.6981    0.0000 C   0  0  2  0  0  0  0  0  0  0  0  0
   10.7802   -1.6352    0.0000 C   0  0  0  0  0  0  0  0  0  0  0  0
    5.3862   -0.1817    0.0000 H   0  0  0  0  0  0  0  0  0  0  0  0
    2.7472   -1.8447    0.0000 H   0  0  0  0  0  0  0  0  0  0  0  0
    2.8091   -2.3712    0.0000 H   0  0  0  0  0  0  0  0  0  0  0  0
    3.7590   -2.3712    0.0000 H   0  0  0  0  0  0  0  0  0  0  0  0
    4.2060   -2.1508    0.0000 H   0  0  0  0  0  0  0  0  0  0  0  0
    4.8841   -1.6894    0.0000 H   0  0  0  0  0  0  0  0  0  0  0  0
    4.5202    1.3183    0.0000 H   0  0  0  0  0  0  0  0  0  0  0  0
    1.7420   -0.5697    0.0000 H   0  0  0  0  0  0  0  0  0  0  0  0
    1.5151   -1.4167    0.0000 H   0  0  0  0  0  0  0  0  0  0  0  0
    2.3620   -1.6436    0.0000 H   0  0  0  0  0  0  0  0  0  0  0  0
    1.3964    1.0016    0.0000 H   0  0  0  0  0  0  0  0  0  0  0  0
    1.8035    0.3149    0.0000 H   0  0  0  0  0  0  0  0  0  0  0  0
    2.9458    2.0466    0.0000 H   0  0  0  0  0  0  0  0  0  0  0  0
    3.8060    1.2277    0.0000 H   0  0  0  0  0  0  0  0  0  0  0  0
    4.3406    2.2386    0.0000 H   0  0  0  0  0  0  0  0  0  0  0  0
    1.7864    2.5238    0.0000 H   0  0  0  0  0  0  0  0  0  0  0  0
    1.3900    1.8310    0.0000 H   0  0  0  0  0  0  0  0  0  0  0  0
    3.5259    3.4602    0.0000 H   0  0  0  0  0  0  0  0  0  0  0  0
    2.9083    4.0826    0.0000 H   0  0  0  0  0  0  0  0  0  0  0  0
    2.2859    3.4650    0.0000 H   0  0  0  0  0  0  0  0  0  0  0  0
    6.1314   -3.9002    0.0000 H   0  0  0  0  0  0  0  0  0  0  0  0
    6.0502    3.9312    0.0000 H   0  0  0  0  0  0  0  0  0  0  0  0
    7.4964   -3.6778    0.0000 H   0  0  0  0  0  0  0  0  0  0  0  0
    7.2848    0.0476    0.0000 H   0  0  0  0  0  0  0  0  0  0  0  0
    8.8389    2.7866    0.0000 H   0  0  0  0  0  0  0  0  0  0  0  0
    7.8629    2.1098    0.0000 H   0  0  0  0  0  0  0  0  0  0  0  0
    8.6990   -2.9948    0.0000 H   0  0  0  0  0  0  0  0  0  0  0  0
    9.5893   -1.9366    0.0000 H   0  0  0  0  0  0  0  0  0  0  0  0
    9.6367    1.6948    0.0000 H   0  0  0  0  0  0  0  0  0  0  0  0
    8.4863    1.3993    0.0000 H   0  0  0  0  0  0  0  0  0  0  0  0
   11.0425   -0.8012    0.0000 H   0  0  0  0  0  0  0  0  0  0  0  0
    6.4285   -0.4689    0.0000 H   0  0  0  0  0  0  0  0  0  0  0  0
   10.1992   -1.8516    0.0000 H   0  0  0  0  0  0  0  0  0  0  0  0
   10.9966   -2.2162    0.0000 H   0  0  0  0  0  0  0  0  0  0  0  0
   11.3612   -1.4188    0.0000 H   0  0  0  0  0  0  0  0  0  0  0  0
   11.6796   -0.0304    0.0000 H   0  0  0  0  0  0  0  0  0  0  0  0
 11  1  1  6  0  0  0
  1 15  1  0  0  0  0
  2 13  1  0  0  0  0
  2 17  1  0  0  0  0
  3 14  1  0  0  0  0
  3 24  1  0  0  0  0
  4 20  1  0  0  0  0
  4 26  1  0  0  0  0
  5 24  2  0  0  0  0
  6 26  2  0  0  0  0
 32  7  1  6  0  0  0
  7 36  1  0  0  0  0
 31  8  1  6  0  0  0
  8 70  1  0  0  0  0
 37  9  1  1  0  0  0
  9 74  1  0  0  0  0
 10 11  1  0  0  0  0
 10 12  1  0  0  0  0
 10 14  1  0  0  0  0
 10 18  1  1  0  0  0
 11 13  1  0  0  0  0
 11 15  1  0  0  0  0
 12 17  1  0  0  0  0
 12 19  1  1  0  0  0
 12 20  1  0  0  0  0
 13 16  1  0  0  0  0
 13 39  1  1  0  0  0
 14 16  1  0  0  0  0
 14 40  1  0  0  0  0
 15 41  1  0  0  0  0
 15 42  1  0  0  0  0
 16 43  1  0  0  0  0
 16 44  1  0  0  0  0
 17 21  1  0  0  0  0
 17 45  1  6  0  0  0
 18 46  1  0  0  0  0
 18 47  1  0  0  0  0
 18 48  1  0  0  0  0
 19 22  1  0  0  0  0
 19 49  1  0  0  0  0
 19 50  1  0  0  0  0
 20 51  1  0  0  0  0
 20 52  1  0  0  0  0
 21 23  2  0  0  0  0
 21 53  1  0  0  0  0
 22 23  1  0  0  0  0
 22 54  1  0  0  0  0
 22 55  1  0  0  0  0
 23 25  1  0  0  0  0
 24 27  1  0  0  0  0
 25 56  1  0  0  0  0
 25 57  1  0  0  0  0
 25 58  1  0  0  0  0
 26 28  1  0  0  0  0
 27 29  2  0  0  0  0
 27 59  1  0  0  0  0
 28 30  2  0  0  0  0
 28 60  1  0  0  0  0
 29 34  1  0  0  0  0
 29 61  1  0  0  0  0
 30 31  1  0  0  0  0
 30 33  1  0  0  0  0
 31 32  1  0  0  0  0
 31 62  1  0  0  0  0
 32 35  1  0  0  0  0
 32 37  1  0  0  0  0
 33 36  1  0  0  0  0
 33 63  1  0  0  0  0
 33 64  1  0  0  0  0
 34 35  2  0  0  0  0
 34 65  1  0  0  0  0
 35 66  1  0  0  0  0
 36 67  1  0  0  0  0
 36 68  1  0  0  0  0
 37 38  1  0  0  0  0
 37 69  1  0  0  0  0
 38 71  1  0  0  0  0
 38 72  1  0  0  0  0
 38 73  1  0  0  0  0
M  END
> <PUBCHEM_COMPOUND_CID>
56928155

> <PUBCHEM_COMPOUND_CANONICALIZED>
1

> <PUBCHEM_CACTVS_COMPLEXITY>
1150

> <PUBCHEM_CACTVS_HBOND_ACCEPTOR>
9

> <PUBCHEM_CACTVS_HBOND_DONOR>
2

> <PUBCHEM_CACTVS_ROTATABLE_BOND>
1

> <PUBCHEM_CACTVS_SUBSKEYS>
AAADcfB4PAAAAAAAAAAAAAAAEgAAAYAAAAAkSIAAAAAAAACAAAAAGgAACAAADlSggAICCAAABgCIAiDSCAAAAAAgAAAICAAAAEgJFAIAIQACUAAFwAALsYPA4PwPgAAAAAAAAAAAAAAAAAAAAIQADCAAAA==

> <PUBCHEM_IUPAC_INCHI>
InChI=1S/C29H36O9/c1-17-7-10-27-15-34-24(32)13-19-8-11-35-28(18(2)30,25(19)33)9-5-4-6-23(31)38-20-14-22(37-21(27)12-17)29(16-36-29)26(20,27)3/h4-6,9,12-13,18,20-22,25,30,33H,7-8,10-11,14-16H2,1-3H3/b6-4+,9-5+,19-13+/t18-,20?,21+,22+,25+,26+,27+,28-,29-/m0/s1

> <PUBCHEM_IUPAC_INCHIKEY>
MUACSCLQRGEGOE-MOCAONITSA-N

> <PUBCHEM_XLOGP3_AA>
1.3

> <PUBCHEM_EXACT_MASS>
528.235933

> <PUBCHEM_MOLECULAR_FORMULA>
C29H36O9

> <PUBCHEM_MOLECULAR_WEIGHT>
528.59074

> <PUBCHEM_OPENEYE_CAN_SMILES>
CC1=CC2C3(CC1)COC(=O)C=C4CCOC(C4O)(C=CC=CC(=O)OC5C3(C6(CO6)C(C5)O2)C)C(C)O

> <PUBCHEM_OPENEYE_ISO_SMILES>
CC1=C[C@@H]2[C@@]3(CC1)COC(=O)/C=C/4\CCO[C@@]([C@@H]4O)(/C=C/C=C/C(=O)OC5[C@]3([C@]6(CO6)[C@@H](C5)O2)C)[C@H](C)O

> <PUBCHEM_CACTVS_TPSA>
124

> <PUBCHEM_MONOISOTOPIC_WEIGHT>
528.235933

> <PUBCHEM_TOTAL_CHARGE>
0

> <PUBCHEM_HEAVY_ATOM_COUNT>
38

> <PUBCHEM_ATOM_DEF_STEREO_COUNT>
8

> <PUBCHEM_ATOM_UDEF_STEREO_COUNT>
1

> <PUBCHEM_BOND_DEF_STEREO_COUNT>
3

> <PUBCHEM_BOND_UDEF_STEREO_COUNT>
0

> <PUBCHEM_ISOTOPIC_ATOM_COUNT>
0

> <PUBCHEM_COMPONENT_COUNT>
1

> <PUBCHEM_CACTVS_TAUTO_COUNT>
1

> <PUBCHEM_COORDINATE_TYPE>
1
5
255

> <PUBCHEM_BONDANNOTATIONS>
11  1  6
10  18  5
12  19  5
13  39  5
14  16  3
17  45  6
32  7  6
31  8  6
37  9  5

$$$$

