47205011
  -OEChem-06241222573D

 35 36  0     0  0  0  0  0  0999 V2000
    0.0272   -0.3359   -1.4611 O   0  0  0  0  0  0  0  0  0  0  0  0
   -1.1538   -1.5005    0.1668 N   0  0  0  0  0  0  0  0  0  0  0  0
   -3.8885   -0.1432    1.0017 N   0  0  0  0  0  0  0  0  0  0  0  0
   -4.5739    1.0086    1.1001 N   0  0  0  0  0  0  0  0  0  0  0  0
    2.4269   -0.4045   -0.0241 C   0  0  0  0  0  0  0  0  0  0  0  0
    2.3927    1.1219    0.1321 C   0  0  0  0  0  0  0  0  0  0  0  0
    3.6799   -0.9935    0.6378 C   0  0  0  0  0  0  0  0  0  0  0  0
    3.6706    1.7711   -0.3944 C   0  0  0  0  0  0  0  0  0  0  0  0
    4.9557   -0.3407    0.1108 C   0  0  0  0  0  0  0  0  0  0  0  0
    4.9142    1.1770    0.2595 C   0  0  0  0  0  0  0  0  0  0  0  0
    1.1627   -1.0346    0.5574 C   0  0  0  0  0  0  0  0  0  0  0  0
   -0.0242   -0.9034   -0.3733 C   0  0  0  0  0  0  0  0  0  0  0  0
   -2.4322   -1.5239   -0.5062 C   0  0  0  0  0  0  0  0  0  0  0  0
   -3.2535   -0.3062   -0.1945 C   0  0  0  0  0  0  0  0  0  0  0  0
   -3.5441    0.8169   -0.9299 C   0  0  0  0  0  0  0  0  0  0  0  0
   -4.3597    1.5909   -0.0828 C   0  0  0  0  0  0  0  0  0  0  0  0
    2.4895   -0.6375   -1.0961 H   0  0  0  0  0  0  0  0  0  0  0  0
    3.6259   -0.8560    1.7255 H   0  0  0  0  0  0  0  0  0  0  0  0
    3.7286   -2.0738    0.4558 H   0  0  0  0  0  0  0  0  0  0  0  0
    1.5346    1.5474   -0.3999 H   0  0  0  0  0  0  0  0  0  0  0  0
    2.2695    1.3859    1.1904 H   0  0  0  0  0  0  0  0  0  0  0  0
    5.0885   -0.6005   -0.9467 H   0  0  0  0  0  0  0  0  0  0  0  0
    5.8229   -0.7399    0.6488 H   0  0  0  0  0  0  0  0  0  0  0  0
    3.7282    1.6341   -1.4813 H   0  0  0  0  0  0  0  0  0  0  0  0
    3.6382    2.8508   -0.2100 H   0  0  0  0  0  0  0  0  0  0  0  0
    5.8125    1.6164   -0.1887 H   0  0  0  0  0  0  0  0  0  0  0  0
    4.9272    1.4396    1.3246 H   0  0  0  0  0  0  0  0  0  0  0  0
    1.3220   -2.1090    0.7168 H   0  0  0  0  0  0  0  0  0  0  0  0
    0.9099   -0.5923    1.5284 H   0  0  0  0  0  0  0  0  0  0  0  0
   -1.0968   -1.9293    1.0861 H   0  0  0  0  0  0  0  0  0  0  0  0
   -2.2672   -1.5968   -1.5869 H   0  0  0  0  0  0  0  0  0  0  0  0
   -2.9588   -2.4281   -0.1826 H   0  0  0  0  0  0  0  0  0  0  0  0
   -3.2132    1.0442   -1.9327 H   0  0  0  0  0  0  0  0  0  0  0  0
   -3.8966   -0.7742    1.7935 H   0  0  0  0  0  0  0  0  0  0  0  0
   -4.8066    2.5550   -0.2783 H   0  0  0  0  0  0  0  0  0  0  0  0
  1 12  2  0  0  0  0
  2 12  1  0  0  0  0
  2 13  1  0  0  0  0
  2 30  1  0  0  0  0
  3  4  1  0  0  0  0
  3 14  1  0  0  0  0
  3 34  1  0  0  0  0
  4 16  2  0  0  0  0
  5  6  1  0  0  0  0
  5  7  1  0  0  0  0
  5 11  1  0  0  0  0
  5 17  1  0  0  0  0
  6  8  1  0  0  0  0
  6 20  1  0  0  0  0
  6 21  1  0  0  0  0
  7  9  1  0  0  0  0
  7 18  1  0  0  0  0
  7 19  1  0  0  0  0
  8 10  1  0  0  0  0
  8 24  1  0  0  0  0
  8 25  1  0  0  0  0
  9 10  1  0  0  0  0
  9 22  1  0  0  0  0
  9 23  1  0  0  0  0
 10 26  1  0  0  0  0
 10 27  1  0  0  0  0
 11 12  1  0  0  0  0
 11 28  1  0  0  0  0
 11 29  1  0  0  0  0
 13 14  1  0  0  0  0
 13 31  1  0  0  0  0
 13 32  1  0  0  0  0
 14 15  2  0  0  0  0
 15 16  1  0  0  0  0
 15 33  1  0  0  0  0
 16 35  1  0  0  0  0
M  END
> <PUBCHEM_COMPOUND_CID>
47205011

> <PUBCHEM_CONFORMER_RMSD>
0.8

> <PUBCHEM_CONFORMER_DIVERSEORDER>
1
19
23
81
95
106
62
83
15
103
100
10
69
74
41
5
6
96
17
32
97
88
71
25
26
11
47
65
91
105
7
12
18
87
107
14
52
34
60
4
9
63
46
102
24
94
80
55
58
70
76
57
31
84
77
8
37
99
98
13
90
56
64
53
68
40
3
93
72
21
82
42
20
79
86
27
35
22
101
45
30
43
89
54
48
75
61
66
2
49
104
78
16
38
36
29
67
28
92
44
51
85
50
73
59
33
39

> <PUBCHEM_MMFF94_PARTIAL_CHARGES>
14
1 -0.57
11 0.06
12 0.57
13 0.48
14 -0.33
15 -0.15
16 0.14
2 -0.73
3 0.3
30 0.37
33 0.15
34 0.27
35 0.15
4 -0.71

> <PUBCHEM_EFFECTIVE_ROTOR_COUNT>
6.2

> <PUBCHEM_PHARMACOPHORE_FEATURES>
6
1 1 acceptor
1 2 donor
1 3 donor
1 4 acceptor
5 3 4 14 15 16 rings
6 5 6 7 8 9 10 rings

> <PUBCHEM_HEAVY_ATOM_COUNT>
16

> <PUBCHEM_ATOM_DEF_STEREO_COUNT>
0

> <PUBCHEM_ATOM_UDEF_STEREO_COUNT>
0

> <PUBCHEM_BOND_DEF_STEREO_COUNT>
0

> <PUBCHEM_BOND_UDEF_STEREO_COUNT>
0

> <PUBCHEM_ISOTOPIC_ATOM_COUNT>
0

> <PUBCHEM_COMPONENT_COUNT>
1

> <PUBCHEM_CACTVS_TAUTO_COUNT>
4

> <PUBCHEM_CONFORMER_ID>
02D04A9300000001

> <PUBCHEM_MMFF94_ENERGY>
9.7156

> <PUBCHEM_FEATURE_SELFOVERLAP>
30.446

> <PUBCHEM_SHAPE_FINGERPRINT>
10354089 29 18343580741977027760
11046707 91 11887952147002525995
11370993 144 18059579164807693959
12107183 9 18051419757489999915
12596602 18 15482665762785848228
12670546 177 5328453808958267594
13675066 3 17632577175324903767
13911882 115 12751240345960796696
14123255 352 18409732880579380621
14123260 362 17822003220812723419
1420 369 10231752305789511129
14251764 75 16196463068715983908
14252887 29 14836409155271018754
14576447 43 8790885185889577648
15188451 53 15984533404962636163
15209294 21 18272373061579038135
15239154 128 18412827962793260324
15880784 105 13470396764798125965
17834072 14 7132434640105619452
17834072 32 18337955692261464005
17834072 8 18113893880037549134
18186145 218 18272660030267482158
193927 3 10447653534279978200
200 152 9151174263816880342
20645477 56 18408882945322356431
20645477 70 17022890277379819006
21503847 285 18202283602467107060
21652331 79 18342740723662619173
23402539 116 6411304528744360410
23402655 69 18334859377544424956
23403322 49 9151173147520937677
23557571 272 17603861148954643943
23559900 14 17968371355654471590
27216 239 18343579655888411017
351380 3 11239991261615107113
4214541 1 18410857633413521967
5104073 3 18271251521649564146
543358 83 18410856564736714170
602551 16 15123501480852960928
633830 44 18411141320783946958
6430166 295 18408888438300405390
77779 3 18412265000023684222
8272917 22 18334572490735523742
90127 26 18342730819452022058

> <PUBCHEM_SHAPE_MULTIPOLES>
308.46
11.59
1.74
0.96
0.16
0.29
-0.05
4.7
1.79
0.02
-0.03
-0.61
0.02
-0.45

> <PUBCHEM_SHAPE_SELFOVERLAP>
628.379

> <PUBCHEM_SHAPE_VOLUME>
177.2

> <PUBCHEM_COORDINATE_TYPE>
2
5
10

$$$$

