8716
  -OEChem-06261203022D

 48 46  0     0  0  0  0  0  0999 V2000
    0.0000    1.6200    0.0000 Na  0  3  0  0  0  0  0  0  0  0  0  0
    4.3301    3.1200    0.0000 O   0  0  0  0  0  0  0  0  0  0  0  0
    0.8660    2.1200    0.0000 O   0  5  0  0  0  0  0  0  0  0  0  0
    1.7321    0.6200    0.0000 O   0  0  0  0  0  0  0  0  0  0  0  0
    3.4641    1.6200    0.0000 N   0  0  0  0  0  0  0  0  0  0  0  0
    8.6603    1.6200    0.0000 C   0  0  0  0  0  0  0  0  0  0  0  0
    9.5263    2.1200    0.0000 C   0  0  0  0  0  0  0  0  0  0  0  0
    7.7942    2.1200    0.0000 C   0  0  0  0  0  0  0  0  0  0  0  0
   10.3923    1.6200    0.0000 C   0  0  0  0  0  0  0  0  0  0  0  0
    6.9282    1.6200    0.0000 C   0  0  0  0  0  0  0  0  0  0  0  0
   11.2583    2.1200    0.0000 C   0  0  0  0  0  0  0  0  0  0  0  0
    6.0622    2.1200    0.0000 C   0  0  0  0  0  0  0  0  0  0  0  0
   12.1244    1.6200    0.0000 C   0  0  0  0  0  0  0  0  0  0  0  0
    5.1962    1.6200    0.0000 C   0  0  0  0  0  0  0  0  0  0  0  0
   12.9904    2.1200    0.0000 C   0  0  0  0  0  0  0  0  0  0  0  0
    4.3301    2.1200    0.0000 C   0  0  0  0  0  0  0  0  0  0  0  0
   13.8564    1.6200    0.0000 C   0  0  0  0  0  0  0  0  0  0  0  0
    2.5981    2.1200    0.0000 C   0  0  0  0  0  0  0  0  0  0  0  0
    3.4641    0.6200    0.0000 C   0  0  0  0  0  0  0  0  0  0  0  0
    1.7321    1.6200    0.0000 C   0  0  0  0  0  0  0  0  0  0  0  0
    8.2617    1.1451    0.0000 H   0  0  0  0  0  0  0  0  0  0  0  0
    9.0588    1.1451    0.0000 H   0  0  0  0  0  0  0  0  0  0  0  0
    9.9248    2.5949    0.0000 H   0  0  0  0  0  0  0  0  0  0  0  0
    9.1278    2.5949    0.0000 H   0  0  0  0  0  0  0  0  0  0  0  0
    8.1928    2.5949    0.0000 H   0  0  0  0  0  0  0  0  0  0  0  0
    7.3957    2.5949    0.0000 H   0  0  0  0  0  0  0  0  0  0  0  0
   10.7908    1.1451    0.0000 H   0  0  0  0  0  0  0  0  0  0  0  0
    9.9938    1.1451    0.0000 H   0  0  0  0  0  0  0  0  0  0  0  0
    6.5297    1.1451    0.0000 H   0  0  0  0  0  0  0  0  0  0  0  0
    7.3267    1.1451    0.0000 H   0  0  0  0  0  0  0  0  0  0  0  0
   11.6569    2.5949    0.0000 H   0  0  0  0  0  0  0  0  0  0  0  0
   10.8598    2.5949    0.0000 H   0  0  0  0  0  0  0  0  0  0  0  0
    5.6636    2.5949    0.0000 H   0  0  0  0  0  0  0  0  0  0  0  0
    6.4607    2.5949    0.0000 H   0  0  0  0  0  0  0  0  0  0  0  0
   11.7258    1.1451    0.0000 H   0  0  0  0  0  0  0  0  0  0  0  0
   12.5229    1.1451    0.0000 H   0  0  0  0  0  0  0  0  0  0  0  0
    5.5947    1.1451    0.0000 H   0  0  0  0  0  0  0  0  0  0  0  0
    4.7976    1.1451    0.0000 H   0  0  0  0  0  0  0  0  0  0  0  0
   13.3889    2.5949    0.0000 H   0  0  0  0  0  0  0  0  0  0  0  0
   12.5919    2.5949    0.0000 H   0  0  0  0  0  0  0  0  0  0  0  0
   13.5464    1.0831    0.0000 H   0  0  0  0  0  0  0  0  0  0  0  0
   14.3933    1.3100    0.0000 H   0  0  0  0  0  0  0  0  0  0  0  0
   14.1664    2.1569    0.0000 H   0  0  0  0  0  0  0  0  0  0  0  0
    2.1995    2.5949    0.0000 H   0  0  0  0  0  0  0  0  0  0  0  0
    2.9966    2.5949    0.0000 H   0  0  0  0  0  0  0  0  0  0  0  0
    4.0841    0.6200    0.0000 H   0  0  0  0  0  0  0  0  0  0  0  0
    3.4641    0.0000    0.0000 H   0  0  0  0  0  0  0  0  0  0  0  0
    2.8441    0.6200    0.0000 H   0  0  0  0  0  0  0  0  0  0  0  0
  2 16  2  0  0  0  0
  3 20  1  0  0  0  0
  4 20  2  0  0  0  0
  5 16  1  0  0  0  0
  5 18  1  0  0  0  0
  5 19  1  0  0  0  0
  6  7  1  0  0  0  0
  6  8  1  0  0  0  0
  6 21  1  0  0  0  0
  6 22  1  0  0  0  0
  7  9  1  0  0  0  0
  7 23  1  0  0  0  0
  7 24  1  0  0  0  0
  8 10  1  0  0  0  0
  8 25  1  0  0  0  0
  8 26  1  0  0  0  0
  9 11  1  0  0  0  0
  9 27  1  0  0  0  0
  9 28  1  0  0  0  0
 10 12  1  0  0  0  0
 10 29  1  0  0  0  0
 10 30  1  0  0  0  0
 11 13  1  0  0  0  0
 11 31  1  0  0  0  0
 11 32  1  0  0  0  0
 12 14  1  0  0  0  0
 12 33  1  0  0  0  0
 12 34  1  0  0  0  0
 13 15  1  0  0  0  0
 13 35  1  0  0  0  0
 13 36  1  0  0  0  0
 14 16  1  0  0  0  0
 14 37  1  0  0  0  0
 14 38  1  0  0  0  0
 15 17  1  0  0  0  0
 15 39  1  0  0  0  0
 15 40  1  0  0  0  0
 17 41  1  0  0  0  0
 17 42  1  0  0  0  0
 17 43  1  0  0  0  0
 18 20  1  0  0  0  0
 18 44  1  0  0  0  0
 18 45  1  0  0  0  0
 19 46  1  0  0  0  0
 19 47  1  0  0  0  0
 19 48  1  0  0  0  0
M  CHG  2   1   1   3  -1
M  END
> <PUBCHEM_COMPOUND_CID>
8716

> <PUBCHEM_COMPOUND_CANONICALIZED>
1

> <PUBCHEM_CACTVS_COMPLEXITY>
248

> <PUBCHEM_CACTVS_HBOND_ACCEPTOR>
3

> <PUBCHEM_CACTVS_HBOND_DONOR>
0

> <PUBCHEM_CACTVS_ROTATABLE_BOND>
11

> <PUBCHEM_CACTVS_SUBSKEYS>
AAADceByMCAAAAAAAAAAAAAAAAAAAAAAAAAAAAAAAAAAAAAAAAAAHgAAAAAACADBgAQCCAMAAAAIAAGQGAAAAAAAAAAAAAGIAAACABIAgCAEAAAABgCQAAEYiICAAAAAAAAAAAAAAAAAAAAAAAAAAAAAAA==

> <PUBCHEM_IUPAC_OPENEYE_NAME>
sodium 2-[dodecanoyl(methyl)amino]acetate

> <PUBCHEM_IUPAC_CAS_NAME>
sodium 2-[methyl(1-oxododecyl)amino]acetate

> <PUBCHEM_IUPAC_NAME>
sodium 2-[dodecanoyl(methyl)amino]acetate

> <PUBCHEM_IUPAC_SYSTEMATIC_NAME>
sodium 2-[dodecanoyl(methyl)amino]ethanoate

> <PUBCHEM_IUPAC_TRADITIONAL_NAME>
sodium 2-[lauroyl(methyl)amino]acetate

> <PUBCHEM_IUPAC_INCHI>
InChI=1S/C15H29NO3.Na/c1-3-4-5-6-7-8-9-10-11-12-14(17)16(2)13-15(18)19;/h3-13H2,1-2H3,(H,18,19);/q;+1/p-1

> <PUBCHEM_IUPAC_INCHIKEY>
KSAVQLQVUXSOCR-UHFFFAOYSA-M

> <PUBCHEM_EXACT_MASS>
293.196688

> <PUBCHEM_MOLECULAR_FORMULA>
C15H28NNaO3

> <PUBCHEM_MOLECULAR_WEIGHT>
293.377489

> <PUBCHEM_OPENEYE_CAN_SMILES>
CCCCCCCCCCCC(=O)N(C)CC(=O)[O-].[Na+]

> <PUBCHEM_OPENEYE_ISO_SMILES>
CCCCCCCCCCCC(=O)N(C)CC(=O)[O-].[Na+]

> <PUBCHEM_CACTVS_TPSA>
60.4

> <PUBCHEM_MONOISOTOPIC_WEIGHT>
293.196688

> <PUBCHEM_TOTAL_CHARGE>
0

> <PUBCHEM_HEAVY_ATOM_COUNT>
20

> <PUBCHEM_ATOM_DEF_STEREO_COUNT>
0

> <PUBCHEM_ATOM_UDEF_STEREO_COUNT>
0

> <PUBCHEM_BOND_DEF_STEREO_COUNT>
0

> <PUBCHEM_BOND_UDEF_STEREO_COUNT>
0

> <PUBCHEM_ISOTOPIC_ATOM_COUNT>
0

> <PUBCHEM_COMPONENT_COUNT>
2

> <PUBCHEM_CACTVS_TAUTO_COUNT>
1

> <PUBCHEM_COORDINATE_TYPE>
1
5
255

$$$$

