23724511
  -OEChem-07051213013D

 78 85  0     1  0  0  0  0  0999 V2000
    8.8613    2.2699    0.3131 S   0  0  0  0  0  0  0  0  0  0  0  0
    0.5988   -0.9082   -1.2393 O   0  0  0  0  0  0  0  0  0  0  0  0
   -1.1212    2.7415   -1.8253 O   0  0  0  0  0  0  0  0  0  0  0  0
    2.3222    0.3068   -0.2304 O   0  0  0  0  0  0  0  0  0  0  0  0
    5.9671    0.0545   -0.3772 O   0  0  0  0  0  0  0  0  0  0  0  0
   -3.1828    2.4055   -2.7928 O   0  0  0  0  0  0  0  0  0  0  0  0
    2.5505   -2.7374   -2.2768 O   0  0  0  0  0  0  0  0  0  0  0  0
    5.3599    1.6100    1.3453 O   0  0  0  0  0  0  0  0  0  0  0  0
    5.1225   -1.4575   -2.7152 O   0  0  0  0  0  0  0  0  0  0  0  0
   -1.5921   -5.0075    1.4495 O   0  0  0  0  0  0  0  0  0  0  0  0
   -3.8379   -4.8576    0.5911 O   0  0  0  0  0  0  0  0  0  0  0  0
   -4.6138    1.1587    3.1938 O   0  0  0  0  0  0  0  0  0  0  0  0
   -7.0455    2.6317   -0.6601 O   0  0  0  0  0  0  0  0  0  0  0  0
   -6.6975    2.6101    2.0873 O   0  0  0  0  0  0  0  0  0  0  0  0
   -0.9905    0.7874   -0.5878 C   0  0  1  0  0  0  0  0  0  0  0  0
   -1.9943    0.5711   -1.7070 C   0  0  1  0  0  0  0  0  0  0  0  0
   -0.3139   -0.5246   -0.2112 C   0  0  1  0  0  0  0  0  0  0  0  0
   -3.1786   -0.2887   -1.2405 C   0  0  1  0  0  0  0  0  0  0  0  0
   -1.3347   -1.6316   -0.0078 C   0  0  0  0  0  0  0  0  0  0  0  0
   -2.6674   -1.5414   -0.5161 C   0  0  0  0  0  0  0  0  0  0  0  0
   -0.1540    1.9068   -1.1609 C   0  0  0  0  0  0  0  0  0  0  0  0
   -2.2184    1.9878   -2.1730 C   0  0  0  0  0  0  0  0  0  0  0  0
    1.9375   -0.9686   -0.7485 C   0  0  2  0  0  0  0  0  0  0  0  0
   -4.1136    0.4820   -0.3561 C   0  0  0  0  0  0  0  0  0  0  0  0
    2.8441   -1.3892   -1.9114 C   0  0  1  0  0  0  0  0  0  0  0  0
    4.6346    0.0436   -0.8909 C   0  0  1  0  0  0  0  0  0  0  0  0
    4.3272   -1.3029   -1.5395 C   0  0  2  0  0  0  0  0  0  0  0  0
    3.6581    0.2957    0.2563 C   0  0  1  0  0  0  0  0  0  0  0  0
   -0.9226   -2.7950    0.6688 C   0  0  0  0  0  0  0  0  0  0  0  0
   -3.5567   -2.6195   -0.3380 C   0  0  0  0  0  0  0  0  0  0  0  0
    3.9998    1.6272    0.9125 C   0  0  0  0  0  0  0  0  0  0  0  0
   -1.8297   -3.8221    0.8242 C   0  0  0  0  0  0  0  0  0  0  0  0
   -3.1093   -3.7373    0.3340 C   0  0  0  0  0  0  0  0  0  0  0  0
   -5.1560    1.2074   -0.9223 C   0  0  0  0  0  0  0  0  0  0  0  0
   -3.9293    0.4646    1.0220 C   0  0  0  0  0  0  0  0  0  0  0  0
    6.2460    1.3076    0.2611 C   0  0  1  0  0  0  0  0  0  0  0  0
   -4.7984    1.1816    1.8443 C   0  0  0  0  0  0  0  0  0  0  0  0
   -6.0250    1.9245   -0.1000 C   0  0  0  0  0  0  0  0  0  0  0  0
   -2.8705   -5.6580    1.3006 C   0  0  0  0  0  0  0  0  0  0  0  0
   -5.8462    1.9116    1.2833 C   0  0  0  0  0  0  0  0  0  0  0  0
    7.6305    1.2002    0.8450 C   0  0  0  0  0  0  0  0  0  0  0  0
    8.0976    0.3204    1.8019 C   0  0  0  0  0  0  0  0  0  0  0  0
    9.4756    0.5282    2.0989 C   0  0  0  0  0  0  0  0  0  0  0  0
   10.0145    1.5582    1.3598 C   0  0  0  0  0  0  0  0  0  0  0  0
   -3.7708    2.1658    3.7499 C   0  0  0  0  0  0  0  0  0  0  0  0
   -6.7770    3.9870   -1.0147 C   0  0  0  0  0  0  0  0  0  0  0  0
   -1.4951    1.1939    0.2975 H   0  0  0  0  0  0  0  0  0  0  0  0
   -1.5067    0.0566   -2.5493 H   0  0  0  0  0  0  0  0  0  0  0  0
    0.1954   -0.3676    0.7504 H   0  0  0  0  0  0  0  0  0  0  0  0
   -3.7245   -0.6248   -2.1336 H   0  0  0  0  0  0  0  0  0  0  0  0
    0.5817    1.5869   -1.9052 H   0  0  0  0  0  0  0  0  0  0  0  0
    0.3482    2.4866   -0.3811 H   0  0  0  0  0  0  0  0  0  0  0  0
    1.9800   -1.7227    0.0488 H   0  0  0  0  0  0  0  0  0  0  0  0
    2.6468   -0.7694   -2.7951 H   0  0  0  0  0  0  0  0  0  0  0  0
    4.5514    0.8254   -1.6592 H   0  0  0  0  0  0  0  0  0  0  0  0
    4.6105   -2.1231   -0.8681 H   0  0  0  0  0  0  0  0  0  0  0  0
    3.7707   -0.4881    1.0190 H   0  0  0  0  0  0  0  0  0  0  0  0
    0.0849   -2.8892    1.0605 H   0  0  0  0  0  0  0  0  0  0  0  0
   -4.5734   -2.5745   -0.7159 H   0  0  0  0  0  0  0  0  0  0  0  0
    3.8357    2.4702    0.2301 H   0  0  0  0  0  0  0  0  0  0  0  0
    3.3593    1.7994    1.7840 H   0  0  0  0  0  0  0  0  0  0  0  0
   -5.3182    1.2038   -1.9968 H   0  0  0  0  0  0  0  0  0  0  0  0
   -3.1218   -0.0772    1.5036 H   0  0  0  0  0  0  0  0  0  0  0  0
    6.1945    2.1137   -0.4830 H   0  0  0  0  0  0  0  0  0  0  0  0
    1.6012   -2.7818   -2.4833 H   0  0  0  0  0  0  0  0  0  0  0  0
    4.8788   -2.3073   -3.1206 H   0  0  0  0  0  0  0  0  0  0  0  0
   -3.2666   -5.8862    2.2969 H   0  0  0  0  0  0  0  0  0  0  0  0
   -2.7250   -6.5977    0.7557 H   0  0  0  0  0  0  0  0  0  0  0  0
    7.4804   -0.4374    2.2678 H   0  0  0  0  0  0  0  0  0  0  0  0
   -7.3843    3.0181    1.5323 H   0  0  0  0  0  0  0  0  0  0  0  0
   10.0426   -0.0486    2.8179 H   0  0  0  0  0  0  0  0  0  0  0  0
   11.0303    1.9267    1.3844 H   0  0  0  0  0  0  0  0  0  0  0  0
   -4.1764    3.1624    3.5490 H   0  0  0  0  0  0  0  0  0  0  0  0
   -3.7274    2.0172    4.8322 H   0  0  0  0  0  0  0  0  0  0  0  0
   -2.7573    2.0838    3.3442 H   0  0  0  0  0  0  0  0  0  0  0  0
   -6.4648    4.5639   -0.1383 H   0  0  0  0  0  0  0  0  0  0  0  0
   -6.0036    4.0324   -1.7880 H   0  0  0  0  0  0  0  0  0  0  0  0
   -7.6960    4.4255   -1.4129 H   0  0  0  0  0  0  0  0  0  0  0  0
  1 41  1  0  0  0  0
  1 44  1  0  0  0  0
  2 17  1  0  0  0  0
  2 23  1  0  0  0  0
  3 21  1  0  0  0  0
  3 22  1  0  0  0  0
  4 23  1  0  0  0  0
  4 28  1  0  0  0  0
  5 26  1  0  0  0  0
  5 36  1  0  0  0  0
  6 22  2  0  0  0  0
  7 25  1  0  0  0  0
  7 65  1  0  0  0  0
  8 31  1  0  0  0  0
  8 36  1  0  0  0  0
  9 27  1  0  0  0  0
  9 66  1  0  0  0  0
 10 32  1  0  0  0  0
 10 39  1  0  0  0  0
 11 33  1  0  0  0  0
 11 39  1  0  0  0  0
 12 37  1  0  0  0  0
 12 45  1  0  0  0  0
 13 38  1  0  0  0  0
 13 46  1  0  0  0  0
 14 40  1  0  0  0  0
 14 70  1  0  0  0  0
 15 16  1  0  0  0  0
 15 17  1  0  0  0  0
 15 21  1  0  0  0  0
 15 47  1  0  0  0  0
 16 18  1  0  0  0  0
 16 22  1  0  0  0  0
 16 48  1  0  0  0  0
 17 19  1  0  0  0  0
 17 49  1  0  0  0  0
 18 20  1  0  0  0  0
 18 24  1  0  0  0  0
 18 50  1  0  0  0  0
 19 20  1  0  0  0  0
 19 29  2  0  0  0  0
 20 30  2  0  0  0  0
 21 51  1  0  0  0  0
 21 52  1  0  0  0  0
 23 25  1  0  0  0  0
 23 53  1  0  0  0  0
 24 34  2  0  0  0  0
 24 35  1  0  0  0  0
 25 27  1  0  0  0  0
 25 54  1  0  0  0  0
 26 27  1  0  0  0  0
 26 28  1  0  0  0  0
 26 55  1  0  0  0  0
 27 56  1  0  0  0  0
 28 31  1  0  0  0  0
 28 57  1  0  0  0  0
 29 32  1  0  0  0  0
 29 58  1  0  0  0  0
 30 33  1  0  0  0  0
 30 59  1  0  0  0  0
 31 60  1  0  0  0  0
 31 61  1  0  0  0  0
 32 33  2  0  0  0  0
 34 38  1  0  0  0  0
 34 62  1  0  0  0  0
 35 37  2  0  0  0  0
 35 63  1  0  0  0  0
 36 41  1  0  0  0  0
 36 64  1  0  0  0  0
 37 40  1  0  0  0  0
 38 40  2  0  0  0  0
 39 67  1  0  0  0  0
 39 68  1  0  0  0  0
 41 42  2  0  0  0  0
 42 43  1  0  0  0  0
 42 69  1  0  0  0  0
 43 44  2  0  0  0  0
 43 71  1  0  0  0  0
 44 72  1  0  0  0  0
 45 73  1  0  0  0  0
 45 74  1  0  0  0  0
 45 75  1  0  0  0  0
 46 76  1  0  0  0  0
 46 77  1  0  0  0  0
 46 78  1  0  0  0  0
M  END
> <PUBCHEM_COMPOUND_CID>
23724511

> <PUBCHEM_CONFORMER_RMSD>
1.2

> <PUBCHEM_CONFORMER_DIVERSEORDER>
1
20
10
9
18
8
13
4
11
7
5
6
19
2
17
3
12
16
15
14

> <PUBCHEM_MMFF94_PARTIAL_CHARGES>
55
1 -0.08
10 -0.36
11 -0.36
12 -0.36
13 -0.36
14 -0.53
16 0.06
17 0.42
18 0.29
19 -0.14
2 -0.56
20 -0.14
21 0.28
22 0.66
23 0.56
24 -0.14
25 0.28
26 0.28
27 0.28
28 0.28
29 -0.15
3 -0.43
30 -0.15
31 0.28
32 0.08
33 0.08
34 -0.15
35 -0.15
36 0.74
37 0.08
38 0.08
39 0.56
4 -0.56
40 0.08
41 -0.14
42 -0.15
43 -0.15
44 -0.11
45 0.28
46 0.28
5 -0.56
58 0.15
59 0.15
6 -0.57
62 0.15
63 0.15
65 0.4
66 0.4
69 0.15
7 -0.68
70 0.45
71 0.15
72 0.15
8 -0.56
9 -0.68

> <PUBCHEM_EFFECTIVE_ROTOR_COUNT>
9

> <PUBCHEM_PHARMACOPHORE_FEATURES>
22
1 10 acceptor
1 11 acceptor
1 12 acceptor
1 13 acceptor
1 14 donor
1 2 acceptor
1 4 acceptor
1 5 acceptor
1 6 acceptor
1 7 acceptor
1 7 donor
1 8 acceptor
1 9 acceptor
1 9 donor
5 1 41 42 43 44 rings
5 10 11 32 33 39 rings
5 3 15 16 21 22 rings
6 15 16 17 18 19 20 rings
6 19 20 29 30 32 33 rings
6 24 34 35 37 38 40 rings
6 4 23 25 26 27 28 rings
6 5 8 26 28 31 36 rings

> <PUBCHEM_HEAVY_ATOM_COUNT>
46

> <PUBCHEM_ATOM_DEF_STEREO_COUNT>
8

> <PUBCHEM_ATOM_UDEF_STEREO_COUNT>
2

> <PUBCHEM_BOND_DEF_STEREO_COUNT>
0

> <PUBCHEM_BOND_UDEF_STEREO_COUNT>
0

> <PUBCHEM_ISOTOPIC_ATOM_COUNT>
0

> <PUBCHEM_COMPONENT_COUNT>
1

> <PUBCHEM_CACTVS_TAUTO_COUNT>
4

> <PUBCHEM_CONFORMER_ID>
016A01DF00000001

> <PUBCHEM_MMFF94_ENERGY>
153.1921

> <PUBCHEM_FEATURE_SELFOVERLAP>
112

> <PUBCHEM_SHAPE_FINGERPRINT>
10290309 65 18129106803885812527
10816530 145 18410572868582046969
10930396 42 18272377472769414477
11007060 377 18408880755310788391
12128747 34 17821996619163146401
13383668 254 16660928756219182042
13560911 23 18267598918304983570
14068700 675 18052258384953182359
14705955 166 18115293489283336227
15289351 153 17240484737292977840
15324884 4 17970878168523889422
16114785 44 18269848656592948189
21033648 29 18271241741624292381
22122407 14 17022901216392463848
24771293 8 18409735079624294493
255183 313 18201712968785603151
3886686 26 18267871579919859417
4073 2 18335415747555695054
4403749 210 18114750318091941542
4616759 239 18261114032757337730
5080951 261 18201446830752400415
6009941 240 18260548901129250448
6691757 9 18271814496988010895
6695519 79 18125427851650302185
6698420 124 18261943171798538683
9896288 288 18269558239078147698

> <PUBCHEM_SHAPE_MULTIPOLES>
874.21
23.68
5.4
2.64
58.65
7.84
-0.88
-21.56
-12.21
-11.13
-1.5
-1.3
-1.19
2.75

> <PUBCHEM_SHAPE_SELFOVERLAP>
1935.856

> <PUBCHEM_SHAPE_VOLUME>
472.8

> <PUBCHEM_COORDINATE_TYPE>
2
5
10

$$$$

