17395344
  -OEChem-06241222493D

 33 35  0     0  0  0  0  0  0999 V2000
    5.7951    0.3699   -0.9569 Cl  0  0  0  0  0  0  0  0  0  0  0  0
   -4.5581    1.4715   -0.8688 O   0  0  0  0  0  0  0  0  0  0  0  0
    0.3523    0.3450    1.1021 O   0  0  0  0  0  0  0  0  0  0  0  0
   -1.8809   -2.1478    1.0750 O   0  0  0  0  0  0  0  0  0  0  0  0
   -2.5357   -0.0362    0.3920 N   0  0  0  0  0  0  0  0  0  0  0  0
   -2.2563    1.3163   -0.1087 C   0  0  0  0  0  0  0  0  0  0  0  0
   -3.9494   -0.2923    0.6715 C   0  0  0  0  0  0  0  0  0  0  0  0
   -3.1959    1.6584   -1.2594 C   0  0  0  0  0  0  0  0  0  0  0  0
   -4.8083    0.1078   -0.5190 C   0  0  0  0  0  0  0  0  0  0  0  0
   -1.5764   -1.0301    0.6546 C   0  0  0  0  0  0  0  0  0  0  0  0
   -0.1781   -0.6950    0.4072 C   0  0  0  0  0  0  0  0  0  0  0  0
    0.7609   -1.2506   -0.4307 C   0  0  0  0  0  0  0  0  0  0  0  0
    1.9548   -0.5053   -0.2440 C   0  0  0  0  0  0  0  0  0  0  0  0
    1.6512    0.4630    0.7074 C   0  0  0  0  0  0  0  0  0  0  0  0
    0.5660   -2.3954   -1.3417 C   0  0  0  0  0  0  0  0  0  0  0  0
    3.2568   -0.5418   -0.7733 C   0  0  0  0  0  0  0  0  0  0  0  0
    2.5602    1.4095    1.1768 C   0  0  0  0  0  0  0  0  0  0  0  0
    4.1932    0.3980   -0.3211 C   0  0  0  0  0  0  0  0  0  0  0  0
    3.8487    1.3550    0.6370 C   0  0  0  0  0  0  0  0  0  0  0  0
   -1.2248    1.4286   -0.4453 H   0  0  0  0  0  0  0  0  0  0  0  0
   -2.4228    1.9985    0.7329 H   0  0  0  0  0  0  0  0  0  0  0  0
   -4.2071    0.3187    1.5446 H   0  0  0  0  0  0  0  0  0  0  0  0
   -4.1210   -1.3412    0.9298 H   0  0  0  0  0  0  0  0  0  0  0  0
   -3.0693    2.7064   -1.5480 H   0  0  0  0  0  0  0  0  0  0  0  0
   -2.9859    1.0408   -2.1409 H   0  0  0  0  0  0  0  0  0  0  0  0
   -4.6120   -0.5313   -1.3881 H   0  0  0  0  0  0  0  0  0  0  0  0
   -5.8690    0.0147   -0.2662 H   0  0  0  0  0  0  0  0  0  0  0  0
    0.8069   -3.3329   -0.8306 H   0  0  0  0  0  0  0  0  0  0  0  0
   -0.4694   -2.4541   -1.6932 H   0  0  0  0  0  0  0  0  0  0  0  0
    1.2067   -2.3138   -2.2256 H   0  0  0  0  0  0  0  0  0  0  0  0
    3.5274   -1.2856   -1.5176 H   0  0  0  0  0  0  0  0  0  0  0  0
    2.2853    2.1487    1.9197 H   0  0  0  0  0  0  0  0  0  0  0  0
    4.5860    2.0785    0.9795 H   0  0  0  0  0  0  0  0  0  0  0  0
  1 18  1  0  0  0  0
  2  8  1  0  0  0  0
  2  9  1  0  0  0  0
  3 11  1  0  0  0  0
  3 14  1  0  0  0  0
  4 10  2  0  0  0  0
  5  6  1  0  0  0  0
  5  7  1  0  0  0  0
  5 10  1  0  0  0  0
  6  8  1  0  0  0  0
  6 20  1  0  0  0  0
  6 21  1  0  0  0  0
  7  9  1  0  0  0  0
  7 22  1  0  0  0  0
  7 23  1  0  0  0  0
  8 24  1  0  0  0  0
  8 25  1  0  0  0  0
  9 26  1  0  0  0  0
  9 27  1  0  0  0  0
 10 11  1  0  0  0  0
 11 12  2  0  0  0  0
 12 13  1  0  0  0  0
 12 15  1  0  0  0  0
 13 14  2  0  0  0  0
 13 16  1  0  0  0  0
 14 17  1  0  0  0  0
 15 28  1  0  0  0  0
 15 29  1  0  0  0  0
 15 30  1  0  0  0  0
 16 18  2  0  0  0  0
 16 31  1  0  0  0  0
 17 19  2  0  0  0  0
 17 32  1  0  0  0  0
 18 19  1  0  0  0  0
 19 33  1  0  0  0  0
M  END
> <PUBCHEM_COMPOUND_CID>
17395344

> <PUBCHEM_CONFORMER_RMSD>
0.6

> <PUBCHEM_CONFORMER_DIVERSEORDER>
1
7
9
5
6
4
8
10
2
3

> <PUBCHEM_MMFF94_PARTIAL_CHARGES>
21
1 -0.18
10 0.71
11 0.05
12 -0.18
14 0.14
15 0.18
16 -0.15
17 -0.15
18 0.18
19 -0.15
2 -0.56
3 -0.28
31 0.15
32 0.15
33 0.15
4 -0.57
5 -0.66
6 0.3
7 0.3
8 0.28
9 0.28

> <PUBCHEM_EFFECTIVE_ROTOR_COUNT>
3.2

> <PUBCHEM_PHARMACOPHORE_FEATURES>
6
1 2 acceptor
1 3 acceptor
1 4 acceptor
5 3 11 12 13 14 rings
6 13 14 16 17 18 19 rings
6 2 5 6 7 8 9 rings

> <PUBCHEM_HEAVY_ATOM_COUNT>
19

> <PUBCHEM_ATOM_DEF_STEREO_COUNT>
0

> <PUBCHEM_ATOM_UDEF_STEREO_COUNT>
0

> <PUBCHEM_BOND_DEF_STEREO_COUNT>
0

> <PUBCHEM_BOND_UDEF_STEREO_COUNT>
0

> <PUBCHEM_ISOTOPIC_ATOM_COUNT>
0

> <PUBCHEM_COMPONENT_COUNT>
1

> <PUBCHEM_CACTVS_TAUTO_COUNT>
1

> <PUBCHEM_CONFORMER_ID>
01096E9000000001

> <PUBCHEM_MMFF94_ENERGY>
38.2307

> <PUBCHEM_FEATURE_SELFOVERLAP>
30.548

> <PUBCHEM_SHAPE_FINGERPRINT>
10498660 4 18058739129630148573
10646746 165 18202285813895177640
10693767 8 17096082631857952430
11471102 20 17894908517009687008
12011746 2 18411702088482375789
12236239 1 16128657431464034016
12403259 415 18334857182120129512
12500047 106 18271805696731948810
12555020 224 17530953692863949254
12596602 18 15697994115600562665
12670546 177 17748831791119929133
12670546 56 17489317394626580362
12730499 353 18335416907201925219
12969540 114 18114189618252587636
13288520 33 5689600472265351276
13464514 151 18191017017974681376
13583140 156 18343017753453641554
13760787 19 17988642969973207250
14251752 14 18272647966331764060
14251764 30 15577273121208216031
14911166 2 17894342272879614094
15099037 51 18113612379275294686
15209294 21 16200152088507315060
17349148 13 16588021338287624886
18186145 218 17894633638770420600
19862831 5 16225769609849008371
200 152 16515398577829069152
20645477 56 18272929414615602131
20645477 70 17822001039122727198
21033648 29 18335147461901317784
21503847 285 17060332986422871156
221357 26 17968098650605255657
23114952 82 18119531191769172615
231179 274 18411984663170797336
23227448 37 18128256692535187421
23402539 116 18202005400081480799
23402655 69 18041282161898271565
23493267 7 18272088279846788090
23557571 272 18272076176797940907
23559900 14 18341891926756460170
25 1 18259983811770308354
2748010 2 18115303363344012186
3060560 45 18040158430933855718
3472631 163 17632859745987884309
3545911 37 18341889684229344938
4028521 119 18411423925241844173
4072396 5 18260840336504476282
633830 44 17168686592642434368
7471813 234 15647051560548529008
81228 2 17394468900183001730

> <PUBCHEM_SHAPE_MULTIPOLES>
370.29
10.16
1.9
1.22
1.33
0.62
0.07
-3.97
2.92
-0.43
0.26
-0.15
-0.03
1.5

> <PUBCHEM_SHAPE_SELFOVERLAP>
793.659

> <PUBCHEM_SHAPE_VOLUME>
206.4

> <PUBCHEM_COORDINATE_TYPE>
2
5
10

$$$$

