442615
  -OEChem-07051212583D

 73 77  0     1  0  0  0  0  0999 V2000
   -1.1777   -1.9820   -0.7000 O   0  0  0  0  0  0  0  0  0  0  0  0
    4.3774   -0.5077   -0.7670 O   0  0  0  0  0  0  0  0  0  0  0  0
   -0.4045   -1.3340    2.8288 O   0  0  0  0  0  0  0  0  0  0  0  0
    4.3067    2.4076    1.4615 O   0  0  0  0  0  0  0  0  0  0  0  0
   -3.1117   -2.4749    2.9001 O   0  0  0  0  0  0  0  0  0  0  0  0
    6.6401    0.8761    2.3809 O   0  0  0  0  0  0  0  0  0  0  0  0
   -3.4638   -4.4177    0.8009 O   0  0  0  0  0  0  0  0  0  0  0  0
    7.9153   -0.4753    0.1780 O   0  0  0  0  0  0  0  0  0  0  0  0
   -1.6960    0.7588   -0.0549 O   0  0  0  0  0  0  0  0  0  0  0  0
    2.4473   -1.5360    0.3053 O   0  0  0  0  0  0  0  0  0  0  0  0
    2.4775    3.1085   -0.7514 O   0  0  0  0  0  0  0  0  0  0  0  0
   -1.6125   -3.5626   -2.9039 O   0  0  0  0  0  0  0  0  0  0  0  0
    5.3696   -2.0616   -2.8031 O   0  0  0  0  0  0  0  0  0  0  0  0
    0.1574    4.2794   -0.9318 O   0  0  0  0  0  0  0  0  0  0  0  0
   -6.3976   -0.8490   -0.7315 O   0  0  0  0  0  0  0  0  0  0  0  0
   -8.0006    1.2800    0.0579 O   0  0  0  0  0  0  0  0  0  0  0  0
   -0.3801   -1.6498    0.4410 C   0  0  2  0  0  0  0  0  0  0  0  0
    3.9755    0.7766   -0.2798 C   0  0  2  0  0  0  0  0  0  0  0  0
   -1.2554   -1.5040    1.6954 C   0  0  1  0  0  0  0  0  0  0  0  0
    4.6034    1.0607    1.0934 C   0  0  1  0  0  0  0  0  0  0  0  0
   -2.1228   -2.7482    1.9058 C   0  0  2  0  0  0  0  0  0  0  0  0
    6.1232    0.8797    1.0490 C   0  0  2  0  0  0  0  0  0  0  0  0
   -2.8452   -3.1466    0.6190 C   0  0  1  0  0  0  0  0  0  0  0  0
    6.5064   -0.4455    0.3907 C   0  0  1  0  0  0  0  0  0  0  0  0
   -1.8641   -3.2258   -0.5521 C   0  0  1  0  0  0  0  0  0  0  0  0
    5.7898   -0.6126   -0.9507 C   0  0  1  0  0  0  0  0  0  0  0  0
    0.3698   -0.3714    0.1214 C   0  0  0  0  0  0  0  0  0  0  0  0
    2.4604    0.7941   -0.2247 C   0  0  0  0  0  0  0  0  0  0  0  0
    1.7638   -0.3791    0.0689 C   0  0  0  0  0  0  0  0  0  0  0  0
   -0.3268    0.8131   -0.1201 C   0  0  0  0  0  0  0  0  0  0  0  0
    1.7663    1.9801   -0.4672 C   0  0  0  0  0  0  0  0  0  0  0  0
    0.3706    1.9838   -0.4135 C   0  0  0  0  0  0  0  0  0  0  0  0
   -2.5777   -3.5146   -1.8688 C   0  0  0  0  0  0  0  0  0  0  0  0
    6.0707   -1.9751   -1.5758 C   0  0  0  0  0  0  0  0  0  0  0  0
   -0.3889    3.2178   -0.6658 C   0  0  0  0  0  0  0  0  0  0  0  0
   -2.4148    1.9222   -0.2839 C   0  0  0  0  0  0  0  0  0  0  0  0
   -1.8593    3.1076   -0.5816 C   0  0  0  0  0  0  0  0  0  0  0  0
   -3.8787    1.7501   -0.1951 C   0  0  0  0  0  0  0  0  0  0  0  0
   -4.4613    0.5193   -0.5074 C   0  0  0  0  0  0  0  0  0  0  0  0
   -4.6878    2.8180    0.2009 C   0  0  0  0  0  0  0  0  0  0  0  0
   -5.8443    0.3575   -0.4243 C   0  0  0  0  0  0  0  0  0  0  0  0
   -6.0707    2.6563    0.2839 C   0  0  0  0  0  0  0  0  0  0  0  0
   -6.6490    1.4261   -0.0285 C   0  0  0  0  0  0  0  0  0  0  0  0
    0.3301   -2.4697    0.6036 H   0  0  0  0  0  0  0  0  0  0  0  0
    4.3084    1.5198   -1.0165 H   0  0  0  0  0  0  0  0  0  0  0  0
   -1.9215   -0.6397    1.6772 H   0  0  0  0  0  0  0  0  0  0  0  0
    4.1798    0.4114    1.8691 H   0  0  0  0  0  0  0  0  0  0  0  0
   -1.5158   -3.5762    2.2923 H   0  0  0  0  0  0  0  0  0  0  0  0
    6.6067    1.7174    0.5314 H   0  0  0  0  0  0  0  0  0  0  0  0
   -3.6428   -2.4249    0.4104 H   0  0  0  0  0  0  0  0  0  0  0  0
    6.2542   -1.2756    1.0629 H   0  0  0  0  0  0  0  0  0  0  0  0
   -1.1199   -4.0174   -0.3901 H   0  0  0  0  0  0  0  0  0  0  0  0
    6.1097    0.1618   -1.6612 H   0  0  0  0  0  0  0  0  0  0  0  0
   -3.2951   -2.7254   -2.1173 H   0  0  0  0  0  0  0  0  0  0  0  0
   -3.1033   -4.4733   -1.8431 H   0  0  0  0  0  0  0  0  0  0  0  0
    5.7044   -2.7835   -0.9348 H   0  0  0  0  0  0  0  0  0  0  0  0
    7.1366   -2.1319   -1.7664 H   0  0  0  0  0  0  0  0  0  0  0  0
   -0.9731   -1.2911    3.6167 H   0  0  0  0  0  0  0  0  0  0  0  0
    4.6795    2.9946    0.7816 H   0  0  0  0  0  0  0  0  0  0  0  0
   -3.6520   -3.2772    3.0014 H   0  0  0  0  0  0  0  0  0  0  0  0
    6.3690    1.7113    2.7990 H   0  0  0  0  0  0  0  0  0  0  0  0
   -2.7647   -5.0685    0.9835 H   0  0  0  0  0  0  0  0  0  0  0  0
    8.3427   -0.3430    1.0415 H   0  0  0  0  0  0  0  0  0  0  0  0
    3.3760   -1.3527    0.5142 H   0  0  0  0  0  0  0  0  0  0  0  0
    1.8861    3.8635   -0.8904 H   0  0  0  0  0  0  0  0  0  0  0  0
   -2.4236    4.0094   -0.7876 H   0  0  0  0  0  0  0  0  0  0  0  0
   -1.1506   -2.7068   -2.9151 H   0  0  0  0  0  0  0  0  0  0  0  0
    5.7118   -1.3648   -3.3887 H   0  0  0  0  0  0  0  0  0  0  0  0
   -3.8470   -0.3171   -0.8320 H   0  0  0  0  0  0  0  0  0  0  0  0
   -4.2749    3.7853    0.4743 H   0  0  0  0  0  0  0  0  0  0  0  0
   -6.6919    3.4908    0.5978 H   0  0  0  0  0  0  0  0  0  0  0  0
   -5.6907   -1.4682   -0.9821 H   0  0  0  0  0  0  0  0  0  0  0  0
   -8.2262    0.3674   -0.1930 H   0  0  0  0  0  0  0  0  0  0  0  0
  1 17  1  0  0  0  0
  1 25  1  0  0  0  0
  2 18  1  0  0  0  0
  2 26  1  0  0  0  0
  3 19  1  0  0  0  0
  3 58  1  0  0  0  0
  4 20  1  0  0  0  0
  4 59  1  0  0  0  0
  5 21  1  0  0  0  0
  5 60  1  0  0  0  0
  6 22  1  0  0  0  0
  6 61  1  0  0  0  0
  7 23  1  0  0  0  0
  7 62  1  0  0  0  0
  8 24  1  0  0  0  0
  8 63  1  0  0  0  0
  9 30  1  0  0  0  0
  9 36  1  0  0  0  0
 10 29  1  0  0  0  0
 10 64  1  0  0  0  0
 11 31  1  0  0  0  0
 11 65  1  0  0  0  0
 12 33  1  0  0  0  0
 12 67  1  0  0  0  0
 13 34  1  0  0  0  0
 13 68  1  0  0  0  0
 14 35  2  0  0  0  0
 15 41  1  0  0  0  0
 15 72  1  0  0  0  0
 16 43  1  0  0  0  0
 16 73  1  0  0  0  0
 17 19  1  0  0  0  0
 17 27  1  0  0  0  0
 17 44  1  0  0  0  0
 18 20  1  0  0  0  0
 18 28  1  0  0  0  0
 18 45  1  0  0  0  0
 19 21  1  0  0  0  0
 19 46  1  0  0  0  0
 20 22  1  0  0  0  0
 20 47  1  0  0  0  0
 21 23  1  0  0  0  0
 21 48  1  0  0  0  0
 22 24  1  0  0  0  0
 22 49  1  0  0  0  0
 23 25  1  0  0  0  0
 23 50  1  0  0  0  0
 24 26  1  0  0  0  0
 24 51  1  0  0  0  0
 25 33  1  0  0  0  0
 25 52  1  0  0  0  0
 26 34  1  0  0  0  0
 26 53  1  0  0  0  0
 27 29  1  0  0  0  0
 27 30  2  0  0  0  0
 28 29  2  0  0  0  0
 28 31  1  0  0  0  0
 30 32  1  0  0  0  0
 31 32  2  0  0  0  0
 32 35  1  0  0  0  0
 33 54  1  0  0  0  0
 33 55  1  0  0  0  0
 34 56  1  0  0  0  0
 34 57  1  0  0  0  0
 35 37  1  0  0  0  0
 36 37  2  0  0  0  0
 36 38  1  0  0  0  0
 37 66  1  0  0  0  0
 38 39  2  0  0  0  0
 38 40  1  0  0  0  0
 39 41  1  0  0  0  0
 39 69  1  0  0  0  0
 40 42  2  0  0  0  0
 40 70  1  0  0  0  0
 41 43  2  0  0  0  0
 42 43  1  0  0  0  0
 42 71  1  0  0  0  0
M  END
> <PUBCHEM_COMPOUND_CID>
442615

> <PUBCHEM_CONFORMER_RMSD>
1

> <PUBCHEM_CONFORMER_DIVERSEORDER>
1
32
16
14
38
26
28
23
24
9
4
27
33
13
6
22
21
15
25
12
30
34
20
36
7
31
18
17
37
3
8
39
29
11
5
10
35
19
2

> <PUBCHEM_MMFF94_PARTIAL_CHARGES>
59
1 -0.56
10 -0.53
11 -0.53
12 -0.68
13 -0.68
14 -0.57
15 -0.53
16 -0.53
17 0.42
18 0.42
19 0.28
2 -0.56
20 0.28
21 0.28
22 0.28
23 0.28
24 0.28
25 0.28
26 0.28
27 -0.14
28 -0.14
29 0.08
3 -0.68
30 0.08
31 0.08
32 0.09
33 0.28
34 0.28
35 0.47
36 0.05
37 -0.14
38 0.03
39 -0.15
4 -0.68
40 -0.15
41 0.08
42 -0.15
43 0.08
5 -0.68
58 0.4
59 0.4
6 -0.68
60 0.4
61 0.4
62 0.4
63 0.4
64 0.45
65 0.45
66 0.15
67 0.4
68 0.4
69 0.15
7 -0.68
70 0.15
71 0.15
72 0.45
73 0.45
8 -0.68
9 -0.16

> <PUBCHEM_EFFECTIVE_ROTOR_COUNT>
7.4

> <PUBCHEM_PHARMACOPHORE_FEATURES>
29
1 1 acceptor
1 10 donor
1 11 donor
1 12 acceptor
1 12 donor
1 13 acceptor
1 13 donor
1 14 acceptor
1 15 donor
1 16 donor
1 2 acceptor
1 3 acceptor
1 3 donor
1 4 acceptor
1 4 donor
1 5 acceptor
1 5 donor
1 6 acceptor
1 6 donor
1 7 acceptor
1 7 donor
1 8 acceptor
1 8 donor
1 9 acceptor
6 1 17 19 21 23 25 rings
6 2 18 20 22 24 26 rings
6 27 28 29 30 31 32 rings
6 38 39 40 41 42 43 rings
6 9 30 32 35 36 37 rings

> <PUBCHEM_HEAVY_ATOM_COUNT>
43

> <PUBCHEM_ATOM_DEF_STEREO_COUNT>
10

> <PUBCHEM_ATOM_UDEF_STEREO_COUNT>
0

> <PUBCHEM_BOND_DEF_STEREO_COUNT>
0

> <PUBCHEM_BOND_UDEF_STEREO_COUNT>
0

> <PUBCHEM_ISOTOPIC_ATOM_COUNT>
0

> <PUBCHEM_COMPONENT_COUNT>
1

> <PUBCHEM_CACTVS_TAUTO_COUNT>
162

> <PUBCHEM_CONFORMER_ID>
0006C0F700000001

> <PUBCHEM_MMFF94_ENERGY>
137.7394

> <PUBCHEM_FEATURE_SELFOVERLAP>
147.226

> <PUBCHEM_SHAPE_FINGERPRINT>
10050765 1 18197775501603669436
10119406 146 18270395122055886534
10675989 125 16978730820066237925
10815517 723 18343309158310532949
10864689 126 18268712895119439837
1100329 8 18272371932251098217
11135926 11 18341618174711378701
11578080 2 17460329745533758041
12422481 6 18190154850556093226
13140716 1 18271528581310853096
13150687 139 18336267937765365591
13383665 225 18341885253005361636
13692114 37 18409172091295066023
14117953 113 18342461474133369061
14295345 954 18188498964537885140
14674994 50 17821731598407107255
14856354 85 16128647579163017473
15131766 46 15121786204349257486
15274700 242 18198083544826008475
15297060 5 17967533498087349291
15361156 5 18341889646376661668
15968369 153 18265615369121298977
16628084 112 17842562017841228850
18681886 176 18336273396742982929
19301679 30 18123747547915607802
19311894 1 18340492145670238663
19319366 153 17561081461857045834
21033648 29 18042424460491326656
21133410 90 17531527577814695057
21781051 124 17845632829379308313
22311459 1 18272087236402298004
23569943 247 17829599918385331774
3178227 256 18130776885609794769
3383291 50 18341331111544418075
404807 14 16522131097974708390
4073 2 18410295775109456394
5080951 261 18125470590510804662
5171179 24 17827369773527461873
563151 74 17095819711451170320

> <PUBCHEM_SHAPE_MULTIPOLES>
791.01
17.07
4.97
1.89
9.49
1.83
-0.33
-3.52
-0.12
-5.31
0.96
1.16
2.02
2.02

> <PUBCHEM_SHAPE_SELFOVERLAP>
1736.049

> <PUBCHEM_SHAPE_VOLUME>
421.1

> <PUBCHEM_COORDINATE_TYPE>
2
5
10

$$$$

