178007
  -OEChem-07051213052D

 23 24  0     0  0  0  0  0  0999 V2000
    2.0000   -0.3450    0.0000 Cl  0  0  0  0  0  0  0  0  0  0  0  0
    5.4641   -0.3450    0.0000 Cl  0  0  0  0  0  0  0  0  0  0  0  0
    5.4641    0.6550    0.0000 Cl  0  0  0  0  0  0  0  0  0  0  0  0
    5.4641   -2.3450    0.0000 Cl  0  0  0  0  0  0  0  0  0  0  0  0
    2.0000   -2.3450    0.0000 Cl  0  0  0  0  0  0  0  0  0  0  0  0
    2.0000    2.6550    0.0000 Cl  0  0  0  0  0  0  0  0  0  0  0  0
    3.7320    3.6550    0.0000 Cl  0  0  0  0  0  0  0  0  0  0  0  0
    3.7320   -3.3450    0.0000 O   0  0  0  0  0  0  0  0  0  0  0  0
    3.7320   -0.3450    0.0000 C   0  0  0  0  0  0  0  0  0  0  0  0
    3.7320    0.6550    0.0000 C   0  0  0  0  0  0  0  0  0  0  0  0
    2.8660   -0.8450    0.0000 C   0  0  0  0  0  0  0  0  0  0  0  0
    4.5981   -0.8450    0.0000 C   0  0  0  0  0  0  0  0  0  0  0  0
    4.5981    1.1550    0.0000 C   0  0  0  0  0  0  0  0  0  0  0  0
    2.8660    1.1550    0.0000 C   0  0  0  0  0  0  0  0  0  0  0  0
    4.5981   -1.8450    0.0000 C   0  0  0  0  0  0  0  0  0  0  0  0
    2.8660   -1.8450    0.0000 C   0  0  0  0  0  0  0  0  0  0  0  0
    3.7320   -2.3450    0.0000 C   0  0  0  0  0  0  0  0  0  0  0  0
    2.8660    2.1550    0.0000 C   0  0  0  0  0  0  0  0  0  0  0  0
    4.5981    2.1550    0.0000 C   0  0  0  0  0  0  0  0  0  0  0  0
    3.7320    2.6550    0.0000 C   0  0  0  0  0  0  0  0  0  0  0  0
    2.3291    0.8450    0.0000 H   0  0  0  0  0  0  0  0  0  0  0  0
    5.1350    2.4650    0.0000 H   0  0  0  0  0  0  0  0  0  0  0  0
    3.1951   -3.6550    0.0000 H   0  0  0  0  0  0  0  0  0  0  0  0
  1 11  1  0  0  0  0
  2 12  1  0  0  0  0
  3 13  1  0  0  0  0
  4 15  1  0  0  0  0
  5 16  1  0  0  0  0
  6 18  1  0  0  0  0
  7 20  1  0  0  0  0
  8 17  1  0  0  0  0
  8 23  1  0  0  0  0
  9 10  1  0  0  0  0
  9 11  2  0  0  0  0
  9 12  1  0  0  0  0
 10 13  1  0  0  0  0
 10 14  2  0  0  0  0
 11 16  1  0  0  0  0
 12 15  2  0  0  0  0
 13 19  2  0  0  0  0
 14 18  1  0  0  0  0
 14 21  1  0  0  0  0
 15 17  1  0  0  0  0
 16 17  2  0  0  0  0
 18 20  2  0  0  0  0
 19 20  1  0  0  0  0
 19 22  1  0  0  0  0
M  END
> <PUBCHEM_COMPOUND_CID>
178007

> <PUBCHEM_COMPOUND_CANONICALIZED>
1

> <PUBCHEM_CACTVS_COMPLEXITY>
328

> <PUBCHEM_CACTVS_HBOND_ACCEPTOR>
1

> <PUBCHEM_CACTVS_HBOND_DONOR>
1

> <PUBCHEM_CACTVS_ROTATABLE_BOND>
1

> <PUBCHEM_CACTVS_SUBSKEYS>
AAADcQBwIAAHAAAAAAAAAAAAAAAAAAAAAAAwYAAAAAAAAAABQAAAGgIACAAADAaAmCAwBoAAAgCAAiBCAAACAAAgJUAAikAEC4gIJiKDEhKAcAAkwBEImAeAwPAOpAAQIQCBCARIACBCAQIQCAAAAAAAAA==

> <PUBCHEM_IUPAC_OPENEYE_NAME>
2,3,5,6-tetrachloro-4-(2,4,5-trichlorophenyl)phenol

> <PUBCHEM_IUPAC_CAS_NAME>
2,3,5,6-tetrachloro-4-(2,4,5-trichlorophenyl)phenol

> <PUBCHEM_IUPAC_NAME>
2,3,5,6-tetrachloro-4-(2,4,5-trichlorophenyl)phenol

> <PUBCHEM_IUPAC_SYSTEMATIC_NAME>
2,3,5,6-tetrakis(chloranyl)-4-[2,4,5-tris(chloranyl)phenyl]phenol

> <PUBCHEM_IUPAC_TRADITIONAL_NAME>
2,3,5,6-tetrachloro-4-(2,4,5-trichlorophenyl)phenol

> <PUBCHEM_IUPAC_INCHI>
InChI=1S/C12H3Cl7O/c13-4-2-6(15)5(14)1-3(4)7-8(16)10(18)12(20)11(19)9(7)17/h1-2,20H

> <PUBCHEM_IUPAC_INCHIKEY>
RPXRFGDJHIVRSM-UHFFFAOYSA-N

> <PUBCHEM_XLOGP3>
7.2

> <PUBCHEM_EXACT_MASS>
409.797408

> <PUBCHEM_MOLECULAR_FORMULA>
C12H3Cl7O

> <PUBCHEM_MOLECULAR_WEIGHT>
411.32262

> <PUBCHEM_OPENEYE_CAN_SMILES>
C1=C(C(=CC(=C1Cl)Cl)Cl)C2=C(C(=C(C(=C2Cl)Cl)O)Cl)Cl

> <PUBCHEM_OPENEYE_ISO_SMILES>
C1=C(C(=CC(=C1Cl)Cl)Cl)C2=C(C(=C(C(=C2Cl)Cl)O)Cl)Cl

> <PUBCHEM_CACTVS_TPSA>
20.2

> <PUBCHEM_MONOISOTOPIC_WEIGHT>
407.800358

> <PUBCHEM_TOTAL_CHARGE>
0

> <PUBCHEM_HEAVY_ATOM_COUNT>
20

> <PUBCHEM_ATOM_DEF_STEREO_COUNT>
0

> <PUBCHEM_ATOM_UDEF_STEREO_COUNT>
0

> <PUBCHEM_BOND_DEF_STEREO_COUNT>
0

> <PUBCHEM_BOND_UDEF_STEREO_COUNT>
0

> <PUBCHEM_ISOTOPIC_ATOM_COUNT>
0

> <PUBCHEM_COMPONENT_COUNT>
1

> <PUBCHEM_CACTVS_TAUTO_COUNT>
2

> <PUBCHEM_COORDINATE_TYPE>
1
5
255

> <PUBCHEM_BONDANNOTATIONS>
10  13  8
10  14  8
11  16  8
12  15  8
13  19  8
14  18  8
15  17  8
16  17  8
18  20  8
19  20  8
9  11  8
9  12  8

$$$$

