12313697
  -OEChem-07051213083D

 97 97  0     0  0  0  0  0  0999 V2000
  -14.3457   -4.0793    1.2229 O   0  0  0  0  0  0  0  0  0  0  0  0
  -12.6582    0.5688   -0.1864 O   0  0  0  0  0  0  0  0  0  0  0  0
  -13.6129   -3.6526    0.0741 C   0  0  0  0  0  0  0  0  0  0  0  0
  -13.2094   -2.1738    0.2407 C   0  0  0  0  0  0  0  0  0  0  0  0
  -12.0748   -1.7215   -0.6836 C   0  0  0  0  0  0  0  0  0  0  0  0
  -14.5053   -3.8754   -1.1476 C   0  0  0  0  0  0  0  0  0  0  0  0
  -12.3613   -4.5283   -0.0375 C   0  0  0  0  0  0  0  0  0  0  0  0
  -11.7945   -0.2398   -0.5196 C   0  0  0  0  0  0  0  0  0  0  0  0
  -15.5262   -3.3114    1.3954 C   0  0  0  0  0  0  0  0  0  0  0  0
  -10.3883    0.2076   -0.7403 C   0  0  0  0  0  0  0  0  0  0  0  0
   -9.5826   -0.5997   -1.7098 C   0  0  0  0  0  0  0  0  0  0  0  0
   -9.9033    1.2744   -0.0820 C   0  0  0  0  0  0  0  0  0  0  0  0
   14.7149   -1.1236    0.6401 C   0  0  0  0  0  0  0  0  0  0  0  0
   13.3749   -1.5093    0.6764 C   0  0  0  0  0  0  0  0  0  0  0  0
   -8.5681    1.8267   -0.1887 C   0  0  0  0  0  0  0  0  0  0  0  0
   15.1842   -0.3305   -0.4071 C   0  0  0  0  0  0  0  0  0  0  0  0
   12.5043   -1.1016   -0.3345 C   0  0  0  0  0  0  0  0  0  0  0  0
   14.3136    0.0771   -1.4178 C   0  0  0  0  0  0  0  0  0  0  0  0
   12.9737   -0.3084   -1.3814 C   0  0  0  0  0  0  0  0  0  0  0  0
   15.6515   -1.5582    1.7225 C   0  0  0  0  0  0  0  0  0  0  0  0
   12.8801   -2.3614    1.8042 C   0  0  0  0  0  0  0  0  0  0  0  0
   16.6141    0.0968   -0.4702 C   0  0  0  0  0  0  0  0  0  0  0  0
   -8.1660    2.9006    0.5094 C   0  0  0  0  0  0  0  0  0  0  0  0
   11.0835   -1.4899   -0.3283 C   0  0  0  0  0  0  0  0  0  0  0  0
   -6.8316    3.4794    0.4447 C   0  0  0  0  0  0  0  0  0  0  0  0
   10.0554   -0.6276   -0.2669 C   0  0  0  0  0  0  0  0  0  0  0  0
    8.6448   -1.0084   -0.2416 C   0  0  0  0  0  0  0  0  0  0  0  0
   -6.8229    4.9847    0.4935 C   0  0  0  0  0  0  0  0  0  0  0  0
   -5.6754    2.7883    0.3789 C   0  0  0  0  0  0  0  0  0  0  0  0
    8.4421   -2.5005   -0.2441 C   0  0  0  0  0  0  0  0  0  0  0  0
    7.6717   -0.0760   -0.1791 C   0  0  0  0  0  0  0  0  0  0  0  0
   -4.3177    3.2942    0.3123 C   0  0  0  0  0  0  0  0  0  0  0  0
    6.2420   -0.3103   -0.1478 C   0  0  0  0  0  0  0  0  0  0  0  0
   -3.2150    2.5295    0.2488 C   0  0  0  0  0  0  0  0  0  0  0  0
    5.2704    0.6157   -0.0855 C   0  0  0  0  0  0  0  0  0  0  0  0
    3.8309    0.4148   -0.0526 C   0  0  0  0  0  0  0  0  0  0  0  0
   -1.8247    2.9939    0.2036 C   0  0  0  0  0  0  0  0  0  0  0  0
    2.8992    1.3856    0.0102 C   0  0  0  0  0  0  0  0  0  0  0  0
   -0.8466    2.0653    0.1411 C   0  0  0  0  0  0  0  0  0  0  0  0
    3.4266   -1.0361   -0.0653 C   0  0  0  0  0  0  0  0  0  0  0  0
   -1.5921    4.4825    0.2443 C   0  0  0  0  0  0  0  0  0  0  0  0
    1.4578    1.2588    0.0459 C   0  0  0  0  0  0  0  0  0  0  0  0
    0.5870    2.2788    0.1088 C   0  0  0  0  0  0  0  0  0  0  0  0
  -12.9093   -1.9879    1.2815 H   0  0  0  0  0  0  0  0  0  0  0  0
  -14.0759   -1.5243    0.0633 H   0  0  0  0  0  0  0  0  0  0  0  0
  -12.3328   -1.9036   -1.7319 H   0  0  0  0  0  0  0  0  0  0  0  0
  -11.1656   -2.2743   -0.4312 H   0  0  0  0  0  0  0  0  0  0  0  0
  -14.9952   -4.8553   -1.1109 H   0  0  0  0  0  0  0  0  0  0  0  0
  -13.9216   -3.8263   -2.0741 H   0  0  0  0  0  0  0  0  0  0  0  0
  -15.2895   -3.1173   -1.2456 H   0  0  0  0  0  0  0  0  0  0  0  0
  -11.8108   -4.3740   -0.9706 H   0  0  0  0  0  0  0  0  0  0  0  0
  -12.6372   -5.5890    0.0085 H   0  0  0  0  0  0  0  0  0  0  0  0
  -11.6867   -4.3572    0.8093 H   0  0  0  0  0  0  0  0  0  0  0  0
  -16.0145   -3.6930    2.2992 H   0  0  0  0  0  0  0  0  0  0  0  0
  -16.2517   -3.4451    0.5898 H   0  0  0  0  0  0  0  0  0  0  0  0
  -15.3312   -2.2542    1.5889 H   0  0  0  0  0  0  0  0  0  0  0  0
   -9.0978   -1.4412   -1.2046 H   0  0  0  0  0  0  0  0  0  0  0  0
   -8.8100   -0.0125   -2.2142 H   0  0  0  0  0  0  0  0  0  0  0  0
  -10.2115   -0.9943   -2.5154 H   0  0  0  0  0  0  0  0  0  0  0  0
  -10.5603    1.7968    0.6127 H   0  0  0  0  0  0  0  0  0  0  0  0
   -7.8651    1.3356   -0.8537 H   0  0  0  0  0  0  0  0  0  0  0  0
   14.6631    0.6936   -2.2418 H   0  0  0  0  0  0  0  0  0  0  0  0
   12.3129    0.0165   -2.1817 H   0  0  0  0  0  0  0  0  0  0  0  0
   16.7008   -1.5552    1.4153 H   0  0  0  0  0  0  0  0  0  0  0  0
   15.4583   -2.5912    2.0310 H   0  0  0  0  0  0  0  0  0  0  0  0
   15.5499   -0.9010    2.5924 H   0  0  0  0  0  0  0  0  0  0  0  0
   13.1486   -3.4085    1.6300 H   0  0  0  0  0  0  0  0  0  0  0  0
   13.2987   -2.0375    2.7633 H   0  0  0  0  0  0  0  0  0  0  0  0
   11.7961   -2.3094    1.9427 H   0  0  0  0  0  0  0  0  0  0  0  0
   16.7824    0.8178   -1.2783 H   0  0  0  0  0  0  0  0  0  0  0  0
   17.2652   -0.7620   -0.6631 H   0  0  0  0  0  0  0  0  0  0  0  0
   16.9172    0.5925    0.4580 H   0  0  0  0  0  0  0  0  0  0  0  0
   10.9420   -2.5660   -0.3638 H   0  0  0  0  0  0  0  0  0  0  0  0
   -8.8641    3.4078    1.1728 H   0  0  0  0  0  0  0  0  0  0  0  0
   10.2658    0.4399   -0.2260 H   0  0  0  0  0  0  0  0  0  0  0  0
   -7.7414    5.3977    0.0583 H   0  0  0  0  0  0  0  0  0  0  0  0
   -6.0050    5.4298   -0.0800 H   0  0  0  0  0  0  0  0  0  0  0  0
   -6.7593    5.3314    1.5304 H   0  0  0  0  0  0  0  0  0  0  0  0
   -5.7390    1.6996    0.3712 H   0  0  0  0  0  0  0  0  0  0  0  0
    7.3916   -2.7950   -0.1918 H   0  0  0  0  0  0  0  0  0  0  0  0
    8.8312   -2.9507   -1.1647 H   0  0  0  0  0  0  0  0  0  0  0  0
    8.9215   -2.9687    0.6237 H   0  0  0  0  0  0  0  0  0  0  0  0
    7.9568    0.9757   -0.1617 H   0  0  0  0  0  0  0  0  0  0  0  0
   -4.2070    4.3728    0.3388 H   0  0  0  0  0  0  0  0  0  0  0  0
    5.9491   -1.3532   -0.1836 H   0  0  0  0  0  0  0  0  0  0  0  0
   -3.3514    1.4480    0.2320 H   0  0  0  0  0  0  0  0  0  0  0  0
    5.5764    1.6618   -0.0547 H   0  0  0  0  0  0  0  0  0  0  0  0
    3.2552    2.4164    0.0306 H   0  0  0  0  0  0  0  0  0  0  0  0
   -1.1388    1.0143    0.1180 H   0  0  0  0  0  0  0  0  0  0  0  0
    3.8565   -1.5656    0.7937 H   0  0  0  0  0  0  0  0  0  0  0  0
    3.7667   -1.5230   -0.9872 H   0  0  0  0  0  0  0  0  0  0  0  0
    2.3536   -1.2233   -0.0126 H   0  0  0  0  0  0  0  0  0  0  0  0
   -2.0734    4.9704   -0.6107 H   0  0  0  0  0  0  0  0  0  0  0  0
   -1.9969    4.9102    1.1684 H   0  0  0  0  0  0  0  0  0  0  0  0
   -0.5371    4.7623    0.2072 H   0  0  0  0  0  0  0  0  0  0  0  0
    1.0425    0.2571    0.0159 H   0  0  0  0  0  0  0  0  0  0  0  0
    0.9651    3.2947    0.1383 H   0  0  0  0  0  0  0  0  0  0  0  0
  1  3  1  0  0  0  0
  1  9  1  0  0  0  0
  2  8  2  0  0  0  0
  3  4  1  0  0  0  0
  3  6  1  0  0  0  0
  3  7  1  0  0  0  0
  4  5  1  0  0  0  0
  4 44  1  0  0  0  0
  4 45  1  0  0  0  0
  5  8  1  0  0  0  0
  5 46  1  0  0  0  0
  5 47  1  0  0  0  0
  6 48  1  0  0  0  0
  6 49  1  0  0  0  0
  6 50  1  0  0  0  0
  7 51  1  0  0  0  0
  7 52  1  0  0  0  0
  7 53  1  0  0  0  0
  8 10  1  0  0  0  0
  9 54  1  0  0  0  0
  9 55  1  0  0  0  0
  9 56  1  0  0  0  0
 10 11  1  0  0  0  0
 10 12  2  0  0  0  0
 11 57  1  0  0  0  0
 11 58  1  0  0  0  0
 11 59  1  0  0  0  0
 12 15  1  0  0  0  0
 12 60  1  0  0  0  0
 13 14  1  0  0  0  0
 13 16  2  0  0  0  0
 13 20  1  0  0  0  0
 14 17  2  0  0  0  0
 14 21  1  0  0  0  0
 15 23  2  0  0  0  0
 15 61  1  0  0  0  0
 16 18  1  0  0  0  0
 16 22  1  0  0  0  0
 17 19  1  0  0  0  0
 17 24  1  0  0  0  0
 18 19  2  0  0  0  0
 18 62  1  0  0  0  0
 19 63  1  0  0  0  0
 20 64  1  0  0  0  0
 20 65  1  0  0  0  0
 20 66  1  0  0  0  0
 21 67  1  0  0  0  0
 21 68  1  0  0  0  0
 21 69  1  0  0  0  0
 22 70  1  0  0  0  0
 22 71  1  0  0  0  0
 22 72  1  0  0  0  0
 23 25  1  0  0  0  0
 23 74  1  0  0  0  0
 24 26  2  0  0  0  0
 24 73  1  0  0  0  0
 25 28  1  0  0  0  0
 25 29  2  0  0  0  0
 26 27  1  0  0  0  0
 26 75  1  0  0  0  0
 27 30  1  0  0  0  0
 27 31  2  0  0  0  0
 28 76  1  0  0  0  0
 28 77  1  0  0  0  0
 28 78  1  0  0  0  0
 29 32  1  0  0  0  0
 29 79  1  0  0  0  0
 30 80  1  0  0  0  0
 30 81  1  0  0  0  0
 30 82  1  0  0  0  0
 31 33  1  0  0  0  0
 31 83  1  0  0  0  0
 32 34  2  0  0  0  0
 32 84  1  0  0  0  0
 33 35  2  0  0  0  0
 33 85  1  0  0  0  0
 34 37  1  0  0  0  0
 34 86  1  0  0  0  0
 35 36  1  0  0  0  0
 35 87  1  0  0  0  0
 36 38  2  0  0  0  0
 36 40  1  0  0  0  0
 37 39  2  0  0  0  0
 37 41  1  0  0  0  0
 38 42  1  0  0  0  0
 38 88  1  0  0  0  0
 39 43  1  0  0  0  0
 39 89  1  0  0  0  0
 40 90  1  0  0  0  0
 40 91  1  0  0  0  0
 40 92  1  0  0  0  0
 41 93  1  0  0  0  0
 41 94  1  0  0  0  0
 41 95  1  0  0  0  0
 42 43  2  0  0  0  0
 42 96  1  0  0  0  0
 43 97  1  0  0  0  0
M  END
> <PUBCHEM_COMPOUND_CID>
12313697

> <PUBCHEM_CONFORMER_RMSD>
1.4

> <PUBCHEM_CONFORMER_DIVERSEORDER>
69
74
13
26
64
56
75
73
88
27
30
68
70
32
59
14
15
46
11
89
90
91
80
42
67
76
53
25
33
84
87
34
79
36
83
55
31
52
28
16
41
85
35
61
78
71
12
8
24
86
29
7
51
44
82
81
58
18
38
63
45
39
72
21
19
77
17
9
50
65
66
40
49
54
4
37
5
57
48
62
60
2
47
43
22
20
23
10
3
6
1

> <PUBCHEM_MMFF94_PARTIAL_CHARGES>
57
1 -0.56
10 -0.12
11 0.14
12 -0.15
13 -0.14
14 -0.14
15 -0.15
16 -0.14
17 0.03
18 -0.15
19 -0.15
2 -0.57
20 0.14
21 0.14
22 0.14
23 -0.15
24 -0.18
25 -0.14
26 -0.15
27 -0.14
28 0.14
29 -0.15
3 0.28
30 0.14
31 -0.15
32 -0.15
33 -0.15
34 -0.15
35 -0.15
36 -0.14
37 -0.14
38 -0.15
39 -0.15
40 0.14
41 0.14
42 -0.15
43 -0.15
5 0.06
60 0.15
61 0.15
62 0.15
63 0.15
73 0.15
74 0.15
75 0.15
79 0.15
8 0.49
83 0.15
84 0.15
85 0.15
86 0.15
87 0.15
88 0.15
89 0.15
9 0.28
96 0.15
97 0.15

> <PUBCHEM_EFFECTIVE_ROTOR_COUNT>
15

> <PUBCHEM_PHARMACOPHORE_FEATURES>
9
1 1 acceptor
1 11 hydrophobe
1 2 acceptor
1 28 hydrophobe
1 30 hydrophobe
1 40 hydrophobe
1 41 hydrophobe
3 3 6 7 hydrophobe
6 13 14 16 17 18 19 rings

> <PUBCHEM_HEAVY_ATOM_COUNT>
43

> <PUBCHEM_ATOM_DEF_STEREO_COUNT>
0

> <PUBCHEM_ATOM_UDEF_STEREO_COUNT>
0

> <PUBCHEM_BOND_DEF_STEREO_COUNT>
10

> <PUBCHEM_BOND_UDEF_STEREO_COUNT>
0

> <PUBCHEM_ISOTOPIC_ATOM_COUNT>
0

> <PUBCHEM_COMPONENT_COUNT>
1

> <PUBCHEM_CACTVS_TAUTO_COUNT>
2

> <PUBCHEM_CONFORMER_ID>
00BBE46100000045

> <PUBCHEM_MMFF94_ENERGY>
129.5314

> <PUBCHEM_FEATURE_SELFOVERLAP>
45.669

> <PUBCHEM_SHAPE_FINGERPRINT>
12013929 94 18187646941837473713
12559415 86 7348887772943681720
15061470 23 18268709588607051660
15343295 29 9943804478578230944
21026386 10 17985821538514466187
21057603 130 18272368698700147469
23528940 14 18408040703137405073
2851757 41 18410291377822691401

> <PUBCHEM_SHAPE_MULTIPOLES>
873.18
106.28
5.84
1.12
79.15
0.99
0.08
-124.44
2.3
-33.44
1.48
1.16
-0.7
-2.07

> <PUBCHEM_SHAPE_SELFOVERLAP>
1763.464

> <PUBCHEM_SHAPE_VOLUME>
512.9

> <PUBCHEM_COORDINATE_TYPE>
2
5
10

$$$$

