656884
  -OEChem-07051213042D

 27 27  0     1  0  0  0  0  0999 V2000
    6.8671    1.4400    0.0000 O   0  0  0  0  0  0  0  0  0  0  0  0
    5.1350    1.4400    0.0000 O   0  0  0  0  0  0  0  0  0  0  0  0
    2.5369   -0.0600    0.0000 O   0  0  0  0  0  0  0  0  0  0  0  0
    3.4030   -1.5600    0.0000 O   0  0  0  0  0  0  0  0  0  0  0  0
    5.1350   -0.5600    0.0000 C   0  0  1  0  0  0  0  0  0  0  0  0
    6.0010   -0.0600    0.0000 C   0  0  2  0  0  0  0  0  0  0  0  0
    5.1350   -1.5600    0.0000 C   0  0  0  0  0  0  0  0  0  0  0  0
    6.8671   -0.5600    0.0000 C   0  0  0  0  0  0  0  0  0  0  0  0
    6.0010   -2.0600    0.0000 C   0  0  0  0  0  0  0  0  0  0  0  0
    6.8671   -1.5600    0.0000 C   0  0  0  0  0  0  0  0  0  0  0  0
    4.2690   -0.0600    0.0000 C   0  0  0  0  0  0  0  0  0  0  0  0
    6.0010    0.9400    0.0000 C   0  0  0  0  0  0  0  0  0  0  0  0
    3.4030   -0.5600    0.0000 C   0  0  0  0  0  0  0  0  0  0  0  0
    5.1350    0.0600    0.0000 H   0  0  0  0  0  0  0  0  0  0  0  0
    6.5380    0.2500    0.0000 H   0  0  0  0  0  0  0  0  0  0  0  0
    4.5244   -1.4523    0.0000 H   0  0  0  0  0  0  0  0  0  0  0  0
    4.9230   -2.1426    0.0000 H   0  0  0  0  0  0  0  0  0  0  0  0
    7.4776   -0.6677    0.0000 H   0  0  0  0  0  0  0  0  0  0  0  0
    7.0791    0.0226    0.0000 H   0  0  0  0  0  0  0  0  0  0  0  0
    5.6025   -2.5349    0.0000 H   0  0  0  0  0  0  0  0  0  0  0  0
    6.3996   -2.5349    0.0000 H   0  0  0  0  0  0  0  0  0  0  0  0
    7.0791   -2.1426    0.0000 H   0  0  0  0  0  0  0  0  0  0  0  0
    7.4776   -1.4523    0.0000 H   0  0  0  0  0  0  0  0  0  0  0  0
    4.6675    0.4149    0.0000 H   0  0  0  0  0  0  0  0  0  0  0  0
    3.8705    0.4149    0.0000 H   0  0  0  0  0  0  0  0  0  0  0  0
    6.8671    2.0600    0.0000 H   0  0  0  0  0  0  0  0  0  0  0  0
    2.0000   -0.3700    0.0000 H   0  0  0  0  0  0  0  0  0  0  0  0
  1 12  1  0  0  0  0
  1 26  1  0  0  0  0
  2 12  2  0  0  0  0
  3 13  1  0  0  0  0
  3 27  1  0  0  0  0
  4 13  2  0  0  0  0
  5  6  1  0  0  0  0
  5  7  1  0  0  0  0
  5 11  1  1  0  0  0
  5 14  1  0  0  0  0
  6  8  1  0  0  0  0
  6 12  1  1  0  0  0
  6 15  1  0  0  0  0
  7  9  1  0  0  0  0
  7 16  1  0  0  0  0
  7 17  1  0  0  0  0
  8 10  1  0  0  0  0
  8 18  1  0  0  0  0
  8 19  1  0  0  0  0
  9 10  1  0  0  0  0
  9 20  1  0  0  0  0
  9 21  1  0  0  0  0
 10 22  1  0  0  0  0
 10 23  1  0  0  0  0
 11 13  1  0  0  0  0
 11 24  1  0  0  0  0
 11 25  1  0  0  0  0
M  END
> <PUBCHEM_COMPOUND_CID>
656884

> <PUBCHEM_COMPOUND_CANONICALIZED>
1

> <PUBCHEM_CACTVS_COMPLEXITY>
212

> <PUBCHEM_CACTVS_HBOND_ACCEPTOR>
4

> <PUBCHEM_CACTVS_HBOND_DONOR>
2

> <PUBCHEM_CACTVS_ROTATABLE_BOND>
3

> <PUBCHEM_CACTVS_SUBSKEYS>
AAADccBwOAAAAAAAAAAAAAAAAAAAAAAAAAAwAAAAAAAAAAAAAAAAGgAACAAADQCAgAAACAAAAgAIAACQCAAAAAAAAAAAAAEAAAAAABIAAAAAQAAEAAAAAAGI7qCOgAAAAAAAAAAAAAAAACAAAAAAAAAAAA==

> <PUBCHEM_IUPAC_OPENEYE_NAME>
(1S,2S)-2-(carboxymethyl)cyclohexanecarboxylic acid

> <PUBCHEM_IUPAC_CAS_NAME>
(1S,2S)-2-(carboxymethyl)-1-cyclohexanecarboxylic acid

> <PUBCHEM_IUPAC_NAME>
(1S,2S)-2-(carboxymethyl)cyclohexane-1-carboxylic acid

> <PUBCHEM_IUPAC_SYSTEMATIC_NAME>
(1S,2S)-2-(2-hydroxy-2-oxoethyl)cyclohexane-1-carboxylic acid

> <PUBCHEM_IUPAC_TRADITIONAL_NAME>
(1S,2S)-2-(carboxymethyl)cyclohexanecarboxylic acid

> <PUBCHEM_IUPAC_INCHI>
InChI=1S/C9H14O4/c10-8(11)5-6-3-1-2-4-7(6)9(12)13/h6-7H,1-5H2,(H,10,11)(H,12,13)/t6-,7-/m0/s1

> <PUBCHEM_IUPAC_INCHIKEY>
GCGCKIUIBPEAQE-BQBZGAKWSA-N

> <PUBCHEM_XLOGP3_AA>
1.3

> <PUBCHEM_EXACT_MASS>
186.089209

> <PUBCHEM_MOLECULAR_FORMULA>
C9H14O4

> <PUBCHEM_MOLECULAR_WEIGHT>
186.20506

> <PUBCHEM_OPENEYE_CAN_SMILES>
C1CCC(C(C1)CC(=O)O)C(=O)O

> <PUBCHEM_OPENEYE_ISO_SMILES>
C1CC[C@@H]([C@@H](C1)CC(=O)O)C(=O)O

> <PUBCHEM_CACTVS_TPSA>
74.6

> <PUBCHEM_MONOISOTOPIC_WEIGHT>
186.089209

> <PUBCHEM_TOTAL_CHARGE>
0

> <PUBCHEM_HEAVY_ATOM_COUNT>
13

> <PUBCHEM_ATOM_DEF_STEREO_COUNT>
2

> <PUBCHEM_ATOM_UDEF_STEREO_COUNT>
0

> <PUBCHEM_BOND_DEF_STEREO_COUNT>
0

> <PUBCHEM_BOND_UDEF_STEREO_COUNT>
0

> <PUBCHEM_ISOTOPIC_ATOM_COUNT>
0

> <PUBCHEM_COMPONENT_COUNT>
1

> <PUBCHEM_CACTVS_TAUTO_COUNT>
1

> <PUBCHEM_COORDINATE_TYPE>
1
5
255

> <PUBCHEM_BONDANNOTATIONS>
5  11  5
6  12  5

$$$$

