441775
  -OEChem-07051212563D

 30 33  0     0  0  0  0  0  0999 V2000
   -1.5648    2.0153    0.0012 O   0  0  0  0  0  0  0  0  0  0  0  0
    0.4229   -0.9932    0.0013 O   0  3  0  0  0  0  0  0  0  0  0  0
   -2.1635   -2.6497    0.0013 O   0  0  0  0  0  0  0  0  0  0  0  0
   -6.0356    0.1714   -0.0032 O   0  0  0  0  0  0  0  0  0  0  0  0
    5.6613    0.9056   -0.0026 O   0  0  0  0  0  0  0  0  0  0  0  0
    5.1424   -1.8210   -0.0007 O   0  0  0  0  0  0  0  0  0  0  0  0
   -0.5148   -0.1071    0.0014 C   0  0  0  0  0  0  0  0  0  0  0  0
   -1.9532   -0.2687    0.0008 C   0  0  0  0  0  0  0  0  0  0  0  0
   -0.3548    1.3583    0.0014 C   0  0  0  0  0  0  0  0  0  0  0  0
   -2.5123    1.0125    0.0005 C   0  0  0  0  0  0  0  0  0  0  0  0
    2.0022    0.9118    0.0007 C   0  0  0  0  0  0  0  0  0  0  0  0
    1.7443   -0.4772    0.0009 C   0  0  0  0  0  0  0  0  0  0  0  0
    0.8806    1.8596    0.0011 C   0  0  0  0  0  0  0  0  0  0  0  0
   -2.7169   -1.4144    0.0001 C   0  0  0  0  0  0  0  0  0  0  0  0
   -3.8781    1.1928   -0.0003 C   0  0  0  0  0  0  0  0  0  0  0  0
    3.3246    1.3651   -0.0004 C   0  0  0  0  0  0  0  0  0  0  0  0
    2.8023   -1.3863    0.0004 C   0  0  0  0  0  0  0  0  0  0  0  0
   -4.1034   -1.2443   -0.0010 C   0  0  0  0  0  0  0  0  0  0  0  0
   -4.6778    0.0446   -0.0012 C   0  0  0  0  0  0  0  0  0  0  0  0
    4.3774    0.4479   -0.0011 C   0  0  0  0  0  0  0  0  0  0  0  0
    4.1172   -0.9231   -0.0005 C   0  0  0  0  0  0  0  0  0  0  0  0
    1.0712    2.9257    0.0009 H   0  0  0  0  0  0  0  0  0  0  0  0
   -4.3105    2.1871   -0.0007 H   0  0  0  0  0  0  0  0  0  0  0  0
    3.5428    2.4308   -0.0008 H   0  0  0  0  0  0  0  0  0  0  0  0
    2.5872   -2.4513    0.0007 H   0  0  0  0  0  0  0  0  0  0  0  0
   -4.7575   -2.1138   -0.0017 H   0  0  0  0  0  0  0  0  0  0  0  0
   -2.8749   -3.3129    0.0007 H   0  0  0  0  0  0  0  0  0  0  0  0
   -6.2632    1.1171   -0.0033 H   0  0  0  0  0  0  0  0  0  0  0  0
    6.2597    0.1383   -0.0031 H   0  0  0  0  0  0  0  0  0  0  0  0
    4.7748   -2.7215   -0.0002 H   0  0  0  0  0  0  0  0  0  0  0  0
  1  9  1  0  0  0  0
  1 10  1  0  0  0  0
  2  7  2  0  0  0  0
  2 12  1  0  0  0  0
  3 14  1  0  0  0  0
  3 27  1  0  0  0  0
  4 19  1  0  0  0  0
  4 28  1  0  0  0  0
  5 20  1  0  0  0  0
  5 29  1  0  0  0  0
  6 21  1  0  0  0  0
  6 30  1  0  0  0  0
  7  8  1  0  0  0  0
  7  9  1  0  0  0  0
  8 10  1  0  0  0  0
  8 14  2  0  0  0  0
  9 13  2  0  0  0  0
 10 15  2  0  0  0  0
 11 12  1  0  0  0  0
 11 13  1  0  0  0  0
 11 16  2  0  0  0  0
 12 17  2  0  0  0  0
 13 22  1  0  0  0  0
 14 18  1  0  0  0  0
 15 19  1  0  0  0  0
 15 23  1  0  0  0  0
 16 20  1  0  0  0  0
 16 24  1  0  0  0  0
 17 21  1  0  0  0  0
 17 25  1  0  0  0  0
 18 19  2  0  0  0  0
 18 26  1  0  0  0  0
 20 21  2  0  0  0  0
M  CHG  1   2   1
M  END
> <PUBCHEM_COMPOUND_CID>
441775

> <PUBCHEM_CONFORMER_RMSD>
0.6

> <PUBCHEM_CONFORMER_DIVERSEORDER>
1

> <PUBCHEM_MMFF94_PARTIAL_CHARGES>
30
1 -0.16
10 0.08
11 0.03
12 0.92
13 -0.18
14 0.08
15 -0.15
16 -0.15
17 -0.15
18 -0.15
19 0.08
2 -0.87
20 0.08
21 0.08
22 0.15
23 0.15
24 0.15
25 0.15
26 0.15
27 0.45
28 0.45
29 0.45
3 -0.53
30 0.45
4 -0.53
5 -0.53
6 -0.53
7 0.85
8 0.09
9 0.09

> <PUBCHEM_EFFECTIVE_ROTOR_COUNT>
0

> <PUBCHEM_PHARMACOPHORE_FEATURES>
9
1 1 acceptor
1 3 donor
1 4 donor
1 5 donor
1 6 donor
5 1 7 8 9 10 rings
6 11 12 16 17 20 21 rings
6 2 7 9 11 12 13 rings
6 8 10 14 15 18 19 rings

> <PUBCHEM_HEAVY_ATOM_COUNT>
21

> <PUBCHEM_ATOM_DEF_STEREO_COUNT>
0

> <PUBCHEM_ATOM_UDEF_STEREO_COUNT>
0

> <PUBCHEM_BOND_DEF_STEREO_COUNT>
0

> <PUBCHEM_BOND_UDEF_STEREO_COUNT>
0

> <PUBCHEM_ISOTOPIC_ATOM_COUNT>
0

> <PUBCHEM_COMPONENT_COUNT>
1

> <PUBCHEM_CACTVS_TAUTO_COUNT>
165

> <PUBCHEM_CONFORMER_ID>
0006BDAF00000001

> <PUBCHEM_MMFF94_ENERGY>
60.4559

> <PUBCHEM_FEATURE_SELFOVERLAP>
45.93

> <PUBCHEM_SHAPE_FINGERPRINT>
10366900 7 17095241418998549227
10616163 171 18337106765783697222
10906281 52 18262499464795107429
10967382 1 18410856576872484227
11578080 2 16699217281045040479
12107183 9 17689998255452475304
12236239 1 18410292523075486121
12555020 224 18410866455999119343
12788726 201 17749379412446321737
13140716 1 18337104554276050779
13167823 11 18412827988462915266
13288520 33 18408884061554638095
13533116 47 17822009856242218538
138480 1 14952092475417218436
13862211 1 18409733975901620527
14115302 16 18060128817447441047
14251764 18 18260543421230839873
14341114 176 18410568496457553450
14790565 3 18193268818232218913
15042514 8 18340763720869099491
15099037 51 18410857668400858495
15196674 1 18410856572598550980
15242433 33 18412261722657428974
15536298 74 18408041801652130528
17804303 29 18407758123162174073
1813 80 17275103929322445452
19141452 34 18335420141143481175
200 152 18113621179294070937
20510252 161 18188770677286384905
20645477 70 18335983168464498582
21267235 1 18411129260024922131
21279426 13 18267024040863540349
221490 88 18197773302184164464
23402539 116 18261118478406905397
23557571 272 18187076295687435660
23559900 14 18336271132762409568
2871803 45 18271810141933006930
3004659 81 18272368711515814350
335352 9 18410574011438233029
34797466 226 17458337508095820684
34934 24 18411142415488702762
350125 39 18410572885666801264
3545911 37 18410292501901472932
4073 2 18131064884324972698
4214541 1 18410856594105334789
4921388 177 16271636785621716019
5104073 3 18409729568858746976
559249 180 18199474444330734154
69090 78 18409731763998594863
77779 3 18410855455996776768
8809292 202 18342736286929669555
9709674 26 18340201890963002602

> <PUBCHEM_SHAPE_MULTIPOLES>
396.95
11.35
2.09
0.59
1.32
0.39
0
1.45
0.01
0.07
0
-0.01
-0.01
0

> <PUBCHEM_SHAPE_SELFOVERLAP>
913.974

> <PUBCHEM_SHAPE_VOLUME>
205.3

> <PUBCHEM_COORDINATE_TYPE>
2
5
10

$$$$

