13451
  -OEChem-06261214203D

 34 35  0     0  0  0  0  0  0999 V2000
    0.1490    1.7069   -0.2538 O   0  0  0  0  0  0  0  0  0  0  0  0
   -1.3190   -0.0733   -0.3942 N   0  0  0  0  0  0  0  0  0  0  0  0
    0.9237   -0.5078   -0.1780 N   0  0  0  0  0  0  0  0  0  0  0  0
   -2.5263    0.7140   -0.5107 C   0  0  0  0  0  0  0  0  0  0  0  0
   -3.5690   -0.0014   -1.3762 C   0  0  0  0  0  0  0  0  0  0  0  0
   -3.0937    1.0604    0.8700 C   0  0  0  0  0  0  0  0  0  0  0  0
   -4.1829   -1.2114   -0.6720 C   0  0  0  0  0  0  0  0  0  0  0  0
   -3.7083   -0.1514    1.5706 C   0  0  0  0  0  0  0  0  0  0  0  0
   -4.7505   -0.8395    0.6944 C   0  0  0  0  0  0  0  0  0  0  0  0
   -0.0463    0.4940   -0.2718 C   0  0  0  0  0  0  0  0  0  0  0  0
    2.3230   -0.3512   -0.0433 C   0  0  0  0  0  0  0  0  0  0  0  0
    3.1273   -1.4766    0.0337 C   0  0  0  0  0  0  0  0  0  0  0  0
    2.8607    0.9244    0.0079 C   0  0  0  0  0  0  0  0  0  0  0  0
    4.5074   -1.3221    0.1655 C   0  0  0  0  0  0  0  0  0  0  0  0
    4.2407    1.0791    0.1396 C   0  0  0  0  0  0  0  0  0  0  0  0
    5.0640   -0.0442    0.2185 C   0  0  0  0  0  0  0  0  0  0  0  0
   -2.2550    1.6517   -1.0114 H   0  0  0  0  0  0  0  0  0  0  0  0
   -3.1214   -0.3217   -2.3248 H   0  0  0  0  0  0  0  0  0  0  0  0
   -4.3708    0.7054   -1.6255 H   0  0  0  0  0  0  0  0  0  0  0  0
   -3.8686    1.8289    0.7531 H   0  0  0  0  0  0  0  0  0  0  0  0
   -2.3147    1.4922    1.5096 H   0  0  0  0  0  0  0  0  0  0  0  0
   -3.4311   -2.0006   -0.5549 H   0  0  0  0  0  0  0  0  0  0  0  0
   -4.9806   -1.6297   -1.2966 H   0  0  0  0  0  0  0  0  0  0  0  0
   -4.1720    0.1659    2.5116 H   0  0  0  0  0  0  0  0  0  0  0  0
   -2.9195   -0.8671    1.8321 H   0  0  0  0  0  0  0  0  0  0  0  0
   -5.6115   -0.1729    0.5616 H   0  0  0  0  0  0  0  0  0  0  0  0
   -5.1197   -1.7400    1.1980 H   0  0  0  0  0  0  0  0  0  0  0  0
   -1.4001   -1.0828   -0.3250 H   0  0  0  0  0  0  0  0  0  0  0  0
    0.5914   -1.4684   -0.2109 H   0  0  0  0  0  0  0  0  0  0  0  0
    2.7040   -2.4764   -0.0068 H   0  0  0  0  0  0  0  0  0  0  0  0
    2.2924    1.8409   -0.0464 H   0  0  0  0  0  0  0  0  0  0  0  0
    5.1485   -2.1966    0.2268 H   0  0  0  0  0  0  0  0  0  0  0  0
    4.6757    2.0736    0.1810 H   0  0  0  0  0  0  0  0  0  0  0  0
    6.1385    0.0762    0.3211 H   0  0  0  0  0  0  0  0  0  0  0  0
  1 10  2  0  0  0  0
  2  4  1  0  0  0  0
  2 10  1  0  0  0  0
  2 28  1  0  0  0  0
  3 10  1  0  0  0  0
  3 11  1  0  0  0  0
  3 29  1  0  0  0  0
  4  5  1  0  0  0  0
  4  6  1  0  0  0  0
  4 17  1  0  0  0  0
  5  7  1  0  0  0  0
  5 18  1  0  0  0  0
  5 19  1  0  0  0  0
  6  8  1  0  0  0  0
  6 20  1  0  0  0  0
  6 21  1  0  0  0  0
  7  9  1  0  0  0  0
  7 22  1  0  0  0  0
  7 23  1  0  0  0  0
  8  9  1  0  0  0  0
  8 24  1  0  0  0  0
  8 25  1  0  0  0  0
  9 26  1  0  0  0  0
  9 27  1  0  0  0  0
 11 12  2  0  0  0  0
 11 13  1  0  0  0  0
 12 14  1  0  0  0  0
 12 30  1  0  0  0  0
 13 15  2  0  0  0  0
 13 31  1  0  0  0  0
 14 16  2  0  0  0  0
 14 32  1  0  0  0  0
 15 16  1  0  0  0  0
 15 33  1  0  0  0  0
 16 34  1  0  0  0  0
M  END
> <PUBCHEM_COMPOUND_CID>
13451

> <PUBCHEM_CONFORMER_RMSD>
0.6

> <PUBCHEM_CONFORMER_DIVERSEORDER>
2
16
12
15
5
7
13
17
11
18
6
8
19
3
4
1
10
14
9

> <PUBCHEM_MMFF94_PARTIAL_CHARGES>
18
1 -0.57
10 0.69
11 0.12
12 -0.15
13 -0.15
14 -0.15
15 -0.15
16 -0.15
2 -0.73
28 0.37
29 0.37
3 -0.55
30 0.15
31 0.15
32 0.15
33 0.15
34 0.15
4 0.3

> <PUBCHEM_EFFECTIVE_ROTOR_COUNT>
5.2

> <PUBCHEM_PHARMACOPHORE_FEATURES>
5
1 1 acceptor
1 2 donor
1 3 donor
6 11 12 13 14 15 16 rings
6 4 5 6 7 8 9 rings

> <PUBCHEM_HEAVY_ATOM_COUNT>
16

> <PUBCHEM_ATOM_DEF_STEREO_COUNT>
0

> <PUBCHEM_ATOM_UDEF_STEREO_COUNT>
0

> <PUBCHEM_BOND_DEF_STEREO_COUNT>
0

> <PUBCHEM_BOND_UDEF_STEREO_COUNT>
0

> <PUBCHEM_ISOTOPIC_ATOM_COUNT>
0

> <PUBCHEM_COMPONENT_COUNT>
1

> <PUBCHEM_CACTVS_TAUTO_COUNT>
3

> <PUBCHEM_CONFORMER_ID>
0000348B00000002

> <PUBCHEM_MMFF94_ENERGY>
29.0433

> <PUBCHEM_FEATURE_SELFOVERLAP>
25.424

> <PUBCHEM_SHAPE_FINGERPRINT>
10680689 15 17703790349017603045
10912923 1 17748830700309037682
11615757 297 18259987067471608816
12107183 9 17466213549828606475
12236239 1 17894911815344103637
12596602 18 17312822649917240426
13167823 11 18260550034615572158
13544653 18 18272087205725272573
14123238 8 18412824677180143602
1420 363 18131628980512357162
14252887 29 18334289903372397606
14386348 63 17846495928774248675
15375462 189 18186803582158905952
15788980 27 18131354119700652582
17834072 33 18333733485721147196
17834072 8 9439410142064187600
17844677 252 18412822499558319980
17870717 6 16343701049896984307
18186145 218 16702300165414499412
19050596 39 17967531285250750625
19489759 90 15841559573700457957
200 152 18335989696962091727
20279233 1 17275386512263392507
20281475 54 18113905982796706550
20432913 95 18413105065266455931
20645477 70 18340497767176157590
21079973 296 17489585645151105611
21267235 1 18409443705095586390
22485316 2 18343586269462793975
22646028 1 18334579044280019686
23402539 116 18341335569018435124
23557571 272 17203056277991272749
23559900 14 17275109465941276538
26918003 58 18201720673439876712
3268164 11 15984833644256116279
42 15 18409445903517325152
4214541 1 18409168852372981053
5104073 3 18338241578164125280
542803 24 15791731888873683858
77779 3 18334576866953166148

> <PUBCHEM_SHAPE_MULTIPOLES>
313.44
11.88
1.42
1.04
2.54
0.02
-0.11
2.7
-1.48
0.55
0
-1.49
0.01
-0.18

> <PUBCHEM_SHAPE_SELFOVERLAP>
646.851

> <PUBCHEM_SHAPE_VOLUME>
177.4

> <PUBCHEM_COORDINATE_TYPE>
2
5
10

$$$$

