121864
  -OEChem-07051213092D

 43 42  0     1  0  0  0  0  0999 V2000
    7.7331   -0.0950    0.0000 O   0  0  0  0  0  0  0  0  0  0  0  0
    6.8671    2.4050    0.0000 O   0  0  0  0  0  0  0  0  0  0  0  0
    8.5991    2.4050    0.0000 O   0  0  0  0  0  0  0  0  0  0  0  0
    9.4651   -0.0950    0.0000 O   0  0  0  0  0  0  0  0  0  0  0  0
   11.1972    0.9050    0.0000 O   0  0  0  0  0  0  0  0  0  0  0  0
    2.5369    0.9050    0.0000 O   0  0  0  0  0  0  0  0  0  0  0  0
    3.4030    2.4050    0.0000 O   0  0  0  0  0  0  0  0  0  0  0  0
    4.2690   -2.0950    0.0000 O   0  0  0  0  0  0  0  0  0  0  0  0
    5.1350    1.4050    0.0000 N   0  0  0  0  0  0  0  0  0  0  0  0
    2.5369   -2.0950    0.0000 N   0  0  0  0  0  0  0  0  0  0  0  0
    7.7331    0.9050    0.0000 C   0  0  2  0  0  0  0  0  0  0  0  0
    6.8671    1.4050    0.0000 C   0  0  1  0  0  0  0  0  0  0  0  0
    8.5991    1.4050    0.0000 C   0  0  1  0  0  0  0  0  0  0  0  0
    6.0010    0.9050    0.0000 C   0  0  0  0  0  0  0  0  0  0  0  0
    9.4651    0.9050    0.0000 C   0  0  1  0  0  0  0  0  0  0  0  0
    4.2690    0.9050    0.0000 C   0  0  1  0  0  0  0  0  0  0  0  0
    4.2690   -0.0950    0.0000 C   0  0  0  0  0  0  0  0  0  0  0  0
   10.3312    1.4050    0.0000 C   0  0  0  0  0  0  0  0  0  0  0  0
    3.4030   -0.5950    0.0000 C   0  0  0  0  0  0  0  0  0  0  0  0
    3.4030    1.4050    0.0000 C   0  0  0  0  0  0  0  0  0  0  0  0
    3.4030   -1.5950    0.0000 C   0  0  0  0  0  0  0  0  0  0  0  0
    8.2700    0.5950    0.0000 H   0  0  0  0  0  0  0  0  0  0  0  0
    6.3301    1.7150    0.0000 H   0  0  0  0  0  0  0  0  0  0  0  0
    8.0622    1.7150    0.0000 H   0  0  0  0  0  0  0  0  0  0  0  0
    5.6025    0.4301    0.0000 H   0  0  0  0  0  0  0  0  0  0  0  0
    6.3996    0.4301    0.0000 H   0  0  0  0  0  0  0  0  0  0  0  0
   10.0021    0.5950    0.0000 H   0  0  0  0  0  0  0  0  0  0  0  0
    4.2690    1.5250    0.0000 H   0  0  0  0  0  0  0  0  0  0  0  0
    5.1350    2.0250    0.0000 H   0  0  0  0  0  0  0  0  0  0  0  0
    4.4810   -0.6776    0.0000 H   0  0  0  0  0  0  0  0  0  0  0  0
    4.8796    0.0127    0.0000 H   0  0  0  0  0  0  0  0  0  0  0  0
   10.7297    1.8800    0.0000 H   0  0  0  0  0  0  0  0  0  0  0  0
    9.9326    1.8800    0.0000 H   0  0  0  0  0  0  0  0  0  0  0  0
    7.1962   -0.4050    0.0000 H   0  0  0  0  0  0  0  0  0  0  0  0
    6.3301    2.7150    0.0000 H   0  0  0  0  0  0  0  0  0  0  0  0
    3.1909   -0.0124    0.0000 H   0  0  0  0  0  0  0  0  0  0  0  0
    2.7924   -0.7027    0.0000 H   0  0  0  0  0  0  0  0  0  0  0  0
    9.1360    2.7150    0.0000 H   0  0  0  0  0  0  0  0  0  0  0  0
   10.0021   -0.4050    0.0000 H   0  0  0  0  0  0  0  0  0  0  0  0
   11.7341    1.2150    0.0000 H   0  0  0  0  0  0  0  0  0  0  0  0
    2.0000    1.2150    0.0000 H   0  0  0  0  0  0  0  0  0  0  0  0
    2.5369   -2.7150    0.0000 H   0  0  0  0  0  0  0  0  0  0  0  0
    2.0000   -1.7850    0.0000 H   0  0  0  0  0  0  0  0  0  0  0  0
 11  1  1  6  0  0  0
  1 34  1  0  0  0  0
 12  2  1  1  0  0  0
  2 35  1  0  0  0  0
 13  3  1  6  0  0  0
  3 38  1  0  0  0  0
 15  4  1  1  0  0  0
  4 39  1  0  0  0  0
  5 18  1  0  0  0  0
  5 40  1  0  0  0  0
  6 20  1  0  0  0  0
  6 41  1  0  0  0  0
  7 20  2  0  0  0  0
  8 21  2  0  0  0  0
  9 14  1  0  0  0  0
 16  9  1  1  0  0  0
  9 29  1  0  0  0  0
 10 21  1  0  0  0  0
 10 42  1  0  0  0  0
 10 43  1  0  0  0  0
 11 12  1  0  0  0  0
 11 13  1  0  0  0  0
 11 22  1  0  0  0  0
 12 14  1  0  0  0  0
 12 23  1  0  0  0  0
 13 15  1  0  0  0  0
 13 24  1  0  0  0  0
 14 25  1  0  0  0  0
 14 26  1  0  0  0  0
 15 18  1  0  0  0  0
 15 27  1  0  0  0  0
 16 17  1  0  0  0  0
 16 20  1  0  0  0  0
 16 28  1  0  0  0  0
 17 19  1  0  0  0  0
 17 30  1  0  0  0  0
 17 31  1  0  0  0  0
 18 32  1  0  0  0  0
 18 33  1  0  0  0  0
 19 21  1  0  0  0  0
 19 36  1  0  0  0  0
 19 37  1  0  0  0  0
M  END
> <PUBCHEM_COMPOUND_CID>
121864

> <PUBCHEM_COMPOUND_CANONICALIZED>
1

> <PUBCHEM_CACTVS_COMPLEXITY>
340

> <PUBCHEM_CACTVS_HBOND_ACCEPTOR>
9

> <PUBCHEM_CACTVS_HBOND_DONOR>
8

> <PUBCHEM_CACTVS_ROTATABLE_BOND>
11

> <PUBCHEM_CACTVS_SUBSKEYS>
AAADceBzPAAAAAAAAAAAAAAAAAAAAAAAAAAAAAAAAAAAAAAAAAAAHgAQCAAACDzhgAYACALAAgAIAAGQGAAAAAAAAAAAAIGIAAADEBIAgCAEQAAHEACRAAH8dwYAAAAAAAAAAAAAAAAAAAAAAAAAAAAAAA==

> <PUBCHEM_IUPAC_OPENEYE_NAME>
(2S)-5-amino-5-oxo-2-[[(2R,3R,4R,5R)-2,3,4,5,6-pentahydroxyhexyl]amino]pentanoic acid

> <PUBCHEM_IUPAC_CAS_NAME>
(2S)-5-amino-5-oxo-2-[[(2R,3R,4R,5R)-2,3,4,5,6-pentahydroxyhexyl]amino]pentanoic acid

> <PUBCHEM_IUPAC_NAME>
(2S)-5-amino-5-oxo-2-[[(2R,3R,4R,5R)-2,3,4,5,6-pentahydroxyhexyl]amino]pentanoic acid

> <PUBCHEM_IUPAC_SYSTEMATIC_NAME>
(2S)-5-azanyl-5-oxidanylidene-2-[[(2R,3R,4R,5R)-2,3,4,5,6-pentakis(oxidanyl)hexyl]amino]pentanoic acid

> <PUBCHEM_IUPAC_TRADITIONAL_NAME>
(2S)-5-amino-5-keto-2-[[(2R,3R,4R,5R)-2,3,4,5,6-pentahydroxyhexyl]amino]valeric acid

> <PUBCHEM_IUPAC_INCHI>
InChI=1S/C11H22N2O8/c12-8(17)2-1-5(11(20)21)13-3-6(15)9(18)10(19)7(16)4-14/h5-7,9-10,13-16,18-19H,1-4H2,(H2,12,17)(H,20,21)/t5-,6+,7+,9+,10+/m0/s1

> <PUBCHEM_IUPAC_INCHIKEY>
VPRLICVDSGMIKO-SZWOQXJISA-N

> <PUBCHEM_XLOGP3_AA>
-6.8

> <PUBCHEM_EXACT_MASS>
310.137616

> <PUBCHEM_MOLECULAR_FORMULA>
C11H22N2O8

> <PUBCHEM_MOLECULAR_WEIGHT>
310.30098

> <PUBCHEM_OPENEYE_CAN_SMILES>
C(CC(=O)N)C(C(=O)O)NCC(C(C(C(CO)O)O)O)O

> <PUBCHEM_OPENEYE_ISO_SMILES>
C(CC(=O)N)[C@@H](C(=O)O)NC[C@H]([C@H]([C@@H]([C@@H](CO)O)O)O)O

> <PUBCHEM_CACTVS_TPSA>
194

> <PUBCHEM_MONOISOTOPIC_WEIGHT>
310.137616

> <PUBCHEM_TOTAL_CHARGE>
0

> <PUBCHEM_HEAVY_ATOM_COUNT>
21

> <PUBCHEM_ATOM_DEF_STEREO_COUNT>
5

> <PUBCHEM_ATOM_UDEF_STEREO_COUNT>
0

> <PUBCHEM_BOND_DEF_STEREO_COUNT>
0

> <PUBCHEM_BOND_UDEF_STEREO_COUNT>
0

> <PUBCHEM_ISOTOPIC_ATOM_COUNT>
0

> <PUBCHEM_COMPONENT_COUNT>
1

> <PUBCHEM_CACTVS_TAUTO_COUNT>
3

> <PUBCHEM_COORDINATE_TYPE>
1
5
255

> <PUBCHEM_BONDANNOTATIONS>
11  1  6
12  2  5
13  3  6
15  4  5
16  9  5

$$$$

