11954049
  -OEChem-07051213063D

 38 39  0     1  0  0  0  0  0999 V2000
   -0.5349   -0.9510    0.3038 S   0  0  0  0  0  0  0  0  0  0  0  0
    2.9262   -2.4331   -1.0301 O   0  0  0  0  0  0  0  0  0  0  0  0
   -3.9162   -1.2184    1.9206 O   0  0  0  0  0  0  0  0  0  0  0  0
   -3.8357   -2.7236    0.2270 O   0  0  0  0  0  0  0  0  0  0  0  0
   -3.9003    2.1894   -1.3127 O   0  0  0  0  0  0  0  0  0  0  0  0
   -3.2599    0.8327    0.4680 N   0  0  0  0  0  0  0  0  0  0  0  0
    0.8150   -1.2574   -0.8954 C   0  0  2  0  0  0  0  0  0  0  0  0
    2.1161   -1.6390   -0.1567 C   0  0  2  0  0  0  0  0  0  0  0  0
    2.9545   -0.4507    0.2532 C   0  0  0  0  0  0  0  0  0  0  0  0
    2.8666    0.7583   -0.4627 C   0  0  0  0  0  0  0  0  0  0  0  0
    0.9636   -0.0348   -1.7614 C   0  0  0  0  0  0  0  0  0  0  0  0
   -1.8652   -0.6818   -0.8862 C   0  0  0  0  0  0  0  0  0  0  0  0
    1.9195    0.8858   -1.5735 C   0  0  0  0  0  0  0  0  0  0  0  0
   -3.2282   -0.4230   -0.2395 C   0  0  1  0  0  0  0  0  0  0  0  0
    3.8677   -0.5620    1.3108 C   0  0  0  0  0  0  0  0  0  0  0  0
    3.6916    1.8339   -0.1121 C   0  0  0  0  0  0  0  0  0  0  0  0
    4.6784    0.5182    1.6584 C   0  0  0  0  0  0  0  0  0  0  0  0
    4.5915    1.7132    0.9474 C   0  0  0  0  0  0  0  0  0  0  0  0
   -3.6816   -1.5793    0.6363 C   0  0  0  0  0  0  0  0  0  0  0  0
   -3.5948    2.0362   -0.1329 C   0  0  0  0  0  0  0  0  0  0  0  0
   -3.5739    3.1864    0.8378 C   0  0  0  0  0  0  0  0  0  0  0  0
    0.5168   -2.1023   -1.5279 H   0  0  0  0  0  0  0  0  0  0  0  0
    1.8899   -2.2680    0.7132 H   0  0  0  0  0  0  0  0  0  0  0  0
    0.2953    0.0835   -2.6102 H   0  0  0  0  0  0  0  0  0  0  0  0
   -1.6326    0.1772   -1.5216 H   0  0  0  0  0  0  0  0  0  0  0  0
   -1.9349   -1.5697   -1.5246 H   0  0  0  0  0  0  0  0  0  0  0  0
    1.9968    1.7449   -2.2309 H   0  0  0  0  0  0  0  0  0  0  0  0
   -3.9778   -0.3509   -1.0386 H   0  0  0  0  0  0  0  0  0  0  0  0
    3.9556   -1.4928    1.8653 H   0  0  0  0  0  0  0  0  0  0  0  0
    3.6397    2.7748   -0.6547 H   0  0  0  0  0  0  0  0  0  0  0  0
    3.7563   -2.6429   -0.5689 H   0  0  0  0  0  0  0  0  0  0  0  0
    5.3826    0.4254    2.4801 H   0  0  0  0  0  0  0  0  0  0  0  0
    5.2265    2.5522    1.2172 H   0  0  0  0  0  0  0  0  0  0  0  0
   -3.0109    0.8290    1.4531 H   0  0  0  0  0  0  0  0  0  0  0  0
   -3.6642    4.1302    0.2931 H   0  0  0  0  0  0  0  0  0  0  0  0
   -4.4110    3.0913    1.5347 H   0  0  0  0  0  0  0  0  0  0  0  0
   -2.6332    3.1926    1.3959 H   0  0  0  0  0  0  0  0  0  0  0  0
   -4.2138   -1.9772    2.4664 H   0  0  0  0  0  0  0  0  0  0  0  0
  1  7  1  0  0  0  0
  1 12  1  0  0  0  0
  2  8  1  0  0  0  0
  2 31  1  0  0  0  0
  3 19  1  0  0  0  0
  3 38  1  0  0  0  0
  4 19  2  0  0  0  0
  5 20  2  0  0  0  0
  6 14  1  0  0  0  0
  6 20  1  0  0  0  0
  6 34  1  0  0  0  0
  7  8  1  0  0  0  0
  7 11  1  0  0  0  0
  7 22  1  0  0  0  0
  8  9  1  0  0  0  0
  8 23  1  0  0  0  0
  9 10  1  0  0  0  0
  9 15  2  0  0  0  0
 10 13  1  0  0  0  0
 10 16  2  0  0  0  0
 11 13  2  0  0  0  0
 11 24  1  0  0  0  0
 12 14  1  0  0  0  0
 12 25  1  0  0  0  0
 12 26  1  0  0  0  0
 13 27  1  0  0  0  0
 14 19  1  0  0  0  0
 14 28  1  0  0  0  0
 15 17  1  0  0  0  0
 15 29  1  0  0  0  0
 16 18  1  0  0  0  0
 16 30  1  0  0  0  0
 17 18  2  0  0  0  0
 17 32  1  0  0  0  0
 18 33  1  0  0  0  0
 20 21  1  0  0  0  0
 21 35  1  0  0  0  0
 21 36  1  0  0  0  0
 21 37  1  0  0  0  0
M  END
> <PUBCHEM_COMPOUND_CID>
11954049

> <PUBCHEM_CONFORMER_RMSD>
0.8

> <PUBCHEM_CONFORMER_DIVERSEORDER>
1
52
28
51
35
37
16
50
46
19
11
9
48
30
15
21
3
5
38
20
17
44
42
27
33
49
45
39
34
43
40
18
24
14
8
22
6
10
36
41
7
31
29
32
25
2
13
53
26
47
23
4
12

> <PUBCHEM_MMFF94_PARTIAL_CHARGES>
30
1 -0.46
10 0.03
11 -0.29
12 0.23
13 -0.18
14 0.36
15 -0.15
16 -0.15
17 -0.15
18 -0.15
19 0.66
2 -0.68
20 0.57
21 0.06
24 0.15
27 0.15
29 0.15
3 -0.65
30 0.15
31 0.4
32 0.15
33 0.15
34 0.37
38 0.5
4 -0.57
5 -0.57
6 -0.73
7 0.37
8 0.42
9 -0.14

> <PUBCHEM_EFFECTIVE_ROTOR_COUNT>
6.4

> <PUBCHEM_PHARMACOPHORE_FEATURES>
9
1 2 acceptor
1 2 donor
1 3 acceptor
1 4 acceptor
1 5 acceptor
1 6 donor
3 3 4 19 anion
6 7 8 9 10 11 13 rings
6 9 10 15 16 17 18 rings

> <PUBCHEM_HEAVY_ATOM_COUNT>
21

> <PUBCHEM_ATOM_DEF_STEREO_COUNT>
3

> <PUBCHEM_ATOM_UDEF_STEREO_COUNT>
0

> <PUBCHEM_BOND_DEF_STEREO_COUNT>
0

> <PUBCHEM_BOND_UDEF_STEREO_COUNT>
0

> <PUBCHEM_ISOTOPIC_ATOM_COUNT>
0

> <PUBCHEM_COMPONENT_COUNT>
1

> <PUBCHEM_CACTVS_TAUTO_COUNT>
2

> <PUBCHEM_CONFORMER_ID>
00B6678100000001

> <PUBCHEM_MMFF94_ENERGY>
48.1968

> <PUBCHEM_FEATURE_SELFOVERLAP>
45.751

> <PUBCHEM_SHAPE_FINGERPRINT>
10498660 4 15792023280539867641
10646746 165 18408320003779411156
11405975 8 18338515368948685051
12107183 9 18054804041764235642
12363563 72 15195574467742531983
12403259 118 18339656555029100056
12507560 40 18335420183787316006
12596599 1 17704065209781665899
12596602 18 17773889605557072176
12633257 1 17988094386505925904
12644460 14 16415471624371531844
12670546 177 7060379257997019512
12892183 10 18200602397511298272
13103583 49 17702960235150590888
13224815 77 18333724719613787785
13583140 156 17895486859572294946
13675066 3 18410292531755325494
13965767 371 17771346658431675461
14178342 30 18060699519933324219
14251764 38 18336267924242621241
14289901 80 18410570665321599179
17349148 13 17774440456260637479
18186145 218 17603853520718277326
20715895 44 18121226643000276561
21065199 12 18411417314918046947
22749437 52 18336545027116600261
23557571 272 18262222383432725773
23559900 14 18190179177667712222
2838139 119 14996569418142200344
3117164 225 18197793287099873538
341906 21 18410292506043751852
469060 322 17605846807046749703
49207404 50 18409449180772531414
5104073 3 18341334474018014242
7808743 9 17900265191811087536
9981440 41 18263091049496100811

> <PUBCHEM_SHAPE_MULTIPOLES>
407.56
10.59
2.91
1.55
1.51
0.98
0
3.42
-4.09
2.84
-0.2
-0.43
0.03
1.03

> <PUBCHEM_SHAPE_SELFOVERLAP>
838.94

> <PUBCHEM_SHAPE_VOLUME>
234.4

> <PUBCHEM_COORDINATE_TYPE>
2
5
10

$$$$

