440284
  -OEChem-07051212493D

 25 25  0     0  0  0  0  0  0999 V2000
   -3.4559    0.0338   -0.3541 O   0  0  0  0  0  0  0  0  0  0  0  0
    2.5765   -0.0923   -1.4309 O   0  0  0  0  0  0  0  0  0  0  0  0
   -1.4281    3.5215    0.1047 O   0  5  0  0  0  0  0  0  0  0  0  0
   -1.5249   -3.5055    0.1265 O   0  5  0  0  0  0  0  0  0  0  0  0
   -3.3081    2.4768   -0.3349 O   0  0  0  0  0  0  0  0  0  0  0  0
   -3.3756   -2.4122   -0.3195 O   0  0  0  0  0  0  0  0  0  0  0  0
    5.0843   -0.0218   -1.1819 O   0  0  0  0  0  0  0  0  0  0  0  0
    4.8878    0.0757    1.1022 O   0  0  0  0  0  0  0  0  0  0  0  0
   -2.0884    2.4664   -0.0453 N   0  3  0  0  0  0  0  0  0  0  0  0
   -2.1560   -2.4336   -0.0303 N   0  3  0  0  0  0  0  0  0  0  0  0
    0.5875   -0.0188    0.6048 C   0  0  0  0  0  0  0  0  0  0  0  0
    2.0385   -0.0378    0.9489 C   0  0  0  0  0  0  0  0  0  0  0  0
   -0.1079   -1.2179    0.4476 C   0  0  0  0  0  0  0  0  0  0  0  0
   -0.0745    1.1979    0.4402 C   0  0  0  0  0  0  0  0  0  0  0  0
   -1.4316    1.2155    0.1184 C   0  0  0  0  0  0  0  0  0  0  0  0
   -1.4649   -1.2002    0.1255 C   0  0  0  0  0  0  0  0  0  0  0  0
   -2.1268    0.0165   -0.0391 C   0  0  0  0  0  0  0  0  0  0  0  0
    2.9437   -0.0541   -0.2659 C   0  0  0  0  0  0  0  0  0  0  0  0
    4.4244   -0.0100   -0.0169 C   0  0  0  0  0  0  0  0  0  0  0  0
    2.2677   -0.9196    1.5594 H   0  0  0  0  0  0  0  0  0  0  0  0
    2.2869    0.8433    1.5529 H   0  0  0  0  0  0  0  0  0  0  0  0
    0.4326   -2.1526    0.5793 H   0  0  0  0  0  0  0  0  0  0  0  0
    0.4914    2.1182    0.5660 H   0  0  0  0  0  0  0  0  0  0  0  0
   -3.6945   -0.7640   -0.8511 H   0  0  0  0  0  0  0  0  0  0  0  0
    6.0561    0.0305   -1.0594 H   0  0  0  0  0  0  0  0  0  0  0  0
  1 17  1  0  0  0  0
  1 24  1  0  0  0  0
  2 18  2  0  0  0  0
  3  9  1  0  0  0  0
  4 10  1  0  0  0  0
  5  9  2  0  0  0  0
  6 10  2  0  0  0  0
  7 19  1  0  0  0  0
  7 25  1  0  0  0  0
  8 19  2  0  0  0  0
  9 15  1  0  0  0  0
 10 16  1  0  0  0  0
 11 12  1  0  0  0  0
 11 13  2  0  0  0  0
 11 14  1  0  0  0  0
 12 18  1  0  0  0  0
 12 20  1  0  0  0  0
 12 21  1  0  0  0  0
 13 16  1  0  0  0  0
 13 22  1  0  0  0  0
 14 15  2  0  0  0  0
 14 23  1  0  0  0  0
 15 17  1  0  0  0  0
 16 17  2  0  0  0  0
 18 19  1  0  0  0  0
M  CHG  4   3  -1   4  -1   9   1  10   1
M  END
> <PUBCHEM_COMPOUND_CID>
440284

> <PUBCHEM_CONFORMER_RMSD>
0.6

> <PUBCHEM_CONFORMER_DIVERSEORDER>
1
7
11
9
10
8
6
4
5
2
3

> <PUBCHEM_MMFF94_PARTIAL_CHARGES>
23
1 -0.53
10 0.91
11 -0.14
12 0.2
13 -0.15
14 -0.15
15 0.13
16 0.13
17 0.08
18 0.51
19 0.72
2 -0.57
22 0.15
23 0.15
24 0.45
25 0.5
3 -0.52
4 -0.52
5 -0.52
6 -0.52
7 -0.65
8 -0.57
9 0.91

> <PUBCHEM_EFFECTIVE_ROTOR_COUNT>
5

> <PUBCHEM_PHARMACOPHORE_FEATURES>
12
1 1 donor
1 2 acceptor
1 3 acceptor
1 3 anion
1 4 acceptor
1 4 anion
1 5 acceptor
1 6 acceptor
1 7 acceptor
1 8 acceptor
3 7 8 19 anion
6 11 13 14 15 16 17 rings

> <PUBCHEM_HEAVY_ATOM_COUNT>
19

> <PUBCHEM_ATOM_DEF_STEREO_COUNT>
0

> <PUBCHEM_ATOM_UDEF_STEREO_COUNT>
0

> <PUBCHEM_BOND_DEF_STEREO_COUNT>
0

> <PUBCHEM_BOND_UDEF_STEREO_COUNT>
0

> <PUBCHEM_ISOTOPIC_ATOM_COUNT>
0

> <PUBCHEM_COMPONENT_COUNT>
1

> <PUBCHEM_CACTVS_TAUTO_COUNT>
9

> <PUBCHEM_CONFORMER_ID>
0006B7DC00000001

> <PUBCHEM_MMFF94_ENERGY>
59.8782

> <PUBCHEM_FEATURE_SELFOVERLAP>
61.126

> <PUBCHEM_SHAPE_FINGERPRINT>
10319926 262 18191331372028363218
11833330 49 18340773636977713249
12173636 292 18194970866046617301
12236239 1 17703795829749222778
12390115 104 18044363049288060169
12500047 106 18337955700898416588
12553582 1 18268156353093823971
12788726 201 18271524204390804866
13140716 1 18266455404462869121
13583140 156 17895492383765336234
14508225 48 18265346014357863589
14790565 3 18337662122757691889
15042514 8 18413101741352392955
15669948 3 18341900701020984418
16752209 62 18340501009834112027
16945 1 18410865360407567979
1741750 31 18266178512010801088
17539 30 18335713689246848391
18785283 64 17330826337026179905
19141452 34 17678170504194314535
20510252 161 18261956361595748809
20645476 183 18272651298298048573
20645477 56 18337950194423685360
20645477 70 16588301735527939294
20693207 138 17678431208924888510
20871999 31 18408044017591576285
21065201 7 18408041832249781666
21426921 1 18410853252931742064
21524375 3 17986107641576617896
21728266 224 18269011850844946250
22224240 67 18189324823364023369
23402539 116 18336274482947170127
23419403 2 17314244262648788393
23526113 38 17531250612215923762
23557571 272 18260258647234066076
23559900 14 18188491393533843874
2748010 2 18048896099616175803
3071541 12 17256526851569075313
3071541 250 17981038609836635403
458136 41 17831571351450086385
559249 180 18198346350392266954
573450 72 18272101517273591514
6049 1 17967536727433439448
68521 5 18411420570714026531
7364860 26 17328583921773759531
77492 1 17704078404174251226
81228 2 18336820901545186427
9709674 26 18260544571839223558

> <PUBCHEM_SHAPE_MULTIPOLES>
334.09
7.72
3.1
0.89
10.38
0.1
-0.07
-0.06
-1.29
-4.98
-0.04
0.9
-0.01
0.05

> <PUBCHEM_SHAPE_SELFOVERLAP>
713.215

> <PUBCHEM_SHAPE_VOLUME>
184

> <PUBCHEM_COORDINATE_TYPE>
2
5
10

$$$$

