17396369
  -OEChem-06241222563D

 37 38  0     0  0  0  0  0  0999 V2000
   -5.6671    1.5151    0.1576 F   0  0  0  0  0  0  0  0  0  0  0  0
    3.2566   -2.1001   -1.0598 F   0  0  0  0  0  0  0  0  0  0  0  0
    3.0138   -3.1297    0.8524 F   0  0  0  0  0  0  0  0  0  0  0  0
    5.0005   -2.4441    0.2535 F   0  0  0  0  0  0  0  0  0  0  0  0
    3.4249   -0.9126    0.8871 O   0  0  0  0  0  0  0  0  0  0  0  0
   -5.8025   -0.9428   -1.0727 O   0  0  0  0  0  0  0  0  0  0  0  0
   -0.3911    2.4038    0.2355 O   0  0  0  0  0  0  0  0  0  0  0  0
    1.0963    0.6689    0.7750 N   0  0  0  0  0  0  0  0  0  0  0  0
   -1.1331    0.6228    1.6798 C   0  0  0  0  0  0  0  0  0  0  0  0
   -2.3678    0.2086    0.9539 C   0  0  0  0  0  0  0  0  0  0  0  0
   -0.1160    1.3535    0.8066 C   0  0  0  0  0  0  0  0  0  0  0  0
    2.2735    1.0310    0.0780 C   0  0  0  0  0  0  0  0  0  0  0  0
   -3.4634    1.0699    0.8936 C   0  0  0  0  0  0  0  0  0  0  0  0
   -2.4266   -1.0391    0.3332 C   0  0  0  0  0  0  0  0  0  0  0  0
    3.4153    0.2326    0.1476 C   0  0  0  0  0  0  0  0  0  0  0  0
   -4.6178    0.6835    0.2124 C   0  0  0  0  0  0  0  0  0  0  0  0
   -3.5811   -1.4255   -0.3477 C   0  0  0  0  0  0  0  0  0  0  0  0
   -4.6766   -0.5643   -0.4082 C   0  0  0  0  0  0  0  0  0  0  0  0
    2.2847    2.1992   -0.6843 C   0  0  0  0  0  0  0  0  0  0  0  0
    4.5681    0.6025   -0.5450 C   0  0  0  0  0  0  0  0  0  0  0  0
    3.4376    2.5690   -1.3769 C   0  0  0  0  0  0  0  0  0  0  0  0
    4.5793    1.7707   -1.3071 C   0  0  0  0  0  0  0  0  0  0  0  0
    3.6855   -2.1411    0.2195 C   0  0  0  0  0  0  0  0  0  0  0  0
   -5.7932   -2.2320   -1.6839 C   0  0  0  0  0  0  0  0  0  0  0  0
   -1.3894    1.3012    2.5045 H   0  0  0  0  0  0  0  0  0  0  0  0
   -0.6861   -0.2524    2.1672 H   0  0  0  0  0  0  0  0  0  0  0  0
    1.1713   -0.1971    1.3036 H   0  0  0  0  0  0  0  0  0  0  0  0
   -3.4302    2.0455    1.3711 H   0  0  0  0  0  0  0  0  0  0  0  0
   -1.5779   -1.7171    0.3718 H   0  0  0  0  0  0  0  0  0  0  0  0
   -3.5584   -2.4077   -0.8073 H   0  0  0  0  0  0  0  0  0  0  0  0
    1.4457    2.8711   -0.7911 H   0  0  0  0  0  0  0  0  0  0  0  0
    5.4678   -0.0045   -0.4943 H   0  0  0  0  0  0  0  0  0  0  0  0
    3.4480    3.4785   -1.9706 H   0  0  0  0  0  0  0  0  0  0  0  0
    5.4775    2.0598   -1.8449 H   0  0  0  0  0  0  0  0  0  0  0  0
   -6.7665   -2.3675   -2.1670 H   0  0  0  0  0  0  0  0  0  0  0  0
   -5.6921   -3.0295   -0.9400 H   0  0  0  0  0  0  0  0  0  0  0  0
   -5.0341   -2.2990   -2.4706 H   0  0  0  0  0  0  0  0  0  0  0  0
  1 16  1  0  0  0  0
  2 23  1  0  0  0  0
  3 23  1  0  0  0  0
  4 23  1  0  0  0  0
  5 15  1  0  0  0  0
  5 23  1  0  0  0  0
  6 18  1  0  0  0  0
  6 24  1  0  0  0  0
  7 11  2  0  0  0  0
  8 11  1  0  0  0  0
  8 12  1  0  0  0  0
  8 27  1  0  0  0  0
  9 10  1  0  0  0  0
  9 11  1  0  0  0  0
  9 25  1  0  0  0  0
  9 26  1  0  0  0  0
 10 13  2  0  0  0  0
 10 14  1  0  0  0  0
 12 15  1  0  0  0  0
 12 19  2  0  0  0  0
 13 16  1  0  0  0  0
 13 28  1  0  0  0  0
 14 17  2  0  0  0  0
 14 29  1  0  0  0  0
 15 20  2  0  0  0  0
 16 18  2  0  0  0  0
 17 18  1  0  0  0  0
 17 30  1  0  0  0  0
 19 21  1  0  0  0  0
 19 31  1  0  0  0  0
 20 22  1  0  0  0  0
 20 32  1  0  0  0  0
 21 22  2  0  0  0  0
 21 33  1  0  0  0  0
 22 34  1  0  0  0  0
 24 35  1  0  0  0  0
 24 36  1  0  0  0  0
 24 37  1  0  0  0  0
M  END
> <PUBCHEM_COMPOUND_CID>
17396369

> <PUBCHEM_CONFORMER_RMSD>
0.8

> <PUBCHEM_CONFORMER_DIVERSEORDER>
1
129
107
222
142
117
201
145
26
41
96
219
203
94
212
111
191
112
23
155
25
205
74
97
110
216
119
70
104
42
95
157
47
162
207
9
88
190
184
209
93
192
210
62
82
130
36
124
65
122
148
99
118
193
126
34
177
64
160
63
153
218
208
221
8
90
92
154
76
50
178
132
169
84
19
103
198
67
165
144
186
58
15
223
211
24
7
173
73
181
14
158
121
80
20
101
213
136
102
71
10
17
227
106
12
59
38
45
172
189
170
28
13
139
131
91
137
108
187
77
60
188
5
135
68
195
125
120
53
78
100
152
197
85
4
39
143
11
86
57
224
72
166
164
87
149
27
116
123
140
22
35
37
194
21
151
114
204
138
55
225
2
179
176
183
226
147
54
175
229
44
89
180
61
168
31
113
52
174
134
3
109
75
43
159
49
163
30
185
32
33
98
51
127
128
79
40
196
217
161
48
202
214
215
18
200
46
83
81
150
105
66
69
171
115
182
133
156
6
16
167
141
146
220
228
29
206
199
56

> <PUBCHEM_MMFF94_PARTIAL_CHARGES>
32
1 -0.19
10 -0.14
11 0.57
12 0.12
13 -0.15
14 -0.15
15 0.08
16 0.19
17 -0.15
18 0.08
19 -0.15
2 -0.34
20 -0.15
21 -0.15
22 -0.15
23 1.3
24 0.28
27 0.37
28 0.15
29 0.15
3 -0.34
30 0.15
31 0.15
32 0.15
33 0.15
34 0.15
4 -0.34
5 -0.36
6 -0.36
7 -0.57
8 -0.55
9 0.2

> <PUBCHEM_EFFECTIVE_ROTOR_COUNT>
7

> <PUBCHEM_PHARMACOPHORE_FEATURES>
6
1 5 acceptor
1 6 acceptor
1 7 acceptor
1 8 donor
6 10 13 14 16 17 18 rings
6 12 15 19 20 21 22 rings

> <PUBCHEM_HEAVY_ATOM_COUNT>
24

> <PUBCHEM_ATOM_DEF_STEREO_COUNT>
0

> <PUBCHEM_ATOM_UDEF_STEREO_COUNT>
0

> <PUBCHEM_BOND_DEF_STEREO_COUNT>
0

> <PUBCHEM_BOND_UDEF_STEREO_COUNT>
0

> <PUBCHEM_ISOTOPIC_ATOM_COUNT>
0

> <PUBCHEM_COMPONENT_COUNT>
1

> <PUBCHEM_CACTVS_TAUTO_COUNT>
2

> <PUBCHEM_CONFORMER_ID>
0109729100000001

> <PUBCHEM_MMFF94_ENERGY>
77.8903

> <PUBCHEM_FEATURE_SELFOVERLAP>
30.446

> <PUBCHEM_SHAPE_FINGERPRINT>
10595046 47 18337669724659368909
10622 236 18262532471487649191
11069576 57 18408887351959192302
11135609 149 17772215208356736766
11545043 162 14273997966272526721
11796584 16 17676200273819713821
12107183 9 17978223091133733553
12788726 201 17896022390639434049
13533116 47 18410013200378674127
14347332 77 18187934941839398895
1454969 45 18342735244323345698
14576447 43 18262236625286102080
15003188 33 18342742944303266117
15183329 4 18408324380910397981
15250474 111 18335144176451867575
15342816 4 17968089794234855192
15348495 7 6843929403617054583
15537594 2 18188478099892735603
15842332 3 18044910558902526976
17134984 74 18193566558175966735
17138139 8 17898017832260532422
17349148 13 17676202472795314669
17818456 19 17972871746329446456
17857418 61 18334296491271799144
18681886 176 17531240618096363060
20511986 3 18261683605286519628
20626108 58 18187372029638713833
20645477 70 18059566980122801080
21054139 6 18263077735060449580
21065201 7 16081912867019626209
21285901 2 17632026281334133405
21585481 104 17987259810663746487
220451 1 18260258643039364657
22393880 68 18189326888325218916
23522609 53 17972006229780235881
23559900 14 18272084990060263760
23622692 118 18337953506254634800
3004659 81 18410293644320627810
314194 84 18336822009699509273
34797466 226 16916503649926613359
351380 3 17604144827265180839
439807 62 18335987459580257399
46194498 28 17703232814812331173
463206 1 18408884018763584658
633830 44 17775284976191597465
7164475 11 18341331197064195732
960060 61 18412261714046583724
9709674 26 18201425987481354544

> <PUBCHEM_SHAPE_MULTIPOLES>
442.22
13.96
3.02
1.33
10.61
1.53
-0.17
3.94
-5.44
-3.16
-0.38
0.42
-0.02
-2.95

> <PUBCHEM_SHAPE_SELFOVERLAP>
945.173

> <PUBCHEM_SHAPE_VOLUME>
245.5

> <PUBCHEM_COORDINATE_TYPE>
2
5
10

$$$$

