11381
  -OEChem-07051213053D

 23 24  0     0  0  0  0  0  0999 V2000
    3.4599   -1.8171    0.0010 O   0  0  0  0  0  0  0  0  0  0  0  0
    0.4306    0.2343    0.0001 C   0  0  0  0  0  0  0  0  0  0  0  0
   -1.0067    0.0679   -0.0001 C   0  0  0  0  0  0  0  0  0  0  0  0
    1.2620   -0.8855    0.0006 C   0  0  0  0  0  0  0  0  0  0  0  0
    0.9840    1.5146   -0.0006 C   0  0  0  0  0  0  0  0  0  0  0  0
   -1.6998   -0.0108    1.2079 C   0  0  0  0  0  0  0  0  0  0  0  0
   -1.6995   -0.0131   -1.2081 C   0  0  0  0  0  0  0  0  0  0  0  0
    2.6476   -0.7249    0.0003 C   0  0  0  0  0  0  0  0  0  0  0  0
    2.3695    1.6751   -0.0009 C   0  0  0  0  0  0  0  0  0  0  0  0
    3.2013    0.5554   -0.0005 C   0  0  0  0  0  0  0  0  0  0  0  0
   -3.0855   -0.1709    1.2081 C   0  0  0  0  0  0  0  0  0  0  0  0
   -3.0852   -0.1731   -1.2080 C   0  0  0  0  0  0  0  0  0  0  0  0
   -3.7781   -0.2520    0.0001 C   0  0  0  0  0  0  0  0  0  0  0  0
    0.8405   -1.8885    0.0012 H   0  0  0  0  0  0  0  0  0  0  0  0
    0.3500    2.3981   -0.0010 H   0  0  0  0  0  0  0  0  0  0  0  0
   -1.1753    0.0508    2.1586 H   0  0  0  0  0  0  0  0  0  0  0  0
   -1.1749    0.0466   -2.1589 H   0  0  0  0  0  0  0  0  0  0  0  0
    2.8007    2.6719   -0.0015 H   0  0  0  0  0  0  0  0  0  0  0  0
    4.2791    0.6942   -0.0008 H   0  0  0  0  0  0  0  0  0  0  0  0
   -3.6251   -0.2322    2.1486 H   0  0  0  0  0  0  0  0  0  0  0  0
   -3.6248   -0.2362   -2.1484 H   0  0  0  0  0  0  0  0  0  0  0  0
   -4.8570   -0.3765    0.0001 H   0  0  0  0  0  0  0  0  0  0  0  0
    4.3863   -1.5208    0.0007 H   0  0  0  0  0  0  0  0  0  0  0  0
  1  8  1  0  0  0  0
  1 23  1  0  0  0  0
  2  3  1  0  0  0  0
  2  4  2  0  0  0  0
  2  5  1  0  0  0  0
  3  6  2  0  0  0  0
  3  7  1  0  0  0  0
  4  8  1  0  0  0  0
  4 14  1  0  0  0  0
  5  9  2  0  0  0  0
  5 15  1  0  0  0  0
  6 11  1  0  0  0  0
  6 16  1  0  0  0  0
  7 12  2  0  0  0  0
  7 17  1  0  0  0  0
  8 10  2  0  0  0  0
  9 10  1  0  0  0  0
  9 18  1  0  0  0  0
 10 19  1  0  0  0  0
 11 13  2  0  0  0  0
 11 20  1  0  0  0  0
 12 13  1  0  0  0  0
 12 21  1  0  0  0  0
 13 22  1  0  0  0  0
M  END
> <PUBCHEM_COMPOUND_CID>
11381

> <PUBCHEM_CONFORMER_RMSD>
0.4

> <PUBCHEM_CONFORMER_DIVERSEORDER>
1
2

> <PUBCHEM_MMFF94_PARTIAL_CHARGES>
21
1 -0.53
10 -0.15
11 -0.15
12 -0.15
13 -0.15
14 0.15
15 0.15
16 0.15
17 0.15
18 0.15
19 0.15
20 0.15
21 0.15
22 0.15
23 0.45
4 -0.15
5 -0.15
6 -0.15
7 -0.15
8 0.08
9 -0.15

> <PUBCHEM_EFFECTIVE_ROTOR_COUNT>
1

> <PUBCHEM_PHARMACOPHORE_FEATURES>
3
1 1 donor
6 2 4 5 8 9 10 rings
6 3 6 7 11 12 13 rings

> <PUBCHEM_HEAVY_ATOM_COUNT>
13

> <PUBCHEM_ATOM_DEF_STEREO_COUNT>
0

> <PUBCHEM_ATOM_UDEF_STEREO_COUNT>
0

> <PUBCHEM_BOND_DEF_STEREO_COUNT>
0

> <PUBCHEM_BOND_UDEF_STEREO_COUNT>
0

> <PUBCHEM_ISOTOPIC_ATOM_COUNT>
0

> <PUBCHEM_COMPONENT_COUNT>
1

> <PUBCHEM_CACTVS_TAUTO_COUNT>
3

> <PUBCHEM_CONFORMER_ID>
00002C7500000001

> <PUBCHEM_MMFF94_ENERGY>
40.3132

> <PUBCHEM_FEATURE_SELFOVERLAP>
15.223

> <PUBCHEM_SHAPE_FINGERPRINT>
10219947 1 18335420175149616206
10465860 71 15769765883928318822
10608611 8 17846224327869621733
11031198 65 18271239413804576724
11471102 20 18412547604407819852
11578080 2 17388575762734646897
12236239 1 17748825198302963649
12932764 1 17821447941270355737
13296908 3 17917992771702591179
13538477 17 17385729045567458639
13581323 91 15195295196226377681
14144814 61 17748824103139018221
15219456 202 17989207018810326581
15669948 3 16443350810634292005
15775835 57 17749102253737435809
16945 1 18410856517091290084
17844478 74 17917707998370520733
1813 80 17970329616054366742
18175812 5 17775002362694878255
18186145 218 18409445881989773743
19049666 15 17702677681699355325
19422 9 17967813829859135743
200 152 18260838094146068439
20201158 50 18131633391375062090
20279233 1 17775570814300841763
20281407 28 17346590881041273387
204376 136 18122347870293690552
20645464 45 17489314040431377201
20645477 70 18411990186230176063
20715346 28 17775002345414710681
20871998 22 18044368560031391326
21639500 275 18265060136749725132
21730867 7 18272369741753850068
2255824 54 18334292037955066124
23402539 116 16271661000351970167
23557571 272 16773509975852517405
23559900 14 16917075486035663690
3248919 1 17240480303842229943
474 4 17680442052146217032
581208 293 18410297969458085816
6049 1 17775845713846399533
77492 1 17676485029861093317

> <PUBCHEM_SHAPE_MULTIPOLES>
261.66
6.45
1.33
1.07
0.87
0.05
0
-1.06
0
-1.66
0
1.09
-0.02
0

> <PUBCHEM_SHAPE_SELFOVERLAP>
570.219

> <PUBCHEM_SHAPE_VOLUME>
143.3

> <PUBCHEM_COORDINATE_TYPE>
2
5
10

$$$$

