13834
  -OEChem-06241222403D

 28 27  0     0  0  0  0  0  0999 V2000
   -0.0012    1.7680   -0.3659 Cl  0  0  0  0  0  0  0  0  0  0  0  0
    0.0011    0.0958    0.2125 N   0  0  0  0  0  0  0  0  0  0  0  0
    1.2003   -0.6189   -0.2081 C   0  0  0  0  0  0  0  0  0  0  0  0
   -1.2005   -0.6200   -0.2081 C   0  0  0  0  0  0  0  0  0  0  0  0
    2.4516    0.1367    0.2358 C   0  0  0  0  0  0  0  0  0  0  0  0
   -2.4514    0.1356    0.2366 C   0  0  0  0  0  0  0  0  0  0  0  0
    3.7221   -0.6074   -0.1770 C   0  0  0  0  0  0  0  0  0  0  0  0
   -3.7223   -0.5865   -0.2127 C   0  0  0  0  0  0  0  0  0  0  0  0
    4.9724    0.1560    0.2302 C   0  0  0  0  0  0  0  0  0  0  0  0
   -4.9722    0.1408    0.2567 C   0  0  0  0  0  0  0  0  0  0  0  0
    1.2182   -0.7479   -1.2983 H   0  0  0  0  0  0  0  0  0  0  0  0
    1.2113   -1.6196    0.2415 H   0  0  0  0  0  0  0  0  0  0  0  0
   -1.2113   -1.6212    0.2403 H   0  0  0  0  0  0  0  0  0  0  0  0
   -1.2176   -0.7471   -1.2985 H   0  0  0  0  0  0  0  0  0  0  0  0
    2.4434    0.2660    1.3257 H   0  0  0  0  0  0  0  0  0  0  0  0
    2.5089    1.1354   -0.2094 H   0  0  0  0  0  0  0  0  0  0  0  0
   -2.4992    1.1464   -0.1810 H   0  0  0  0  0  0  0  0  0  0  0  0
   -2.4544    0.2358    1.3297 H   0  0  0  0  0  0  0  0  0  0  0  0
    3.7316   -0.7559   -1.2631 H   0  0  0  0  0  0  0  0  0  0  0  0
    3.7392   -1.6005    0.2867 H   0  0  0  0  0  0  0  0  0  0  0  0
   -3.7314   -1.6074    0.1863 H   0  0  0  0  0  0  0  0  0  0  0  0
   -3.7401   -0.6649   -1.3061 H   0  0  0  0  0  0  0  0  0  0  0  0
    5.8682   -0.3967   -0.0701 H   0  0  0  0  0  0  0  0  0  0  0  0
    5.0052    1.1404   -0.2476 H   0  0  0  0  0  0  0  0  0  0  0  0
    5.0090    0.2986    1.3149 H   0  0  0  0  0  0  0  0  0  0  0  0
   -5.8682   -0.3943   -0.0734 H   0  0  0  0  0  0  0  0  0  0  0  0
   -5.0002    0.2084    1.3489 H   0  0  0  0  0  0  0  0  0  0  0  0
   -5.0132    1.1555   -0.1520 H   0  0  0  0  0  0  0  0  0  0  0  0
  1  2  1  0  0  0  0
  2  3  1  0  0  0  0
  2  4  1  0  0  0  0
  3  5  1  0  0  0  0
  3 11  1  0  0  0  0
  3 12  1  0  0  0  0
  4  6  1  0  0  0  0
  4 13  1  0  0  0  0
  4 14  1  0  0  0  0
  5  7  1  0  0  0  0
  5 15  1  0  0  0  0
  5 16  1  0  0  0  0
  6  8  1  0  0  0  0
  6 17  1  0  0  0  0
  6 18  1  0  0  0  0
  7  9  1  0  0  0  0
  7 19  1  0  0  0  0
  7 20  1  0  0  0  0
  8 10  1  0  0  0  0
  8 21  1  0  0  0  0
  8 22  1  0  0  0  0
  9 23  1  0  0  0  0
  9 24  1  0  0  0  0
  9 25  1  0  0  0  0
 10 26  1  0  0  0  0
 10 27  1  0  0  0  0
 10 28  1  0  0  0  0
M  END
> <PUBCHEM_COMPOUND_CID>
13834

> <PUBCHEM_CONFORMER_RMSD>
0.6

> <PUBCHEM_CONFORMER_DIVERSEORDER>
1
41
54
26
22
92
78
74
98
96
34
2
55
40
72
7
91
57
60
49
101
3
45
100
61
24
95
58
83
13
15
76
46
6
99
70
84
19
48
25
87
37
89
65
94
69
10
16
35
23
11
43
97
21
17
93
63
20
71
68
52
29
88
36
31
51
18
66
38
59
5
33
14
50
81
47
86
90
9
73
12
28
27
39
53
56
32
8
82
64
4
80
62
42
85
75
79
30
67
44
77

> <PUBCHEM_MMFF94_PARTIAL_CHARGES>
4
1 -0.05
2 -0.49
3 0.27
4 0.27

> <PUBCHEM_EFFECTIVE_ROTOR_COUNT>
6

> <PUBCHEM_PHARMACOPHORE_FEATURES>
2
1 10 hydrophobe
1 9 hydrophobe

> <PUBCHEM_HEAVY_ATOM_COUNT>
10

> <PUBCHEM_ATOM_DEF_STEREO_COUNT>
0

> <PUBCHEM_ATOM_UDEF_STEREO_COUNT>
0

> <PUBCHEM_BOND_DEF_STEREO_COUNT>
0

> <PUBCHEM_BOND_UDEF_STEREO_COUNT>
0

> <PUBCHEM_ISOTOPIC_ATOM_COUNT>
0

> <PUBCHEM_COMPONENT_COUNT>
1

> <PUBCHEM_CACTVS_TAUTO_COUNT>
1

> <PUBCHEM_CONFORMER_ID>
0000360A00000001

> <PUBCHEM_MMFF94_ENERGY>
0.1033

> <PUBCHEM_FEATURE_SELFOVERLAP>
10.149

> <PUBCHEM_SHAPE_FINGERPRINT>
11062470 55 18113617884827353515
11401426 45 18409732859062177151
114248 4 14692568814478062435
12815109 37 18413109463323438381
14123238 8 18113618979975396774
14252887 29 18335128821658811178
15048467 5 17675924296063408872
17834072 33 17240771622789134636
17834076 25 17167580492740619467
18342897 14 18343582954032956033
187816 3 17418372502055797584
20645477 70 17531521100935648414
20671657 1 18126277541804332613
20711985 327 18408035200023912469
20719005 15 18409729564584962194
20767249 13 18273217495231031906
22485316 2 18410577287986927310
23402539 116 18408329882256894175
42788 4 18407759235384442090
449060 50 17385724686159763758
68521 5 18270962448280166013

> <PUBCHEM_SHAPE_MULTIPOLES>
202.68
9.96
1.12
0.67
0
0.53
-0.01
-1.09
0.96
0.01
-0.15
-0.01
0.02
-0.01

> <PUBCHEM_SHAPE_SELFOVERLAP>
349.163

> <PUBCHEM_SHAPE_VOLUME>
136.4

> <PUBCHEM_COORDINATE_TYPE>
2
5
10

$$$$

