235558
  -OEChem-07051213073D

 53 56  0     1  0  0  0  0  0999 V2000
   -5.1207    1.2463   -0.2270 O   0  0  0  0  0  0  0  0  0  0  0  0
    5.4709   -0.3525    1.1227 O   0  0  0  0  0  0  0  0  0  0  0  0
   -2.7400    0.5808   -0.1588 C   0  0  1  0  0  0  0  0  0  0  0  0
   -2.0934   -0.7507    0.2672 C   0  0  2  0  0  0  0  0  0  0  0  0
   -0.7018   -0.9658   -0.3540 C   0  0  1  0  0  0  0  0  0  0  0  0
   -4.1691    0.4239    0.4434 C   0  0  2  0  0  0  0  0  0  0  0  0
   -3.1652   -1.7954   -0.0349 C   0  0  0  0  0  0  0  0  0  0  0  0
   -4.5037   -1.0640    0.1684 C   0  0  0  0  0  0  0  0  0  0  0  0
    0.1681    0.2996   -0.2477 C   0  0  0  0  0  0  0  0  0  0  0  0
   -1.8565    1.7057    0.4077 C   0  0  0  0  0  0  0  0  0  0  0  0
    1.6686    0.1438   -0.6295 C   0  0  2  0  0  0  0  0  0  0  0  0
   -0.0180   -2.1658    0.3158 C   0  0  0  0  0  0  0  0  0  0  0  0
   -2.8295    0.7499   -1.7045 C   0  0  0  0  0  0  0  0  0  0  0  0
   -0.3897    1.4796    0.1155 C   0  0  0  0  0  0  0  0  0  0  0  0
    2.2375   -1.1865   -0.1155 C   0  0  0  0  0  0  0  0  0  0  0  0
    1.3647   -2.4084   -0.2690 C   0  0  0  0  0  0  0  0  0  0  0  0
   -4.3011    0.7285    1.9407 C   0  0  0  0  0  0  0  0  0  0  0  0
    2.5289    1.3204   -0.0718 C   0  0  0  0  0  0  0  0  0  0  0  0
    1.7559    0.1525   -2.1747 C   0  0  0  0  0  0  0  0  0  0  0  0
    4.0392    1.0941   -0.1798 C   0  0  2  0  0  0  0  0  0  0  0  0
    3.4524   -1.3248    0.4418 C   0  0  0  0  0  0  0  0  0  0  0  0
    4.4026   -0.1923    0.5355 C   0  0  0  0  0  0  0  0  0  0  0  0
    4.8000    2.2811    0.4084 C   0  0  0  0  0  0  0  0  0  0  0  0
   -1.9600   -0.7417    1.3604 H   0  0  0  0  0  0  0  0  0  0  0  0
   -0.8220   -1.1995   -1.4201 H   0  0  0  0  0  0  0  0  0  0  0  0
   -3.0824   -2.6626    0.6283 H   0  0  0  0  0  0  0  0  0  0  0  0
   -3.0898   -2.1618   -1.0649 H   0  0  0  0  0  0  0  0  0  0  0  0
   -5.1329   -1.1919   -0.7204 H   0  0  0  0  0  0  0  0  0  0  0  0
   -5.0577   -1.5141    1.0005 H   0  0  0  0  0  0  0  0  0  0  0  0
   -1.9506    1.7924    1.4954 H   0  0  0  0  0  0  0  0  0  0  0  0
   -2.1658    2.6703   -0.0122 H   0  0  0  0  0  0  0  0  0  0  0  0
   -0.6229   -3.0695    0.1747 H   0  0  0  0  0  0  0  0  0  0  0  0
    0.0638   -2.0043    1.3991 H   0  0  0  0  0  0  0  0  0  0  0  0
   -3.2986    1.7063   -1.9634 H   0  0  0  0  0  0  0  0  0  0  0  0
   -1.8474    0.7509   -2.1868 H   0  0  0  0  0  0  0  0  0  0  0  0
   -3.4148   -0.0443   -2.1787 H   0  0  0  0  0  0  0  0  0  0  0  0
    0.2131    2.3787    0.1908 H   0  0  0  0  0  0  0  0  0  0  0  0
    1.2824   -2.6644   -1.3323 H   0  0  0  0  0  0  0  0  0  0  0  0
    1.8072   -3.2823    0.2249 H   0  0  0  0  0  0  0  0  0  0  0  0
   -4.1331    1.7927    2.1393 H   0  0  0  0  0  0  0  0  0  0  0  0
   -5.3227    0.5228    2.2827 H   0  0  0  0  0  0  0  0  0  0  0  0
   -3.6158    0.1413    2.5578 H   0  0  0  0  0  0  0  0  0  0  0  0
    2.2815    1.4787    0.9886 H   0  0  0  0  0  0  0  0  0  0  0  0
    2.2814    2.2518   -0.5986 H   0  0  0  0  0  0  0  0  0  0  0  0
    1.4330    1.1181   -2.5822 H   0  0  0  0  0  0  0  0  0  0  0  0
    2.7767   -0.0300   -2.5283 H   0  0  0  0  0  0  0  0  0  0  0  0
    1.1228   -0.6168   -2.6312 H   0  0  0  0  0  0  0  0  0  0  0  0
   -5.2738    0.8986   -1.1209 H   0  0  0  0  0  0  0  0  0  0  0  0
    4.3386    0.9831   -1.2282 H   0  0  0  0  0  0  0  0  0  0  0  0
    3.8069   -2.2829    0.8080 H   0  0  0  0  0  0  0  0  0  0  0  0
    4.5909    2.3990    1.4775 H   0  0  0  0  0  0  0  0  0  0  0  0
    5.8814    2.1458    0.2973 H   0  0  0  0  0  0  0  0  0  0  0  0
    4.5258    3.2115   -0.0995 H   0  0  0  0  0  0  0  0  0  0  0  0
  1  6  1  0  0  0  0
  1 48  1  0  0  0  0
  2 22  2  0  0  0  0
  3  4  1  0  0  0  0
  3  6  1  0  0  0  0
  3 10  1  0  0  0  0
  3 13  1  0  0  0  0
  4  5  1  0  0  0  0
  4  7  1  0  0  0  0
  4 24  1  0  0  0  0
  5  9  1  0  0  0  0
  5 12  1  0  0  0  0
  5 25  1  0  0  0  0
  6  8  1  0  0  0  0
  6 17  1  0  0  0  0
  7  8  1  0  0  0  0
  7 26  1  0  0  0  0
  7 27  1  0  0  0  0
  8 28  1  0  0  0  0
  8 29  1  0  0  0  0
  9 11  1  0  0  0  0
  9 14  2  0  0  0  0
 10 14  1  0  0  0  0
 10 30  1  0  0  0  0
 10 31  1  0  0  0  0
 11 15  1  0  0  0  0
 11 18  1  0  0  0  0
 11 19  1  0  0  0  0
 12 16  1  0  0  0  0
 12 32  1  0  0  0  0
 12 33  1  0  0  0  0
 13 34  1  0  0  0  0
 13 35  1  0  0  0  0
 13 36  1  0  0  0  0
 14 37  1  0  0  0  0
 15 16  1  0  0  0  0
 15 21  2  0  0  0  0
 16 38  1  0  0  0  0
 16 39  1  0  0  0  0
 17 40  1  0  0  0  0
 17 41  1  0  0  0  0
 17 42  1  0  0  0  0
 18 20  1  0  0  0  0
 18 43  1  0  0  0  0
 18 44  1  0  0  0  0
 19 45  1  0  0  0  0
 19 46  1  0  0  0  0
 19 47  1  0  0  0  0
 20 22  1  0  0  0  0
 20 23  1  0  0  0  0
 20 49  1  0  0  0  0
 21 22  1  0  0  0  0
 21 50  1  0  0  0  0
 23 51  1  0  0  0  0
 23 52  1  0  0  0  0
 23 53  1  0  0  0  0
M  END
> <PUBCHEM_COMPOUND_CID>
235558

> <PUBCHEM_CONFORMER_RMSD>
0.6

> <PUBCHEM_CONFORMER_DIVERSEORDER>
1
2

> <PUBCHEM_MMFF94_PARTIAL_CHARGES>
16
1 -0.68
10 0.14
11 0.28
14 -0.29
15 -0.28
16 0.14
2 -0.57
20 0.06
21 -0.14
22 0.49
37 0.15
48 0.4
5 0.14
50 0.15
6 0.28
9 -0.28

> <PUBCHEM_EFFECTIVE_ROTOR_COUNT>
1.6

> <PUBCHEM_PHARMACOPHORE_FEATURES>
7
1 1 acceptor
1 1 donor
1 2 acceptor
5 3 4 6 7 8 rings
6 11 15 18 20 21 22 rings
6 3 4 5 9 10 14 rings
6 5 9 11 12 15 16 rings

> <PUBCHEM_HEAVY_ATOM_COUNT>
23

> <PUBCHEM_ATOM_DEF_STEREO_COUNT>
6

> <PUBCHEM_ATOM_UDEF_STEREO_COUNT>
0

> <PUBCHEM_BOND_DEF_STEREO_COUNT>
0

> <PUBCHEM_BOND_UDEF_STEREO_COUNT>
0

> <PUBCHEM_ISOTOPIC_ATOM_COUNT>
0

> <PUBCHEM_COMPONENT_COUNT>
1

> <PUBCHEM_CACTVS_TAUTO_COUNT>
5

> <PUBCHEM_CONFORMER_ID>
0003982600000001

> <PUBCHEM_MMFF94_ENERGY>
73.4105

> <PUBCHEM_FEATURE_SELFOVERLAP>
35.619

> <PUBCHEM_SHAPE_FINGERPRINT>
10062212 137 18412268302816767491
11132069 177 18341044190258668071
11370993 70 18342183288225419438
11578080 2 16771277065489922078
11796584 16 13614524068928965546
12107183 9 17834678575356741976
12236239 1 17989487416240674420
12403259 415 18272654566942565892
12403814 3 17917991677129424709
12633257 1 18409455782385341384
12788726 201 17676194797473110000
13140716 1 18339077081924709578
13224815 77 18408036316730895783
13583140 156 16988577817457424358
13675066 3 17917989486126417233
14223421 5 18338515364684930982
14341114 176 18410290354760664546
14341114 328 18259981557086629208
14787075 74 18337677407959975762
14790565 3 18194956345200338028
15163728 17 14925327842020566049
15196674 1 18411138013210391482
15209294 21 18335980895846160291
15375358 24 18186796993858356997
15536298 74 18334852865799446070
15788980 27 17704353268800861969
16945 1 18266455593141009343
17349148 13 17989202642386241038
1813 80 16558754524978679126
18186145 218 18410005554983323310
19050596 39 18409729560405987520
19784866 9 18411138056154763978
200 152 18334304158458439551
20511986 3 18340504291262751623
20715895 44 18055360386295936293
20871999 31 8502659207372894378
21033648 29 18058748960546635772
21267235 1 18411973667912529850
21421861 104 18057043716626911282
21623110 236 18338231570737370209
21756936 100 17970918748382001780
21859007 373 17415854741062263637
22182313 1 17916309518211224735
23402539 116 18261119551431246141
23557571 272 17895185550478946055
23559900 14 18261389005433305478
26918003 58 18343586260851870945
2838139 119 16226909731199996032
296302 2 18260545615115031159
335352 9 18411139164810357286
34797466 226 14779553344199796041
34934 24 18334013908800135533
350125 39 18412263948252516932
3680242 22 18410853308692425584
392239 28 18408321085963451224
4340502 62 18341606040937695579
474 4 18333731325368389194
5104073 3 18412543189038983090
542803 24 17530961384527870656
633830 44 18040992947369278068
7364860 26 18262231256877857590
9709674 26 18411131459059149463

> <PUBCHEM_SHAPE_MULTIPOLES>
461.59
10.42
2.2
1.24
1.47
0.44
0.31
-2.8
-3.05
0.7
-0.19
-0.34
-0.24
-0.14

> <PUBCHEM_SHAPE_SELFOVERLAP>
994.364

> <PUBCHEM_SHAPE_VOLUME>
253.4

> <PUBCHEM_COORDINATE_TYPE>
2
5
10

$$$$

