443008
  -OEChem-07051213003D

 25 26  0     1  0  0  0  0  0999 V2000
    1.8418    1.4161   -0.0666 O   0  0  0  0  0  0  0  0  0  0  0  0
    0.5337   -0.5234   -0.7844 N   0  0  2  0  0  0  0  0  0  0  0  0
    0.6330    0.6813    0.0670 C   0  0  1  0  0  0  0  0  0  0  0  0
   -0.5847   -1.2591   -0.1592 C   0  0  1  0  0  0  0  0  0  0  0  0
    0.4859    0.1497    1.4982 C   0  0  0  0  0  0  0  0  0  0  0  0
   -0.3347   -1.1326    1.3486 C   0  0  0  0  0  0  0  0  0  0  0  0
   -0.5437    1.6015   -0.3271 C   0  0  0  0  0  0  0  0  0  0  0  0
   -1.8806   -0.5424   -0.5872 C   0  0  0  0  0  0  0  0  0  0  0  0
   -1.9096    0.9294   -0.1601 C   0  0  0  0  0  0  0  0  0  0  0  0
    1.7589   -1.3205   -0.8293 C   0  0  0  0  0  0  0  0  0  0  0  0
   -0.6376   -2.3056   -0.4804 H   0  0  0  0  0  0  0  0  0  0  0  0
   -0.0107    0.8691    2.1588 H   0  0  0  0  0  0  0  0  0  0  0  0
    1.4568   -0.0774    1.9552 H   0  0  0  0  0  0  0  0  0  0  0  0
    0.2516   -1.9840    1.7142 H   0  0  0  0  0  0  0  0  0  0  0  0
   -1.2609   -1.0960    1.9312 H   0  0  0  0  0  0  0  0  0  0  0  0
   -0.4188    1.9143   -1.3731 H   0  0  0  0  0  0  0  0  0  0  0  0
   -0.5133    2.5296    0.2576 H   0  0  0  0  0  0  0  0  0  0  0  0
   -2.7523   -1.0586   -0.1677 H   0  0  0  0  0  0  0  0  0  0  0  0
   -1.9782   -0.5988   -1.6793 H   0  0  0  0  0  0  0  0  0  0  0  0
   -2.6727    1.4740   -0.7275 H   0  0  0  0  0  0  0  0  0  0  0  0
   -2.2116    0.9909    0.8928 H   0  0  0  0  0  0  0  0  0  0  0  0
    2.1303   -1.6200    0.1561 H   0  0  0  0  0  0  0  0  0  0  0  0
    2.5537   -0.7683   -1.3422 H   0  0  0  0  0  0  0  0  0  0  0  0
    1.5923   -2.2301   -1.4174 H   0  0  0  0  0  0  0  0  0  0  0  0
    2.5706    0.8721    0.2749 H   0  0  0  0  0  0  0  0  0  0  0  0
  1  3  1  0  0  0  0
  1 25  1  0  0  0  0
  2  3  1  0  0  0  0
  2  4  1  0  0  0  0
  2 10  1  0  0  0  0
  3  5  1  0  0  0  0
  3  7  1  0  0  0  0
  4  6  1  0  0  0  0
  4  8  1  0  0  0  0
  4 11  1  0  0  0  0
  5  6  1  0  0  0  0
  5 12  1  0  0  0  0
  5 13  1  0  0  0  0
  6 14  1  0  0  0  0
  6 15  1  0  0  0  0
  7  9  1  0  0  0  0
  7 16  1  0  0  0  0
  7 17  1  0  0  0  0
  8  9  1  0  0  0  0
  8 18  1  0  0  0  0
  8 19  1  0  0  0  0
  9 20  1  0  0  0  0
  9 21  1  0  0  0  0
 10 22  1  0  0  0  0
 10 23  1  0  0  0  0
 10 24  1  0  0  0  0
M  END
> <PUBCHEM_COMPOUND_CID>
443008

> <PUBCHEM_CONFORMER_RMSD>
0.4

> <PUBCHEM_CONFORMER_DIVERSEORDER>
2
1

> <PUBCHEM_MMFF94_PARTIAL_CHARGES>
6
1 -0.68
10 0.27
2 -0.81
25 0.4
3 0.55
4 0.27

> <PUBCHEM_EFFECTIVE_ROTOR_COUNT>
1.2

> <PUBCHEM_PHARMACOPHORE_FEATURES>
4
1 1 acceptor
1 1 donor
1 2 cation
8 2 3 4 5 6 7 8 9 rings

> <PUBCHEM_HEAVY_ATOM_COUNT>
10

> <PUBCHEM_ATOM_DEF_STEREO_COUNT>
0

> <PUBCHEM_ATOM_UDEF_STEREO_COUNT>
2

> <PUBCHEM_BOND_DEF_STEREO_COUNT>
0

> <PUBCHEM_BOND_UDEF_STEREO_COUNT>
0

> <PUBCHEM_ISOTOPIC_ATOM_COUNT>
0

> <PUBCHEM_COMPONENT_COUNT>
1

> <PUBCHEM_CACTVS_TAUTO_COUNT>
1

> <PUBCHEM_CONFORMER_ID>
0006C28000000002

> <PUBCHEM_MMFF94_ENERGY>
21.0111

> <PUBCHEM_FEATURE_SELFOVERLAP>
20.297

> <PUBCHEM_SHAPE_FINGERPRINT>
12423570 1 6407409070425870059
13024252 1 16267449707767248648
137420 1 15243934687082962491
14128692 85 17676211315790170686
16945 1 18119806060833000167
21040471 1 18336562533439825741
241688 4 18338797926467884281
29004967 10 18050549760318948547
5084963 1 18188505664924061491

> <PUBCHEM_SHAPE_MULTIPOLES>
194.94
2.12
1.69
1.2
0.22
0.29
-0.45
0.05
0.64
-0.15
0.07
-0.23
-0.28
0.17

> <PUBCHEM_SHAPE_SELFOVERLAP>
403.548

> <PUBCHEM_SHAPE_VOLUME>
113.5

> <PUBCHEM_COORDINATE_TYPE>
2
5
10

$$$$

