169014
  -OEChem-07051213003D

 38 41  0     1  0  0  0  0  0999 V2000
   -2.6901    2.3405   -0.7298 O   0  0  0  0  0  0  0  0  0  0  0  0
    1.9598   -0.3358   -0.6355 N   0  0  1  0  0  0  0  0  0  0  0  0
   -1.2781    0.6768    0.1310 N   0  0  0  0  0  0  0  0  0  0  0  0
    1.4381   -0.2204    0.7447 C   0  0  1  0  0  0  0  0  0  0  0  0
    1.0209    1.2230    1.0500 C   0  0  1  0  0  0  0  0  0  0  0  0
    0.2339   -1.1508    1.0379 C   0  0  2  0  0  0  0  0  0  0  0  0
    2.2064    2.1763    0.8481 C   0  0  0  0  0  0  0  0  0  0  0  0
    0.6418   -2.5935    0.6698 C   0  0  0  0  0  0  0  0  0  0  0  0
   -0.1723    1.6281    0.1845 C   0  0  0  0  0  0  0  0  0  0  0  0
    3.1474    0.5199   -0.8158 C   0  0  0  0  0  0  0  0  0  0  0  0
    2.3010   -1.7217   -0.9857 C   0  0  0  0  0  0  0  0  0  0  0  0
   -1.1056   -0.6722    0.4705 C   0  0  0  0  0  0  0  0  0  0  0  0
    2.8574    1.9913   -0.5201 C   0  0  0  0  0  0  0  0  0  0  0  0
    1.1271   -2.6722   -0.7714 C   0  0  0  0  0  0  0  0  0  0  0  0
   -2.1527   -1.5112    0.3456 C   0  0  0  0  0  0  0  0  0  0  0  0
   -2.4951    1.1767   -0.3773 C   0  0  0  0  0  0  0  0  0  0  0  0
   -3.4235   -1.0639   -0.1498 C   0  0  0  0  0  0  0  0  0  0  0  0
   -3.6162    0.2089   -0.4966 C   0  0  0  0  0  0  0  0  0  0  0  0
    2.2423   -0.4997    1.4429 H   0  0  0  0  0  0  0  0  0  0  0  0
    0.7136    1.2846    2.1032 H   0  0  0  0  0  0  0  0  0  0  0  0
    0.0925   -1.1402    2.1301 H   0  0  0  0  0  0  0  0  0  0  0  0
    2.9560    1.9786    1.6251 H   0  0  0  0  0  0  0  0  0  0  0  0
    1.8904    3.2183    0.9740 H   0  0  0  0  0  0  0  0  0  0  0  0
   -0.1618   -3.3160    0.8374 H   0  0  0  0  0  0  0  0  0  0  0  0
    1.4576   -2.9085    1.3350 H   0  0  0  0  0  0  0  0  0  0  0  0
   -0.5600    2.5895    0.5464 H   0  0  0  0  0  0  0  0  0  0  0  0
    0.1198    1.7996   -0.8584 H   0  0  0  0  0  0  0  0  0  0  0  0
    3.5019    0.4466   -1.8513 H   0  0  0  0  0  0  0  0  0  0  0  0
    3.9680    0.1797   -0.1699 H   0  0  0  0  0  0  0  0  0  0  0  0
    3.1580   -2.0709   -0.3943 H   0  0  0  0  0  0  0  0  0  0  0  0
    2.5945   -1.7723   -2.0414 H   0  0  0  0  0  0  0  0  0  0  0  0
    2.2108    2.4037   -1.3034 H   0  0  0  0  0  0  0  0  0  0  0  0
    3.7914    2.5639   -0.5598 H   0  0  0  0  0  0  0  0  0  0  0  0
    1.4426   -3.6973   -0.9967 H   0  0  0  0  0  0  0  0  0  0  0  0
    0.3124   -2.4292   -1.4639 H   0  0  0  0  0  0  0  0  0  0  0  0
   -2.1045   -2.5547    0.6317 H   0  0  0  0  0  0  0  0  0  0  0  0
   -4.2261   -1.7885   -0.2300 H   0  0  0  0  0  0  0  0  0  0  0  0
   -4.5692    0.5625   -0.8715 H   0  0  0  0  0  0  0  0  0  0  0  0
  1 16  2  0  0  0  0
  2  4  1  0  0  0  0
  2 10  1  0  0  0  0
  2 11  1  0  0  0  0
  3  9  1  0  0  0  0
  3 12  1  0  0  0  0
  3 16  1  0  0  0  0
  4  5  1  0  0  0  0
  4  6  1  0  0  0  0
  4 19  1  0  0  0  0
  5  7  1  0  0  0  0
  5  9  1  0  0  0  0
  5 20  1  0  0  0  0
  6  8  1  0  0  0  0
  6 12  1  0  0  0  0
  6 21  1  0  0  0  0
  7 13  1  0  0  0  0
  7 22  1  0  0  0  0
  7 23  1  0  0  0  0
  8 14  1  0  0  0  0
  8 24  1  0  0  0  0
  8 25  1  0  0  0  0
  9 26  1  0  0  0  0
  9 27  1  0  0  0  0
 10 13  1  0  0  0  0
 10 28  1  0  0  0  0
 10 29  1  0  0  0  0
 11 14  1  0  0  0  0
 11 30  1  0  0  0  0
 11 31  1  0  0  0  0
 12 15  2  0  0  0  0
 13 32  1  0  0  0  0
 13 33  1  0  0  0  0
 14 34  1  0  0  0  0
 14 35  1  0  0  0  0
 15 17  1  0  0  0  0
 15 36  1  0  0  0  0
 16 18  1  0  0  0  0
 17 18  2  0  0  0  0
 17 37  1  0  0  0  0
 18 38  1  0  0  0  0
M  END
> <PUBCHEM_COMPOUND_CID>
169014

> <PUBCHEM_CONFORMER_RMSD>
0.6

> <PUBCHEM_CONFORMER_DIVERSEORDER>
1
2

> <PUBCHEM_MMFF94_PARTIAL_CHARGES>
16
1 -0.57
10 0.27
11 0.27
12 -0.03
15 -0.15
16 0.62
17 -0.15
18 -0.14
2 -0.81
3 -0.47
36 0.15
37 0.15
38 0.15
4 0.27
6 0.14
9 0.3

> <PUBCHEM_EFFECTIVE_ROTOR_COUNT>
1.4

> <PUBCHEM_PHARMACOPHORE_FEATURES>
6
1 1 acceptor
1 2 cation
6 2 4 5 7 10 13 rings
6 2 4 6 8 11 14 rings
6 3 12 15 16 17 18 rings
6 3 4 5 6 9 12 rings

> <PUBCHEM_HEAVY_ATOM_COUNT>
18

> <PUBCHEM_ATOM_DEF_STEREO_COUNT>
3

> <PUBCHEM_ATOM_UDEF_STEREO_COUNT>
0

> <PUBCHEM_BOND_DEF_STEREO_COUNT>
0

> <PUBCHEM_BOND_UDEF_STEREO_COUNT>
0

> <PUBCHEM_ISOTOPIC_ATOM_COUNT>
0

> <PUBCHEM_COMPONENT_COUNT>
1

> <PUBCHEM_CACTVS_TAUTO_COUNT>
1

> <PUBCHEM_CONFORMER_ID>
0002943600000001

> <PUBCHEM_MMFF94_ENERGY>
34.8309

> <PUBCHEM_FEATURE_SELFOVERLAP>
30.639

> <PUBCHEM_SHAPE_FINGERPRINT>
10498660 4 18201165356181514733
10764073 3 17184520857373549184
10871710 139 16107538772427976020
10948715 1 18270119002865756284
10967382 1 18338798901409512859
11640471 11 16127243365163819726
12400797 292 18264480866052201110
13132413 78 17840609285416821138
13140716 1 18411140255146533729
13299463 15 18334848403190879178
13380535 21 18410851096958542329
13464514 151 18268706280721532620
13897977 150 18410571769143518209
14251745 187 18410853218181698008
14790565 3 16821634848751247472
14817 1 8309887808191150274
15001771 113 17974000944817884568
16945 1 18194676192671789994
17357779 13 17033603638980713422
17980427 23 17762949606256602249
18186145 218 18262224539379876592
18981168 100 17273152399446760229
20600515 1 17546474600258306834
20645476 183 17273138977652860816
20645477 70 18334305279434269983
20905425 154 18409730707035713686
21501502 16 18339646736686044179
21524375 3 18339646620674603946
22802520 49 18411972589954496195
23114952 82 18337662105070381366
2334 1 18339080384749402385
23402539 116 18195539090546535772
23493267 7 17702941410071510074
23557571 272 17844514531654341059
23559900 14 18263644129989390974
238 59 18263668223985405645
25 1 18336819819028726674
2748010 2 17689715264278540139
2871803 45 18337678512214847047
3060560 45 18189342272771173911
3323516 105 18334003965370629111
5262128 65 17825088544687164862
7364860 26 18335990864518112346
74978 22 18192716871952659665
7832392 63 18048596224704397185
81228 2 17111297312553203402

> <PUBCHEM_SHAPE_MULTIPOLES>
354.6
5.21
2.97
1.06
2.55
0.64
0.06
-1.63
-1.5
-0.89
-0.18
-0.4
0.08
0.74

> <PUBCHEM_SHAPE_SELFOVERLAP>
767.918

> <PUBCHEM_SHAPE_VOLUME>
189.8

> <PUBCHEM_COORDINATE_TYPE>
2
5
10

$$$$

