6668
  -OEChem-06261201263D

 38 39  0     0  0  0  0  0  0999 V2000
    2.4763   -2.2616   -0.1732 S   0  0  0  0  0  0  0  0  0  0  0  0
   -2.4344    2.2549    0.0761 S   0  0  0  0  0  0  0  0  0  0  0  0
    1.6560   -2.5598    1.2072 O   0  0  0  0  0  0  0  0  0  0  0  0
   -1.5888    2.4616   -1.3058 O   0  0  0  0  0  0  0  0  0  0  0  0
    1.5554   -2.4852   -1.2756 O   0  0  0  0  0  0  0  0  0  0  0  0
    3.7473   -2.9621   -0.1081 O   0  0  0  0  0  0  0  0  0  0  0  0
   -3.6748    2.9995   -0.0653 O   0  0  0  0  0  0  0  0  0  0  0  0
   -1.5420    2.4963    1.1966 O   0  0  0  0  0  0  0  0  0  0  0  0
    5.8441    1.5817    0.3048 N   0  0  0  0  0  0  0  0  0  0  0  0
   -5.8767   -1.5383   -0.2483 N   0  0  0  0  0  0  0  0  0  0  0  0
    1.8484    0.4199   -0.2650 C   0  0  0  0  0  0  0  0  0  0  0  0
   -1.8811   -0.4340    0.3182 C   0  0  0  0  0  0  0  0  0  0  0  0
    2.8423   -0.5483   -0.1222 C   0  0  0  0  0  0  0  0  0  0  0  0
   -2.8365    0.5492    0.1110 C   0  0  0  0  0  0  0  0  0  0  0  0
    0.4496    0.0623   -0.4647 C   0  0  0  0  0  0  0  0  0  0  0  0
   -0.4624   -0.0914    0.5219 C   0  0  0  0  0  0  0  0  0  0  0  0
    4.1694   -0.1625    0.0673 C   0  0  0  0  0  0  0  0  0  0  0  0
   -4.1687    0.1814   -0.0777 C   0  0  0  0  0  0  0  0  0  0  0  0
    2.1813    1.7737   -0.2185 C   0  0  0  0  0  0  0  0  0  0  0  0
   -2.2267   -1.7773    0.3410 C   0  0  0  0  0  0  0  0  0  0  0  0
    4.5023    1.1913    0.1138 C   0  0  0  0  0  0  0  0  0  0  0  0
   -4.5298   -1.1658   -0.0570 C   0  0  0  0  0  0  0  0  0  0  0  0
    3.5082    2.1593   -0.0291 C   0  0  0  0  0  0  0  0  0  0  0  0
   -3.5589   -2.1451    0.1524 C   0  0  0  0  0  0  0  0  0  0  0  0
    0.1471   -0.0591   -1.5025 H   0  0  0  0  0  0  0  0  0  0  0  0
   -0.1655    0.0311    1.5613 H   0  0  0  0  0  0  0  0  0  0  0  0
    4.9619   -0.8966    0.1845 H   0  0  0  0  0  0  0  0  0  0  0  0
   -4.9420    0.9263   -0.2452 H   0  0  0  0  0  0  0  0  0  0  0  0
    1.4198    2.5423   -0.3287 H   0  0  0  0  0  0  0  0  0  0  0  0
   -1.4837   -2.5536    0.5011 H   0  0  0  0  0  0  0  0  0  0  0  0
    3.7550    3.2173    0.0052 H   0  0  0  0  0  0  0  0  0  0  0  0
   -3.8278   -3.1982    0.1701 H   0  0  0  0  0  0  0  0  0  0  0  0
    6.0854    2.5632    0.3393 H   0  0  0  0  0  0  0  0  0  0  0  0
    6.5657    0.8810    0.4092 H   0  0  0  0  0  0  0  0  0  0  0  0
   -6.1386   -2.5150   -0.2326 H   0  0  0  0  0  0  0  0  0  0  0  0
   -6.5818   -0.8294   -0.3995 H   0  0  0  0  0  0  0  0  0  0  0  0
    0.6941   -2.3536    1.1903 H   0  0  0  0  0  0  0  0  0  0  0  0
   -2.0733    2.2411   -2.1357 H   0  0  0  0  0  0  0  0  0  0  0  0
  1  3  1  0  0  0  0
  1  5  2  0  0  0  0
  1  6  2  0  0  0  0
  1 13  1  0  0  0  0
  2  4  1  0  0  0  0
  2  7  2  0  0  0  0
  2  8  2  0  0  0  0
  2 14  1  0  0  0  0
  3 37  1  0  0  0  0
  4 38  1  0  0  0  0
  9 21  1  0  0  0  0
  9 33  1  0  0  0  0
  9 34  1  0  0  0  0
 10 22  1  0  0  0  0
 10 35  1  0  0  0  0
 10 36  1  0  0  0  0
 11 13  2  0  0  0  0
 11 15  1  0  0  0  0
 11 19  1  0  0  0  0
 12 14  2  0  0  0  0
 12 16  1  0  0  0  0
 12 20  1  0  0  0  0
 13 17  1  0  0  0  0
 14 18  1  0  0  0  0
 15 16  2  0  0  0  0
 15 25  1  0  0  0  0
 16 26  1  0  0  0  0
 17 21  2  0  0  0  0
 17 27  1  0  0  0  0
 18 22  2  0  0  0  0
 18 28  1  0  0  0  0
 19 23  2  0  0  0  0
 19 29  1  0  0  0  0
 20 24  2  0  0  0  0
 20 30  1  0  0  0  0
 21 23  1  0  0  0  0
 22 24  1  0  0  0  0
 23 31  1  0  0  0  0
 24 32  1  0  0  0  0
M  END
> <PUBCHEM_COMPOUND_CID>
6668

> <PUBCHEM_CONFORMER_RMSD>
0.8

> <PUBCHEM_CONFORMER_DIVERSEORDER>
1
3
4
5
2

> <PUBCHEM_MMFF94_PARTIAL_CHARGES>
38
1 1.49
10 -0.9
11 0.03
12 0.03
13 -0.01
14 -0.01
15 -0.18
16 -0.18
17 -0.15
18 -0.15
19 -0.15
2 1.49
20 -0.15
21 0.1
22 0.1
23 -0.15
24 -0.15
25 0.15
26 0.15
27 0.15
28 0.15
29 0.15
3 -0.68
30 0.15
31 0.15
32 0.15
33 0.4
34 0.4
35 0.4
36 0.4
37 0.5
38 0.5
4 -0.68
5 -0.65
6 -0.65
7 -0.65
8 -0.65
9 -0.9

> <PUBCHEM_EFFECTIVE_ROTOR_COUNT>
4

> <PUBCHEM_PHARMACOPHORE_FEATURES>
14
1 10 cation
1 10 donor
1 3 acceptor
1 4 acceptor
1 5 acceptor
1 6 acceptor
1 7 acceptor
1 8 acceptor
1 9 cation
1 9 donor
4 1 3 5 6 anion
4 2 4 7 8 anion
6 11 13 17 19 21 23 rings
6 12 14 18 20 22 24 rings

> <PUBCHEM_HEAVY_ATOM_COUNT>
24

> <PUBCHEM_ATOM_DEF_STEREO_COUNT>
0

> <PUBCHEM_ATOM_UDEF_STEREO_COUNT>
0

> <PUBCHEM_BOND_DEF_STEREO_COUNT>
0

> <PUBCHEM_BOND_UDEF_STEREO_COUNT>
1

> <PUBCHEM_ISOTOPIC_ATOM_COUNT>
0

> <PUBCHEM_COMPONENT_COUNT>
1

> <PUBCHEM_CACTVS_TAUTO_COUNT>
1

> <PUBCHEM_CONFORMER_ID>
00001A0C00000001

> <PUBCHEM_MMFF94_ENERGY>
78.7997

> <PUBCHEM_FEATURE_SELFOVERLAP>
71.155

> <PUBCHEM_SHAPE_FINGERPRINT>
10090160 65 18270404867030096094
10366900 7 18337948987447925288
10616163 171 18409164394159900671
10906281 52 18057304133394832141
11370993 70 18411983529252270210
11405975 8 18265330801240582249
11578080 2 17130727147800112326
12107183 9 17906453581815681640
12403260 363 18270685264455454896
12633257 1 18050002491301544416
12788726 201 18412832374019975643
13140716 1 17977944579425487137
13583140 156 17895490179729857312
14178342 30 18339369659967192224
14223421 5 18410854390776276750
14466204 15 18410018724044805552
14790565 3 18268702819717286644
15196674 1 18410574028101130601
15442244 35 18266738180667074418
17349148 13 17917149399018451644
17492 89 18336827597336540055
18681886 176 18337393717608607920
200 152 18334859377075056397
20645477 70 18408602569551610814
20691752 17 17203321277710812002
21267235 1 18339070506335099367
21673915 165 18412262822369464822
221490 88 18339071683552167130
22393880 68 18336254752115358294
23402539 116 18268998587626940887
23557571 272 18334569127332772373
23558518 356 18270669970002904993
23559900 14 18117845614668908042
23566358 2 18411140276731866773
2871803 45 18411417280637221982
33824 294 18411700959422954290
34934 24 18335703780704912495
350125 39 18410007766733198824
3545911 37 18412261696861225405
4214541 1 18338796826724050448
463206 1 18049161073376599199
474229 33 18337390414430090662
5104073 3 18339640147847516755
5283173 99 18201170918401702533
5486654 2 18265891354971458926
9709674 26 18411693305290196355

> <PUBCHEM_SHAPE_MULTIPOLES>
456.43
10.83
3.55
0.84
0.13
0.01
-0.02
0.08
0.07
-0.08
-0.06
0
0.01
0.2

> <PUBCHEM_SHAPE_SELFOVERLAP>
958.847

> <PUBCHEM_SHAPE_VOLUME>
257.2

> <PUBCHEM_COORDINATE_TYPE>
2
5
10

$$$$

