9791
  -OEChem-06261204043D

 46 49  0     1  0  0  0  0  0999 V2000
   -0.4516   -2.4446    0.6415 O   0  0  0  0  0  0  0  0  0  0  0  0
   -4.1454   -1.2539    1.0153 O   0  0  0  0  0  0  0  0  0  0  0  0
    5.5791    0.0764   -0.7741 O   0  0  0  0  0  0  0  0  0  0  0  0
   -0.6771    0.9622    0.0878 C   0  0  1  0  0  0  0  0  0  0  0  0
   -2.0306    1.0392   -0.6861 C   0  0  1  0  0  0  0  0  0  0  0  0
    0.1621   -0.2758   -0.2960 C   0  0  1  0  0  0  0  0  0  0  0  0
   -2.8178   -0.2937   -0.7918 C   0  0  1  0  0  0  0  0  0  0  0  0
    1.5691   -0.3448    0.4055 C   0  0  2  0  0  0  0  0  0  0  0  0
    0.1424    2.2412   -0.1798 C   0  0  0  0  0  0  0  0  0  0  0  0
   -1.9643   -1.5463   -0.9529 C   0  0  0  0  0  0  0  0  0  0  0  0
   -3.0223    1.9714    0.0415 C   0  0  0  0  0  0  0  0  0  0  0  0
   -0.7223   -1.5047   -0.1014 C   0  0  0  0  0  0  0  0  0  0  0  0
    2.2850    0.9984    0.2188 C   0  0  0  0  0  0  0  0  0  0  0  0
    1.4797    2.2313    0.5458 C   0  0  0  0  0  0  0  0  0  0  0  0
   -3.6084   -0.2749    0.5112 C   0  0  0  0  0  0  0  0  0  0  0  0
   -3.6754    1.1054    1.1154 C   0  0  0  0  0  0  0  0  0  0  0  0
    2.3908   -1.4806   -0.2712 C   0  0  0  0  0  0  0  0  0  0  0  0
   -3.8461   -0.2537   -1.9388 C   0  0  0  0  0  0  0  0  0  0  0  0
    1.4826   -0.6032    1.9286 C   0  0  0  0  0  0  0  0  0  0  0  0
    3.8805   -1.4101    0.0254 C   0  0  0  0  0  0  0  0  0  0  0  0
    3.5633    1.1241   -0.1750 C   0  0  0  0  0  0  0  0  0  0  0  0
    4.4267   -0.0634   -0.3697 C   0  0  0  0  0  0  0  0  0  0  0  0
   -0.8944    0.9107    1.1620 H   0  0  0  0  0  0  0  0  0  0  0  0
   -1.8291    1.4280   -1.6929 H   0  0  0  0  0  0  0  0  0  0  0  0
    0.3472   -0.2216   -1.3805 H   0  0  0  0  0  0  0  0  0  0  0  0
   -0.4139    3.1301    0.1358 H   0  0  0  0  0  0  0  0  0  0  0  0
    0.3181    2.3495   -1.2585 H   0  0  0  0  0  0  0  0  0  0  0  0
   -1.6290   -1.6620   -1.9911 H   0  0  0  0  0  0  0  0  0  0  0  0
   -2.5323   -2.4484   -0.6960 H   0  0  0  0  0  0  0  0  0  0  0  0
   -3.7845    2.3290   -0.6613 H   0  0  0  0  0  0  0  0  0  0  0  0
   -2.5603    2.8604    0.4785 H   0  0  0  0  0  0  0  0  0  0  0  0
    1.3106    2.2737    1.6287 H   0  0  0  0  0  0  0  0  0  0  0  0
    2.0279    3.1453    0.2858 H   0  0  0  0  0  0  0  0  0  0  0  0
   -4.7104    1.4035    1.2974 H   0  0  0  0  0  0  0  0  0  0  0  0
   -3.1021    1.1168    2.0463 H   0  0  0  0  0  0  0  0  0  0  0  0
    2.2616   -1.4269   -1.3615 H   0  0  0  0  0  0  0  0  0  0  0  0
    2.0201   -2.4662    0.0323 H   0  0  0  0  0  0  0  0  0  0  0  0
   -4.5827    0.5473   -1.8169 H   0  0  0  0  0  0  0  0  0  0  0  0
   -3.3500   -0.1099   -2.9050 H   0  0  0  0  0  0  0  0  0  0  0  0
   -4.4114   -1.1922   -1.9877 H   0  0  0  0  0  0  0  0  0  0  0  0
    0.7498    0.0454    2.4184 H   0  0  0  0  0  0  0  0  0  0  0  0
    1.2109   -1.6371    2.1594 H   0  0  0  0  0  0  0  0  0  0  0  0
    2.4458   -0.4220    2.4212 H   0  0  0  0  0  0  0  0  0  0  0  0
    4.3996   -2.1801   -0.5561 H   0  0  0  0  0  0  0  0  0  0  0  0
    4.0938   -1.5811    1.0853 H   0  0  0  0  0  0  0  0  0  0  0  0
    4.0310    2.0943   -0.3048 H   0  0  0  0  0  0  0  0  0  0  0  0
  1 12  2  0  0  0  0
  2 15  2  0  0  0  0
  3 22  2  0  0  0  0
  4  5  1  0  0  0  0
  4  6  1  0  0  0  0
  4  9  1  0  0  0  0
  4 23  1  0  0  0  0
  5  7  1  0  0  0  0
  5 11  1  0  0  0  0
  5 24  1  0  0  0  0
  6  8  1  0  0  0  0
  6 12  1  0  0  0  0
  6 25  1  0  0  0  0
  7 10  1  0  0  0  0
  7 15  1  0  0  0  0
  7 18  1  0  0  0  0
  8 13  1  0  0  0  0
  8 17  1  0  0  0  0
  8 19  1  0  0  0  0
  9 14  1  0  0  0  0
  9 26  1  0  0  0  0
  9 27  1  0  0  0  0
 10 12  1  0  0  0  0
 10 28  1  0  0  0  0
 10 29  1  0  0  0  0
 11 16  1  0  0  0  0
 11 30  1  0  0  0  0
 11 31  1  0  0  0  0
 13 14  1  0  0  0  0
 13 21  2  0  0  0  0
 14 32  1  0  0  0  0
 14 33  1  0  0  0  0
 15 16  1  0  0  0  0
 16 34  1  0  0  0  0
 16 35  1  0  0  0  0
 17 20  1  0  0  0  0
 17 36  1  0  0  0  0
 17 37  1  0  0  0  0
 18 38  1  0  0  0  0
 18 39  1  0  0  0  0
 18 40  1  0  0  0  0
 19 41  1  0  0  0  0
 19 42  1  0  0  0  0
 19 43  1  0  0  0  0
 20 22  1  0  0  0  0
 20 44  1  0  0  0  0
 20 45  1  0  0  0  0
 21 22  1  0  0  0  0
 21 46  1  0  0  0  0
M  END
> <PUBCHEM_COMPOUND_CID>
9791

> <PUBCHEM_CONFORMER_RMSD>
0.6

> <PUBCHEM_CONFORMER_DIVERSEORDER>
2
43
1
42
47
49
53
54
46
44
27
15
23
20
29
19
9
51
52
31
50
6
11
24
37
16
35
10
32
4
12
36
5
40
25
17
8
22
7
18
38
45
21
26
39
28
48
30
34
14
13
41
33
3

> <PUBCHEM_MMFF94_PARTIAL_CHARGES>
16
1 -0.57
10 0.06
12 0.45
13 -0.28
14 0.14
15 0.45
16 0.06
2 -0.57
20 0.06
21 -0.14
22 0.49
3 -0.57
46 0.15
6 0.06
7 0.06
8 0.14

> <PUBCHEM_EFFECTIVE_ROTOR_COUNT>
1.4

> <PUBCHEM_PHARMACOPHORE_FEATURES>
7
1 1 acceptor
1 2 acceptor
1 3 acceptor
5 5 7 11 15 16 rings
6 4 5 6 7 10 12 rings
6 4 6 8 9 13 14 rings
6 8 13 17 20 21 22 rings

> <PUBCHEM_HEAVY_ATOM_COUNT>
22

> <PUBCHEM_ATOM_DEF_STEREO_COUNT>
0

> <PUBCHEM_ATOM_UDEF_STEREO_COUNT>
5

> <PUBCHEM_BOND_DEF_STEREO_COUNT>
0

> <PUBCHEM_BOND_UDEF_STEREO_COUNT>
0

> <PUBCHEM_ISOTOPIC_ATOM_COUNT>
0

> <PUBCHEM_COMPONENT_COUNT>
1

> <PUBCHEM_CACTVS_TAUTO_COUNT>
30

> <PUBCHEM_CONFORMER_ID>
0000263F00000002

> <PUBCHEM_MMFF94_ENERGY>
59.0033

> <PUBCHEM_FEATURE_SELFOVERLAP>
35.73

> <PUBCHEM_SHAPE_FINGERPRINT>
10062212 137 18114468936833916775
10366900 7 17560802087430105011
10498660 4 17917724503808377405
10967382 1 18410295796093760292
11132069 177 18334870432289331792
11578080 2 17024596568854033954
12011746 2 18343302552956318455
121448 382 16702018651724717122
12236239 1 17749390330785515189
12403814 3 17917430959857708757
12553582 1 18409174307134414736
12788726 201 17896307194722077568
128620 24 14979952579545535824
13140716 1 17834964065911927473
13221675 6 18412548690934273448
13224815 77 17917997195471413737
13583140 156 16559038181229199864
14713325 29 16049251578412786092
14787075 74 17845923031486568360
14790565 3 18265323096317965384
15196674 1 18410572924663813692
15209289 33 18410289203192347529
15309172 13 18408605855459658639
15536298 74 18187371982705660448
16752209 62 18265915681508260149
16945 1 18263376810417513085
18186145 218 18060421343406652558
19591789 44 18412542124014011802
19862831 5 18341908375927004396
200 152 17603303743867136126
20028762 73 18115025182993307679
21029758 27 18343014480377351229
21267235 1 18409157805933289206
2334 1 18410865373076497109
23402539 116 18335142029126007420
23493267 7 17346609603004306361
23559900 14 18189628159180873032
2748010 2 18340505433613568517
296302 2 14562535067956702784
335352 9 18192713573111867108
350125 39 18410005529672740961
474 4 17560512899045837868
5104073 3 18410294752654098056
633830 44 18339078314607015655
7364860 26 18116162069109345328
90525 40 18113341933442193703
9709674 26 18191595137952909302
9981440 41 17179424186771139000

> <PUBCHEM_SHAPE_MULTIPOLES>
435.14
8.52
2.23
1.23
4.01
0.32
0.1
-0.44
-1.26
-0.2
0.17
-0.79
-0.22
-0.23

> <PUBCHEM_SHAPE_SELFOVERLAP>
946.452

> <PUBCHEM_SHAPE_VOLUME>
234.6

> <PUBCHEM_COORDINATE_TYPE>
2
5
10

$$$$

