4422
  -OEChem-06261200063D

 50 55  0     1  0  0  0  0  0999 V2000
    2.3157    0.3402   -1.6617 O   0  0  0  0  0  0  0  0  0  0  0  0
   -1.4613    2.1279    0.2542 O   0  0  0  0  0  0  0  0  0  0  0  0
    4.2862   -1.7856   -1.2725 O   0  0  0  0  0  0  0  0  0  0  0  0
   -2.2731   -0.6678    0.5403 N   0  0  2  0  0  0  0  0  0  0  0  0
    0.2359    0.5206   -0.4546 C   0  0  2  0  0  0  0  0  0  0  0  0
   -0.5096    1.1632    0.7218 C   0  0  2  0  0  0  0  0  0  0  0  0
   -1.2880    0.0048    1.4314 C   0  0  2  0  0  0  0  0  0  0  0  0
    1.3541    1.3366   -1.1478 C   0  0  1  0  0  0  0  0  0  0  0  0
   -0.7963   -0.0643   -1.4488 C   0  0  0  0  0  0  0  0  0  0  0  0
    1.1061   -0.5865    0.0383 C   0  0  0  0  0  0  0  0  0  0  0  0
    0.4404    1.9426    1.6515 C   0  0  0  0  0  0  0  0  0  0  0  0
   -0.3234   -1.0929    2.0083 C   0  0  0  0  0  0  0  0  0  0  0  0
   -1.7455   -1.0706   -0.7709 C   0  0  0  0  0  0  0  0  0  0  0  0
    0.8650   -1.3960    1.1328 C   0  0  0  0  0  0  0  0  0  0  0  0
    1.2662    2.9714    0.8663 C   0  0  0  0  0  0  0  0  0  0  0  0
   -3.5431    0.0408    0.4175 C   0  0  0  0  0  0  0  0  0  0  0  0
    2.0771    2.3287   -0.2332 C   0  0  0  0  0  0  0  0  0  0  0  0
   -4.5864   -0.8071   -0.2805 C   0  0  0  0  0  0  0  0  0  0  0  0
    2.2429   -0.6781   -0.7384 C   0  0  0  0  0  0  0  0  0  0  0  0
   -5.9401   -0.2295   -0.4814 C   0  0  0  0  0  0  0  0  0  0  0  0
   -5.0129   -0.4109   -1.6472 C   0  0  0  0  0  0  0  0  0  0  0  0
    1.8013   -2.3968    1.3903 C   0  0  0  0  0  0  0  0  0  0  0  0
    3.1702   -1.6688   -0.5131 C   0  0  0  0  0  0  0  0  0  0  0  0
    3.3830    2.6184   -0.3635 C   0  0  0  0  0  0  0  0  0  0  0  0
    2.9356   -2.5403    0.5610 C   0  0  0  0  0  0  0  0  0  0  0  0
   -1.8424    0.4116    2.2879 H   0  0  0  0  0  0  0  0  0  0  0  0
    0.9507    1.8896   -2.0050 H   0  0  0  0  0  0  0  0  0  0  0  0
   -0.2980   -0.5681   -2.2875 H   0  0  0  0  0  0  0  0  0  0  0  0
   -1.3863    0.7491   -1.8896 H   0  0  0  0  0  0  0  0  0  0  0  0
    1.1239    1.2766    2.1896 H   0  0  0  0  0  0  0  0  0  0  0  0
   -0.1402    2.4782    2.4133 H   0  0  0  0  0  0  0  0  0  0  0  0
   -0.8789   -2.0171    2.2121 H   0  0  0  0  0  0  0  0  0  0  0  0
    0.0584   -0.7366    2.9738 H   0  0  0  0  0  0  0  0  0  0  0  0
   -2.5204   -1.3552   -1.4889 H   0  0  0  0  0  0  0  0  0  0  0  0
   -1.1990   -2.0108   -0.6219 H   0  0  0  0  0  0  0  0  0  0  0  0
   -3.9312    0.2603    1.4198 H   0  0  0  0  0  0  0  0  0  0  0  0
   -3.4430    0.9958   -0.1053 H   0  0  0  0  0  0  0  0  0  0  0  0
    1.9111    3.5106    1.5711 H   0  0  0  0  0  0  0  0  0  0  0  0
    0.6017    3.7207    0.4187 H   0  0  0  0  0  0  0  0  0  0  0  0
   -4.5492   -1.8564   -0.0137 H   0  0  0  0  0  0  0  0  0  0  0  0
   -1.9443    2.4708    1.0255 H   0  0  0  0  0  0  0  0  0  0  0  0
   -6.1331    0.7817   -0.1447 H   0  0  0  0  0  0  0  0  0  0  0  0
   -6.7921   -0.8943   -0.4086 H   0  0  0  0  0  0  0  0  0  0  0  0
   -5.2397   -1.2003   -2.3536 H   0  0  0  0  0  0  0  0  0  0  0  0
   -4.5927    0.4793   -2.0986 H   0  0  0  0  0  0  0  0  0  0  0  0
    1.6725   -3.0653    2.2373 H   0  0  0  0  0  0  0  0  0  0  0  0
    3.9932    2.1758   -1.1431 H   0  0  0  0  0  0  0  0  0  0  0  0
    3.8747    3.3187    0.3039 H   0  0  0  0  0  0  0  0  0  0  0  0
    3.6515   -3.3290    0.7821 H   0  0  0  0  0  0  0  0  0  0  0  0
    4.2698   -1.0873   -1.9500 H   0  0  0  0  0  0  0  0  0  0  0  0
  1  8  1  0  0  0  0
  1 19  1  0  0  0  0
  2  6  1  0  0  0  0
  2 41  1  0  0  0  0
  3 23  1  0  0  0  0
  3 50  1  0  0  0  0
  4  7  1  0  0  0  0
  4 13  1  0  0  0  0
  4 16  1  0  0  0  0
  5  6  1  0  0  0  0
  5  8  1  0  0  0  0
  5  9  1  0  0  0  0
  5 10  1  0  0  0  0
  6  7  1  0  0  0  0
  6 11  1  0  0  0  0
  7 12  1  0  0  0  0
  7 26  1  0  0  0  0
  8 17  1  0  0  0  0
  8 27  1  0  0  0  0
  9 13  1  0  0  0  0
  9 28  1  0  0  0  0
  9 29  1  0  0  0  0
 10 14  2  0  0  0  0
 10 19  1  0  0  0  0
 11 15  1  0  0  0  0
 11 30  1  0  0  0  0
 11 31  1  0  0  0  0
 12 14  1  0  0  0  0
 12 32  1  0  0  0  0
 12 33  1  0  0  0  0
 13 34  1  0  0  0  0
 13 35  1  0  0  0  0
 14 22  1  0  0  0  0
 15 17  1  0  0  0  0
 15 38  1  0  0  0  0
 15 39  1  0  0  0  0
 16 18  1  0  0  0  0
 16 36  1  0  0  0  0
 16 37  1  0  0  0  0
 17 24  2  0  0  0  0
 18 20  1  0  0  0  0
 18 21  1  0  0  0  0
 18 40  1  0  0  0  0
 19 23  2  0  0  0  0
 20 21  1  0  0  0  0
 20 42  1  0  0  0  0
 20 43  1  0  0  0  0
 21 44  1  0  0  0  0
 21 45  1  0  0  0  0
 22 25  2  0  0  0  0
 22 46  1  0  0  0  0
 23 25  1  0  0  0  0
 24 47  1  0  0  0  0
 24 48  1  0  0  0  0
 25 49  1  0  0  0  0
M  END
> <PUBCHEM_COMPOUND_CID>
4422

> <PUBCHEM_CONFORMER_RMSD>
0.8

> <PUBCHEM_CONFORMER_DIVERSEORDER>
1
14
12
2
11
4
10
7
8
6
13
9
3
5

> <PUBCHEM_MMFF94_PARTIAL_CHARGES>
34
1 -0.36
10 -0.14
12 0.14
13 0.27
14 -0.14
15 0.14
16 0.37
17 -0.28
18 -0.19
19 0.08
2 -0.68
20 -0.2
21 -0.2
22 -0.15
23 0.08
24 -0.3
25 -0.15
3 -0.53
4 -0.81
40 0.1
41 0.4
42 0.1
43 0.1
44 0.1
45 0.1
46 0.15
47 0.15
48 0.15
49 0.15
5 0.14
50 0.45
6 0.28
7 0.27
8 0.42

> <PUBCHEM_EFFECTIVE_ROTOR_COUNT>
4

> <PUBCHEM_PHARMACOPHORE_FEATURES>
10
1 1 acceptor
1 2 acceptor
1 2 donor
1 3 donor
1 4 cation
5 1 5 8 10 19 rings
6 10 14 19 22 23 25 rings
6 4 5 6 7 9 13 rings
6 5 6 7 10 12 14 rings
6 5 6 8 11 15 17 rings

> <PUBCHEM_HEAVY_ATOM_COUNT>
25

> <PUBCHEM_ATOM_DEF_STEREO_COUNT>
0

> <PUBCHEM_ATOM_UDEF_STEREO_COUNT>
4

> <PUBCHEM_BOND_DEF_STEREO_COUNT>
0

> <PUBCHEM_BOND_UDEF_STEREO_COUNT>
0

> <PUBCHEM_ISOTOPIC_ATOM_COUNT>
0

> <PUBCHEM_COMPONENT_COUNT>
1

> <PUBCHEM_CACTVS_TAUTO_COUNT>
3

> <PUBCHEM_CONFORMER_ID>
0000114600000001

> <PUBCHEM_MMFF94_ENERGY>
96.8263

> <PUBCHEM_FEATURE_SELFOVERLAP>
52.881

> <PUBCHEM_SHAPE_FINGERPRINT>
10764073 3 14612427692626078744
10863032 1 18191015716768402051
10948715 1 17912086044882908536
11578080 2 17773013290267588725
12011746 2 18343297042808670248
12730499 353 18197494035485353739
13009979 54 17168968106221369595
13134695 92 18408890641861468277
13583140 156 18192428568257614215
14787075 74 18410283719125901848
15210252 30 15697997487487287047
15238133 3 16588294021919669523
16945 1 18058708282847389882
17349148 13 16950567675422422783
1813 80 18114751545640211342
18186145 218 17846775200796596755
200 152 18270113642504321902
20626108 58 17603876593804622767
20645477 70 18409166580746790279
20691752 17 17988920106595384753
20775438 99 18121802546823287743
21421861 104 18412273834475883449
22112679 90 17971169637930941649
23419403 2 17909311079624633800
23559900 14 18201996586418140780
238 59 18267572525082167778
25147074 1 18041263444547126537
2748010 2 17699255825705121610
3323516 105 17632298995041867767
34934 24 17969504809923042741
4340502 62 18199467671452028035
465052 167 14057010416125918038
495365 180 18272655597528741435
54040823 5 17822849767229937101
5895379 119 17169254026995907161
7364860 26 18410013212899442770
7471813 234 18334297612300441768

> <PUBCHEM_SHAPE_MULTIPOLES>
491.9
7.74
2.91
1.66
12.24
0.96
-0.18
-2.16
3.5
-3.92
-0.74
-0.09
-0.18
-0.2

> <PUBCHEM_SHAPE_SELFOVERLAP>
1106.928

> <PUBCHEM_SHAPE_VOLUME>
256.2

> <PUBCHEM_COORDINATE_TYPE>
2
5
10

$$$$

