21125501
  -OEChem-07051213093D

 61 64  0     1  0  0  0  0  0999 V2000
   -0.4804   -2.7414    0.7232 O   0  0  0  0  0  0  0  0  0  0  0  0
   -0.3544    2.6800    0.2428 O   0  0  0  0  0  0  0  0  0  0  0  0
   -3.6455    0.6253   -1.6739 O   0  0  0  0  0  0  0  0  0  0  0  0
   -3.1208    2.7813   -0.0572 O   0  0  0  0  0  0  0  0  0  0  0  0
    1.5985    1.6200    1.4951 O   0  0  0  0  0  0  0  0  0  0  0  0
    4.3491    1.7889    1.1631 O   0  0  0  0  0  0  0  0  0  0  0  0
   -1.7805   -3.4365    2.4201 O   0  0  0  0  0  0  0  0  0  0  0  0
   -1.1276   -0.9167   -0.8609 C   0  0  2  0  0  0  0  0  0  0  0  0
   -0.2895    0.2300   -0.1729 C   0  0  1  0  0  0  0  0  0  0  0  0
    1.2662    0.2019   -0.4968 C   0  0  1  0  0  0  0  0  0  0  0  0
   -2.5569   -0.9781   -0.2130 C   0  0  2  0  0  0  0  0  0  0  0  0
   -0.4672   -2.2923   -0.6488 C   0  0  1  0  0  0  0  0  0  0  0  0
    1.8335   -1.2596   -0.3543 C   0  0  1  0  0  0  0  0  0  0  0  0
   -1.0393    1.5911   -0.3706 C   0  0  1  0  0  0  0  0  0  0  0  0
   -3.3240    0.3809   -0.2974 C   0  0  1  0  0  0  0  0  0  0  0  0
    1.0005   -2.3194   -1.0875 C   0  0  0  0  0  0  0  0  0  0  0  0
   -2.4575    1.5450    0.2282 C   0  0  2  0  0  0  0  0  0  0  0  0
   -1.2829   -0.7353   -2.4003 C   0  0  0  0  0  0  0  0  0  0  0  0
   -2.4993   -1.5005    1.2291 C   0  0  0  0  0  0  0  0  0  0  0  0
    3.3432   -1.3344   -0.7341 C   0  0  1  0  0  0  0  0  0  0  0  0
    1.5723    0.8556   -1.8613 C   0  0  0  0  0  0  0  0  0  0  0  0
    2.0927    0.9565    0.5866 C   0  0  0  0  0  0  0  0  0  0  0  0
   -4.6787    0.3408    0.4294 C   0  0  0  0  0  0  0  0  0  0  0  0
   -1.5916   -2.6685    1.4798 C   0  0  0  0  0  0  0  0  0  0  0  0
    4.1279   -0.2131   -0.0928 C   0  0  0  0  0  0  0  0  0  0  0  0
    3.5795    0.8336    0.5396 C   0  0  0  0  0  0  0  0  0  0  0  0
    3.9772   -2.6720   -0.3295 C   0  0  0  0  0  0  0  0  0  0  0  0
   -2.7169    3.7981    0.8438 C   0  0  0  0  0  0  0  0  0  0  0  0
    4.6726    2.8389    0.2704 C   0  0  0  0  0  0  0  0  0  0  0  0
   -0.3226    0.0411    0.9101 H   0  0  0  0  0  0  0  0  0  0  0  0
   -3.1322   -1.7219   -0.7856 H   0  0  0  0  0  0  0  0  0  0  0  0
   -1.0034   -3.0612   -1.2212 H   0  0  0  0  0  0  0  0  0  0  0  0
    1.7732   -1.5182    0.7163 H   0  0  0  0  0  0  0  0  0  0  0  0
   -1.1013    1.8613   -1.4275 H   0  0  0  0  0  0  0  0  0  0  0  0
    1.1049   -2.2024   -2.1699 H   0  0  0  0  0  0  0  0  0  0  0  0
    1.3933   -3.3149   -0.8500 H   0  0  0  0  0  0  0  0  0  0  0  0
   -2.3763    1.4307    1.3176 H   0  0  0  0  0  0  0  0  0  0  0  0
   -0.3896   -1.0099   -2.9612 H   0  0  0  0  0  0  0  0  0  0  0  0
   -2.0769   -1.3863   -2.7866 H   0  0  0  0  0  0  0  0  0  0  0  0
   -1.5242    0.2842   -2.7026 H   0  0  0  0  0  0  0  0  0  0  0  0
   -3.5048   -1.8258    1.5234 H   0  0  0  0  0  0  0  0  0  0  0  0
   -2.1933   -0.7175    1.9303 H   0  0  0  0  0  0  0  0  0  0  0  0
    3.4522   -1.2360   -1.8218 H   0  0  0  0  0  0  0  0  0  0  0  0
    1.2235    0.2545   -2.7002 H   0  0  0  0  0  0  0  0  0  0  0  0
    1.1198    1.8487   -1.9413 H   0  0  0  0  0  0  0  0  0  0  0  0
    2.6414    1.0193   -2.0289 H   0  0  0  0  0  0  0  0  0  0  0  0
   -5.2789    1.2264    0.1904 H   0  0  0  0  0  0  0  0  0  0  0  0
   -5.2687   -0.5237    0.1037 H   0  0  0  0  0  0  0  0  0  0  0  0
   -4.5652    0.2947    1.5168 H   0  0  0  0  0  0  0  0  0  0  0  0
    5.2129   -0.2758   -0.1463 H   0  0  0  0  0  0  0  0  0  0  0  0
   -0.2489    2.4698    1.1863 H   0  0  0  0  0  0  0  0  0  0  0  0
   -4.2039   -0.1062   -1.9886 H   0  0  0  0  0  0  0  0  0  0  0  0
    3.8225   -2.8831    0.7345 H   0  0  0  0  0  0  0  0  0  0  0  0
    3.5612   -3.5026   -0.9072 H   0  0  0  0  0  0  0  0  0  0  0  0
    5.0575   -2.6706   -0.5163 H   0  0  0  0  0  0  0  0  0  0  0  0
   -3.5696    4.4733    0.9709 H   0  0  0  0  0  0  0  0  0  0  0  0
   -1.9156    4.4019    0.4103 H   0  0  0  0  0  0  0  0  0  0  0  0
   -2.4450    3.4329    1.8393 H   0  0  0  0  0  0  0  0  0  0  0  0
    5.2625    3.5813    0.8161 H   0  0  0  0  0  0  0  0  0  0  0  0
    3.7692    3.3332   -0.1043 H   0  0  0  0  0  0  0  0  0  0  0  0
    5.2777    2.4760   -0.5678 H   0  0  0  0  0  0  0  0  0  0  0  0
  1 12  1  0  0  0  0
  1 24  1  0  0  0  0
  2 14  1  0  0  0  0
  2 51  1  0  0  0  0
  3 15  1  0  0  0  0
  3 52  1  0  0  0  0
  4 17  1  0  0  0  0
  4 28  1  0  0  0  0
  5 22  2  0  0  0  0
  6 26  1  0  0  0  0
  6 29  1  0  0  0  0
  7 24  2  0  0  0  0
  8  9  1  0  0  0  0
  8 11  1  0  0  0  0
  8 12  1  0  0  0  0
  8 18  1  0  0  0  0
  9 10  1  0  0  0  0
  9 14  1  0  0  0  0
  9 30  1  0  0  0  0
 10 13  1  0  0  0  0
 10 21  1  0  0  0  0
 10 22  1  0  0  0  0
 11 15  1  0  0  0  0
 11 19  1  0  0  0  0
 11 31  1  0  0  0  0
 12 16  1  0  0  0  0
 12 32  1  0  0  0  0
 13 16  1  0  0  0  0
 13 20  1  0  0  0  0
 13 33  1  0  0  0  0
 14 17  1  0  0  0  0
 14 34  1  0  0  0  0
 15 17  1  0  0  0  0
 15 23  1  0  0  0  0
 16 35  1  0  0  0  0
 16 36  1  0  0  0  0
 17 37  1  0  0  0  0
 18 38  1  0  0  0  0
 18 39  1  0  0  0  0
 18 40  1  0  0  0  0
 19 24  1  0  0  0  0
 19 41  1  0  0  0  0
 19 42  1  0  0  0  0
 20 25  1  0  0  0  0
 20 27  1  0  0  0  0
 20 43  1  0  0  0  0
 21 44  1  0  0  0  0
 21 45  1  0  0  0  0
 21 46  1  0  0  0  0
 22 26  1  0  0  0  0
 23 47  1  0  0  0  0
 23 48  1  0  0  0  0
 23 49  1  0  0  0  0
 25 26  2  0  0  0  0
 25 50  1  0  0  0  0
 27 53  1  0  0  0  0
 27 54  1  0  0  0  0
 27 55  1  0  0  0  0
 28 56  1  0  0  0  0
 28 57  1  0  0  0  0
 28 58  1  0  0  0  0
 29 59  1  0  0  0  0
 29 60  1  0  0  0  0
 29 61  1  0  0  0  0
M  END
> <PUBCHEM_COMPOUND_CID>
21125501

> <PUBCHEM_CONFORMER_RMSD>
0.8

> <PUBCHEM_CONFORMER_DIVERSEORDER>
1

> <PUBCHEM_MMFF94_PARTIAL_CHARGES>
23
1 -0.43
10 0.06
12 0.28
14 0.28
15 0.28
17 0.28
19 0.06
2 -0.68
20 0.14
22 0.49
24 0.66
25 -0.29
26 0.09
28 0.28
29 0.28
3 -0.68
4 -0.56
5 -0.57
50 0.15
51 0.4
52 0.4
6 -0.36
7 -0.57

> <PUBCHEM_EFFECTIVE_ROTOR_COUNT>
3.4

> <PUBCHEM_PHARMACOPHORE_FEATURES>
12
1 2 acceptor
1 2 donor
1 3 acceptor
1 3 donor
1 4 acceptor
1 5 acceptor
1 6 acceptor
1 7 acceptor
6 1 8 11 12 19 24 rings
6 10 13 20 22 25 26 rings
6 8 9 10 12 13 16 rings
6 8 9 11 14 15 17 rings

> <PUBCHEM_HEAVY_ATOM_COUNT>
29

> <PUBCHEM_ATOM_DEF_STEREO_COUNT>
10

> <PUBCHEM_ATOM_UDEF_STEREO_COUNT>
0

> <PUBCHEM_BOND_DEF_STEREO_COUNT>
0

> <PUBCHEM_BOND_UDEF_STEREO_COUNT>
0

> <PUBCHEM_ISOTOPIC_ATOM_COUNT>
0

> <PUBCHEM_COMPONENT_COUNT>
1

> <PUBCHEM_CACTVS_TAUTO_COUNT>
3

> <PUBCHEM_CONFORMER_ID>
0142597D00000001

> <PUBCHEM_MMFF94_ENERGY>
134.1181

> <PUBCHEM_FEATURE_SELFOVERLAP>
61.099

> <PUBCHEM_SHAPE_FINGERPRINT>
10366900 7 18189343385289341024
10863032 1 18408324397362240894
10906281 52 18337097965875787989
10948715 1 18335423512196721959
1100329 8 17330832938185256835
11370993 70 18411987991543838652
11640471 11 15575531657439918811
12035758 1 18198610052804441083
12403260 363 18189349015890849630
12553582 1 17621017786349816342
12633257 1 18052824938019278336
12788726 201 18337687325345612625
13140716 1 17976820878616285793
13224815 77 18335984177549353796
14178342 30 18059294267043086154
14223421 5 18337948983406178282
14363568 33 16972501557310959977
14466204 15 17904488746458743802
14787075 74 18338527348160658063
15209289 33 18195807598769287278
15295992 7 18335410305135759954
15420108 30 15806637225140876952
16945 1 17835509428111681351
19049666 15 18410006641789786762
19591789 44 18262240048332585780
20600515 1 17488743355184113239
20691752 17 18200032996116325125
20905425 154 17758956309110902493
21033648 29 17917157194521393965
21421861 104 16973633517463967800
23419403 2 17173439794072796102
23558518 356 18410569630308229877
23559900 14 18410293636274038070
2748010 2 18336815399507762654
335352 9 17901385920118142796
3380486 145 18122052114487508299
350125 39 18263638622860161804
35225 105 17059754681496967963
392239 28 18268697467897125771
4340502 62 18273215318289202839
469060 322 17612039178766114122
5104073 3 18264207078956129088
5939293 188 16966046891849260829
6004065 56 18118130178338839229
9709674 26 18408322202934619982
9981440 41 18262536800877409090

> <PUBCHEM_SHAPE_MULTIPOLES>
555.72
7.7
4
1.6
3.74
0.72
-0.11
3.34
0.95
-0.37
1.65
-0.64
-0.8
1.32

> <PUBCHEM_SHAPE_SELFOVERLAP>
1189.871

> <PUBCHEM_SHAPE_VOLUME>
300.9

> <PUBCHEM_COORDINATE_TYPE>
2
5
10

$$$$

