92763
  -OEChem-07051213112D

 72 75  0     1  0  0  0  0  0999 V2000
    9.8779   -1.1103    0.0000 O   0  0  0  0  0  0  0  0  0  0  0  0
    8.9077   -2.5451    0.0000 O   0  0  0  0  0  0  0  0  0  0  0  0
   12.3631   -2.7907    0.0000 O   0  0  0  0  0  0  0  0  0  0  0  0
   12.5049   -0.7957    0.0000 O   0  0  0  0  0  0  0  0  0  0  0  0
   10.5645   -3.6654    0.0000 O   0  0  0  0  0  0  0  0  0  0  0  0
   11.7473    0.7619    0.0000 O   0  0  0  0  0  0  0  0  0  0  0  0
    5.3788   -2.2670    0.0000 O   0  0  0  0  0  0  0  0  0  0  0  0
    7.0622   -3.4338    0.0000 O   0  0  0  0  0  0  0  0  0  0  0  0
    2.2948   -0.5859    0.0000 O   0  0  0  0  0  0  0  0  0  0  0  0
    2.7031    1.2145    0.0000 O   0  0  0  0  0  0  0  0  0  0  0  0
    7.0052    3.0370    0.0000 O   0  0  0  0  0  0  0  0  0  0  0  0
    5.4447    2.2855    0.0000 N   0  0  0  0  0  0  0  0  0  0  0  0
   11.5347   -2.2306    0.0000 C   0  0  1  0  0  0  0  0  0  0  0  0
   11.6056   -1.2331    0.0000 C   0  0  1  0  0  0  0  0  0  0  0  0
   10.6354   -2.6679    0.0000 C   0  0  2  0  0  0  0  0  0  0  0  0
   10.7772   -0.6729    0.0000 C   0  0  1  0  0  0  0  0  0  0  0  0
    9.8070   -2.1078    0.0000 C   0  0  1  0  0  0  0  0  0  0  0  0
    5.8786    1.3845    0.0000 C   0  0  1  0  0  0  0  0  0  0  0  0
    6.8786    1.3845    0.0000 C   0  0  0  0  0  0  0  0  0  0  0  0
    7.5021    0.6027    0.0000 C   0  0  0  0  0  0  0  0  0  0  0  0
    7.2796   -0.3723    0.0000 C   0  0  0  0  0  0  0  0  0  0  0  0
   10.8481    0.3246    0.0000 C   0  0  0  0  0  0  0  0  0  0  0  0
    6.3786   -0.8062    0.0000 C   0  0  0  0  0  0  0  0  0  0  0  0
    5.2551    0.6027    0.0000 C   0  0  0  0  0  0  0  0  0  0  0  0
    5.4776   -0.3723    0.0000 C   0  0  0  0  0  0  0  0  0  0  0  0
    8.0793   -1.9850    0.0000 C   0  0  0  0  0  0  0  0  0  0  0  0
    8.1491   -0.9457    0.0000 C   0  0  0  0  0  0  0  0  0  0  0  0
    6.2847   -1.8436    0.0000 C   0  0  0  0  0  0  0  0  0  0  0  0
    7.1408   -2.4369    0.0000 C   0  0  0  0  0  0  0  0  0  0  0  0
    4.3686    1.0223    0.0000 C   0  0  0  0  0  0  0  0  0  0  0  0
    4.8610   -1.1349    0.0000 C   0  0  0  0  0  0  0  0  0  0  0  0
    3.4866    0.5931    0.0000 C   0  0  0  0  0  0  0  0  0  0  0  0
    3.8802   -1.1310    0.0000 C   0  0  0  0  0  0  0  0  0  0  0  0
    6.0080    3.1117    0.0000 C   0  0  0  0  0  0  0  0  0  0  0  0
    3.2697   -0.3634    0.0000 C   0  0  0  0  0  0  0  0  0  0  0  0
    5.2926   -3.2633    0.0000 C   0  0  0  0  0  0  0  0  0  0  0  0
    5.5741    4.0127    0.0000 C   0  0  0  0  0  0  0  0  0  0  0  0
    7.8863   -4.0004    0.0000 C   0  0  0  0  0  0  0  0  0  0  0  0
    2.0000   -1.5414    0.0000 C   0  0  0  0  0  0  0  0  0  0  0  0
   11.4907   -2.8490    0.0000 H   0  0  0  0  0  0  0  0  0  0  0  0
   11.6495   -0.6146    0.0000 H   0  0  0  0  0  0  0  0  0  0  0  0
   11.1490   -3.0152    0.0000 H   0  0  0  0  0  0  0  0  0  0  0  0
   10.2636   -0.3256    0.0000 H   0  0  0  0  0  0  0  0  0  0  0  0
    9.7630   -2.7262    0.0000 H   0  0  0  0  0  0  0  0  0  0  0  0
    6.2084    1.9095    0.0000 H   0  0  0  0  0  0  0  0  0  0  0  0
    7.4372    1.6535    0.0000 H   0  0  0  0  0  0  0  0  0  0  0  0
    6.7406    1.9889    0.0000 H   0  0  0  0  0  0  0  0  0  0  0  0
    8.0607    0.3336    0.0000 H   0  0  0  0  0  0  0  0  0  0  0  0
    7.8886    1.0874    0.0000 H   0  0  0  0  0  0  0  0  0  0  0  0
   10.6778    0.9207    0.0000 H   0  0  0  0  0  0  0  0  0  0  0  0
   10.2314    0.2604    0.0000 H   0  0  0  0  0  0  0  0  0  0  0  0
    8.7046   -0.6703    0.0000 H   0  0  0  0  0  0  0  0  0  0  0  0
   12.9206   -2.5195    0.0000 H   0  0  0  0  0  0  0  0  0  0  0  0
   13.0185   -1.1430    0.0000 H   0  0  0  0  0  0  0  0  0  0  0  0
   11.0781   -4.0127    0.0000 H   0  0  0  0  0  0  0  0  0  0  0  0
    4.8264    2.3318    0.0000 H   0  0  0  0  0  0  0  0  0  0  0  0
    4.3652    1.6422    0.0000 H   0  0  0  0  0  0  0  0  0  0  0  0
    5.1270   -1.6950    0.0000 H   0  0  0  0  0  0  0  0  0  0  0  0
   11.7913    1.3804    0.0000 H   0  0  0  0  0  0  0  0  0  0  0  0
    3.6097   -1.6889    0.0000 H   0  0  0  0  0  0  0  0  0  0  0  0
    4.6749   -3.2098    0.0000 H   0  0  0  0  0  0  0  0  0  0  0  0
    5.2391   -3.8810    0.0000 H   0  0  0  0  0  0  0  0  0  0  0  0
    5.9102   -3.3167    0.0000 H   0  0  0  0  0  0  0  0  0  0  0  0
    6.1327    4.2817    0.0000 H   0  0  0  0  0  0  0  0  0  0  0  0
    5.3051    4.5713    0.0000 H   0  0  0  0  0  0  0  0  0  0  0  0
    5.0155    3.7437    0.0000 H   0  0  0  0  0  0  0  0  0  0  0  0
    7.5351   -4.5113    0.0000 H   0  0  0  0  0  0  0  0  0  0  0  0
    8.3972   -4.3516    0.0000 H   0  0  0  0  0  0  0  0  0  0  0  0
    8.2375   -3.4894    0.0000 H   0  0  0  0  0  0  0  0  0  0  0  0
    1.4075   -1.3587    0.0000 H   0  0  0  0  0  0  0  0  0  0  0  0
    1.8172   -2.1339    0.0000 H   0  0  0  0  0  0  0  0  0  0  0  0
    2.5925   -1.7242    0.0000 H   0  0  0  0  0  0  0  0  0  0  0  0
  1 16  1  0  0  0  0
  1 17  1  0  0  0  0
 17  2  1  6  0  0  0
  2 26  1  0  0  0  0
 13  3  1  6  0  0  0
  3 53  1  0  0  0  0
 14  4  1  1  0  0  0
  4 54  1  0  0  0  0
 15  5  1  1  0  0  0
  5 55  1  0  0  0  0
  6 22  1  0  0  0  0
  6 59  1  0  0  0  0
  7 28  1  0  0  0  0
  7 36  1  0  0  0  0
  8 29  1  0  0  0  0
  8 38  1  0  0  0  0
  9 35  1  0  0  0  0
  9 39  1  0  0  0  0
 10 32  2  0  0  0  0
 11 34  2  0  0  0  0
 18 12  1  1  0  0  0
 12 34  1  0  0  0  0
 12 56  1  0  0  0  0
 13 14  1  0  0  0  0
 13 15  1  0  0  0  0
 13 40  1  0  0  0  0
 14 16  1  0  0  0  0
 14 41  1  0  0  0  0
 15 17  1  0  0  0  0
 15 42  1  0  0  0  0
 16 22  1  6  0  0  0
 16 43  1  0  0  0  0
 17 44  1  0  0  0  0
 18 19  1  0  0  0  0
 18 24  1  0  0  0  0
 18 45  1  0  0  0  0
 19 20  1  0  0  0  0
 19 46  1  0  0  0  0
 19 47  1  0  0  0  0
 20 21  1  0  0  0  0
 20 48  1  0  0  0  0
 20 49  1  0  0  0  0
 21 23  1  0  0  0  0
 21 27  2  0  0  0  0
 22 50  1  0  0  0  0
 22 51  1  0  0  0  0
 23 25  1  0  0  0  0
 23 28  2  0  0  0  0
 24 25  1  0  0  0  0
 24 30  2  0  0  0  0
 25 31  2  0  0  0  0
 26 27  1  0  0  0  0
 26 29  2  0  0  0  0
 27 52  1  0  0  0  0
 28 29  1  0  0  0  0
 30 32  1  0  0  0  0
 30 57  1  0  0  0  0
 31 33  1  0  0  0  0
 31 58  1  0  0  0  0
 32 35  1  0  0  0  0
 33 35  2  0  0  0  0
 33 60  1  0  0  0  0
 34 37  1  0  0  0  0
 36 61  1  0  0  0  0
 36 62  1  0  0  0  0
 36 63  1  0  0  0  0
 37 64  1  0  0  0  0
 37 65  1  0  0  0  0
 37 66  1  0  0  0  0
 38 67  1  0  0  0  0
 38 68  1  0  0  0  0
 38 69  1  0  0  0  0
 39 70  1  0  0  0  0
 39 71  1  0  0  0  0
 39 72  1  0  0  0  0
M  END
> <PUBCHEM_COMPOUND_CID>
92763

> <PUBCHEM_COMPOUND_CANONICALIZED>
1

> <PUBCHEM_CACTVS_COMPLEXITY>
1010

> <PUBCHEM_CACTVS_HBOND_ACCEPTOR>
11

> <PUBCHEM_CACTVS_HBOND_DONOR>
5

> <PUBCHEM_CACTVS_ROTATABLE_BOND>
7

> <PUBCHEM_CACTVS_SUBSKEYS>
AAADcfB6PAAAAAAAAAAAAAAAAAAAAAAAAAA0QAAABggAAAABAAAAHgAQCAAADDzxmAcyDoLABgCIAqFSEAKCCAAgIAAAiIBOiMgdNyKEsR6meCKl1hWPqYfQ8P8OoAABCAAYQABAAAIQADCAAAAAAAAAAA==

> <PUBCHEM_IUPAC_OPENEYE_NAME>
N-[(7S)-1,2,10-trimethoxy-9-oxo-3-[(2S,3R,4S,5S,6R)-3,4,5-trihydroxy-6-(hydroxymethyl)tetrahydropyran-2-yl]oxy-6,7-dihydro-5H-benzo[a]heptalen-7-yl]acetamide

> <PUBCHEM_IUPAC_CAS_NAME>
N-[(7S)-1,2,10-trimethoxy-9-oxo-3-[[(2S,3R,4S,5S,6R)-3,4,5-trihydroxy-6-(hydroxymethyl)-2-oxanyl]oxy]-6,7-dihydro-5H-benzo[a]heptalen-7-yl]acetamide

> <PUBCHEM_IUPAC_NAME>
N-[(7S)-1,2,10-trimethoxy-9-oxo-3-[(2S,3R,4S,5S,6R)-3,4,5-trihydroxy-6-(hydroxymethyl)oxan-2-yl]oxy-6,7-dihydro-5H-benzo[a]heptalen-7-yl]acetamide

> <PUBCHEM_IUPAC_SYSTEMATIC_NAME>
N-[(7S)-3-[(2S,3R,4S,5S,6R)-6-(hydroxymethyl)-3,4,5-tris(oxidanyl)oxan-2-yl]oxy-1,2,10-trimethoxy-9-oxidanylidene-6,7-dihydro-5H-benzo[a]heptalen-7-yl]ethanamide

> <PUBCHEM_IUPAC_TRADITIONAL_NAME>
N-[(7S)-9-keto-1,2,10-trimethoxy-3-[(2S,3R,4S,5S,6R)-3,4,5-trihydroxy-6-methylol-tetrahydropyran-2-yl]oxy-6,7-dihydro-5H-benzo[a]heptalen-7-yl]acetamide

> <PUBCHEM_IUPAC_INCHI>
InChI=1S/C27H33NO11/c1-12(30)28-16-7-5-13-9-19(38-27-24(34)23(33)22(32)20(11-29)39-27)25(36-3)26(37-4)21(13)14-6-8-18(35-2)17(31)10-15(14)16/h6,8-10,16,20,22-24,27,29,32-34H,5,7,11H2,1-4H3,(H,28,30)/t16-,20+,22+,23-,24+,27+/m0/s1

> <PUBCHEM_IUPAC_INCHIKEY>
UXAFRQPVHYZDED-ZZEDUEFDSA-N

> <PUBCHEM_XLOGP3>
-1.1

> <PUBCHEM_EXACT_MASS>
547.205361

> <PUBCHEM_MOLECULAR_FORMULA>
C27H33NO11

> <PUBCHEM_MOLECULAR_WEIGHT>
547.55102

> <PUBCHEM_OPENEYE_CAN_SMILES>
CC(=O)NC1CCC2=CC(=C(C(=C2C3=CC=C(C(=O)C=C13)OC)OC)OC)OC4C(C(C(C(O4)CO)O)O)O

> <PUBCHEM_OPENEYE_ISO_SMILES>
CC(=O)N[C@H]1CCC2=CC(=C(C(=C2C3=CC=C(C(=O)C=C13)OC)OC)OC)O[C@H]4[C@@H]([C@H]([C@@H]([C@H](O4)CO)O)O)O

> <PUBCHEM_CACTVS_TPSA>
173

> <PUBCHEM_MONOISOTOPIC_WEIGHT>
547.205361

> <PUBCHEM_TOTAL_CHARGE>
0

> <PUBCHEM_HEAVY_ATOM_COUNT>
39

> <PUBCHEM_ATOM_DEF_STEREO_COUNT>
6

> <PUBCHEM_ATOM_UDEF_STEREO_COUNT>
0

> <PUBCHEM_BOND_DEF_STEREO_COUNT>
0

> <PUBCHEM_BOND_UDEF_STEREO_COUNT>
0

> <PUBCHEM_ISOTOPIC_ATOM_COUNT>
0

> <PUBCHEM_COMPONENT_COUNT>
1

> <PUBCHEM_CACTVS_TAUTO_COUNT>
2

> <PUBCHEM_COORDINATE_TYPE>
1
5
255

> <PUBCHEM_BONDANNOTATIONS>
18  12  5
16  22  6
17  2  6
21  23  8
21  27  8
23  28  8
24  25  8
24  30  8
25  31  8
26  27  8
26  29  8
28  29  8
13  3  6
30  32  8
31  33  8
32  35  8
33  35  8
14  4  5
15  5  5

$$$$

