49787035
  -OEChem-07051213112D

 31 33  0     1  0  0  0  0  0999 V2000
    4.8183    0.7586    0.0000 O   0  0  0  0  0  0  0  0  0  0  0  0
    2.5381   -0.1121    0.0000 O   0  0  0  0  0  0  0  0  0  0  0  0
    4.3283    1.6304    0.0000 O   0  0  0  0  0  0  0  0  0  0  0  0
    2.8184    0.7818    0.0000 O   0  0  0  0  0  0  0  0  0  0  0  0
    4.3083   -0.1015    0.0000 C   0  0  1  0  0  0  0  0  0  0  0  0
    5.2022   -0.6362    0.0000 C   0  0  0  0  0  0  0  0  0  0  0  0
    3.4022   -0.6154    0.0000 C   0  0  1  0  0  0  0  0  0  0  0  0
    5.2022   -1.6362    0.0000 C   0  0  0  0  0  0  0  0  0  0  0  0
    6.0682   -0.1362    0.0000 C   0  0  0  0  0  0  0  0  0  0  0  0
    3.4022   -1.6570    0.0000 C   0  0  0  0  0  0  0  0  0  0  0  0
    4.3083   -2.1709    0.0000 C   0  0  0  0  0  0  0  0  0  0  0  0
    6.9343   -0.6362    0.0000 C   0  0  0  0  0  0  0  0  0  0  0  0
    3.8183    0.7702    0.0000 C   0  0  0  0  0  0  0  0  0  0  0  0
    6.0682   -2.1362    0.0000 C   0  0  0  0  0  0  0  0  0  0  0  0
    6.9343   -1.6362    0.0000 C   0  0  0  0  0  0  0  0  0  0  0  0
    6.0522    0.9053    0.0000 C   0  0  0  0  0  0  0  0  0  0  0  0
    7.8443   -0.1294    0.0000 C   0  0  0  0  0  0  0  0  0  0  0  0
    6.9502    1.4330    0.0000 C   0  0  0  0  0  0  0  0  0  0  0  0
    7.8523    0.9122    0.0000 C   0  0  0  0  0  0  0  0  0  0  0  0
    3.4058    0.0046    0.0000 H   0  0  0  0  0  0  0  0  0  0  0  0
    2.8665   -1.9691    0.0000 H   0  0  0  0  0  0  0  0  0  0  0  0
    4.3154   -2.7908    0.0000 H   0  0  0  0  0  0  0  0  0  0  0  0
    6.0682   -2.7562    0.0000 H   0  0  0  0  0  0  0  0  0  0  0  0
    7.4712   -1.9462    0.0000 H   0  0  0  0  0  0  0  0  0  0  0  0
    5.5117    1.2091    0.0000 H   0  0  0  0  0  0  0  0  0  0  0  0
    5.4382    0.7515    0.0000 H   0  0  0  0  0  0  0  0  0  0  0  0
    8.3776   -0.4456    0.0000 H   0  0  0  0  0  0  0  0  0  0  0  0
    2.0000   -0.4200    0.0000 H   0  0  0  0  0  0  0  0  0  0  0  0
    6.9478    2.0530    0.0000 H   0  0  0  0  0  0  0  0  0  0  0  0
    8.3904    1.2202    0.0000 H   0  0  0  0  0  0  0  0  0  0  0  0
    4.0245    2.1709    0.0000 H   0  0  0  0  0  0  0  0  0  0  0  0
  5  1  1  1  0  0  0
  1 26  1  0  0  0  0
  7  2  1  1  0  0  0
  2 28  1  0  0  0  0
  3 13  1  0  0  0  0
  3 31  1  0  0  0  0
  4 13  2  0  0  0  0
  5  6  1  0  0  0  0
  5  7  1  0  0  0  0
  5 13  1  0  0  0  0
  6  8  2  0  0  0  0
  6  9  1  0  0  0  0
  7 10  1  0  0  0  0
  7 20  1  0  0  0  0
  8 11  1  0  0  0  0
  8 14  1  0  0  0  0
  9 12  1  0  0  0  0
  9 16  2  0  0  0  0
 10 11  2  0  0  0  0
 10 21  1  0  0  0  0
 11 22  1  0  0  0  0
 12 15  1  0  0  0  0
 12 17  2  0  0  0  0
 14 15  2  0  0  0  0
 14 23  1  0  0  0  0
 15 24  1  0  0  0  0
 16 18  1  0  0  0  0
 16 25  1  0  0  0  0
 17 19  1  0  0  0  0
 17 27  1  0  0  0  0
 18 19  2  0  0  0  0
 18 29  1  0  0  0  0
 19 30  1  0  0  0  0
M  END
> <PUBCHEM_COMPOUND_CID>
49787035

> <PUBCHEM_COMPOUND_CANONICALIZED>
1

> <PUBCHEM_CACTVS_COMPLEXITY>
405

> <PUBCHEM_CACTVS_HBOND_ACCEPTOR>
4

> <PUBCHEM_CACTVS_HBOND_DONOR>
3

> <PUBCHEM_CACTVS_ROTATABLE_BOND>
1

> <PUBCHEM_CACTVS_SUBSKEYS>
AAADccBwOAAAAAAAAAAAAAAAAAAAAAAAAAAwYIAAAAAAAADBUAAAGgAACAAADFSgmAIwCMAAAgCIAiDSCAICAAAgAAAIiAFACIgJNjaAFRCAcAAl4AEJmAeIyPCOwAACAAAQAACAAAQAACAAAAAAAAAAAA==

> <PUBCHEM_IUPAC_OPENEYE_NAME>
(3R,4S)-3,4-dihydroxy-3H-phenanthrene-4-carboxylic acid

> <PUBCHEM_IUPAC_CAS_NAME>
(3R,4S)-3,4-dihydroxy-3H-phenanthrene-4-carboxylic acid

> <PUBCHEM_IUPAC_NAME>
(3R,4S)-3,4-dihydroxy-3H-phenanthrene-4-carboxylic acid

> <PUBCHEM_IUPAC_SYSTEMATIC_NAME>
(3R,4S)-3,4-bis(oxidanyl)-3H-phenanthrene-4-carboxylic acid

> <PUBCHEM_IUPAC_TRADITIONAL_NAME>
(3R,4S)-3,4-dihydroxy-3H-phenanthrene-4-carboxylic acid

> <PUBCHEM_IUPAC_INCHI>
InChI=1S/C15H12O4/c16-12-8-7-10-6-5-9-3-1-2-4-11(9)13(10)15(12,19)14(17)18/h1-8,12,16,19H,(H,17,18)/t12-,15-/m1/s1

> <PUBCHEM_IUPAC_INCHIKEY>
WBAZPUVNIAXCFM-IUODEOHRSA-N

> <PUBCHEM_XLOGP3_AA>
2.2

> <PUBCHEM_EXACT_MASS>
256.073559

> <PUBCHEM_MOLECULAR_FORMULA>
C15H12O4

> <PUBCHEM_MOLECULAR_WEIGHT>
256.25338

> <PUBCHEM_OPENEYE_CAN_SMILES>
C1=CC=C2C(=C1)C=CC3=C2C(C(C=C3)O)(C(=O)O)O

> <PUBCHEM_OPENEYE_ISO_SMILES>
C1=CC=C2C(=C1)C=CC3=C2[C@]([C@@H](C=C3)O)(C(=O)O)O

> <PUBCHEM_CACTVS_TPSA>
77.8

> <PUBCHEM_MONOISOTOPIC_WEIGHT>
256.073559

> <PUBCHEM_TOTAL_CHARGE>
0

> <PUBCHEM_HEAVY_ATOM_COUNT>
19

> <PUBCHEM_ATOM_DEF_STEREO_COUNT>
2

> <PUBCHEM_ATOM_UDEF_STEREO_COUNT>
0

> <PUBCHEM_BOND_DEF_STEREO_COUNT>
0

> <PUBCHEM_BOND_UDEF_STEREO_COUNT>
0

> <PUBCHEM_ISOTOPIC_ATOM_COUNT>
0

> <PUBCHEM_COMPONENT_COUNT>
1

> <PUBCHEM_CACTVS_TAUTO_COUNT>
1

> <PUBCHEM_COORDINATE_TYPE>
1
5
255

> <PUBCHEM_BONDANNOTATIONS>
5  1  5
12  15  8
12  17  8
14  15  8
16  18  8
17  19  8
18  19  8
7  2  5
6  8  8
6  9  8
8  14  8
9  12  8
9  16  8

$$$$

