7713
  -OEChem-06261202153D

 30 31  0     0  0  0  0  0  0999 V2000
    1.6962    0.6451    0.8988 O   0  0  0  0  0  0  0  0  0  0  0  0
   -1.6981   -0.6655    0.8926 O   0  0  0  0  0  0  0  0  0  0  0  0
    0.6752   -0.3518    0.9038 C   0  0  0  0  0  0  0  0  0  0  0  0
   -0.6804    0.3282    0.9082 C   0  0  0  0  0  0  0  0  0  0  0  0
    2.8772    0.3193    0.3065 C   0  0  0  0  0  0  0  0  0  0  0  0
   -2.8849   -0.3239    0.2995 C   0  0  0  0  0  0  0  0  0  0  0  0
    3.3131   -1.0057    0.3017 C   0  0  0  0  0  0  0  0  0  0  0  0
   -3.3066    1.0009    0.3161 C   0  0  0  0  0  0  0  0  0  0  0  0
    3.6523    1.3106   -0.2954 C   0  0  0  0  0  0  0  0  0  0  0  0
   -3.6561   -1.3057   -0.3124 C   0  0  0  0  0  0  0  0  0  0  0  0
    4.5242   -1.3394   -0.3047 C   0  0  0  0  0  0  0  0  0  0  0  0
   -4.5154    1.3484   -0.2872 C   0  0  0  0  0  0  0  0  0  0  0  0
    4.8632    0.9769   -0.9020 C   0  0  0  0  0  0  0  0  0  0  0  0
   -4.8647   -0.9580   -0.9158 C   0  0  0  0  0  0  0  0  0  0  0  0
    5.2991   -0.3482   -0.9066 C   0  0  0  0  0  0  0  0  0  0  0  0
   -5.2943    0.3690   -0.9031 C   0  0  0  0  0  0  0  0  0  0  0  0
    0.7231   -0.9974    0.0165 H   0  0  0  0  0  0  0  0  0  0  0  0
    0.7801   -0.9829    1.7945 H   0  0  0  0  0  0  0  0  0  0  0  0
   -0.7256    0.9844    0.0285 H   0  0  0  0  0  0  0  0  0  0  0  0
   -0.7825    0.9497    1.8060 H   0  0  0  0  0  0  0  0  0  0  0  0
    2.7545   -1.8031    0.7828 H   0  0  0  0  0  0  0  0  0  0  0  0
   -2.7449    1.7883    0.8091 H   0  0  0  0  0  0  0  0  0  0  0  0
    3.3178    2.3445   -0.2949 H   0  0  0  0  0  0  0  0  0  0  0  0
   -3.3252   -2.3403   -0.3245 H   0  0  0  0  0  0  0  0  0  0  0  0
    4.8672   -2.3699   -0.3031 H   0  0  0  0  0  0  0  0  0  0  0  0
   -4.8536    2.3804   -0.2718 H   0  0  0  0  0  0  0  0  0  0  0  0
    5.4670    1.7488   -1.3703 H   0  0  0  0  0  0  0  0  0  0  0  0
   -5.4716   -1.7207   -1.3950 H   0  0  0  0  0  0  0  0  0  0  0  0
    6.2427   -0.6078   -1.3775 H   0  0  0  0  0  0  0  0  0  0  0  0
   -6.2362    0.6393   -1.3714 H   0  0  0  0  0  0  0  0  0  0  0  0
  1  3  1  0  0  0  0
  1  5  1  0  0  0  0
  2  4  1  0  0  0  0
  2  6  1  0  0  0  0
  3  4  1  0  0  0  0
  3 17  1  0  0  0  0
  3 18  1  0  0  0  0
  4 19  1  0  0  0  0
  4 20  1  0  0  0  0
  5  7  2  0  0  0  0
  5  9  1  0  0  0  0
  6  8  2  0  0  0  0
  6 10  1  0  0  0  0
  7 11  1  0  0  0  0
  7 21  1  0  0  0  0
  8 12  1  0  0  0  0
  8 22  1  0  0  0  0
  9 13  2  0  0  0  0
  9 23  1  0  0  0  0
 10 14  2  0  0  0  0
 10 24  1  0  0  0  0
 11 15  2  0  0  0  0
 11 25  1  0  0  0  0
 12 16  2  0  0  0  0
 12 26  1  0  0  0  0
 13 15  1  0  0  0  0
 13 27  1  0  0  0  0
 14 16  1  0  0  0  0
 14 28  1  0  0  0  0
 15 29  1  0  0  0  0
 16 30  1  0  0  0  0
M  END
> <PUBCHEM_COMPOUND_CID>
7713

> <PUBCHEM_CONFORMER_RMSD>
0.6

> <PUBCHEM_CONFORMER_DIVERSEORDER>
5
11
38
49
4
7
50
57
30
56
51
55
6
39
58
20
22
34
9
10
29
19
12
16
27
26
28
8
45
1
52
17
47
53
35
54
23
43
46
14
41
48
42
37
24
2
32
40
21
25
15
3
31
13
33
36
44
18

> <PUBCHEM_MMFF94_PARTIAL_CHARGES>
26
1 -0.36
10 -0.15
11 -0.15
12 -0.15
13 -0.15
14 -0.15
15 -0.15
16 -0.15
2 -0.36
21 0.15
22 0.15
23 0.15
24 0.15
25 0.15
26 0.15
27 0.15
28 0.15
29 0.15
3 0.28
30 0.15
4 0.28
5 0.08
6 0.08
7 -0.15
8 -0.15
9 -0.15

> <PUBCHEM_EFFECTIVE_ROTOR_COUNT>
5

> <PUBCHEM_PHARMACOPHORE_FEATURES>
4
1 1 acceptor
1 2 acceptor
6 5 7 9 11 13 15 rings
6 6 8 10 12 14 16 rings

> <PUBCHEM_HEAVY_ATOM_COUNT>
16

> <PUBCHEM_ATOM_DEF_STEREO_COUNT>
0

> <PUBCHEM_ATOM_UDEF_STEREO_COUNT>
0

> <PUBCHEM_BOND_DEF_STEREO_COUNT>
0

> <PUBCHEM_BOND_UDEF_STEREO_COUNT>
0

> <PUBCHEM_ISOTOPIC_ATOM_COUNT>
0

> <PUBCHEM_COMPONENT_COUNT>
1

> <PUBCHEM_CACTVS_TAUTO_COUNT>
1

> <PUBCHEM_CONFORMER_ID>
00001E2100000005

> <PUBCHEM_MMFF94_ENERGY>
55.7727

> <PUBCHEM_FEATURE_SELFOVERLAP>
20.297

> <PUBCHEM_SHAPE_FINGERPRINT>
10014705 185 16773795866319163883
10354089 29 10375868576645382030
10670039 82 15123231108646603566
10803635 8 17749393680538220567
11089746 13 17632582630508317600
11128504 68 18272370862550507765
12670546 177 18410573993741385908
13167823 11 18333733511253847087
13668630 136 16950278494625426510
1420 369 14273453677973111789
14251718 22 18260548892275350308
14252887 29 5689601576309329640
14341114 328 10303810994885584198
14366163 111 17847063289701339336
14528608 73 18272653432796632998
14848160 23 15357983386142032790
14849402 71 9006471911707039558
15183329 4 18410856602589462565
15188451 53 6555398822110289525
17834072 33 18410012121845861374
17870717 6 17894627059218146383
1798214 20 17822010917278222442
1813 80 14273731833056212824
18186145 218 17275386495115217496
18222031 100 15719111357751659392
193927 3 15647046036676974161
200 152 17385723607896164843
20300324 65 18408886239688911921
20325693 3 18335140891307696975
20369508 70 17458350728089066984
20432913 95 5184350711152013701
204376 136 14692574325337932777
20645477 56 15051733079684424307
20645477 70 18409444825982103022
20871999 31 18409449172282791307
212847 35 15769780152368669648
221357 26 18412831291398670317
22289505 5 18131069338279995980
22646028 1 15719110257854714640
23402539 116 18410576205697217420
23402655 69 18343579638397240394
23559900 14 17968670332052720697
2767999 5 15913332372688632596
29717793 49 17968088755427276092
3004659 81 18408885178990342674
312425 54 7204502121089568231
314173 85 14779262016525702675
32948 21 18335423499275156712
351380 3 15863788395957871047
42 15 7348893277835837600
465052 167 16732980886415150180
49783359 22 6627749976698480309
542803 24 17775284971463697191
5924683 9 10447631488682645089
633830 44 17846500335199788794
960060 61 18409444791542736830

> <PUBCHEM_SHAPE_MULTIPOLES>
317.53
14.51
1.4
1.05
0.04
0.01
-0.02
0.05
-5.88
0
-0.15
-0.01
0
-0.34

> <PUBCHEM_SHAPE_SELFOVERLAP>
669.679

> <PUBCHEM_SHAPE_VOLUME>
178.6

> <PUBCHEM_COORDINATE_TYPE>
2
5
10

$$$$

