11789
  -OEChem-06261206073D

 34 37  0     0  0  0  0  0  0999 V2000
   -0.6719   -0.8104    0.2776 C   0  0  0  0  0  0  0  0  0  0  0  0
    0.6719   -0.8105   -0.2776 C   0  0  0  0  0  0  0  0  0  0  0  0
   -1.6876    0.0275   -0.2110 C   0  0  0  0  0  0  0  0  0  0  0  0
    1.6875    0.0275    0.2109 C   0  0  0  0  0  0  0  0  0  0  0  0
   -2.9732   -0.0274    0.3781 C   0  0  0  0  0  0  0  0  0  0  0  0
    2.9732   -0.0274   -0.3782 C   0  0  0  0  0  0  0  0  0  0  0  0
   -0.9203   -1.6899    1.3317 C   0  0  0  0  0  0  0  0  0  0  0  0
    0.9203   -1.6899   -1.3318 C   0  0  0  0  0  0  0  0  0  0  0  0
   -1.4555    0.9186   -1.2713 C   0  0  0  0  0  0  0  0  0  0  0  0
    1.4555    0.9186    1.2713 C   0  0  0  0  0  0  0  0  0  0  0  0
   -3.2053   -0.9187    1.4384 C   0  0  0  0  0  0  0  0  0  0  0  0
    3.2053   -0.9187   -1.4384 C   0  0  0  0  0  0  0  0  0  0  0  0
   -2.1845   -1.7439    1.9111 C   0  0  0  0  0  0  0  0  0  0  0  0
    2.1845   -1.7439   -1.9111 C   0  0  0  0  0  0  0  0  0  0  0  0
   -3.9889    0.8104   -0.1104 C   0  0  0  0  0  0  0  0  0  0  0  0
    3.9889    0.8105    0.1104 C   0  0  0  0  0  0  0  0  0  0  0  0
   -2.4762    1.7439   -1.7440 C   0  0  0  0  0  0  0  0  0  0  0  0
    2.4763    1.7438    1.7440 C   0  0  0  0  0  0  0  0  0  0  0  0
   -3.7405    1.6899   -1.1646 C   0  0  0  0  0  0  0  0  0  0  0  0
    3.7405    1.6899    1.1646 C   0  0  0  0  0  0  0  0  0  0  0  0
   -0.1393   -2.3421    1.7164 H   0  0  0  0  0  0  0  0  0  0  0  0
    0.1393   -2.3422   -1.7164 H   0  0  0  0  0  0  0  0  0  0  0  0
   -0.4869    1.0003   -1.7579 H   0  0  0  0  0  0  0  0  0  0  0  0
    0.4869    1.0003    1.7580 H   0  0  0  0  0  0  0  0  0  0  0  0
   -4.1858   -0.9777    1.9063 H   0  0  0  0  0  0  0  0  0  0  0  0
    4.1858   -0.9777   -1.9063 H   0  0  0  0  0  0  0  0  0  0  0  0
   -2.3773   -2.4287    2.7318 H   0  0  0  0  0  0  0  0  0  0  0  0
    2.3774   -2.4286   -2.7319 H   0  0  0  0  0  0  0  0  0  0  0  0
   -4.9846    0.7851    0.3273 H   0  0  0  0  0  0  0  0  0  0  0  0
    4.9848    0.7852   -0.3273 H   0  0  0  0  0  0  0  0  0  0  0  0
   -2.2840    2.4290   -2.5646 H   0  0  0  0  0  0  0  0  0  0  0  0
    2.2840    2.4290    2.5646 H   0  0  0  0  0  0  0  0  0  0  0  0
   -4.5348    2.3327   -1.5330 H   0  0  0  0  0  0  0  0  0  0  0  0
    4.5347    2.3326    1.5331 H   0  0  0  0  0  0  0  0  0  0  0  0
  1  2  1  0  0  0  0
  1  3  1  0  0  0  0
  1  7  2  0  0  0  0
  2  4  1  0  0  0  0
  2  8  2  0  0  0  0
  3  5  1  0  0  0  0
  3  9  2  0  0  0  0
  4  6  1  0  0  0  0
  4 10  2  0  0  0  0
  5 11  1  0  0  0  0
  5 15  2  0  0  0  0
  6 12  1  0  0  0  0
  6 16  2  0  0  0  0
  7 13  1  0  0  0  0
  7 21  1  0  0  0  0
  8 14  1  0  0  0  0
  8 22  1  0  0  0  0
  9 17  1  0  0  0  0
  9 23  1  0  0  0  0
 10 18  1  0  0  0  0
 10 24  1  0  0  0  0
 11 13  2  0  0  0  0
 11 25  1  0  0  0  0
 12 14  2  0  0  0  0
 12 26  1  0  0  0  0
 13 27  1  0  0  0  0
 14 28  1  0  0  0  0
 15 19  1  0  0  0  0
 15 29  1  0  0  0  0
 16 20  1  0  0  0  0
 16 30  1  0  0  0  0
 17 19  2  0  0  0  0
 17 31  1  0  0  0  0
 18 20  2  0  0  0  0
 18 32  1  0  0  0  0
 19 33  1  0  0  0  0
 20 34  1  0  0  0  0
M  END
> <PUBCHEM_COMPOUND_CID>
11789

> <PUBCHEM_CONFORMER_RMSD>
0.6

> <PUBCHEM_CONFORMER_DIVERSEORDER>
1
2

> <PUBCHEM_MMFF94_PARTIAL_CHARGES>
28
10 -0.15
11 -0.15
12 -0.15
13 -0.15
14 -0.15
15 -0.15
16 -0.15
17 -0.15
18 -0.15
19 -0.15
20 -0.15
21 0.15
22 0.15
23 0.15
24 0.15
25 0.15
26 0.15
27 0.15
28 0.15
29 0.15
30 0.15
31 0.15
32 0.15
33 0.15
34 0.15
7 -0.15
8 -0.15
9 -0.15

> <PUBCHEM_EFFECTIVE_ROTOR_COUNT>
1

> <PUBCHEM_PHARMACOPHORE_FEATURES>
4
6 1 3 5 7 11 13 rings
6 2 4 6 8 12 14 rings
6 3 5 9 15 17 19 rings
6 4 6 10 16 18 20 rings

> <PUBCHEM_HEAVY_ATOM_COUNT>
20

> <PUBCHEM_ATOM_DEF_STEREO_COUNT>
0

> <PUBCHEM_ATOM_UDEF_STEREO_COUNT>
0

> <PUBCHEM_BOND_DEF_STEREO_COUNT>
0

> <PUBCHEM_BOND_UDEF_STEREO_COUNT>
0

> <PUBCHEM_ISOTOPIC_ATOM_COUNT>
0

> <PUBCHEM_COMPONENT_COUNT>
1

> <PUBCHEM_CACTVS_TAUTO_COUNT>
1

> <PUBCHEM_CONFORMER_ID>
00002E0D00000001

> <PUBCHEM_MMFF94_ENERGY>
74.0932

> <PUBCHEM_FEATURE_SELFOVERLAP>
20.35

> <PUBCHEM_SHAPE_FINGERPRINT>
10165383 225 17682934640758506808
10871710 139 16536804630419256540
11582403 64 17473886843905278965
11725454 13 18266482990626393126
12553582 1 17200488759970522995
12716301 132 17989481935524859883
12730499 353 18260548939831259559
12788726 201 16270494380361244483
13134695 92 17896318194016862142
13538477 17 16630520709237338155
13583140 156 18341624672432096418
13965767 371 16126415703306882893
14420673 8 17201098121419523666
14739800 52 17344900816433876172
14955137 171 14804328253657171178
16752209 62 17418091001652388827
16945 1 17676481770149857142
17349148 13 17131844135882170383
18186145 218 18339354283588315025
18219364 16 18041840610562209240
19049666 15 18339354296383669658
19862831 5 15719397213199372672
19930381 70 17606134887524853665
20645477 70 17967247633042359590
21427221 339 15625668335277736268
21486144 27 18187354411661961283
21639500 275 17603586313865302466
21756936 100 17769385916400481192
22112679 90 16271923783562508358
23175994 123 17970892582866104998
23493267 7 18202286905154585184
23526113 38 18119802758082732086
23557571 272 18201144486576545175
23559900 14 18059284474496649934
23598291 2 15936955453115553606
238 59 17895209804185438908
25 1 17894914010114641852
3082319 5 15647055953751361164
350125 39 17245552166687976450
3797600 57 15408602715520981693
427121 178 17916307319493969129
474 4 17168430355115237808
495365 180 18263656197839833259
6049 1 18338780278199286663
633830 44 16661468624749607912
7097593 13 16271104724888549032
77492 1 15719385165816120390
7808743 9 17774994713242476332
81228 2 17988064605355786811
90316 7 16559041492796841205

> <PUBCHEM_SHAPE_MULTIPOLES>
411.59
7.23
2.1
1.99
0
0
0
-2.95
0
0
0
0
0.22
3.07

> <PUBCHEM_SHAPE_SELFOVERLAP>
941.143

> <PUBCHEM_SHAPE_VOLUME>
195.9

> <PUBCHEM_COORDINATE_TYPE>
2
5
10

$$$$

