7078
  -OEChem-06261201443D

 28 28  0     0  0  0  0  0  0999 V2000
   -2.0837   -1.9715    0.0490 O   0  0  0  0  0  0  0  0  0  0  0  0
    1.6810    1.4285   -0.3842 O   0  0  0  0  0  0  0  0  0  0  0  0
    3.9216    0.5983    1.1073 O   0  0  0  0  0  0  0  0  0  0  0  0
    0.2430   -0.4192   -0.1920 N   0  0  0  0  0  0  0  0  0  0  0  0
   -1.0348    0.1817   -0.0896 C   0  0  0  0  0  0  0  0  0  0  0  0
   -2.1648   -0.6108    0.0291 C   0  0  0  0  0  0  0  0  0  0  0  0
    2.6218   -0.7621   -0.3986 C   0  0  0  0  0  0  0  0  0  0  0  0
    1.4693    0.2205   -0.3154 C   0  0  0  0  0  0  0  0  0  0  0  0
   -1.1227    1.5644   -0.1102 C   0  0  0  0  0  0  0  0  0  0  0  0
   -3.4169   -0.0043    0.1298 C   0  0  0  0  0  0  0  0  0  0  0  0
   -2.3749    2.1708   -0.0095 C   0  0  0  0  0  0  0  0  0  0  0  0
   -3.5220    1.3864    0.1104 C   0  0  0  0  0  0  0  0  0  0  0  0
    3.9065   -0.2534    0.2198 C   0  0  0  0  0  0  0  0  0  0  0  0
    5.1848   -0.8383   -0.3208 C   0  0  0  0  0  0  0  0  0  0  0  0
   -3.3082   -2.6910    0.1748 C   0  0  0  0  0  0  0  0  0  0  0  0
    2.7926   -0.9622   -1.4621 H   0  0  0  0  0  0  0  0  0  0  0  0
    2.3702   -1.7052    0.0976 H   0  0  0  0  0  0  0  0  0  0  0  0
    0.2393   -1.4366   -0.1715 H   0  0  0  0  0  0  0  0  0  0  0  0
   -0.2884    2.2436   -0.1973 H   0  0  0  0  0  0  0  0  0  0  0  0
   -4.3511   -0.5468    0.2254 H   0  0  0  0  0  0  0  0  0  0  0  0
   -2.4582    3.2537   -0.0238 H   0  0  0  0  0  0  0  0  0  0  0  0
   -4.4965    1.8599    0.1889 H   0  0  0  0  0  0  0  0  0  0  0  0
    5.1615   -1.9260   -0.2180 H   0  0  0  0  0  0  0  0  0  0  0  0
    6.0363   -0.4501    0.2451 H   0  0  0  0  0  0  0  0  0  0  0  0
    5.2997   -0.5602   -1.3713 H   0  0  0  0  0  0  0  0  0  0  0  0
   -3.9674   -2.5208   -0.6833 H   0  0  0  0  0  0  0  0  0  0  0  0
   -3.8029   -2.4837    1.1299 H   0  0  0  0  0  0  0  0  0  0  0  0
   -3.0565   -3.7568    0.1737 H   0  0  0  0  0  0  0  0  0  0  0  0
  1  6  1  0  0  0  0
  1 15  1  0  0  0  0
  2  8  2  0  0  0  0
  3 13  2  0  0  0  0
  4  5  1  0  0  0  0
  4  8  1  0  0  0  0
  4 18  1  0  0  0  0
  5  6  1  0  0  0  0
  5  9  2  0  0  0  0
  6 10  2  0  0  0  0
  7  8  1  0  0  0  0
  7 13  1  0  0  0  0
  7 16  1  0  0  0  0
  7 17  1  0  0  0  0
  9 11  1  0  0  0  0
  9 19  1  0  0  0  0
 10 12  1  0  0  0  0
 10 20  1  0  0  0  0
 11 12  2  0  0  0  0
 11 21  1  0  0  0  0
 12 22  1  0  0  0  0
 13 14  1  0  0  0  0
 14 23  1  0  0  0  0
 14 24  1  0  0  0  0
 14 25  1  0  0  0  0
 15 26  1  0  0  0  0
 15 27  1  0  0  0  0
 15 28  1  0  0  0  0
M  END
> <PUBCHEM_COMPOUND_CID>
7078

> <PUBCHEM_CONFORMER_RMSD>
0.6

> <PUBCHEM_CONFORMER_DIVERSEORDER>
11
37
53
58
63
49
44
7
92
24
73
35
48
18
87
21
84
91
12
80
67
40
76
64
86
54
46
77
34
70
16
32
20
38
83
26
41
65
28
39
23
89
25
22
93
43
19
72
79
59
33
3
90
31
55
5
52
51
14
30
61
45
85
29
27
82
4
47
88
71
62
57
2
36
56
50
15
13
42
9
74
81
1
75
69
10
17
68
60
78
66
6
8

> <PUBCHEM_MMFF94_PARTIAL_CHARGES>
20
1 -0.36
10 -0.15
11 -0.15
12 -0.15
13 0.45
14 0.06
15 0.28
18 0.37
19 0.15
2 -0.57
20 0.15
21 0.15
22 0.15
3 -0.57
4 -0.55
5 0.12
6 0.08
7 0.12
8 0.57
9 -0.15

> <PUBCHEM_EFFECTIVE_ROTOR_COUNT>
5

> <PUBCHEM_PHARMACOPHORE_FEATURES>
6
1 1 acceptor
1 2 acceptor
1 3 acceptor
1 4 donor
1 7 anion
6 5 6 9 10 11 12 rings

> <PUBCHEM_HEAVY_ATOM_COUNT>
15

> <PUBCHEM_ATOM_DEF_STEREO_COUNT>
0

> <PUBCHEM_ATOM_UDEF_STEREO_COUNT>
0

> <PUBCHEM_BOND_DEF_STEREO_COUNT>
0

> <PUBCHEM_BOND_UDEF_STEREO_COUNT>
0

> <PUBCHEM_ISOTOPIC_ATOM_COUNT>
0

> <PUBCHEM_COMPONENT_COUNT>
1

> <PUBCHEM_CACTVS_TAUTO_COUNT>
8

> <PUBCHEM_CONFORMER_ID>
00001BA60000000B

> <PUBCHEM_MMFF94_ENERGY>
46.7629

> <PUBCHEM_FEATURE_SELFOVERLAP>
30.449

> <PUBCHEM_SHAPE_FINGERPRINT>
10608611 8 18333736831559076352
10616163 171 18411134744930735486
10680689 15 18341041986803139322
11132069 177 18411982476731971029
12251169 10 18413105082446402981
124424 183 17749113326416209008
12500047 106 18338240486825569956
12757275 245 18412541002927216695
13214271 11 18260553315849007364
13380535 76 18335701706177264191
13675066 3 18041002838958424698
14178342 30 18341905116442634498
14965852 173 18412261722657422484
15042514 8 18341041948686672819
15375358 24 18187085104385421222
17804303 29 18409444795452952460
17834072 33 18201148876682033428
200 152 17095251340520715333
20279233 1 18113894996206943070
20281475 54 18202285814417482110
20510252 161 18188770698924745217
20645477 56 18338231682369667829
20871998 184 18187642475519508871
21065198 57 18335140921050786240
21065199 12 18261398823669969690
21267235 1 18341039757768119939
21501502 16 18269265781589719381
21650355 55 18410856538634704873
22943178 12 18186519925634305398
22959321 60 18041572355953849704
2306618 200 18187637025137165833
23175994 123 17240197755187180856
23402539 116 18335146405945634629
23557571 272 18187639223770154260
23559900 14 18334576901877367990
23598291 2 17917422095335022540
3086196 2 18338238167701492171
312423 11 17986938679029981941
4214541 1 18410292544930143740
5104073 3 18335704927555522720
573450 72 18272662272150655730
69090 78 18336269032728603805
77779 3 18409728469985382756
8809292 202 18412540998584633819
9709674 26 18261107521333845430

> <PUBCHEM_SHAPE_MULTIPOLES>
286.1
8.86
2.22
0.7
10.18
0.79
-0.06
1.71
-0.69
-3.03
-0.04
0.33
-0.05
0.32

> <PUBCHEM_SHAPE_SELFOVERLAP>
586.944

> <PUBCHEM_SHAPE_VOLUME>
164.7

> <PUBCHEM_COORDINATE_TYPE>
2
5
10

$$$$

