17396230
  -OEChem-06241222552D

 49 51  0     0  0  0  0  0  0999 V2000
    4.2788    0.1155    0.0000 O   0  0  0  0  0  0  0  0  0  0  0  0
    6.3479   -2.7324    0.0000 O   0  0  0  0  0  0  0  0  0  0  0  0
    7.3659   -1.9581    0.0000 O   0  0  0  0  0  0  0  0  0  0  0  0
   10.3086    2.0922    0.0000 O   0  0  0  0  0  0  0  0  0  0  0  0
    8.6614    2.6274    0.0000 O   0  0  0  0  0  0  0  0  0  0  0  0
    4.5878   -2.4536    0.0000 N   0  0  0  0  0  0  0  0  0  0  0  0
    5.5388   -1.1446    0.0000 N   0  0  0  0  0  0  0  0  0  0  0  0
    9.0215   -0.6848    0.0000 N   0  0  0  0  0  0  0  0  0  0  0  0
    4.0000   -1.6446    0.0000 C   0  0  0  0  0  0  0  0  0  0  0  0
    3.5000   -2.5106    0.0000 C   0  0  0  0  0  0  0  0  0  0  0  0
    3.5000   -0.7786    0.0000 C   0  0  0  0  0  0  0  0  0  0  0  0
    2.5000   -2.5106    0.0000 C   0  0  0  0  0  0  0  0  0  0  0  0
    2.5000   -0.7786    0.0000 C   0  0  0  0  0  0  0  0  0  0  0  0
    2.0000   -1.6446    0.0000 C   0  0  0  0  0  0  0  0  0  0  0  0
    4.5878   -0.8356    0.0000 C   0  0  0  0  0  0  0  0  0  0  0  0
    5.5388   -2.1446    0.0000 C   0  0  0  0  0  0  0  0  0  0  0  0
    6.3479   -0.5568    0.0000 C   0  0  0  0  0  0  0  0  0  0  0  0
    7.2614   -0.9636    0.0000 C   0  0  0  0  0  0  0  0  0  0  0  0
    8.0704   -0.3758    0.0000 C   0  0  0  0  0  0  0  0  0  0  0  0
    8.0704    0.6242    0.0000 C   0  0  0  0  0  0  0  0  0  0  0  0
    9.0215    0.9332    0.0000 C   0  0  0  0  0  0  0  0  0  0  0  0
    9.6093    0.1242    0.0000 C   0  0  0  0  0  0  0  0  0  0  0  0
    7.2614    1.2120    0.0000 C   0  0  0  0  0  0  0  0  0  0  0  0
   10.6093    0.1242    0.0000 C   0  0  0  0  0  0  0  0  0  0  0  0
    9.3305    1.8843    0.0000 C   0  0  0  0  0  0  0  0  0  0  0  0
   10.6177    3.0433    0.0000 C   0  0  0  0  0  0  0  0  0  0  0  0
    4.0826   -0.5665    0.0000 H   0  0  0  0  0  0  0  0  0  0  0  0
    3.3923   -0.1680    0.0000 H   0  0  0  0  0  0  0  0  0  0  0  0
    3.3923   -3.1212    0.0000 H   0  0  0  0  0  0  0  0  0  0  0  0
    4.0826   -2.7227    0.0000 H   0  0  0  0  0  0  0  0  0  0  0  0
    2.6077   -0.1680    0.0000 H   0  0  0  0  0  0  0  0  0  0  0  0
    1.9174   -0.5665    0.0000 H   0  0  0  0  0  0  0  0  0  0  0  0
    1.9174   -2.7227    0.0000 H   0  0  0  0  0  0  0  0  0  0  0  0
    2.6077   -3.1212    0.0000 H   0  0  0  0  0  0  0  0  0  0  0  0
    1.5250   -1.2461    0.0000 H   0  0  0  0  0  0  0  0  0  0  0  0
    1.5250   -2.0431    0.0000 H   0  0  0  0  0  0  0  0  0  0  0  0
    4.3962   -3.0433    0.0000 H   0  0  0  0  0  0  0  0  0  0  0  0
    6.6946   -0.0428    0.0000 H   0  0  0  0  0  0  0  0  0  0  0  0
    5.9019   -0.1261    0.0000 H   0  0  0  0  0  0  0  0  0  0  0  0
    9.2131   -1.2744    0.0000 H   0  0  0  0  0  0  0  0  0  0  0  0
    7.6258    1.7136    0.0000 H   0  0  0  0  0  0  0  0  0  0  0  0
    6.7598    1.5764    0.0000 H   0  0  0  0  0  0  0  0  0  0  0  0
    6.8970    0.7104    0.0000 H   0  0  0  0  0  0  0  0  0  0  0  0
   10.6093   -0.4958    0.0000 H   0  0  0  0  0  0  0  0  0  0  0  0
   11.2293    0.1242    0.0000 H   0  0  0  0  0  0  0  0  0  0  0  0
   10.6093    0.7442    0.0000 H   0  0  0  0  0  0  0  0  0  0  0  0
   11.2073    2.8517    0.0000 H   0  0  0  0  0  0  0  0  0  0  0  0
   10.8092    3.6329    0.0000 H   0  0  0  0  0  0  0  0  0  0  0  0
   10.0280    3.2349    0.0000 H   0  0  0  0  0  0  0  0  0  0  0  0
  1 15  2  0  0  0  0
  2 16  2  0  0  0  0
  3 18  2  0  0  0  0
  4 25  1  0  0  0  0
  4 26  1  0  0  0  0
  5 25  2  0  0  0  0
  6  9  1  0  0  0  0
  6 16  1  0  0  0  0
  6 37  1  0  0  0  0
  7 15  1  0  0  0  0
  7 16  1  0  0  0  0
  7 17  1  0  0  0  0
  8 19  1  0  0  0  0
  8 22  1  0  0  0  0
  8 40  1  0  0  0  0
  9 10  1  0  0  0  0
  9 11  1  0  0  0  0
  9 15  1  0  0  0  0
 10 12  1  0  0  0  0
 10 29  1  0  0  0  0
 10 30  1  0  0  0  0
 11 13  1  0  0  0  0
 11 27  1  0  0  0  0
 11 28  1  0  0  0  0
 12 14  1  0  0  0  0
 12 33  1  0  0  0  0
 12 34  1  0  0  0  0
 13 14  1  0  0  0  0
 13 31  1  0  0  0  0
 13 32  1  0  0  0  0
 14 35  1  0  0  0  0
 14 36  1  0  0  0  0
 17 18  1  0  0  0  0
 17 38  1  0  0  0  0
 17 39  1  0  0  0  0
 18 19  1  0  0  0  0
 19 20  2  0  0  0  0
 20 21  1  0  0  0  0
 20 23  1  0  0  0  0
 21 22  2  0  0  0  0
 21 25  1  0  0  0  0
 22 24  1  0  0  0  0
 23 41  1  0  0  0  0
 23 42  1  0  0  0  0
 23 43  1  0  0  0  0
 24 44  1  0  0  0  0
 24 45  1  0  0  0  0
 24 46  1  0  0  0  0
 26 47  1  0  0  0  0
 26 48  1  0  0  0  0
 26 49  1  0  0  0  0
M  END
> <PUBCHEM_COMPOUND_CID>
17396230

> <PUBCHEM_COMPOUND_CANONICALIZED>
1

> <PUBCHEM_CACTVS_COMPLEXITY>
628

> <PUBCHEM_CACTVS_HBOND_ACCEPTOR>
5

> <PUBCHEM_CACTVS_HBOND_DONOR>
2

> <PUBCHEM_CACTVS_ROTATABLE_BOND>
5

> <PUBCHEM_CACTVS_SUBSKEYS>
AAADceB7OAAAAAAAAAAAAAAAAAAAAWLAAAAwAAAAAAAAAAABgAAAHgAQAAAADIzBngYDiJPJlACoA4XwXACCgCAnACAAmSG4TNiIZnrA9LmUEYhu1yPI6Ue8zwC+gAAAAAAAAAAAAAAAAAAAAAAAAAAAAA==

> <PUBCHEM_IUPAC_OPENEYE_NAME>
methyl 5-[2-(2,4-dioxo-1,3-diazaspiro[4.5]decan-3-yl)acetyl]-2,4-dimethyl-1H-pyrrole-3-carboxylate

> <PUBCHEM_IUPAC_CAS_NAME>
5-[2-(2,4-dioxo-1,3-diazaspiro[4.5]decan-3-yl)-1-oxoethyl]-2,4-dimethyl-1H-pyrrole-3-carboxylic acid methyl ester

> <PUBCHEM_IUPAC_NAME>
methyl 5-[2-(2,4-dioxo-1,3-diazaspiro[4.5]decan-3-yl)acetyl]-2,4-dimethyl-1H-pyrrole-3-carboxylate

> <PUBCHEM_IUPAC_SYSTEMATIC_NAME>
methyl 5-[2-[2,4-bis(oxidanylidene)-1,3-diazaspiro[4.5]decan-3-yl]ethanoyl]-2,4-dimethyl-1H-pyrrole-3-carboxylate

> <PUBCHEM_IUPAC_TRADITIONAL_NAME>
5-[2-(2,4-diketo-1,3-diazaspiro[4.5]decan-3-yl)acetyl]-2,4-dimethyl-1H-pyrrole-3-carboxylic acid methyl ester

> <PUBCHEM_IUPAC_INCHI>
InChI=1S/C18H23N3O5/c1-10-13(15(23)26-3)11(2)19-14(10)12(22)9-21-16(24)18(20-17(21)25)7-5-4-6-8-18/h19H,4-9H2,1-3H3,(H,20,25)

> <PUBCHEM_IUPAC_INCHIKEY>
APQAYSHAARPBBQ-UHFFFAOYSA-N

> <PUBCHEM_XLOGP3_AA>
1.9

> <PUBCHEM_EXACT_MASS>
361.163771

> <PUBCHEM_MOLECULAR_FORMULA>
C18H23N3O5

> <PUBCHEM_MOLECULAR_WEIGHT>
361.39232

> <PUBCHEM_OPENEYE_CAN_SMILES>
CC1=C(NC(=C1C(=O)OC)C)C(=O)CN2C(=O)C3(CCCCC3)NC2=O

> <PUBCHEM_OPENEYE_ISO_SMILES>
CC1=C(NC(=C1C(=O)OC)C)C(=O)CN2C(=O)C3(CCCCC3)NC2=O

> <PUBCHEM_CACTVS_TPSA>
109

> <PUBCHEM_MONOISOTOPIC_WEIGHT>
361.163771

> <PUBCHEM_TOTAL_CHARGE>
0

> <PUBCHEM_HEAVY_ATOM_COUNT>
26

> <PUBCHEM_ATOM_DEF_STEREO_COUNT>
0

> <PUBCHEM_ATOM_UDEF_STEREO_COUNT>
0

> <PUBCHEM_BOND_DEF_STEREO_COUNT>
0

> <PUBCHEM_BOND_UDEF_STEREO_COUNT>
0

> <PUBCHEM_ISOTOPIC_ATOM_COUNT>
0

> <PUBCHEM_COMPONENT_COUNT>
1

> <PUBCHEM_CACTVS_TAUTO_COUNT>
66

> <PUBCHEM_COORDINATE_TYPE>
1
5
255

> <PUBCHEM_BONDANNOTATIONS>
19  20  8
20  21  8
21  22  8
8  19  8
8  22  8

$$$$

