23724545
  -OEChem-07051213072D

 74 74  0     1  0  0  0  0  0999 V2000
    6.5435   -0.8719    0.0000 O   0  0  0  0  0  0  0  0  0  0  0  0
    6.6298   -1.6412    0.0000 O   0  0  0  0  0  0  0  0  0  0  0  0
    5.2280    2.4851    0.0000 O   0  0  0  0  0  0  0  0  0  0  0  0
    7.4776    5.3028    0.0000 O   0  0  0  0  0  0  0  0  0  0  0  0
    8.5320    3.9287    0.0000 O   0  0  0  0  0  0  0  0  0  0  0  0
    3.3660   -5.6802    0.0000 O   0  0  0  0  0  0  0  0  0  0  0  0
    6.2824    1.1110    0.0000 N   0  0  0  0  0  0  0  0  0  0  0  0
    6.1815   -3.3142    0.0000 N   0  0  0  0  0  0  0  0  0  0  0  0
    4.8263   -1.0980    0.0000 N   0  0  0  0  0  0  0  0  0  0  0  0
    6.9453    2.7112    0.0000 N   0  0  0  0  0  0  0  0  0  0  0  0
    2.5000   -4.1802    0.0000 N   0  0  0  0  0  0  0  0  0  0  0  0
    5.4891    0.5022    0.0000 C   0  0  3  0  0  0  0  0  0  0  0  0
    4.5652    0.8849    0.0000 C   0  0  0  0  0  0  0  0  0  0  0  0
    5.9641   -4.1802    0.0000 C   0  0  3  0  0  0  0  0  0  0  0  0
    6.8350   -4.6717    0.0000 C   0  0  0  0  0  0  0  0  0  0  0  0
    4.9568   -2.0895    0.0000 C   0  0  3  0  0  0  0  0  0  0  0  0
    5.6196   -0.4893    0.0000 C   0  0  0  0  0  0  0  0  0  0  0  0
    6.8148    3.7026    0.0000 C   0  0  3  0  0  0  0  0  0  0  0  0
    5.8909    4.0853    0.0000 C   0  0  0  0  0  0  0  0  0  0  0  0
    4.4347    1.8763    0.0000 C   0  0  0  0  0  0  0  0  0  0  0  0
    3.7719    0.2761    0.0000 C   0  0  0  0  0  0  0  0  0  0  0  0
    5.9227   -2.3483    0.0000 C   0  0  0  0  0  0  0  0  0  0  0  0
    6.8448   -5.6717    0.0000 C   0  0  0  0  0  0  0  0  0  0  0  0
    7.6961   -4.1632    0.0000 C   0  0  0  0  0  0  0  0  0  0  0  0
    5.0981   -4.6802    0.0000 C   0  0  0  0  0  0  0  0  0  0  0  0
    6.1519    2.1024    0.0000 C   0  0  0  0  0  0  0  0  0  0  0  0
    4.0908   -2.5895    0.0000 C   0  0  0  0  0  0  0  0  0  0  0  0
    5.7603    5.0767    0.0000 C   0  0  0  0  0  0  0  0  0  0  0  0
    5.0975    3.4765    0.0000 C   0  0  0  0  0  0  0  0  0  0  0  0
    7.6081    4.3114    0.0000 C   0  0  0  0  0  0  0  0  0  0  0  0
    3.2247   -2.0895    0.0000 C   0  0  0  0  0  0  0  0  0  0  0  0
    2.2588   -2.3483    0.0000 C   0  0  0  0  0  0  0  0  0  0  0  0
    4.2320   -4.1802    0.0000 C   0  0  0  0  0  0  0  0  0  0  0  0
    2.0000   -3.3142    0.0000 C   0  0  0  0  0  0  0  0  0  0  0  0
    3.3660   -4.6802    0.0000 C   0  0  0  0  0  0  0  0  0  0  0  0
    5.4082    1.1169    0.0000 H   0  0  0  0  0  0  0  0  0  0  0  0
    3.9924    1.1221    0.0000 H   0  0  0  0  0  0  0  0  0  0  0  0
    6.5338   -3.9357    0.0000 H   0  0  0  0  0  0  0  0  0  0  0  0
    6.8289   -4.0518    0.0000 H   0  0  0  0  0  0  0  0  0  0  0  0
    4.4007   -1.8152    0.0000 H   0  0  0  0  0  0  0  0  0  0  0  0
    6.8553    0.8737    0.0000 H   0  0  0  0  0  0  0  0  0  0  0  0
    7.3876    3.4653    0.0000 H   0  0  0  0  0  0  0  0  0  0  0  0
    6.3828    4.4627    0.0000 H   0  0  0  0  0  0  0  0  0  0  0  0
    5.0494    1.9572    0.0000 H   0  0  0  0  0  0  0  0  0  0  0  0
    4.3538    2.4910    0.0000 H   0  0  0  0  0  0  0  0  0  0  0  0
    3.8200    1.7954    0.0000 H   0  0  0  0  0  0  0  0  0  0  0  0
    3.3944    0.7680    0.0000 H   0  0  0  0  0  0  0  0  0  0  0  0
    3.2800   -0.1013    0.0000 H   0  0  0  0  0  0  0  0  0  0  0  0
    4.1493   -0.2158    0.0000 H   0  0  0  0  0  0  0  0  0  0  0  0
    6.7883   -3.4415    0.0000 H   0  0  0  0  0  0  0  0  0  0  0  0
    4.2535   -0.8608    0.0000 H   0  0  0  0  0  0  0  0  0  0  0  0
    6.2248   -5.6777    0.0000 H   0  0  0  0  0  0  0  0  0  0  0  0
    6.8509   -6.2916    0.0000 H   0  0  0  0  0  0  0  0  0  0  0  0
    7.4648   -5.6656    0.0000 H   0  0  0  0  0  0  0  0  0  0  0  0
    8.0113   -4.6971    0.0000 H   0  0  0  0  0  0  0  0  0  0  0  0
    8.2299   -3.8480    0.0000 H   0  0  0  0  0  0  0  0  0  0  0  0
    7.3808   -3.6294    0.0000 H   0  0  0  0  0  0  0  0  0  0  0  0
    5.0981   -5.3002    0.0000 H   0  0  0  0  0  0  0  0  0  0  0  0
    7.5181    2.4739    0.0000 H   0  0  0  0  0  0  0  0  0  0  0  0
    3.8788   -3.1721    0.0000 H   0  0  0  0  0  0  0  0  0  0  0  0
    4.7201    3.9684    0.0000 H   0  0  0  0  0  0  0  0  0  0  0  0
    4.6056    3.0991    0.0000 H   0  0  0  0  0  0  0  0  0  0  0  0
    5.4750    2.9846    0.0000 H   0  0  0  0  0  0  0  0  0  0  0  0
    6.3750    5.1576    0.0000 H   0  0  0  0  0  0  0  0  0  0  0  0
    5.6794    5.6914    0.0000 H   0  0  0  0  0  0  0  0  0  0  0  0
    5.1456    4.9958    0.0000 H   0  0  0  0  0  0  0  0  0  0  0  0
    3.3057   -1.4748    0.0000 H   0  0  0  0  0  0  0  0  0  0  0  0
    2.2048   -1.7306    0.0000 H   0  0  0  0  0  0  0  0  0  0  0  0
    1.6412   -2.2942    0.0000 H   0  0  0  0  0  0  0  0  0  0  0  0
    3.7571   -3.7817    0.0000 H   0  0  0  0  0  0  0  0  0  0  0  0
    1.4631   -3.0042    0.0000 H   0  0  0  0  0  0  0  0  0  0  0  0
    1.5616   -3.7526    0.0000 H   0  0  0  0  0  0  0  0  0  0  0  0
    2.0616   -4.6186    0.0000 H   0  0  0  0  0  0  0  0  0  0  0  0
    7.9695    5.6802    0.0000 H   0  0  0  0  0  0  0  0  0  0  0  0
  1 17  2  0  0  0  0
  2 22  2  0  0  0  0
  3 26  2  0  0  0  0
  4 30  1  0  0  0  0
  4 74  1  0  0  0  0
  5 30  2  0  0  0  0
  6 35  2  0  0  0  0
  7 12  1  0  0  0  0
  7 26  1  0  0  0  0
  7 41  1  0  0  0  0
  8 14  1  0  0  0  0
  8 22  1  0  0  0  0
  8 50  1  0  0  0  0
  9 16  1  0  0  0  0
  9 17  1  0  0  0  0
  9 51  1  0  0  0  0
 10 18  1  0  0  0  0
 10 26  1  0  0  0  0
 10 59  1  0  0  0  0
 11 34  1  0  0  0  0
 11 35  1  0  0  0  0
 11 73  1  0  0  0  0
 12 13  1  0  0  0  0
 12 17  1  0  0  0  0
 12 36  1  0  0  0  0
 13 20  1  0  0  0  0
 13 21  1  0  0  0  0
 13 37  1  0  0  0  0
 14 15  1  0  0  0  0
 14 25  1  0  0  0  0
 14 38  1  0  0  0  0
 15 23  1  0  0  0  0
 15 24  1  0  0  0  0
 15 39  1  0  0  0  0
 16 22  1  0  0  0  0
 16 27  1  0  0  0  0
 16 40  1  0  0  0  0
 18 19  1  0  0  0  0
 18 30  1  0  0  0  0
 18 42  1  0  0  0  0
 19 28  1  0  0  0  0
 19 29  1  0  0  0  0
 19 43  1  0  0  0  0
 20 44  1  0  0  0  0
 20 45  1  0  0  0  0
 20 46  1  0  0  0  0
 21 47  1  0  0  0  0
 21 48  1  0  0  0  0
 21 49  1  0  0  0  0
 23 52  1  0  0  0  0
 23 53  1  0  0  0  0
 23 54  1  0  0  0  0
 24 55  1  0  0  0  0
 24 56  1  0  0  0  0
 24 57  1  0  0  0  0
 25 33  2  0  0  0  0
 25 58  1  0  0  0  0
 27 31  2  0  0  0  0
 27 60  1  0  0  0  0
 28 64  1  0  0  0  0
 28 65  1  0  0  0  0
 28 66  1  0  0  0  0
 29 61  1  0  0  0  0
 29 62  1  0  0  0  0
 29 63  1  0  0  0  0
 31 32  1  0  0  0  0
 31 67  1  0  0  0  0
 32 34  1  0  0  0  0
 32 68  1  0  0  0  0
 32 69  1  0  0  0  0
 33 35  1  0  0  0  0
 33 70  1  0  0  0  0
 34 71  1  0  0  0  0
 34 72  1  0  0  0  0
M  END
> <PUBCHEM_COMPOUND_CID>
23724545

> <PUBCHEM_COMPOUND_CANONICALIZED>
1

> <PUBCHEM_CACTVS_COMPLEXITY>
836

> <PUBCHEM_CACTVS_HBOND_ACCEPTOR>
6

> <PUBCHEM_CACTVS_HBOND_DONOR>
6

> <PUBCHEM_CACTVS_ROTATABLE_BOND>
8

> <PUBCHEM_CACTVS_SUBSKEYS>
AAADcfB7uAAAAAAAAAAAAAAAAAAAAAAAAAAAAAAAAAAAAAAAAAAAHgAQCAAADSjBgAQDCALAAgCIACHSGACAAAAgAAAICIGIAEiCQBAAgSAUQAAMlgKYAYIAAAAIAAAAAAAAAAAAAAAAAAAAAAAAAAAAAA==

> <PUBCHEM_IUPAC_OPENEYE_NAME>
2-[[1-[[(3E,9E)-5-isopropyl-2,7-dioxo-1,6-diazacyclododeca-3,9-dien-8-yl]carbamoyl]-2-methyl-propyl]carbamoylamino]-3-methyl-butanoic acid

> <PUBCHEM_IUPAC_CAS_NAME>
2-[[[[1-[[(3E,9E)-2,7-dioxo-5-propan-2-yl-1,6-diazacyclododeca-3,9-dien-8-yl]amino]-3-methyl-1-oxobutan-2-yl]amino]-oxomethyl]amino]-3-methylbutanoic acid

> <PUBCHEM_IUPAC_NAME>
2-[[1-[[(3E,9E)-2,7-dioxo-5-propan-2-yl-1,6-diazacyclododeca-3,9-dien-8-yl]amino]-3-methyl-1-oxobutan-2-yl]carbamoylamino]-3-methylbutanoic acid

> <PUBCHEM_IUPAC_SYSTEMATIC_NAME>
2-[[1-[[(3E,9E)-2,7-bis(oxidanylidene)-5-propan-2-yl-1,6-diazacyclododeca-3,9-dien-8-yl]amino]-3-methyl-1-oxidanylidene-butan-2-yl]carbamoylamino]-3-methyl-butanoic acid

> <PUBCHEM_IUPAC_TRADITIONAL_NAME>
2-[[1-[[(3E,9E)-5-isopropyl-2,7-diketo-1,6-diazacyclododeca-3,9-dien-8-yl]carbamoyl]-2-methyl-propyl]carbamoylamino]-3-methyl-butyric acid

> <PUBCHEM_IUPAC_INCHI>
InChI=1S/C24H39N5O6/c1-13(2)16-10-11-18(30)25-12-8-7-9-17(21(31)26-16)27-22(32)19(14(3)4)28-24(35)29-20(15(5)6)23(33)34/h7,9-11,13-17,19-20H,8,12H2,1-6H3,(H,25,30)(H,26,31)(H,27,32)(H,33,34)(H2,28,29,35)/b9-7+,11-10+

> <PUBCHEM_IUPAC_INCHIKEY>
RUWSLQOIGKYPEZ-RJECPTDASA-N

> <PUBCHEM_XLOGP3_AA>
2.3

> <PUBCHEM_EXACT_MASS>
493.290034

> <PUBCHEM_MOLECULAR_FORMULA>
C24H39N5O6

> <PUBCHEM_MOLECULAR_WEIGHT>
493.59636

> <PUBCHEM_OPENEYE_CAN_SMILES>
CC(C)C1C=CC(=O)NCCC=CC(C(=O)N1)NC(=O)C(C(C)C)NC(=O)NC(C(C)C)C(=O)O

> <PUBCHEM_OPENEYE_ISO_SMILES>
CC(C)C1/C=C/C(=O)NCC/C=C/C(C(=O)N1)NC(=O)C(C(C)C)NC(=O)NC(C(C)C)C(=O)O

> <PUBCHEM_CACTVS_TPSA>
166

> <PUBCHEM_MONOISOTOPIC_WEIGHT>
493.290034

> <PUBCHEM_TOTAL_CHARGE>
0

> <PUBCHEM_HEAVY_ATOM_COUNT>
35

> <PUBCHEM_ATOM_DEF_STEREO_COUNT>
0

> <PUBCHEM_ATOM_UDEF_STEREO_COUNT>
4

> <PUBCHEM_BOND_DEF_STEREO_COUNT>
2

> <PUBCHEM_BOND_UDEF_STEREO_COUNT>
0

> <PUBCHEM_ISOTOPIC_ATOM_COUNT>
0

> <PUBCHEM_COMPONENT_COUNT>
1

> <PUBCHEM_CACTVS_TAUTO_COUNT>
36

> <PUBCHEM_COORDINATE_TYPE>
1
5
255

> <PUBCHEM_BONDANNOTATIONS>
12  13  3
14  15  3
18  30  3
16  9  3

$$$$

