243749
  -OEChem-07051213062D

 62 65  0     1  0  0  0  0  0999 V2000
    9.7142    1.7643    0.0000 O   0  0  0  0  0  0  0  0  0  0  0  0
    3.7320   -3.2876    0.0000 O   0  0  0  0  0  0  0  0  0  0  0  0
   11.6712    2.1767    0.0000 O   0  0  0  0  0  0  0  0  0  0  0  0
    2.8718   -1.7843    0.0000 O   0  0  0  0  0  0  0  0  0  0  0  0
   13.3175    1.6386    0.0000 O   0  0  0  0  0  0  0  0  0  0  0  0
    9.1251   -0.2353    0.0000 C   0  0  1  0  0  0  0  0  0  0  0  0
    9.1251   -1.2353    0.0000 C   0  0  1  0  0  0  0  0  0  0  0  0
   10.0713    0.0695    0.0000 C   0  0  2  0  0  0  0  0  0  0  0  0
   10.0713   -1.5400    0.0000 C   0  0  0  0  0  0  0  0  0  0  0  0
   10.6550   -0.7353    0.0000 C   0  0  0  0  0  0  0  0  0  0  0  0
    8.2591    0.2647    0.0000 C   0  0  0  0  0  0  0  0  0  0  0  0
    8.2591   -1.7353    0.0000 C   0  0  0  0  0  0  0  0  0  0  0  0
    6.4831   -1.7421    0.0000 C   0  0  2  0  0  0  0  0  0  0  0  0
    7.3931   -1.2353    0.0000 C   0  0  0  0  0  0  0  0  0  0  0  0
    9.1251    0.7647    0.0000 C   0  0  0  0  0  0  0  0  0  0  0  0
    7.3931   -0.2353    0.0000 C   0  0  0  0  0  0  0  0  0  0  0  0
    6.4750   -2.7837    0.0000 C   0  0  0  0  0  0  0  0  0  0  0  0
    5.5562   -1.1780    0.0000 C   0  0  0  0  0  0  0  0  0  0  0  0
   10.3820    1.0200    0.0000 C   0  0  0  0  0  0  0  0  0  0  0  0
    8.2752   -2.7768    0.0000 C   0  0  0  0  0  0  0  0  0  0  0  0
    5.5396   -3.3334    0.0000 C   0  0  0  0  0  0  0  0  0  0  0  0
    4.6084   -1.7060    0.0000 C   0  0  0  0  0  0  0  0  0  0  0  0
    6.4908   -0.7422    0.0000 C   0  0  0  0  0  0  0  0  0  0  0  0
    7.3771   -3.3045    0.0000 C   0  0  0  0  0  0  0  0  0  0  0  0
    4.6000   -2.7910    0.0000 C   0  0  2  0  0  0  0  0  0  0  0  0
   11.3605    1.2262    0.0000 C   0  0  0  0  0  0  0  0  0  0  0  0
    2.8680   -2.7843    0.0000 C   0  0  0  0  0  0  0  0  0  0  0  0
   12.6497    2.3829    0.0000 C   0  0  0  0  0  0  0  0  0  0  0  0
    2.0000   -3.2809    0.0000 C   0  0  0  0  0  0  0  0  0  0  0  0
   12.9603    3.3334    0.0000 C   0  0  0  0  0  0  0  0  0  0  0  0
    9.2151   -2.0805    0.0000 H   0  0  0  0  0  0  0  0  0  0  0  0
    9.6339    0.5088    0.0000 H   0  0  0  0  0  0  0  0  0  0  0  0
    9.8203   -2.1069    0.0000 H   0  0  0  0  0  0  0  0  0  0  0  0
   10.6087   -1.8492    0.0000 H   0  0  0  0  0  0  0  0  0  0  0  0
   11.1158   -1.1500    0.0000 H   0  0  0  0  0  0  0  0  0  0  0  0
   11.1158   -0.3206    0.0000 H   0  0  0  0  0  0  0  0  0  0  0  0
    8.6576    0.7397    0.0000 H   0  0  0  0  0  0  0  0  0  0  0  0
    7.8606    0.7397    0.0000 H   0  0  0  0  0  0  0  0  0  0  0  0
    9.7451    0.7647    0.0000 H   0  0  0  0  0  0  0  0  0  0  0  0
    9.1251    1.3847    0.0000 H   0  0  0  0  0  0  0  0  0  0  0  0
    8.5051    0.7647    0.0000 H   0  0  0  0  0  0  0  0  0  0  0  0
    6.8561    0.0747    0.0000 H   0  0  0  0  0  0  0  0  0  0  0  0
    5.9644   -0.7114    0.0000 H   0  0  0  0  0  0  0  0  0  0  0  0
    5.1663   -0.6960    0.0000 H   0  0  0  0  0  0  0  0  0  0  0  0
    8.8156   -3.0806    0.0000 H   0  0  0  0  0  0  0  0  0  0  0  0
    5.1423   -3.8094    0.0000 H   0  0  0  0  0  0  0  0  0  0  0  0
    5.9406   -3.8063    0.0000 H   0  0  0  0  0  0  0  0  0  0  0  0
    4.4038   -1.1207    0.0000 H   0  0  0  0  0  0  0  0  0  0  0  0
    3.9967   -1.8074    0.0000 H   0  0  0  0  0  0  0  0  0  0  0  0
    7.1108   -0.7469    0.0000 H   0  0  0  0  0  0  0  0  0  0  0  0
    6.4956   -0.1222    0.0000 H   0  0  0  0  0  0  0  0  0  0  0  0
    5.8708   -0.7374    0.0000 H   0  0  0  0  0  0  0  0  0  0  0  0
    7.3795   -3.9245    0.0000 H   0  0  0  0  0  0  0  0  0  0  0  0
    4.0648   -2.4778    0.0000 H   0  0  0  0  0  0  0  0  0  0  0  0
   11.3811    0.6065    0.0000 H   0  0  0  0  0  0  0  0  0  0  0  0
   11.9743    1.1388    0.0000 H   0  0  0  0  0  0  0  0  0  0  0  0
    1.6921   -2.7428    0.0000 H   0  0  0  0  0  0  0  0  0  0  0  0
    1.4619   -3.5889    0.0000 H   0  0  0  0  0  0  0  0  0  0  0  0
    2.3079   -3.8191    0.0000 H   0  0  0  0  0  0  0  0  0  0  0  0
   13.5497    3.1408    0.0000 H   0  0  0  0  0  0  0  0  0  0  0  0
   13.1530    3.9228    0.0000 H   0  0  0  0  0  0  0  0  0  0  0  0
   12.3710    3.5261    0.0000 H   0  0  0  0  0  0  0  0  0  0  0  0
  1 19  2  0  0  0  0
 25  2  1  1  0  0  0
  2 27  1  0  0  0  0
  3 26  1  0  0  0  0
  3 28  1  0  0  0  0
  4 27  2  0  0  0  0
  5 28  2  0  0  0  0
  6  7  1  0  0  0  0
  6  8  1  0  0  0  0
  6 11  1  0  0  0  0
  6 15  1  1  0  0  0
  7  9  1  0  0  0  0
  7 12  1  0  0  0  0
  7 31  1  6  0  0  0
  8 10  1  0  0  0  0
  8 19  1  1  0  0  0
  8 32  1  0  0  0  0
  9 10  1  0  0  0  0
  9 33  1  0  0  0  0
  9 34  1  0  0  0  0
 10 35  1  0  0  0  0
 10 36  1  0  0  0  0
 11 16  1  0  0  0  0
 11 37  1  0  0  0  0
 11 38  1  0  0  0  0
 12 14  1  0  0  0  0
 12 20  2  0  0  0  0
 13 14  1  0  0  0  0
 13 17  1  0  0  0  0
 13 18  1  0  0  0  0
 13 23  1  1  0  0  0
 14 16  2  0  0  0  0
 15 39  1  0  0  0  0
 15 40  1  0  0  0  0
 15 41  1  0  0  0  0
 16 42  1  0  0  0  0
 17 21  1  0  0  0  0
 17 24  2  0  0  0  0
 18 22  1  0  0  0  0
 18 43  1  0  0  0  0
 18 44  1  0  0  0  0
 19 26  1  0  0  0  0
 20 24  1  0  0  0  0
 20 45  1  0  0  0  0
 21 25  1  0  0  0  0
 21 46  1  0  0  0  0
 21 47  1  0  0  0  0
 22 25  1  0  0  0  0
 22 48  1  0  0  0  0
 22 49  1  0  0  0  0
 23 50  1  0  0  0  0
 23 51  1  0  0  0  0
 23 52  1  0  0  0  0
 24 53  1  0  0  0  0
 25 54  1  0  0  0  0
 26 55  1  0  0  0  0
 26 56  1  0  0  0  0
 27 29  1  0  0  0  0
 28 30  1  0  0  0  0
 29 57  1  0  0  0  0
 29 58  1  0  0  0  0
 29 59  1  0  0  0  0
 30 60  1  0  0  0  0
 30 61  1  0  0  0  0
 30 62  1  0  0  0  0
M  END
> <PUBCHEM_COMPOUND_CID>
243749

> <PUBCHEM_COMPOUND_CANONICALIZED>
1

> <PUBCHEM_CACTVS_COMPLEXITY>
878

> <PUBCHEM_CACTVS_HBOND_ACCEPTOR>
5

> <PUBCHEM_CACTVS_HBOND_DONOR>
0

> <PUBCHEM_CACTVS_ROTATABLE_BOND>
6

> <PUBCHEM_CACTVS_SUBSKEYS>
AAADcfB4OAAAAAAAAAAAAAAAAAAAAYAAAAAwQIAAAAAAAECAAAAAGgAAAAAADxSggAICCAAABACIAqDSCAIAAAAgAAAACAFAAAgIABIAAQQCAAAEwAAIgAOIyPCPgAAAAAAAAABAAAAAAAAAAQAACAAAAA==

> <PUBCHEM_IUPAC_OPENEYE_NAME>
[2-[(3S,10S,13S,14R,17S)-3-acetoxy-10,13-dimethyl-2,3,4,12,14,15,16,17-octahydro-1H-cyclopenta[a]phenanthren-17-yl]-2-oxo-ethyl] acetate

> <PUBCHEM_IUPAC_CAS_NAME>
acetic acid [2-[(3S,10S,13S,14R,17S)-3-acetyloxy-10,13-dimethyl-2,3,4,12,14,15,16,17-octahydro-1H-cyclopenta[a]phenanthren-17-yl]-2-oxoethyl] ester

> <PUBCHEM_IUPAC_NAME>
[2-[(3S,10S,13S,14R,17S)-3-acetyloxy-10,13-dimethyl-2,3,4,12,14,15,16,17-octahydro-1H-cyclopenta[a]phenanthren-17-yl]-2-oxoethyl] acetate

> <PUBCHEM_IUPAC_SYSTEMATIC_NAME>
[2-[(3S,10S,13S,14R,17S)-3-acetyloxy-10,13-dimethyl-2,3,4,12,14,15,16,17-octahydro-1H-cyclopenta[a]phenanthren-17-yl]-2-oxidanylidene-ethyl] ethanoate

> <PUBCHEM_IUPAC_TRADITIONAL_NAME>
acetic acid [2-[(3S,10S,13S,14R,17S)-3-acetoxy-10,13-dimethyl-2,3,4,12,14,15,16,17-octahydro-1H-cyclopenta[a]phenanthren-17-yl]-2-keto-ethyl] ester

> <PUBCHEM_IUPAC_INCHI>
InChI=1S/C25H32O5/c1-15(26)29-14-23(28)22-8-7-20-19-6-5-17-13-18(30-16(2)27)9-11-24(17,3)21(19)10-12-25(20,22)4/h5-6,10,18,20,22H,7-9,11-14H2,1-4H3/t18-,20-,22+,24-,25-/m0/s1

> <PUBCHEM_IUPAC_INCHIKEY>
VFSIJASPRGEZJU-PZLPAFFHSA-N

> <PUBCHEM_XLOGP3_AA>
3.4

> <PUBCHEM_EXACT_MASS>
412.224974

> <PUBCHEM_MOLECULAR_FORMULA>
C25H32O5

> <PUBCHEM_MOLECULAR_WEIGHT>
412.51858

> <PUBCHEM_OPENEYE_CAN_SMILES>
CC(=O)OCC(=O)C1CCC2C1(CC=C3C2=CC=C4C3(CCC(C4)OC(=O)C)C)C

> <PUBCHEM_OPENEYE_ISO_SMILES>
CC(=O)OCC(=O)[C@H]1CC[C@@H]2[C@@]1(CC=C3C2=CC=C4[C@@]3(CC[C@@H](C4)OC(=O)C)C)C

> <PUBCHEM_CACTVS_TPSA>
69.7

> <PUBCHEM_MONOISOTOPIC_WEIGHT>
412.224974

> <PUBCHEM_TOTAL_CHARGE>
0

> <PUBCHEM_HEAVY_ATOM_COUNT>
30

> <PUBCHEM_ATOM_DEF_STEREO_COUNT>
5

> <PUBCHEM_ATOM_UDEF_STEREO_COUNT>
0

> <PUBCHEM_BOND_DEF_STEREO_COUNT>
0

> <PUBCHEM_BOND_UDEF_STEREO_COUNT>
0

> <PUBCHEM_ISOTOPIC_ATOM_COUNT>
0

> <PUBCHEM_COMPONENT_COUNT>
1

> <PUBCHEM_CACTVS_TAUTO_COUNT>
3

> <PUBCHEM_COORDINATE_TYPE>
1
5
255

> <PUBCHEM_BONDANNOTATIONS>
13  23  5
25  2  5
6  15  5
7  31  6
8  19  5

$$$$

