5462194
  -OEChem-07051212492D

 23 22  0     0  0  0  0  0  0999 V2000
    7.1962    0.4400    0.0000 O   0  5  0  0  0  0  0  0  0  0  0  0
    6.3301   -1.0600    0.0000 O   0  0  0  0  0  0  0  0  0  0  0  0
    2.8660   -0.0600    0.0000 N   0  3  0  0  0  0  0  0  0  0  0  0
    3.7320    0.4400    0.0000 C   0  0  0  0  0  0  0  0  0  0  0  0
    2.0000   -0.5600    0.0000 C   0  0  0  0  0  0  0  0  0  0  0  0
    2.3660    0.8060    0.0000 C   0  0  0  0  0  0  0  0  0  0  0  0
    3.3660   -0.9260    0.0000 C   0  0  0  0  0  0  0  0  0  0  0  0
    4.5981   -0.0600    0.0000 C   0  0  0  0  0  0  0  0  0  0  0  0
    5.4641    0.4400    0.0000 C   0  0  0  0  0  0  0  0  0  0  0  0
    6.3301   -0.0600    0.0000 C   0  0  0  0  0  0  0  0  0  0  0  0
    4.1306    0.9149    0.0000 H   0  0  0  0  0  0  0  0  0  0  0  0
    3.3335    0.9149    0.0000 H   0  0  0  0  0  0  0  0  0  0  0  0
    1.6900   -0.0231    0.0000 H   0  0  0  0  0  0  0  0  0  0  0  0
    1.4631   -0.8700    0.0000 H   0  0  0  0  0  0  0  0  0  0  0  0
    2.3100   -1.0969    0.0000 H   0  0  0  0  0  0  0  0  0  0  0  0
    2.9030    1.1160    0.0000 H   0  0  0  0  0  0  0  0  0  0  0  0
    2.0560    1.3430    0.0000 H   0  0  0  0  0  0  0  0  0  0  0  0
    1.8291    0.4960    0.0000 H   0  0  0  0  0  0  0  0  0  0  0  0
    2.8291   -1.2360    0.0000 H   0  0  0  0  0  0  0  0  0  0  0  0
    3.6760   -1.4630    0.0000 H   0  0  0  0  0  0  0  0  0  0  0  0
    3.9030   -0.6160    0.0000 H   0  0  0  0  0  0  0  0  0  0  0  0
    4.5981   -0.6800    0.0000 H   0  0  0  0  0  0  0  0  0  0  0  0
    5.4641    1.0600    0.0000 H   0  0  0  0  0  0  0  0  0  0  0  0
  1 10  1  0  0  0  0
  2 10  2  0  0  0  0
  3  4  1  0  0  0  0
  3  5  1  0  0  0  0
  3  6  1  0  0  0  0
  3  7  1  0  0  0  0
  4  8  1  0  0  0  0
  4 11  1  0  0  0  0
  4 12  1  0  0  0  0
  5 13  1  0  0  0  0
  5 14  1  0  0  0  0
  5 15  1  0  0  0  0
  6 16  1  0  0  0  0
  6 17  1  0  0  0  0
  6 18  1  0  0  0  0
  7 19  1  0  0  0  0
  7 20  1  0  0  0  0
  7 21  1  0  0  0  0
  8  9  2  0  0  0  0
  8 22  1  0  0  0  0
  9 10  1  0  0  0  0
  9 23  1  0  0  0  0
M  CHG  2   1  -1   3   1
M  END
> <PUBCHEM_COMPOUND_CID>
5462194

> <PUBCHEM_COMPOUND_CANONICALIZED>
1

> <PUBCHEM_CACTVS_COMPLEXITY>
139

> <PUBCHEM_CACTVS_HBOND_ACCEPTOR>
2

> <PUBCHEM_CACTVS_HBOND_DONOR>
0

> <PUBCHEM_CACTVS_ROTATABLE_BOND>
2

> <PUBCHEM_CACTVS_SUBSKEYS>
AAADccBiMAAAAAAAAAAAAAAAAAAAAAAAAAAAAAAAAAAAAAAAAAAAHgAAAAAACADBgAQCCAMAAACIACDSCACAAAAAAAAICAAIAEAABAAAAQAAEAAAAAAAAYAAAAAAAAAAAAAAAAAAAAAAAAAAAAAAAAAAAA==

> <PUBCHEM_IUPAC_OPENEYE_NAME>
(E)-4-(trimethylammonio)but-2-enoate

> <PUBCHEM_IUPAC_CAS_NAME>
(E)-4-(trimethylammonio)-2-butenoate

> <PUBCHEM_IUPAC_NAME>
(E)-4-(trimethylazaniumyl)but-2-enoate

> <PUBCHEM_IUPAC_SYSTEMATIC_NAME>
(E)-4-(trimethylazaniumyl)but-2-enoate

> <PUBCHEM_IUPAC_TRADITIONAL_NAME>
(E)-4-(trimethylammonio)but-2-enoate

> <PUBCHEM_IUPAC_INCHI>
InChI=1S/C7H13NO2/c1-8(2,3)6-4-5-7(9)10/h4-5H,6H2,1-3H3/b5-4+

> <PUBCHEM_IUPAC_INCHIKEY>
GUYHPGUANSLONG-SNAWJCMRSA-N

> <PUBCHEM_XLOGP3_AA>
0.7

> <PUBCHEM_EXACT_MASS>
143.094629

> <PUBCHEM_MOLECULAR_FORMULA>
C7H13NO2

> <PUBCHEM_MOLECULAR_WEIGHT>
143.18362

> <PUBCHEM_OPENEYE_CAN_SMILES>
C[N+](C)(C)CC=CC(=O)[O-]

> <PUBCHEM_OPENEYE_ISO_SMILES>
C[N+](C)(C)C/C=C/C(=O)[O-]

> <PUBCHEM_CACTVS_TPSA>
40.1

> <PUBCHEM_MONOISOTOPIC_WEIGHT>
143.094629

> <PUBCHEM_TOTAL_CHARGE>
0

> <PUBCHEM_HEAVY_ATOM_COUNT>
10

> <PUBCHEM_ATOM_DEF_STEREO_COUNT>
0

> <PUBCHEM_ATOM_UDEF_STEREO_COUNT>
0

> <PUBCHEM_BOND_DEF_STEREO_COUNT>
1

> <PUBCHEM_BOND_UDEF_STEREO_COUNT>
0

> <PUBCHEM_ISOTOPIC_ATOM_COUNT>
0

> <PUBCHEM_COMPONENT_COUNT>
1

> <PUBCHEM_CACTVS_TAUTO_COUNT>
1

> <PUBCHEM_COORDINATE_TYPE>
1
5
255

$$$$

