44602459
  -OEChem-07051213153D

 39 38  0     1  0  0  0  0  0999 V2000
    0.1136   -3.2189   -1.5563 O   0  0  0  0  0  0  0  0  0  0  0  0
    2.5293   -0.8754    1.6153 O   0  0  0  0  0  0  0  0  0  0  0  0
   -1.1080   -4.1911    0.0907 O   0  0  0  0  0  0  0  0  0  0  0  0
    2.3900    2.4062    1.2947 O   0  0  0  0  0  0  0  0  0  0  0  0
    4.3978    2.7187    0.2894 O   0  0  0  0  0  0  0  0  0  0  0  0
    1.1461   -1.4354   -0.1679 N   0  0  0  0  0  0  0  0  0  0  0  0
   -3.5746    0.9759   -0.5191 N   0  0  0  0  0  0  0  0  0  0  0  0
    3.2687    1.8124   -2.0707 N   0  0  0  0  0  0  0  0  0  0  0  0
   -4.9834    2.0834    1.0808 N   0  0  0  0  0  0  0  0  0  0  0  0
   -5.2757    2.4159   -1.1552 N   0  0  0  0  0  0  0  0  0  0  0  0
    0.1611   -2.1698    0.5851 C   0  0  1  0  0  0  0  0  0  0  0  0
   -0.9720   -1.2755    1.0963 C   0  0  0  0  0  0  0  0  0  0  0  0
   -1.7685   -0.5746   -0.0108 C   0  0  0  0  0  0  0  0  0  0  0  0
   -2.8485    0.3286    0.5749 C   0  0  0  0  0  0  0  0  0  0  0  0
    3.1501   -0.1391   -0.5844 C   0  0  0  0  0  0  0  0  0  0  0  0
    2.2561   -0.8456    0.4173 C   0  0  0  0  0  0  0  0  0  0  0  0
    2.7246    1.3151   -0.8041 C   0  0  1  0  0  0  0  0  0  0  0  0
   -0.3469   -3.3074   -0.2808 C   0  0  0  0  0  0  0  0  0  0  0  0
    3.2851    2.2075    0.2913 C   0  0  0  0  0  0  0  0  0  0  0  0
   -4.5449    1.7692   -0.1864 C   0  0  0  0  0  0  0  0  0  0  0  0
    0.6705   -2.6307    1.4401 H   0  0  0  0  0  0  0  0  0  0  0  0
   -0.5499   -0.5152    1.7660 H   0  0  0  0  0  0  0  0  0  0  0  0
   -1.6614   -1.8807    1.6987 H   0  0  0  0  0  0  0  0  0  0  0  0
   -1.0982    0.0268   -0.6368 H   0  0  0  0  0  0  0  0  0  0  0  0
   -2.2342   -1.3166   -0.6703 H   0  0  0  0  0  0  0  0  0  0  0  0
    0.9993   -1.3210   -1.1670 H   0  0  0  0  0  0  0  0  0  0  0  0
    3.1119   -0.7024   -1.5262 H   0  0  0  0  0  0  0  0  0  0  0  0
    4.1840   -0.2067   -0.2229 H   0  0  0  0  0  0  0  0  0  0  0  0
   -3.5332   -0.2762    1.1820 H   0  0  0  0  0  0  0  0  0  0  0  0
   -2.3797    1.0836    1.2178 H   0  0  0  0  0  0  0  0  0  0  0  0
    1.6339    1.4190   -0.8320 H   0  0  0  0  0  0  0  0  0  0  0  0
    2.9171    1.2431   -2.8397 H   0  0  0  0  0  0  0  0  0  0  0  0
    2.9270    2.7579   -2.2408 H   0  0  0  0  0  0  0  0  0  0  0  0
   -0.2299   -3.9446   -2.1199 H   0  0  0  0  0  0  0  0  0  0  0  0
    2.7507    2.9901    1.9956 H   0  0  0  0  0  0  0  0  0  0  0  0
   -5.7586    2.7221    1.2219 H   0  0  0  0  0  0  0  0  0  0  0  0
   -4.5547    1.6953    1.9134 H   0  0  0  0  0  0  0  0  0  0  0  0
   -6.0381    3.0403   -0.9161 H   0  0  0  0  0  0  0  0  0  0  0  0
   -5.0711    2.2852   -2.1400 H   0  0  0  0  0  0  0  0  0  0  0  0
  1 18  1  0  0  0  0
  1 34  1  0  0  0  0
  2 16  2  0  0  0  0
  3 18  2  0  0  0  0
  4 19  1  0  0  0  0
  4 35  1  0  0  0  0
  5 19  2  0  0  0  0
  6 11  1  0  0  0  0
  6 16  1  0  0  0  0
  6 26  1  0  0  0  0
  7 14  1  0  0  0  0
  7 20  2  0  0  0  0
  8 17  1  0  0  0  0
  8 32  1  0  0  0  0
  8 33  1  0  0  0  0
  9 20  1  0  0  0  0
  9 36  1  0  0  0  0
  9 37  1  0  0  0  0
 10 20  1  0  0  0  0
 10 38  1  0  0  0  0
 10 39  1  0  0  0  0
 11 12  1  0  0  0  0
 11 18  1  0  0  0  0
 11 21  1  0  0  0  0
 12 13  1  0  0  0  0
 12 22  1  0  0  0  0
 12 23  1  0  0  0  0
 13 14  1  0  0  0  0
 13 24  1  0  0  0  0
 13 25  1  0  0  0  0
 14 29  1  0  0  0  0
 14 30  1  0  0  0  0
 15 16  1  0  0  0  0
 15 17  1  0  0  0  0
 15 27  1  0  0  0  0
 15 28  1  0  0  0  0
 17 19  1  0  0  0  0
 17 31  1  0  0  0  0
M  END
> <PUBCHEM_COMPOUND_CID>
44602459

> <PUBCHEM_CONFORMER_RMSD>
1

> <PUBCHEM_CONFORMER_DIVERSEORDER>
1
29
76
47
3
26
27
56
25
49
60
34
37
8
10
21
72
48
6
20
16
63
80
69
75
78
64
58
11
18
30
15
9
24
23
17
82
59
44
35
70
41
62
42
66
36
45
5
68
22
39
40
51
53
84
74
13
32
2
33
7
28
43
79
83
71
77
31
54
73
19
65
61
52
50
12
46
38
67
81
55
4
14
57

> <PUBCHEM_MMFF94_PARTIAL_CHARGES>
27
1 -0.65
10 -0.85
11 0.36
14 0.25
15 0.06
16 0.57
17 0.33
18 0.66
19 0.66
2 -0.57
20 0.55
26 0.37
3 -0.57
32 0.36
33 0.36
34 0.5
35 0.5
36 0.4
37 0.4
38 0.4
39 0.4
4 -0.65
5 -0.57
6 -0.73
7 -0.7
8 -0.99
9 -0.85

> <PUBCHEM_EFFECTIVE_ROTOR_COUNT>
10

> <PUBCHEM_PHARMACOPHORE_FEATURES>
13
1 1 acceptor
1 10 donor
1 2 acceptor
1 3 acceptor
1 4 acceptor
1 5 acceptor
1 6 donor
1 8 cation
1 8 donor
1 9 donor
3 1 3 18 anion
3 4 5 19 anion
4 7 9 10 20 cation

> <PUBCHEM_HEAVY_ATOM_COUNT>
20

> <PUBCHEM_ATOM_DEF_STEREO_COUNT>
2

> <PUBCHEM_ATOM_UDEF_STEREO_COUNT>
0

> <PUBCHEM_BOND_DEF_STEREO_COUNT>
0

> <PUBCHEM_BOND_UDEF_STEREO_COUNT>
0

> <PUBCHEM_ISOTOPIC_ATOM_COUNT>
0

> <PUBCHEM_COMPONENT_COUNT>
1

> <PUBCHEM_CACTVS_TAUTO_COUNT>
4

> <PUBCHEM_CONFORMER_ID>
02A8945B00000001

> <PUBCHEM_MMFF94_ENERGY>
33.1368

> <PUBCHEM_FEATURE_SELFOVERLAP>
66.141

> <PUBCHEM_SHAPE_FINGERPRINT>
12173636 292 18266178331527625447
12769317 202 18267311017799014149
12788726 201 17479727226385992710
14251764 75 18338223904189832385
15422964 175 9367340401542605563
17134986 127 18409447015898472350
17834072 32 18410291415137447707
1798214 55 18342173353966486021
19752476 56 18114179761092289880
21524375 3 18342457049451740923
21860390 5 17977387462438639431
23558518 356 18128539262987476186
23559900 14 18123192570138477507
3060560 45 18264208195716574174
43658 37 18410858767643428329
474 4 18338237192997052259
495365 180 18337122244977700793
7808743 9 18125153840852348788

> <PUBCHEM_SHAPE_MULTIPOLES>
357.34
9.11
4.63
1.34
8.93
3.26
-0.22
-12.68
-0.78
0.37
-0.61
-0.54
-0.27
0.18

> <PUBCHEM_SHAPE_SELFOVERLAP>
697.788

> <PUBCHEM_SHAPE_VOLUME>
211.8

> <PUBCHEM_COORDINATE_TYPE>
2
5
10

$$$$

