164735
  -OEChem-07051212442D

 38 37  0     1  0  0  0  0  0999 V2000
   12.0632    0.2500    0.0000 P   0  0  0  0  0  0  0  0  0  0  0  0
    3.4030    0.2500    0.0000 P   0  0  0  0  0  0  0  0  0  0  0  0
    8.5991    1.2500    0.0000 O   0  0  0  0  0  0  0  0  0  0  0  0
    7.7331   -1.2500    0.0000 O   0  0  0  0  0  0  0  0  0  0  0  0
    9.4651   -1.2500    0.0000 O   0  0  0  0  0  0  0  0  0  0  0  0
    6.8671    1.2500    0.0000 O   0  0  0  0  0  0  0  0  0  0  0  0
   11.1972   -0.2500    0.0000 O   0  0  0  0  0  0  0  0  0  0  0  0
    4.2690   -0.2500    0.0000 O   0  0  0  0  0  0  0  0  0  0  0  0
    6.0010   -1.2500    0.0000 O   0  0  0  0  0  0  0  0  0  0  0  0
   12.9292    0.7500    0.0000 O   0  0  0  0  0  0  0  0  0  0  0  0
   12.5632   -0.6160    0.0000 O   0  0  0  0  0  0  0  0  0  0  0  0
   11.5632    1.1160    0.0000 O   0  0  0  0  0  0  0  0  0  0  0  0
    2.5369    0.7500    0.0000 O   0  0  0  0  0  0  0  0  0  0  0  0
    2.9030   -0.6160    0.0000 O   0  0  0  0  0  0  0  0  0  0  0  0
    3.9030    1.1160    0.0000 O   0  0  0  0  0  0  0  0  0  0  0  0
    8.5991    0.2500    0.0000 C   0  0  1  0  0  0  0  0  0  0  0  0
    7.7331   -0.2500    0.0000 C   0  0  2  0  0  0  0  0  0  0  0  0
    9.4651   -0.2500    0.0000 C   0  0  1  0  0  0  0  0  0  0  0  0
    6.8671    0.2500    0.0000 C   0  0  1  0  0  0  0  0  0  0  0  0
   10.3312    0.2500    0.0000 C   0  0  0  0  0  0  0  0  0  0  0  0
    6.0010   -0.2500    0.0000 C   0  0  0  0  0  0  0  0  0  0  0  0
    5.1350    0.2500    0.0000 C   0  0  0  0  0  0  0  0  0  0  0  0
    8.0622    0.5600    0.0000 H   0  0  0  0  0  0  0  0  0  0  0  0
    8.2700   -0.5600    0.0000 H   0  0  0  0  0  0  0  0  0  0  0  0
   10.0021   -0.5600    0.0000 H   0  0  0  0  0  0  0  0  0  0  0  0
    6.3301    0.5600    0.0000 H   0  0  0  0  0  0  0  0  0  0  0  0
   10.7297    0.7249    0.0000 H   0  0  0  0  0  0  0  0  0  0  0  0
    9.9326    0.7249    0.0000 H   0  0  0  0  0  0  0  0  0  0  0  0
    9.1360    1.5600    0.0000 H   0  0  0  0  0  0  0  0  0  0  0  0
    7.1962   -1.5600    0.0000 H   0  0  0  0  0  0  0  0  0  0  0  0
   10.0021   -1.5600    0.0000 H   0  0  0  0  0  0  0  0  0  0  0  0
    5.5335    0.7249    0.0000 H   0  0  0  0  0  0  0  0  0  0  0  0
    4.7365    0.7249    0.0000 H   0  0  0  0  0  0  0  0  0  0  0  0
    6.3301    1.5600    0.0000 H   0  0  0  0  0  0  0  0  0  0  0  0
   13.4662    0.4400    0.0000 H   0  0  0  0  0  0  0  0  0  0  0  0
   12.2532   -1.1530    0.0000 H   0  0  0  0  0  0  0  0  0  0  0  0
    2.0000    0.4400    0.0000 H   0  0  0  0  0  0  0  0  0  0  0  0
    3.2130   -1.1530    0.0000 H   0  0  0  0  0  0  0  0  0  0  0  0
  1  7  1  0  0  0  0
  1 10  1  0  0  0  0
  1 11  1  0  0  0  0
  1 12  2  0  0  0  0
  2  8  1  0  0  0  0
  2 13  1  0  0  0  0
  2 14  1  0  0  0  0
  2 15  2  0  0  0  0
 16  3  1  6  0  0  0
  3 29  1  0  0  0  0
 17  4  1  1  0  0  0
  4 30  1  0  0  0  0
 18  5  1  1  0  0  0
  5 31  1  0  0  0  0
 19  6  1  1  0  0  0
  6 34  1  0  0  0  0
  7 20  1  0  0  0  0
  8 22  1  0  0  0  0
  9 21  2  0  0  0  0
 10 35  1  0  0  0  0
 11 36  1  0  0  0  0
 13 37  1  0  0  0  0
 14 38  1  0  0  0  0
 16 17  1  0  0  0  0
 16 18  1  0  0  0  0
 16 23  1  0  0  0  0
 17 19  1  0  0  0  0
 17 24  1  0  0  0  0
 18 20  1  0  0  0  0
 18 25  1  0  0  0  0
 19 21  1  0  0  0  0
 19 26  1  0  0  0  0
 20 27  1  0  0  0  0
 20 28  1  0  0  0  0
 21 22  1  0  0  0  0
 22 32  1  0  0  0  0
 22 33  1  0  0  0  0
M  END
> <PUBCHEM_COMPOUND_CID>
164735

> <PUBCHEM_COMPOUND_CANONICALIZED>
1

> <PUBCHEM_CACTVS_COMPLEXITY>
453

> <PUBCHEM_CACTVS_HBOND_ACCEPTOR>
13

> <PUBCHEM_CACTVS_HBOND_DONOR>
8

> <PUBCHEM_CACTVS_ROTATABLE_BOND>
10

> <PUBCHEM_CACTVS_SUBSKEYS>
AAADceBgPAMAAAAAAAAAAAAAAAAAAAAAAAAAAAAAAAAAAAAAAAAAGgAACCAACBSggAIAAAAAAxAIQIAQAIIAAAAAAAAAAAFAAAABEBYAAAAAQAAFIAABAAHK7CRAAAAAAAAAAAAAAAAAAAAAAAAAAAAAAA==

> <PUBCHEM_IUPAC_OPENEYE_NAME>
[(2R,3R,4R,5S)-2,3,4,5-tetrahydroxy-6-oxo-7-phosphonooxy-heptyl] dihydrogen phosphate

> <PUBCHEM_IUPAC_CAS_NAME>
[(2R,3R,4R,5S)-2,3,4,5-tetrahydroxy-6-oxo-7-phosphonooxyheptyl] dihydrogen phosphate

> <PUBCHEM_IUPAC_NAME>
[(2R,3R,4R,5S)-2,3,4,5-tetrahydroxy-6-oxo-7-phosphonooxyheptyl] dihydrogen phosphate

> <PUBCHEM_IUPAC_SYSTEMATIC_NAME>
[(2R,3R,4R,5S)-2,3,4,5-tetrakis(oxidanyl)-6-oxidanylidene-7-phosphonooxy-heptyl] dihydrogen phosphate

> <PUBCHEM_IUPAC_TRADITIONAL_NAME>
[(2R,3R,4R,5S)-2,3,4,5-tetrahydroxy-6-keto-7-phosphonooxy-heptyl] dihydrogen phosphate

> <PUBCHEM_IUPAC_INCHI>
InChI=1S/C7H16O13P2/c8-3(1-19-21(13,14)15)5(10)7(12)6(11)4(9)2-20-22(16,17)18/h3,5-8,10-12H,1-2H2,(H2,13,14,15)(H2,16,17,18)/t3-,5-,6-,7-/m1/s1

> <PUBCHEM_IUPAC_INCHIKEY>
OKHXOUGRECCASI-SHUUEZRQSA-N

> <PUBCHEM_XLOGP3_AA>
-6.1

> <PUBCHEM_EXACT_MASS>
370.006614

> <PUBCHEM_MOLECULAR_FORMULA>
C7H16O13P2

> <PUBCHEM_MOLECULAR_WEIGHT>
370.141664

> <PUBCHEM_OPENEYE_CAN_SMILES>
C(C(C(C(C(C(=O)COP(=O)(O)O)O)O)O)O)OP(=O)(O)O

> <PUBCHEM_OPENEYE_ISO_SMILES>
C([C@H]([C@H]([C@H]([C@@H](C(=O)COP(=O)(O)O)O)O)O)O)OP(=O)(O)O

> <PUBCHEM_CACTVS_TPSA>
232

> <PUBCHEM_MONOISOTOPIC_WEIGHT>
370.006614

> <PUBCHEM_TOTAL_CHARGE>
0

> <PUBCHEM_HEAVY_ATOM_COUNT>
22

> <PUBCHEM_ATOM_DEF_STEREO_COUNT>
4

> <PUBCHEM_ATOM_UDEF_STEREO_COUNT>
0

> <PUBCHEM_BOND_DEF_STEREO_COUNT>
0

> <PUBCHEM_BOND_UDEF_STEREO_COUNT>
0

> <PUBCHEM_ISOTOPIC_ATOM_COUNT>
0

> <PUBCHEM_COMPONENT_COUNT>
1

> <PUBCHEM_CACTVS_TAUTO_COUNT>
6

> <PUBCHEM_COORDINATE_TYPE>
1
5
255

> <PUBCHEM_BONDANNOTATIONS>
16  3  6
17  4  5
18  5  5
19  6  5

$$$$

