161280
  -OEChem-07051212463D

 14 14  0     0  0  0  0  0  0999 V2000
   -0.3031   -1.1705    0.0017 N   0  0  0  0  0  0  0  0  0  0  0  0
    1.8625    0.0856    0.0010 N   0  0  0  0  0  0  0  0  0  0  0  0
   -2.4056   -0.0191    0.0000 N   0  0  0  0  0  0  0  0  0  0  0  0
    1.1445   -1.2013   -0.0022 C   0  0  0  0  0  0  0  0  0  0  0  0
   -1.0346    0.0011    0.0000 C   0  0  0  0  0  0  0  0  0  0  0  0
   -0.3724    1.1740   -0.0013 C   0  0  0  0  0  0  0  0  0  0  0  0
    1.1086    1.1302    0.0007 C   0  0  0  0  0  0  0  0  0  0  0  0
    1.4718   -1.7641   -0.8833 H   0  0  0  0  0  0  0  0  0  0  0  0
    1.4761   -1.7707    0.8732 H   0  0  0  0  0  0  0  0  0  0  0  0
   -0.8231   -2.0411    0.0023 H   0  0  0  0  0  0  0  0  0  0  0  0
   -0.8606    2.1407   -0.0024 H   0  0  0  0  0  0  0  0  0  0  0  0
    1.5918    2.1212    0.0026 H   0  0  0  0  0  0  0  0  0  0  0  0
   -2.9311    0.8461   -0.0010 H   0  0  0  0  0  0  0  0  0  0  0  0
   -2.8841   -0.9108    0.0013 H   0  0  0  0  0  0  0  0  0  0  0  0
  1  4  1  0  0  0  0
  1  5  1  0  0  0  0
  1 10  1  0  0  0  0
  2  4  1  0  0  0  0
  2  7  2  0  0  0  0
  3  5  1  0  0  0  0
  3 13  1  0  0  0  0
  3 14  1  0  0  0  0
  4  8  1  0  0  0  0
  4  9  1  0  0  0  0
  5  6  2  0  0  0  0
  6  7  1  0  0  0  0
  6 11  1  0  0  0  0
  7 12  1  0  0  0  0
M  END
> <PUBCHEM_COMPOUND_CID>
161280

> <PUBCHEM_CONFORMER_RMSD>
0.4

> <PUBCHEM_CONFORMER_DIVERSEORDER>
1

> <PUBCHEM_MMFF94_PARTIAL_CHARGES>
12
1 -0.87
10 0.4
11 0.15
12 0.06
13 0.4
14 0.4
2 -0.7
3 -0.9
4 0.62
5 0.2
6 -0.14
7 0.38

> <PUBCHEM_EFFECTIVE_ROTOR_COUNT>
0.4

> <PUBCHEM_PHARMACOPHORE_FEATURES>
6
1 1 cation
1 1 donor
1 2 acceptor
1 3 cation
1 3 donor
6 1 2 4 5 6 7 rings

> <PUBCHEM_HEAVY_ATOM_COUNT>
7

> <PUBCHEM_ATOM_DEF_STEREO_COUNT>
0

> <PUBCHEM_ATOM_UDEF_STEREO_COUNT>
0

> <PUBCHEM_BOND_DEF_STEREO_COUNT>
0

> <PUBCHEM_BOND_UDEF_STEREO_COUNT>
0

> <PUBCHEM_ISOTOPIC_ATOM_COUNT>
0

> <PUBCHEM_COMPONENT_COUNT>
1

> <PUBCHEM_CACTVS_TAUTO_COUNT>
5

> <PUBCHEM_CONFORMER_ID>
0002760000000001

> <PUBCHEM_MMFF94_ENERGY>
19.601

> <PUBCHEM_FEATURE_SELFOVERLAP>
30.51

> <PUBCHEM_SHAPE_FINGERPRINT>
16714656 1 18411693266835561092
18185500 45 18408046203655966343
20096714 4 18337671910422682416
21040471 1 18266458694065101348
23552423 10 17911506916083251174
29004967 10 18271801328507173881

> <PUBCHEM_SHAPE_MULTIPOLES>
129.11
2.3
1.4
0.58
0.76
0.01
0
0.09
0
-0.34
0
-0.01
-0.02
0

> <PUBCHEM_SHAPE_SELFOVERLAP>
256.605

> <PUBCHEM_SHAPE_VOLUME>
72.5

> <PUBCHEM_COORDINATE_TYPE>
2
5
10

$$$$

