443486
  -OEChem-07051213023D

 58 60  0     1  0  0  0  0  0999 V2000
    2.8970    0.7436   -0.6458 O   0  0  0  0  0  0  0  0  0  0  0  0
    4.7288    0.6934    0.7608 O   0  0  0  0  0  0  0  0  0  0  0  0
    0.0390   -1.7487    0.7151 C   0  0  2  0  0  0  0  0  0  0  0  0
    0.1467   -0.7932   -0.5678 C   0  0  2  0  0  0  0  0  0  0  0  0
   -2.1275    0.3446   -1.5549 C   0  0  2  0  0  0  0  0  0  0  0  0
   -3.1375    0.2130   -0.3945 C   0  0  0  0  0  0  0  0  0  0  0  0
   -1.0255   -0.7675   -1.6085 C   0  0  0  0  0  0  0  0  0  0  0  0
   -0.6878   -1.1207    1.9599 C   0  0  0  0  0  0  0  0  0  0  0  0
    1.4987   -2.0878    1.2448 C   0  0  0  0  0  0  0  0  0  0  0  0
   -2.3217    0.4931    0.8683 C   0  0  0  0  0  0  0  0  0  0  0  0
   -2.1381   -0.6127    1.8730 C   0  0  0  0  0  0  0  0  0  0  0  0
   -1.5244    1.7699   -1.6211 C   0  0  0  0  0  0  0  0  0  0  0  0
    1.4953   -1.1025   -1.2490 C   0  0  0  0  0  0  0  0  0  0  0  0
    2.4812   -0.9336    1.0433 C   0  0  0  0  0  0  0  0  0  0  0  0
    2.6967   -0.6523   -0.4478 C   0  0  2  0  0  0  0  0  0  0  0  0
   -0.5954   -3.1162    0.3914 C   0  0  0  0  0  0  0  0  0  0  0  0
   -1.3851    2.5053   -0.2742 C   0  0  0  0  0  0  0  0  0  0  0  0
   -1.6212    1.6537    0.9544 C   0  0  0  0  0  0  0  0  0  0  0  0
   -3.8884   -1.1370   -0.4735 C   0  0  0  0  0  0  0  0  0  0  0  0
   -4.2881    1.2582   -0.5166 C   0  0  0  0  0  0  0  0  0  0  0  0
    1.6700   -1.8033   -2.3826 C   0  0  0  0  0  0  0  0  0  0  0  0
   -0.9110    2.1589    2.1817 C   0  0  0  0  0  0  0  0  0  0  0  0
    3.9553    1.2884    0.0228 C   0  0  0  0  0  0  0  0  0  0  0  0
    4.0430    2.7537   -0.2791 C   0  0  0  0  0  0  0  0  0  0  0  0
    0.2680    0.2317   -0.2047 H   0  0  0  0  0  0  0  0  0  0  0  0
   -2.6915    0.2160   -2.4921 H   0  0  0  0  0  0  0  0  0  0  0  0
   -0.5906   -0.6088   -2.6050 H   0  0  0  0  0  0  0  0  0  0  0  0
   -1.4919   -1.7537   -1.6813 H   0  0  0  0  0  0  0  0  0  0  0  0
   -0.0560   -0.3153    2.3494 H   0  0  0  0  0  0  0  0  0  0  0  0
   -0.6879   -1.8738    2.7622 H   0  0  0  0  0  0  0  0  0  0  0  0
    1.8944   -2.9735    0.7275 H   0  0  0  0  0  0  0  0  0  0  0  0
    1.4721   -2.3612    2.3074 H   0  0  0  0  0  0  0  0  0  0  0  0
   -2.4501   -0.2483    2.8604 H   0  0  0  0  0  0  0  0  0  0  0  0
   -2.7919   -1.4669    1.6894 H   0  0  0  0  0  0  0  0  0  0  0  0
   -2.1628    2.3872   -2.2680 H   0  0  0  0  0  0  0  0  0  0  0  0
   -0.5522    1.7467   -2.1298 H   0  0  0  0  0  0  0  0  0  0  0  0
    2.1279   -0.0436    1.5782 H   0  0  0  0  0  0  0  0  0  0  0  0
    3.4321   -1.2177    1.5097 H   0  0  0  0  0  0  0  0  0  0  0  0
    3.5935   -1.1855   -0.7919 H   0  0  0  0  0  0  0  0  0  0  0  0
   -1.6639   -3.0505    0.2048 H   0  0  0  0  0  0  0  0  0  0  0  0
   -0.1283   -3.5762   -0.4860 H   0  0  0  0  0  0  0  0  0  0  0  0
   -0.4712   -3.8137    1.2287 H   0  0  0  0  0  0  0  0  0  0  0  0
   -2.0456    3.3802   -0.2444 H   0  0  0  0  0  0  0  0  0  0  0  0
   -0.3643    2.9089   -0.2369 H   0  0  0  0  0  0  0  0  0  0  0  0
   -4.4375   -1.2214   -1.4197 H   0  0  0  0  0  0  0  0  0  0  0  0
   -3.2364   -2.0035   -0.4233 H   0  0  0  0  0  0  0  0  0  0  0  0
   -4.6234   -1.2328    0.3348 H   0  0  0  0  0  0  0  0  0  0  0  0
   -3.9614    2.2993   -0.4911 H   0  0  0  0  0  0  0  0  0  0  0  0
   -4.8351    1.1259   -1.4581 H   0  0  0  0  0  0  0  0  0  0  0  0
   -5.0072    1.1392    0.3036 H   0  0  0  0  0  0  0  0  0  0  0  0
    2.6644   -2.0075   -2.7669 H   0  0  0  0  0  0  0  0  0  0  0  0
    0.8419   -2.2144   -2.9475 H   0  0  0  0  0  0  0  0  0  0  0  0
    0.1741    2.0907    2.0528 H   0  0  0  0  0  0  0  0  0  0  0  0
   -1.1874    1.6187    3.0907 H   0  0  0  0  0  0  0  0  0  0  0  0
   -1.1702    3.2095    2.3529 H   0  0  0  0  0  0  0  0  0  0  0  0
    3.1253    3.2531    0.0420 H   0  0  0  0  0  0  0  0  0  0  0  0
    4.2085    2.9023   -1.3490 H   0  0  0  0  0  0  0  0  0  0  0  0
    4.8850    3.1872    0.2681 H   0  0  0  0  0  0  0  0  0  0  0  0
  1 15  1  0  0  0  0
  1 23  1  0  0  0  0
  2 23  2  0  0  0  0
  3  4  1  0  0  0  0
  3  8  1  0  0  0  0
  3  9  1  0  0  0  0
  3 16  1  0  0  0  0
  4  7  1  0  0  0  0
  4 13  1  0  0  0  0
  4 25  1  0  0  0  0
  5  6  1  0  0  0  0
  5  7  1  0  0  0  0
  5 12  1  0  0  0  0
  5 26  1  0  0  0  0
  6 10  1  0  0  0  0
  6 19  1  0  0  0  0
  6 20  1  0  0  0  0
  7 27  1  0  0  0  0
  7 28  1  0  0  0  0
  8 11  1  0  0  0  0
  8 29  1  0  0  0  0
  8 30  1  0  0  0  0
  9 14  1  0  0  0  0
  9 31  1  0  0  0  0
  9 32  1  0  0  0  0
 10 11  1  0  0  0  0
 10 18  2  0  0  0  0
 11 33  1  0  0  0  0
 11 34  1  0  0  0  0
 12 17  1  0  0  0  0
 12 35  1  0  0  0  0
 12 36  1  0  0  0  0
 13 15  1  0  0  0  0
 13 21  2  0  0  0  0
 14 15  1  0  0  0  0
 14 37  1  0  0  0  0
 14 38  1  0  0  0  0
 15 39  1  0  0  0  0
 16 40  1  0  0  0  0
 16 41  1  0  0  0  0
 16 42  1  0  0  0  0
 17 18  1  0  0  0  0
 17 43  1  0  0  0  0
 17 44  1  0  0  0  0
 18 22  1  0  0  0  0
 19 45  1  0  0  0  0
 19 46  1  0  0  0  0
 19 47  1  0  0  0  0
 20 48  1  0  0  0  0
 20 49  1  0  0  0  0
 20 50  1  0  0  0  0
 21 51  1  0  0  0  0
 21 52  1  0  0  0  0
 22 53  1  0  0  0  0
 22 54  1  0  0  0  0
 22 55  1  0  0  0  0
 23 24  1  0  0  0  0
 24 56  1  0  0  0  0
 24 57  1  0  0  0  0
 24 58  1  0  0  0  0
M  END
> <PUBCHEM_COMPOUND_CID>
443486

> <PUBCHEM_CONFORMER_RMSD>
0.6

> <PUBCHEM_CONFORMER_DIVERSEORDER>
2
3
5
4
1
6

> <PUBCHEM_MMFF94_PARTIAL_CHARGES>
16
1 -0.43
10 -0.28
11 0.14
13 -0.28
15 0.42
17 0.14
18 -0.28
2 -0.57
21 -0.3
22 0.14
23 0.66
24 0.06
4 0.14
51 0.15
52 0.15
6 0.14

> <PUBCHEM_EFFECTIVE_ROTOR_COUNT>
3.8

> <PUBCHEM_PHARMACOPHORE_FEATURES>
4
1 2 acceptor
3 6 19 20 hydrophobe
6 3 4 9 13 14 15 rings
6 5 6 10 12 17 18 rings

> <PUBCHEM_HEAVY_ATOM_COUNT>
24

> <PUBCHEM_ATOM_DEF_STEREO_COUNT>
4

> <PUBCHEM_ATOM_UDEF_STEREO_COUNT>
0

> <PUBCHEM_BOND_DEF_STEREO_COUNT>
0

> <PUBCHEM_BOND_UDEF_STEREO_COUNT>
0

> <PUBCHEM_ISOTOPIC_ATOM_COUNT>
0

> <PUBCHEM_COMPONENT_COUNT>
1

> <PUBCHEM_CACTVS_TAUTO_COUNT>
1

> <PUBCHEM_CONFORMER_ID>
0006C45E00000002

> <PUBCHEM_MMFF94_ENERGY>
104.7309

> <PUBCHEM_FEATURE_SELFOVERLAP>
20.297

> <PUBCHEM_SHAPE_FINGERPRINT>
10366900 7 17775281681829997924
10498660 4 17676492739248547812
10863032 1 18059580234534170931
10948715 1 18343025479809396227
11370993 70 17846787312119107568
11578080 2 17558854977139792237
11759241 127 18260544515461011396
12156800 1 16262138009895183375
12633257 1 17632866334504756272
12788726 201 17605282980999186041
128993 33 17898553526477755848
13224815 77 18336262430931372528
13994607 96 18122895444095133956
14223421 5 18201155575987041527
14251764 30 14346074162193687437
14787075 74 18263647264724407247
15183329 4 18336530640147290964
16945 1 16844994776299249495
17349148 13 16128651951212650607
17492 54 18192169113119125909
17980427 23 17552112848603998131
18981168 100 17534344727782496157
19930381 70 18131360708196802429
20715895 44 18050301554729320285
21524375 3 18334579019137956870
21756936 100 18056477241449929612
23227448 37 18196653995273868524
23419403 2 17615693934163356275
23557571 272 18268408179742328998
23559900 14 18127703835602002451
35225 105 17486462959604394922
3797600 57 18334867103520735902
392239 28 18271518702669028393
4340502 62 18060134371436318385
469060 322 17409649848996349832
474 4 18411420626601472372
5262128 65 17825657017984125420
6287921 2 17896296156086102804

> <PUBCHEM_SHAPE_MULTIPOLES>
482.17
6.67
2.99
2.06
3.71
0.35
0.06
3.54
-0.59
0.92
0.32
-0.39
-0.32
0.19

> <PUBCHEM_SHAPE_SELFOVERLAP>
1000.062

> <PUBCHEM_SHAPE_VOLUME>
272.1

> <PUBCHEM_COORDINATE_TYPE>
2
5
10

$$$$

