5281931
  -OEChem-07051213013D

 21 20  0     0  0  0  0  0  0999 V2000
   -2.3309   -0.2187    0.0863 O   0  0  0  0  0  0  0  0  0  0  0  0
   -0.1924    3.2455   -0.4277 O   0  0  0  0  0  0  0  0  0  0  0  0
   -1.5175   -2.3502   -0.2372 O   0  0  0  0  0  0  0  0  0  0  0  0
   -0.1916    1.8221    1.3409 O   0  0  0  0  0  0  0  0  0  0  0  0
    3.2224   -1.6514    0.5272 O   0  0  0  0  0  0  0  0  0  0  0  0
    2.8109    0.3954   -0.3819 O   0  0  0  0  0  0  0  0  0  0  0  0
   -0.0352    0.9305   -0.9274 C   0  0  0  0  0  0  0  0  0  0  0  0
   -0.0464   -0.4452   -0.3163 C   0  0  0  0  0  0  0  0  0  0  0  0
    1.0200   -1.1686    0.0707 C   0  0  0  0  0  0  0  0  0  0  0  0
   -1.3603   -1.1399   -0.1608 C   0  0  0  0  0  0  0  0  0  0  0  0
   -0.1473    2.0075    0.1324 C   0  0  0  0  0  0  0  0  0  0  0  0
    2.4185   -0.6841    0.0237 C   0  0  0  0  0  0  0  0  0  0  0  0
   -3.6502   -0.7427    0.2701 C   0  0  0  0  0  0  0  0  0  0  0  0
    0.8663    1.1055   -1.5202 H   0  0  0  0  0  0  0  0  0  0  0  0
   -0.8819    1.0371   -1.6165 H   0  0  0  0  0  0  0  0  0  0  0  0
    0.8891   -2.1662    0.4845 H   0  0  0  0  0  0  0  0  0  0  0  0
   -3.6737   -1.4148    1.1332 H   0  0  0  0  0  0  0  0  0  0  0  0
   -3.9804   -1.2624   -0.6344 H   0  0  0  0  0  0  0  0  0  0  0  0
   -4.3254    0.0959    0.4596 H   0  0  0  0  0  0  0  0  0  0  0  0
   -0.2639    3.9506    0.2506 H   0  0  0  0  0  0  0  0  0  0  0  0
    4.1659   -1.3825    0.5248 H   0  0  0  0  0  0  0  0  0  0  0  0
  1 10  1  0  0  0  0
  1 13  1  0  0  0  0
  2 11  1  0  0  0  0
  2 20  1  0  0  0  0
  3 10  2  0  0  0  0
  4 11  2  0  0  0  0
  5 12  1  0  0  0  0
  5 21  1  0  0  0  0
  6 12  2  0  0  0  0
  7  8  1  0  0  0  0
  7 11  1  0  0  0  0
  7 14  1  0  0  0  0
  7 15  1  0  0  0  0
  8  9  2  0  0  0  0
  8 10  1  0  0  0  0
  9 12  1  0  0  0  0
  9 16  1  0  0  0  0
 13 17  1  0  0  0  0
 13 18  1  0  0  0  0
 13 19  1  0  0  0  0
M  END
> <PUBCHEM_COMPOUND_CID>
5281931

> <PUBCHEM_CONFORMER_RMSD>
0.6

> <PUBCHEM_CONFORMER_DIVERSEORDER>
1
46
40
17
41
51
2
45
49
50
53
15
10
31
29
44
36
6
54
12
42
27
13
52
35
38
48
14
26
37
7
22
39
34
32
9
8
21
47
33
30
16
43
19
18
5
23
24
20
25
4
3
28
11

> <PUBCHEM_MMFF94_PARTIAL_CHARGES>
16
1 -0.43
10 0.71
11 0.66
12 0.71
13 0.28
16 0.15
2 -0.65
20 0.5
21 0.5
3 -0.57
4 -0.57
5 -0.65
6 -0.57
7 0.2
8 -0.12
9 -0.14

> <PUBCHEM_EFFECTIVE_ROTOR_COUNT>
5

> <PUBCHEM_PHARMACOPHORE_FEATURES>
7
1 2 acceptor
1 3 acceptor
1 4 acceptor
1 5 acceptor
1 6 acceptor
3 2 4 11 anion
3 5 6 12 anion

> <PUBCHEM_HEAVY_ATOM_COUNT>
13

> <PUBCHEM_ATOM_DEF_STEREO_COUNT>
0

> <PUBCHEM_ATOM_UDEF_STEREO_COUNT>
0

> <PUBCHEM_BOND_DEF_STEREO_COUNT>
1

> <PUBCHEM_BOND_UDEF_STEREO_COUNT>
0

> <PUBCHEM_ISOTOPIC_ATOM_COUNT>
0

> <PUBCHEM_COMPONENT_COUNT>
1

> <PUBCHEM_CACTVS_TAUTO_COUNT>
1

> <PUBCHEM_CONFORMER_ID>
0050988B00000001

> <PUBCHEM_MMFF94_ENERGY>
23.4881

> <PUBCHEM_FEATURE_SELFOVERLAP>
35.636

> <PUBCHEM_SHAPE_FINGERPRINT>
10130415 120 18342177760676557459
10219947 1 18334852818707832023
13132413 78 18336257947212674293
14648413 74 18053663569043854539
14993402 34 18335136466953747471
16945 1 18269277854731836199
193761 8 17689996739297740943
20388701 513 18193552487699015733
20510252 161 18263369259986404258
20511035 2 17898573068763497359
20671657 1 18048868607673218053
20711985 365 18268431402798907422
207724 885 18409163282048285699
21130352 189 18410863127130140373
23402539 116 18188784940867441663
23419403 2 17461195203035276593
23526114 1 17905605506147594893
23552423 10 17833833772527723951
2748010 2 18410301336348449212
305870 269 17689155612976234833
7364860 26 17974848359219392679
81228 2 18264197179019484090

> <PUBCHEM_SHAPE_MULTIPOLES>
232.32
4.18
2.76
0.82
0.4
2.07
-0.08
-2.71
-0.51
0.06
-0.04
-0.02
0.27
-0.26

> <PUBCHEM_SHAPE_SELFOVERLAP>
460.205

> <PUBCHEM_SHAPE_VOLUME>
137

> <PUBCHEM_COORDINATE_TYPE>
2
5
10

$$$$

