6327114
  -OEChem-07051213143D

 12 11  0     0  0  0  0  0  0999 V2000
   -0.0080   -0.4355    0.5243 P   0  3  0  0  0  0  0  0  0  0  0  0
    1.4024   -0.2225   -0.2484 O   0  0  0  0  0  0  0  0  0  0  0  0
   -0.9130    0.5709   -0.3712 O   0  0  0  0  0  0  0  0  0  0  0  0
   -0.3985   -1.6888   -0.1168 O   0  0  0  0  0  0  0  0  0  0  0  0
    2.1403    0.9408    0.1005 C   0  0  0  0  0  0  0  0  0  0  0  0
   -2.2232    0.8351    0.1116 C   0  0  0  0  0  0  0  0  0  0  0  0
    2.4060    0.9379    1.1638 H   0  0  0  0  0  0  0  0  0  0  0  0
    1.5882    1.8533   -0.1509 H   0  0  0  0  0  0  0  0  0  0  0  0
    3.0686    0.9388   -0.4790 H   0  0  0  0  0  0  0  0  0  0  0  0
   -2.1931    1.3072    1.1001 H   0  0  0  0  0  0  0  0  0  0  0  0
   -2.8269   -0.0788    0.1447 H   0  0  0  0  0  0  0  0  0  0  0  0
   -2.7048    1.5324   -0.5807 H   0  0  0  0  0  0  0  0  0  0  0  0
  1  2  1  0  0  0  0
  1  3  1  0  0  0  0
  1  4  2  0  0  0  0
  2  5  1  0  0  0  0
  3  6  1  0  0  0  0
  5  7  1  0  0  0  0
  5  8  1  0  0  0  0
  5  9  1  0  0  0  0
  6 10  1  0  0  0  0
  6 11  1  0  0  0  0
  6 12  1  0  0  0  0
M  CHG  1   1   1
M  END
> <PUBCHEM_COMPOUND_CID>
6327114

> <PUBCHEM_CONFORMER_RMSD>
0.4

> <PUBCHEM_CONFORMER_DIVERSEORDER>
2
13
6
9
10
4
12
7
11
1
8
3
5

> <PUBCHEM_EFFECTIVE_ROTOR_COUNT>
2

> <PUBCHEM_PHARMACOPHORE_FEATURES>
1
1 4 acceptor

> <PUBCHEM_HEAVY_ATOM_COUNT>
6

> <PUBCHEM_ATOM_DEF_STEREO_COUNT>
0

> <PUBCHEM_ATOM_UDEF_STEREO_COUNT>
0

> <PUBCHEM_BOND_DEF_STEREO_COUNT>
0

> <PUBCHEM_BOND_UDEF_STEREO_COUNT>
0

> <PUBCHEM_ISOTOPIC_ATOM_COUNT>
0

> <PUBCHEM_COMPONENT_COUNT>
1

> <PUBCHEM_CACTVS_TAUTO_COUNT>
1

> <PUBCHEM_CONFORMER_ID>
00608B4A00000002

> <PUBCHEM_MMFF94_ENERGY>
7.6104

> <PUBCHEM_FEATURE_SELFOVERLAP>
5.074

> <PUBCHEM_SHAPE_FINGERPRINT>
16714656 1 18339358544190682371
20096714 4 18412828014153506776
21040471 1 18411418410218837120
23552449 1 18048318851389779752
5943 1 6265502835517408619

> <PUBCHEM_SHAPE_MULTIPOLES>
109.72
2.77
1.35
0.67
0.09
0.45
-0.08
-1.44
-0.01
-0.14
0.04
-0.01
0.01
0.02

> <PUBCHEM_SHAPE_SELFOVERLAP>
181.411

> <PUBCHEM_SHAPE_VOLUME>
76.7

> <PUBCHEM_COORDINATE_TYPE>
2
5
10

$$$$

