9117
  -OEChem-07051213052D

 34 39  0     0  0  0  0  0  0999 V2000
    4.6153   -0.9747    0.0000 C   0  0  0  0  0  0  0  0  0  0  0  0
    3.7493   -0.4747    0.0000 C   0  0  0  0  0  0  0  0  0  0  0  0
    5.4814   -0.4747    0.0000 C   0  0  0  0  0  0  0  0  0  0  0  0
    3.7493    0.5253    0.0000 C   0  0  0  0  0  0  0  0  0  0  0  0
    4.6153    1.0253    0.0000 C   0  0  0  0  0  0  0  0  0  0  0  0
    5.4814    0.5253    0.0000 C   0  0  0  0  0  0  0  0  0  0  0  0
    2.8393   -0.9815    0.0000 C   0  0  0  0  0  0  0  0  0  0  0  0
    4.6314   -2.0162    0.0000 C   0  0  0  0  0  0  0  0  0  0  0  0
    2.8911    1.0222    0.0000 C   0  0  0  0  0  0  0  0  0  0  0  0
    6.3408   -0.9695    0.0000 C   0  0  0  0  0  0  0  0  0  0  0  0
    2.8313   -2.0231    0.0000 C   0  0  0  0  0  0  0  0  0  0  0  0
    3.7334   -2.5440    0.0000 C   0  0  0  0  0  0  0  0  0  0  0  0
    2.0000   -0.4533    0.0000 C   0  0  0  0  0  0  0  0  0  0  0  0
    5.5085   -2.4790    0.0000 C   0  0  0  0  0  0  0  0  0  0  0  0
    4.6252    2.0365    0.0000 C   0  0  0  0  0  0  0  0  0  0  0  0
    6.3522    1.0395    0.0000 C   0  0  0  0  0  0  0  0  0  0  0  0
    2.0256    0.5381    0.0000 C   0  0  0  0  0  0  0  0  0  0  0  0
    6.3543   -1.9611    0.0000 C   0  0  0  0  0  0  0  0  0  0  0  0
    7.2233   -0.4756    0.0000 C   0  0  0  0  0  0  0  0  0  0  0  0
    2.8776    2.0334    0.0000 C   0  0  0  0  0  0  0  0  0  0  0  0
    7.2290    0.5357    0.0000 C   0  0  0  0  0  0  0  0  0  0  0  0
    3.7505    2.5440    0.0000 C   0  0  0  0  0  0  0  0  0  0  0  0
    2.2932   -2.3311    0.0000 H   0  0  0  0  0  0  0  0  0  0  0  0
    3.7358   -3.1640    0.0000 H   0  0  0  0  0  0  0  0  0  0  0  0
    1.4534   -0.7460    0.0000 H   0  0  0  0  0  0  0  0  0  0  0  0
    5.5284   -3.0986    0.0000 H   0  0  0  0  0  0  0  0  0  0  0  0
    5.1640    2.3433    0.0000 H   0  0  0  0  0  0  0  0  0  0  0  0
    6.3485    1.6595    0.0000 H   0  0  0  0  0  0  0  0  0  0  0  0
    1.4949    0.8586    0.0000 H   0  0  0  0  0  0  0  0  0  0  0  0
    6.8972   -2.2604    0.0000 H   0  0  0  0  0  0  0  0  0  0  0  0
    2.3378    2.3383    0.0000 H   0  0  0  0  0  0  0  0  0  0  0  0
    7.7572   -0.7907    0.0000 H   0  0  0  0  0  0  0  0  0  0  0  0
    3.7494    3.1640    0.0000 H   0  0  0  0  0  0  0  0  0  0  0  0
    7.7665    0.8447    0.0000 H   0  0  0  0  0  0  0  0  0  0  0  0
  1  2  1  0  0  0  0
  1  3  1  0  0  0  0
  1  8  2  0  0  0  0
  2  4  1  0  0  0  0
  2  7  2  0  0  0  0
  3  6  1  0  0  0  0
  3 10  2  0  0  0  0
  4  5  1  0  0  0  0
  4  9  2  0  0  0  0
  5  6  1  0  0  0  0
  5 15  2  0  0  0  0
  6 16  2  0  0  0  0
  7 11  1  0  0  0  0
  7 13  1  0  0  0  0
  8 12  1  0  0  0  0
  8 14  1  0  0  0  0
  9 17  1  0  0  0  0
  9 20  1  0  0  0  0
 10 18  1  0  0  0  0
 10 19  1  0  0  0  0
 11 12  2  0  0  0  0
 11 23  1  0  0  0  0
 12 24  1  0  0  0  0
 13 17  2  0  0  0  0
 13 25  1  0  0  0  0
 14 18  2  0  0  0  0
 14 26  1  0  0  0  0
 15 22  1  0  0  0  0
 15 27  1  0  0  0  0
 16 21  1  0  0  0  0
 16 28  1  0  0  0  0
 17 29  1  0  0  0  0
 18 30  1  0  0  0  0
 19 21  2  0  0  0  0
 19 32  1  0  0  0  0
 20 22  2  0  0  0  0
 20 31  1  0  0  0  0
 21 34  1  0  0  0  0
 22 33  1  0  0  0  0
M  END
> <PUBCHEM_COMPOUND_CID>
9117

> <PUBCHEM_COMPOUND_CANONICALIZED>
1

> <PUBCHEM_CACTVS_COMPLEXITY>
411

> <PUBCHEM_CACTVS_HBOND_ACCEPTOR>
0

> <PUBCHEM_CACTVS_HBOND_DONOR>
0

> <PUBCHEM_CACTVS_ROTATABLE_BOND>
0

> <PUBCHEM_CACTVS_SUBSKEYS>
AAADccB4AAAAAAAAAAAAAAAAAAAAAAAAAAAwYMGDAAAAAADBVAAAGAAAAAAADACAGAAwAMAAAACAAiBCAAACAAAgAAAIiAAAAIgIICKAERCAIAAggAAIiAcAgMAOwAACAAAQAACAAAQAACAAAAAAAAAAAA==

> <PUBCHEM_IUPAC_INCHI>
InChI=1S/C22H12/c1-3-13-7-9-15-11-12-16-10-8-14-4-2-6-18-17(5-1)19(13)21(15)22(16)20(14)18/h1-12H

> <PUBCHEM_IUPAC_INCHIKEY>
GYFAGKUZYNFMBN-UHFFFAOYSA-N

> <PUBCHEM_XLOGP3_AA>
6.6

> <PUBCHEM_EXACT_MASS>
276.0939

> <PUBCHEM_MOLECULAR_FORMULA>
C22H12

> <PUBCHEM_MOLECULAR_WEIGHT>
276.33068

> <PUBCHEM_OPENEYE_CAN_SMILES>
C1=CC2=C3C(=C1)C4=CC=CC5=C4C6=C(C=C5)C=CC(=C36)C=C2

> <PUBCHEM_OPENEYE_ISO_SMILES>
C1=CC2=C3C(=C1)C4=CC=CC5=C4C6=C(C=C5)C=CC(=C36)C=C2

> <PUBCHEM_CACTVS_TPSA>
0

> <PUBCHEM_MONOISOTOPIC_WEIGHT>
276.0939

> <PUBCHEM_TOTAL_CHARGE>
0

> <PUBCHEM_HEAVY_ATOM_COUNT>
22

> <PUBCHEM_ATOM_DEF_STEREO_COUNT>
0

> <PUBCHEM_ATOM_UDEF_STEREO_COUNT>
0

> <PUBCHEM_BOND_DEF_STEREO_COUNT>
0

> <PUBCHEM_BOND_UDEF_STEREO_COUNT>
0

> <PUBCHEM_ISOTOPIC_ATOM_COUNT>
0

> <PUBCHEM_COMPONENT_COUNT>
1

> <PUBCHEM_CACTVS_TAUTO_COUNT>
1

> <PUBCHEM_COORDINATE_TYPE>
1
5
255

> <PUBCHEM_BONDANNOTATIONS>
1  2  8
1  3  8
1  8  8
10  18  8
10  19  8
11  12  8
13  17  8
14  18  8
15  22  8
16  21  8
19  21  8
2  4  8
2  7  8
20  22  8
3  10  8
3  6  8
4  5  8
4  9  8
5  15  8
5  6  8
6  16  8
7  11  8
7  13  8
8  12  8
8  14  8
9  17  8
9  20  8

$$$$

