13236
  -OEChem-06261207553D

 16 16  0     0  0  0  0  0  0999 V2000
   -0.2924    2.6733   -0.0274 F   0  0  0  0  0  0  0  0  0  0  0  0
   -1.7179   -1.8572   -0.0620 F   0  0  0  0  0  0  0  0  0  0  0  0
    0.8821   -2.6688   -0.0013 F   0  0  0  0  0  0  0  0  0  0  0  0
    2.3041    1.8483    0.0325 F   0  0  0  0  0  0  0  0  0  0  0  0
    2.8969   -0.8204    0.0458 F   0  0  0  0  0  0  0  0  0  0  0  0
   -2.3856    0.8435   -0.0768 N   0  0  0  0  0  0  0  0  0  0  0  0
   -3.4232   -0.0218    0.1794 N   0  0  0  0  0  0  0  0  0  0  0  0
   -1.0407    0.4195   -0.0460 C   0  0  0  0  0  0  0  0  0  0  0  0
   -0.0130    1.3623   -0.0219 C   0  0  0  0  0  0  0  0  0  0  0  0
   -0.7384   -0.9422   -0.0391 C   0  0  0  0  0  0  0  0  0  0  0  0
    0.5917   -1.3613   -0.0081 C   0  0  0  0  0  0  0  0  0  0  0  0
    1.3170    0.9433    0.0090 C   0  0  0  0  0  0  0  0  0  0  0  0
    1.6195   -0.4184    0.0159 C   0  0  0  0  0  0  0  0  0  0  0  0
   -2.5666    1.8393   -0.0209 H   0  0  0  0  0  0  0  0  0  0  0  0
   -4.2654    0.3406   -0.2654 H   0  0  0  0  0  0  0  0  0  0  0  0
   -3.6108   -0.0181    1.1813 H   0  0  0  0  0  0  0  0  0  0  0  0
  1  9  1  0  0  0  0
  2 10  1  0  0  0  0
  3 11  1  0  0  0  0
  4 12  1  0  0  0  0
  5 13  1  0  0  0  0
  6  7  1  0  0  0  0
  6  8  1  0  0  0  0
  6 14  1  0  0  0  0
  7 15  1  0  0  0  0
  7 16  1  0  0  0  0
  8  9  2  0  0  0  0
  8 10  1  0  0  0  0
  9 12  1  0  0  0  0
 10 11  2  0  0  0  0
 11 13  1  0  0  0  0
 12 13  2  0  0  0  0
M  END
> <PUBCHEM_COMPOUND_CID>
13236

> <PUBCHEM_CONFORMER_RMSD>
0.4

> <PUBCHEM_CONFORMER_DIVERSEORDER>
1

> <PUBCHEM_MMFF94_PARTIAL_CHARGES>
16
1 -0.19
10 0.19
11 0.19
12 0.19
13 0.19
14 0.4
15 0.36
16 0.36
2 -0.19
3 -0.19
4 -0.19
5 -0.19
6 -0.51
7 -0.71
8 0.1
9 0.19

> <PUBCHEM_EFFECTIVE_ROTOR_COUNT>
1

> <PUBCHEM_PHARMACOPHORE_FEATURES>
3
1 6 donor
1 7 donor
6 8 9 10 11 12 13 rings

> <PUBCHEM_HEAVY_ATOM_COUNT>
13

> <PUBCHEM_ATOM_DEF_STEREO_COUNT>
0

> <PUBCHEM_ATOM_UDEF_STEREO_COUNT>
0

> <PUBCHEM_BOND_DEF_STEREO_COUNT>
0

> <PUBCHEM_BOND_UDEF_STEREO_COUNT>
0

> <PUBCHEM_ISOTOPIC_ATOM_COUNT>
0

> <PUBCHEM_COMPONENT_COUNT>
1

> <PUBCHEM_CACTVS_TAUTO_COUNT>
1

> <PUBCHEM_CONFORMER_ID>
000033B400000001

> <PUBCHEM_MMFF94_ENERGY>
27.9377

> <PUBCHEM_FEATURE_SELFOVERLAP>
16.756

> <PUBCHEM_SHAPE_FINGERPRINT>
10967382 1 18410856542465214638
11206711 2 18196086879012344412
12423570 1 6193970614800796651
16945 1 18338518663235664334
193761 8 17762337311397581964
21040471 1 18194402182506631564
2334 1 18266460897446569270
23552423 10 18271526390539272342
241688 4 17546163468511265922
2748010 2 18338516322541804598
5084963 1 18041846241042859624
528886 8 18410016502807487816
53812653 166 18117560621871564448
66348 1 18410291449328374385

> <PUBCHEM_SHAPE_MULTIPOLES>
221.2
3.43
2.46
0.56
1.33
0
0
-0.02
-0.14
-0.54
0.03
0
0
0.01

> <PUBCHEM_SHAPE_SELFOVERLAP>
475.055

> <PUBCHEM_SHAPE_VOLUME>
121.7

> <PUBCHEM_COORDINATE_TYPE>
2
5
10

$$$$

