442160
  -OEChem-07051212573D

 40 43  0     0  0  0  0  0  0999 V2000
   -2.3351   -3.1187    0.4462 O   0  0  0  0  0  0  0  0  0  0  0  0
    5.5087    0.4840   -0.3618 O   0  0  0  0  0  0  0  0  0  0  0  0
    3.8544    2.6091    0.3117 O   0  0  0  0  0  0  0  0  0  0  0  0
   -0.5440   -1.6414    0.1669 N   0  0  0  0  0  0  0  0  0  0  0  0
   -5.1674   -0.1197    0.0035 N   0  0  0  0  0  0  0  0  0  0  0  0
    0.4508   -2.7076    0.3263 C   0  0  0  0  0  0  0  0  0  0  0  0
    1.6478   -2.5180   -0.5953 C   0  0  0  0  0  0  0  0  0  0  0  0
   -0.0986   -0.3227   -0.0050 C   0  0  0  0  0  0  0  0  0  0  0  0
    2.2314   -1.1507   -0.3697 C   0  0  0  0  0  0  0  0  0  0  0  0
    1.3719   -0.0736   -0.0711 C   0  0  0  0  0  0  0  0  0  0  0  0
   -1.9059   -1.9833    0.2528 C   0  0  0  0  0  0  0  0  0  0  0  0
   -0.9814    0.6826   -0.1534 C   0  0  0  0  0  0  0  0  0  0  0  0
   -2.4173    0.4227   -0.1038 C   0  0  0  0  0  0  0  0  0  0  0  0
   -2.8747   -0.8766    0.0970 C   0  0  0  0  0  0  0  0  0  0  0  0
    3.6148   -0.9514   -0.4809 C   0  0  0  0  0  0  0  0  0  0  0  0
    1.9499    1.1845    0.1703 C   0  0  0  0  0  0  0  0  0  0  0  0
    4.1624    0.3084   -0.2583 C   0  0  0  0  0  0  0  0  0  0  0  0
    3.3316    1.3728    0.0750 C   0  0  0  0  0  0  0  0  0  0  0  0
   -3.3457    1.4528   -0.2518 C   0  0  0  0  0  0  0  0  0  0  0  0
   -4.2454   -1.0983    0.1435 C   0  0  0  0  0  0  0  0  0  0  0  0
   -4.6932    1.1310   -0.1907 C   0  0  0  0  0  0  0  0  0  0  0  0
   -2.9906    2.8497   -0.4646 C   0  0  0  0  0  0  0  0  0  0  0  0
    6.2816    0.2847    0.8204 C   0  0  0  0  0  0  0  0  0  0  0  0
   -2.8060    3.7798    0.4926 C   0  0  0  0  0  0  0  0  0  0  0  0
   -0.0067   -3.6837    0.1311 H   0  0  0  0  0  0  0  0  0  0  0  0
    0.7594   -2.7019    1.3800 H   0  0  0  0  0  0  0  0  0  0  0  0
    1.3464   -2.6055   -1.6460 H   0  0  0  0  0  0  0  0  0  0  0  0
    2.3888   -3.2982   -0.3875 H   0  0  0  0  0  0  0  0  0  0  0  0
   -0.6578    1.7004   -0.3328 H   0  0  0  0  0  0  0  0  0  0  0  0
    4.2659   -1.7851   -0.7335 H   0  0  0  0  0  0  0  0  0  0  0  0
    1.3388    2.0407    0.4454 H   0  0  0  0  0  0  0  0  0  0  0  0
   -4.6638   -2.0878    0.2965 H   0  0  0  0  0  0  0  0  0  0  0  0
   -5.4659    1.8874   -0.2991 H   0  0  0  0  0  0  0  0  0  0  0  0
   -2.8664    3.1418   -1.5047 H   0  0  0  0  0  0  0  0  0  0  0  0
    4.8149    2.5730    0.1624 H   0  0  0  0  0  0  0  0  0  0  0  0
    6.2073   -0.7553    1.1535 H   0  0  0  0  0  0  0  0  0  0  0  0
    5.9534    0.9582    1.6184 H   0  0  0  0  0  0  0  0  0  0  0  0
    7.3272    0.5031    0.5867 H   0  0  0  0  0  0  0  0  0  0  0  0
   -2.5403    4.7965    0.2246 H   0  0  0  0  0  0  0  0  0  0  0  0
   -2.9157    3.5387    1.5445 H   0  0  0  0  0  0  0  0  0  0  0  0
  1 11  2  0  0  0  0
  2 17  1  0  0  0  0
  2 23  1  0  0  0  0
  3 18  1  0  0  0  0
  3 35  1  0  0  0  0
  4  6  1  0  0  0  0
  4  8  1  0  0  0  0
  4 11  1  0  0  0  0
  5 20  2  0  0  0  0
  5 21  1  0  0  0  0
  6  7  1  0  0  0  0
  6 25  1  0  0  0  0
  6 26  1  0  0  0  0
  7  9  1  0  0  0  0
  7 27  1  0  0  0  0
  7 28  1  0  0  0  0
  8 10  1  0  0  0  0
  8 12  2  0  0  0  0
  9 10  1  0  0  0  0
  9 15  2  0  0  0  0
 10 16  2  0  0  0  0
 11 14  1  0  0  0  0
 12 13  1  0  0  0  0
 12 29  1  0  0  0  0
 13 14  2  0  0  0  0
 13 19  1  0  0  0  0
 14 20  1  0  0  0  0
 15 17  1  0  0  0  0
 15 30  1  0  0  0  0
 16 18  1  0  0  0  0
 16 31  1  0  0  0  0
 17 18  2  0  0  0  0
 19 21  2  0  0  0  0
 19 22  1  0  0  0  0
 20 32  1  0  0  0  0
 21 33  1  0  0  0  0
 22 24  2  0  0  0  0
 22 34  1  0  0  0  0
 23 36  1  0  0  0  0
 23 37  1  0  0  0  0
 23 38  1  0  0  0  0
 24 39  1  0  0  0  0
 24 40  1  0  0  0  0
M  END
> <PUBCHEM_COMPOUND_CID>
442160

> <PUBCHEM_CONFORMER_RMSD>
0.6

> <PUBCHEM_CONFORMER_DIVERSEORDER>
1
3
2

> <PUBCHEM_MMFF94_PARTIAL_CHARGES>
33
1 -0.57
10 0.03
11 0.54
12 -0.18
13 0.03
14 0.09
15 -0.15
16 -0.15
17 0.08
18 0.08
19 0.03
2 -0.36
20 0.16
21 0.16
22 -0.18
23 0.28
24 -0.3
29 0.15
3 -0.53
30 0.15
31 0.15
32 0.15
33 0.15
34 0.15
35 0.45
39 0.15
4 -0.47
40 0.15
5 -0.62
6 0.3
7 0.14
8 0.08
9 -0.14

> <PUBCHEM_EFFECTIVE_ROTOR_COUNT>
2.4

> <PUBCHEM_PHARMACOPHORE_FEATURES>
9
1 1 acceptor
1 2 acceptor
1 24 hydrophobe
1 3 donor
1 5 acceptor
6 4 6 7 8 9 10 rings
6 4 8 11 12 13 14 rings
6 5 13 14 19 20 21 rings
6 9 10 15 16 17 18 rings

> <PUBCHEM_HEAVY_ATOM_COUNT>
24

> <PUBCHEM_ATOM_DEF_STEREO_COUNT>
0

> <PUBCHEM_ATOM_UDEF_STEREO_COUNT>
0

> <PUBCHEM_BOND_DEF_STEREO_COUNT>
0

> <PUBCHEM_BOND_UDEF_STEREO_COUNT>
0

> <PUBCHEM_ISOTOPIC_ATOM_COUNT>
0

> <PUBCHEM_COMPONENT_COUNT>
1

> <PUBCHEM_CACTVS_TAUTO_COUNT>
3

> <PUBCHEM_CONFORMER_ID>
0006BF3000000001

> <PUBCHEM_MMFF94_ENERGY>
88.0265

> <PUBCHEM_FEATURE_SELFOVERLAP>
45.744

> <PUBCHEM_SHAPE_FINGERPRINT>
10319926 262 18339093601281612074
10411042 1 17835518220105415179
10498660 4 18341899619069163765
10608611 8 18410011043798533495
10616163 171 18411134701790840183
10646746 165 18411981356162023908
10670039 82 18200013132520407340
10967382 1 18411417345241008071
11370993 70 18411140246529958494
11595378 159 17489317411622261729
12107183 9 17838909474905155850
12236239 1 17346600746865975646
12390115 104 18191008187833520849
12403259 226 18045785576599286626
12403259 415 18188206477866362264
12403260 363 18412549786488505108
12596602 18 16701734943497179752
13140716 1 18125148347730991603
13402501 40 18408605837947701033
138480 1 17547010088302373103
14466204 15 18410299138053382488
15042514 8 18198056972296007891
15196674 1 18339359768156375374
200 152 17603584118931448183
20510252 161 18408882962723765281
20645477 56 18341891900769969341
20645477 70 17240755246654043638
21033648 29 17823436924389198624
21267235 1 18411691063359290430
21279426 13 18264202698833330918
21315764 268 18341339903115736236
21421861 104 17630336457381437130
221357 26 18260266369247706133
22182313 1 18189876721738954622
22393880 68 18264481974290881374
23227448 37 18336547131660891351
23402539 116 18410580547877466447
23559900 14 18335704893064376048
23566358 2 18189330341452135471
238 59 16762574530177991189
23845131 108 17910098442426698417
283562 15 18339926013288495233
335352 9 18410855448008339758
3380486 145 18123734371693902755
350125 39 18411697669161507468
3545911 37 18410290306882923964
3680242 22 18341049730856183730
4214541 1 18411699885206292180
474 4 17774995782662413196
5104073 3 18198619020073708315
9709674 26 18336258020132335351
9981440 41 18343300387934632083

> <PUBCHEM_SHAPE_MULTIPOLES>
466.34
11.11
3.49
0.71
7.64
0.75
0.01
4.62
0.57
-2.32
0.35
0.2
0
0.61

> <PUBCHEM_SHAPE_SELFOVERLAP>
1041.093

> <PUBCHEM_SHAPE_VOLUME>
247.1

> <PUBCHEM_COORDINATE_TYPE>
2
5
10

$$$$

