11740990
  -OEChem-07051213103D

 59 60  0     1  0  0  0  0  0999 V2000
    0.1836    0.5091    0.3942 O   0  0  0  0  0  0  0  0  0  0  0  0
   -2.7286    0.3497   -1.8266 O   0  0  0  0  0  0  0  0  0  0  0  0
    1.9464   -0.6704   -0.5782 O   0  0  0  0  0  0  0  0  0  0  0  0
    2.0176    1.7599    2.1493 O   0  0  0  0  0  0  0  0  0  0  0  0
    4.3943    0.0866    2.6314 O   0  0  0  0  0  0  0  0  0  0  0  0
    5.5383   -0.7924    0.1266 O   0  0  0  0  0  0  0  0  0  0  0  0
    2.7968   -1.8016   -2.9347 O   0  0  0  0  0  0  0  0  0  0  0  0
   -3.1532   -3.0138    1.7983 O   0  0  0  0  0  0  0  0  0  0  0  0
   -2.6101    1.8241    0.1165 C   0  0  0  0  0  0  0  0  0  0  0  0
   -2.0869    0.4814   -0.5396 C   0  0  2  0  0  0  0  0  0  0  0  0
   -0.5473    0.4963   -0.8360 C   0  0  1  0  0  0  0  0  0  0  0  0
   -2.1356    3.0330   -0.7347 C   0  0  0  0  0  0  0  0  0  0  0  0
   -0.1563    1.7529   -1.6423 C   0  0  0  0  0  0  0  0  0  0  0  0
   -0.6307    3.0458   -0.9858 C   0  0  0  0  0  0  0  0  0  0  0  0
   -2.1466    2.0247    1.5801 C   0  0  0  0  0  0  0  0  0  0  0  0
   -4.1615    1.8701    0.1448 C   0  0  0  0  0  0  0  0  0  0  0  0
   -0.0787   -0.7472   -1.6167 C   0  0  0  0  0  0  0  0  0  0  0  0
   -2.4647   -0.7355    0.2710 C   0  0  0  0  0  0  0  0  0  0  0  0
    1.5910    0.4980    0.1575 C   0  0  2  0  0  0  0  0  0  0  0  0
    2.2965    0.5126    1.5135 C   0  0  1  0  0  0  0  0  0  0  0  0
    3.8084    0.3505    1.3557 C   0  0  2  0  0  0  0  0  0  0  0  0
    4.1459   -0.8181    0.4296 C   0  0  1  0  0  0  0  0  0  0  0  0
    3.3435   -0.7299   -0.8708 C   0  0  1  0  0  0  0  0  0  0  0  0
   -3.6025   -1.4178    0.0879 C   0  0  0  0  0  0  0  0  0  0  0  0
    3.5755   -1.9466   -1.7611 C   0  0  0  0  0  0  0  0  0  0  0  0
   -3.9161   -2.6093    0.9236 C   0  0  0  0  0  0  0  0  0  0  0  0
   -5.2192   -3.3122    0.6464 C   0  0  0  0  0  0  0  0  0  0  0  0
   -2.4209    3.9745   -0.2478 H   0  0  0  0  0  0  0  0  0  0  0  0
   -2.6502    3.0270   -1.7049 H   0  0  0  0  0  0  0  0  0  0  0  0
   -0.6453    1.6907   -2.6258 H   0  0  0  0  0  0  0  0  0  0  0  0
    0.9034    1.8361   -1.8939 H   0  0  0  0  0  0  0  0  0  0  0  0
   -0.3886    3.8898   -1.6427 H   0  0  0  0  0  0  0  0  0  0  0  0
   -0.0847    3.2180   -0.0520 H   0  0  0  0  0  0  0  0  0  0  0  0
   -1.0624    2.1021    1.6799 H   0  0  0  0  0  0  0  0  0  0  0  0
   -2.5639    2.9504    1.9950 H   0  0  0  0  0  0  0  0  0  0  0  0
   -2.4833    1.2062    2.2251 H   0  0  0  0  0  0  0  0  0  0  0  0
   -4.5939    1.7206   -0.8501 H   0  0  0  0  0  0  0  0  0  0  0  0
   -4.5812    1.1149    0.8167 H   0  0  0  0  0  0  0  0  0  0  0  0
   -4.5151    2.8444    0.5037 H   0  0  0  0  0  0  0  0  0  0  0  0
    0.7519   -0.5304   -2.2939 H   0  0  0  0  0  0  0  0  0  0  0  0
    0.0584   -1.6415   -0.9975 H   0  0  0  0  0  0  0  0  0  0  0  0
   -0.8363   -1.0525   -2.3472 H   0  0  0  0  0  0  0  0  0  0  0  0
   -1.7831   -1.0328    1.0641 H   0  0  0  0  0  0  0  0  0  0  0  0
    1.9153    1.4011   -0.3653 H   0  0  0  0  0  0  0  0  0  0  0  0
   -2.7050   -0.5733   -2.1258 H   0  0  0  0  0  0  0  0  0  0  0  0
    1.8960   -0.2724    2.1660 H   0  0  0  0  0  0  0  0  0  0  0  0
    4.2609    1.2822    0.9942 H   0  0  0  0  0  0  0  0  0  0  0  0
    3.9401   -1.7635    0.9462 H   0  0  0  0  0  0  0  0  0  0  0  0
    3.6174    0.1663   -1.4440 H   0  0  0  0  0  0  0  0  0  0  0  0
   -4.3323   -1.1426   -0.6646 H   0  0  0  0  0  0  0  0  0  0  0  0
    3.2791   -2.8761   -1.2625 H   0  0  0  0  0  0  0  0  0  0  0  0
    4.6256   -2.0284   -2.0568 H   0  0  0  0  0  0  0  0  0  0  0  0
    2.3695    2.4715    1.5878 H   0  0  0  0  0  0  0  0  0  0  0  0
    5.3509   -0.0246    2.4951 H   0  0  0  0  0  0  0  0  0  0  0  0
    5.7290    0.0399   -0.3388 H   0  0  0  0  0  0  0  0  0  0  0  0
    1.9472   -2.2465   -2.7770 H   0  0  0  0  0  0  0  0  0  0  0  0
   -5.7220   -3.5212    1.5948 H   0  0  0  0  0  0  0  0  0  0  0  0
   -5.0188   -4.2464    0.1159 H   0  0  0  0  0  0  0  0  0  0  0  0
   -5.8868   -2.6926    0.0418 H   0  0  0  0  0  0  0  0  0  0  0  0
  1 11  1  0  0  0  0
  1 19  1  0  0  0  0
  2 10  1  0  0  0  0
  2 45  1  0  0  0  0
  3 19  1  0  0  0  0
  3 23  1  0  0  0  0
  4 20  1  0  0  0  0
  4 53  1  0  0  0  0
  5 21  1  0  0  0  0
  5 54  1  0  0  0  0
  6 22  1  0  0  0  0
  6 55  1  0  0  0  0
  7 25  1  0  0  0  0
  7 56  1  0  0  0  0
  8 26  2  0  0  0  0
  9 10  1  0  0  0  0
  9 12  1  0  0  0  0
  9 15  1  0  0  0  0
  9 16  1  0  0  0  0
 10 11  1  0  0  0  0
 10 18  1  0  0  0  0
 11 13  1  0  0  0  0
 11 17  1  0  0  0  0
 12 14  1  0  0  0  0
 12 28  1  0  0  0  0
 12 29  1  0  0  0  0
 13 14  1  0  0  0  0
 13 30  1  0  0  0  0
 13 31  1  0  0  0  0
 14 32  1  0  0  0  0
 14 33  1  0  0  0  0
 15 34  1  0  0  0  0
 15 35  1  0  0  0  0
 15 36  1  0  0  0  0
 16 37  1  0  0  0  0
 16 38  1  0  0  0  0
 16 39  1  0  0  0  0
 17 40  1  0  0  0  0
 17 41  1  0  0  0  0
 17 42  1  0  0  0  0
 18 24  2  0  0  0  0
 18 43  1  0  0  0  0
 19 20  1  0  0  0  0
 19 44  1  0  0  0  0
 20 21  1  0  0  0  0
 20 46  1  0  0  0  0
 21 22  1  0  0  0  0
 21 47  1  0  0  0  0
 22 23  1  0  0  0  0
 22 48  1  0  0  0  0
 23 25  1  0  0  0  0
 23 49  1  0  0  0  0
 24 26  1  0  0  0  0
 24 50  1  0  0  0  0
 25 51  1  0  0  0  0
 25 52  1  0  0  0  0
 26 27  1  0  0  0  0
 27 57  1  0  0  0  0
 27 58  1  0  0  0  0
 27 59  1  0  0  0  0
M  END
> <PUBCHEM_COMPOUND_CID>
11740990

> <PUBCHEM_CONFORMER_RMSD>
0.8

> <PUBCHEM_CONFORMER_DIVERSEORDER>
2
6
14
12
11
8
7
3
5
10
1
9
15
13
4

> <PUBCHEM_MMFF94_PARTIAL_CHARGES>
27
1 -0.56
10 0.42
11 0.28
18 -0.29
19 0.56
2 -0.68
20 0.28
21 0.28
22 0.28
23 0.28
24 -0.14
25 0.28
26 0.49
27 0.06
3 -0.56
4 -0.68
43 0.15
45 0.4
5 -0.68
50 0.15
53 0.4
54 0.4
55 0.4
56 0.4
6 -0.68
7 -0.68
8 -0.57

> <PUBCHEM_EFFECTIVE_ROTOR_COUNT>
7.4

> <PUBCHEM_PHARMACOPHORE_FEATURES>
16
1 1 acceptor
1 2 acceptor
1 2 donor
1 3 acceptor
1 4 acceptor
1 4 donor
1 5 acceptor
1 5 donor
1 6 acceptor
1 6 donor
1 7 acceptor
1 7 donor
1 8 acceptor
3 9 15 16 hydrophobe
6 3 19 20 21 22 23 rings
6 9 10 11 12 13 14 rings

> <PUBCHEM_HEAVY_ATOM_COUNT>
27

> <PUBCHEM_ATOM_DEF_STEREO_COUNT>
7

> <PUBCHEM_ATOM_UDEF_STEREO_COUNT>
0

> <PUBCHEM_BOND_DEF_STEREO_COUNT>
1

> <PUBCHEM_BOND_UDEF_STEREO_COUNT>
0

> <PUBCHEM_ISOTOPIC_ATOM_COUNT>
0

> <PUBCHEM_COMPONENT_COUNT>
1

> <PUBCHEM_CACTVS_TAUTO_COUNT>
2

> <PUBCHEM_CONFORMER_ID>
00B3273E00000002

> <PUBCHEM_MMFF94_ENERGY>
110.9835

> <PUBCHEM_FEATURE_SELFOVERLAP>
81.251

> <PUBCHEM_SHAPE_FINGERPRINT>
10366900 7 18263379108124757324
10369192 42 17896604986617473576
10721379 63 16914805935090340597
11370993 144 17604418725750841187
11796584 16 18125443262040842130
12236239 1 16701731782670320604
12363563 72 18129379307003090571
12549972 3 17751082620429449394
12553582 1 18059278882486166803
12596599 1 18342451560414886992
12623949 98 17677592203711312407
12788726 201 18058150753027041011
13140716 1 18412825768186752589
133893 2 5255297687088683213
13544653 18 18261960622567004063
13583140 156 17385724724619336058
13965767 371 14201657780714350898
14081887 123 18413112779281135131
14178342 30 18343023332452556771
16945 1 18200885096422358749
17349148 13 15985106349094107592
1813 80 18199743661797810071
200 152 15338835425731275820
20600515 1 18343309179785440781
21421861 104 17983277246034676617
21452121 71 17702946920683517777
21864079 5 5978099193420690122
22122407 14 16153704371106859281
23419403 2 17552955861054619117
23557571 272 18410009957171794549
23559900 14 18265046011029245190
3380486 145 17750247919779951109
5104073 3 18334585654872953608
602551 16 18271807951578963378

> <PUBCHEM_SHAPE_MULTIPOLES>
508.69
9.59
3.48
2.18
3.85
0.5
0.05
7.04
-2.84
-5.47
-0.1
2.19
0.25
2.43

> <PUBCHEM_SHAPE_SELFOVERLAP>
1047.682

> <PUBCHEM_SHAPE_VOLUME>
288

> <PUBCHEM_COORDINATE_TYPE>
2
5
10

$$$$

