6437063
  -OEChem-07051213093D

 49 49  0     0  0  0  0  0  0999 V2000
   -5.3546    2.9045   -0.2757 O   0  0  0  0  0  0  0  0  0  0  0  0
    8.2064    1.3732    1.2675 O   0  0  0  0  0  0  0  0  0  0  0  0
    8.2653   -0.0323   -0.5242 O   0  0  0  0  0  0  0  0  0  0  0  0
   -4.6101   -1.1454    0.4581 C   0  0  0  0  0  0  0  0  0  0  0  0
   -5.7489   -0.3507    1.1389 C   0  0  0  0  0  0  0  0  0  0  0  0
   -3.5367   -0.1823   -0.0910 C   0  0  0  0  0  0  0  0  0  0  0  0
   -6.2638    0.7802    0.2755 C   0  0  0  0  0  0  0  0  0  0  0  0
   -5.1818   -1.9945   -0.6980 C   0  0  0  0  0  0  0  0  0  0  0  0
   -4.0569   -2.1040    1.5427 C   0  0  0  0  0  0  0  0  0  0  0  0
   -3.7642    1.1321   -0.3261 C   0  0  0  0  0  0  0  0  0  0  0  0
   -5.1376    1.7047   -0.1008 C   0  0  0  0  0  0  0  0  0  0  0  0
   -2.2404   -0.7866   -0.3524 C   0  0  0  0  0  0  0  0  0  0  0  0
   -2.7764    2.1402   -0.8575 C   0  0  0  0  0  0  0  0  0  0  0  0
   -1.0762   -0.1747   -0.0807 C   0  0  0  0  0  0  0  0  0  0  0  0
    0.2623   -0.7172   -0.3159 C   0  0  0  0  0  0  0  0  0  0  0  0
    0.3560   -2.0980   -0.9238 C   0  0  0  0  0  0  0  0  0  0  0  0
    1.4080   -0.0629   -0.0256 C   0  0  0  0  0  0  0  0  0  0  0  0
    2.7767   -0.5078   -0.2178 C   0  0  0  0  0  0  0  0  0  0  0  0
    3.8363    0.2490    0.1174 C   0  0  0  0  0  0  0  0  0  0  0  0
    5.2529   -0.1013   -0.0395 C   0  0  0  0  0  0  0  0  0  0  0  0
    5.5688   -1.4579   -0.6151 C   0  0  0  0  0  0  0  0  0  0  0  0
    6.1731    0.7997    0.3598 C   0  0  0  0  0  0  0  0  0  0  0  0
    7.6417    0.6320    0.2840 C   0  0  0  0  0  0  0  0  0  0  0  0
   -5.3853    0.0725    2.0864 H   0  0  0  0  0  0  0  0  0  0  0  0
   -6.5821   -1.0161    1.3987 H   0  0  0  0  0  0  0  0  0  0  0  0
   -7.0067    1.3524    0.8426 H   0  0  0  0  0  0  0  0  0  0  0  0
   -6.7434    0.4176   -0.6387 H   0  0  0  0  0  0  0  0  0  0  0  0
   -6.0237   -2.6077   -0.3566 H   0  0  0  0  0  0  0  0  0  0  0  0
   -5.5381   -1.3718   -1.5259 H   0  0  0  0  0  0  0  0  0  0  0  0
   -4.4300   -2.6787   -1.1074 H   0  0  0  0  0  0  0  0  0  0  0  0
   -3.5713   -1.5488    2.3539 H   0  0  0  0  0  0  0  0  0  0  0  0
   -4.8618   -2.7033    1.9846 H   0  0  0  0  0  0  0  0  0  0  0  0
   -3.3240   -2.8092    1.1349 H   0  0  0  0  0  0  0  0  0  0  0  0
   -2.2604   -1.7672   -0.8170 H   0  0  0  0  0  0  0  0  0  0  0  0
   -2.2925    2.6775   -0.0359 H   0  0  0  0  0  0  0  0  0  0  0  0
   -3.2735    2.8855   -1.4896 H   0  0  0  0  0  0  0  0  0  0  0  0
   -2.0209    1.7010   -1.5141 H   0  0  0  0  0  0  0  0  0  0  0  0
   -1.0669    0.7845    0.4310 H   0  0  0  0  0  0  0  0  0  0  0  0
    1.3559   -2.5049   -1.0667 H   0  0  0  0  0  0  0  0  0  0  0  0
   -0.1689   -2.8221   -0.2888 H   0  0  0  0  0  0  0  0  0  0  0  0
   -0.1173   -2.1033   -1.9130 H   0  0  0  0  0  0  0  0  0  0  0  0
    1.3148    0.9320    0.4118 H   0  0  0  0  0  0  0  0  0  0  0  0
    2.9526   -1.4799   -0.6560 H   0  0  0  0  0  0  0  0  0  0  0  0
    3.6446    1.2303    0.5521 H   0  0  0  0  0  0  0  0  0  0  0  0
    5.2465   -1.5154   -1.6605 H   0  0  0  0  0  0  0  0  0  0  0  0
    6.6297   -1.7116   -0.5867 H   0  0  0  0  0  0  0  0  0  0  0  0
    5.0629   -2.2466   -0.0464 H   0  0  0  0  0  0  0  0  0  0  0  0
    5.8520    1.7427    0.8001 H   0  0  0  0  0  0  0  0  0  0  0  0
    9.1852    1.3076    1.2605 H   0  0  0  0  0  0  0  0  0  0  0  0
  1 11  2  0  0  0  0
  2 23  1  0  0  0  0
  2 49  1  0  0  0  0
  3 23  2  0  0  0  0
  4  5  1  0  0  0  0
  4  6  1  0  0  0  0
  4  8  1  0  0  0  0
  4  9  1  0  0  0  0
  5  7  1  0  0  0  0
  5 24  1  0  0  0  0
  5 25  1  0  0  0  0
  6 10  2  0  0  0  0
  6 12  1  0  0  0  0
  7 11  1  0  0  0  0
  7 26  1  0  0  0  0
  7 27  1  0  0  0  0
  8 28  1  0  0  0  0
  8 29  1  0  0  0  0
  8 30  1  0  0  0  0
  9 31  1  0  0  0  0
  9 32  1  0  0  0  0
  9 33  1  0  0  0  0
 10 11  1  0  0  0  0
 10 13  1  0  0  0  0
 12 14  2  0  0  0  0
 12 34  1  0  0  0  0
 13 35  1  0  0  0  0
 13 36  1  0  0  0  0
 13 37  1  0  0  0  0
 14 15  1  0  0  0  0
 14 38  1  0  0  0  0
 15 16  1  0  0  0  0
 15 17  2  0  0  0  0
 16 39  1  0  0  0  0
 16 40  1  0  0  0  0
 16 41  1  0  0  0  0
 17 18  1  0  0  0  0
 17 42  1  0  0  0  0
 18 19  2  0  0  0  0
 18 43  1  0  0  0  0
 19 20  1  0  0  0  0
 19 44  1  0  0  0  0
 20 21  1  0  0  0  0
 20 22  2  0  0  0  0
 21 45  1  0  0  0  0
 21 46  1  0  0  0  0
 21 47  1  0  0  0  0
 22 23  1  0  0  0  0
 22 48  1  0  0  0  0
M  END
> <PUBCHEM_COMPOUND_CID>
6437063

> <PUBCHEM_CONFORMER_RMSD>
0.8

> <PUBCHEM_CONFORMER_DIVERSEORDER>
1
12
9
13
2
21
15
5
11
4
6
18
16
3
8
17
22
7
23
10
20
19
14

> <PUBCHEM_MMFF94_PARTIAL_CHARGES>
27
1 -0.57
10 -0.12
11 0.49
12 -0.15
13 0.14
14 -0.15
15 -0.14
16 0.14
17 -0.15
18 -0.15
19 -0.15
2 -0.65
20 -0.14
21 0.14
22 -0.14
23 0.71
3 -0.57
34 0.15
38 0.15
4 0.14
42 0.15
43 0.15
44 0.15
48 0.15
49 0.5
6 -0.14
7 0.06

> <PUBCHEM_EFFECTIVE_ROTOR_COUNT>
5.6

> <PUBCHEM_PHARMACOPHORE_FEATURES>
8
1 1 acceptor
1 16 hydrophobe
1 2 acceptor
1 21 hydrophobe
1 3 acceptor
3 2 3 23 anion
3 4 8 9 hydrophobe
6 4 5 6 7 10 11 rings

> <PUBCHEM_HEAVY_ATOM_COUNT>
23

> <PUBCHEM_ATOM_DEF_STEREO_COUNT>
0

> <PUBCHEM_ATOM_UDEF_STEREO_COUNT>
0

> <PUBCHEM_BOND_DEF_STEREO_COUNT>
4

> <PUBCHEM_BOND_UDEF_STEREO_COUNT>
0

> <PUBCHEM_ISOTOPIC_ATOM_COUNT>
0

> <PUBCHEM_COMPONENT_COUNT>
1

> <PUBCHEM_CACTVS_TAUTO_COUNT>
2

> <PUBCHEM_CONFORMER_ID>
006238C700000001

> <PUBCHEM_MMFF94_ENERGY>
62.1518

> <PUBCHEM_FEATURE_SELFOVERLAP>
40.651

> <PUBCHEM_SHAPE_FINGERPRINT>
10 15 18413107277137625147
10299344 5 17275103930002686650
10411042 1 18053097321442637315
11315181 36 17489304157722139515
12091667 2 18410293592723069295
125118 31 18411136914654130424
12596602 18 18202005443284069504
12616971 3 16558736932376000887
13073987 5 18272934964051244578
13288520 33 9295285045730849207
13403585 85 18413670218854675965
14251764 18 18060421309606050846
14598715 104 18187943776181692464
14844126 61 17988351556716909611
14849402 71 17489013844077917740
14933364 13 18409728469922124716
15183329 4 14851605492609218724
15461852 350 18040440966989093429
15716309 27 15482673472620824930
15927050 60 18335704927694127486
16989713 51 17532661130984468391
17093844 174 18342459236053798537
17780758 139 17632292359660085603
17844677 252 18410848841694497444
18006028 8 12031789158657907118
18336668 15 17846776308724833677
18927931 339 18272644633121176679
19489759 90 17989205936631522931
20281389 69 18408043996913194832
21033648 29 18187941555450978544
21756936 100 18410300185355742798
23402539 116 18202282494465810639
23559900 14 18194959867220863215
3663271 9 17988648514633243538
4073 2 18130781265975322226
504843 32 17095810919146837334
5104073 3 18200875191947991818
5364581 5 18268710498227047457
5758199 1 17561363976975016490
636775 72 18335138747998899169
9953998 17 18343018896094263897

> <PUBCHEM_SHAPE_MULTIPOLES>
455.72
23.21
2.21
0.99
43.98
0.46
0.19
6.49
4.34
-3.61
-0.24
-0.33
-0.24
1.73

> <PUBCHEM_SHAPE_SELFOVERLAP>
925.745

> <PUBCHEM_SHAPE_VOLUME>
264.4

> <PUBCHEM_COORDINATE_TYPE>
2
5
10

$$$$

