5661
  -OEChem-06261200482D

 72 77  0     1  0  0  0  0  0999 V2000
    5.7526    2.4136    0.0000 O   0  0  0  0  0  0  0  0  0  0  0  0
    4.8866    1.9136    0.0000 O   0  0  0  0  0  0  0  0  0  0  0  0
    8.8489   -1.8488    0.0000 O   0  0  0  0  0  0  0  0  0  0  0  0
    7.8959   -2.3990    0.0000 O   0  0  0  0  0  0  0  0  0  0  0  0
    9.2549    1.4105    0.0000 O   0  0  0  0  0  0  0  0  0  0  0  0
    6.0926    3.8153    0.0000 O   0  0  0  0  0  0  0  0  0  0  0  0
    2.9840   -2.5259    0.0000 O   0  0  0  0  0  0  0  0  0  0  0  0
    7.4847    1.4136    0.0000 N   0  0  0  0  0  0  0  0  0  0  0  0
    6.3036   -1.1408    0.0000 N   0  0  3  0  0  0  0  0  0  0  0  0
    7.5006    3.4829    0.0000 N   0  0  0  0  0  0  0  0  0  0  0  0
    6.6187   -0.0864    0.0000 C   0  0  3  0  0  0  0  0  0  0  0  0
    5.7526    0.4136    0.0000 C   0  0  3  0  0  0  0  0  0  0  0  0
    7.4847    0.4136    0.0000 C   0  0  3  0  0  0  0  0  0  0  0  0
    6.6187    1.9136    0.0000 C   0  0  3  0  0  0  0  0  0  0  0  0
    5.7526    1.4136    0.0000 C   0  0  3  0  0  0  0  0  0  0  0  0
    8.5554    0.1593    0.0000 C   0  0  0  0  0  0  0  0  0  0  0  0
    4.9776   -0.2087    0.0000 C   0  0  0  0  0  0  0  0  0  0  0  0
    8.4027    2.9621    0.0000 C   0  0  3  0  0  0  0  0  0  0  0  0
    5.3097   -1.1455    0.0000 C   0  0  0  0  0  0  0  0  0  0  0  0
    8.3947    1.9205    0.0000 C   0  0  0  0  0  0  0  0  0  0  0  0
    6.6026    2.9552    0.0000 C   0  0  0  0  0  0  0  0  0  0  0  0
    9.1236   -0.7831    0.0000 C   0  0  0  0  0  0  0  0  0  0  0  0
    6.8356   -2.1041    0.0000 C   0  0  3  0  0  0  0  0  0  0  0  0
    9.1704    3.6570    0.0000 C   0  0  0  0  0  0  0  0  0  0  0  0
    7.7186    4.4952    0.0000 C   0  0  0  0  0  0  0  0  0  0  0  0
    8.7484    4.6025    0.0000 C   0  0  0  0  0  0  0  0  0  0  0  0
    3.9626   -0.0046    0.0000 C   0  0  0  0  0  0  0  0  0  0  0  0
    4.6498   -1.9433    0.0000 C   0  0  0  0  0  0  0  0  0  0  0  0
   10.0931   -1.0282    0.0000 C   0  0  0  0  0  0  0  0  0  0  0  0
    9.9824   -0.2708    0.0000 C   0  0  0  0  0  0  0  0  0  0  0  0
    6.2156   -2.8887    0.0000 C   0  0  0  0  0  0  0  0  0  0  0  0
    3.2844   -0.7869    0.0000 C   0  0  0  0  0  0  0  0  0  0  0  0
    3.6303   -1.7628    0.0000 C   0  0  0  0  0  0  0  0  0  0  0  0
    6.5851   -3.8179    0.0000 C   0  0  0  0  0  0  0  0  0  0  0  0
    5.9651   -4.6025    0.0000 C   0  0  0  0  0  0  0  0  0  0  0  0
    7.5746   -3.9626    0.0000 C   0  0  0  0  0  0  0  0  0  0  0  0
    2.0000   -2.3477    0.0000 C   0  0  0  0  0  0  0  0  0  0  0  0
    7.1051   -0.4708    0.0000 H   0  0  0  0  0  0  0  0  0  0  0  0
    5.1936    0.6817    0.0000 H   0  0  0  0  0  0  0  0  0  0  0  0
    7.9711    0.7981    0.0000 H   0  0  0  0  0  0  0  0  0  0  0  0
    5.7526    2.0336    0.0000 H   0  0  0  0  0  0  0  0  0  0  0  0
    9.1505    0.3330    0.0000 H   0  0  0  0  0  0  0  0  0  0  0  0
    8.5396    0.7791    0.0000 H   0  0  0  0  0  0  0  0  0  0  0  0
    8.9685    2.7085    0.0000 H   0  0  0  0  0  0  0  0  0  0  0  0
    7.0280   -2.6935    0.0000 H   0  0  0  0  0  0  0  0  0  0  0  0
    9.5358    3.1561    0.0000 H   0  0  0  0  0  0  0  0  0  0  0  0
    9.7069    3.9677    0.0000 H   0  0  0  0  0  0  0  0  0  0  0  0
    7.7194    5.1152    0.0000 H   0  0  0  0  0  0  0  0  0  0  0  0
    7.1021    4.5612    0.0000 H   0  0  0  0  0  0  0  0  0  0  0  0
    9.3380    4.7943    0.0000 H   0  0  0  0  0  0  0  0  0  0  0  0
    8.6197    5.2090    0.0000 H   0  0  0  0  0  0  0  0  0  0  0  0
    5.4426    2.9506    0.0000 H   0  0  0  0  0  0  0  0  0  0  0  0
    4.3497    1.6036    0.0000 H   0  0  0  0  0  0  0  0  0  0  0  0
    3.7622    0.5821    0.0000 H   0  0  0  0  0  0  0  0  0  0  0  0
    4.8636   -2.5252    0.0000 H   0  0  0  0  0  0  0  0  0  0  0  0
    9.9412   -1.6293    0.0000 H   0  0  0  0  0  0  0  0  0  0  0  0
   10.6942   -1.1801    0.0000 H   0  0  0  0  0  0  0  0  0  0  0  0
   10.2450   -0.4271    0.0000 H   0  0  0  0  0  0  0  0  0  0  0  0
   10.3000   -0.8033    0.0000 H   0  0  0  0  0  0  0  0  0  0  0  0
   10.5149    0.0468    0.0000 H   0  0  0  0  0  0  0  0  0  0  0  0
    9.6648    0.2616    0.0000 H   0  0  0  0  0  0  0  0  0  0  0  0
    5.6022   -2.7990    0.0000 H   0  0  0  0  0  0  0  0  0  0  0  0
    2.6752   -0.6718    0.0000 H   0  0  0  0  0  0  0  0  0  0  0  0
    5.4786   -4.2181    0.0000 H   0  0  0  0  0  0  0  0  0  0  0  0
    5.5807   -5.0890    0.0000 H   0  0  0  0  0  0  0  0  0  0  0  0
    6.4515   -4.9869    0.0000 H   0  0  0  0  0  0  0  0  0  0  0  0
    7.4849   -4.5761    0.0000 H   0  0  0  0  0  0  0  0  0  0  0  0
    8.1881   -4.0523    0.0000 H   0  0  0  0  0  0  0  0  0  0  0  0
    7.6643   -3.3491    0.0000 H   0  0  0  0  0  0  0  0  0  0  0  0
    2.1104   -1.7376    0.0000 H   0  0  0  0  0  0  0  0  0  0  0  0
    1.3899   -2.2373    0.0000 H   0  0  0  0  0  0  0  0  0  0  0  0
    1.8896   -2.9578    0.0000 H   0  0  0  0  0  0  0  0  0  0  0  0
  1 14  1  0  0  0  0
  1 52  1  0  0  0  0
  2 15  1  0  0  0  0
  2 53  1  0  0  0  0
  3  4  1  0  0  0  0
  3 22  1  0  0  0  0
  4 23  1  0  0  0  0
  5 20  2  0  0  0  0
  6 21  2  0  0  0  0
  7 33  1  0  0  0  0
  7 37  1  0  0  0  0
  8 13  1  0  0  0  0
  8 14  1  0  0  0  0
  8 20  1  0  0  0  0
  9 11  1  0  0  0  0
  9 19  1  0  0  0  0
  9 23  1  0  0  0  0
 10 18  1  0  0  0  0
 10 21  1  0  0  0  0
 10 25  1  0  0  0  0
 11 12  1  0  0  0  0
 11 13  1  0  0  0  0
 11 38  1  0  0  0  0
 12 15  1  0  0  0  0
 12 17  1  0  0  0  0
 12 39  1  0  0  0  0
 13 16  1  0  0  0  0
 13 40  1  0  0  0  0
 14 15  1  0  0  0  0
 14 21  1  0  0  0  0
 15 41  1  0  0  0  0
 16 22  1  0  0  0  0
 16 42  1  0  0  0  0
 16 43  1  0  0  0  0
 17 19  2  0  0  0  0
 17 27  1  0  0  0  0
 18 20  1  0  0  0  0
 18 24  1  0  0  0  0
 18 44  1  0  0  0  0
 19 28  1  0  0  0  0
 22 29  1  0  0  0  0
 22 30  1  0  0  0  0
 23 31  1  0  0  0  0
 23 45  1  0  0  0  0
 24 26  1  0  0  0  0
 24 46  1  0  0  0  0
 24 47  1  0  0  0  0
 25 26  1  0  0  0  0
 25 48  1  0  0  0  0
 25 49  1  0  0  0  0
 26 50  1  0  0  0  0
 26 51  1  0  0  0  0
 27 32  2  0  0  0  0
 27 54  1  0  0  0  0
 28 33  2  0  0  0  0
 28 55  1  0  0  0  0
 29 56  1  0  0  0  0
 29 57  1  0  0  0  0
 29 58  1  0  0  0  0
 30 59  1  0  0  0  0
 30 60  1  0  0  0  0
 30 61  1  0  0  0  0
 31 34  2  0  0  0  0
 31 62  1  0  0  0  0
 32 33  1  0  0  0  0
 32 63  1  0  0  0  0
 34 35  1  0  0  0  0
 34 36  1  0  0  0  0
 35 64  1  0  0  0  0
 35 65  1  0  0  0  0
 35 66  1  0  0  0  0
 36 67  1  0  0  0  0
 36 68  1  0  0  0  0
 36 69  1  0  0  0  0
 37 70  1  0  0  0  0
 37 71  1  0  0  0  0
 37 72  1  0  0  0  0
M  END
> <PUBCHEM_COMPOUND_CID>
5661

> <PUBCHEM_COMPOUND_CANONICALIZED>
1

> <PUBCHEM_CACTVS_COMPLEXITY>
999

> <PUBCHEM_CACTVS_HBOND_ACCEPTOR>
8

> <PUBCHEM_CACTVS_HBOND_DONOR>
2

> <PUBCHEM_CACTVS_ROTATABLE_BOND>
2

> <PUBCHEM_CACTVS_SUBSKEYS>
AAADcfB7OAAAAAAAAAAAAAAAAAAAAWLAAAA8WIAAAAAWAFixAAAAHgAADAAADXzhmAYyxoMABgCIAiVSUAKCCAAhIgAIiAHObIgPdjbEsbuUcChm5hnZ6Ae42fOeoAAAAgACAABAAAAEAAQAAAAAAAAAAA==

> <PUBCHEM_IUPAC_INCHI>
InChI=1S/C27H35N3O7/c1-14(2)11-20-29-18-12-15(35-5)8-9-16(18)21-22(29)19(13-26(3,4)37-36-20)30-24(32)17-7-6-10-28(17)25(33)27(30,34)23(21)31/h8-9,11-12,17,19-23,31,34H,6-7,10,13H2,1-5H3

> <PUBCHEM_IUPAC_INCHIKEY>
GWIWVUJHTCZBOP-UHFFFAOYSA-N

> <PUBCHEM_XLOGP3_AA>
2

> <PUBCHEM_EXACT_MASS>
513.2475

> <PUBCHEM_MOLECULAR_FORMULA>
C27H35N3O7

> <PUBCHEM_MOLECULAR_WEIGHT>
513.5827

> <PUBCHEM_OPENEYE_CAN_SMILES>
CC(=CC1N2C3C(CC(OO1)(C)C)N4C(=O)C5CCCN5C(=O)C4(C(C3C6=C2C=C(C=C6)OC)O)O)C

> <PUBCHEM_OPENEYE_ISO_SMILES>
CC(=CC1N2C3C(CC(OO1)(C)C)N4C(=O)C5CCCN5C(=O)C4(C(C3C6=C2C=C(C=C6)OC)O)O)C

> <PUBCHEM_CACTVS_TPSA>
112

> <PUBCHEM_MONOISOTOPIC_WEIGHT>
513.2475

> <PUBCHEM_TOTAL_CHARGE>
0

> <PUBCHEM_HEAVY_ATOM_COUNT>
37

> <PUBCHEM_ATOM_DEF_STEREO_COUNT>
0

> <PUBCHEM_ATOM_UDEF_STEREO_COUNT>
7

> <PUBCHEM_BOND_DEF_STEREO_COUNT>
0

> <PUBCHEM_BOND_UDEF_STEREO_COUNT>
0

> <PUBCHEM_ISOTOPIC_ATOM_COUNT>
0

> <PUBCHEM_COMPONENT_COUNT>
1

> <PUBCHEM_CACTVS_TAUTO_COUNT>
2

> <PUBCHEM_COORDINATE_TYPE>
1
5
255

> <PUBCHEM_BONDANNOTATIONS>
14  1  3
12  17  3
13  16  3
17  19  8
17  27  8
18  24  3
19  28  8
15  2  3
23  31  3
27  32  8
28  33  8
32  33  8
11  9  3

$$$$

