5480817
  -OEChem-07051213152D

 36 41  0     0  0  0  0  0  0999 V2000
    2.0000    3.1060    0.0000 Cl  0  0  0  0  0  0  0  0  0  0  0  0
    2.0000   -3.1060    0.0000 Cl  0  0  0  0  0  0  0  0  0  0  0  0
    6.7531    1.7552    0.0000 O   0  0  0  0  0  0  0  0  0  0  0  0
    6.7531   -1.7552    0.0000 O   0  0  0  0  0  0  0  0  0  0  0  0
    3.0271   -1.1671    0.0000 N   0  0  0  0  0  0  0  0  0  0  0  0
    3.0271    1.1671    0.0000 N   0  0  0  0  0  0  0  0  0  0  0  0
    7.0260    0.0000    0.0000 N   0  0  0  0  0  0  0  0  0  0  0  0
    4.6302   -1.0000    0.0000 C   0  0  0  0  0  0  0  0  0  0  0  0
    4.6302    1.0000    0.0000 C   0  0  0  0  0  0  0  0  0  0  0  0
    3.7642   -0.5000    0.0000 C   0  0  0  0  0  0  0  0  0  0  0  0
    3.7642    0.5000    0.0000 C   0  0  0  0  0  0  0  0  0  0  0  0
    5.4962   -0.5000    0.0000 C   0  0  0  0  0  0  0  0  0  0  0  0
    5.4962    0.5000    0.0000 C   0  0  0  0  0  0  0  0  0  0  0  0
    4.4210   -1.9718    0.0000 C   0  0  0  0  0  0  0  0  0  0  0  0
    4.4210    1.9718    0.0000 C   0  0  0  0  0  0  0  0  0  0  0  0
    3.4322   -2.0749    0.0000 C   0  0  0  0  0  0  0  0  0  0  0  0
    3.4322    2.0749    0.0000 C   0  0  0  0  0  0  0  0  0  0  0  0
    6.4424   -0.8047    0.0000 C   0  0  0  0  0  0  0  0  0  0  0  0
    6.4424    0.8047    0.0000 C   0  0  0  0  0  0  0  0  0  0  0  0
    5.0417    2.8006    0.0000 C   0  0  0  0  0  0  0  0  0  0  0  0
    5.0417   -2.8006    0.0000 C   0  0  0  0  0  0  0  0  0  0  0  0
    2.9957   -3.0138    0.0000 C   0  0  0  0  0  0  0  0  0  0  0  0
    2.9957    3.0138    0.0000 C   0  0  0  0  0  0  0  0  0  0  0  0
    4.6270    3.7494    0.0000 C   0  0  0  0  0  0  0  0  0  0  0  0
    4.6270   -3.7494    0.0000 C   0  0  0  0  0  0  0  0  0  0  0  0
    3.5972    3.8567    0.0000 C   0  0  0  0  0  0  0  0  0  0  0  0
    3.5972   -3.8567    0.0000 C   0  0  0  0  0  0  0  0  0  0  0  0
    2.4205   -1.0392    0.0000 H   0  0  0  0  0  0  0  0  0  0  0  0
    2.4205    1.0392    0.0000 H   0  0  0  0  0  0  0  0  0  0  0  0
    7.6460    0.0000    0.0000 H   0  0  0  0  0  0  0  0  0  0  0  0
    5.6576   -2.7292    0.0000 H   0  0  0  0  0  0  0  0  0  0  0  0
    5.6576    2.7292    0.0000 H   0  0  0  0  0  0  0  0  0  0  0  0
    4.9930   -4.2499    0.0000 H   0  0  0  0  0  0  0  0  0  0  0  0
    4.9930    4.2499    0.0000 H   0  0  0  0  0  0  0  0  0  0  0  0
    3.3423   -4.4219    0.0000 H   0  0  0  0  0  0  0  0  0  0  0  0
    3.3423    4.4219    0.0000 H   0  0  0  0  0  0  0  0  0  0  0  0
  1 23  1  0  0  0  0
  2 22  1  0  0  0  0
  3 19  2  0  0  0  0
  4 18  2  0  0  0  0
  5 10  1  0  0  0  0
  5 16  1  0  0  0  0
  5 28  1  0  0  0  0
  6 11  1  0  0  0  0
  6 17  1  0  0  0  0
  6 29  1  0  0  0  0
  7 18  1  0  0  0  0
  7 19  1  0  0  0  0
  7 30  1  0  0  0  0
  8 10  1  0  0  0  0
  8 12  2  0  0  0  0
  8 14  1  0  0  0  0
  9 11  1  0  0  0  0
  9 13  2  0  0  0  0
  9 15  1  0  0  0  0
 10 11  2  0  0  0  0
 12 13  1  0  0  0  0
 12 18  1  0  0  0  0
 13 19  1  0  0  0  0
 14 16  2  0  0  0  0
 14 21  1  0  0  0  0
 15 17  2  0  0  0  0
 15 20  1  0  0  0  0
 16 22  1  0  0  0  0
 17 23  1  0  0  0  0
 20 24  2  0  0  0  0
 20 32  1  0  0  0  0
 21 25  2  0  0  0  0
 21 31  1  0  0  0  0
 22 27  2  0  0  0  0
 23 26  2  0  0  0  0
 24 26  1  0  0  0  0
 24 34  1  0  0  0  0
 25 27  1  0  0  0  0
 25 33  1  0  0  0  0
 26 36  1  0  0  0  0
 27 35  1  0  0  0  0
M  END
> <PUBCHEM_COMPOUND_CID>
5480817

> <PUBCHEM_COMPOUND_CANONICALIZED>
1

> <PUBCHEM_CACTVS_COMPLEXITY>
634

> <PUBCHEM_CACTVS_HBOND_ACCEPTOR>
2

> <PUBCHEM_CACTVS_HBOND_DONOR>
3

> <PUBCHEM_CACTVS_ROTATABLE_BOND>
0

> <PUBCHEM_CACTVS_SUBSKEYS>
AAADccB7MAAGAAAAAAAAAAAAAAAAAWLFgAAwYMAAAAAAAFgB/gAAHgIQAAAADAqBniAwwPLJkACoAyVyVACCgCQlFSAImSEgVtgIYPLBl5HUIQhghCDIyQcdicCeyAACYAASADCQAATAACQAYAAAAAAAAA==

> <PUBCHEM_IUPAC_INCHI>
InChI=1S/C20H9Cl2N3O2/c21-9-5-1-3-7-11-13-14(20(27)25-19(13)26)12-8-4-2-6-10(22)16(8)24-18(12)17(11)23-15(7)9/h1-6,23-24H,(H,25,26,27)

> <PUBCHEM_IUPAC_INCHIKEY>
ZGCSNRKSJLVANE-UHFFFAOYSA-N

> <PUBCHEM_XLOGP3_AA>
4.9

> <PUBCHEM_EXACT_MASS>
393.007182

> <PUBCHEM_MOLECULAR_FORMULA>
C20H9Cl2N3O2

> <PUBCHEM_MOLECULAR_WEIGHT>
394.21036

> <PUBCHEM_OPENEYE_CAN_SMILES>
C1=CC2=C(C(=C1)Cl)NC3=C4C(=C5C(=C23)C(=O)NC5=O)C6=C(N4)C(=CC=C6)Cl

> <PUBCHEM_OPENEYE_ISO_SMILES>
C1=CC2=C(C(=C1)Cl)NC3=C4C(=C5C(=C23)C(=O)NC5=O)C6=C(N4)C(=CC=C6)Cl

> <PUBCHEM_CACTVS_TPSA>
77.8

> <PUBCHEM_MONOISOTOPIC_WEIGHT>
393.007182

> <PUBCHEM_TOTAL_CHARGE>
0

> <PUBCHEM_HEAVY_ATOM_COUNT>
27

> <PUBCHEM_ATOM_DEF_STEREO_COUNT>
0

> <PUBCHEM_ATOM_UDEF_STEREO_COUNT>
0

> <PUBCHEM_BOND_DEF_STEREO_COUNT>
0

> <PUBCHEM_BOND_UDEF_STEREO_COUNT>
0

> <PUBCHEM_ISOTOPIC_ATOM_COUNT>
0

> <PUBCHEM_COMPONENT_COUNT>
1

> <PUBCHEM_CACTVS_TAUTO_COUNT>
117

> <PUBCHEM_COORDINATE_TYPE>
1
5
255

> <PUBCHEM_BONDANNOTATIONS>
10  11  8
12  13  8
14  16  8
14  21  8
15  17  8
15  20  8
16  22  8
17  23  8
20  24  8
21  25  8
22  27  8
23  26  8
24  26  8
25  27  8
5  10  8
5  16  8
6  11  8
6  17  8
8  10  8
8  12  8
8  14  8
9  11  8
9  13  8
9  15  8

$$$$

