46173712
  -OEChem-07051212452D

 82 85  0     1  0  0  0  0  0999 V2000
    5.0474   -2.0910    0.0000 P   0  0  3  0  0  0  0  0  0  0  0  0
    5.4104   -0.3975    0.0000 P   0  0  3  0  0  0  0  0  0  0  0  0
    4.4026   -5.5442    0.0000 O   0  0  0  0  0  0  0  0  0  0  0  0
    7.4382    1.9318    0.0000 O   0  0  0  0  0  0  0  0  0  0  0  0
    6.7523   -4.4605    0.0000 O   0  0  0  0  0  0  0  0  0  0  0  0
    6.7485   -6.6361    0.0000 O   0  0  0  0  0  0  0  0  0  0  0  0
    5.3548   -3.0426    0.0000 O   0  0  0  0  0  0  0  0  0  0  0  0
    5.3248    3.4249    0.0000 O   0  0  0  0  0  0  0  0  0  0  0  0
    7.2108    4.5094    0.0000 O   0  0  0  0  0  0  0  0  0  0  0  0
    6.0809    0.3445    0.0000 O   0  0  0  0  0  0  0  0  0  0  0  0
    4.7400   -1.1395    0.0000 O   0  0  0  0  0  0  0  0  0  0  0  0
    5.9990   -1.7837    0.0000 O   0  0  0  0  0  0  0  0  0  0  0  0
    4.6685    0.2729    0.0000 O   0  0  0  0  0  0  0  0  0  0  0  0
    4.0958   -2.3984    0.0000 O   0  0  0  0  0  0  0  0  0  0  0  0
    6.1524   -1.0679    0.0000 O   0  0  0  0  0  0  0  0  0  0  0  0
    7.3964    9.8302    0.0000 O   0  0  0  0  0  0  0  0  0  0  0  0
    9.0427    9.2921    0.0000 O   0  0  0  0  0  0  0  0  0  0  0  0
    4.6783   -7.3048    0.0000 N   0  0  0  0  0  0  0  0  0  0  0  0
    8.8251    3.0509    0.0000 N   0  0  0  0  0  0  0  0  0  0  0  0
    4.6783   -8.9142    0.0000 N   0  0  0  0  0  0  0  0  0  0  0  0
    2.8660   -7.1095    0.0000 N   0  0  0  0  0  0  0  0  0  0  0  0
    8.4679    4.7457    0.0000 N   0  0  0  0  0  0  0  0  0  0  0  0
    2.0000   -8.6095    0.0000 N   0  0  0  0  0  0  0  0  0  0  0  0
   10.1142    4.2076    0.0000 N   0  0  0  0  0  0  0  0  0  0  0  0
    2.8660  -10.1095    0.0000 N   0  0  0  0  0  0  0  0  0  0  0  0
    6.7750    7.9291    0.0000 N   0  0  0  0  0  0  0  0  0  0  0  0
    5.9422   -5.0469    0.0000 C   0  0  1  0  0  0  0  0  0  0  0  0
    5.9405   -6.0469    0.0000 C   0  0  2  0  0  0  0  0  0  0  0  0
    4.9917   -4.7362    0.0000 C   0  0  1  0  0  0  0  0  0  0  0  0
    4.9889   -6.3543    0.0000 C   0  0  1  0  0  0  0  0  0  0  0  0
    6.2377    3.0166    0.0000 C   0  0  2  0  0  0  0  0  0  0  0  0
    6.4439    2.0381    0.0000 C   0  0  1  0  0  0  0  0  0  0  0  0
    7.1046    3.5151    0.0000 C   0  0  2  0  0  0  0  0  0  0  0  0
    7.8466    2.8447    0.0000 C   0  0  2  0  0  0  0  0  0  0  0  0
    4.6844   -3.7846    0.0000 C   0  0  0  0  0  0  0  0  0  0  0  0
    5.7735    1.2961    0.0000 C   0  0  0  0  0  0  0  0  0  0  0  0
    3.7320   -7.6095    0.0000 C   0  0  0  0  0  0  0  0  0  0  0  0
    5.2619   -8.1095    0.0000 C   0  0  0  0  0  0  0  0  0  0  0  0
    3.7320   -8.6095    0.0000 C   0  0  0  0  0  0  0  0  0  0  0  0
    9.1357    4.0014    0.0000 C   0  0  0  0  0  0  0  0  0  0  0  0
    2.8660   -9.1095    0.0000 C   0  0  0  0  0  0  0  0  0  0  0  0
    2.0000   -7.6095    0.0000 C   0  0  0  0  0  0  0  0  0  0  0  0
    8.7786    5.6962    0.0000 C   0  0  0  0  0  0  0  0  0  0  0  0
    8.1107    6.4405    0.0000 C   0  0  0  0  0  0  0  0  0  0  0  0
    8.4214    7.3911    0.0000 C   0  0  0  0  0  0  0  0  0  0  0  0
    7.7535    8.1354    0.0000 C   0  0  1  0  0  0  0  0  0  0  0  0
    8.0642    9.0859    0.0000 C   0  0  0  0  0  0  0  0  0  0  0  0
    5.8463   -4.4344    0.0000 H   0  0  0  0  0  0  0  0  0  0  0  0
    5.8425   -6.6591    0.0000 H   0  0  0  0  0  0  0  0  0  0  0  0
    4.3795   -4.6382    0.0000 H   0  0  0  0  0  0  0  0  0  0  0  0
    5.4266   -6.7934    0.0000 H   0  0  0  0  0  0  0  0  0  0  0  0
    5.7552    2.6272    0.0000 H   0  0  0  0  0  0  0  0  0  0  0  0
    6.6651    1.4589    0.0000 H   0  0  0  0  0  0  0  0  0  0  0  0
    6.5852    3.8537    0.0000 H   0  0  0  0  0  0  0  0  0  0  0  0
    8.0081    3.4433    0.0000 H   0  0  0  0  0  0  0  0  0  0  0  0
    4.3035   -3.2954    0.0000 H   0  0  0  0  0  0  0  0  0  0  0  0
    4.1364   -4.0748    0.0000 H   0  0  0  0  0  0  0  0  0  0  0  0
    5.3926    1.7853    0.0000 H   0  0  0  0  0  0  0  0  0  0  0  0
    5.2256    1.0060    0.0000 H   0  0  0  0  0  0  0  0  0  0  0  0
    7.3182   -4.7136    0.0000 H   0  0  0  0  0  0  0  0  0  0  0  0
    7.3154   -6.3849    0.0000 H   0  0  0  0  0  0  0  0  0  0  0  0
    9.2391    2.5894    0.0000 H   0  0  0  0  0  0  0  0  0  0  0  0
    5.8819   -8.1095    0.0000 H   0  0  0  0  0  0  0  0  0  0  0  0
    5.2611    4.0416    0.0000 H   0  0  0  0  0  0  0  0  0  0  0  0
    6.7099    4.8747    0.0000 H   0  0  0  0  0  0  0  0  0  0  0  0
    1.4631   -7.2995    0.0000 H   0  0  0  0  0  0  0  0  0  0  0  0
   10.3069    4.7970    0.0000 H   0  0  0  0  0  0  0  0  0  0  0  0
   10.5283    3.7462    0.0000 H   0  0  0  0  0  0  0  0  0  0  0  0
    9.3255    5.4042    0.0000 H   0  0  0  0  0  0  0  0  0  0  0  0
    9.1611    6.1841    0.0000 H   0  0  0  0  0  0  0  0  0  0  0  0
    6.4590   -2.1993    0.0000 H   0  0  0  0  0  0  0  0  0  0  0  0
    7.5638    6.7326    0.0000 H   0  0  0  0  0  0  0  0  0  0  0  0
    7.7282    5.9526    0.0000 H   0  0  0  0  0  0  0  0  0  0  0  0
    4.0785    0.0824    0.0000 H   0  0  0  0  0  0  0  0  0  0  0  0
    2.3291  -10.4195    0.0000 H   0  0  0  0  0  0  0  0  0  0  0  0
    3.4030  -10.4195    0.0000 H   0  0  0  0  0  0  0  0  0  0  0  0
    8.9683    7.0990    0.0000 H   0  0  0  0  0  0  0  0  0  0  0  0
    8.8039    7.8790    0.0000 H   0  0  0  0  0  0  0  0  0  0  0  0
    7.5609    7.5460    0.0000 H   0  0  0  0  0  0  0  0  0  0  0  0
    6.3610    8.3906    0.0000 H   0  0  0  0  0  0  0  0  0  0  0  0
    6.5824    7.3398    0.0000 H   0  0  0  0  0  0  0  0  0  0  0  0
    7.5890   10.4195    0.0000 H   0  0  0  0  0  0  0  0  0  0  0  0
  1  7  1  0  0  0  0
  1 11  1  0  0  0  0
  1 12  1  0  0  0  0
  1 14  2  0  0  0  0
  2 10  1  0  0  0  0
  2 11  1  0  0  0  0
  2 13  1  0  0  0  0
  2 15  2  0  0  0  0
  3 29  1  0  0  0  0
  3 30  1  0  0  0  0
  4 32  1  0  0  0  0
  4 34  1  0  0  0  0
 27  5  1  1  0  0  0
  5 60  1  0  0  0  0
 28  6  1  1  0  0  0
  6 61  1  0  0  0  0
  7 35  1  0  0  0  0
 31  8  1  1  0  0  0
  8 64  1  0  0  0  0
 33  9  1  1  0  0  0
  9 65  1  0  0  0  0
 10 36  1  0  0  0  0
 12 71  1  0  0  0  0
 13 74  1  0  0  0  0
 16 47  1  0  0  0  0
 16 82  1  0  0  0  0
 17 47  2  0  0  0  0
 30 18  1  6  0  0  0
 18 37  1  0  0  0  0
 18 38  1  0  0  0  0
 34 19  1  1  0  0  0
 19 40  1  0  0  0  0
 19 62  1  0  0  0  0
 20 38  2  0  0  0  0
 20 39  1  0  0  0  0
 21 37  1  0  0  0  0
 21 42  2  0  0  0  0
 22 40  2  0  0  0  0
 22 43  1  0  0  0  0
 23 41  2  0  0  0  0
 23 42  1  0  0  0  0
 24 40  1  0  0  0  0
 24 67  1  0  0  0  0
 24 68  1  0  0  0  0
 25 41  1  0  0  0  0
 25 75  1  0  0  0  0
 25 76  1  0  0  0  0
 46 26  1  6  0  0  0
 26 80  1  0  0  0  0
 26 81  1  0  0  0  0
 27 28  1  0  0  0  0
 27 29  1  0  0  0  0
 27 48  1  0  0  0  0
 28 30  1  0  0  0  0
 28 49  1  0  0  0  0
 29 35  1  6  0  0  0
 29 50  1  0  0  0  0
 30 51  1  0  0  0  0
 31 32  1  0  0  0  0
 31 33  1  0  0  0  0
 31 52  1  0  0  0  0
 32 36  1  6  0  0  0
 32 53  1  0  0  0  0
 33 34  1  0  0  0  0
 33 54  1  0  0  0  0
 34 55  1  0  0  0  0
 35 56  1  0  0  0  0
 35 57  1  0  0  0  0
 36 58  1  0  0  0  0
 36 59  1  0  0  0  0
 37 39  2  0  0  0  0
 38 63  1  0  0  0  0
 39 41  1  0  0  0  0
 42 66  1  0  0  0  0
 43 44  1  0  0  0  0
 43 69  1  0  0  0  0
 43 70  1  0  0  0  0
 44 45  1  0  0  0  0
 44 72  1  0  0  0  0
 44 73  1  0  0  0  0
 45 46  1  0  0  0  0
 45 77  1  0  0  0  0
 45 78  1  0  0  0  0
 46 47  1  0  0  0  0
 46 79  1  0  0  0  0
M  END
> <PUBCHEM_COMPOUND_CID>
46173712

> <PUBCHEM_COMPOUND_CANONICALIZED>
1

> <PUBCHEM_CACTVS_COMPLEXITY>
1210

> <PUBCHEM_CACTVS_HBOND_ACCEPTOR>
21

> <PUBCHEM_CACTVS_HBOND_DONOR>
11

> <PUBCHEM_CACTVS_ROTATABLE_BOND>
16

> <PUBCHEM_CACTVS_SUBSKEYS>
AAADcfB7/AMAAAAAAAAAAAAAAAAAAWJEgAAsAAAAAAAAAFgB+AAAHgAQCCAACDzhlwYF+L/MFxCoQQbxbICAgC0REKABUKGoVBGDWBJAyEAeRAgPEALTACD4MQIAAAAAAAAAAAAAAAAAAAAAAAAAAAAAAA==

> <PUBCHEM_IUPAC_OPENEYE_NAME>
(2S)-2-amino-5-[[amino-[[(2S,3R,4S,5R)-5-[[[[(2R,3S,4R,5R)-5-(6-aminopurin-9-yl)-3,4-dihydroxy-tetrahydrofuran-2-yl]methoxy-hydroxy-phosphoryl]oxy-hydroxy-phosphoryl]oxymethyl]-3,4-dihydroxy-tetrahydrofuran-2-yl]amino]methylene]amino]pentanoic acid

> <PUBCHEM_IUPAC_CAS_NAME>
(2S)-2-amino-5-[[amino-[[(2S,3R,4S,5R)-5-[[[[(2R,3S,4R,5R)-5-(6-aminopurin-9-yl)-3,4-dihydroxy-2-oxolanyl]methoxy-hydroxyphosphoryl]oxy-hydroxyphosphoryl]oxymethyl]-3,4-dihydroxy-2-oxolanyl]amino]methylidene]amino]pentanoic acid

> <PUBCHEM_IUPAC_NAME>
(2S)-2-amino-5-[[amino-[[(2S,3R,4S,5R)-5-[[[[(2R,3S,4R,5R)-5-(6-aminopurin-9-yl)-3,4-dihydroxyoxolan-2-yl]methoxy-hydroxyphosphoryl]oxy-hydroxyphosphoryl]oxymethyl]-3,4-dihydroxyoxolan-2-yl]amino]methylidene]amino]pentanoic acid

> <PUBCHEM_IUPAC_SYSTEMATIC_NAME>
(2S)-5-[[[[(2S,3R,4S,5R)-5-[[[[(2R,3S,4R,5R)-5-(6-aminopurin-9-yl)-3,4-bis(oxidanyl)oxolan-2-yl]methoxy-oxidanyl-phosphoryl]oxy-oxidanyl-phosphoryl]oxymethyl]-3,4-bis(oxidanyl)oxolan-2-yl]amino]-azanyl-methylidene]amino]-2-azanyl-pentanoic acid

> <PUBCHEM_IUPAC_TRADITIONAL_NAME>
(2S)-5-[[[[(2S,3R,4S,5R)-5-[[[[(2R,3S,4R,5R)-5-adenin-9-yl-3,4-dihydroxy-tetrahydrofuran-2-yl]methoxy-hydroxy-phosphoryl]oxy-hydroxy-phosphoryl]oxymethyl]-3,4-dihydroxy-tetrahydrofuran-2-yl]amino]-amino-methylene]amino]-2-amino-valeric acid

> <PUBCHEM_IUPAC_INCHI>
InChI=1S/C21H35N9O15P2/c22-8(20(35)36)2-1-3-25-21(24)29-18-14(33)12(31)9(43-18)4-41-46(37,38)45-47(39,40)42-5-10-13(32)15(34)19(44-10)30-7-28-11-16(23)26-6-27-17(11)30/h6-10,12-15,18-19,31-34H,1-5,22H2,(H,35,36)(H,37,38)(H,39,40)(H2,23,26,27)(H3,24,25,29)/t8-,9+,10+,12+,13+,14+,15+,18-,19+/m0/s1

> <PUBCHEM_IUPAC_INCHIKEY>
IWVSYNGKNZFSSA-PTDVUUCPSA-N

> <PUBCHEM_XLOGP3>
-9.5

> <PUBCHEM_EXACT_MASS>
715.172785

> <PUBCHEM_MOLECULAR_FORMULA>
C21H35N9O15P2

> <PUBCHEM_MOLECULAR_WEIGHT>
715.501424

> <PUBCHEM_OPENEYE_CAN_SMILES>
C1=NC2=C(C(=N1)N)N=CN2C3C(C(C(O3)COP(=O)(O)OP(=O)(O)OCC4C(C(C(O4)NC(=NCCCC(C(=O)O)N)N)O)O)O)O

> <PUBCHEM_OPENEYE_ISO_SMILES>
C1=NC2=C(C(=N1)N)N=CN2[C@H]3[C@@H]([C@@H]([C@H](O3)COP(=O)(O)OP(=O)(O)OC[C@@H]4[C@H]([C@H]([C@H](O4)NC(=NCCC[C@@H](C(=O)O)N)N)O)O)O)O

> <PUBCHEM_CACTVS_TPSA>
385

> <PUBCHEM_MONOISOTOPIC_WEIGHT>
715.172785

> <PUBCHEM_TOTAL_CHARGE>
0

> <PUBCHEM_HEAVY_ATOM_COUNT>
47

> <PUBCHEM_ATOM_DEF_STEREO_COUNT>
9

> <PUBCHEM_ATOM_UDEF_STEREO_COUNT>
0

> <PUBCHEM_BOND_DEF_STEREO_COUNT>
0

> <PUBCHEM_BOND_UDEF_STEREO_COUNT>
0

> <PUBCHEM_ISOTOPIC_ATOM_COUNT>
0

> <PUBCHEM_COMPONENT_COUNT>
1

> <PUBCHEM_CACTVS_TAUTO_COUNT>
9

> <PUBCHEM_COORDINATE_TYPE>
1
5
255

> <PUBCHEM_BONDANNOTATIONS>
30  18  6
18  37  8
18  38  8
34  19  5
20  38  8
20  39  8
21  37  8
21  42  8
23  41  8
23  42  8
46  26  6
29  35  6
32  36  6
37  39  8
39  41  8
27  5  5
28  6  5
31  8  5
33  9  5

$$$$

