14005
  -OEChem-06241222413D

 57 59  0     0  0  0  0  0  0999 V2000
   -0.6564    1.0349   -0.1985 O   0  0  0  0  0  0  0  0  0  0  0  0
    0.6297   -2.4168   -0.0597 O   0  0  0  0  0  0  0  0  0  0  0  0
   -4.4952   -1.8280   -0.9437 O   0  0  0  0  0  0  0  0  0  0  0  0
   -4.9686    2.8961   -0.8856 O   0  0  0  0  0  0  0  0  0  0  0  0
   -2.0860   -2.7647   -0.5495 O   0  0  0  0  0  0  0  0  0  0  0  0
    4.8758   -0.1219   -1.3770 O   0  0  0  0  0  0  0  0  0  0  0  0
    5.5367    1.3482    0.8865 O   0  0  0  0  0  0  0  0  0  0  0  0
    0.1850   -2.4466    2.2259 O   0  0  0  0  0  0  0  0  0  0  0  0
   -4.8714   -1.8593    1.3665 O   0  0  0  0  0  0  0  0  0  0  0  0
   -5.3431    2.7935    1.4228 O   0  0  0  0  0  0  0  0  0  0  0  0
    5.1505   -2.0949   -0.1475 O   0  0  0  0  0  0  0  0  0  0  0  0
    5.1924    3.3226   -0.3230 O   0  0  0  0  0  0  0  0  0  0  0  0
   -2.5402   -0.4506   -0.5673 C   0  0  0  0  0  0  0  0  0  0  0  0
   -1.9899    0.8224   -0.4352 C   0  0  0  0  0  0  0  0  0  0  0  0
    0.1811   -0.0648   -0.0983 C   0  0  0  0  0  0  0  0  0  0  0  0
   -0.2244   -1.3440   -0.1973 C   0  0  0  0  0  0  0  0  0  0  0  0
    1.5850    0.3032    0.1572 C   0  0  0  0  0  0  0  0  0  0  0  0
   -1.6590   -1.6223   -0.4484 C   0  0  0  0  0  0  0  0  0  0  0  0
   -3.9078   -0.6067   -0.8070 C   0  0  0  0  0  0  0  0  0  0  0  0
   -2.8051    1.9495   -0.5415 C   0  0  0  0  0  0  0  0  0  0  0  0
   -4.1709    1.7979   -0.7810 C   0  0  0  0  0  0  0  0  0  0  0  0
   -4.7209    0.5222   -0.9136 C   0  0  0  0  0  0  0  0  0  0  0  0
    2.5818   -0.0849   -0.7381 C   0  0  0  0  0  0  0  0  0  0  0  0
    1.9171    1.0400    1.2941 C   0  0  0  0  0  0  0  0  0  0  0  0
    3.9107    0.2637   -0.4966 C   0  0  0  0  0  0  0  0  0  0  0  0
    4.2428    1.0005    0.6403 C   0  0  0  0  0  0  0  0  0  0  0  0
    3.2460    1.3884    1.5358 C   0  0  0  0  0  0  0  0  0  0  0  0
    0.7495   -2.8762    1.2279 C   0  0  0  0  0  0  0  0  0  0  0  0
   -4.9590   -2.3786    0.2618 C   0  0  0  0  0  0  0  0  0  0  0  0
   -5.5221    3.3212    0.3332 C   0  0  0  0  0  0  0  0  0  0  0  0
    1.6998   -4.0374    1.2469 C   0  0  0  0  0  0  0  0  0  0  0  0
    5.4475   -1.3717   -1.0891 C   0  0  0  0  0  0  0  0  0  0  0  0
   -5.5861   -3.7170    0.0065 C   0  0  0  0  0  0  0  0  0  0  0  0
    5.9134    2.5821    0.3326 C   0  0  0  0  0  0  0  0  0  0  0  0
   -6.3806    4.5313    0.1130 C   0  0  0  0  0  0  0  0  0  0  0  0
    6.4938   -1.7046   -2.1110 C   0  0  0  0  0  0  0  0  0  0  0  0
    7.3484    2.8734    0.6578 C   0  0  0  0  0  0  0  0  0  0  0  0
   -2.3781    2.9440   -0.4388 H   0  0  0  0  0  0  0  0  0  0  0  0
   -5.7862    0.4099   -1.1018 H   0  0  0  0  0  0  0  0  0  0  0  0
    2.3354   -0.6529   -1.6327 H   0  0  0  0  0  0  0  0  0  0  0  0
    1.1530    1.3477    2.0037 H   0  0  0  0  0  0  0  0  0  0  0  0
    3.4977    1.9613    2.4242 H   0  0  0  0  0  0  0  0  0  0  0  0
    2.6768   -3.7223    0.8716 H   0  0  0  0  0  0  0  0  0  0  0  0
    1.8208   -4.3904    2.2750 H   0  0  0  0  0  0  0  0  0  0  0  0
    1.2989   -4.8539    0.6415 H   0  0  0  0  0  0  0  0  0  0  0  0
   -6.4340   -3.6035   -0.6734 H   0  0  0  0  0  0  0  0  0  0  0  0
   -5.9483   -4.1341    0.9505 H   0  0  0  0  0  0  0  0  0  0  0  0
   -4.8426   -4.3984   -0.4144 H   0  0  0  0  0  0  0  0  0  0  0  0
   -7.2014    4.2829   -0.5642 H   0  0  0  0  0  0  0  0  0  0  0  0
   -6.8014    4.8566    1.0686 H   0  0  0  0  0  0  0  0  0  0  0  0
   -5.7752    5.3436   -0.2966 H   0  0  0  0  0  0  0  0  0  0  0  0
    7.2865   -0.9530   -2.0849 H   0  0  0  0  0  0  0  0  0  0  0  0
    6.9291   -2.6809   -1.8800 H   0  0  0  0  0  0  0  0  0  0  0  0
    6.0386   -1.7511   -3.1033 H   0  0  0  0  0  0  0  0  0  0  0  0
    7.4778    2.9257    1.7416 H   0  0  0  0  0  0  0  0  0  0  0  0
    7.6302    3.8374    0.2251 H   0  0  0  0  0  0  0  0  0  0  0  0
    7.9880    2.0974    0.2299 H   0  0  0  0  0  0  0  0  0  0  0  0
  1 14  1  0  0  0  0
  1 15  1  0  0  0  0
  2 16  1  0  0  0  0
  2 28  1  0  0  0  0
  3 19  1  0  0  0  0
  3 29  1  0  0  0  0
  4 21  1  0  0  0  0
  4 30  1  0  0  0  0
  5 18  2  0  0  0  0
  6 25  1  0  0  0  0
  6 32  1  0  0  0  0
  7 26  1  0  0  0  0
  7 34  1  0  0  0  0
  8 28  2  0  0  0  0
  9 29  2  0  0  0  0
 10 30  2  0  0  0  0
 11 32  2  0  0  0  0
 12 34  2  0  0  0  0
 13 14  2  0  0  0  0
 13 18  1  0  0  0  0
 13 19  1  0  0  0  0
 14 20  1  0  0  0  0
 15 16  2  0  0  0  0
 15 17  1  0  0  0  0
 16 18  1  0  0  0  0
 17 23  2  0  0  0  0
 17 24  1  0  0  0  0
 19 22  2  0  0  0  0
 20 21  2  0  0  0  0
 20 38  1  0  0  0  0
 21 22  1  0  0  0  0
 22 39  1  0  0  0  0
 23 25  1  0  0  0  0
 23 40  1  0  0  0  0
 24 27  2  0  0  0  0
 24 41  1  0  0  0  0
 25 26  2  0  0  0  0
 26 27  1  0  0  0  0
 27 42  1  0  0  0  0
 28 31  1  0  0  0  0
 29 33  1  0  0  0  0
 30 35  1  0  0  0  0
 31 43  1  0  0  0  0
 31 44  1  0  0  0  0
 31 45  1  0  0  0  0
 32 36  1  0  0  0  0
 33 46  1  0  0  0  0
 33 47  1  0  0  0  0
 33 48  1  0  0  0  0
 34 37  1  0  0  0  0
 35 49  1  0  0  0  0
 35 50  1  0  0  0  0
 35 51  1  0  0  0  0
 36 52  1  0  0  0  0
 36 53  1  0  0  0  0
 36 54  1  0  0  0  0
 37 55  1  0  0  0  0
 37 56  1  0  0  0  0
 37 57  1  0  0  0  0
M  END
> <PUBCHEM_COMPOUND_CID>
14005

> <PUBCHEM_CONFORMER_RMSD>
1.2

> <PUBCHEM_CONFORMER_DIVERSEORDER>
1
4
13
19
15
11
10
16
8
2
18
17
6
14
20
9
7
12
5
3

> <PUBCHEM_MMFF94_PARTIAL_CHARGES>
42
1 -0.16
10 -0.57
11 -0.57
12 -0.57
13 0.09
14 0.08
15 0.05
16 0.09
17 0.03
18 0.47
19 0.08
2 -0.23
20 -0.15
21 0.08
22 -0.15
23 -0.15
24 -0.15
25 0.08
26 0.08
27 -0.15
28 0.66
29 0.66
3 -0.23
30 0.66
31 0.06
32 0.66
33 0.06
34 0.66
35 0.06
36 0.06
37 0.06
38 0.15
39 0.15
4 -0.23
40 0.15
41 0.15
42 0.15
5 -0.57
6 -0.23
7 -0.23
8 -0.57
9 -0.57

> <PUBCHEM_EFFECTIVE_ROTOR_COUNT>
11

> <PUBCHEM_PHARMACOPHORE_FEATURES>
10
1 1 acceptor
1 10 acceptor
1 11 acceptor
1 12 acceptor
1 5 acceptor
1 8 acceptor
1 9 acceptor
6 1 13 14 15 16 18 rings
6 13 14 19 20 21 22 rings
6 17 23 24 25 26 27 rings

> <PUBCHEM_HEAVY_ATOM_COUNT>
37

> <PUBCHEM_ATOM_DEF_STEREO_COUNT>
0

> <PUBCHEM_ATOM_UDEF_STEREO_COUNT>
0

> <PUBCHEM_BOND_DEF_STEREO_COUNT>
0

> <PUBCHEM_BOND_UDEF_STEREO_COUNT>
0

> <PUBCHEM_ISOTOPIC_ATOM_COUNT>
0

> <PUBCHEM_COMPONENT_COUNT>
1

> <PUBCHEM_CACTVS_TAUTO_COUNT>
1

> <PUBCHEM_CONFORMER_ID>
000036B500000001

> <PUBCHEM_MMFF94_ENERGY>
121.561

> <PUBCHEM_FEATURE_SELFOVERLAP>
50.772

> <PUBCHEM_SHAPE_FINGERPRINT>
10050765 1 18410578413374016314
10190108 129 18200014185014481707
10675989 125 18337394954622401792
10835480 77 18260554420294568388
11007060 377 18339073792101158290
12236239 1 17417548920849957256
13073987 5 18411140208212940894
13140716 1 18195816382742318123
13540713 5 18193862507535213271
13782708 43 18260261928246741446
14118638 360 18338803312509731012
14790565 3 18339365265640342821
18608769 82 18122064204408989706
21033648 29 18273206496373915180
21279426 13 18259984915866936988
22393880 68 18409171046980028183
23559900 14 18260832609937126628
23569914 152 17172063352409411764
23569943 247 16412983537106352264
2747138 104 18129085737620228683
283562 15 18270125600463361979
3418910 222 17985820432856121005
4073 2 18410576188559637105
4098825 35 18408319961367756340
4144715 1 18410286986873561353
469060 322 18200585905280052121
5104073 3 18271812345034984954
5252454 2 18269563895744488509
563151 40 18200299035471385803
6086070 43 17822303434905988833
633830 44 18337402603462874684
6691757 9 16415204421587548448
6698420 124 18116144662171657233
6703917 75 18200026232180844864
9896288 288 18410857625514781539

> <PUBCHEM_SHAPE_MULTIPOLES>
691.01
17.69
5.23
1.41
7.88
0.66
0.19
11.94
-2.2
-5.33
1.36
1.08
-0.56
1.46

> <PUBCHEM_SHAPE_SELFOVERLAP>
1496.878

> <PUBCHEM_SHAPE_VOLUME>
368.7

> <PUBCHEM_COORDINATE_TYPE>
2
5
10

$$$$

