6441391
  -OEChem-07051213102D

 41 41  0     1  0  0  0  0  0999 V2000
    6.3302   -0.1899    0.0000 O   0  0  0  0  0  0  0  0  0  0  0  0
    2.8660   -1.1900    0.0000 O   0  0  0  0  0  0  0  0  0  0  0  0
    3.7320    0.3100    0.0000 C   0  0  2  0  0  0  0  0  0  0  0  0
    2.8660    0.8100    0.0000 C   0  0  0  0  0  0  0  0  0  0  0  0
    4.5981    0.8100    0.0000 C   0  0  0  0  0  0  0  0  0  0  0  0
    6.3301    0.8100    0.0000 C   0  0  2  0  0  0  0  0  0  0  0  0
    5.4641    0.3100    0.0000 C   0  0  0  0  0  0  0  0  0  0  0  0
    3.7320   -0.6900    0.0000 C   0  0  0  0  0  0  0  0  0  0  0  0
    7.1962    0.3100    0.0000 C   0  0  0  0  0  0  0  0  0  0  0  0
    4.5981   -1.1900    0.0000 C   0  0  0  0  0  0  0  0  0  0  0  0
    7.1962   -0.6900    0.0000 C   0  0  0  0  0  0  0  0  0  0  0  0
    2.8660    1.8100    0.0000 C   0  0  0  0  0  0  0  0  0  0  0  0
    2.0000    0.3100    0.0000 C   0  0  0  0  0  0  0  0  0  0  0  0
    5.4641   -0.6900    0.0000 C   0  0  0  0  0  0  0  0  0  0  0  0
    6.3301    1.8100    0.0000 C   0  0  0  0  0  0  0  0  0  0  0  0
    6.3301   -1.1900    0.0000 C   0  0  0  0  0  0  0  0  0  0  0  0
    5.0784   -0.2304    0.0000 C   0  0  0  0  0  0  0  0  0  0  0  0
    3.7320    0.9300    0.0000 H   0  0  0  0  0  0  0  0  0  0  0  0
    2.8660    0.1900    0.0000 H   0  0  0  0  0  0  0  0  0  0  0  0
    4.9966    1.2850    0.0000 H   0  0  0  0  0  0  0  0  0  0  0  0
    4.1996    1.2850    0.0000 H   0  0  0  0  0  0  0  0  0  0  0  0
    6.8671    1.1200    0.0000 H   0  0  0  0  0  0  0  0  0  0  0  0
    7.8067    0.2023    0.0000 H   0  0  0  0  0  0  0  0  0  0  0  0
    7.4082    0.8926    0.0000 H   0  0  0  0  0  0  0  0  0  0  0  0
    4.1996   -1.6650    0.0000 H   0  0  0  0  0  0  0  0  0  0  0  0
    4.9966   -1.6650    0.0000 H   0  0  0  0  0  0  0  0  0  0  0  0
    7.4082   -1.2726    0.0000 H   0  0  0  0  0  0  0  0  0  0  0  0
    7.8067   -0.5823    0.0000 H   0  0  0  0  0  0  0  0  0  0  0  0
    3.4860    1.8100    0.0000 H   0  0  0  0  0  0  0  0  0  0  0  0
    2.8660    2.4300    0.0000 H   0  0  0  0  0  0  0  0  0  0  0  0
    2.2460    1.8100    0.0000 H   0  0  0  0  0  0  0  0  0  0  0  0
    1.6900    0.8469    0.0000 H   0  0  0  0  0  0  0  0  0  0  0  0
    1.4631    0.0000    0.0000 H   0  0  0  0  0  0  0  0  0  0  0  0
    2.3100   -0.2269    0.0000 H   0  0  0  0  0  0  0  0  0  0  0  0
    6.9501    1.8100    0.0000 H   0  0  0  0  0  0  0  0  0  0  0  0
    6.3301    2.4300    0.0000 H   0  0  0  0  0  0  0  0  0  0  0  0
    5.7101    1.8100    0.0000 H   0  0  0  0  0  0  0  0  0  0  0  0
    6.3301   -1.8100    0.0000 H   0  0  0  0  0  0  0  0  0  0  0  0
    5.5534    0.1682    0.0000 H   0  0  0  0  0  0  0  0  0  0  0  0
    4.6799    0.2446    0.0000 H   0  0  0  0  0  0  0  0  0  0  0  0
    4.6035   -0.6289    0.0000 H   0  0  0  0  0  0  0  0  0  0  0  0
  1  7  2  0  0  0  0
  2  8  2  0  0  0  0
  3  4  1  6  0  0  0
  3  5  1  0  0  0  0
  3  8  1  0  0  0  0
  3 18  1  0  0  0  0
  4 12  1  0  0  0  0
  4 13  1  0  0  0  0
  4 19  1  0  0  0  0
  5  7  1  0  0  0  0
  5 20  1  0  0  0  0
  5 21  1  0  0  0  0
  6  7  1  0  0  0  0
  6  9  1  0  0  0  0
  6 15  1  1  0  0  0
  6 22  1  0  0  0  0
  8 10  1  0  0  0  0
  9 11  1  0  0  0  0
  9 23  1  0  0  0  0
  9 24  1  0  0  0  0
 10 14  1  0  0  0  0
 10 25  1  0  0  0  0
 10 26  1  0  0  0  0
 11 16  1  0  0  0  0
 11 27  1  0  0  0  0
 11 28  1  0  0  0  0
 12 29  1  0  0  0  0
 12 30  1  0  0  0  0
 12 31  1  0  0  0  0
 13 32  1  0  0  0  0
 13 33  1  0  0  0  0
 13 34  1  0  0  0  0
 14 16  2  0  0  0  0
 14 17  1  0  0  0  0
 15 35  1  0  0  0  0
 15 36  1  0  0  0  0
 15 37  1  0  0  0  0
 16 38  1  0  0  0  0
 17 39  1  0  0  0  0
 17 40  1  0  0  0  0
 17 41  1  0  0  0  0
M  END
> <PUBCHEM_COMPOUND_CID>
6441391

> <PUBCHEM_COMPOUND_CANONICALIZED>
1

> <PUBCHEM_CACTVS_COMPLEXITY>
326

> <PUBCHEM_CACTVS_HBOND_ACCEPTOR>
2

> <PUBCHEM_CACTVS_HBOND_DONOR>
0

> <PUBCHEM_CACTVS_ROTATABLE_BOND>
1

> <PUBCHEM_CACTVS_SUBSKEYS>
AAADceBwMAAAAAAAAAAAAAAAAAAAAAAAAAAAAAAAAAAAAACAAAAAGgAAAAAADQSAgAACAAAAAACIAqBSAAAAAAAgAAAACAEAAAgAABIAAQAAAAAAgAAIAAMJiMCOgAAAAAAAAAAAAAAAAAAAAAAAAAAAAA==

> <PUBCHEM_IUPAC_OPENEYE_NAME>
(3S,6E,10S)-3-isopropyl-6,10-dimethyl-cyclodec-6-ene-1,4-dione

> <PUBCHEM_IUPAC_CAS_NAME>
(3S,6E,10S)-6,10-dimethyl-3-propan-2-ylcyclodec-6-ene-1,4-dione

> <PUBCHEM_IUPAC_NAME>
(3S,6E,10S)-6,10-dimethyl-3-propan-2-ylcyclodec-6-ene-1,4-dione

> <PUBCHEM_IUPAC_SYSTEMATIC_NAME>
(3S,6E,10S)-6,10-dimethyl-3-propan-2-yl-cyclodec-6-ene-1,4-dione

> <PUBCHEM_IUPAC_TRADITIONAL_NAME>
(3S,6E,10S)-3-isopropyl-6,10-dimethyl-cyclodec-6-ene-1,4-quinone

> <PUBCHEM_IUPAC_INCHI>
InChI=1S/C15H24O2/c1-10(2)13-9-14(16)12(4)7-5-6-11(3)8-15(13)17/h6,10,12-13H,5,7-9H2,1-4H3/b11-6+/t12-,13-/m0/s1

> <PUBCHEM_IUPAC_INCHIKEY>
KDPFMRXIVDLQKX-NHFJXKHHSA-N

> <PUBCHEM_XLOGP3_AA>
2.7

> <PUBCHEM_EXACT_MASS>
236.17763

> <PUBCHEM_MOLECULAR_FORMULA>
C15H24O2

> <PUBCHEM_MOLECULAR_WEIGHT>
236.34986

> <PUBCHEM_OPENEYE_CAN_SMILES>
CC1CCC=C(CC(=O)C(CC1=O)C(C)C)C

> <PUBCHEM_OPENEYE_ISO_SMILES>
C[C@H]1CC/C=C(/CC(=O)[C@@H](CC1=O)C(C)C)\C

> <PUBCHEM_CACTVS_TPSA>
34.1

> <PUBCHEM_MONOISOTOPIC_WEIGHT>
236.17763

> <PUBCHEM_TOTAL_CHARGE>
0

> <PUBCHEM_HEAVY_ATOM_COUNT>
17

> <PUBCHEM_ATOM_DEF_STEREO_COUNT>
2

> <PUBCHEM_ATOM_UDEF_STEREO_COUNT>
0

> <PUBCHEM_BOND_DEF_STEREO_COUNT>
1

> <PUBCHEM_BOND_UDEF_STEREO_COUNT>
0

> <PUBCHEM_ISOTOPIC_ATOM_COUNT>
0

> <PUBCHEM_COMPONENT_COUNT>
1

> <PUBCHEM_CACTVS_TAUTO_COUNT>
64

> <PUBCHEM_COORDINATE_TYPE>
1
5
255

> <PUBCHEM_BONDANNOTATIONS>
3  4  6
6  15  5

$$$$

