442525
  -OEChem-07051212583D

 40 42  0     1  0  0  0  0  0999 V2000
   -4.1373    0.1709   -0.4147 O   0  0  0  0  0  0  0  0  0  0  0  0
    0.4176    0.1785   -0.0898 N   0  0  2  0  0  0  0  0  0  0  0  0
    1.8233   -0.2795   -0.2847 C   0  0  2  0  0  0  0  0  0  0  0  0
    2.0996   -1.6350    0.4232 C   0  0  1  0  0  0  0  0  0  0  0  0
   -0.5755   -0.8541   -0.4913 C   0  0  1  0  0  0  0  0  0  0  0  0
    2.8068    0.7989    0.2238 C   0  0  0  0  0  0  0  0  0  0  0  0
    0.2009    1.4440   -0.8296 C   0  0  0  0  0  0  0  0  0  0  0  0
    1.1046   -2.6941   -0.0552 C   0  0  0  0  0  0  0  0  0  0  0  0
    1.1006    2.5800   -0.3225 C   0  0  2  0  0  0  0  0  0  0  0  0
   -0.3135   -2.2135    0.1848 C   0  0  0  0  0  0  0  0  0  0  0  0
    2.5651    2.1603   -0.4191 C   0  0  0  0  0  0  0  0  0  0  0  0
    3.5227   -2.1557    0.1916 C   0  0  0  0  0  0  0  0  0  0  0  0
   -1.9943   -0.4105   -0.1668 C   0  0  0  0  0  0  0  0  0  0  0  0
    0.7223    3.0103    1.0985 C   0  0  0  0  0  0  0  0  0  0  0  0
   -2.5086   -0.1119    1.1082 C   0  0  0  0  0  0  0  0  0  0  0  0
   -3.0111   -0.2276   -1.0622 C   0  0  0  0  0  0  0  0  0  0  0  0
   -3.8231    0.2389    0.9057 C   0  0  0  0  0  0  0  0  0  0  0  0
    1.9995   -0.4191   -1.3618 H   0  0  0  0  0  0  0  0  0  0  0  0
    1.9672   -1.5023    1.5063 H   0  0  0  0  0  0  0  0  0  0  0  0
   -0.5016   -1.0047   -1.5786 H   0  0  0  0  0  0  0  0  0  0  0  0
    3.8398    0.5116   -0.0004 H   0  0  0  0  0  0  0  0  0  0  0  0
    2.7349    0.8865    1.3151 H   0  0  0  0  0  0  0  0  0  0  0  0
   -0.8336    1.7899   -0.7286 H   0  0  0  0  0  0  0  0  0  0  0  0
    0.3747    1.2885   -1.9031 H   0  0  0  0  0  0  0  0  0  0  0  0
    1.2631   -3.6377    0.4804 H   0  0  0  0  0  0  0  0  0  0  0  0
    1.2511   -2.9021   -1.1226 H   0  0  0  0  0  0  0  0  0  0  0  0
    0.9532    3.4507   -0.9746 H   0  0  0  0  0  0  0  0  0  0  0  0
   -1.0192   -2.9628   -0.1962 H   0  0  0  0  0  0  0  0  0  0  0  0
   -0.4874   -2.1475    1.2672 H   0  0  0  0  0  0  0  0  0  0  0  0
    3.2166    2.9128    0.0403 H   0  0  0  0  0  0  0  0  0  0  0  0
    2.8500    2.1047   -1.4778 H   0  0  0  0  0  0  0  0  0  0  0  0
    3.6398   -3.1645    0.6029 H   0  0  0  0  0  0  0  0  0  0  0  0
    3.7615   -2.1970   -0.8764 H   0  0  0  0  0  0  0  0  0  0  0  0
    4.2666   -1.5251    0.6870 H   0  0  0  0  0  0  0  0  0  0  0  0
    0.8212    2.1957    1.8224 H   0  0  0  0  0  0  0  0  0  0  0  0
    1.3594    3.8360    1.4328 H   0  0  0  0  0  0  0  0  0  0  0  0
   -0.3157    3.3587    1.1296 H   0  0  0  0  0  0  0  0  0  0  0  0
   -1.9981   -0.1417    2.0602 H   0  0  0  0  0  0  0  0  0  0  0  0
   -3.1001   -0.3294   -2.1340 H   0  0  0  0  0  0  0  0  0  0  0  0
   -4.6243    0.5466    1.5615 H   0  0  0  0  0  0  0  0  0  0  0  0
  1 16  1  0  0  0  0
  1 17  1  0  0  0  0
  2  3  1  0  0  0  0
  2  5  1  0  0  0  0
  2  7  1  0  0  0  0
  3  4  1  0  0  0  0
  3  6  1  0  0  0  0
  3 18  1  0  0  0  0
  4  8  1  0  0  0  0
  4 12  1  0  0  0  0
  4 19  1  0  0  0  0
  5 10  1  0  0  0  0
  5 13  1  0  0  0  0
  5 20  1  0  0  0  0
  6 11  1  0  0  0  0
  6 21  1  0  0  0  0
  6 22  1  0  0  0  0
  7  9  1  0  0  0  0
  7 23  1  0  0  0  0
  7 24  1  0  0  0  0
  8 10  1  0  0  0  0
  8 25  1  0  0  0  0
  8 26  1  0  0  0  0
  9 11  1  0  0  0  0
  9 14  1  0  0  0  0
  9 27  1  0  0  0  0
 10 28  1  0  0  0  0
 10 29  1  0  0  0  0
 11 30  1  0  0  0  0
 11 31  1  0  0  0  0
 12 32  1  0  0  0  0
 12 33  1  0  0  0  0
 12 34  1  0  0  0  0
 13 15  1  0  0  0  0
 13 16  2  0  0  0  0
 14 35  1  0  0  0  0
 14 36  1  0  0  0  0
 14 37  1  0  0  0  0
 15 17  2  0  0  0  0
 15 38  1  0  0  0  0
 16 39  1  0  0  0  0
 17 40  1  0  0  0  0
M  END
> <PUBCHEM_COMPOUND_CID>
442525

> <PUBCHEM_CONFORMER_RMSD>
0.6

> <PUBCHEM_CONFORMER_DIVERSEORDER>
1
7
14
11
9
3
6
13
12
8
4
5
10
2

> <PUBCHEM_MMFF94_PARTIAL_CHARGES>
12
1 -0.28
13 -0.18
15 -0.15
16 -0.01
17 -0.01
2 -0.81
3 0.27
38 0.15
39 0.15
40 0.15
5 0.45
7 0.27

> <PUBCHEM_EFFECTIVE_ROTOR_COUNT>
2.6

> <PUBCHEM_PHARMACOPHORE_FEATURES>
5
1 1 acceptor
1 2 cation
5 1 13 15 16 17 rings
6 2 3 4 5 8 10 rings
6 2 3 6 7 9 11 rings

> <PUBCHEM_HEAVY_ATOM_COUNT>
17

> <PUBCHEM_ATOM_DEF_STEREO_COUNT>
4

> <PUBCHEM_ATOM_UDEF_STEREO_COUNT>
0

> <PUBCHEM_BOND_DEF_STEREO_COUNT>
0

> <PUBCHEM_BOND_UDEF_STEREO_COUNT>
0

> <PUBCHEM_ISOTOPIC_ATOM_COUNT>
0

> <PUBCHEM_COMPONENT_COUNT>
1

> <PUBCHEM_CACTVS_TAUTO_COUNT>
1

> <PUBCHEM_CONFORMER_ID>
0006C09D00000001

> <PUBCHEM_MMFF94_ENERGY>
18.12

> <PUBCHEM_FEATURE_SELFOVERLAP>
25.39

> <PUBCHEM_SHAPE_FINGERPRINT>
104564 63 18048309247916557460
10967382 1 18411702071492040142
10980938 120 18411982433850765988
11471102 20 18413111679632142855
11578080 2 17317929976065500017
11640471 11 17749653161029704001
12507560 14 18334862761266881062
12553582 1 18267306619584113822
12654215 9 18271814548326833724
13132413 78 18263077889141526609
13134695 92 18336837467076070669
13140716 1 18051415072065639088
13294875 104 18116721711890476104
14178342 30 17978241456487399680
14223421 5 18055343635585774203
14251717 144 18411144623297000415
14790565 3 18339629110494371468
15490181 7 17905881479424420302
15501101 241 18273495684399375967
15775835 57 18263075527189004309
16945 1 18341332197680130492
17357779 13 18123483922943525910
17357990 137 17677871557242339465
1813 80 17899400163406119166
18186145 218 18335132073080552975
18219364 16 18270394971694412953
19049666 15 17845662576480776349
20559304 39 18408599271047999073
20645477 70 18271536342263450983
20671657 1 18336264531318001950
21041028 32 18265324191534086817
21061003 4 18270678800350280943
21524375 3 18047185259201616093
21639500 275 18338529551278407847
22182313 1 18197799875848483820
23175994 123 18199464552968511727
23184049 59 18410575110470078818
2334 1 17619348710613402692
23388829 49 18262800794909755392
23598291 2 18114187436488459215
238 59 17909873960773994797
25 1 18340201878209729236
2748010 2 18196954368328156420
305870 269 18267302028057800349
3286 77 18272364278956668559
350125 39 17764299548890259520
474 4 18409448046985567873
54173680 148 17187005835146554258
6992083 37 18041564753498141519
7364860 26 18410013217057311990
7471813 234 18041862695611456677
77492 1 17894632552338957999
7832392 63 18335140839124920606
81228 2 17547853409203539074
8272917 22 18410287030376719687
84936 182 18187931603911916513

> <PUBCHEM_SHAPE_MULTIPOLES>
339
5.72
3.26
0.98
4.4
0.76
-0.08
-0.66
-0.37
-3.22
-0.39
0.48
0.27
-0.28

> <PUBCHEM_SHAPE_SELFOVERLAP>
709.001

> <PUBCHEM_SHAPE_VOLUME>
194

> <PUBCHEM_COORDINATE_TYPE>
2
5
10

$$$$

