115227
  -OEChem-07051213032D

 31 32  0     0  0  0  0  0  0999 V2000
    3.6060    0.0000    0.0000 Cl  0  0  0  0  0  0  0  0  0  0  0  0
    0.8660    6.6172    0.0000 O   0  0  0  0  0  0  0  0  0  0  0  0
    6.0622    4.6172    0.0000 N   0  0  0  0  0  0  0  0  0  0  0  0
    2.5981    6.6172    0.0000 N   0  0  0  0  0  0  0  0  0  0  0  0
    7.0084    3.3124    0.0000 N   0  0  0  0  0  0  0  0  0  0  0  0
    0.0000    4.1172    0.0000 N   0  0  0  0  0  0  0  0  0  0  0  0
    4.3301    4.6172    0.0000 C   0  0  0  0  0  0  0  0  0  0  0  0
    3.4641    5.1172    0.0000 C   0  0  0  0  0  0  0  0  0  0  0  0
    3.4641    6.1172    0.0000 C   0  0  0  0  0  0  0  0  0  0  0  0
    5.1962    5.1172    0.0000 C   0  0  0  0  0  0  0  0  0  0  0  0
    6.0622    3.6172    0.0000 C   0  0  0  0  0  0  0  0  0  0  0  0
    4.3301    3.6172    0.0000 C   0  0  0  0  0  0  0  0  0  0  0  0
    2.5981    4.6172    0.0000 C   0  0  0  0  0  0  0  0  0  0  0  0
    5.1962    3.1172    0.0000 C   0  0  0  0  0  0  0  0  0  0  0  0
    7.0084    4.9219    0.0000 C   0  0  0  0  0  0  0  0  0  0  0  0
    1.7320    5.1172    0.0000 C   0  0  0  0  0  0  0  0  0  0  0  0
    4.3301    6.6172    0.0000 C   0  0  0  0  0  0  0  0  0  0  0  0
    1.7320    6.1172    0.0000 C   0  0  0  0  0  0  0  0  0  0  0  0
    7.5920    4.1172    0.0000 C   0  0  0  0  0  0  0  0  0  0  0  0
    0.8660    4.6172    0.0000 C   0  0  0  0  0  0  0  0  0  0  0  0
    5.1962    5.7372    0.0000 H   0  0  0  0  0  0  0  0  0  0  0  0
    3.7932    3.3072    0.0000 H   0  0  0  0  0  0  0  0  0  0  0  0
    2.5981    3.9972    0.0000 H   0  0  0  0  0  0  0  0  0  0  0  0
    5.1962    2.4972    0.0000 H   0  0  0  0  0  0  0  0  0  0  0  0
    2.5981    7.2372    0.0000 H   0  0  0  0  0  0  0  0  0  0  0  0
    7.2010    5.5112    0.0000 H   0  0  0  0  0  0  0  0  0  0  0  0
    4.6401    6.0802    0.0000 H   0  0  0  0  0  0  0  0  0  0  0  0
    4.8671    6.9272    0.0000 H   0  0  0  0  0  0  0  0  0  0  0  0
    4.0201    7.1541    0.0000 H   0  0  0  0  0  0  0  0  0  0  0  0
    8.2120    4.1172    0.0000 H   0  0  0  0  0  0  0  0  0  0  0  0
    4.6060    0.0000    0.0000 H   0  0  0  0  0  0  0  0  0  0  0  0
  1 31  1  0  0  0  0
  2 18  2  0  0  0  0
  3 10  1  0  0  0  0
  3 11  1  0  0  0  0
  3 15  1  0  0  0  0
  4  9  1  0  0  0  0
  4 18  1  0  0  0  0
  4 25  1  0  0  0  0
  5 11  2  0  0  0  0
  5 19  1  0  0  0  0
  6 20  3  0  0  0  0
  7  8  1  0  0  0  0
  7 10  2  0  0  0  0
  7 12  1  0  0  0  0
  8  9  2  0  0  0  0
  8 13  1  0  0  0  0
  9 17  1  0  0  0  0
 10 21  1  0  0  0  0
 11 14  1  0  0  0  0
 12 14  2  0  0  0  0
 12 22  1  0  0  0  0
 13 16  2  0  0  0  0
 13 23  1  0  0  0  0
 14 24  1  0  0  0  0
 15 19  2  0  0  0  0
 15 26  1  0  0  0  0
 16 18  1  0  0  0  0
 16 20  1  0  0  0  0
 17 27  1  0  0  0  0
 17 28  1  0  0  0  0
 17 29  1  0  0  0  0
 19 30  1  0  0  0  0
M  END
> <PUBCHEM_COMPOUND_CID>
115227

> <PUBCHEM_COMPOUND_CANONICALIZED>
1

> <PUBCHEM_CACTVS_COMPLEXITY>
525

> <PUBCHEM_CACTVS_HBOND_ACCEPTOR>
3

> <PUBCHEM_CACTVS_HBOND_DONOR>
2

> <PUBCHEM_CACTVS_ROTATABLE_BOND>
1

> <PUBCHEM_CACTVS_SUBSKEYS>
AAADccBzoAAEAAAAAAAAAAAAAAAAAWAAAAAsQAAAAAAAAFgB4AAAHgAQAAAADAjBmwQ/sJ/MGAC4Bjd3dACigC0xEqAJ2CE4dNiI6OLAmZGUIAholALIyacQAAAOAAAAAAAAAAAAAAAAAAAAAAAAAAAAAA==

> <PUBCHEM_IUPAC_OPENEYE_NAME>
5-imidazo[1,2-a]pyridin-6-yl-6-methyl-2-oxo-1H-pyridine-3-carbonitrile hydrochloride

> <PUBCHEM_IUPAC_CAS_NAME>
5-(6-imidazo[1,2-a]pyridinyl)-6-methyl-2-oxo-1H-pyridine-3-carbonitrile hydrochloride

> <PUBCHEM_IUPAC_NAME>
5-imidazo[1,2-a]pyridin-6-yl-6-methyl-2-oxo-1H-pyridine-3-carbonitrile hydrochloride

> <PUBCHEM_IUPAC_SYSTEMATIC_NAME>
5-imidazo[1,2-a]pyridin-6-yl-6-methyl-2-oxidanylidene-1H-pyridine-3-carbonitrile hydrochloride

> <PUBCHEM_IUPAC_TRADITIONAL_NAME>
5-imidazo[1,2-a]pyridin-6-yl-2-keto-6-methyl-1H-pyridine-3-carbonitrile hydrochloride

> <PUBCHEM_IUPAC_INCHI>
InChI=1S/C14H10N4O.ClH/c1-9-12(6-11(7-15)14(19)17-9)10-2-3-13-16-4-5-18(13)8-10;/h2-6,8H,1H3,(H,17,19);1H

> <PUBCHEM_IUPAC_INCHIKEY>
PWTBMBAQRAOAFF-UHFFFAOYSA-N

> <PUBCHEM_EXACT_MASS>
286.062139

> <PUBCHEM_MOLECULAR_FORMULA>
C14H11ClN4O

> <PUBCHEM_MOLECULAR_WEIGHT>
286.71634

> <PUBCHEM_OPENEYE_CAN_SMILES>
CC1=C(C=C(C(=O)N1)C#N)C2=CN3C=CN=C3C=C2.Cl

> <PUBCHEM_OPENEYE_ISO_SMILES>
CC1=C(C=C(C(=O)N1)C#N)C2=CN3C=CN=C3C=C2.Cl

> <PUBCHEM_CACTVS_TPSA>
70.2

> <PUBCHEM_MONOISOTOPIC_WEIGHT>
286.062139

> <PUBCHEM_TOTAL_CHARGE>
0

> <PUBCHEM_HEAVY_ATOM_COUNT>
20

> <PUBCHEM_ATOM_DEF_STEREO_COUNT>
0

> <PUBCHEM_ATOM_UDEF_STEREO_COUNT>
0

> <PUBCHEM_BOND_DEF_STEREO_COUNT>
0

> <PUBCHEM_BOND_UDEF_STEREO_COUNT>
0

> <PUBCHEM_ISOTOPIC_ATOM_COUNT>
0

> <PUBCHEM_COMPONENT_COUNT>
2

> <PUBCHEM_CACTVS_TAUTO_COUNT>
5

> <PUBCHEM_COORDINATE_TYPE>
1
5
255

> <PUBCHEM_BONDANNOTATIONS>
11  14  8
12  14  8
13  16  8
15  19  8
16  18  8
3  10  8
3  11  8
3  15  8
4  18  8
4  9  8
5  11  8
5  19  8
7  10  8
7  12  8
8  13  8
8  9  8

$$$$

