6751
  -OEChem-07051213102D

 42 43  0     0  0  0  0  0  0999 V2000
    2.0000    3.0000    0.0000 O   0  0  0  0  0  0  0  0  0  0  0  0
    5.4641    3.0000    0.0000 O   0  0  0  0  0  0  0  0  0  0  0  0
    3.7320    3.0000    0.0000 N   0  0  0  0  0  0  0  0  0  0  0  0
    3.7320   -1.0000    0.0000 N   0  0  0  0  0  0  0  0  0  0  0  0
    4.5981   -1.5000    0.0000 N   0  0  0  0  0  0  0  0  0  0  0  0
    3.7320    2.0000    0.0000 C   0  0  0  0  0  0  0  0  0  0  0  0
    2.8660    1.5000    0.0000 C   0  0  0  0  0  0  0  0  0  0  0  0
    4.5981    1.5000    0.0000 C   0  0  0  0  0  0  0  0  0  0  0  0
    2.8660    0.5000    0.0000 C   0  0  0  0  0  0  0  0  0  0  0  0
    3.7320    0.0000    0.0000 C   0  0  0  0  0  0  0  0  0  0  0  0
    4.5981    0.5000    0.0000 C   0  0  0  0  0  0  0  0  0  0  0  0
    2.0000    2.0000    0.0000 C   0  0  0  0  0  0  0  0  0  0  0  0
    4.5981    3.5000    0.0000 C   0  0  0  0  0  0  0  0  0  0  0  0
    2.8660    3.5000    0.0000 C   0  0  0  0  0  0  0  0  0  0  0  0
    4.5981   -2.5000    0.0000 C   0  0  0  0  0  0  0  0  0  0  0  0
    3.7320   -3.0000    0.0000 C   0  0  0  0  0  0  0  0  0  0  0  0
    4.5981    4.5000    0.0000 C   0  0  0  0  0  0  0  0  0  0  0  0
    2.8660    4.5000    0.0000 C   0  0  0  0  0  0  0  0  0  0  0  0
    3.7320   -4.0000    0.0000 C   0  0  0  0  0  0  0  0  0  0  0  0
    5.4641   -3.0000    0.0000 C   0  0  0  0  0  0  0  0  0  0  0  0
    2.8660   -2.5000    0.0000 C   0  0  0  0  0  0  0  0  0  0  0  0
    4.5981   -4.5000    0.0000 C   0  0  0  0  0  0  0  0  0  0  0  0
    5.4641   -4.0000    0.0000 C   0  0  0  0  0  0  0  0  0  0  0  0
    5.1350    1.8100    0.0000 H   0  0  0  0  0  0  0  0  0  0  0  0
    2.3291    0.1900    0.0000 H   0  0  0  0  0  0  0  0  0  0  0  0
    5.1350    0.1900    0.0000 H   0  0  0  0  0  0  0  0  0  0  0  0
    2.3100    2.5369    0.0000 H   0  0  0  0  0  0  0  0  0  0  0  0
    1.4631    2.3100    0.0000 H   0  0  0  0  0  0  0  0  0  0  0  0
    1.6900    1.4631    0.0000 H   0  0  0  0  0  0  0  0  0  0  0  0
    3.4860    4.5000    0.0000 H   0  0  0  0  0  0  0  0  0  0  0  0
    2.8660    5.1200    0.0000 H   0  0  0  0  0  0  0  0  0  0  0  0
    2.2460    4.5000    0.0000 H   0  0  0  0  0  0  0  0  0  0  0  0
    5.2181    4.5000    0.0000 H   0  0  0  0  0  0  0  0  0  0  0  0
    4.5981    5.1200    0.0000 H   0  0  0  0  0  0  0  0  0  0  0  0
    3.9781    4.5000    0.0000 H   0  0  0  0  0  0  0  0  0  0  0  0
    3.1951   -4.3100    0.0000 H   0  0  0  0  0  0  0  0  0  0  0  0
    6.0010   -2.6900    0.0000 H   0  0  0  0  0  0  0  0  0  0  0  0
    3.1760   -1.9631    0.0000 H   0  0  0  0  0  0  0  0  0  0  0  0
    2.3291   -2.1900    0.0000 H   0  0  0  0  0  0  0  0  0  0  0  0
    2.5560   -3.0369    0.0000 H   0  0  0  0  0  0  0  0  0  0  0  0
    4.5981   -5.1200    0.0000 H   0  0  0  0  0  0  0  0  0  0  0  0
    6.0010   -4.3100    0.0000 H   0  0  0  0  0  0  0  0  0  0  0  0
  1 14  2  0  0  0  0
  2 13  2  0  0  0  0
  3  6  1  0  0  0  0
  3 13  1  0  0  0  0
  3 14  1  0  0  0  0
  4  5  2  0  0  0  0
  4 10  1  0  0  0  0
  5 15  1  0  0  0  0
  6  7  2  0  0  0  0
  6  8  1  0  0  0  0
  7  9  1  0  0  0  0
  7 12  1  0  0  0  0
  8 11  2  0  0  0  0
  8 24  1  0  0  0  0
  9 10  2  0  0  0  0
  9 25  1  0  0  0  0
 10 11  1  0  0  0  0
 11 26  1  0  0  0  0
 12 27  1  0  0  0  0
 12 28  1  0  0  0  0
 12 29  1  0  0  0  0
 13 17  1  0  0  0  0
 14 18  1  0  0  0  0
 15 16  1  0  0  0  0
 15 20  2  0  0  0  0
 16 19  2  0  0  0  0
 16 21  1  0  0  0  0
 17 33  1  0  0  0  0
 17 34  1  0  0  0  0
 17 35  1  0  0  0  0
 18 30  1  0  0  0  0
 18 31  1  0  0  0  0
 18 32  1  0  0  0  0
 19 22  1  0  0  0  0
 19 36  1  0  0  0  0
 20 23  1  0  0  0  0
 20 37  1  0  0  0  0
 21 38  1  0  0  0  0
 21 39  1  0  0  0  0
 21 40  1  0  0  0  0
 22 23  2  0  0  0  0
 22 41  1  0  0  0  0
 23 42  1  0  0  0  0
M  END
> <PUBCHEM_COMPOUND_CID>
6751

> <PUBCHEM_COMPOUND_CANONICALIZED>
1

> <PUBCHEM_CACTVS_COMPLEXITY>
449

> <PUBCHEM_CACTVS_HBOND_ACCEPTOR>
4

> <PUBCHEM_CACTVS_HBOND_DONOR>
0

> <PUBCHEM_CACTVS_ROTATABLE_BOND>
3

> <PUBCHEM_CACTVS_SUBSKEYS>
AAADceB7MAAAAAAAAAAAAAAAAAAAAAAAAAAwYAAAAAAAAAABQAAAHgAIAAAADAiBmAAywIMAAACKAiVSUACCAAAhAgAIiAAAZIgIICLAkZGEIAhghCDIyAcQgAAOAACAQAACAAAAAQCAAAQAAAAAAAAAAA==

> <PUBCHEM_IUPAC_OPENEYE_NAME>
N-acetyl-N-[2-methyl-4-(o-tolylazo)phenyl]acetamide

> <PUBCHEM_IUPAC_CAS_NAME>
N-acetyl-N-[2-methyl-4-(2-methylphenyl)azophenyl]acetamide

> <PUBCHEM_IUPAC_NAME>
N-acetyl-N-[2-methyl-4-[(2-methylphenyl)diazenyl]phenyl]acetamide

> <PUBCHEM_IUPAC_SYSTEMATIC_NAME>
N-ethanoyl-N-[2-methyl-4-[(2-methylphenyl)diazenyl]phenyl]ethanamide

> <PUBCHEM_IUPAC_TRADITIONAL_NAME>
N-acetyl-N-[2-methyl-4-(o-tolylazo)phenyl]acetamide

> <PUBCHEM_IUPAC_INCHI>
InChI=1S/C18H19N3O2/c1-12-7-5-6-8-17(12)20-19-16-9-10-18(13(2)11-16)21(14(3)22)15(4)23/h5-11H,1-4H3

> <PUBCHEM_IUPAC_INCHIKEY>
YIEDSISPYKQADU-UHFFFAOYSA-N

> <PUBCHEM_XLOGP3_AA>
3.6

> <PUBCHEM_EXACT_MASS>
309.147727

> <PUBCHEM_MOLECULAR_FORMULA>
C18H19N3O2

> <PUBCHEM_MOLECULAR_WEIGHT>
309.36236

> <PUBCHEM_OPENEYE_CAN_SMILES>
CC1=CC=CC=C1N=NC2=CC(=C(C=C2)N(C(=O)C)C(=O)C)C

> <PUBCHEM_OPENEYE_ISO_SMILES>
CC1=CC=CC=C1N=NC2=CC(=C(C=C2)N(C(=O)C)C(=O)C)C

> <PUBCHEM_CACTVS_TPSA>
62.1

> <PUBCHEM_MONOISOTOPIC_WEIGHT>
309.147727

> <PUBCHEM_TOTAL_CHARGE>
0

> <PUBCHEM_HEAVY_ATOM_COUNT>
23

> <PUBCHEM_ATOM_DEF_STEREO_COUNT>
0

> <PUBCHEM_ATOM_UDEF_STEREO_COUNT>
0

> <PUBCHEM_BOND_DEF_STEREO_COUNT>
0

> <PUBCHEM_BOND_UDEF_STEREO_COUNT>
0

> <PUBCHEM_ISOTOPIC_ATOM_COUNT>
0

> <PUBCHEM_COMPONENT_COUNT>
1

> <PUBCHEM_CACTVS_TAUTO_COUNT>
1

> <PUBCHEM_COORDINATE_TYPE>
1
5
255

> <PUBCHEM_BONDANNOTATIONS>
10  11  8
15  16  8
15  20  8
16  19  8
19  22  8
20  23  8
22  23  8
6  7  8
6  8  8
7  9  8
8  11  8
9  10  8

$$$$

