10098570
  -OEChem-07051213083D

 92 92  0     0  0  0  0  0  0999 V2000
  -12.2389    1.0702    1.0831 C   0  0  0  0  0  0  0  0  0  0  0  0
  -11.6640    1.0107   -0.1865 C   0  0  0  0  0  0  0  0  0  0  0  0
  -13.5433    0.6170    1.2800 C   0  0  0  0  0  0  0  0  0  0  0  0
  -12.3936    0.4984   -1.2592 C   0  0  0  0  0  0  0  0  0  0  0  0
  -14.2728    0.1045    0.2071 C   0  0  0  0  0  0  0  0  0  0  0  0
  -13.6981    0.0453   -1.0625 C   0  0  0  0  0  0  0  0  0  0  0  0
  -11.4687    1.6181    2.2450 C   0  0  0  0  0  0  0  0  0  0  0  0
   12.9687    0.5188    0.5297 C   0  0  0  0  0  0  0  0  0  0  0  0
  -10.2863    1.4885   -0.3977 C   0  0  0  0  0  0  0  0  0  0  0  0
   13.5264    1.5856   -0.4208 C   0  0  0  0  0  0  0  0  0  0  0  0
  -14.1840    0.6677    2.6284 C   0  0  0  0  0  0  0  0  0  0  0  0
  -11.8138    0.4171   -2.6352 C   0  0  0  0  0  0  0  0  0  0  0  0
   11.5114    0.7382    0.8900 C   0  0  0  0  0  0  0  0  0  0  0  0
   14.9398    1.2983   -0.8499 C   0  0  0  0  0  0  0  0  0  0  0  0
   -9.1972    0.7082   -0.2965 C   0  0  0  0  0  0  0  0  0  0  0  0
   16.0171    2.1018   -0.7650 C   0  0  0  0  0  0  0  0  0  0  0  0
   11.2167    2.0247    1.6161 C   0  0  0  0  0  0  0  0  0  0  0  0
   10.5848   -0.1692    0.5246 C   0  0  0  0  0  0  0  0  0  0  0  0
   -7.8012    1.1209   -0.4745 C   0  0  0  0  0  0  0  0  0  0  0  0
   17.3594    1.6264   -1.2541 C   0  0  0  0  0  0  0  0  0  0  0  0
   16.0197    3.4951   -0.2042 C   0  0  0  0  0  0  0  0  0  0  0  0
    9.1544   -0.1163    0.7380 C   0  0  0  0  0  0  0  0  0  0  0  0
   -7.5445    2.5719   -0.7919 C   0  0  0  0  0  0  0  0  0  0  0  0
   -6.8403    0.1830   -0.3310 C   0  0  0  0  0  0  0  0  0  0  0  0
    8.2984   -1.0717    0.3379 C   0  0  0  0  0  0  0  0  0  0  0  0
    6.8489   -1.0746    0.5240 C   0  0  0  0  0  0  0  0  0  0  0  0
   -5.4052    0.3515   -0.4582 C   0  0  0  0  0  0  0  0  0  0  0  0
   -4.4816   -0.6136   -0.3065 C   0  0  0  0  0  0  0  0  0  0  0  0
    6.2314    0.1138    1.2223 C   0  0  0  0  0  0  0  0  0  0  0  0
    6.0392   -2.0676    0.0977 C   0  0  0  0  0  0  0  0  0  0  0  0
   -3.0400   -0.4706   -0.4286 C   0  0  0  0  0  0  0  0  0  0  0  0
    4.5985   -2.1677    0.2306 C   0  0  0  0  0  0  0  0  0  0  0  0
   -2.1666   -1.4828   -0.2634 C   0  0  0  0  0  0  0  0  0  0  0  0
    2.4539   -3.3609   -0.1299 C   0  0  0  0  0  0  0  0  0  0  0  0
    3.8982   -3.2133   -0.2378 C   0  0  0  0  0  0  0  0  0  0  0  0
   -2.5686    0.9089   -0.8040 C   0  0  0  0  0  0  0  0  0  0  0  0
    1.5423   -2.3803   -0.2871 C   0  0  0  0  0  0  0  0  0  0  0  0
   -0.7218   -1.4474   -0.3623 C   0  0  0  0  0  0  0  0  0  0  0  0
    0.1009   -2.4927   -0.1867 C   0  0  0  0  0  0  0  0  0  0  0  0
    2.0205   -4.7561    0.2389 C   0  0  0  0  0  0  0  0  0  0  0  0
  -15.2905   -0.2519    0.3427 H   0  0  0  0  0  0  0  0  0  0  0  0
  -14.2812   -0.3577   -1.8862 H   0  0  0  0  0  0  0  0  0  0  0  0
  -10.7177    2.3557    1.9449 H   0  0  0  0  0  0  0  0  0  0  0  0
  -10.9632    0.8043    2.7753 H   0  0  0  0  0  0  0  0  0  0  0  0
  -12.1113    2.1522    2.9519 H   0  0  0  0  0  0  0  0  0  0  0  0
   13.1059   -0.4728    0.0781 H   0  0  0  0  0  0  0  0  0  0  0  0
   13.5587    0.5073    1.4558 H   0  0  0  0  0  0  0  0  0  0  0  0
  -10.2130    2.5448   -0.6401 H   0  0  0  0  0  0  0  0  0  0  0  0
   13.4397    2.5696    0.0450 H   0  0  0  0  0  0  0  0  0  0  0  0
   12.9063    1.6181   -1.3261 H   0  0  0  0  0  0  0  0  0  0  0  0
  -15.1362    0.1254    2.6416 H   0  0  0  0  0  0  0  0  0  0  0  0
  -14.3949    1.7031    2.9150 H   0  0  0  0  0  0  0  0  0  0  0  0
  -13.5467    0.1977    3.3848 H   0  0  0  0  0  0  0  0  0  0  0  0
  -11.4621    1.3994   -2.9679 H   0  0  0  0  0  0  0  0  0  0  0  0
  -10.9835   -0.2962   -2.6608 H   0  0  0  0  0  0  0  0  0  0  0  0
  -12.5546    0.0805   -3.3690 H   0  0  0  0  0  0  0  0  0  0  0  0
   15.0765    0.3129   -1.2948 H   0  0  0  0  0  0  0  0  0  0  0  0
   -9.3533   -0.3422   -0.0500 H   0  0  0  0  0  0  0  0  0  0  0  0
   11.9669    2.1978    2.3956 H   0  0  0  0  0  0  0  0  0  0  0  0
   11.2379    2.8706    0.9221 H   0  0  0  0  0  0  0  0  0  0  0  0
   10.2470    2.0250    2.1194 H   0  0  0  0  0  0  0  0  0  0  0  0
   10.9269   -1.0561   -0.0087 H   0  0  0  0  0  0  0  0  0  0  0  0
   17.7257    2.2813   -2.0516 H   0  0  0  0  0  0  0  0  0  0  0  0
   17.3229    0.6071   -1.6527 H   0  0  0  0  0  0  0  0  0  0  0  0
   18.0860    1.6360   -0.4349 H   0  0  0  0  0  0  0  0  0  0  0  0
   15.0396    3.8452    0.1231 H   0  0  0  0  0  0  0  0  0  0  0  0
   16.3779    4.2019   -0.9605 H   0  0  0  0  0  0  0  0  0  0  0  0
   16.6909    3.5493    0.6596 H   0  0  0  0  0  0  0  0  0  0  0  0
    8.7739    0.7615    1.2482 H   0  0  0  0  0  0  0  0  0  0  0  0
   -8.0302    2.8483   -1.7346 H   0  0  0  0  0  0  0  0  0  0  0  0
   -6.4884    2.8246   -0.9007 H   0  0  0  0  0  0  0  0  0  0  0  0
   -7.9368    3.2133    0.0055 H   0  0  0  0  0  0  0  0  0  0  0  0
   -7.1397   -0.8387   -0.0942 H   0  0  0  0  0  0  0  0  0  0  0  0
    8.6977   -1.9452   -0.1766 H   0  0  0  0  0  0  0  0  0  0  0  0
   -5.0751    1.3556   -0.6966 H   0  0  0  0  0  0  0  0  0  0  0  0
   -4.8267   -1.6182   -0.0637 H   0  0  0  0  0  0  0  0  0  0  0  0
    6.5065   -2.9121   -0.4101 H   0  0  0  0  0  0  0  0  0  0  0  0
    6.4713    1.0345    0.6767 H   0  0  0  0  0  0  0  0  0  0  0  0
    6.6358    0.2019    2.2378 H   0  0  0  0  0  0  0  0  0  0  0  0
    5.1479    0.1111    1.3307 H   0  0  0  0  0  0  0  0  0  0  0  0
    4.0525   -1.3784    0.7311 H   0  0  0  0  0  0  0  0  0  0  0  0
   -2.5717   -2.4638   -0.0124 H   0  0  0  0  0  0  0  0  0  0  0  0
    4.4148   -4.0358   -0.7291 H   0  0  0  0  0  0  0  0  0  0  0  0
   -2.8437    1.6329   -0.0277 H   0  0  0  0  0  0  0  0  0  0  0  0
   -1.4920    1.0142   -0.9412 H   0  0  0  0  0  0  0  0  0  0  0  0
   -3.0153    1.2246   -1.7545 H   0  0  0  0  0  0  0  0  0  0  0  0
    1.9064   -1.3842   -0.5389 H   0  0  0  0  0  0  0  0  0  0  0  0
   -0.2585   -0.4912   -0.5811 H   0  0  0  0  0  0  0  0  0  0  0  0
   -0.3295   -3.4652    0.0300 H   0  0  0  0  0  0  0  0  0  0  0  0
    1.7884   -5.3326   -0.6630 H   0  0  0  0  0  0  0  0  0  0  0  0
    2.8122   -5.2886    0.7803 H   0  0  0  0  0  0  0  0  0  0  0  0
    1.1524   -4.7718    0.9047 H   0  0  0  0  0  0  0  0  0  0  0  0
  1  2  1  0  0  0  0
  1  3  2  0  0  0  0
  1  7  1  0  0  0  0
  2  4  2  0  0  0  0
  2  9  1  0  0  0  0
  3  5  1  0  0  0  0
  3 11  1  0  0  0  0
  4  6  1  0  0  0  0
  4 12  1  0  0  0  0
  5  6  2  0  0  0  0
  5 41  1  0  0  0  0
  6 42  1  0  0  0  0
  7 43  1  0  0  0  0
  7 44  1  0  0  0  0
  7 45  1  0  0  0  0
  8 10  1  0  0  0  0
  8 13  1  0  0  0  0
  8 46  1  0  0  0  0
  8 47  1  0  0  0  0
  9 15  2  0  0  0  0
  9 48  1  0  0  0  0
 10 14  1  0  0  0  0
 10 49  1  0  0  0  0
 10 50  1  0  0  0  0
 11 51  1  0  0  0  0
 11 52  1  0  0  0  0
 11 53  1  0  0  0  0
 12 54  1  0  0  0  0
 12 55  1  0  0  0  0
 12 56  1  0  0  0  0
 13 17  1  0  0  0  0
 13 18  2  0  0  0  0
 14 16  2  0  0  0  0
 14 57  1  0  0  0  0
 15 19  1  0  0  0  0
 15 58  1  0  0  0  0
 16 20  1  0  0  0  0
 16 21  1  0  0  0  0
 17 59  1  0  0  0  0
 17 60  1  0  0  0  0
 17 61  1  0  0  0  0
 18 22  1  0  0  0  0
 18 62  1  0  0  0  0
 19 23  1  0  0  0  0
 19 24  2  0  0  0  0
 20 63  1  0  0  0  0
 20 64  1  0  0  0  0
 20 65  1  0  0  0  0
 21 66  1  0  0  0  0
 21 67  1  0  0  0  0
 21 68  1  0  0  0  0
 22 25  2  0  0  0  0
 22 69  1  0  0  0  0
 23 70  1  0  0  0  0
 23 71  1  0  0  0  0
 23 72  1  0  0  0  0
 24 27  1  0  0  0  0
 24 73  1  0  0  0  0
 25 26  1  0  0  0  0
 25 74  1  0  0  0  0
 26 29  1  0  0  0  0
 26 30  2  0  0  0  0
 27 28  2  0  0  0  0
 27 75  1  0  0  0  0
 28 31  1  0  0  0  0
 28 76  1  0  0  0  0
 29 78  1  0  0  0  0
 29 79  1  0  0  0  0
 29 80  1  0  0  0  0
 30 32  1  0  0  0  0
 30 77  1  0  0  0  0
 31 33  2  0  0  0  0
 31 36  1  0  0  0  0
 32 35  2  0  0  0  0
 32 81  1  0  0  0  0
 33 38  1  0  0  0  0
 33 82  1  0  0  0  0
 34 35  1  0  0  0  0
 34 37  2  0  0  0  0
 34 40  1  0  0  0  0
 35 83  1  0  0  0  0
 36 84  1  0  0  0  0
 36 85  1  0  0  0  0
 36 86  1  0  0  0  0
 37 39  1  0  0  0  0
 37 87  1  0  0  0  0
 38 39  2  0  0  0  0
 38 88  1  0  0  0  0
 39 89  1  0  0  0  0
 40 90  1  0  0  0  0
 40 91  1  0  0  0  0
 40 92  1  0  0  0  0
M  END
> <PUBCHEM_COMPOUND_CID>
10098570

> <PUBCHEM_CONFORMER_RMSD>
1.4

> <PUBCHEM_CONFORMER_DIVERSEORDER>
16
106
37
93
62
70
49
21
41
5
72
96
59
100
38
110
82
48
47
3
31
65
27
87
66
69
78
29
74
35
67
86
46
45
98
102
79
58
76
75
83
68
7
97
56
53
32
43
30
6
15
14
108
104
36
77
103
24
52
91
25
90
33
39
107
4
63
94
50
34
9
89
55
42
57
71
13
109
19
17
88
1
11
51
8
101
92
54
73
60
80
18
10
105
61
99
22
85
2
26
64
23
84
81
44
12
95
28
40
20

> <PUBCHEM_MMFF94_PARTIAL_CHARGES>
58
1 -0.14
10 0.14
11 0.14
12 0.14
13 -0.28
14 -0.29
15 -0.15
16 -0.28
17 0.14
18 -0.15
19 -0.14
2 0.03
20 0.14
21 0.14
22 -0.15
23 0.14
24 -0.15
25 -0.15
26 -0.14
27 -0.15
28 -0.15
29 0.14
3 -0.14
30 -0.15
31 -0.14
32 -0.15
33 -0.15
34 -0.14
35 -0.15
36 0.14
37 -0.15
38 -0.15
39 -0.15
4 -0.14
40 0.14
41 0.15
42 0.15
48 0.15
5 -0.15
57 0.15
58 0.15
6 -0.15
62 0.15
69 0.15
7 0.14
73 0.15
74 0.15
75 0.15
76 0.15
77 0.15
8 0.14
81 0.15
82 0.15
83 0.15
87 0.15
88 0.15
89 0.15
9 -0.18

> <PUBCHEM_EFFECTIVE_ROTOR_COUNT>
13

> <PUBCHEM_PHARMACOPHORE_FEATURES>
8
1 17 hydrophobe
1 23 hydrophobe
1 29 hydrophobe
1 36 hydrophobe
1 40 hydrophobe
3 16 20 21 hydrophobe
4 8 10 13 14 hydrophobe
6 1 2 3 4 5 6 rings

> <PUBCHEM_HEAVY_ATOM_COUNT>
40

> <PUBCHEM_ATOM_DEF_STEREO_COUNT>
0

> <PUBCHEM_ATOM_UDEF_STEREO_COUNT>
0

> <PUBCHEM_BOND_DEF_STEREO_COUNT>
10

> <PUBCHEM_BOND_UDEF_STEREO_COUNT>
0

> <PUBCHEM_ISOTOPIC_ATOM_COUNT>
0

> <PUBCHEM_COMPONENT_COUNT>
1

> <PUBCHEM_CACTVS_TAUTO_COUNT>
1

> <PUBCHEM_CONFORMER_ID>
009A178A00000010

> <PUBCHEM_MMFF94_ENERGY>
98.7808

> <PUBCHEM_FEATURE_SELFOVERLAP>
40.601

> <PUBCHEM_SHAPE_FINGERPRINT>
11421887 21 18040992948155489000
11672396 167 9799689315955817019
12013929 2 7709450620808143479
12559415 86 13912318019960330395
14251920 17 18409733971854625095
15065858 18 17631733902696643087
15343295 29 18408888448346567910
16087824 20 18409732855917209912
20737093 207 13038894510228290993
21102433 48 12967125021725887041
23399689 5 18342174454907403068
3991529 128 18407760343575759826
44575985 110 4967612772400156768

> <PUBCHEM_SHAPE_MULTIPOLES>
823.18
100.49
3.58
1.54
129.48
3.36
-0.36
-98.43
-0.7
11.1
0.11
-5.27
-0.78
-2.47

> <PUBCHEM_SHAPE_SELFOVERLAP>
1653.588

> <PUBCHEM_SHAPE_VOLUME>
476.4

> <PUBCHEM_COORDINATE_TYPE>
2
5
10

$$$$

