5189
  -OEChem-06261200343D

 46 49  0     0  0  0  0  0  0999 V2000
    4.7127    0.1919   -2.1833 S   0  0  0  0  0  0  0  0  0  0  0  0
   -3.4243    2.6433    0.5417 S   0  0  0  0  0  0  0  0  0  0  0  0
   -5.7778   -1.5418   -0.1755 O   0  0  0  0  0  0  0  0  0  0  0  0
   -7.2534    0.1612    0.2466 O   0  0  0  0  0  0  0  0  0  0  0  0
    1.4525    0.5892   -0.1334 N   0  0  0  0  0  0  0  0  0  0  0  0
   -1.4068    0.9256    0.0876 N   0  0  0  0  0  0  0  0  0  0  0  0
    3.4742   -0.3171    0.6049 N   0  0  0  0  0  0  0  0  0  0  0  0
   -3.6616    0.1175    0.0452 N   0  0  0  0  0  0  0  0  0  0  0  0
    0.8017    1.8363   -0.5260 C   0  0  0  0  0  0  0  0  0  0  0  0
    0.5987   -0.4812    0.3750 C   0  0  0  0  0  0  0  0  0  0  0  0
   -0.4872    2.0543    0.2660 C   0  0  0  0  0  0  0  0  0  0  0  0
   -0.8106   -0.3814   -0.2082 C   0  0  0  0  0  0  0  0  0  0  0  0
    2.8135    0.4294   -0.2372 C   0  0  0  0  0  0  0  0  0  0  0  0
   -2.7733    1.0864    0.1930 C   0  0  0  0  0  0  0  0  0  0  0  0
    3.4837    1.2120   -1.3479 C   0  0  0  0  0  0  0  0  0  0  0  0
    4.8652   -0.5014    0.4873 C   0  0  0  0  0  0  0  0  0  0  0  0
    5.5674   -0.3508   -0.7192 C   0  0  0  0  0  0  0  0  0  0  0  0
   -4.9324    0.6309    0.2168 C   0  0  0  0  0  0  0  0  0  0  0  0
   -5.0051    1.9803    0.4927 C   0  0  0  0  0  0  0  0  0  0  0  0
    5.5667   -0.9242    1.6248 C   0  0  0  0  0  0  0  0  0  0  0  0
    6.9389   -0.6261   -0.7799 C   0  0  0  0  0  0  0  0  0  0  0  0
    6.9360   -1.1862    1.5659 C   0  0  0  0  0  0  0  0  0  0  0  0
    7.6210   -1.0396    0.3632 C   0  0  0  0  0  0  0  0  0  0  0  0
   -6.0801   -0.2245    0.1059 C   0  0  0  0  0  0  0  0  0  0  0  0
   -6.8774   -2.4509   -0.2995 C   0  0  0  0  0  0  0  0  0  0  0  0
   -6.3421   -3.8333   -0.6065 C   0  0  0  0  0  0  0  0  0  0  0  0
    0.5722    1.8050   -1.5982 H   0  0  0  0  0  0  0  0  0  0  0  0
    1.4633    2.6918   -0.3450 H   0  0  0  0  0  0  0  0  0  0  0  0
    0.5611   -0.4192    1.4694 H   0  0  0  0  0  0  0  0  0  0  0  0
    1.0176   -1.4600    0.1129 H   0  0  0  0  0  0  0  0  0  0  0  0
   -0.2606    2.1688    1.3334 H   0  0  0  0  0  0  0  0  0  0  0  0
   -0.9017    3.0008   -0.0960 H   0  0  0  0  0  0  0  0  0  0  0  0
   -0.7823   -0.5211   -1.2958 H   0  0  0  0  0  0  0  0  0  0  0  0
   -1.4181   -1.1910    0.2136 H   0  0  0  0  0  0  0  0  0  0  0  0
    2.7730    1.5364   -2.1105 H   0  0  0  0  0  0  0  0  0  0  0  0
    3.9603    2.0995   -0.9183 H   0  0  0  0  0  0  0  0  0  0  0  0
   -5.8773    2.5959    0.6636 H   0  0  0  0  0  0  0  0  0  0  0  0
    5.0437   -1.0592    2.5691 H   0  0  0  0  0  0  0  0  0  0  0  0
    7.4905   -0.5159   -1.7104 H   0  0  0  0  0  0  0  0  0  0  0  0
    7.4650   -1.5118    2.4567 H   0  0  0  0  0  0  0  0  0  0  0  0
    8.6857   -1.2481    0.3150 H   0  0  0  0  0  0  0  0  0  0  0  0
   -7.4402   -2.4708    0.6403 H   0  0  0  0  0  0  0  0  0  0  0  0
   -7.5342   -2.1183   -1.1106 H   0  0  0  0  0  0  0  0  0  0  0  0
   -7.1575   -4.5548   -0.7080 H   0  0  0  0  0  0  0  0  0  0  0  0
   -5.7605   -3.8239   -1.5342 H   0  0  0  0  0  0  0  0  0  0  0  0
   -5.6679   -4.1705    0.1877 H   0  0  0  0  0  0  0  0  0  0  0  0
  1 15  1  0  0  0  0
  1 17  1  0  0  0  0
  2 14  1  0  0  0  0
  2 19  1  0  0  0  0
  3 24  1  0  0  0  0
  3 25  1  0  0  0  0
  4 24  2  0  0  0  0
  5  9  1  0  0  0  0
  5 10  1  0  0  0  0
  5 13  1  0  0  0  0
  6 11  1  0  0  0  0
  6 12  1  0  0  0  0
  6 14  1  0  0  0  0
  7 13  2  0  0  0  0
  7 16  1  0  0  0  0
  8 14  2  0  0  0  0
  8 18  1  0  0  0  0
  9 11  1  0  0  0  0
  9 27  1  0  0  0  0
  9 28  1  0  0  0  0
 10 12  1  0  0  0  0
 10 29  1  0  0  0  0
 10 30  1  0  0  0  0
 11 31  1  0  0  0  0
 11 32  1  0  0  0  0
 12 33  1  0  0  0  0
 12 34  1  0  0  0  0
 13 15  1  0  0  0  0
 15 35  1  0  0  0  0
 15 36  1  0  0  0  0
 16 17  1  0  0  0  0
 16 20  2  0  0  0  0
 17 21  2  0  0  0  0
 18 19  2  0  0  0  0
 18 24  1  0  0  0  0
 19 37  1  0  0  0  0
 20 22  1  0  0  0  0
 20 38  1  0  0  0  0
 21 23  1  0  0  0  0
 21 39  1  0  0  0  0
 22 23  2  0  0  0  0
 22 40  1  0  0  0  0
 23 41  1  0  0  0  0
 25 26  1  0  0  0  0
 25 42  1  0  0  0  0
 25 43  1  0  0  0  0
 26 44  1  0  0  0  0
 26 45  1  0  0  0  0
 26 46  1  0  0  0  0
M  END
> <PUBCHEM_COMPOUND_CID>
5189

> <PUBCHEM_CONFORMER_RMSD>
0.8

> <PUBCHEM_CONFORMER_DIVERSEORDER>
1
71
53
77
90
58
36
69
72
83
64
84
96
54
27
73
25
75
29
34
57
79
40
9
30
82
55
10
39
3
61
19
26
45
85
2
80
51
35
88
63
70
62
87
47
43
49
12
22
56
42
23
5
60
91
11
66
28
16
13
76
37
94
74
50
31
17
101
89
32
14
44
7
6
18
8
59
48
4
98
24
65
99
33
97
93
67
41
81
46
92
78
100
95
86
15
20
38
68
21
52

> <PUBCHEM_MMFF94_PARTIAL_CHARGES>
30
1 -0.33
10 0.37
11 0.37
12 0.37
13 0.44
14 0.46
15 0.29
16 0.18
17 0.1
18 0.14
19 -0.11
2 -0.08
20 -0.15
21 -0.15
22 -0.15
23 -0.15
24 0.81
25 0.28
3 -0.43
37 0.15
38 0.15
39 0.15
4 -0.57
40 0.15
41 0.15
5 -0.79
6 -0.82
7 -0.63
8 -0.57
9 0.37

> <PUBCHEM_EFFECTIVE_ROTOR_COUNT>
6.6

> <PUBCHEM_PHARMACOPHORE_FEATURES>
7
1 4 acceptor
3 5 7 13 cation
3 6 8 14 cation
5 2 8 14 18 19 rings
6 1 7 13 15 16 17 rings
6 16 17 20 21 22 23 rings
6 5 6 9 10 11 12 rings

> <PUBCHEM_HEAVY_ATOM_COUNT>
26

> <PUBCHEM_ATOM_DEF_STEREO_COUNT>
0

> <PUBCHEM_ATOM_UDEF_STEREO_COUNT>
0

> <PUBCHEM_BOND_DEF_STEREO_COUNT>
0

> <PUBCHEM_BOND_UDEF_STEREO_COUNT>
0

> <PUBCHEM_ISOTOPIC_ATOM_COUNT>
0

> <PUBCHEM_COMPONENT_COUNT>
1

> <PUBCHEM_CACTVS_TAUTO_COUNT>
1

> <PUBCHEM_CONFORMER_ID>
0000144500000001

> <PUBCHEM_MMFF94_ENERGY>
67.601

> <PUBCHEM_FEATURE_SELFOVERLAP>
35.542

> <PUBCHEM_SHAPE_FINGERPRINT>
10 15 17531254954659903680
10299344 5 18131347535510564960
106641 1 18334863818978634576
11135926 11 18412268367979833455
11315181 36 18412261753318786377
11524674 6 16877946036035221519
11646440 116 16515405170746306744
11761917 87 15430577564110063318
11963148 33 18410862083248502622
12166972 35 18060135431724197908
12236239 1 18131346458228413876
12730499 353 16515967060401975054
13533116 47 17632296839516561008
13782708 43 17967534553900431691
13862211 1 18342457045087902889
13878862 14 15984818182848370854
14068700 675 18411698773290232645
14251764 18 18202279217437308244
14344974 204 17823704066728876647
15183329 4 17418091031442554608
15419008 47 17313391166412405376
15461852 350 18408315593317301758
1577012 14 18202272624230330364
20028762 73 18411136948401893598
21054139 6 18272088305242337539
21130935 74 18262238945381026866
21150785 3 18131063832036755932
21267235 1 18411131442279810721
21315759 40 18131067142986925822
21814621 53 16589135198836400545
22002106 203 17678469559158191455
221357 26 15698280032385464580
22224240 67 15936416653668545964
22956985 138 17835237123565939774
2303208 19 17240473736721287389
23081809 10 17989196066754868500
23522609 53 17984953072900965532
23559900 14 15410599381645772252
23569914 152 13825966821088148523
23569943 247 17832698347017344306
249057 25 18130213930586050108
3004659 81 17989767800343450528
3383291 50 18334859381508135151
3418910 222 17603861174899360016
34797466 226 17894345584869566404
3504750 166 18055641860913606136
397830 11 17459202797523117098
4015057 19 17131537371726940997
406291 66 18264773152269470991
4340502 62 16081371873624454124
5104073 3 17968371239927484905
54039377 194 18200869583944789779
5718773 13 18335987455015985079
5969126 39 17203334441838595453
96874 4 18272657843738959314
9953998 17 17603866715738421499
9962374 69 17846222194326001690

> <PUBCHEM_SHAPE_MULTIPOLES>
511.1
23.44
2.66
1.25
1.55
1.43
-0.24
15.41
1.55
7.1
-0.16
-2.76
0.11
-2.58

> <PUBCHEM_SHAPE_SELFOVERLAP>
1068.218

> <PUBCHEM_SHAPE_VOLUME>
290.8

> <PUBCHEM_COORDINATE_TYPE>
2
5
10

$$$$

