188005
  -OEChem-07051213153D

 81 84  0     1  0  0  0  0  0999 V2000
   -0.0102    1.1370    0.1948 C   0  0  1  0  0  0  0  0  0  0  0  0
   -0.6619    0.0029    1.0157 C   0  0  2  0  0  0  0  0  0  0  0  0
   -2.1913    0.0958    1.0535 C   0  0  1  0  0  0  0  0  0  0  0  0
   -2.7306    0.0171   -0.4120 C   0  0  1  0  0  0  0  0  0  0  0  0
   -4.3036    0.0531   -0.4613 C   0  0  2  0  0  0  0  0  0  0  0  0
    1.4793    0.7749    0.4135 C   0  0  2  0  0  0  0  0  0  0  0  0
   -0.4981    1.0076   -1.2551 C   0  0  0  0  0  0  0  0  0  0  0  0
   -2.0349    1.0442   -1.3440 C   0  0  0  0  0  0  0  0  0  0  0  0
   -4.8246   -1.1193    0.4312 C   0  0  1  0  0  0  0  0  0  0  0  0
    0.1153    0.0178    2.3286 C   0  0  0  0  0  0  0  0  0  0  0  0
   -2.7998   -1.0074    1.9311 C   0  0  0  0  0  0  0  0  0  0  0  0
    1.5482    0.3982    1.9122 C   0  0  0  0  0  0  0  0  0  0  0  0
   -4.3259   -1.0207    1.8772 C   0  0  0  0  0  0  0  0  0  0  0  0
   -4.8125   -0.1960   -1.9097 C   0  0  0  0  0  0  0  0  0  0  0  0
   -0.3209    2.5601    0.7230 C   0  0  0  0  0  0  0  0  0  0  0  0
    2.5026    1.8309    0.0209 C   0  0  1  0  0  0  0  0  0  0  0  0
   -6.3499   -1.2828    0.3748 C   0  0  0  0  0  0  0  0  0  0  0  0
   -4.8373    1.4287    0.0145 C   0  0  0  0  0  0  0  0  0  0  0  0
   -6.3275   -0.4005   -2.0020 C   0  0  0  0  0  0  0  0  0  0  0  0
   -6.8256   -1.4902   -1.0605 C   0  0  0  0  0  0  0  0  0  0  0  0
    3.9276    1.3286    0.3355 C   0  0  0  0  0  0  0  0  0  0  0  0
    2.3365    2.2006   -1.4570 C   0  0  0  0  0  0  0  0  0  0  0  0
    4.3335   -0.0099   -0.3033 C   0  0  0  0  0  0  0  0  0  0  0  0
    5.7293   -0.5622    0.0866 C   0  0  1  0  0  0  0  0  0  0  0  0
    5.9349   -2.0281   -0.4123 C   0  0  0  0  0  0  0  0  0  0  0  0
    6.8460    0.4053   -0.3778 C   0  0  0  0  0  0  0  0  0  0  0  0
    5.8888   -2.1325   -1.9421 C   0  0  0  0  0  0  0  0  0  0  0  0
    4.9593   -3.0366    0.2004 C   0  0  0  0  0  0  0  0  0  0  0  0
    8.2532   -0.0165    0.0235 C   0  0  0  0  0  0  0  0  0  0  0  0
   -0.4198   -0.9589    0.5327 H   0  0  0  0  0  0  0  0  0  0  0  0
   -2.4754    1.0535    1.5008 H   0  0  0  0  0  0  0  0  0  0  0  0
   -2.4323   -0.9709   -0.7983 H   0  0  0  0  0  0  0  0  0  0  0  0
    1.6593   -0.1390   -0.1681 H   0  0  0  0  0  0  0  0  0  0  0  0
   -0.1452    0.0648   -1.6921 H   0  0  0  0  0  0  0  0  0  0  0  0
   -0.1347    1.8083   -1.8997 H   0  0  0  0  0  0  0  0  0  0  0  0
   -2.3813    2.0580   -1.1211 H   0  0  0  0  0  0  0  0  0  0  0  0
   -2.3109    0.8465   -2.3858 H   0  0  0  0  0  0  0  0  0  0  0  0
   -4.4049   -2.0521    0.0225 H   0  0  0  0  0  0  0  0  0  0  0  0
    0.0928   -0.9558    2.8288 H   0  0  0  0  0  0  0  0  0  0  0  0
   -0.2897    0.7587    3.0270 H   0  0  0  0  0  0  0  0  0  0  0  0
   -2.4848   -0.8767    2.9730 H   0  0  0  0  0  0  0  0  0  0  0  0
   -2.4227   -1.9868    1.6093 H   0  0  0  0  0  0  0  0  0  0  0  0
    1.8978    1.2296    2.5348 H   0  0  0  0  0  0  0  0  0  0  0  0
    2.2321   -0.4428    2.0708 H   0  0  0  0  0  0  0  0  0  0  0  0
   -4.6894   -1.8791    2.4553 H   0  0  0  0  0  0  0  0  0  0  0  0
   -4.7264   -0.1262    2.3678 H   0  0  0  0  0  0  0  0  0  0  0  0
   -4.3175   -1.0853   -2.3218 H   0  0  0  0  0  0  0  0  0  0  0  0
   -4.5423    0.6416   -2.5634 H   0  0  0  0  0  0  0  0  0  0  0  0
   -1.3936    2.7662    0.7692 H   0  0  0  0  0  0  0  0  0  0  0  0
    0.0730    2.7261    1.7307 H   0  0  0  0  0  0  0  0  0  0  0  0
    0.1090    3.3323    0.0779 H   0  0  0  0  0  0  0  0  0  0  0  0
    2.3614    2.7446    0.6116 H   0  0  0  0  0  0  0  0  0  0  0  0
   -6.8538   -0.4159    0.8161 H   0  0  0  0  0  0  0  0  0  0  0  0
   -6.6520   -2.1510    0.9736 H   0  0  0  0  0  0  0  0  0  0  0  0
   -5.9288    1.4550    0.0734 H   0  0  0  0  0  0  0  0  0  0  0  0
   -4.4676    1.7061    1.0046 H   0  0  0  0  0  0  0  0  0  0  0  0
   -4.5473    2.2270   -0.6766 H   0  0  0  0  0  0  0  0  0  0  0  0
   -6.5938   -0.6631   -3.0327 H   0  0  0  0  0  0  0  0  0  0  0  0
   -6.8469    0.5392   -1.7825 H   0  0  0  0  0  0  0  0  0  0  0  0
   -7.9206   -1.5275   -1.0847 H   0  0  0  0  0  0  0  0  0  0  0  0
   -6.4694   -2.4640   -1.4197 H   0  0  0  0  0  0  0  0  0  0  0  0
    4.6286    2.1081    0.0148 H   0  0  0  0  0  0  0  0  0  0  0  0
    4.0563    1.2498    1.4220 H   0  0  0  0  0  0  0  0  0  0  0  0
    1.5358    2.9267   -1.6077 H   0  0  0  0  0  0  0  0  0  0  0  0
    2.1763    1.3243   -2.0927 H   0  0  0  0  0  0  0  0  0  0  0  0
    3.2437    2.6964   -1.8230 H   0  0  0  0  0  0  0  0  0  0  0  0
    4.2756    0.0971   -1.3925 H   0  0  0  0  0  0  0  0  0  0  0  0
    3.5984   -0.7647   -0.0209 H   0  0  0  0  0  0  0  0  0  0  0  0
    5.7690   -0.5939    1.1847 H   0  0  0  0  0  0  0  0  0  0  0  0
    6.9322   -2.3525   -0.0915 H   0  0  0  0  0  0  0  0  0  0  0  0
    6.8043    0.5549   -1.4624 H   0  0  0  0  0  0  0  0  0  0  0  0
    6.6755    1.3896    0.0724 H   0  0  0  0  0  0  0  0  0  0  0  0
    6.6308   -1.4849   -2.4170 H   0  0  0  0  0  0  0  0  0  0  0  0
    4.9015   -1.8798   -2.3405 H   0  0  0  0  0  0  0  0  0  0  0  0
    6.1124   -3.1583   -2.2569 H   0  0  0  0  0  0  0  0  0  0  0  0
    5.2734   -4.0604   -0.0321 H   0  0  0  0  0  0  0  0  0  0  0  0
    3.9422   -2.9148   -0.1840 H   0  0  0  0  0  0  0  0  0  0  0  0
    4.9309   -2.9378    1.2904 H   0  0  0  0  0  0  0  0  0  0  0  0
    8.3101   -0.2300    1.0953 H   0  0  0  0  0  0  0  0  0  0  0  0
    8.9625    0.7874   -0.1997 H   0  0  0  0  0  0  0  0  0  0  0  0
    8.5810   -0.9019   -0.5286 H   0  0  0  0  0  0  0  0  0  0  0  0
  1  2  1  0  0  0  0
  1  6  1  0  0  0  0
  1  7  1  0  0  0  0
  1 15  1  0  0  0  0
  2  3  1  0  0  0  0
  2 10  1  0  0  0  0
  2 30  1  0  0  0  0
  3  4  1  0  0  0  0
  3 11  1  0  0  0  0
  3 31  1  0  0  0  0
  4  5  1  0  0  0  0
  4  8  1  0  0  0  0
  4 32  1  0  0  0  0
  5  9  1  0  0  0  0
  5 14  1  0  0  0  0
  5 18  1  0  0  0  0
  6 12  1  0  0  0  0
  6 16  1  0  0  0  0
  6 33  1  0  0  0  0
  7  8  1  0  0  0  0
  7 34  1  0  0  0  0
  7 35  1  0  0  0  0
  8 36  1  0  0  0  0
  8 37  1  0  0  0  0
  9 13  1  0  0  0  0
  9 17  1  0  0  0  0
  9 38  1  0  0  0  0
 10 12  1  0  0  0  0
 10 39  1  0  0  0  0
 10 40  1  0  0  0  0
 11 13  1  0  0  0  0
 11 41  1  0  0  0  0
 11 42  1  0  0  0  0
 12 43  1  0  0  0  0
 12 44  1  0  0  0  0
 13 45  1  0  0  0  0
 13 46  1  0  0  0  0
 14 19  1  0  0  0  0
 14 47  1  0  0  0  0
 14 48  1  0  0  0  0
 15 49  1  0  0  0  0
 15 50  1  0  0  0  0
 15 51  1  0  0  0  0
 16 21  1  0  0  0  0
 16 22  1  0  0  0  0
 16 52  1  0  0  0  0
 17 20  1  0  0  0  0
 17 53  1  0  0  0  0
 17 54  1  0  0  0  0
 18 55  1  0  0  0  0
 18 56  1  0  0  0  0
 18 57  1  0  0  0  0
 19 20  1  0  0  0  0
 19 58  1  0  0  0  0
 19 59  1  0  0  0  0
 20 60  1  0  0  0  0
 20 61  1  0  0  0  0
 21 23  1  0  0  0  0
 21 62  1  0  0  0  0
 21 63  1  0  0  0  0
 22 64  1  0  0  0  0
 22 65  1  0  0  0  0
 22 66  1  0  0  0  0
 23 24  1  0  0  0  0
 23 67  1  0  0  0  0
 23 68  1  0  0  0  0
 24 25  1  0  0  0  0
 24 26  1  0  0  0  0
 24 69  1  0  0  0  0
 25 27  1  0  0  0  0
 25 28  1  0  0  0  0
 25 70  1  0  0  0  0
 26 29  1  0  0  0  0
 26 71  1  0  0  0  0
 26 72  1  0  0  0  0
 27 73  1  0  0  0  0
 27 74  1  0  0  0  0
 27 75  1  0  0  0  0
 28 76  1  0  0  0  0
 28 77  1  0  0  0  0
 28 78  1  0  0  0  0
 29 79  1  0  0  0  0
 29 80  1  0  0  0  0
 29 81  1  0  0  0  0
M  END
> <PUBCHEM_COMPOUND_CID>
188005

> <PUBCHEM_CONFORMER_RMSD>
1

> <PUBCHEM_CONFORMER_DIVERSEORDER>
5
1
3
7
2
4
6

> <PUBCHEM_MMFF94_PARTIAL_CHARGES>
0

> <PUBCHEM_EFFECTIVE_ROTOR_COUNT>
8.2

> <PUBCHEM_PHARMACOPHORE_FEATURES>
8
1 22 hydrophobe
1 29 hydrophobe
3 25 27 28 hydrophobe
5 1 2 6 10 12 rings
6 1 2 3 4 7 8 rings
6 16 21 23 24 25 26 hydrophobe
6 3 4 5 9 11 13 rings
6 5 9 14 17 19 20 rings

> <PUBCHEM_HEAVY_ATOM_COUNT>
29

> <PUBCHEM_ATOM_DEF_STEREO_COUNT>
9

> <PUBCHEM_ATOM_UDEF_STEREO_COUNT>
0

> <PUBCHEM_BOND_DEF_STEREO_COUNT>
0

> <PUBCHEM_BOND_UDEF_STEREO_COUNT>
0

> <PUBCHEM_ISOTOPIC_ATOM_COUNT>
0

> <PUBCHEM_COMPONENT_COUNT>
1

> <PUBCHEM_CACTVS_TAUTO_COUNT>
1

> <PUBCHEM_CONFORMER_ID>
0002DE6500000005

> <PUBCHEM_MMFF94_ENERGY>
92.5815

> <PUBCHEM_FEATURE_SELFOVERLAP>
40.691

> <PUBCHEM_SHAPE_FINGERPRINT>
10 15 5256401721363850962
10319926 262 13984663637718569635
10670039 82 16056890134286800765
10692045 39 8574710217706090186
10693767 8 18271255992394683386
10906281 52 14333134126137626925
11991303 11 17903631135521064656
12011746 2 17632587015849066953
12166972 35 17894915100725527824
12236239 1 17167859738202256648
12422481 6 16806156804254096340
12760667 363 18335135414364740104
12954195 1 17988928915615480893
13533116 47 18040716944413017472
13540713 4 16986578759543129696
13782708 43 18333453148826595095
14251764 18 16370726980945618120
14251764 30 18334580122622746567
14294032 229 15266519446624007652
14840074 17 17895192234022909390
15183329 4 17346604079797670224
15475509 35 17385733491033209466
17134984 74 18412267229550041562
17980427 23 7709446239234490497
1813 80 17530952571403211520
18335252 114 12463576175685001286
19841028 212 17895473730374853558
19958102 18 17703507796141666954
20105231 36 17060052615706456171
2026 5 18336546109470029750
20567600 247 18261116274535236094
21267235 1 17275100579917724441
21637258 2 18040158413421689865
21641784 216 15769784597121693469
21682296 61 18336260223397498815
21792934 111 5184349629923237259
22061861 79 18342175557294875174
2215653 11 18131071536865095894
22393880 68 17203332156889327377
23559900 14 17917430891333592328
23569914 152 17550419626794503399
23569943 247 18197784512023310899
23576562 1 15697426711781776294
2838139 119 12175622871730834590
3004659 81 17203612549809001516
34797466 226 17775002323971828317
3886686 26 15291227813705036150
392239 28 8070025571114914050
4058900 60 14476967825977564737
437815 12 18342738511617435244
46194498 28 18060701667976031684
474113 269 16733271239732775293
5104073 3 14707777174142536875
513202 73 18114460158295569677
6608658 132 15123237679550538295

> <PUBCHEM_SHAPE_MULTIPOLES>
596.81
19.65
2.29
1.95
13.69
0.42
-0.17
11.35
7
2.51
0.34
-1.74
0.3
0.87

> <PUBCHEM_SHAPE_SELFOVERLAP>
1220.463

> <PUBCHEM_SHAPE_VOLUME>
342.9

> <PUBCHEM_COORDINATE_TYPE>
2
5
10

$$$$

