4409
  -OEChem-06261200063D

 33 34  0     0  0  0  0  0  0999 V2000
   -5.0038   -0.1941    0.4359 O   0  0  0  0  0  0  0  0  0  0  0  0
    5.5327    0.2652   -0.8430 O   0  0  0  0  0  0  0  0  0  0  0  0
    1.3169   -0.4498   -0.4672 C   0  0  0  0  0  0  0  0  0  0  0  0
    2.7664   -0.2292   -0.7394 C   0  0  0  0  0  0  0  0  0  0  0  0
   -0.9501    0.4211   -0.3230 C   0  0  0  0  0  0  0  0  0  0  0  0
   -1.4134   -0.8647    0.0443 C   0  0  0  0  0  0  0  0  0  0  0  0
    0.4181    0.6118   -0.5756 C   0  0  0  0  0  0  0  0  0  0  0  0
    3.5392    0.1729    0.5225 C   0  0  0  0  0  0  0  0  0  0  0  0
    0.8612   -1.7143   -0.1060 C   0  0  0  0  0  0  0  0  0  0  0  0
   -0.4947   -1.9218    0.1483 C   0  0  0  0  0  0  0  0  0  0  0  0
   -1.8687    1.4783   -0.4274 C   0  0  0  0  0  0  0  0  0  0  0  0
   -2.7818   -1.0553    0.2967 C   0  0  0  0  0  0  0  0  0  0  0  0
   -3.6804    0.0066    0.1887 C   0  0  0  0  0  0  0  0  0  0  0  0
   -3.2248    1.2710   -0.1729 C   0  0  0  0  0  0  0  0  0  0  0  0
    5.0158    0.4146    0.2630 C   0  0  0  0  0  0  0  0  0  0  0  0
    5.8345    0.8530    1.4495 C   0  0  0  0  0  0  0  0  0  0  0  0
   -5.8670    0.9345    0.3058 C   0  0  0  0  0  0  0  0  0  0  0  0
    3.2062   -1.1376   -1.1721 H   0  0  0  0  0  0  0  0  0  0  0  0
    2.8870    0.5417   -1.5122 H   0  0  0  0  0  0  0  0  0  0  0  0
    0.7843    1.5979   -0.8571 H   0  0  0  0  0  0  0  0  0  0  0  0
    3.4569   -0.6143    1.2811 H   0  0  0  0  0  0  0  0  0  0  0  0
    3.1181    1.0946    0.9412 H   0  0  0  0  0  0  0  0  0  0  0  0
    1.5518   -2.5487   -0.0167 H   0  0  0  0  0  0  0  0  0  0  0  0
   -0.8285   -2.9185    0.4296 H   0  0  0  0  0  0  0  0  0  0  0  0
   -1.5337    2.4748   -0.7086 H   0  0  0  0  0  0  0  0  0  0  0  0
   -3.1545   -2.0380    0.5801 H   0  0  0  0  0  0  0  0  0  0  0  0
   -3.8671    2.1390   -0.2755 H   0  0  0  0  0  0  0  0  0  0  0  0
    6.8762    0.9924    1.1479 H   0  0  0  0  0  0  0  0  0  0  0  0
    5.4475    1.8009    1.8314 H   0  0  0  0  0  0  0  0  0  0  0  0
    5.7915    0.0866    2.2272 H   0  0  0  0  0  0  0  0  0  0  0  0
   -6.8813    0.5939    0.5383 H   0  0  0  0  0  0  0  0  0  0  0  0
   -5.8845    1.3116   -0.7224 H   0  0  0  0  0  0  0  0  0  0  0  0
   -5.6188    1.7169    1.0310 H   0  0  0  0  0  0  0  0  0  0  0  0
  1 13  1  0  0  0  0
  1 17  1  0  0  0  0
  2 15  2  0  0  0  0
  3  4  1  0  0  0  0
  3  7  2  0  0  0  0
  3  9  1  0  0  0  0
  4  8  1  0  0  0  0
  4 18  1  0  0  0  0
  4 19  1  0  0  0  0
  5  6  2  0  0  0  0
  5  7  1  0  0  0  0
  5 11  1  0  0  0  0
  6 10  1  0  0  0  0
  6 12  1  0  0  0  0
  7 20  1  0  0  0  0
  8 15  1  0  0  0  0
  8 21  1  0  0  0  0
  8 22  1  0  0  0  0
  9 10  2  0  0  0  0
  9 23  1  0  0  0  0
 10 24  1  0  0  0  0
 11 14  2  0  0  0  0
 11 25  1  0  0  0  0
 12 13  2  0  0  0  0
 12 26  1  0  0  0  0
 13 14  1  0  0  0  0
 14 27  1  0  0  0  0
 15 16  1  0  0  0  0
 16 28  1  0  0  0  0
 16 29  1  0  0  0  0
 16 30  1  0  0  0  0
 17 31  1  0  0  0  0
 17 32  1  0  0  0  0
 17 33  1  0  0  0  0
M  END
> <PUBCHEM_COMPOUND_CID>
4409

> <PUBCHEM_CONFORMER_RMSD>
0.6

> <PUBCHEM_CONFORMER_DIVERSEORDER>
2
21
3
23
5
24
16
7
29
26
33
30
15
22
17
12
13
34
32
11
6
4
28
31
25
8
27
14
18
20
19
10
1
9

> <PUBCHEM_MMFF94_PARTIAL_CHARGES>
21
1 -0.36
10 -0.15
11 -0.15
12 -0.15
13 0.08
14 -0.15
15 0.45
16 0.06
17 0.28
2 -0.57
20 0.15
23 0.15
24 0.15
25 0.15
26 0.15
27 0.15
3 -0.14
4 0.14
7 -0.15
8 0.06
9 -0.15

> <PUBCHEM_EFFECTIVE_ROTOR_COUNT>
4

> <PUBCHEM_PHARMACOPHORE_FEATURES>
4
1 1 acceptor
1 2 acceptor
6 3 5 6 7 9 10 rings
6 5 6 11 12 13 14 rings

> <PUBCHEM_HEAVY_ATOM_COUNT>
17

> <PUBCHEM_ATOM_DEF_STEREO_COUNT>
0

> <PUBCHEM_ATOM_UDEF_STEREO_COUNT>
0

> <PUBCHEM_BOND_DEF_STEREO_COUNT>
0

> <PUBCHEM_BOND_UDEF_STEREO_COUNT>
0

> <PUBCHEM_ISOTOPIC_ATOM_COUNT>
0

> <PUBCHEM_COMPONENT_COUNT>
1

> <PUBCHEM_CACTVS_TAUTO_COUNT>
3

> <PUBCHEM_CONFORMER_ID>
0000113900000002

> <PUBCHEM_MMFF94_ENERGY>
50.2132

> <PUBCHEM_FEATURE_SELFOVERLAP>
20.324

> <PUBCHEM_SHAPE_FINGERPRINT>
11132069 177 18413101766916221407
11401426 45 18411699885601710327
12119455 92 17530684303661361198
12236239 1 17203890751571804316
12251169 10 18131351895234621348
12390115 104 18189603016183937377
12403259 415 18339361984543980292
12596602 18 16773794771102860960
12670543 26 8069758368488257329
13140716 1 18199179586473117505
13214271 11 18410572864724507087
13288520 33 10087641507243831427
13533116 47 18188488094682930174
13685833 64 11024101062510913833
15042514 8 18198616644983777387
15048467 5 15864068784624438305
15196674 1 18269272525015129303
15209294 21 18335417997448235913
15536298 74 18338794640834084526
16945 1 18200014227715779559
1813 80 15697719320120956374
19784866 170 18342453763875332987
19784866 240 11455885897277611087
20510252 161 18336263556260562873
20645477 56 18334576824246183870
20645477 70 16950834912730305766
20735858 18 18343018887488264827
21150785 3 16443356381877145061
21637258 2 14261355713041536881
22079108 93 18260553307375136496
22224240 67 18409167701907197979
23402539 116 18412268307164268303
23536379 177 15574710317889859212
23559900 14 18336531799250150150
26918003 58 16559027186429374937
2916195 48 18113624473381155904
34934 24 18412267268177886223
351380 180 18333734598181123296
3545911 37 18408320004143291142
4072396 5 18060142058694581163
465052 167 12967126129648114048
474229 33 18413388730877077399
5104073 3 18198617933842439465

> <PUBCHEM_SHAPE_MULTIPOLES>
338.11
12.45
1.52
0.89
6.91
0.43
-0.09
-5.01
-3.3
-0.68
-0.03
0.9
-0.13
0.57

> <PUBCHEM_SHAPE_SELFOVERLAP>
718.436

> <PUBCHEM_SHAPE_VOLUME>
189.8

> <PUBCHEM_COORDINATE_TYPE>
2
5
10

$$$$

