24726
  -OEChem-07051212513D

  9  8  0     0  0  0  0  0  0999 V2000
    2.4944    0.6457    0.0976 Cl  0  0  0  0  0  0  0  0  0  0  0  0
   -2.6497    0.3830   -0.0683 Cl  0  0  0  0  0  0  0  0  0  0  0  0
    1.3042   -0.6687   -0.0135 C   0  0  0  0  0  0  0  0  0  0  0  0
   -0.0305   -0.1163   -0.3903 C   0  0  0  0  0  0  0  0  0  0  0  0
   -1.1184   -0.2438    0.3744 C   0  0  0  0  0  0  0  0  0  0  0  0
    1.2858   -1.1850    0.9511 H   0  0  0  0  0  0  0  0  0  0  0  0
    1.6498   -1.3725   -0.7761 H   0  0  0  0  0  0  0  0  0  0  0  0
   -0.1026    0.3963   -1.3469 H   0  0  0  0  0  0  0  0  0  0  0  0
   -1.1364   -0.7451    1.3328 H   0  0  0  0  0  0  0  0  0  0  0  0
  1  3  1  0  0  0  0
  2  5  1  0  0  0  0
  3  4  1  0  0  0  0
  3  6  1  0  0  0  0
  3  7  1  0  0  0  0
  4  5  2  0  0  0  0
  4  8  1  0  0  0  0
  5  9  1  0  0  0  0
M  END
> <PUBCHEM_COMPOUND_CID>
24726

> <PUBCHEM_CONFORMER_RMSD>
0.4

> <PUBCHEM_CONFORMER_DIVERSEORDER>
1
3
2

> <PUBCHEM_MMFF94_PARTIAL_CHARGES>
7
1 -0.29
2 -0.14
3 0.43
4 -0.29
5 -0.01
8 0.15
9 0.15

> <PUBCHEM_EFFECTIVE_ROTOR_COUNT>
1

> <PUBCHEM_PHARMACOPHORE_FEATURES>
0

> <PUBCHEM_HEAVY_ATOM_COUNT>
5

> <PUBCHEM_ATOM_DEF_STEREO_COUNT>
0

> <PUBCHEM_ATOM_UDEF_STEREO_COUNT>
0

> <PUBCHEM_BOND_DEF_STEREO_COUNT>
1

> <PUBCHEM_BOND_UDEF_STEREO_COUNT>
0

> <PUBCHEM_ISOTOPIC_ATOM_COUNT>
0

> <PUBCHEM_COMPONENT_COUNT>
1

> <PUBCHEM_CACTVS_TAUTO_COUNT>
1

> <PUBCHEM_CONFORMER_ID>
0000609600000001

> <PUBCHEM_MMFF94_ENERGY>
0.4044

> <PUBCHEM_FEATURE_SELFOVERLAP>
0

> <PUBCHEM_SHAPE_FINGERPRINT>
139733 1 18260265226860050390
14390081 3 18333452036329890377
16714656 1 14129059209838704973
20096714 4 18187365385556428176
29004967 10 10663819676300124924
5460574 1 9223230745531936615

> <PUBCHEM_SHAPE_MULTIPOLES>
106.64
3.99
0.85
0.69
0.46
0.02
0
1.08
-0.11
-0.23
-0.01
0.03
0
0.07

> <PUBCHEM_SHAPE_SELFOVERLAP>
169.696

> <PUBCHEM_SHAPE_VOLUME>
75.5

> <PUBCHEM_COORDINATE_TYPE>
2
5
10

$$$$

