9543291
  -OEChem-07051213113D

 34 37  0     0  0  0  0  0  0999 V2000
    4.2272   -0.5314    0.1276 O   0  0  0  0  0  0  0  0  0  0  0  0
   -4.2274    0.5316    0.1267 O   0  0  0  0  0  0  0  0  0  0  0  0
    0.6338    0.3168    0.1269 C   0  0  0  0  0  0  0  0  0  0  0  0
   -0.6338   -0.3164    0.1271 C   0  0  0  0  0  0  0  0  0  0  0  0
    1.8137   -0.4632    0.1266 C   0  0  0  0  0  0  0  0  0  0  0  0
   -1.8137    0.4635    0.1274 C   0  0  0  0  0  0  0  0  0  0  0  0
    0.7186    1.7286    0.1269 C   0  0  0  0  0  0  0  0  0  0  0  0
   -0.7187   -1.7283    0.1271 C   0  0  0  0  0  0  0  0  0  0  0  0
    1.7101   -1.8607    0.1266 C   0  0  0  0  0  0  0  0  0  0  0  0
   -1.7102    1.8610    0.1275 C   0  0  0  0  0  0  0  0  0  0  0  0
   -0.4611    2.4851    0.1272 C   0  0  0  0  0  0  0  0  0  0  0  0
    0.4610   -2.4847    0.1268 C   0  0  0  0  0  0  0  0  0  0  0  0
    3.0607    0.1786    0.1264 C   0  0  0  0  0  0  0  0  0  0  0  0
   -3.0608   -0.1783    0.1277 C   0  0  0  0  0  0  0  0  0  0  0  0
    1.9806    2.3404    0.1266 C   0  0  0  0  0  0  0  0  0  0  0  0
   -1.9808   -2.3402    0.1273 C   0  0  0  0  0  0  0  0  0  0  0  0
    3.1423    1.5700    0.1264 C   0  0  0  0  0  0  0  0  0  0  0  0
   -3.1423   -1.5697    0.1277 C   0  0  0  0  0  0  0  0  0  0  0  0
    4.7785   -0.8682   -1.1422 C   0  0  0  0  0  0  0  0  0  0  0  0
   -4.7778    0.8655   -1.1443 C   0  0  0  0  0  0  0  0  0  0  0  0
    2.5946   -2.4936    0.1325 H   0  0  0  0  0  0  0  0  0  0  0  0
   -2.5948    2.4939    0.1338 H   0  0  0  0  0  0  0  0  0  0  0  0
   -0.4203    3.5725    0.1287 H   0  0  0  0  0  0  0  0  0  0  0  0
    0.4203   -3.5721    0.1281 H   0  0  0  0  0  0  0  0  0  0  0  0
    2.0704    3.4247    0.1269 H   0  0  0  0  0  0  0  0  0  0  0  0
   -2.0705   -3.4244    0.1274 H   0  0  0  0  0  0  0  0  0  0  0  0
    4.1106    2.0638    0.1275 H   0  0  0  0  0  0  0  0  0  0  0  0
   -4.1106   -2.0635    0.1286 H   0  0  0  0  0  0  0  0  0  0  0  0
    4.0602   -1.4281   -1.7491 H   0  0  0  0  0  0  0  0  0  0  0  0
    5.6591   -1.4955   -0.9778 H   0  0  0  0  0  0  0  0  0  0  0  0
    5.0897    0.0369   -1.6733 H   0  0  0  0  0  0  0  0  0  0  0  0
   -5.0882   -0.0408   -1.6739 H   0  0  0  0  0  0  0  0  0  0  0  0
   -4.0592    1.4245   -1.7517 H   0  0  0  0  0  0  0  0  0  0  0  0
   -5.6588    1.4926   -0.9819 H   0  0  0  0  0  0  0  0  0  0  0  0
  1 13  1  0  0  0  0
  1 19  1  0  0  0  0
  2 14  1  0  0  0  0
  2 20  1  0  0  0  0
  3  4  1  0  0  0  0
  3  5  1  0  0  0  0
  3  7  2  0  0  0  0
  4  6  1  0  0  0  0
  4  8  2  0  0  0  0
  5  9  1  0  0  0  0
  5 13  2  0  0  0  0
  6 10  1  0  0  0  0
  6 14  2  0  0  0  0
  7 11  1  0  0  0  0
  7 15  1  0  0  0  0
  8 12  1  0  0  0  0
  8 16  1  0  0  0  0
  9 12  2  0  0  0  0
  9 21  1  0  0  0  0
 10 11  2  0  0  0  0
 10 22  1  0  0  0  0
 11 23  1  0  0  0  0
 12 24  1  0  0  0  0
 13 17  1  0  0  0  0
 14 18  1  0  0  0  0
 15 17  2  0  0  0  0
 15 25  1  0  0  0  0
 16 18  2  0  0  0  0
 16 26  1  0  0  0  0
 17 27  1  0  0  0  0
 18 28  1  0  0  0  0
 19 29  1  0  0  0  0
 19 30  1  0  0  0  0
 19 31  1  0  0  0  0
 20 32  1  0  0  0  0
 20 33  1  0  0  0  0
 20 34  1  0  0  0  0
M  END
> <PUBCHEM_COMPOUND_CID>
9543291

> <PUBCHEM_CONFORMER_RMSD>
0.6

> <PUBCHEM_CONFORMER_DIVERSEORDER>
2
1

> <PUBCHEM_MMFF94_PARTIAL_CHARGES>
22
1 -0.36
10 -0.15
11 -0.15
12 -0.15
13 0.08
14 0.08
15 -0.15
16 -0.15
17 -0.15
18 -0.15
19 0.28
2 -0.36
20 0.28
21 0.15
22 0.15
23 0.15
24 0.15
25 0.15
26 0.15
27 0.15
28 0.15
9 -0.15

> <PUBCHEM_EFFECTIVE_ROTOR_COUNT>
2

> <PUBCHEM_PHARMACOPHORE_FEATURES>
6
1 1 acceptor
1 2 acceptor
6 3 4 5 8 9 12 rings
6 3 4 6 7 10 11 rings
6 3 5 7 13 15 17 rings
6 4 6 8 14 16 18 rings

> <PUBCHEM_HEAVY_ATOM_COUNT>
20

> <PUBCHEM_ATOM_DEF_STEREO_COUNT>
0

> <PUBCHEM_ATOM_UDEF_STEREO_COUNT>
0

> <PUBCHEM_BOND_DEF_STEREO_COUNT>
0

> <PUBCHEM_BOND_UDEF_STEREO_COUNT>
0

> <PUBCHEM_ISOTOPIC_ATOM_COUNT>
0

> <PUBCHEM_COMPONENT_COUNT>
1

> <PUBCHEM_CACTVS_TAUTO_COUNT>
1

> <PUBCHEM_CONFORMER_ID>
00919E7B00000002

> <PUBCHEM_MMFF94_ENERGY>
90.0012

> <PUBCHEM_FEATURE_SELFOVERLAP>
30.578

> <PUBCHEM_SHAPE_FINGERPRINT>
10608611 8 18267026055066038777
10693767 8 18042417987369690839
10759866 29 17774441702085736682
10863032 1 18263642861913488777
10967382 1 18410856594031183099
11132069 177 18409736127363556056
11458722 379 18411131467922935982
11471102 20 18410299103044784269
11578080 2 17416156969542572364
11680986 33 18265614286346584768
12011746 2 18410856606884430215
12553582 1 18411139172830378145
13140716 1 18338798905472320001
13221675 6 18410292518865077330
13862211 1 18410017662348775131
14115302 16 18272923912730990668
14790565 3 18266160889591862464
14911166 2 18410855485897965799
15099037 51 18410575097642991487
15196674 1 18338797814550626369
15536298 74 18262236621281096832
15848702 151 17676757768879761494
16752209 62 18339364174871961872
16945 1 18410855498782867627
17804303 29 18410005520750165606
18186145 218 18412830161589623621
193761 8 17906452486546260107
19591789 44 18339077064861423979
200 152 17749113292077491581
20905425 154 18119807160671941990
21029758 11 18333734636625079304
21267235 1 18410283688665771203
21521239 73 18115327591840078999
221490 88 18268139856108043930
22182313 1 18266458693996380307
2334 1 18122343471560786073
23402539 116 18334866012831333390
23463225 33 18340487755527885800
23493267 7 17632579344641876833
23559900 14 18334575699276345872
238 59 17695114137433843733
25 1 18342468062238088975
2748010 2 18266458689701412963
2871803 45 18338238262032627692
335352 9 18410856589704561015
34934 24 18411429409698706019
350125 39 18196365927960104507
5104073 3 18338517434790577161
8809292 202 18342453712267160418
9709674 26 18193835946866506930

> <PUBCHEM_SHAPE_MULTIPOLES>
399.85
7.41
2.86
0.76
0
0
-0.15
0
-2.08
0
0.18
0
0
0.58

> <PUBCHEM_SHAPE_SELFOVERLAP>
916.675

> <PUBCHEM_SHAPE_VOLUME>
209.5

> <PUBCHEM_COORDINATE_TYPE>
2
5
10

$$$$

