443671
  -OEChem-07051213022D

 43 47  0     1  0  0  0  0  0999 V2000
    5.4390   -0.4034    0.0000 O   0  0  0  0  0  0  0  0  0  0  0  0
    8.9116    1.0382    0.0000 O   0  0  0  0  0  0  0  0  0  0  0  0
    2.6079   -0.6687    0.0000 O   0  0  0  0  0  0  0  0  0  0  0  0
    2.6079   -2.3451    0.0000 O   0  0  0  0  0  0  0  0  0  0  0  0
    8.0513    2.5416    0.0000 O   0  0  0  0  0  0  0  0  0  0  0  0
    7.1256   -2.0069    0.0000 N   0  0  3  0  0  0  0  0  0  0  0  0
    6.2596   -0.5069    0.0000 C   0  0  1  0  0  0  0  0  0  0  0  0
    7.1256   -1.0069    0.0000 C   0  0  2  0  0  0  0  0  0  0  0  0
    6.1461   -1.1105    0.0000 C   0  0  2  0  0  0  0  0  0  0  0  0
    6.5462   -1.8033    0.0000 C   0  0  0  0  0  0  0  0  0  0  0  0
    8.0356   -0.5000    0.0000 C   0  0  0  0  0  0  0  0  0  0  0  0
    5.3935   -1.0069    0.0000 C   0  0  0  0  0  0  0  0  0  0  0  0
    6.2596   -2.5069    0.0000 C   0  0  0  0  0  0  0  0  0  0  0  0
    6.2435    0.5346    0.0000 C   0  0  0  0  0  0  0  0  0  0  0  0
    5.3935   -2.0069    0.0000 C   0  0  0  0  0  0  0  0  0  0  0  0
    8.0436    0.5416    0.0000 C   0  0  2  0  0  0  0  0  0  0  0  0
    7.1415    1.0624    0.0000 C   0  0  0  0  0  0  0  0  0  0  0  0
    4.4996   -0.4722    0.0000 C   0  0  0  0  0  0  0  0  0  0  0  0
    4.4996   -2.5416    0.0000 C   0  0  0  0  0  0  0  0  0  0  0  0
    3.5935   -0.9861    0.0000 C   0  0  0  0  0  0  0  0  0  0  0  0
    3.5935   -2.0277    0.0000 C   0  0  0  0  0  0  0  0  0  0  0  0
    2.0000   -1.5069    0.0000 C   0  0  0  0  0  0  0  0  0  0  0  0
    8.9154    2.0382    0.0000 C   0  0  0  0  0  0  0  0  0  0  0  0
    9.7834    2.5349    0.0000 C   0  0  0  0  0  0  0  0  0  0  0  0
    7.8617   -1.4319    0.0000 H   0  0  0  0  0  0  0  0  0  0  0  0
    5.6543   -1.4879    0.0000 H   0  0  0  0  0  0  0  0  0  0  0  0
    5.9434   -1.9485    0.0000 H   0  0  0  0  0  0  0  0  0  0  0  0
    6.5147   -2.4225    0.0000 H   0  0  0  0  0  0  0  0  0  0  0  0
    8.2401   -1.0853    0.0000 H   0  0  0  0  0  0  0  0  0  0  0  0
    8.6472   -0.3987    0.0000 H   0  0  0  0  0  0  0  0  0  0  0  0
    5.8610   -2.9818    0.0000 H   0  0  0  0  0  0  0  0  0  0  0  0
    6.6581   -2.9818    0.0000 H   0  0  0  0  0  0  0  0  0  0  0  0
    5.7030    0.8384    0.0000 H   0  0  0  0  0  0  0  0  0  0  0  0
    8.0448    1.1616    0.0000 H   0  0  0  0  0  0  0  0  0  0  0  0
    7.1391    1.6824    0.0000 H   0  0  0  0  0  0  0  0  0  0  0  0
    4.5068    0.1477    0.0000 H   0  0  0  0  0  0  0  0  0  0  0  0
    5.5995    0.1955    0.0000 H   0  0  0  0  0  0  0  0  0  0  0  0
    4.5068   -3.1615    0.0000 H   0  0  0  0  0  0  0  0  0  0  0  0
    1.5391   -1.0922    0.0000 H   0  0  0  0  0  0  0  0  0  0  0  0
    1.5391   -1.9216    0.0000 H   0  0  0  0  0  0  0  0  0  0  0  0
   10.0913    1.9967    0.0000 H   0  0  0  0  0  0  0  0  0  0  0  0
   10.3215    2.8428    0.0000 H   0  0  0  0  0  0  0  0  0  0  0  0
    9.4754    3.0730    0.0000 H   0  0  0  0  0  0  0  0  0  0  0  0
  9  1  1  6  0  0  0
  1 37  1  0  0  0  0
 16  2  1  6  0  0  0
  2 23  1  0  0  0  0
  3 20  1  0  0  0  0
  3 22  1  0  0  0  0
  4 21  1  0  0  0  0
  4 22  1  0  0  0  0
  5 23  2  0  0  0  0
  6  8  1  0  0  0  0
  6 10  1  0  0  0  0
  6 13  1  0  0  0  0
  7  8  1  0  0  0  0
  7  9  1  0  0  0  0
  7 12  1  0  0  0  0
  7 14  1  6  0  0  0
  8 11  1  0  0  0  0
  8 25  1  1  0  0  0
  9 10  1  0  0  0  0
  9 26  1  0  0  0  0
 10 27  1  0  0  0  0
 10 28  1  0  0  0  0
 11 16  1  0  0  0  0
 11 29  1  0  0  0  0
 11 30  1  0  0  0  0
 12 15  1  0  0  0  0
 12 18  2  0  0  0  0
 13 15  1  0  0  0  0
 13 31  1  0  0  0  0
 13 32  1  0  0  0  0
 14 17  2  0  0  0  0
 14 33  1  0  0  0  0
 15 19  2  0  0  0  0
 16 17  1  0  0  0  0
 16 34  1  0  0  0  0
 17 35  1  0  0  0  0
 18 20  1  0  0  0  0
 18 36  1  0  0  0  0
 19 21  1  0  0  0  0
 19 38  1  0  0  0  0
 20 21  2  0  0  0  0
 22 39  1  0  0  0  0
 22 40  1  0  0  0  0
 23 24  1  0  0  0  0
 24 41  1  0  0  0  0
 24 42  1  0  0  0  0
 24 43  1  0  0  0  0
M  END
> <PUBCHEM_COMPOUND_CID>
443671

> <PUBCHEM_COMPOUND_CANONICALIZED>
1

> <PUBCHEM_CACTVS_COMPLEXITY>
580

> <PUBCHEM_CACTVS_HBOND_ACCEPTOR>
6

> <PUBCHEM_CACTVS_HBOND_DONOR>
1

> <PUBCHEM_CACTVS_ROTATABLE_BOND>
2

> <PUBCHEM_CACTVS_SUBSKEYS>
AAADceB6OAAAAAAAAAAAAAAAAAAAAWJAAAA8QIAABYAAAEixAAAAHgAACAAADjzhmAcyDoMABgCIAiDSCACCCAAgIAAIiAAOjIgfNiKEsRumcCpmwBGeqAew8P8PoAABAAAQQABAAAIAACCAAAAAAAAAAA==

> <PUBCHEM_IUPAC_INCHI>
InChI=1S/C18H19NO5/c1-10(20)24-12-2-3-18-13-6-15-14(22-9-23-15)4-11(13)7-19(8-17(18)21)16(18)5-12/h2-4,6,12,16-17,21H,5,7-9H2,1H3/t12-,16-,17-,18-/m0/s1

> <PUBCHEM_IUPAC_INCHIKEY>
NWAYYOQRSAEORM-JUKXBJQTSA-N

> <PUBCHEM_XLOGP3_AA>
1.3

> <PUBCHEM_EXACT_MASS>
329.126323

> <PUBCHEM_MOLECULAR_FORMULA>
C18H19NO5

> <PUBCHEM_MOLECULAR_WEIGHT>
329.34716

> <PUBCHEM_OPENEYE_CAN_SMILES>
CC(=O)OC1CC2C3(C=C1)C(CN2CC4=CC5=C(C=C34)OCO5)O

> <PUBCHEM_OPENEYE_ISO_SMILES>
CC(=O)O[C@@H]1C[C@H]2[C@@]3(C=C1)[C@H](CN2CC4=CC5=C(C=C34)OCO5)O

> <PUBCHEM_CACTVS_TPSA>
68.2

> <PUBCHEM_MONOISOTOPIC_WEIGHT>
329.126323

> <PUBCHEM_TOTAL_CHARGE>
0

> <PUBCHEM_HEAVY_ATOM_COUNT>
24

> <PUBCHEM_ATOM_DEF_STEREO_COUNT>
4

> <PUBCHEM_ATOM_UDEF_STEREO_COUNT>
0

> <PUBCHEM_BOND_DEF_STEREO_COUNT>
0

> <PUBCHEM_BOND_UDEF_STEREO_COUNT>
0

> <PUBCHEM_ISOTOPIC_ATOM_COUNT>
0

> <PUBCHEM_COMPONENT_COUNT>
1

> <PUBCHEM_CACTVS_TAUTO_COUNT>
1

> <PUBCHEM_COORDINATE_TYPE>
1
5
255

> <PUBCHEM_BONDANNOTATIONS>
9  1  6
12  15  8
12  18  8
15  19  8
18  20  8
19  21  8
16  2  6
20  21  8
7  14  6
8  25  5

$$$$

