11833
  -OEChem-06261206102D

 20 21  0     0  0  0  0  0  0999 V2000
    3.7320    1.4827    0.0000 O   0  0  0  0  0  0  0  0  0  0  0  0
    2.0000    1.4827    0.0000 O   0  0  0  0  0  0  0  0  0  0  0  0
    4.5981   -0.0173    0.0000 C   0  0  0  0  0  0  0  0  0  0  0  0
    3.7320   -0.5173    0.0000 C   0  0  0  0  0  0  0  0  0  0  0  0
    4.5981    0.9827    0.0000 C   0  0  0  0  0  0  0  0  0  0  0  0
    5.4920   -0.5520    0.0000 C   0  0  0  0  0  0  0  0  0  0  0  0
    2.8660   -0.0173    0.0000 C   0  0  0  0  0  0  0  0  0  0  0  0
    5.4920    1.5173    0.0000 C   0  0  0  0  0  0  0  0  0  0  0  0
    3.7320   -1.5173    0.0000 C   0  0  0  0  0  0  0  0  0  0  0  0
    6.3981   -0.0381    0.0000 C   0  0  0  0  0  0  0  0  0  0  0  0
    6.3981    1.0035    0.0000 C   0  0  0  0  0  0  0  0  0  0  0  0
    2.8660    0.9827    0.0000 C   0  0  0  0  0  0  0  0  0  0  0  0
    5.4848   -1.1720    0.0000 H   0  0  0  0  0  0  0  0  0  0  0  0
    2.3291   -0.3273    0.0000 H   0  0  0  0  0  0  0  0  0  0  0  0
    5.4848    2.1373    0.0000 H   0  0  0  0  0  0  0  0  0  0  0  0
    3.1120   -1.5173    0.0000 H   0  0  0  0  0  0  0  0  0  0  0  0
    3.7320   -2.1373    0.0000 H   0  0  0  0  0  0  0  0  0  0  0  0
    4.3520   -1.5173    0.0000 H   0  0  0  0  0  0  0  0  0  0  0  0
    6.9338   -0.3502    0.0000 H   0  0  0  0  0  0  0  0  0  0  0  0
    6.9338    1.3156    0.0000 H   0  0  0  0  0  0  0  0  0  0  0  0
  1  5  1  0  0  0  0
  1 12  1  0  0  0  0
  2 12  2  0  0  0  0
  3  4  1  0  0  0  0
  3  5  1  0  0  0  0
  3  6  2  0  0  0  0
  4  7  2  0  0  0  0
  4  9  1  0  0  0  0
  5  8  2  0  0  0  0
  6 10  1  0  0  0  0
  6 13  1  0  0  0  0
  7 12  1  0  0  0  0
  7 14  1  0  0  0  0
  8 11  1  0  0  0  0
  8 15  1  0  0  0  0
  9 16  1  0  0  0  0
  9 17  1  0  0  0  0
  9 18  1  0  0  0  0
 10 11  2  0  0  0  0
 10 19  1  0  0  0  0
 11 20  1  0  0  0  0
M  END
> <PUBCHEM_COMPOUND_CID>
11833

> <PUBCHEM_COMPOUND_CANONICALIZED>
1

> <PUBCHEM_CACTVS_COMPLEXITY>
230

> <PUBCHEM_CACTVS_HBOND_ACCEPTOR>
2

> <PUBCHEM_CACTVS_HBOND_DONOR>
0

> <PUBCHEM_CACTVS_ROTATABLE_BOND>
0

> <PUBCHEM_CACTVS_SUBSKEYS>
AAADccBwMAAAAAAAAAAAAAAAAAAAAAAAAAAwQAAAAAAAAACBAAAAGgAAAAAADASAmAAyDoAABACIAiDSCAACCAAgIAAIiAAGCMgMJiKEMRqCOiCkwBEIqQeAwKAOAAAAAAAIAAAAAAAAABAAAAAAAAAAAA==

> <PUBCHEM_IUPAC_OPENEYE_NAME>
4-methylchromen-2-one

> <PUBCHEM_IUPAC_CAS_NAME>
4-methyl-1-benzopyran-2-one

> <PUBCHEM_IUPAC_NAME>
4-methylchromen-2-one

> <PUBCHEM_IUPAC_SYSTEMATIC_NAME>
4-methylchromen-2-one

> <PUBCHEM_IUPAC_TRADITIONAL_NAME>
4-methylcoumarin

> <PUBCHEM_IUPAC_INCHI>
InChI=1S/C10H8O2/c1-7-6-10(11)12-9-5-3-2-4-8(7)9/h2-6H,1H3

> <PUBCHEM_IUPAC_INCHIKEY>
PSGQCCSGKGJLRL-UHFFFAOYSA-N

> <PUBCHEM_XLOGP3>
2.3

> <PUBCHEM_EXACT_MASS>
160.052429

> <PUBCHEM_MOLECULAR_FORMULA>
C10H8O2

> <PUBCHEM_MOLECULAR_WEIGHT>
160.16932

> <PUBCHEM_OPENEYE_CAN_SMILES>
CC1=CC(=O)OC2=CC=CC=C12

> <PUBCHEM_OPENEYE_ISO_SMILES>
CC1=CC(=O)OC2=CC=CC=C12

> <PUBCHEM_CACTVS_TPSA>
26.3

> <PUBCHEM_MONOISOTOPIC_WEIGHT>
160.052429

> <PUBCHEM_TOTAL_CHARGE>
0

> <PUBCHEM_HEAVY_ATOM_COUNT>
12

> <PUBCHEM_ATOM_DEF_STEREO_COUNT>
0

> <PUBCHEM_ATOM_UDEF_STEREO_COUNT>
0

> <PUBCHEM_BOND_DEF_STEREO_COUNT>
0

> <PUBCHEM_BOND_UDEF_STEREO_COUNT>
0

> <PUBCHEM_ISOTOPIC_ATOM_COUNT>
0

> <PUBCHEM_COMPONENT_COUNT>
1

> <PUBCHEM_CACTVS_TAUTO_COUNT>
1

> <PUBCHEM_COORDINATE_TYPE>
1
5
255

> <PUBCHEM_BONDANNOTATIONS>
1  12  8
1  5  8
10  11  8
3  4  8
3  5  8
3  6  8
4  7  8
5  8  8
6  10  8
7  12  8
8  11  8

$$$$

