439642
  -OEChem-07051212463D

 60 60  0     1  0  0  0  0  0999 V2000
    9.5268    1.8267   -0.4536 O   0  0  0  0  0  0  0  0  0  0  0  0
    7.9843    2.8613    0.8530 O   0  0  0  0  0  0  0  0  0  0  0  0
   -1.1693   -1.8543    0.3008 C   0  0  2  0  0  0  0  0  0  0  0  0
    0.2540   -1.9377   -0.2627 C   0  0  2  0  0  0  0  0  0  0  0  0
   -1.7334   -3.2395   -0.0192 C   0  0  0  0  0  0  0  0  0  0  0  0
    0.7041   -3.3289    0.1853 C   0  0  0  0  0  0  0  0  0  0  0  0
   -0.5510   -4.1985    0.1180 C   0  0  0  0  0  0  0  0  0  0  0  0
   -2.0062   -0.7321   -0.2939 C   0  0  0  0  0  0  0  0  0  0  0  0
    1.1813   -0.8380    0.2311 C   0  0  0  0  0  0  0  0  0  0  0  0
   -3.4283   -0.7363    0.2661 C   0  0  0  0  0  0  0  0  0  0  0  0
    2.5971   -1.0099   -0.3205 C   0  0  0  0  0  0  0  0  0  0  0  0
   -4.2558    0.4143   -0.3092 C   0  0  0  0  0  0  0  0  0  0  0  0
    3.5332    0.0780    0.2099 C   0  0  0  0  0  0  0  0  0  0  0  0
   -5.6688    0.4310    0.2761 C   0  0  0  0  0  0  0  0  0  0  0  0
    4.9664   -0.0407   -0.3170 C   0  0  0  0  0  0  0  0  0  0  0  0
   -6.5069    1.5620   -0.3247 C   0  0  0  0  0  0  0  0  0  0  0  0
    5.9441    1.0358    0.1628 C   0  0  0  0  0  0  0  0  0  0  0  0
   -7.9299    1.5561    0.2381 C   0  0  0  0  0  0  0  0  0  0  0  0
    7.3427    0.8989   -0.4381 C   0  0  0  0  0  0  0  0  0  0  0  0
   -8.8212    2.6501   -0.3539 C   0  0  0  0  0  0  0  0  0  0  0  0
  -10.2440    2.6310    0.1828 C   0  0  0  0  0  0  0  0  0  0  0  0
    8.2807    1.9707    0.0688 C   0  0  0  0  0  0  0  0  0  0  0  0
   -1.1235   -1.7338    1.3925 H   0  0  0  0  0  0  0  0  0  0  0  0
    0.2148   -1.9137   -1.3609 H   0  0  0  0  0  0  0  0  0  0  0  0
   -2.5494   -3.5212    0.6540 H   0  0  0  0  0  0  0  0  0  0  0  0
   -2.1185   -3.2823   -1.0456 H   0  0  0  0  0  0  0  0  0  0  0  0
    1.4976   -3.7349   -0.4504 H   0  0  0  0  0  0  0  0  0  0  0  0
    1.0788   -3.3104    1.2162 H   0  0  0  0  0  0  0  0  0  0  0  0
   -0.6400   -4.8111    1.0217 H   0  0  0  0  0  0  0  0  0  0  0  0
   -0.5135   -4.8818   -0.7375 H   0  0  0  0  0  0  0  0  0  0  0  0
   -1.5381    0.2341   -0.0724 H   0  0  0  0  0  0  0  0  0  0  0  0
   -2.0414   -0.8222   -1.3868 H   0  0  0  0  0  0  0  0  0  0  0  0
    1.2116   -0.8340    1.3280 H   0  0  0  0  0  0  0  0  0  0  0  0
    0.7948    0.1405   -0.0771 H   0  0  0  0  0  0  0  0  0  0  0  0
   -3.3933   -0.6519    1.3591 H   0  0  0  0  0  0  0  0  0  0  0  0
   -3.9302   -1.6812    0.0292 H   0  0  0  0  0  0  0  0  0  0  0  0
    2.5742   -0.9738   -1.4162 H   0  0  0  0  0  0  0  0  0  0  0  0
    3.0067   -1.9853   -0.0360 H   0  0  0  0  0  0  0  0  0  0  0  0
   -3.7602    1.3690   -0.0943 H   0  0  0  0  0  0  0  0  0  0  0  0
   -4.3095    0.3163   -1.4004 H   0  0  0  0  0  0  0  0  0  0  0  0
    3.5540    0.0385    1.3060 H   0  0  0  0  0  0  0  0  0  0  0  0
    3.1353    1.0631   -0.0636 H   0  0  0  0  0  0  0  0  0  0  0  0
   -6.1576   -0.5311    0.0797 H   0  0  0  0  0  0  0  0  0  0  0  0
   -5.6155    0.5505    1.3650 H   0  0  0  0  0  0  0  0  0  0  0  0
    4.9362   -0.0201   -1.4140 H   0  0  0  0  0  0  0  0  0  0  0  0
    5.3639   -1.0248   -0.0380 H   0  0  0  0  0  0  0  0  0  0  0  0
   -6.5458    1.4522   -1.4152 H   0  0  0  0  0  0  0  0  0  0  0  0
   -6.0321    2.5276   -0.1130 H   0  0  0  0  0  0  0  0  0  0  0  0
    5.5376    2.0243   -0.0861 H   0  0  0  0  0  0  0  0  0  0  0  0
    6.0092    0.9965    1.2575 H   0  0  0  0  0  0  0  0  0  0  0  0
   -8.3903    0.5791    0.0453 H   0  0  0  0  0  0  0  0  0  0  0  0
   -7.8893    1.6769    1.3278 H   0  0  0  0  0  0  0  0  0  0  0  0
    7.2871    0.9809   -1.5290 H   0  0  0  0  0  0  0  0  0  0  0  0
    7.7638   -0.0771   -0.1735 H   0  0  0  0  0  0  0  0  0  0  0  0
   -8.8545    2.5403   -1.4445 H   0  0  0  0  0  0  0  0  0  0  0  0
   -8.3772    3.6310   -0.1469 H   0  0  0  0  0  0  0  0  0  0  0  0
  -10.2534    2.7750    1.2678 H   0  0  0  0  0  0  0  0  0  0  0  0
  -10.8336    3.4324   -0.2731 H   0  0  0  0  0  0  0  0  0  0  0  0
  -10.7329    1.6776   -0.0415 H   0  0  0  0  0  0  0  0  0  0  0  0
   10.1420    2.5175   -0.1268 H   0  0  0  0  0  0  0  0  0  0  0  0
  1 22  1  0  0  0  0
  1 60  1  0  0  0  0
  2 22  2  0  0  0  0
  3  4  1  0  0  0  0
  3  5  1  0  0  0  0
  3  8  1  0  0  0  0
  3 23  1  0  0  0  0
  4  6  1  0  0  0  0
  4  9  1  0  0  0  0
  4 24  1  0  0  0  0
  5  7  1  0  0  0  0
  5 25  1  0  0  0  0
  5 26  1  0  0  0  0
  6  7  1  0  0  0  0
  6 27  1  0  0  0  0
  6 28  1  0  0  0  0
  7 29  1  0  0  0  0
  7 30  1  0  0  0  0
  8 10  1  0  0  0  0
  8 31  1  0  0  0  0
  8 32  1  0  0  0  0
  9 11  1  0  0  0  0
  9 33  1  0  0  0  0
  9 34  1  0  0  0  0
 10 12  1  0  0  0  0
 10 35  1  0  0  0  0
 10 36  1  0  0  0  0
 11 13  1  0  0  0  0
 11 37  1  0  0  0  0
 11 38  1  0  0  0  0
 12 14  1  0  0  0  0
 12 39  1  0  0  0  0
 12 40  1  0  0  0  0
 13 15  1  0  0  0  0
 13 41  1  0  0  0  0
 13 42  1  0  0  0  0
 14 16  1  0  0  0  0
 14 43  1  0  0  0  0
 14 44  1  0  0  0  0
 15 17  1  0  0  0  0
 15 45  1  0  0  0  0
 15 46  1  0  0  0  0
 16 18  1  0  0  0  0
 16 47  1  0  0  0  0
 16 48  1  0  0  0  0
 17 19  1  0  0  0  0
 17 49  1  0  0  0  0
 17 50  1  0  0  0  0
 18 20  1  0  0  0  0
 18 51  1  0  0  0  0
 18 52  1  0  0  0  0
 19 22  1  0  0  0  0
 19 53  1  0  0  0  0
 19 54  1  0  0  0  0
 20 21  1  0  0  0  0
 20 55  1  0  0  0  0
 20 56  1  0  0  0  0
 21 57  1  0  0  0  0
 21 58  1  0  0  0  0
 21 59  1  0  0  0  0
M  END
> <PUBCHEM_COMPOUND_CID>
439642

> <PUBCHEM_CONFORMER_RMSD>
1.2

> <PUBCHEM_CONFORMER_DIVERSEORDER>
1
87
103
39
74
44
107
122
115
26
15
97
125
30
120
118
55
37
48
113
52
51
94
32
7
83
108
64
66
25
110
50
77
92
123
75
3
111
73
17
27
80
53
43
49
105
114
102
13
11
82
58
40
9
10
100
61
106
124
6
116
59
22
101
79
89
60
57
36
84
78
95
23
62
86
70
88
4
93
14
63
109
71
33
90
41
67
98
28
121
29
35
81
65
34
19
85
24
119
56
68
69
21
112
72
76
42
12
5
104
54
2
8
117
46
45
18
47
99
96
31
91
20
16
38

> <PUBCHEM_MMFF94_PARTIAL_CHARGES>
5
1 -0.65
19 0.06
2 -0.57
22 0.66
60 0.5

> <PUBCHEM_EFFECTIVE_ROTOR_COUNT>
15

> <PUBCHEM_PHARMACOPHORE_FEATURES>
7
1 1 acceptor
1 2 acceptor
1 21 hydrophobe
3 1 2 22 anion
3 15 17 19 hydrophobe
3 9 11 13 hydrophobe
5 3 4 5 6 7 rings

> <PUBCHEM_HEAVY_ATOM_COUNT>
22

> <PUBCHEM_ATOM_DEF_STEREO_COUNT>
2

> <PUBCHEM_ATOM_UDEF_STEREO_COUNT>
0

> <PUBCHEM_BOND_DEF_STEREO_COUNT>
0

> <PUBCHEM_BOND_UDEF_STEREO_COUNT>
0

> <PUBCHEM_ISOTOPIC_ATOM_COUNT>
0

> <PUBCHEM_COMPONENT_COUNT>
1

> <PUBCHEM_CACTVS_TAUTO_COUNT>
1

> <PUBCHEM_CONFORMER_ID>
0006B55A00000001

> <PUBCHEM_MMFF94_ENERGY>
14.3003

> <PUBCHEM_FEATURE_SELFOVERLAP>
35.578

> <PUBCHEM_SHAPE_FINGERPRINT>
10411042 1 17546445579418878315
10835480 77 18114175295338443414
11135609 201 18342745156559128341
11409948 8 18272639144843777409
11672396 167 9943226127774439345
12838862 33 18339938064017707637
13248334 5 18050286161340223371
13530399 1 17845364459324453180
14251920 17 18411982478246403149
14359421 15 6411299009769986461
14617042 71 18409164446449244009
15152005 290 18410856555577112911
15152005 77 11527952248981522001
155225 1 18410292532378226797
15778101 99 18339642231682510706
15890870 6 18410292523292244737
1768 4 18409722990114002961
20554085 129 18040731280835147002
20621476 66 18341892953427379518
21307412 95 5617241646971162885
23523787 8 16081376262606628511
23523788 1 13110973066724678626
23524908 199 17822002156415117644
24771293 8 18344146999688478149
25242607 90 10519697861211537989
270888 7 18410857667831418991
4073 2 18271239530871545771
4516262 110 18338242673818317141
6327066 14 18409448081008079391
636775 8 9223240663302799296
77188 2 17402896021118523143

> <PUBCHEM_SHAPE_MULTIPOLES>
441.01
31.96
4.44
0.7
5.21
3.46
0.01
-53.1
-0.13
0.72
0.31
-0.15
-0.09
0.61

> <PUBCHEM_SHAPE_SELFOVERLAP>
836.008

> <PUBCHEM_SHAPE_VOLUME>
273.4

> <PUBCHEM_COORDINATE_TYPE>
2
5
10

$$$$

