12129
  -OEChem-06261206343D

 23 22  0     0  0  0  0  0  0999 V2000
   -1.1500    0.0451    0.6979 O   0  0  0  0  0  0  0  0  0  0  0  0
    1.0791    0.1563   -0.1831 O   0  0  0  0  0  0  0  0  0  0  0  0
    1.2252   -2.6023   -0.2354 O   0  0  0  0  0  0  0  0  0  0  0  0
    0.1098   -0.6168    0.5371 C   0  0  0  0  0  0  0  0  0  0  0  0
   -0.0451   -1.9667   -0.1618 C   0  0  0  0  0  0  0  0  0  0  0  0
   -1.8158    0.3654   -0.5160 C   0  0  0  0  0  0  0  0  0  0  0  0
    1.3461    1.4071    0.4379 C   0  0  0  0  0  0  0  0  0  0  0  0
   -3.1237    1.0561   -0.1937 C   0  0  0  0  0  0  0  0  0  0  0  0
    2.3745    2.1557   -0.3829 C   0  0  0  0  0  0  0  0  0  0  0  0
    0.5139   -0.7955    1.5411 H   0  0  0  0  0  0  0  0  0  0  0  0
   -0.7499   -2.6095    0.3750 H   0  0  0  0  0  0  0  0  0  0  0  0
   -0.3925   -1.8510   -1.1921 H   0  0  0  0  0  0  0  0  0  0  0  0
   -1.1927    1.0217   -1.1320 H   0  0  0  0  0  0  0  0  0  0  0  0
   -2.0471   -0.5411   -1.0819 H   0  0  0  0  0  0  0  0  0  0  0  0
    0.4329    2.0074    0.5041 H   0  0  0  0  0  0  0  0  0  0  0  0
    1.7330    1.2400    1.4493 H   0  0  0  0  0  0  0  0  0  0  0  0
   -3.6661    1.3141   -1.1077 H   0  0  0  0  0  0  0  0  0  0  0  0
   -3.7585    0.4124    0.4242 H   0  0  0  0  0  0  0  0  0  0  0  0
   -2.9442    1.9713    0.3801 H   0  0  0  0  0  0  0  0  0  0  0  0
    2.6083    3.1230    0.0705 H   0  0  0  0  0  0  0  0  0  0  0  0
    3.2979    1.5732   -0.4685 H   0  0  0  0  0  0  0  0  0  0  0  0
    2.0076    2.3220   -1.4012 H   0  0  0  0  0  0  0  0  0  0  0  0
    1.0907   -3.4582   -0.6770 H   0  0  0  0  0  0  0  0  0  0  0  0
  1  4  1  0  0  0  0
  1  6  1  0  0  0  0
  2  4  1  0  0  0  0
  2  7  1  0  0  0  0
  3  5  1  0  0  0  0
  3 23  1  0  0  0  0
  4  5  1  0  0  0  0
  4 10  1  0  0  0  0
  5 11  1  0  0  0  0
  5 12  1  0  0  0  0
  6  8  1  0  0  0  0
  6 13  1  0  0  0  0
  6 14  1  0  0  0  0
  7  9  1  0  0  0  0
  7 15  1  0  0  0  0
  7 16  1  0  0  0  0
  8 17  1  0  0  0  0
  8 18  1  0  0  0  0
  8 19  1  0  0  0  0
  9 20  1  0  0  0  0
  9 21  1  0  0  0  0
  9 22  1  0  0  0  0
M  END
> <PUBCHEM_COMPOUND_CID>
12129

> <PUBCHEM_CONFORMER_RMSD>
0.6

> <PUBCHEM_CONFORMER_DIVERSEORDER>
1
10
8
23
17
22
16
9
13
14
15
21
20
4
7
12
5
19
3
2
11
6
18

> <PUBCHEM_MMFF94_PARTIAL_CHARGES>
8
1 -0.56
2 -0.56
23 0.4
3 -0.68
4 0.56
5 0.28
6 0.28
7 0.28

> <PUBCHEM_EFFECTIVE_ROTOR_COUNT>
5

> <PUBCHEM_PHARMACOPHORE_FEATURES>
4
1 1 acceptor
1 2 acceptor
1 3 acceptor
1 3 donor

> <PUBCHEM_HEAVY_ATOM_COUNT>
9

> <PUBCHEM_ATOM_DEF_STEREO_COUNT>
0

> <PUBCHEM_ATOM_UDEF_STEREO_COUNT>
0

> <PUBCHEM_BOND_DEF_STEREO_COUNT>
0

> <PUBCHEM_BOND_UDEF_STEREO_COUNT>
0

> <PUBCHEM_ISOTOPIC_ATOM_COUNT>
0

> <PUBCHEM_COMPONENT_COUNT>
1

> <PUBCHEM_CACTVS_TAUTO_COUNT>
1

> <PUBCHEM_CONFORMER_ID>
00002F6100000001

> <PUBCHEM_MMFF94_ENERGY>
13.0177

> <PUBCHEM_FEATURE_SELFOVERLAP>
20.334

> <PUBCHEM_SHAPE_FINGERPRINT>
1 1 18411140242330014796
20711985 344 17544767724541626850
21040471 1 18265903453636141704
23211744 25 17752786640214318673
23211744 41 17846791710440100345
23552423 10 18263372541531185879
23552449 1 17329153468406869104

> <PUBCHEM_SHAPE_MULTIPOLES>
167.61
3.47
2.65
0.75
0.87
1.82
0.03
-3.31
-0.48
-0.94
-0.37
0.02
-0.06
0.03

> <PUBCHEM_SHAPE_SELFOVERLAP>
297.518

> <PUBCHEM_SHAPE_VOLUME>
109.4

> <PUBCHEM_COORDINATE_TYPE>
2
5
10

$$$$

