26751
  -OEChem-07051213132D

  4  3  0     0  0  0  0  0  0999 V2000
    2.5369    0.1550    0.0000 P   1  0  0  0  0  0  0  0  0  0  0  0
    3.0739    0.4650    0.0000 H   0  0  0  0  0  0  0  0  0  0  0  0
    2.0000    0.4650    0.0000 H   0  0  0  0  0  0  0  0  0  0  0  0
    2.5369   -0.4650    0.0000 H   0  0  0  0  0  0  0  0  0  0  0  0
  1  2  1  0  0  0  0
  1  3  1  0  0  0  0
  1  4  1  0  0  0  0
M  ISO  1   1  32
M  END
> <PUBCHEM_COMPOUND_CID>
26751

> <PUBCHEM_COMPOUND_CANONICALIZED>
1

> <PUBCHEM_CACTVS_COMPLEXITY>
0

> <PUBCHEM_CACTVS_HBOND_ACCEPTOR>
0

> <PUBCHEM_CACTVS_HBOND_DONOR>
0

> <PUBCHEM_CACTVS_ROTATABLE_BOND>
0

> <PUBCHEM_CACTVS_SUBSKEYS>
AAADcQAAAAIAAAAAAAAAAAAAAAAAAAAAAAAAAAAAAAAAAAAAAAAAAAAAAAAQAAAAAAAAAAAAAAAAAAAAAAAAAAAAAAAAAAAAAAAAAAAAAAAAAAAAAAAAAAAAAAAAAAAAAAAAAAAAAAAAAAAAAAAAAAAAAA==

> <PUBCHEM_IUPAC_OPENEYE_NAME>
phosphane

> <PUBCHEM_IUPAC_CAS_NAME>
phosphine

> <PUBCHEM_IUPAC_NAME>
phosphane

> <PUBCHEM_IUPAC_SYSTEMATIC_NAME>
phosphane

> <PUBCHEM_IUPAC_TRADITIONAL_NAME>
phosphine

> <PUBCHEM_IUPAC_INCHI>
InChI=1S/H3P/h1H3/i1+1

> <PUBCHEM_IUPAC_INCHIKEY>
XYFCBTPGUUZFHI-OUBTZVSYSA-N

> <PUBCHEM_XLOGP3_AA>
-0.1

> <PUBCHEM_EXACT_MASS>
34.997382

> <PUBCHEM_MOLECULAR_FORMULA>
H3P

> <PUBCHEM_MOLECULAR_WEIGHT>
34.997727

> <PUBCHEM_OPENEYE_CAN_SMILES>
P

> <PUBCHEM_OPENEYE_ISO_SMILES>
[32PH3]

> <PUBCHEM_CACTVS_TPSA>
0

> <PUBCHEM_MONOISOTOPIC_WEIGHT>
34.997382

> <PUBCHEM_TOTAL_CHARGE>
0

> <PUBCHEM_HEAVY_ATOM_COUNT>
1

> <PUBCHEM_ATOM_DEF_STEREO_COUNT>
0

> <PUBCHEM_ATOM_UDEF_STEREO_COUNT>
0

> <PUBCHEM_BOND_DEF_STEREO_COUNT>
0

> <PUBCHEM_BOND_UDEF_STEREO_COUNT>
0

> <PUBCHEM_ISOTOPIC_ATOM_COUNT>
1

> <PUBCHEM_COMPONENT_COUNT>
1

> <PUBCHEM_CACTVS_TAUTO_COUNT>
1

> <PUBCHEM_COORDINATE_TYPE>
1
5
255

$$$$

