5281507
  -OEChem-07051212573D

 57 59  0     1  0  0  0  0  0999 V2000
   -3.1328    3.2153    0.2378 O   0  0  0  0  0  0  0  0  0  0  0  0
   -1.3495    0.3061    0.4659 O   0  0  0  0  0  0  0  0  0  0  0  0
   -0.6570   -1.4324   -1.9840 O   0  0  0  0  0  0  0  0  0  0  0  0
   -2.2608    1.3882    2.2955 O   0  0  0  0  0  0  0  0  0  0  0  0
    2.9496    1.4512   -0.4597 O   0  0  0  0  0  0  0  0  0  0  0  0
   -2.7520   -2.0296   -2.7288 O   0  0  0  0  0  0  0  0  0  0  0  0
    3.6636    0.4770   -2.4319 O   0  0  0  0  0  0  0  0  0  0  0  0
   -1.8431    2.6069    0.3097 C   0  0  2  0  0  0  0  0  0  0  0  0
   -2.6189    2.6325   -0.9668 C   0  0  1  0  0  0  0  0  0  0  0  0
   -0.8046   -2.0958    0.3011 C   0  0  2  0  0  0  0  0  0  0  0  0
   -1.3152   -0.9206    1.1912 C   0  0  1  0  0  0  0  0  0  0  0  0
    0.1700   -1.8292   -0.8693 C   0  0  2  0  0  0  0  0  0  0  0  0
   -1.8480    1.3785    1.1446 C   0  0  0  0  0  0  0  0  0  0  0  0
   -0.7434    3.5831    0.4884 C   0  0  0  0  0  0  0  0  0  0  0  0
   -0.6112   -0.7169    2.5625 C   0  0  0  0  0  0  0  0  0  0  0  0
   -3.3942    1.4605   -1.4380 C   0  0  0  0  0  0  0  0  0  0  0  0
   -1.9466   -2.6125   -0.5269 C   0  0  0  0  0  0  0  0  0  0  0  0
    1.2083   -0.7751   -0.6463 C   0  0  0  0  0  0  0  0  0  0  0  0
    0.9035   -0.6846    2.5703 C   0  0  0  0  0  0  0  0  0  0  0  0
   -1.8822   -2.0214   -1.8775 C   0  0  0  0  0  0  0  0  0  0  0  0
    2.4939   -0.9335   -0.2655 C   0  0  0  0  0  0  0  0  0  0  0  0
    3.2844    0.2642    0.2616 C   0  0  2  0  0  0  0  0  0  0  0  0
    3.0339    0.4938    1.7782 C   0  0  0  0  0  0  0  0  0  0  0  0
    1.5626    0.4045    2.1218 C   0  0  0  0  0  0  0  0  0  0  0  0
   -2.8798   -3.5046   -0.1860 C   0  0  0  0  0  0  0  0  0  0  0  0
    1.5604   -1.9486    3.0576 C   0  0  0  0  0  0  0  0  0  0  0  0
    3.1999   -2.2553   -0.1458 C   0  0  0  0  0  0  0  0  0  0  0  0
    3.1942    1.4119   -1.7991 C   0  0  0  0  0  0  0  0  0  0  0  0
    2.8150    2.6865   -2.4606 C   0  0  0  0  0  0  0  0  0  0  0  0
   -2.3117    3.2917   -1.7671 H   0  0  0  0  0  0  0  0  0  0  0  0
   -0.4215   -2.8993    0.9395 H   0  0  0  0  0  0  0  0  0  0  0  0
   -2.3609   -1.1450    1.4518 H   0  0  0  0  0  0  0  0  0  0  0  0
    0.6457   -2.7678   -1.1793 H   0  0  0  0  0  0  0  0  0  0  0  0
    0.2079    3.1466    0.1664 H   0  0  0  0  0  0  0  0  0  0  0  0
   -0.9008    4.4998   -0.0905 H   0  0  0  0  0  0  0  0  0  0  0  0
   -0.6462    3.8686    1.5411 H   0  0  0  0  0  0  0  0  0  0  0  0
   -0.9105   -1.5889    3.1646 H   0  0  0  0  0  0  0  0  0  0  0  0
   -0.9380    0.1121    3.1861 H   0  0  0  0  0  0  0  0  0  0  0  0
   -4.2083    1.7935   -2.0900 H   0  0  0  0  0  0  0  0  0  0  0  0
   -2.7510    0.7987   -2.0241 H   0  0  0  0  0  0  0  0  0  0  0  0
   -3.8440    0.8814   -0.6252 H   0  0  0  0  0  0  0  0  0  0  0  0
    0.8162    0.2393   -0.6896 H   0  0  0  0  0  0  0  0  0  0  0  0
    4.3609    0.0976    0.1211 H   0  0  0  0  0  0  0  0  0  0  0  0
    3.3887    1.4911    2.0657 H   0  0  0  0  0  0  0  0  0  0  0  0
    3.6229   -0.2230    2.3569 H   0  0  0  0  0  0  0  0  0  0  0  0
    0.9804    1.2733    1.8222 H   0  0  0  0  0  0  0  0  0  0  0  0
   -2.8906   -3.9399    0.8077 H   0  0  0  0  0  0  0  0  0  0  0  0
   -3.6499   -3.8212   -0.8810 H   0  0  0  0  0  0  0  0  0  0  0  0
    1.1917   -2.1977    4.0588 H   0  0  0  0  0  0  0  0  0  0  0  0
    2.6461   -1.8741    3.1391 H   0  0  0  0  0  0  0  0  0  0  0  0
    1.3352   -2.7865    2.3924 H   0  0  0  0  0  0  0  0  0  0  0  0
    2.5532   -3.1139   -0.3375 H   0  0  0  0  0  0  0  0  0  0  0  0
    3.6142   -2.3826    0.8590 H   0  0  0  0  0  0  0  0  0  0  0  0
    4.0278   -2.2970   -0.8612 H   0  0  0  0  0  0  0  0  0  0  0  0
    3.4009    3.5094   -2.0436 H   0  0  0  0  0  0  0  0  0  0  0  0
    1.7463    2.8706   -2.3231 H   0  0  0  0  0  0  0  0  0  0  0  0
    3.0202    2.6229   -3.5332 H   0  0  0  0  0  0  0  0  0  0  0  0
  1  8  1  0  0  0  0
  1  9  1  0  0  0  0
  2 11  1  0  0  0  0
  2 13  1  0  0  0  0
  3 12  1  0  0  0  0
  3 20  1  0  0  0  0
  4 13  2  0  0  0  0
  5 22  1  0  0  0  0
  5 28  1  0  0  0  0
  6 20  2  0  0  0  0
  7 28  2  0  0  0  0
  8  9  1  0  0  0  0
  8 13  1  0  0  0  0
  8 14  1  0  0  0  0
  9 16  1  0  0  0  0
  9 30  1  0  0  0  0
 10 11  1  0  0  0  0
 10 12  1  0  0  0  0
 10 17  1  0  0  0  0
 10 31  1  0  0  0  0
 11 15  1  0  0  0  0
 11 32  1  0  0  0  0
 12 18  1  0  0  0  0
 12 33  1  0  0  0  0
 14 34  1  0  0  0  0
 14 35  1  0  0  0  0
 14 36  1  0  0  0  0
 15 19  1  0  0  0  0
 15 37  1  0  0  0  0
 15 38  1  0  0  0  0
 16 39  1  0  0  0  0
 16 40  1  0  0  0  0
 16 41  1  0  0  0  0
 17 20  1  0  0  0  0
 17 25  2  0  0  0  0
 18 21  2  0  0  0  0
 18 42  1  0  0  0  0
 19 24  2  0  0  0  0
 19 26  1  0  0  0  0
 21 22  1  0  0  0  0
 21 27  1  0  0  0  0
 22 23  1  0  0  0  0
 22 43  1  0  0  0  0
 23 24  1  0  0  0  0
 23 44  1  0  0  0  0
 23 45  1  0  0  0  0
 24 46  1  0  0  0  0
 25 47  1  0  0  0  0
 25 48  1  0  0  0  0
 26 49  1  0  0  0  0
 26 50  1  0  0  0  0
 26 51  1  0  0  0  0
 27 52  1  0  0  0  0
 27 53  1  0  0  0  0
 27 54  1  0  0  0  0
 28 29  1  0  0  0  0
 29 55  1  0  0  0  0
 29 56  1  0  0  0  0
 29 57  1  0  0  0  0
M  END
> <PUBCHEM_COMPOUND_CID>
5281507

> <PUBCHEM_CONFORMER_RMSD>
0.8

> <PUBCHEM_CONFORMER_DIVERSEORDER>
3
80
24
34
26
97
36
107
78
62
95
18
57
27
81
21
72
110
29
82
98
9
50
41
84
37
70
22
99
75
101
54
104
42
11
35
5
39
92
4
100
83
23
49
2
89
102
68
19
73
86
8
67
60
94
63
91
87
10
85
76
31
59
105
77
64
1
44
46
106
38
47
7
71
109
51
48
90
53
93
52
43
108
12
103
30
6
33
16
58
17
79
65
32
66
96
13
69
14
74
28
20
56
45
55
25
61
88
15
40

> <PUBCHEM_MMFF94_PARTIAL_CHARGES>
34
1 -0.3
10 0.14
11 0.28
12 0.42
13 0.72
14 0.09
15 0.14
16 0.09
17 -0.12
18 -0.29
19 -0.28
2 -0.43
20 0.71
21 -0.28
22 0.42
23 0.14
24 -0.29
25 -0.3
26 0.14
27 0.14
28 0.66
29 0.06
3 -0.43
30 0.1
4 -0.57
42 0.15
46 0.15
47 0.15
48 0.15
5 -0.43
6 -0.57
7 -0.57
8 0.05
9 -0.05

> <PUBCHEM_EFFECTIVE_ROTOR_COUNT>
6.6

> <PUBCHEM_PHARMACOPHORE_FEATURES>
5
1 1 acceptor
1 4 acceptor
1 6 acceptor
1 7 acceptor
5 3 10 12 17 20 rings

> <PUBCHEM_HEAVY_ATOM_COUNT>
29

> <PUBCHEM_ATOM_DEF_STEREO_COUNT>
6

> <PUBCHEM_ATOM_UDEF_STEREO_COUNT>
0

> <PUBCHEM_BOND_DEF_STEREO_COUNT>
2

> <PUBCHEM_BOND_UDEF_STEREO_COUNT>
0

> <PUBCHEM_ISOTOPIC_ATOM_COUNT>
0

> <PUBCHEM_COMPONENT_COUNT>
1

> <PUBCHEM_CACTVS_TAUTO_COUNT>
1

> <PUBCHEM_CONFORMER_ID>
005096E300000003

> <PUBCHEM_MMFF94_ENERGY>
77.4629

> <PUBCHEM_FEATURE_SELFOVERLAP>
25.374

> <PUBCHEM_SHAPE_FINGERPRINT>
10165383 225 17609452268249669448
10871710 139 17834081205298514028
11578080 2 17894917313150364336
11640471 11 18058749007505874241
12156800 1 18117866333259198493
12788726 201 18270970033651047643
13149001 5 17095813225348692658
13583140 156 17202759440285899681
13681431 1 17396443619003193507
13965767 371 17621636072851465224
15664445 248 17902235507308735971
17492 54 18410853240395344629
1813 80 17608648306428277671
20600515 1 17538010160352963250
20691752 17 17753346278500730202
21285901 2 17243326849463316567
21756936 100 17559084646384423948
21860390 5 17053316164743237797
22889148 1 17822280275898866766
22907989 373 18188757380051656325
229495 10 17976779269252781802
23419403 2 16083373976259904331
238 59 17755022230779393289
3052486 1 18118996692058915095
35225 105 17844782889436595029
469060 322 17975394842315791098
81228 2 18116175306335500667

> <PUBCHEM_SHAPE_MULTIPOLES>
555.72
5.76
4.24
3.07
1.91
1.58
0.46
1.71
-2.47
-3.02
-0.87
0.79
-0.52
-2.49

> <PUBCHEM_SHAPE_SELFOVERLAP>
1162.997

> <PUBCHEM_SHAPE_VOLUME>
312.8

> <PUBCHEM_COORDINATE_TYPE>
2
5
10

$$$$

