5281097
  -OEChem-07051212542D

 28 28  0     0  0  0  0  0  0999 V2000
    3.4030   -0.4050    0.0000 O   0  0  0  0  0  0  0  0  0  0  0  0
    5.1350    2.5950    0.0000 O   0  0  0  0  0  0  0  0  0  0  0  0
    6.8671    3.5950    0.0000 O   0  0  0  0  0  0  0  0  0  0  0  0
    7.7331    2.0950    0.0000 O   0  0  0  0  0  0  0  0  0  0  0  0
    2.5369   -1.9050    0.0000 N   0  0  0  0  0  0  0  0  0  0  0  0
    4.2690   -1.9050    0.0000 C   0  0  0  0  0  0  0  0  0  0  0  0
    3.4030   -2.4050    0.0000 C   0  0  0  0  0  0  0  0  0  0  0  0
    5.1350   -2.4050    0.0000 C   0  0  0  0  0  0  0  0  0  0  0  0
    4.2690   -0.9050    0.0000 C   0  0  0  0  0  0  0  0  0  0  0  0
    3.4030   -3.4050    0.0000 C   0  0  0  0  0  0  0  0  0  0  0  0
    5.1350   -3.4050    0.0000 C   0  0  0  0  0  0  0  0  0  0  0  0
    4.2690   -3.9050    0.0000 C   0  0  0  0  0  0  0  0  0  0  0  0
    5.1350   -0.4050    0.0000 C   0  0  0  0  0  0  0  0  0  0  0  0
    5.1350    0.5950    0.0000 C   0  0  0  0  0  0  0  0  0  0  0  0
    6.0010    1.0950    0.0000 C   0  0  0  0  0  0  0  0  0  0  0  0
    6.0010    2.0950    0.0000 C   0  0  0  0  0  0  0  0  0  0  0  0
    6.8671    2.5950    0.0000 C   0  0  0  0  0  0  0  0  0  0  0  0
    5.6720   -2.0950    0.0000 H   0  0  0  0  0  0  0  0  0  0  0  0
    2.8660   -3.7150    0.0000 H   0  0  0  0  0  0  0  0  0  0  0  0
    5.6720   -3.7150    0.0000 H   0  0  0  0  0  0  0  0  0  0  0  0
    4.2690   -4.5250    0.0000 H   0  0  0  0  0  0  0  0  0  0  0  0
    5.6720   -0.7150    0.0000 H   0  0  0  0  0  0  0  0  0  0  0  0
    2.0000   -2.2150    0.0000 H   0  0  0  0  0  0  0  0  0  0  0  0
    2.5369   -1.2850    0.0000 H   0  0  0  0  0  0  0  0  0  0  0  0
    4.5981    0.9050    0.0000 H   0  0  0  0  0  0  0  0  0  0  0  0
    6.5380    0.7850    0.0000 H   0  0  0  0  0  0  0  0  0  0  0  0
    3.4030    0.2150    0.0000 H   0  0  0  0  0  0  0  0  0  0  0  0
    7.4040    3.9050    0.0000 H   0  0  0  0  0  0  0  0  0  0  0  0
  1  9  1  0  0  0  0
  1 27  1  0  0  0  0
  2 16  2  0  0  0  0
  3 17  1  0  0  0  0
  3 28  1  0  0  0  0
  4 17  2  0  0  0  0
  5  7  1  0  0  0  0
  5 23  1  0  0  0  0
  5 24  1  0  0  0  0
  6  7  1  0  0  0  0
  6  8  2  0  0  0  0
  6  9  1  0  0  0  0
  7 10  2  0  0  0  0
  8 11  1  0  0  0  0
  8 18  1  0  0  0  0
  9 13  2  0  0  0  0
 10 12  1  0  0  0  0
 10 19  1  0  0  0  0
 11 12  2  0  0  0  0
 11 20  1  0  0  0  0
 12 21  1  0  0  0  0
 13 14  1  0  0  0  0
 13 22  1  0  0  0  0
 14 15  2  0  0  0  0
 14 25  1  0  0  0  0
 15 16  1  0  0  0  0
 15 26  1  0  0  0  0
 16 17  1  0  0  0  0
M  END
> <PUBCHEM_COMPOUND_CID>
5281097

> <PUBCHEM_COMPOUND_CANONICALIZED>
1

> <PUBCHEM_CACTVS_COMPLEXITY>
360

> <PUBCHEM_CACTVS_HBOND_ACCEPTOR>
5

> <PUBCHEM_CACTVS_HBOND_DONOR>
3

> <PUBCHEM_CACTVS_ROTATABLE_BOND>
4

> <PUBCHEM_CACTVS_SUBSKEYS>
AAADccByOAAAAAAAAAAAAAAAAAAAAAAAAAAwAAAAAAAAAAABAAAAHgAQCAAADAyBmAAwyIBAAgCIAqTSSAKCAAAgIgAIiAFAbMgIJiKAkZGAcABm0AEI2YeQwCAOAAAAAAACAAAAAAAAAAQAAAAAAAAAAA==

> <PUBCHEM_IUPAC_OPENEYE_NAME>
(3E,5Z)-6-(2-aminophenyl)-6-hydroxy-2-oxo-hexa-3,5-dienoic acid

> <PUBCHEM_IUPAC_CAS_NAME>
(3E,5Z)-6-(2-aminophenyl)-6-hydroxy-2-oxohexa-3,5-dienoic acid

> <PUBCHEM_IUPAC_NAME>
(3E,5Z)-6-(2-aminophenyl)-6-hydroxy-2-oxohexa-3,5-dienoic acid

> <PUBCHEM_IUPAC_SYSTEMATIC_NAME>
(3E,5Z)-6-(2-aminophenyl)-6-oxidanyl-2-oxidanylidene-hexa-3,5-dienoic acid

> <PUBCHEM_IUPAC_TRADITIONAL_NAME>
(3E,5Z)-6-(2-aminophenyl)-6-hydroxy-2-keto-hexa-3,5-dienoic acid

> <PUBCHEM_IUPAC_INCHI>
InChI=1S/C12H11NO4/c13-9-5-2-1-4-8(9)10(14)6-3-7-11(15)12(16)17/h1-7,14H,13H2,(H,16,17)/b7-3+,10-6-

> <PUBCHEM_IUPAC_INCHIKEY>
OHOFWYOLTJXLET-JSXJEZROSA-N

> <PUBCHEM_XLOGP3_AA>
1.7

> <PUBCHEM_EXACT_MASS>
233.068808

> <PUBCHEM_MOLECULAR_FORMULA>
C12H11NO4

> <PUBCHEM_MOLECULAR_WEIGHT>
233.22004

> <PUBCHEM_OPENEYE_CAN_SMILES>
C1=CC=C(C(=C1)C(=CC=CC(=O)C(=O)O)O)N

> <PUBCHEM_OPENEYE_ISO_SMILES>
C1=CC=C(C(=C1)/C(=C/C=C/C(=O)C(=O)O)/O)N

> <PUBCHEM_CACTVS_TPSA>
101

> <PUBCHEM_MONOISOTOPIC_WEIGHT>
233.068808

> <PUBCHEM_TOTAL_CHARGE>
0

> <PUBCHEM_HEAVY_ATOM_COUNT>
17

> <PUBCHEM_ATOM_DEF_STEREO_COUNT>
0

> <PUBCHEM_ATOM_UDEF_STEREO_COUNT>
0

> <PUBCHEM_BOND_DEF_STEREO_COUNT>
2

> <PUBCHEM_BOND_UDEF_STEREO_COUNT>
0

> <PUBCHEM_ISOTOPIC_ATOM_COUNT>
0

> <PUBCHEM_COMPONENT_COUNT>
1

> <PUBCHEM_CACTVS_TAUTO_COUNT>
19

> <PUBCHEM_COORDINATE_TYPE>
1
5
255

> <PUBCHEM_BONDANNOTATIONS>
10  12  8
11  12  8
6  7  8
6  8  8
7  10  8
8  11  8

$$$$

