7180
  -OEChem-06261201523D

 29 30  0     0  0  0  0  0  0999 V2000
    0.4469    0.6660    0.0001 O   0  0  0  0  0  0  0  0  0  0  0  0
   -5.3207   -1.8160    0.0004 O   0  0  0  0  0  0  0  0  0  0  0  0
   -0.7523    2.6200    0.0001 O   0  0  0  0  0  0  0  0  0  0  0  0
    2.7913    0.4402    0.0001 C   0  0  0  0  0  0  0  0  0  0  0  0
    1.6624    1.4232    0.0001 C   0  0  0  0  0  0  0  0  0  0  0  0
   -1.9148    0.5566   -0.0002 C   0  0  0  0  0  0  0  0  0  0  0  0
    3.3137   -0.0140    1.2080 C   0  0  0  0  0  0  0  0  0  0  0  0
    3.3133   -0.0142   -1.2080 C   0  0  0  0  0  0  0  0  0  0  0  0
   -0.7213    1.3876    0.0001 C   0  0  0  0  0  0  0  0  0  0  0  0
   -3.1777    1.1490   -0.0005 C   0  0  0  0  0  0  0  0  0  0  0  0
   -1.7965   -0.8332    0.0001 C   0  0  0  0  0  0  0  0  0  0  0  0
    4.3658   -0.9298    1.2079 C   0  0  0  0  0  0  0  0  0  0  0  0
    4.3654   -0.9302   -1.2081 C   0  0  0  0  0  0  0  0  0  0  0  0
   -4.3222    0.3517   -0.0003 C   0  0  0  0  0  0  0  0  0  0  0  0
   -2.9411   -1.6306    0.0001 C   0  0  0  0  0  0  0  0  0  0  0  0
    4.8916   -1.3880   -0.0001 C   0  0  0  0  0  0  0  0  0  0  0  0
   -4.2039   -1.0382    0.0001 C   0  0  0  0  0  0  0  0  0  0  0  0
    1.7052    2.0630    0.8898 H   0  0  0  0  0  0  0  0  0  0  0  0
    1.7051    2.0630   -0.8897 H   0  0  0  0  0  0  0  0  0  0  0  0
    2.9107    0.3342    2.1552 H   0  0  0  0  0  0  0  0  0  0  0  0
    2.9101    0.3339   -2.1551 H   0  0  0  0  0  0  0  0  0  0  0  0
   -3.2932    2.2297   -0.0007 H   0  0  0  0  0  0  0  0  0  0  0  0
   -0.8321   -1.3334    0.0004 H   0  0  0  0  0  0  0  0  0  0  0  0
    4.7753   -1.2867    2.1483 H   0  0  0  0  0  0  0  0  0  0  0  0
    4.7744   -1.2874   -2.1486 H   0  0  0  0  0  0  0  0  0  0  0  0
   -5.3003    0.8254   -0.0003 H   0  0  0  0  0  0  0  0  0  0  0  0
   -2.8429   -2.7128    0.0003 H   0  0  0  0  0  0  0  0  0  0  0  0
    5.7105   -2.1014   -0.0001 H   0  0  0  0  0  0  0  0  0  0  0  0
   -6.1052   -1.2409    0.0005 H   0  0  0  0  0  0  0  0  0  0  0  0
  1  5  1  0  0  0  0
  1  9  1  0  0  0  0
  2 17  1  0  0  0  0
  2 29  1  0  0  0  0
  3  9  2  0  0  0  0
  4  5  1  0  0  0  0
  4  7  2  0  0  0  0
  4  8  1  0  0  0  0
  5 18  1  0  0  0  0
  5 19  1  0  0  0  0
  6  9  1  0  0  0  0
  6 10  2  0  0  0  0
  6 11  1  0  0  0  0
  7 12  1  0  0  0  0
  7 20  1  0  0  0  0
  8 13  2  0  0  0  0
  8 21  1  0  0  0  0
 10 14  1  0  0  0  0
 10 22  1  0  0  0  0
 11 15  2  0  0  0  0
 11 23  1  0  0  0  0
 12 16  2  0  0  0  0
 12 24  1  0  0  0  0
 13 16  1  0  0  0  0
 13 25  1  0  0  0  0
 14 17  2  0  0  0  0
 14 26  1  0  0  0  0
 15 17  1  0  0  0  0
 15 27  1  0  0  0  0
 16 28  1  0  0  0  0
M  END
> <PUBCHEM_COMPOUND_CID>
7180

> <PUBCHEM_CONFORMER_RMSD>
0.6

> <PUBCHEM_CONFORMER_DIVERSEORDER>
1
14
23
21
15
22
10
2
19
5
11
4
13
20
18
3
16
17
6
12
9
8
7

> <PUBCHEM_MMFF94_PARTIAL_CHARGES>
27
1 -0.43
10 -0.15
11 -0.15
12 -0.15
13 -0.15
14 -0.15
15 -0.15
16 -0.15
17 0.08
2 -0.53
20 0.15
21 0.15
22 0.15
23 0.15
24 0.15
25 0.15
26 0.15
27 0.15
28 0.15
29 0.45
3 -0.57
4 -0.14
5 0.42
6 0.09
7 -0.15
8 -0.15
9 0.63

> <PUBCHEM_EFFECTIVE_ROTOR_COUNT>
4

> <PUBCHEM_PHARMACOPHORE_FEATURES>
4
1 2 donor
1 3 acceptor
6 4 7 8 12 13 16 rings
6 6 10 11 14 15 17 rings

> <PUBCHEM_HEAVY_ATOM_COUNT>
17

> <PUBCHEM_ATOM_DEF_STEREO_COUNT>
0

> <PUBCHEM_ATOM_UDEF_STEREO_COUNT>
0

> <PUBCHEM_BOND_DEF_STEREO_COUNT>
0

> <PUBCHEM_BOND_UDEF_STEREO_COUNT>
0

> <PUBCHEM_ISOTOPIC_ATOM_COUNT>
0

> <PUBCHEM_COMPONENT_COUNT>
1

> <PUBCHEM_CACTVS_TAUTO_COUNT>
3

> <PUBCHEM_CONFORMER_ID>
00001C0C00000001

> <PUBCHEM_MMFF94_ENERGY>
45.7704

> <PUBCHEM_FEATURE_SELFOVERLAP>
20.297

> <PUBCHEM_SHAPE_FINGERPRINT>
10378564 45 12103300334171542266
11046707 91 18412544327305652865
11128504 68 17132108039920410710
11458722 379 18343581858505410211
11543360 7 15554444059426548377
12032990 46 18408882915173143701
12236239 1 17846497071710198926
12363563 72 18408879633617572044
12403814 3 5256401674161344067
12596602 18 14057008208459857151
13167823 11 18272369776002916090
13675066 3 17603589642164451800
13862211 1 18409452445502012567
1420 369 18408885126727905763
14252887 29 17022900190311484982
14386348 63 18040433321831339374
14528608 73 11167944632654825747
14576447 43 18060418041220477626
15196674 1 18410855451564626949
15342168 16 7781520330035768393
15342816 4 18272649056689149692
15352361 1 18410011035298471030
15880784 105 16515412858300215238
15885798 251 18409448072534065841
16752209 62 18130234851228758681
17804303 29 18408322177154286105
17834072 32 9295285053730316850
1798214 20 17989209243809062290
1813 80 18059853956572926804
18186145 218 13254797953523896980
18915474 69 18131345302554832470
19141452 34 17967253066360722287
193927 3 18339914948592982131
200 152 16988842817404006140
20261772 1 17894916209006386470
20281475 54 18410006645884326352
20374829 77 18411702097140524557
20403669 9 18408319977841029703
20645477 70 18340486664658927148
21267235 1 18412256225542668147
22289505 5 12895075124306613990
22646028 1 18202003239575501330
22646028 28 18342458149237252922
23402539 116 18260555545633613061
23402655 69 12679465287318059758
23403322 49 18411136943990284191
23559900 14 18408890620244603272
239999 70 18334011684339417958
3004659 81 18202562882583511494
314173 41 18341045212086182170
316301 35 18190180268980023014
351380 3 18344144795478919090
465052 167 18337102380632598639
4921388 177 15482376574263580787
5104073 3 18334571301034429433
5281201 14 13973967649060193322
5352402 22 17167855387743095390
559249 180 18271814578655511171
573450 72 18343024436100837905
5924683 9 16588600703658773791
960060 61 17346596365872791878
9709674 26 18268429023339468243

> <PUBCHEM_SHAPE_MULTIPOLES>
332.24
11.61
1.93
0.96
0.12
0.39
0
-6.56
0
-1.26
0
1.39
-0.15
0

> <PUBCHEM_SHAPE_SELFOVERLAP>
713.234

> <PUBCHEM_SHAPE_VOLUME>
183.3

> <PUBCHEM_COORDINATE_TYPE>
2
5
10

$$$$

