124
  -OEChem-07051212483D

 17 16  0     1  0  0  0  0  0999 V2000
   -2.1417    1.0315    0.7136 O   0  0  0  0  0  0  0  0  0  0  0  0
    0.4877    1.4813   -0.3153 O   0  0  0  0  0  0  0  0  0  0  0  0
    2.8465    0.6297   -0.0278 O   0  0  0  0  0  0  0  0  0  0  0  0
    2.0708   -1.5085    0.2729 O   0  0  0  0  0  0  0  0  0  0  0  0
   -1.9643    0.0348   -0.2914 C   0  0  1  0  0  0  0  0  0  0  0  0
   -0.6279   -0.6785   -0.0789 C   0  0  0  0  0  0  0  0  0  0  0  0
   -3.1299   -0.9377   -0.1802 C   0  0  0  0  0  0  0  0  0  0  0  0
    0.5468    0.2738   -0.1374 C   0  0  0  0  0  0  0  0  0  0  0  0
    1.9120   -0.3265    0.0445 C   0  0  0  0  0  0  0  0  0  0  0  0
   -1.9763    0.5340   -1.2668 H   0  0  0  0  0  0  0  0  0  0  0  0
   -0.6116   -1.1459    0.9129 H   0  0  0  0  0  0  0  0  0  0  0  0
   -0.4890   -1.4494   -0.8443 H   0  0  0  0  0  0  0  0  0  0  0  0
   -3.1708   -1.3917    0.8161 H   0  0  0  0  0  0  0  0  0  0  0  0
   -3.0541   -1.7344   -0.9265 H   0  0  0  0  0  0  0  0  0  0  0  0
   -4.0816   -0.4156   -0.3267 H   0  0  0  0  0  0  0  0  0  0  0  0
   -2.9816    1.4865    0.5315 H   0  0  0  0  0  0  0  0  0  0  0  0
    3.7512    0.2769    0.1111 H   0  0  0  0  0  0  0  0  0  0  0  0
  1  5  1  0  0  0  0
  1 16  1  0  0  0  0
  2  8  2  0  0  0  0
  3  9  1  0  0  0  0
  3 17  1  0  0  0  0
  4  9  2  0  0  0  0
  5  6  1  0  0  0  0
  5  7  1  0  0  0  0
  5 10  1  0  0  0  0
  6  8  1  0  0  0  0
  6 11  1  0  0  0  0
  6 12  1  0  0  0  0
  7 13  1  0  0  0  0
  7 14  1  0  0  0  0
  7 15  1  0  0  0  0
  8  9  1  0  0  0  0
M  END
> <PUBCHEM_COMPOUND_CID>
124

> <PUBCHEM_CONFORMER_RMSD>
0.6

> <PUBCHEM_CONFORMER_DIVERSEORDER>
1
11
13
15
6
3
14
4
8
9
7
12
5
10
2

> <PUBCHEM_MMFF94_PARTIAL_CHARGES>
10
1 -0.68
16 0.4
17 0.5
2 -0.57
3 -0.65
4 -0.57
5 0.28
6 0.06
8 0.51
9 0.72

> <PUBCHEM_EFFECTIVE_ROTOR_COUNT>
3

> <PUBCHEM_PHARMACOPHORE_FEATURES>
6
1 1 acceptor
1 1 donor
1 2 acceptor
1 3 acceptor
1 4 acceptor
3 3 4 9 anion

> <PUBCHEM_HEAVY_ATOM_COUNT>
9

> <PUBCHEM_ATOM_DEF_STEREO_COUNT>
0

> <PUBCHEM_ATOM_UDEF_STEREO_COUNT>
1

> <PUBCHEM_BOND_DEF_STEREO_COUNT>
0

> <PUBCHEM_BOND_UDEF_STEREO_COUNT>
0

> <PUBCHEM_ISOTOPIC_ATOM_COUNT>
0

> <PUBCHEM_COMPONENT_COUNT>
1

> <PUBCHEM_CACTVS_TAUTO_COUNT>
2

> <PUBCHEM_CONFORMER_ID>
0000007C00000001

> <PUBCHEM_MMFF94_ENERGY>
10.482

> <PUBCHEM_FEATURE_SELFOVERLAP>
30.518

> <PUBCHEM_SHAPE_FINGERPRINT>
12932741 1 15482383158474851085
12932764 1 18130784624206561511
14325111 11 18410012143537034031
14390081 3 18114184107603928832
23552423 10 18200310047376960486
29004967 10 17917989486179229752
3248919 1 14764347171285858183
5084963 1 18342742892694579853
5460574 1 9295294945081924791

> <PUBCHEM_SHAPE_MULTIPOLES>
161.74
4.42
1.3
0.65
0.79
0.01
-0.01
-0.73
-0.1
-0.16
-0.06
0.14
0.04
-0.31

> <PUBCHEM_SHAPE_SELFOVERLAP>
308.057

> <PUBCHEM_SHAPE_VOLUME>
98.9

> <PUBCHEM_COORDINATE_TYPE>
2
5
10

$$$$

