8704
  -OEChem-06261203013D

 20 20  0     0  0  0  0  0  0999 V2000
    0.0005    1.9797   -0.0001 O   0  0  0  0  0  0  0  0  0  0  0  0
    3.3203   -0.1374    0.4955 O   0  0  0  0  0  0  0  0  0  0  0  0
   -3.3192   -0.1380   -0.4973 O   0  0  0  0  0  0  0  0  0  0  0  0
    1.1040   -0.0871   -0.2210 N   0  0  0  0  0  0  0  0  0  0  0  0
   -1.1041   -0.0863    0.2227 N   0  0  0  0  0  0  0  0  0  0  0  0
    0.7349   -1.4870   -0.1951 C   0  0  0  0  0  0  0  0  0  0  0  0
   -0.7361   -1.4866    0.1960 C   0  0  0  0  0  0  0  0  0  0  0  0
    0.0002    0.7552    0.0009 C   0  0  0  0  0  0  0  0  0  0  0  0
    2.4537    0.3431   -0.5139 C   0  0  0  0  0  0  0  0  0  0  0  0
   -2.4542    0.3446    0.5124 C   0  0  0  0  0  0  0  0  0  0  0  0
    1.3504   -2.0280    0.5298 H   0  0  0  0  0  0  0  0  0  0  0  0
    0.8873   -1.9113   -1.1925 H   0  0  0  0  0  0  0  0  0  0  0  0
   -1.3518   -2.0269   -0.5292 H   0  0  0  0  0  0  0  0  0  0  0  0
   -0.8891   -1.9114    1.1932 H   0  0  0  0  0  0  0  0  0  0  0  0
    2.5015    1.4352   -0.5428 H   0  0  0  0  0  0  0  0  0  0  0  0
    2.7509   -0.0681   -1.4831 H   0  0  0  0  0  0  0  0  0  0  0  0
   -2.5019    1.4367    0.5390 H   0  0  0  0  0  0  0  0  0  0  0  0
   -2.7529   -0.0647    1.4819 H   0  0  0  0  0  0  0  0  0  0  0  0
    4.2182    0.1559    0.2651 H   0  0  0  0  0  0  0  0  0  0  0  0
   -4.2175    0.1555   -0.2688 H   0  0  0  0  0  0  0  0  0  0  0  0
  1  8  2  0  0  0  0
  2  9  1  0  0  0  0
  2 19  1  0  0  0  0
  3 10  1  0  0  0  0
  3 20  1  0  0  0  0
  4  6  1  0  0  0  0
  4  8  1  0  0  0  0
  4  9  1  0  0  0  0
  5  7  1  0  0  0  0
  5  8  1  0  0  0  0
  5 10  1  0  0  0  0
  6  7  1  0  0  0  0
  6 11  1  0  0  0  0
  6 12  1  0  0  0  0
  7 13  1  0  0  0  0
  7 14  1  0  0  0  0
  9 15  1  0  0  0  0
  9 16  1  0  0  0  0
 10 17  1  0  0  0  0
 10 18  1  0  0  0  0
M  END
> <PUBCHEM_COMPOUND_CID>
8704

> <PUBCHEM_CONFORMER_RMSD>
0.6

> <PUBCHEM_CONFORMER_DIVERSEORDER>
1
4
3
2

> <PUBCHEM_MMFF94_PARTIAL_CHARGES>
12
1 -0.57
10 0.58
19 0.4
2 -0.68
20 0.4
3 -0.68
4 -0.66
5 -0.66
6 0.3
7 0.3
8 0.69
9 0.58

> <PUBCHEM_EFFECTIVE_ROTOR_COUNT>
2.8

> <PUBCHEM_PHARMACOPHORE_FEATURES>
6
1 1 acceptor
1 2 acceptor
1 2 donor
1 3 acceptor
1 3 donor
5 4 5 6 7 8 rings

> <PUBCHEM_HEAVY_ATOM_COUNT>
10

> <PUBCHEM_ATOM_DEF_STEREO_COUNT>
0

> <PUBCHEM_ATOM_UDEF_STEREO_COUNT>
0

> <PUBCHEM_BOND_DEF_STEREO_COUNT>
0

> <PUBCHEM_BOND_UDEF_STEREO_COUNT>
0

> <PUBCHEM_ISOTOPIC_ATOM_COUNT>
0

> <PUBCHEM_COMPONENT_COUNT>
1

> <PUBCHEM_CACTVS_TAUTO_COUNT>
1

> <PUBCHEM_CONFORMER_ID>
0000220000000001

> <PUBCHEM_MMFF94_ENERGY>
16.6409

> <PUBCHEM_FEATURE_SELFOVERLAP>
30.446

> <PUBCHEM_SHAPE_FINGERPRINT>
10219947 1 18411979161022304905
14325111 11 18410290315446465218
16945 1 18410843369795230055
193761 8 17690841589239308802
21040471 1 18410564085310025054
23235685 24 18410575088958065703
23402655 69 18265911331540073517
23552423 10 18054215802721783703
2748010 2 18049716326225873252
29004967 10 18341880918385632289
5084963 1 18116143544957134282

> <PUBCHEM_SHAPE_MULTIPOLES>
178.23
4.12
1.5
0.68
0
0.03
0
0.19
0
0
0
0
-0.02
-0.08

> <PUBCHEM_SHAPE_SELFOVERLAP>
349.987

> <PUBCHEM_SHAPE_VOLUME>
109

> <PUBCHEM_COORDINATE_TYPE>
2
5
10

$$$$

