104810
  -OEChem-07051213042D

  1  0  0     0  0  0  0  0  0999 V2000
    2.0000    0.0000    0.0000 Ba  0  2  0  0  0  0  0  0  0  0  0  0
M  CHG  1   1   2
M  END
> <PUBCHEM_COMPOUND_CID>
104810

> <PUBCHEM_COMPOUND_CANONICALIZED>
1

> <PUBCHEM_CACTVS_COMPLEXITY>
0

> <PUBCHEM_CACTVS_HBOND_ACCEPTOR>
0

> <PUBCHEM_CACTVS_HBOND_DONOR>
0

> <PUBCHEM_CACTVS_ROTATABLE_BOND>
0

> <PUBCHEM_CACTVS_SUBSKEYS>
AAADcQAAAAAAAAAAAAAEAAAAAAAAAAAAAAAAAAAAAAAAAAAAAAAAAAAAAAAAAAAAAAAAAAAAAAAAAAAAAAAAAAAAAAAAAAAAAAAAAAAAAAAAAAAAAAAAAAAAAAAAAAAAAAAAAAAAAAAAAAAAAAAAAAAAAA==

> <PUBCHEM_IUPAC_OPENEYE_NAME>
barium(2+)

> <PUBCHEM_IUPAC_CAS_NAME>
barium(2+)

> <PUBCHEM_IUPAC_NAME>
barium(2+)

> <PUBCHEM_IUPAC_SYSTEMATIC_NAME>
barium(2+)

> <PUBCHEM_IUPAC_TRADITIONAL_NAME>
barium(2+)

> <PUBCHEM_IUPAC_INCHI>
InChI=1S/Ba/q+2

> <PUBCHEM_IUPAC_INCHIKEY>
XDFCIPNJCBUZJN-UHFFFAOYSA-N

> <PUBCHEM_EXACT_MASS>
137.905247

> <PUBCHEM_MOLECULAR_FORMULA>
Ba+2

> <PUBCHEM_MOLECULAR_WEIGHT>
137.327

> <PUBCHEM_OPENEYE_CAN_SMILES>
[Ba+2]

> <PUBCHEM_OPENEYE_ISO_SMILES>
[Ba+2]

> <PUBCHEM_CACTVS_TPSA>
0

> <PUBCHEM_MONOISOTOPIC_WEIGHT>
137.905247

> <PUBCHEM_TOTAL_CHARGE>
2

> <PUBCHEM_HEAVY_ATOM_COUNT>
1

> <PUBCHEM_ATOM_DEF_STEREO_COUNT>
0

> <PUBCHEM_ATOM_UDEF_STEREO_COUNT>
0

> <PUBCHEM_BOND_DEF_STEREO_COUNT>
0

> <PUBCHEM_BOND_UDEF_STEREO_COUNT>
0

> <PUBCHEM_ISOTOPIC_ATOM_COUNT>
0

> <PUBCHEM_COMPONENT_COUNT>
1

> <PUBCHEM_CACTVS_TAUTO_COUNT>
1

> <PUBCHEM_COORDINATE_TYPE>
1
5
255

$$$$

