5280528
  -OEChem-07051212472D

 39 38  0     1  0  0  0  0  0999 V2000
    8.0622   -1.4400    0.0000 P   0  0  3  0  0  0  0  0  0  0  0  0
    9.7942   -1.4400    0.0000 P   0  0  0  0  0  0  0  0  0  0  0  0
    7.1962   -1.9400    0.0000 O   0  0  0  0  0  0  0  0  0  0  0  0
    8.9282   -0.9400    0.0000 O   0  0  0  0  0  0  0  0  0  0  0  0
    7.5622   -0.5740    0.0000 O   0  0  0  0  0  0  0  0  0  0  0  0
    8.5622   -2.3060    0.0000 O   0  0  0  0  0  0  0  0  0  0  0  0
   10.6603   -1.9400    0.0000 O   0  0  0  0  0  0  0  0  0  0  0  0
   10.2942   -0.5740    0.0000 O   0  0  0  0  0  0  0  0  0  0  0  0
    9.2942   -2.3060    0.0000 O   0  0  0  0  0  0  0  0  0  0  0  0
    4.5981   -0.4400    0.0000 C   0  0  0  0  0  0  0  0  0  0  0  0
    3.7320    0.0600    0.0000 C   0  0  0  0  0  0  0  0  0  0  0  0
    4.5981   -1.4400    0.0000 C   0  0  0  0  0  0  0  0  0  0  0  0
    3.7320    1.0600    0.0000 C   0  0  0  0  0  0  0  0  0  0  0  0
    5.4641   -1.9400    0.0000 C   0  0  0  0  0  0  0  0  0  0  0  0
    3.7320   -1.9400    0.0000 C   0  0  0  0  0  0  0  0  0  0  0  0
    2.8660    1.5600    0.0000 C   0  0  0  0  0  0  0  0  0  0  0  0
    6.3301   -1.4400    0.0000 C   0  0  0  0  0  0  0  0  0  0  0  0
    2.8660    2.5600    0.0000 C   0  0  0  0  0  0  0  0  0  0  0  0
    2.0000    1.0600    0.0000 C   0  0  0  0  0  0  0  0  0  0  0  0
    5.2087   -0.5477    0.0000 H   0  0  0  0  0  0  0  0  0  0  0  0
    4.8101    0.1426    0.0000 H   0  0  0  0  0  0  0  0  0  0  0  0
    3.1215    0.1677    0.0000 H   0  0  0  0  0  0  0  0  0  0  0  0
    3.5200   -0.5226    0.0000 H   0  0  0  0  0  0  0  0  0  0  0  0
    4.2690    1.3700    0.0000 H   0  0  0  0  0  0  0  0  0  0  0  0
    5.4641   -2.5600    0.0000 H   0  0  0  0  0  0  0  0  0  0  0  0
    3.4220   -1.4031    0.0000 H   0  0  0  0  0  0  0  0  0  0  0  0
    3.1951   -2.2500    0.0000 H   0  0  0  0  0  0  0  0  0  0  0  0
    4.0420   -2.4769    0.0000 H   0  0  0  0  0  0  0  0  0  0  0  0
    6.7287   -0.9651    0.0000 H   0  0  0  0  0  0  0  0  0  0  0  0
    5.9316   -0.9651    0.0000 H   0  0  0  0  0  0  0  0  0  0  0  0
    3.4860    2.5600    0.0000 H   0  0  0  0  0  0  0  0  0  0  0  0
    2.8660    3.1800    0.0000 H   0  0  0  0  0  0  0  0  0  0  0  0
    2.2460    2.5600    0.0000 H   0  0  0  0  0  0  0  0  0  0  0  0
    1.6900    1.5969    0.0000 H   0  0  0  0  0  0  0  0  0  0  0  0
    1.4631    0.7500    0.0000 H   0  0  0  0  0  0  0  0  0  0  0  0
    2.3100    0.5231    0.0000 H   0  0  0  0  0  0  0  0  0  0  0  0
    7.8722   -0.0370    0.0000 H   0  0  0  0  0  0  0  0  0  0  0  0
   11.1972   -1.6300    0.0000 H   0  0  0  0  0  0  0  0  0  0  0  0
    9.9842   -0.0370    0.0000 H   0  0  0  0  0  0  0  0  0  0  0  0
  1  3  1  0  0  0  0
  1  4  1  0  0  0  0
  1  5  1  0  0  0  0
  1  6  2  0  0  0  0
  2  4  1  0  0  0  0
  2  7  1  0  0  0  0
  2  8  1  0  0  0  0
  2  9  2  0  0  0  0
  3 17  1  0  0  0  0
  5 37  1  0  0  0  0
  7 38  1  0  0  0  0
  8 39  1  0  0  0  0
 10 11  1  0  0  0  0
 10 12  1  0  0  0  0
 10 20  1  0  0  0  0
 10 21  1  0  0  0  0
 11 13  1  0  0  0  0
 11 22  1  0  0  0  0
 11 23  1  0  0  0  0
 12 14  2  0  0  0  0
 12 15  1  0  0  0  0
 13 16  2  0  0  0  0
 13 24  1  0  0  0  0
 14 17  1  0  0  0  0
 14 25  1  0  0  0  0
 15 26  1  0  0  0  0
 15 27  1  0  0  0  0
 15 28  1  0  0  0  0
 16 18  1  0  0  0  0
 16 19  1  0  0  0  0
 17 29  1  0  0  0  0
 17 30  1  0  0  0  0
 18 31  1  0  0  0  0
 18 32  1  0  0  0  0
 18 33  1  0  0  0  0
 19 34  1  0  0  0  0
 19 35  1  0  0  0  0
 19 36  1  0  0  0  0
M  END
> <PUBCHEM_COMPOUND_CID>
5280528

> <PUBCHEM_COMPOUND_CANONICALIZED>
1

> <PUBCHEM_CACTVS_COMPLEXITY>
431

> <PUBCHEM_CACTVS_HBOND_ACCEPTOR>
7

> <PUBCHEM_CACTVS_HBOND_DONOR>
3

> <PUBCHEM_CACTVS_ROTATABLE_BOND>
8

> <PUBCHEM_CACTVS_SUBSKEYS>
AAADceBwOAMAAAAAAAAAAAAAAAAAAAAAAAAAAAAAAAAAAAAAAAAAGgAACCAADACggAICAAAAARCAQiBCAIAAAAAgAAAACAAAAAgABAIAAQAAEAAAgAAIAAIAAAAAAAAAAAAAAAAAAAAAAAAAAAAAAAAAAA==

> <PUBCHEM_IUPAC_OPENEYE_NAME>
[(2Z)-3,7-dimethylocta-2,6-dienyl] phosphono hydrogen phosphate

> <PUBCHEM_IUPAC_CAS_NAME>
[(2Z)-3,7-dimethylocta-2,6-dienyl] phosphono hydrogen phosphate

> <PUBCHEM_IUPAC_NAME>
[(2Z)-3,7-dimethylocta-2,6-dienyl] phosphono hydrogen phosphate

> <PUBCHEM_IUPAC_SYSTEMATIC_NAME>
[(2Z)-3,7-dimethylocta-2,6-dienyl] phosphono hydrogen phosphate

> <PUBCHEM_IUPAC_TRADITIONAL_NAME>
[(2Z)-3,7-dimethylocta-2,6-dienyl] phosphono hydrogen phosphate

> <PUBCHEM_IUPAC_INCHI>
InChI=1S/C10H20O7P2/c1-9(2)5-4-6-10(3)7-8-16-19(14,15)17-18(11,12)13/h5,7H,4,6,8H2,1-3H3,(H,14,15)(H2,11,12,13)/b10-7-

> <PUBCHEM_IUPAC_INCHIKEY>
GVVPGTZRZFNKDS-YFHOEESVSA-N

> <PUBCHEM_XLOGP3_AA>
0.7

> <PUBCHEM_EXACT_MASS>
314.068426

> <PUBCHEM_MOLECULAR_FORMULA>
C10H20O7P2

> <PUBCHEM_MOLECULAR_WEIGHT>
314.209124

> <PUBCHEM_OPENEYE_CAN_SMILES>
CC(=CCCC(=CCOP(=O)(O)OP(=O)(O)O)C)C

> <PUBCHEM_OPENEYE_ISO_SMILES>
CC(=CCC/C(=C\COP(=O)(O)OP(=O)(O)O)/C)C

> <PUBCHEM_CACTVS_TPSA>
113

> <PUBCHEM_MONOISOTOPIC_WEIGHT>
314.068426

> <PUBCHEM_TOTAL_CHARGE>
0

> <PUBCHEM_HEAVY_ATOM_COUNT>
19

> <PUBCHEM_ATOM_DEF_STEREO_COUNT>
0

> <PUBCHEM_ATOM_UDEF_STEREO_COUNT>
0

> <PUBCHEM_BOND_DEF_STEREO_COUNT>
1

> <PUBCHEM_BOND_UDEF_STEREO_COUNT>
0

> <PUBCHEM_ISOTOPIC_ATOM_COUNT>
0

> <PUBCHEM_COMPONENT_COUNT>
1

> <PUBCHEM_CACTVS_TAUTO_COUNT>
1

> <PUBCHEM_COORDINATE_TYPE>
1
5
255

$$$$

