14030
  -OEChem-06241222413D

 33 32  0     1  0  0  0  0  0999 V2000
   -0.2054    1.2553    0.2201 P   0  0  2  0  0  0  0  0  0  0  0  0
    1.3565   -1.1657    0.9012 P   0  0  0  0  0  0  0  0  0  0  0  0
   -1.3452    0.4071   -0.5594 O   0  0  0  0  0  0  0  0  0  0  0  0
    0.4810    0.1628    1.1970 O   0  0  0  0  0  0  0  0  0  0  0  0
    0.2555   -1.9855    0.0378 O   0  0  0  0  0  0  0  0  0  0  0  0
    2.2270   -0.5889   -0.3400 O   0  0  0  0  0  0  0  0  0  0  0  0
   -1.0524    2.2147    1.2137 O   0  0  0  0  0  0  0  0  0  0  0  0
    0.7507    1.9889   -0.6772 O   0  0  0  0  0  0  0  0  0  0  0  0
   -2.2338    1.1014   -1.4177 C   0  0  0  0  0  0  0  0  0  0  0  0
   -0.7399   -2.6700    0.7851 C   0  0  0  0  0  0  0  0  0  0  0  0
    3.3432    0.2223   -0.0010 C   0  0  0  0  0  0  0  0  0  0  0  0
   -3.2020    0.1117   -2.0300 C   0  0  0  0  0  0  0  0  0  0  0  0
   -1.6768   -3.3758   -0.1719 C   0  0  0  0  0  0  0  0  0  0  0  0
    4.0329    0.6685   -1.2726 C   0  0  0  0  0  0  0  0  0  0  0  0
   -1.9915    1.6532    2.1147 C   0  0  0  0  0  0  0  0  0  0  0  0
   -2.7801    1.8595   -0.8489 H   0  0  0  0  0  0  0  0  0  0  0  0
   -1.6574    1.5998   -2.2034 H   0  0  0  0  0  0  0  0  0  0  0  0
   -0.2763   -3.4130    1.4464 H   0  0  0  0  0  0  0  0  0  0  0  0
   -1.3189   -1.9641    1.3942 H   0  0  0  0  0  0  0  0  0  0  0  0
    3.0294    1.1057    0.5686 H   0  0  0  0  0  0  0  0  0  0  0  0
    4.0552   -0.3511    0.6066 H   0  0  0  0  0  0  0  0  0  0  0  0
   -3.9042    0.6154   -2.7001 H   0  0  0  0  0  0  0  0  0  0  0  0
   -2.6627   -0.6556   -2.5952 H   0  0  0  0  0  0  0  0  0  0  0  0
   -3.7680   -0.4067   -1.2491 H   0  0  0  0  0  0  0  0  0  0  0  0
   -2.4582   -3.9145    0.3714 H   0  0  0  0  0  0  0  0  0  0  0  0
   -2.1493   -2.6580   -0.8498 H   0  0  0  0  0  0  0  0  0  0  0  0
   -1.1262   -4.0873   -0.7962 H   0  0  0  0  0  0  0  0  0  0  0  0
    4.9016    1.2935   -1.0477 H   0  0  0  0  0  0  0  0  0  0  0  0
    4.3629   -0.1973   -1.8562 H   0  0  0  0  0  0  0  0  0  0  0  0
    3.3450    1.2360   -1.9079 H   0  0  0  0  0  0  0  0  0  0  0  0
   -2.4871    2.4652    2.6524 H   0  0  0  0  0  0  0  0  0  0  0  0
   -2.7452    1.0749    1.5753 H   0  0  0  0  0  0  0  0  0  0  0  0
   -1.4787    1.0123    2.8363 H   0  0  0  0  0  0  0  0  0  0  0  0
  1  3  1  0  0  0  0
  1  4  1  0  0  0  0
  1  7  1  0  0  0  0
  1  8  2  0  0  0  0
  2  4  1  0  0  0  0
  2  5  1  0  0  0  0
  2  6  1  0  0  0  0
  3  9  1  0  0  0  0
  5 10  1  0  0  0  0
  6 11  1  0  0  0  0
  7 15  1  0  0  0  0
  9 12  1  0  0  0  0
  9 16  1  0  0  0  0
  9 17  1  0  0  0  0
 10 13  1  0  0  0  0
 10 18  1  0  0  0  0
 10 19  1  0  0  0  0
 11 14  1  0  0  0  0
 11 20  1  0  0  0  0
 11 21  1  0  0  0  0
 12 22  1  0  0  0  0
 12 23  1  0  0  0  0
 12 24  1  0  0  0  0
 13 25  1  0  0  0  0
 13 26  1  0  0  0  0
 13 27  1  0  0  0  0
 14 28  1  0  0  0  0
 14 29  1  0  0  0  0
 14 30  1  0  0  0  0
 15 31  1  0  0  0  0
 15 32  1  0  0  0  0
 15 33  1  0  0  0  0
M  END
> <PUBCHEM_COMPOUND_CID>
14030

> <PUBCHEM_CONFORMER_RMSD>
0.8

> <PUBCHEM_CONFORMER_DIVERSEORDER>
1
154
128
77
88
50
179
186
146
188
39
136
70
103
49
47
168
81
160
129
15
94
22
63
140
172
187
180
170
59
116
190
45
57
14
158
105
176
37
191
161
150
101
58
169
155
23
44
194
64
35
114
62
139
151
167
98
89
125
123
132
29
21
175
142
113
46
138
173
20
106
60
164
195
27
40
2
53
52
18
130
111
85
141
147
19
16
65
108
12
144
156
109
92
68
115
78
102
8
74
120
112
153
159
61
4
118
17
84
75
66
91
145
80
10
79
124
93
56
26
33
182
117
148
183
9
11
25
126
122
100
3
178
51
127
104
121
72
24
185
181
6
193
34
36
165
133
43
7
5
137
107
87
48
95
131
32
71
99
189
83
149
192
134
69
184
166
55
174
157
54
135
96
152
196
110
42
67
162
38
143
171
82
86
41
177
73
163
76
13
97
90
119
28
31
30

> <PUBCHEM_MMFF94_PARTIAL_CHARGES>
12
1 1.51
10 0.28
11 0.28
15 0.28
2 0.3
3 -0.55
4 -0.37
5 -0.38
6 -0.38
7 -0.55
8 -0.7
9 0.28

> <PUBCHEM_EFFECTIVE_ROTOR_COUNT>
9

> <PUBCHEM_PHARMACOPHORE_FEATURES>
1
1 8 acceptor

> <PUBCHEM_HEAVY_ATOM_COUNT>
15

> <PUBCHEM_ATOM_DEF_STEREO_COUNT>
0

> <PUBCHEM_ATOM_UDEF_STEREO_COUNT>
1

> <PUBCHEM_BOND_DEF_STEREO_COUNT>
0

> <PUBCHEM_BOND_UDEF_STEREO_COUNT>
0

> <PUBCHEM_ISOTOPIC_ATOM_COUNT>
0

> <PUBCHEM_COMPONENT_COUNT>
1

> <PUBCHEM_CACTVS_TAUTO_COUNT>
1

> <PUBCHEM_CONFORMER_ID>
000036CE00000001

> <PUBCHEM_MMFF94_ENERGY>
8.5698

> <PUBCHEM_FEATURE_SELFOVERLAP>
5.074

> <PUBCHEM_SHAPE_FINGERPRINT>
14251745 187 17621336640605661263
14817 1 14932162513198230307
15279307 12 17609782259408869073
19873495 37 17824523395525916816
21041028 32 17618469144182163027
21160774 45 18342167847992024747
21339142 149 18040147427270094488
21452121 99 17625303794654922775
22713034 7 17835806674265714515
23419403 2 17755308863858858712
23526113 38 17826820056389033633
23552423 10 17617959353143783085
23557571 272 18191310364990045618
23598291 2 17323518969614892334
2748010 2 17333955061698199143
81228 2 18197481949278870178

> <PUBCHEM_SHAPE_MULTIPOLES>
281.18
4.87
3.22
1.8
4.11
2.77
-0.13
-1.08
2.95
-2.18
-0.76
-1.37
-0.98
-0.63

> <PUBCHEM_SHAPE_SELFOVERLAP>
490.287

> <PUBCHEM_SHAPE_VOLUME>
186.1

> <PUBCHEM_COORDINATE_TYPE>
2
5
10

$$$$

