443639
  -OEChem-07051213023D

 34 36  0     1  0  0  0  0  0999 V2000
    0.1900    0.7318   -0.1330 O   0  0  0  0  0  0  0  0  0  0  0  0
   -0.3133   -1.4736    1.6496 O   0  0  0  0  0  0  0  0  0  0  0  0
    4.1282   -2.0892   -0.0497 O   0  0  0  0  0  0  0  0  0  0  0  0
    4.5166    2.6533   -0.0412 O   0  0  0  0  0  0  0  0  0  0  0  0
   -6.0952    0.7549    0.2110 O   0  0  0  0  0  0  0  0  0  0  0  0
   -0.1779   -1.6756    0.2422 C   0  0  1  0  0  0  0  0  0  0  0  0
   -0.5971   -0.4081   -0.5142 C   0  0  1  0  0  0  0  0  0  0  0  0
    1.2792   -2.0008   -0.0804 C   0  0  0  0  0  0  0  0  0  0  0  0
    2.1253   -0.7562   -0.0765 C   0  0  0  0  0  0  0  0  0  0  0  0
    1.5441    0.5177   -0.1110 C   0  0  0  0  0  0  0  0  0  0  0  0
   -2.0693   -0.0961   -0.3199 C   0  0  0  0  0  0  0  0  0  0  0  0
    3.5222   -0.8669   -0.0583 C   0  0  0  0  0  0  0  0  0  0  0  0
    2.3472    1.6609   -0.0859 C   0  0  0  0  0  0  0  0  0  0  0  0
   -3.0146   -0.6312   -1.1935 C   0  0  0  0  0  0  0  0  0  0  0  0
   -2.4740    0.7242    0.7320 C   0  0  0  0  0  0  0  0  0  0  0  0
    4.3231    0.2757   -0.0475 C   0  0  0  0  0  0  0  0  0  0  0  0
    3.7355    1.5388   -0.0570 C   0  0  0  0  0  0  0  0  0  0  0  0
   -4.3680   -0.3452   -1.0148 C   0  0  0  0  0  0  0  0  0  0  0  0
   -3.8275    1.0101    0.9108 C   0  0  0  0  0  0  0  0  0  0  0  0
   -4.7745    0.4755    0.0373 C   0  0  0  0  0  0  0  0  0  0  0  0
   -0.8052   -2.5339   -0.0261 H   0  0  0  0  0  0  0  0  0  0  0  0
   -0.4341   -0.5539   -1.5923 H   0  0  0  0  0  0  0  0  0  0  0  0
    1.3427   -2.4533   -1.0774 H   0  0  0  0  0  0  0  0  0  0  0  0
    1.6639   -2.7151    0.6572 H   0  0  0  0  0  0  0  0  0  0  0  0
    1.8843    2.6450   -0.0960 H   0  0  0  0  0  0  0  0  0  0  0  0
   -1.2619   -1.4877    1.8607 H   0  0  0  0  0  0  0  0  0  0  0  0
   -2.7107   -1.2739   -2.0153 H   0  0  0  0  0  0  0  0  0  0  0  0
   -1.7557    1.1450    1.4301 H   0  0  0  0  0  0  0  0  0  0  0  0
    5.4068    0.1893   -0.0297 H   0  0  0  0  0  0  0  0  0  0  0  0
   -5.1011   -0.7651   -1.6981 H   0  0  0  0  0  0  0  0  0  0  0  0
   -4.1315    1.6493    1.7354 H   0  0  0  0  0  0  0  0  0  0  0  0
    5.0930   -1.9676   -0.0372 H   0  0  0  0  0  0  0  0  0  0  0  0
    3.9443    3.4398   -0.0517 H   0  0  0  0  0  0  0  0  0  0  0  0
   -6.1951    1.3359    0.9846 H   0  0  0  0  0  0  0  0  0  0  0  0
  1  7  1  0  0  0  0
  1 10  1  0  0  0  0
  2  6  1  0  0  0  0
  2 26  1  0  0  0  0
  3 12  1  0  0  0  0
  3 32  1  0  0  0  0
  4 17  1  0  0  0  0
  4 33  1  0  0  0  0
  5 20  1  0  0  0  0
  5 34  1  0  0  0  0
  6  7  1  0  0  0  0
  6  8  1  0  0  0  0
  6 21  1  0  0  0  0
  7 11  1  0  0  0  0
  7 22  1  0  0  0  0
  8  9  1  0  0  0  0
  8 23  1  0  0  0  0
  8 24  1  0  0  0  0
  9 10  1  0  0  0  0
  9 12  2  0  0  0  0
 10 13  2  0  0  0  0
 11 14  2  0  0  0  0
 11 15  1  0  0  0  0
 12 16  1  0  0  0  0
 13 17  1  0  0  0  0
 13 25  1  0  0  0  0
 14 18  1  0  0  0  0
 14 27  1  0  0  0  0
 15 19  2  0  0  0  0
 15 28  1  0  0  0  0
 16 17  2  0  0  0  0
 16 29  1  0  0  0  0
 18 20  2  0  0  0  0
 18 30  1  0  0  0  0
 19 20  1  0  0  0  0
 19 31  1  0  0  0  0
M  END
> <PUBCHEM_COMPOUND_CID>
443639

> <PUBCHEM_CONFORMER_RMSD>
0.6

> <PUBCHEM_CONFORMER_DIVERSEORDER>
1
3
2
4

> <PUBCHEM_MMFF94_PARTIAL_CHARGES>
30
1 -0.36
10 0.08
11 -0.14
12 0.08
13 -0.15
14 -0.15
15 -0.15
16 -0.15
17 0.08
18 -0.15
19 -0.15
2 -0.68
20 0.08
25 0.15
26 0.4
27 0.15
28 0.15
29 0.15
3 -0.53
30 0.15
31 0.15
32 0.45
33 0.45
34 0.45
4 -0.53
5 -0.53
6 0.28
7 0.42
8 0.14
9 -0.14

> <PUBCHEM_EFFECTIVE_ROTOR_COUNT>
1.8

> <PUBCHEM_PHARMACOPHORE_FEATURES>
9
1 1 acceptor
1 2 acceptor
1 2 donor
1 3 donor
1 4 donor
1 5 donor
6 1 6 7 8 9 10 rings
6 11 14 15 18 19 20 rings
6 9 10 12 13 16 17 rings

> <PUBCHEM_HEAVY_ATOM_COUNT>
20

> <PUBCHEM_ATOM_DEF_STEREO_COUNT>
2

> <PUBCHEM_ATOM_UDEF_STEREO_COUNT>
0

> <PUBCHEM_BOND_DEF_STEREO_COUNT>
0

> <PUBCHEM_BOND_UDEF_STEREO_COUNT>
0

> <PUBCHEM_ISOTOPIC_ATOM_COUNT>
0

> <PUBCHEM_COMPONENT_COUNT>
1

> <PUBCHEM_CACTVS_TAUTO_COUNT>
18

> <PUBCHEM_CONFORMER_ID>
0006C4F700000001

> <PUBCHEM_MMFF94_ENERGY>
57.4543

> <PUBCHEM_FEATURE_SELFOVERLAP>
45.7

> <PUBCHEM_SHAPE_FINGERPRINT>
10411042 1 17834676380935466878
11045977 3 18060127748238188699
11471102 20 18412263956393909270
12107183 9 17612302352955144561
12236239 1 18187366549882871093
12403259 415 17846503659641431333
12616971 3 18333736844575593879
13140716 1 18343584014985252794
13167372 99 18189330337743308825
13167823 11 18259988180031714359
14739800 52 17458925742679827144
15196674 1 18410293579827559447
15342168 16 18200870656467899372
15475509 35 16414929646658962912
15536298 74 18334014999352583046
15848702 151 18188489219257376406
17834072 33 18333453140626875135
18186145 218 18272937132582350710
19784866 240 16081634699927070710
200 152 18259708900115438743
204376 136 18202282463857577523
20612939 158 18410011052599523300
20645477 70 18410294743737485518
21033648 29 17346329205879758317
21267235 1 18334849571432858023
21503847 285 18339922713772403984
22079108 93 18201716233081963779
22854114 59 18202563981984356341
23402539 116 17531254967449853653
23402655 69 18260551082634805540
23557571 272 16056316258327091767
23559900 14 18410013213553706914
29717793 49 17822294634364999149
335352 9 18410853253591047526
34797466 226 15357981109862490457
4047638 21 18343864411840295022
4340502 62 18059847381948446971
474 4 18412544275686988965
495365 180 18260555489751221122
5104073 3 18341615884369917859
633830 44 18412547625898610615
69090 78 18410015416096651686
8272917 22 18334573568539790918
9971528 1 18260833747913718198
9981440 41 17469058660751579936
9999458 23 18201999949847220438

> <PUBCHEM_SHAPE_MULTIPOLES>
382.24
10.76
2.02
0.93
6.47
0.08
-0.1
3.85
0.52
-2.64
-0.15
0.73
-0.17
-0.63

> <PUBCHEM_SHAPE_SELFOVERLAP>
842.408

> <PUBCHEM_SHAPE_VOLUME>
204.3

> <PUBCHEM_COORDINATE_TYPE>
2
5
10

$$$$

