6337945
  -OEChem-07051213102D

 20 21  0     1  0  0  0  0  0999 V2000
    2.0000   -0.3384    0.0000 O   0  0  0  0  0  0  0  0  0  0  0  0
    5.9521   -1.0937    0.0000 O   0  0  0  0  0  0  0  0  0  0  0  0
    4.3049   -1.6289    0.0000 O   0  0  0  0  0  0  0  0  0  0  0  0
    3.7139    0.3743    0.0000 N   0  0  0  0  0  0  0  0  0  0  0  0
    3.7139    1.3743    0.0000 C   0  0  1  0  0  0  0  0  0  0  0  0
    4.6650    1.6833    0.0000 C   0  0  0  0  0  0  0  0  0  0  0  0
    4.6650    0.0653    0.0000 C   0  0  1  0  0  0  0  0  0  0  0  0
    5.2528    0.8743    0.0000 C   0  0  0  0  0  0  0  0  0  0  0  0
    2.7056    1.3785    0.0000 C   0  0  0  0  0  0  0  0  0  0  0  0
    2.7056    0.3702    0.0000 C   0  0  0  0  0  0  0  0  0  0  0  0
    4.9740   -0.8858    0.0000 C   0  0  0  0  0  0  0  0  0  0  0  0
    3.5827    2.2141    0.0000 H   0  0  0  0  0  0  0  0  0  0  0  0
    5.2019    1.9933    0.0000 H   0  0  0  0  0  0  0  0  0  0  0  0
    4.4128    2.2497    0.0000 H   0  0  0  0  0  0  0  0  0  0  0  0
    4.2266   -0.3731    0.0000 H   0  0  0  0  0  0  0  0  0  0  0  0
    5.7135    0.4595    0.0000 H   0  0  0  0  0  0  0  0  0  0  0  0
    5.7135    1.2892    0.0000 H   0  0  0  0  0  0  0  0  0  0  0  0
    2.7074    1.9984    0.0000 H   0  0  0  0  0  0  0  0  0  0  0  0
    2.0856    1.3793    0.0000 H   0  0  0  0  0  0  0  0  0  0  0  0
    6.1437   -1.6833    0.0000 H   0  0  0  0  0  0  0  0  0  0  0  0
  1 10  2  0  0  0  0
  2 11  1  0  0  0  0
  2 20  1  0  0  0  0
  3 11  2  0  0  0  0
  4  5  1  0  0  0  0
  4  7  1  0  0  0  0
  4 10  1  0  0  0  0
  5  6  1  0  0  0  0
  5  9  1  0  0  0  0
  5 12  1  1  0  0  0
  6  8  1  0  0  0  0
  6 13  1  0  0  0  0
  6 14  1  0  0  0  0
  7  8  1  0  0  0  0
  7 11  1  1  0  0  0
  7 15  1  0  0  0  0
  8 16  1  0  0  0  0
  8 17  1  0  0  0  0
  9 10  1  0  0  0  0
  9 18  1  0  0  0  0
  9 19  1  0  0  0  0
M  END
> <PUBCHEM_COMPOUND_CID>
6337945

> <PUBCHEM_COMPOUND_CANONICALIZED>
1

> <PUBCHEM_CACTVS_COMPLEXITY>
226

> <PUBCHEM_CACTVS_HBOND_ACCEPTOR>
3

> <PUBCHEM_CACTVS_HBOND_DONOR>
1

> <PUBCHEM_CACTVS_ROTATABLE_BOND>
1

> <PUBCHEM_CACTVS_SUBSKEYS>
AAADccBiMAAAAAAAAAAAAAAAAABYAWAAAAAAAAAABYAAAAAAAAAAHgAACAAACCjBgAQACAMAAgAIAAGQGAAAAAAAAAAAAAGIAAACABoAgCAEQAAEBgCQAAGY2SOQAAAAAAAAAAAAAAAAAAAAAAAAAAAAAA==

> <PUBCHEM_IUPAC_OPENEYE_NAME>
(2S,5S)-7-oxo-1-azabicyclo[3.2.0]heptane-2-carboxylic acid

> <PUBCHEM_IUPAC_CAS_NAME>
(2S,5S)-7-oxo-1-azabicyclo[3.2.0]heptane-2-carboxylic acid

> <PUBCHEM_IUPAC_NAME>
(2S,5S)-7-oxo-1-azabicyclo[3.2.0]heptane-2-carboxylic acid

> <PUBCHEM_IUPAC_SYSTEMATIC_NAME>
(2S,5S)-7-oxidanylidene-1-azabicyclo[3.2.0]heptane-2-carboxylic acid

> <PUBCHEM_IUPAC_TRADITIONAL_NAME>
(2S,5S)-7-keto-1-azabicyclo[3.2.0]heptane-2-carboxylic acid

> <PUBCHEM_IUPAC_INCHI>
InChI=1S/C7H9NO3/c9-6-3-4-1-2-5(7(10)11)8(4)6/h4-5H,1-3H2,(H,10,11)/t4-,5-/m0/s1

> <PUBCHEM_IUPAC_INCHIKEY>
RJPDELAUUYAFTQ-WHFBIAKZSA-N

> <PUBCHEM_XLOGP3_AA>
-0.4

> <PUBCHEM_EXACT_MASS>
155.058243

> <PUBCHEM_MOLECULAR_FORMULA>
C7H9NO3

> <PUBCHEM_MOLECULAR_WEIGHT>
155.15126

> <PUBCHEM_OPENEYE_CAN_SMILES>
C1CC(N2C1CC2=O)C(=O)O

> <PUBCHEM_OPENEYE_ISO_SMILES>
C1C[C@H](N2[C@@H]1CC2=O)C(=O)O

> <PUBCHEM_CACTVS_TPSA>
57.6

> <PUBCHEM_MONOISOTOPIC_WEIGHT>
155.058243

> <PUBCHEM_TOTAL_CHARGE>
0

> <PUBCHEM_HEAVY_ATOM_COUNT>
11

> <PUBCHEM_ATOM_DEF_STEREO_COUNT>
2

> <PUBCHEM_ATOM_UDEF_STEREO_COUNT>
0

> <PUBCHEM_BOND_DEF_STEREO_COUNT>
0

> <PUBCHEM_BOND_UDEF_STEREO_COUNT>
0

> <PUBCHEM_ISOTOPIC_ATOM_COUNT>
0

> <PUBCHEM_COMPONENT_COUNT>
1

> <PUBCHEM_CACTVS_TAUTO_COUNT>
2

> <PUBCHEM_COORDINATE_TYPE>
1
5
255

> <PUBCHEM_BONDANNOTATIONS>
5  12  5
7  11  5

$$$$

