440625
  -OEChem-07051212503D

 43 46  0     1  0  0  0  0  0999 V2000
   -5.0135    1.4389   -0.9456 O   0  0  0  0  0  0  0  0  0  0  0  0
   -4.6056   -1.3312   -0.5400 O   0  0  0  0  0  0  0  0  0  0  0  0
    6.1077    0.0496   -0.3962 O   0  0  0  0  0  0  0  0  0  0  0  0
   -1.7809    0.5841    0.5828 C   0  0  1  0  0  0  0  0  0  0  0  0
   -2.3820   -0.8271    0.3172 C   0  0  2  0  0  0  0  0  0  0  0  0
   -0.3294    0.7449    0.0676 C   0  0  2  0  0  0  0  0  0  0  0  0
    0.4837   -0.5412    0.3253 C   0  0  1  0  0  0  0  0  0  0  0  0
   -1.6197   -1.5597   -0.7889 C   0  0  0  0  0  0  0  0  0  0  0  0
   -2.7266    1.5721   -0.1235 C   0  0  0  0  0  0  0  0  0  0  0  0
   -0.1226   -1.7087   -0.4903 C   0  0  0  0  0  0  0  0  0  0  0  0
    0.3611    1.9512    0.7106 C   0  0  0  0  0  0  0  0  0  0  0  0
   -3.8032   -0.5018   -0.1289 C   0  0  0  0  0  0  0  0  0  0  0  0
   -4.1120    0.9667    0.0200 C   0  0  2  0  0  0  0  0  0  0  0  0
   -2.4757   -1.6623    1.6002 C   0  0  0  0  0  0  0  0  0  0  0  0
    1.9813   -0.3668    0.1079 C   0  0  0  0  0  0  0  0  0  0  0  0
    1.7306    2.1696    0.0756 C   0  0  0  0  0  0  0  0  0  0  0  0
    2.5622    0.9141    0.0217 C   0  0  0  0  0  0  0  0  0  0  0  0
    2.8259   -1.4912    0.0707 C   0  0  0  0  0  0  0  0  0  0  0  0
    3.9494    1.0395   -0.1627 C   0  0  0  0  0  0  0  0  0  0  0  0
    4.2040   -1.3531   -0.0999 C   0  0  0  0  0  0  0  0  0  0  0  0
    4.7652   -0.0877   -0.2234 C   0  0  0  0  0  0  0  0  0  0  0  0
   -1.8107    0.7908    1.6619 H   0  0  0  0  0  0  0  0  0  0  0  0
   -0.3514    0.9204   -1.0185 H   0  0  0  0  0  0  0  0  0  0  0  0
    0.3840   -0.7843    1.3928 H   0  0  0  0  0  0  0  0  0  0  0  0
   -1.7364   -1.0122   -1.7348 H   0  0  0  0  0  0  0  0  0  0  0  0
   -2.0544   -2.5501   -0.9750 H   0  0  0  0  0  0  0  0  0  0  0  0
   -2.4687    1.6887   -1.1840 H   0  0  0  0  0  0  0  0  0  0  0  0
   -2.6830    2.5717    0.3218 H   0  0  0  0  0  0  0  0  0  0  0  0
    0.0386   -2.6451    0.0596 H   0  0  0  0  0  0  0  0  0  0  0  0
    0.3989   -1.8276   -1.4491 H   0  0  0  0  0  0  0  0  0  0  0  0
    0.4723    1.7870    1.7903 H   0  0  0  0  0  0  0  0  0  0  0  0
   -0.2388    2.8595    0.5849 H   0  0  0  0  0  0  0  0  0  0  0  0
   -4.5212    1.1363    1.0212 H   0  0  0  0  0  0  0  0  0  0  0  0
   -1.4967   -1.8401    2.0532 H   0  0  0  0  0  0  0  0  0  0  0  0
   -3.1030   -1.1667    2.3507 H   0  0  0  0  0  0  0  0  0  0  0  0
   -2.9319   -2.6385    1.3987 H   0  0  0  0  0  0  0  0  0  0  0  0
    2.2590    2.9434    0.6455 H   0  0  0  0  0  0  0  0  0  0  0  0
    1.6049    2.5417   -0.9489 H   0  0  0  0  0  0  0  0  0  0  0  0
    2.4185   -2.4932    0.1780 H   0  0  0  0  0  0  0  0  0  0  0  0
   -4.6054    1.3373   -1.8222 H   0  0  0  0  0  0  0  0  0  0  0  0
    4.3962    2.0274   -0.2540 H   0  0  0  0  0  0  0  0  0  0  0  0
    4.8265   -2.2433   -0.1325 H   0  0  0  0  0  0  0  0  0  0  0  0
    6.5154   -0.8333   -0.4136 H   0  0  0  0  0  0  0  0  0  0  0  0
  1 13  1  0  0  0  0
  1 40  1  0  0  0  0
  2 12  2  0  0  0  0
  3 21  1  0  0  0  0
  3 43  1  0  0  0  0
  4  5  1  0  0  0  0
  4  6  1  0  0  0  0
  4  9  1  0  0  0  0
  4 22  1  0  0  0  0
  5  8  1  0  0  0  0
  5 12  1  0  0  0  0
  5 14  1  0  0  0  0
  6  7  1  0  0  0  0
  6 11  1  0  0  0  0
  6 23  1  0  0  0  0
  7 10  1  0  0  0  0
  7 15  1  0  0  0  0
  7 24  1  0  0  0  0
  8 10  1  0  0  0  0
  8 25  1  0  0  0  0
  8 26  1  0  0  0  0
  9 13  1  0  0  0  0
  9 27  1  0  0  0  0
  9 28  1  0  0  0  0
 10 29  1  0  0  0  0
 10 30  1  0  0  0  0
 11 16  1  0  0  0  0
 11 31  1  0  0  0  0
 11 32  1  0  0  0  0
 12 13  1  0  0  0  0
 13 33  1  0  0  0  0
 14 34  1  0  0  0  0
 14 35  1  0  0  0  0
 14 36  1  0  0  0  0
 15 17  2  0  0  0  0
 15 18  1  0  0  0  0
 16 17  1  0  0  0  0
 16 37  1  0  0  0  0
 16 38  1  0  0  0  0
 17 19  1  0  0  0  0
 18 20  2  0  0  0  0
 18 39  1  0  0  0  0
 19 21  2  0  0  0  0
 19 41  1  0  0  0  0
 20 21  1  0  0  0  0
 20 42  1  0  0  0  0
M  END
> <PUBCHEM_COMPOUND_CID>
440625

> <PUBCHEM_CONFORMER_RMSD>
0.6

> <PUBCHEM_CONFORMER_DIVERSEORDER>
2
1

> <PUBCHEM_MMFF94_PARTIAL_CHARGES>
19
1 -0.68
12 0.45
13 0.34
15 -0.14
16 0.14
17 -0.14
18 -0.15
19 -0.15
2 -0.57
20 -0.15
21 0.08
3 -0.53
39 0.15
40 0.4
41 0.15
42 0.15
43 0.45
5 0.06
7 0.14

> <PUBCHEM_EFFECTIVE_ROTOR_COUNT>
1.2

> <PUBCHEM_PHARMACOPHORE_FEATURES>
8
1 1 acceptor
1 1 donor
1 2 acceptor
1 3 donor
5 4 5 9 12 13 rings
6 15 17 18 19 20 21 rings
6 4 5 6 7 8 10 rings
6 6 7 11 15 16 17 rings

> <PUBCHEM_HEAVY_ATOM_COUNT>
21

> <PUBCHEM_ATOM_DEF_STEREO_COUNT>
5

> <PUBCHEM_ATOM_UDEF_STEREO_COUNT>
0

> <PUBCHEM_BOND_DEF_STEREO_COUNT>
0

> <PUBCHEM_BOND_UDEF_STEREO_COUNT>
0

> <PUBCHEM_ISOTOPIC_ATOM_COUNT>
0

> <PUBCHEM_COMPONENT_COUNT>
1

> <PUBCHEM_CACTVS_TAUTO_COUNT>
36

> <PUBCHEM_CONFORMER_ID>
0006B93100000002

> <PUBCHEM_MMFF94_ENERGY>
60.4116

> <PUBCHEM_FEATURE_SELFOVERLAP>
40.716

> <PUBCHEM_SHAPE_FINGERPRINT>
10062212 137 18259991483109413167
10906281 52 18263064669385131425
10967382 1 18408602599805798546
11315181 36 18186516610046160112
11471102 20 18410012139521609076
12011746 2 18408324414457623253
12236239 1 18273496780328276998
12403259 226 18262524667816493073
12403259 415 18334301946318426881
12788726 201 18264491869790439288
13140716 1 18335974290629681609
13288520 33 18260263058033369868
13675066 3 18338796715392511112
13862211 1 18408042914349515894
15099037 51 18408042931064914725
15196674 1 18409167705553266540
15536298 74 18260832557875442024
15788980 27 18411980256407835416
1601671 61 18410855486314891964
16945 1 18121218675465832785
17349148 13 16877939417041906415
18186145 218 17561369461041611122
18681886 176 18334297540198594912
19862831 5 18410573993857514856
200 152 18040435490293841139
20645477 70 18260264140439020670
21029758 11 18260269663371714200
21267235 1 18335974303525281950
21279426 13 18195809789144209551
221357 26 18409737244587984781
221490 88 18268703914157616536
23402539 116 18186806889462981044
23402655 69 18409168843761850068
23493267 7 18131354089883821227
23559900 14 18334583412573522608
26918003 58 18201719544464858194
3004659 81 18272368733164932006
335352 9 18337391642279151749
34934 24 18410579496174890170
350125 39 18408601457756168929
3545911 37 18413105069508584609
4214541 1 18411136935115434957
474 4 17631446766346063228
4921388 177 16558458691488617163
5104073 3 18409730651143026336
542803 24 16487252175506565262
559249 180 18341055202459940978
633830 44 17775006735208871336
9709674 26 18340769217799003715

> <PUBCHEM_SHAPE_MULTIPOLES>
414.56
10.24
2.14
0.88
4.42
0.27
0.16
0.01
-1.92
-0.45
0.06
-0.58
-0.19
0.37

> <PUBCHEM_SHAPE_SELFOVERLAP>
909.211

> <PUBCHEM_SHAPE_VOLUME>
223.4

> <PUBCHEM_COORDINATE_TYPE>
2
5
10

$$$$

