441983
  -OEChem-07051212563D

 39 43  0     0  0  0  0  0  0999 V2000
   -2.2839   -3.1364    0.2841 O   0  0  0  0  0  0  0  0  0  0  0  0
   -0.5331   -1.5954    0.1394 N   0  0  0  0  0  0  0  0  0  0  0  0
    1.8640    1.2061    0.1414 N   0  0  0  0  0  0  0  0  0  0  0  0
   -5.1959   -0.2102   -0.1458 N   0  0  0  0  0  0  0  0  0  0  0  0
    2.2373   -0.9665   -0.1376 C   0  0  0  0  0  0  0  0  0  0  0  0
    1.8559   -2.3902   -0.3063 C   0  0  0  0  0  0  0  0  0  0  0  0
    1.2560   -0.0109    0.0104 C   0  0  0  0  0  0  0  0  0  0  0  0
    0.4980   -2.6407    0.3790 C   0  0  0  0  0  0  0  0  0  0  0  0
   -0.1431   -0.2476    0.0344 C   0  0  0  0  0  0  0  0  0  0  0  0
    3.4962   -0.3137   -0.1036 C   0  0  0  0  0  0  0  0  0  0  0  0
    3.2348    1.0497    0.0738 C   0  0  0  0  0  0  0  0  0  0  0  0
   -1.0388    0.7444   -0.0871 C   0  0  0  0  0  0  0  0  0  0  0  0
   -1.8858   -1.9811    0.1518 C   0  0  0  0  0  0  0  0  0  0  0  0
   -2.4649    0.4305   -0.1048 C   0  0  0  0  0  0  0  0  0  0  0  0
   -2.8831   -0.8950    0.0042 C   0  0  0  0  0  0  0  0  0  0  0  0
    4.8353   -0.7398   -0.2059 C   0  0  0  0  0  0  0  0  0  0  0  0
    4.2530    2.0066    0.1557 C   0  0  0  0  0  0  0  0  0  0  0  0
   -3.4232    1.4351   -0.2354 C   0  0  0  0  0  0  0  0  0  0  0  0
    5.8619    0.2079   -0.1259 C   0  0  0  0  0  0  0  0  0  0  0  0
    5.5732    1.5591    0.0524 C   0  0  0  0  0  0  0  0  0  0  0  0
   -4.2460   -1.1640   -0.0202 C   0  0  0  0  0  0  0  0  0  0  0  0
   -4.7596    1.0647   -0.2500 C   0  0  0  0  0  0  0  0  0  0  0  0
   -3.1098    2.8526   -0.3582 C   0  0  0  0  0  0  0  0  0  0  0  0
   -2.9986    3.7348    0.6542 C   0  0  0  0  0  0  0  0  0  0  0  0
    1.7699   -2.6079   -1.3777 H   0  0  0  0  0  0  0  0  0  0  0  0
    2.6140   -3.0604    0.1121 H   0  0  0  0  0  0  0  0  0  0  0  0
    0.1109   -3.6187    0.0715 H   0  0  0  0  0  0  0  0  0  0  0  0
    0.6337   -2.6832    1.4682 H   0  0  0  0  0  0  0  0  0  0  0  0
    1.3992    2.0936    0.2755 H   0  0  0  0  0  0  0  0  0  0  0  0
   -0.7319    1.7780   -0.1952 H   0  0  0  0  0  0  0  0  0  0  0  0
    5.0762   -1.7898   -0.3448 H   0  0  0  0  0  0  0  0  0  0  0  0
    4.0301    3.0594    0.2938 H   0  0  0  0  0  0  0  0  0  0  0  0
    6.8965   -0.1158   -0.2038 H   0  0  0  0  0  0  0  0  0  0  0  0
   -4.6352   -2.1736    0.0620 H   0  0  0  0  0  0  0  0  0  0  0  0
    6.3864    2.2779    0.1118 H   0  0  0  0  0  0  0  0  0  0  0  0
   -5.5539    1.7994   -0.3502 H   0  0  0  0  0  0  0  0  0  0  0  0
   -2.9531    3.2051   -1.3749 H   0  0  0  0  0  0  0  0  0  0  0  0
   -2.7587    4.7730    0.4523 H   0  0  0  0  0  0  0  0  0  0  0  0
   -3.1433    3.4332    1.6860 H   0  0  0  0  0  0  0  0  0  0  0  0
  1 13  2  0  0  0  0
  2  8  1  0  0  0  0
  2  9  1  0  0  0  0
  2 13  1  0  0  0  0
  3  7  1  0  0  0  0
  3 11  1  0  0  0  0
  3 29  1  0  0  0  0
  4 21  2  0  0  0  0
  4 22  1  0  0  0  0
  5  6  1  0  0  0  0
  5  7  2  0  0  0  0
  5 10  1  0  0  0  0
  6  8  1  0  0  0  0
  6 25  1  0  0  0  0
  6 26  1  0  0  0  0
  7  9  1  0  0  0  0
  8 27  1  0  0  0  0
  8 28  1  0  0  0  0
  9 12  2  0  0  0  0
 10 11  1  0  0  0  0
 10 16  2  0  0  0  0
 11 17  2  0  0  0  0
 12 14  1  0  0  0  0
 12 30  1  0  0  0  0
 13 15  1  0  0  0  0
 14 15  2  0  0  0  0
 14 18  1  0  0  0  0
 15 21  1  0  0  0  0
 16 19  1  0  0  0  0
 16 31  1  0  0  0  0
 17 20  1  0  0  0  0
 17 32  1  0  0  0  0
 18 22  2  0  0  0  0
 18 23  1  0  0  0  0
 19 20  2  0  0  0  0
 19 33  1  0  0  0  0
 20 35  1  0  0  0  0
 21 34  1  0  0  0  0
 22 36  1  0  0  0  0
 23 24  2  0  0  0  0
 23 37  1  0  0  0  0
 24 38  1  0  0  0  0
 24 39  1  0  0  0  0
M  END
> <PUBCHEM_COMPOUND_CID>
441983

> <PUBCHEM_CONFORMER_RMSD>
0.6

> <PUBCHEM_CONFORMER_DIVERSEORDER>
1

> <PUBCHEM_MMFF94_PARTIAL_CHARGES>
34
1 -0.57
11 -0.15
12 -0.18
13 0.54
14 0.03
15 0.09
16 -0.15
17 -0.15
18 0.03
19 -0.15
2 -0.47
20 -0.15
21 0.16
22 0.16
23 -0.18
24 -0.3
29 0.27
3 0.03
30 0.15
31 0.15
32 0.15
33 0.15
34 0.15
35 0.15
36 0.15
37 0.15
38 0.15
39 0.15
4 -0.62
5 -0.18
6 0.18
7 -0.2
8 0.3
9 0.15

> <PUBCHEM_EFFECTIVE_ROTOR_COUNT>
1.4

> <PUBCHEM_PHARMACOPHORE_FEATURES>
10
1 1 acceptor
1 24 hydrophobe
1 3 cation
1 3 donor
1 4 acceptor
5 3 5 7 10 11 rings
6 10 11 16 17 19 20 rings
6 2 5 6 7 8 9 rings
6 2 9 12 13 14 15 rings
6 4 14 15 18 21 22 rings

> <PUBCHEM_HEAVY_ATOM_COUNT>
24

> <PUBCHEM_ATOM_DEF_STEREO_COUNT>
0

> <PUBCHEM_ATOM_UDEF_STEREO_COUNT>
0

> <PUBCHEM_BOND_DEF_STEREO_COUNT>
0

> <PUBCHEM_BOND_UDEF_STEREO_COUNT>
0

> <PUBCHEM_ISOTOPIC_ATOM_COUNT>
0

> <PUBCHEM_COMPONENT_COUNT>
1

> <PUBCHEM_CACTVS_TAUTO_COUNT>
3

> <PUBCHEM_CONFORMER_ID>
0006BE7F00000001

> <PUBCHEM_MMFF94_ENERGY>
71.8375

> <PUBCHEM_FEATURE_SELFOVERLAP>
50.979

> <PUBCHEM_SHAPE_FINGERPRINT>
10 15 18271811155994052416
10319926 262 18338250293132732314
10411042 1 17763461712667832859
10616163 171 18411136905045824438
10670039 82 18271511058039270140
11578080 2 16986609795123977871
11595378 159 17417827161400179136
12107183 9 17836934769064421712
12236239 1 17560805403202950666
12390115 104 18262786493012018809
12403259 226 17972884652752980690
12403259 415 18187927201923437272
12596602 18 17060341760513516664
12916748 109 18411415107478663792
13140716 1 18124867959402086387
13402501 40 18409450262893611713
138480 1 17546729717042573771
14251764 75 17901377119963210393
14341114 176 18413102840689843204
14466204 15 18410018758277514624
14508225 48 17902244308409453951
14739800 52 18266479671339607664
14790565 3 18339639044441990340
15042514 8 18197774402176522211
15196674 1 18411138009158251118
17844677 252 18410567375798624052
200 152 17748826297767261603
20510252 161 18408039632989142849
20645477 70 17168415061032135198
21033648 29 18334868185963803992
21065198 57 18410855439333911254
21236236 1 18337110055997645207
21267235 1 18411692175676731294
21279426 13 18264202690217009526
21315764 268 18341621395282813716
221357 26 18259706691895937833
22393880 68 18336260262442341342
23227448 37 18409450245660871967
23402539 116 18337397049621813415
23559900 14 18335708187177717584
245318 6 16697222406650249836
283562 15 18411420644493316281
3004659 81 18342736347961278606
335352 9 18411138057115028798
3380486 145 18194946462728224515
350125 39 18411134723218190832
3545911 37 18411417302027513092
4073 2 18059572422526892610
4214541 1 18411419509836174324
474 4 17775560927565675220
495365 180 17385734548116799736
5104073 3 18271524315874844866
5283173 99 18335983151173905016
6328613 192 18201429248131905956
7808743 9 18411704261825361872
9709674 26 18408317808803599478
9981440 41 18343302565430225699

> <PUBCHEM_SHAPE_MULTIPOLES>
473.1
11.78
3.39
0.65
7.19
0.66
0.01
5.16
-0.62
-2.51
0.44
-0.06
0.06
0.19

> <PUBCHEM_SHAPE_SELFOVERLAP>
1082.72

> <PUBCHEM_SHAPE_VOLUME>
243

> <PUBCHEM_COORDINATE_TYPE>
2
5
10

$$$$

