72404
  -OEChem-07051213072D

 80 84  0     1  0  0  0  0  0999 V2000
    5.5415    2.1123    0.0000 O   0  0  0  0  0  0  0  0  0  0  0  0
    4.3770    0.6520    0.0000 O   0  0  0  0  0  0  0  0  0  0  0  0
    8.1582   -1.1689    0.0000 O   0  0  0  0  0  0  0  0  0  0  0  0
   10.7278    4.6968    0.0000 O   0  0  0  0  0  0  0  0  0  0  0  0
    9.9395   -4.9793    0.0000 O   0  0  0  0  0  0  0  0  0  0  0  0
    7.5989    0.4295    0.0000 N   0  0  0  0  0  0  0  0  0  0  0  0
    6.4754   -0.9793    0.0000 N   0  0  0  0  0  0  0  0  0  0  0  0
    6.9754    1.2113    0.0000 C   0  0  1  0  0  0  0  0  0  0  0  0
    5.5744   -0.5454    0.0000 C   0  0  1  0  0  0  0  0  0  0  0  0
    5.9754    1.2113    0.0000 C   0  0  1  0  0  0  0  0  0  0  0  0
    5.3519    0.4295    0.0000 C   0  0  1  0  0  0  0  0  0  0  0  0
    7.4093    2.1123    0.0000 C   0  0  0  0  0  0  0  0  0  0  0  0
    4.7926   -1.1689    0.0000 C   0  0  0  0  0  0  0  0  0  0  0  0
    7.3764   -0.5454    0.0000 C   0  0  0  0  0  0  0  0  0  0  0  0
    8.5738    0.6520    0.0000 C   0  0  0  0  0  0  0  0  0  0  0  0
    6.4754   -1.9793    0.0000 C   0  0  0  0  0  0  0  0  0  0  0  0
    6.8460    2.9386    0.0000 C   0  0  0  0  0  0  0  0  0  0  0  0
    3.8618   -0.8036    0.0000 C   0  0  0  0  0  0  0  0  0  0  0  0
    8.8686    1.6076    0.0000 C   0  0  0  0  0  0  0  0  0  0  0  0
    7.3414   -2.4793    0.0000 C   0  0  0  0  0  0  0  0  0  0  0  0
    7.2799    3.8395    0.0000 C   0  0  0  0  0  0  0  0  0  0  0  0
    5.8488    2.8638    0.0000 C   0  0  0  0  0  0  0  0  0  0  0  0
    3.7127    0.1853    0.0000 C   0  0  0  0  0  0  0  0  0  0  0  0
    3.0799   -1.4270    0.0000 C   0  0  0  0  0  0  0  0  0  0  0  0
    9.8435    1.8301    0.0000 C   0  0  0  0  0  0  0  0  0  0  0  0
    8.1884    2.3407    0.0000 C   0  0  0  0  0  0  0  0  0  0  0  0
    7.3414   -3.4793    0.0000 C   0  0  0  0  0  0  0  0  0  0  0  0
    8.2075   -1.9793    0.0000 C   0  0  0  0  0  0  0  0  0  0  0  0
    6.7166    4.6658    0.0000 C   0  0  0  0  0  0  0  0  0  0  0  0
    5.2855    3.6901    0.0000 C   0  0  0  0  0  0  0  0  0  0  0  0
    2.7818    0.5506    0.0000 C   0  0  0  0  0  0  0  0  0  0  0  0
    2.1490   -1.0617    0.0000 C   0  0  0  0  0  0  0  0  0  0  0  0
   10.1383    2.7857    0.0000 C   0  0  0  0  0  0  0  0  0  0  0  0
    8.4832    3.2962    0.0000 C   0  0  0  0  0  0  0  0  0  0  0  0
    8.2075   -3.9793    0.0000 C   0  0  0  0  0  0  0  0  0  0  0  0
    9.0735   -2.4793    0.0000 C   0  0  0  0  0  0  0  0  0  0  0  0
    5.7194    4.5910    0.0000 C   0  0  0  0  0  0  0  0  0  0  0  0
    2.0000   -0.0729    0.0000 C   0  0  0  0  0  0  0  0  0  0  0  0
    9.4581    3.5188    0.0000 C   0  0  0  0  0  0  0  0  0  0  0  0
    9.0735   -3.4793    0.0000 C   0  0  0  0  0  0  0  0  0  0  0  0
    9.7529    4.4743    0.0000 C   0  0  0  0  0  0  0  0  0  0  0  0
    9.9395   -3.9793    0.0000 C   0  0  0  0  0  0  0  0  0  0  0  0
    7.5915    1.2808    0.0000 H   0  0  0  0  0  0  0  0  0  0  0  0
    5.6439   -1.1615    0.0000 H   0  0  0  0  0  0  0  0  0  0  0  0
    5.3593    1.2808    0.0000 H   0  0  0  0  0  0  0  0  0  0  0  0
    4.9135   -0.0089    0.0000 H   0  0  0  0  0  0  0  0  0  0  0  0
    7.9127    1.7504    0.0000 H   0  0  0  0  0  0  0  0  0  0  0  0
    7.8531    2.5452    0.0000 H   0  0  0  0  0  0  0  0  0  0  0  0
    4.4693   -1.6980    0.0000 H   0  0  0  0  0  0  0  0  0  0  0  0
    5.2575   -1.5792    0.0000 H   0  0  0  0  0  0  0  0  0  0  0  0
    8.6047    0.0328    0.0000 H   0  0  0  0  0  0  0  0  0  0  0  0
    9.1890    0.5749    0.0000 H   0  0  0  0  0  0  0  0  0  0  0  0
    5.8648   -1.8716    0.0000 H   0  0  0  0  0  0  0  0  0  0  0  0
    6.2634   -2.5619    0.0000 H   0  0  0  0  0  0  0  0  0  0  0  0
    4.9233    2.1586    0.0000 H   0  0  0  0  0  0  0  0  0  0  0  0
    4.1943    1.2445    0.0000 H   0  0  0  0  0  0  0  0  0  0  0  0
    7.8981    3.8858    0.0000 H   0  0  0  0  0  0  0  0  0  0  0  0
    5.5798    2.3052    0.0000 H   0  0  0  0  0  0  0  0  0  0  0  0
    4.1974    0.5718    0.0000 H   0  0  0  0  0  0  0  0  0  0  0  0
    3.1723   -2.0401    0.0000 H   0  0  0  0  0  0  0  0  0  0  0  0
   10.2652    1.3756    0.0000 H   0  0  0  0  0  0  0  0  0  0  0  0
    7.5840    2.2027    0.0000 H   0  0  0  0  0  0  0  0  0  0  0  0
    6.8045   -3.7893    0.0000 H   0  0  0  0  0  0  0  0  0  0  0  0
    8.2075   -1.3593    0.0000 H   0  0  0  0  0  0  0  0  0  0  0  0
    6.9856    5.2244    0.0000 H   0  0  0  0  0  0  0  0  0  0  0  0
    4.6672    3.6437    0.0000 H   0  0  0  0  0  0  0  0  0  0  0  0
    2.6894    1.1637    0.0000 H   0  0  0  0  0  0  0  0  0  0  0  0
    1.6643   -1.4483    0.0000 H   0  0  0  0  0  0  0  0  0  0  0  0
   10.7427    2.9237    0.0000 H   0  0  0  0  0  0  0  0  0  0  0  0
    8.0615    3.7507    0.0000 H   0  0  0  0  0  0  0  0  0  0  0  0
    8.2075   -4.5993    0.0000 H   0  0  0  0  0  0  0  0  0  0  0  0
    9.6104   -2.1693    0.0000 H   0  0  0  0  0  0  0  0  0  0  0  0
    5.3701    5.1033    0.0000 H   0  0  0  0  0  0  0  0  0  0  0  0
    1.4229    0.1536    0.0000 H   0  0  0  0  0  0  0  0  0  0  0  0
    9.7220    5.0935    0.0000 H   0  0  0  0  0  0  0  0  0  0  0  0
    9.1377    4.5514    0.0000 H   0  0  0  0  0  0  0  0  0  0  0  0
   10.5501   -4.0870    0.0000 H   0  0  0  0  0  0  0  0  0  0  0  0
   10.1516   -3.3967    0.0000 H   0  0  0  0  0  0  0  0  0  0  0  0
   10.9105    5.2893    0.0000 H   0  0  0  0  0  0  0  0  0  0  0  0
   10.4765   -5.2893    0.0000 H   0  0  0  0  0  0  0  0  0  0  0  0
 10  1  1  1  0  0  0
  1 55  1  0  0  0  0
 11  2  1  6  0  0  0
  2 56  1  0  0  0  0
  3 14  2  0  0  0  0
  4 41  1  0  0  0  0
  4 79  1  0  0  0  0
  5 42  1  0  0  0  0
  5 80  1  0  0  0  0
  6  8  1  0  0  0  0
  6 14  1  0  0  0  0
  6 15  1  0  0  0  0
  7  9  1  0  0  0  0
  7 14  1  0  0  0  0
  7 16  1  0  0  0  0
  8 10  1  0  0  0  0
  8 12  1  1  0  0  0
  8 43  1  0  0  0  0
  9 11  1  0  0  0  0
  9 13  1  6  0  0  0
  9 44  1  0  0  0  0
 10 11  1  0  0  0  0
 10 45  1  0  0  0  0
 11 46  1  0  0  0  0
 12 17  1  0  0  0  0
 12 47  1  0  0  0  0
 12 48  1  0  0  0  0
 13 18  1  0  0  0  0
 13 49  1  0  0  0  0
 13 50  1  0  0  0  0
 15 19  1  0  0  0  0
 15 51  1  0  0  0  0
 15 52  1  0  0  0  0
 16 20  1  0  0  0  0
 16 53  1  0  0  0  0
 16 54  1  0  0  0  0
 17 21  2  0  0  0  0
 17 22  1  0  0  0  0
 18 23  2  0  0  0  0
 18 24  1  0  0  0  0
 19 25  2  0  0  0  0
 19 26  1  0  0  0  0
 20 27  2  0  0  0  0
 20 28  1  0  0  0  0
 21 29  1  0  0  0  0
 21 57  1  0  0  0  0
 22 30  2  0  0  0  0
 22 58  1  0  0  0  0
 23 31  1  0  0  0  0
 23 59  1  0  0  0  0
 24 32  2  0  0  0  0
 24 60  1  0  0  0  0
 25 33  1  0  0  0  0
 25 61  1  0  0  0  0
 26 34  2  0  0  0  0
 26 62  1  0  0  0  0
 27 35  1  0  0  0  0
 27 63  1  0  0  0  0
 28 36  2  0  0  0  0
 28 64  1  0  0  0  0
 29 37  2  0  0  0  0
 29 65  1  0  0  0  0
 30 37  1  0  0  0  0
 30 66  1  0  0  0  0
 31 38  2  0  0  0  0
 31 67  1  0  0  0  0
 32 38  1  0  0  0  0
 32 68  1  0  0  0  0
 33 39  2  0  0  0  0
 33 69  1  0  0  0  0
 34 39  1  0  0  0  0
 34 70  1  0  0  0  0
 35 40  2  0  0  0  0
 35 71  1  0  0  0  0
 36 40  1  0  0  0  0
 36 72  1  0  0  0  0
 37 73  1  0  0  0  0
 38 74  1  0  0  0  0
 39 41  1  0  0  0  0
 40 42  1  0  0  0  0
 41 75  1  0  0  0  0
 41 76  1  0  0  0  0
 42 77  1  0  0  0  0
 42 78  1  0  0  0  0
M  END
> <PUBCHEM_COMPOUND_CID>
72404

> <PUBCHEM_COMPOUND_CANONICALIZED>
1

> <PUBCHEM_CACTVS_COMPLEXITY>
735

> <PUBCHEM_CACTVS_HBOND_ACCEPTOR>
5

> <PUBCHEM_CACTVS_HBOND_DONOR>
4

> <PUBCHEM_CACTVS_ROTATABLE_BOND>
10

> <PUBCHEM_CACTVS_SUBSKEYS>
AAADcfB/OAAAAAAAAAAAAAAAAAAAAAAAAAAwYMGABYAAAAABVAAAHgAACAAADDzhmAYxAIMAAgCIAiBCEACCAAAgAAAIiAAIDIiLNiKAkRGEcAhuxgOZmAeQwPAOQAAAAAAAAACAAAAAAAAAAAAAAAAAAA==

> <PUBCHEM_IUPAC_OPENEYE_NAME>
(4R,5S,6S,7R)-4,7-dibenzyl-5,6-dihydroxy-1,3-bis[[4-(hydroxymethyl)phenyl]methyl]-1,3-diazepan-2-one

> <PUBCHEM_IUPAC_CAS_NAME>
(4R,5S,6S,7R)-5,6-dihydroxy-1,3-bis[[4-(hydroxymethyl)phenyl]methyl]-4,7-bis(phenylmethyl)-1,3-diazepan-2-one

> <PUBCHEM_IUPAC_NAME>
(4R,5S,6S,7R)-4,7-dibenzyl-5,6-dihydroxy-1,3-bis[[4-(hydroxymethyl)phenyl]methyl]-1,3-diazepan-2-one

> <PUBCHEM_IUPAC_SYSTEMATIC_NAME>
(4R,5S,6S,7R)-1,3-bis[[4-(hydroxymethyl)phenyl]methyl]-5,6-bis(oxidanyl)-4,7-bis(phenylmethyl)-1,3-diazepan-2-one

> <PUBCHEM_IUPAC_TRADITIONAL_NAME>
(4R,5S,6S,7R)-4,7-dibenzyl-5,6-dihydroxy-1,3-bis(4-methylolbenzyl)-1,3-diazepan-2-one

> <PUBCHEM_IUPAC_INCHI>
InChI=1S/C35H38N2O5/c38-23-29-15-11-27(12-16-29)21-36-31(19-25-7-3-1-4-8-25)33(40)34(41)32(20-26-9-5-2-6-10-26)37(35(36)42)22-28-13-17-30(24-39)18-14-28/h1-18,31-34,38-41H,19-24H2/t31-,32-,33+,34+/m1/s1

> <PUBCHEM_IUPAC_INCHIKEY>
XCVGQMUMMDXKCY-WZJLIZBTSA-N

> <PUBCHEM_XLOGP3_AA>
3.5

> <PUBCHEM_EXACT_MASS>
566.278072

> <PUBCHEM_MOLECULAR_FORMULA>
C35H38N2O5

> <PUBCHEM_MOLECULAR_WEIGHT>
566.68662

> <PUBCHEM_OPENEYE_CAN_SMILES>
C1=CC=C(C=C1)CC2C(C(C(N(C(=O)N2CC3=CC=C(C=C3)CO)CC4=CC=C(C=C4)CO)CC5=CC=CC=C5)O)O

> <PUBCHEM_OPENEYE_ISO_SMILES>
C1=CC=C(C=C1)C[C@@H]2[C@@H]([C@H]([C@H](N(C(=O)N2CC3=CC=C(C=C3)CO)CC4=CC=C(C=C4)CO)CC5=CC=CC=C5)O)O

> <PUBCHEM_CACTVS_TPSA>
105

> <PUBCHEM_MONOISOTOPIC_WEIGHT>
566.278072

> <PUBCHEM_TOTAL_CHARGE>
0

> <PUBCHEM_HEAVY_ATOM_COUNT>
42

> <PUBCHEM_ATOM_DEF_STEREO_COUNT>
4

> <PUBCHEM_ATOM_UDEF_STEREO_COUNT>
0

> <PUBCHEM_BOND_DEF_STEREO_COUNT>
0

> <PUBCHEM_BOND_UDEF_STEREO_COUNT>
0

> <PUBCHEM_ISOTOPIC_ATOM_COUNT>
0

> <PUBCHEM_COMPONENT_COUNT>
1

> <PUBCHEM_CACTVS_TAUTO_COUNT>
1

> <PUBCHEM_COORDINATE_TYPE>
1
5
255

> <PUBCHEM_BONDANNOTATIONS>
10  1  5
17  21  8
17  22  8
18  23  8
18  24  8
19  25  8
19  26  8
11  2  6
20  27  8
20  28  8
21  29  8
22  30  8
23  31  8
24  32  8
25  33  8
26  34  8
27  35  8
28  36  8
29  37  8
30  37  8
31  38  8
32  38  8
33  39  8
34  39  8
35  40  8
36  40  8
8  12  5
9  13  6

$$$$

