194618
  -OEChem-07051213102D

 26 27  0     1  0  0  0  0  0999 V2000
    4.6650    0.2809    0.0000 O   0  0  0  0  0  0  0  0  0  0  0  0
    2.0000   -1.7408    0.0000 O   0  0  0  0  0  0  0  0  0  0  0  0
    8.2528    1.2039    0.0000 O   0  0  0  0  0  0  0  0  0  0  0  0
    8.2528   -0.5281    0.0000 O   0  0  0  0  0  0  0  0  0  0  0  0
    3.7139   -1.0281    0.0000 N   0  0  0  0  0  0  0  0  0  0  0  0
    6.2528    1.2039    0.0000 N   0  0  0  0  0  0  0  0  0  0  0  0
    3.7139   -0.0281    0.0000 C   0  0  2  0  0  0  0  0  0  0  0  0
    5.2528   -0.5281    0.0000 C   0  0  2  0  0  0  0  0  0  0  0  0
    4.6650   -1.3372    0.0000 C   0  0  0  0  0  0  0  0  0  0  0  0
    2.7056   -0.0240    0.0000 C   0  0  0  0  0  0  0  0  0  0  0  0
    2.7056   -1.0323    0.0000 C   0  0  0  0  0  0  0  0  0  0  0  0
    6.2528   -0.5281    0.0000 C   0  0  0  0  0  0  0  0  0  0  0  0
    6.7528    0.3379    0.0000 C   0  0  1  0  0  0  0  0  0  0  0  0
    7.7528    0.3379    0.0000 C   0  0  0  0  0  0  0  0  0  0  0  0
    3.5827    0.8117    0.0000 H   0  0  0  0  0  0  0  0  0  0  0  0
    5.5342    0.0243    0.0000 H   0  0  0  0  0  0  0  0  0  0  0  0
    4.4128   -1.9036    0.0000 H   0  0  0  0  0  0  0  0  0  0  0  0
    5.2019   -1.6472    0.0000 H   0  0  0  0  0  0  0  0  0  0  0  0
    2.7074    0.5960    0.0000 H   0  0  0  0  0  0  0  0  0  0  0  0
    2.0856   -0.0231    0.0000 H   0  0  0  0  0  0  0  0  0  0  0  0
    6.1451   -1.1387    0.0000 H   0  0  0  0  0  0  0  0  0  0  0  0
    6.8354   -0.7402    0.0000 H   0  0  0  0  0  0  0  0  0  0  0  0
    7.0628    0.8748    0.0000 H   0  0  0  0  0  0  0  0  0  0  0  0
    6.5628    1.7408    0.0000 H   0  0  0  0  0  0  0  0  0  0  0  0
    5.6328    1.2039    0.0000 H   0  0  0  0  0  0  0  0  0  0  0  0
    8.8728    1.2039    0.0000 H   0  0  0  0  0  0  0  0  0  0  0  0
  1  7  1  0  0  0  0
  1  8  1  0  0  0  0
  2 11  2  0  0  0  0
  3 14  1  0  0  0  0
  3 26  1  0  0  0  0
  4 14  2  0  0  0  0
  5  7  1  0  0  0  0
  5  9  1  0  0  0  0
  5 11  1  0  0  0  0
 13  6  1  6  0  0  0
  6 24  1  0  0  0  0
  6 25  1  0  0  0  0
  7 10  1  0  0  0  0
  7 15  1  1  0  0  0
  8  9  1  0  0  0  0
  8 12  1  1  0  0  0
  8 16  1  0  0  0  0
  9 17  1  0  0  0  0
  9 18  1  0  0  0  0
 10 11  1  0  0  0  0
 10 19  1  0  0  0  0
 10 20  1  0  0  0  0
 12 13  1  0  0  0  0
 12 21  1  0  0  0  0
 12 22  1  0  0  0  0
 13 14  1  0  0  0  0
 13 23  1  0  0  0  0
M  END
> <PUBCHEM_COMPOUND_CID>
194618

> <PUBCHEM_COMPOUND_CANONICALIZED>
1

> <PUBCHEM_CACTVS_COMPLEXITY>
281

> <PUBCHEM_CACTVS_HBOND_ACCEPTOR>
5

> <PUBCHEM_CACTVS_HBOND_DONOR>
2

> <PUBCHEM_CACTVS_ROTATABLE_BOND>
3

> <PUBCHEM_CACTVS_SUBSKEYS>
AAADccBzOAAAAAAAAAAAAAAAAABYAWAAAAAAAAAABYAAAAAAAAAAHgAQCAAACDzhgAYACANABgAIAAGQGAAAAAAAAAAAAIGIAAACAB4AgAAPQAAGNgCQAADaEQIAAAAAAAAAAAAAAAAAAAAAAAAAAAAAAA==

> <PUBCHEM_IUPAC_OPENEYE_NAME>
(2S)-2-amino-3-[(3S,5S)-7-oxo-4-oxa-1-azabicyclo[3.2.0]heptan-3-yl]propanoic acid

> <PUBCHEM_IUPAC_CAS_NAME>
(2S)-2-amino-3-[(3S,5S)-7-oxo-4-oxa-1-azabicyclo[3.2.0]heptan-3-yl]propanoic acid

> <PUBCHEM_IUPAC_NAME>
(2S)-2-amino-3-[(3S,5S)-7-oxo-4-oxa-1-azabicyclo[3.2.0]heptan-3-yl]propanoic acid

> <PUBCHEM_IUPAC_SYSTEMATIC_NAME>
(2S)-2-azanyl-3-[(3S,5S)-7-oxidanylidene-4-oxa-1-azabicyclo[3.2.0]heptan-3-yl]propanoic acid

> <PUBCHEM_IUPAC_TRADITIONAL_NAME>
(2S)-2-amino-3-[(3S,5S)-7-keto-4-oxa-1-azabicyclo[3.2.0]heptan-3-yl]propionic acid

> <PUBCHEM_IUPAC_INCHI>
InChI=1S/C8H12N2O4/c9-5(8(12)13)1-4-3-10-6(11)2-7(10)14-4/h4-5,7H,1-3,9H2,(H,12,13)/t4-,5-,7-/m0/s1

> <PUBCHEM_IUPAC_INCHIKEY>
KCAIYJDHLVYANU-VPLCAKHXSA-N

> <PUBCHEM_XLOGP3_AA>
-3.9

> <PUBCHEM_EXACT_MASS>
200.079707

> <PUBCHEM_MOLECULAR_FORMULA>
C8H12N2O4

> <PUBCHEM_MOLECULAR_WEIGHT>
200.19188

> <PUBCHEM_OPENEYE_CAN_SMILES>
C1C2N(C1=O)CC(O2)CC(C(=O)O)N

> <PUBCHEM_OPENEYE_ISO_SMILES>
C1[C@H]2N(C1=O)C[C@@H](O2)C[C@@H](C(=O)O)N

> <PUBCHEM_CACTVS_TPSA>
92.9

> <PUBCHEM_MONOISOTOPIC_WEIGHT>
200.079707

> <PUBCHEM_TOTAL_CHARGE>
0

> <PUBCHEM_HEAVY_ATOM_COUNT>
14

> <PUBCHEM_ATOM_DEF_STEREO_COUNT>
3

> <PUBCHEM_ATOM_UDEF_STEREO_COUNT>
0

> <PUBCHEM_BOND_DEF_STEREO_COUNT>
0

> <PUBCHEM_BOND_UDEF_STEREO_COUNT>
0

> <PUBCHEM_ISOTOPIC_ATOM_COUNT>
0

> <PUBCHEM_COMPONENT_COUNT>
1

> <PUBCHEM_CACTVS_TAUTO_COUNT>
2

> <PUBCHEM_COORDINATE_TYPE>
1
5
255

> <PUBCHEM_BONDANNOTATIONS>
13  6  6
7  15  5
8  12  5

$$$$

