442552
  -OEChem-07051212583D

 33 34  0     1  0  0  0  0  0999 V2000
   -1.9324    0.6749   -0.2702 N   0  0  1  0  0  0  0  0  0  0  0  0
    0.4675   -0.7591    0.5046 C   0  0  1  0  0  0  0  0  0  0  0  0
    0.4899    0.3859   -0.5091 C   0  0  2  0  0  0  0  0  0  0  0  0
    1.9508    0.8668   -0.4679 C   0  0  2  0  0  0  0  0  0  0  0  0
   -0.8827   -1.4849    0.5014 C   0  0  1  0  0  0  0  0  0  0  0  0
    1.7308   -1.5224    0.1402 C   0  0  0  0  0  0  0  0  0  0  0  0
    2.7561   -0.4056   -0.1035 C   0  0  0  0  0  0  0  0  0  0  0  0
   -0.6345    1.3778   -0.2221 C   0  0  0  0  0  0  0  0  0  0  0  0
   -1.9935   -0.4256    0.7119 C   0  0  0  0  0  0  0  0  0  0  0  0
    2.2314    2.0003    0.5151 C   0  0  0  0  0  0  0  0  0  0  0  0
   -1.1540   -2.3256   -0.7498 C   0  0  0  0  0  0  0  0  0  0  0  0
   -3.0293    1.6176   -0.0506 C   0  0  0  0  0  0  0  0  0  0  0  0
    0.6073   -0.3446    1.5151 H   0  0  0  0  0  0  0  0  0  0  0  0
    0.3271   -0.0197   -1.5191 H   0  0  0  0  0  0  0  0  0  0  0  0
    2.2459    1.2128   -1.4663 H   0  0  0  0  0  0  0  0  0  0  0  0
   -0.9033   -2.1714    1.3580 H   0  0  0  0  0  0  0  0  0  0  0  0
    1.6070   -2.1040   -0.7796 H   0  0  0  0  0  0  0  0  0  0  0  0
    2.0505   -2.2053    0.9329 H   0  0  0  0  0  0  0  0  0  0  0  0
    3.3626   -0.2508    0.7965 H   0  0  0  0  0  0  0  0  0  0  0  0
    3.4408   -0.6850   -0.9117 H   0  0  0  0  0  0  0  0  0  0  0  0
   -0.4990    1.8549    0.7567 H   0  0  0  0  0  0  0  0  0  0  0  0
   -0.6101    2.1672   -0.9829 H   0  0  0  0  0  0  0  0  0  0  0  0
   -2.9693   -0.9237    0.6466 H   0  0  0  0  0  0  0  0  0  0  0  0
   -1.9121   -0.0233    1.7312 H   0  0  0  0  0  0  0  0  0  0  0  0
    1.9370    1.7349    1.5356 H   0  0  0  0  0  0  0  0  0  0  0  0
    3.2997    2.2419    0.5262 H   0  0  0  0  0  0  0  0  0  0  0  0
    1.6925    2.9090    0.2285 H   0  0  0  0  0  0  0  0  0  0  0  0
   -0.4228   -3.1341   -0.8460 H   0  0  0  0  0  0  0  0  0  0  0  0
   -2.1425   -2.7940   -0.6863 H   0  0  0  0  0  0  0  0  0  0  0  0
   -1.1301   -1.7321   -1.6682 H   0  0  0  0  0  0  0  0  0  0  0  0
   -2.9780    2.0896    0.9371 H   0  0  0  0  0  0  0  0  0  0  0  0
   -3.9963    1.1105   -0.1412 H   0  0  0  0  0  0  0  0  0  0  0  0
   -3.0168    2.4062   -0.8112 H   0  0  0  0  0  0  0  0  0  0  0  0
  1  8  1  0  0  0  0
  1  9  1  0  0  0  0
  1 12  1  0  0  0  0
  2  3  1  0  0  0  0
  2  5  1  0  0  0  0
  2  6  1  0  0  0  0
  2 13  1  0  0  0  0
  3  4  1  0  0  0  0
  3  8  1  0  0  0  0
  3 14  1  0  0  0  0
  4  7  1  0  0  0  0
  4 10  1  0  0  0  0
  4 15  1  0  0  0  0
  5  9  1  0  0  0  0
  5 11  1  0  0  0  0
  5 16  1  0  0  0  0
  6  7  1  0  0  0  0
  6 17  1  0  0  0  0
  6 18  1  0  0  0  0
  7 19  1  0  0  0  0
  7 20  1  0  0  0  0
  8 21  1  0  0  0  0
  8 22  1  0  0  0  0
  9 23  1  0  0  0  0
  9 24  1  0  0  0  0
 10 25  1  0  0  0  0
 10 26  1  0  0  0  0
 10 27  1  0  0  0  0
 11 28  1  0  0  0  0
 11 29  1  0  0  0  0
 11 30  1  0  0  0  0
 12 31  1  0  0  0  0
 12 32  1  0  0  0  0
 12 33  1  0  0  0  0
M  END
> <PUBCHEM_COMPOUND_CID>
442552

> <PUBCHEM_CONFORMER_RMSD>
0.4

> <PUBCHEM_CONFORMER_DIVERSEORDER>
1
2

> <PUBCHEM_MMFF94_PARTIAL_CHARGES>
4
1 -0.81
12 0.27
8 0.27
9 0.27

> <PUBCHEM_EFFECTIVE_ROTOR_COUNT>
1.4

> <PUBCHEM_PHARMACOPHORE_FEATURES>
3
1 1 cation
5 2 3 4 6 7 rings
6 1 2 3 5 8 9 rings

> <PUBCHEM_HEAVY_ATOM_COUNT>
12

> <PUBCHEM_ATOM_DEF_STEREO_COUNT>
4

> <PUBCHEM_ATOM_UDEF_STEREO_COUNT>
0

> <PUBCHEM_BOND_DEF_STEREO_COUNT>
0

> <PUBCHEM_BOND_UDEF_STEREO_COUNT>
0

> <PUBCHEM_ISOTOPIC_ATOM_COUNT>
0

> <PUBCHEM_COMPONENT_COUNT>
1

> <PUBCHEM_CACTVS_TAUTO_COUNT>
1

> <PUBCHEM_CONFORMER_ID>
0006C0B800000001

> <PUBCHEM_MMFF94_ENERGY>
29.9781

> <PUBCHEM_FEATURE_SELFOVERLAP>
15.287

> <PUBCHEM_SHAPE_FINGERPRINT>
1 1 18195247938971616479
12423570 1 10676022017696005639
12524768 44 18412541015817217990
12932764 1 18263349301194082778
13380536 237 18264225633309727728
14325111 11 18341610460095267061
15775835 57 18342730866427617333
16945 1 18409729594781615066
18186145 218 18261392312299608285
193761 8 18339081475686822126
19973954 147 18339640023499361552
20511035 2 18200863063091936767
20525323 117 18196097633636567064
20871998 184 18264477413019970263
21040471 1 18342452638519950996
21501502 16 18339648828445952000
21524375 3 18270119140447121421
2334 1 18341047402471984872
23388829 49 17545605552132927740
23419403 2 14460431407271281684
23552423 10 18129658591461772246
23559900 14 18335409189694158676
241688 4 16537355051804680979
2748010 2 18342168977573613853
369184 2 18263359200824655306
5084963 1 17774712168797335125
5255222 1 18271250511994710212
528886 8 18268432502094042985
53812653 166 18340769329447210296
53812654 25 18125456442830892650
6333449 129 18410295770102488413
66348 1 18268989954489526640
81228 2 18126286333527982139

> <PUBCHEM_SHAPE_MULTIPOLES>
241.97
3.87
2.36
0.82
0.17
0.28
0.01
-1.47
0.09
0.38
-0.12
0.06
0.1
0.08

> <PUBCHEM_SHAPE_SELFOVERLAP>
487.635

> <PUBCHEM_SHAPE_VOLUME>
141.9

> <PUBCHEM_COORDINATE_TYPE>
2
5
10

$$$$

