8431
  -OEChem-06261202493D

 25 25  0     0  0  0  0  0  0999 V2000
   -1.7639    0.3070    0.0573 O   0  0  0  0  0  0  0  0  0  0  0  0
   -1.1316   -1.8789   -0.1651 O   0  0  0  0  0  0  0  0  0  0  0  0
    0.4654   -0.2402    0.2394 N   0  0  0  0  0  0  0  0  0  0  0  0
    3.1673    0.6417   -0.0606 N   0  0  0  0  0  0  0  0  0  0  0  0
    0.8111    1.1654    0.4679 C   0  0  0  0  0  0  0  0  0  0  0  0
    1.5703   -1.1843    0.3917 C   0  0  0  0  0  0  0  0  0  0  0  0
    2.0566    1.5597   -0.3229 C   0  0  0  0  0  0  0  0  0  0  0  0
    2.7944   -0.7334   -0.4005 C   0  0  0  0  0  0  0  0  0  0  0  0
   -0.8365   -0.7007    0.0270 C   0  0  0  0  0  0  0  0  0  0  0  0
   -3.1263   -0.0830   -0.1499 C   0  0  0  0  0  0  0  0  0  0  0  0
   -4.0067    1.1467   -0.0843 C   0  0  0  0  0  0  0  0  0  0  0  0
    0.9852    1.2818    1.5446 H   0  0  0  0  0  0  0  0  0  0  0  0
   -0.0182    1.8249    0.1966 H   0  0  0  0  0  0  0  0  0  0  0  0
    1.2666   -2.1867    0.0730 H   0  0  0  0  0  0  0  0  0  0  0  0
    1.8030   -1.2375    1.4623 H   0  0  0  0  0  0  0  0  0  0  0  0
    1.8327    1.5714   -1.3969 H   0  0  0  0  0  0  0  0  0  0  0  0
    2.3569    2.5752   -0.0437 H   0  0  0  0  0  0  0  0  0  0  0  0
    3.6356   -1.3988   -0.1788 H   0  0  0  0  0  0  0  0  0  0  0  0
    2.5963   -0.8079   -1.4770 H   0  0  0  0  0  0  0  0  0  0  0  0
    3.9731    0.9199   -0.6201 H   0  0  0  0  0  0  0  0  0  0  0  0
   -3.2246   -0.5563   -1.1331 H   0  0  0  0  0  0  0  0  0  0  0  0
   -3.4247   -0.7936    0.6288 H   0  0  0  0  0  0  0  0  0  0  0  0
   -5.0571    0.8846   -0.2389 H   0  0  0  0  0  0  0  0  0  0  0  0
   -3.9049    1.6421    0.8870 H   0  0  0  0  0  0  0  0  0  0  0  0
   -3.7082    1.8753   -0.8453 H   0  0  0  0  0  0  0  0  0  0  0  0
  1  9  1  0  0  0  0
  1 10  1  0  0  0  0
  2  9  2  0  0  0  0
  3  5  1  0  0  0  0
  3  6  1  0  0  0  0
  3  9  1  0  0  0  0
  4  7  1  0  0  0  0
  4  8  1  0  0  0  0
  4 20  1  0  0  0  0
  5  7  1  0  0  0  0
  5 12  1  0  0  0  0
  5 13  1  0  0  0  0
  6  8  1  0  0  0  0
  6 14  1  0  0  0  0
  6 15  1  0  0  0  0
  7 16  1  0  0  0  0
  7 17  1  0  0  0  0
  8 18  1  0  0  0  0
  8 19  1  0  0  0  0
 10 11  1  0  0  0  0
 10 21  1  0  0  0  0
 10 22  1  0  0  0  0
 11 23  1  0  0  0  0
 11 24  1  0  0  0  0
 11 25  1  0  0  0  0
M  END
> <PUBCHEM_COMPOUND_CID>
8431

> <PUBCHEM_CONFORMER_RMSD>
0.6

> <PUBCHEM_CONFORMER_DIVERSEORDER>
1
6
10
7
9
11
4
5
8
3
2

> <PUBCHEM_MMFF94_PARTIAL_CHARGES>
11
1 -0.43
10 0.28
2 -0.57
20 0.36
3 -0.66
4 -0.9
5 0.3
6 0.3
7 0.27
8 0.27
9 0.78

> <PUBCHEM_EFFECTIVE_ROTOR_COUNT>
4.2

> <PUBCHEM_PHARMACOPHORE_FEATURES>
4
1 2 acceptor
1 4 cation
1 4 donor
6 3 4 5 6 7 8 rings

> <PUBCHEM_HEAVY_ATOM_COUNT>
11

> <PUBCHEM_ATOM_DEF_STEREO_COUNT>
0

> <PUBCHEM_ATOM_UDEF_STEREO_COUNT>
0

> <PUBCHEM_BOND_DEF_STEREO_COUNT>
0

> <PUBCHEM_BOND_UDEF_STEREO_COUNT>
0

> <PUBCHEM_ISOTOPIC_ATOM_COUNT>
0

> <PUBCHEM_COMPONENT_COUNT>
1

> <PUBCHEM_CACTVS_TAUTO_COUNT>
1

> <PUBCHEM_CONFORMER_ID>
000020EF00000001

> <PUBCHEM_MMFF94_ENERGY>
7.7234

> <PUBCHEM_FEATURE_SELFOVERLAP>
20.297

> <PUBCHEM_SHAPE_FINGERPRINT>
10130415 120 18340493360581513610
10608611 8 18338800005174169705
11062470 55 16588026813932843520
11471102 20 18411704317480497549
12932764 1 17346328110852942787
13380535 21 18341039714559893211
14325111 11 18410856555787927425
14648413 74 18267583503145397928
14897335 6 18337115574655606432
15775835 57 18413106165010172717
177051 138 9439404631341727609
18186145 218 18337107960032090069
20606313 2 18337111258361336037
20653085 51 18342168930329058137
22485316 2 9367339324101653281
23402655 69 18334299790250067053
23552423 10 18269838614457892010
528886 8 18410296882815444850

> <PUBCHEM_SHAPE_MULTIPOLES>
204.67
5.87
1.63
0.66
4.19
0.06
0.01
-1.7
-0.63
-0.3
-0.04
-0.09
-0.02
-0.06

> <PUBCHEM_SHAPE_SELFOVERLAP>
394.351

> <PUBCHEM_SHAPE_VOLUME>
124.4

> <PUBCHEM_COORDINATE_TYPE>
2
5
10

$$$$

