17395721
  -OEChem-06241222523D

 42 45  0     0  0  0  0  0  0999 V2000
    1.3491    1.6917   -0.4206 S   0  0  0  0  0  0  0  0  0  0  0  0
   -4.3860    0.1252   -1.5512 O   0  0  0  0  0  0  0  0  0  0  0  0
    4.1193    2.5808   -0.3632 O   0  0  0  0  0  0  0  0  0  0  0  0
   -4.1396    1.5264    0.2779 N   0  0  0  0  0  0  0  0  0  0  0  0
    0.3120   -0.7517   -0.0844 N   0  0  0  0  0  0  0  0  0  0  0  0
    6.5800    1.1465    0.0972 N   0  0  0  0  0  0  0  0  0  0  0  0
   -5.4477    2.1156    0.2033 C   0  0  0  0  0  0  0  0  0  0  0  0
   -6.0977    2.7160    1.4153 C   0  0  0  0  0  0  0  0  0  0  0  0
   -6.6379    1.4463    0.8253 C   0  0  0  0  0  0  0  0  0  0  0  0
   -3.6877    0.5541   -0.6190 C   0  0  0  0  0  0  0  0  0  0  0  0
   -2.3258    0.0638   -0.4300 C   0  0  0  0  0  0  0  0  0  0  0  0
   -2.0367   -1.2836   -0.1750 C   0  0  0  0  0  0  0  0  0  0  0  0
   -1.3000    0.9944   -0.5109 C   0  0  0  0  0  0  0  0  0  0  0  0
   -0.6856   -1.6526   -0.0064 C   0  0  0  0  0  0  0  0  0  0  0  0
   -0.0095    0.5388   -0.3320 C   0  0  0  0  0  0  0  0  0  0  0  0
   -3.0526   -2.2505   -0.0871 C   0  0  0  0  0  0  0  0  0  0  0  0
   -0.3990   -2.9912    0.2469 C   0  0  0  0  0  0  0  0  0  0  0  0
   -2.7374   -3.5822    0.1670 C   0  0  0  0  0  0  0  0  0  0  0  0
   -1.4089   -3.9527    0.3342 C   0  0  0  0  0  0  0  0  0  0  0  0
    2.7723    0.6056   -0.1244 C   0  0  0  0  0  0  0  0  0  0  0  0
    4.0917    1.3678   -0.1499 C   0  0  0  0  0  0  0  0  0  0  0  0
    5.3254    0.5951    0.0909 C   0  0  0  0  0  0  0  0  0  0  0  0
    5.4557   -0.7529    0.3417 C   0  0  0  0  0  0  0  0  0  0  0  0
    7.5091    0.1708    0.3491 C   0  0  0  0  0  0  0  0  0  0  0  0
    6.8373   -1.0213    0.5050 C   0  0  0  0  0  0  0  0  0  0  0  0
   -5.6101    2.6378   -0.7345 H   0  0  0  0  0  0  0  0  0  0  0  0
   -6.6772    3.6211    1.2815 H   0  0  0  0  0  0  0  0  0  0  0  0
   -5.5827    2.6491    2.3658 H   0  0  0  0  0  0  0  0  0  0  0  0
   -6.4835    0.5285    1.3793 H   0  0  0  0  0  0  0  0  0  0  0  0
   -7.5800    1.4969    0.2935 H   0  0  0  0  0  0  0  0  0  0  0  0
   -3.5243    1.8438    1.0226 H   0  0  0  0  0  0  0  0  0  0  0  0
   -1.5061    2.0414   -0.7129 H   0  0  0  0  0  0  0  0  0  0  0  0
   -4.1031   -1.9973   -0.1990 H   0  0  0  0  0  0  0  0  0  0  0  0
    0.6341   -3.3067    0.3818 H   0  0  0  0  0  0  0  0  0  0  0  0
   -3.5250   -4.3263    0.2373 H   0  0  0  0  0  0  0  0  0  0  0  0
   -1.1539   -4.9894    0.5337 H   0  0  0  0  0  0  0  0  0  0  0  0
    2.8055   -0.1619   -0.9044 H   0  0  0  0  0  0  0  0  0  0  0  0
    2.6657    0.1385    0.8600 H   0  0  0  0  0  0  0  0  0  0  0  0
    6.7901    2.1228   -0.0593 H   0  0  0  0  0  0  0  0  0  0  0  0
    4.6539   -1.4759    0.4033 H   0  0  0  0  0  0  0  0  0  0  0  0
    8.5619    0.4114    0.3945 H   0  0  0  0  0  0  0  0  0  0  0  0
    7.2936   -1.9788    0.7136 H   0  0  0  0  0  0  0  0  0  0  0  0
  1 15  1  0  0  0  0
  1 20  1  0  0  0  0
  2 10  2  0  0  0  0
  3 21  2  0  0  0  0
  4  7  1  0  0  0  0
  4 10  1  0  0  0  0
  4 31  1  0  0  0  0
  5 14  1  0  0  0  0
  5 15  2  0  0  0  0
  6 22  1  0  0  0  0
  6 24  1  0  0  0  0
  6 39  1  0  0  0  0
  7  8  1  0  0  0  0
  7  9  1  0  0  0  0
  7 26  1  0  0  0  0
  8  9  1  0  0  0  0
  8 27  1  0  0  0  0
  8 28  1  0  0  0  0
  9 29  1  0  0  0  0
  9 30  1  0  0  0  0
 10 11  1  0  0  0  0
 11 12  1  0  0  0  0
 11 13  2  0  0  0  0
 12 14  1  0  0  0  0
 12 16  2  0  0  0  0
 13 15  1  0  0  0  0
 13 32  1  0  0  0  0
 14 17  2  0  0  0  0
 16 18  1  0  0  0  0
 16 33  1  0  0  0  0
 17 19  1  0  0  0  0
 17 34  1  0  0  0  0
 18 19  2  0  0  0  0
 18 35  1  0  0  0  0
 19 36  1  0  0  0  0
 20 21  1  0  0  0  0
 20 37  1  0  0  0  0
 20 38  1  0  0  0  0
 21 22  1  0  0  0  0
 22 23  2  0  0  0  0
 23 25  1  0  0  0  0
 23 40  1  0  0  0  0
 24 25  2  0  0  0  0
 24 41  1  0  0  0  0
 25 42  1  0  0  0  0
M  END
> <PUBCHEM_COMPOUND_CID>
17395721

> <PUBCHEM_CONFORMER_RMSD>
1

> <PUBCHEM_CONFORMER_DIVERSEORDER>
1
89
26
93
140
98
34
9
60
14
40
96
84
61
119
78
7
110
165
113
86
45
80
55
151
158
94
123
59
152
137
116
51
25
19
176
150
44
100
117
30
87
138
95
122
121
169
70
141
63
81
132
112
68
136
17
27
66
90
76
85
147
107
79
74
101
145
163
65
62
47
170
155
130
42
64
50
156
28
114
144
75
168
92
13
175
171
172
131
154
5
71
6
109
67
161
35
12
32
2
4
77
49
127
153
174
166
129
58
29
3
162
135
164
57
20
149
22
124
160
99
16
102
72
139
157
103
11
104
106
36
134
120
115
126
10
125
43
48
143
21
18
146
173
167
88
69
23
56
73
82
159
46
148
142
41
53
52
97
133
37
91
118
54
38
39
15
31
8
83
108
111
24
105
33
128

> <PUBCHEM_MMFF94_PARTIAL_CHARGES>
39
1 -0.33
10 0.54
11 0.09
13 -0.15
14 0.31
15 0.41
16 -0.15
17 -0.15
18 -0.15
19 -0.15
2 -0.57
20 0.29
21 0.59
22 -0.24
23 -0.15
24 -0.3
25 -0.15
26 0.1
27 0.1
28 0.1
29 0.1
3 -0.57
30 0.1
31 0.37
32 0.15
33 0.15
34 0.15
35 0.15
36 0.15
39 0.27
4 -0.58
40 0.15
41 0.15
42 0.15
5 -0.62
6 0.03
7 0.05
8 -0.2
9 -0.2

> <PUBCHEM_EFFECTIVE_ROTOR_COUNT>
7.6

> <PUBCHEM_PHARMACOPHORE_FEATURES>
9
1 2 acceptor
1 3 acceptor
1 4 donor
1 5 acceptor
1 6 cation
1 6 donor
5 6 22 23 24 25 rings
6 12 14 16 17 18 19 rings
6 5 11 12 13 14 15 rings

> <PUBCHEM_HEAVY_ATOM_COUNT>
25

> <PUBCHEM_ATOM_DEF_STEREO_COUNT>
0

> <PUBCHEM_ATOM_UDEF_STEREO_COUNT>
0

> <PUBCHEM_BOND_DEF_STEREO_COUNT>
0

> <PUBCHEM_BOND_UDEF_STEREO_COUNT>
0

> <PUBCHEM_ISOTOPIC_ATOM_COUNT>
0

> <PUBCHEM_COMPONENT_COUNT>
1

> <PUBCHEM_CACTVS_TAUTO_COUNT>
14

> <PUBCHEM_CONFORMER_ID>
0109700900000001

> <PUBCHEM_MMFF94_ENERGY>
61.1664

> <PUBCHEM_FEATURE_SELFOVERLAP>
45.7

> <PUBCHEM_SHAPE_FINGERPRINT>
10050765 1 18194681467461984636
10165383 225 18410011074702548881
10411042 1 17834395619171351167
10493431 412 18411415138049765613
10835480 77 18264780874541281352
10906281 52 18334002909183253364
11036077 3 18411699919929735073
11405975 8 18339644434847694344
11720765 8 16600156351644812375
11796584 16 18335699421845421750
12107183 9 18341894099957209952
12549972 3 17896894148588015424
12616971 3 17275102800194348532
12643181 29 18412832391685511042
13073987 5 18267304219008202916
13540713 5 17914601766210622613
13914758 101 16153703280111520056
14251764 18 18409730659807235404
14420673 8 18341895204096250714
14790565 3 18122342642753644569
14866123 147 18339358561840459427
15021287 119 17060339595876334532
15042514 8 18199749154934413599
15183329 4 18343029895505327020
15196674 1 18269840822645822398
15537594 2 17489597770513695568
15927050 60 18409731789732391431
16991971 28 9871163039713613081
17492 89 17911239417178054446
17844677 252 18196649606186433676
17913733 40 18265032778583088099
19141452 34 18342740698203811564
19301679 30 17982156830079346043
21065198 57 18266744567668799260
21236236 1 18410577241164312871
21403212 168 18339363071402983333
21424621 283 18187922945215506929
21756936 100 18260268560377131933
23522609 53 17916281897841527436
23559900 14 18337964372685820352
23569917 315 18412823569459363943
2838139 119 17603592945527702209
3004659 81 18130794430809083164
3009799 131 5328738552600561433
312425 54 18409739439548394928
335352 9 18411983559491127972
4073 2 18270401573744916888
4093350 32 17096365201776873398
4214541 1 18341898438047920958
5104073 3 18270688550216323672
5385378 56 18267298910106728971
559249 180 18342746187235598402
6371380 46 18334020505401144664
7226269 152 18040997366659043313

> <PUBCHEM_SHAPE_MULTIPOLES>
491.66
17.97
3.86
0.88
21.11
3.78
-0.01
-11.5
-4.69
-4.89
-0.7
-0.93
-0.27
-1.53

> <PUBCHEM_SHAPE_SELFOVERLAP>
1058.426

> <PUBCHEM_SHAPE_VOLUME>
273.2

> <PUBCHEM_COORDINATE_TYPE>
2
5
10

$$$$

