11110
  -OEChem-06261205192D

 31 32  0     0  0  0  0  0  0999 V2000
    2.0000    1.0000    0.0000 O   0  0  0  0  0  0  0  0  0  0  0  0
    2.0000   -1.0000    0.0000 O   0  0  0  0  0  0  0  0  0  0  0  0
    6.3981   -0.5208    0.0000 N   0  3  0  0  0  0  0  0  0  0  0  0
    5.4920    1.0347    0.0000 C   0  0  0  0  0  0  0  0  0  0  0  0
    6.3981    0.5208    0.0000 C   0  0  0  0  0  0  0  0  0  0  0  0
    4.5981    0.5000    0.0000 C   0  0  0  0  0  0  0  0  0  0  0  0
    4.5981   -0.5000    0.0000 C   0  0  0  0  0  0  0  0  0  0  0  0
    5.4920   -1.0347    0.0000 C   0  0  0  0  0  0  0  0  0  0  0  0
    3.7320    1.0000    0.0000 C   0  0  0  0  0  0  0  0  0  0  0  0
    3.7320   -1.0000    0.0000 C   0  0  0  0  0  0  0  0  0  0  0  0
    2.8660    0.5000    0.0000 C   0  0  0  0  0  0  0  0  0  0  0  0
    2.8660   -0.5000    0.0000 C   0  0  0  0  0  0  0  0  0  0  0  0
    7.2622   -1.0241    0.0000 C   0  0  0  0  0  0  0  0  0  0  0  0
    2.0000    2.0000    0.0000 C   0  0  0  0  0  0  0  0  0  0  0  0
    2.0000   -2.0000    0.0000 C   0  0  0  0  0  0  0  0  0  0  0  0
    5.8856    1.5137    0.0000 H   0  0  0  0  0  0  0  0  0  0  0  0
    5.0874    1.5044    0.0000 H   0  0  0  0  0  0  0  0  0  0  0  0
    7.0089    0.4147    0.0000 H   0  0  0  0  0  0  0  0  0  0  0  0
    6.6071    1.1045    0.0000 H   0  0  0  0  0  0  0  0  0  0  0  0
    5.4848   -1.6546    0.0000 H   0  0  0  0  0  0  0  0  0  0  0  0
    3.7320    1.6200    0.0000 H   0  0  0  0  0  0  0  0  0  0  0  0
    3.7320   -1.6200    0.0000 H   0  0  0  0  0  0  0  0  0  0  0  0
    6.9501   -1.5599    0.0000 H   0  0  0  0  0  0  0  0  0  0  0  0
    7.7979   -1.3362    0.0000 H   0  0  0  0  0  0  0  0  0  0  0  0
    7.5742   -0.4884    0.0000 H   0  0  0  0  0  0  0  0  0  0  0  0
    2.6200    2.0000    0.0000 H   0  0  0  0  0  0  0  0  0  0  0  0
    2.0000    2.6200    0.0000 H   0  0  0  0  0  0  0  0  0  0  0  0
    1.3800    2.0000    0.0000 H   0  0  0  0  0  0  0  0  0  0  0  0
    1.3800   -2.0000    0.0000 H   0  0  0  0  0  0  0  0  0  0  0  0
    2.0000   -2.6200    0.0000 H   0  0  0  0  0  0  0  0  0  0  0  0
    2.6200   -2.0000    0.0000 H   0  0  0  0  0  0  0  0  0  0  0  0
  1 11  1  0  0  0  0
  1 14  1  0  0  0  0
  2 12  1  0  0  0  0
  2 15  1  0  0  0  0
  3  5  1  0  0  0  0
  3  8  2  0  0  0  0
  3 13  1  0  0  0  0
  4  5  1  0  0  0  0
  4  6  1  0  0  0  0
  4 16  1  0  0  0  0
  4 17  1  0  0  0  0
  5 18  1  0  0  0  0
  5 19  1  0  0  0  0
  6  7  1  0  0  0  0
  6  9  2  0  0  0  0
  7  8  1  0  0  0  0
  7 10  2  0  0  0  0
  8 20  1  0  0  0  0
  9 11  1  0  0  0  0
  9 21  1  0  0  0  0
 10 12  1  0  0  0  0
 10 22  1  0  0  0  0
 11 12  2  0  0  0  0
 13 23  1  0  0  0  0
 13 24  1  0  0  0  0
 13 25  1  0  0  0  0
 14 26  1  0  0  0  0
 14 27  1  0  0  0  0
 14 28  1  0  0  0  0
 15 29  1  0  0  0  0
 15 30  1  0  0  0  0
 15 31  1  0  0  0  0
M  CHG  1   3   1
M  END
> <PUBCHEM_COMPOUND_CID>
11110

> <PUBCHEM_COMPOUND_CANONICALIZED>
1

> <PUBCHEM_CACTVS_COMPLEXITY>
252

> <PUBCHEM_CACTVS_HBOND_ACCEPTOR>
2

> <PUBCHEM_CACTVS_HBOND_DONOR>
0

> <PUBCHEM_CACTVS_ROTATABLE_BOND>
2

> <PUBCHEM_CACTVS_SUBSKEYS>
AAADceByMAAAAAAAAAAAAAAAAAAAAAAAAAAwQAAAAAAAAACBAAAAHgAAAAAADATBmAYyBoMABACgAjBjBAACCAAgIAAAiAAuiJgNJqKEsRuEMCIkwBEKqAeQ0LIOoAABAAAQQABAAAIAACCAAAAAAAAAAA==

> <PUBCHEM_IUPAC_OPENEYE_NAME>
6,7-dimethoxy-2-methyl-3,4-dihydroisoquinolin-2-ium

> <PUBCHEM_IUPAC_CAS_NAME>
6,7-dimethoxy-2-methyl-3,4-dihydroisoquinolin-2-ium

> <PUBCHEM_IUPAC_NAME>
6,7-dimethoxy-2-methyl-3,4-dihydroisoquinolin-2-ium

> <PUBCHEM_IUPAC_SYSTEMATIC_NAME>
6,7-dimethoxy-2-methyl-3,4-dihydroisoquinolin-2-ium

> <PUBCHEM_IUPAC_TRADITIONAL_NAME>
6,7-dimethoxy-2-methyl-3,4-dihydroisoquinolin-2-ium

> <PUBCHEM_IUPAC_INCHI>
InChI=1S/C12H16NO2/c1-13-5-4-9-6-11(14-2)12(15-3)7-10(9)8-13/h6-8H,4-5H2,1-3H3/q+1

> <PUBCHEM_IUPAC_INCHIKEY>
AWOUIWVQSFMVNU-UHFFFAOYSA-N

> <PUBCHEM_XLOGP3_AA>
1.2

> <PUBCHEM_EXACT_MASS>
206.118104

> <PUBCHEM_MOLECULAR_FORMULA>
C12H16NO2+

> <PUBCHEM_MOLECULAR_WEIGHT>
206.26094

> <PUBCHEM_OPENEYE_CAN_SMILES>
C[N+]1=CC2=CC(=C(C=C2CC1)OC)OC

> <PUBCHEM_OPENEYE_ISO_SMILES>
C[N+]1=CC2=CC(=C(C=C2CC1)OC)OC

> <PUBCHEM_CACTVS_TPSA>
21.5

> <PUBCHEM_MONOISOTOPIC_WEIGHT>
206.118104

> <PUBCHEM_TOTAL_CHARGE>
1

> <PUBCHEM_HEAVY_ATOM_COUNT>
15

> <PUBCHEM_ATOM_DEF_STEREO_COUNT>
0

> <PUBCHEM_ATOM_UDEF_STEREO_COUNT>
0

> <PUBCHEM_BOND_DEF_STEREO_COUNT>
0

> <PUBCHEM_BOND_UDEF_STEREO_COUNT>
0

> <PUBCHEM_ISOTOPIC_ATOM_COUNT>
0

> <PUBCHEM_COMPONENT_COUNT>
1

> <PUBCHEM_CACTVS_TAUTO_COUNT>
1

> <PUBCHEM_COORDINATE_TYPE>
1
5
255

> <PUBCHEM_BONDANNOTATIONS>
10  12  8
11  12  8
6  7  8
6  9  8
7  10  8
9  11  8

$$$$

