443139
  -OEChem-07051213013D

 14 14  0     1  0  0  0  0  0999 V2000
   -1.9963    1.2853    0.7600 Cl  0  0  0  0  0  0  0  0  0  0  0  0
    2.0047    1.2738   -0.7596 Cl  0  0  0  0  0  0  0  0  0  0  0  0
   -0.6725    0.8466   -0.3775 C   0  0  1  0  0  0  0  0  0  0  0  0
    0.6778    0.8424    0.3776 C   0  0  1  0  0  0  0  0  0  0  0  0
   -1.0299   -0.4881   -0.9796 C   0  0  0  0  0  0  0  0  0  0  0  0
    1.0268   -0.4948    0.9793 C   0  0  0  0  0  0  0  0  0  0  0  0
   -0.4794   -1.6310   -0.5440 C   0  0  0  0  0  0  0  0  0  0  0  0
    0.4688   -1.6342    0.5438 C   0  0  0  0  0  0  0  0  0  0  0  0
   -0.6818    1.6180   -1.1549 H   0  0  0  0  0  0  0  0  0  0  0  0
    0.6918    1.6134    1.1553 H   0  0  0  0  0  0  0  0  0  0  0  0
   -1.7575   -0.5142   -1.7854 H   0  0  0  0  0  0  0  0  0  0  0  0
    1.7544   -0.5257    1.7850 H   0  0  0  0  0  0  0  0  0  0  0  0
   -0.7545   -2.5834   -0.9832 H   0  0  0  0  0  0  0  0  0  0  0  0
    0.7376   -2.5883    0.9829 H   0  0  0  0  0  0  0  0  0  0  0  0
  1  3  1  0  0  0  0
  2  4  1  0  0  0  0
  3  4  1  0  0  0  0
  3  5  1  0  0  0  0
  3  9  1  0  0  0  0
  4  6  1  0  0  0  0
  4 10  1  0  0  0  0
  5  7  2  0  0  0  0
  5 11  1  0  0  0  0
  6  8  2  0  0  0  0
  6 12  1  0  0  0  0
  7  8  1  0  0  0  0
  7 13  1  0  0  0  0
  8 14  1  0  0  0  0
M  END
> <PUBCHEM_COMPOUND_CID>
443139

> <PUBCHEM_CONFORMER_RMSD>
0.4

> <PUBCHEM_CONFORMER_DIVERSEORDER>
1
4
2
3

> <PUBCHEM_MMFF94_PARTIAL_CHARGES>
12
1 -0.29
11 0.15
12 0.15
13 0.15
14 0.15
2 -0.29
3 0.43
4 0.43
5 -0.29
6 -0.29
7 -0.15
8 -0.15

> <PUBCHEM_EFFECTIVE_ROTOR_COUNT>
0.4

> <PUBCHEM_PHARMACOPHORE_FEATURES>
1
6 3 4 5 6 7 8 rings

> <PUBCHEM_HEAVY_ATOM_COUNT>
8

> <PUBCHEM_ATOM_DEF_STEREO_COUNT>
0

> <PUBCHEM_ATOM_UDEF_STEREO_COUNT>
2

> <PUBCHEM_BOND_DEF_STEREO_COUNT>
0

> <PUBCHEM_BOND_UDEF_STEREO_COUNT>
0

> <PUBCHEM_ISOTOPIC_ATOM_COUNT>
0

> <PUBCHEM_COMPONENT_COUNT>
1

> <PUBCHEM_CACTVS_TAUTO_COUNT>
1

> <PUBCHEM_CONFORMER_ID>
0006C30300000001

> <PUBCHEM_MMFF94_ENERGY>
9.4598

> <PUBCHEM_FEATURE_SELFOVERLAP>
5.074

> <PUBCHEM_SHAPE_FINGERPRINT>
10702982 57 18338782451526708452
13024252 1 11597786501357750092
137420 1 15032087358064325805
18185500 45 18051168905629764830
20653091 64 17688565566174376801
21040471 1 18187938312455224961
29004967 10 17550103005778096963
5084963 1 18268733716756328623
528862 383 18200307861196227024
5943 1 8862671242998611681

> <PUBCHEM_SHAPE_MULTIPOLES>
168.38
2.12
1.95
1.12
0.01
0.46
0
-1.26
0
-0.01
0
0
0.05
-0.65

> <PUBCHEM_SHAPE_SELFOVERLAP>
318.691

> <PUBCHEM_SHAPE_VOLUME>
103.5

> <PUBCHEM_COORDINATE_TYPE>
2
5
10

$$$$

