17396560
  -OEChem-06241222573D

 38 39  0     0  0  0  0  0  0999 V2000
   -5.6428    2.2179   -0.6040 Cl  0  0  0  0  0  0  0  0  0  0  0  0
   -0.1154   -1.8281    0.5326 O   0  0  0  0  0  0  0  0  0  0  0  0
    5.7954    0.8194   -0.7478 O   0  0  0  0  0  0  0  0  0  0  0  0
    1.7616    1.1770    0.5228 N   0  0  0  0  0  0  0  0  0  0  0  0
   -0.9510    0.3141    0.0398 N   0  0  0  0  0  0  0  0  0  0  0  0
    2.5749   -0.7799   -0.1414 C   0  0  0  0  0  0  0  0  0  0  0  0
    3.6434    0.1460   -0.0504 C   0  0  0  0  0  0  0  0  0  0  0  0
    1.4232   -0.1158    0.2189 C   0  0  0  0  0  0  0  0  0  0  0  0
    3.1121    1.3477    0.3628 C   0  0  0  0  0  0  0  0  0  0  0  0
    2.6785   -2.1972   -0.5485 C   0  0  0  0  0  0  0  0  0  0  0  0
    0.0316   -0.6353    0.2898 C   0  0  0  0  0  0  0  0  0  0  0  0
    3.7476    2.6537    0.6257 C   0  0  0  0  0  0  0  0  0  0  0  0
    5.0341   -0.0794   -0.3263 C   0  0  0  0  0  0  0  0  0  0  0  0
   -2.3267    0.0819    0.0175 C   0  0  0  0  0  0  0  0  0  0  0  0
    5.6599   -1.4575   -0.1138 C   0  0  0  0  0  0  0  0  0  0  0  0
   -3.2077    1.1305   -0.2475 C   0  0  0  0  0  0  0  0  0  0  0  0
   -2.8206   -1.1996    0.2610 C   0  0  0  0  0  0  0  0  0  0  0  0
   -5.0768   -0.3843   -0.0251 C   0  0  0  0  0  0  0  0  0  0  0  0
   -4.5829    0.8973   -0.2688 C   0  0  0  0  0  0  0  0  0  0  0  0
   -4.1956   -1.4327    0.2398 C   0  0  0  0  0  0  0  0  0  0  0  0
   -6.5429   -0.6757   -0.0371 C   0  0  0  0  0  0  0  0  0  0  0  0
    1.1170    1.8934    0.8280 H   0  0  0  0  0  0  0  0  0  0  0  0
    3.0046   -2.8207    0.2894 H   0  0  0  0  0  0  0  0  0  0  0  0
    1.7247   -2.5933   -0.9090 H   0  0  0  0  0  0  0  0  0  0  0  0
    3.3761   -2.3221   -1.3814 H   0  0  0  0  0  0  0  0  0  0  0  0
    4.6206    2.5365    1.2757 H   0  0  0  0  0  0  0  0  0  0  0  0
    4.0750    3.1154   -0.3113 H   0  0  0  0  0  0  0  0  0  0  0  0
    3.0601    3.3486    1.1195 H   0  0  0  0  0  0  0  0  0  0  0  0
   -0.6653    1.2683   -0.1647 H   0  0  0  0  0  0  0  0  0  0  0  0
    5.5612   -2.0577   -1.0202 H   0  0  0  0  0  0  0  0  0  0  0  0
    5.2051   -1.9613    0.7424 H   0  0  0  0  0  0  0  0  0  0  0  0
    6.7245   -1.3318    0.1089 H   0  0  0  0  0  0  0  0  0  0  0  0
   -2.8201    2.1293   -0.4376 H   0  0  0  0  0  0  0  0  0  0  0  0
   -2.2183   -2.0696    0.4742 H   0  0  0  0  0  0  0  0  0  0  0  0
   -4.5639   -2.4372    0.4319 H   0  0  0  0  0  0  0  0  0  0  0  0
   -7.0585   -0.0860    0.7282 H   0  0  0  0  0  0  0  0  0  0  0  0
   -6.9713   -0.4531   -1.0199 H   0  0  0  0  0  0  0  0  0  0  0  0
   -6.7512   -1.7304    0.1740 H   0  0  0  0  0  0  0  0  0  0  0  0
  1 19  1  0  0  0  0
  2 11  2  0  0  0  0
  3 13  2  0  0  0  0
  4  8  1  0  0  0  0
  4  9  1  0  0  0  0
  4 22  1  0  0  0  0
  5 11  1  0  0  0  0
  5 14  1  0  0  0  0
  5 29  1  0  0  0  0
  6  7  1  0  0  0  0
  6  8  2  0  0  0  0
  6 10  1  0  0  0  0
  7  9  2  0  0  0  0
  7 13  1  0  0  0  0
  8 11  1  0  0  0  0
  9 12  1  0  0  0  0
 10 23  1  0  0  0  0
 10 24  1  0  0  0  0
 10 25  1  0  0  0  0
 12 26  1  0  0  0  0
 12 27  1  0  0  0  0
 12 28  1  0  0  0  0
 13 15  1  0  0  0  0
 14 16  2  0  0  0  0
 14 17  1  0  0  0  0
 15 30  1  0  0  0  0
 15 31  1  0  0  0  0
 15 32  1  0  0  0  0
 16 19  1  0  0  0  0
 16 33  1  0  0  0  0
 17 20  2  0  0  0  0
 17 34  1  0  0  0  0
 18 19  2  0  0  0  0
 18 20  1  0  0  0  0
 18 21  1  0  0  0  0
 20 35  1  0  0  0  0
 21 36  1  0  0  0  0
 21 37  1  0  0  0  0
 21 38  1  0  0  0  0
M  END
> <PUBCHEM_COMPOUND_CID>
17396560

> <PUBCHEM_CONFORMER_RMSD>
0.6

> <PUBCHEM_CONFORMER_DIVERSEORDER>
1
35
27
34
50
30
7
24
10
49
6
53
12
42
47
43
17
3
52
9
28
22
11
41
48
5
54
8
31
46
18
19
4
45
21
36
29
26
32
2
37
25
39
20
44
13
40
15
38
51
23
33
16
14

> <PUBCHEM_MMFF94_PARTIAL_CHARGES>
26
1 -0.18
10 0.18
11 0.71
12 0.18
13 0.6
14 0.12
15 0.06
16 -0.15
17 -0.15
18 -0.14
19 0.18
2 -0.57
20 -0.15
21 0.14
22 0.27
29 0.37
3 -0.57
33 0.15
34 0.15
35 0.15
4 0.03
5 -0.55
6 -0.18
7 -0.09
8 -0.24
9 -0.33

> <PUBCHEM_EFFECTIVE_ROTOR_COUNT>
4

> <PUBCHEM_PHARMACOPHORE_FEATURES>
7
1 2 acceptor
1 3 acceptor
1 4 cation
1 4 donor
1 5 donor
5 4 6 7 8 9 rings
6 14 16 17 18 19 20 rings

> <PUBCHEM_HEAVY_ATOM_COUNT>
21

> <PUBCHEM_ATOM_DEF_STEREO_COUNT>
0

> <PUBCHEM_ATOM_UDEF_STEREO_COUNT>
0

> <PUBCHEM_BOND_DEF_STEREO_COUNT>
0

> <PUBCHEM_BOND_UDEF_STEREO_COUNT>
0

> <PUBCHEM_ISOTOPIC_ATOM_COUNT>
0

> <PUBCHEM_COMPONENT_COUNT>
1

> <PUBCHEM_CACTVS_TAUTO_COUNT>
52

> <PUBCHEM_CONFORMER_ID>
0109735000000001

> <PUBCHEM_MMFF94_ENERGY>
51.4517

> <PUBCHEM_FEATURE_SELFOVERLAP>
35.522

> <PUBCHEM_SHAPE_FINGERPRINT>
10366900 7 15913611657485723277
11719270 70 18261397793058043558
12107183 9 17687178008216887651
12166972 35 18412822460898573181
12236239 1 17561082518423858979
12403259 415 18409732828707658697
12596602 18 14836394813810994293
12616971 3 17530971254447106645
12730499 353 18410568466319312866
13081056 2 18411140208070691465
13402501 40 18412546500490734245
13533116 47 4678548932016739916
13668630 136 16805319977252915023
14251764 18 18202286901365883482
14341114 176 18411133602669466113
14528608 73 18409450254292796445
14933364 13 18411697695189683101
15183329 4 18410289255022111842
15196674 1 18410857637824618289
15475509 35 5255852958494433606
15778101 99 18339641256962408769
15788980 27 17748830708756554101
15961568 22 17702945816793359236
17834072 33 18333733502895852127
17844677 252 18408316688291778241
200 152 17749106699007299819
20281389 69 18272653454461626753
20645477 56 18272089426914305013
20645477 70 18114459054214889278
21033648 29 18339370681626258761
21267235 1 18408315592673931243
21279426 13 18338516459906872724
21315763 129 18410577292682658925
21709351 56 18335707126040818125
221357 26 18334858320291867337
22289505 5 18335985363071298548
23402539 116 18411985762397666558
23402655 69 18335422386873137838
23557571 272 17917995001017582077
23559900 14 18335708281592735787
239999 70 18187361017849066390
29717793 49 17095232623121882516
3004659 81 18413672426425635816
335352 9 18409445878744709774
34797466 226 17968367966402535349
351380 180 18410012130583495434
3545911 37 18411135831730807049
4072396 5 18336275621799572082
4073 2 18060132107408714490
4214541 1 18410575106670840753
495365 180 17968102967542591552
5104073 3 18343303704139410473
542803 24 17275102833915711405
633830 44 18341060635319081958
77779 3 18409730655907465107
90127 26 18272366447514272313

> <PUBCHEM_SHAPE_MULTIPOLES>
412.34
15.71
2.22
0.73
6.09
0.65
0.02
1.75
2.21
-0.62
-0.06
-0.12
0.07
1.11

> <PUBCHEM_SHAPE_SELFOVERLAP>
872.74

> <PUBCHEM_SHAPE_VOLUME>
234.2

> <PUBCHEM_COORDINATE_TYPE>
2
5
10

$$$$

