441927
  -OEChem-07051212562D

120126  0     1  0  0  0  0  0999 V2000
    7.7150   -2.2738    0.0000 O   0  0  0  0  0  0  0  0  0  0  0  0
   16.6401    0.8128    0.0000 O   0  0  0  0  0  0  0  0  0  0  0  0
    9.5292   -4.0516    0.0000 O   0  0  0  0  0  0  0  0  0  0  0  0
   15.7856   -0.6939    0.0000 O   0  0  0  0  0  0  0  0  0  0  0  0
    5.9829   -2.2671    0.0000 O   0  0  0  0  0  0  0  0  0  0  0  0
    7.7227   -0.2738    0.0000 O   0  0  0  0  0  0  0  0  0  0  0  0
    5.9945    0.7329    0.0000 O   0  0  0  0  0  0  0  0  0  0  0  0
    4.2586   -0.2604    0.0000 O   0  0  0  0  0  0  0  0  0  0  0  0
    4.2470   -3.2604    0.0000 O   0  0  0  0  0  0  0  0  0  0  0  0
    4.2625    0.7396    0.0000 O   0  0  0  0  0  0  0  0  0  0  0  0
    3.3868   -1.7571    0.0000 O   0  0  0  0  0  0  0  0  0  0  0  0
    6.0022    2.7329    0.0000 O   0  0  0  0  0  0  0  0  0  0  0  0
    4.2740    3.7396    0.0000 O   0  0  0  0  0  0  0  0  0  0  0  0
    2.5381    2.7462    0.0000 O   0  0  0  0  0  0  0  0  0  0  0  0
   12.2420   -0.7214    0.0000 C   0  0  2  0  0  0  0  0  0  0  0  0
   11.3760   -0.2214    0.0000 C   0  0  1  0  0  0  0  0  0  0  0  0
   10.4660   -0.7283    0.0000 C   0  0  2  0  0  0  0  0  0  0  0  0
   13.1081   -0.2214    0.0000 C   0  0  1  0  0  0  0  0  0  0  0  0
   10.4580   -1.7699    0.0000 C   0  0  1  0  0  0  0  0  0  0  0  0
   12.2581   -1.7629    0.0000 C   0  0  0  0  0  0  0  0  0  0  0  0
   13.1081    0.7786    0.0000 C   0  0  0  0  0  0  0  0  0  0  0  0
   11.3600   -2.2907    0.0000 C   0  0  0  0  0  0  0  0  0  0  0  0
    9.5226   -2.3196    0.0000 C   0  0  2  0  0  0  0  0  0  0  0  0
   14.0020    1.3132    0.0000 C   0  0  1  0  0  0  0  0  0  0  0  0
   11.3760    0.7786    0.0000 C   0  0  0  0  0  0  0  0  0  0  0  0
   14.0020   -0.7561    0.0000 C   0  0  0  0  0  0  0  0  0  0  0  0
    9.5392   -0.1642    0.0000 C   0  0  0  0  0  0  0  0  0  0  0  0
   14.9081    0.7994    0.0000 C   0  0  1  0  0  0  0  0  0  0  0  0
   12.8848   -1.4875    0.0000 C   0  0  0  0  0  0  0  0  0  0  0  0
   14.9081   -0.2422    0.0000 C   0  0  0  0  0  0  0  0  0  0  0  0
    8.5829   -1.7771    0.0000 C   0  0  2  0  0  0  0  0  0  0  0  0
   12.2420    1.2786    0.0000 C   0  0  0  0  0  0  0  0  0  0  0  0
   10.4737    0.2717    0.0000 C   0  0  0  0  0  0  0  0  0  0  0  0
    8.5913   -0.6921    0.0000 C   0  0  0  0  0  0  0  0  0  0  0  0
   13.4502   -1.1611    0.0000 C   0  0  0  0  0  0  0  0  0  0  0  0
   13.9769    2.3979    0.0000 C   0  0  0  0  0  0  0  0  0  0  0  0
   15.8518    1.3346    0.0000 C   0  0  0  0  0  0  0  0  0  0  0  0
   14.9081    2.9549    0.0000 C   0  0  0  0  0  0  0  0  0  0  0  0
   15.8518    2.4196    0.0000 C   0  0  0  0  0  0  0  0  0  0  0  0
   10.0259   -3.1837    0.0000 C   0  0  0  0  0  0  0  0  0  0  0  0
    9.0259   -3.1875    0.0000 C   0  0  0  0  0  0  0  0  0  0  0  0
   15.7779    0.3061    0.0000 C   0  0  0  0  0  0  0  0  0  0  0  0
   15.3980    3.8266    0.0000 C   0  0  0  0  0  0  0  0  0  0  0  0
   14.3981    3.8150    0.0000 C   0  0  0  0  0  0  0  0  0  0  0  0
    6.8509   -1.7704    0.0000 C   0  0  2  0  0  0  0  0  0  0  0  0
    6.8547   -0.7704    0.0000 C   0  0  1  0  0  0  0  0  0  0  0  0
    5.9906   -0.2671    0.0000 C   0  0  2  0  0  0  0  0  0  0  0  0
    5.1188   -1.7637    0.0000 C   0  0  1  0  0  0  0  0  0  0  0  0
    5.1227   -0.7637    0.0000 C   0  0  1  0  0  0  0  0  0  0  0  0
    4.2509   -2.2604    0.0000 C   0  0  0  0  0  0  0  0  0  0  0  0
    5.1304    1.2362    0.0000 C   0  0  2  0  0  0  0  0  0  0  0  0
    5.1343    2.2362    0.0000 C   0  0  1  0  0  0  0  0  0  0  0  0
    4.2702    2.7396    0.0000 C   0  0  1  0  0  0  0  0  0  0  0  0
    3.3984    1.2429    0.0000 C   0  0  2  0  0  0  0  0  0  0  0  0
    3.4022    2.2429    0.0000 C   0  0  2  0  0  0  0  0  0  0  0  0
    2.5304    0.7463    0.0000 C   0  0  0  0  0  0  0  0  0  0  0  0
   12.1121    0.2036    0.0000 H   0  0  0  0  0  0  0  0  0  0  0  0
   10.4612   -2.6199    0.0000 H   0  0  0  0  0  0  0  0  0  0  0  0
   12.4761   -2.3433    0.0000 H   0  0  0  0  0  0  0  0  0  0  0  0
   12.8672   -1.6474    0.0000 H   0  0  0  0  0  0  0  0  0  0  0  0
   10.9627   -2.7666    0.0000 H   0  0  0  0  0  0  0  0  0  0  0  0
   11.7610   -2.7636    0.0000 H   0  0  0  0  0  0  0  0  0  0  0  0
   14.7315    1.7495    0.0000 H   0  0  0  0  0  0  0  0  0  0  0  0
   11.1639    1.3612    0.0000 H   0  0  0  0  0  0  0  0  0  0  0  0
   10.7654    0.6709    0.0000 H   0  0  0  0  0  0  0  0  0  0  0  0
   13.5974   -1.2259    0.0000 H   0  0  0  0  0  0  0  0  0  0  0  0
   14.3956   -1.2351    0.0000 H   0  0  0  0  0  0  0  0  0  0  0  0
    9.9474    0.3025    0.0000 H   0  0  0  0  0  0  0  0  0  0  0  0
    9.1492    0.3179    0.0000 H   0  0  0  0  0  0  0  0  0  0  0  0
   12.4099   -1.8860    0.0000 H   0  0  0  0  0  0  0  0  0  0  0  0
   13.2833   -1.9624    0.0000 H   0  0  0  0  0  0  0  0  0  0  0  0
   13.3598   -1.0889    0.0000 H   0  0  0  0  0  0  0  0  0  0  0  0
   15.1171   -0.8259    0.0000 H   0  0  0  0  0  0  0  0  0  0  0  0
   15.5189   -0.1361    0.0000 H   0  0  0  0  0  0  0  0  0  0  0  0
    8.5817   -2.3971    0.0000 H   0  0  0  0  0  0  0  0  0  0  0  0
   12.2420    1.8986    0.0000 H   0  0  0  0  0  0  0  0  0  0  0  0
   11.0937    0.2669    0.0000 H   0  0  0  0  0  0  0  0  0  0  0  0
   10.4785    0.8917    0.0000 H   0  0  0  0  0  0  0  0  0  0  0  0
    9.8537    0.2765    0.0000 H   0  0  0  0  0  0  0  0  0  0  0  0
    8.3867   -0.1068    0.0000 H   0  0  0  0  0  0  0  0  0  0  0  0
    7.9796   -0.7935    0.0000 H   0  0  0  0  0  0  0  0  0  0  0  0
   12.8676   -1.3732    0.0000 H   0  0  0  0  0  0  0  0  0  0  0  0
   13.6623   -1.7437    0.0000 H   0  0  0  0  0  0  0  0  0  0  0  0
   14.0328   -0.9490    0.0000 H   0  0  0  0  0  0  0  0  0  0  0  0
   13.7544    2.9766    0.0000 H   0  0  0  0  0  0  0  0  0  0  0  0
   13.3687    2.2778    0.0000 H   0  0  0  0  0  0  0  0  0  0  0  0
   16.0609    0.7509    0.0000 H   0  0  0  0  0  0  0  0  0  0  0  0
   16.4627    1.4407    0.0000 H   0  0  0  0  0  0  0  0  0  0  0  0
   16.4627    2.3135    0.0000 H   0  0  0  0  0  0  0  0  0  0  0  0
   16.0609    3.0033    0.0000 H   0  0  0  0  0  0  0  0  0  0  0  0
    9.4901   -3.4958    0.0000 H   0  0  0  0  0  0  0  0  0  0  0  0
   10.3379   -3.7194    0.0000 H   0  0  0  0  0  0  0  0  0  0  0  0
   10.5616   -2.8716    0.0000 H   0  0  0  0  0  0  0  0  0  0  0  0
    8.4059   -3.1899    0.0000 H   0  0  0  0  0  0  0  0  0  0  0  0
   15.9385    3.5228    0.0000 H   0  0  0  0  0  0  0  0  0  0  0  0
   15.7018    4.3671    0.0000 H   0  0  0  0  0  0  0  0  0  0  0  0
   14.8575    4.1304    0.0000 H   0  0  0  0  0  0  0  0  0  0  0  0
   14.9314    4.1312    0.0000 H   0  0  0  0  0  0  0  0  0  0  0  0
   14.0819    4.3484    0.0000 H   0  0  0  0  0  0  0  0  0  0  0  0
   13.8648    3.4989    0.0000 H   0  0  0  0  0  0  0  0  0  0  0  0
    7.3890   -1.4625    0.0000 H   0  0  0  0  0  0  0  0  0  0  0  0
   17.1794    0.5069    0.0000 H   0  0  0  0  0  0  0  0  0  0  0  0
    7.3905   -1.0825    0.0000 H   0  0  0  0  0  0  0  0  0  0  0  0
    6.5288    0.0408    0.0000 H   0  0  0  0  0  0  0  0  0  0  0  0
    5.1165   -2.3837    0.0000 H   0  0  0  0  0  0  0  0  0  0  0  0
    4.5846   -1.0717    0.0000 H   0  0  0  0  0  0  0  0  0  0  0  0
    7.7251    0.3462    0.0000 H   0  0  0  0  0  0  0  0  0  0  0  0
    3.7205   -0.5683    0.0000 H   0  0  0  0  0  0  0  0  0  0  0  0
    5.1280    0.6162    0.0000 H   0  0  0  0  0  0  0  0  0  0  0  0
    5.6700    1.9242    0.0000 H   0  0  0  0  0  0  0  0  0  0  0  0
    3.7089   -3.5683    0.0000 H   0  0  0  0  0  0  0  0  0  0  0  0
    3.7344    3.0516    0.0000 H   0  0  0  0  0  0  0  0  0  0  0  0
    3.3960    0.6229    0.0000 H   0  0  0  0  0  0  0  0  0  0  0  0
    2.8641    1.9350    0.0000 H   0  0  0  0  0  0  0  0  0  0  0  0
    6.0046    3.3529    0.0000 H   0  0  0  0  0  0  0  0  0  0  0  0
    2.2225    1.2844    0.0000 H   0  0  0  0  0  0  0  0  0  0  0  0
    1.9923    0.4383    0.0000 H   0  0  0  0  0  0  0  0  0  0  0  0
    2.8384    0.2081    0.0000 H   0  0  0  0  0  0  0  0  0  0  0  0
    3.7383    4.0516    0.0000 H   0  0  0  0  0  0  0  0  0  0  0  0
    2.0000    2.4383    0.0000 H   0  0  0  0  0  0  0  0  0  0  0  0
 31  1  1  1  0  0  0
 45  1  1  6  0  0  0
  2 42  1  0  0  0  0
  2102  1  0  0  0  0
  3 41  2  0  0  0  0
  4 42  2  0  0  0  0
  5 45  1  0  0  0  0
  5 48  1  0  0  0  0
 46  6  1  1  0  0  0
  6107  1  0  0  0  0
 47  7  1  6  0  0  0
 51  7  1  6  0  0  0
 49  8  1  1  0  0  0
  8108  1  0  0  0  0
  9 50  1  0  0  0  0
  9111  1  0  0  0  0
 10 51  1  0  0  0  0
 10 54  1  0  0  0  0
 11 50  2  0  0  0  0
 52 12  1  1  0  0  0
 12115  1  0  0  0  0
 53 13  1  1  0  0  0
 13119  1  0  0  0  0
 55 14  1  6  0  0  0
 14120  1  0  0  0  0
 15 16  1  0  0  0  0
 15 18  1  0  0  0  0
 15 20  1  0  0  0  0
 15 29  1  1  0  0  0
 16 17  1  0  0  0  0
 16 25  1  0  0  0  0
 16 57  1  6  0  0  0
 17 19  1  0  0  0  0
 17 27  1  0  0  0  0
 17 33  1  1  0  0  0
 18 21  1  0  0  0  0
 18 26  1  0  0  0  0
 18 35  1  6  0  0  0
 19 22  1  0  0  0  0
 19 23  1  0  0  0  0
 19 58  1  6  0  0  0
 20 22  1  0  0  0  0
 20 59  1  0  0  0  0
 20 60  1  0  0  0  0
 21 24  1  0  0  0  0
 21 32  2  0  0  0  0
 22 61  1  0  0  0  0
 22 62  1  0  0  0  0
 23 31  1  0  0  0  0
 23 40  1  1  0  0  0
 23 41  1  0  0  0  0
 24 28  1  0  0  0  0
 24 36  1  0  0  0  0
 24 63  1  1  0  0  0
 25 32  1  0  0  0  0
 25 64  1  0  0  0  0
 25 65  1  0  0  0  0
 26 30  1  0  0  0  0
 26 66  1  0  0  0  0
 26 67  1  0  0  0  0
 27 34  1  0  0  0  0
 27 68  1  0  0  0  0
 27 69  1  0  0  0  0
 28 30  1  0  0  0  0
 28 37  1  0  0  0  0
 28 42  1  1  0  0  0
 29 70  1  0  0  0  0
 29 71  1  0  0  0  0
 29 72  1  0  0  0  0
 30 73  1  0  0  0  0
 30 74  1  0  0  0  0
 31 34  1  0  0  0  0
 31 75  1  0  0  0  0
 32 76  1  0  0  0  0
 33 77  1  0  0  0  0
 33 78  1  0  0  0  0
 33 79  1  0  0  0  0
 34 80  1  0  0  0  0
 34 81  1  0  0  0  0
 35 82  1  0  0  0  0
 35 83  1  0  0  0  0
 35 84  1  0  0  0  0
 36 38  1  0  0  0  0
 36 85  1  0  0  0  0
 36 86  1  0  0  0  0
 37 39  1  0  0  0  0
 37 87  1  0  0  0  0
 37 88  1  0  0  0  0
 38 39  1  0  0  0  0
 38 43  1  0  0  0  0
 38 44  1  0  0  0  0
 39 89  1  0  0  0  0
 39 90  1  0  0  0  0
 40 91  1  0  0  0  0
 40 92  1  0  0  0  0
 40 93  1  0  0  0  0
 41 94  1  0  0  0  0
 43 95  1  0  0  0  0
 43 96  1  0  0  0  0
 43 97  1  0  0  0  0
 44 98  1  0  0  0  0
 44 99  1  0  0  0  0
 44100  1  0  0  0  0
 45 46  1  0  0  0  0
 45101  1  0  0  0  0
 46 47  1  0  0  0  0
 46103  1  0  0  0  0
 47 49  1  0  0  0  0
 47104  1  0  0  0  0
 48 49  1  0  0  0  0
 48 50  1  6  0  0  0
 48105  1  0  0  0  0
 49106  1  0  0  0  0
 51 52  1  0  0  0  0
 51109  1  0  0  0  0
 52 53  1  0  0  0  0
 52110  1  0  0  0  0
 53 55  1  0  0  0  0
 53112  1  0  0  0  0
 54 55  1  0  0  0  0
 54 56  1  1  0  0  0
 54113  1  0  0  0  0
 55114  1  0  0  0  0
 56116  1  0  0  0  0
 56117  1  0  0  0  0
 56118  1  0  0  0  0
M  END
> <PUBCHEM_COMPOUND_CID>
441927

> <PUBCHEM_COMPOUND_CANONICALIZED>
1

> <PUBCHEM_CACTVS_COMPLEXITY>
1600

> <PUBCHEM_CACTVS_HBOND_ACCEPTOR>
14

> <PUBCHEM_CACTVS_HBOND_DONOR>
7

> <PUBCHEM_CACTVS_ROTATABLE_BOND>
7

> <PUBCHEM_CACTVS_SUBSKEYS>
AAADcfB8PAAAAAAAAAAAAAAAAAAAAAAAAAA0aMGCAAAAAADAAAAAGgAACAAADxSwgAMCCAAABgCIAijSiAIAAAAgAAAACAFAAAgREBYAAQQiQAAFoAAPAAPK7PzPgAAAAAAAAADAAAYAADAAAAAAAAAAAA==

> <PUBCHEM_IUPAC_OPENEYE_NAME>
(2S,3S,4S,5R,6R)-6-[[(3S,4S,4aR,6aR,6bS,8aS,12aS,14aR,14bR)-8a-carboxy-4-formyl-4,6a,6b,11,11,14b-hexamethyl-1,2,3,4a,5,6,7,8,9,10,12,12a,14,14a-tetradecahydropicen-3-yl]oxy]-3,5-dihydroxy-4-[(2S,3R,4R,5R,6S)-3,4,5-trihydroxy-6-methyl-tetrahydropyran-2-yl]oxy-tetrahydropyran-2-carboxylic acid

> <PUBCHEM_IUPAC_CAS_NAME>
(2S,3S,4S,5R,6R)-6-[[(3S,4S,4aR,6aR,6bS,8aS,12aS,14aR,14bR)-8a-carboxy-4-formyl-4,6a,6b,11,11,14b-hexamethyl-1,2,3,4a,5,6,7,8,9,10,12,12a,14,14a-tetradecahydropicen-3-yl]oxy]-3,5-dihydroxy-4-[[(2S,3R,4R,5R,6S)-3,4,5-trihydroxy-6-methyl-2-oxanyl]oxy]-2-oxanecarboxylic acid

> <PUBCHEM_IUPAC_NAME>
(2S,3S,4S,5R,6R)-6-[[(3S,4S,4aR,6aR,6bS,8aS,12aS,14aR,14bR)-8a-carboxy-4-formyl-4,6a,6b,11,11,14b-hexamethyl-1,2,3,4a,5,6,7,8,9,10,12,12a,14,14a-tetradecahydropicen-3-yl]oxy]-3,5-dihydroxy-4-[(2S,3R,4R,5R,6S)-3,4,5-trihydroxy-6-methyloxan-2-yl]oxyoxane-2-carboxylic acid

> <PUBCHEM_IUPAC_SYSTEMATIC_NAME>
(2S,3S,4S,5R,6R)-6-[[(3S,4S,4aR,6aR,6bS,8aS,12aS,14aR,14bR)-8a-carboxy-4-methanoyl-4,6a,6b,11,11,14b-hexamethyl-1,2,3,4a,5,6,7,8,9,10,12,12a,14,14a-tetradecahydropicen-3-yl]oxy]-4-[(2S,3R,4R,5R,6S)-6-methyl-3,4,5-tris(oxidanyl)oxan-2-yl]oxy-3,5-bis(oxidanyl)oxane-2-carboxylic acid

> <PUBCHEM_IUPAC_TRADITIONAL_NAME>
(2S,3S,4S,5R,6R)-6-[[(3S,4S,4aR,6aR,6bS,8aS,12aS,14aR,14bR)-8a-carboxy-4-formyl-4,6a,6b,11,11,14b-hexamethyl-1,2,3,4a,5,6,7,8,9,10,12,12a,14,14a-tetradecahydropicen-3-yl]oxy]-3,5-dihydroxy-4-[(2S,3R,4R,5R,6S)-3,4,5-trihydroxy-6-methyl-tetrahydropyran-2-yl]oxy-tetrahydropyran-2-carboxylic acid

> <PUBCHEM_IUPAC_INCHI>
InChI=1S/C42H64O14/c1-20-26(44)27(45)28(46)34(53-20)55-31-29(47)32(33(49)50)56-35(30(31)48)54-25-11-12-38(4)23(39(25,5)19-43)10-13-41(7)24(38)9-8-21-22-18-37(2,3)14-16-42(22,36(51)52)17-15-40(21,41)6/h8,19-20,22-32,34-35,44-48H,9-18H2,1-7H3,(H,49,50)(H,51,52)/t20-,22-,23+,24+,25-,26-,27+,28+,29-,30+,31-,32-,34-,35+,38-,39-,40+,41+,42-/m0/s1

> <PUBCHEM_IUPAC_INCHIKEY>
OLFGQBKWRYLUAQ-KHXUXTKLSA-N

> <PUBCHEM_XLOGP3_AA>
3.7

> <PUBCHEM_EXACT_MASS>
792.429607

> <PUBCHEM_MOLECULAR_FORMULA>
C42H64O14

> <PUBCHEM_MOLECULAR_WEIGHT>
792.94916

> <PUBCHEM_OPENEYE_CAN_SMILES>
CC1C(C(C(C(O1)OC2C(C(OC(C2O)OC3CCC4(C(C3(C)C=O)CCC5(C4CC=C6C5(CCC7(C6CC(CC7)(C)C)C(=O)O)C)C)C)C(=O)O)O)O)O)O

> <PUBCHEM_OPENEYE_ISO_SMILES>
C[C@H]1[C@@H]([C@H]([C@H]([C@@H](O1)O[C@H]2[C@@H]([C@H](O[C@H]([C@@H]2O)O[C@H]3CC[C@]4([C@H]([C@]3(C)C=O)CC[C@@]5([C@@H]4CC=C6[C@]5(CC[C@@]7([C@H]6CC(CC7)(C)C)C(=O)O)C)C)C)C(=O)O)O)O)O)O

> <PUBCHEM_CACTVS_TPSA>
230

> <PUBCHEM_MONOISOTOPIC_WEIGHT>
792.429607

> <PUBCHEM_TOTAL_CHARGE>
0

> <PUBCHEM_HEAVY_ATOM_COUNT>
56

> <PUBCHEM_ATOM_DEF_STEREO_COUNT>
19

> <PUBCHEM_ATOM_UDEF_STEREO_COUNT>
0

> <PUBCHEM_BOND_DEF_STEREO_COUNT>
0

> <PUBCHEM_BOND_UDEF_STEREO_COUNT>
0

> <PUBCHEM_ISOTOPIC_ATOM_COUNT>
0

> <PUBCHEM_COMPONENT_COUNT>
1

> <PUBCHEM_CACTVS_TAUTO_COUNT>
1

> <PUBCHEM_COORDINATE_TYPE>
1
5
255

> <PUBCHEM_BONDANNOTATIONS>
31  1  5
45  1  6
52  12  5
53  13  5
55  14  6
15  29  5
16  57  6
17  33  5
18  35  6
19  58  6
23  40  5
24  63  5
28  42  5
48  50  6
54  56  5
46  6  5
47  7  6
51  7  6
49  8  5

$$$$

