442328
  -OEChem-07051212572D

 39 43  0     1  0  0  0  0  0999 V2000
    7.3092    1.0737    0.0000 O   0  0  0  0  0  0  0  0  0  0  0  0
    7.3092    2.6832    0.0000 O   0  0  0  0  0  0  0  0  0  0  0  0
    7.3534   -2.2585    0.0000 O   0  0  0  0  0  0  0  0  0  0  0  0
    2.8816    1.3998    0.0000 N   0  0  3  0  0  0  0  0  0  0  0  0
    3.7209    0.8716    0.0000 C   0  0  2  0  0  0  0  0  0  0  0  0
    4.6309    1.3784    0.0000 C   0  0  0  0  0  0  0  0  0  0  0  0
    3.7129   -0.1700    0.0000 C   0  0  0  0  0  0  0  0  0  0  0  0
    4.6309    2.3784    0.0000 C   0  0  0  0  0  0  0  0  0  0  0  0
    5.4969    0.8785    0.0000 C   0  0  0  0  0  0  0  0  0  0  0  0
    2.9072    2.3912    0.0000 C   0  0  0  0  0  0  0  0  0  0  0  0
    3.7727    2.8754    0.0000 C   0  0  0  0  0  0  0  0  0  0  0  0
    4.6149   -0.6908    0.0000 C   0  0  0  0  0  0  0  0  0  0  0  0
    5.5130   -0.1631    0.0000 C   0  0  0  0  0  0  0  0  0  0  0  0
    6.3629    1.3784    0.0000 C   0  0  0  0  0  0  0  0  0  0  0  0
    5.4969    2.8784    0.0000 C   0  0  0  0  0  0  0  0  0  0  0  0
    6.3629    2.3784    0.0000 C   0  0  0  0  0  0  0  0  0  0  0  0
    2.0000    0.9278    0.0000 C   0  0  0  0  0  0  0  0  0  0  0  0
    4.6066   -1.7758    0.0000 C   0  0  0  0  0  0  0  0  0  0  0  0
    6.4649   -0.6837    0.0000 C   0  0  0  0  0  0  0  0  0  0  0  0
    7.8928    1.8784    0.0000 C   0  0  0  0  0  0  0  0  0  0  0  0
    6.4816   -1.7685    0.0000 C   0  0  0  0  0  0  0  0  0  0  0  0
    5.5462   -2.3183    0.0000 C   0  0  0  0  0  0  0  0  0  0  0  0
    2.9752    0.4636    0.0000 H   0  0  0  0  0  0  0  0  0  0  0  0
    3.1028   -0.0592    0.0000 H   0  0  0  0  0  0  0  0  0  0  0  0
    3.4993   -0.7521    0.0000 H   0  0  0  0  0  0  0  0  0  0  0  0
    2.7054    2.9775    0.0000 H   0  0  0  0  0  0  0  0  0  0  0  0
    2.2944    2.2968    0.0000 H   0  0  0  0  0  0  0  0  0  0  0  0
    4.1737    3.3482    0.0000 H   0  0  0  0  0  0  0  0  0  0  0  0
    3.3786    3.3541    0.0000 H   0  0  0  0  0  0  0  0  0  0  0  0
    5.4969    3.4984    0.0000 H   0  0  0  0  0  0  0  0  0  0  0  0
    1.7073    1.4744    0.0000 H   0  0  0  0  0  0  0  0  0  0  0  0
    1.4534    0.6351    0.0000 H   0  0  0  0  0  0  0  0  0  0  0  0
    2.2927    0.3812    0.0000 H   0  0  0  0  0  0  0  0  0  0  0  0
    4.0684   -2.0837    0.0000 H   0  0  0  0  0  0  0  0  0  0  0  0
    6.9958   -0.3634    0.0000 H   0  0  0  0  0  0  0  0  0  0  0  0
    8.3536    1.4637    0.0000 H   0  0  0  0  0  0  0  0  0  0  0  0
    8.3536    2.2932    0.0000 H   0  0  0  0  0  0  0  0  0  0  0  0
    5.5486   -2.9383    0.0000 H   0  0  0  0  0  0  0  0  0  0  0  0
    7.3606   -2.8784    0.0000 H   0  0  0  0  0  0  0  0  0  0  0  0
  1 14  1  0  0  0  0
  1 20  1  0  0  0  0
  2 16  1  0  0  0  0
  2 20  1  0  0  0  0
  3 21  1  0  0  0  0
  3 39  1  0  0  0  0
  4  5  1  0  0  0  0
  4 10  1  0  0  0  0
  4 17  1  0  0  0  0
  5  6  1  0  0  0  0
  5  7  1  0  0  0  0
  5 23  1  1  0  0  0
  6  8  1  0  0  0  0
  6  9  2  0  0  0  0
  7 12  1  0  0  0  0
  7 24  1  0  0  0  0
  7 25  1  0  0  0  0
  8 11  1  0  0  0  0
  8 15  2  0  0  0  0
  9 13  1  0  0  0  0
  9 14  1  0  0  0  0
 10 11  1  0  0  0  0
 10 26  1  0  0  0  0
 10 27  1  0  0  0  0
 11 28  1  0  0  0  0
 11 29  1  0  0  0  0
 12 13  2  0  0  0  0
 12 18  1  0  0  0  0
 13 19  1  0  0  0  0
 14 16  2  0  0  0  0
 15 16  1  0  0  0  0
 15 30  1  0  0  0  0
 17 31  1  0  0  0  0
 17 32  1  0  0  0  0
 17 33  1  0  0  0  0
 18 22  2  0  0  0  0
 18 34  1  0  0  0  0
 19 21  2  0  0  0  0
 19 35  1  0  0  0  0
 20 36  1  0  0  0  0
 20 37  1  0  0  0  0
 21 22  1  0  0  0  0
 22 38  1  0  0  0  0
M  END
> <PUBCHEM_COMPOUND_CID>
442328

> <PUBCHEM_COMPOUND_CANONICALIZED>
1

> <PUBCHEM_CACTVS_COMPLEXITY>
444

> <PUBCHEM_CACTVS_HBOND_ACCEPTOR>
4

> <PUBCHEM_CACTVS_HBOND_DONOR>
1

> <PUBCHEM_CACTVS_ROTATABLE_BOND>
0

> <PUBCHEM_CACTVS_SUBSKEYS>
AAADceB6MAAAAAAAAAAAAAAAAAAAASAAAAA8YMEAAAAAAEjxQAAAHgAACAAADCzBmAcyDoMABgCAAiBCAACCCAAgIAAIiAAOjIgdJiKGsRukcCpkwBGOuAew8P8OoAADAAAYQADQAAaAADSAAAAAAAAAAA==

> <PUBCHEM_IUPAC_INCHI>
InChI=1S/C18H17NO3/c1-19-5-4-11-7-15-18(22-9-21-15)17-13-8-12(20)3-2-10(13)6-14(19)16(11)17/h2-3,7-8,14,20H,4-6,9H2,1H3/t14-/m0/s1

> <PUBCHEM_IUPAC_INCHIKEY>
DYAAXURJUVSJEZ-AWEZNQCLSA-N

> <PUBCHEM_XLOGP3_AA>
2.9

> <PUBCHEM_EXACT_MASS>
295.120843

> <PUBCHEM_MOLECULAR_FORMULA>
C18H17NO3

> <PUBCHEM_MOLECULAR_WEIGHT>
295.33248

> <PUBCHEM_OPENEYE_CAN_SMILES>
CN1CCC2=CC3=C(C4=C2C1CC5=C4C=C(C=C5)O)OCO3

> <PUBCHEM_OPENEYE_ISO_SMILES>
CN1CCC2=CC3=C(C4=C2[C@@H]1CC5=C4C=C(C=C5)O)OCO3

> <PUBCHEM_CACTVS_TPSA>
41.9

> <PUBCHEM_MONOISOTOPIC_WEIGHT>
295.120843

> <PUBCHEM_TOTAL_CHARGE>
0

> <PUBCHEM_HEAVY_ATOM_COUNT>
22

> <PUBCHEM_ATOM_DEF_STEREO_COUNT>
1

> <PUBCHEM_ATOM_UDEF_STEREO_COUNT>
0

> <PUBCHEM_BOND_DEF_STEREO_COUNT>
0

> <PUBCHEM_BOND_UDEF_STEREO_COUNT>
0

> <PUBCHEM_ISOTOPIC_ATOM_COUNT>
0

> <PUBCHEM_COMPONENT_COUNT>
1

> <PUBCHEM_CACTVS_TAUTO_COUNT>
3

> <PUBCHEM_COORDINATE_TYPE>
1
5
255

> <PUBCHEM_BONDANNOTATIONS>
12  13  8
12  18  8
13  19  8
14  16  8
15  16  8
18  22  8
19  21  8
21  22  8
5  23  5
6  8  8
6  9  8
8  15  8
9  14  8

$$$$

