443039
  -OEChem-07051213003D

 30 32  0     0  0  0  0  0  0999 V2000
   -6.0832    0.7008    0.0152 Br  0  0  0  0  0  0  0  0  0  0  0  0
    0.2915    0.9546    0.0256 O   0  0  0  0  0  0  0  0  0  0  0  0
    1.5537    2.8818    0.0817 O   0  0  0  0  0  0  0  0  0  0  0  0
   -0.3362   -1.2782   -0.0391 N   0  0  0  0  0  0  0  0  0  0  0  0
    4.2704   -1.5190    0.3148 C   0  0  0  0  0  0  0  0  0  0  0  0
    4.8116   -0.2451   -0.3513 C   0  0  0  0  0  0  0  0  0  0  0  0
    2.7953   -1.7786   -0.0359 C   0  0  0  0  0  0  0  0  0  0  0  0
    3.9929    1.0018    0.0245 C   0  0  0  0  0  0  0  0  0  0  0  0
    2.0149   -0.5174   -0.0152 C   0  0  0  0  0  0  0  0  0  0  0  0
    2.5393    0.7033    0.0262 C   0  0  0  0  0  0  0  0  0  0  0  0
    0.5721   -0.3738   -0.0118 C   0  0  0  0  0  0  0  0  0  0  0  0
    1.4492    1.6699    0.0487 C   0  0  0  0  0  0  0  0  0  0  0  0
   -1.6678   -0.8180   -0.0262 C   0  0  0  0  0  0  0  0  0  0  0  0
   -2.3164   -0.5578   -1.2275 C   0  0  0  0  0  0  0  0  0  0  0  0
   -2.3188   -0.6309    1.1872 C   0  0  0  0  0  0  0  0  0  0  0  0
   -3.6352   -0.1037   -1.2152 C   0  0  0  0  0  0  0  0  0  0  0  0
   -3.6376   -0.1767    1.1997 C   0  0  0  0  0  0  0  0  0  0  0  0
   -4.2958    0.0870   -0.0015 C   0  0  0  0  0  0  0  0  0  0  0  0
    4.3726   -1.4219    1.4035 H   0  0  0  0  0  0  0  0  0  0  0  0
    4.8751   -2.3827    0.0161 H   0  0  0  0  0  0  0  0  0  0  0  0
    4.7913   -0.3774   -1.4410 H   0  0  0  0  0  0  0  0  0  0  0  0
    5.8599   -0.0930   -0.0704 H   0  0  0  0  0  0  0  0  0  0  0  0
    2.3784   -2.5038    0.6716 H   0  0  0  0  0  0  0  0  0  0  0  0
    2.7298   -2.2215   -1.0367 H   0  0  0  0  0  0  0  0  0  0  0  0
    4.2211    1.8093   -0.6799 H   0  0  0  0  0  0  0  0  0  0  0  0
    4.2870    1.3451    1.0234 H   0  0  0  0  0  0  0  0  0  0  0  0
   -1.8088   -0.7046   -2.1770 H   0  0  0  0  0  0  0  0  0  0  0  0
   -1.8131   -0.8347    2.1272 H   0  0  0  0  0  0  0  0  0  0  0  0
   -4.1337    0.0966   -2.1600 H   0  0  0  0  0  0  0  0  0  0  0  0
   -4.1380   -0.0338    2.1540 H   0  0  0  0  0  0  0  0  0  0  0  0
  1 18  1  0  0  0  0
  2 11  1  0  0  0  0
  2 12  1  0  0  0  0
  3 12  2  0  0  0  0
  4 11  2  0  0  0  0
  4 13  1  0  0  0  0
  5  6  1  0  0  0  0
  5  7  1  0  0  0  0
  5 19  1  0  0  0  0
  5 20  1  0  0  0  0
  6  8  1  0  0  0  0
  6 21  1  0  0  0  0
  6 22  1  0  0  0  0
  7  9  1  0  0  0  0
  7 23  1  0  0  0  0
  7 24  1  0  0  0  0
  8 10  1  0  0  0  0
  8 25  1  0  0  0  0
  8 26  1  0  0  0  0
  9 10  2  0  0  0  0
  9 11  1  0  0  0  0
 10 12  1  0  0  0  0
 13 14  2  0  0  0  0
 13 15  1  0  0  0  0
 14 16  1  0  0  0  0
 14 27  1  0  0  0  0
 15 17  2  0  0  0  0
 15 28  1  0  0  0  0
 16 18  2  0  0  0  0
 16 29  1  0  0  0  0
 17 18  1  0  0  0  0
 17 30  1  0  0  0  0
M  END
> <PUBCHEM_COMPOUND_CID>
443039

> <PUBCHEM_CONFORMER_RMSD>
0.6

> <PUBCHEM_CONFORMER_DIVERSEORDER>
1

> <PUBCHEM_MMFF94_PARTIAL_CHARGES>
20
1 -0.11
10 -0.12
11 0.59
12 0.71
13 0.18
14 -0.15
15 -0.15
16 -0.15
17 -0.15
18 0.11
2 -0.3
27 0.15
28 0.15
29 0.15
3 -0.57
30 0.15
4 -0.63
7 0.14
8 0.14
9 -0.12

> <PUBCHEM_EFFECTIVE_ROTOR_COUNT>
2

> <PUBCHEM_PHARMACOPHORE_FEATURES>
5
1 1 hydrophobe
1 3 acceptor
5 2 9 10 11 12 rings
6 13 14 15 16 17 18 rings
6 5 6 7 8 9 10 rings

> <PUBCHEM_HEAVY_ATOM_COUNT>
18

> <PUBCHEM_ATOM_DEF_STEREO_COUNT>
0

> <PUBCHEM_ATOM_UDEF_STEREO_COUNT>
0

> <PUBCHEM_BOND_DEF_STEREO_COUNT>
0

> <PUBCHEM_BOND_UDEF_STEREO_COUNT>
0

> <PUBCHEM_ISOTOPIC_ATOM_COUNT>
0

> <PUBCHEM_COMPONENT_COUNT>
1

> <PUBCHEM_CACTVS_TAUTO_COUNT>
1

> <PUBCHEM_CONFORMER_ID>
0006C29F00000001

> <PUBCHEM_MMFF94_ENERGY>
25.5982

> <PUBCHEM_FEATURE_SELFOVERLAP>
25.447

> <PUBCHEM_SHAPE_FINGERPRINT>
10366900 7 17418098698244085987
10688039 33 18059855112204388181
11089746 13 17603308146018814664
11471102 20 18411419497077606638
11578080 2 17388008410212842001
12236239 1 17749109993695647527
12507557 5 18408602539797510979
12670546 56 17603868909717772840
12760667 363 18196938984009133282
128620 24 10303813176697439019
12916748 109 15339117961379954582
13134695 92 18409172103916568276
13167372 99 18188766275620087881
13533116 47 14924217287240802166
13675066 3 18131348579245692122
14004511 7 18113615681646254771
14386348 63 17847058887343984651
15048467 5 17561075891811522246
15653759 3 17346882225952985315
18186145 218 18202294584608688727
18335252 114 18263374732476820717
18785283 64 17914890933758849828
192875 21 17967248698199614929
200 152 18113059329084340471
20645477 70 18411702127348383150
21033648 29 17774738506091046397
21267235 1 18338510945749463942
21279426 13 18056203719997770365
21478907 32 18050005794717256226
21618674 57 17846780745282878201
21641784 216 18058712724419217788
221357 26 18341339971935199733
22289505 5 18411986896306222372
23175994 123 18271520987317381303
23184049 59 18334574646486937070
23402539 116 15068626015447112329
23402655 69 18333453140415807037
23559900 14 18409169878780221528
2838139 119 18263933301590162053
29717793 49 17168139061721884636
300161 21 17749114378677837218
34934 24 18336834096127876374
351380 180 18411982468859487225
4072396 5 18340218444552665922
474 4 18334292054976907059
5104073 3 18338520737652381475
542803 24 17530963588051724307
602551 16 16128084547240740659
74978 22 18263646173333416854
8272917 22 18334855060369641406
9971528 1 18187086152753262032
9981440 41 17250917748544778281

> <PUBCHEM_SHAPE_MULTIPOLES>
359.65
11.24
1.76
0.96
7.04
0.89
0.02
0.25
0.09
-1.85
-0.08
0.95
-0.14
-0.02

> <PUBCHEM_SHAPE_SELFOVERLAP>
773.31

> <PUBCHEM_SHAPE_VOLUME>
204.1

> <PUBCHEM_COORDINATE_TYPE>
2
5
10

$$$$

