24892785
  -OEChem-07051213083D

 24 25  0     0  0  0  0  0  0999 V2000
    2.3350   -2.2859    0.9023 S   0  0  0  0  0  0  0  0  0  0  0  0
    3.7191    1.2368   -0.1711 O   0  0  0  0  0  0  0  0  0  0  0  0
   -0.8606    2.0087    0.3467 N   0  0  0  0  0  0  0  0  0  0  0  0
    3.6140   -0.0336    0.4020 N   0  0  0  0  0  0  0  0  0  0  0  0
    0.4017    0.3752   -0.4690 C   0  0  0  0  0  0  0  0  0  0  0  0
   -0.9187   -0.1267   -0.2967 C   0  0  0  0  0  0  0  0  0  0  0  0
   -1.6906    0.9181    0.2162 C   0  0  0  0  0  0  0  0  0  0  0  0
    1.5661   -0.3719   -0.9861 C   0  0  0  0  0  0  0  0  0  0  0  0
    0.4057    1.6904   -0.0649 C   0  0  0  0  0  0  0  0  0  0  0  0
   -1.5331   -1.3733   -0.5285 C   0  0  0  0  0  0  0  0  0  0  0  0
   -3.0516    0.7778    0.5101 C   0  0  0  0  0  0  0  0  0  0  0  0
   -2.8938   -1.5282   -0.2394 C   0  0  0  0  0  0  0  0  0  0  0  0
   -3.6394   -0.4678    0.2720 C   0  0  0  0  0  0  0  0  0  0  0  0
    2.5461   -0.8197    0.1062 C   0  0  0  0  0  0  0  0  0  0  0  0
    2.0985    0.2515   -1.7155 H   0  0  0  0  0  0  0  0  0  0  0  0
    1.2361   -1.2532   -1.5508 H   0  0  0  0  0  0  0  0  0  0  0  0
    1.1911    2.4323   -0.0334 H   0  0  0  0  0  0  0  0  0  0  0  0
   -1.1459    2.9133    0.6956 H   0  0  0  0  0  0  0  0  0  0  0  0
   -0.9691   -2.2117   -0.9269 H   0  0  0  0  0  0  0  0  0  0  0  0
   -3.6330    1.6027    0.9082 H   0  0  0  0  0  0  0  0  0  0  0  0
   -3.3731   -2.4874   -0.4163 H   0  0  0  0  0  0  0  0  0  0  0  0
   -4.6949   -0.6103    0.4895 H   0  0  0  0  0  0  0  0  0  0  0  0
    4.2890   -0.2553    1.1258 H   0  0  0  0  0  0  0  0  0  0  0  0
    4.0594    1.7443    0.5848 H   0  0  0  0  0  0  0  0  0  0  0  0
  1 14  2  0  0  0  0
  2  4  1  0  0  0  0
  2 24  1  0  0  0  0
  3  7  1  0  0  0  0
  3  9  1  0  0  0  0
  3 18  1  0  0  0  0
  4 14  1  0  0  0  0
  4 23  1  0  0  0  0
  5  6  1  0  0  0  0
  5  8  1  0  0  0  0
  5  9  2  0  0  0  0
  6  7  1  0  0  0  0
  6 10  2  0  0  0  0
  7 11  2  0  0  0  0
  8 14  1  0  0  0  0
  8 15  1  0  0  0  0
  8 16  1  0  0  0  0
  9 17  1  0  0  0  0
 10 12  1  0  0  0  0
 10 19  1  0  0  0  0
 11 13  1  0  0  0  0
 11 20  1  0  0  0  0
 12 13  2  0  0  0  0
 12 21  1  0  0  0  0
 13 22  1  0  0  0  0
M  END
> <PUBCHEM_COMPOUND_CID>
24892785

> <PUBCHEM_CONFORMER_RMSD>
0.6

> <PUBCHEM_CONFORMER_DIVERSEORDER>
1
33
9
31
29
27
11
35
21
25
23
10
18
17
28
20
12
19
3
5
15
14
30
8
22
34
4
13
26
24
6
16
32
2
7

> <PUBCHEM_MMFF94_PARTIAL_CHARGES>
21
1 -0.38
10 -0.15
11 -0.15
12 -0.15
13 -0.15
14 0.38
17 0.15
18 0.27
19 0.15
2 -0.44
20 0.15
21 0.15
22 0.15
23 0.37
24 0.4
3 0.03
4 -0.39
5 -0.18
7 -0.15
8 0.24
9 -0.3

> <PUBCHEM_EFFECTIVE_ROTOR_COUNT>
3

> <PUBCHEM_PHARMACOPHORE_FEATURES>
5
1 1 acceptor
1 3 cation
1 3 donor
5 3 5 6 7 9 rings
6 6 7 10 11 12 13 rings

> <PUBCHEM_HEAVY_ATOM_COUNT>
14

> <PUBCHEM_ATOM_DEF_STEREO_COUNT>
0

> <PUBCHEM_ATOM_UDEF_STEREO_COUNT>
0

> <PUBCHEM_BOND_DEF_STEREO_COUNT>
0

> <PUBCHEM_BOND_UDEF_STEREO_COUNT>
0

> <PUBCHEM_ISOTOPIC_ATOM_COUNT>
0

> <PUBCHEM_COMPONENT_COUNT>
1

> <PUBCHEM_CACTVS_TAUTO_COUNT>
3

> <PUBCHEM_CONFORMER_ID>
017BD57100000001

> <PUBCHEM_MMFF94_ENERGY>
26.9332

> <PUBCHEM_FEATURE_SELFOVERLAP>
25.463

> <PUBCHEM_SHAPE_FINGERPRINT>
10130415 120 18410005525298308035
11132069 177 18261116266129417600
11769659 78 18272655687691510019
11806522 49 18193842539625410767
12251169 10 18333450949713512568
12382932 28 18333728043881746427
12932764 1 18200586033538188004
14144814 61 18408601478666424919
14252887 29 18115008741256448815
15076042 46 18119251919815421746
15375462 189 18413106147624679339
15669948 3 18187088342696141743
16945 1 18262506113362342221
17804303 29 17975407237633949598
19050596 39 18411421721944486722
20510252 161 17968088798044919193
20528008 55 18187089468056466857
20653085 51 8070020090641439126
20871998 184 18113336431520639119
21501925 9 18334858264810311135
22445834 79 18127411370057078330
232386 152 18337102384906122799
23388829 49 18410856533891130501
23419403 2 14932465725067677743
23463225 33 18411698832886498727
23552423 10 18196648497910765685
23559900 14 18042962258741741830
2748010 2 17615386492014548333
3312278 4 18412542081043038323
34934 24 18409172099462981581
7097593 13 17980486977169999434
7364860 26 17971755467312597289

> <PUBCHEM_SHAPE_MULTIPOLES>
276.13
6.05
2.09
0.84
1.44
0.22
0.02
1.07
-0.9
0.46
-0.32
0.14
0.17
-0.7

> <PUBCHEM_SHAPE_SELFOVERLAP>
582.423

> <PUBCHEM_SHAPE_VOLUME>
158

> <PUBCHEM_COORDINATE_TYPE>
2
5
10

$$$$

