13774
  -OEChem-06241222403D

 30 31  0     0  0  0  0  0  0999 V2000
    3.1693    3.0338    0.6737 O   0  5  0  0  0  0  0  0  0  0  0  0
    1.0196    3.0383    0.2288 O   0  0  0  0  0  0  0  0  0  0  0  0
    4.7686   -2.8854   -0.2204 O   0  5  0  0  0  0  0  0  0  0  0  0
    5.7343   -1.0035    0.3667 O   0  0  0  0  0  0  0  0  0  0  0  0
   -6.4217   -0.2429   -0.4229 O   0  5  0  0  0  0  0  0  0  0  0  0
   -5.7386   -1.6906    1.0793 O   0  0  0  0  0  0  0  0  0  0  0  0
   -0.2193    0.9911   -0.4506 N   0  0  0  0  0  0  0  0  0  0  0  0
    2.1176    2.4431    0.3331 N   0  3  0  0  0  0  0  0  0  0  0  0
    4.7190   -1.6555    0.0229 N   0  3  0  0  0  0  0  0  0  0  0  0
   -5.5079   -0.7755    0.2523 N   0  3  0  0  0  0  0  0  0  0  0  0
    1.0265    0.3458   -0.3269 C   0  0  0  0  0  0  0  0  0  0  0  0
    2.1724    1.0487    0.0548 C   0  0  0  0  0  0  0  0  0  0  0  0
   -1.5464    0.5477   -0.2744 C   0  0  0  0  0  0  0  0  0  0  0  0
    1.1112   -1.0234   -0.5916 C   0  0  0  0  0  0  0  0  0  0  0  0
    3.3948    0.3865    0.1706 C   0  0  0  0  0  0  0  0  0  0  0  0
    3.4751   -0.9805   -0.0947 C   0  0  0  0  0  0  0  0  0  0  0  0
    2.3333   -1.6854   -0.4758 C   0  0  0  0  0  0  0  0  0  0  0  0
   -2.5786    1.1248   -1.0141 C   0  0  0  0  0  0  0  0  0  0  0  0
   -1.8268   -0.4678    0.6398 C   0  0  0  0  0  0  0  0  0  0  0  0
   -4.1716   -0.3293    0.0746 C   0  0  0  0  0  0  0  0  0  0  0  0
   -3.8912    0.6864   -0.8396 C   0  0  0  0  0  0  0  0  0  0  0  0
   -3.1394   -0.9064    0.8144 C   0  0  0  0  0  0  0  0  0  0  0  0
   -0.1580    1.9364   -0.8167 H   0  0  0  0  0  0  0  0  0  0  0  0
    0.2457   -1.5956   -0.9144 H   0  0  0  0  0  0  0  0  0  0  0  0
    4.2875    0.9319    0.4677 H   0  0  0  0  0  0  0  0  0  0  0  0
    2.3596   -2.7497   -0.6955 H   0  0  0  0  0  0  0  0  0  0  0  0
   -2.3725    1.9163   -1.7302 H   0  0  0  0  0  0  0  0  0  0  0  0
   -1.0464   -0.9190    1.2464 H   0  0  0  0  0  0  0  0  0  0  0  0
   -4.6698    1.1589   -1.4331 H   0  0  0  0  0  0  0  0  0  0  0  0
   -3.3215   -1.6959    1.5391 H   0  0  0  0  0  0  0  0  0  0  0  0
  1  8  1  0  0  0  0
  2  8  2  0  0  0  0
  3  9  1  0  0  0  0
  4  9  2  0  0  0  0
  5 10  1  0  0  0  0
  6 10  2  0  0  0  0
  7 11  1  0  0  0  0
  7 13  1  0  0  0  0
  7 23  1  0  0  0  0
  8 12  1  0  0  0  0
  9 16  1  0  0  0  0
 10 20  1  0  0  0  0
 11 12  2  0  0  0  0
 11 14  1  0  0  0  0
 12 15  1  0  0  0  0
 13 18  2  0  0  0  0
 13 19  1  0  0  0  0
 14 17  2  0  0  0  0
 14 24  1  0  0  0  0
 15 16  2  0  0  0  0
 15 25  1  0  0  0  0
 16 17  1  0  0  0  0
 17 26  1  0  0  0  0
 18 21  1  0  0  0  0
 18 27  1  0  0  0  0
 19 22  2  0  0  0  0
 19 28  1  0  0  0  0
 20 21  2  0  0  0  0
 20 22  1  0  0  0  0
 21 29  1  0  0  0  0
 22 30  1  0  0  0  0
M  CHG  6   1  -1   3  -1   5  -1   8   1   9   1  10   1
M  END
> <PUBCHEM_COMPOUND_CID>
13774

> <PUBCHEM_CONFORMER_RMSD>
0.8

> <PUBCHEM_CONFORMER_DIVERSEORDER>
1
2

> <PUBCHEM_MMFF94_PARTIAL_CHARGES>
30
1 -0.52
10 0.91
11 0.1
12 0.13
13 0.1
14 -0.15
15 -0.15
16 0.13
17 -0.15
18 -0.15
19 -0.15
2 -0.52
20 0.13
21 -0.15
22 -0.15
23 0.4
24 0.15
25 0.15
26 0.15
27 0.15
28 0.15
29 0.15
3 -0.52
30 0.15
4 -0.52
5 -0.52
6 -0.52
7 -0.6
8 0.91
9 0.91

> <PUBCHEM_EFFECTIVE_ROTOR_COUNT>
5

> <PUBCHEM_PHARMACOPHORE_FEATURES>
13
1 1 acceptor
1 1 anion
1 2 acceptor
1 3 acceptor
1 3 anion
1 4 acceptor
1 5 acceptor
1 5 anion
1 6 acceptor
1 7 cation
1 7 donor
6 11 12 14 15 16 17 rings
6 13 18 19 20 21 22 rings

> <PUBCHEM_HEAVY_ATOM_COUNT>
22

> <PUBCHEM_ATOM_DEF_STEREO_COUNT>
0

> <PUBCHEM_ATOM_UDEF_STEREO_COUNT>
0

> <PUBCHEM_BOND_DEF_STEREO_COUNT>
0

> <PUBCHEM_BOND_UDEF_STEREO_COUNT>
0

> <PUBCHEM_ISOTOPIC_ATOM_COUNT>
0

> <PUBCHEM_COMPONENT_COUNT>
1

> <PUBCHEM_CACTVS_TAUTO_COUNT>
1

> <PUBCHEM_CONFORMER_ID>
000035CE00000001

> <PUBCHEM_MMFF94_ENERGY>
92.2166

> <PUBCHEM_FEATURE_SELFOVERLAP>
66.212

> <PUBCHEM_SHAPE_FINGERPRINT>
10366900 7 17918269874444968299
10411042 1 18264488567688159486
10912923 1 17531240609680021011
11796584 16 17774727579272225986
12107183 9 18117546539280397809
12236239 1 17095242510173332709
12403259 226 18341617027052939493
12403259 415 18059866064639635021
12507560 40 18413112740605401861
12516196 113 18409168848499922466
12616971 3 17749111067490115533
12730499 353 18266732481166708648
13402501 40 18344144804185060507
13533116 47 18335981982953012289
13544592 145 18202565060327063811
13911852 28 18265052625094926878
13955234 65 18262802852626754832
14341114 176 18335699429491032825
14790565 3 17404014826018526204
14866123 147 17616532195530263704
15475509 35 17417269705337112856
15880784 105 18336542717041198459
15961568 22 16987716792548091516
17844677 252 18335696148869579465
1813 80 17895461644394086220
18222031 100 18114455747527576902
18785283 64 18341336570463675132
200 152 18186806910958968263
20028762 73 18113623361064612031
20374829 77 18060419131873255815
20645477 70 18411984641448125288
21033648 29 17314533592899189211
21041028 32 18187365462650237400
21049683 271 18342448211121468980
21065198 57 18411699859794989629
21065201 7 17561090202595248121
21267235 1 18335698390905805166
221357 26 18342178894742810109
221490 88 18340765944923290658
2215653 11 18272657852929955935
23557571 272 17632584842263748181
23559900 14 17989486290811569517
26918003 58 18334012804972603795
3004659 81 17917426575450596550
314194 84 18334582364564494646
3286 77 18412542119576411965
3421961 26 18409168801112948472
4214541 1 18412544353645220893
465052 167 18335416881136937030
5104073 3 18336267932821740552
7495541 125 18341609308843428830
77188 2 18337109072919788652
8863177 126 18200021846798372075
9709674 26 18200309901733109995

> <PUBCHEM_SHAPE_MULTIPOLES>
397.61
12.73
2.6
0.85
8.94
1.3
0.01
-7.23
-1.2
-3.54
-0.36
0.55
0
1.42

> <PUBCHEM_SHAPE_SELFOVERLAP>
862.217

> <PUBCHEM_SHAPE_VOLUME>
217.2

> <PUBCHEM_COORDINATE_TYPE>
2
5
10

$$$$

