3035842
  -OEChem-07051213113D

 27 28  0     0  0  0  0  0  0999 V2000
   -3.4875   -0.7829    0.2132 N   0  0  0  0  0  0  0  0  0  0  0  0
    2.4028    0.1021    1.0773 N   0  0  0  0  0  0  0  0  0  0  0  0
    3.3409   -0.5608   -0.8234 N   0  0  0  0  0  0  0  0  0  0  0  0
   -0.8932    0.5237   -0.2148 C   0  0  0  0  0  0  0  0  0  0  0  0
   -1.0166   -0.8800    0.3911 C   0  0  0  0  0  0  0  0  0  0  0  0
   -2.1814    1.3175    0.0373 C   0  0  0  0  0  0  0  0  0  0  0  0
    0.3219    1.2580    0.3449 C   0  0  0  0  0  0  0  0  0  0  0  0
   -2.2923   -1.5758   -0.0827 C   0  0  0  0  0  0  0  0  0  0  0  0
   -3.4115    0.5347   -0.4218 C   0  0  0  0  0  0  0  0  0  0  0  0
    1.5962    0.5045    0.0749 C   0  0  0  0  0  0  0  0  0  0  0  0
    2.1672    0.1015   -1.0824 C   0  0  0  0  0  0  0  0  0  0  0  0
    3.4536   -0.5425    0.4863 C   0  0  0  0  0  0  0  0  0  0  0  0
   -0.7753    0.4141   -1.3023 H   0  0  0  0  0  0  0  0  0  0  0  0
   -1.0247   -0.8162    1.4874 H   0  0  0  0  0  0  0  0  0  0  0  0
   -0.1634   -1.5090    0.1141 H   0  0  0  0  0  0  0  0  0  0  0  0
   -2.1406    2.2763   -0.4930 H   0  0  0  0  0  0  0  0  0  0  0  0
   -2.2766    1.5481    1.1065 H   0  0  0  0  0  0  0  0  0  0  0  0
    0.2033    1.4220    1.4238 H   0  0  0  0  0  0  0  0  0  0  0  0
    0.4023    2.2504   -0.1164 H   0  0  0  0  0  0  0  0  0  0  0  0
   -2.2343   -1.7816   -1.1586 H   0  0  0  0  0  0  0  0  0  0  0  0
   -2.3798   -2.5441    0.4226 H   0  0  0  0  0  0  0  0  0  0  0  0
   -4.3125    1.1019   -0.1633 H   0  0  0  0  0  0  0  0  0  0  0  0
   -3.4053    0.4262   -1.5134 H   0  0  0  0  0  0  0  0  0  0  0  0
   -4.3114   -1.2751   -0.1312 H   0  0  0  0  0  0  0  0  0  0  0  0
    2.2679    0.2418    2.0704 H   0  0  0  0  0  0  0  0  0  0  0  0
    1.8157    0.2415   -2.0942 H   0  0  0  0  0  0  0  0  0  0  0  0
    4.2606   -0.9730    1.0620 H   0  0  0  0  0  0  0  0  0  0  0  0
  1  8  1  0  0  0  0
  1  9  1  0  0  0  0
  1 24  1  0  0  0  0
  2 10  1  0  0  0  0
  2 12  1  0  0  0  0
  2 25  1  0  0  0  0
  3 11  1  0  0  0  0
  3 12  2  0  0  0  0
  4  5  1  0  0  0  0
  4  6  1  0  0  0  0
  4  7  1  0  0  0  0
  4 13  1  0  0  0  0
  5  8  1  0  0  0  0
  5 14  1  0  0  0  0
  5 15  1  0  0  0  0
  6  9  1  0  0  0  0
  6 16  1  0  0  0  0
  6 17  1  0  0  0  0
  7 10  1  0  0  0  0
  7 18  1  0  0  0  0
  7 19  1  0  0  0  0
  8 20  1  0  0  0  0
  8 21  1  0  0  0  0
  9 22  1  0  0  0  0
  9 23  1  0  0  0  0
 10 11  2  0  0  0  0
 11 26  1  0  0  0  0
 12 27  1  0  0  0  0
M  END
> <PUBCHEM_COMPOUND_CID>
3035842

> <PUBCHEM_CONFORMER_RMSD>
0.6

> <PUBCHEM_CONFORMER_DIVERSEORDER>
1
18
9
17
3
13
7
16
5
14
11
2
8
15
10
6
4
12

> <PUBCHEM_MMFF94_PARTIAL_CHARGES>
13
1 -0.9
10 -0.33
11 0.08
12 0.04
2 0.03
24 0.36
25 0.27
26 0.15
27 0.15
3 -0.57
7 0.18
8 0.27
9 0.27

> <PUBCHEM_EFFECTIVE_ROTOR_COUNT>
3.2

> <PUBCHEM_PHARMACOPHORE_FEATURES>
6
1 1 cation
1 1 donor
1 2 donor
3 2 3 12 cation
5 2 3 10 11 12 rings
6 1 4 5 6 8 9 rings

> <PUBCHEM_HEAVY_ATOM_COUNT>
12

> <PUBCHEM_ATOM_DEF_STEREO_COUNT>
0

> <PUBCHEM_ATOM_UDEF_STEREO_COUNT>
0

> <PUBCHEM_BOND_DEF_STEREO_COUNT>
0

> <PUBCHEM_BOND_UDEF_STEREO_COUNT>
0

> <PUBCHEM_ISOTOPIC_ATOM_COUNT>
0

> <PUBCHEM_COMPONENT_COUNT>
1

> <PUBCHEM_CACTVS_TAUTO_COUNT>
2

> <PUBCHEM_CONFORMER_ID>
002E52C200000001

> <PUBCHEM_MMFF94_ENERGY>
4.179

> <PUBCHEM_FEATURE_SELFOVERLAP>
30.446

> <PUBCHEM_SHAPE_FINGERPRINT>
10465860 71 18341877602797656052
10751810 167 18059848476278812295
11031198 65 13398631658270120610
11062470 55 14634871954938102825
12032990 46 18339920408039734227
12932764 1 17704358774743382645
13296908 3 18259987058860412624
14144814 61 18343866631937525537
14325111 11 18413109459123579013
14993402 34 17418374688315405631
15775835 57 17775003517856347525
16945 1 18410575115002377489
18186145 218 13686299097226881116
190213 19 17203610380333077977
19422 9 17561079215604564523
20201158 50 18114179756686006934
20279233 1 17967818253517058574
20281407 28 18261106366008312626
20645476 183 17632570531105676131
20645477 70 16733549454244051084
20711983 171 16845298297168848501
20715346 28 17894354362690468784
21119208 17 17418093243171409302
22485316 2 18411141342094830514
23402539 116 18040444308774589413
23402655 69 16486978435481144436
23463225 33 18201724006440116874
23552423 10 17986108505102180741
23559900 14 18335989757228751432
3248919 1 17894908529298769169
369184 2 15140959560801479169
69090 78 17749399152363589335
7364860 26 18192147088416691660
74978 22 18272651208045823549
77492 1 17489306412295120344
8030462 33 17561363971962793024
81228 2 17823685563508124416

> <PUBCHEM_SHAPE_MULTIPOLES>
232.01
6.34
1.34
0.89
0.64
0.1
0.06
1.23
0.35
-0.91
-0.06
0.56
0
0.12

> <PUBCHEM_SHAPE_SELFOVERLAP>
478.319

> <PUBCHEM_SHAPE_VOLUME>
131.1

> <PUBCHEM_COORDINATE_TYPE>
2
5
10

$$$$

