441335
  -OEChem-07051212542D

 56 59  0     1  0  0  0  0  0999 V2000
    5.0182    0.0790    0.0000 Cl  0  0  0  0  0  0  0  0  0  0  0  0
    9.8566    2.7852    0.0000 Cl  0  0  0  0  0  0  0  0  0  0  0  0
    8.0319    1.5693    0.0000 O   0  0  0  0  0  0  0  0  0  0  0  0
    4.7950    0.8130    0.0000 O   0  0  0  0  0  0  0  0  0  0  0  0
   10.0622    0.7958    0.0000 O   0  0  0  0  0  0  0  0  0  0  0  0
    2.0000   -2.7394    0.0000 O   0  0  0  0  0  0  0  0  0  0  0  0
    7.3931    0.3130    0.0000 C   0  0  1  0  0  0  0  0  0  0  0  0
    7.3931   -0.6870    0.0000 C   0  0  2  0  0  0  0  0  0  0  0  0
    6.5271   -1.1870    0.0000 C   0  0  1  0  0  0  0  0  0  0  0  0
    5.6610   -0.6870    0.0000 C   0  0  1  0  0  0  0  0  0  0  0  0
    8.3393    0.6177    0.0000 C   0  0  1  0  0  0  0  0  0  0  0  0
    8.3393   -0.9917    0.0000 C   0  0  0  0  0  0  0  0  0  0  0  0
    6.5271    0.8130    0.0000 C   0  0  0  0  0  0  0  0  0  0  0  0
    8.9229   -0.1870    0.0000 C   0  0  1  0  0  0  0  0  0  0  0  0
    5.6610    0.3130    0.0000 C   0  0  2  0  0  0  0  0  0  0  0  0
    4.7510   -1.1939    0.0000 C   0  0  1  0  0  0  0  0  0  0  0  0
    6.5431   -2.2285    0.0000 C   0  0  0  0  0  0  0  0  0  0  0  0
    7.3931    1.3130    0.0000 C   0  0  0  0  0  0  0  0  0  0  0  0
    5.6451   -2.7563    0.0000 C   0  0  0  0  0  0  0  0  0  0  0  0
    4.7430   -2.2355    0.0000 C   0  0  0  0  0  0  0  0  0  0  0  0
    9.1493    1.2041    0.0000 C   0  0  0  0  0  0  0  0  0  0  0  0
    9.9229   -0.1870    0.0000 C   0  0  0  0  0  0  0  0  0  0  0  0
    4.4163   -0.2516    0.0000 C   0  0  0  0  0  0  0  0  0  0  0  0
    3.8242   -0.6298    0.0000 C   0  0  0  0  0  0  0  0  0  0  0  0
    3.8076   -2.7852    0.0000 C   0  0  0  0  0  0  0  0  0  0  0  0
    9.0465    2.1988    0.0000 C   0  0  0  0  0  0  0  0  0  0  0  0
    2.8763   -1.1577    0.0000 C   0  0  0  0  0  0  0  0  0  0  0  0
    2.8680   -2.2427    0.0000 C   0  0  0  0  0  0  0  0  0  0  0  0
    7.4830   -1.5322    0.0000 H   0  0  0  0  0  0  0  0  0  0  0  0
    7.2664   -1.6063    0.0000 H   0  0  0  0  0  0  0  0  0  0  0  0
    8.0883   -1.5586    0.0000 H   0  0  0  0  0  0  0  0  0  0  0  0
    8.8767   -1.3010    0.0000 H   0  0  0  0  0  0  0  0  0  0  0  0
    6.9256    1.2879    0.0000 H   0  0  0  0  0  0  0  0  0  0  0  0
    6.1285    1.2879    0.0000 H   0  0  0  0  0  0  0  0  0  0  0  0
    9.2046   -0.7393    0.0000 H   0  0  0  0  0  0  0  0  0  0  0  0
    5.6610    0.9330    0.0000 H   0  0  0  0  0  0  0  0  0  0  0  0
    6.7612   -2.8089    0.0000 H   0  0  0  0  0  0  0  0  0  0  0  0
    7.1523   -2.1130    0.0000 H   0  0  0  0  0  0  0  0  0  0  0  0
    8.0131    1.3130    0.0000 H   0  0  0  0  0  0  0  0  0  0  0  0
    7.3931    1.9330    0.0000 H   0  0  0  0  0  0  0  0  0  0  0  0
    6.7731    1.3130    0.0000 H   0  0  0  0  0  0  0  0  0  0  0  0
    5.2478   -3.2322    0.0000 H   0  0  0  0  0  0  0  0  0  0  0  0
    6.0460   -3.2292    0.0000 H   0  0  0  0  0  0  0  0  0  0  0  0
    9.9229   -0.8070    0.0000 H   0  0  0  0  0  0  0  0  0  0  0  0
   10.5429   -0.1870    0.0000 H   0  0  0  0  0  0  0  0  0  0  0  0
    9.9229    0.4330    0.0000 H   0  0  0  0  0  0  0  0  0  0  0  0
    5.0005   -0.0440    0.0000 H   0  0  0  0  0  0  0  0  0  0  0  0
    4.2087    0.3327    0.0000 H   0  0  0  0  0  0  0  0  0  0  0  0
    3.8320   -0.4591    0.0000 H   0  0  0  0  0  0  0  0  0  0  0  0
    8.4476    2.0293    0.0000 H   0  0  0  0  0  0  0  0  0  0  0  0
    3.8361   -0.0099    0.0000 H   0  0  0  0  0  0  0  0  0  0  0  0
    4.7950    1.4330    0.0000 H   0  0  0  0  0  0  0  0  0  0  0  0
    3.8100   -3.4052    0.0000 H   0  0  0  0  0  0  0  0  0  0  0  0
    8.7757    2.7565    0.0000 H   0  0  0  0  0  0  0  0  0  0  0  0
    8.4502    2.0289    0.0000 H   0  0  0  0  0  0  0  0  0  0  0  0
    2.3430   -0.8415    0.0000 H   0  0  0  0  0  0  0  0  0  0  0  0
 10  1  1  6  0  0  0
  2 26  1  0  0  0  0
 11  3  1  6  0  0  0
  3 50  1  0  0  0  0
 15  4  1  1  0  0  0
  4 52  1  0  0  0  0
  5 21  2  0  0  0  0
  6 28  2  0  0  0  0
  7  8  1  0  0  0  0
  7 11  1  0  0  0  0
  7 13  1  0  0  0  0
  7 18  1  1  0  0  0
  8  9  1  0  0  0  0
  8 12  1  0  0  0  0
  8 29  1  6  0  0  0
  9 10  1  0  0  0  0
  9 17  1  0  0  0  0
  9 30  1  1  0  0  0
 10 15  1  0  0  0  0
 10 16  1  0  0  0  0
 11 14  1  0  0  0  0
 11 21  1  0  0  0  0
 12 14  1  0  0  0  0
 12 31  1  0  0  0  0
 12 32  1  0  0  0  0
 13 15  1  0  0  0  0
 13 33  1  0  0  0  0
 13 34  1  0  0  0  0
 14 22  1  6  0  0  0
 14 35  1  0  0  0  0
 15 36  1  0  0  0  0
 16 20  1  0  0  0  0
 16 23  1  1  0  0  0
 16 24  1  0  0  0  0
 17 19  1  0  0  0  0
 17 37  1  0  0  0  0
 17 38  1  0  0  0  0
 18 39  1  0  0  0  0
 18 40  1  0  0  0  0
 18 41  1  0  0  0  0
 19 20  1  0  0  0  0
 19 42  1  0  0  0  0
 19 43  1  0  0  0  0
 20 25  2  0  0  0  0
 21 26  1  0  0  0  0
 22 44  1  0  0  0  0
 22 45  1  0  0  0  0
 22 46  1  0  0  0  0
 23 47  1  0  0  0  0
 23 48  1  0  0  0  0
 23 49  1  0  0  0  0
 24 27  2  0  0  0  0
 24 51  1  0  0  0  0
 25 28  1  0  0  0  0
 25 53  1  0  0  0  0
 26 54  1  0  0  0  0
 26 55  1  0  0  0  0
 27 28  1  0  0  0  0
 27 56  1  0  0  0  0
M  END
> <PUBCHEM_COMPOUND_CID>
441335

> <PUBCHEM_COMPOUND_CANONICALIZED>
1

> <PUBCHEM_CACTVS_COMPLEXITY>
806

> <PUBCHEM_CACTVS_HBOND_ACCEPTOR>
4

> <PUBCHEM_CACTVS_HBOND_DONOR>
2

> <PUBCHEM_CACTVS_ROTATABLE_BOND>
2

> <PUBCHEM_CACTVS_SUBSKEYS>
AAADceB4OAAGAAAAAAAAAAAAAAAAAYAAAAAwYIAAAAAAAGDAAAAAGgIACAAAD1eggEICAAAAAgCIAqBSAAIAAAAgAAAICAFAA0hAEBIBAQAAQAAEgAAIAYPIzPDPgAAAAAAAAADIAAZAADIQAYAADAAAAA==

> <PUBCHEM_IUPAC_OPENEYE_NAME>
(8S,9R,10S,11S,13S,14S,16R,17R)-9-chloro-17-(2-chloroacetyl)-11,17-dihydroxy-10,13,16-trimethyl-6,7,8,11,12,14,15,16-octahydrocyclopenta[a]phenanthren-3-one

> <PUBCHEM_IUPAC_CAS_NAME>
(8S,9R,10S,11S,13S,14S,16R,17R)-9-chloro-17-(2-chloro-1-oxoethyl)-11,17-dihydroxy-10,13,16-trimethyl-6,7,8,11,12,14,15,16-octahydrocyclopenta[a]phenanthren-3-one

> <PUBCHEM_IUPAC_NAME>
(8S,9R,10S,11S,13S,14S,16R,17R)-9-chloro-17-(2-chloroacetyl)-11,17-dihydroxy-10,13,16-trimethyl-6,7,8,11,12,14,15,16-octahydrocyclopenta[a]phenanthren-3-one

> <PUBCHEM_IUPAC_SYSTEMATIC_NAME>
(8S,9R,10S,11S,13S,14S,16R,17R)-9-chloranyl-17-(2-chloranylethanoyl)-10,13,16-trimethyl-11,17-bis(oxidanyl)-6,7,8,11,12,14,15,16-octahydrocyclopenta[a]phenanthren-3-one

> <PUBCHEM_IUPAC_TRADITIONAL_NAME>
(8S,9R,10S,11S,13S,14S,16R,17R)-9-chloro-17-(2-chloroacetyl)-11,17-dihydroxy-10,13,16-trimethyl-6,7,8,11,12,14,15,16-octahydrocyclopenta[a]phenanthren-3-one

> <PUBCHEM_IUPAC_INCHI>
InChI=1S/C22H28Cl2O4/c1-12-8-16-15-5-4-13-9-14(25)6-7-19(13,2)21(15,24)17(26)10-20(16,3)22(12,28)18(27)11-23/h6-7,9,12,15-17,26,28H,4-5,8,10-11H2,1-3H3/t12-,15+,16+,17+,19+,20+,21+,22+/m1/s1

> <PUBCHEM_IUPAC_INCHIKEY>
QLIIKPVHVRXHRI-CXSFZGCWSA-N

> <PUBCHEM_XLOGP3>
2.7

> <PUBCHEM_EXACT_MASS>
426.136465

> <PUBCHEM_MOLECULAR_FORMULA>
C22H28Cl2O4

> <PUBCHEM_MOLECULAR_WEIGHT>
427.36132

> <PUBCHEM_OPENEYE_CAN_SMILES>
CC1CC2C3CCC4=CC(=O)C=CC4(C3(C(CC2(C1(C(=O)CCl)O)C)O)Cl)C

> <PUBCHEM_OPENEYE_ISO_SMILES>
C[C@@H]1C[C@H]2[C@@H]3CCC4=CC(=O)C=C[C@@]4([C@]3([C@H](C[C@@]2([C@]1(C(=O)CCl)O)C)O)Cl)C

> <PUBCHEM_CACTVS_TPSA>
74.6

> <PUBCHEM_MONOISOTOPIC_WEIGHT>
426.136465

> <PUBCHEM_TOTAL_CHARGE>
0

> <PUBCHEM_HEAVY_ATOM_COUNT>
28

> <PUBCHEM_ATOM_DEF_STEREO_COUNT>
8

> <PUBCHEM_ATOM_UDEF_STEREO_COUNT>
0

> <PUBCHEM_BOND_DEF_STEREO_COUNT>
0

> <PUBCHEM_BOND_UDEF_STEREO_COUNT>
0

> <PUBCHEM_ISOTOPIC_ATOM_COUNT>
0

> <PUBCHEM_COMPONENT_COUNT>
1

> <PUBCHEM_CACTVS_TAUTO_COUNT>
6

> <PUBCHEM_COORDINATE_TYPE>
1
5
255

> <PUBCHEM_BONDANNOTATIONS>
10  1  6
14  22  6
16  23  5
11  3  6
15  4  5
7  18  5
8  29  6
9  30  5

$$$$

