11841
  -OEChem-06261206113D

 22 23  0     0  0  0  0  0  0999 V2000
    1.9527    0.5048   -0.6430 O   0  0  0  0  0  0  0  0  0  0  0  0
    2.0078   -0.9441    1.1945 O   0  0  0  0  0  0  0  0  0  0  0  0
   -1.0629    2.0699    0.2446 N   0  0  0  0  0  0  0  0  0  0  0  0
   -0.4421   -0.0166   -0.2434 C   0  0  0  0  0  0  0  0  0  0  0  0
   -1.5302    0.7812    0.1171 C   0  0  0  0  0  0  0  0  0  0  0  0
    0.6926    0.8380   -0.3276 C   0  0  0  0  0  0  0  0  0  0  0  0
    0.2790    2.1142   -0.0222 C   0  0  0  0  0  0  0  0  0  0  0  0
   -0.6486   -1.3966   -0.4400 C   0  0  0  0  0  0  0  0  0  0  0  0
   -2.8196    0.2659    0.2918 C   0  0  0  0  0  0  0  0  0  0  0  0
   -1.9330   -1.9259   -0.2689 C   0  0  0  0  0  0  0  0  0  0  0  0
   -3.0002   -1.1056    0.0914 C   0  0  0  0  0  0  0  0  0  0  0  0
    2.5510   -0.4399    0.2206 C   0  0  0  0  0  0  0  0  0  0  0  0
    3.9536   -0.7451   -0.2148 C   0  0  0  0  0  0  0  0  0  0  0  0
   -1.6295    2.8673    0.4986 H   0  0  0  0  0  0  0  0  0  0  0  0
    0.8186    3.0495    0.0296 H   0  0  0  0  0  0  0  0  0  0  0  0
    0.1693   -2.0509   -0.7278 H   0  0  0  0  0  0  0  0  0  0  0  0
   -3.6511    0.9037    0.5722 H   0  0  0  0  0  0  0  0  0  0  0  0
   -2.0985   -2.9892   -0.4208 H   0  0  0  0  0  0  0  0  0  0  0  0
   -3.9895   -1.5378    0.2185 H   0  0  0  0  0  0  0  0  0  0  0  0
    3.9425   -1.1639   -1.2240 H   0  0  0  0  0  0  0  0  0  0  0  0
    4.3930   -1.4806    0.4648 H   0  0  0  0  0  0  0  0  0  0  0  0
    4.5556    0.1661   -0.1821 H   0  0  0  0  0  0  0  0  0  0  0  0
  1  6  1  0  0  0  0
  1 12  1  0  0  0  0
  2 12  2  0  0  0  0
  3  5  1  0  0  0  0
  3  7  1  0  0  0  0
  3 14  1  0  0  0  0
  4  5  1  0  0  0  0
  4  6  1  0  0  0  0
  4  8  2  0  0  0  0
  5  9  2  0  0  0  0
  6  7  2  0  0  0  0
  7 15  1  0  0  0  0
  8 10  1  0  0  0  0
  8 16  1  0  0  0  0
  9 11  1  0  0  0  0
  9 17  1  0  0  0  0
 10 11  2  0  0  0  0
 10 18  1  0  0  0  0
 11 19  1  0  0  0  0
 12 13  1  0  0  0  0
 13 20  1  0  0  0  0
 13 21  1  0  0  0  0
 13 22  1  0  0  0  0
M  END
> <PUBCHEM_COMPOUND_CID>
11841

> <PUBCHEM_CONFORMER_RMSD>
0.6

> <PUBCHEM_CONFORMER_DIVERSEORDER>
1
12
4
7
9
2
3
11
8
10
5
6

> <PUBCHEM_MMFF94_PARTIAL_CHARGES>
18
1 -0.21
10 -0.15
11 -0.15
12 0.66
13 0.06
14 0.27
15 0.15
16 0.15
17 0.15
18 0.15
19 0.15
2 -0.57
3 0.03
5 -0.15
6 0.06
7 -0.3
8 -0.15
9 -0.15

> <PUBCHEM_EFFECTIVE_ROTOR_COUNT>
2

> <PUBCHEM_PHARMACOPHORE_FEATURES>
5
1 2 acceptor
1 3 cation
1 3 donor
5 3 4 5 6 7 rings
6 4 5 8 9 10 11 rings

> <PUBCHEM_HEAVY_ATOM_COUNT>
13

> <PUBCHEM_ATOM_DEF_STEREO_COUNT>
0

> <PUBCHEM_ATOM_UDEF_STEREO_COUNT>
0

> <PUBCHEM_BOND_DEF_STEREO_COUNT>
0

> <PUBCHEM_BOND_UDEF_STEREO_COUNT>
0

> <PUBCHEM_ISOTOPIC_ATOM_COUNT>
0

> <PUBCHEM_COMPONENT_COUNT>
1

> <PUBCHEM_CACTVS_TAUTO_COUNT>
1

> <PUBCHEM_CONFORMER_ID>
00002E4100000001

> <PUBCHEM_MMFF94_ENERGY>
26.5435

> <PUBCHEM_FEATURE_SELFOVERLAP>
25.463

> <PUBCHEM_SHAPE_FINGERPRINT>
10130415 120 18412261701509646611
12423570 1 10184881168753075557
13024252 1 15697990885948394061
14128692 85 18342174423465622572
14993402 34 18410860970893099015
15076042 46 18121788484703669346
15375462 189 18201717344892957146
16945 1 18335979852411856461
17804303 29 18260261984291701718
20510252 161 18115024246125297976
20645477 70 17906180547046663783
20871998 184 18187648032864116598
22445834 79 18200595916205396546
232386 152 18410288077969055414
23402539 116 18114752620109717309
23463225 33 18411696595176876062
23552423 10 17908984305727923085
23559900 14 18334581291481533550
2748010 2 18265340512430813109
3312278 4 18272369775945010866
369184 2 15285361725522509639
427121 178 16158729229435035569
43471831 8 18269273645738499138
53812654 25 18261114019687481063
7364860 26 18046063757357472336
75552 356 18408040731851735466

> <PUBCHEM_SHAPE_MULTIPOLES>
250.81
4.92
2.03
0.76
3.04
0.56
0.07
-2.2
0.27
-0.7
-0.03
0.19
-0.1
-0.31

> <PUBCHEM_SHAPE_SELFOVERLAP>
546.201

> <PUBCHEM_SHAPE_VOLUME>
135.7

> <PUBCHEM_COORDINATE_TYPE>
2
5
10

$$$$

