123697
  -OEChem-07051213022D

 61 62  0     1  0  0  0  0  0999 V2000
    4.5981   -0.8410    0.0000 O   0  0  0  0  0  0  0  0  0  0  0  0
    5.9615    2.6664    0.0000 O   0  0  0  0  0  0  0  0  0  0  0  0
    7.1204    1.3792    0.0000 O   0  0  0  0  0  0  0  0  0  0  0  0
    6.5852   -0.2680    0.0000 O   0  0  0  0  0  0  0  0  0  0  0  0
    2.0000   -5.3410    0.0000 O   0  0  0  0  0  0  0  0  0  0  0  0
    3.7320   -5.3410    0.0000 O   0  0  0  0  0  0  0  0  0  0  0  0
    6.2888    5.2918    0.0000 O   0  0  0  0  0  0  0  0  0  0  0  0
    2.8660   -0.8410    0.0000 N   0  0  0  0  0  0  0  0  0  0  0  0
    3.7320    0.6590    0.0000 C   0  0  0  0  0  0  0  0  0  0  0  0
    4.0411    1.6101    0.0000 C   0  0  0  0  0  0  0  0  0  0  0  0
    2.7320    0.6590    0.0000 C   0  0  0  0  0  0  0  0  0  0  0  0
    4.6831    0.3500    0.0000 C   0  0  0  0  0  0  0  0  0  0  0  0
    2.4230    1.6101    0.0000 C   0  0  0  0  0  0  0  0  0  0  0  0
    3.2320    2.1979    0.0000 C   0  0  0  0  0  0  0  0  0  0  0  0
    3.7320   -0.3410    0.0000 C   0  0  0  0  0  0  0  0  0  0  0  0
    2.8660   -1.8410    0.0000 C   0  0  0  0  0  0  0  0  0  0  0  0
    5.4262    1.0191    0.0000 C   0  0  3  0  0  0  0  0  0  0  0  0
    2.0000   -2.3410    0.0000 C   0  0  0  0  0  0  0  0  0  0  0  0
    3.7320   -2.3410    0.0000 C   0  0  0  0  0  0  0  0  0  0  0  0
    2.8660   -3.8410    0.0000 C   0  0  0  0  0  0  0  0  0  0  0  0
    3.7320   -3.3410    0.0000 C   0  0  0  0  0  0  0  0  0  0  0  0
    2.0000   -3.3410    0.0000 C   0  0  0  0  0  0  0  0  0  0  0  0
    5.2183    1.9973    0.0000 C   0  0  0  0  0  0  0  0  0  0  0  0
    6.3773    0.7101    0.0000 C   0  0  0  0  0  0  0  0  0  0  0  0
    2.8660   -4.8410    0.0000 C   0  0  0  0  0  0  0  0  0  0  0  0
    5.7536    3.6446    0.0000 C   0  0  0  0  0  0  0  0  0  0  0  0
    6.4967    4.3137    0.0000 C   0  0  0  0  0  0  0  0  0  0  0  0
    7.0320    5.9610    0.0000 C   0  0  0  0  0  0  0  0  0  0  0  0
    2.1256    0.5301    0.0000 H   0  0  0  0  0  0  0  0  0  0  0  0
    2.7969    0.0424    0.0000 H   0  0  0  0  0  0  0  0  0  0  0  0
    4.6075    1.3579    0.0000 H   0  0  0  0  0  0  0  0  0  0  0  0
    4.3511    2.1470    0.0000 H   0  0  0  0  0  0  0  0  0  0  0  0
    4.3920   -0.1974    0.0000 H   0  0  0  0  0  0  0  0  0  0  0  0
    5.1717   -0.0317    0.0000 H   0  0  0  0  0  0  0  0  0  0  0  0
    2.1130    2.1470    0.0000 H   0  0  0  0  0  0  0  0  0  0  0  0
    1.8566    1.3579    0.0000 H   0  0  0  0  0  0  0  0  0  0  0  0
    3.6469    2.6586    0.0000 H   0  0  0  0  0  0  0  0  0  0  0  0
    2.8172    2.6586    0.0000 H   0  0  0  0  0  0  0  0  0  0  0  0
    3.4030   -1.5310    0.0000 H   0  0  0  0  0  0  0  0  0  0  0  0
    6.0579    1.5879    0.0000 H   0  0  0  0  0  0  0  0  0  0  0  0
    2.3291   -0.5310    0.0000 H   0  0  0  0  0  0  0  0  0  0  0  0
    4.3426   -2.4486    0.0000 H   0  0  0  0  0  0  0  0  0  0  0  0
    3.9441   -1.7584    0.0000 H   0  0  0  0  0  0  0  0  0  0  0  0
    1.7880   -1.7584    0.0000 H   0  0  0  0  0  0  0  0  0  0  0  0
    1.3894   -2.4486    0.0000 H   0  0  0  0  0  0  0  0  0  0  0  0
    3.4030   -4.1510    0.0000 H   0  0  0  0  0  0  0  0  0  0  0  0
    3.9441   -3.9236    0.0000 H   0  0  0  0  0  0  0  0  0  0  0  0
    1.3894   -3.2333    0.0000 H   0  0  0  0  0  0  0  0  0  0  0  0
    1.7880   -3.9236    0.0000 H   0  0  0  0  0  0  0  0  0  0  0  0
    4.3426   -3.2333    0.0000 H   0  0  0  0  0  0  0  0  0  0  0  0
    4.8898    2.5231    0.0000 H   0  0  0  0  0  0  0  0  0  0  0  0
    4.6435    1.7650    0.0000 H   0  0  0  0  0  0  0  0  0  0  0  0
    7.7101    1.1877    0.0000 H   0  0  0  0  0  0  0  0  0  0  0  0
    5.4250    4.1704    0.0000 H   0  0  0  0  0  0  0  0  0  0  0  0
    5.1787    3.4123    0.0000 H   0  0  0  0  0  0  0  0  0  0  0  0
    2.0000   -5.9610    0.0000 H   0  0  0  0  0  0  0  0  0  0  0  0
    6.8253    3.7879    0.0000 H   0  0  0  0  0  0  0  0  0  0  0  0
    7.0716    4.5460    0.0000 H   0  0  0  0  0  0  0  0  0  0  0  0
    7.4468    5.5002    0.0000 H   0  0  0  0  0  0  0  0  0  0  0  0
    7.4927    6.3758    0.0000 H   0  0  0  0  0  0  0  0  0  0  0  0
    6.6171    6.4217    0.0000 H   0  0  0  0  0  0  0  0  0  0  0  0
  1 15  2  0  0  0  0
  2 23  1  0  0  0  0
  2 26  1  0  0  0  0
  3 24  1  0  0  0  0
  3 53  1  0  0  0  0
  4 24  2  0  0  0  0
  5 25  1  0  0  0  0
  5 56  1  0  0  0  0
  6 25  2  0  0  0  0
  7 27  1  0  0  0  0
  7 28  1  0  0  0  0
  8 15  1  0  0  0  0
  8 16  1  0  0  0  0
  8 41  1  0  0  0  0
  9 10  1  0  0  0  0
  9 11  1  0  0  0  0
  9 12  1  0  0  0  0
  9 15  1  0  0  0  0
 10 14  1  0  0  0  0
 10 31  1  0  0  0  0
 10 32  1  0  0  0  0
 11 13  1  0  0  0  0
 11 29  1  0  0  0  0
 11 30  1  0  0  0  0
 12 17  1  0  0  0  0
 12 33  1  0  0  0  0
 12 34  1  0  0  0  0
 13 14  1  0  0  0  0
 13 35  1  0  0  0  0
 13 36  1  0  0  0  0
 14 37  1  0  0  0  0
 14 38  1  0  0  0  0
 16 18  1  0  0  0  0
 16 19  1  0  0  0  0
 16 39  1  0  0  0  0
 17 23  1  0  0  0  0
 17 24  1  0  0  0  0
 17 40  1  0  0  0  0
 18 22  1  0  0  0  0
 18 44  1  0  0  0  0
 18 45  1  0  0  0  0
 19 21  1  0  0  0  0
 19 42  1  0  0  0  0
 19 43  1  0  0  0  0
 20 21  1  0  0  0  0
 20 22  1  0  0  0  0
 20 25  1  0  0  0  0
 20 46  1  0  0  0  0
 21 47  1  0  0  0  0
 21 50  1  0  0  0  0
 22 48  1  0  0  0  0
 22 49  1  0  0  0  0
 23 51  1  0  0  0  0
 23 52  1  0  0  0  0
 26 27  1  0  0  0  0
 26 54  1  0  0  0  0
 26 55  1  0  0  0  0
 27 57  1  0  0  0  0
 27 58  1  0  0  0  0
 28 59  1  0  0  0  0
 28 60  1  0  0  0  0
 28 61  1  0  0  0  0
M  END
> <PUBCHEM_COMPOUND_CID>
123697

> <PUBCHEM_COMPOUND_CANONICALIZED>
1

> <PUBCHEM_CACTVS_COMPLEXITY>
537

> <PUBCHEM_CACTVS_HBOND_ACCEPTOR>
7

> <PUBCHEM_CACTVS_HBOND_DONOR>
3

> <PUBCHEM_CACTVS_ROTATABLE_BOND>
11

> <PUBCHEM_CACTVS_SUBSKEYS>
AAADcfB6OAAAAAAAAAAAAAAAAAAAAYAAAAAwAAAAAAAAAAAAAAAAHgAQCAAADyjhgAYCCALABgAIAAGQGAAAAAAAAAAAAIEIAAABABYAgAAGQAAFNgCCAAGY3+OfAAAAAAAAAAAQAAAAAAAAAAAAAAAAAA==

> <PUBCHEM_IUPAC_OPENEYE_NAME>
4-[[1-[2-carboxy-3-(2-methoxyethoxy)propyl]cyclopentanecarbonyl]amino]cyclohexanecarboxylic acid

> <PUBCHEM_IUPAC_CAS_NAME>
4-[[[1-[2-carboxy-3-(2-methoxyethoxy)propyl]cyclopentyl]-oxomethyl]amino]-1-cyclohexanecarboxylic acid

> <PUBCHEM_IUPAC_NAME>
4-[[1-[2-carboxy-3-(2-methoxyethoxy)propyl]cyclopentanecarbonyl]amino]cyclohexane-1-carboxylic acid

> <PUBCHEM_IUPAC_SYSTEMATIC_NAME>
4-[[1-[2-(2-methoxyethoxymethyl)-3-oxidanyl-3-oxidanylidene-propyl]cyclopentyl]carbonylamino]cyclohexane-1-carboxylic acid

> <PUBCHEM_IUPAC_TRADITIONAL_NAME>
4-[[1-[2-carboxy-3-(2-methoxyethoxy)propyl]cyclopentanecarbonyl]amino]cyclohexanecarboxylic acid

> <PUBCHEM_IUPAC_INCHI>
InChI=1S/C20H33NO7/c1-27-10-11-28-13-15(18(24)25)12-20(8-2-3-9-20)19(26)21-16-6-4-14(5-7-16)17(22)23/h14-16H,2-13H2,1H3,(H,21,26)(H,22,23)(H,24,25)

> <PUBCHEM_IUPAC_INCHIKEY>
ACZWIDANLCXHBM-UHFFFAOYSA-N

> <PUBCHEM_XLOGP3_AA>
1.3

> <PUBCHEM_EXACT_MASS>
399.225702

> <PUBCHEM_MOLECULAR_FORMULA>
C20H33NO7

> <PUBCHEM_MOLECULAR_WEIGHT>
399.47852

> <PUBCHEM_OPENEYE_CAN_SMILES>
COCCOCC(CC1(CCCC1)C(=O)NC2CCC(CC2)C(=O)O)C(=O)O

> <PUBCHEM_OPENEYE_ISO_SMILES>
COCCOCC(CC1(CCCC1)C(=O)NC2CCC(CC2)C(=O)O)C(=O)O

> <PUBCHEM_CACTVS_TPSA>
122

> <PUBCHEM_MONOISOTOPIC_WEIGHT>
399.225702

> <PUBCHEM_TOTAL_CHARGE>
0

> <PUBCHEM_HEAVY_ATOM_COUNT>
28

> <PUBCHEM_ATOM_DEF_STEREO_COUNT>
0

> <PUBCHEM_ATOM_UDEF_STEREO_COUNT>
1

> <PUBCHEM_BOND_DEF_STEREO_COUNT>
0

> <PUBCHEM_BOND_UDEF_STEREO_COUNT>
0

> <PUBCHEM_ISOTOPIC_ATOM_COUNT>
0

> <PUBCHEM_COMPONENT_COUNT>
1

> <PUBCHEM_CACTVS_TAUTO_COUNT>
2

> <PUBCHEM_COORDINATE_TYPE>
1
5
255

> <PUBCHEM_BONDANNOTATIONS>
17  40  3

$$$$

