47205737
  -OEChem-06241223002D

 36 38  0     1  0  0  0  0  0999 V2000
    9.1624   -2.3680    0.0000 S   0  0  0  0  0  0  0  0  0  0  0  0
    5.2295    0.8460    0.0000 O   0  0  0  0  0  0  0  0  0  0  0  0
    5.6774    0.1688    0.0000 O   0  0  0  0  0  0  0  0  0  0  0  0
    4.1774   -0.6973    0.0000 N   0  0  0  0  0  0  0  0  0  0  0  0
    3.9459    1.9506    0.0000 N   0  0  0  0  0  0  0  0  0  0  0  0
    8.2162   -1.0633    0.0000 N   0  0  0  0  0  0  0  0  0  0  0  0
    7.2652   -2.3723    0.0000 N   0  0  0  0  0  0  0  0  0  0  0  0
    3.6774    0.1688    0.0000 C   0  0  3  0  0  0  0  0  0  0  0  0
    2.6802    0.0940    0.0000 C   0  0  0  0  0  0  0  0  0  0  0  0
    2.0000    0.8271    0.0000 C   0  0  0  0  0  0  0  0  0  0  0  0
    2.1490    1.8159    0.0000 C   0  0  0  0  0  0  0  0  0  0  0  0
    3.0151    2.3159    0.0000 C   0  0  0  0  0  0  0  0  0  0  0  0
    4.2407    0.9950    0.0000 C   0  0  0  0  0  0  0  0  0  0  0  0
    5.1774   -0.6973    0.0000 C   0  0  0  0  0  0  0  0  0  0  0  0
    5.6774   -1.5633    0.0000 C   0  0  0  0  0  0  0  0  0  0  0  0
    6.6774   -1.5633    0.0000 C   0  0  0  0  0  0  0  0  0  0  0  0
    7.2652   -0.7543    0.0000 C   0  0  0  0  0  0  0  0  0  0  0  0
    8.2162   -2.0633    0.0000 C   0  0  0  0  0  0  0  0  0  0  0  0
    9.1624   -0.7585    0.0000 C   0  0  0  0  0  0  0  0  0  0  0  0
    9.7460   -1.5633    0.0000 C   0  0  0  0  0  0  0  0  0  0  0  0
    3.3877   -0.3794    0.0000 H   0  0  0  0  0  0  0  0  0  0  0  0
    2.1432   -0.2160    0.0000 H   0  0  0  0  0  0  0  0  0  0  0  0
    2.8629   -0.4984    0.0000 H   0  0  0  0  0  0  0  0  0  0  0  0
    1.4229    1.0536    0.0000 H   0  0  0  0  0  0  0  0  0  0  0  0
    1.6507    0.3148    0.0000 H   0  0  0  0  0  0  0  0  0  0  0  0
    1.9663    2.4084    0.0000 H   0  0  0  0  0  0  0  0  0  0  0  0
    1.5308    1.7696    0.0000 H   0  0  0  0  0  0  0  0  0  0  0  0
    3.3643    2.8282    0.0000 H   0  0  0  0  0  0  0  0  0  0  0  0
    2.5934    2.7704    0.0000 H   0  0  0  0  0  0  0  0  0  0  0  0
    3.8674   -1.2342    0.0000 H   0  0  0  0  0  0  0  0  0  0  0  0
    4.4004    2.3723    0.0000 H   0  0  0  0  0  0  0  0  0  0  0  0
    5.0948   -1.7753    0.0000 H   0  0  0  0  0  0  0  0  0  0  0  0
    5.7850   -2.1739    0.0000 H   0  0  0  0  0  0  0  0  0  0  0  0
    7.0736   -0.1646    0.0000 H   0  0  0  0  0  0  0  0  0  0  0  0
    9.3550   -0.1692    0.0000 H   0  0  0  0  0  0  0  0  0  0  0  0
   10.3660   -1.5633    0.0000 H   0  0  0  0  0  0  0  0  0  0  0  0
  1 18  1  0  0  0  0
  1 20  1  0  0  0  0
  2 13  2  0  0  0  0
  3 14  2  0  0  0  0
  4  8  1  0  0  0  0
  4 14  1  0  0  0  0
  4 30  1  0  0  0  0
  5 12  1  0  0  0  0
  5 13  1  0  0  0  0
  5 31  1  0  0  0  0
  6 17  1  0  0  0  0
  6 18  1  0  0  0  0
  6 19  1  0  0  0  0
  7 16  1  0  0  0  0
  7 18  2  0  0  0  0
  8  9  1  0  0  0  0
  8 13  1  0  0  0  0
  8 21  1  0  0  0  0
  9 10  1  0  0  0  0
  9 22  1  0  0  0  0
  9 23  1  0  0  0  0
 10 11  1  0  0  0  0
 10 24  1  0  0  0  0
 10 25  1  0  0  0  0
 11 12  1  0  0  0  0
 11 26  1  0  0  0  0
 11 27  1  0  0  0  0
 12 28  1  0  0  0  0
 12 29  1  0  0  0  0
 14 15  1  0  0  0  0
 15 16  1  0  0  0  0
 15 32  1  0  0  0  0
 15 33  1  0  0  0  0
 16 17  2  0  0  0  0
 17 34  1  0  0  0  0
 19 20  2  0  0  0  0
 19 35  1  0  0  0  0
 20 36  1  0  0  0  0
M  END
> <PUBCHEM_COMPOUND_CID>
47205737

> <PUBCHEM_COMPOUND_CANONICALIZED>
1

> <PUBCHEM_CACTVS_COMPLEXITY>
393

> <PUBCHEM_CACTVS_HBOND_ACCEPTOR>
4

> <PUBCHEM_CACTVS_HBOND_DONOR>
2

> <PUBCHEM_CACTVS_ROTATABLE_BOND>
3

> <PUBCHEM_CACTVS_SUBSKEYS>
AAADceBzsABAAAAAAAAAAAAAAAAAAWLAAAAAAAAABYAWAAAB4AAAHgQQAAAACCjF1gStkRfMGAisARV3dAAA8K1xGrhJUI24cAiAaFpAzSEUAAAIFgLAQCEcCAAAAAAAAAAAAAAAAAAAAAAAAAAAAAAAAA==

> <PUBCHEM_IUPAC_OPENEYE_NAME>
2-imidazo[2,1-b]thiazol-6-yl-N-(2-oxoazepan-3-yl)acetamide

> <PUBCHEM_IUPAC_CAS_NAME>
2-(6-imidazo[2,1-b]thiazolyl)-N-(2-oxo-3-azepanyl)acetamide

> <PUBCHEM_IUPAC_NAME>
2-imidazo[2,1-b][1,3]thiazol-6-yl-N-(2-oxoazepan-3-yl)acetamide

> <PUBCHEM_IUPAC_SYSTEMATIC_NAME>
2-imidazo[2,1-b][1,3]thiazol-6-yl-N-(2-oxidanylideneazepan-3-yl)ethanamide

> <PUBCHEM_IUPAC_TRADITIONAL_NAME>
2-imidazo[2,1-b]thiazol-6-yl-N-(2-ketoazepan-3-yl)acetamide

> <PUBCHEM_IUPAC_INCHI>
InChI=1S/C13H16N4O2S/c18-11(16-10-3-1-2-4-14-12(10)19)7-9-8-17-5-6-20-13(17)15-9/h5-6,8,10H,1-4,7H2,(H,14,19)(H,16,18)

> <PUBCHEM_IUPAC_INCHIKEY>
UDULVLQHQXQRIG-UHFFFAOYSA-N

> <PUBCHEM_XLOGP3_AA>
1.3

> <PUBCHEM_EXACT_MASS>
292.099397

> <PUBCHEM_MOLECULAR_FORMULA>
C13H16N4O2S

> <PUBCHEM_MOLECULAR_WEIGHT>
292.35674

> <PUBCHEM_OPENEYE_CAN_SMILES>
C1CCNC(=O)C(C1)NC(=O)CC2=CN3C=CSC3=N2

> <PUBCHEM_OPENEYE_ISO_SMILES>
C1CCNC(=O)C(C1)NC(=O)CC2=CN3C=CSC3=N2

> <PUBCHEM_CACTVS_TPSA>
104

> <PUBCHEM_MONOISOTOPIC_WEIGHT>
292.099397

> <PUBCHEM_TOTAL_CHARGE>
0

> <PUBCHEM_HEAVY_ATOM_COUNT>
20

> <PUBCHEM_ATOM_DEF_STEREO_COUNT>
0

> <PUBCHEM_ATOM_UDEF_STEREO_COUNT>
1

> <PUBCHEM_BOND_DEF_STEREO_COUNT>
0

> <PUBCHEM_BOND_UDEF_STEREO_COUNT>
0

> <PUBCHEM_ISOTOPIC_ATOM_COUNT>
0

> <PUBCHEM_COMPONENT_COUNT>
1

> <PUBCHEM_CACTVS_TAUTO_COUNT>
6

> <PUBCHEM_COORDINATE_TYPE>
1
5
255

> <PUBCHEM_BONDANNOTATIONS>
1  18  8
1  20  8
16  17  8
19  20  8
8  4  3
6  17  8
6  18  8
6  19  8
7  16  8
7  18  8

$$$$

