108011
  -OEChem-07051212552D

 37 37  0     1  0  0  0  0  0999 V2000
    4.2690   -0.5000    0.0000 O   0  0  0  0  0  0  0  0  0  0  0  0
    2.5369   -2.5000    0.0000 O   0  0  0  0  0  0  0  0  0  0  0  0
    4.2690   -3.5000    0.0000 O   0  0  0  0  0  0  0  0  0  0  0  0
    6.0010   -0.5000    0.0000 O   0  0  0  0  0  0  0  0  0  0  0  0
    6.0010   -2.5000    0.0000 O   0  0  0  0  0  0  0  0  0  0  0  0
    2.5369    0.5000    0.0000 O   0  0  0  0  0  0  0  0  0  0  0  0
    5.1350    1.0000    0.0000 O   0  0  0  0  0  0  0  0  0  0  0  0
    7.7331    3.5000    0.0000 O   0  0  0  0  0  0  0  0  0  0  0  0
    3.4030   -2.0000    0.0000 C   0  0  1  0  0  0  0  0  0  0  0  0
    4.2690   -2.5000    0.0000 C   0  0  1  0  0  0  0  0  0  0  0  0
    3.4030   -1.0000    0.0000 C   0  0  1  0  0  0  0  0  0  0  0  0
    5.1350   -2.0000    0.0000 C   0  0  2  0  0  0  0  0  0  0  0  0
    5.1350   -1.0000    0.0000 C   0  0  1  0  0  0  0  0  0  0  0  0
    2.5369   -0.5000    0.0000 C   0  0  0  0  0  0  0  0  0  0  0  0
    6.0010    0.5000    0.0000 C   0  0  0  0  0  0  0  0  0  0  0  0
    6.8671    1.0000    0.0000 C   0  0  0  0  0  0  0  0  0  0  0  0
    6.8671    2.0000    0.0000 C   0  0  0  0  0  0  0  0  0  0  0  0
    7.7331    2.5000    0.0000 C   0  0  0  0  0  0  0  0  0  0  0  0
    7.7331    0.5000    0.0000 C   0  0  0  0  0  0  0  0  0  0  0  0
    3.4030   -2.6200    0.0000 H   0  0  0  0  0  0  0  0  0  0  0  0
    4.8059   -2.8100    0.0000 H   0  0  0  0  0  0  0  0  0  0  0  0
    3.4030   -0.3800    0.0000 H   0  0  0  0  0  0  0  0  0  0  0  0
    5.1350   -2.6200    0.0000 H   0  0  0  0  0  0  0  0  0  0  0  0
    5.1350   -0.3800    0.0000 H   0  0  0  0  0  0  0  0  0  0  0  0
    1.9264   -0.3923    0.0000 H   0  0  0  0  0  0  0  0  0  0  0  0
    2.3249   -1.0826    0.0000 H   0  0  0  0  0  0  0  0  0  0  0  0
    2.0000   -2.1900    0.0000 H   0  0  0  0  0  0  0  0  0  0  0  0
    3.7320   -3.8100    0.0000 H   0  0  0  0  0  0  0  0  0  0  0  0
    6.5380   -2.1900    0.0000 H   0  0  0  0  0  0  0  0  0  0  0  0
    2.0000    0.8100    0.0000 H   0  0  0  0  0  0  0  0  0  0  0  0
    6.6550    2.5826    0.0000 H   0  0  0  0  0  0  0  0  0  0  0  0
    6.2565    1.8923    0.0000 H   0  0  0  0  0  0  0  0  0  0  0  0
    7.9451    1.9174    0.0000 H   0  0  0  0  0  0  0  0  0  0  0  0
    8.3437    2.6077    0.0000 H   0  0  0  0  0  0  0  0  0  0  0  0
    7.7331   -0.1200    0.0000 H   0  0  0  0  0  0  0  0  0  0  0  0
    8.2700    0.8100    0.0000 H   0  0  0  0  0  0  0  0  0  0  0  0
    8.2700    3.8100    0.0000 H   0  0  0  0  0  0  0  0  0  0  0  0
  1 11  1  0  0  0  0
  1 13  1  0  0  0  0
  9  2  1  6  0  0  0
  2 27  1  0  0  0  0
 10  3  1  1  0  0  0
  3 28  1  0  0  0  0
 13  4  1  1  0  0  0
  4 15  1  0  0  0  0
 12  5  1  6  0  0  0
  5 29  1  0  0  0  0
  6 14  1  0  0  0  0
  6 30  1  0  0  0  0
  7 15  2  0  0  0  0
  8 18  1  0  0  0  0
  8 37  1  0  0  0  0
  9 10  1  0  0  0  0
  9 11  1  0  0  0  0
  9 20  1  0  0  0  0
 10 12  1  0  0  0  0
 10 21  1  0  0  0  0
 11 14  1  1  0  0  0
 11 22  1  0  0  0  0
 12 13  1  0  0  0  0
 12 23  1  0  0  0  0
 13 24  1  0  0  0  0
 14 25  1  0  0  0  0
 14 26  1  0  0  0  0
 15 16  1  0  0  0  0
 16 17  1  0  0  0  0
 16 19  2  0  0  0  0
 17 18  1  0  0  0  0
 17 31  1  0  0  0  0
 17 32  1  0  0  0  0
 18 33  1  0  0  0  0
 18 34  1  0  0  0  0
 19 35  1  0  0  0  0
 19 36  1  0  0  0  0
M  END
> <PUBCHEM_COMPOUND_CID>
108011

> <PUBCHEM_COMPOUND_CANONICALIZED>
1

> <PUBCHEM_CACTVS_COMPLEXITY>
331

> <PUBCHEM_CACTVS_HBOND_ACCEPTOR>
8

> <PUBCHEM_CACTVS_HBOND_DONOR>
5

> <PUBCHEM_CACTVS_ROTATABLE_BOND>
6

> <PUBCHEM_CACTVS_SUBSKEYS>
AAADceBwPAAAAAAAAAAAAAAAAAAAAAAAAAAkAAAAAAAAAAAAAAAAGgAACAAADBSwgAMACAAABgCIAgDSCAAAAAAgAAAAAAEAAEgRFBIAIQAiQAAFQAAHIIHCYAwAAAAAAAAAAAAAAAAAAAAAAAAAAAAAAA==

> <PUBCHEM_IUPAC_OPENEYE_NAME>
[(2S,3R,4S,5S,6R)-3,4,5-trihydroxy-6-(hydroxymethyl)tetrahydropyran-2-yl] 4-hydroxy-2-methylene-butanoate

> <PUBCHEM_IUPAC_CAS_NAME>
4-hydroxy-2-methylenebutanoic acid [(2S,3R,4S,5S,6R)-3,4,5-trihydroxy-6-(hydroxymethyl)-2-oxanyl] ester

> <PUBCHEM_IUPAC_NAME>
[(2S,3R,4S,5S,6R)-3,4,5-trihydroxy-6-(hydroxymethyl)oxan-2-yl] 4-hydroxy-2-methylidenebutanoate

> <PUBCHEM_IUPAC_SYSTEMATIC_NAME>
[(2S,3R,4S,5S,6R)-6-(hydroxymethyl)-3,4,5-tris(oxidanyl)oxan-2-yl] 2-methylidene-4-oxidanyl-butanoate

> <PUBCHEM_IUPAC_TRADITIONAL_NAME>
2-(2-hydroxyethyl)acrylic acid [(2S,3R,4S,5S,6R)-3,4,5-trihydroxy-6-methylol-tetrahydropyran-2-yl] ester

> <PUBCHEM_IUPAC_INCHI>
InChI=1S/C11H18O8/c1-5(2-3-12)10(17)19-11-9(16)8(15)7(14)6(4-13)18-11/h6-9,11-16H,1-4H2/t6-,7-,8+,9-,11+/m1/s1

> <PUBCHEM_IUPAC_INCHIKEY>
SQRUWMQAWMLKPR-DZEUPHNYSA-N

> <PUBCHEM_XLOGP3_AA>
-1.8

> <PUBCHEM_EXACT_MASS>
278.100168

> <PUBCHEM_MOLECULAR_FORMULA>
C11H18O8

> <PUBCHEM_MOLECULAR_WEIGHT>
278.25582

> <PUBCHEM_OPENEYE_CAN_SMILES>
C=C(CCO)C(=O)OC1C(C(C(C(O1)CO)O)O)O

> <PUBCHEM_OPENEYE_ISO_SMILES>
C=C(CCO)C(=O)O[C@H]1[C@@H]([C@H]([C@@H]([C@H](O1)CO)O)O)O

> <PUBCHEM_CACTVS_TPSA>
137

> <PUBCHEM_MONOISOTOPIC_WEIGHT>
278.100168

> <PUBCHEM_TOTAL_CHARGE>
0

> <PUBCHEM_HEAVY_ATOM_COUNT>
19

> <PUBCHEM_ATOM_DEF_STEREO_COUNT>
5

> <PUBCHEM_ATOM_UDEF_STEREO_COUNT>
0

> <PUBCHEM_BOND_DEF_STEREO_COUNT>
0

> <PUBCHEM_BOND_UDEF_STEREO_COUNT>
0

> <PUBCHEM_ISOTOPIC_ATOM_COUNT>
0

> <PUBCHEM_COMPONENT_COUNT>
1

> <PUBCHEM_CACTVS_TAUTO_COUNT>
1

> <PUBCHEM_COORDINATE_TYPE>
1
5
255

> <PUBCHEM_BONDANNOTATIONS>
11  14  5
9  2  6
10  3  5
13  4  5
12  5  6

$$$$

