440576
  -OEChem-07051212502D

 90 93  0     1  0  0  0  0  0999 V2000
    7.1478    1.6558    0.0000 O   0  0  0  0  0  0  0  0  0  0  0  0
    7.1478    2.6558    0.0000 O   0  0  0  0  0  0  0  0  0  0  0  0
    8.1290   -0.6088    0.0000 O   0  0  0  0  0  0  0  0  0  0  0  0
    6.8058    4.5954    0.0000 O   0  0  0  0  0  0  0  0  0  0  0  0
    3.9392    1.4269    0.0000 O   0  0  0  0  0  0  0  0  0  0  0  0
    3.6832    3.4168    0.0000 O   0  0  0  0  0  0  0  0  0  0  0  0
    7.2705   -2.1169    0.0000 O   0  0  0  0  0  0  0  0  0  0  0  0
    6.8471   -3.0500    0.0000 O   0  0  0  0  0  0  0  0  0  0  0  0
    2.5369   -0.0063    0.0000 O   0  0  0  0  0  0  0  0  0  0  0  0
    2.7258   -3.7347    0.0000 O   0  0  0  0  0  0  0  0  0  0  0  0
    8.0138    2.1558    0.0000 C   0  0  2  0  0  0  0  0  0  0  0  0
    8.8798    2.6558    0.0000 C   0  0  0  0  0  0  0  0  0  0  0  0
    8.8798    1.6558    0.0000 C   0  0  0  0  0  0  0  0  0  0  0  0
    8.8798    3.6558    0.0000 C   0  0  0  0  0  0  0  0  0  0  0  0
    8.0138    4.1558    0.0000 C   0  0  1  0  0  0  0  0  0  0  0  0
    7.1478    0.6558    0.0000 C   0  0  3  0  0  0  0  0  0  0  0  0
    8.0138    0.1558    0.0000 C   0  0  1  0  0  0  0  0  0  0  0  0
    8.8798    0.6558    0.0000 C   0  0  3  0  0  0  0  0  0  0  0  0
    7.1478    3.6558    0.0000 C   0  0  1  0  0  0  0  0  0  0  0  0
    9.8798    2.6558    0.0000 C   0  0  0  0  0  0  0  0  0  0  0  0
    9.6459    2.0130    0.0000 C   0  0  0  0  0  0  0  0  0  0  0  0
    6.2818    0.1558    0.0000 C   0  0  3  0  0  0  0  0  0  0  0  0
    5.6772    3.6378    0.0000 C   0  0  0  0  0  0  0  0  0  0  0  0
    8.5138    5.0218    0.0000 C   0  0  0  0  0  0  0  0  0  0  0  0
    7.5138   -0.7103    0.0000 C   0  0  0  0  0  0  0  0  0  0  0  0
    6.2818   -0.8442    0.0000 C   0  0  0  0  0  0  0  0  0  0  0  0
    5.4157    0.6558    0.0000 C   0  0  0  0  0  0  0  0  0  0  0  0
    5.6389   -1.6103    0.0000 C   0  0  0  0  0  0  0  0  0  0  0  0
    4.4694    2.7987    0.0000 C   0  0  0  0  0  0  0  0  0  0  0  0
    6.7984   -1.2353    0.0000 C   0  0  0  0  0  0  0  0  0  0  0  0
    5.3453   -1.0085    0.0000 C   0  0  0  0  0  0  0  0  0  0  0  0
    5.9810   -2.5500    0.0000 C   0  0  3  0  0  0  0  0  0  0  0  0
    4.2690   -0.0063    0.0000 C   0  0  3  0  0  0  0  0  0  0  0  0
    3.4030   -0.5063    0.0000 C   0  0  3  0  0  0  0  0  0  0  0  0
    5.3382   -3.3160    0.0000 C   0  0  0  0  0  0  0  0  0  0  0  0
    3.4030   -1.5063    0.0000 C   0  0  0  0  0  0  0  0  0  0  0  0
    4.3534   -3.1424    0.0000 C   0  0  0  0  0  0  0  0  0  0  0  0
    5.6803   -4.2557    0.0000 C   0  0  0  0  0  0  0  0  0  0  0  0
    6.8471   -4.0500    0.0000 C   0  0  0  0  0  0  0  0  0  0  0  0
    3.7106   -3.9084    0.0000 C   0  0  0  0  0  0  0  0  0  0  0  0
    5.0374   -5.0218    0.0000 C   0  0  0  0  0  0  0  0  0  0  0  0
    4.0526   -4.8481    0.0000 C   0  0  0  0  0  0  0  0  0  0  0  0
    9.4904    1.5481    0.0000 H   0  0  0  0  0  0  0  0  0  0  0  0
    9.0919    2.2384    0.0000 H   0  0  0  0  0  0  0  0  0  0  0  0
    9.4904    3.5481    0.0000 H   0  0  0  0  0  0  0  0  0  0  0  0
    9.0919    4.2384    0.0000 H   0  0  0  0  0  0  0  0  0  0  0  0
    7.7038    4.6927    0.0000 H   0  0  0  0  0  0  0  0  0  0  0  0
    6.4117    1.0808    0.0000 H   0  0  0  0  0  0  0  0  0  0  0  0
    8.5964   -0.0563    0.0000 H   0  0  0  0  0  0  0  0  0  0  0  0
    9.6995    0.4307    0.0000 H   0  0  0  0  0  0  0  0  0  0  0  0
    9.8798    2.0358    0.0000 H   0  0  0  0  0  0  0  0  0  0  0  0
   10.4998    2.6558    0.0000 H   0  0  0  0  0  0  0  0  0  0  0  0
    9.8798    3.2758    0.0000 H   0  0  0  0  0  0  0  0  0  0  0  0
    9.2474    1.5380    0.0000 H   0  0  0  0  0  0  0  0  0  0  0  0
   10.1208    1.6144    0.0000 H   0  0  0  0  0  0  0  0  0  0  0  0
   10.0444    2.4879    0.0000 H   0  0  0  0  0  0  0  0  0  0  0  0
    6.2818    1.0058    0.0000 H   0  0  0  0  0  0  0  0  0  0  0  0
    5.8682    4.2276    0.0000 H   0  0  0  0  0  0  0  0  0  0  0  0
    5.8662    3.0473    0.0000 H   0  0  0  0  0  0  0  0  0  0  0  0
    9.0507    4.7118    0.0000 H   0  0  0  0  0  0  0  0  0  0  0  0
    8.8238    5.5587    0.0000 H   0  0  0  0  0  0  0  0  0  0  0  0
    7.9769    5.3318    0.0000 H   0  0  0  0  0  0  0  0  0  0  0  0
    6.9769   -0.4003    0.0000 H   0  0  0  0  0  0  0  0  0  0  0  0
    7.2038   -1.2472    0.0000 H   0  0  0  0  0  0  0  0  0  0  0  0
    8.0507   -1.0203    0.0000 H   0  0  0  0  0  0  0  0  0  0  0  0
    6.6224   -1.3623    0.0000 H   0  0  0  0  0  0  0  0  0  0  0  0
    6.8757   -0.6664    0.0000 H   0  0  0  0  0  0  0  0  0  0  0  0
    5.7257    1.1927    0.0000 H   0  0  0  0  0  0  0  0  0  0  0  0
    4.8788    0.9658    0.0000 H   0  0  0  0  0  0  0  0  0  0  0  0
    5.1057    0.1188    0.0000 H   0  0  0  0  0  0  0  0  0  0  0  0
    6.1952    4.7031    0.0000 H   0  0  0  0  0  0  0  0  0  0  0  0
    5.2404   -1.1353    0.0000 H   0  0  0  0  0  0  0  0  0  0  0  0
    5.1020   -1.9203    0.0000 H   0  0  0  0  0  0  0  0  0  0  0  0
    4.8000   -1.3035    0.0000 H   0  0  0  0  0  0  0  0  0  0  0  0
    5.6163   -0.4509    0.0000 H   0  0  0  0  0  0  0  0  0  0  0  0
    6.6321   -2.0036    0.0000 H   0  0  0  0  0  0  0  0  0  0  0  0
    3.4896    0.3329    0.0000 H   0  0  0  0  0  0  0  0  0  0  0  0
    3.4030    0.3437    0.0000 H   0  0  0  0  0  0  0  0  0  0  0  0
    2.7830   -1.5063    0.0000 H   0  0  0  0  0  0  0  0  0  0  0  0
    3.4030   -2.1263    0.0000 H   0  0  0  0  0  0  0  0  0  0  0  0
    4.0230   -1.5063    0.0000 H   0  0  0  0  0  0  0  0  0  0  0  0
    4.1413   -2.5598    0.0000 H   0  0  0  0  0  0  0  0  0  0  0  0
    6.2908   -4.3634    0.0000 H   0  0  0  0  0  0  0  0  0  0  0  0
    2.0000   -0.3163    0.0000 H   0  0  0  0  0  0  0  0  0  0  0  0
    6.2271   -4.0500    0.0000 H   0  0  0  0  0  0  0  0  0  0  0  0
    6.8471   -4.6700    0.0000 H   0  0  0  0  0  0  0  0  0  0  0  0
    7.4671   -4.0500    0.0000 H   0  0  0  0  0  0  0  0  0  0  0  0
    5.2495   -5.6044    0.0000 H   0  0  0  0  0  0  0  0  0  0  0  0
    3.6541   -5.3231    0.0000 H   0  0  0  0  0  0  0  0  0  0  0  0
    2.3272   -4.2097    0.0000 H   0  0  0  0  0  0  0  0  0  0  0  0
 11  1  1  6  0  0  0
  1 16  1  0  0  0  0
  2 11  1  0  0  0  0
  2 19  1  0  0  0  0
  3 18  1  0  0  0  0
  3 30  1  0  0  0  0
 19  4  1  1  0  0  0
  4 71  1  0  0  0  0
  5 29  1  0  0  0  0
  5 33  1  0  0  0  0
  6 29  2  0  0  0  0
  7 30  2  0  0  0  0
  8 32  1  0  0  0  0
  8 39  1  0  0  0  0
  9 34  1  0  0  0  0
  9 84  1  0  0  0  0
 10 40  1  0  0  0  0
 10 90  1  0  0  0  0
 11 12  1  0  0  0  0
 11 13  1  0  0  0  0
 12 14  1  0  0  0  0
 12 20  1  0  0  0  0
 12 21  1  0  0  0  0
 13 18  1  0  0  0  0
 13 43  1  0  0  0  0
 13 44  1  0  0  0  0
 14 15  1  0  0  0  0
 14 45  1  0  0  0  0
 14 46  1  0  0  0  0
 15 19  1  0  0  0  0
 15 24  1  1  0  0  0
 15 47  1  0  0  0  0
 16 17  1  0  0  0  0
 16 22  1  0  0  0  0
 16 48  1  0  0  0  0
 17 18  1  0  0  0  0
 17 25  1  1  0  0  0
 17 49  1  0  0  0  0
 18 50  1  0  0  0  0
 19 23  1  0  0  0  0
 20 51  1  0  0  0  0
 20 52  1  0  0  0  0
 20 53  1  0  0  0  0
 21 54  1  0  0  0  0
 21 55  1  0  0  0  0
 21 56  1  0  0  0  0
 22 26  1  0  0  0  0
 22 27  1  0  0  0  0
 22 57  1  0  0  0  0
 23 29  1  0  0  0  0
 23 58  1  0  0  0  0
 23 59  1  0  0  0  0
 24 60  1  0  0  0  0
 24 61  1  0  0  0  0
 24 62  1  0  0  0  0
 25 63  1  0  0  0  0
 25 64  1  0  0  0  0
 25 65  1  0  0  0  0
 26 28  1  0  0  0  0
 26 66  1  0  0  0  0
 26 67  1  0  0  0  0
 27 68  1  0  0  0  0
 27 69  1  0  0  0  0
 27 70  1  0  0  0  0
 28 32  1  0  0  0  0
 28 72  1  0  0  0  0
 28 73  1  0  0  0  0
 30 31  1  0  0  0  0
 31 33  1  0  0  0  0
 31 74  1  0  0  0  0
 31 75  1  0  0  0  0
 32 35  1  0  0  0  0
 32 76  1  0  0  0  0
 33 34  1  0  0  0  0
 33 77  1  0  0  0  0
 34 36  1  0  0  0  0
 34 78  1  0  0  0  0
 35 37  2  0  0  0  0
 35 38  1  0  0  0  0
 36 79  1  0  0  0  0
 36 80  1  0  0  0  0
 36 81  1  0  0  0  0
 37 40  1  0  0  0  0
 37 82  1  0  0  0  0
 38 41  2  0  0  0  0
 38 83  1  0  0  0  0
 39 85  1  0  0  0  0
 39 86  1  0  0  0  0
 39 87  1  0  0  0  0
 40 42  2  0  0  0  0
 41 42  1  0  0  0  0
 41 88  1  0  0  0  0
 42 89  1  0  0  0  0
M  END
> <PUBCHEM_COMPOUND_CID>
440576

> <PUBCHEM_COMPOUND_CANONICALIZED>
1

> <PUBCHEM_CACTVS_COMPLEXITY>
956

> <PUBCHEM_CACTVS_HBOND_ACCEPTOR>
10

> <PUBCHEM_CACTVS_HBOND_DONOR>
3

> <PUBCHEM_CACTVS_ROTATABLE_BOND>
7

> <PUBCHEM_CACTVS_SUBSKEYS>
AAADcfB8PAAAAAAAAAAAAAAAAAAAAAAAAAA0SIAAAAAAAAABAAAAGgAACAAADxSgmAIyDoAABgCIAiDSCAACAAAgIAAIiAEGCIgZNjaCMRqicAAl4BEPuAfK6PyPAAABAAAAAAAAAAIAAAAAAAAAAAAAAA==

> <PUBCHEM_IUPAC_INCHI>
InChI=1S/C32H48O10/c1-18(11-12-24(38-7)22-9-8-10-23(34)13-22)29-20(3)26-16-32(41-29)30(5,6)15-19(2)31(37,42-32)17-28(36)39-25(21(4)33)14-27(35)40-26/h8-10,13,18-21,24-26,29,33-34,37H,11-12,14-17H2,1-7H3/t18?,19-,20+,21?,24?,25?,26?,29?,31+,32+/m0/s1

> <PUBCHEM_IUPAC_INCHIKEY>
REAZZDPREXHWNV-FNYQTHNFSA-N

> <PUBCHEM_XLOGP3_AA>
4.2

> <PUBCHEM_EXACT_MASS>
592.324748

> <PUBCHEM_MOLECULAR_FORMULA>
C32H48O10

> <PUBCHEM_MOLECULAR_WEIGHT>
592.71752

> <PUBCHEM_OPENEYE_CAN_SMILES>
CC1CC(C23CC(C(C(O2)C(C)CCC(C4=CC(=CC=C4)O)OC)C)OC(=O)CC(OC(=O)CC1(O3)O)C(C)O)(C)C

> <PUBCHEM_OPENEYE_ISO_SMILES>
C[C@H]1CC([C@]23CC([C@H](C(O2)C(C)CCC(C4=CC(=CC=C4)O)OC)C)OC(=O)CC(OC(=O)C[C@]1(O3)O)C(C)O)(C)C

> <PUBCHEM_CACTVS_TPSA>
141

> <PUBCHEM_MONOISOTOPIC_WEIGHT>
592.324748

> <PUBCHEM_TOTAL_CHARGE>
0

> <PUBCHEM_HEAVY_ATOM_COUNT>
42

> <PUBCHEM_ATOM_DEF_STEREO_COUNT>
4

> <PUBCHEM_ATOM_UDEF_STEREO_COUNT>
6

> <PUBCHEM_BOND_DEF_STEREO_COUNT>
0

> <PUBCHEM_BOND_UDEF_STEREO_COUNT>
0

> <PUBCHEM_ISOTOPIC_ATOM_COUNT>
0

> <PUBCHEM_COMPONENT_COUNT>
1

> <PUBCHEM_CACTVS_TAUTO_COUNT>
3

> <PUBCHEM_COORDINATE_TYPE>
1
5
255

> <PUBCHEM_BONDANNOTATIONS>
11  1  6
15  24  5
16  48  3
17  25  5
18  50  3
22  57  3
32  76  3
33  77  3
34  78  3
35  37  8
35  38  8
37  40  8
38  41  8
19  4  5
40  42  8
41  42  8

$$$$

