5281161
  -OEChem-07051212552D

100101  0     1  0  0  0  0  0999 V2000
    6.8477    2.4151    0.0000 O   0  0  0  0  0  0  0  0  0  0  0  0
    3.7601  -10.6749    0.0000 O   0  0  0  0  0  0  0  0  0  0  0  0
    5.5202  -10.3961    0.0000 O   0  0  0  0  0  0  0  0  0  0  0  0
    5.9342    2.0083    0.0000 C   0  0  3  0  0  0  0  0  0  0  0  0
    6.0387    3.0028    0.0000 C   0  0  3  0  0  0  0  0  0  0  0  0
    5.3464    1.1993    0.0000 C   0  0  0  0  0  0  0  0  0  0  0  0
    5.6319    3.9164    0.0000 C   0  0  0  0  0  0  0  0  0  0  0  0
    5.7531    0.2858    0.0000 C   0  0  0  0  0  0  0  0  0  0  0  0
    6.2197    4.7254    0.0000 C   0  0  0  0  0  0  0  0  0  0  0  0
    5.1653   -0.5233    0.0000 C   0  0  0  0  0  0  0  0  0  0  0  0
    5.5720   -1.4368    0.0000 C   0  0  0  0  0  0  0  0  0  0  0  0
    4.9843   -2.2458    0.0000 C   0  0  0  0  0  0  0  0  0  0  0  0
    5.8130    5.6390    0.0000 C   0  0  0  0  0  0  0  0  0  0  0  0
    5.3910   -3.1594    0.0000 C   0  0  0  0  0  0  0  0  0  0  0  0
    4.8032   -3.9684    0.0000 C   0  0  0  0  0  0  0  0  0  0  0  0
    6.4008    6.4480    0.0000 C   0  0  0  0  0  0  0  0  0  0  0  0
    5.2100   -4.8819    0.0000 C   0  0  0  0  0  0  0  0  0  0  0  0
    7.3953    6.3434    0.0000 C   0  0  0  0  0  0  0  0  0  0  0  0
    4.6222   -5.6909    0.0000 C   0  0  0  0  0  0  0  0  0  0  0  0
    7.9831    7.1525    0.0000 C   0  0  0  0  0  0  0  0  0  0  0  0
    8.9776    7.0479    0.0000 C   0  0  0  0  0  0  0  0  0  0  0  0
    5.0289   -6.6045    0.0000 C   0  0  0  0  0  0  0  0  0  0  0  0
    9.5654    7.8570    0.0000 C   0  0  0  0  0  0  0  0  0  0  0  0
   10.5599    7.7524    0.0000 C   0  0  0  0  0  0  0  0  0  0  0  0
    4.4411   -7.4135    0.0000 C   0  0  0  0  0  0  0  0  0  0  0  0
   11.1477    8.5614    0.0000 C   0  0  0  0  0  0  0  0  0  0  0  0
   12.1422    8.4569    0.0000 C   0  0  0  0  0  0  0  0  0  0  0  0
   12.7300    9.2659    0.0000 C   0  0  0  0  0  0  0  0  0  0  0  0
    4.8479   -8.3270    0.0000 C   0  0  0  0  0  0  0  0  0  0  0  0
   13.7245    9.1614    0.0000 C   0  0  0  0  0  0  0  0  0  0  0  0
    4.2601   -9.1361    0.0000 C   0  0  0  0  0  0  0  0  0  0  0  0
   14.3123    9.9704    0.0000 C   0  0  0  0  0  0  0  0  0  0  0  0
   15.3068    9.8659    0.0000 C   0  0  0  0  0  0  0  0  0  0  0  0
    3.2601   -9.1361    0.0000 C   0  0  0  0  0  0  0  0  0  0  0  0
    2.9511  -10.0871    0.0000 C   0  0  3  0  0  0  0  0  0  0  0  0
    4.5691  -10.0871    0.0000 C   0  0  0  0  0  0  0  0  0  0  0  0
   15.8946   10.6749    0.0000 C   0  0  0  0  0  0  0  0  0  0  0  0
    2.0000  -10.3961    0.0000 C   0  0  0  0  0  0  0  0  0  0  0  0
    6.3243    1.5265    0.0000 H   0  0  0  0  0  0  0  0  0  0  0  0
    6.5205    3.3930    0.0000 H   0  0  0  0  0  0  0  0  0  0  0  0
    4.9157    1.6453    0.0000 H   0  0  0  0  0  0  0  0  0  0  0  0
    4.8324    0.8526    0.0000 H   0  0  0  0  0  0  0  0  0  0  0  0
    5.2012    4.3624    0.0000 H   0  0  0  0  0  0  0  0  0  0  0  0
    5.1179    3.5697    0.0000 H   0  0  0  0  0  0  0  0  0  0  0  0
    6.1838   -0.1602    0.0000 H   0  0  0  0  0  0  0  0  0  0  0  0
    6.2671    0.6325    0.0000 H   0  0  0  0  0  0  0  0  0  0  0  0
    6.6504    4.2794    0.0000 H   0  0  0  0  0  0  0  0  0  0  0  0
    6.7337    5.0721    0.0000 H   0  0  0  0  0  0  0  0  0  0  0  0
    4.7346   -0.0773    0.0000 H   0  0  0  0  0  0  0  0  0  0  0  0
    4.6513   -0.8700    0.0000 H   0  0  0  0  0  0  0  0  0  0  0  0
    6.0027   -1.8828    0.0000 H   0  0  0  0  0  0  0  0  0  0  0  0
    6.0861   -1.0901    0.0000 H   0  0  0  0  0  0  0  0  0  0  0  0
    4.5536   -1.7998    0.0000 H   0  0  0  0  0  0  0  0  0  0  0  0
    4.4703   -2.5925    0.0000 H   0  0  0  0  0  0  0  0  0  0  0  0
    5.1964    5.7038    0.0000 H   0  0  0  0  0  0  0  0  0  0  0  0
    5.8217   -3.6054    0.0000 H   0  0  0  0  0  0  0  0  0  0  0  0
    5.9050   -2.8127    0.0000 H   0  0  0  0  0  0  0  0  0  0  0  0
    4.3725   -3.5224    0.0000 H   0  0  0  0  0  0  0  0  0  0  0  0
    4.2892   -4.3151    0.0000 H   0  0  0  0  0  0  0  0  0  0  0  0
    6.1486    7.0144    0.0000 H   0  0  0  0  0  0  0  0  0  0  0  0
    5.6406   -5.3279    0.0000 H   0  0  0  0  0  0  0  0  0  0  0  0
    5.7240   -4.5352    0.0000 H   0  0  0  0  0  0  0  0  0  0  0  0
    7.2244    5.7475    0.0000 H   0  0  0  0  0  0  0  0  0  0  0  0
    7.9526    6.0717    0.0000 H   0  0  0  0  0  0  0  0  0  0  0  0
    4.1915   -5.2450    0.0000 H   0  0  0  0  0  0  0  0  0  0  0  0
    4.1082   -6.0376    0.0000 H   0  0  0  0  0  0  0  0  0  0  0  0
    8.1540    7.7484    0.0000 H   0  0  0  0  0  0  0  0  0  0  0  0
    7.4258    7.4242    0.0000 H   0  0  0  0  0  0  0  0  0  0  0  0
    8.8067    6.4520    0.0000 H   0  0  0  0  0  0  0  0  0  0  0  0
    9.5349    6.7761    0.0000 H   0  0  0  0  0  0  0  0  0  0  0  0
    5.4596   -7.0505    0.0000 H   0  0  0  0  0  0  0  0  0  0  0  0
    5.5429   -6.2578    0.0000 H   0  0  0  0  0  0  0  0  0  0  0  0
    9.7363    8.4529    0.0000 H   0  0  0  0  0  0  0  0  0  0  0  0
    9.0081    8.1287    0.0000 H   0  0  0  0  0  0  0  0  0  0  0  0
   10.3890    7.1564    0.0000 H   0  0  0  0  0  0  0  0  0  0  0  0
   11.1172    7.4806    0.0000 H   0  0  0  0  0  0  0  0  0  0  0  0
    4.0104   -6.9675    0.0000 H   0  0  0  0  0  0  0  0  0  0  0  0
    3.9271   -7.7602    0.0000 H   0  0  0  0  0  0  0  0  0  0  0  0
   11.3186    9.1574    0.0000 H   0  0  0  0  0  0  0  0  0  0  0  0
   10.5904    8.8332    0.0000 H   0  0  0  0  0  0  0  0  0  0  0  0
   11.9713    7.8609    0.0000 H   0  0  0  0  0  0  0  0  0  0  0  0
   12.6995    8.1851    0.0000 H   0  0  0  0  0  0  0  0  0  0  0  0
   12.9009    9.8619    0.0000 H   0  0  0  0  0  0  0  0  0  0  0  0
   12.1728    9.5377    0.0000 H   0  0  0  0  0  0  0  0  0  0  0  0
    5.2786   -8.7730    0.0000 H   0  0  0  0  0  0  0  0  0  0  0  0
    5.3619   -7.9804    0.0000 H   0  0  0  0  0  0  0  0  0  0  0  0
   13.5536    8.5654    0.0000 H   0  0  0  0  0  0  0  0  0  0  0  0
   14.2818    8.8896    0.0000 H   0  0  0  0  0  0  0  0  0  0  0  0
   14.4832   10.5664    0.0000 H   0  0  0  0  0  0  0  0  0  0  0  0
   13.7551   10.2422    0.0000 H   0  0  0  0  0  0  0  0  0  0  0  0
   15.1359    9.2699    0.0000 H   0  0  0  0  0  0  0  0  0  0  0  0
   15.8641    9.5941    0.0000 H   0  0  0  0  0  0  0  0  0  0  0  0
    2.8956   -8.6345    0.0000 H   0  0  0  0  0  0  0  0  0  0  0  0
    2.8541  -10.6995    0.0000 H   0  0  0  0  0  0  0  0  0  0  0  0
   16.3962   10.3105    0.0000 H   0  0  0  0  0  0  0  0  0  0  0  0
   16.2590   11.1765    0.0000 H   0  0  0  0  0  0  0  0  0  0  0  0
   15.3930   11.0393    0.0000 H   0  0  0  0  0  0  0  0  0  0  0  0
    1.8084   -9.8065    0.0000 H   0  0  0  0  0  0  0  0  0  0  0  0
    1.4103  -10.5877    0.0000 H   0  0  0  0  0  0  0  0  0  0  0  0
    2.1916  -10.9858    0.0000 H   0  0  0  0  0  0  0  0  0  0  0  0
  1  4  1  0  0  0  0
  1  5  1  0  0  0  0
  2 35  1  0  0  0  0
  2 36  1  0  0  0  0
  3 36  2  0  0  0  0
  4  5  1  0  0  0  0
  4  6  1  0  0  0  0
  4 39  1  0  0  0  0
  5  7  1  0  0  0  0
  5 40  1  0  0  0  0
  6  8  1  0  0  0  0
  6 41  1  0  0  0  0
  6 42  1  0  0  0  0
  7  9  1  0  0  0  0
  7 43  1  0  0  0  0
  7 44  1  0  0  0  0
  8 10  1  0  0  0  0
  8 45  1  0  0  0  0
  8 46  1  0  0  0  0
  9 13  1  0  0  0  0
  9 47  1  0  0  0  0
  9 48  1  0  0  0  0
 10 11  1  0  0  0  0
 10 49  1  0  0  0  0
 10 50  1  0  0  0  0
 11 12  1  0  0  0  0
 11 51  1  0  0  0  0
 11 52  1  0  0  0  0
 12 14  1  0  0  0  0
 12 53  1  0  0  0  0
 12 54  1  0  0  0  0
 13 16  2  0  0  0  0
 13 55  1  0  0  0  0
 14 15  1  0  0  0  0
 14 56  1  0  0  0  0
 14 57  1  0  0  0  0
 15 17  1  0  0  0  0
 15 58  1  0  0  0  0
 15 59  1  0  0  0  0
 16 18  1  0  0  0  0
 16 60  1  0  0  0  0
 17 19  1  0  0  0  0
 17 61  1  0  0  0  0
 17 62  1  0  0  0  0
 18 20  1  0  0  0  0
 18 63  1  0  0  0  0
 18 64  1  0  0  0  0
 19 22  1  0  0  0  0
 19 65  1  0  0  0  0
 19 66  1  0  0  0  0
 20 21  1  0  0  0  0
 20 67  1  0  0  0  0
 20 68  1  0  0  0  0
 21 23  1  0  0  0  0
 21 69  1  0  0  0  0
 21 70  1  0  0  0  0
 22 25  1  0  0  0  0
 22 71  1  0  0  0  0
 22 72  1  0  0  0  0
 23 24  1  0  0  0  0
 23 73  1  0  0  0  0
 23 74  1  0  0  0  0
 24 26  1  0  0  0  0
 24 75  1  0  0  0  0
 24 76  1  0  0  0  0
 25 29  1  0  0  0  0
 25 77  1  0  0  0  0
 25 78  1  0  0  0  0
 26 27  1  0  0  0  0
 26 79  1  0  0  0  0
 26 80  1  0  0  0  0
 27 28  1  0  0  0  0
 27 81  1  0  0  0  0
 27 82  1  0  0  0  0
 28 30  1  0  0  0  0
 28 83  1  0  0  0  0
 28 84  1  0  0  0  0
 29 31  1  0  0  0  0
 29 85  1  0  0  0  0
 29 86  1  0  0  0  0
 30 32  1  0  0  0  0
 30 87  1  0  0  0  0
 30 88  1  0  0  0  0
 31 34  2  0  0  0  0
 31 36  1  0  0  0  0
 32 33  1  0  0  0  0
 32 89  1  0  0  0  0
 32 90  1  0  0  0  0
 33 37  1  0  0  0  0
 33 91  1  0  0  0  0
 33 92  1  0  0  0  0
 34 35  1  0  0  0  0
 34 93  1  0  0  0  0
 35 38  1  0  0  0  0
 35 94  1  0  0  0  0
 37 95  1  0  0  0  0
 37 96  1  0  0  0  0
 37 97  1  0  0  0  0
 38 98  1  0  0  0  0
 38 99  1  0  0  0  0
 38100  1  0  0  0  0
M  END
> <PUBCHEM_COMPOUND_CID>
5281161

> <PUBCHEM_COMPOUND_CANONICALIZED>
1

> <PUBCHEM_CACTVS_COMPLEXITY>
637

> <PUBCHEM_CACTVS_HBOND_ACCEPTOR>
3

> <PUBCHEM_CACTVS_HBOND_DONOR>
0

> <PUBCHEM_CACTVS_ROTATABLE_BOND>
27

> <PUBCHEM_CACTVS_SUBSKEYS>
AAADcfB8MAAAAAAAAAAAAAAAEgAAAQAAAAAAAAAAAAAAAAAAAAAAGgAAAAAADBSggAICCAAABACIAiDSCAAAAAAgAAAICAEAAEgABBIAIQACEAAEgAAIIYOIyKCAAAAAAAAAAAAAAAAAAAAAAAAAAAAAAA==

> <PUBCHEM_IUPAC_OPENEYE_NAME>
4-[12-[3-[(Z)-hexadec-3-enyl]oxiran-2-yl]dodecyl]-2-methyl-2H-furan-5-one

> <PUBCHEM_IUPAC_CAS_NAME>
4-[12-[3-[(Z)-hexadec-3-enyl]-2-oxiranyl]dodecyl]-2-methyl-2H-furan-5-one

> <PUBCHEM_IUPAC_NAME>
4-[12-[3-[(Z)-hexadec-3-enyl]oxiran-2-yl]dodecyl]-2-methyl-2H-furan-5-one

> <PUBCHEM_IUPAC_SYSTEMATIC_NAME>
4-[12-[3-[(Z)-hexadec-3-enyl]oxiran-2-yl]dodecyl]-2-methyl-2H-furan-5-one

> <PUBCHEM_IUPAC_TRADITIONAL_NAME>
4-[12-[3-[(Z)-hexadec-3-enyl]oxiran-2-yl]dodecyl]-2-methyl-2H-furan-5-one

> <PUBCHEM_IUPAC_INCHI>
InChI=1S/C35H62O3/c1-3-4-5-6-7-8-9-10-11-12-16-19-22-25-28-33-34(38-33)29-26-23-20-17-14-13-15-18-21-24-27-32-30-31(2)37-35(32)36/h19,22,30-31,33-34H,3-18,20-21,23-29H2,1-2H3/b22-19-

> <PUBCHEM_IUPAC_INCHIKEY>
BUQYQSMGNYBXDM-QOCHGBHMSA-N

> <PUBCHEM_XLOGP3_AA>
13.8

> <PUBCHEM_EXACT_MASS>
530.469896

> <PUBCHEM_MOLECULAR_FORMULA>
C35H62O3

> <PUBCHEM_MOLECULAR_WEIGHT>
530.86498

> <PUBCHEM_OPENEYE_CAN_SMILES>
CCCCCCCCCCCCC=CCCC1C(O1)CCCCCCCCCCCCC2=CC(OC2=O)C

> <PUBCHEM_OPENEYE_ISO_SMILES>
CCCCCCCCCCCC/C=C\CCC1C(O1)CCCCCCCCCCCCC2=CC(OC2=O)C

> <PUBCHEM_CACTVS_TPSA>
38.8

> <PUBCHEM_MONOISOTOPIC_WEIGHT>
530.469896

> <PUBCHEM_TOTAL_CHARGE>
0

> <PUBCHEM_HEAVY_ATOM_COUNT>
38

> <PUBCHEM_ATOM_DEF_STEREO_COUNT>
0

> <PUBCHEM_ATOM_UDEF_STEREO_COUNT>
3

> <PUBCHEM_BOND_DEF_STEREO_COUNT>
1

> <PUBCHEM_BOND_UDEF_STEREO_COUNT>
0

> <PUBCHEM_ISOTOPIC_ATOM_COUNT>
0

> <PUBCHEM_COMPONENT_COUNT>
1

> <PUBCHEM_CACTVS_TAUTO_COUNT>
1

> <PUBCHEM_COORDINATE_TYPE>
1
5
255

> <PUBCHEM_BONDANNOTATIONS>
35  38  3
4  6  3
5  7  3

$$$$

