10973
  -OEChem-06261205113D

 19 18  0     0  0  0  0  0  0999 V2000
    0.5800   -0.3776   -0.2416 O   0  0  0  0  0  0  0  0  0  0  0  0
    2.1216    1.1963    0.4266 O   0  0  0  0  0  0  0  0  0  0  0  0
    2.7757   -0.8985   -0.2595 N   0  0  0  0  0  0  0  0  0  0  0  0
   -1.8214   -0.1054   -0.3265 C   0  0  0  0  0  0  0  0  0  0  0  0
   -0.4744    0.5440    0.0026 C   0  0  0  0  0  0  0  0  0  0  0  0
   -2.0734   -1.3380    0.5444 C   0  0  0  0  0  0  0  0  0  0  0  0
   -2.9548    0.9041   -0.1583 C   0  0  0  0  0  0  0  0  0  0  0  0
    1.8467    0.0750    0.0124 C   0  0  0  0  0  0  0  0  0  0  0  0
   -1.8005   -0.4411   -1.3712 H   0  0  0  0  0  0  0  0  0  0  0  0
   -0.3279    1.4290   -0.6287 H   0  0  0  0  0  0  0  0  0  0  0  0
   -0.4506    0.8551    1.0545 H   0  0  0  0  0  0  0  0  0  0  0  0
   -3.0402   -1.7922    0.3022 H   0  0  0  0  0  0  0  0  0  0  0  0
   -2.0795   -1.0774    1.6082 H   0  0  0  0  0  0  0  0  0  0  0  0
   -1.3026   -2.0992    0.3861 H   0  0  0  0  0  0  0  0  0  0  0  0
   -3.9182    0.4552   -0.4222 H   0  0  0  0  0  0  0  0  0  0  0  0
   -2.8023    1.7721   -0.8084 H   0  0  0  0  0  0  0  0  0  0  0  0
   -3.0195    1.2616    0.8750 H   0  0  0  0  0  0  0  0  0  0  0  0
    2.4986   -1.8127   -0.6010 H   0  0  0  0  0  0  0  0  0  0  0  0
    3.7680   -0.7339   -0.1271 H   0  0  0  0  0  0  0  0  0  0  0  0
  1  5  1  0  0  0  0
  1  8  1  0  0  0  0
  2  8  2  0  0  0  0
  3  8  1  0  0  0  0
  3 18  1  0  0  0  0
  3 19  1  0  0  0  0
  4  5  1  0  0  0  0
  4  6  1  0  0  0  0
  4  7  1  0  0  0  0
  4  9  1  0  0  0  0
  5 10  1  0  0  0  0
  5 11  1  0  0  0  0
  6 12  1  0  0  0  0
  6 13  1  0  0  0  0
  6 14  1  0  0  0  0
  7 15  1  0  0  0  0
  7 16  1  0  0  0  0
  7 17  1  0  0  0  0
M  END
> <PUBCHEM_COMPOUND_CID>
10973

> <PUBCHEM_CONFORMER_RMSD>
0.6

> <PUBCHEM_CONFORMER_DIVERSEORDER>
1
4
5
2
3

> <PUBCHEM_MMFF94_PARTIAL_CHARGES>
7
1 -0.43
18 0.37
19 0.37
2 -0.57
3 -0.8
5 0.28
8 0.78

> <PUBCHEM_EFFECTIVE_ROTOR_COUNT>
3

> <PUBCHEM_PHARMACOPHORE_FEATURES>
3
1 2 acceptor
1 3 donor
3 4 6 7 hydrophobe

> <PUBCHEM_HEAVY_ATOM_COUNT>
8

> <PUBCHEM_ATOM_DEF_STEREO_COUNT>
0

> <PUBCHEM_ATOM_UDEF_STEREO_COUNT>
0

> <PUBCHEM_BOND_DEF_STEREO_COUNT>
0

> <PUBCHEM_BOND_UDEF_STEREO_COUNT>
0

> <PUBCHEM_ISOTOPIC_ATOM_COUNT>
0

> <PUBCHEM_COMPONENT_COUNT>
1

> <PUBCHEM_CACTVS_TAUTO_COUNT>
2

> <PUBCHEM_CONFORMER_ID>
00002ADD00000001

> <PUBCHEM_MMFF94_ENERGY>
8.0123

> <PUBCHEM_FEATURE_SELFOVERLAP>
15.223

> <PUBCHEM_SHAPE_FINGERPRINT>
10857977 72 18197786505003374633
12932741 1 18410009922801500284
12932764 1 17822570495360433076
14325111 11 18410576171295086077
14390081 3 18335708230085023417
19973954 147 18411135797049744049
23552423 10 18131630054164438846
29004967 10 18334574603341851504
3248919 1 18271535203616971957
5460574 1 9439404635647101557

> <PUBCHEM_SHAPE_MULTIPOLES>
147.92
4.61
1.23
0.67
0.64
0.14
-0.02
-0.1
0.04
-0.32
-0.15
-0.07
0.02
0.42

> <PUBCHEM_SHAPE_SELFOVERLAP>
269.706

> <PUBCHEM_SHAPE_VOLUME>
95.1

> <PUBCHEM_COORDINATE_TYPE>
2
5
10

$$$$

