14408
  -OEChem-06241222433D

 43 45  0     1  0  0  0  0  0999 V2000
    2.9612    4.8166    0.3909 Cl  0  0  0  0  0  0  0  0  0  0  0  0
   -1.1784   -2.0703   -1.1203 O   0  0  0  0  0  0  0  0  0  0  0  0
   -0.6333    0.0959   -0.4941 N   0  0  0  0  0  0  0  0  0  0  0  0
   -4.3282    0.3173    0.0682 N   0  0  0  0  0  0  0  0  0  0  0  0
    2.3771   -0.0878   -0.7831 N   0  0  0  0  0  0  0  0  0  0  0  0
   -2.9547   -0.1215    0.3223 C   0  0  1  0  0  0  0  0  0  0  0  0
   -2.0306    0.4962   -0.7323 C   0  0  0  0  0  0  0  0  0  0  0  0
    0.2970    1.1568   -0.1943 C   0  0  0  0  0  0  0  0  0  0  0  0
   -2.5642    0.2856    1.7430 C   0  0  0  0  0  0  0  0  0  0  0  0
   -0.3665   -1.2758   -0.6309 C   0  0  0  0  0  0  0  0  0  0  0  0
    1.6785    1.0789   -0.4371 C   0  0  0  0  0  0  0  0  0  0  0  0
    0.8649   -1.9040   -0.1161 C   0  0  0  0  0  0  0  0  0  0  0  0
    2.1363   -1.3841   -0.3255 C   0  0  0  0  0  0  0  0  0  0  0  0
   -5.2462   -0.3049    1.0207 C   0  0  0  0  0  0  0  0  0  0  0  0
   -4.7195   -0.0019   -1.3037 C   0  0  0  0  0  0  0  0  0  0  0  0
   -0.2127    2.4013    0.2559 C   0  0  0  0  0  0  0  0  0  0  0  0
    2.4788    2.2365   -0.2566 C   0  0  0  0  0  0  0  0  0  0  0  0
    0.7175   -3.1787    0.4683 C   0  0  0  0  0  0  0  0  0  0  0  0
    3.2505   -2.1668    0.0449 C   0  0  0  0  0  0  0  0  0  0  0  0
    0.5951    3.5250    0.4434 C   0  0  0  0  0  0  0  0  0  0  0  0
    1.9472    3.4459    0.1753 C   0  0  0  0  0  0  0  0  0  0  0  0
    1.8289   -3.9320    0.8411 C   0  0  0  0  0  0  0  0  0  0  0  0
    3.1014   -3.4281    0.6201 C   0  0  0  0  0  0  0  0  0  0  0  0
   -2.9086   -1.2159    0.2736 H   0  0  0  0  0  0  0  0  0  0  0  0
   -2.2540    0.0686   -1.7191 H   0  0  0  0  0  0  0  0  0  0  0  0
   -2.1843    1.5685   -0.8741 H   0  0  0  0  0  0  0  0  0  0  0  0
   -2.7609    1.3465    1.9337 H   0  0  0  0  0  0  0  0  0  0  0  0
   -3.0940   -0.3004    2.5015 H   0  0  0  0  0  0  0  0  0  0  0  0
   -1.5028    0.1041    1.9396 H   0  0  0  0  0  0  0  0  0  0  0  0
    3.3233    0.0692   -1.1170 H   0  0  0  0  0  0  0  0  0  0  0  0
   -5.1255    0.0949    2.0322 H   0  0  0  0  0  0  0  0  0  0  0  0
   -5.1475   -1.3963    1.0492 H   0  0  0  0  0  0  0  0  0  0  0  0
   -6.2856   -0.0749    0.7557 H   0  0  0  0  0  0  0  0  0  0  0  0
   -4.2428    0.6600   -2.0337 H   0  0  0  0  0  0  0  0  0  0  0  0
   -5.7941    0.1698   -1.4446 H   0  0  0  0  0  0  0  0  0  0  0  0
   -4.5188   -1.0469   -1.5679 H   0  0  0  0  0  0  0  0  0  0  0  0
   -1.2546    2.5421    0.5268 H   0  0  0  0  0  0  0  0  0  0  0  0
    3.5511    2.1711   -0.4436 H   0  0  0  0  0  0  0  0  0  0  0  0
   -0.2697   -3.6064    0.6320 H   0  0  0  0  0  0  0  0  0  0  0  0
    4.2579   -1.7782   -0.0958 H   0  0  0  0  0  0  0  0  0  0  0  0
    0.1466    4.4484    0.8000 H   0  0  0  0  0  0  0  0  0  0  0  0
    1.6982   -4.9116    1.2903 H   0  0  0  0  0  0  0  0  0  0  0  0
    3.9762   -4.0059    0.9020 H   0  0  0  0  0  0  0  0  0  0  0  0
  1 21  1  0  0  0  0
  2 10  2  0  0  0  0
  3  7  1  0  0  0  0
  3  8  1  0  0  0  0
  3 10  1  0  0  0  0
  4  6  1  0  0  0  0
  4 14  1  0  0  0  0
  4 15  1  0  0  0  0
  5 11  1  0  0  0  0
  5 13  1  0  0  0  0
  5 30  1  0  0  0  0
  6  7  1  0  0  0  0
  6  9  1  0  0  0  0
  6 24  1  0  0  0  0
  7 25  1  0  0  0  0
  7 26  1  0  0  0  0
  8 11  2  0  0  0  0
  8 16  1  0  0  0  0
  9 27  1  0  0  0  0
  9 28  1  0  0  0  0
  9 29  1  0  0  0  0
 10 12  1  0  0  0  0
 11 17  1  0  0  0  0
 12 13  1  0  0  0  0
 12 18  2  0  0  0  0
 13 19  2  0  0  0  0
 14 31  1  0  0  0  0
 14 32  1  0  0  0  0
 14 33  1  0  0  0  0
 15 34  1  0  0  0  0
 15 35  1  0  0  0  0
 15 36  1  0  0  0  0
 16 20  2  0  0  0  0
 16 37  1  0  0  0  0
 17 21  2  0  0  0  0
 17 38  1  0  0  0  0
 18 22  1  0  0  0  0
 18 39  1  0  0  0  0
 19 23  1  0  0  0  0
 19 40  1  0  0  0  0
 20 21  1  0  0  0  0
 20 41  1  0  0  0  0
 22 23  2  0  0  0  0
 22 42  1  0  0  0  0
 23 43  1  0  0  0  0
M  END
> <PUBCHEM_COMPOUND_CID>
14408

> <PUBCHEM_CONFORMER_RMSD>
0.6

> <PUBCHEM_CONFORMER_DIVERSEORDER>
2
8
6
4
3
9
1
7
10
5

> <PUBCHEM_MMFF94_PARTIAL_CHARGES>
30
1 -0.18
10 0.54
11 0.1
12 0.09
13 0.1
14 0.27
15 0.27
16 -0.15
17 -0.15
18 -0.15
19 -0.15
2 -0.57
20 -0.15
21 0.18
22 -0.15
23 -0.15
3 -0.48
30 0.4
37 0.15
38 0.15
39 0.15
4 -0.81
40 0.15
41 0.15
42 0.15
43 0.15
5 -0.6
6 0.27
7 0.3
8 0.12

> <PUBCHEM_EFFECTIVE_ROTOR_COUNT>
3.4

> <PUBCHEM_PHARMACOPHORE_FEATURES>
7
1 2 acceptor
1 4 cation
1 5 cation
1 5 donor
6 12 13 18 19 22 23 rings
6 8 11 16 17 20 21 rings
7 3 5 8 10 11 12 13 rings

> <PUBCHEM_HEAVY_ATOM_COUNT>
23

> <PUBCHEM_ATOM_DEF_STEREO_COUNT>
0

> <PUBCHEM_ATOM_UDEF_STEREO_COUNT>
1

> <PUBCHEM_BOND_DEF_STEREO_COUNT>
0

> <PUBCHEM_BOND_UDEF_STEREO_COUNT>
0

> <PUBCHEM_ISOTOPIC_ATOM_COUNT>
0

> <PUBCHEM_COMPONENT_COUNT>
1

> <PUBCHEM_CACTVS_TAUTO_COUNT>
2

> <PUBCHEM_CONFORMER_ID>
0000384800000002

> <PUBCHEM_MMFF94_ENERGY>
107.2003

> <PUBCHEM_FEATURE_SELFOVERLAP>
35.536

> <PUBCHEM_SHAPE_FINGERPRINT>
10074138 170 17045442613368213712
10165383 225 18056743361011131028
10411042 1 18194120952174706598
10967382 1 18410293618640286934
1100329 8 18338235956278481978
11578080 2 17534939512345330553
12532896 13 17977097964062294164
12549972 3 17845643863772855633
12553582 1 18193825175093933227
12788726 201 17333656470996622337
13004483 165 17763197129923448403
13009979 54 17749665298591639891
13134695 92 18340209721030943535
13140716 1 18266178318953550368
13583140 156 18342455933493551519
138480 1 18338800121122306472
13955234 65 18411696565560283929
14787075 74 18059000800270122434
14790565 3 18339629054549312636
14955137 171 18336818792732665694
15042514 8 16611108535386281890
15230672 131 18054504700647694316
15927050 60 18120931711964432366
16087824 20 17473263657727361917
17980427 26 18336274431249723237
1813 80 18042962275489360711
18222031 100 18117003375882807543
19591789 44 18124306104449099502
21041028 32 18195246856402584942
21120745 212 17833816545840934020
2255824 54 18335136479627314895
23419403 2 17986694737783047084
23558518 356 17759800338635018045
23559900 14 18341056293618920211
23845131 108 18052819148504025379
3091708 16 9143379825940252232
352729 6 17041206736485518132
3886686 26 17470483662882614232
394222 165 18188480290310076707
4058900 60 18267850701730516049
474 4 18263648359624816297
6443956 14 18268709587714553261
7399639 24 18199750242067684645
7471813 234 18189634889336188117
79837 15 17690284806964738392
81228 2 17260178320751918052
90316 7 17904198483646551651
9981440 41 17834407725881201618
9999458 23 18339351972806453861

> <PUBCHEM_SHAPE_MULTIPOLES>
454.39
7
5.84
1.08
10.8
1.66
-0.13
0.59
-0.54
-9.21
-1.55
0.87
-0.15
-0.28

> <PUBCHEM_SHAPE_SELFOVERLAP>
968.861

> <PUBCHEM_SHAPE_VOLUME>
252.7

> <PUBCHEM_COORDINATE_TYPE>
2
5
10

$$$$

