185311
  -OEChem-07051212562D

 35 37  0     0  0  0  0  0  0999 V2000
    5.9213    1.3156    0.0000 O   0  0  0  0  0  0  0  0  0  0  0  0
    8.0438    1.9147    0.0000 O   0  0  0  0  0  0  0  0  0  0  0  0
    3.7989    1.9147    0.0000 O   0  0  0  0  0  0  0  0  0  0  0  0
    9.4260    0.4031    0.0000 O   0  0  0  0  0  0  0  0  0  0  0  0
    8.7931   -1.5450    0.0000 O   0  0  0  0  0  0  0  0  0  0  0  0
    2.4166    0.4031    0.0000 O   0  0  0  0  0  0  0  0  0  0  0  0
    6.4213   -0.2232    0.0000 C   0  0  0  0  0  0  0  0  0  0  0  0
    5.4213   -0.2232    0.0000 C   0  0  0  0  0  0  0  0  0  0  0  0
    6.7304    0.7278    0.0000 C   0  0  0  0  0  0  0  0  0  0  0  0
    5.1123    0.7278    0.0000 C   0  0  0  0  0  0  0  0  0  0  0  0
    7.7458    0.9601    0.0000 C   0  0  0  0  0  0  0  0  0  0  0  0
    7.1063   -1.0079    0.0000 C   0  0  0  0  0  0  0  0  0  0  0  0
    4.0969    0.9601    0.0000 C   0  0  0  0  0  0  0  0  0  0  0  0
    4.7364   -1.0079    0.0000 C   0  0  0  0  0  0  0  0  0  0  0  0
    8.4487    0.1914    0.0000 C   0  0  0  0  0  0  0  0  0  0  0  0
    8.1268   -0.7992    0.0000 C   0  0  0  0  0  0  0  0  0  0  0  0
    3.3940    0.1914    0.0000 C   0  0  0  0  0  0  0  0  0  0  0  0
    3.7158   -0.7992    0.0000 C   0  0  0  0  0  0  0  0  0  0  0  0
    9.0194    2.1339    0.0000 C   0  0  0  0  0  0  0  0  0  0  0  0
    2.8232    2.1339    0.0000 C   0  0  0  0  0  0  0  0  0  0  0  0
   10.0980   -0.3375    0.0000 C   0  0  0  0  0  0  0  0  0  0  0  0
    6.9079   -1.5954    0.0000 H   0  0  0  0  0  0  0  0  0  0  0  0
    4.9348   -1.5954    0.0000 H   0  0  0  0  0  0  0  0  0  0  0  0
    3.3028   -1.2616    0.0000 H   0  0  0  0  0  0  0  0  0  0  0  0
    8.5992   -2.1339    0.0000 H   0  0  0  0  0  0  0  0  0  0  0  0
    9.1553    1.5290    0.0000 H   0  0  0  0  0  0  0  0  0  0  0  0
    9.6244    2.2698    0.0000 H   0  0  0  0  0  0  0  0  0  0  0  0
    8.8835    2.7388    0.0000 H   0  0  0  0  0  0  0  0  0  0  0  0
    2.0000   -0.0561    0.0000 H   0  0  0  0  0  0  0  0  0  0  0  0
    2.9591    2.7388    0.0000 H   0  0  0  0  0  0  0  0  0  0  0  0
    2.2183    2.2698    0.0000 H   0  0  0  0  0  0  0  0  0  0  0  0
    2.6873    1.5290    0.0000 H   0  0  0  0  0  0  0  0  0  0  0  0
    9.6389   -0.7541    0.0000 H   0  0  0  0  0  0  0  0  0  0  0  0
   10.5147   -0.7966    0.0000 H   0  0  0  0  0  0  0  0  0  0  0  0
   10.5572    0.0792    0.0000 H   0  0  0  0  0  0  0  0  0  0  0  0
  1  9  1  0  0  0  0
  1 10  1  0  0  0  0
  2 11  1  0  0  0  0
  2 19  1  0  0  0  0
  3 13  1  0  0  0  0
  3 20  1  0  0  0  0
  4 15  1  0  0  0  0
  4 21  1  0  0  0  0
  5 16  1  0  0  0  0
  5 25  1  0  0  0  0
  6 17  1  0  0  0  0
  6 29  1  0  0  0  0
  7  8  1  0  0  0  0
  7  9  1  0  0  0  0
  7 12  2  0  0  0  0
  8 10  2  0  0  0  0
  8 14  1  0  0  0  0
  9 11  2  0  0  0  0
 10 13  1  0  0  0  0
 11 15  1  0  0  0  0
 12 16  1  0  0  0  0
 12 22  1  0  0  0  0
 13 17  2  0  0  0  0
 14 18  2  0  0  0  0
 14 23  1  0  0  0  0
 15 16  2  0  0  0  0
 17 18  1  0  0  0  0
 18 24  1  0  0  0  0
 19 26  1  0  0  0  0
 19 27  1  0  0  0  0
 19 28  1  0  0  0  0
 20 30  1  0  0  0  0
 20 31  1  0  0  0  0
 20 32  1  0  0  0  0
 21 33  1  0  0  0  0
 21 34  1  0  0  0  0
 21 35  1  0  0  0  0
M  END
> <PUBCHEM_COMPOUND_CID>
185311

> <PUBCHEM_COMPOUND_CANONICALIZED>
1

> <PUBCHEM_CACTVS_COMPLEXITY>
364

> <PUBCHEM_CACTVS_HBOND_ACCEPTOR>
6

> <PUBCHEM_CACTVS_HBOND_DONOR>
2

> <PUBCHEM_CACTVS_ROTATABLE_BOND>
3

> <PUBCHEM_CACTVS_SUBSKEYS>
AAADccBwOAAAAAAAAAAAAAAAAAAAASAAAAAwYAAAAAAAAEgB/AAAGgAACAAADASAmAIyBsAABkCIAqBSAAICCAAkIAAIiAFGiMgNJzaGNB6CeWOl4BULuYfK7PzOoQABCAAIQABCAAIQABCAAAAAAAAAAA==

> <PUBCHEM_IUPAC_OPENEYE_NAME>
3,4,6-trimethoxydibenzofuran-2,7-diol

> <PUBCHEM_IUPAC_CAS_NAME>
3,4,6-trimethoxydibenzofuran-2,7-diol

> <PUBCHEM_IUPAC_NAME>
3,4,6-trimethoxydibenzofuran-2,7-diol

> <PUBCHEM_IUPAC_SYSTEMATIC_NAME>
3,4,6-trimethoxydibenzofuran-2,7-diol

> <PUBCHEM_IUPAC_TRADITIONAL_NAME>
3,4,6-trimethoxydibenzofuran-2,7-diol

> <PUBCHEM_IUPAC_INCHI>
InChI=1S/C15H14O6/c1-18-13-9(16)5-4-7-8-6-10(17)14(19-2)15(20-3)12(8)21-11(7)13/h4-6,16-17H,1-3H3

> <PUBCHEM_IUPAC_INCHIKEY>
SHQNKPHNRFEQQD-UHFFFAOYSA-N

> <PUBCHEM_XLOGP3_AA>
2.9

> <PUBCHEM_EXACT_MASS>
290.079038

> <PUBCHEM_MOLECULAR_FORMULA>
C15H14O6

> <PUBCHEM_MOLECULAR_WEIGHT>
290.26806

> <PUBCHEM_OPENEYE_CAN_SMILES>
COC1=C(C=CC2=C1OC3=C(C(=C(C=C23)O)OC)OC)O

> <PUBCHEM_OPENEYE_ISO_SMILES>
COC1=C(C=CC2=C1OC3=C(C(=C(C=C23)O)OC)OC)O

> <PUBCHEM_CACTVS_TPSA>
81.3

> <PUBCHEM_MONOISOTOPIC_WEIGHT>
290.079038

> <PUBCHEM_TOTAL_CHARGE>
0

> <PUBCHEM_HEAVY_ATOM_COUNT>
21

> <PUBCHEM_ATOM_DEF_STEREO_COUNT>
0

> <PUBCHEM_ATOM_UDEF_STEREO_COUNT>
0

> <PUBCHEM_BOND_DEF_STEREO_COUNT>
0

> <PUBCHEM_BOND_UDEF_STEREO_COUNT>
0

> <PUBCHEM_ISOTOPIC_ATOM_COUNT>
0

> <PUBCHEM_COMPONENT_COUNT>
1

> <PUBCHEM_CACTVS_TAUTO_COUNT>
14

> <PUBCHEM_COORDINATE_TYPE>
1
5
255

> <PUBCHEM_BONDANNOTATIONS>
1  10  8
1  9  8
10  13  8
11  15  8
12  16  8
13  17  8
14  18  8
15  16  8
17  18  8
7  12  8
7  8  8
7  9  8
8  10  8
8  14  8
9  11  8

$$$$

