5281442
  -OEChem-07051212572D

 49 52  0     1  0  0  0  0  0999 V2000
    3.1712   -0.9328    0.0000 O   0  0  0  0  0  0  0  0  0  0  0  0
    6.2264   -0.9690    0.0000 O   0  0  0  0  0  0  0  0  0  0  0  0
    4.0035   -2.7177    0.0000 O   0  0  0  0  0  0  0  0  0  0  0  0
    4.2209    2.3458    0.0000 O   0  0  0  0  0  0  0  0  0  0  0  0
    5.9538   -2.7226    0.0000 O   0  0  0  0  0  0  0  0  0  0  0  0
    2.7741    3.3132    0.0000 O   0  0  0  0  0  0  0  0  0  0  0  0
    4.6836   -1.4832    0.0000 C   0  0  1  0  0  0  0  0  0  0  0  0
    4.7209   -0.4899    0.0000 C   0  0  2  0  0  0  0  0  0  0  0  0
    3.7278   -1.7564    0.0000 C   0  0  1  0  0  0  0  0  0  0  0  0
    3.7812   -0.1478    0.0000 C   0  0  2  0  0  0  0  0  0  0  0  0
    5.6606   -0.1478    0.0000 C   0  0  1  0  0  0  0  0  0  0  0  0
    3.2812    0.7182    0.0000 C   0  0  0  0  0  0  0  0  0  0  0  0
    2.8988   -2.3156    0.0000 C   0  0  0  0  0  0  0  0  0  0  0  0
    5.6376   -1.7739    0.0000 C   0  0  0  0  0  0  0  0  0  0  0  0
    5.2121   -2.3322    0.0000 C   0  0  0  0  0  0  0  0  0  0  0  0
    3.4549    1.7030    0.0000 C   0  0  2  0  0  0  0  0  0  0  0  0
    6.1606    0.7182    0.0000 C   0  0  0  0  0  0  0  0  0  0  0  0
    2.9686   -3.3132    0.0000 C   0  0  0  0  0  0  0  0  0  0  0  0
    2.0000   -1.8772    0.0000 C   0  0  0  0  0  0  0  0  0  0  0  0
    5.9870    1.7030    0.0000 C   0  0  0  0  0  0  0  0  0  0  0  0
    3.5614    2.6967    0.0000 C   0  0  0  0  0  0  0  0  0  0  0  0
    2.4647    1.8432    0.0000 C   0  0  0  0  0  0  0  0  0  0  0  0
    5.2209    2.3458    0.0000 C   0  0  0  0  0  0  0  0  0  0  0  0
    4.5005    3.0385    0.0000 C   0  0  0  0  0  0  0  0  0  0  0  0
    6.8530    2.2030    0.0000 C   0  0  0  0  0  0  0  0  0  0  0  0
    3.9222   -0.7806    0.0000 H   0  0  0  0  0  0  0  0  0  0  0  0
    2.9825    0.1429    0.0000 H   0  0  0  0  0  0  0  0  0  0  0  0
    6.4593    0.1429    0.0000 H   0  0  0  0  0  0  0  0  0  0  0  0
    2.7272    0.9964    0.0000 H   0  0  0  0  0  0  0  0  0  0  0  0
    2.8558    0.2672    0.0000 H   0  0  0  0  0  0  0  0  0  0  0  0
    2.8556   -1.6971    0.0000 H   0  0  0  0  0  0  0  0  0  0  0  0
    4.6857   -2.6598    0.0000 H   0  0  0  0  0  0  0  0  0  0  0  0
    5.5397   -2.8586    0.0000 H   0  0  0  0  0  0  0  0  0  0  0  0
    5.7384   -2.0046    0.0000 H   0  0  0  0  0  0  0  0  0  0  0  0
    6.7712    0.6105    0.0000 H   0  0  0  0  0  0  0  0  0  0  0  0
    4.6050   -2.8677    0.0000 H   0  0  0  0  0  0  0  0  0  0  0  0
    2.3501   -3.3564    0.0000 H   0  0  0  0  0  0  0  0  0  0  0  0
    3.0118   -3.9317    0.0000 H   0  0  0  0  0  0  0  0  0  0  0  0
    3.5870   -3.2699    0.0000 H   0  0  0  0  0  0  0  0  0  0  0  0
    2.2718   -1.3200    0.0000 H   0  0  0  0  0  0  0  0  0  0  0  0
    1.4428   -1.6054    0.0000 H   0  0  0  0  0  0  0  0  0  0  0  0
    1.7282   -2.4345    0.0000 H   0  0  0  0  0  0  0  0  0  0  0  0
    2.5517    2.4571    0.0000 H   0  0  0  0  0  0  0  0  0  0  0  0
    1.8509    1.9301    0.0000 H   0  0  0  0  0  0  0  0  0  0  0  0
    2.3778    1.2293    0.0000 H   0  0  0  0  0  0  0  0  0  0  0  0
    4.6288    3.6451    0.0000 H   0  0  0  0  0  0  0  0  0  0  0  0
    7.1630    1.6660    0.0000 H   0  0  0  0  0  0  0  0  0  0  0  0
    7.3899    2.5130    0.0000 H   0  0  0  0  0  0  0  0  0  0  0  0
    6.5430    2.7399    0.0000 H   0  0  0  0  0  0  0  0  0  0  0  0
  1  9  1  0  0  0  0
  1 10  1  0  0  0  0
  2 11  1  0  0  0  0
  2 14  1  0  0  0  0
  9  3  1  6  0  0  0
  3 36  1  0  0  0  0
  4 16  1  0  0  0  0
  4 23  1  0  0  0  0
  5 14  2  0  0  0  0
  6 21  2  0  0  0  0
  7  8  1  0  0  0  0
  7  9  1  0  0  0  0
  7 14  1  0  0  0  0
  7 15  1  1  0  0  0
  8 10  1  0  0  0  0
  8 11  1  0  0  0  0
  8 26  1  1  0  0  0
  9 13  1  0  0  0  0
 10 12  1  0  0  0  0
 10 27  1  6  0  0  0
 11 17  1  0  0  0  0
 11 28  1  6  0  0  0
 12 16  1  0  0  0  0
 12 29  1  0  0  0  0
 12 30  1  0  0  0  0
 13 18  1  0  0  0  0
 13 19  1  0  0  0  0
 13 31  1  0  0  0  0
 15 32  1  0  0  0  0
 15 33  1  0  0  0  0
 15 34  1  0  0  0  0
 16 21  1  0  0  0  0
 16 22  1  1  0  0  0
 17 20  2  0  0  0  0
 17 35  1  0  0  0  0
 18 37  1  0  0  0  0
 18 38  1  0  0  0  0
 18 39  1  0  0  0  0
 19 40  1  0  0  0  0
 19 41  1  0  0  0  0
 19 42  1  0  0  0  0
 20 23  1  0  0  0  0
 20 25  1  0  0  0  0
 21 24  1  0  0  0  0
 22 43  1  0  0  0  0
 22 44  1  0  0  0  0
 22 45  1  0  0  0  0
 23 24  2  0  0  0  0
 24 46  1  0  0  0  0
 25 47  1  0  0  0  0
 25 48  1  0  0  0  0
 25 49  1  0  0  0  0
M  END
> <PUBCHEM_COMPOUND_CID>
5281442

> <PUBCHEM_COMPOUND_CANONICALIZED>
1

> <PUBCHEM_CACTVS_COMPLEXITY>
736

> <PUBCHEM_CACTVS_HBOND_ACCEPTOR>
6

> <PUBCHEM_CACTVS_HBOND_DONOR>
1

> <PUBCHEM_CACTVS_ROTATABLE_BOND>
1

> <PUBCHEM_CACTVS_SUBSKEYS>
AAADceB4OAAAAAAAAAAAAAAAAAAAASJEAAAAAAAAAAASAECAAAAAGgAACAAAD1SggAICCAAABgCIAqDSCAIACAAgIAAACAFAAEgYBBYAIQQCUAAF4AAMoQPK6PyPgAAAAAAAAAAAAAAAAAAAAAAAAAAAAA==

> <PUBCHEM_IUPAC_INCHI>
InChI=1S/C19H24O6/c1-9(2)19(22)18(5)15-12(23-16(18)21)6-10(3)11-7-14(20)17(4,24-11)8-13(15)25-19/h6-7,9,12-13,15,22H,8H2,1-5H3/b10-6-/t12-,13+,15+,17-,18-,19-/m1/s1

> <PUBCHEM_IUPAC_INCHIKEY>
LOILTCBRRAVDAF-ZMIPQNLBSA-N

> <PUBCHEM_XLOGP3_AA>
1.5

> <PUBCHEM_EXACT_MASS>
348.157288

> <PUBCHEM_MOLECULAR_FORMULA>
C19H24O6

> <PUBCHEM_MOLECULAR_WEIGHT>
348.39026

> <PUBCHEM_OPENEYE_CAN_SMILES>
CC1=CC2C3C(CC4(C(=O)C=C1O4)C)OC(C3(C(=O)O2)C)(C(C)C)O

> <PUBCHEM_OPENEYE_ISO_SMILES>
C/C/1=C/[C@@H]2[C@H]3[C@H](C[C@@]4(C(=O)C=C1O4)C)O[C@@]([C@]3(C(=O)O2)C)(C(C)C)O

> <PUBCHEM_CACTVS_TPSA>
82.1

> <PUBCHEM_MONOISOTOPIC_WEIGHT>
348.157288

> <PUBCHEM_TOTAL_CHARGE>
0

> <PUBCHEM_HEAVY_ATOM_COUNT>
25

> <PUBCHEM_ATOM_DEF_STEREO_COUNT>
6

> <PUBCHEM_ATOM_UDEF_STEREO_COUNT>
0

> <PUBCHEM_BOND_DEF_STEREO_COUNT>
1

> <PUBCHEM_BOND_UDEF_STEREO_COUNT>
0

> <PUBCHEM_ISOTOPIC_ATOM_COUNT>
0

> <PUBCHEM_COMPONENT_COUNT>
1

> <PUBCHEM_CACTVS_TAUTO_COUNT>
1

> <PUBCHEM_COORDINATE_TYPE>
1
5
255

> <PUBCHEM_BONDANNOTATIONS>
10  27  6
11  28  6
16  22  5
9  3  6
7  15  5
8  26  5

$$$$

