440731
  -OEChem-07051212503D

 35 35  0     1  0  0  0  0  0999 V2000
   -4.4163    2.1538    0.3492 O   0  0  0  0  0  0  0  0  0  0  0  0
    0.2645    1.7696    1.5892 O   0  0  0  0  0  0  0  0  0  0  0  0
   -3.4798    1.5465   -1.6269 O   0  0  0  0  0  0  0  0  0  0  0  0
   -2.7765   -3.6849   -0.8677 O   0  0  0  0  0  0  0  0  0  0  0  0
   -2.8130   -3.1855    1.3452 O   0  0  0  0  0  0  0  0  0  0  0  0
    5.5657   -1.7114    0.1779 O   0  0  0  0  0  0  0  0  0  0  0  0
   -1.0590    1.3303   -0.2673 N   0  0  0  0  0  0  0  0  0  0  0  0
   -2.2872    1.0884    0.4466 C   0  0  2  0  0  0  0  0  0  0  0  0
   -2.4578   -0.3775    0.8636 C   0  0  0  0  0  0  0  0  0  0  0  0
   -2.5625   -1.3907   -0.2834 C   0  0  0  0  0  0  0  0  0  0  0  0
    1.2628    1.8505   -0.6159 C   0  0  0  0  0  0  0  0  0  0  0  0
    0.1301    1.6552    0.3736 C   0  0  0  0  0  0  0  0  0  0  0  0
   -3.4229    1.6157   -0.4059 C   0  0  0  0  0  0  0  0  0  0  0  0
    2.4110    0.8997   -0.4037 C   0  0  0  0  0  0  0  0  0  0  0  0
   -2.7419   -2.8203    0.1800 C   0  0  0  0  0  0  0  0  0  0  0  0
    3.4504    1.2616    0.4415 C   0  0  0  0  0  0  0  0  0  0  0  0
    2.4133   -0.3244   -1.0573 C   0  0  0  0  0  0  0  0  0  0  0  0
    4.5143    0.3810    0.6370 C   0  0  0  0  0  0  0  0  0  0  0  0
    3.4772   -1.2050   -0.8615 C   0  0  0  0  0  0  0  0  0  0  0  0
    4.5277   -0.8524   -0.0144 C   0  0  0  0  0  0  0  0  0  0  0  0
   -2.2526    1.7009    1.3569 H   0  0  0  0  0  0  0  0  0  0  0  0
   -1.6197   -0.6662    1.5116 H   0  0  0  0  0  0  0  0  0  0  0  0
   -3.3626   -0.4617    1.4801 H   0  0  0  0  0  0  0  0  0  0  0  0
   -1.6513   -1.3504   -0.8906 H   0  0  0  0  0  0  0  0  0  0  0  0
   -3.4208   -1.1457   -0.9180 H   0  0  0  0  0  0  0  0  0  0  0  0
   -1.0700    1.2268   -1.2779 H   0  0  0  0  0  0  0  0  0  0  0  0
    1.6087    2.8872   -0.5128 H   0  0  0  0  0  0  0  0  0  0  0  0
    0.9097    1.7694   -1.6513 H   0  0  0  0  0  0  0  0  0  0  0  0
    3.4487    2.2190    0.9548 H   0  0  0  0  0  0  0  0  0  0  0  0
    1.5983   -0.6090   -1.7169 H   0  0  0  0  0  0  0  0  0  0  0  0
    5.3262    0.6675    1.3000 H   0  0  0  0  0  0  0  0  0  0  0  0
    3.4816   -2.1647   -1.3710 H   0  0  0  0  0  0  0  0  0  0  0  0
   -5.1594    2.4788   -0.2027 H   0  0  0  0  0  0  0  0  0  0  0  0
   -2.8747   -4.6148   -0.5709 H   0  0  0  0  0  0  0  0  0  0  0  0
    6.2007   -1.3058    0.7930 H   0  0  0  0  0  0  0  0  0  0  0  0
  1 13  1  0  0  0  0
  1 33  1  0  0  0  0
  2 12  2  0  0  0  0
  3 13  2  0  0  0  0
  4 15  1  0  0  0  0
  4 34  1  0  0  0  0
  5 15  2  0  0  0  0
  6 20  1  0  0  0  0
  6 35  1  0  0  0  0
  7  8  1  0  0  0  0
  7 12  1  0  0  0  0
  7 26  1  0  0  0  0
  8  9  1  0  0  0  0
  8 13  1  0  0  0  0
  8 21  1  0  0  0  0
  9 10  1  0  0  0  0
  9 22  1  0  0  0  0
  9 23  1  0  0  0  0
 10 15  1  0  0  0  0
 10 24  1  0  0  0  0
 10 25  1  0  0  0  0
 11 12  1  0  0  0  0
 11 14  1  0  0  0  0
 11 27  1  0  0  0  0
 11 28  1  0  0  0  0
 14 16  2  0  0  0  0
 14 17  1  0  0  0  0
 16 18  1  0  0  0  0
 16 29  1  0  0  0  0
 17 19  2  0  0  0  0
 17 30  1  0  0  0  0
 18 20  2  0  0  0  0
 18 31  1  0  0  0  0
 19 20  1  0  0  0  0
 19 32  1  0  0  0  0
M  END
> <PUBCHEM_COMPOUND_CID>
440731

> <PUBCHEM_CONFORMER_RMSD>
0.8

> <PUBCHEM_CONFORMER_DIVERSEORDER>
2
179
232
115
9
254
80
54
188
231
200
125
154
166
230
59
124
169
117
21
49
178
87
251
145
82
55
239
105
181
38
40
120
42
61
52
104
139
234
215
136
184
37
12
57
148
28
205
160
233
24
96
248
149
127
35
109
196
91
119
44
241
249
102
56
110
123
209
39
131
157
88
62
142
186
214
159
235
198
66
70
79
243
173
20
199
19
78
76
152
164
41
92
51
14
46
132
64
204
197
189
163
192
31
129
58
237
10
25
4
93
29
114
8
63
191
218
90
193
170
144
3
151
34
155
224
175
32
103
74
226
50
147
143
99
246
60
222
30
81
16
172
213
73
229
138
27
65
236
75
219
11
84
182
177
72
43
7
112
26
240
118
245
134
176
174
202
190
98
238
171
108
194
133
97
95
107
168
153
242
23
121
252
47
1
113
167
210
15
161
180
187
217
208
69
130
156
162
195
111
203
13
101
86
77
227
206
45
89
94
22
201
36
122
33
67
17
85
211
185
18
223
183
225
146
100
126
150
71
221
53
137
141
83
106
207
116
165
247
6
68
253
5
135
48
216
128
158
140
212
250
244
228
220

> <PUBCHEM_MMFF94_PARTIAL_CHARGES>
27
1 -0.65
10 0.06
11 0.2
12 0.57
13 0.66
14 -0.14
15 0.66
16 -0.15
17 -0.15
18 -0.15
19 -0.15
2 -0.57
20 0.08
26 0.37
29 0.15
3 -0.57
30 0.15
31 0.15
32 0.15
33 0.5
34 0.5
35 0.45
4 -0.65
5 -0.57
6 -0.53
7 -0.73
8 0.36

> <PUBCHEM_EFFECTIVE_ROTOR_COUNT>
8

> <PUBCHEM_PHARMACOPHORE_FEATURES>
10
1 1 acceptor
1 2 acceptor
1 3 acceptor
1 4 acceptor
1 5 acceptor
1 6 donor
1 7 donor
3 1 3 13 anion
3 4 5 15 anion
6 14 16 17 18 19 20 rings

> <PUBCHEM_HEAVY_ATOM_COUNT>
20

> <PUBCHEM_ATOM_DEF_STEREO_COUNT>
0

> <PUBCHEM_ATOM_UDEF_STEREO_COUNT>
1

> <PUBCHEM_BOND_DEF_STEREO_COUNT>
0

> <PUBCHEM_BOND_UDEF_STEREO_COUNT>
0

> <PUBCHEM_ISOTOPIC_ATOM_COUNT>
0

> <PUBCHEM_COMPONENT_COUNT>
1

> <PUBCHEM_CACTVS_TAUTO_COUNT>
4

> <PUBCHEM_CONFORMER_ID>
0006B99B00000002

> <PUBCHEM_MMFF94_ENERGY>
36.1343

> <PUBCHEM_FEATURE_SELFOVERLAP>
50.861

> <PUBCHEM_SHAPE_FINGERPRINT>
10366900 7 17458628960291908224
107951 10 17274252985037997203
12346177 29 18343024376076667309
12422481 6 18049686764821089763
12555020 224 18339933717826763301
12596602 18 13912907344532125206
12633257 1 17751616807203296891
13583140 156 17895766075649714568
14251751 93 18273214192564724955
15375358 24 18187085104391046708
15880784 105 15864363488205857412
17859628 97 18199747106182409115
18186145 218 14476953468023199988
19141452 34 18412261765586412149
221490 88 18338794499453273208
23559900 14 18335706057412009000
26918003 58 18188213203743157440
4015057 19 18041297503247692193
44062 13 18342453742279320211
4921388 177 18272091578302458649
5104073 3 18335141977755160080
53777708 50 18199175196721817709
5385378 56 17689707989311770969
559249 180 18271248321387367907
633830 44 16487249967851677236
9709674 26 18334012787270534380

> <PUBCHEM_SHAPE_MULTIPOLES>
371.39
10.1
3.49
1.14
6.87
3.12
0
2.89
-0.09
-4.44
-0.09
-0.37
-0.03
0.74

> <PUBCHEM_SHAPE_SELFOVERLAP>
761.422

> <PUBCHEM_SHAPE_VOLUME>
212.5

> <PUBCHEM_COORDINATE_TYPE>
2
5
10

$$$$

