666
  -OEChem-07051212492D

 33 34  0     1  0  0  0  0  0999 V2000
    9.5312    0.6375    0.0000 P   0  0  3  0  0  0  0  0  0  0  0  0
   11.2632    0.6442    0.0000 P   0  0  0  0  0  0  0  0  0  0  0  0
    8.6671    0.1342    0.0000 O   0  0  0  0  0  0  0  0  0  0  0  0
   10.3952    1.1409    0.0000 O   0  0  0  0  0  0  0  0  0  0  0  0
   10.0345   -0.2265    0.0000 O   0  0  0  0  0  0  0  0  0  0  0  0
    4.2690    1.6067    0.0000 O   0  0  0  0  0  0  0  0  0  0  0  0
    9.0278    1.5016    0.0000 O   0  0  0  0  0  0  0  0  0  0  0  0
   12.1311    0.1476    0.0000 O   0  0  0  0  0  0  0  0  0  0  0  0
   11.7598    1.5122    0.0000 O   0  0  0  0  0  0  0  0  0  0  0  0
   10.7665   -0.2237    0.0000 O   0  0  0  0  0  0  0  0  0  0  0  0
    6.0290   -1.4279    0.0000 N   0  0  0  0  0  0  0  0  0  0  0  0
    6.0290    0.6414    0.0000 N   0  0  0  0  0  0  0  0  0  0  0  0
    4.2690   -1.3933    0.0000 N   0  0  0  0  0  0  0  0  0  0  0  0
    3.4030    0.1067    0.0000 N   0  0  0  0  0  0  0  0  0  0  0  0
    2.5369   -1.3933    0.0000 N   0  0  0  0  0  0  0  0  0  0  0  0
    6.9350   -0.9141    0.0000 C   0  0  0  0  0  0  0  0  0  0  0  0
    6.9350    0.1275    0.0000 C   0  0  0  0  0  0  0  0  0  0  0  0
    5.1350   -0.8933    0.0000 C   0  0  0  0  0  0  0  0  0  0  0  0
    7.7991    0.6309    0.0000 C   0  0  0  0  0  0  0  0  0  0  0  0
    5.1350    0.1067    0.0000 C   0  0  0  0  0  0  0  0  0  0  0  0
    4.2690    0.6067    0.0000 C   0  0  0  0  0  0  0  0  0  0  0  0
    3.4030   -0.8933    0.0000 C   0  0  0  0  0  0  0  0  0  0  0  0
    7.1441   -1.4978    0.0000 H   0  0  0  0  0  0  0  0  0  0  0  0
    7.5459   -0.8080    0.0000 H   0  0  0  0  0  0  0  0  0  0  0  0
    6.0218   -2.0479    0.0000 H   0  0  0  0  0  0  0  0  0  0  0  0
    8.1958    1.1074    0.0000 H   0  0  0  0  0  0  0  0  0  0  0  0
    7.3988    1.1043    0.0000 H   0  0  0  0  0  0  0  0  0  0  0  0
    4.2690   -2.0133    0.0000 H   0  0  0  0  0  0  0  0  0  0  0  0
    2.0000   -1.0833    0.0000 H   0  0  0  0  0  0  0  0  0  0  0  0
    2.5369   -2.0133    0.0000 H   0  0  0  0  0  0  0  0  0  0  0  0
    9.7266   -0.7647    0.0000 H   0  0  0  0  0  0  0  0  0  0  0  0
   11.4478    2.0479    0.0000 H   0  0  0  0  0  0  0  0  0  0  0  0
   12.6669    0.4596    0.0000 H   0  0  0  0  0  0  0  0  0  0  0  0
  1  3  1  0  0  0  0
  1  4  1  0  0  0  0
  1  5  1  0  0  0  0
  1  7  2  0  0  0  0
  2  4  1  0  0  0  0
  2  8  1  0  0  0  0
  2  9  1  0  0  0  0
  2 10  2  0  0  0  0
  3 19  1  0  0  0  0
  5 31  1  0  0  0  0
  6 21  2  0  0  0  0
  8 33  1  0  0  0  0
  9 32  1  0  0  0  0
 11 16  1  0  0  0  0
 11 18  1  0  0  0  0
 11 25  1  0  0  0  0
 12 17  2  0  0  0  0
 12 20  1  0  0  0  0
 13 18  1  0  0  0  0
 13 22  1  0  0  0  0
 13 28  1  0  0  0  0
 14 21  1  0  0  0  0
 14 22  2  0  0  0  0
 15 22  1  0  0  0  0
 15 29  1  0  0  0  0
 15 30  1  0  0  0  0
 16 17  1  0  0  0  0
 16 23  1  0  0  0  0
 16 24  1  0  0  0  0
 17 19  1  0  0  0  0
 18 20  2  0  0  0  0
 19 26  1  0  0  0  0
 19 27  1  0  0  0  0
 20 21  1  0  0  0  0
M  END
> <PUBCHEM_COMPOUND_CID>
666

> <PUBCHEM_COMPOUND_CANONICALIZED>
1

> <PUBCHEM_CACTVS_COMPLEXITY>
693

> <PUBCHEM_CACTVS_HBOND_ACCEPTOR>
10

> <PUBCHEM_CACTVS_HBOND_DONOR>
6

> <PUBCHEM_CACTVS_ROTATABLE_BOND>
5

> <PUBCHEM_CACTVS_SUBSKEYS>
AAADccBjvAMAAAAAAAAAAAAAAAAAAAAAAAAgQAAAAAAAAACAAAAAHgAQCCAACAjhgAYBAALAARCoQQVwdISAAAEAAAABAICYAECAQAAAAAAEAAAKAAIAAEAAAAAAAAAAAAAAAAAAAAAAAAAAAAAAAAAAAA==

> <PUBCHEM_IUPAC_OPENEYE_NAME>
(2-amino-4-oxo-7,8-dihydro-1H-pteridin-6-yl)methyl phosphono hydrogen phosphate

> <PUBCHEM_IUPAC_CAS_NAME>
(2-amino-4-oxo-7,8-dihydro-1H-pteridin-6-yl)methyl phosphono hydrogen phosphate

> <PUBCHEM_IUPAC_NAME>
(2-amino-4-oxo-7,8-dihydro-1H-pteridin-6-yl)methyl phosphono hydrogen phosphate

> <PUBCHEM_IUPAC_SYSTEMATIC_NAME>
(2-azanyl-4-oxidanylidene-7,8-dihydro-1H-pteridin-6-yl)methyl phosphono hydrogen phosphate

> <PUBCHEM_IUPAC_TRADITIONAL_NAME>
(2-amino-4-keto-7,8-dihydro-1H-pteridin-6-yl)methyl phosphono hydrogen phosphate

> <PUBCHEM_IUPAC_INCHI>
InChI=1S/C7H11N5O8P2/c8-7-11-5-4(6(13)12-7)10-3(1-9-5)2-19-22(17,18)20-21(14,15)16/h1-2H2,(H,17,18)(H2,14,15,16)(H4,8,9,11,12,13)

> <PUBCHEM_IUPAC_INCHIKEY>
FCQGJGLSOWZZON-UHFFFAOYSA-N

> <PUBCHEM_XLOGP3_AA>
-4.2

> <PUBCHEM_EXACT_MASS>
355.008286

> <PUBCHEM_MOLECULAR_FORMULA>
C7H11N5O8P2

> <PUBCHEM_MOLECULAR_WEIGHT>
355.138464

> <PUBCHEM_OPENEYE_CAN_SMILES>
C1C(=NC2=C(N1)NC(=NC2=O)N)COP(=O)(O)OP(=O)(O)O

> <PUBCHEM_OPENEYE_ISO_SMILES>
C1C(=NC2=C(N1)NC(=NC2=O)N)COP(=O)(O)OP(=O)(O)O

> <PUBCHEM_CACTVS_TPSA>
205

> <PUBCHEM_MONOISOTOPIC_WEIGHT>
355.008286

> <PUBCHEM_TOTAL_CHARGE>
0

> <PUBCHEM_HEAVY_ATOM_COUNT>
22

> <PUBCHEM_ATOM_DEF_STEREO_COUNT>
0

> <PUBCHEM_ATOM_UDEF_STEREO_COUNT>
0

> <PUBCHEM_BOND_DEF_STEREO_COUNT>
0

> <PUBCHEM_BOND_UDEF_STEREO_COUNT>
0

> <PUBCHEM_ISOTOPIC_ATOM_COUNT>
0

> <PUBCHEM_COMPONENT_COUNT>
1

> <PUBCHEM_CACTVS_TAUTO_COUNT>
60

> <PUBCHEM_COORDINATE_TYPE>
1
5
255

> <PUBCHEM_BONDANNOTATIONS>
13  18  8
13  22  8
14  21  8
14  22  8
18  20  8
20  21  8

$$$$

