5283546
  -OEChem-07051213102D

127127  0     0  0  0  0  0  0999 V2000
    2.0000  -12.2500    0.0000 O   0  0  0  0  0  0  0  0  0  0  0  0
    3.7320  -13.2500    0.0000 O   0  0  0  0  0  0  0  0  0  0  0  0
    2.0000  -10.2500    0.0000 O   0  0  0  0  0  0  0  0  0  0  0  0
    5.4641  -12.2500    0.0000 O   0  0  0  0  0  0  0  0  0  0  0  0
    8.9282   -1.2500    0.0000 C   0  0  0  0  0  0  0  0  0  0  0  0
   10.6603    1.7500    0.0000 C   0  0  0  0  0  0  0  0  0  0  0  0
    8.9282   -0.2500    0.0000 C   0  0  0  0  0  0  0  0  0  0  0  0
   10.6603    2.7500    0.0000 C   0  0  0  0  0  0  0  0  0  0  0  0
    7.1962   -4.2500    0.0000 C   0  0  0  0  0  0  0  0  0  0  0  0
   12.3923    4.7500    0.0000 C   0  0  0  0  0  0  0  0  0  0  0  0
    7.1962   -3.2500    0.0000 C   0  0  0  0  0  0  0  0  0  0  0  0
    9.7942    1.2500    0.0000 C   0  0  0  0  0  0  0  0  0  0  0  0
    8.0622   -1.7500    0.0000 C   0  0  0  0  0  0  0  0  0  0  0  0
   12.3923    5.7500    0.0000 C   0  0  0  0  0  0  0  0  0  0  0  0
   11.5263    4.2500    0.0000 C   0  0  0  0  0  0  0  0  0  0  0  0
    6.3301   -4.7500    0.0000 C   0  0  0  0  0  0  0  0  0  0  0  0
    5.4641   -6.2500    0.0000 C   0  0  0  0  0  0  0  0  0  0  0  0
    9.7942    0.2500    0.0000 C   0  0  0  0  0  0  0  0  0  0  0  0
    5.4641   -7.2500    0.0000 C   0  0  0  0  0  0  0  0  0  0  0  0
   14.1244    7.7500    0.0000 C   0  0  0  0  0  0  0  0  0  0  0  0
   11.5263    3.2500    0.0000 C   0  0  0  0  0  0  0  0  0  0  0  0
    8.0622   -2.7500    0.0000 C   0  0  0  0  0  0  0  0  0  0  0  0
   13.2583    7.2500    0.0000 C   0  0  0  0  0  0  0  0  0  0  0  0
   14.1244    8.7500    0.0000 C   0  0  0  0  0  0  0  0  0  0  0  0
   13.2583    6.2500    0.0000 C   0  0  0  0  0  0  0  0  0  0  0  0
    6.3301   -5.7500    0.0000 C   0  0  0  0  0  0  0  0  0  0  0  0
    4.5981   -7.7500    0.0000 C   0  0  0  0  0  0  0  0  0  0  0  0
    3.7320   -9.2500    0.0000 C   0  0  0  0  0  0  0  0  0  0  0  0
    8.9282    1.7500    0.0000 C   0  0  0  0  0  0  0  0  0  0  0  0
    7.1962   -1.2500    0.0000 C   0  0  0  0  0  0  0  0  0  0  0  0
   14.9904    9.2500    0.0000 C   0  0  0  0  0  0  0  0  0  0  0  0
   10.6603    4.7500    0.0000 C   0  0  0  0  0  0  0  0  0  0  0  0
    4.5981   -8.7500    0.0000 C   0  0  0  0  0  0  0  0  0  0  0  0
   14.9904   10.2500    0.0000 C   0  0  0  0  0  0  0  0  0  0  0  0
    5.4641   -4.2500    0.0000 C   0  0  0  0  0  0  0  0  0  0  0  0
   15.8564   10.7500    0.0000 C   0  0  0  0  0  0  0  0  0  0  0  0
    3.7320  -10.2500    0.0000 C   0  0  0  0  0  0  0  0  0  0  0  0
   12.3923    7.7500    0.0000 C   0  0  0  0  0  0  0  0  0  0  0  0
    3.7320   -7.2500    0.0000 C   0  0  0  0  0  0  0  0  0  0  0  0
   15.8564   11.7500    0.0000 C   0  0  0  0  0  0  0  0  0  0  0  0
    4.5981  -10.7500    0.0000 C   0  0  0  0  0  0  0  0  0  0  0  0
    2.8660  -10.7500    0.0000 C   0  0  0  0  0  0  0  0  0  0  0  0
   14.1244   10.7500    0.0000 C   0  0  0  0  0  0  0  0  0  0  0  0
    4.5981  -11.7500    0.0000 C   0  0  0  0  0  0  0  0  0  0  0  0
    2.8660  -11.7500    0.0000 C   0  0  0  0  0  0  0  0  0  0  0  0
    3.7320  -12.2500    0.0000 C   0  0  0  0  0  0  0  0  0  0  0  0
   16.7224   12.2500    0.0000 C   0  0  0  0  0  0  0  0  0  0  0  0
    5.4641  -10.2500    0.0000 C   0  0  0  0  0  0  0  0  0  0  0  0
   16.7224   13.2500    0.0000 C   0  0  0  0  0  0  0  0  0  0  0  0
   17.5885   13.7500    0.0000 C   0  0  0  0  0  0  0  0  0  0  0  0
   15.8564   13.7500    0.0000 C   0  0  0  0  0  0  0  0  0  0  0  0
    2.0000  -13.2500    0.0000 C   0  0  0  0  0  0  0  0  0  0  0  0
    4.5981  -13.7500    0.0000 C   0  0  0  0  0  0  0  0  0  0  0  0
    9.1403   -1.8326    0.0000 H   0  0  0  0  0  0  0  0  0  0  0  0
    9.5388   -1.1423    0.0000 H   0  0  0  0  0  0  0  0  0  0  0  0
   10.8723    1.1674    0.0000 H   0  0  0  0  0  0  0  0  0  0  0  0
   11.2708    1.8577    0.0000 H   0  0  0  0  0  0  0  0  0  0  0  0
    8.7162    0.3326    0.0000 H   0  0  0  0  0  0  0  0  0  0  0  0
    8.3176   -0.3577    0.0000 H   0  0  0  0  0  0  0  0  0  0  0  0
   10.4482    3.3326    0.0000 H   0  0  0  0  0  0  0  0  0  0  0  0
   10.0497    2.6423    0.0000 H   0  0  0  0  0  0  0  0  0  0  0  0
    7.4082   -4.8326    0.0000 H   0  0  0  0  0  0  0  0  0  0  0  0
    7.8067   -4.1423    0.0000 H   0  0  0  0  0  0  0  0  0  0  0  0
   12.6044    4.1674    0.0000 H   0  0  0  0  0  0  0  0  0  0  0  0
   13.0029    4.8577    0.0000 H   0  0  0  0  0  0  0  0  0  0  0  0
    6.9841   -2.6674    0.0000 H   0  0  0  0  0  0  0  0  0  0  0  0
    6.5856   -3.3577    0.0000 H   0  0  0  0  0  0  0  0  0  0  0  0
   12.1803    6.3326    0.0000 H   0  0  0  0  0  0  0  0  0  0  0  0
   11.7817    5.6423    0.0000 H   0  0  0  0  0  0  0  0  0  0  0  0
    5.2520   -5.6674    0.0000 H   0  0  0  0  0  0  0  0  0  0  0  0
    4.8535   -6.3577    0.0000 H   0  0  0  0  0  0  0  0  0  0  0  0
   10.3312   -0.0600    0.0000 H   0  0  0  0  0  0  0  0  0  0  0  0
    5.6762   -7.8326    0.0000 H   0  0  0  0  0  0  0  0  0  0  0  0
    6.0747   -7.1423    0.0000 H   0  0  0  0  0  0  0  0  0  0  0  0
   14.3364    7.1674    0.0000 H   0  0  0  0  0  0  0  0  0  0  0  0
   14.7349    7.8577    0.0000 H   0  0  0  0  0  0  0  0  0  0  0  0
   12.0632    2.9400    0.0000 H   0  0  0  0  0  0  0  0  0  0  0  0
    8.5991   -3.0600    0.0000 H   0  0  0  0  0  0  0  0  0  0  0  0
   13.9123    9.3326    0.0000 H   0  0  0  0  0  0  0  0  0  0  0  0
   13.5138    8.6423    0.0000 H   0  0  0  0  0  0  0  0  0  0  0  0
   13.7953    5.9400    0.0000 H   0  0  0  0  0  0  0  0  0  0  0  0
    6.8671   -6.0600    0.0000 H   0  0  0  0  0  0  0  0  0  0  0  0
    3.5200   -8.6674    0.0000 H   0  0  0  0  0  0  0  0  0  0  0  0
    3.1215   -9.3577    0.0000 H   0  0  0  0  0  0  0  0  0  0  0  0
    9.2382    2.2869    0.0000 H   0  0  0  0  0  0  0  0  0  0  0  0
    8.3913    2.0600    0.0000 H   0  0  0  0  0  0  0  0  0  0  0  0
    8.6182    1.2131    0.0000 H   0  0  0  0  0  0  0  0  0  0  0  0
    7.5062   -0.7131    0.0000 H   0  0  0  0  0  0  0  0  0  0  0  0
    6.6592   -0.9400    0.0000 H   0  0  0  0  0  0  0  0  0  0  0  0
    6.8862   -1.7869    0.0000 H   0  0  0  0  0  0  0  0  0  0  0  0
   15.5273    8.9400    0.0000 H   0  0  0  0  0  0  0  0  0  0  0  0
   10.9703    5.2869    0.0000 H   0  0  0  0  0  0  0  0  0  0  0  0
   10.1233    5.0600    0.0000 H   0  0  0  0  0  0  0  0  0  0  0  0
   10.3503    4.2131    0.0000 H   0  0  0  0  0  0  0  0  0  0  0  0
    5.1350   -9.0600    0.0000 H   0  0  0  0  0  0  0  0  0  0  0  0
    5.7741   -3.7131    0.0000 H   0  0  0  0  0  0  0  0  0  0  0  0
    4.9272   -3.9400    0.0000 H   0  0  0  0  0  0  0  0  0  0  0  0
    5.1541   -4.7869    0.0000 H   0  0  0  0  0  0  0  0  0  0  0  0
   16.0685   10.1674    0.0000 H   0  0  0  0  0  0  0  0  0  0  0  0
   16.4670   10.8577    0.0000 H   0  0  0  0  0  0  0  0  0  0  0  0
   12.7023    8.2869    0.0000 H   0  0  0  0  0  0  0  0  0  0  0  0
   11.8554    8.0600    0.0000 H   0  0  0  0  0  0  0  0  0  0  0  0
   12.0823    7.2131    0.0000 H   0  0  0  0  0  0  0  0  0  0  0  0
    4.0420   -6.7131    0.0000 H   0  0  0  0  0  0  0  0  0  0  0  0
    3.1951   -6.9400    0.0000 H   0  0  0  0  0  0  0  0  0  0  0  0
    3.4220   -7.7869    0.0000 H   0  0  0  0  0  0  0  0  0  0  0  0
   15.6444   12.3326    0.0000 H   0  0  0  0  0  0  0  0  0  0  0  0
   15.2458   11.6423    0.0000 H   0  0  0  0  0  0  0  0  0  0  0  0
   14.4344   11.2869    0.0000 H   0  0  0  0  0  0  0  0  0  0  0  0
   13.5874   11.0600    0.0000 H   0  0  0  0  0  0  0  0  0  0  0  0
   13.8144   10.2131    0.0000 H   0  0  0  0  0  0  0  0  0  0  0  0
   17.2594   11.9400    0.0000 H   0  0  0  0  0  0  0  0  0  0  0  0
    5.7741  -10.7869    0.0000 H   0  0  0  0  0  0  0  0  0  0  0  0
    6.0010   -9.9400    0.0000 H   0  0  0  0  0  0  0  0  0  0  0  0
    5.1541   -9.7131    0.0000 H   0  0  0  0  0  0  0  0  0  0  0  0
   17.8985   13.2131    0.0000 H   0  0  0  0  0  0  0  0  0  0  0  0
   18.1254   14.0600    0.0000 H   0  0  0  0  0  0  0  0  0  0  0  0
   17.2785   14.2869    0.0000 H   0  0  0  0  0  0  0  0  0  0  0  0
   16.1664   14.2869    0.0000 H   0  0  0  0  0  0  0  0  0  0  0  0
   15.3195   14.0600    0.0000 H   0  0  0  0  0  0  0  0  0  0  0  0
   15.5464   13.2131    0.0000 H   0  0  0  0  0  0  0  0  0  0  0  0
    1.3800  -13.2500    0.0000 H   0  0  0  0  0  0  0  0  0  0  0  0
    2.0000  -13.8700    0.0000 H   0  0  0  0  0  0  0  0  0  0  0  0
    2.6200  -13.2500    0.0000 H   0  0  0  0  0  0  0  0  0  0  0  0
    4.2881  -14.2869    0.0000 H   0  0  0  0  0  0  0  0  0  0  0  0
    5.1350  -14.0600    0.0000 H   0  0  0  0  0  0  0  0  0  0  0  0
    4.9081  -13.2131    0.0000 H   0  0  0  0  0  0  0  0  0  0  0  0
  1 45  1  0  0  0  0
  1 52  1  0  0  0  0
  2 46  1  0  0  0  0
  2 53  1  0  0  0  0
  3 42  2  0  0  0  0
  4 44  2  0  0  0  0
  5  7  1  0  0  0  0
  5 13  1  0  0  0  0
  5 54  1  0  0  0  0
  5 55  1  0  0  0  0
  6  8  1  0  0  0  0
  6 12  1  0  0  0  0
  6 56  1  0  0  0  0
  6 57  1  0  0  0  0
  7 18  1  0  0  0  0
  7 58  1  0  0  0  0
  7 59  1  0  0  0  0
  8 21  1  0  0  0  0
  8 60  1  0  0  0  0
  8 61  1  0  0  0  0
  9 11  1  0  0  0  0
  9 16  1  0  0  0  0
  9 62  1  0  0  0  0
  9 63  1  0  0  0  0
 10 14  1  0  0  0  0
 10 15  1  0  0  0  0
 10 64  1  0  0  0  0
 10 65  1  0  0  0  0
 11 22  1  0  0  0  0
 11 66  1  0  0  0  0
 11 67  1  0  0  0  0
 12 18  2  0  0  0  0
 12 29  1  0  0  0  0
 13 22  2  0  0  0  0
 13 30  1  0  0  0  0
 14 25  1  0  0  0  0
 14 68  1  0  0  0  0
 14 69  1  0  0  0  0
 15 21  2  0  0  0  0
 15 32  1  0  0  0  0
 16 26  2  0  0  0  0
 16 35  1  0  0  0  0
 17 19  1  0  0  0  0
 17 26  1  0  0  0  0
 17 70  1  0  0  0  0
 17 71  1  0  0  0  0
 18 72  1  0  0  0  0
 19 27  1  0  0  0  0
 19 73  1  0  0  0  0
 19 74  1  0  0  0  0
 20 23  1  0  0  0  0
 20 24  1  0  0  0  0
 20 75  1  0  0  0  0
 20 76  1  0  0  0  0
 21 77  1  0  0  0  0
 22 78  1  0  0  0  0
 23 25  2  0  0  0  0
 23 38  1  0  0  0  0
 24 31  1  0  0  0  0
 24 79  1  0  0  0  0
 24 80  1  0  0  0  0
 25 81  1  0  0  0  0
 26 82  1  0  0  0  0
 27 33  2  0  0  0  0
 27 39  1  0  0  0  0
 28 33  1  0  0  0  0
 28 37  1  0  0  0  0
 28 83  1  0  0  0  0
 28 84  1  0  0  0  0
 29 85  1  0  0  0  0
 29 86  1  0  0  0  0
 29 87  1  0  0  0  0
 30 88  1  0  0  0  0
 30 89  1  0  0  0  0
 30 90  1  0  0  0  0
 31 34  2  0  0  0  0
 31 91  1  0  0  0  0
 32 92  1  0  0  0  0
 32 93  1  0  0  0  0
 32 94  1  0  0  0  0
 33 95  1  0  0  0  0
 34 36  1  0  0  0  0
 34 43  1  0  0  0  0
 35 96  1  0  0  0  0
 35 97  1  0  0  0  0
 35 98  1  0  0  0  0
 36 40  1  0  0  0  0
 36 99  1  0  0  0  0
 36100  1  0  0  0  0
 37 41  2  0  0  0  0
 37 42  1  0  0  0  0
 38101  1  0  0  0  0
 38102  1  0  0  0  0
 38103  1  0  0  0  0
 39104  1  0  0  0  0
 39105  1  0  0  0  0
 39106  1  0  0  0  0
 40 47  1  0  0  0  0
 40107  1  0  0  0  0
 40108  1  0  0  0  0
 41 44  1  0  0  0  0
 41 48  1  0  0  0  0
 42 45  1  0  0  0  0
 43109  1  0  0  0  0
 43110  1  0  0  0  0
 43111  1  0  0  0  0
 44 46  1  0  0  0  0
 45 46  2  0  0  0  0
 47 49  2  0  0  0  0
 47112  1  0  0  0  0
 48113  1  0  0  0  0
 48114  1  0  0  0  0
 48115  1  0  0  0  0
 49 50  1  0  0  0  0
 49 51  1  0  0  0  0
 50116  1  0  0  0  0
 50117  1  0  0  0  0
 50118  1  0  0  0  0
 51119  1  0  0  0  0
 51120  1  0  0  0  0
 51121  1  0  0  0  0
 52122  1  0  0  0  0
 52123  1  0  0  0  0
 52124  1  0  0  0  0
 53125  1  0  0  0  0
 53126  1  0  0  0  0
 53127  1  0  0  0  0
M  END
> <PUBCHEM_COMPOUND_CID>
5283546

> <PUBCHEM_COMPOUND_CANONICALIZED>
1

> <PUBCHEM_CACTVS_COMPLEXITY>
1520

> <PUBCHEM_CACTVS_HBOND_ACCEPTOR>
4

> <PUBCHEM_CACTVS_HBOND_DONOR>
0

> <PUBCHEM_CACTVS_ROTATABLE_BOND>
25

> <PUBCHEM_CACTVS_SUBSKEYS>
AAADcfB8OAAAAAAAAAAAAAAAAAAAAAAAAAAgAAAAAAAAAAAAAAAAGgAAAAAADASAgAICAAAABACIAqBSAAIACAAgIAAACAFAAEgAABIAAQQAAAAEwAAIAQKAAAAAAAAAAAAAAAAAAAAAAAAAAAAAAAAAAA==

> <PUBCHEM_IUPAC_OPENEYE_NAME>
2,3-dimethoxy-5-methyl-6-[(2E,6E,10E,14E,18E,22E,26E)-3,7,11,15,19,23,27,31-octamethyldotriaconta-2,6,10,14,18,22,26,30-octaenyl]-1,4-benzoquinone

> <PUBCHEM_IUPAC_CAS_NAME>
2,3-dimethoxy-5-methyl-6-[(2E,6E,10E,14E,18E,22E,26E)-3,7,11,15,19,23,27,31-octamethyldotriaconta-2,6,10,14,18,22,26,30-octaenyl]cyclohexa-2,5-diene-1,4-dione

> <PUBCHEM_IUPAC_NAME>
2,3-dimethoxy-5-methyl-6-[(2E,6E,10E,14E,18E,22E,26E)-3,7,11,15,19,23,27,31-octamethyldotriaconta-2,6,10,14,18,22,26,30-octaenyl]cyclohexa-2,5-diene-1,4-dione

> <PUBCHEM_IUPAC_SYSTEMATIC_NAME>
2,3-dimethoxy-5-methyl-6-[(2E,6E,10E,14E,18E,22E,26E)-3,7,11,15,19,23,27,31-octamethyldotriaconta-2,6,10,14,18,22,26,30-octaenyl]cyclohexa-2,5-diene-1,4-dione

> <PUBCHEM_IUPAC_TRADITIONAL_NAME>
2,3-dimethoxy-5-methyl-6-[(2E,6E,10E,14E,18E,22E,26E)-3,7,11,15,19,23,27,31-octamethyldotriaconta-2,6,10,14,18,22,26,30-octaenyl]-p-benzoquinone

> <PUBCHEM_IUPAC_INCHI>
InChI=1S/C49H74O4/c1-36(2)20-13-21-37(3)22-14-23-38(4)24-15-25-39(5)26-16-27-40(6)28-17-29-41(7)30-18-31-42(8)32-19-33-43(9)34-35-45-44(10)46(50)48(52-11)49(53-12)47(45)51/h20,22,24,26,28,30,32,34H,13-19,21,23,25,27,29,31,33,35H2,1-12H3/b37-22+,38-24+,39-26+,40-28+,41-30+,42-32+,43-34+

> <PUBCHEM_IUPAC_INCHIKEY>
ICFIZJQGJAJRSU-SGHXUWJISA-N

> <PUBCHEM_XLOGP3_AA>
15.7

> <PUBCHEM_EXACT_MASS>
726.558711

> <PUBCHEM_MOLECULAR_FORMULA>
C49H74O4

> <PUBCHEM_MOLECULAR_WEIGHT>
727.10946

> <PUBCHEM_OPENEYE_CAN_SMILES>
CC1=C(C(=O)C(=C(C1=O)OC)OC)CC=C(C)CCC=C(C)CCC=C(C)CCC=C(C)CCC=C(C)CCC=C(C)CCC=C(C)CCC=C(C)C

> <PUBCHEM_OPENEYE_ISO_SMILES>
CC1=C(C(=O)C(=C(C1=O)OC)OC)C/C=C(\C)/CC/C=C(\C)/CC/C=C(\C)/CC/C=C(\C)/CC/C=C(\C)/CC/C=C(\C)/CC/C=C(\C)/CCC=C(C)C

> <PUBCHEM_CACTVS_TPSA>
52.6

> <PUBCHEM_MONOISOTOPIC_WEIGHT>
726.558711

> <PUBCHEM_TOTAL_CHARGE>
0

> <PUBCHEM_HEAVY_ATOM_COUNT>
53

> <PUBCHEM_ATOM_DEF_STEREO_COUNT>
0

> <PUBCHEM_ATOM_UDEF_STEREO_COUNT>
0

> <PUBCHEM_BOND_DEF_STEREO_COUNT>
7

> <PUBCHEM_BOND_UDEF_STEREO_COUNT>
0

> <PUBCHEM_ISOTOPIC_ATOM_COUNT>
0

> <PUBCHEM_COMPONENT_COUNT>
1

> <PUBCHEM_CACTVS_TAUTO_COUNT>
57

> <PUBCHEM_COORDINATE_TYPE>
1
5
255

$$$$

