5036
  -OEChem-06261200293D

 50 53  0     1  0  0  0  0  0999 V2000
    3.1758    1.6422   -1.0833 S   0  0  0  0  0  0  0  0  0  0  0  0
    6.5158   -2.6583    1.1220 F   0  0  0  0  0  0  0  0  0  0  0  0
    3.4407    2.8490   -0.3234 O   0  0  0  0  0  0  0  0  0  0  0  0
    3.3653    1.6290   -2.5212 O   0  0  0  0  0  0  0  0  0  0  0  0
   -4.8801   -4.4536    0.7788 O   0  0  0  0  0  0  0  0  0  0  0  0
   -4.4121   -4.0052   -1.3959 O   0  0  0  0  0  0  0  0  0  0  0  0
   -2.7349   -0.2122   -0.2510 N   0  0  0  0  0  0  0  0  0  0  0  0
    1.6119    1.0863   -0.7375 N   0  0  0  0  0  0  0  0  0  0  0  0
    1.2105    0.8451    0.6765 C   0  0  1  0  0  0  0  0  0  0  0  0
    0.0403    1.7828    1.0456 C   0  0  0  0  0  0  0  0  0  0  0  0
   -1.4335   -0.0404    0.1239 C   0  0  0  0  0  0  0  0  0  0  0  0
   -1.2675    1.2606    0.5495 C   0  0  0  0  0  0  0  0  0  0  0  0
    0.8543   -0.6467    0.8556 C   0  0  0  0  0  0  0  0  0  0  0  0
   -0.3814   -1.0858    0.0446 C   0  0  0  0  0  0  0  0  0  0  0  0
   -2.5298    1.9092    0.4349 C   0  0  0  0  0  0  0  0  0  0  0  0
   -3.4300    0.9645   -0.0699 C   0  0  0  0  0  0  0  0  0  0  0  0
   -3.3022   -1.4388   -0.7708 C   0  0  0  0  0  0  0  0  0  0  0  0
   -2.9989    3.2091    0.7129 C   0  0  0  0  0  0  0  0  0  0  0  0
   -4.7763    1.2604   -0.3124 C   0  0  0  0  0  0  0  0  0  0  0  0
   -3.8748   -2.3527    0.3136 C   0  0  0  0  0  0  0  0  0  0  0  0
   -4.3431    3.5174    0.4750 C   0  0  0  0  0  0  0  0  0  0  0  0
   -5.2163    2.5566   -0.0300 C   0  0  0  0  0  0  0  0  0  0  0  0
    4.1805    0.3483   -0.4193 C   0  0  0  0  0  0  0  0  0  0  0  0
   -4.4120   -3.6622   -0.2222 C   0  0  0  0  0  0  0  0  0  0  0  0
    4.5320   -0.7170   -1.2298 C   0  0  0  0  0  0  0  0  0  0  0  0
    4.5971    0.4249    0.8984 C   0  0  0  0  0  0  0  0  0  0  0  0
    5.3249   -1.7382   -0.7061 C   0  0  0  0  0  0  0  0  0  0  0  0
    5.3901   -0.5962    1.4218 C   0  0  0  0  0  0  0  0  0  0  0  0
    5.7540   -1.6778    0.6196 C   0  0  0  0  0  0  0  0  0  0  0  0
    2.0343    1.0981    1.3478 H   0  0  0  0  0  0  0  0  0  0  0  0
    0.2190    2.7917    0.6553 H   0  0  0  0  0  0  0  0  0  0  0  0
   -0.0218    1.8601    2.1386 H   0  0  0  0  0  0  0  0  0  0  0  0
    0.6568   -0.8255    1.9212 H   0  0  0  0  0  0  0  0  0  0  0  0
    1.7042   -1.2832    0.5831 H   0  0  0  0  0  0  0  0  0  0  0  0
   -0.7385   -2.0446    0.4350 H   0  0  0  0  0  0  0  0  0  0  0  0
   -0.0998   -1.2418   -1.0033 H   0  0  0  0  0  0  0  0  0  0  0  0
    1.0127    0.7087   -1.4802 H   0  0  0  0  0  0  0  0  0  0  0  0
   -4.0737   -1.1788   -1.5047 H   0  0  0  0  0  0  0  0  0  0  0  0
   -2.5221   -1.9594   -1.3388 H   0  0  0  0  0  0  0  0  0  0  0  0
   -2.3302    3.9691    1.1070 H   0  0  0  0  0  0  0  0  0  0  0  0
   -5.4675    0.5199   -0.7003 H   0  0  0  0  0  0  0  0  0  0  0  0
   -3.0973   -2.5865    1.0499 H   0  0  0  0  0  0  0  0  0  0  0  0
   -4.6929   -1.8402    0.8328 H   0  0  0  0  0  0  0  0  0  0  0  0
   -4.7086    4.5185    0.6877 H   0  0  0  0  0  0  0  0  0  0  0  0
   -6.2568    2.8173   -0.2062 H   0  0  0  0  0  0  0  0  0  0  0  0
    4.2015   -0.7871   -2.2614 H   0  0  0  0  0  0  0  0  0  0  0  0
    4.3349    1.2614    1.5384 H   0  0  0  0  0  0  0  0  0  0  0  0
    5.6068   -2.5815   -1.3297 H   0  0  0  0  0  0  0  0  0  0  0  0
    5.7262   -0.5487    2.4535 H   0  0  0  0  0  0  0  0  0  0  0  0
   -5.2169   -5.3103    0.4398 H   0  0  0  0  0  0  0  0  0  0  0  0
  1  3  2  0  0  0  0
  1  4  2  0  0  0  0
  1  8  1  0  0  0  0
  1 23  1  0  0  0  0
  2 29  1  0  0  0  0
  5 24  1  0  0  0  0
  5 50  1  0  0  0  0
  6 24  2  0  0  0  0
  7 11  1  0  0  0  0
  7 16  1  0  0  0  0
  7 17  1  0  0  0  0
  8  9  1  0  0  0  0
  8 37  1  0  0  0  0
  9 10  1  0  0  0  0
  9 13  1  0  0  0  0
  9 30  1  0  0  0  0
 10 12  1  0  0  0  0
 10 31  1  0  0  0  0
 10 32  1  0  0  0  0
 11 12  2  0  0  0  0
 11 14  1  0  0  0  0
 12 15  1  0  0  0  0
 13 14  1  0  0  0  0
 13 33  1  0  0  0  0
 13 34  1  0  0  0  0
 14 35  1  0  0  0  0
 14 36  1  0  0  0  0
 15 16  1  0  0  0  0
 15 18  2  0  0  0  0
 16 19  2  0  0  0  0
 17 20  1  0  0  0  0
 17 38  1  0  0  0  0
 17 39  1  0  0  0  0
 18 21  1  0  0  0  0
 18 40  1  0  0  0  0
 19 22  1  0  0  0  0
 19 41  1  0  0  0  0
 20 24  1  0  0  0  0
 20 42  1  0  0  0  0
 20 43  1  0  0  0  0
 21 22  2  0  0  0  0
 21 44  1  0  0  0  0
 22 45  1  0  0  0  0
 23 25  2  0  0  0  0
 23 26  1  0  0  0  0
 25 27  1  0  0  0  0
 25 46  1  0  0  0  0
 26 28  2  0  0  0  0
 26 47  1  0  0  0  0
 27 29  2  0  0  0  0
 27 48  1  0  0  0  0
 28 29  1  0  0  0  0
 28 49  1  0  0  0  0
M  END
> <PUBCHEM_COMPOUND_CID>
5036

> <PUBCHEM_CONFORMER_RMSD>
0.8

> <PUBCHEM_CONFORMER_DIVERSEORDER>
2
64
108
115
95
79
106
61
123
104
12
73
69
124
118
119
76
7
58
93
52
36
71
91
13
33
57
59
113
56
127
28
114
102
26
42
65
66
112
21
110
125
97
121
117
128
6
109
78
50
99
88
43
14
62
18
82
22
87
84
55
11
92
98
68
126
80
27
48
120
74
111
105
107
45
60
90
67
96
72
34
63
116
25
47
101
20
44
85
81
3
30
103
53
39
122
77
15
8
100
75
10
41
54
24
37
5
70
4
49
89
94
46
32
40
86
16
38
23
9
17
83
35
51
31
1
19
29

> <PUBCHEM_MMFF94_PARTIAL_CHARGES>
37
1 1.45
10 0.18
11 -0.33
12 -0.18
14 0.18
16 -0.15
17 0.26
18 -0.15
19 -0.15
2 -0.19
20 0.06
21 -0.15
22 -0.15
23 -0.01
24 0.66
25 -0.15
26 -0.15
27 -0.15
28 -0.15
29 0.19
3 -0.65
37 0.42
4 -0.65
40 0.15
41 0.15
44 0.15
45 0.15
46 0.15
47 0.15
48 0.15
49 0.15
5 -0.65
50 0.5
6 -0.57
7 0.05
8 -0.91
9 0.36

> <PUBCHEM_EFFECTIVE_ROTOR_COUNT>
6.8

> <PUBCHEM_PHARMACOPHORE_FEATURES>
11
1 3 acceptor
1 4 acceptor
1 5 acceptor
1 6 acceptor
1 7 cation
1 8 donor
3 5 6 24 anion
5 7 11 12 15 16 rings
6 15 16 18 19 21 22 rings
6 23 25 26 27 28 29 rings
6 9 10 11 12 13 14 rings

> <PUBCHEM_HEAVY_ATOM_COUNT>
29

> <PUBCHEM_ATOM_DEF_STEREO_COUNT>
0

> <PUBCHEM_ATOM_UDEF_STEREO_COUNT>
1

> <PUBCHEM_BOND_DEF_STEREO_COUNT>
0

> <PUBCHEM_BOND_UDEF_STEREO_COUNT>
0

> <PUBCHEM_ISOTOPIC_ATOM_COUNT>
0

> <PUBCHEM_COMPONENT_COUNT>
1

> <PUBCHEM_CACTVS_TAUTO_COUNT>
1

> <PUBCHEM_CONFORMER_ID>
000013AC00000002

> <PUBCHEM_MMFF94_ENERGY>
41.8439

> <PUBCHEM_FEATURE_SELFOVERLAP>
56.069

> <PUBCHEM_SHAPE_FINGERPRINT>
10050765 1 18410010996739139784
10595046 47 18269270175736928172
10622 236 18342743966146786494
11136131 41 17255668120631233521
11227688 84 17978240366068003359
11405975 8 18411978074638730888
11763715 3 18054206770922856677
11796584 16 18334575793633419826
11809386 21 18412831274266254435
11991303 11 18272931653106005373
12107183 9 18269274745671613448
12236239 1 18272086153732883960
12616971 3 17917708028424826732
12788726 201 18196928868733156715
13073987 5 18411422765748231080
13583140 156 17386016056941811792
14118638 360 18271242695365059396
14347332 77 18337953381463550743
14790565 3 17903355158507830361
14866123 147 18409446990930431243
15042514 8 18408884002332424777
15131766 46 16412915203723219397
15183329 4 18269549606219639100
15250474 111 18413392038007397374
15927050 60 18263649631763759167
17492 89 18337669720374626366
17818456 19 18339075012268151964
19301679 30 18266167349955976635
19958102 18 18193562383388387173
20626108 58 18412831270398132672
21703447 108 18119530925465966936
21781051 124 18342161285957444569
23559900 14 18114177579886972764
23572383 38 17894910793078792142
3004659 81 18339071714154937164
3610482 184 17987494001227046046
4073 2 18335424595209274618
44062 13 18408882949242530447
5104073 3 18187363199217803560
513202 73 18340760443708865291
559249 180 18339363096703100441
6058803 2 18270665494304949060
633830 44 17275094020901854512
7164475 11 18338230449566283036
7970288 3 17976263435217665583

> <PUBCHEM_SHAPE_MULTIPOLES>
559.94
15
4.72
1.29
12.06
4.01
0.39
6.45
-0.6
-9.12
-0.01
1.54
-0.04
-1.85

> <PUBCHEM_SHAPE_SELFOVERLAP>
1205.379

> <PUBCHEM_SHAPE_VOLUME>
312.7

> <PUBCHEM_COORDINATE_TYPE>
2
5
10

$$$$

