91644
  -OEChem-07051213053D

 47 47  0     0  0  0  0  0  0999 V2000
   -1.5737    4.1639    0.6863 Cl  0  0  0  0  0  0  0  0  0  0  0  0
    3.3179   -0.4528   -0.5979 O   0  0  0  0  0  0  0  0  0  0  0  0
    0.5775    2.6369   -0.3553 O   0  0  0  0  0  0  0  0  0  0  0  0
   -0.2924    0.4536   -0.3768 N   0  0  0  0  0  0  0  0  0  0  0  0
   -1.3849   -0.3742   -0.0962 C   0  0  0  0  0  0  0  0  0  0  0  0
   -1.5071   -0.9658    1.1612 C   0  0  0  0  0  0  0  0  0  0  0  0
   -2.3525   -0.6074   -1.0736 C   0  0  0  0  0  0  0  0  0  0  0  0
    0.9675   -0.1149   -0.9450 C   0  0  0  0  0  0  0  0  0  0  0  0
   -0.4871   -0.7354    2.2290 C   0  0  0  0  0  0  0  0  0  0  0  0
   -2.2499    0.0124   -2.4297 C   0  0  0  0  0  0  0  0  0  0  0  0
    2.1539    0.1356   -0.0320 C   0  0  0  0  0  0  0  0  0  0  0  0
   -2.5969   -1.7903    1.4410 C   0  0  0  0  0  0  0  0  0  0  0  0
   -3.4423   -1.4318   -0.7936 C   0  0  0  0  0  0  0  0  0  0  0  0
   -0.3606    1.8709   -0.1232 C   0  0  0  0  0  0  0  0  0  0  0  0
   -3.5644   -2.0232    0.4636 C   0  0  0  0  0  0  0  0  0  0  0  0
   -1.1248   -0.4434    3.5834 C   0  0  0  0  0  0  0  0  0  0  0  0
   -1.4809   -0.8673   -3.4102 C   0  0  0  0  0  0  0  0  0  0  0  0
    4.4589   -0.2446    0.2231 C   0  0  0  0  0  0  0  0  0  0  0  0
   -1.6466    2.4003    0.4878 C   0  0  0  0  0  0  0  0  0  0  0  0
    5.6647   -0.8960   -0.4366 C   0  0  0  0  0  0  0  0  0  0  0  0
    6.9236   -0.7264    0.3947 C   0  0  0  0  0  0  0  0  0  0  0  0
    0.8411   -1.1889   -1.1231 H   0  0  0  0  0  0  0  0  0  0  0  0
    1.1419    0.3661   -1.9145 H   0  0  0  0  0  0  0  0  0  0  0  0
    0.1428    0.1300    2.0139 H   0  0  0  0  0  0  0  0  0  0  0  0
    0.1706   -1.6090    2.3024 H   0  0  0  0  0  0  0  0  0  0  0  0
   -3.2575    0.1895   -2.8284 H   0  0  0  0  0  0  0  0  0  0  0  0
   -1.7906    1.0057   -2.3882 H   0  0  0  0  0  0  0  0  0  0  0  0
    2.3433    1.2008    0.1200 H   0  0  0  0  0  0  0  0  0  0  0  0
    1.9822   -0.3208    0.9468 H   0  0  0  0  0  0  0  0  0  0  0  0
   -2.7113   -2.2864    2.3998 H   0  0  0  0  0  0  0  0  0  0  0  0
   -4.2024   -1.6254   -1.5460 H   0  0  0  0  0  0  0  0  0  0  0  0
   -4.4099   -2.6700    0.6793 H   0  0  0  0  0  0  0  0  0  0  0  0
   -0.3519   -0.1300    4.2939 H   0  0  0  0  0  0  0  0  0  0  0  0
   -1.6091   -1.3244    4.0156 H   0  0  0  0  0  0  0  0  0  0  0  0
   -1.8645    0.3618    3.5177 H   0  0  0  0  0  0  0  0  0  0  0  0
   -0.4568   -1.0597   -3.0853 H   0  0  0  0  0  0  0  0  0  0  0  0
   -1.4363   -0.3830   -4.3910 H   0  0  0  0  0  0  0  0  0  0  0  0
   -1.9750   -1.8368   -3.5379 H   0  0  0  0  0  0  0  0  0  0  0  0
    4.6341    0.8308    0.3446 H   0  0  0  0  0  0  0  0  0  0  0  0
    4.2864   -0.6882    1.2107 H   0  0  0  0  0  0  0  0  0  0  0  0
   -1.8039    1.9669    1.4772 H   0  0  0  0  0  0  0  0  0  0  0  0
   -2.4981    2.1828   -0.1600 H   0  0  0  0  0  0  0  0  0  0  0  0
    5.4655   -1.9625   -0.5962 H   0  0  0  0  0  0  0  0  0  0  0  0
    5.8158   -0.4654   -1.4338 H   0  0  0  0  0  0  0  0  0  0  0  0
    7.7738   -1.2033   -0.1028 H   0  0  0  0  0  0  0  0  0  0  0  0
    6.8069   -1.1852    1.3818 H   0  0  0  0  0  0  0  0  0  0  0  0
    7.1622    0.3329    0.5339 H   0  0  0  0  0  0  0  0  0  0  0  0
  1 19  1  0  0  0  0
  2 11  1  0  0  0  0
  2 18  1  0  0  0  0
  3 14  2  0  0  0  0
  4  5  1  0  0  0  0
  4  8  1  0  0  0  0
  4 14  1  0  0  0  0
  5  6  2  0  0  0  0
  5  7  1  0  0  0  0
  6  9  1  0  0  0  0
  6 12  1  0  0  0  0
  7 10  1  0  0  0  0
  7 13  2  0  0  0  0
  8 11  1  0  0  0  0
  8 22  1  0  0  0  0
  8 23  1  0  0  0  0
  9 16  1  0  0  0  0
  9 24  1  0  0  0  0
  9 25  1  0  0  0  0
 10 17  1  0  0  0  0
 10 26  1  0  0  0  0
 10 27  1  0  0  0  0
 11 28  1  0  0  0  0
 11 29  1  0  0  0  0
 12 15  2  0  0  0  0
 12 30  1  0  0  0  0
 13 15  1  0  0  0  0
 13 31  1  0  0  0  0
 14 19  1  0  0  0  0
 15 32  1  0  0  0  0
 16 33  1  0  0  0  0
 16 34  1  0  0  0  0
 16 35  1  0  0  0  0
 17 36  1  0  0  0  0
 17 37  1  0  0  0  0
 17 38  1  0  0  0  0
 18 20  1  0  0  0  0
 18 39  1  0  0  0  0
 18 40  1  0  0  0  0
 19 41  1  0  0  0  0
 19 42  1  0  0  0  0
 20 21  1  0  0  0  0
 20 43  1  0  0  0  0
 20 44  1  0  0  0  0
 21 45  1  0  0  0  0
 21 46  1  0  0  0  0
 21 47  1  0  0  0  0
M  END
> <PUBCHEM_COMPOUND_CID>
91644

> <PUBCHEM_CONFORMER_RMSD>
1

> <PUBCHEM_CONFORMER_DIVERSEORDER>
1
23
12
24
19
13
14
9
22
15
17
8
18
3
10
16
6
20
7
4
5
21
11
2

> <PUBCHEM_MMFF94_PARTIAL_CHARGES>
20
1 -0.29
10 0.14
11 0.28
12 -0.15
13 -0.15
14 0.57
15 -0.15
18 0.28
19 0.35
2 -0.56
3 -0.57
30 0.15
31 0.15
32 0.15
4 -0.48
5 0.12
6 -0.14
7 -0.14
8 0.3
9 0.14

> <PUBCHEM_EFFECTIVE_ROTOR_COUNT>
10

> <PUBCHEM_PHARMACOPHORE_FEATURES>
6
1 16 hydrophobe
1 17 hydrophobe
1 2 acceptor
1 21 hydrophobe
1 3 acceptor
6 5 6 7 12 13 15 rings

> <PUBCHEM_HEAVY_ATOM_COUNT>
21

> <PUBCHEM_ATOM_DEF_STEREO_COUNT>
0

> <PUBCHEM_ATOM_UDEF_STEREO_COUNT>
0

> <PUBCHEM_BOND_DEF_STEREO_COUNT>
0

> <PUBCHEM_BOND_UDEF_STEREO_COUNT>
0

> <PUBCHEM_ISOTOPIC_ATOM_COUNT>
0

> <PUBCHEM_COMPONENT_COUNT>
1

> <PUBCHEM_CACTVS_TAUTO_COUNT>
1

> <PUBCHEM_CONFORMER_ID>
000165FC00000001

> <PUBCHEM_MMFF94_ENERGY>
68.7718

> <PUBCHEM_FEATURE_SELFOVERLAP>
30.446

> <PUBCHEM_SHAPE_FINGERPRINT>
11101153 10 18337670811940508476
11315181 36 18131912668378231638
11578080 2 16951995893645458153
12363563 72 18342166740212248198
12788726 201 18265626544388924009
14251740 79 17275107232210330914
14817 1 5958896549649291689
14863182 85 15535284738653661995
16945 1 17702955729851430411
17870717 6 17418371407119361310
1813 80 17896024486746588804
18927931 339 18410005564190774214
200 152 18272933800120420982
20101258 96 18335416877084880920
2306618 200 17240488039136455928
23175994 123 18342739568131391183
23419403 2 17985278382328904733
23526113 38 17914341169059316417
23559900 14 17274545300522679708
3286 77 18125997162207689119
394222 165 16741953825206329571
484985 159 18272367615793057378
6786 2 17248346429044746657

> <PUBCHEM_SHAPE_MULTIPOLES>
417.32
8.94
2.93
2.74
25.73
4.76
0.65
-5.48
0.14
-3.06
-0.03
-2.71
-1.21
-0.03

> <PUBCHEM_SHAPE_SELFOVERLAP>
822.447

> <PUBCHEM_SHAPE_VOLUME>
250.7

> <PUBCHEM_COORDINATE_TYPE>
2
5
10

$$$$

