11982640
  -OEChem-07051213102D

 62 64  0     1  0  0  0  0  0999 V2000
    8.0901   -0.2847    0.0000 O   0  0  0  0  0  0  0  0  0  0  0  0
    6.3301    2.7500    0.0000 O   0  0  0  0  0  0  0  0  0  0  0  0
    4.5981   -0.2500    0.0000 O   0  0  0  0  0  0  0  0  0  0  0  0
    8.0785    2.7846    0.0000 O   0  0  0  0  0  0  0  0  0  0  0  0
    8.9884   -1.7708    0.0000 O   0  0  0  0  0  0  0  0  0  0  0  0
   12.4525   -1.7842    0.0000 O   0  0  0  0  0  0  0  0  0  0  0  0
    5.4641   -1.7500    0.0000 C   0  0  1  0  0  0  0  0  0  0  0  0
    6.3301   -1.2500    0.0000 C   0  0  0  0  0  0  0  0  0  0  0  0
    6.3301   -0.2500    0.0000 C   0  0  0  0  0  0  0  0  0  0  0  0
    7.1962    0.2500    0.0000 C   0  0  0  0  0  0  0  0  0  0  0  0
    8.9962    0.2292    0.0000 C   0  0  1  0  0  0  0  0  0  0  0  0
    7.1962    1.2500    0.0000 C   0  0  0  0  0  0  0  0  0  0  0  0
    8.9962    1.2708    0.0000 C   0  0  0  0  0  0  0  0  0  0  0  0
    4.5981   -1.2500    0.0000 C   0  0  0  0  0  0  0  0  0  0  0  0
    8.0901    1.7847    0.0000 C   0  0  0  0  0  0  0  0  0  0  0  0
    5.4641   -2.7500    0.0000 C   0  0  0  0  0  0  0  0  0  0  0  0
    5.4641    0.2500    0.0000 C   0  0  0  0  0  0  0  0  0  0  0  0
    6.3301    1.7500    0.0000 C   0  0  0  0  0  0  0  0  0  0  0  0
    9.8602   -0.2742    0.0000 C   0  0  0  0  0  0  0  0  0  0  0  0
    5.4641    1.2500    0.0000 C   0  0  0  0  0  0  0  0  0  0  0  0
    3.7320   -1.7500    0.0000 C   0  0  0  0  0  0  0  0  0  0  0  0
    4.5981   -3.2500    0.0000 C   0  0  0  0  0  0  0  0  0  0  0  0
    9.8564   -1.2741    0.0000 C   0  0  0  0  0  0  0  0  0  0  0  0
   10.7282    0.2225    0.0000 C   0  0  0  0  0  0  0  0  0  0  0  0
    6.3301   -3.2500    0.0000 C   0  0  0  0  0  0  0  0  0  0  0  0
    2.8660   -1.2500    0.0000 C   0  0  0  0  0  0  0  0  0  0  0  0
   10.7205   -1.7775    0.0000 C   0  0  0  0  0  0  0  0  0  0  0  0
   11.5923   -0.2808    0.0000 C   0  0  0  0  0  0  0  0  0  0  0  0
   11.5884   -1.2808    0.0000 C   0  0  0  0  0  0  0  0  0  0  0  0
    2.0000   -1.7500    0.0000 C   0  0  0  0  0  0  0  0  0  0  0  0
    2.8660   -0.2500    0.0000 C   0  0  0  0  0  0  0  0  0  0  0  0
    5.4641    3.2500    0.0000 C   0  0  0  0  0  0  0  0  0  0  0  0
    5.4641   -1.1300    0.0000 H   0  0  0  0  0  0  0  0  0  0  0  0
    6.5422   -1.8326    0.0000 H   0  0  0  0  0  0  0  0  0  0  0  0
    6.9407   -1.1423    0.0000 H   0  0  0  0  0  0  0  0  0  0  0  0
    8.9913   -0.6208    0.0000 H   0  0  0  0  0  0  0  0  0  0  0  0
    9.6070    1.1647    0.0000 H   0  0  0  0  0  0  0  0  0  0  0  0
    9.2052    1.8545    0.0000 H   0  0  0  0  0  0  0  0  0  0  0  0
    4.9966   -0.7751    0.0000 H   0  0  0  0  0  0  0  0  0  0  0  0
    4.1996   -0.7751    0.0000 H   0  0  0  0  0  0  0  0  0  0  0  0
    4.9272    1.5600    0.0000 H   0  0  0  0  0  0  0  0  0  0  0  0
    3.7320   -2.3700    0.0000 H   0  0  0  0  0  0  0  0  0  0  0  0
    4.2881   -2.7131    0.0000 H   0  0  0  0  0  0  0  0  0  0  0  0
    4.0611   -3.5600    0.0000 H   0  0  0  0  0  0  0  0  0  0  0  0
    4.9081   -3.7869    0.0000 H   0  0  0  0  0  0  0  0  0  0  0  0
   10.7306    0.8425    0.0000 H   0  0  0  0  0  0  0  0  0  0  0  0
    6.3301   -3.8700    0.0000 H   0  0  0  0  0  0  0  0  0  0  0  0
    6.8671   -2.9400    0.0000 H   0  0  0  0  0  0  0  0  0  0  0  0
    4.0611    0.0600    0.0000 H   0  0  0  0  0  0  0  0  0  0  0  0
   10.7181   -2.3975    0.0000 H   0  0  0  0  0  0  0  0  0  0  0  0
   12.1304    0.0271    0.0000 H   0  0  0  0  0  0  0  0  0  0  0  0
    1.6900   -1.2131    0.0000 H   0  0  0  0  0  0  0  0  0  0  0  0
    1.4631   -2.0600    0.0000 H   0  0  0  0  0  0  0  0  0  0  0  0
    2.3100   -2.2869    0.0000 H   0  0  0  0  0  0  0  0  0  0  0  0
    3.4860   -0.2500    0.0000 H   0  0  0  0  0  0  0  0  0  0  0  0
    2.8660    0.3700    0.0000 H   0  0  0  0  0  0  0  0  0  0  0  0
    2.2460   -0.2500    0.0000 H   0  0  0  0  0  0  0  0  0  0  0  0
    5.7741    3.7869    0.0000 H   0  0  0  0  0  0  0  0  0  0  0  0
    4.9272    3.5600    0.0000 H   0  0  0  0  0  0  0  0  0  0  0  0
    5.1541    2.7131    0.0000 H   0  0  0  0  0  0  0  0  0  0  0  0
    8.9861   -2.3908    0.0000 H   0  0  0  0  0  0  0  0  0  0  0  0
   12.9907   -1.4762    0.0000 H   0  0  0  0  0  0  0  0  0  0  0  0
  1 10  1  0  0  0  0
  1 11  1  0  0  0  0
  2 18  1  0  0  0  0
  2 32  1  0  0  0  0
  3 17  1  0  0  0  0
  3 49  1  0  0  0  0
  4 15  2  0  0  0  0
  5 23  1  0  0  0  0
  5 61  1  0  0  0  0
  6 29  1  0  0  0  0
  6 62  1  0  0  0  0
  7  8  1  0  0  0  0
  7 14  1  6  0  0  0
  7 16  1  0  0  0  0
  7 33  1  0  0  0  0
  8  9  1  0  0  0  0
  8 34  1  0  0  0  0
  8 35  1  0  0  0  0
  9 10  2  0  0  0  0
  9 17  1  0  0  0  0
 10 12  1  0  0  0  0
 11 13  1  0  0  0  0
 11 19  1  0  0  0  0
 11 36  1  6  0  0  0
 12 15  1  0  0  0  0
 12 18  2  0  0  0  0
 13 15  1  0  0  0  0
 13 37  1  0  0  0  0
 13 38  1  0  0  0  0
 14 21  1  0  0  0  0
 14 39  1  0  0  0  0
 14 40  1  0  0  0  0
 16 22  1  0  0  0  0
 16 25  2  0  0  0  0
 17 20  2  0  0  0  0
 18 20  1  0  0  0  0
 19 23  2  0  0  0  0
 19 24  1  0  0  0  0
 20 41  1  0  0  0  0
 21 26  2  0  0  0  0
 21 42  1  0  0  0  0
 22 43  1  0  0  0  0
 22 44  1  0  0  0  0
 22 45  1  0  0  0  0
 23 27  1  0  0  0  0
 24 28  2  0  0  0  0
 24 46  1  0  0  0  0
 25 47  1  0  0  0  0
 25 48  1  0  0  0  0
 26 30  1  0  0  0  0
 26 31  1  0  0  0  0
 27 29  2  0  0  0  0
 27 50  1  0  0  0  0
 28 29  1  0  0  0  0
 28 51  1  0  0  0  0
 30 52  1  0  0  0  0
 30 53  1  0  0  0  0
 30 54  1  0  0  0  0
 31 55  1  0  0  0  0
 31 56  1  0  0  0  0
 31 57  1  0  0  0  0
 32 58  1  0  0  0  0
 32 59  1  0  0  0  0
 32 60  1  0  0  0  0
M  END
> <PUBCHEM_COMPOUND_CID>
11982640

> <PUBCHEM_COMPOUND_CANONICALIZED>
1

> <PUBCHEM_CACTVS_COMPLEXITY>
698

> <PUBCHEM_CACTVS_HBOND_ACCEPTOR>
6

> <PUBCHEM_CACTVS_HBOND_DONOR>
3

> <PUBCHEM_CACTVS_ROTATABLE_BOND>
7

> <PUBCHEM_CACTVS_SUBSKEYS>
AAADceB4OAAAAAAAAAAAAAAAAAAAAAAAAAA0YIAAAAAAAACRQAAAGgAACAAADRSgmAIyBoAABgCIAqBSAAACCAAkIAAIiAEGCMgMJzaGNRqCeWCl4BUIuQeI7OzOIAACCAAIAABAAAQQABAAAAAAAAAAAA==

> <PUBCHEM_IUPAC_OPENEYE_NAME>
(2S)-2-(2,4-dihydroxyphenyl)-7-hydroxy-8-[(2R)-2-isopropenyl-5-methyl-hex-4-enyl]-5-methoxy-chroman-4-one

> <PUBCHEM_IUPAC_CAS_NAME>
(2S)-2-(2,4-dihydroxyphenyl)-7-hydroxy-5-methoxy-8-[(2R)-5-methyl-2-(1-methylethenyl)hex-4-enyl]-3,4-dihydro-2H-1-benzopyran-4-one

> <PUBCHEM_IUPAC_NAME>
(2S)-2-(2,4-dihydroxyphenyl)-7-hydroxy-5-methoxy-8-[(2R)-5-methyl-2-prop-1-en-2-ylhex-4-enyl]-2,3-dihydrochromen-4-one

> <PUBCHEM_IUPAC_SYSTEMATIC_NAME>
(2S)-2-[2,4-bis(oxidanyl)phenyl]-5-methoxy-8-[(2R)-5-methyl-2-prop-1-en-2-yl-hex-4-enyl]-7-oxidanyl-2,3-dihydrochromen-4-one

> <PUBCHEM_IUPAC_TRADITIONAL_NAME>
(2S)-2-(2,4-dihydroxyphenyl)-7-hydroxy-8-[(2R)-2-isopropenyl-5-methyl-hex-4-enyl]-5-methoxy-chroman-4-one

> <PUBCHEM_IUPAC_INCHI>
InChI=1S/C26H30O6/c1-14(2)6-7-16(15(3)4)10-19-21(29)12-24(31-5)25-22(30)13-23(32-26(19)25)18-9-8-17(27)11-20(18)28/h6,8-9,11-12,16,23,27-29H,3,7,10,13H2,1-2,4-5H3/t16-,23+/m1/s1

> <PUBCHEM_IUPAC_INCHIKEY>
LTTQKYMNTNISSZ-MWTRTKDXSA-N

> <PUBCHEM_XLOGP3_AA>
5.6

> <PUBCHEM_EXACT_MASS>
438.204239

> <PUBCHEM_MOLECULAR_FORMULA>
C26H30O6

> <PUBCHEM_MOLECULAR_WEIGHT>
438.5128

> <PUBCHEM_OPENEYE_CAN_SMILES>
CC(=CCC(CC1=C(C=C(C2=C1OC(CC2=O)C3=C(C=C(C=C3)O)O)OC)O)C(=C)C)C

> <PUBCHEM_OPENEYE_ISO_SMILES>
CC(=CC[C@H](CC1=C(C=C(C2=C1O[C@@H](CC2=O)C3=C(C=C(C=C3)O)O)OC)O)C(=C)C)C

> <PUBCHEM_CACTVS_TPSA>
96.2

> <PUBCHEM_MONOISOTOPIC_WEIGHT>
438.204239

> <PUBCHEM_TOTAL_CHARGE>
0

> <PUBCHEM_HEAVY_ATOM_COUNT>
32

> <PUBCHEM_ATOM_DEF_STEREO_COUNT>
2

> <PUBCHEM_ATOM_UDEF_STEREO_COUNT>
0

> <PUBCHEM_BOND_DEF_STEREO_COUNT>
0

> <PUBCHEM_BOND_UDEF_STEREO_COUNT>
0

> <PUBCHEM_ISOTOPIC_ATOM_COUNT>
0

> <PUBCHEM_COMPONENT_COUNT>
1

> <PUBCHEM_CACTVS_TAUTO_COUNT>
81

> <PUBCHEM_COORDINATE_TYPE>
1
5
255

> <PUBCHEM_BONDANNOTATIONS>
10  12  8
11  36  6
12  18  8
17  20  8
18  20  8
19  23  8
19  24  8
23  27  8
24  28  8
27  29  8
28  29  8
7  14  6
9  10  8
9  17  8

$$$$

