582958
  -OEChem-06241222443D

 36 37  0     1  0  0  0  0  0999 V2000
    2.5805    0.1763    0.7865 S   0  0  0  0  0  0  0  0  0  0  0  0
    1.9551    2.5527   -1.1867 O   0  0  0  0  0  0  0  0  0  0  0  0
   -0.8862    2.8543   -1.6417 O   0  0  0  0  0  0  0  0  0  0  0  0
    2.3615   -0.8695    1.7802 O   0  0  0  0  0  0  0  0  0  0  0  0
    3.5153   -0.0582   -0.3089 O   0  0  0  0  0  0  0  0  0  0  0  0
   -1.1261    0.9835   -0.2190 N   0  0  0  0  0  0  0  0  0  0  0  0
   -4.5631    1.5712    1.1041 N   0  0  0  0  0  0  0  0  0  0  0  0
   -0.2326    0.1003    0.5229 C   0  0  2  0  0  0  0  0  0  0  0  0
    1.0855    0.7091    0.1680 C   0  0  0  0  0  0  0  0  0  0  0  0
   -0.3481   -1.3183    0.0806 C   0  0  0  0  0  0  0  0  0  0  0  0
   -2.5701    0.8774   -0.1315 C   0  0  0  0  0  0  0  0  0  0  0  0
    0.9922    1.7516   -0.6607 C   0  0  0  0  0  0  0  0  0  0  0  0
   -0.4435    1.9655   -0.9336 C   0  0  0  0  0  0  0  0  0  0  0  0
   -3.1101    1.6677    1.0513 C   0  0  0  0  0  0  0  0  0  0  0  0
   -1.1416   -2.2122    0.8009 C   0  0  0  0  0  0  0  0  0  0  0  0
    0.3368   -1.7543   -1.0544 C   0  0  0  0  0  0  0  0  0  0  0  0
    3.1813    1.5992    1.6709 C   0  0  0  0  0  0  0  0  0  0  0  0
   -1.2499   -3.5398    0.3870 C   0  0  0  0  0  0  0  0  0  0  0  0
    0.2283   -3.0820   -1.4683 C   0  0  0  0  0  0  0  0  0  0  0  0
   -0.5651   -3.9747   -0.7475 C   0  0  0  0  0  0  0  0  0  0  0  0
   -0.4259    0.2198    1.5953 H   0  0  0  0  0  0  0  0  0  0  0  0
   -2.9864    1.2891   -1.0593 H   0  0  0  0  0  0  0  0  0  0  0  0
   -2.8648   -0.1747   -0.0825 H   0  0  0  0  0  0  0  0  0  0  0  0
   -2.6917    1.2825    1.9876 H   0  0  0  0  0  0  0  0  0  0  0  0
   -2.8159    2.7206    0.9744 H   0  0  0  0  0  0  0  0  0  0  0  0
   -1.6806   -1.8860    1.6866 H   0  0  0  0  0  0  0  0  0  0  0  0
    0.9445   -1.0897   -1.6612 H   0  0  0  0  0  0  0  0  0  0  0  0
    2.4359    1.9000    2.4099 H   0  0  0  0  0  0  0  0  0  0  0  0
    4.1038    1.3095    2.1798 H   0  0  0  0  0  0  0  0  0  0  0  0
    3.3940    2.4119    0.9761 H   0  0  0  0  0  0  0  0  0  0  0  0
    1.5095    3.2213   -1.7353 H   0  0  0  0  0  0  0  0  0  0  0  0
   -1.8680   -4.2348    0.9479 H   0  0  0  0  0  0  0  0  0  0  0  0
    0.7567   -3.4198   -2.3551 H   0  0  0  0  0  0  0  0  0  0  0  0
   -4.9647    1.9591    0.2514 H   0  0  0  0  0  0  0  0  0  0  0  0
   -4.9125    2.1447    1.8707 H   0  0  0  0  0  0  0  0  0  0  0  0
   -0.6508   -5.0080   -1.0707 H   0  0  0  0  0  0  0  0  0  0  0  0
  1  4  2  0  0  0  0
  1  5  2  0  0  0  0
  1  9  1  0  0  0  0
  1 17  1  0  0  0  0
  2 12  1  0  0  0  0
  2 31  1  0  0  0  0
  3 13  2  0  0  0  0
  6  8  1  0  0  0  0
  6 11  1  0  0  0  0
  6 13  1  0  0  0  0
  7 14  1  0  0  0  0
  7 34  1  0  0  0  0
  7 35  1  0  0  0  0
  8  9  1  0  0  0  0
  8 10  1  0  0  0  0
  8 21  1  0  0  0  0
  9 12  2  0  0  0  0
 10 15  2  0  0  0  0
 10 16  1  0  0  0  0
 11 14  1  0  0  0  0
 11 22  1  0  0  0  0
 11 23  1  0  0  0  0
 12 13  1  0  0  0  0
 14 24  1  0  0  0  0
 14 25  1  0  0  0  0
 15 18  1  0  0  0  0
 15 26  1  0  0  0  0
 16 19  2  0  0  0  0
 16 27  1  0  0  0  0
 17 28  1  0  0  0  0
 17 29  1  0  0  0  0
 17 30  1  0  0  0  0
 18 20  2  0  0  0  0
 18 32  1  0  0  0  0
 19 20  1  0  0  0  0
 19 33  1  0  0  0  0
 20 36  1  0  0  0  0
M  END
> <PUBCHEM_COMPOUND_CID>
582958

> <PUBCHEM_CONFORMER_RMSD>
0.6

> <PUBCHEM_CONFORMER_DIVERSEORDER>
6
11
4
27
23
20
9
16
29
19
26
30
3
14
22
15
17
21
2
5
24
28
8
13
1
25
12
18
10
7

> <PUBCHEM_MMFF94_PARTIAL_CHARGES>
28
1 1.21
10 -0.14
11 0.3
12 0.09
13 0.62
14 0.27
15 -0.15
16 -0.15
17 0.11
18 -0.15
19 -0.15
2 -0.53
20 -0.15
26 0.15
27 0.15
3 -0.57
31 0.45
32 0.15
33 0.15
34 0.36
35 0.36
36 0.15
4 -0.65
5 -0.65
6 -0.66
7 -0.99
8 0.58
9 -0.16

> <PUBCHEM_EFFECTIVE_ROTOR_COUNT>
4.4

> <PUBCHEM_PHARMACOPHORE_FEATURES>
8
1 2 donor
1 3 acceptor
1 4 acceptor
1 5 acceptor
1 7 cation
1 7 donor
5 6 8 9 12 13 rings
6 10 15 16 18 19 20 rings

> <PUBCHEM_HEAVY_ATOM_COUNT>
20

> <PUBCHEM_ATOM_DEF_STEREO_COUNT>
0

> <PUBCHEM_ATOM_UDEF_STEREO_COUNT>
1

> <PUBCHEM_BOND_DEF_STEREO_COUNT>
0

> <PUBCHEM_BOND_UDEF_STEREO_COUNT>
0

> <PUBCHEM_ISOTOPIC_ATOM_COUNT>
0

> <PUBCHEM_COMPONENT_COUNT>
1

> <PUBCHEM_CACTVS_TAUTO_COUNT>
2

> <PUBCHEM_CONFORMER_ID>
0008E52E00000006

> <PUBCHEM_MMFF94_ENERGY>
33.9491

> <PUBCHEM_FEATURE_SELFOVERLAP>
40.612

> <PUBCHEM_SHAPE_FINGERPRINT>
104564 63 17905600008563088599
11578080 2 17463120250078980248
12035758 1 18263917907788823194
12423570 1 11867124587510617036
12788726 201 17835236749232858499
13140716 1 18337676424639474459
14178342 30 18336540629613025065
14863182 85 18265877194833672369
14943834 7 17838328588894440925
15309172 13 18339370771809879313
15490181 8 18409439272388500623
16945 1 18060430122351811352
20600515 1 16757810989917322923
21041028 32 17692812588428730450
21731228 192 18335430083602277657
22112679 90 17985273967287302688
2334 1 17769379314312540712
23388829 49 17476372599557151240
23419403 2 17544479012286494820
23559900 14 16252225315539718890
25222932 49 16045850797548430307
2748010 2 17621886817347579709
465052 167 17917135195941483929
5845 1 4853727453021495322
7364860 26 17827917648493242179
81228 2 18123494703348491794
84936 31 17245851602869947599
9981440 41 15869472768426833920

> <PUBCHEM_SHAPE_MULTIPOLES>
382
4.69
4.45
1.51
1.68
5.58
-0.02
-3.64
0.28
0.44
-1.34
-0.55
-0.11
-1.83

> <PUBCHEM_SHAPE_SELFOVERLAP>
798.844

> <PUBCHEM_SHAPE_VOLUME>
218.1

> <PUBCHEM_COORDINATE_TYPE>
2
5
10

$$$$

