46173719
  -OEChem-07051212462D

 61 62  0     1  0  0  0  0  0999 V2000
    6.8671    1.6550    0.0000 O   0  0  0  0  0  0  0  0  0  0  0  0
    4.2690    4.1550    0.0000 O   0  0  0  0  0  0  0  0  0  0  0  0
    8.5991   -0.3450    0.0000 O   0  0  0  0  0  0  0  0  0  0  0  0
    2.5369    3.1550    0.0000 O   0  0  0  0  0  0  0  0  0  0  0  0
    7.7331    1.1550    0.0000 O   0  0  0  0  0  0  0  0  0  0  0  0
    5.1350   -4.3450    0.0000 O   0  0  0  0  0  0  0  0  0  0  0  0
    5.1350    1.6550    0.0000 N   0  0  0  0  0  0  0  0  0  0  0  0
    6.8671   -0.3450    0.0000 N   0  0  0  0  0  0  0  0  0  0  0  0
    3.4030    2.6550    0.0000 N   0  0  0  0  0  0  0  0  0  0  0  0
    6.0010    3.1550    0.0000 C   0  0  0  0  0  0  0  0  0  0  0  0
    6.0010    4.1550    0.0000 C   0  0  0  0  0  0  0  0  0  0  0  0
    5.1350    2.6550    0.0000 C   0  0  2  0  0  0  0  0  0  0  0  0
    6.0010    0.1550    0.0000 C   0  0  2  0  0  0  0  0  0  0  0  0
    6.8671    4.6550    0.0000 C   0  0  0  0  0  0  0  0  0  0  0  0
    5.1350    4.6550    0.0000 C   0  0  0  0  0  0  0  0  0  0  0  0
    6.0010    1.1550    0.0000 C   0  0  0  0  0  0  0  0  0  0  0  0
    5.1350   -0.3450    0.0000 C   0  0  0  0  0  0  0  0  0  0  0  0
    4.2690    3.1550    0.0000 C   0  0  0  0  0  0  0  0  0  0  0  0
    5.1350   -1.3450    0.0000 C   0  0  0  0  0  0  0  0  0  0  0  0
    4.2690   -1.8450    0.0000 C   0  0  0  0  0  0  0  0  0  0  0  0
    6.0010   -1.8450    0.0000 C   0  0  0  0  0  0  0  0  0  0  0  0
    7.7331    0.1550    0.0000 C   0  0  0  0  0  0  0  0  0  0  0  0
    4.2690   -2.8450    0.0000 C   0  0  0  0  0  0  0  0  0  0  0  0
    6.0010   -2.8450    0.0000 C   0  0  0  0  0  0  0  0  0  0  0  0
    5.1350   -3.3450    0.0000 C   0  0  0  0  0  0  0  0  0  0  0  0
    9.4651    0.1550    0.0000 C   0  0  0  0  0  0  0  0  0  0  0  0
   10.3312   -0.3450    0.0000 C   0  0  0  0  0  0  0  0  0  0  0  0
   10.3312   -1.3450    0.0000 C   0  0  0  0  0  0  0  0  0  0  0  0
   11.1972    0.1550    0.0000 C   0  0  0  0  0  0  0  0  0  0  0  0
   11.1972   -1.8450    0.0000 C   0  0  0  0  0  0  0  0  0  0  0  0
   12.0632   -0.3450    0.0000 C   0  0  0  0  0  0  0  0  0  0  0  0
   12.0632   -1.3450    0.0000 C   0  0  0  0  0  0  0  0  0  0  0  0
    6.2131    2.5724    0.0000 H   0  0  0  0  0  0  0  0  0  0  0  0
    6.6116    3.2627    0.0000 H   0  0  0  0  0  0  0  0  0  0  0  0
    6.5380    3.8450    0.0000 H   0  0  0  0  0  0  0  0  0  0  0  0
    5.6720    2.3450    0.0000 H   0  0  0  0  0  0  0  0  0  0  0  0
    6.5380    0.4650    0.0000 H   0  0  0  0  0  0  0  0  0  0  0  0
    4.5981    1.3450    0.0000 H   0  0  0  0  0  0  0  0  0  0  0  0
    7.1771    4.1181    0.0000 H   0  0  0  0  0  0  0  0  0  0  0  0
    5.4450    5.1919    0.0000 H   0  0  0  0  0  0  0  0  0  0  0  0
    4.5981    4.9650    0.0000 H   0  0  0  0  0  0  0  0  0  0  0  0
    4.8250    4.1181    0.0000 H   0  0  0  0  0  0  0  0  0  0  0  0
    7.4040    4.9650    0.0000 H   0  0  0  0  0  0  0  0  0  0  0  0
    6.5571    5.1919    0.0000 H   0  0  0  0  0  0  0  0  0  0  0  0
    4.9230    0.2376    0.0000 H   0  0  0  0  0  0  0  0  0  0  0  0
    4.5244   -0.4527    0.0000 H   0  0  0  0  0  0  0  0  0  0  0  0
    6.8671   -0.9650    0.0000 H   0  0  0  0  0  0  0  0  0  0  0  0
    3.4030    2.0350    0.0000 H   0  0  0  0  0  0  0  0  0  0  0  0
    3.7320   -1.5350    0.0000 H   0  0  0  0  0  0  0  0  0  0  0  0
    6.5380   -1.5350    0.0000 H   0  0  0  0  0  0  0  0  0  0  0  0
    3.7320   -3.1550    0.0000 H   0  0  0  0  0  0  0  0  0  0  0  0
    6.5380   -3.1550    0.0000 H   0  0  0  0  0  0  0  0  0  0  0  0
    9.8637    0.6299    0.0000 H   0  0  0  0  0  0  0  0  0  0  0  0
    9.0666    0.6299    0.0000 H   0  0  0  0  0  0  0  0  0  0  0  0
    2.0000    2.8450    0.0000 H   0  0  0  0  0  0  0  0  0  0  0  0
    4.5981   -4.6550    0.0000 H   0  0  0  0  0  0  0  0  0  0  0  0
    9.7942   -1.6550    0.0000 H   0  0  0  0  0  0  0  0  0  0  0  0
   11.1972    0.7750    0.0000 H   0  0  0  0  0  0  0  0  0  0  0  0
   11.1972   -2.4650    0.0000 H   0  0  0  0  0  0  0  0  0  0  0  0
   12.6002   -0.0350    0.0000 H   0  0  0  0  0  0  0  0  0  0  0  0
   12.6002   -1.6550    0.0000 H   0  0  0  0  0  0  0  0  0  0  0  0
  1 16  2  0  0  0  0
  2 18  2  0  0  0  0
  3 22  1  0  0  0  0
  3 26  1  0  0  0  0
  4  9  1  0  0  0  0
  4 55  1  0  0  0  0
  5 22  2  0  0  0  0
  6 25  1  0  0  0  0
  6 56  1  0  0  0  0
 12  7  1  1  0  0  0
  7 16  1  0  0  0  0
  7 38  1  0  0  0  0
 13  8  1  1  0  0  0
  8 22  1  0  0  0  0
  8 47  1  0  0  0  0
  9 18  1  0  0  0  0
  9 48  1  0  0  0  0
 10 11  1  0  0  0  0
 10 12  1  0  0  0  0
 10 33  1  0  0  0  0
 10 34  1  0  0  0  0
 11 14  1  0  0  0  0
 11 15  1  0  0  0  0
 11 35  1  0  0  0  0
 12 18  1  0  0  0  0
 12 36  1  0  0  0  0
 13 16  1  0  0  0  0
 13 17  1  0  0  0  0
 13 37  1  0  0  0  0
 14 39  1  0  0  0  0
 14 43  1  0  0  0  0
 14 44  1  0  0  0  0
 15 40  1  0  0  0  0
 15 41  1  0  0  0  0
 15 42  1  0  0  0  0
 17 19  1  0  0  0  0
 17 45  1  0  0  0  0
 17 46  1  0  0  0  0
 19 20  2  0  0  0  0
 19 21  1  0  0  0  0
 20 23  1  0  0  0  0
 20 49  1  0  0  0  0
 21 24  2  0  0  0  0
 21 50  1  0  0  0  0
 23 25  2  0  0  0  0
 23 51  1  0  0  0  0
 24 25  1  0  0  0  0
 24 52  1  0  0  0  0
 26 27  1  0  0  0  0
 26 53  1  0  0  0  0
 26 54  1  0  0  0  0
 27 28  2  0  0  0  0
 27 29  1  0  0  0  0
 28 30  1  0  0  0  0
 28 57  1  0  0  0  0
 29 31  2  0  0  0  0
 29 58  1  0  0  0  0
 30 32  2  0  0  0  0
 30 59  1  0  0  0  0
 31 32  1  0  0  0  0
 31 60  1  0  0  0  0
 32 61  1  0  0  0  0
M  END
> <PUBCHEM_COMPOUND_CID>
46173719

> <PUBCHEM_COMPOUND_CANONICALIZED>
1

> <PUBCHEM_CACTVS_COMPLEXITY>
601

> <PUBCHEM_CACTVS_HBOND_ACCEPTOR>
6

> <PUBCHEM_CACTVS_HBOND_DONOR>
5

> <PUBCHEM_CACTVS_ROTATABLE_BOND>
11

> <PUBCHEM_CACTVS_SUBSKEYS>
AAADceB7OAAAAAAAAAAAAAAAAAAAAAAAAAAwYAAAAAAAAAABQAAAHgAUCAAADSzhmAYyDoLQBgCIAiFSGAACAAAgIAAoiIGOCIkIZjKCsTuccAAk1hGIuAeYyKCOIAAAAAAAAABAAAAAAAAAAAAAAAAAAA==

> <PUBCHEM_IUPAC_OPENEYE_NAME>
benzyl N-[(1S)-2-[[(1R)-1-(hydroxycarbamoyl)-3-methyl-butyl]amino]-1-[(4-hydroxyphenyl)methyl]-2-oxo-ethyl]carbamate

> <PUBCHEM_IUPAC_CAS_NAME>
N-[(2S)-1-[[(2R)-1-(hydroxyamino)-4-methyl-1-oxopentan-2-yl]amino]-3-(4-hydroxyphenyl)-1-oxopropan-2-yl]carbamic acid (phenylmethyl) ester

> <PUBCHEM_IUPAC_NAME>
benzyl N-[(2S)-1-[[(2R)-1-(hydroxyamino)-4-methyl-1-oxopentan-2-yl]amino]-3-(4-hydroxyphenyl)-1-oxopropan-2-yl]carbamate

> <PUBCHEM_IUPAC_SYSTEMATIC_NAME>
(phenylmethyl) N-[(2S)-3-(4-hydroxyphenyl)-1-[[(2R)-4-methyl-1-(oxidanylamino)-1-oxidanylidene-pentan-2-yl]amino]-1-oxidanylidene-propan-2-yl]carbamate

> <PUBCHEM_IUPAC_TRADITIONAL_NAME>
N-[(1S)-1-(4-hydroxybenzyl)-2-[[(1R)-1-(hydroxycarbamoyl)-3-methyl-butyl]amino]-2-keto-ethyl]carbamic acid benzyl ester

> <PUBCHEM_IUPAC_INCHI>
InChI=1S/C23H29N3O6/c1-15(2)12-19(22(29)26-31)24-21(28)20(13-16-8-10-18(27)11-9-16)25-23(30)32-14-17-6-4-3-5-7-17/h3-11,15,19-20,27,31H,12-14H2,1-2H3,(H,24,28)(H,25,30)(H,26,29)/t19-,20+/m1/s1

> <PUBCHEM_IUPAC_INCHIKEY>
YBHTVSIBHATTHP-UXHICEINSA-N

> <PUBCHEM_XLOGP3>
2

> <PUBCHEM_EXACT_MASS>
443.205636

> <PUBCHEM_MOLECULAR_FORMULA>
C23H29N3O6

> <PUBCHEM_MOLECULAR_WEIGHT>
443.49286

> <PUBCHEM_OPENEYE_CAN_SMILES>
CC(C)CC(C(=O)NO)NC(=O)C(CC1=CC=C(C=C1)O)NC(=O)OCC2=CC=CC=C2

> <PUBCHEM_OPENEYE_ISO_SMILES>
CC(C)C[C@H](C(=O)NO)NC(=O)[C@H](CC1=CC=C(C=C1)O)NC(=O)OCC2=CC=CC=C2

> <PUBCHEM_CACTVS_TPSA>
137

> <PUBCHEM_MONOISOTOPIC_WEIGHT>
443.205636

> <PUBCHEM_TOTAL_CHARGE>
0

> <PUBCHEM_HEAVY_ATOM_COUNT>
32

> <PUBCHEM_ATOM_DEF_STEREO_COUNT>
2

> <PUBCHEM_ATOM_UDEF_STEREO_COUNT>
0

> <PUBCHEM_BOND_DEF_STEREO_COUNT>
0

> <PUBCHEM_BOND_UDEF_STEREO_COUNT>
0

> <PUBCHEM_ISOTOPIC_ATOM_COUNT>
0

> <PUBCHEM_COMPONENT_COUNT>
1

> <PUBCHEM_CACTVS_TAUTO_COUNT>
32

> <PUBCHEM_COORDINATE_TYPE>
1
5
255

> <PUBCHEM_BONDANNOTATIONS>
19  20  8
19  21  8
20  23  8
21  24  8
23  25  8
24  25  8
27  28  8
27  29  8
28  30  8
29  31  8
30  32  8
31  32  8
12  7  5
13  8  5

$$$$

