11157896
  -OEChem-07051213082D

 72 76  0     1  0  0  0  0  0999 V2000
   10.3312   -1.7500    0.0000 O   0  0  0  0  0  0  0  0  0  0  0  0
   11.1972   -0.2500    0.0000 O   0  0  0  0  0  0  0  0  0  0  0  0
   11.1972   -4.2500    0.0000 O   0  0  0  0  0  0  0  0  0  0  0  0
   12.9292   -3.2500    0.0000 O   0  0  0  0  0  0  0  0  0  0  0  0
   12.9292   -1.2500    0.0000 O   0  0  0  0  0  0  0  0  0  0  0  0
    8.5991   -2.7500    0.0000 O   0  0  0  0  0  0  0  0  0  0  0  0
   12.9292    1.7500    0.0000 O   0  3  0  0  0  0  0  0  0  0  0  0
    7.7331   -4.2500    0.0000 O   0  0  0  0  0  0  0  0  0  0  0  0
   14.6776   -1.2846    0.0000 O   0  0  0  0  0  0  0  0  0  0  0  0
   16.4594    1.7742    0.0000 O   0  0  0  0  0  0  0  0  0  0  0  0
    8.5991    1.2500    0.0000 O   0  0  0  0  0  0  0  0  0  0  0  0
   10.3312    4.2500    0.0000 O   0  0  0  0  0  0  0  0  0  0  0  0
    8.5991    3.2500    0.0000 O   0  0  0  0  0  0  0  0  0  0  0  0
    4.2690   -0.2500    0.0000 O   0  0  0  0  0  0  0  0  0  0  0  0
    2.5369   -1.2500    0.0000 O   0  0  0  0  0  0  0  0  0  0  0  0
   11.1972   -3.2500    0.0000 C   0  0  1  0  0  0  0  0  0  0  0  0
   12.0632   -2.7500    0.0000 C   0  0  1  0  0  0  0  0  0  0  0  0
   10.3312   -2.7500    0.0000 C   0  0  1  0  0  0  0  0  0  0  0  0
   12.0632   -1.7500    0.0000 C   0  0  2  0  0  0  0  0  0  0  0  0
   11.1972   -1.2500    0.0000 C   0  0  1  0  0  0  0  0  0  0  0  0
    9.4651   -3.2500    0.0000 C   0  0  0  0  0  0  0  0  0  0  0  0
   12.0632    0.2500    0.0000 C   0  0  0  0  0  0  0  0  0  0  0  0
   12.0632    1.2500    0.0000 C   0  0  0  0  0  0  0  0  0  0  0  0
   12.9292   -0.2500    0.0000 C   0  0  0  0  0  0  0  0  0  0  0  0
   13.7953    0.2500    0.0000 C   0  0  0  0  0  0  0  0  0  0  0  0
    7.7331   -3.2500    0.0000 C   0  0  0  0  0  0  0  0  0  0  0  0
   13.7953    1.2500    0.0000 C   0  0  0  0  0  0  0  0  0  0  0  0
   11.1972    1.7500    0.0000 C   0  0  0  0  0  0  0  0  0  0  0  0
   14.6892   -0.2847    0.0000 C   0  0  0  0  0  0  0  0  0  0  0  0
   14.6892    1.7847    0.0000 C   0  0  0  0  0  0  0  0  0  0  0  0
   11.1972    2.7500    0.0000 C   0  0  0  0  0  0  0  0  0  0  0  0
   10.3312    1.2500    0.0000 C   0  0  0  0  0  0  0  0  0  0  0  0
    6.8671   -2.7500    0.0000 C   0  0  0  0  0  0  0  0  0  0  0  0
   15.5953    0.2292    0.0000 C   0  0  0  0  0  0  0  0  0  0  0  0
   15.5953    1.2708    0.0000 C   0  0  0  0  0  0  0  0  0  0  0  0
    9.4651    1.7500    0.0000 C   0  0  0  0  0  0  0  0  0  0  0  0
   10.3312    3.2500    0.0000 C   0  0  0  0  0  0  0  0  0  0  0  0
    9.4651    2.7500    0.0000 C   0  0  0  0  0  0  0  0  0  0  0  0
    6.0010   -3.2500    0.0000 C   0  0  0  0  0  0  0  0  0  0  0  0
    5.1350   -2.7500    0.0000 C   0  0  0  0  0  0  0  0  0  0  0  0
    5.1350   -1.7500    0.0000 C   0  0  0  0  0  0  0  0  0  0  0  0
    4.2690   -3.2500    0.0000 C   0  0  0  0  0  0  0  0  0  0  0  0
    4.2690   -1.2500    0.0000 C   0  0  0  0  0  0  0  0  0  0  0  0
    3.4030   -2.7500    0.0000 C   0  0  0  0  0  0  0  0  0  0  0  0
    3.4030   -1.7500    0.0000 C   0  0  0  0  0  0  0  0  0  0  0  0
   10.6603   -3.5600    0.0000 H   0  0  0  0  0  0  0  0  0  0  0  0
   12.6002   -2.4400    0.0000 H   0  0  0  0  0  0  0  0  0  0  0  0
    9.7942   -2.4400    0.0000 H   0  0  0  0  0  0  0  0  0  0  0  0
   12.6002   -2.0600    0.0000 H   0  0  0  0  0  0  0  0  0  0  0  0
   10.6603   -0.9400    0.0000 H   0  0  0  0  0  0  0  0  0  0  0  0
    9.0666   -3.7250    0.0000 H   0  0  0  0  0  0  0  0  0  0  0  0
    9.8637   -3.7250    0.0000 H   0  0  0  0  0  0  0  0  0  0  0  0
   10.6603   -4.5600    0.0000 H   0  0  0  0  0  0  0  0  0  0  0  0
   12.9292   -3.8700    0.0000 H   0  0  0  0  0  0  0  0  0  0  0  0
   13.4662   -1.5600    0.0000 H   0  0  0  0  0  0  0  0  0  0  0  0
   12.9292   -0.8700    0.0000 H   0  0  0  0  0  0  0  0  0  0  0  0
   14.6820    2.4046    0.0000 H   0  0  0  0  0  0  0  0  0  0  0  0
   11.7341    3.0600    0.0000 H   0  0  0  0  0  0  0  0  0  0  0  0
   10.3312    0.6300    0.0000 H   0  0  0  0  0  0  0  0  0  0  0  0
    6.8671   -2.1300    0.0000 H   0  0  0  0  0  0  0  0  0  0  0  0
   16.1310   -0.0829    0.0000 H   0  0  0  0  0  0  0  0  0  0  0  0
    6.0010   -3.8700    0.0000 H   0  0  0  0  0  0  0  0  0  0  0  0
   15.2110   -1.6008    0.0000 H   0  0  0  0  0  0  0  0  0  0  0  0
   16.9975    1.4662    0.0000 H   0  0  0  0  0  0  0  0  0  0  0  0
    8.0622    1.5600    0.0000 H   0  0  0  0  0  0  0  0  0  0  0  0
   10.8681    4.5600    0.0000 H   0  0  0  0  0  0  0  0  0  0  0  0
    8.5991    3.8700    0.0000 H   0  0  0  0  0  0  0  0  0  0  0  0
    5.6720   -1.4400    0.0000 H   0  0  0  0  0  0  0  0  0  0  0  0
    4.2690   -3.8700    0.0000 H   0  0  0  0  0  0  0  0  0  0  0  0
    2.8660   -3.0600    0.0000 H   0  0  0  0  0  0  0  0  0  0  0  0
    3.7320    0.0600    0.0000 H   0  0  0  0  0  0  0  0  0  0  0  0
    2.0000   -1.5600    0.0000 H   0  0  0  0  0  0  0  0  0  0  0  0
  1 18  1  0  0  0  0
  1 20  1  0  0  0  0
 20  2  1  1  0  0  0
  2 22  1  0  0  0  0
 16  3  1  6  0  0  0
  3 53  1  0  0  0  0
 17  4  1  1  0  0  0
  4 54  1  0  0  0  0
 19  5  1  6  0  0  0
  5 55  1  0  0  0  0
  6 21  1  0  0  0  0
  6 26  1  0  0  0  0
  7 23  2  0  0  0  0
  7 27  1  0  0  0  0
  8 26  2  0  0  0  0
  9 29  1  0  0  0  0
  9 63  1  0  0  0  0
 10 35  1  0  0  0  0
 10 64  1  0  0  0  0
 11 36  1  0  0  0  0
 11 65  1  0  0  0  0
 12 37  1  0  0  0  0
 12 66  1  0  0  0  0
 13 38  1  0  0  0  0
 13 67  1  0  0  0  0
 14 43  1  0  0  0  0
 14 71  1  0  0  0  0
 15 45  1  0  0  0  0
 15 72  1  0  0  0  0
 16 17  1  0  0  0  0
 16 18  1  0  0  0  0
 16 46  1  0  0  0  0
 17 19  1  0  0  0  0
 17 47  1  0  0  0  0
 18 21  1  1  0  0  0
 18 48  1  0  0  0  0
 19 20  1  0  0  0  0
 19 49  1  0  0  0  0
 20 50  1  0  0  0  0
 21 51  1  0  0  0  0
 21 52  1  0  0  0  0
 22 23  1  0  0  0  0
 22 24  2  0  0  0  0
 23 28  1  0  0  0  0
 24 25  1  0  0  0  0
 24 56  1  0  0  0  0
 25 27  1  0  0  0  0
 25 29  2  0  0  0  0
 26 33  1  0  0  0  0
 27 30  2  0  0  0  0
 28 31  2  0  0  0  0
 28 32  1  0  0  0  0
 29 34  1  0  0  0  0
 30 35  1  0  0  0  0
 30 57  1  0  0  0  0
 31 37  1  0  0  0  0
 31 58  1  0  0  0  0
 32 36  2  0  0  0  0
 32 59  1  0  0  0  0
 33 39  2  0  0  0  0
 33 60  1  0  0  0  0
 34 35  2  0  0  0  0
 34 61  1  0  0  0  0
 36 38  1  0  0  0  0
 37 38  2  0  0  0  0
 39 40  1  0  0  0  0
 39 62  1  0  0  0  0
 40 41  2  0  0  0  0
 40 42  1  0  0  0  0
 41 43  1  0  0  0  0
 41 68  1  0  0  0  0
 42 44  2  0  0  0  0
 42 69  1  0  0  0  0
 43 45  2  0  0  0  0
 44 45  1  0  0  0  0
 44 70  1  0  0  0  0
M  CHG  1   7   1
M  END
> <PUBCHEM_COMPOUND_CID>
11157896

> <PUBCHEM_COMPOUND_CANONICALIZED>
1

> <PUBCHEM_CACTVS_COMPLEXITY>
1000

> <PUBCHEM_CACTVS_HBOND_ACCEPTOR>
14

> <PUBCHEM_CACTVS_HBOND_DONOR>
10

> <PUBCHEM_CACTVS_ROTATABLE_BOND>
8

> <PUBCHEM_CACTVS_SUBSKEYS>
AAADceB4PAAAAAAAAAAAAAAAAAAAAAAAAAA0aMECAAAAAACR9AAAGgAACAAADBSwmAMwDsAABkCIAqDSCAICCAAkIAAIiAFGiMgdNzaGNR6ieWOl4BUPuYfK7PzOIAABCAAIQABAAAIQABCAAAAAAAAAAA==

> <PUBCHEM_IUPAC_OPENEYE_NAME>
[(2R,3S,4S,5R,6S)-6-[5,7-dihydroxy-2-(3,4,5-trihydroxyphenyl)chromenylium-3-yl]oxy-3,4,5-trihydroxy-tetrahydropyran-2-yl]methyl (E)-3-(3,4-dihydroxyphenyl)prop-2-enoate

> <PUBCHEM_IUPAC_CAS_NAME>
(E)-3-(3,4-dihydroxyphenyl)-2-propenoic acid [(2R,3S,4S,5R,6S)-6-[[5,7-dihydroxy-2-(3,4,5-trihydroxyphenyl)-1-benzopyrylium-3-yl]oxy]-3,4,5-trihydroxy-2-oxanyl]methyl ester

> <PUBCHEM_IUPAC_NAME>
[(2R,3S,4S,5R,6S)-6-[5,7-dihydroxy-2-(3,4,5-trihydroxyphenyl)chromenylium-3-yl]oxy-3,4,5-trihydroxyoxan-2-yl]methyl (E)-3-(3,4-dihydroxyphenyl)prop-2-enoate

> <PUBCHEM_IUPAC_SYSTEMATIC_NAME>
[(2R,3S,4S,5R,6S)-6-[5,7-bis(oxidanyl)-2-[3,4,5-tris(oxidanyl)phenyl]chromenylium-3-yl]oxy-3,4,5-tris(oxidanyl)oxan-2-yl]methyl (E)-3-[3,4-bis(oxidanyl)phenyl]prop-2-enoate

> <PUBCHEM_IUPAC_TRADITIONAL_NAME>
(E)-3-(3,4-dihydroxyphenyl)acrylic acid [(2R,3S,4S,5R,6S)-6-[[5,7-dihydroxy-2-(3,4,5-trihydroxyphenyl)-1-benzopyrylium-3-yl]oxy]-3,4,5-trihydroxy-tetrahydropyran-2-yl]methyl ester

> <PUBCHEM_IUPAC_INCHI>
InChI=1S/C30H26O15/c31-14-8-17(33)15-10-22(29(43-21(15)9-14)13-6-19(35)25(38)20(36)7-13)44-30-28(41)27(40)26(39)23(45-30)11-42-24(37)4-2-12-1-3-16(32)18(34)5-12/h1-10,23,26-28,30,39-41H,11H2,(H6-,31,32,33,34,35,36,37,38)/p+1/t23-,26-,27+,28-,30-/m1/s1

> <PUBCHEM_IUPAC_INCHIKEY>
CPESTIBYQUOXSA-LHRGPQAGSA-O

> <PUBCHEM_EXACT_MASS>
627.134995

> <PUBCHEM_MOLECULAR_FORMULA>
C30H27O15+

> <PUBCHEM_MOLECULAR_WEIGHT>
627.52638

> <PUBCHEM_OPENEYE_CAN_SMILES>
C1=CC(=C(C=C1C=CC(=O)OCC2C(C(C(C(O2)OC3=C([O+]=C4C=C(C=C(C4=C3)O)O)C5=CC(=C(C(=C5)O)O)O)O)O)O)O)O

> <PUBCHEM_OPENEYE_ISO_SMILES>
C1=CC(=C(C=C1/C=C/C(=O)OC[C@@H]2[C@H]([C@@H]([C@H]([C@@H](O2)OC3=C([O+]=C4C=C(C=C(C4=C3)O)O)C5=CC(=C(C(=C5)O)O)O)O)O)O)O)O

> <PUBCHEM_CACTVS_TPSA>
248

> <PUBCHEM_MONOISOTOPIC_WEIGHT>
627.134995

> <PUBCHEM_TOTAL_CHARGE>
1

> <PUBCHEM_HEAVY_ATOM_COUNT>
45

> <PUBCHEM_ATOM_DEF_STEREO_COUNT>
5

> <PUBCHEM_ATOM_UDEF_STEREO_COUNT>
0

> <PUBCHEM_BOND_DEF_STEREO_COUNT>
1

> <PUBCHEM_BOND_UDEF_STEREO_COUNT>
0

> <PUBCHEM_ISOTOPIC_ATOM_COUNT>
0

> <PUBCHEM_COMPONENT_COUNT>
1

> <PUBCHEM_CACTVS_TAUTO_COUNT>
996

> <PUBCHEM_COORDINATE_TYPE>
1
5
255

> <PUBCHEM_BONDANNOTATIONS>
18  21  5
20  2  5
22  23  8
22  24  8
24  25  8
25  27  8
25  29  8
27  30  8
28  31  8
28  32  8
29  34  8
16  3  6
30  35  8
31  37  8
32  36  8
34  35  8
36  38  8
37  38  8
17  4  5
40  41  8
40  42  8
41  43  8
42  44  8
43  45  8
44  45  8
19  5  6
7  23  8
7  27  8

$$$$

