439959
  -OEChem-07051212483D

 58 60  0     0  0  0  0  0  0999 V2000
    3.4791    1.4699    0.2517 O   0  0  0  0  0  0  0  0  0  0  0  0
    2.9354   -0.8050    0.3650 O   0  0  0  0  0  0  0  0  0  0  0  0
   -5.0966    0.4264   -0.1037 O   0  0  0  0  0  0  0  0  0  0  0  0
   -4.9028    2.7187   -0.2788 O   0  0  0  0  0  0  0  0  0  0  0  0
    9.7025   -2.0652   -1.3764 N   0  0  0  0  0  0  0  0  0  0  0  0
    7.6312   -1.7320   -0.0988 C   0  0  0  0  0  0  0  0  0  0  0  0
    5.2315   -0.0807    0.4406 C   0  0  0  0  0  0  0  0  0  0  0  0
    7.0460   -1.6062    1.3142 C   0  0  0  0  0  0  0  0  0  0  0  0
    7.3118   -0.4857   -0.9355 C   0  0  0  0  0  0  0  0  0  0  0  0
    5.5465   -1.3192    1.2795 C   0  0  0  0  0  0  0  0  0  0  0  0
    5.8124   -0.1975   -0.9688 C   0  0  0  0  0  0  0  0  0  0  0  0
    9.1392   -1.9691   -0.0388 C   0  0  0  0  0  0  0  0  0  0  0  0
    3.7485    0.1095    0.3499 C   0  0  0  0  0  0  0  0  0  0  0  0
    2.1126    1.7453    0.1620 C   0  0  0  0  0  0  0  0  0  0  0  0
    1.3665    1.9571    1.3214 C   0  0  0  0  0  0  0  0  0  0  0  0
    1.4941    1.8080   -1.0867 C   0  0  0  0  0  0  0  0  0  0  0  0
   -0.6167    2.2944   -0.0167 C   0  0  0  0  0  0  0  0  0  0  0  0
    0.0019    2.2316    1.2320 C   0  0  0  0  0  0  0  0  0  0  0  0
    0.1295    2.0825   -1.1760 C   0  0  0  0  0  0  0  0  0  0  0  0
   -2.0756    2.5876   -0.1129 C   0  0  0  0  0  0  0  0  0  0  0  0
   -2.9282    1.3127   -0.0793 C   0  0  0  0  0  0  0  0  0  0  0  0
   -4.4088    1.6051   -0.1674 C   0  0  0  0  0  0  0  0  0  0  0  0
   -6.5215    0.5397   -0.1764 C   0  0  0  0  0  0  0  0  0  0  0  0
   -7.1268   -0.8307   -0.0936 C   0  0  0  0  0  0  0  0  0  0  0  0
   -7.3546   -1.5641   -1.2580 C   0  0  0  0  0  0  0  0  0  0  0  0
   -7.4618   -1.3714    1.1478 C   0  0  0  0  0  0  0  0  0  0  0  0
   -7.9177   -2.8380   -1.1812 C   0  0  0  0  0  0  0  0  0  0  0  0
   -8.0247   -2.6452    1.2248 C   0  0  0  0  0  0  0  0  0  0  0  0
   -8.2528   -3.3786    0.0603 C   0  0  0  0  0  0  0  0  0  0  0  0
    7.1606   -2.5989   -0.5844 H   0  0  0  0  0  0  0  0  0  0  0  0
    5.6664    0.7893    0.9506 H   0  0  0  0  0  0  0  0  0  0  0  0
    7.2238   -2.5310    1.8760 H   0  0  0  0  0  0  0  0  0  0  0  0
    7.5542   -0.8008    1.8597 H   0  0  0  0  0  0  0  0  0  0  0  0
    7.8362    0.3863   -0.5237 H   0  0  0  0  0  0  0  0  0  0  0  0
    7.6557   -0.6059   -1.9692 H   0  0  0  0  0  0  0  0  0  0  0  0
    5.0288   -2.1995    0.8762 H   0  0  0  0  0  0  0  0  0  0  0  0
    5.1751   -1.1845    2.3028 H   0  0  0  0  0  0  0  0  0  0  0  0
    5.6319    0.7287   -1.5282 H   0  0  0  0  0  0  0  0  0  0  0  0
    5.3005   -0.9956   -1.5229 H   0  0  0  0  0  0  0  0  0  0  0  0
    9.6345   -1.1503    0.4953 H   0  0  0  0  0  0  0  0  0  0  0  0
    9.3523   -2.8930    0.5108 H   0  0  0  0  0  0  0  0  0  0  0  0
    9.2751   -2.8444   -1.8753 H   0  0  0  0  0  0  0  0  0  0  0  0
   10.6970   -2.2784   -1.3116 H   0  0  0  0  0  0  0  0  0  0  0  0
    1.8429    1.9093    2.2967 H   0  0  0  0  0  0  0  0  0  0  0  0
    2.0704    1.6437   -1.9931 H   0  0  0  0  0  0  0  0  0  0  0  0
   -0.5688    2.3929    2.1427 H   0  0  0  0  0  0  0  0  0  0  0  0
   -0.3410    2.1267   -2.1547 H   0  0  0  0  0  0  0  0  0  0  0  0
   -2.3748    3.2578    0.7041 H   0  0  0  0  0  0  0  0  0  0  0  0
   -2.2823    3.1503   -1.0330 H   0  0  0  0  0  0  0  0  0  0  0  0
   -2.7445    0.7683    0.8547 H   0  0  0  0  0  0  0  0  0  0  0  0
   -2.6597    0.6627   -0.9205 H   0  0  0  0  0  0  0  0  0  0  0  0
   -6.8860    1.1648    0.6483 H   0  0  0  0  0  0  0  0  0  0  0  0
   -6.8071    1.0232   -1.1191 H   0  0  0  0  0  0  0  0  0  0  0  0
   -7.0959   -1.1546   -2.2309 H   0  0  0  0  0  0  0  0  0  0  0  0
   -7.2872   -0.8106    2.0622 H   0  0  0  0  0  0  0  0  0  0  0  0
   -8.0947   -3.4093   -2.0878 H   0  0  0  0  0  0  0  0  0  0  0  0
   -8.2852   -3.0665    2.1915 H   0  0  0  0  0  0  0  0  0  0  0  0
   -8.6908   -4.3706    0.1203 H   0  0  0  0  0  0  0  0  0  0  0  0
  1 13  1  0  0  0  0
  1 14  1  0  0  0  0
  2 13  2  0  0  0  0
  3 22  1  0  0  0  0
  3 23  1  0  0  0  0
  4 22  2  0  0  0  0
  5 12  1  0  0  0  0
  5 42  1  0  0  0  0
  5 43  1  0  0  0  0
  6  8  1  0  0  0  0
  6  9  1  0  0  0  0
  6 12  1  0  0  0  0
  6 30  1  0  0  0  0
  7 10  1  0  0  0  0
  7 11  1  0  0  0  0
  7 13  1  0  0  0  0
  7 31  1  0  0  0  0
  8 10  1  0  0  0  0
  8 32  1  0  0  0  0
  8 33  1  0  0  0  0
  9 11  1  0  0  0  0
  9 34  1  0  0  0  0
  9 35  1  0  0  0  0
 10 36  1  0  0  0  0
 10 37  1  0  0  0  0
 11 38  1  0  0  0  0
 11 39  1  0  0  0  0
 12 40  1  0  0  0  0
 12 41  1  0  0  0  0
 14 15  2  0  0  0  0
 14 16  1  0  0  0  0
 15 18  1  0  0  0  0
 15 44  1  0  0  0  0
 16 19  2  0  0  0  0
 16 45  1  0  0  0  0
 17 18  2  0  0  0  0
 17 19  1  0  0  0  0
 17 20  1  0  0  0  0
 18 46  1  0  0  0  0
 19 47  1  0  0  0  0
 20 21  1  0  0  0  0
 20 48  1  0  0  0  0
 20 49  1  0  0  0  0
 21 22  1  0  0  0  0
 21 50  1  0  0  0  0
 21 51  1  0  0  0  0
 23 24  1  0  0  0  0
 23 52  1  0  0  0  0
 23 53  1  0  0  0  0
 24 25  2  0  0  0  0
 24 26  1  0  0  0  0
 25 27  1  0  0  0  0
 25 54  1  0  0  0  0
 26 28  2  0  0  0  0
 26 55  1  0  0  0  0
 27 29  2  0  0  0  0
 27 56  1  0  0  0  0
 28 29  1  0  0  0  0
 28 57  1  0  0  0  0
 29 58  1  0  0  0  0
M  END
> <PUBCHEM_COMPOUND_CID>
439959

> <PUBCHEM_CONFORMER_RMSD>
1

> <PUBCHEM_CONFORMER_DIVERSEORDER>
1
144
83
29
114
6
84
133
124
110
77
92
9
143
59
33
113
66
53
36
99
136
148
4
85
44
42
19
64
78
103
76
22
119
105
108
104
145
140
147
130
31
149
45
74
115
13
15
122
129
69
116
37
98
138
57
40
126
8
24
112
41
71
16
131
47
5
17
88
54
90
102
82
34
146
120
32
70
135
118
87
75
73
142
121
7
58
106
48
51
109
62
80
65
11
68
139
63
52
26
72
2
20
27
28
39
101
127
3
14
97
10
12
89
111
117
107
60
93
21
49
67
50
23
38
125
94
43
96
30
123
141
46
25
128
137
95
132
81
18
61
100
86
35
56
134
79
91
55

> <PUBCHEM_MMFF94_PARTIAL_CHARGES>
35
1 -0.23
12 0.27
13 0.66
14 0.08
15 -0.15
16 -0.15
17 -0.14
18 -0.15
19 -0.15
2 -0.57
20 0.14
21 0.06
22 0.66
23 0.42
24 -0.14
25 -0.15
26 -0.15
27 -0.15
28 -0.15
29 -0.15
3 -0.43
4 -0.57
42 0.36
43 0.36
44 0.15
45 0.15
46 0.15
47 0.15
5 -0.99
54 0.15
55 0.15
56 0.15
57 0.15
58 0.15
7 0.06

> <PUBCHEM_EFFECTIVE_ROTOR_COUNT>
11.2

> <PUBCHEM_PHARMACOPHORE_FEATURES>
7
1 2 acceptor
1 4 acceptor
1 5 cation
1 5 donor
6 14 15 16 17 18 19 rings
6 24 25 26 27 28 29 rings
6 6 7 8 9 10 11 rings

> <PUBCHEM_HEAVY_ATOM_COUNT>
29

> <PUBCHEM_ATOM_DEF_STEREO_COUNT>
0

> <PUBCHEM_ATOM_UDEF_STEREO_COUNT>
0

> <PUBCHEM_BOND_DEF_STEREO_COUNT>
0

> <PUBCHEM_BOND_UDEF_STEREO_COUNT>
0

> <PUBCHEM_ISOTOPIC_ATOM_COUNT>
0

> <PUBCHEM_COMPONENT_COUNT>
1

> <PUBCHEM_CACTVS_TAUTO_COUNT>
1

> <PUBCHEM_CONFORMER_ID>
0006B69700000001

> <PUBCHEM_MMFF94_ENERGY>
60.5894

> <PUBCHEM_FEATURE_SELFOVERLAP>
35.52

> <PUBCHEM_SHAPE_FINGERPRINT>
10162869 55 17561080307686651356
10280341 67 9727632774021275111
10554248 39 12319199307899845497
10669705 251 18187361042970699806
10740516 88 18334564776679049638
10883706 17 18272927194028255290
11135609 99 18334859389743615911
11181472 205 8286197263409155170
11386260 185 16200144353577359668
11475781 23 10375870818307263120
11497681 19 18270963556987909038
117089 54 18343297038429775211
11963148 33 18341058531123529010
13512321 179 5689302569276702530
1361 4 18270403935286430970
13782708 43 18335707109636869841
14178184 131 18115030706336769367
14202775 3 18189331442193950054
14671636 106 18410856564594133380
14931854 50 17275110518171302443
15455199 99 18122343471847460991
15510800 12 18334849537199882742
15803439 3 14908183041092187865
16067689 68 17895463788010392331
16991971 28 18343021081699659564
16994733 274 8646768893801463941
1768 4 10159703538863879895
1818759 1 18335135410470725310
19303781 99 18338526244570438775
2026 5 18412544340075069130
20721686 146 10159702395178947106
20982279 24 16951395693883524390
21585481 151 18333730230373469723
21772523 7 14691997000509397774
21781055 127 5833989491173280976
21867018 265 17346882264898030487
23569917 315 18191581060153803126
23576562 1 14691991511229358199
23729417 116 18200595911953771284
24983565 74 17976550416917676811
25242607 90 18334021566231069363
2747138 104 17822296816171767576
2748736 6 9150904854273573201
2835820 83 18339360765575809811
2838139 119 9727048967738007648
2851757 41 18410852132252096971
306946 40 13542453238983759510
3383291 50 18260551108684918087
3525247 18 7923149467321748307
3711267 37 8790596044275535078
393628 194 9151172061274559763
406291 66 18410858729263295583
4169191 19 8935009166270124731
4173938 188 18410300225170615418
44802255 64 13183014125745814801
45377200 153 18260828215996549390
54039377 194 18409728456530885919
5718773 13 18410578362424875721
5937810 71 12319464320577685831
6201320 82 10087360096444600375
6289498 60 6627754391988917963
636775 8 18335697282682579324
6691757 9 15140973850501188925
999808 66 18261114071765230405

> <PUBCHEM_SHAPE_MULTIPOLES>
568.35
33.64
3.84
1.28
1.22
0.43
-0.05
42.56
3.57
-5.13
0.03
0.33
0.31
0.37

> <PUBCHEM_SHAPE_SELFOVERLAP>
1191.812

> <PUBCHEM_SHAPE_VOLUME>
317.1

> <PUBCHEM_COORDINATE_TYPE>
2
5
10

$$$$

