150841
  -OEChem-07051212502D

 14 14  0     0  0  0  0  0  0999 V2000
    6.2633    0.1717    0.0000 O   0  0  0  0  0  0  0  0  0  0  0  0
    2.8090   -0.4672    0.0000 N   0  0  0  0  0  0  0  0  0  0  0  0
    2.3090    1.0717    0.0000 N   0  0  0  0  0  0  0  0  0  0  0  0
    3.6180    0.1206    0.0000 C   0  0  0  0  0  0  0  0  0  0  0  0
    4.5691   -0.1884    0.0000 C   0  0  0  0  0  0  0  0  0  0  0  0
    3.3090    1.0717    0.0000 C   0  0  0  0  0  0  0  0  0  0  0  0
    2.0000    0.1206    0.0000 C   0  0  0  0  0  0  0  0  0  0  0  0
    5.3122    0.4807    0.0000 C   0  0  0  0  0  0  0  0  0  0  0  0
    4.2780   -0.7358    0.0000 H   0  0  0  0  0  0  0  0  0  0  0  0
    5.0577   -0.5701    0.0000 H   0  0  0  0  0  0  0  0  0  0  0  0
    2.8090   -1.0872    0.0000 H   0  0  0  0  0  0  0  0  0  0  0  0
    3.6734    1.5733    0.0000 H   0  0  0  0  0  0  0  0  0  0  0  0
    1.4103   -0.0710    0.0000 H   0  0  0  0  0  0  0  0  0  0  0  0
    5.1833    1.0872    0.0000 H   0  0  0  0  0  0  0  0  0  0  0  0
  1  8  2  0  0  0  0
  2  4  1  0  0  0  0
  2  7  1  0  0  0  0
  2 11  1  0  0  0  0
  3  6  1  0  0  0  0
  3  7  2  0  0  0  0
  4  5  1  0  0  0  0
  4  6  2  0  0  0  0
  5  8  1  0  0  0  0
  5  9  1  0  0  0  0
  5 10  1  0  0  0  0
  6 12  1  0  0  0  0
  7 13  1  0  0  0  0
  8 14  1  0  0  0  0
M  END
> <PUBCHEM_COMPOUND_CID>
150841

> <PUBCHEM_COMPOUND_CANONICALIZED>
1

> <PUBCHEM_CACTVS_COMPLEXITY>
84.5

> <PUBCHEM_CACTVS_HBOND_ACCEPTOR>
2

> <PUBCHEM_CACTVS_HBOND_DONOR>
1

> <PUBCHEM_CACTVS_ROTATABLE_BOND>
2

> <PUBCHEM_CACTVS_SUBSKEYS>
AAADcYBjIAAAAAAAAAAAAAAAAAAAAWAAAAAAAAAAAAAAAAABgAAAHgAQAAAACAjhlgYtkBbJkACoARx35AAAgC2xEqABUYE4cAiAaBhAjQAUAAAIEAJAQCAEAAAAAAAAAAAAAAAAAAAAAAAAAAAAAAAAAA==

> <PUBCHEM_IUPAC_OPENEYE_NAME>
2-(1H-imidazol-5-yl)acetaldehyde

> <PUBCHEM_IUPAC_CAS_NAME>
2-(1H-imidazol-5-yl)acetaldehyde

> <PUBCHEM_IUPAC_NAME>
2-(1H-imidazol-5-yl)acetaldehyde

> <PUBCHEM_IUPAC_SYSTEMATIC_NAME>
2-(1H-imidazol-5-yl)ethanal

> <PUBCHEM_IUPAC_TRADITIONAL_NAME>
2-(1H-imidazol-5-yl)acetaldehyde

> <PUBCHEM_IUPAC_INCHI>
InChI=1S/C5H6N2O/c8-2-1-5-3-6-4-7-5/h2-4H,1H2,(H,6,7)

> <PUBCHEM_IUPAC_INCHIKEY>
MQSRGWNVEZRLDK-UHFFFAOYSA-N

> <PUBCHEM_XLOGP3_AA>
-0.5

> <PUBCHEM_EXACT_MASS>
110.048013

> <PUBCHEM_MOLECULAR_FORMULA>
C5H6N2O

> <PUBCHEM_MOLECULAR_WEIGHT>
110.11394

> <PUBCHEM_OPENEYE_CAN_SMILES>
C1=C(NC=N1)CC=O

> <PUBCHEM_OPENEYE_ISO_SMILES>
C1=C(NC=N1)CC=O

> <PUBCHEM_CACTVS_TPSA>
45.8

> <PUBCHEM_MONOISOTOPIC_WEIGHT>
110.048013

> <PUBCHEM_TOTAL_CHARGE>
0

> <PUBCHEM_HEAVY_ATOM_COUNT>
8

> <PUBCHEM_ATOM_DEF_STEREO_COUNT>
0

> <PUBCHEM_ATOM_UDEF_STEREO_COUNT>
0

> <PUBCHEM_BOND_DEF_STEREO_COUNT>
0

> <PUBCHEM_BOND_UDEF_STEREO_COUNT>
0

> <PUBCHEM_ISOTOPIC_ATOM_COUNT>
0

> <PUBCHEM_COMPONENT_COUNT>
1

> <PUBCHEM_CACTVS_TAUTO_COUNT>
4

> <PUBCHEM_COORDINATE_TYPE>
1
5
255

> <PUBCHEM_BONDANNOTATIONS>
2  4  8
2  7  8
3  6  8
3  7  8
4  6  8

$$$$

