6323195
  -OEChem-07051213083D

 70 76  0     1  0  0  0  0  0999 V2000
   -0.5169    2.5936   -0.5160 P   0  0  2  0  0  0  0  0  0  0  0  0
    0.5174   -2.5944   -0.5160 P   0  0  2  0  0  0  0  0  0  0  0  0
   -3.7899   -0.3306   -1.6752 O   0  0  0  0  0  0  0  0  0  0  0  0
    3.7901    0.3298   -1.6756 O   0  0  0  0  0  0  0  0  0  0  0  0
   -2.0006    1.9343   -0.5160 O   0  0  0  0  0  0  0  0  0  0  0  0
    2.0010   -1.9348   -0.5162 O   0  0  0  0  0  0  0  0  0  0  0  0
    0.3702    1.5350   -1.3523 O   0  0  0  0  0  0  0  0  0  0  0  0
   -0.3703   -1.5362   -1.3521 O   0  0  0  0  0  0  0  0  0  0  0  0
   -3.7153    1.3663    1.4981 O   0  0  0  0  0  0  0  0  0  0  0  0
    3.7151   -1.3657    1.4985 O   0  0  0  0  0  0  0  0  0  0  0  0
   -0.0278    2.4125    1.0169 O   0  0  0  0  0  0  0  0  0  0  0  0
    0.0286   -2.4138    1.0171 O   0  0  0  0  0  0  0  0  0  0  0  0
   -0.4730    4.0068   -1.0201 O   0  0  0  0  0  0  0  0  0  0  0  0
    0.4739   -4.0076   -1.0202 O   0  0  0  0  0  0  0  0  0  0  0  0
   -9.8213   -1.7780    0.9681 O   0  0  0  0  0  0  0  0  0  0  0  0
    9.8209    1.7791    0.9675 O   0  0  0  0  0  0  0  0  0  0  0  0
   -5.6795   -0.4438   -0.2611 N   0  0  0  0  0  0  0  0  0  0  0  0
    5.6793    0.4439   -0.2613 N   0  0  0  0  0  0  0  0  0  0  0  0
   -7.2002    1.2890    0.5148 N   0  0  0  0  0  0  0  0  0  0  0  0
    7.2001   -1.2884    0.5155 N   0  0  0  0  0  0  0  0  0  0  0  0
   -7.0785   -2.1856   -0.0342 N   0  0  0  0  0  0  0  0  0  0  0  0
    7.0782    2.1860   -0.0350 N   0  0  0  0  0  0  0  0  0  0  0  0
   -9.3748    0.4893    1.1460 N   0  0  0  0  0  0  0  0  0  0  0  0
    9.3746   -0.4882    1.1465 N   0  0  0  0  0  0  0  0  0  0  0  0
   -8.7994    2.7710    1.2822 N   0  0  0  0  0  0  0  0  0  0  0  0
    8.7994   -2.7699    1.2836 N   0  0  0  0  0  0  0  0  0  0  0  0
   -2.1504    0.5531   -0.1747 C   0  0  2  0  0  0  0  0  0  0  0  0
    2.1505   -0.5535   -0.1752 C   0  0  2  0  0  0  0  0  0  0  0  0
   -2.3668   -0.2425   -1.4651 C   0  0  1  0  0  0  0  0  0  0  0  0
    2.3669    0.2415   -1.4659 C   0  0  1  0  0  0  0  0  0  0  0  0
   -3.4537    0.3364    0.5670 C   0  0  2  0  0  0  0  0  0  0  0  0
    3.4534   -0.3363    0.5668 C   0  0  2  0  0  0  0  0  0  0  0  0
   -4.4608    0.2997   -0.5707 C   0  0  1  0  0  0  0  0  0  0  0  0
    4.4609   -0.2998   -0.5706 C   0  0  1  0  0  0  0  0  0  0  0  0
    1.7833    1.6490   -1.4000 C   0  0  0  0  0  0  0  0  0  0  0  0
   -1.7835   -1.6501   -1.3989 C   0  0  0  0  0  0  0  0  0  0  0  0
   -6.8538    0.0350    0.2131 C   0  0  0  0  0  0  0  0  0  0  0  0
    6.8536   -0.0346    0.2131 C   0  0  0  0  0  0  0  0  0  0  0  0
   -5.8658   -1.8022   -0.3960 C   0  0  0  0  0  0  0  0  0  0  0  0
    5.8655    1.8023   -0.3968 C   0  0  0  0  0  0  0  0  0  0  0  0
   -7.6973   -1.0288    0.3479 C   0  0  0  0  0  0  0  0  0  0  0  0
    7.6970    1.0293    0.3476 C   0  0  0  0  0  0  0  0  0  0  0  0
   -9.0471   -0.8374    0.8399 C   0  0  0  0  0  0  0  0  0  0  0  0
    9.0468    0.8383    0.8398 C   0  0  0  0  0  0  0  0  0  0  0  0
   -8.4993    1.4651    0.9871 C   0  0  0  0  0  0  0  0  0  0  0  0
    8.4992   -1.4642    0.9880 C   0  0  0  0  0  0  0  0  0  0  0  0
   -1.2878    0.2293    0.4144 H   0  0  0  0  0  0  0  0  0  0  0  0
    1.2876   -0.2298    0.4135 H   0  0  0  0  0  0  0  0  0  0  0  0
   -1.9388    0.2865   -2.3247 H   0  0  0  0  0  0  0  0  0  0  0  0
    1.9392   -0.2878   -2.3254 H   0  0  0  0  0  0  0  0  0  0  0  0
   -3.4306   -0.6238    1.0970 H   0  0  0  0  0  0  0  0  0  0  0  0
    3.4301    0.6241    1.0964 H   0  0  0  0  0  0  0  0  0  0  0  0
   -4.7660    1.3043   -0.8874 H   0  0  0  0  0  0  0  0  0  0  0  0
    4.7661   -1.3044   -0.8869 H   0  0  0  0  0  0  0  0  0  0  0  0
    2.1638    2.1972   -0.5310 H   0  0  0  0  0  0  0  0  0  0  0  0
    2.0604    2.2226   -2.2906 H   0  0  0  0  0  0  0  0  0  0  0  0
   -2.1658   -2.1985   -0.5314 H   0  0  0  0  0  0  0  0  0  0  0  0
   -2.0605   -2.2230   -2.2899 H   0  0  0  0  0  0  0  0  0  0  0  0
   -2.9680    1.3947    2.1196 H   0  0  0  0  0  0  0  0  0  0  0  0
    2.9684   -1.3926    2.1208 H   0  0  0  0  0  0  0  0  0  0  0  0
   -5.0860   -2.4607   -0.7544 H   0  0  0  0  0  0  0  0  0  0  0  0
    5.0856    2.4606   -0.7555 H   0  0  0  0  0  0  0  0  0  0  0  0
   -6.5747    2.0824    0.4196 H   0  0  0  0  0  0  0  0  0  0  0  0
    6.5747   -2.0819    0.4206 H   0  0  0  0  0  0  0  0  0  0  0  0
   -0.3705    3.0282    1.6991 H   0  0  0  0  0  0  0  0  0  0  0  0
   -0.7982   -2.8538    1.3085 H   0  0  0  0  0  0  0  0  0  0  0  0
   -8.1187    3.5120    1.1557 H   0  0  0  0  0  0  0  0  0  0  0  0
   -9.7136    3.0325    1.6349 H   0  0  0  0  0  0  0  0  0  0  0  0
    8.1184   -3.5108    1.1585 H   0  0  0  0  0  0  0  0  0  0  0  0
    9.7133   -3.0310    1.6373 H   0  0  0  0  0  0  0  0  0  0  0  0
  1  5  1  0  0  0  0
  1  7  1  0  0  0  0
  1 11  1  0  0  0  0
  1 13  2  0  0  0  0
  2  6  1  0  0  0  0
  2  8  1  0  0  0  0
  2 12  1  0  0  0  0
  2 14  2  0  0  0  0
  3 29  1  0  0  0  0
  3 33  1  0  0  0  0
  4 30  1  0  0  0  0
  4 34  1  0  0  0  0
  5 27  1  0  0  0  0
  6 28  1  0  0  0  0
  7 35  1  0  0  0  0
  8 36  1  0  0  0  0
  9 31  1  0  0  0  0
  9 59  1  0  0  0  0
 10 32  1  0  0  0  0
 10 60  1  0  0  0  0
 11 65  1  0  0  0  0
 12 66  1  0  0  0  0
 15 43  2  0  0  0  0
 16 44  2  0  0  0  0
 17 33  1  0  0  0  0
 17 37  1  0  0  0  0
 17 39  1  0  0  0  0
 18 34  1  0  0  0  0
 18 38  1  0  0  0  0
 18 40  1  0  0  0  0
 19 37  1  0  0  0  0
 19 45  1  0  0  0  0
 19 63  1  0  0  0  0
 20 38  1  0  0  0  0
 20 46  1  0  0  0  0
 20 64  1  0  0  0  0
 21 39  2  0  0  0  0
 21 41  1  0  0  0  0
 22 40  2  0  0  0  0
 22 42  1  0  0  0  0
 23 43  1  0  0  0  0
 23 45  2  0  0  0  0
 24 44  1  0  0  0  0
 24 46  2  0  0  0  0
 25 45  1  0  0  0  0
 25 67  1  0  0  0  0
 25 68  1  0  0  0  0
 26 46  1  0  0  0  0
 26 69  1  0  0  0  0
 26 70  1  0  0  0  0
 27 29  1  0  0  0  0
 27 31  1  0  0  0  0
 27 47  1  0  0  0  0
 28 30  1  0  0  0  0
 28 32  1  0  0  0  0
 28 48  1  0  0  0  0
 29 36  1  0  0  0  0
 29 49  1  0  0  0  0
 30 35  1  0  0  0  0
 30 50  1  0  0  0  0
 31 33  1  0  0  0  0
 31 51  1  0  0  0  0
 32 34  1  0  0  0  0
 32 52  1  0  0  0  0
 33 53  1  0  0  0  0
 34 54  1  0  0  0  0
 35 55  1  0  0  0  0
 35 56  1  0  0  0  0
 36 57  1  0  0  0  0
 36 58  1  0  0  0  0
 37 41  2  0  0  0  0
 38 42  2  0  0  0  0
 39 61  1  0  0  0  0
 40 62  1  0  0  0  0
 41 43  1  0  0  0  0
 42 44  1  0  0  0  0
M  END
> <PUBCHEM_COMPOUND_CID>
6323195

> <PUBCHEM_CONFORMER_RMSD>
1

> <PUBCHEM_CONFORMER_DIVERSEORDER>
2
105
102
8
154
73
143
86
50
58
137
138
120
125
11
48
104
119
14
24
57
56
5
103
39
144
16
9
44
10
63
76
134
98
161
135
37
78
26
132
140
113
61
158
70
69
47
133
40
111
151
107
45
148
31
92
80
15
84
166
65
32
131
152
51
110
74
109
30
124
90
157
136
126
87
117
160
121
114
146
116
91
52
118
101
36
122
99
164
46
159
19
147
62
156
18
162
165
60
23
100
89
27
25
123
53
128
108
94
71
77
141
7
163
68
155
93
43
42
29
54
85
145
129
130
150
81
72
41
127
34
28
106
139
13
3
115
153
142
88
12
33
79
95
35
66
112
55
20
83
4
17
82
97
149
67
38
59
22
64
6
96
49
1
21
75

> <PUBCHEM_MMFF94_PARTIAL_CHARGES>
58
1 1.51
10 -0.68
11 -0.77
12 -0.77
13 -0.7
14 -0.7
15 -0.57
16 -0.57
17 0.05
18 0.05
19 -0.53
2 1.51
20 -0.53
21 -0.57
22 -0.57
23 -0.66
24 -0.66
25 -0.85
26 -0.85
27 0.28
28 0.28
29 0.28
3 -0.56
30 0.28
31 0.28
32 0.28
33 0.54
34 0.54
35 0.28
36 0.28
37 -0.07
38 -0.07
39 0.04
4 -0.56
40 0.04
41 0.14
42 0.14
43 0.87
44 0.87
45 0.55
46 0.55
5 -0.55
59 0.4
6 -0.55
60 0.4
61 0.15
62 0.15
63 0.4
64 0.4
65 0.5
66 0.5
67 0.4
68 0.4
69 0.4
7 -0.55
70 0.4
8 -0.55
9 -0.68

> <PUBCHEM_EFFECTIVE_ROTOR_COUNT>
4.4

> <PUBCHEM_PHARMACOPHORE_FEATURES>
26
1 10 acceptor
1 10 donor
1 11 acceptor
1 12 acceptor
1 13 acceptor
1 14 acceptor
1 15 acceptor
1 16 acceptor
1 19 donor
1 20 donor
1 23 donor
1 24 donor
1 25 donor
1 26 donor
1 3 acceptor
1 4 acceptor
1 9 acceptor
1 9 donor
3 17 21 39 cation
3 18 22 40 cation
5 17 21 37 39 41 rings
5 18 22 38 40 42 rings
5 3 27 29 31 33 rings
5 4 28 30 32 34 rings
6 19 23 37 41 43 45 rings
6 20 24 38 42 44 46 rings

> <PUBCHEM_HEAVY_ATOM_COUNT>
46

> <PUBCHEM_ATOM_DEF_STEREO_COUNT>
8

> <PUBCHEM_ATOM_UDEF_STEREO_COUNT>
0

> <PUBCHEM_BOND_DEF_STEREO_COUNT>
0

> <PUBCHEM_BOND_UDEF_STEREO_COUNT>
0

> <PUBCHEM_ISOTOPIC_ATOM_COUNT>
0

> <PUBCHEM_COMPONENT_COUNT>
1

> <PUBCHEM_CACTVS_TAUTO_COUNT>
21

> <PUBCHEM_CONFORMER_ID>
00607BFB00000002

> <PUBCHEM_MMFF94_ENERGY>
91.8117

> <PUBCHEM_FEATURE_SELFOVERLAP>
132.44

> <PUBCHEM_SHAPE_FINGERPRINT>
10165383 225 16008745801524722868
10190108 129 18131637794449698398
10625338 86 15502370154180917241
11135926 11 18411145749021921031
11146851 88 17489585649672867968
11456790 92 18341888567976016433
12133447 93 18042667529317192581
12202916 173 18202277000775573067
12741549 16 17632860819999201989
13811026 1 18409443695814704610
14040222 383 17894912953342204704
14394314 77 18409448094389100277
14937079 2 18337390431326084916
15247644 1 16487255457025448707
15297060 5 17603588513168925663
15840311 113 18202280278568628268
1754911 235 7565345323461331817
18608769 82 18334577919494687799
19302320 297 18261393309212146940
19315958 150 17312814991868985878
19841028 212 17346045583493422002
20105231 36 17489592303590663642
21895431 317 17203060681308938058
21927370 108 16415478277154885917
23576562 1 7204186557147352203
24771293 8 18187083953967136989
3178227 256 18413105035196286845
4197921 191 18344144788118092860
45266715 3 15267065900014454408
6081469 158 13326856625809619214
6126387 218 18410290324865153377

> <PUBCHEM_SHAPE_MULTIPOLES>
822.38
33.58
3.23
1.41
0.01
0
-0.17
-0.01
18.98
0
-0.2
0
0
-1.88

> <PUBCHEM_SHAPE_SELFOVERLAP>
1788.08

> <PUBCHEM_SHAPE_VOLUME>
450.8

> <PUBCHEM_COORDINATE_TYPE>
2
5
10

$$$$

