5273755
  -OEChem-07051212582D

 41 43  0     0  0  0  0  0  0999 V2000
    6.3580    0.4226    0.0000 O   0  0  0  0  0  0  0  0  0  0  0  0
    2.8660   -1.6121    0.0000 O   0  0  0  0  0  0  0  0  0  0  0  0
    4.5981   -2.6121    0.0000 O   0  0  0  0  0  0  0  0  0  0  0  0
   10.7282   -0.0779    0.0000 O   0  0  0  0  0  0  0  0  0  0  0  0
    2.8660    0.3879    0.0000 O   0  0  0  0  0  0  0  0  0  0  0  0
    6.3465   -2.6467    0.0000 O   0  0  0  0  0  0  0  0  0  0  0  0
   10.7205    1.9221    0.0000 O   0  0  0  0  0  0  0  0  0  0  0  0
    5.4641   -1.1121    0.0000 C   0  0  0  0  0  0  0  0  0  0  0  0
    5.4641   -0.1121    0.0000 C   0  0  0  0  0  0  0  0  0  0  0  0
    7.2641   -0.0913    0.0000 C   0  0  0  0  0  0  0  0  0  0  0  0
    8.1282    0.4121    0.0000 C   0  0  0  0  0  0  0  0  0  0  0  0
    4.5981   -1.6121    0.0000 C   0  0  0  0  0  0  0  0  0  0  0  0
    6.3580   -1.6467    0.0000 C   0  0  0  0  0  0  0  0  0  0  0  0
    7.2641   -1.1329    0.0000 C   0  0  0  0  0  0  0  0  0  0  0  0
    4.5981    0.3879    0.0000 C   0  0  0  0  0  0  0  0  0  0  0  0
    3.7320   -1.1121    0.0000 C   0  0  0  0  0  0  0  0  0  0  0  0
    3.7320   -0.1121    0.0000 C   0  0  0  0  0  0  0  0  0  0  0  0
    8.9962   -0.0846    0.0000 C   0  0  0  0  0  0  0  0  0  0  0  0
    8.1244    1.4121    0.0000 C   0  0  0  0  0  0  0  0  0  0  0  0
    9.8602    0.4188    0.0000 C   0  0  0  0  0  0  0  0  0  0  0  0
    9.8564    1.4188    0.0000 C   0  0  0  0  0  0  0  0  0  0  0  0
    8.9884    1.9154    0.0000 C   0  0  0  0  0  0  0  0  0  0  0  0
    2.0000   -1.1121    0.0000 C   0  0  0  0  0  0  0  0  0  0  0  0
   10.7320   -1.0779    0.0000 C   0  0  0  0  0  0  0  0  0  0  0  0
   10.7166    2.9221    0.0000 C   0  0  0  0  0  0  0  0  0  0  0  0
    7.7998   -1.4450    0.0000 H   0  0  0  0  0  0  0  0  0  0  0  0
    4.5981    1.0079    0.0000 H   0  0  0  0  0  0  0  0  0  0  0  0
    8.9985   -0.7046    0.0000 H   0  0  0  0  0  0  0  0  0  0  0  0
    7.5862    1.7200    0.0000 H   0  0  0  0  0  0  0  0  0  0  0  0
    8.9860    2.5354    0.0000 H   0  0  0  0  0  0  0  0  0  0  0  0
    4.0611   -2.9221    0.0000 H   0  0  0  0  0  0  0  0  0  0  0  0
    2.8660    1.0079    0.0000 H   0  0  0  0  0  0  0  0  0  0  0  0
    2.3100   -0.5751    0.0000 H   0  0  0  0  0  0  0  0  0  0  0  0
    1.4631   -0.8021    0.0000 H   0  0  0  0  0  0  0  0  0  0  0  0
    1.6900   -1.6490    0.0000 H   0  0  0  0  0  0  0  0  0  0  0  0
   10.1120   -1.0803    0.0000 H   0  0  0  0  0  0  0  0  0  0  0  0
   10.7344   -1.6979    0.0000 H   0  0  0  0  0  0  0  0  0  0  0  0
   11.3520   -1.0755    0.0000 H   0  0  0  0  0  0  0  0  0  0  0  0
   11.3366    2.9245    0.0000 H   0  0  0  0  0  0  0  0  0  0  0  0
   10.7142    3.5421    0.0000 H   0  0  0  0  0  0  0  0  0  0  0  0
   10.0966    2.9197    0.0000 H   0  0  0  0  0  0  0  0  0  0  0  0
  1  9  1  0  0  0  0
  1 10  1  0  0  0  0
  2 16  1  0  0  0  0
  2 23  1  0  0  0  0
  3 12  1  0  0  0  0
  3 31  1  0  0  0  0
  4 20  1  0  0  0  0
  4 24  1  0  0  0  0
  5 17  1  0  0  0  0
  5 32  1  0  0  0  0
  6 13  2  0  0  0  0
  7 21  1  0  0  0  0
  7 25  1  0  0  0  0
  8  9  2  0  0  0  0
  8 12  1  0  0  0  0
  8 13  1  0  0  0  0
  9 15  1  0  0  0  0
 10 11  1  0  0  0  0
 10 14  2  0  0  0  0
 11 18  2  0  0  0  0
 11 19  1  0  0  0  0
 12 16  2  0  0  0  0
 13 14  1  0  0  0  0
 14 26  1  0  0  0  0
 15 17  2  0  0  0  0
 15 27  1  0  0  0  0
 16 17  1  0  0  0  0
 18 20  1  0  0  0  0
 18 28  1  0  0  0  0
 19 22  2  0  0  0  0
 19 29  1  0  0  0  0
 20 21  2  0  0  0  0
 21 22  1  0  0  0  0
 22 30  1  0  0  0  0
 23 33  1  0  0  0  0
 23 34  1  0  0  0  0
 23 35  1  0  0  0  0
 24 36  1  0  0  0  0
 24 37  1  0  0  0  0
 24 38  1  0  0  0  0
 25 39  1  0  0  0  0
 25 40  1  0  0  0  0
 25 41  1  0  0  0  0
M  END
> <PUBCHEM_COMPOUND_CID>
5273755

> <PUBCHEM_COMPOUND_CANONICALIZED>
1

> <PUBCHEM_CACTVS_COMPLEXITY>
520

> <PUBCHEM_CACTVS_HBOND_ACCEPTOR>
7

> <PUBCHEM_CACTVS_HBOND_DONOR>
2

> <PUBCHEM_CACTVS_ROTATABLE_BOND>
4

> <PUBCHEM_CACTVS_SUBSKEYS>
AAADceB4OAAAAAAAAAAAAAAAAAAAAAAAAAAwYIAAAAAAAACBQAAAGgAACAAADASAmAIyBoAABgCIAqBSAAACCAAkIAAIiAEGiMgNJzaGNRqCeWOl4BULuQfK7LzOIQABCAAIQABCAAIQABCAAAAAAAAAAA==

> <PUBCHEM_IUPAC_OPENEYE_NAME>
2-(3,4-dimethoxyphenyl)-5,7-dihydroxy-6-methoxy-chromen-4-one

> <PUBCHEM_IUPAC_CAS_NAME>
2-(3,4-dimethoxyphenyl)-5,7-dihydroxy-6-methoxy-1-benzopyran-4-one

> <PUBCHEM_IUPAC_NAME>
2-(3,4-dimethoxyphenyl)-5,7-dihydroxy-6-methoxychromen-4-one

> <PUBCHEM_IUPAC_SYSTEMATIC_NAME>
2-(3,4-dimethoxyphenyl)-6-methoxy-5,7-bis(oxidanyl)chromen-4-one

> <PUBCHEM_IUPAC_TRADITIONAL_NAME>
2-(3,4-dimethoxyphenyl)-5,7-dihydroxy-6-methoxy-chromone

> <PUBCHEM_IUPAC_INCHI>
InChI=1S/C18H16O7/c1-22-12-5-4-9(6-14(12)23-2)13-7-10(19)16-15(25-13)8-11(20)18(24-3)17(16)21/h4-8,20-21H,1-3H3

> <PUBCHEM_IUPAC_INCHIKEY>
DRRWBCNQOKKKOL-UHFFFAOYSA-N

> <PUBCHEM_XLOGP3_AA>
2.9

> <PUBCHEM_EXACT_MASS>
344.089603

> <PUBCHEM_MOLECULAR_FORMULA>
C18H16O7

> <PUBCHEM_MOLECULAR_WEIGHT>
344.31544

> <PUBCHEM_OPENEYE_CAN_SMILES>
COC1=C(C=C(C=C1)C2=CC(=O)C3=C(C(=C(C=C3O2)O)OC)O)OC

> <PUBCHEM_OPENEYE_ISO_SMILES>
COC1=C(C=C(C=C1)C2=CC(=O)C3=C(C(=C(C=C3O2)O)OC)O)OC

> <PUBCHEM_CACTVS_TPSA>
94.4

> <PUBCHEM_MONOISOTOPIC_WEIGHT>
344.089603

> <PUBCHEM_TOTAL_CHARGE>
0

> <PUBCHEM_HEAVY_ATOM_COUNT>
25

> <PUBCHEM_ATOM_DEF_STEREO_COUNT>
0

> <PUBCHEM_ATOM_UDEF_STEREO_COUNT>
0

> <PUBCHEM_BOND_DEF_STEREO_COUNT>
0

> <PUBCHEM_BOND_UDEF_STEREO_COUNT>
0

> <PUBCHEM_ISOTOPIC_ATOM_COUNT>
0

> <PUBCHEM_COMPONENT_COUNT>
1

> <PUBCHEM_CACTVS_TAUTO_COUNT>
12

> <PUBCHEM_COORDINATE_TYPE>
1
5
255

> <PUBCHEM_BONDANNOTATIONS>
1  10  8
1  9  8
10  14  8
11  18  8
11  19  8
12  16  8
13  14  8
15  17  8
16  17  8
18  20  8
19  22  8
20  21  8
21  22  8
8  12  8
8  13  8
8  9  8
9  15  8

$$$$

