23724581
  -OEChem-07051213083D

 78 81  0     1  0  0  0  0  0999 V2000
    4.5704   -2.8092   -0.1377 O   0  0  0  0  0  0  0  0  0  0  0  0
    7.7843    0.9405    1.2162 O   0  0  0  0  0  0  0  0  0  0  0  0
   -0.6611    0.1304   -0.9313 C   0  0  1  0  0  0  0  0  0  0  0  0
    0.1085   -0.9696   -0.1686 C   0  0  2  0  0  0  0  0  0  0  0  0
    1.6214   -0.9136   -0.4039 C   0  0  1  0  0  0  0  0  0  0  0  0
    2.1495    0.4811    0.0731 C   0  0  1  0  0  0  0  0  0  0  0  0
    3.7124    0.6065   -0.0982 C   0  0  2  0  0  0  0  0  0  0  0  0
   -2.1053   -0.2524   -0.5245 C   0  0  2  0  0  0  0  0  0  0  0  0
   -0.1824    1.4900   -0.4034 C   0  0  0  0  0  0  0  0  0  0  0  0
    1.3420    1.6522   -0.5472 C   0  0  0  0  0  0  0  0  0  0  0  0
   -0.6487   -2.2472   -0.5185 C   0  0  0  0  0  0  0  0  0  0  0  0
   -2.1170   -1.7957   -0.6270 C   0  0  0  0  0  0  0  0  0  0  0  0
    4.3660   -0.5503    0.7130 C   0  0  1  0  0  0  0  0  0  0  0  0
    2.3381   -2.0637    0.3115 C   0  0  0  0  0  0  0  0  0  0  0  0
    4.2242    1.9482    0.4992 C   0  0  0  0  0  0  0  0  0  0  0  0
   -0.4830    0.0775   -2.4696 C   0  0  0  0  0  0  0  0  0  0  0  0
   -3.2317    0.4017   -1.3117 C   0  0  1  0  0  0  0  0  0  0  0  0
    3.8386   -1.8930    0.2304 C   0  0  0  0  0  0  0  0  0  0  0  0
    5.8940   -0.4836    0.7434 C   0  0  0  0  0  0  0  0  0  0  0  0
    4.1155    0.5459   -1.5943 C   0  0  0  0  0  0  0  0  0  0  0  0
    5.7500    2.0402    0.5874 C   0  0  0  0  0  0  0  0  0  0  0  0
    6.3671    0.8509    1.3171 C   0  0  2  0  0  0  0  0  0  0  0  0
   -4.5985   -0.1164   -0.8140 C   0  0  0  0  0  0  0  0  0  0  0  0
   -3.1258    1.9272   -1.2125 C   0  0  0  0  0  0  0  0  0  0  0  0
   -4.8331    0.1119    0.6842 C   0  0  0  0  0  0  0  0  0  0  0  0
   -6.2080   -0.3920    1.1854 C   0  0  2  0  0  0  0  0  0  0  0  0
   -7.4152    0.1378    0.3589 C   0  0  0  0  0  0  0  0  0  0  0  0
   -6.3235   -0.0914    2.6867 C   0  0  0  0  0  0  0  0  0  0  0  0
   -7.5010    1.6651    0.2934 C   0  0  0  0  0  0  0  0  0  0  0  0
   -8.7477   -0.4292    0.8626 C   0  0  0  0  0  0  0  0  0  0  0  0
   -0.0445   -0.8147    0.9129 H   0  0  0  0  0  0  0  0  0  0  0  0
    1.8191   -1.0280   -1.4745 H   0  0  0  0  0  0  0  0  0  0  0  0
    1.9508    0.5347    1.1556 H   0  0  0  0  0  0  0  0  0  0  0  0
   -2.2021    0.0109    0.5373 H   0  0  0  0  0  0  0  0  0  0  0  0
   -0.6317    2.3325   -0.9300 H   0  0  0  0  0  0  0  0  0  0  0  0
   -0.4473    1.6013    0.6559 H   0  0  0  0  0  0  0  0  0  0  0  0
    1.6212    2.5935   -0.0604 H   0  0  0  0  0  0  0  0  0  0  0  0
    1.5904    1.7687   -1.6064 H   0  0  0  0  0  0  0  0  0  0  0  0
   -0.3071   -2.6687   -1.4705 H   0  0  0  0  0  0  0  0  0  0  0  0
   -0.5260   -3.0187    0.2484 H   0  0  0  0  0  0  0  0  0  0  0  0
   -2.7158   -2.2349    0.1783 H   0  0  0  0  0  0  0  0  0  0  0  0
   -2.5348   -2.1464   -1.5775 H   0  0  0  0  0  0  0  0  0  0  0  0
    4.0331   -0.4757    1.7598 H   0  0  0  0  0  0  0  0  0  0  0  0
    2.0718   -3.0228   -0.1464 H   0  0  0  0  0  0  0  0  0  0  0  0
    2.0623   -2.1105    1.3712 H   0  0  0  0  0  0  0  0  0  0  0  0
    3.8115    2.0777    1.5085 H   0  0  0  0  0  0  0  0  0  0  0  0
    3.8661    2.7964   -0.0960 H   0  0  0  0  0  0  0  0  0  0  0  0
   -0.9960    0.9087   -2.9629 H   0  0  0  0  0  0  0  0  0  0  0  0
   -0.8762   -0.8472   -2.9036 H   0  0  0  0  0  0  0  0  0  0  0  0
    0.5650    0.1443   -2.7738 H   0  0  0  0  0  0  0  0  0  0  0  0
   -3.1694    0.1299   -2.3728 H   0  0  0  0  0  0  0  0  0  0  0  0
    6.2978   -1.2992    1.3577 H   0  0  0  0  0  0  0  0  0  0  0  0
    6.3224   -0.6502   -0.2526 H   0  0  0  0  0  0  0  0  0  0  0  0
    5.1984    0.6029   -1.7363 H   0  0  0  0  0  0  0  0  0  0  0  0
    3.7920   -0.3797   -2.0780 H   0  0  0  0  0  0  0  0  0  0  0  0
    3.6867    1.3811   -2.1569 H   0  0  0  0  0  0  0  0  0  0  0  0
    6.1837    2.1346   -0.4156 H   0  0  0  0  0  0  0  0  0  0  0  0
    6.0314    2.9669    1.1035 H   0  0  0  0  0  0  0  0  0  0  0  0
    6.1108    0.9029    2.3815 H   0  0  0  0  0  0  0  0  0  0  0  0
   -4.7046   -1.1842   -1.0388 H   0  0  0  0  0  0  0  0  0  0  0  0
   -5.3699    0.3918   -1.4024 H   0  0  0  0  0  0  0  0  0  0  0  0
   -4.0842    2.3886   -1.4800 H   0  0  0  0  0  0  0  0  0  0  0  0
   -2.4070    2.3304   -1.9285 H   0  0  0  0  0  0  0  0  0  0  0  0
   -2.8797    2.2686   -0.2024 H   0  0  0  0  0  0  0  0  0  0  0  0
   -4.7254    1.1762    0.9227 H   0  0  0  0  0  0  0  0  0  0  0  0
   -4.0755   -0.4174    1.2709 H   0  0  0  0  0  0  0  0  0  0  0  0
    8.0237    0.8783    0.2757 H   0  0  0  0  0  0  0  0  0  0  0  0
   -6.2045   -1.4862    1.0801 H   0  0  0  0  0  0  0  0  0  0  0  0
   -7.3079   -0.2307   -0.6686 H   0  0  0  0  0  0  0  0  0  0  0  0
   -7.2189   -0.5453    3.1209 H   0  0  0  0  0  0  0  0  0  0  0  0
   -6.3521    0.9848    2.8834 H   0  0  0  0  0  0  0  0  0  0  0  0
   -5.4648   -0.5038    3.2285 H   0  0  0  0  0  0  0  0  0  0  0  0
   -8.3464    1.9737   -0.3317 H   0  0  0  0  0  0  0  0  0  0  0  0
   -7.6478    2.1045    1.2850 H   0  0  0  0  0  0  0  0  0  0  0  0
   -6.6005    2.1049   -0.1442 H   0  0  0  0  0  0  0  0  0  0  0  0
   -9.5540   -0.1898    0.1603 H   0  0  0  0  0  0  0  0  0  0  0  0
   -8.7004   -1.5195    0.9525 H   0  0  0  0  0  0  0  0  0  0  0  0
   -9.0286   -0.0129    1.8352 H   0  0  0  0  0  0  0  0  0  0  0  0
  1 18  2  0  0  0  0
  2 22  1  0  0  0  0
  2 67  1  0  0  0  0
  3  4  1  0  0  0  0
  3  8  1  0  0  0  0
  3  9  1  0  0  0  0
  3 16  1  0  0  0  0
  4  5  1  0  0  0  0
  4 11  1  0  0  0  0
  4 31  1  0  0  0  0
  5  6  1  0  0  0  0
  5 14  1  0  0  0  0
  5 32  1  0  0  0  0
  6  7  1  0  0  0  0
  6 10  1  0  0  0  0
  6 33  1  0  0  0  0
  7 13  1  0  0  0  0
  7 15  1  0  0  0  0
  7 20  1  0  0  0  0
  8 12  1  0  0  0  0
  8 17  1  0  0  0  0
  8 34  1  0  0  0  0
  9 10  1  0  0  0  0
  9 35  1  0  0  0  0
  9 36  1  0  0  0  0
 10 37  1  0  0  0  0
 10 38  1  0  0  0  0
 11 12  1  0  0  0  0
 11 39  1  0  0  0  0
 11 40  1  0  0  0  0
 12 41  1  0  0  0  0
 12 42  1  0  0  0  0
 13 18  1  0  0  0  0
 13 19  1  0  0  0  0
 13 43  1  0  0  0  0
 14 18  1  0  0  0  0
 14 44  1  0  0  0  0
 14 45  1  0  0  0  0
 15 21  1  0  0  0  0
 15 46  1  0  0  0  0
 15 47  1  0  0  0  0
 16 48  1  0  0  0  0
 16 49  1  0  0  0  0
 16 50  1  0  0  0  0
 17 23  1  0  0  0  0
 17 24  1  0  0  0  0
 17 51  1  0  0  0  0
 19 22  1  0  0  0  0
 19 52  1  0  0  0  0
 19 53  1  0  0  0  0
 20 54  1  0  0  0  0
 20 55  1  0  0  0  0
 20 56  1  0  0  0  0
 21 22  1  0  0  0  0
 21 57  1  0  0  0  0
 21 58  1  0  0  0  0
 22 59  1  0  0  0  0
 23 25  1  0  0  0  0
 23 60  1  0  0  0  0
 23 61  1  0  0  0  0
 24 62  1  0  0  0  0
 24 63  1  0  0  0  0
 24 64  1  0  0  0  0
 25 26  1  0  0  0  0
 25 65  1  0  0  0  0
 25 66  1  0  0  0  0
 26 27  1  0  0  0  0
 26 28  1  0  0  0  0
 26 68  1  0  0  0  0
 27 29  1  0  0  0  0
 27 30  1  0  0  0  0
 27 69  1  0  0  0  0
 28 70  1  0  0  0  0
 28 71  1  0  0  0  0
 28 72  1  0  0  0  0
 29 73  1  0  0  0  0
 29 74  1  0  0  0  0
 29 75  1  0  0  0  0
 30 76  1  0  0  0  0
 30 77  1  0  0  0  0
 30 78  1  0  0  0  0
M  END
> <PUBCHEM_COMPOUND_CID>
23724581

> <PUBCHEM_CONFORMER_RMSD>
0.8

> <PUBCHEM_CONFORMER_DIVERSEORDER>
2
18
20
28
3
11
17
14
26
10
16
1
27
7
8
15
23
13
4
9
24
25
12
22
5
6
21
19

> <PUBCHEM_MMFF94_PARTIAL_CHARGES>
7
1 -0.57
13 0.06
14 0.06
18 0.45
2 -0.68
22 0.28
67 0.4

> <PUBCHEM_EFFECTIVE_ROTOR_COUNT>
7

> <PUBCHEM_PHARMACOPHORE_FEATURES>
11
1 1 acceptor
1 2 acceptor
1 2 donor
1 24 hydrophobe
1 28 hydrophobe
3 27 29 30 hydrophobe
5 17 23 25 26 27 hydrophobe
5 3 4 8 11 12 rings
6 3 4 5 6 9 10 rings
6 5 6 7 13 14 18 rings
6 7 13 15 19 21 22 rings

> <PUBCHEM_HEAVY_ATOM_COUNT>
30

> <PUBCHEM_ATOM_DEF_STEREO_COUNT>
9

> <PUBCHEM_ATOM_UDEF_STEREO_COUNT>
1

> <PUBCHEM_BOND_DEF_STEREO_COUNT>
0

> <PUBCHEM_BOND_UDEF_STEREO_COUNT>
0

> <PUBCHEM_ISOTOPIC_ATOM_COUNT>
0

> <PUBCHEM_COMPONENT_COUNT>
1

> <PUBCHEM_CACTVS_TAUTO_COUNT>
3

> <PUBCHEM_CONFORMER_ID>
016A022500000002

> <PUBCHEM_MMFF94_ENERGY>
99.1994

> <PUBCHEM_FEATURE_SELFOVERLAP>
55.923

> <PUBCHEM_SHAPE_FINGERPRINT>
10 15 18202283571838035064
106641 1 18409448060403421203
10693767 8 9943540595750901400
11135609 201 17821734918300392632
11456790 92 18336837463108034792
11578080 2 17533232872592882714
11646440 116 18411702075819273120
12035758 1 18202283584738559971
12236239 1 17603310336510170774
12422481 6 18272923921927865887
12788726 201 17167863097304409208
13073987 5 18339646749196782900
13540713 4 18055642960266686743
13668630 136 10952048961757146433
13673619 4 14620800383814435589
13782708 43 16487257672769350811
13811026 1 18131914858732288505
14251764 18 18041001713487147733
14341114 176 18341893013314218173
14347424 109 18334577983676493890
14849402 71 18113901507900123265
15183329 4 8430320130448757831
15188451 53 15339122338057130531
15475509 35 16916518076706444098
1577012 14 17603591828930403959
1813 80 16630526253987240780
20105231 36 18273214223379082418
2026 5 12678363624677554736
21130935 74 18340483465584083835
21267235 1 18342174518472101766
21424621 283 16298097701317635027
21623969 137 18202001031709240290
21637258 2 14692574303778641035
21781051 124 17703778229110959090
21792934 111 18201162139293188525
22122407 14 17603858949836203201
22149856 69 18270386300577695545
22224240 67 18410292502439770491
23559900 14 18336561482090729506
23576562 1 6338372857395916641
3009799 131 7637402921604303287
3178227 256 18342740698219889184
3383291 50 17131819943048571307
397830 11 18343866641081471677
4093350 32 17312820490165797510
4340502 62 18131635582082871514
5104073 3 18200601430779991257
5283156 175 12823299005302976995
5385378 56 18260546749166336646

> <PUBCHEM_SHAPE_MULTIPOLES>
605.65
21.14
2.19
1.62
22.13
0.54
0.07
-4.57
12.77
-2.23
-0.13
1.25
-0.2
0.86

> <PUBCHEM_SHAPE_SELFOVERLAP>
1253.927

> <PUBCHEM_SHAPE_VOLUME>
345.9

> <PUBCHEM_COORDINATE_TYPE>
2
5
10

$$$$

