3067937
  -OEChem-07051213103D

 63 64  0     1  0  0  0  0  0999 V2000
   -0.7374    3.3424   -0.7147 S   0  0  0  0  0  0  0  0  0  0  0  0
   -4.9880   -2.5001    1.1987 O   0  0  0  0  0  0  0  0  0  0  0  0
   -2.4234   -1.9922   -0.5851 O   0  0  0  0  0  0  0  0  0  0  0  0
   -1.7191   -0.1949   -3.3200 O   0  0  0  0  0  0  0  0  0  0  0  0
    0.1332    0.7663   -2.3844 O   0  0  0  0  0  0  0  0  0  0  0  0
    3.4030   -3.8081   -0.2764 O   0  0  0  0  0  0  0  0  0  0  0  0
    1.3937   -1.1876    2.4065 O   0  0  0  0  0  0  0  0  0  0  0  0
    4.1436   -1.5088   -1.4901 O   0  0  0  0  0  0  0  0  0  0  0  0
    3.0016    1.7833    1.9077 O   0  0  0  0  0  0  0  0  0  0  0  0
   -3.0833    0.2297   -1.0300 N   0  0  0  0  0  0  0  0  0  0  0  0
    2.2743    3.3258    0.3310 N   0  0  0  0  0  0  0  0  0  0  0  0
    4.2051   -0.4749    0.5861 N   0  0  0  0  0  0  0  0  0  0  0  0
   -3.8987    0.9312   -0.0143 C   0  0  1  0  0  0  0  0  0  0  0  0
   -3.8978   -0.4068    0.7740 C   0  0  2  0  0  0  0  0  0  0  0  0
   -3.0587    2.1548    0.3684 C   0  0  0  0  0  0  0  0  0  0  0  0
   -3.0268   -0.9642   -0.3736 C   0  0  0  0  0  0  0  0  0  0  0  0
   -5.2200   -1.1118    0.9595 C   0  0  2  0  0  0  0  0  0  0  0  0
   -2.0052    0.9959   -1.3724 C   0  0  0  0  0  0  0  0  0  0  0  0
   -1.9378    2.1141   -0.6393 C   0  0  0  0  0  0  0  0  0  0  0  0
   -5.9974   -0.5267    2.1331 C   0  0  0  0  0  0  0  0  0  0  0  0
   -1.0647    0.5306   -2.3863 C   0  0  0  0  0  0  0  0  0  0  0  0
   -0.1103    3.2608    0.9905 C   0  0  0  0  0  0  0  0  0  0  0  0
    1.4956   -2.3897    0.2724 C   0  0  0  0  0  0  0  0  0  0  0  0
    1.2451    3.9386    1.1385 C   0  0  0  0  0  0  0  0  0  0  0  0
    3.0372   -2.5912    0.3688 C   0  0  2  0  0  0  0  0  0  0  0  0
    1.0505   -1.1130    1.0269 C   0  0  0  0  0  0  0  0  0  0  0  0
    1.0389   -2.3117   -1.1979 C   0  0  0  0  0  0  0  0  0  0  0  0
    0.7981   -3.6147    0.9111 C   0  0  0  0  0  0  0  0  0  0  0  0
    3.8573   -1.4867   -0.2944 C   0  0  0  0  0  0  0  0  0  0  0  0
    3.0732    2.2887    0.7908 C   0  0  0  0  0  0  0  0  0  0  0  0
    4.0590    1.8300   -0.2722 C   0  0  0  0  0  0  0  0  0  0  0  0
    4.9591    0.6911    0.1869 C   0  0  0  0  0  0  0  0  0  0  0  0
   -4.8765    1.2117   -0.4285 H   0  0  0  0  0  0  0  0  0  0  0  0
   -3.3206   -0.3580    1.7084 H   0  0  0  0  0  0  0  0  0  0  0  0
   -2.6906    2.0731    1.3959 H   0  0  0  0  0  0  0  0  0  0  0  0
   -3.6464    3.0735    0.2678 H   0  0  0  0  0  0  0  0  0  0  0  0
   -5.8305   -1.0465    0.0522 H   0  0  0  0  0  0  0  0  0  0  0  0
   -6.9406   -1.0649    2.2738 H   0  0  0  0  0  0  0  0  0  0  0  0
   -6.2156    0.5340    1.9752 H   0  0  0  0  0  0  0  0  0  0  0  0
   -5.4330   -0.6250    3.0672 H   0  0  0  0  0  0  0  0  0  0  0  0
   -4.4774   -2.5791    2.0226 H   0  0  0  0  0  0  0  0  0  0  0  0
   -0.0238    2.2101    1.2911 H   0  0  0  0  0  0  0  0  0  0  0  0
   -0.8339    3.7449    1.6545 H   0  0  0  0  0  0  0  0  0  0  0  0
    1.5549    3.9025    2.1891 H   0  0  0  0  0  0  0  0  0  0  0  0
    1.1879    4.9940    0.8495 H   0  0  0  0  0  0  0  0  0  0  0  0
   -1.1148   -0.5264   -4.0181 H   0  0  0  0  0  0  0  0  0  0  0  0
    3.3382   -2.6874    1.4192 H   0  0  0  0  0  0  0  0  0  0  0  0
   -0.0373   -0.9948    0.9636 H   0  0  0  0  0  0  0  0  0  0  0  0
    1.4984   -0.2145    0.5944 H   0  0  0  0  0  0  0  0  0  0  0  0
   -0.0473   -2.2269   -1.2722 H   0  0  0  0  0  0  0  0  0  0  0  0
    1.3341   -3.2040   -1.7606 H   0  0  0  0  0  0  0  0  0  0  0  0
    1.4689   -1.4421   -1.7033 H   0  0  0  0  0  0  0  0  0  0  0  0
    1.1351   -3.7762    1.9410 H   0  0  0  0  0  0  0  0  0  0  0  0
    0.9998   -4.5335    0.3491 H   0  0  0  0  0  0  0  0  0  0  0  0
   -0.2893   -3.4794    0.9345 H   0  0  0  0  0  0  0  0  0  0  0  0
    2.4007    3.6690   -0.6167 H   0  0  0  0  0  0  0  0  0  0  0  0
    5.5525    0.9983    1.0548 H   0  0  0  0  0  0  0  0  0  0  0  0
    5.6496    0.4152   -0.6171 H   0  0  0  0  0  0  0  0  0  0  0  0
    4.6768    2.6879   -0.5618 H   0  0  0  0  0  0  0  0  0  0  0  0
    3.4823    1.5177   -1.1518 H   0  0  0  0  0  0  0  0  0  0  0  0
    3.9116   -0.5366    1.5566 H   0  0  0  0  0  0  0  0  0  0  0  0
    4.3390   -3.9774   -0.0736 H   0  0  0  0  0  0  0  0  0  0  0  0
    1.0917   -0.3608    2.8196 H   0  0  0  0  0  0  0  0  0  0  0  0
  1 19  1  0  0  0  0
  1 22  1  0  0  0  0
  2 17  1  0  0  0  0
  2 41  1  0  0  0  0
  3 16  2  0  0  0  0
  4 21  1  0  0  0  0
  4 46  1  0  0  0  0
  5 21  2  0  0  0  0
  6 25  1  0  0  0  0
  6 62  1  0  0  0  0
  7 26  1  0  0  0  0
  7 63  1  0  0  0  0
  8 29  2  0  0  0  0
  9 30  2  0  0  0  0
 10 13  1  0  0  0  0
 10 16  1  0  0  0  0
 10 18  1  0  0  0  0
 11 24  1  0  0  0  0
 11 30  1  0  0  0  0
 11 56  1  0  0  0  0
 12 29  1  0  0  0  0
 12 32  1  0  0  0  0
 12 61  1  0  0  0  0
 13 14  1  0  0  0  0
 13 15  1  0  0  0  0
 13 33  1  0  0  0  0
 14 16  1  0  0  0  0
 14 17  1  0  0  0  0
 14 34  1  0  0  0  0
 15 19  1  0  0  0  0
 15 35  1  0  0  0  0
 15 36  1  0  0  0  0
 17 20  1  0  0  0  0
 17 37  1  0  0  0  0
 18 19  2  0  0  0  0
 18 21  1  0  0  0  0
 20 38  1  0  0  0  0
 20 39  1  0  0  0  0
 20 40  1  0  0  0  0
 22 24  1  0  0  0  0
 22 42  1  0  0  0  0
 22 43  1  0  0  0  0
 23 25  1  0  0  0  0
 23 26  1  0  0  0  0
 23 27  1  0  0  0  0
 23 28  1  0  0  0  0
 24 44  1  0  0  0  0
 24 45  1  0  0  0  0
 25 29  1  0  0  0  0
 25 47  1  0  0  0  0
 26 48  1  0  0  0  0
 26 49  1  0  0  0  0
 27 50  1  0  0  0  0
 27 51  1  0  0  0  0
 27 52  1  0  0  0  0
 28 53  1  0  0  0  0
 28 54  1  0  0  0  0
 28 55  1  0  0  0  0
 30 31  1  0  0  0  0
 31 32  1  0  0  0  0
 31 59  1  0  0  0  0
 31 60  1  0  0  0  0
 32 57  1  0  0  0  0
 32 58  1  0  0  0  0
M  END
> <PUBCHEM_COMPOUND_CID>
3067937

> <PUBCHEM_CONFORMER_RMSD>
1.4

> <PUBCHEM_CONFORMER_DIVERSEORDER>
1
129
86
113
159
36
124
146
70
13
158
26
87
140
145
143
58
71
120
127
155
32
61
79
148
37
41
31
102
35
104
48
85
5
47
162
68
60
50
123
126
149
51
152
29
109
137
10
38
141
121
63
64
23
153
118
44
128
98
114
74
40
106
30
116
2
134
33
105
4
43
15
56
16
100
54
39
115
138
72
66
139
93
103
136
157
150
81
11
156
111
147
164
52
34
88
62
8
27
122
160
22
42
12
117
142
82
75
45
166
57
65
3
151
24
130
165
55
154
7
90
17
107
95
25
91
125
132
97
53
144
20
59
69
49
108
80
89
76
119
131
163
161
6
133
28
99
67
112
101
21
9
46
14
84
110
92
18
135
77
78
73
19
167
94
96
83

> <PUBCHEM_MMFF94_PARTIAL_CHARGES>
34
1 -0.33
10 -0.39
11 -0.73
12 -0.73
13 0.22
14 0.05
15 0.14
16 0.58
17 0.28
18 0.12
19 -0.04
2 -0.68
21 0.71
22 0.23
24 0.3
25 0.34
26 0.28
29 0.57
3 -0.57
30 0.57
31 0.06
32 0.3
4 -0.65
41 0.4
46 0.5
5 -0.57
56 0.37
6 -0.68
61 0.37
62 0.4
63 0.4
7 -0.68
8 -0.57
9 -0.57

> <PUBCHEM_EFFECTIVE_ROTOR_COUNT>
14.4

> <PUBCHEM_PHARMACOPHORE_FEATURES>
16
1 11 donor
1 12 donor
1 2 acceptor
1 2 donor
1 3 acceptor
1 4 acceptor
1 5 acceptor
1 6 acceptor
1 6 donor
1 7 acceptor
1 7 donor
1 8 acceptor
1 9 acceptor
3 23 27 28 hydrophobe
3 4 5 21 anion
7 10 13 14 15 16 18 19 rings

> <PUBCHEM_HEAVY_ATOM_COUNT>
32

> <PUBCHEM_ATOM_DEF_STEREO_COUNT>
4

> <PUBCHEM_ATOM_UDEF_STEREO_COUNT>
0

> <PUBCHEM_BOND_DEF_STEREO_COUNT>
0

> <PUBCHEM_BOND_UDEF_STEREO_COUNT>
0

> <PUBCHEM_ISOTOPIC_ATOM_COUNT>
0

> <PUBCHEM_COMPONENT_COUNT>
1

> <PUBCHEM_CACTVS_TAUTO_COUNT>
4

> <PUBCHEM_CONFORMER_ID>
002ED02100000001

> <PUBCHEM_MMFF94_ENERGY>
78.1982

> <PUBCHEM_FEATURE_SELFOVERLAP>
81.252

> <PUBCHEM_SHAPE_FINGERPRINT>
11513181 2 17474092212261756862
11578080 2 17631184146075543357
12128747 34 18270406104846360517
12156800 1 17123079739327937684
12925494 130 18264772228587570089
13122387 1 16893150374781695452
13402501 40 18342175510361471568
13583140 156 18408892836627161053
14114211 80 17977644430437661404
14279260 333 17761490692747737702
15403338 16 18265900348649223477
15721738 202 17773853398634457445
17909252 39 18190172572334850826
19930381 70 18337959991148947128
20764821 26 18122634842722694180
21315759 227 18200324341434180128
3493558 16 17759793754619686035
35225 105 17477493006042573652
3737641 26 18335697265102264096
392239 28 18411415090330644723
42626532 9 17761487397737526282
463206 1 17759804037367290008
469060 322 16123066255891425872
5309563 4 18410012121930764129
6287921 2 18341049627281160926
86090 222 17987794099466957979

> <PUBCHEM_SHAPE_MULTIPOLES>
600.5
10.18
4.97
2.1
5.02
1
0.99
-3.83
-3.84
-3.38
-1.29
1.11
0.03
1.7

> <PUBCHEM_SHAPE_SELFOVERLAP>
1218.699

> <PUBCHEM_SHAPE_VOLUME>
353.2

> <PUBCHEM_COORDINATE_TYPE>
2
5
10

$$$$

