91498
  -OEChem-07051212502D

 78 81  0     1  0  0  0  0  0999 V2000
    5.2710   -3.5163    0.0000 O   0  0  0  0  0  0  0  0  0  0  0  0
    6.1847   -4.0372    0.0000 O   0  0  0  0  0  0  0  0  0  0  0  0
    2.5357   -3.0203    0.0000 O   0  0  0  0  0  0  0  0  0  0  0  0
    7.9288   -0.9679    0.0000 C   0  0  1  0  0  0  0  0  0  0  0  0
    7.0628   -1.4679    0.0000 C   0  0  1  0  0  0  0  0  0  0  0  0
    7.9288    0.0321    0.0000 C   0  0  1  0  0  0  0  0  0  0  0  0
    6.1968   -0.9679    0.0000 C   0  0  1  0  0  0  0  0  0  0  0  0
    5.2868   -1.4748    0.0000 C   0  0  2  0  0  0  0  0  0  0  0  0
    8.8750    0.3368    0.0000 C   0  0  2  0  0  0  0  0  0  0  0  0
    5.2787   -2.5164    0.0000 C   0  0  2  0  0  0  0  0  0  0  0  0
    7.0628    0.5321    0.0000 C   0  0  0  0  0  0  0  0  0  0  0  0
    6.1968    0.0321    0.0000 C   0  0  0  0  0  0  0  0  0  0  0  0
    7.0789   -2.5094    0.0000 C   0  0  0  0  0  0  0  0  0  0  0  0
    8.8750   -1.2727    0.0000 C   0  0  0  0  0  0  0  0  0  0  0  0
    6.1808   -3.0372    0.0000 C   0  0  1  0  0  0  0  0  0  0  0  0
    9.4586   -0.4679    0.0000 C   0  0  0  0  0  0  0  0  0  0  0  0
    4.3599   -0.9107    0.0000 C   0  0  0  0  0  0  0  0  0  0  0  0
    4.3433   -3.0661    0.0000 C   0  0  0  0  0  0  0  0  0  0  0  0
    7.9288    1.0321    0.0000 C   0  0  0  0  0  0  0  0  0  0  0  0
    9.1857    1.2873    0.0000 C   0  0  1  0  0  0  0  0  0  0  0  0
    5.2945   -0.4748    0.0000 C   0  0  0  0  0  0  0  0  0  0  0  0
    3.4120   -1.4386    0.0000 C   0  0  0  0  0  0  0  0  0  0  0  0
    3.4037   -2.5236    0.0000 C   0  0  2  0  0  0  0  0  0  0  0  0
   10.1642    1.4936    0.0000 C   0  0  0  0  0  0  0  0  0  0  0  0
    8.5179    2.0316    0.0000 C   0  0  0  0  0  0  0  0  0  0  0  0
   10.4749    2.4441    0.0000 C   0  0  0  0  0  0  0  0  0  0  0  0
   11.4534    2.6503    0.0000 C   0  0  0  0  0  0  0  0  0  0  0  0
   11.7640    3.6008    0.0000 C   0  0  0  0  0  0  0  0  0  0  0  0
   12.7425    3.8070    0.0000 C   0  0  0  0  0  0  0  0  0  0  0  0
   11.0962    4.3451    0.0000 C   0  0  0  0  0  0  0  0  0  0  0  0
    8.0188   -1.8132    0.0000 H   0  0  0  0  0  0  0  0  0  0  0  0
    7.8022   -1.8872    0.0000 H   0  0  0  0  0  0  0  0  0  0  0  0
    6.9329   -0.5429    0.0000 H   0  0  0  0  0  0  0  0  0  0  0  0
    9.7148    0.4687    0.0000 H   0  0  0  0  0  0  0  0  0  0  0  0
    7.4613    1.0070    0.0000 H   0  0  0  0  0  0  0  0  0  0  0  0
    6.6643    1.0070    0.0000 H   0  0  0  0  0  0  0  0  0  0  0  0
    5.9847    0.6147    0.0000 H   0  0  0  0  0  0  0  0  0  0  0  0
    5.5862   -0.0756    0.0000 H   0  0  0  0  0  0  0  0  0  0  0  0
    7.2969   -3.0898    0.0000 H   0  0  0  0  0  0  0  0  0  0  0  0
    7.6880   -2.3939    0.0000 H   0  0  0  0  0  0  0  0  0  0  0  0
    8.6240   -1.8396    0.0000 H   0  0  0  0  0  0  0  0  0  0  0  0
    9.4124   -1.5819    0.0000 H   0  0  0  0  0  0  0  0  0  0  0  0
    6.7195   -3.3441    0.0000 H   0  0  0  0  0  0  0  0  0  0  0  0
    9.9195   -0.8827    0.0000 H   0  0  0  0  0  0  0  0  0  0  0  0
    9.9195   -0.0532    0.0000 H   0  0  0  0  0  0  0  0  0  0  0  0
    4.7681   -0.4440    0.0000 H   0  0  0  0  0  0  0  0  0  0  0  0
    3.9700   -0.4287    0.0000 H   0  0  0  0  0  0  0  0  0  0  0  0
    3.9460   -3.5421    0.0000 H   0  0  0  0  0  0  0  0  0  0  0  0
    4.7443   -3.5390    0.0000 H   0  0  0  0  0  0  0  0  0  0  0  0
    8.5488    1.0321    0.0000 H   0  0  0  0  0  0  0  0  0  0  0  0
    7.9288    1.6521    0.0000 H   0  0  0  0  0  0  0  0  0  0  0  0
    7.3088    1.0321    0.0000 H   0  0  0  0  0  0  0  0  0  0  0  0
    9.3783    1.8766    0.0000 H   0  0  0  0  0  0  0  0  0  0  0  0
    5.9145   -0.4796    0.0000 H   0  0  0  0  0  0  0  0  0  0  0  0
    5.2993    0.1452    0.0000 H   0  0  0  0  0  0  0  0  0  0  0  0
    4.6745   -0.4700    0.0000 H   0  0  0  0  0  0  0  0  0  0  0  0
    3.2075   -0.8534    0.0000 H   0  0  0  0  0  0  0  0  0  0  0  0
    2.8004   -1.5400    0.0000 H   0  0  0  0  0  0  0  0  0  0  0  0
    2.8686   -2.2105    0.0000 H   0  0  0  0  0  0  0  0  0  0  0  0
    4.7317   -3.8222    0.0000 H   0  0  0  0  0  0  0  0  0  0  0  0
   10.1848    0.8739    0.0000 H   0  0  0  0  0  0  0  0  0  0  0  0
   10.7780    1.4062    0.0000 H   0  0  0  0  0  0  0  0  0  0  0  0
    8.9793    2.4457    0.0000 H   0  0  0  0  0  0  0  0  0  0  0  0
    8.1038    2.4931    0.0000 H   0  0  0  0  0  0  0  0  0  0  0  0
    8.0564    1.6176    0.0000 H   0  0  0  0  0  0  0  0  0  0  0  0
    6.7228   -4.3451    0.0000 H   0  0  0  0  0  0  0  0  0  0  0  0
   10.4543    3.0637    0.0000 H   0  0  0  0  0  0  0  0  0  0  0  0
    9.8611    2.5314    0.0000 H   0  0  0  0  0  0  0  0  0  0  0  0
    2.0000   -2.7082    0.0000 H   0  0  0  0  0  0  0  0  0  0  0  0
   11.4739    2.0306    0.0000 H   0  0  0  0  0  0  0  0  0  0  0  0
   12.0672    2.5629    0.0000 H   0  0  0  0  0  0  0  0  0  0  0  0
   12.1781    3.1393    0.0000 H   0  0  0  0  0  0  0  0  0  0  0  0
   12.8704    3.2003    0.0000 H   0  0  0  0  0  0  0  0  0  0  0  0
   13.3492    3.9349    0.0000 H   0  0  0  0  0  0  0  0  0  0  0  0
   12.6147    4.4137    0.0000 H   0  0  0  0  0  0  0  0  0  0  0  0
   11.5577    4.7592    0.0000 H   0  0  0  0  0  0  0  0  0  0  0  0
   10.6821    4.8066    0.0000 H   0  0  0  0  0  0  0  0  0  0  0  0
   10.6347    3.9310    0.0000 H   0  0  0  0  0  0  0  0  0  0  0  0
 10  1  1  6  0  0  0
  1 60  1  0  0  0  0
 15  2  1  1  0  0  0
  2 66  1  0  0  0  0
 23  3  1  1  0  0  0
  3 69  1  0  0  0  0
  4  5  1  0  0  0  0
  4  6  1  0  0  0  0
  4 14  1  0  0  0  0
  4 31  1  6  0  0  0
  5  7  1  0  0  0  0
  5 13  1  0  0  0  0
  5 32  1  1  0  0  0
  6  9  1  0  0  0  0
  6 11  1  0  0  0  0
  6 19  1  1  0  0  0
  7  8  1  0  0  0  0
  7 12  1  0  0  0  0
  7 33  1  6  0  0  0
  8 10  1  0  0  0  0
  8 17  1  0  0  0  0
  8 21  1  1  0  0  0
  9 16  1  0  0  0  0
  9 20  1  0  0  0  0
  9 34  1  6  0  0  0
 10 15  1  0  0  0  0
 10 18  1  0  0  0  0
 11 12  1  0  0  0  0
 11 35  1  0  0  0  0
 11 36  1  0  0  0  0
 12 37  1  0  0  0  0
 12 38  1  0  0  0  0
 13 15  1  0  0  0  0
 13 39  1  0  0  0  0
 13 40  1  0  0  0  0
 14 16  1  0  0  0  0
 14 41  1  0  0  0  0
 14 42  1  0  0  0  0
 15 43  1  0  0  0  0
 16 44  1  0  0  0  0
 16 45  1  0  0  0  0
 17 22  1  0  0  0  0
 17 46  1  0  0  0  0
 17 47  1  0  0  0  0
 18 23  1  0  0  0  0
 18 48  1  0  0  0  0
 18 49  1  0  0  0  0
 19 50  1  0  0  0  0
 19 51  1  0  0  0  0
 19 52  1  0  0  0  0
 20 24  1  0  0  0  0
 20 25  1  6  0  0  0
 20 53  1  0  0  0  0
 21 54  1  0  0  0  0
 21 55  1  0  0  0  0
 21 56  1  0  0  0  0
 22 23  1  0  0  0  0
 22 57  1  0  0  0  0
 22 58  1  0  0  0  0
 23 59  1  0  0  0  0
 24 26  1  0  0  0  0
 24 61  1  0  0  0  0
 24 62  1  0  0  0  0
 25 63  1  0  0  0  0
 25 64  1  0  0  0  0
 25 65  1  0  0  0  0
 26 27  1  0  0  0  0
 26 67  1  0  0  0  0
 26 68  1  0  0  0  0
 27 28  1  0  0  0  0
 27 70  1  0  0  0  0
 27 71  1  0  0  0  0
 28 29  1  0  0  0  0
 28 30  1  0  0  0  0
 28 72  1  0  0  0  0
 29 73  1  0  0  0  0
 29 74  1  0  0  0  0
 29 75  1  0  0  0  0
 30 76  1  0  0  0  0
 30 77  1  0  0  0  0
 30 78  1  0  0  0  0
M  END
> <PUBCHEM_COMPOUND_CID>
91498

> <PUBCHEM_COMPOUND_CANONICALIZED>
1

> <PUBCHEM_CACTVS_COMPLEXITY>
619

> <PUBCHEM_CACTVS_HBOND_ACCEPTOR>
3

> <PUBCHEM_CACTVS_HBOND_DONOR>
3

> <PUBCHEM_CACTVS_ROTATABLE_BOND>
5

> <PUBCHEM_CACTVS_SUBSKEYS>
AAADcfB4MAAAAAAAAAAAAAAAAAAAAYAAAAAwYMAAAAAAAGDAAAAAGgAACAAAD1SggAICAAAAAgAAAAAAAAAAAAAAAAAAAAAAAAABEAIAAAAAQAAFAAABAAHA4PQPgAAAAAAAAADAAAYQADCAAQAACAAAAA==

> <PUBCHEM_IUPAC_OPENEYE_NAME>
(3S,5R,6R,8S,9S,10R,13R,14S,17R)-17-[(1R)-1,5-dimethylhexyl]-10,13-dimethyl-1,2,3,4,6,7,8,9,11,12,14,15,16,17-tetradecahydrocyclopenta[a]phenanthrene-3,5,6-triol

> <PUBCHEM_IUPAC_CAS_NAME>
(3S,5R,6R,8S,9S,10R,13R,14S,17R)-10,13-dimethyl-17-[(2R)-6-methylheptan-2-yl]-1,2,3,4,6,7,8,9,11,12,14,15,16,17-tetradecahydrocyclopenta[a]phenanthrene-3,5,6-triol

> <PUBCHEM_IUPAC_NAME>
(3S,5R,6R,8S,9S,10R,13R,14S,17R)-10,13-dimethyl-17-[(2R)-6-methylheptan-2-yl]-1,2,3,4,6,7,8,9,11,12,14,15,16,17-tetradecahydrocyclopenta[a]phenanthrene-3,5,6-triol

> <PUBCHEM_IUPAC_SYSTEMATIC_NAME>
(3S,5R,6R,8S,9S,10R,13R,14S,17R)-10,13-dimethyl-17-[(2R)-6-methylheptan-2-yl]-1,2,3,4,6,7,8,9,11,12,14,15,16,17-tetradecahydrocyclopenta[a]phenanthrene-3,5,6-triol

> <PUBCHEM_IUPAC_TRADITIONAL_NAME>
(3S,5R,6R,8S,9S,10R,13R,14S,17R)-17-[(1R)-1,5-dimethylhexyl]-10,13-dimethyl-1,2,3,4,6,7,8,9,11,12,14,15,16,17-tetradecahydrocyclopenta[a]phenanthrene-3,5,6-triol

> <PUBCHEM_IUPAC_INCHI>
InChI=1S/C27H48O3/c1-17(2)7-6-8-18(3)21-9-10-22-20-15-24(29)27(30)16-19(28)11-14-26(27,5)23(20)12-13-25(21,22)4/h17-24,28-30H,6-16H2,1-5H3/t18-,19+,20+,21-,22+,23+,24-,25-,26-,27+/m1/s1

> <PUBCHEM_IUPAC_INCHIKEY>
YMMFNKXZULYSOQ-RUXQDQFYSA-N

> <PUBCHEM_XLOGP3_AA>
7

> <PUBCHEM_EXACT_MASS>
420.360345

> <PUBCHEM_MOLECULAR_FORMULA>
C27H48O3

> <PUBCHEM_MOLECULAR_WEIGHT>
420.66822

> <PUBCHEM_OPENEYE_CAN_SMILES>
CC(C)CCCC(C)C1CCC2C1(CCC3C2CC(C4(C3(CCC(C4)O)C)O)O)C

> <PUBCHEM_OPENEYE_ISO_SMILES>
C[C@H](CCCC(C)C)[C@H]1CC[C@@H]2[C@@]1(CC[C@H]3[C@H]2C[C@H]([C@@]4([C@@]3(CC[C@@H](C4)O)C)O)O)C

> <PUBCHEM_CACTVS_TPSA>
60.7

> <PUBCHEM_MONOISOTOPIC_WEIGHT>
420.360345

> <PUBCHEM_TOTAL_CHARGE>
0

> <PUBCHEM_HEAVY_ATOM_COUNT>
30

> <PUBCHEM_ATOM_DEF_STEREO_COUNT>
10

> <PUBCHEM_ATOM_UDEF_STEREO_COUNT>
0

> <PUBCHEM_BOND_DEF_STEREO_COUNT>
0

> <PUBCHEM_BOND_UDEF_STEREO_COUNT>
0

> <PUBCHEM_ISOTOPIC_ATOM_COUNT>
0

> <PUBCHEM_COMPONENT_COUNT>
1

> <PUBCHEM_CACTVS_TAUTO_COUNT>
1

> <PUBCHEM_COORDINATE_TYPE>
1
5
255

> <PUBCHEM_BONDANNOTATIONS>
10  1  6
15  2  5
20  25  6
23  3  5
4  31  6
5  32  5
6  19  5
7  33  6
8  21  5
9  34  6

$$$$

