51090947
  -OEChem-06241223013D

 49 52  0     1  0  0  0  0  0999 V2000
    5.0869    3.7594    0.6428 Cl  0  0  0  0  0  0  0  0  0  0  0  0
    3.3549   -1.7165   -0.4249 O   0  0  0  0  0  0  0  0  0  0  0  0
    1.5363   -2.3354    1.2411 O   0  0  0  0  0  0  0  0  0  0  0  0
   -3.8498    0.4138    0.1203 N   0  0  0  0  0  0  0  0  0  0  0  0
   -0.2880   -1.8521   -0.1138 N   0  0  0  0  0  0  0  0  0  0  0  0
   -2.9459   -0.7048   -0.1465 C   0  0  0  0  0  0  0  0  0  0  0  0
   -1.8783   -0.2874   -1.1662 C   0  0  0  0  0  0  0  0  0  0  0  0
   -2.2877   -1.1724    1.1579 C   0  0  0  0  0  0  0  0  0  0  0  0
   -0.8650   -1.4100   -1.3894 C   0  0  0  0  0  0  0  0  0  0  0  0
   -1.2677   -2.2772    0.8883 C   0  0  0  0  0  0  0  0  0  0  0  0
   -4.4226    0.9222   -1.1341 C   0  0  0  0  0  0  0  0  0  0  0  0
   -4.9045    0.0095    1.0604 C   0  0  0  0  0  0  0  0  0  0  0  0
   -5.8304    1.1819    1.3887 C   0  0  0  0  0  0  0  0  0  0  0  0
   -5.3328    2.1242   -0.8777 C   0  0  0  0  0  0  0  0  0  0  0  0
   -6.4308    1.7850    0.1240 C   0  0  0  0  0  0  0  0  0  0  0  0
    1.0747   -1.9260    0.1729 C   0  0  0  0  0  0  0  0  0  0  0  0
    2.0187   -1.4672   -0.9097 C   0  0  1  0  0  0  0  0  0  0  0  0
    1.8516    0.0202   -1.2414 C   0  0  0  0  0  0  0  0  0  0  0  0
    3.0359    0.5651   -0.5399 C   0  0  0  0  0  0  0  0  0  0  0  0
    3.8531   -0.4747   -0.1270 C   0  0  0  0  0  0  0  0  0  0  0  0
    3.3988    1.8819   -0.3224 C   0  0  0  0  0  0  0  0  0  0  0  0
    5.0555   -0.2490    0.5150 C   0  0  0  0  0  0  0  0  0  0  0  0
    4.6066    2.1344    0.3331 C   0  0  0  0  0  0  0  0  0  0  0  0
    5.4303    1.0752    0.7485 C   0  0  0  0  0  0  0  0  0  0  0  0
   -3.5100   -1.5486   -0.5704 H   0  0  0  0  0  0  0  0  0  0  0  0
   -2.3040   -0.0826   -2.1532 H   0  0  0  0  0  0  0  0  0  0  0  0
   -1.3608    0.6177   -0.8255 H   0  0  0  0  0  0  0  0  0  0  0  0
   -1.7863   -0.3301    1.6527 H   0  0  0  0  0  0  0  0  0  0  0  0
   -3.0083   -1.5945    1.8642 H   0  0  0  0  0  0  0  0  0  0  0  0
   -0.7716   -2.5573    1.8230 H   0  0  0  0  0  0  0  0  0  0  0  0
   -1.7647   -3.1743    0.5002 H   0  0  0  0  0  0  0  0  0  0  0  0
   -1.3759   -2.2840   -1.8144 H   0  0  0  0  0  0  0  0  0  0  0  0
   -0.1238   -1.1169   -2.1307 H   0  0  0  0  0  0  0  0  0  0  0  0
   -3.6564    1.3090   -1.8110 H   0  0  0  0  0  0  0  0  0  0  0  0
   -4.9802    0.1385   -1.6632 H   0  0  0  0  0  0  0  0  0  0  0  0
   -5.4930   -0.8260    0.6593 H   0  0  0  0  0  0  0  0  0  0  0  0
   -4.4983   -0.3020    2.0260 H   0  0  0  0  0  0  0  0  0  0  0  0
   -5.2692    1.9541    1.9304 H   0  0  0  0  0  0  0  0  0  0  0  0
   -6.6340    0.8454    2.0537 H   0  0  0  0  0  0  0  0  0  0  0  0
   -5.7835    2.4563   -1.8199 H   0  0  0  0  0  0  0  0  0  0  0  0
   -4.7370    2.9629   -0.4951 H   0  0  0  0  0  0  0  0  0  0  0  0
   -7.1292    1.0694   -0.3270 H   0  0  0  0  0  0  0  0  0  0  0  0
   -7.0054    2.6842    0.3717 H   0  0  0  0  0  0  0  0  0  0  0  0
    1.8631   -2.0962   -1.7940 H   0  0  0  0  0  0  0  0  0  0  0  0
    0.9412    0.4830   -0.8582 H   0  0  0  0  0  0  0  0  0  0  0  0
    1.9437    0.1977   -2.3179 H   0  0  0  0  0  0  0  0  0  0  0  0
    2.7578    2.6913   -0.6575 H   0  0  0  0  0  0  0  0  0  0  0  0
    5.6893   -1.0693    0.8328 H   0  0  0  0  0  0  0  0  0  0  0  0
    6.3704    1.2751    1.2574 H   0  0  0  0  0  0  0  0  0  0  0  0
  1 23  1  0  0  0  0
  2 17  1  0  0  0  0
  2 20  1  0  0  0  0
  3 16  2  0  0  0  0
  4  6  1  0  0  0  0
  4 11  1  0  0  0  0
  4 12  1  0  0  0  0
  5  9  1  0  0  0  0
  5 10  1  0  0  0  0
  5 16  1  0  0  0  0
  6  7  1  0  0  0  0
  6  8  1  0  0  0  0
  6 25  1  0  0  0  0
  7  9  1  0  0  0  0
  7 26  1  0  0  0  0
  7 27  1  0  0  0  0
  8 10  1  0  0  0  0
  8 28  1  0  0  0  0
  8 29  1  0  0  0  0
  9 32  1  0  0  0  0
  9 33  1  0  0  0  0
 10 30  1  0  0  0  0
 10 31  1  0  0  0  0
 11 14  1  0  0  0  0
 11 34  1  0  0  0  0
 11 35  1  0  0  0  0
 12 13  1  0  0  0  0
 12 36  1  0  0  0  0
 12 37  1  0  0  0  0
 13 15  1  0  0  0  0
 13 38  1  0  0  0  0
 13 39  1  0  0  0  0
 14 15  1  0  0  0  0
 14 40  1  0  0  0  0
 14 41  1  0  0  0  0
 15 42  1  0  0  0  0
 15 43  1  0  0  0  0
 16 17  1  0  0  0  0
 17 18  1  0  0  0  0
 17 44  1  0  0  0  0
 18 19  1  0  0  0  0
 18 45  1  0  0  0  0
 18 46  1  0  0  0  0
 19 20  2  0  0  0  0
 19 21  1  0  0  0  0
 20 22  1  0  0  0  0
 21 23  2  0  0  0  0
 21 47  1  0  0  0  0
 22 24  2  0  0  0  0
 22 48  1  0  0  0  0
 23 24  1  0  0  0  0
 24 49  1  0  0  0  0
M  END
> <PUBCHEM_COMPOUND_CID>
51090947

> <PUBCHEM_CONFORMER_RMSD>
0.8

> <PUBCHEM_CONFORMER_DIVERSEORDER>
1
25
45
43
50
48
53
46
10
52
36
38
57
32
19
56
35
12
31
34
30
23
4
26
47
40
18
20
41
42
24
22
27
51
16
54
11
44
7
29
5
21
2
49
13
59
55
6
33
58
39
37
15
14
9
17
8
28
3

> <PUBCHEM_MMFF94_PARTIAL_CHARGES>
22
1 -0.18
10 0.3
11 0.27
12 0.27
16 0.57
17 0.34
18 0.14
19 -0.14
2 -0.36
20 0.08
21 -0.15
22 -0.15
23 0.18
24 -0.15
3 -0.57
4 -0.81
47 0.15
48 0.15
49 0.15
5 -0.66
6 0.27
9 0.3

> <PUBCHEM_EFFECTIVE_ROTOR_COUNT>
6

> <PUBCHEM_PHARMACOPHORE_FEATURES>
7
1 2 acceptor
1 3 acceptor
1 4 cation
5 2 17 18 19 20 rings
6 19 20 21 22 23 24 rings
6 4 11 12 13 14 15 rings
6 5 6 7 8 9 10 rings

> <PUBCHEM_HEAVY_ATOM_COUNT>
24

> <PUBCHEM_ATOM_DEF_STEREO_COUNT>
0

> <PUBCHEM_ATOM_UDEF_STEREO_COUNT>
1

> <PUBCHEM_BOND_DEF_STEREO_COUNT>
0

> <PUBCHEM_BOND_UDEF_STEREO_COUNT>
0

> <PUBCHEM_ISOTOPIC_ATOM_COUNT>
0

> <PUBCHEM_COMPONENT_COUNT>
1

> <PUBCHEM_CACTVS_TAUTO_COUNT>
1

> <PUBCHEM_CONFORMER_ID>
030B960300000001

> <PUBCHEM_MMFF94_ENERGY>
49.7128

> <PUBCHEM_FEATURE_SELFOVERLAP>
35.637

> <PUBCHEM_SHAPE_FINGERPRINT>
10 15 17988917860538154017
10074138 170 17417522498459462907
10319926 262 17418365913687027963
10692045 39 18129671923104037530
10928967 22 12031796820679493520
11069576 57 14491298907794371292
11089746 13 18410299137383443454
117089 54 10807121269023014840
11961588 58 15719685281346502158
12107183 9 18342189873265067506
12633257 1 15841548544166471467
13103583 49 14045737158161240341
13402501 40 18413109472056427997
13544653 18 10159697993159344951
13911852 28 10375879571228968393
13955234 65 18197212774978355611
14178342 30 17489296439582208147
14251764 30 9871744694106800121
14251764 38 18196091032256372700
14251764 75 18334289825599210833
14739800 52 18059021712729137529
14848178 96 18334297547939593400
14951699 99 18058161731475477740
15183329 4 6988322686736262443
15188451 53 15984809399761595451
15238133 3 18202274793510165556
15475509 84 17840883081171172520
17810953 82 18410571782292599628
17870717 6 5833986136481705129
193927 3 10591768692106141058
19784866 240 9943804504374018631
20157964 124 18260546770704087055
20715895 44 18408604777227851224
20871999 31 5689605986660909714
21033648 29 17417815101711793613
21033650 10 14273995745838050091
21315763 76 18187087268943865745
21401589 2 18340205181155546689
21452121 103 18341613762635090798
21475661 188 18412827962914527588
22122407 14 18191575553498795169
22849339 104 14635164382530163085
22950370 63 9871477538218576126
23559900 14 18335697303799589814
270888 7 18262237712282301008
2748736 6 18260556597215227256
2838139 119 18335989739453108253
2916195 48 18412544310521201819
33382 64 10735876179358395958
3472631 163 18186802478468219221
34797466 226 18041555949468942367
351380 3 12103842358627689065
3680242 22 18342745147636949704
4259306 186 9295290538429622291
4340502 62 18273209824730703659
439807 62 8574441927830896961
465052 167 11671780477058483912
474 4 18335421249123737066
5104073 3 18201442437148368458
56616090 13 18409451375390303139
5718773 13 8862682174561532948
7970288 3 10592051245125587128

> <PUBCHEM_SHAPE_MULTIPOLES>
474.08
15.24
3.15
1.3
8.51
1.49
0.02
14.35
-3.09
-2.61
-0.55
0.91
-0.15
0.96

> <PUBCHEM_SHAPE_SELFOVERLAP>
1004.696

> <PUBCHEM_SHAPE_VOLUME>
265.9

> <PUBCHEM_COORDINATE_TYPE>
2
5
10

$$$$

