25201749
  -OEChem-07051212512D

103105  0     1  0  0  0  0  0999 V2000
   18.4545    0.2512    0.0000 P   0  0  3  0  0  0  0  0  0  0  0  0
   20.1865    0.2512    0.0000 P   0  0  3  0  0  0  0  0  0  0  0  0
   16.7224   -0.7488    0.0000 O   0  0  0  0  0  0  0  0  0  0  0  0
   23.6982    0.3445    0.0000 O   0  0  0  0  0  0  0  0  0  0  0  0
   14.1244    0.7512    0.0000 O   0  0  0  0  0  0  0  0  0  0  0  0
   17.5885    0.7512    0.0000 O   0  0  0  0  0  0  0  0  0  0  0  0
   14.1244   -1.2488    0.0000 O   0  0  0  0  0  0  0  0  0  0  0  0
   22.1460    2.4149    0.0000 O   0  0  0  0  0  0  0  0  0  0  0  0
   24.2740    2.8672    0.0000 O   0  0  0  0  0  0  0  0  0  0  0  0
   21.0526    0.7512    0.0000 O   0  0  0  0  0  0  0  0  0  0  0  0
   16.7224   -2.7488    0.0000 O   0  0  0  0  0  0  0  0  0  0  0  0
   19.3205   -0.2488    0.0000 O   0  0  0  0  0  0  0  0  0  0  0  0
   18.9545    1.1172    0.0000 O   0  0  0  0  0  0  0  0  0  0  0  0
   11.5263   -0.7488    0.0000 O   0  0  0  0  0  0  0  0  0  0  0  0
   13.2583   -0.7488    0.0000 O   0  0  0  0  0  0  0  0  0  0  0  0
   17.9545   -0.6148    0.0000 O   0  0  0  0  0  0  0  0  0  0  0  0
   20.6865   -0.6148    0.0000 O   0  0  0  0  0  0  0  0  0  0  0  0
   25.1808   -0.7395    0.0000 O   0  0  0  0  0  0  0  0  0  0  0  0
   19.6865    1.1172    0.0000 O   0  0  0  0  0  0  0  0  0  0  0  0
   28.3454    0.6695    0.0000 O   0  0  0  0  0  0  0  0  0  0  0  0
   25.3618    0.9831    0.0000 N   0  0  0  0  0  0  0  0  0  0  0  0
   15.8564    1.7512    0.0000 N   0  0  0  0  0  0  0  0  0  0  0  0
   26.7631   -0.0350    0.0000 N   0  0  0  0  0  0  0  0  0  0  0  0
   14.9904    0.2512    0.0000 C   0  0  2  0  0  0  0  0  0  0  0  0
   15.8564    0.7512    0.0000 C   0  0  2  0  0  0  0  0  0  0  0  0
   14.9904   -0.7488    0.0000 C   0  0  1  0  0  0  0  0  0  0  0  0
   15.8564   -1.2488    0.0000 C   0  0  1  0  0  0  0  0  0  0  0  0
   16.7224    0.2512    0.0000 C   0  0  2  0  0  0  0  0  0  0  0  0
   22.8891    1.7457    0.0000 C   0  0  1  0  0  0  0  0  0  0  0  0
   23.8673    1.9536    0.0000 C   0  0  2  0  0  0  0  0  0  0  0  0
   22.7846    0.7512    0.0000 C   0  0  1  0  0  0  0  0  0  0  0  0
   24.3673    1.0876    0.0000 C   0  0  1  0  0  0  0  0  0  0  0  0
   15.8564   -2.2488    0.0000 C   0  0  0  0  0  0  0  0  0  0  0  0
   21.9186    0.2512    0.0000 C   0  0  0  0  0  0  0  0  0  0  0  0
   13.2583    0.2512    0.0000 C   0  0  0  0  0  0  0  0  0  0  0  0
   12.3923    0.7512    0.0000 C   0  0  0  0  0  0  0  0  0  0  0  0
   11.5263    0.2512    0.0000 C   0  0  1  0  0  0  0  0  0  0  0  0
   25.7685    0.0695    0.0000 C   0  0  0  0  0  0  0  0  0  0  0  0
   25.9496    1.7921    0.0000 C   0  0  0  0  0  0  0  0  0  0  0  0
   10.6603    0.7512    0.0000 C   0  0  0  0  0  0  0  0  0  0  0  0
    9.7942    0.2512    0.0000 C   0  0  0  0  0  0  0  0  0  0  0  0
    8.9282    0.7512    0.0000 C   0  0  0  0  0  0  0  0  0  0  0  0
    8.0622    0.2512    0.0000 C   0  0  0  0  0  0  0  0  0  0  0  0
    7.1962    0.7512    0.0000 C   0  0  0  0  0  0  0  0  0  0  0  0
   26.9441    1.6876    0.0000 C   0  0  0  0  0  0  0  0  0  0  0  0
    6.3301    0.2512    0.0000 C   0  0  0  0  0  0  0  0  0  0  0  0
    5.4641    0.7512    0.0000 C   0  0  0  0  0  0  0  0  0  0  0  0
   27.3509    0.7740    0.0000 C   0  0  0  0  0  0  0  0  0  0  0  0
    4.5981    0.2512    0.0000 C   0  0  0  0  0  0  0  0  0  0  0  0
    3.7320    0.7512    0.0000 C   0  0  0  0  0  0  0  0  0  0  0  0
    2.8660    0.2512    0.0000 C   0  0  0  0  0  0  0  0  0  0  0  0
    2.0000    0.7512    0.0000 C   0  0  0  0  0  0  0  0  0  0  0  0
   14.9904    0.8712    0.0000 H   0  0  0  0  0  0  0  0  0  0  0  0
   16.3933    1.0612    0.0000 H   0  0  0  0  0  0  0  0  0  0  0  0
   14.9904   -1.3688    0.0000 H   0  0  0  0  0  0  0  0  0  0  0  0
   16.3933   -1.5588    0.0000 H   0  0  0  0  0  0  0  0  0  0  0  0
   16.7224    0.8712    0.0000 H   0  0  0  0  0  0  0  0  0  0  0  0
   22.3103    1.5236    0.0000 H   0  0  0  0  0  0  0  0  0  0  0  0
   24.4864    1.9861    0.0000 H   0  0  0  0  0  0  0  0  0  0  0  0
   22.8171    0.1321    0.0000 H   0  0  0  0  0  0  0  0  0  0  0  0
   24.5895    0.5088    0.0000 H   0  0  0  0  0  0  0  0  0  0  0  0
   15.2458   -2.1411    0.0000 H   0  0  0  0  0  0  0  0  0  0  0  0
   15.6444   -2.8314    0.0000 H   0  0  0  0  0  0  0  0  0  0  0  0
   21.5201   -0.2237    0.0000 H   0  0  0  0  0  0  0  0  0  0  0  0
   22.3171   -0.2237    0.0000 H   0  0  0  0  0  0  0  0  0  0  0  0
   16.3933    2.0612    0.0000 H   0  0  0  0  0  0  0  0  0  0  0  0
   15.3195    2.0612    0.0000 H   0  0  0  0  0  0  0  0  0  0  0  0
   14.1244   -1.8688    0.0000 H   0  0  0  0  0  0  0  0  0  0  0  0
   22.2749    3.0213    0.0000 H   0  0  0  0  0  0  0  0  0  0  0  0
   23.9096    3.3688    0.0000 H   0  0  0  0  0  0  0  0  0  0  0  0
   12.7908    1.2262    0.0000 H   0  0  0  0  0  0  0  0  0  0  0  0
   11.9938    1.2262    0.0000 H   0  0  0  0  0  0  0  0  0  0  0  0
   12.0632   -0.0588    0.0000 H   0  0  0  0  0  0  0  0  0  0  0  0
   25.6974    2.3585    0.0000 H   0  0  0  0  0  0  0  0  0  0  0  0
   11.0588    1.2262    0.0000 H   0  0  0  0  0  0  0  0  0  0  0  0
   10.2617    1.2262    0.0000 H   0  0  0  0  0  0  0  0  0  0  0  0
    9.3957   -0.2237    0.0000 H   0  0  0  0  0  0  0  0  0  0  0  0
   10.1928   -0.2237    0.0000 H   0  0  0  0  0  0  0  0  0  0  0  0
    9.3267    1.2262    0.0000 H   0  0  0  0  0  0  0  0  0  0  0  0
    8.5297    1.2262    0.0000 H   0  0  0  0  0  0  0  0  0  0  0  0
   16.7224   -3.3688    0.0000 H   0  0  0  0  0  0  0  0  0  0  0  0
    7.6636   -0.2237    0.0000 H   0  0  0  0  0  0  0  0  0  0  0  0
    8.4607   -0.2237    0.0000 H   0  0  0  0  0  0  0  0  0  0  0  0
    7.5947    1.2262    0.0000 H   0  0  0  0  0  0  0  0  0  0  0  0
    6.7976    1.2262    0.0000 H   0  0  0  0  0  0  0  0  0  0  0  0
    5.9316   -0.2237    0.0000 H   0  0  0  0  0  0  0  0  0  0  0  0
    6.7287   -0.2237    0.0000 H   0  0  0  0  0  0  0  0  0  0  0  0
   27.0152   -0.6014    0.0000 H   0  0  0  0  0  0  0  0  0  0  0  0
   27.3085    2.1892    0.0000 H   0  0  0  0  0  0  0  0  0  0  0  0
    5.8626    1.2262    0.0000 H   0  0  0  0  0  0  0  0  0  0  0  0
    5.0656    1.2262    0.0000 H   0  0  0  0  0  0  0  0  0  0  0  0
    4.1996   -0.2237    0.0000 H   0  0  0  0  0  0  0  0  0  0  0  0
    4.9966   -0.2237    0.0000 H   0  0  0  0  0  0  0  0  0  0  0  0
   18.6445    1.6542    0.0000 H   0  0  0  0  0  0  0  0  0  0  0  0
   10.9893   -1.0588    0.0000 H   0  0  0  0  0  0  0  0  0  0  0  0
    4.1306    1.2262    0.0000 H   0  0  0  0  0  0  0  0  0  0  0  0
    3.3335    1.2262    0.0000 H   0  0  0  0  0  0  0  0  0  0  0  0
   20.3765   -1.1518    0.0000 H   0  0  0  0  0  0  0  0  0  0  0  0
    2.4675   -0.2237    0.0000 H   0  0  0  0  0  0  0  0  0  0  0  0
    3.2646   -0.2237    0.0000 H   0  0  0  0  0  0  0  0  0  0  0  0
    2.3100    1.2881    0.0000 H   0  0  0  0  0  0  0  0  0  0  0  0
    1.4631    1.0612    0.0000 H   0  0  0  0  0  0  0  0  0  0  0  0
    1.6900    0.2143    0.0000 H   0  0  0  0  0  0  0  0  0  0  0  0
  1  6  1  0  0  0  0
  1 12  1  0  0  0  0
  1 13  1  0  0  0  0
  1 16  2  0  0  0  0
  2 10  1  0  0  0  0
  2 12  1  0  0  0  0
  2 17  1  0  0  0  0
  2 19  2  0  0  0  0
  3 27  1  0  0  0  0
  3 28  1  0  0  0  0
  4 31  1  0  0  0  0
  4 32  1  0  0  0  0
 24  5  1  6  0  0  0
  5 35  1  0  0  0  0
 28  6  1  1  0  0  0
 26  7  1  1  0  0  0
  7 68  1  0  0  0  0
 29  8  1  1  0  0  0
  8 69  1  0  0  0  0
 30  9  1  1  0  0  0
  9 70  1  0  0  0  0
 10 34  1  0  0  0  0
 11 33  1  0  0  0  0
 11 81  1  0  0  0  0
 13 94  1  0  0  0  0
 37 14  1  6  0  0  0
 14 95  1  0  0  0  0
 15 35  2  0  0  0  0
 17 98  1  0  0  0  0
 18 38  2  0  0  0  0
 20 48  2  0  0  0  0
 32 21  1  6  0  0  0
 21 38  1  0  0  0  0
 21 39  1  0  0  0  0
 25 22  1  1  0  0  0
 22 66  1  0  0  0  0
 22 67  1  0  0  0  0
 23 38  1  0  0  0  0
 23 48  1  0  0  0  0
 23 88  1  0  0  0  0
 24 25  1  0  0  0  0
 24 26  1  0  0  0  0
 24 53  1  0  0  0  0
 25 28  1  0  0  0  0
 25 54  1  0  0  0  0
 26 27  1  0  0  0  0
 26 55  1  0  0  0  0
 27 33  1  6  0  0  0
 27 56  1  0  0  0  0
 28 57  1  0  0  0  0
 29 30  1  0  0  0  0
 29 31  1  0  0  0  0
 29 58  1  0  0  0  0
 30 32  1  0  0  0  0
 30 59  1  0  0  0  0
 31 34  1  6  0  0  0
 31 60  1  0  0  0  0
 32 61  1  0  0  0  0
 33 62  1  0  0  0  0
 33 63  1  0  0  0  0
 34 64  1  0  0  0  0
 34 65  1  0  0  0  0
 35 36  1  0  0  0  0
 36 37  1  0  0  0  0
 36 71  1  0  0  0  0
 36 72  1  0  0  0  0
 37 40  1  0  0  0  0
 37 73  1  0  0  0  0
 39 45  2  0  0  0  0
 39 74  1  0  0  0  0
 40 41  1  0  0  0  0
 40 75  1  0  0  0  0
 40 76  1  0  0  0  0
 41 42  1  0  0  0  0
 41 77  1  0  0  0  0
 41 78  1  0  0  0  0
 42 43  1  0  0  0  0
 42 79  1  0  0  0  0
 42 80  1  0  0  0  0
 43 44  1  0  0  0  0
 43 82  1  0  0  0  0
 43 83  1  0  0  0  0
 44 46  1  0  0  0  0
 44 84  1  0  0  0  0
 44 85  1  0  0  0  0
 45 48  1  0  0  0  0
 45 89  1  0  0  0  0
 46 47  1  0  0  0  0
 46 86  1  0  0  0  0
 46 87  1  0  0  0  0
 47 49  1  0  0  0  0
 47 90  1  0  0  0  0
 47 91  1  0  0  0  0
 49 50  1  0  0  0  0
 49 92  1  0  0  0  0
 49 93  1  0  0  0  0
 50 51  1  0  0  0  0
 50 96  1  0  0  0  0
 50 97  1  0  0  0  0
 51 52  1  0  0  0  0
 51 99  1  0  0  0  0
 51100  1  0  0  0  0
 52101  1  0  0  0  0
 52102  1  0  0  0  0
 52103  1  0  0  0  0
M  END
> <PUBCHEM_COMPOUND_CID>
25201749

> <PUBCHEM_COMPOUND_CANONICALIZED>
1

> <PUBCHEM_CACTVS_COMPLEXITY>
1310

> <PUBCHEM_CACTVS_HBOND_ACCEPTOR>
19

> <PUBCHEM_CACTVS_HBOND_DONOR>
9

> <PUBCHEM_CACTVS_ROTATABLE_BOND>
23

> <PUBCHEM_CACTVS_SUBSKEYS>
AAADcfB7PgMAAAAAAAAAAAAAAAAAASAAAAAkQAAAAAAAAAAAAAAAHgAQCCAACDzxgAcDCAPABxCIQCHWWICAAAAAAgAIAIEIAECTEBYAgAAPQAAPNyIXAMH4+KeAAAAAAAAAAAAAAAAAAAAAAAAAAAAAAA==

> <PUBCHEM_IUPAC_OPENEYE_NAME>
[(2R,3R,4R,5S,6R)-3-amino-2-[[[(2R,3S,4R,5R)-5-(2,4-dioxopyrimidin-1-yl)-3,4-dihydroxy-tetrahydrofuran-2-yl]methoxy-hydroxy-phosphoryl]oxy-hydroxy-phosphoryl]oxy-5-hydroxy-6-(hydroxymethyl)tetrahydropyran-4-yl] (3R)-3-hydroxytetradecanoate

> <PUBCHEM_IUPAC_CAS_NAME>
(3R)-3-hydroxytetradecanoic acid [(2R,3R,4R,5S,6R)-3-amino-2-[[[(2R,3S,4R,5R)-5-(2,4-dioxo-1-pyrimidinyl)-3,4-dihydroxy-2-oxolanyl]methoxy-hydroxyphosphoryl]oxy-hydroxyphosphoryl]oxy-5-hydroxy-6-(hydroxymethyl)-4-oxanyl] ester

> <PUBCHEM_IUPAC_NAME>
[(2R,3R,4R,5S,6R)-3-amino-2-[[[(2R,3S,4R,5R)-5-(2,4-dioxopyrimidin-1-yl)-3,4-dihydroxyoxolan-2-yl]methoxy-hydroxyphosphoryl]oxy-hydroxyphosphoryl]oxy-5-hydroxy-6-(hydroxymethyl)oxan-4-yl] (3R)-3-hydroxytetradecanoate

> <PUBCHEM_IUPAC_SYSTEMATIC_NAME>
[(2R,3R,4R,5S,6R)-3-azanyl-2-[[[(2R,3S,4R,5R)-5-[2,4-bis(oxidanylidene)pyrimidin-1-yl]-3,4-bis(oxidanyl)oxolan-2-yl]methoxy-oxidanyl-phosphoryl]oxy-oxidanyl-phosphoryl]oxy-6-(hydroxymethyl)-5-oxidanyl-oxan-4-yl] (3R)-3-oxidanyltetradecanoate

> <PUBCHEM_IUPAC_TRADITIONAL_NAME>
(3R)-3-hydroxymyristic acid [(2R,3R,4R,5S,6R)-3-amino-2-[[[(2R,3S,4R,5R)-5-(2,4-diketopyrimidin-1-yl)-3,4-dihydroxy-tetrahydrofuran-2-yl]methoxy-hydroxy-phosphoryl]oxy-hydroxy-phosphoryl]oxy-5-hydroxy-6-methylol-tetrahydropyran-4-yl] ester

> <PUBCHEM_IUPAC_INCHI>
InChI=1S/C29H51N3O18P2/c1-2-3-4-5-6-7-8-9-10-11-17(34)14-21(36)48-26-22(30)28(47-18(15-33)24(26)38)49-52(43,44)50-51(41,42)45-16-19-23(37)25(39)27(46-19)32-13-12-20(35)31-29(32)40/h12-13,17-19,22-28,33-34,37-39H,2-11,14-16,30H2,1H3,(H,41,42)(H,43,44)(H,31,35,40)/t17-,18-,19-,22-,23-,24-,25-,26-,27-,28-/m1/s1

> <PUBCHEM_IUPAC_INCHIKEY>
ZFPNNOXCEDQJQS-SSVOXRMNSA-N

> <PUBCHEM_XLOGP3_AA>
-3.7

> <PUBCHEM_EXACT_MASS>
791.264285

> <PUBCHEM_MOLECULAR_FORMULA>
C29H51N3O18P2

> <PUBCHEM_MOLECULAR_WEIGHT>
791.672064

> <PUBCHEM_OPENEYE_CAN_SMILES>
CCCCCCCCCCCC(CC(=O)OC1C(C(OC(C1O)CO)OP(=O)(O)OP(=O)(O)OCC2C(C(C(O2)N3C=CC(=O)NC3=O)O)O)N)O

> <PUBCHEM_OPENEYE_ISO_SMILES>
CCCCCCCCCCC[C@H](CC(=O)O[C@@H]1[C@H]([C@H](O[C@@H]([C@H]1O)CO)OP(=O)(O)OP(=O)(O)OC[C@@H]2[C@H]([C@H]([C@@H](O2)N3C=CC(=O)NC3=O)O)O)N)O

> <PUBCHEM_CACTVS_TPSA>
324

> <PUBCHEM_MONOISOTOPIC_WEIGHT>
791.264285

> <PUBCHEM_TOTAL_CHARGE>
0

> <PUBCHEM_HEAVY_ATOM_COUNT>
52

> <PUBCHEM_ATOM_DEF_STEREO_COUNT>
10

> <PUBCHEM_ATOM_UDEF_STEREO_COUNT>
0

> <PUBCHEM_BOND_DEF_STEREO_COUNT>
0

> <PUBCHEM_BOND_UDEF_STEREO_COUNT>
0

> <PUBCHEM_ISOTOPIC_ATOM_COUNT>
0

> <PUBCHEM_COMPONENT_COUNT>
1

> <PUBCHEM_CACTVS_TAUTO_COUNT>
3

> <PUBCHEM_COORDINATE_TYPE>
1
5
255

> <PUBCHEM_BONDANNOTATIONS>
37  14  6
32  21  6
21  38  8
21  39  8
25  22  5
23  38  8
23  48  8
27  33  6
31  34  6
39  45  8
45  48  8
24  5  6
28  6  5
26  7  5
29  8  5
30  9  5

$$$$

