168114
  -OEChem-07051213103D

 53 53  0     1  0  0  0  0  0999 V2000
    2.4071    0.5245    1.7162 O   0  0  0  0  0  0  0  0  0  0  0  0
   -0.0477    1.7521    1.2613 O   0  0  0  0  0  0  0  0  0  0  0  0
   -6.6287   -1.6636    0.9887 O   0  0  0  0  0  0  0  0  0  0  0  0
   -7.7789   -0.5053   -1.2613 O   0  0  0  0  0  0  0  0  0  0  0  0
    4.8753    0.3690    0.1412 C   0  0  0  0  0  0  0  0  0  0  0  0
    3.5047   -0.1481   -0.3123 C   0  0  0  0  0  0  0  0  0  0  0  0
    6.0488   -0.3931   -0.4823 C   0  0  0  0  0  0  0  0  0  0  0  0
    2.3523    0.6618    0.2967 C   0  0  1  0  0  0  0  0  0  0  0  0
    7.4158    0.0693    0.0296 C   0  0  0  0  0  0  0  0  0  0  0  0
    1.0011    0.1456   -0.2060 C   0  0  0  0  0  0  0  0  0  0  0  0
    8.5439   -0.7739   -0.5713 C   0  0  0  0  0  0  0  0  0  0  0  0
   -0.1852    0.8841    0.4009 C   0  0  0  0  0  0  0  0  0  0  0  0
    9.9333   -0.3725   -0.0714 C   0  0  0  0  0  0  0  0  0  0  0  0
   -1.5569    0.4379   -0.0869 C   0  0  0  0  0  0  0  0  0  0  0  0
   -2.7153    1.2186    0.5367 C   0  0  0  0  0  0  0  0  0  0  0  0
   11.0598   -1.1896   -0.6851 C   0  0  0  0  0  0  0  0  0  0  0  0
   -4.0706    0.7553    0.0587 C   0  0  0  0  0  0  0  0  0  0  0  0
   -4.7280   -0.2489    0.7511 C   0  0  0  0  0  0  0  0  0  0  0  0
   -4.6313    1.3424   -1.0643 C   0  0  0  0  0  0  0  0  0  0  0  0
   -5.9796   -0.6773    0.3091 C   0  0  0  0  0  0  0  0  0  0  0  0
   -5.8829    0.9139   -1.5065 C   0  0  0  0  0  0  0  0  0  0  0  0
   -6.5570   -0.0960   -0.8197 C   0  0  0  0  0  0  0  0  0  0  0  0
   -6.3801   -3.0062    0.5769 C   0  0  0  0  0  0  0  0  0  0  0  0
    4.9650    1.4321   -0.1141 H   0  0  0  0  0  0  0  0  0  0  0  0
    4.9498    0.2981    1.2331 H   0  0  0  0  0  0  0  0  0  0  0  0
    3.4162   -1.2016   -0.0184 H   0  0  0  0  0  0  0  0  0  0  0  0
    3.4458   -0.1053   -1.4065 H   0  0  0  0  0  0  0  0  0  0  0  0
    6.0116   -0.2820   -1.5730 H   0  0  0  0  0  0  0  0  0  0  0  0
    5.9288   -1.4627   -0.2689 H   0  0  0  0  0  0  0  0  0  0  0  0
    2.4636    1.7261    0.0616 H   0  0  0  0  0  0  0  0  0  0  0  0
    7.5663    1.1253   -0.2239 H   0  0  0  0  0  0  0  0  0  0  0  0
    7.4444   -0.0095    1.1229 H   0  0  0  0  0  0  0  0  0  0  0  0
    0.8819   -0.9118    0.0587 H   0  0  0  0  0  0  0  0  0  0  0  0
    0.9440    0.2473   -1.2951 H   0  0  0  0  0  0  0  0  0  0  0  0
    8.3726   -1.8315   -0.3350 H   0  0  0  0  0  0  0  0  0  0  0  0
    8.5166   -0.6856   -1.6645 H   0  0  0  0  0  0  0  0  0  0  0  0
   10.1058    0.6876   -0.2925 H   0  0  0  0  0  0  0  0  0  0  0  0
    9.9714   -0.4794    1.0193 H   0  0  0  0  0  0  0  0  0  0  0  0
   -1.6600   -0.6291    0.1432 H   0  0  0  0  0  0  0  0  0  0  0  0
   -1.5766    0.5519   -1.1771 H   0  0  0  0  0  0  0  0  0  0  0  0
   -2.6707    1.1411    1.6314 H   0  0  0  0  0  0  0  0  0  0  0  0
   -2.5994    2.2898    0.3233 H   0  0  0  0  0  0  0  0  0  0  0  0
    2.2983   -0.4177    1.9311 H   0  0  0  0  0  0  0  0  0  0  0  0
   12.0267   -0.8602   -0.2921 H   0  0  0  0  0  0  0  0  0  0  0  0
   11.0767   -1.0749   -1.7734 H   0  0  0  0  0  0  0  0  0  0  0  0
   10.9411   -2.2528   -0.4534 H   0  0  0  0  0  0  0  0  0  0  0  0
   -4.2792   -0.7042    1.6300 H   0  0  0  0  0  0  0  0  0  0  0  0
   -4.1127    2.1278   -1.6065 H   0  0  0  0  0  0  0  0  0  0  0  0
   -6.3209    1.3750   -2.3877 H   0  0  0  0  0  0  0  0  0  0  0  0
   -8.0178    0.0072   -2.0527 H   0  0  0  0  0  0  0  0  0  0  0  0
   -5.3216   -3.2558    0.7023 H   0  0  0  0  0  0  0  0  0  0  0  0
   -6.6796   -3.1517   -0.4658 H   0  0  0  0  0  0  0  0  0  0  0  0
   -6.9737   -3.6736    1.2075 H   0  0  0  0  0  0  0  0  0  0  0  0
  1  8  1  0  0  0  0
  1 43  1  0  0  0  0
  2 12  2  0  0  0  0
  3 20  1  0  0  0  0
  3 23  1  0  0  0  0
  4 22  1  0  0  0  0
  4 50  1  0  0  0  0
  5  6  1  0  0  0  0
  5  7  1  0  0  0  0
  5 24  1  0  0  0  0
  5 25  1  0  0  0  0
  6  8  1  0  0  0  0
  6 26  1  0  0  0  0
  6 27  1  0  0  0  0
  7  9  1  0  0  0  0
  7 28  1  0  0  0  0
  7 29  1  0  0  0  0
  8 10  1  0  0  0  0
  8 30  1  0  0  0  0
  9 11  1  0  0  0  0
  9 31  1  0  0  0  0
  9 32  1  0  0  0  0
 10 12  1  0  0  0  0
 10 33  1  0  0  0  0
 10 34  1  0  0  0  0
 11 13  1  0  0  0  0
 11 35  1  0  0  0  0
 11 36  1  0  0  0  0
 12 14  1  0  0  0  0
 13 16  1  0  0  0  0
 13 37  1  0  0  0  0
 13 38  1  0  0  0  0
 14 15  1  0  0  0  0
 14 39  1  0  0  0  0
 14 40  1  0  0  0  0
 15 17  1  0  0  0  0
 15 41  1  0  0  0  0
 15 42  1  0  0  0  0
 16 44  1  0  0  0  0
 16 45  1  0  0  0  0
 16 46  1  0  0  0  0
 17 18  2  0  0  0  0
 17 19  1  0  0  0  0
 18 20  1  0  0  0  0
 18 47  1  0  0  0  0
 19 21  2  0  0  0  0
 19 48  1  0  0  0  0
 20 22  2  0  0  0  0
 21 22  1  0  0  0  0
 21 49  1  0  0  0  0
 23 51  1  0  0  0  0
 23 52  1  0  0  0  0
 23 53  1  0  0  0  0
M  END
> <PUBCHEM_COMPOUND_CID>
168114

> <PUBCHEM_CONFORMER_RMSD>
1.2

> <PUBCHEM_CONFORMER_DIVERSEORDER>
1
256
205
428
273
336
193
343
357
405
309
23
39
46
374
212
254
283
345
202
317
51
270
7
148
85
295
133
143
132
141
145
20
356
114
77
18
392
76
109
58
259
334
332
354
21
84
117
368
188
125
40
24
225
3
213
262
53
68
390
87
131
120
214
175
183
250
379
236
373
15
144
27
17
292
122
65
160
420
286
316
48
37
159
360
312
393
42
50
367
210
389
79
13
416
22
351
80
248
281
427
170
137
174
73
370
12
321
285
184
185
288
182
211
358
338
296
349
365
391
369
151
376
138
306
378
198
142
28
257
124
115
31
47
307
99
277
396
178
69
168
355
167
134
81
136
32
331
66
241
350
261
83
101
305
323
10
359
59
381
412
372
426
280
97
209
126
361
276
100
171
423
35
14
90
226
401
44
166
377
180
371
94
221
190
179
258
92
181
279
322
61
415
244
242
289
147
78
298
347
275
196
86
43
36
399
164
344
163
217
308
362
340
49
303
229
380
82
247
348
215
121
352
266
128
314
112
265
204
113
203
118
302
29
353
366
4
341
123
106
158
105
111
301
278
284
26
231
194
429
67
233
107
34
234
411
255
388
169
56
108
135
103
269
154
41
88
224
271
52
408
62
110
119
240
238
208
263
55
328
64
2
152
421
93
89
95
414
422
245
239
177
186
237
155
424
342
157
189
425
383
274
9
139
219
206
116
11
311
384
102
264
223
251
249
153
8
313
146
300
404
140
230
150
291
220
417
71
98
25
252
409
156
63
406
38
400
104
297
327
227
294
5
199
232
33
172
386
54
162
19
149
282
30
200
272
161
325
387
290
375
60
319
330
324
260
418
129
382
385
293
45
253
329
318
191
130
395
195
75
287
304
243
333
192
176
320
96
187
337
235
165
57
91
267
419
72
74
127
222
268
346
413
216
6
207
363
339
246
315
173
218
310
364
402
197
335
397
228
299
403
16
410
70
201
407
326
394
398

> <PUBCHEM_MMFF94_PARTIAL_CHARGES>
21
1 -0.68
10 0.06
12 0.45
14 0.06
15 0.14
17 -0.14
18 -0.15
19 -0.15
2 -0.57
20 0.08
21 -0.15
22 0.08
23 0.28
3 -0.36
4 -0.53
43 0.4
47 0.15
48 0.15
49 0.15
50 0.45
8 0.28

> <PUBCHEM_EFFECTIVE_ROTOR_COUNT>
12

> <PUBCHEM_PHARMACOPHORE_FEATURES>
9
1 1 acceptor
1 1 donor
1 16 hydrophobe
1 2 acceptor
1 3 acceptor
1 4 donor
3 5 6 7 hydrophobe
3 9 11 13 hydrophobe
6 17 18 19 20 21 22 rings

> <PUBCHEM_HEAVY_ATOM_COUNT>
23

> <PUBCHEM_ATOM_DEF_STEREO_COUNT>
1

> <PUBCHEM_ATOM_UDEF_STEREO_COUNT>
0

> <PUBCHEM_BOND_DEF_STEREO_COUNT>
0

> <PUBCHEM_BOND_UDEF_STEREO_COUNT>
0

> <PUBCHEM_ISOTOPIC_ATOM_COUNT>
0

> <PUBCHEM_COMPONENT_COUNT>
1

> <PUBCHEM_CACTVS_TAUTO_COUNT>
9

> <PUBCHEM_CONFORMER_ID>
000290B200000001

> <PUBCHEM_MMFF94_ENERGY>
42.6467

> <PUBCHEM_FEATURE_SELFOVERLAP>
45.684

> <PUBCHEM_SHAPE_FINGERPRINT>
10299344 5 15285361717449676228
11315181 36 18130786763854999613
12082328 90 18410858806393404836
12091667 2 16845569829639406721
125118 31 8286196154981188346
14150022 121 5112017105937741506
14202775 3 18114455769905247494
14251764 18 15502378907071207656
14251764 46 18410573998500596356
14428016 248 5761647110649056562
14617042 71 8069440632369756850
14729087 3 10015586094701208163
14849402 71 14129640800129832578
15152005 1 17836360446566784123
15183329 4 15769779060951364036
15461852 350 17989484122085148238
155225 1 12895075132685227527
15690457 1 18113620110643708470
15979999 66 18059853957359722844
17093844 174 6843923867483382773
1754911 235 16630807712549057182
1818759 1 17603578648124184974
18335252 98 16877941668612240988
18643901 69 18201156556579722783
18681886 176 17988927734235587393
21150785 3 17704070698860587992
21267235 1 17385725803231484832
21360442 43 16414906462257084011
21360443 89 6988020385854102477
21362267 20 16443073790188002534
21792961 116 18334859441262318932
22224240 67 15140684687732880412
22288116 15 16487249933755410723
232437 2 17022621997301770326
23528940 14 15213312898003509669
23559900 14 18129953265638329241
246663 6 17603585236308539532
3711267 37 9871462154453447534
437795 83 13398364472734916415
636775 72 8790617996217654787
636775 8 18411975845344891466
67123 10 18343863317314666244
8209 1 15195563516599098812
9953998 17 4751155216183954653
999808 66 17967529069242960759

> <PUBCHEM_SHAPE_MULTIPOLES>
449.85
34.03
1.64
1.14
74.86
1.15
-0.01
16.41
9.54
-3.75
-0.28
-1.13
-0.19
1.87

> <PUBCHEM_SHAPE_SELFOVERLAP>
887.497

> <PUBCHEM_SHAPE_VOLUME>
268.7

> <PUBCHEM_COORDINATE_TYPE>
2
5
10

$$$$

