440332
  -OEChem-07051212492D

 42 44  0     1  0  0  0  0  0999 V2000
    4.1296   -0.7148    0.0000 O   0  0  0  0  0  0  0  0  0  0  0  0
    5.8616    0.2852    0.0000 O   0  0  0  0  0  0  0  0  0  0  0  0
    4.7864    1.7570    0.0000 O   0  0  0  0  0  0  0  0  0  0  0  0
    4.1866   -1.8026    0.0000 O   0  0  0  0  0  0  0  0  0  0  0  0
    6.7557   -1.4936    0.0000 O   0  0  0  0  0  0  0  0  0  0  0  0
    2.4141    0.7461    0.0000 O   0  0  0  0  0  0  0  0  0  0  0  0
    6.0834   -3.5627    0.0000 O   0  0  0  0  0  0  0  0  0  0  0  0
    5.8616    2.2852    0.0000 O   0  0  0  0  0  0  0  0  0  0  0  0
    3.7977    3.5921    0.0000 O   0  0  0  0  0  0  0  0  0  0  0  0
    2.9133   -3.4581    0.0000 O   0  0  0  0  0  0  0  0  0  0  0  0
    4.9956   -1.2148    0.0000 C   0  0  2  0  0  0  0  0  0  0  0  0
    4.1296    0.2852    0.0000 C   0  0  2  0  0  0  0  0  0  0  0  0
    4.9956    0.7852    0.0000 C   0  0  2  0  0  0  0  0  0  0  0  0
    5.8046   -1.8026    0.0000 C   0  0  2  0  0  0  0  0  0  0  0  0
    3.3926    0.9523    0.0000 C   0  0  1  0  0  0  0  0  0  0  0  0
    5.8616   -0.7148    0.0000 C   0  0  0  0  0  0  0  0  0  0  0  0
    3.7977    1.8601    0.0000 C   0  0  1  0  0  0  0  0  0  0  0  0
    5.4956   -2.7536    0.0000 C   0  0  1  0  0  0  0  0  0  0  0  0
    4.4956   -2.7536    0.0000 C   0  0  1  0  0  0  0  0  0  0  0  0
    5.8616    1.2852    0.0000 C   0  0  0  0  0  0  0  0  0  0  0  0
    3.2977    2.7261    0.0000 C   0  0  0  0  0  0  0  0  0  0  0  0
    3.9078   -3.5627    0.0000 C   0  0  0  0  0  0  0  0  0  0  0  0
    3.3526   -0.0595    0.0000 H   0  0  0  0  0  0  0  0  0  0  0  0
    5.9016   -1.1902    0.0000 H   0  0  0  0  0  0  0  0  0  0  0  0
    3.2308    0.3538    0.0000 H   0  0  0  0  0  0  0  0  0  0  0  0
    6.0737   -1.2974    0.0000 H   0  0  0  0  0  0  0  0  0  0  0  0
    6.4722   -0.6071    0.0000 H   0  0  0  0  0  0  0  0  0  0  0  0
    4.1351    2.3802    0.0000 H   0  0  0  0  0  0  0  0  0  0  0  0
    6.1080   -2.6566    0.0000 H   0  0  0  0  0  0  0  0  0  0  0  0
    3.8832   -2.6566    0.0000 H   0  0  0  0  0  0  0  0  0  0  0  0
    6.0737    0.7026    0.0000 H   0  0  0  0  0  0  0  0  0  0  0  0
    6.4722    1.3929    0.0000 H   0  0  0  0  0  0  0  0  0  0  0  0
    2.8227    3.1246    0.0000 H   0  0  0  0  0  0  0  0  0  0  0  0
    2.8227    2.3276    0.0000 H   0  0  0  0  0  0  0  0  0  0  0  0
    3.7369   -4.1586    0.0000 H   0  0  0  0  0  0  0  0  0  0  0  0
    4.4651   -3.8344    0.0000 H   0  0  0  0  0  0  0  0  0  0  0  0
    7.2164   -1.9084    0.0000 H   0  0  0  0  0  0  0  0  0  0  0  0
    2.0000    1.2075    0.0000 H   0  0  0  0  0  0  0  0  0  0  0  0
    5.8312   -4.1291    0.0000 H   0  0  0  0  0  0  0  0  0  0  0  0
    6.3986    2.5952    0.0000 H   0  0  0  0  0  0  0  0  0  0  0  0
    3.4877    4.1291    0.0000 H   0  0  0  0  0  0  0  0  0  0  0  0
    2.5489   -3.9597    0.0000 H   0  0  0  0  0  0  0  0  0  0  0  0
 11  1  1  1  0  0  0
  1 12  1  0  0  0  0
  2 13  1  0  0  0  0
  2 16  1  0  0  0  0
  3 13  1  0  0  0  0
  3 17  1  0  0  0  0
  4 11  1  0  0  0  0
  4 19  1  0  0  0  0
 14  5  1  1  0  0  0
  5 37  1  0  0  0  0
 15  6  1  6  0  0  0
  6 38  1  0  0  0  0
 18  7  1  6  0  0  0
  7 39  1  0  0  0  0
  8 20  1  0  0  0  0
  8 40  1  0  0  0  0
  9 21  1  0  0  0  0
  9 41  1  0  0  0  0
 10 22  1  0  0  0  0
 10 42  1  0  0  0  0
 11 14  1  0  0  0  0
 11 16  1  0  0  0  0
 12 13  1  0  0  0  0
 12 15  1  0  0  0  0
 12 23  1  6  0  0  0
 13 20  1  6  0  0  0
 14 18  1  0  0  0  0
 14 24  1  0  0  0  0
 15 17  1  0  0  0  0
 15 25  1  0  0  0  0
 16 26  1  0  0  0  0
 16 27  1  0  0  0  0
 17 21  1  1  0  0  0
 17 28  1  0  0  0  0
 18 19  1  0  0  0  0
 18 29  1  0  0  0  0
 19 22  1  1  0  0  0
 19 30  1  0  0  0  0
 20 31  1  0  0  0  0
 20 32  1  0  0  0  0
 21 33  1  0  0  0  0
 21 34  1  0  0  0  0
 22 35  1  0  0  0  0
 22 36  1  0  0  0  0
M  END
> <PUBCHEM_COMPOUND_CID>
440332

> <PUBCHEM_COMPOUND_CANONICALIZED>
1

> <PUBCHEM_CACTVS_COMPLEXITY>
421

> <PUBCHEM_CACTVS_HBOND_ACCEPTOR>
10

> <PUBCHEM_CACTVS_HBOND_DONOR>
6

> <PUBCHEM_CACTVS_ROTATABLE_BOND>
3

> <PUBCHEM_CACTVS_SUBSKEYS>
AAADceBwPAAAAAAAAAAAAAAAAAAAASJAAAAkAAAAAAAAAEgAAAAAGgAACAAACBSggAIACAAABgAAAAAAAAAAAAAAAAAAAAAAAAAREAIAAAAiQAAFAAAHAAHAYAwAAAAAAAAAAAAAAAAAAAAAAAAAAAAAAA==

> <PUBCHEM_IUPAC_OPENEYE_NAME>
(2S,3'S,4'S,4aR,5'R,6R,7R,7aS)-4a,5',6-tris(hydroxymethyl)spiro[3,6,7,7a-tetrahydrofuro[2,3-b][1,4]dioxine-2,2'-tetrahydrofuran]-3',4',7-triol

> <PUBCHEM_IUPAC_CAS_NAME>
(2S,3'S,4'S,4aR,5'R,6R,7R,7aS)-4a,5',6-tris(hydroxymethyl)spiro[3,6,7,7a-tetrahydrofuro[2,3-b][1,4]dioxin-2,2'-oxolane]-3',4',7-triol

> <PUBCHEM_IUPAC_NAME>
(2S,3'S,4'S,4aR,5'R,6R,7R,7aS)-4a,5',6-tris(hydroxymethyl)spiro[3,6,7,7a-tetrahydrofuro[2,3-b][1,4]dioxine-2,2'-oxolane]-3',4',7-triol

> <PUBCHEM_IUPAC_SYSTEMATIC_NAME>
(2S,3'S,4'S,4aR,5'R,6R,7R,7aS)-4a,5',6-tris(hydroxymethyl)spiro[3,6,7,7a-tetrahydrofuro[2,3-b][1,4]dioxine-2,2'-oxolane]-3',4',7-triol

> <PUBCHEM_IUPAC_TRADITIONAL_NAME>
(2S,3'S,4'S,4aR,5'R,6R,7R,7aS)-4a,5',6-trimethylolspiro[3,6,7,7a-tetrahydrofuro[2,3-b][1,4]dioxin-2,2'-tetrahydrofuran]-3',4',7-triol

> <PUBCHEM_IUPAC_INCHI>
InChI=1S/C12H20O10/c13-1-5-7(16)9(18)12(21-5)4-19-11(3-15)10(22-12)8(17)6(2-14)20-11/h5-10,13-18H,1-4H2/t5-,6-,7-,8-,9+,10+,11-,12+/m1/s1

> <PUBCHEM_IUPAC_INCHIKEY>
KSRQDWNGXKYIDO-IYDDCBTQSA-N

> <PUBCHEM_XLOGP3_AA>
-3.7

> <PUBCHEM_EXACT_MASS>
324.105647

> <PUBCHEM_MOLECULAR_FORMULA>
C12H20O10

> <PUBCHEM_MOLECULAR_WEIGHT>
324.2812

> <PUBCHEM_OPENEYE_CAN_SMILES>
C1C2(C(C(C(O2)CO)O)O)OC3C(C(OC3(O1)CO)CO)O

> <PUBCHEM_OPENEYE_ISO_SMILES>
C1[C@@]2([C@H]([C@@H]([C@H](O2)CO)O)O)O[C@H]3[C@@H]([C@H](O[C@]3(O1)CO)CO)O

> <PUBCHEM_CACTVS_TPSA>
158

> <PUBCHEM_MONOISOTOPIC_WEIGHT>
324.105647

> <PUBCHEM_TOTAL_CHARGE>
0

> <PUBCHEM_HEAVY_ATOM_COUNT>
22

> <PUBCHEM_ATOM_DEF_STEREO_COUNT>
8

> <PUBCHEM_ATOM_UDEF_STEREO_COUNT>
0

> <PUBCHEM_BOND_DEF_STEREO_COUNT>
0

> <PUBCHEM_BOND_UDEF_STEREO_COUNT>
0

> <PUBCHEM_ISOTOPIC_ATOM_COUNT>
0

> <PUBCHEM_COMPONENT_COUNT>
1

> <PUBCHEM_CACTVS_TAUTO_COUNT>
1

> <PUBCHEM_COORDINATE_TYPE>
1
5
255

> <PUBCHEM_BONDANNOTATIONS>
11  1  5
12  23  6
13  20  6
17  21  5
19  22  5
14  5  5
15  6  6
18  7  6

$$$$

