13738
  -OEChem-06241222403D

 37 38  0     0  0  0  0  0  0999 V2000
    0.0664   -1.6677    0.9448 O   0  0  0  0  0  0  0  0  0  0  0  0
    4.0867    0.0738   -0.0564 N   0  0  0  0  0  0  0  0  0  0  0  0
   -0.5376    0.4234    0.4161 N   0  0  0  0  0  0  0  0  0  0  0  0
   -1.3079   -1.7147    0.6780 N   0  0  0  0  0  0  0  0  0  0  0  0
    2.6726   -0.2139   -0.2935 C   0  0  0  0  0  0  0  0  0  0  0  0
    1.8582   -0.0640    0.9930 C   0  0  0  0  0  0  0  0  0  0  0  0
    4.2549    1.4417    0.4328 C   0  0  0  0  0  0  0  0  0  0  0  0
    4.8620   -0.1306   -1.2794 C   0  0  0  0  0  0  0  0  0  0  0  0
    0.4014   -0.3816    0.7618 C   0  0  0  0  0  0  0  0  0  0  0  0
    5.7123    1.7385    0.7430 C   0  0  0  0  0  0  0  0  0  0  0  0
    4.6990   -1.5477   -1.8024 C   0  0  0  0  0  0  0  0  0  0  0  0
   -1.5896   -0.4444    0.3735 C   0  0  0  0  0  0  0  0  0  0  0  0
   -2.9108   -0.0091    0.0228 C   0  0  0  0  0  0  0  0  0  0  0  0
   -3.9628   -0.9254   -0.0099 C   0  0  0  0  0  0  0  0  0  0  0  0
   -3.1458    1.3315   -0.2860 C   0  0  0  0  0  0  0  0  0  0  0  0
   -5.2474   -0.5022   -0.3512 C   0  0  0  0  0  0  0  0  0  0  0  0
   -4.4305    1.7547   -0.6272 C   0  0  0  0  0  0  0  0  0  0  0  0
   -5.4811    0.8378   -0.6597 C   0  0  0  0  0  0  0  0  0  0  0  0
    2.2597    0.4338   -1.0791 H   0  0  0  0  0  0  0  0  0  0  0  0
    2.5278   -1.2488   -0.6223 H   0  0  0  0  0  0  0  0  0  0  0  0
    1.8669    0.9607    1.3767 H   0  0  0  0  0  0  0  0  0  0  0  0
    2.2533   -0.7164    1.7813 H   0  0  0  0  0  0  0  0  0  0  0  0
    3.8652    2.1842   -0.2747 H   0  0  0  0  0  0  0  0  0  0  0  0
    3.7396    1.5884    1.3855 H   0  0  0  0  0  0  0  0  0  0  0  0
    4.5873    0.5850   -2.0646 H   0  0  0  0  0  0  0  0  0  0  0  0
    5.9321   -0.0099   -1.0816 H   0  0  0  0  0  0  0  0  0  0  0  0
    6.1684    0.9478    1.3487 H   0  0  0  0  0  0  0  0  0  0  0  0
    6.3112    1.8848   -0.1612 H   0  0  0  0  0  0  0  0  0  0  0  0
    5.7834    2.6698    1.3164 H   0  0  0  0  0  0  0  0  0  0  0  0
    4.8201   -2.2928   -1.0085 H   0  0  0  0  0  0  0  0  0  0  0  0
    3.7360   -1.7042   -2.2981 H   0  0  0  0  0  0  0  0  0  0  0  0
    5.4694   -1.7492   -2.5557 H   0  0  0  0  0  0  0  0  0  0  0  0
   -3.8191   -1.9772    0.2243 H   0  0  0  0  0  0  0  0  0  0  0  0
   -2.3483    2.0702   -0.2698 H   0  0  0  0  0  0  0  0  0  0  0  0
   -6.0658   -1.2156   -0.3767 H   0  0  0  0  0  0  0  0  0  0  0  0
   -4.6130    2.7980   -0.8675 H   0  0  0  0  0  0  0  0  0  0  0  0
   -6.4813    1.1673   -0.9254 H   0  0  0  0  0  0  0  0  0  0  0  0
  1  4  1  0  0  0  0
  1  9  1  0  0  0  0
  2  5  1  0  0  0  0
  2  7  1  0  0  0  0
  2  8  1  0  0  0  0
  3  9  2  0  0  0  0
  3 12  1  0  0  0  0
  4 12  2  0  0  0  0
  5  6  1  0  0  0  0
  5 19  1  0  0  0  0
  5 20  1  0  0  0  0
  6  9  1  0  0  0  0
  6 21  1  0  0  0  0
  6 22  1  0  0  0  0
  7 10  1  0  0  0  0
  7 23  1  0  0  0  0
  7 24  1  0  0  0  0
  8 11  1  0  0  0  0
  8 25  1  0  0  0  0
  8 26  1  0  0  0  0
 10 27  1  0  0  0  0
 10 28  1  0  0  0  0
 10 29  1  0  0  0  0
 11 30  1  0  0  0  0
 11 31  1  0  0  0  0
 11 32  1  0  0  0  0
 12 13  1  0  0  0  0
 13 14  2  0  0  0  0
 13 15  1  0  0  0  0
 14 16  1  0  0  0  0
 14 33  1  0  0  0  0
 15 17  2  0  0  0  0
 15 34  1  0  0  0  0
 16 18  2  0  0  0  0
 16 35  1  0  0  0  0
 17 18  1  0  0  0  0
 17 36  1  0  0  0  0
 18 37  1  0  0  0  0
M  END
> <PUBCHEM_COMPOUND_CID>
13738

> <PUBCHEM_CONFORMER_RMSD>
0.8

> <PUBCHEM_CONFORMER_DIVERSEORDER>
2
16
20
15
19
8
22
6
10
7
13
5
12
21
11
9
17
1
14
4
3
18

> <PUBCHEM_MMFF94_PARTIAL_CHARGES>
21
1 -0.02
12 0.46
13 0.05
14 -0.15
15 -0.15
16 -0.15
17 -0.15
18 -0.15
2 -0.81
3 -0.57
33 0.15
34 0.15
35 0.15
36 0.15
37 0.15
4 -0.41
5 0.27
6 0.18
7 0.27
8 0.27
9 0.3

> <PUBCHEM_EFFECTIVE_ROTOR_COUNT>
6

> <PUBCHEM_PHARMACOPHORE_FEATURES>
4
1 2 cation
3 3 4 12 cation
5 1 3 4 9 12 rings
6 13 14 15 16 17 18 rings

> <PUBCHEM_HEAVY_ATOM_COUNT>
18

> <PUBCHEM_ATOM_DEF_STEREO_COUNT>
0

> <PUBCHEM_ATOM_UDEF_STEREO_COUNT>
0

> <PUBCHEM_BOND_DEF_STEREO_COUNT>
0

> <PUBCHEM_BOND_UDEF_STEREO_COUNT>
0

> <PUBCHEM_ISOTOPIC_ATOM_COUNT>
0

> <PUBCHEM_COMPONENT_COUNT>
1

> <PUBCHEM_CACTVS_TAUTO_COUNT>
3

> <PUBCHEM_CONFORMER_ID>
000035AA00000002

> <PUBCHEM_MMFF94_ENERGY>
28.339

> <PUBCHEM_FEATURE_SELFOVERLAP>
20.297

> <PUBCHEM_SHAPE_FINGERPRINT>
10378564 45 18337672052584014454
10498660 4 18272096049332272117
10670039 82 17417241173637373620
10912923 1 15267057008788332026
11287383 113 18186803556383710260
12236239 1 16988570078311466240
12390115 104 18266734861380521897
12596602 18 12391509806464671693
12670543 26 18262516004350278023
12916748 109 18272086084738684857
13288520 33 7493008487766422609
13533116 47 15647048296594936182
13631057 29 16127799748666341955
13668630 136 16443057314244391964
14341114 328 15410890777600920893
14528608 73 18343585148349781271
14573314 32 18408318908393822404
15183329 4 18041554844791889350
15348495 7 11167933654307110180
17844677 252 18114174259117591280
1813 80 4750873745248861370
18222031 100 5473142938220285898
193927 3 5978099184972900797
19784866 140 17458344182327052387
200 152 16153422870001810194
204376 136 15339115749645773395
20645477 56 18339361859931743952
20645477 70 17603576448805621214
22061861 79 17821725065576752926
221357 26 18113621204953572865
23366157 5 17415007038882433963
23402539 116 18341058436242994485
23557571 272 18267020566139902826
23559900 14 18334010588996079082
2767999 5 17632584841820480205
2916195 48 18340213994339163512
29717793 49 16950556722997257564
3004659 81 17167857600057447846
32948 21 18341888641111513310
3472631 163 17846211095639606012
34797466 226 18260547796963926317
351380 3 4751158518845091364
441001 317 18342742909932770281
474 4 16774072981766892947
49783359 22 10807931566179110465
4990 188 18333450958308780322
5104073 3 17917433185199264889
5281201 14 18187359939559340132
960060 61 16950000331564444040
9841814 1 4895261599909611570

> <PUBCHEM_SHAPE_MULTIPOLES>
349.62
14.44
1.71
1.16
3.61
0.17
-0.25
4.11
-4.62
0.74
-0.06
1.12
-0.31
1.99

> <PUBCHEM_SHAPE_SELFOVERLAP>
724.816

> <PUBCHEM_SHAPE_VOLUME>
201.9

> <PUBCHEM_COORDINATE_TYPE>
2
5
10

$$$$

