9811
  -OEChem-06261204053D

 22 23  0     0  0  0  0  0  0999 V2000
    4.8526    0.0000    0.0002 F   0  0  0  0  0  0  0  0  0  0  0  0
   -4.8527    0.0001   -0.0001 F   0  0  0  0  0  0  0  0  0  0  0  0
    0.7233   -0.0001    0.0001 C   0  0  0  0  0  0  0  0  0  0  0  0
   -0.7233   -0.0001   -0.0001 C   0  0  0  0  0  0  0  0  0  0  0  0
    1.4207    1.1668    0.3127 C   0  0  0  0  0  0  0  0  0  0  0  0
   -1.4207    1.1667   -0.3128 C   0  0  0  0  0  0  0  0  0  0  0  0
    1.4208   -1.1669   -0.3126 C   0  0  0  0  0  0  0  0  0  0  0  0
   -1.4209   -1.1668    0.3126 C   0  0  0  0  0  0  0  0  0  0  0  0
    2.8156    1.1669    0.3126 C   0  0  0  0  0  0  0  0  0  0  0  0
   -2.8156    1.1669   -0.3126 C   0  0  0  0  0  0  0  0  0  0  0  0
    2.8157   -1.1668   -0.3127 C   0  0  0  0  0  0  0  0  0  0  0  0
   -2.8156   -1.1668    0.3127 C   0  0  0  0  0  0  0  0  0  0  0  0
    3.5130    0.0001   -0.0002 C   0  0  0  0  0  0  0  0  0  0  0  0
   -3.5130    0.0001    0.0001 C   0  0  0  0  0  0  0  0  0  0  0  0
    0.9215    2.0904    0.5925 H   0  0  0  0  0  0  0  0  0  0  0  0
   -0.9214    2.0903   -0.5925 H   0  0  0  0  0  0  0  0  0  0  0  0
    0.9216   -2.0905   -0.5922 H   0  0  0  0  0  0  0  0  0  0  0  0
   -0.9216   -2.0905    0.5922 H   0  0  0  0  0  0  0  0  0  0  0  0
    3.3595    2.0731    0.5625 H   0  0  0  0  0  0  0  0  0  0  0  0
   -3.3595    2.0730   -0.5626 H   0  0  0  0  0  0  0  0  0  0  0  0
    3.3596   -2.0730   -0.5626 H   0  0  0  0  0  0  0  0  0  0  0  0
   -3.3596   -2.0730    0.5626 H   0  0  0  0  0  0  0  0  0  0  0  0
  1 13  1  0  0  0  0
  2 14  1  0  0  0  0
  3  4  1  0  0  0  0
  3  5  2  0  0  0  0
  3  7  1  0  0  0  0
  4  6  2  0  0  0  0
  4  8  1  0  0  0  0
  5  9  1  0  0  0  0
  5 15  1  0  0  0  0
  6 10  1  0  0  0  0
  6 16  1  0  0  0  0
  7 11  2  0  0  0  0
  7 17  1  0  0  0  0
  8 12  2  0  0  0  0
  8 18  1  0  0  0  0
  9 13  2  0  0  0  0
  9 19  1  0  0  0  0
 10 14  2  0  0  0  0
 10 20  1  0  0  0  0
 11 13  1  0  0  0  0
 11 21  1  0  0  0  0
 12 14  1  0  0  0  0
 12 22  1  0  0  0  0
M  END
> <PUBCHEM_COMPOUND_CID>
9811

> <PUBCHEM_CONFORMER_RMSD>
0.4

> <PUBCHEM_CONFORMER_DIVERSEORDER>
2
1

> <PUBCHEM_MMFF94_PARTIAL_CHARGES>
20
1 -0.19
10 -0.15
11 -0.15
12 -0.15
13 0.19
14 0.19
15 0.15
16 0.15
17 0.15
18 0.15
19 0.15
2 -0.19
20 0.15
21 0.15
22 0.15
5 -0.15
6 -0.15
7 -0.15
8 -0.15
9 -0.15

> <PUBCHEM_EFFECTIVE_ROTOR_COUNT>
1

> <PUBCHEM_PHARMACOPHORE_FEATURES>
2
6 3 5 7 9 11 13 rings
6 4 6 8 10 12 14 rings

> <PUBCHEM_HEAVY_ATOM_COUNT>
14

> <PUBCHEM_ATOM_DEF_STEREO_COUNT>
0

> <PUBCHEM_ATOM_UDEF_STEREO_COUNT>
0

> <PUBCHEM_BOND_DEF_STEREO_COUNT>
0

> <PUBCHEM_BOND_UDEF_STEREO_COUNT>
0

> <PUBCHEM_ISOTOPIC_ATOM_COUNT>
0

> <PUBCHEM_COMPONENT_COUNT>
1

> <PUBCHEM_CACTVS_TAUTO_COUNT>
1

> <PUBCHEM_CONFORMER_ID>
0000265300000002

> <PUBCHEM_MMFF94_ENERGY>
40.1929

> <PUBCHEM_FEATURE_SELFOVERLAP>
10.149

> <PUBCHEM_SHAPE_FINGERPRINT>
10608611 8 18410860961981729185
11132069 177 18340775844664684937
11471102 20 18334014990815395876
11615757 297 17603301531447217488
12032990 46 18410851062081650691
13380535 76 18410855460128636007
13581323 91 17989490727122415461
14144814 61 18410575123317784795
14325111 11 18410856572540665133
15219456 202 18409167718380016261
15309172 13 17603300444979007055
15442244 35 18120652697803177874
16945 1 18410575084663078918
17802600 8 18410860961981560288
18175812 5 18410573942201778398
18186145 218 18337951319578256501
18522853 276 18333450949755912128
200 152 17749113287856305863
20201158 50 18408321098732359922
20279233 1 18410569587105193378
20510252 161 18336827606189907193
20528008 55 18410295796178182279
20645477 70 18187927343204164662
21267235 1 18410846664035366946
23402539 116 18411146831231755743
23402655 69 18261681470999003629
23557571 272 17988362667000303196
23559900 14 18338801242631211582
474 4 15840127911304614164
5104073 3 18410855490192933850
53812653 166 18410295813342292362
6333449 129 18412547608871520727
69090 78 18335144180852121999
8809292 202 18271522009472397986
9709674 26 18410287008401444295

> <PUBCHEM_SHAPE_MULTIPOLES>
273.57
7.82
1.42
0.66
0
0
0
0
0
0
0
0
0
0.47

> <PUBCHEM_SHAPE_SELFOVERLAP>
599.756

> <PUBCHEM_SHAPE_VOLUME>
149.4

> <PUBCHEM_COORDINATE_TYPE>
2
5
10

$$$$

