17395402
  -OEChem-06241222502D

 40 42  0     0  0  0  0  0  0999 V2000
    9.0084    0.4947    0.0000 S   0  0  0  0  0  0  0  0  0  0  0  0
   12.5920   -0.3100    0.0000 O   0  0  0  0  0  0  0  0  0  0  0  0
    4.5981   -0.8100    0.0000 O   0  0  0  0  0  0  0  0  0  0  0  0
   10.5920   -0.3100    0.0000 N   0  0  0  0  0  0  0  0  0  0  0  0
    9.0084   -1.1147    0.0000 N   0  0  0  0  0  0  0  0  0  0  0  0
    5.4641    0.6900    0.0000 N   0  0  0  0  0  0  0  0  0  0  0  0
   11.0920    0.5560    0.0000 C   0  0  0  0  0  0  0  0  0  0  0  0
   11.0920   -1.1760    0.0000 C   0  0  0  0  0  0  0  0  0  0  0  0
   12.0920    0.5560    0.0000 C   0  0  0  0  0  0  0  0  0  0  0  0
   12.0920   -1.1760    0.0000 C   0  0  0  0  0  0  0  0  0  0  0  0
    9.5920   -0.3100    0.0000 C   0  0  0  0  0  0  0  0  0  0  0  0
    8.0622    0.1900    0.0000 C   0  0  0  0  0  0  0  0  0  0  0  0
    8.0622   -0.8100    0.0000 C   0  0  0  0  0  0  0  0  0  0  0  0
    7.1962    0.6900    0.0000 C   0  0  0  0  0  0  0  0  0  0  0  0
    6.3301    0.1900    0.0000 C   0  0  0  0  0  0  0  0  0  0  0  0
    7.1962   -1.3100    0.0000 C   0  0  0  0  0  0  0  0  0  0  0  0
    6.3301   -0.8100    0.0000 C   0  0  0  0  0  0  0  0  0  0  0  0
    3.7320    0.6900    0.0000 C   0  0  0  0  0  0  0  0  0  0  0  0
    2.8660    0.1900    0.0000 C   0  0  0  0  0  0  0  0  0  0  0  0
    4.5981    0.1900    0.0000 C   0  0  0  0  0  0  0  0  0  0  0  0
    2.0000    0.6900    0.0000 C   0  0  0  0  0  0  0  0  0  0  0  0
   10.5094   -1.3881    0.0000 H   0  0  0  0  0  0  0  0  0  0  0  0
   11.1997   -1.7866    0.0000 H   0  0  0  0  0  0  0  0  0  0  0  0
   11.1997    1.1666    0.0000 H   0  0  0  0  0  0  0  0  0  0  0  0
   10.5094    0.7681    0.0000 H   0  0  0  0  0  0  0  0  0  0  0  0
   11.9843   -1.7866    0.0000 H   0  0  0  0  0  0  0  0  0  0  0  0
   12.6746   -1.3881    0.0000 H   0  0  0  0  0  0  0  0  0  0  0  0
   12.6746    0.7681    0.0000 H   0  0  0  0  0  0  0  0  0  0  0  0
   11.9843    1.1666    0.0000 H   0  0  0  0  0  0  0  0  0  0  0  0
    7.1962    1.3100    0.0000 H   0  0  0  0  0  0  0  0  0  0  0  0
    7.1962   -1.9300    0.0000 H   0  0  0  0  0  0  0  0  0  0  0  0
    5.7932   -1.1200    0.0000 H   0  0  0  0  0  0  0  0  0  0  0  0
    4.1306    1.1650    0.0000 H   0  0  0  0  0  0  0  0  0  0  0  0
    3.3335    1.1650    0.0000 H   0  0  0  0  0  0  0  0  0  0  0  0
    5.4641    1.3100    0.0000 H   0  0  0  0  0  0  0  0  0  0  0  0
    2.4675   -0.2849    0.0000 H   0  0  0  0  0  0  0  0  0  0  0  0
    3.2646   -0.2849    0.0000 H   0  0  0  0  0  0  0  0  0  0  0  0
    2.3100    1.2269    0.0000 H   0  0  0  0  0  0  0  0  0  0  0  0
    1.4631    1.0000    0.0000 H   0  0  0  0  0  0  0  0  0  0  0  0
    1.6900    0.1531    0.0000 H   0  0  0  0  0  0  0  0  0  0  0  0
  1 11  1  0  0  0  0
  1 12  1  0  0  0  0
  2  9  1  0  0  0  0
  2 10  1  0  0  0  0
  3 20  2  0  0  0  0
  4  7  1  0  0  0  0
  4  8  1  0  0  0  0
  4 11  1  0  0  0  0
  5 11  2  0  0  0  0
  5 13  1  0  0  0  0
  6 15  1  0  0  0  0
  6 20  1  0  0  0  0
  6 35  1  0  0  0  0
  7  9  1  0  0  0  0
  7 24  1  0  0  0  0
  7 25  1  0  0  0  0
  8 10  1  0  0  0  0
  8 22  1  0  0  0  0
  8 23  1  0  0  0  0
  9 28  1  0  0  0  0
  9 29  1  0  0  0  0
 10 26  1  0  0  0  0
 10 27  1  0  0  0  0
 12 13  2  0  0  0  0
 12 14  1  0  0  0  0
 13 16  1  0  0  0  0
 14 15  2  0  0  0  0
 14 30  1  0  0  0  0
 15 17  1  0  0  0  0
 16 17  2  0  0  0  0
 16 31  1  0  0  0  0
 17 32  1  0  0  0  0
 18 19  1  0  0  0  0
 18 20  1  0  0  0  0
 18 33  1  0  0  0  0
 18 34  1  0  0  0  0
 19 21  1  0  0  0  0
 19 36  1  0  0  0  0
 19 37  1  0  0  0  0
 21 38  1  0  0  0  0
 21 39  1  0  0  0  0
 21 40  1  0  0  0  0
M  END
> <PUBCHEM_COMPOUND_CID>
17395402

> <PUBCHEM_COMPOUND_CANONICALIZED>
1

> <PUBCHEM_CACTVS_COMPLEXITY>
363

> <PUBCHEM_CACTVS_HBOND_ACCEPTOR>
5

> <PUBCHEM_CACTVS_HBOND_DONOR>
1

> <PUBCHEM_CACTVS_ROTATABLE_BOND>
4

> <PUBCHEM_CACTVS_SUBSKEYS>
AAADceBzMABAAAAAAAAAAAAAAAAAAWAAAAA8QAAAAAAAAFgB8AAAHgQQAAAACAjh1gYz0bPIFAisASVydACD8KlhCjhJmD04ZJiKILLgmZGHIAxolALYyCcQAAAAAACAACAAAQAAAQAAQAACAAAAAAAAAA==

> <PUBCHEM_IUPAC_OPENEYE_NAME>
N-(2-morpholino-1,3-benzothiazol-6-yl)butanamide

> <PUBCHEM_IUPAC_CAS_NAME>
N-[2-(4-morpholinyl)-1,3-benzothiazol-6-yl]butanamide

> <PUBCHEM_IUPAC_NAME>
N-(2-morpholin-4-yl-1,3-benzothiazol-6-yl)butanamide

> <PUBCHEM_IUPAC_SYSTEMATIC_NAME>
N-(2-morpholin-4-yl-1,3-benzothiazol-6-yl)butanamide

> <PUBCHEM_IUPAC_TRADITIONAL_NAME>
N-(2-morpholino-1,3-benzothiazol-6-yl)butyramide

> <PUBCHEM_IUPAC_INCHI>
InChI=1S/C15H19N3O2S/c1-2-3-14(19)16-11-4-5-12-13(10-11)21-15(17-12)18-6-8-20-9-7-18/h4-5,10H,2-3,6-9H2,1H3,(H,16,19)

> <PUBCHEM_IUPAC_INCHIKEY>
ICRCSWMNUQNFBV-UHFFFAOYSA-N

> <PUBCHEM_XLOGP3_AA>
2.5

> <PUBCHEM_EXACT_MASS>
305.119798

> <PUBCHEM_MOLECULAR_FORMULA>
C15H19N3O2S

> <PUBCHEM_MOLECULAR_WEIGHT>
305.39526

> <PUBCHEM_OPENEYE_CAN_SMILES>
CCCC(=O)NC1=CC2=C(C=C1)N=C(S2)N3CCOCC3

> <PUBCHEM_OPENEYE_ISO_SMILES>
CCCC(=O)NC1=CC2=C(C=C1)N=C(S2)N3CCOCC3

> <PUBCHEM_CACTVS_TPSA>
82.7

> <PUBCHEM_MONOISOTOPIC_WEIGHT>
305.119798

> <PUBCHEM_TOTAL_CHARGE>
0

> <PUBCHEM_HEAVY_ATOM_COUNT>
21

> <PUBCHEM_ATOM_DEF_STEREO_COUNT>
0

> <PUBCHEM_ATOM_UDEF_STEREO_COUNT>
0

> <PUBCHEM_BOND_DEF_STEREO_COUNT>
0

> <PUBCHEM_BOND_UDEF_STEREO_COUNT>
0

> <PUBCHEM_ISOTOPIC_ATOM_COUNT>
0

> <PUBCHEM_COMPONENT_COUNT>
1

> <PUBCHEM_CACTVS_TAUTO_COUNT>
3

> <PUBCHEM_COORDINATE_TYPE>
1
5
255

> <PUBCHEM_BONDANNOTATIONS>
1  11  8
1  12  8
12  13  8
12  14  8
13  16  8
14  15  8
15  17  8
16  17  8
5  11  8
5  13  8

$$$$

