80220
  -OEChem-07051213082D

 18 19  0     0  0  0  0  0  0999 V2000
    3.7320    1.8100    0.0000 O   0  0  0  0  0  0  0  0  0  0  0  0
    2.0000   -1.1900    0.0000 O   0  0  0  0  0  0  0  0  0  0  0  0
    2.8660    0.3100    0.0000 N   0  0  0  0  0  0  0  0  0  0  0  0
    3.7320   -1.1900    0.0000 N   0  0  0  0  0  0  0  0  0  0  0  0
    5.5443    0.6147    0.0000 N   0  0  0  0  0  0  0  0  0  0  0  0
    5.5443   -0.9947    0.0000 N   0  0  0  0  0  0  0  0  0  0  0  0
    4.5981    0.3100    0.0000 C   0  0  0  0  0  0  0  0  0  0  0  0
    4.5981   -0.6900    0.0000 C   0  0  0  0  0  0  0  0  0  0  0  0
    3.7320    0.8100    0.0000 C   0  0  0  0  0  0  0  0  0  0  0  0
    2.8660   -0.6900    0.0000 C   0  0  0  0  0  0  0  0  0  0  0  0
    2.0000    0.8100    0.0000 C   0  0  0  0  0  0  0  0  0  0  0  0
    6.1279   -0.1900    0.0000 C   0  0  0  0  0  0  0  0  0  0  0  0
    3.7320   -1.8100    0.0000 H   0  0  0  0  0  0  0  0  0  0  0  0
    5.7369    1.2040    0.0000 H   0  0  0  0  0  0  0  0  0  0  0  0
    2.3100    1.3469    0.0000 H   0  0  0  0  0  0  0  0  0  0  0  0
    1.4631    1.1200    0.0000 H   0  0  0  0  0  0  0  0  0  0  0  0
    1.6900    0.2731    0.0000 H   0  0  0  0  0  0  0  0  0  0  0  0
    6.7479   -0.1900    0.0000 H   0  0  0  0  0  0  0  0  0  0  0  0
  1  9  2  0  0  0  0
  2 10  2  0  0  0  0
  3  9  1  0  0  0  0
  3 10  1  0  0  0  0
  3 11  1  0  0  0  0
  4  8  1  0  0  0  0
  4 10  1  0  0  0  0
  4 13  1  0  0  0  0
  5  7  1  0  0  0  0
  5 12  1  0  0  0  0
  5 14  1  0  0  0  0
  6  8  1  0  0  0  0
  6 12  2  0  0  0  0
  7  8  2  0  0  0  0
  7  9  1  0  0  0  0
 11 15  1  0  0  0  0
 11 16  1  0  0  0  0
 11 17  1  0  0  0  0
 12 18  1  0  0  0  0
M  END
> <PUBCHEM_COMPOUND_CID>
80220

> <PUBCHEM_COMPOUND_CANONICALIZED>
1

> <PUBCHEM_CACTVS_COMPLEXITY>
242

> <PUBCHEM_CACTVS_HBOND_ACCEPTOR>
3

> <PUBCHEM_CACTVS_HBOND_DONOR>
2

> <PUBCHEM_CACTVS_ROTATABLE_BOND>
0

> <PUBCHEM_CACTVS_SUBSKEYS>
AAADcYBjsAAAAAAAAAAAAAAAAAAAAWAAAAAsAAAAAAAAAFgBgAAAHgAQAAAACAgBlgQHsBfJkACoAQdxdACAgC2XEKABUYGoVECASAhASCAUAIgIByJAAGAAAAAAAAAAAAAAAAAAAAAAAAAAAAAAAAAAAA==

> <PUBCHEM_IUPAC_OPENEYE_NAME>
1-methyl-3,7-dihydropurine-2,6-dione

> <PUBCHEM_IUPAC_CAS_NAME>
1-methyl-3,7-dihydropurine-2,6-dione

> <PUBCHEM_IUPAC_NAME>
1-methyl-3,7-dihydropurine-2,6-dione

> <PUBCHEM_IUPAC_SYSTEMATIC_NAME>
1-methyl-3,7-dihydropurine-2,6-dione

> <PUBCHEM_IUPAC_TRADITIONAL_NAME>
1-methyl-7H-xanthine

> <PUBCHEM_IUPAC_INCHI>
InChI=1S/C6H6N4O2/c1-10-5(11)3-4(8-2-7-3)9-6(10)12/h2H,1H3,(H,7,8)(H,9,12)

> <PUBCHEM_IUPAC_INCHIKEY>
MVOYJPOZRLFTCP-UHFFFAOYSA-N

> <PUBCHEM_XLOGP3>
-0.3

> <PUBCHEM_EXACT_MASS>
166.049075

> <PUBCHEM_MOLECULAR_FORMULA>
C6H6N4O2

> <PUBCHEM_MOLECULAR_WEIGHT>
166.13744

> <PUBCHEM_OPENEYE_CAN_SMILES>
CN1C(=O)C2=C(NC1=O)N=CN2

> <PUBCHEM_OPENEYE_ISO_SMILES>
CN1C(=O)C2=C(NC1=O)N=CN2

> <PUBCHEM_CACTVS_TPSA>
78.1

> <PUBCHEM_MONOISOTOPIC_WEIGHT>
166.049075

> <PUBCHEM_TOTAL_CHARGE>
0

> <PUBCHEM_HEAVY_ATOM_COUNT>
12

> <PUBCHEM_ATOM_DEF_STEREO_COUNT>
0

> <PUBCHEM_ATOM_UDEF_STEREO_COUNT>
0

> <PUBCHEM_BOND_DEF_STEREO_COUNT>
0

> <PUBCHEM_BOND_UDEF_STEREO_COUNT>
0

> <PUBCHEM_ISOTOPIC_ATOM_COUNT>
0

> <PUBCHEM_COMPONENT_COUNT>
1

> <PUBCHEM_CACTVS_TAUTO_COUNT>
12

> <PUBCHEM_COORDINATE_TYPE>
1
5
255

> <PUBCHEM_BONDANNOTATIONS>
3  10  8
3  9  8
4  10  8
4  8  8
5  12  8
5  7  8
6  12  8
6  8  8
7  8  8
7  9  8

$$$$

