46174020
  -OEChem-07051213113D

 56 57  0     1  0  0  0  0  0999 V2000
    0.3781   -0.2802   -0.0531 O   0  0  0  0  0  0  0  0  0  0  0  0
    2.5532   -0.4954   -0.9469 O   0  0  0  0  0  0  0  0  0  0  0  0
   -3.8784    0.8322    1.3732 O   0  0  0  0  0  0  0  0  0  0  0  0
   -2.2665   -0.0707   -2.5379 O   0  0  0  0  0  0  0  0  0  0  0  0
   -1.1633    1.2376    1.6993 O   0  0  0  0  0  0  0  0  0  0  0  0
   -3.8114   -1.3736   -0.4854 N   0  0  0  0  0  0  0  0  0  0  0  0
    0.3219    2.5784   -0.3485 N   0  0  0  0  0  0  0  0  0  0  0  0
    0.4196   -3.0223    0.7612 N   0  0  0  0  0  0  0  0  0  0  0  0
    4.1084    1.7929   -1.3398 N   0  0  0  0  0  0  0  0  0  0  0  0
   -0.4130    0.3222   -1.0751 C   0  0  2  0  0  0  0  0  0  0  0  0
   -2.6228   -0.5734   -0.1716 C   0  0  1  0  0  0  0  0  0  0  0  0
   -0.8442    1.7462   -0.6567 C   0  0  1  0  0  0  0  0  0  0  0  0
   -1.6348   -0.5673   -1.3579 C   0  0  1  0  0  0  0  0  0  0  0  0
   -3.0419    0.8572    0.2173 C   0  0  2  0  0  0  0  0  0  0  0  0
   -1.8211    1.7371    0.5324 C   0  0  1  0  0  0  0  0  0  0  0  0
    1.3383   -1.1709   -0.6002 C   0  0  1  0  0  0  0  0  0  0  0  0
    1.6390   -2.3169    0.3769 C   0  0  1  0  0  0  0  0  0  0  0  0
    3.2284    0.0796    0.1780 C   0  0  1  0  0  0  0  0  0  0  0  0
    2.3636   -1.7932    1.6194 C   0  0  0  0  0  0  0  0  0  0  0  0
    3.5972   -0.9976    1.2000 C   0  0  0  0  0  0  0  0  0  0  0  0
    4.4731    0.7858   -0.3429 C   0  0  2  0  0  0  0  0  0  0  0  0
   -3.5305   -2.7894   -0.3219 C   0  0  0  0  0  0  0  0  0  0  0  0
   -4.6360    2.0266    1.4873 C   0  0  0  0  0  0  0  0  0  0  0  0
    5.2430    1.4549    0.7928 C   0  0  0  0  0  0  0  0  0  0  0  0
    0.1818    0.4345   -1.9939 H   0  0  0  0  0  0  0  0  0  0  0  0
   -2.1322   -1.0116    0.7088 H   0  0  0  0  0  0  0  0  0  0  0  0
   -1.3580    2.2111   -1.5084 H   0  0  0  0  0  0  0  0  0  0  0  0
   -1.3080   -1.5902   -1.5694 H   0  0  0  0  0  0  0  0  0  0  0  0
   -3.5948    1.2955   -0.6261 H   0  0  0  0  0  0  0  0  0  0  0  0
   -2.1288    2.7632    0.7584 H   0  0  0  0  0  0  0  0  0  0  0  0
    0.9626   -1.6237   -1.5268 H   0  0  0  0  0  0  0  0  0  0  0  0
    2.3096   -3.0273   -0.1244 H   0  0  0  0  0  0  0  0  0  0  0  0
    2.5620    0.8149    0.6482 H   0  0  0  0  0  0  0  0  0  0  0  0
    1.6992   -1.1499    2.2110 H   0  0  0  0  0  0  0  0  0  0  0  0
    2.6657   -2.6242    2.2682 H   0  0  0  0  0  0  0  0  0  0  0  0
   -4.5657   -1.1195    0.1529 H   0  0  0  0  0  0  0  0  0  0  0  0
    4.3255   -1.6924    0.7625 H   0  0  0  0  0  0  0  0  0  0  0  0
    4.0482   -0.5650    2.0985 H   0  0  0  0  0  0  0  0  0  0  0  0
    0.9336    2.6263   -1.1621 H   0  0  0  0  0  0  0  0  0  0  0  0
    0.0211    3.5328   -0.1554 H   0  0  0  0  0  0  0  0  0  0  0  0
   -1.6252   -0.1377   -3.2658 H   0  0  0  0  0  0  0  0  0  0  0  0
    5.1280    0.0612   -0.8428 H   0  0  0  0  0  0  0  0  0  0  0  0
   -0.3689    1.7807    1.8392 H   0  0  0  0  0  0  0  0  0  0  0  0
   -2.7743   -3.1487   -1.0256 H   0  0  0  0  0  0  0  0  0  0  0  0
   -4.4434   -3.3597   -0.5229 H   0  0  0  0  0  0  0  0  0  0  0  0
   -3.2148   -3.0295    0.6990 H   0  0  0  0  0  0  0  0  0  0  0  0
   -0.0318   -3.4059   -0.0681 H   0  0  0  0  0  0  0  0  0  0  0  0
    0.6536   -3.8154    1.3567 H   0  0  0  0  0  0  0  0  0  0  0  0
   -4.0074    2.8824    1.7442 H   0  0  0  0  0  0  0  0  0  0  0  0
   -5.2041    2.2280    0.5737 H   0  0  0  0  0  0  0  0  0  0  0  0
   -5.3520    1.8902    2.3032 H   0  0  0  0  0  0  0  0  0  0  0  0
    6.0625    2.0681    0.3991 H   0  0  0  0  0  0  0  0  0  0  0  0
    4.5976    2.1083    1.3905 H   0  0  0  0  0  0  0  0  0  0  0  0
    5.7045    0.7192    1.4584 H   0  0  0  0  0  0  0  0  0  0  0  0
    4.9511    2.2098   -1.7332 H   0  0  0  0  0  0  0  0  0  0  0  0
    3.6189    1.3459   -2.1141 H   0  0  0  0  0  0  0  0  0  0  0  0
  1 10  1  0  0  0  0
  1 16  1  0  0  0  0
  2 16  1  0  0  0  0
  2 18  1  0  0  0  0
  3 14  1  0  0  0  0
  3 23  1  0  0  0  0
  4 13  1  0  0  0  0
  4 41  1  0  0  0  0
  5 15  1  0  0  0  0
  5 43  1  0  0  0  0
  6 11  1  0  0  0  0
  6 22  1  0  0  0  0
  6 36  1  0  0  0  0
  7 12  1  0  0  0  0
  7 39  1  0  0  0  0
  7 40  1  0  0  0  0
  8 17  1  0  0  0  0
  8 47  1  0  0  0  0
  8 48  1  0  0  0  0
  9 21  1  0  0  0  0
  9 55  1  0  0  0  0
  9 56  1  0  0  0  0
 10 12  1  0  0  0  0
 10 13  1  0  0  0  0
 10 25  1  0  0  0  0
 11 13  1  0  0  0  0
 11 14  1  0  0  0  0
 11 26  1  0  0  0  0
 12 15  1  0  0  0  0
 12 27  1  0  0  0  0
 13 28  1  0  0  0  0
 14 15  1  0  0  0  0
 14 29  1  0  0  0  0
 15 30  1  0  0  0  0
 16 17  1  0  0  0  0
 16 31  1  0  0  0  0
 17 19  1  0  0  0  0
 17 32  1  0  0  0  0
 18 20  1  0  0  0  0
 18 21  1  0  0  0  0
 18 33  1  0  0  0  0
 19 20  1  0  0  0  0
 19 34  1  0  0  0  0
 19 35  1  0  0  0  0
 20 37  1  0  0  0  0
 20 38  1  0  0  0  0
 21 24  1  0  0  0  0
 21 42  1  0  0  0  0
 22 44  1  0  0  0  0
 22 45  1  0  0  0  0
 22 46  1  0  0  0  0
 23 49  1  0  0  0  0
 23 50  1  0  0  0  0
 23 51  1  0  0  0  0
 24 52  1  0  0  0  0
 24 53  1  0  0  0  0
 24 54  1  0  0  0  0
M  END
> <PUBCHEM_COMPOUND_CID>
46174020

> <PUBCHEM_CONFORMER_RMSD>
0.8

> <PUBCHEM_CONFORMER_DIVERSEORDER>
1
17
20
14
10
15
2
19
3
11
5
4
8
9
7
16
18
13
6
12

> <PUBCHEM_MMFF94_PARTIAL_CHARGES>
30
1 -0.56
10 0.28
11 0.27
12 0.27
13 0.28
14 0.28
15 0.28
16 0.56
17 0.27
18 0.28
2 -0.56
21 0.27
22 0.27
23 0.28
3 -0.56
36 0.36
39 0.36
4 -0.68
40 0.36
41 0.4
43 0.4
47 0.36
48 0.36
5 -0.68
55 0.36
56 0.36
6 -0.9
7 -0.99
8 -0.99
9 -0.99

> <PUBCHEM_EFFECTIVE_ROTOR_COUNT>
7.4

> <PUBCHEM_PHARMACOPHORE_FEATURES>
17
1 1 acceptor
1 2 acceptor
1 3 acceptor
1 4 acceptor
1 4 donor
1 5 acceptor
1 5 donor
1 6 cation
1 6 donor
1 7 cation
1 7 donor
1 8 cation
1 8 donor
1 9 cation
1 9 donor
6 10 11 12 13 14 15 rings
6 2 16 17 18 19 20 rings

> <PUBCHEM_HEAVY_ATOM_COUNT>
24

> <PUBCHEM_ATOM_DEF_STEREO_COUNT>
10

> <PUBCHEM_ATOM_UDEF_STEREO_COUNT>
0

> <PUBCHEM_BOND_DEF_STEREO_COUNT>
0

> <PUBCHEM_BOND_UDEF_STEREO_COUNT>
0

> <PUBCHEM_ISOTOPIC_ATOM_COUNT>
0

> <PUBCHEM_COMPONENT_COUNT>
1

> <PUBCHEM_CACTVS_TAUTO_COUNT>
1

> <PUBCHEM_CONFORMER_ID>
02C08F4400000001

> <PUBCHEM_MMFF94_ENERGY>
48.2614

> <PUBCHEM_FEATURE_SELFOVERLAP>
86.317

> <PUBCHEM_SHAPE_FINGERPRINT>
10165383 225 15792003433480156023
10498660 4 16950569908256881544
1100329 8 17908988707911405558
11578080 2 17702955853994279677
12403814 3 18340771558662155673
12633257 1 18264496267657342371
12670545 47 16009042708287324529
12892183 10 18056458759909989425
13032168 30 18338797819088687283
13224815 77 18335991929933615886
13583140 156 15913059677173856844
13764800 53 17095814329207918091
14223421 5 18268153226341301342
14289901 80 18060148664596869028
14341114 328 18411698781594668184
14787075 74 18124036724026526230
15238133 3 17169554227570676826
16945 1 18264205988556661749
17492 54 17987520303701854766
18186145 218 18342459270550901550
18981168 100 16082236123685722026
19050596 39 18336834185889536706
20681651 13 18200329782962851211
21623110 236 18130223744458992858
21756936 100 18334859373328676296
23419403 2 17321543783112660298
23557571 272 15864655884999603666
23559900 14 17678730369875485703
23566358 27 18267013045737167558
34934 24 18335980964966881961
3797600 57 18334020458456684282
392239 28 18194121819958099714
4340502 62 18200858665435783865
469060 322 17917433068776074919
474 4 18342451539467447516
5104073 3 18334861627838562146
5486654 2 18269558243309135598
6287921 2 18338793545854761886
633830 44 18334294284212653062
7097593 13 17836655488726750386

> <PUBCHEM_SHAPE_MULTIPOLES>
444.64
9.01
2.93
1.61
3.7
1.01
0.16
-2.87
-2
-0.79
-0.57
-0.56
-0.19
-1.93

> <PUBCHEM_SHAPE_SELFOVERLAP>
895.749

> <PUBCHEM_SHAPE_VOLUME>
258.5

> <PUBCHEM_COORDINATE_TYPE>
2
5
10

$$$$

