17396223
  -OEChem-06241222553D

 48 50  0     0  0  0  0  0  0999 V2000
   -3.5343    4.8297   -0.2230 Cl  0  0  0  0  0  0  0  0  0  0  0  0
    1.0876    3.1652    0.0240 O   0  0  0  0  0  0  0  0  0  0  0  0
    5.7736   -0.6928    0.3821 O   0  0  0  0  0  0  0  0  0  0  0  0
   -1.6578   -3.7063    0.3115 N   0  0  0  0  0  0  0  0  0  0  0  0
   -2.0866   -0.8926    0.0697 N   0  0  0  0  0  0  0  0  0  0  0  0
   -0.0642    1.0936    0.0636 N   0  0  0  0  0  0  0  0  0  0  0  0
    2.8782    0.8978   -0.9712 N   0  0  0  0  0  0  0  0  0  0  0  0
    4.0721    0.2329   -0.9040 N   0  0  0  0  0  0  0  0  0  0  0  0
   -1.1289   -2.7851    1.3251 C   0  0  0  0  0  0  0  0  0  0  0  0
   -1.6384   -3.0622   -1.0073 C   0  0  0  0  0  0  0  0  0  0  0  0
   -1.9689   -1.5078    1.3978 C   0  0  0  0  0  0  0  0  0  0  0  0
   -2.4945   -1.7932   -1.0127 C   0  0  0  0  0  0  0  0  0  0  0  0
   -0.8808   -4.9451    0.2891 C   0  0  0  0  0  0  0  0  0  0  0  0
   -2.4119    0.4667    0.0013 C   0  0  0  0  0  0  0  0  0  0  0  0
   -1.4161    1.4434   -0.0019 C   0  0  0  0  0  0  0  0  0  0  0  0
   -1.4440   -5.9281   -0.7231 C   0  0  0  0  0  0  0  0  0  0  0  0
   -3.7544    0.8391   -0.0648 C   0  0  0  0  0  0  0  0  0  0  0  0
   -1.7628    2.7927   -0.0714 C   0  0  0  0  0  0  0  0  0  0  0  0
   -4.1012    2.1885   -0.1343 C   0  0  0  0  0  0  0  0  0  0  0  0
   -3.1053    3.1652   -0.1375 C   0  0  0  0  0  0  0  0  0  0  0  0
    1.0300    1.9478    0.0708 C   0  0  0  0  0  0  0  0  0  0  0  0
    2.3292    1.2249    0.1476 C   0  0  0  0  0  0  0  0  0  0  0  0
    2.8498    0.9595    1.4897 C   0  0  0  0  0  0  0  0  0  0  0  0
    4.0114    0.3119    1.5370 C   0  0  0  0  0  0  0  0  0  0  0  0
    4.7010   -0.0961    0.2904 C   0  0  0  0  0  0  0  0  0  0  0  0
    4.7171   -0.1496   -2.1486 C   0  0  0  0  0  0  0  0  0  0  0  0
   -0.0846   -2.5243    1.1054 H   0  0  0  0  0  0  0  0  0  0  0  0
   -1.1455   -3.2619    2.3126 H   0  0  0  0  0  0  0  0  0  0  0  0
   -2.0586   -3.7099   -1.7830 H   0  0  0  0  0  0  0  0  0  0  0  0
   -0.6104   -2.8137   -1.3042 H   0  0  0  0  0  0  0  0  0  0  0  0
   -2.9706   -1.7341    1.7851 H   0  0  0  0  0  0  0  0  0  0  0  0
   -1.4928   -0.8158    2.1033 H   0  0  0  0  0  0  0  0  0  0  0  0
   -3.5539   -2.0558   -0.8979 H   0  0  0  0  0  0  0  0  0  0  0  0
   -2.3789   -1.2955   -1.9835 H   0  0  0  0  0  0  0  0  0  0  0  0
   -0.9312   -5.4165    1.2784 H   0  0  0  0  0  0  0  0  0  0  0  0
    0.1786   -4.7592    0.0717 H   0  0  0  0  0  0  0  0  0  0  0  0
   -2.5307   -6.0301   -0.6300 H   0  0  0  0  0  0  0  0  0  0  0  0
   -1.1984   -5.6555   -1.7539 H   0  0  0  0  0  0  0  0  0  0  0  0
   -1.0082   -6.9187   -0.5507 H   0  0  0  0  0  0  0  0  0  0  0  0
   -4.5444    0.0925   -0.0570 H   0  0  0  0  0  0  0  0  0  0  0  0
   -1.0392    3.5961   -0.0780 H   0  0  0  0  0  0  0  0  0  0  0  0
   -5.1514    2.4642   -0.1838 H   0  0  0  0  0  0  0  0  0  0  0  0
    0.1261    0.0947    0.1089 H   0  0  0  0  0  0  0  0  0  0  0  0
    2.3118    1.2757    2.3727 H   0  0  0  0  0  0  0  0  0  0  0  0
    4.4806    0.0674    2.4830 H   0  0  0  0  0  0  0  0  0  0  0  0
    4.9067    0.7556   -2.7328 H   0  0  0  0  0  0  0  0  0  0  0  0
    5.6621   -0.6739   -1.9872 H   0  0  0  0  0  0  0  0  0  0  0  0
    4.0375   -0.8024   -2.7043 H   0  0  0  0  0  0  0  0  0  0  0  0
  1 20  1  0  0  0  0
  2 21  2  0  0  0  0
  3 25  2  0  0  0  0
  4  9  1  0  0  0  0
  4 10  1  0  0  0  0
  4 13  1  0  0  0  0
  5 11  1  0  0  0  0
  5 12  1  0  0  0  0
  5 14  1  0  0  0  0
  6 15  1  0  0  0  0
  6 21  1  0  0  0  0
  6 43  1  0  0  0  0
  7  8  1  0  0  0  0
  7 22  2  0  0  0  0
  8 25  1  0  0  0  0
  8 26  1  0  0  0  0
  9 11  1  0  0  0  0
  9 27  1  0  0  0  0
  9 28  1  0  0  0  0
 10 12  1  0  0  0  0
 10 29  1  0  0  0  0
 10 30  1  0  0  0  0
 11 31  1  0  0  0  0
 11 32  1  0  0  0  0
 12 33  1  0  0  0  0
 12 34  1  0  0  0  0
 13 16  1  0  0  0  0
 13 35  1  0  0  0  0
 13 36  1  0  0  0  0
 14 15  2  0  0  0  0
 14 17  1  0  0  0  0
 15 18  1  0  0  0  0
 16 37  1  0  0  0  0
 16 38  1  0  0  0  0
 16 39  1  0  0  0  0
 17 19  2  0  0  0  0
 17 40  1  0  0  0  0
 18 20  2  0  0  0  0
 18 41  1  0  0  0  0
 19 20  1  0  0  0  0
 19 42  1  0  0  0  0
 21 22  1  0  0  0  0
 22 23  1  0  0  0  0
 23 24  2  0  0  0  0
 23 44  1  0  0  0  0
 24 25  1  0  0  0  0
 24 45  1  0  0  0  0
 26 46  1  0  0  0  0
 26 47  1  0  0  0  0
 26 48  1  0  0  0  0
M  END
> <PUBCHEM_COMPOUND_CID>
17396223

> <PUBCHEM_CONFORMER_RMSD>
0.8

> <PUBCHEM_CONFORMER_DIVERSEORDER>
1
34
30
22
14
27
13
24
20
29
8
15
28
18
4
12
19
10
26
25
23
7
21
32
5
35
33
9
16
11
2
31
6
3
17

> <PUBCHEM_MMFF94_PARTIAL_CHARGES>
31
1 -0.18
10 0.27
11 0.37
12 0.37
13 0.27
14 0.1
15 0.12
17 -0.15
18 -0.15
19 -0.15
2 -0.57
20 0.18
21 0.63
22 0.44
23 -0.14
24 -0.14
25 0.62
26 0.3
3 -0.57
4 -0.81
40 0.15
41 0.15
42 0.15
43 0.37
44 0.15
45 0.15
5 -0.84
6 -0.55
7 -0.51
8 -0.3
9 0.27

> <PUBCHEM_EFFECTIVE_ROTOR_COUNT>
6.2

> <PUBCHEM_PHARMACOPHORE_FEATURES>
9
1 2 acceptor
1 3 acceptor
1 4 cation
1 5 cation
1 6 donor
1 7 acceptor
6 14 15 17 18 19 20 rings
6 4 5 9 10 11 12 rings
6 7 8 22 23 24 25 rings

> <PUBCHEM_HEAVY_ATOM_COUNT>
26

> <PUBCHEM_ATOM_DEF_STEREO_COUNT>
0

> <PUBCHEM_ATOM_UDEF_STEREO_COUNT>
0

> <PUBCHEM_BOND_DEF_STEREO_COUNT>
0

> <PUBCHEM_BOND_UDEF_STEREO_COUNT>
0

> <PUBCHEM_ISOTOPIC_ATOM_COUNT>
0

> <PUBCHEM_COMPONENT_COUNT>
1

> <PUBCHEM_CACTVS_TAUTO_COUNT>
2

> <PUBCHEM_CONFORMER_ID>
010971FF00000001

> <PUBCHEM_MMFF94_ENERGY>
77.3999

> <PUBCHEM_FEATURE_SELFOVERLAP>
45.672

> <PUBCHEM_SHAPE_FINGERPRINT>
10050765 1 17690283038557440365
107951 10 17773857856889671291
10940486 97 18343578513232555580
11014199 57 18051416158639578306
12156800 1 15869760990501851735
12553582 1 17620469108661689131
12788726 201 18199743639974619219
13540713 4 17480288407937598873
13540713 5 17394747502766055901
13690498 29 18124573324645633038
13726171 33 17977628032358657380
13785724 45 17617073834046847007
138480 1 17113259395411136155
14251757 5 18340189822400111740
14659021 117 18193296121106431552
14844126 61 18341338790391743890
14866123 147 18337110069262550195
15042514 8 18339924810512997089
15439362 3 17619916501201285965
15664445 248 16969696694711139903
15927050 60 18119533386945801693
15961568 22 16897934362427579450
16719943 64 18339081613505908634
16752209 62 18341059583263474393
167882 2 17618791696727284325
20775438 99 17252911202571562277
20775530 9 17759231895672294786
21133410 171 17257995412990413802
21133410 230 17693888177584988339
21133410 52 16026217806596147380
21781051 124 18201708523810989259
22849339 104 18337934732520165486
23366157 5 17480581985624916153
23536364 44 18121250639620188119
23559900 14 18260829345715158388
23728640 28 18412546496443401347
3027735 51 18335146392771017415
3298306 158 18120936367376327605
3383291 50 18409732842025298171
3411729 13 17766838704124692169
4017518 198 18193282008176849510
463206 1 16973650538688939106
508706 21 18261666004885444958
5265222 85 18339631347887528676
5309563 4 17257090363851989023
532947 4 17975696409117772839
5385378 56 17904758135561845417
602551 16 18410019849188671088
613672 6 17615993022569124878
9709674 26 18264213499969490552
9981440 41 18268706285232914587

> <PUBCHEM_SHAPE_MULTIPOLES>
500.29
9.07
7.15
1.31
11.82
11.06
0.09
-7.33
1.1
-8.21
0.77
1.41
0.42
0.27

> <PUBCHEM_SHAPE_SELFOVERLAP>
1047.621

> <PUBCHEM_SHAPE_VOLUME>
284.3

> <PUBCHEM_COORDINATE_TYPE>
2
5
10

$$$$

