5282033
  -OEChem-07051213022D

 76 77  0     1  0  0  0  0  0999 V2000
    6.0010    1.0000    0.0000 O   0  0  0  0  0  0  0  0  0  0  0  0
    4.2690    1.0000    0.0000 O   0  0  0  0  0  0  0  0  0  0  0  0
    6.0010    3.0000    0.0000 O   0  0  0  0  0  0  0  0  0  0  0  0
    4.2690   -2.0000    0.0000 O   0  0  0  0  0  0  0  0  0  0  0  0
    6.1350   -1.5000    0.0000 O   0  0  0  0  0  0  0  0  0  0  0  0
    8.5991   -3.5000    0.0000 O   0  0  0  0  0  0  0  0  0  0  0  0
    2.5369   -3.0000    0.0000 O   0  0  0  0  0  0  0  0  0  0  0  0
    4.2690    4.0000    0.0000 N   0  0  0  0  0  0  0  0  0  0  0  0
    4.2690    3.0000    0.0000 C   0  0  2  0  0  0  0  0  0  0  0  0
    6.0010    0.0000    0.0000 C   0  0  1  0  0  0  0  0  0  0  0  0
    5.1350    2.5000    0.0000 C   0  0  2  0  0  0  0  0  0  0  0  0
    5.1350    1.5000    0.0000 C   0  0  2  0  0  0  0  0  0  0  0  0
    6.8671   -0.5000    0.0000 C   0  0  2  0  0  0  0  0  0  0  0  0
    3.4030    2.5000    0.0000 C   0  0  0  0  0  0  0  0  0  0  0  0
    3.4030    1.5000    0.0000 C   0  0  1  0  0  0  0  0  0  0  0  0
    5.1350   -0.5000    0.0000 C   0  0  1  0  0  0  0  0  0  0  0  0
    6.8671   -1.5000    0.0000 C   0  0  0  0  0  0  0  0  0  0  0  0
    7.7331   -2.0000    0.0000 C   0  0  1  0  0  0  0  0  0  0  0  0
    7.7331    0.0000    0.0000 C   0  0  0  0  0  0  0  0  0  0  0  0
    2.5369    1.0000    0.0000 C   0  0  0  0  0  0  0  0  0  0  0  0
    4.2690    0.0000    0.0000 C   0  0  0  0  0  0  0  0  0  0  0  0
    5.1350   -1.5000    0.0000 C   0  0  0  0  0  0  0  0  0  0  0  0
    3.4030    4.5000    0.0000 C   0  0  0  0  0  0  0  0  0  0  0  0
    5.1350    4.5000    0.0000 C   0  0  0  0  0  0  0  0  0  0  0  0
    4.2690   -3.0000    0.0000 C   0  0  1  0  0  0  0  0  0  0  0  0
    8.5991   -1.5000    0.0000 C   0  0  0  0  0  0  0  0  0  0  0  0
    7.7331   -3.0000    0.0000 C   0  0  0  0  0  0  0  0  0  0  0  0
    5.1350   -3.5000    0.0000 C   0  0  1  0  0  0  0  0  0  0  0  0
    3.4030   -3.5000    0.0000 C   0  0  1  0  0  0  0  0  0  0  0  0
    6.8671   -3.5000    0.0000 C   0  0  0  0  0  0  0  0  0  0  0  0
    6.0010   -3.0000    0.0000 C   0  0  0  0  0  0  0  0  0  0  0  0
    5.1350   -4.5000    0.0000 C   0  0  0  0  0  0  0  0  0  0  0  0
    3.4030   -4.5000    0.0000 C   0  0  0  0  0  0  0  0  0  0  0  0
    4.8059    3.3100    0.0000 H   0  0  0  0  0  0  0  0  0  0  0  0
    6.5380    0.3100    0.0000 H   0  0  0  0  0  0  0  0  0  0  0  0
    5.1350    3.1200    0.0000 H   0  0  0  0  0  0  0  0  0  0  0  0
    5.1350    0.8800    0.0000 H   0  0  0  0  0  0  0  0  0  0  0  0
    7.4040   -0.8100    0.0000 H   0  0  0  0  0  0  0  0  0  0  0  0
    3.1909    3.0826    0.0000 H   0  0  0  0  0  0  0  0  0  0  0  0
    2.7924    2.3923    0.0000 H   0  0  0  0  0  0  0  0  0  0  0  0
    3.4030    0.8800    0.0000 H   0  0  0  0  0  0  0  0  0  0  0  0
    5.1350    0.1200    0.0000 H   0  0  0  0  0  0  0  0  0  0  0  0
    6.2565   -1.3923    0.0000 H   0  0  0  0  0  0  0  0  0  0  0  0
    6.6550   -2.0826    0.0000 H   0  0  0  0  0  0  0  0  0  0  0  0
    7.7331   -1.3800    0.0000 H   0  0  0  0  0  0  0  0  0  0  0  0
    8.0431   -0.5369    0.0000 H   0  0  0  0  0  0  0  0  0  0  0  0
    8.2700    0.3100    0.0000 H   0  0  0  0  0  0  0  0  0  0  0  0
    7.4231    0.5369    0.0000 H   0  0  0  0  0  0  0  0  0  0  0  0
    2.2269    1.5369    0.0000 H   0  0  0  0  0  0  0  0  0  0  0  0
    2.0000    0.6900    0.0000 H   0  0  0  0  0  0  0  0  0  0  0  0
    2.8469    0.4631    0.0000 H   0  0  0  0  0  0  0  0  0  0  0  0
    4.5790    0.5369    0.0000 H   0  0  0  0  0  0  0  0  0  0  0  0
    3.7320    0.3100    0.0000 H   0  0  0  0  0  0  0  0  0  0  0  0
    3.9590   -0.5369    0.0000 H   0  0  0  0  0  0  0  0  0  0  0  0
    6.5380    2.6900    0.0000 H   0  0  0  0  0  0  0  0  0  0  0  0
    3.5329   -2.5750    0.0000 H   0  0  0  0  0  0  0  0  0  0  0  0
    3.7130    5.0369    0.0000 H   0  0  0  0  0  0  0  0  0  0  0  0
    2.8660    4.8100    0.0000 H   0  0  0  0  0  0  0  0  0  0  0  0
    3.0930    3.9631    0.0000 H   0  0  0  0  0  0  0  0  0  0  0  0
    5.4450    3.9631    0.0000 H   0  0  0  0  0  0  0  0  0  0  0  0
    5.6720    4.8100    0.0000 H   0  0  0  0  0  0  0  0  0  0  0  0
    4.8250    5.0369    0.0000 H   0  0  0  0  0  0  0  0  0  0  0  0
    8.9091   -2.0369    0.0000 H   0  0  0  0  0  0  0  0  0  0  0  0
    9.1360   -1.1900    0.0000 H   0  0  0  0  0  0  0  0  0  0  0  0
    8.2891   -0.9631    0.0000 H   0  0  0  0  0  0  0  0  0  0  0  0
    5.6720   -3.8100    0.0000 H   0  0  0  0  0  0  0  0  0  0  0  0
    3.4030   -2.8800    0.0000 H   0  0  0  0  0  0  0  0  0  0  0  0
    6.8671   -4.1200    0.0000 H   0  0  0  0  0  0  0  0  0  0  0  0
    6.3110   -2.4631    0.0000 H   0  0  0  0  0  0  0  0  0  0  0  0
    4.5150   -4.5000    0.0000 H   0  0  0  0  0  0  0  0  0  0  0  0
    5.1350   -5.1200    0.0000 H   0  0  0  0  0  0  0  0  0  0  0  0
    5.7550   -4.5000    0.0000 H   0  0  0  0  0  0  0  0  0  0  0  0
    2.7830   -4.5000    0.0000 H   0  0  0  0  0  0  0  0  0  0  0  0
    3.4030   -5.1200    0.0000 H   0  0  0  0  0  0  0  0  0  0  0  0
    4.0230   -4.5000    0.0000 H   0  0  0  0  0  0  0  0  0  0  0  0
    2.0000   -3.3100    0.0000 H   0  0  0  0  0  0  0  0  0  0  0  0
 10  1  1  1  0  0  0
 12  1  1  6  0  0  0
  2 12  1  0  0  0  0
  2 15  1  0  0  0  0
 11  3  1  1  0  0  0
  3 55  1  0  0  0  0
  4 22  1  0  0  0  0
  4 25  1  0  0  0  0
  5 22  2  0  0  0  0
  6 27  2  0  0  0  0
 29  7  1  1  0  0  0
  7 76  1  0  0  0  0
  9  8  1  6  0  0  0
  8 23  1  0  0  0  0
  8 24  1  0  0  0  0
  9 11  1  0  0  0  0
  9 14  1  0  0  0  0
  9 34  1  0  0  0  0
 10 13  1  0  0  0  0
 10 16  1  0  0  0  0
 10 35  1  0  0  0  0
 11 12  1  0  0  0  0
 11 36  1  0  0  0  0
 12 37  1  0  0  0  0
 13 17  1  0  0  0  0
 13 19  1  1  0  0  0
 13 38  1  0  0  0  0
 14 15  1  0  0  0  0
 14 39  1  0  0  0  0
 14 40  1  0  0  0  0
 15 20  1  6  0  0  0
 15 41  1  0  0  0  0
 16 21  1  6  0  0  0
 16 22  1  0  0  0  0
 16 42  1  0  0  0  0
 17 18  1  0  0  0  0
 17 43  1  0  0  0  0
 17 44  1  0  0  0  0
 18 26  1  1  0  0  0
 18 27  1  0  0  0  0
 18 45  1  0  0  0  0
 19 46  1  0  0  0  0
 19 47  1  0  0  0  0
 19 48  1  0  0  0  0
 20 49  1  0  0  0  0
 20 50  1  0  0  0  0
 20 51  1  0  0  0  0
 21 52  1  0  0  0  0
 21 53  1  0  0  0  0
 21 54  1  0  0  0  0
 23 57  1  0  0  0  0
 23 58  1  0  0  0  0
 23 59  1  0  0  0  0
 24 60  1  0  0  0  0
 24 61  1  0  0  0  0
 24 62  1  0  0  0  0
 25 28  1  0  0  0  0
 25 29  1  0  0  0  0
 25 56  1  6  0  0  0
 26 63  1  0  0  0  0
 26 64  1  0  0  0  0
 26 65  1  0  0  0  0
 27 30  1  0  0  0  0
 28 31  1  0  0  0  0
 28 32  1  1  0  0  0
 28 66  1  0  0  0  0
 29 33  1  0  0  0  0
 29 67  1  0  0  0  0
 30 31  2  0  0  0  0
 30 68  1  0  0  0  0
 31 69  1  0  0  0  0
 32 70  1  0  0  0  0
 32 71  1  0  0  0  0
 32 72  1  0  0  0  0
 33 73  1  0  0  0  0
 33 74  1  0  0  0  0
 33 75  1  0  0  0  0
M  END
> <PUBCHEM_COMPOUND_CID>
5282033

> <PUBCHEM_COMPOUND_CANONICALIZED>
1

> <PUBCHEM_CACTVS_COMPLEXITY>
696

> <PUBCHEM_CACTVS_HBOND_ACCEPTOR>
8

> <PUBCHEM_CACTVS_HBOND_DONOR>
2

> <PUBCHEM_CACTVS_ROTATABLE_BOND>
4

> <PUBCHEM_CACTVS_SUBSKEYS>
AAADcfB6OAAAAAAAAAAAAAAAAAAAAAAAAAAkAAAAAAAAAAAAAAAAHgAACAAADTzxgAcCCAMABgCIAKDSCAAAAAAgAAAICAEIAEgTEBYAgQAmQAAH4AAfAYPI7OzOAAAAAAAAAAAAAAAAAAAAAAAAAAAAAA==

> <PUBCHEM_IUPAC_OPENEYE_NAME>
(3R,4S,5S,7R,9E,11R,12S)-4-[(2S,3R,4S,6R)-4-(dimethylamino)-3-hydroxy-6-methyl-tetrahydropyran-2-yl]oxy-12-[(1R)-1-hydroxyethyl]-3,5,7,11-tetramethyl-1-oxacyclododec-9-ene-2,8-dione

> <PUBCHEM_IUPAC_CAS_NAME>
(3R,4S,5S,7R,9E,11R,12S)-4-[[(2S,3R,4S,6R)-4-(dimethylamino)-3-hydroxy-6-methyl-2-oxanyl]oxy]-12-[(1R)-1-hydroxyethyl]-3,5,7,11-tetramethyl-1-oxacyclododec-9-ene-2,8-dione

> <PUBCHEM_IUPAC_NAME>
(3R,4S,5S,7R,9E,11R,12S)-4-[(2S,3R,4S,6R)-4-(dimethylamino)-3-hydroxy-6-methyloxan-2-yl]oxy-12-[(1R)-1-hydroxyethyl]-3,5,7,11-tetramethyl-1-oxacyclododec-9-ene-2,8-dione

> <PUBCHEM_IUPAC_SYSTEMATIC_NAME>
(3R,4S,5S,7R,9E,11R,12S)-4-[(2S,3R,4S,6R)-4-(dimethylamino)-6-methyl-3-oxidanyl-oxan-2-yl]oxy-3,5,7,11-tetramethyl-12-[(1R)-1-oxidanylethyl]-1-oxacyclododec-9-ene-2,8-dione

> <PUBCHEM_IUPAC_TRADITIONAL_NAME>
(3R,4S,5S,7R,9E,11R,12S)-4-[(2S,3R,4S,6R)-4-(dimethylamino)-3-hydroxy-6-methyl-tetrahydropyran-2-yl]oxy-12-[(1R)-1-hydroxyethyl]-3,5,7,11-tetramethyl-1-oxacyclododec-9-ene-2,8-quinone

> <PUBCHEM_IUPAC_INCHI>
InChI=1S/C25H43NO7/c1-13-9-10-20(28)14(2)11-15(3)22(17(5)24(30)32-23(13)18(6)27)33-25-21(29)19(26(7)8)12-16(4)31-25/h9-10,13-19,21-23,25,27,29H,11-12H2,1-8H3/b10-9+/t13-,14-,15+,16-,17-,18-,19+,21-,22+,23+,25+/m1/s1

> <PUBCHEM_IUPAC_INCHIKEY>
UEIVQYHYALXCBD-OTUJEKPESA-N

> <PUBCHEM_XLOGP3_AA>
2.8

> <PUBCHEM_EXACT_MASS>
469.303953

> <PUBCHEM_MOLECULAR_FORMULA>
C25H43NO7

> <PUBCHEM_MOLECULAR_WEIGHT>
469.61142

> <PUBCHEM_OPENEYE_CAN_SMILES>
CC1CC(C(=O)C=CC(C(OC(=O)C(C1OC2C(C(CC(O2)C)N(C)C)O)C)C(C)O)C)C

> <PUBCHEM_OPENEYE_ISO_SMILES>
C[C@H]1C[C@H](C(=O)/C=C/[C@H]([C@H](OC(=O)[C@@H]([C@H]1O[C@H]2[C@@H]([C@H](C[C@H](O2)C)N(C)C)O)C)[C@@H](C)O)C)C

> <PUBCHEM_CACTVS_TPSA>
106

> <PUBCHEM_MONOISOTOPIC_WEIGHT>
469.303953

> <PUBCHEM_TOTAL_CHARGE>
0

> <PUBCHEM_HEAVY_ATOM_COUNT>
33

> <PUBCHEM_ATOM_DEF_STEREO_COUNT>
11

> <PUBCHEM_ATOM_UDEF_STEREO_COUNT>
0

> <PUBCHEM_BOND_DEF_STEREO_COUNT>
1

> <PUBCHEM_BOND_UDEF_STEREO_COUNT>
0

> <PUBCHEM_ISOTOPIC_ATOM_COUNT>
0

> <PUBCHEM_COMPONENT_COUNT>
1

> <PUBCHEM_CACTVS_TAUTO_COUNT>
10

> <PUBCHEM_COORDINATE_TYPE>
1
5
255

> <PUBCHEM_BONDANNOTATIONS>
10  1  5
12  1  6
13  19  5
15  20  6
16  21  6
18  26  5
25  56  6
28  32  5
11  3  5
29  7  5
9  8  6

$$$$

