77322
  -OEChem-07051213132D

 37 36  0     0  0  0  0  0  0999 V2000
    5.4641   -0.3660    0.0000 S   0  0  0  0  0  0  0  0  0  0  0  0
    4.5981   -0.8660    0.0000 P   0  0  0  0  0  0  0  0  0  0  0  0
    3.7320   -1.3660    0.0000 O   0  0  0  0  0  0  0  0  0  0  0  0
    4.0981    0.0000    0.0000 O   0  0  0  0  0  0  0  0  0  0  0  0
    7.1962    0.6340    0.0000 O   0  0  0  0  0  0  0  0  0  0  0  0
    5.0981   -1.7320    0.0000 O   0  0  0  0  0  0  0  0  0  0  0  0
    8.0622   -0.8660    0.0000 N   0  0  0  0  0  0  0  0  0  0  0  0
   10.6603    0.6340    0.0000 N   0  0  0  0  0  0  0  0  0  0  0  0
    8.9282   -0.3660    0.0000 C   0  0  0  0  0  0  0  0  0  0  0  0
    9.4282   -1.2320    0.0000 C   0  0  0  0  0  0  0  0  0  0  0  0
    8.4282    0.5000    0.0000 C   0  0  0  0  0  0  0  0  0  0  0  0
    7.1962   -0.3660    0.0000 C   0  0  0  0  0  0  0  0  0  0  0  0
    6.3301   -0.8660    0.0000 C   0  0  0  0  0  0  0  0  0  0  0  0
    9.7942    0.1340    0.0000 C   0  0  0  0  0  0  0  0  0  0  0  0
    4.5981    0.8660    0.0000 C   0  0  0  0  0  0  0  0  0  0  0  0
    2.8660   -0.8660    0.0000 C   0  0  0  0  0  0  0  0  0  0  0  0
    4.0981    1.7320    0.0000 C   0  0  0  0  0  0  0  0  0  0  0  0
    2.0000   -1.3660    0.0000 C   0  0  0  0  0  0  0  0  0  0  0  0
    8.0622   -1.4860    0.0000 H   0  0  0  0  0  0  0  0  0  0  0  0
    8.8913   -1.5420    0.0000 H   0  0  0  0  0  0  0  0  0  0  0  0
    9.7382   -1.7690    0.0000 H   0  0  0  0  0  0  0  0  0  0  0  0
    9.9651   -0.9221    0.0000 H   0  0  0  0  0  0  0  0  0  0  0  0
    8.9651    0.8100    0.0000 H   0  0  0  0  0  0  0  0  0  0  0  0
    8.1182    1.0369    0.0000 H   0  0  0  0  0  0  0  0  0  0  0  0
    7.8913    0.1900    0.0000 H   0  0  0  0  0  0  0  0  0  0  0  0
    5.9316   -1.3410    0.0000 H   0  0  0  0  0  0  0  0  0  0  0  0
    6.7287   -1.3410    0.0000 H   0  0  0  0  0  0  0  0  0  0  0  0
    5.0730    0.4675    0.0000 H   0  0  0  0  0  0  0  0  0  0  0  0
    5.0730    1.2646    0.0000 H   0  0  0  0  0  0  0  0  0  0  0  0
    3.2646   -0.3911    0.0000 H   0  0  0  0  0  0  0  0  0  0  0  0
    2.4675   -0.3911    0.0000 H   0  0  0  0  0  0  0  0  0  0  0  0
    4.6350    2.0420    0.0000 H   0  0  0  0  0  0  0  0  0  0  0  0
    3.7881    2.2690    0.0000 H   0  0  0  0  0  0  0  0  0  0  0  0
    3.5611    1.4220    0.0000 H   0  0  0  0  0  0  0  0  0  0  0  0
    1.6900   -0.8291    0.0000 H   0  0  0  0  0  0  0  0  0  0  0  0
    1.4631   -1.6760    0.0000 H   0  0  0  0  0  0  0  0  0  0  0  0
    2.3100   -1.9030    0.0000 H   0  0  0  0  0  0  0  0  0  0  0  0
  1  2  1  0  0  0  0
  1 13  1  0  0  0  0
  2  3  1  0  0  0  0
  2  4  1  0  0  0  0
  2  6  2  0  0  0  0
  3 16  1  0  0  0  0
  4 15  1  0  0  0  0
  5 12  2  0  0  0  0
  7  9  1  0  0  0  0
  7 12  1  0  0  0  0
  7 19  1  0  0  0  0
  8 14  3  0  0  0  0
  9 10  1  0  0  0  0
  9 11  1  0  0  0  0
  9 14  1  0  0  0  0
 10 20  1  0  0  0  0
 10 21  1  0  0  0  0
 10 22  1  0  0  0  0
 11 23  1  0  0  0  0
 11 24  1  0  0  0  0
 11 25  1  0  0  0  0
 12 13  1  0  0  0  0
 13 26  1  0  0  0  0
 13 27  1  0  0  0  0
 15 17  1  0  0  0  0
 15 28  1  0  0  0  0
 15 29  1  0  0  0  0
 16 18  1  0  0  0  0
 16 30  1  0  0  0  0
 16 31  1  0  0  0  0
 17 32  1  0  0  0  0
 17 33  1  0  0  0  0
 17 34  1  0  0  0  0
 18 35  1  0  0  0  0
 18 36  1  0  0  0  0
 18 37  1  0  0  0  0
M  END
> <PUBCHEM_COMPOUND_CID>
77322

> <PUBCHEM_COMPOUND_CANONICALIZED>
1

> <PUBCHEM_CACTVS_COMPLEXITY>
367

> <PUBCHEM_CACTVS_HBOND_ACCEPTOR>
6

> <PUBCHEM_CACTVS_HBOND_DONOR>
1

> <PUBCHEM_CACTVS_ROTATABLE_BOND>
8

> <PUBCHEM_CACTVS_SUBSKEYS>
AAADceBzOAJAAAAAAAAAAAAAAAAAAAAAAAAAAAAAAAAAAAAAAAAAHgQQACAADIilwAKCAALAARAYRAEQEIAAAAAAAAAAAAAAAAAAgAAAAAAAAAAAFACAAAAAAAAAAAAAAAAAAAAAAAAAAAAAAAAAAAAAAA==

> <PUBCHEM_IUPAC_OPENEYE_NAME>
N-(1-cyano-1-methyl-ethyl)-2-diethoxyphosphorylsulfanyl-acetamide

> <PUBCHEM_IUPAC_CAS_NAME>
N-(2-cyanopropan-2-yl)-2-(diethoxyphosphorylthio)acetamide

> <PUBCHEM_IUPAC_NAME>
N-(2-cyanopropan-2-yl)-2-diethoxyphosphorylsulfanylacetamide

> <PUBCHEM_IUPAC_SYSTEMATIC_NAME>
N-(2-cyanopropan-2-yl)-2-diethoxyphosphorylsulfanyl-ethanamide

> <PUBCHEM_IUPAC_TRADITIONAL_NAME>
N-(1-cyano-1-methyl-ethyl)-2-(diethoxyphosphorylthio)acetamide

> <PUBCHEM_IUPAC_INCHI>
InChI=1S/C10H19N2O4PS/c1-5-15-17(14,16-6-2)18-7-9(13)12-10(3,4)8-11/h5-7H2,1-4H3,(H,12,13)

> <PUBCHEM_IUPAC_INCHIKEY>
TWDJIKFUVRYBJF-UHFFFAOYSA-N

> <PUBCHEM_XLOGP3_AA>
0.4

> <PUBCHEM_EXACT_MASS>
294.080315

> <PUBCHEM_MOLECULAR_FORMULA>
C10H19N2O4PS

> <PUBCHEM_MOLECULAR_WEIGHT>
294.307622

> <PUBCHEM_OPENEYE_CAN_SMILES>
CCOP(=O)(OCC)SCC(=O)NC(C)(C)C#N

> <PUBCHEM_OPENEYE_ISO_SMILES>
CCOP(=O)(OCC)SCC(=O)NC(C)(C)C#N

> <PUBCHEM_CACTVS_TPSA>
114

> <PUBCHEM_MONOISOTOPIC_WEIGHT>
294.080315

> <PUBCHEM_TOTAL_CHARGE>
0

> <PUBCHEM_HEAVY_ATOM_COUNT>
18

> <PUBCHEM_ATOM_DEF_STEREO_COUNT>
0

> <PUBCHEM_ATOM_UDEF_STEREO_COUNT>
0

> <PUBCHEM_BOND_DEF_STEREO_COUNT>
0

> <PUBCHEM_BOND_UDEF_STEREO_COUNT>
0

> <PUBCHEM_ISOTOPIC_ATOM_COUNT>
0

> <PUBCHEM_COMPONENT_COUNT>
1

> <PUBCHEM_CACTVS_TAUTO_COUNT>
2

> <PUBCHEM_COORDINATE_TYPE>
1
5
255

$$$$

