10198122
  -OEChem-07051213113D

 21 23  0     0  0  0  0  0  0999 V2000
    3.2693   -0.3793   -0.0003 O   0  0  0  0  0  0  0  0  0  0  0  0
   -1.3239   -1.3741    0.0002 O   0  0  0  0  0  0  0  0  0  0  0  0
    0.1135    3.2556   -0.0005 O   0  0  0  0  0  0  0  0  0  0  0  0
   -3.5603   -1.8673   -0.0005 O   0  0  0  0  0  0  0  0  0  0  0  0
    1.0517   -0.8078    0.0004 C   0  0  0  0  0  0  0  0  0  0  0  0
   -0.2937   -0.4034    0.0006 C   0  0  0  0  0  0  0  0  0  0  0  0
   -0.6169    0.9590    0.0003 C   0  0  0  0  0  0  0  0  0  0  0  0
    2.0280    0.1826    0.0004 C   0  0  0  0  0  0  0  0  0  0  0  0
    0.4025    1.9194    0.0000 C   0  0  0  0  0  0  0  0  0  0  0  0
    1.7535    1.5494    0.0001 C   0  0  0  0  0  0  0  0  0  0  0  0
    1.7529   -2.0421   -0.0005 C   0  0  0  0  0  0  0  0  0  0  0  0
   -2.0201    1.3442   -0.0002 C   0  0  0  0  0  0  0  0  0  0  0  0
    3.0920   -1.7264   -0.0002 C   0  0  0  0  0  0  0  0  0  0  0  0
   -2.9790    0.4153   -0.0001 C   0  0  0  0  0  0  0  0  0  0  0  0
   -2.6695   -1.0250    0.0003 C   0  0  0  0  0  0  0  0  0  0  0  0
    2.5538    2.2810   -0.0003 H   0  0  0  0  0  0  0  0  0  0  0  0
    1.3343   -3.0386   -0.0008 H   0  0  0  0  0  0  0  0  0  0  0  0
   -2.2871    2.3951   -0.0006 H   0  0  0  0  0  0  0  0  0  0  0  0
    3.9973   -2.3156   -0.0005 H   0  0  0  0  0  0  0  0  0  0  0  0
   -4.0252    0.7011   -0.0006 H   0  0  0  0  0  0  0  0  0  0  0  0
    0.9430    3.7633   -0.0006 H   0  0  0  0  0  0  0  0  0  0  0  0
  1  8  1  0  0  0  0
  1 13  1  0  0  0  0
  2  6  1  0  0  0  0
  2 15  1  0  0  0  0
  3  9  1  0  0  0  0
  3 21  1  0  0  0  0
  4 15  2  0  0  0  0
  5  6  1  0  0  0  0
  5  8  2  0  0  0  0
  5 11  1  0  0  0  0
  6  7  2  0  0  0  0
  7  9  1  0  0  0  0
  7 12  1  0  0  0  0
  8 10  1  0  0  0  0
  9 10  2  0  0  0  0
 10 16  1  0  0  0  0
 11 13  2  0  0  0  0
 11 17  1  0  0  0  0
 12 14  2  0  0  0  0
 12 18  1  0  0  0  0
 13 19  1  0  0  0  0
 14 15  1  0  0  0  0
 14 20  1  0  0  0  0
M  END
> <PUBCHEM_COMPOUND_CID>
10198122

> <PUBCHEM_CONFORMER_RMSD>
0.4

> <PUBCHEM_CONFORMER_DIVERSEORDER>
1

> <PUBCHEM_MMFF94_PARTIAL_CHARGES>
20
1 -0.28
10 -0.15
11 -0.15
12 -0.18
13 -0.01
14 -0.14
15 0.71
16 0.15
17 0.15
18 0.15
19 0.15
2 -0.23
20 0.15
21 0.45
3 -0.53
4 -0.57
6 0.08
7 0.03
8 0.14
9 0.08

> <PUBCHEM_EFFECTIVE_ROTOR_COUNT>
0

> <PUBCHEM_PHARMACOPHORE_FEATURES>
6
1 1 acceptor
1 3 donor
1 4 acceptor
5 1 5 8 11 13 rings
6 2 6 7 12 14 15 rings
6 5 6 7 8 9 10 rings

> <PUBCHEM_HEAVY_ATOM_COUNT>
15

> <PUBCHEM_ATOM_DEF_STEREO_COUNT>
0

> <PUBCHEM_ATOM_UDEF_STEREO_COUNT>
0

> <PUBCHEM_BOND_DEF_STEREO_COUNT>
0

> <PUBCHEM_BOND_UDEF_STEREO_COUNT>
0

> <PUBCHEM_ISOTOPIC_ATOM_COUNT>
0

> <PUBCHEM_COMPONENT_COUNT>
1

> <PUBCHEM_CACTVS_TAUTO_COUNT>
4

> <PUBCHEM_CONFORMER_ID>
009B9C6A00000001

> <PUBCHEM_MMFF94_ENERGY>
38.3165

> <PUBCHEM_FEATURE_SELFOVERLAP>
30.572

> <PUBCHEM_SHAPE_FINGERPRINT>
10967382 1 18194682557760626918
11132069 177 18337677536998703906
11471102 20 18339085861360205903
12032990 46 18409725188103231222
12382932 28 18336270144845539242
13140716 1 18337955691738796184
15001771 113 18410005567720746232
15375462 189 18201715214615675579
15442244 35 18408881863000939441
16945 1 18194401087158011333
17990270 104 18339927017376996995
193761 8 17402048894905772932
19591789 44 17043437649683299494
20201158 50 18412266155095573731
20510252 161 17756714396285961696
20559304 39 18338515214376925621
20645477 70 18124887755128412783
20871998 184 18042973253457125342
21267235 1 18410564119617360166
21501502 16 18411131412072478317
21501925 9 18338528455740162770
221490 88 18269830913597614531
22213442 358 18410013234242481855
22721475 48 18412821378429073395
2334 1 18410575063193523694
23402539 116 18045233875566218157
23463225 33 18410854386423319606
23552423 10 18341047402709452733
23559900 14 18048323529395531858
2748010 2 18409736165917995796
3312278 4 18339922731094658946
34934 24 18339371866999802066
54173680 148 18194964277687798914
5493415 88 18410298007754017499
7364860 26 18192150399662000897
81228 2 18123464144661487992
8809292 202 18270958050222890915

> <PUBCHEM_SHAPE_MULTIPOLES>
285.22
4.9
2.71
0.59
0.71
1.21
0
-2.79
0
0.11
0
-0.01
0
0

> <PUBCHEM_SHAPE_SELFOVERLAP>
647.9

> <PUBCHEM_SHAPE_VOLUME>
149.8

> <PUBCHEM_COORDINATE_TYPE>
2
5
10

$$$$

