237645
  -OEChem-07051213062D

 33 35  0     1  0  0  0  0  0999 V2000
    8.9942    2.2568    0.0000 O   0  0  0  0  0  0  0  0  0  0  0  0
    2.8660   -2.2673    0.0000 O   0  0  0  0  0  0  0  0  0  0  0  0
    3.7320   -0.7673    0.0000 N   0  0  0  0  0  0  0  0  0  0  0  0
    4.5981    0.7327    0.0000 C   0  0  3  0  0  0  0  0  0  0  0  0
    4.5981    1.7327    0.0000 C   0  0  0  0  0  0  0  0  0  0  0  0
    5.4641    0.2327    0.0000 C   0  0  0  0  0  0  0  0  0  0  0  0
    5.4641    2.2327    0.0000 C   0  0  0  0  0  0  0  0  0  0  0  0
    6.3301    0.7327    0.0000 C   0  0  0  0  0  0  0  0  0  0  0  0
    6.3301    1.7327    0.0000 C   0  0  0  0  0  0  0  0  0  0  0  0
    3.7320    0.2327    0.0000 C   0  0  0  0  0  0  0  0  0  0  0  0
    7.2241    0.1980    0.0000 C   0  0  0  0  0  0  0  0  0  0  0  0
    7.2241    2.2673    0.0000 C   0  0  0  0  0  0  0  0  0  0  0  0
    2.8660    0.7327    0.0000 C   0  0  0  0  0  0  0  0  0  0  0  0
    8.1301    1.7535    0.0000 C   0  0  0  0  0  0  0  0  0  0  0  0
    8.1301    0.7119    0.0000 C   0  0  0  0  0  0  0  0  0  0  0  0
    2.8660   -1.2673    0.0000 C   0  0  0  0  0  0  0  0  0  0  0  0
    2.0000    0.2327    0.0000 C   0  0  0  0  0  0  0  0  0  0  0  0
    2.0000   -0.7673    0.0000 C   0  0  0  0  0  0  0  0  0  0  0  0
    4.5981    0.1127    0.0000 H   0  0  0  0  0  0  0  0  0  0  0  0
    4.3860    2.3153    0.0000 H   0  0  0  0  0  0  0  0  0  0  0  0
    3.9875    1.6250    0.0000 H   0  0  0  0  0  0  0  0  0  0  0  0
    5.0656   -0.2423    0.0000 H   0  0  0  0  0  0  0  0  0  0  0  0
    5.8626   -0.2423    0.0000 H   0  0  0  0  0  0  0  0  0  0  0  0
    5.8626    2.7076    0.0000 H   0  0  0  0  0  0  0  0  0  0  0  0
    5.0656    2.7076    0.0000 H   0  0  0  0  0  0  0  0  0  0  0  0
    7.2169   -0.4220    0.0000 H   0  0  0  0  0  0  0  0  0  0  0  0
    7.2169    2.8873    0.0000 H   0  0  0  0  0  0  0  0  0  0  0  0
    4.2690   -1.0773    0.0000 H   0  0  0  0  0  0  0  0  0  0  0  0
    2.8660    1.3527    0.0000 H   0  0  0  0  0  0  0  0  0  0  0  0
    8.6659    0.3998    0.0000 H   0  0  0  0  0  0  0  0  0  0  0  0
    1.4631    0.5427    0.0000 H   0  0  0  0  0  0  0  0  0  0  0  0
    1.4631   -1.0773    0.0000 H   0  0  0  0  0  0  0  0  0  0  0  0
    9.5323    1.9489    0.0000 H   0  0  0  0  0  0  0  0  0  0  0  0
  1 14  1  0  0  0  0
  1 33  1  0  0  0  0
  2 16  2  0  0  0  0
  3 10  1  0  0  0  0
  3 16  1  0  0  0  0
  3 28  1  0  0  0  0
  4  5  1  0  0  0  0
  4  6  1  0  0  0  0
  4 10  1  0  0  0  0
  4 19  1  0  0  0  0
  5  7  1  0  0  0  0
  5 20  1  0  0  0  0
  5 21  1  0  0  0  0
  6  8  1  0  0  0  0
  6 22  1  0  0  0  0
  6 23  1  0  0  0  0
  7  9  1  0  0  0  0
  7 24  1  0  0  0  0
  7 25  1  0  0  0  0
  8  9  2  0  0  0  0
  8 11  1  0  0  0  0
  9 12  1  0  0  0  0
 10 13  2  0  0  0  0
 11 15  2  0  0  0  0
 11 26  1  0  0  0  0
 12 14  2  0  0  0  0
 12 27  1  0  0  0  0
 13 17  1  0  0  0  0
 13 29  1  0  0  0  0
 14 15  1  0  0  0  0
 15 30  1  0  0  0  0
 16 18  1  0  0  0  0
 17 18  2  0  0  0  0
 17 31  1  0  0  0  0
 18 32  1  0  0  0  0
M  END
> <PUBCHEM_COMPOUND_CID>
237645

> <PUBCHEM_COMPOUND_CANONICALIZED>
1

> <PUBCHEM_CACTVS_COMPLEXITY>
399

> <PUBCHEM_CACTVS_HBOND_ACCEPTOR>
2

> <PUBCHEM_CACTVS_HBOND_DONOR>
2

> <PUBCHEM_CACTVS_ROTATABLE_BOND>
1

> <PUBCHEM_CACTVS_SUBSKEYS>
AAADccByMAAAAAAAAAAAAAAAAAAAAAAAAAAwYIAAAAAAAADBAAAAHgAQCAAADQyBmAAwBoLAAgCIAiVSUACCAAAgIgAIiAAGCMgIJiKCkRKEcAAk1BGImYeQwPAOoAABAAAQAADAAAYAACAAAAAAAAAAAA==

> <PUBCHEM_IUPAC_OPENEYE_NAME>
6-(6-hydroxytetralin-2-yl)-1H-pyridin-2-one

> <PUBCHEM_IUPAC_CAS_NAME>
6-(6-hydroxy-1,2,3,4-tetrahydronaphthalen-2-yl)-1H-pyridin-2-one

> <PUBCHEM_IUPAC_NAME>
6-(6-hydroxy-1,2,3,4-tetrahydronaphthalen-2-yl)-1H-pyridin-2-one

> <PUBCHEM_IUPAC_SYSTEMATIC_NAME>
6-(6-oxidanyl-1,2,3,4-tetrahydronaphthalen-2-yl)-1H-pyridin-2-one

> <PUBCHEM_IUPAC_TRADITIONAL_NAME>
6-(6-hydroxytetralin-2-yl)-2-pyridone

> <PUBCHEM_IUPAC_INCHI>
InChI=1S/C15H15NO2/c17-13-7-6-10-8-12(5-4-11(10)9-13)14-2-1-3-15(18)16-14/h1-3,6-7,9,12,17H,4-5,8H2,(H,16,18)

> <PUBCHEM_IUPAC_INCHIKEY>
JGEYQYCTIZLFCB-UHFFFAOYSA-N

> <PUBCHEM_XLOGP3_AA>
2.3

> <PUBCHEM_EXACT_MASS>
241.110279

> <PUBCHEM_MOLECULAR_FORMULA>
C15H15NO2

> <PUBCHEM_MOLECULAR_WEIGHT>
241.2851

> <PUBCHEM_OPENEYE_CAN_SMILES>
C1CC2=C(CC1C3=CC=CC(=O)N3)C=CC(=C2)O

> <PUBCHEM_OPENEYE_ISO_SMILES>
C1CC2=C(CC1C3=CC=CC(=O)N3)C=CC(=C2)O

> <PUBCHEM_CACTVS_TPSA>
49.3

> <PUBCHEM_MONOISOTOPIC_WEIGHT>
241.110279

> <PUBCHEM_TOTAL_CHARGE>
0

> <PUBCHEM_HEAVY_ATOM_COUNT>
18

> <PUBCHEM_ATOM_DEF_STEREO_COUNT>
0

> <PUBCHEM_ATOM_UDEF_STEREO_COUNT>
1

> <PUBCHEM_BOND_DEF_STEREO_COUNT>
0

> <PUBCHEM_BOND_UDEF_STEREO_COUNT>
0

> <PUBCHEM_ISOTOPIC_ATOM_COUNT>
0

> <PUBCHEM_COMPONENT_COUNT>
1

> <PUBCHEM_CACTVS_TAUTO_COUNT>
54

> <PUBCHEM_COORDINATE_TYPE>
1
5
255

> <PUBCHEM_BONDANNOTATIONS>
10  13  8
11  15  8
12  14  8
13  17  8
14  15  8
16  18  8
17  18  8
3  10  8
3  16  8
4  10  3
8  11  8
8  9  8
9  12  8

$$$$

