442861
  -OEChem-07051213003D

 44 47  0     1  0  0  0  0  0999 V2000
    1.9872    2.3459    0.4297 O   0  0  0  0  0  0  0  0  0  0  0  0
    2.7732   -2.3297   -0.1106 O   0  0  0  0  0  0  0  0  0  0  0  0
   -1.6966   -0.7572   -0.0439 O   0  0  0  0  0  0  0  0  0  0  0  0
   -0.5040    3.1073    0.4487 O   0  0  0  0  0  0  0  0  0  0  0  0
    4.5924   -0.2107   -0.9650 N   0  0  2  0  0  0  0  0  0  0  0  0
    3.8763    0.2723    0.2327 C   0  0  2  0  0  0  0  0  0  0  0  0
    4.5465   -0.4597    1.4101 C   0  0  0  0  0  0  0  0  0  0  0  0
    5.6704   -1.2740    0.7847 C   0  0  0  0  0  0  0  0  0  0  0  0
    5.9428   -0.5611   -0.5246 C   0  0  0  0  0  0  0  0  0  0  0  0
    2.3847    0.0213    0.1617 C   0  0  0  0  0  0  0  0  0  0  0  0
    4.6049    0.7560   -2.0555 C   0  0  0  0  0  0  0  0  0  0  0  0
    1.4898    1.0869    0.2653 C   0  0  0  0  0  0  0  0  0  0  0  0
    1.9098   -1.2801   -0.0078 C   0  0  0  0  0  0  0  0  0  0  0  0
    0.1165    0.8410    0.1982 C   0  0  0  0  0  0  0  0  0  0  0  0
    0.5374   -1.5215   -0.0745 C   0  0  0  0  0  0  0  0  0  0  0  0
   -0.3597   -0.4581    0.0292 C   0  0  0  0  0  0  0  0  0  0  0  0
   -0.8513    1.9436    0.3027 C   0  0  0  0  0  0  0  0  0  0  0  0
   -2.6119    0.2788    0.0628 C   0  0  0  0  0  0  0  0  0  0  0  0
   -2.2777    1.5694    0.2205 C   0  0  0  0  0  0  0  0  0  0  0  0
   -4.0207   -0.1530   -0.0349 C   0  0  0  0  0  0  0  0  0  0  0  0
   -4.9812    0.7033   -0.5795 C   0  0  0  0  0  0  0  0  0  0  0  0
   -4.3998   -1.4197    0.4168 C   0  0  0  0  0  0  0  0  0  0  0  0
   -6.3119    0.2957   -0.6716 C   0  0  0  0  0  0  0  0  0  0  0  0
   -5.7306   -1.8273    0.3245 C   0  0  0  0  0  0  0  0  0  0  0  0
   -6.6866   -0.9696   -0.2197 C   0  0  0  0  0  0  0  0  0  0  0  0
    4.0912    1.3396    0.3722 H   0  0  0  0  0  0  0  0  0  0  0  0
    3.8812   -1.0947    2.0042 H   0  0  0  0  0  0  0  0  0  0  0  0
    4.9783    0.2802    2.0965 H   0  0  0  0  0  0  0  0  0  0  0  0
    6.5556   -1.3049    1.4277 H   0  0  0  0  0  0  0  0  0  0  0  0
    5.3527   -2.3083    0.6117 H   0  0  0  0  0  0  0  0  0  0  0  0
    6.5605    0.3292   -0.3509 H   0  0  0  0  0  0  0  0  0  0  0  0
    6.4528   -1.2136   -1.2398 H   0  0  0  0  0  0  0  0  0  0  0  0
    3.5855    0.9788   -2.3881 H   0  0  0  0  0  0  0  0  0  0  0  0
    5.1367    0.3456   -2.9209 H   0  0  0  0  0  0  0  0  0  0  0  0
    5.0878    1.6980   -1.7722 H   0  0  0  0  0  0  0  0  0  0  0  0
    0.1694   -2.5359   -0.2067 H   0  0  0  0  0  0  0  0  0  0  0  0
    1.2706    2.9952    0.4903 H   0  0  0  0  0  0  0  0  0  0  0  0
    3.5616   -2.0334   -0.5931 H   0  0  0  0  0  0  0  0  0  0  0  0
   -2.9953    2.3758    0.3160 H   0  0  0  0  0  0  0  0  0  0  0  0
   -4.7262    1.6877   -0.9628 H   0  0  0  0  0  0  0  0  0  0  0  0
   -3.6773   -2.1053    0.8529 H   0  0  0  0  0  0  0  0  0  0  0  0
   -7.0559    0.9611   -1.0998 H   0  0  0  0  0  0  0  0  0  0  0  0
   -6.0231   -2.8118    0.6778 H   0  0  0  0  0  0  0  0  0  0  0  0
   -7.7227   -1.2873   -0.2922 H   0  0  0  0  0  0  0  0  0  0  0  0
  1 12  1  0  0  0  0
  1 37  1  0  0  0  0
  2 13  1  0  0  0  0
  2 38  1  0  0  0  0
  3 16  1  0  0  0  0
  3 18  1  0  0  0  0
  4 17  2  0  0  0  0
  5  6  1  0  0  0  0
  5  9  1  0  0  0  0
  5 11  1  0  0  0  0
  6  7  1  0  0  0  0
  6 10  1  0  0  0  0
  6 26  1  0  0  0  0
  7  8  1  0  0  0  0
  7 27  1  0  0  0  0
  7 28  1  0  0  0  0
  8  9  1  0  0  0  0
  8 29  1  0  0  0  0
  8 30  1  0  0  0  0
  9 31  1  0  0  0  0
  9 32  1  0  0  0  0
 10 12  2  0  0  0  0
 10 13  1  0  0  0  0
 11 33  1  0  0  0  0
 11 34  1  0  0  0  0
 11 35  1  0  0  0  0
 12 14  1  0  0  0  0
 13 15  2  0  0  0  0
 14 16  2  0  0  0  0
 14 17  1  0  0  0  0
 15 16  1  0  0  0  0
 15 36  1  0  0  0  0
 17 19  1  0  0  0  0
 18 19  2  0  0  0  0
 18 20  1  0  0  0  0
 19 39  1  0  0  0  0
 20 21  2  0  0  0  0
 20 22  1  0  0  0  0
 21 23  1  0  0  0  0
 21 40  1  0  0  0  0
 22 24  2  0  0  0  0
 22 41  1  0  0  0  0
 23 25  2  0  0  0  0
 23 42  1  0  0  0  0
 24 25  1  0  0  0  0
 24 43  1  0  0  0  0
 25 44  1  0  0  0  0
M  END
> <PUBCHEM_COMPOUND_CID>
442861

> <PUBCHEM_CONFORMER_RMSD>
0.6

> <PUBCHEM_CONFORMER_DIVERSEORDER>
2
9
10
7
5
6
3
4
11
12
1
13
8

> <PUBCHEM_MMFF94_PARTIAL_CHARGES>
32
1 -0.53
10 -0.14
11 0.27
12 0.08
13 0.08
14 0.09
15 -0.15
16 0.08
17 0.47
18 0.05
19 -0.14
2 -0.53
20 0.03
21 -0.15
22 -0.15
23 -0.15
24 -0.15
25 -0.15
3 -0.16
36 0.15
37 0.45
38 0.45
39 0.15
4 -0.57
40 0.15
41 0.15
42 0.15
43 0.15
44 0.15
5 -0.81
6 0.41
9 0.27

> <PUBCHEM_EFFECTIVE_ROTOR_COUNT>
3

> <PUBCHEM_PHARMACOPHORE_FEATURES>
9
1 1 donor
1 2 donor
1 3 acceptor
1 4 acceptor
1 5 cation
5 5 6 7 8 9 rings
6 10 12 13 14 15 16 rings
6 20 21 22 23 24 25 rings
6 3 14 16 17 18 19 rings

> <PUBCHEM_HEAVY_ATOM_COUNT>
25

> <PUBCHEM_ATOM_DEF_STEREO_COUNT>
0

> <PUBCHEM_ATOM_UDEF_STEREO_COUNT>
1

> <PUBCHEM_BOND_DEF_STEREO_COUNT>
0

> <PUBCHEM_BOND_UDEF_STEREO_COUNT>
0

> <PUBCHEM_ISOTOPIC_ATOM_COUNT>
0

> <PUBCHEM_COMPONENT_COUNT>
1

> <PUBCHEM_CACTVS_TAUTO_COUNT>
12

> <PUBCHEM_CONFORMER_ID>
0006C1ED00000002

> <PUBCHEM_MMFF94_ENERGY>
78.7774

> <PUBCHEM_FEATURE_SELFOVERLAP>
45.697

> <PUBCHEM_SHAPE_FINGERPRINT>
10 15 18335717005309501154
10076449 9 16950549005695388140
10906281 52 18339060680014448203
11488393 25 17242436450924524878
11646440 116 17967530155732536955
11719270 70 18410581716109343667
11796584 16 17132114640990123099
11963148 33 18410300198294191246
12011746 2 18410009940013173879
12166972 35 17917990568416264276
12236239 1 18060701701992559566
12516196 113 18260551121679816625
12788726 201 18341617074339550961
13140716 1 18191315875090298970
13402501 40 18411139126055573923
13533116 47 14261365677619079088
13685833 64 18409729535169044291
13862211 1 18408606963202563891
14294032 229 18124586750223881028
14787075 74 18272928314919546546
15183329 4 17275390919253285439
15196674 1 18338519642952613449
15927050 60 17686340871941559252
16087824 20 18265615576151252025
17349148 13 18202278130594226546
17492 89 18121501525386875466
17909252 39 17824532192284162142
18222031 100 18260264131400887856
18681886 176 18410579448465954976
19141452 34 17240770540489116111
200 152 18113903767041747313
20028762 73 17968099664376040567
21033648 29 17096103471070413963
21267235 1 18408317775007804611
21641784 216 18201142347504199173
22956985 138 17979356687986772534
23035841 295 18413670219165866979
23198884 109 16056882442580530653
23402539 116 18334584533675712895
23522609 53 18125127581375120685
23536379 177 16702025296366261871
23559900 14 18339930295065278633
23569914 152 12889513841527389819
23569943 247 17315898130180878974
3004659 81 18131634487008343370
329604 57 18413668015214621901
335352 9 18410295809632887661
3411729 13 18117289051865204208
34797466 226 17095521769084211584
350125 39 18410576184301781465
4073 2 17988358187935034315
4325135 7 18201718465874360927
4340502 62 14273734044943316548
439807 62 17988076691747549507
465052 167 18335136471069191174
5104073 3 18043536216385301738
5283173 99 18058457659011520269
542803 24 16917069953880364071
5486654 2 18411697686040878191
7495541 125 18343302535185612097
8863177 126 18056189177698039947

> <PUBCHEM_SHAPE_MULTIPOLES>
486.03
15.55
2.17
1
8.75
0.8
0.27
-6.13
2.22
0.31
-0.35
-1.32
0.12
-0.22

> <PUBCHEM_SHAPE_SELFOVERLAP>
1079.062

> <PUBCHEM_SHAPE_VOLUME>
260.1

> <PUBCHEM_COORDINATE_TYPE>
2
5
10

$$$$

