134970
  -OEChem-07051213093D

 26 25  0     1  0  0  0  0  0999 V2000
   -1.0073    2.2706    0.6989 O   0  0  0  0  0  0  0  0  0  0  0  0
   -0.8961    1.5455   -1.4481 O   0  0  0  0  0  0  0  0  0  0  0  0
    4.2147    0.2282    0.5444 O   0  0  0  0  0  0  0  0  0  0  0  0
    3.2556   -1.4272   -0.6828 O   0  0  0  0  0  0  0  0  0  0  0  0
   -0.7418   -0.0850    0.3599 C   0  0  1  0  0  0  0  0  0  0  0  0
   -1.9025   -1.0022   -0.0701 C   0  0  0  0  0  0  0  0  0  0  0  0
    0.6351   -0.6270   -0.0710 C   0  0  0  0  0  0  0  0  0  0  0  0
   -3.2637   -0.4955    0.4214 C   0  0  0  0  0  0  0  0  0  0  0  0
    1.8332    0.1795    0.4250 C   0  0  0  0  0  0  0  0  0  0  0  0
   -0.8967    1.3029   -0.2482 C   0  0  0  0  0  0  0  0  0  0  0  0
   -4.3818   -1.4553    0.0444 C   0  0  0  0  0  0  0  0  0  0  0  0
    3.1512   -0.4346    0.0260 C   0  0  0  0  0  0  0  0  0  0  0  0
   -0.7535    0.0050    1.4538 H   0  0  0  0  0  0  0  0  0  0  0  0
   -1.9237   -1.0889   -1.1639 H   0  0  0  0  0  0  0  0  0  0  0  0
   -1.7273   -2.0097    0.3272 H   0  0  0  0  0  0  0  0  0  0  0  0
    0.6780   -0.6945   -1.1666 H   0  0  0  0  0  0  0  0  0  0  0  0
    0.7310   -1.6578    0.2959 H   0  0  0  0  0  0  0  0  0  0  0  0
   -3.4832    0.4878   -0.0089 H   0  0  0  0  0  0  0  0  0  0  0  0
   -3.2442   -0.3776    1.5110 H   0  0  0  0  0  0  0  0  0  0  0  0
    1.8061    1.1948    0.0157 H   0  0  0  0  0  0  0  0  0  0  0  0
    1.8046    0.2378    1.5188 H   0  0  0  0  0  0  0  0  0  0  0  0
   -5.3437   -1.0763    0.4038 H   0  0  0  0  0  0  0  0  0  0  0  0
   -4.4472   -1.5735   -1.0419 H   0  0  0  0  0  0  0  0  0  0  0  0
   -4.2183   -2.4422    0.4888 H   0  0  0  0  0  0  0  0  0  0  0  0
   -1.0926    3.1631    0.3010 H   0  0  0  0  0  0  0  0  0  0  0  0
    5.0658   -0.1823    0.2810 H   0  0  0  0  0  0  0  0  0  0  0  0
  1 10  1  0  0  0  0
  1 25  1  0  0  0  0
  2 10  2  0  0  0  0
  3 12  1  0  0  0  0
  3 26  1  0  0  0  0
  4 12  2  0  0  0  0
  5  6  1  0  0  0  0
  5  7  1  0  0  0  0
  5 10  1  0  0  0  0
  5 13  1  0  0  0  0
  6  8  1  0  0  0  0
  6 14  1  0  0  0  0
  6 15  1  0  0  0  0
  7  9  1  0  0  0  0
  7 16  1  0  0  0  0
  7 17  1  0  0  0  0
  8 11  1  0  0  0  0
  8 18  1  0  0  0  0
  8 19  1  0  0  0  0
  9 12  1  0  0  0  0
  9 20  1  0  0  0  0
  9 21  1  0  0  0  0
 11 22  1  0  0  0  0
 11 23  1  0  0  0  0
 11 24  1  0  0  0  0
M  END
> <PUBCHEM_COMPOUND_CID>
134970

> <PUBCHEM_CONFORMER_RMSD>
0.6

> <PUBCHEM_CONFORMER_DIVERSEORDER>
1
137
103
139
129
126
96
75
143
9
105
64
79
49
95
130
142
45
94
136
66
108
40
117
131
50
93
111
90
16
113
118
133
18
116
52
74
97
125
60
110
35
107
99
83
112
80
11
70
114
101
76
67
135
119
68
78
30
42
89
98
3
61
127
123
92
81
109
106
72
39
86
85
34
132
121
128
77
13
138
62
91
47
53
41
14
71
88
25
12
10
63
100
82
23
2
46
84
120
36
27
33
102
22
141
104
15
32
122
21
51
115
8
140
4
5
58
54
134
87
6
17
29
19
65
44
73
59
43
124
57
31
69
55
38
48
7
26
20
56
37
28
24

> <PUBCHEM_MMFF94_PARTIAL_CHARGES>
10
1 -0.65
10 0.66
12 0.66
2 -0.57
25 0.5
26 0.5
3 -0.65
4 -0.57
5 0.06
9 0.06

> <PUBCHEM_EFFECTIVE_ROTOR_COUNT>
6

> <PUBCHEM_PHARMACOPHORE_FEATURES>
8
1 1 acceptor
1 11 hydrophobe
1 2 acceptor
1 3 acceptor
1 4 acceptor
3 1 2 10 anion
3 3 4 12 anion
5 5 6 7 8 9 hydrophobe

> <PUBCHEM_HEAVY_ATOM_COUNT>
12

> <PUBCHEM_ATOM_DEF_STEREO_COUNT>
0

> <PUBCHEM_ATOM_UDEF_STEREO_COUNT>
1

> <PUBCHEM_BOND_DEF_STEREO_COUNT>
0

> <PUBCHEM_BOND_UDEF_STEREO_COUNT>
0

> <PUBCHEM_ISOTOPIC_ATOM_COUNT>
0

> <PUBCHEM_COMPONENT_COUNT>
1

> <PUBCHEM_CACTVS_TAUTO_COUNT>
1

> <PUBCHEM_CONFORMER_ID>
00020F3A00000001

> <PUBCHEM_MMFF94_ENERGY>
8.8537

> <PUBCHEM_FEATURE_SELFOVERLAP>
40.711

> <PUBCHEM_SHAPE_FINGERPRINT>
10219947 1 18261669277629060979
10989021 7 18059570252803724892
12032990 46 18411132511689867579
12932764 1 16154005628813710690
14252887 29 18334284340830969955
17844478 74 18187365445517139368
18186145 218 10231766564965006267
187816 3 17275106111165857515
200 152 16272214089107881202
20281407 28 18408880732971132771
20671657 53 17561367261849557373
20711985 327 18335412423081741535
20871998 184 18187083996310226189
20871998 22 18335129895527053935
21296965 67 18409730634390502121
22485316 2 18334016081690012531
23402539 116 18271535233761189062
23557571 272 18408597085363228836
25610 137 18408603647619615224
31174 14 17894919490392724216
3250762 1 17683511106947641655
81228 2 18271793674880785641
81539 233 6843663270068501849

> <PUBCHEM_SHAPE_MULTIPOLES>
223.48
7.02
1.73
0.86
1.15
0.88
-0.16
-3.81
0.59
-0.77
-0.15
0
0.24
0.34

> <PUBCHEM_SHAPE_SELFOVERLAP>
421.258

> <PUBCHEM_SHAPE_VOLUME>
138.2

> <PUBCHEM_COORDINATE_TYPE>
2
5
10

$$$$

