638678
  -OEChem-07051212493D

 48 50  0     1  0  0  0  0  0999 V2000
    0.3238    1.2829   -1.4643 O   0  0  0  0  0  0  0  0  0  0  0  0
    3.4747    1.7243   -1.5121 O   0  0  0  0  0  0  0  0  0  0  0  0
   -1.9077    0.1139    1.4236 O   0  0  0  0  0  0  0  0  0  0  0  0
   -5.5070    2.1084    1.0928 O   0  0  0  0  0  0  0  0  0  0  0  0
    1.7475    1.1657    0.3566 N   0  0  0  0  0  0  0  0  0  0  0  0
   -1.0605   -0.7241   -0.5779 N   0  0  0  0  0  0  0  0  0  0  0  0
   -4.3580    0.1232    0.6229 N   0  0  0  0  0  0  0  0  0  0  0  0
    3.6580    3.9535   -0.9729 N   0  0  0  0  0  0  0  0  0  0  0  0
    2.1561   -3.8395   -0.0352 N   0  0  0  0  0  0  0  0  0  0  0  0
    0.4130   -5.1631    0.3413 N   0  0  0  0  0  0  0  0  0  0  0  0
    2.1818    2.5559    0.3183 C   0  0  1  0  0  0  0  0  0  0  0  0
    2.8494    2.7905    1.6684 C   0  0  0  0  0  0  0  0  0  0  0  0
    2.3243    0.4648    1.5011 C   0  0  0  0  0  0  0  0  0  0  0  0
    3.3846    1.4109    2.0441 C   0  0  0  0  0  0  0  0  0  0  0  0
    0.3278   -0.7452   -0.2171 C   0  0  2  0  0  0  0  0  0  0  0  0
    0.7880    0.6611   -0.5072 C   0  0  0  0  0  0  0  0  0  0  0  0
   -3.4223   -0.3509   -0.3573 C   0  0  1  0  0  0  0  0  0  0  0  0
    3.1559    2.6836   -0.8140 C   0  0  0  0  0  0  0  0  0  0  0  0
    1.1469   -1.7452   -1.0233 C   0  0  0  0  0  0  0  0  0  0  0  0
   -3.5749    0.6281   -1.5059 C   0  0  0  0  0  0  0  0  0  0  0  0
   -2.0693   -0.2941    0.2765 C   0  0  0  0  0  0  0  0  0  0  0  0
   -4.0483    1.9200   -0.8404 C   0  0  0  0  0  0  0  0  0  0  0  0
   -4.7558    1.4374    0.4021 C   0  0  0  0  0  0  0  0  0  0  0  0
    1.0578   -3.1377   -0.4456 C   0  0  0  0  0  0  0  0  0  0  0  0
   -0.0056   -3.9752   -0.2037 C   0  0  0  0  0  0  0  0  0  0  0  0
    1.7198   -5.0491    0.4292 C   0  0  0  0  0  0  0  0  0  0  0  0
    1.3303    3.2215    0.1408 H   0  0  0  0  0  0  0  0  0  0  0  0
    3.6383    3.5477    1.6680 H   0  0  0  0  0  0  0  0  0  0  0  0
    2.0927    3.0922    2.4034 H   0  0  0  0  0  0  0  0  0  0  0  0
    2.7355   -0.5036    1.2046 H   0  0  0  0  0  0  0  0  0  0  0  0
    1.5316    0.3119    2.2416 H   0  0  0  0  0  0  0  0  0  0  0  0
    3.5432    1.2927    3.1196 H   0  0  0  0  0  0  0  0  0  0  0  0
    4.3405    1.2333    1.5369 H   0  0  0  0  0  0  0  0  0  0  0  0
    0.3781   -0.9619    0.8535 H   0  0  0  0  0  0  0  0  0  0  0  0
   -3.6658   -1.3804   -0.6358 H   0  0  0  0  0  0  0  0  0  0  0  0
    0.8139   -1.7772   -2.0688 H   0  0  0  0  0  0  0  0  0  0  0  0
    2.2019   -1.4425   -1.0467 H   0  0  0  0  0  0  0  0  0  0  0  0
   -4.3615    0.2723   -2.1837 H   0  0  0  0  0  0  0  0  0  0  0  0
   -2.6733    0.7873   -2.1042 H   0  0  0  0  0  0  0  0  0  0  0  0
   -1.3104   -1.0082   -1.5210 H   0  0  0  0  0  0  0  0  0  0  0  0
   -4.7274    2.4836   -1.4845 H   0  0  0  0  0  0  0  0  0  0  0  0
   -3.2032    2.5486   -0.5426 H   0  0  0  0  0  0  0  0  0  0  0  0
   -4.6690   -0.4252    1.4187 H   0  0  0  0  0  0  0  0  0  0  0  0
    4.3323    4.1601   -1.7025 H   0  0  0  0  0  0  0  0  0  0  0  0
    3.3682    4.7309   -0.3881 H   0  0  0  0  0  0  0  0  0  0  0  0
    3.1168   -3.5247   -0.0668 H   0  0  0  0  0  0  0  0  0  0  0  0
   -1.0525   -3.7873   -0.3942 H   0  0  0  0  0  0  0  0  0  0  0  0
    2.3996   -5.7952    0.8152 H   0  0  0  0  0  0  0  0  0  0  0  0
  1 16  2  0  0  0  0
  2 18  2  0  0  0  0
  3 21  2  0  0  0  0
  4 23  2  0  0  0  0
  5 11  1  0  0  0  0
  5 13  1  0  0  0  0
  5 16  1  0  0  0  0
  6 15  1  0  0  0  0
  6 21  1  0  0  0  0
  6 40  1  0  0  0  0
  7 17  1  0  0  0  0
  7 23  1  0  0  0  0
  7 43  1  0  0  0  0
  8 18  1  0  0  0  0
  8 44  1  0  0  0  0
  8 45  1  0  0  0  0
  9 24  1  0  0  0  0
  9 26  1  0  0  0  0
  9 46  1  0  0  0  0
 10 25  1  0  0  0  0
 10 26  2  0  0  0  0
 11 12  1  0  0  0  0
 11 18  1  0  0  0  0
 11 27  1  0  0  0  0
 12 14  1  0  0  0  0
 12 28  1  0  0  0  0
 12 29  1  0  0  0  0
 13 14  1  0  0  0  0
 13 30  1  0  0  0  0
 13 31  1  0  0  0  0
 14 32  1  0  0  0  0
 14 33  1  0  0  0  0
 15 16  1  0  0  0  0
 15 19  1  0  0  0  0
 15 34  1  0  0  0  0
 17 20  1  0  0  0  0
 17 21  1  0  0  0  0
 17 35  1  0  0  0  0
 19 24  1  0  0  0  0
 19 36  1  0  0  0  0
 19 37  1  0  0  0  0
 20 22  1  0  0  0  0
 20 38  1  0  0  0  0
 20 39  1  0  0  0  0
 22 23  1  0  0  0  0
 22 41  1  0  0  0  0
 22 42  1  0  0  0  0
 24 25  2  0  0  0  0
 25 47  1  0  0  0  0
 26 48  1  0  0  0  0
M  END
> <PUBCHEM_COMPOUND_CID>
638678

> <PUBCHEM_CONFORMER_RMSD>
1

> <PUBCHEM_CONFORMER_DIVERSEORDER>
1
109
149
142
167
65
83
60
77
54
46
104
45
146
164
59
139
125
165
75
53
29
101
160
34
84
26
70
153
162
23
18
21
144
106
113
19
123
169
163
166
43
16
121
161
91
159
47
82
78
62
107
22
3
119
126
37
135
74
20
127
95
8
143
148
133
86
41
150
156
147
73
71
102
98
117
31
124
13
168
92
100
38
111
81
72
110
68
36
64
79
12
61
24
132
157
136
116
56
103
141
137
108
152
115
25
89
10
39
76
32
140
85
88
80
48
129
4
49
128
17
99
151
15
30
28
131
134
52
154
96
122
63
5
7
87
114
118
138
120
170
50
66
69
158
35
57
42
2
90
51
112
11
27
67
93
6
55
44
94
14
155
9
97
105
145
58
33
40
130

> <PUBCHEM_MMFF94_PARTIAL_CHARGES>
30
1 -0.57
10 -0.57
11 0.36
13 0.3
15 0.36
16 0.57
17 0.36
18 0.57
19 0.18
2 -0.57
21 0.57
22 0.06
23 0.57
24 -0.33
25 0.08
26 0.04
3 -0.57
4 -0.57
40 0.37
43 0.37
44 0.37
45 0.37
46 0.27
47 0.15
48 0.15
5 -0.66
6 -0.73
7 -0.73
8 -0.8
9 0.03

> <PUBCHEM_EFFECTIVE_ROTOR_COUNT>
9.8

> <PUBCHEM_PHARMACOPHORE_FEATURES>
12
1 1 acceptor
1 2 acceptor
1 3 acceptor
1 4 acceptor
1 6 donor
1 7 donor
1 8 donor
1 9 donor
3 9 10 26 cation
5 5 11 12 13 14 rings
5 7 17 20 22 23 rings
5 9 10 24 25 26 rings

> <PUBCHEM_HEAVY_ATOM_COUNT>
26

> <PUBCHEM_ATOM_DEF_STEREO_COUNT>
3

> <PUBCHEM_ATOM_UDEF_STEREO_COUNT>
0

> <PUBCHEM_BOND_DEF_STEREO_COUNT>
0

> <PUBCHEM_BOND_UDEF_STEREO_COUNT>
0

> <PUBCHEM_ISOTOPIC_ATOM_COUNT>
0

> <PUBCHEM_COMPONENT_COUNT>
1

> <PUBCHEM_CACTVS_TAUTO_COUNT>
24

> <PUBCHEM_CONFORMER_ID>
0009BED600000001

> <PUBCHEM_MMFF94_ENERGY>
55.4277

> <PUBCHEM_FEATURE_SELFOVERLAP>
60.892

> <PUBCHEM_SHAPE_FINGERPRINT>
12160290 23 17610907781211097990
12788726 201 17618233801496598766
13004483 165 17473834303871248291
13134695 92 17977390752367900183
13140716 1 18336553745683660546
13533116 47 18337107986556072871
13590594 115 17547000193003535681
13681431 1 18046615982714310718
14856354 85 16199592351643754824
15230672 131 18270388392838458588
15842332 3 17411362931251956312
17868525 174 17905323280053222065
17876694 64 17026844284406982739
17980427 23 16955082463302501241
17980427 26 18261407662211674228
18785283 64 18341048626870292059
20600515 1 16965194774442882580
20739085 24 18268445683939498976
21033648 29 18191300485869770665
21049683 271 18125145280850367190
21120745 212 17253974863907176342
21304303 172 10278050455829497062
2255824 54 18263077867840848143
22907989 373 17546448873298598404
23366157 5 18339083803991970551
23419403 2 17763488478718366206
23558518 356 18118982303613310958
23559900 14 18270397338511614767
3091708 16 8972295820832201463
458136 41 18411695495844739477
633830 44 17895195454800442941
6442390 28 18267574720000327885
6443956 14 18192717967048033514
7399639 24 18198883848327092875
7808743 9 17907575827059770172
79837 15 18194410987089719171
81228 2 17325771374834804567
84936 182 18260265269878529241
9981440 41 18337681806496766673

> <PUBCHEM_SHAPE_MULTIPOLES>
481.7
8.19
6.41
1.51
11.02
10.2
0.22
-9.46
1.26
-6.89
0.09
-0.75
-1.11
-0.43

> <PUBCHEM_SHAPE_SELFOVERLAP>
1024.615

> <PUBCHEM_SHAPE_VOLUME>
269.8

> <PUBCHEM_COORDINATE_TYPE>
2
5
10

$$$$

