11953976
  -OEChem-07051213022D

 85 89  0     1  0  0  0  0  0999 V2000
    8.1282   -1.0000    0.0000 O   0  0  0  0  0  0  0  0  0  0  0  0
    8.1282   -2.0000    0.0000 O   0  0  0  0  0  0  0  0  0  0  0  0
    5.5301    0.5000    0.0000 O   0  0  0  0  0  0  0  0  0  0  0  0
    4.1714    4.4439    0.0000 O   0  0  0  0  0  0  0  0  0  0  0  0
    4.3221    3.9397    0.0000 O   0  0  0  0  0  0  0  0  0  0  0  0
    6.5301    1.5000    0.0000 O   0  0  0  0  0  0  0  0  0  0  0  0
    2.0000    3.5242    0.0000 O   0  0  0  0  0  0  0  0  0  0  0  0
   10.7263    3.5000    0.0000 O   0  0  0  0  0  0  0  0  0  0  0  0
    7.2622   -1.5000    0.0000 C   0  0  2  0  0  0  0  0  0  0  0  0
    6.3961    0.0000    0.0000 C   0  0  2  0  0  0  0  0  0  0  0  0
    6.3961   -1.0000    0.0000 C   0  0  0  0  0  0  0  0  0  0  0  0
    4.6641    3.0000    0.0000 C   0  0  2  0  0  0  0  0  0  0  0  0
    7.2622    0.5000    0.0000 C   0  0  0  0  0  0  0  0  0  0  0  0
    8.1282    0.0000    0.0000 C   0  0  1  0  0  0  0  0  0  0  0  0
    8.1282   -3.0000    0.0000 C   0  0  1  0  0  0  0  0  0  0  0  0
    4.6641    2.0000    0.0000 C   0  0  2  0  0  0  0  0  0  0  0  0
    3.7702    3.5347    0.0000 C   0  0  1  0  0  0  0  0  0  0  0  0
    7.2622   -3.5000    0.0000 C   0  0  2  0  0  0  0  0  0  0  0  0
    6.3961   -2.0000    0.0000 C   0  0  0  0  0  0  0  0  0  0  0  0
    8.9942   -3.5000    0.0000 C   0  0  0  0  0  0  0  0  0  0  0  0
    5.5301    3.5000    0.0000 C   0  0  0  0  0  0  0  0  0  0  0  0
    6.3961   -3.0000    0.0000 C   0  0  0  0  0  0  0  0  0  0  0  0
    8.9942    0.5000    0.0000 C   0  0  0  0  0  0  0  0  0  0  0  0
    5.5301    1.5000    0.0000 C   0  0  0  0  0  0  0  0  0  0  0  0
    5.1650    4.4243    0.0000 C   0  0  0  0  0  0  0  0  0  0  0  0
    3.7702    1.4653    0.0000 C   0  0  0  0  0  0  0  0  0  0  0  0
    2.8641    3.0208    0.0000 C   0  0  0  0  0  0  0  0  0  0  0  0
    2.8641    1.9792    0.0000 C   0  0  0  0  0  0  0  0  0  0  0  0
    7.2622   -4.5000    0.0000 C   0  0  0  0  0  0  0  0  0  0  0  0
    8.9942   -4.5000    0.0000 C   0  0  0  0  0  0  0  0  0  0  0  0
    9.8602   -3.0000    0.0000 C   0  0  0  0  0  0  0  0  0  0  0  0
    6.3961    3.0000    0.0000 C   0  0  0  0  0  0  0  0  0  0  0  0
    8.9942    1.5000    0.0000 C   0  0  0  0  0  0  0  0  0  0  0  0
    2.0000    1.4759    0.0000 C   0  0  0  0  0  0  0  0  0  0  0  0
    9.8602    2.0000    0.0000 C   0  0  0  0  0  0  0  0  0  0  0  0
    9.8602    3.0000    0.0000 C   0  0  2  0  0  0  0  0  0  0  0  0
    8.9942    3.5000    0.0000 C   0  0  2  0  0  0  0  0  0  0  0  0
    7.2622    3.5000    0.0000 C   0  0  0  0  0  0  0  0  0  0  0  0
    8.1282    3.0000    0.0000 C   0  0  0  0  0  0  0  0  0  0  0  0
   10.7263    1.5000    0.0000 C   0  0  0  0  0  0  0  0  0  0  0  0
    8.9942    4.5000    0.0000 C   0  0  0  0  0  0  0  0  0  0  0  0
    5.6600   -0.4250    0.0000 H   0  0  0  0  0  0  0  0  0  0  0  0
    5.7856   -0.8923    0.0000 H   0  0  0  0  0  0  0  0  0  0  0  0
    6.1841   -1.5826    0.0000 H   0  0  0  0  0  0  0  0  0  0  0  0
    7.6607    0.9749    0.0000 H   0  0  0  0  0  0  0  0  0  0  0  0
    6.8636    0.9749    0.0000 H   0  0  0  0  0  0  0  0  0  0  0  0
    8.8643   -0.4250    0.0000 H   0  0  0  0  0  0  0  0  0  0  0  0
    8.6651   -2.6900    0.0000 H   0  0  0  0  0  0  0  0  0  0  0  0
    4.6641    1.1500    0.0000 H   0  0  0  0  0  0  0  0  0  0  0  0
    3.1397    4.1048    0.0000 H   0  0  0  0  0  0  0  0  0  0  0  0
    6.7252   -3.8100    0.0000 H   0  0  0  0  0  0  0  0  0  0  0  0
    5.8592   -1.6900    0.0000 H   0  0  0  0  0  0  0  0  0  0  0  0
    8.4573   -3.8100    0.0000 H   0  0  0  0  0  0  0  0  0  0  0  0
    5.8592   -3.3100    0.0000 H   0  0  0  0  0  0  0  0  0  0  0  0
    9.2063   -0.0826    0.0000 H   0  0  0  0  0  0  0  0  0  0  0  0
    9.6048    0.6077    0.0000 H   0  0  0  0  0  0  0  0  0  0  0  0
    5.7666    4.5742    0.0000 H   0  0  0  0  0  0  0  0  0  0  0  0
    5.0956    5.0404    0.0000 H   0  0  0  0  0  0  0  0  0  0  0  0
    3.7773    0.8454    0.0000 H   0  0  0  0  0  0  0  0  0  0  0  0
    6.6422   -4.5000    0.0000 H   0  0  0  0  0  0  0  0  0  0  0  0
    7.2622   -5.1200    0.0000 H   0  0  0  0  0  0  0  0  0  0  0  0
    7.8822   -4.5000    0.0000 H   0  0  0  0  0  0  0  0  0  0  0  0
    3.7395    4.1518    0.0000 H   0  0  0  0  0  0  0  0  0  0  0  0
    8.3742   -4.5000    0.0000 H   0  0  0  0  0  0  0  0  0  0  0  0
    8.9942   -5.1200    0.0000 H   0  0  0  0  0  0  0  0  0  0  0  0
    9.6142   -4.5000    0.0000 H   0  0  0  0  0  0  0  0  0  0  0  0
   10.1703   -3.5369    0.0000 H   0  0  0  0  0  0  0  0  0  0  0  0
   10.3972   -2.6900    0.0000 H   0  0  0  0  0  0  0  0  0  0  0  0
    9.5502   -2.4631    0.0000 H   0  0  0  0  0  0  0  0  0  0  0  0
    6.7062    2.4631    0.0000 H   0  0  0  0  0  0  0  0  0  0  0  0
    8.4573    1.8100    0.0000 H   0  0  0  0  0  0  0  0  0  0  0  0
    1.6879    2.0116    0.0000 H   0  0  0  0  0  0  0  0  0  0  0  0
    1.4643    1.1638    0.0000 H   0  0  0  0  0  0  0  0  0  0  0  0
    2.3121    0.9401    0.0000 H   0  0  0  0  0  0  0  0  0  0  0  0
   10.3972    2.6900    0.0000 H   0  0  0  0  0  0  0  0  0  0  0  0
    8.4573    3.8100    0.0000 H   0  0  0  0  0  0  0  0  0  0  0  0
    7.2622    4.1200    0.0000 H   0  0  0  0  0  0  0  0  0  0  0  0
    8.1282    2.3800    0.0000 H   0  0  0  0  0  0  0  0  0  0  0  0
   10.4163    0.9631    0.0000 H   0  0  0  0  0  0  0  0  0  0  0  0
   11.2632    1.1900    0.0000 H   0  0  0  0  0  0  0  0  0  0  0  0
   11.0363    2.0369    0.0000 H   0  0  0  0  0  0  0  0  0  0  0  0
    9.6142    4.5000    0.0000 H   0  0  0  0  0  0  0  0  0  0  0  0
    8.9942    5.1200    0.0000 H   0  0  0  0  0  0  0  0  0  0  0  0
    8.3742    4.5000    0.0000 H   0  0  0  0  0  0  0  0  0  0  0  0
   11.2632    3.1900    0.0000 H   0  0  0  0  0  0  0  0  0  0  0  0
  1  9  1  0  0  0  0
  1 14  1  0  0  0  0
  9  2  1  6  0  0  0
  2 15  1  0  0  0  0
  3 10  1  0  0  0  0
  3 24  1  0  0  0  0
  4 17  1  0  0  0  0
  4 25  1  0  0  0  0
 12  5  1  6  0  0  0
  5 63  1  0  0  0  0
  6 24  2  0  0  0  0
  7 27  2  0  0  0  0
 36  8  1  6  0  0  0
  8 85  1  0  0  0  0
  9 11  1  0  0  0  0
  9 19  1  0  0  0  0
 10 11  1  0  0  0  0
 10 13  1  0  0  0  0
 10 42  1  6  0  0  0
 11 43  1  0  0  0  0
 11 44  1  0  0  0  0
 12 16  1  0  0  0  0
 12 17  1  0  0  0  0
 12 21  1  0  0  0  0
 13 14  1  0  0  0  0
 13 45  1  0  0  0  0
 13 46  1  0  0  0  0
 14 23  1  0  0  0  0
 14 47  1  6  0  0  0
 15 18  1  0  0  0  0
 15 20  1  6  0  0  0
 15 48  1  0  0  0  0
 16 24  1  0  0  0  0
 16 26  1  0  0  0  0
 16 49  1  1  0  0  0
 17 27  1  0  0  0  0
 17 50  1  6  0  0  0
 18 22  1  0  0  0  0
 18 29  1  1  0  0  0
 18 51  1  0  0  0  0
 19 22  2  0  0  0  0
 19 52  1  0  0  0  0
 20 30  1  0  0  0  0
 20 31  1  0  0  0  0
 20 53  1  0  0  0  0
 21 25  1  0  0  0  0
 21 32  2  0  0  0  0
 22 54  1  0  0  0  0
 23 33  1  0  0  0  0
 23 55  1  0  0  0  0
 23 56  1  0  0  0  0
 25 57  1  0  0  0  0
 25 58  1  0  0  0  0
 26 28  2  0  0  0  0
 26 59  1  0  0  0  0
 27 28  1  0  0  0  0
 28 34  1  0  0  0  0
 29 60  1  0  0  0  0
 29 61  1  0  0  0  0
 29 62  1  0  0  0  0
 30 64  1  0  0  0  0
 30 65  1  0  0  0  0
 30 66  1  0  0  0  0
 31 67  1  0  0  0  0
 31 68  1  0  0  0  0
 31 69  1  0  0  0  0
 32 38  1  0  0  0  0
 32 70  1  0  0  0  0
 33 35  2  0  0  0  0
 33 71  1  0  0  0  0
 34 72  1  0  0  0  0
 34 73  1  0  0  0  0
 34 74  1  0  0  0  0
 35 36  1  0  0  0  0
 35 40  1  0  0  0  0
 36 37  1  0  0  0  0
 36 75  1  0  0  0  0
 37 39  1  0  0  0  0
 37 41  1  6  0  0  0
 37 76  1  0  0  0  0
 38 39  2  0  0  0  0
 38 77  1  0  0  0  0
 39 78  1  0  0  0  0
 40 79  1  0  0  0  0
 40 80  1  0  0  0  0
 40 81  1  0  0  0  0
 41 82  1  0  0  0  0
 41 83  1  0  0  0  0
 41 84  1  0  0  0  0
M  END
> <PUBCHEM_COMPOUND_CID>
11953976

> <PUBCHEM_COMPOUND_CANONICALIZED>
1

> <PUBCHEM_CACTVS_COMPLEXITY>
1210

> <PUBCHEM_CACTVS_HBOND_ACCEPTOR>
8

> <PUBCHEM_CACTVS_HBOND_DONOR>
2

> <PUBCHEM_CACTVS_ROTATABLE_BOND>
1

> <PUBCHEM_CACTVS_SUBSKEYS>
AAADcfB8PAAAAAAAAAAAAAAAAAAAASAAAAAkQIAAAAAAAEAAAAAAGgAACAAADVSggAICCAAABgCIAqDSCAIAAAAgAAAICAFAAEgZFBYAIQQiUAAF4AAPsYPK7uyugAAAAAAAAAAAAAAAAAAAAAAAAAAAAA==

> <PUBCHEM_IUPAC_INCHI>
InChI=1S/C33H44O8/c1-18(2)29-21(5)12-13-32(41-29)16-25-15-24(40-32)11-10-20(4)27(34)19(3)8-7-9-23-17-38-30-28(35)22(6)14-26(31(36)39-25)33(23,30)37/h7-10,12-14,18-19,21,24-27,29-30,34,37H,11,15-17H2,1-6H3/b8-7+,20-10+,23-9+/t19-,21-,24+,25-,26-,27-,29+,30+,32+,33+/m0/s1

> <PUBCHEM_IUPAC_INCHIKEY>
BEEFSSUBEICEFL-AWCHRDHNSA-N

> <PUBCHEM_XLOGP3_AA>
3.4

> <PUBCHEM_EXACT_MASS>
568.303618

> <PUBCHEM_MOLECULAR_FORMULA>
C33H44O8

> <PUBCHEM_MOLECULAR_WEIGHT>
568.69766

> <PUBCHEM_OPENEYE_CAN_SMILES>
CC1C=CC=C2COC3C2(C(C=C(C3=O)C)C(=O)OC4CC(CC=C(C1O)C)OC5(C4)C=CC(C(O5)C(C)C)C)O

> <PUBCHEM_OPENEYE_ISO_SMILES>
C[C@H]1/C=C/C=C/2\CO[C@H]3[C@@]2([C@@H](C=C(C3=O)C)C(=O)O[C@H]4C[C@@H](C/C=C(/[C@H]1O)\C)O[C@]5(C4)C=C[C@@H]([C@H](O5)C(C)C)C)O

> <PUBCHEM_CACTVS_TPSA>
112

> <PUBCHEM_MONOISOTOPIC_WEIGHT>
568.303618

> <PUBCHEM_TOTAL_CHARGE>
0

> <PUBCHEM_HEAVY_ATOM_COUNT>
41

> <PUBCHEM_ATOM_DEF_STEREO_COUNT>
10

> <PUBCHEM_ATOM_UDEF_STEREO_COUNT>
0

> <PUBCHEM_BOND_DEF_STEREO_COUNT>
3

> <PUBCHEM_BOND_UDEF_STEREO_COUNT>
0

> <PUBCHEM_ISOTOPIC_ATOM_COUNT>
0

> <PUBCHEM_COMPONENT_COUNT>
1

> <PUBCHEM_CACTVS_TAUTO_COUNT>
7

> <PUBCHEM_COORDINATE_TYPE>
1
5
255

> <PUBCHEM_BONDANNOTATIONS>
10  42  6
14  47  6
15  20  6
16  49  5
17  50  6
18  29  5
9  2  6
37  41  6
12  5  6
36  8  6

$$$$

