17395680
  -OEChem-06241222513D

 39 42  0     0  0  0  0  0  0999 V2000
    1.8508    0.4243    0.6356 S   0  0  0  0  0  0  0  0  0  0  0  0
    0.7526   -2.8837   -1.0432 O   0  0  0  0  0  0  0  0  0  0  0  0
   -2.8334   -1.1794    0.7465 N   0  0  0  0  0  0  0  0  0  0  0  0
   -0.4617   -1.2682    0.1489 N   0  0  0  0  0  0  0  0  0  0  0  0
   -3.9913   -1.8524    0.6331 N   0  0  0  0  0  0  0  0  0  0  0  0
   -2.8194    0.0800    1.4547 C   0  0  0  0  0  0  0  0  0  0  0  0
   -1.7747   -1.8001    0.1514 C   0  0  0  0  0  0  0  0  0  0  0  0
   -3.0901    1.2343    0.5280 C   0  0  0  0  0  0  0  0  0  0  0  0
    4.1436   -0.3147   -0.3037 C   0  0  0  0  0  0  0  0  0  0  0  0
    1.9167   -1.0374   -0.2386 C   0  0  0  0  0  0  0  0  0  0  0  0
    3.5391    0.7096    0.4316 C   0  0  0  0  0  0  0  0  0  0  0  0
    3.1876   -1.3161   -0.6823 C   0  0  0  0  0  0  0  0  0  0  0  0
   -2.2745   -2.9601   -0.3884 C   0  0  0  0  0  0  0  0  0  0  0  0
    0.7207   -1.7943   -0.4208 C   0  0  0  0  0  0  0  0  0  0  0  0
   -4.3999    1.6626    0.3118 C   0  0  0  0  0  0  0  0  0  0  0  0
   -2.0315    1.8758   -0.1149 C   0  0  0  0  0  0  0  0  0  0  0  0
   -3.6435   -2.9392   -0.0611 C   0  0  0  0  0  0  0  0  0  0  0  0
    5.5337   -0.2259   -0.5574 C   0  0  0  0  0  0  0  0  0  0  0  0
    4.2803    1.8063    0.9138 C   0  0  0  0  0  0  0  0  0  0  0  0
    6.2717    0.8608   -0.0807 C   0  0  0  0  0  0  0  0  0  0  0  0
    5.6494    1.8652    0.6470 C   0  0  0  0  0  0  0  0  0  0  0  0
   -4.6510    2.7325   -0.5472 C   0  0  0  0  0  0  0  0  0  0  0  0
   -2.2828    2.9458   -0.9739 C   0  0  0  0  0  0  0  0  0  0  0  0
   -3.5924    3.3741   -1.1902 C   0  0  0  0  0  0  0  0  0  0  0  0
   -1.8620    0.1960    1.9738 H   0  0  0  0  0  0  0  0  0  0  0  0
   -3.5808    0.0320    2.2438 H   0  0  0  0  0  0  0  0  0  0  0  0
   -0.3613   -0.3884    0.6454 H   0  0  0  0  0  0  0  0  0  0  0  0
    3.4384   -2.1997   -1.2573 H   0  0  0  0  0  0  0  0  0  0  0  0
   -1.7399   -3.7187   -0.9404 H   0  0  0  0  0  0  0  0  0  0  0  0
   -5.2337    1.1710    0.8060 H   0  0  0  0  0  0  0  0  0  0  0  0
   -1.0050    1.5718    0.0497 H   0  0  0  0  0  0  0  0  0  0  0  0
   -4.4020   -3.6706   -0.2996 H   0  0  0  0  0  0  0  0  0  0  0  0
    6.0355   -1.0049   -1.1261 H   0  0  0  0  0  0  0  0  0  0  0  0
    3.8014    2.5970    1.4844 H   0  0  0  0  0  0  0  0  0  0  0  0
    7.3377    0.9175   -0.2820 H   0  0  0  0  0  0  0  0  0  0  0  0
    6.2314    2.7063    1.0136 H   0  0  0  0  0  0  0  0  0  0  0  0
   -5.6708    3.0660   -0.7156 H   0  0  0  0  0  0  0  0  0  0  0  0
   -1.4582    3.4477   -1.4717 H   0  0  0  0  0  0  0  0  0  0  0  0
   -3.7878    4.2077   -1.8583 H   0  0  0  0  0  0  0  0  0  0  0  0
  1 10  1  0  0  0  0
  1 11  1  0  0  0  0
  2 14  2  0  0  0  0
  3  5  1  0  0  0  0
  3  6  1  0  0  0  0
  3  7  1  0  0  0  0
  4  7  1  0  0  0  0
  4 14  1  0  0  0  0
  4 27  1  0  0  0  0
  5 17  2  0  0  0  0
  6  8  1  0  0  0  0
  6 25  1  0  0  0  0
  6 26  1  0  0  0  0
  7 13  2  0  0  0  0
  8 15  2  0  0  0  0
  8 16  1  0  0  0  0
  9 11  1  0  0  0  0
  9 12  1  0  0  0  0
  9 18  2  0  0  0  0
 10 12  2  0  0  0  0
 10 14  1  0  0  0  0
 11 19  2  0  0  0  0
 12 28  1  0  0  0  0
 13 17  1  0  0  0  0
 13 29  1  0  0  0  0
 15 22  1  0  0  0  0
 15 30  1  0  0  0  0
 16 23  2  0  0  0  0
 16 31  1  0  0  0  0
 17 32  1  0  0  0  0
 18 20  1  0  0  0  0
 18 33  1  0  0  0  0
 19 21  1  0  0  0  0
 19 34  1  0  0  0  0
 20 21  2  0  0  0  0
 20 35  1  0  0  0  0
 21 36  1  0  0  0  0
 22 24  2  0  0  0  0
 22 37  1  0  0  0  0
 23 24  1  0  0  0  0
 23 38  1  0  0  0  0
 24 39  1  0  0  0  0
M  END
> <PUBCHEM_COMPOUND_CID>
17395680

> <PUBCHEM_CONFORMER_RMSD>
0.8

> <PUBCHEM_CONFORMER_DIVERSEORDER>
1
62
22
47
40
52
59
29
16
26
24
38
46
41
53
57
14
51
31
8
63
50
21
48
19
25
61
13
49
30
58
15
39
23
27
64
44
35
60
18
32
45
56
17
36
10
37
55
20
54
28
43
42
33
7
34
9
11
6
12
5
4
3
2

> <PUBCHEM_MMFF94_PARTIAL_CHARGES>
36
1 -0.08
10 -0.05
11 0.04
12 -0.15
13 -0.15
14 0.71
15 -0.15
16 -0.15
17 0.14
18 -0.15
19 -0.15
2 -0.57
20 -0.15
21 -0.15
22 -0.15
23 -0.15
24 -0.15
27 0.37
28 0.15
29 0.15
3 0.31
30 0.15
31 0.15
32 0.15
33 0.15
34 0.15
35 0.15
36 0.15
37 0.15
38 0.15
39 0.15
4 -0.49
5 -0.71
6 0.4
7 -0.09
8 -0.14

> <PUBCHEM_EFFECTIVE_ROTOR_COUNT>
5

> <PUBCHEM_PHARMACOPHORE_FEATURES>
7
1 2 acceptor
1 4 donor
1 5 acceptor
5 1 9 10 11 12 rings
5 3 5 7 13 17 rings
6 8 15 16 22 23 24 rings
6 9 11 18 19 20 21 rings

> <PUBCHEM_HEAVY_ATOM_COUNT>
24

> <PUBCHEM_ATOM_DEF_STEREO_COUNT>
0

> <PUBCHEM_ATOM_UDEF_STEREO_COUNT>
0

> <PUBCHEM_BOND_DEF_STEREO_COUNT>
0

> <PUBCHEM_BOND_UDEF_STEREO_COUNT>
0

> <PUBCHEM_ISOTOPIC_ATOM_COUNT>
0

> <PUBCHEM_COMPONENT_COUNT>
1

> <PUBCHEM_CACTVS_TAUTO_COUNT>
4

> <PUBCHEM_CONFORMER_ID>
01096FE000000001

> <PUBCHEM_MMFF94_ENERGY>
55.2375

> <PUBCHEM_FEATURE_SELFOVERLAP>
35.58

> <PUBCHEM_SHAPE_FINGERPRINT>
10498660 4 18335980943307286464
10670039 82 18268413656537548332
10675989 125 17331689449201663925
11014199 57 17835799699176028842
11045515 52 18048326552825811175
11101153 10 18054223233284608236
11595378 159 18131361782302117114
12107183 9 18055648462737458650
12403259 415 18040999488921020016
12596602 18 16558461973059941184
13402501 40 18409166631838316673
14251764 75 17975130161010153385
14468879 13 18200586038091780937
15463212 79 18202286935203577795
15961568 22 18052255099144789596
21236236 1 18408324358649292006
21279426 13 18260539066155289318
21302155 148 18343011173706552060
21315764 268 18188774921098811944
22393880 68 18408880767979749974
22956985 138 16545508394635076003
23227448 37 18410575097864752037
23559900 14 18043808899954756014
2838139 119 18339087110705169596
3117164 225 18126861610349429410
350125 39 18261950726434807680
4371632 12 16300953033729803096
469060 322 17132117926972101639
508706 21 18410018706089034112
5104073 3 18411693314043779034
6327066 14 18270685393299465805
7808743 9 18341897419492091664
9981440 41 18130502020075887683

> <PUBCHEM_SHAPE_MULTIPOLES>
476.95
13.09
4.1
1.03
14.18
0.11
-0.05
-7.32
-0.35
-5.94
1.19
-0.29
-0.25
2.03

> <PUBCHEM_SHAPE_SELFOVERLAP>
1040.667

> <PUBCHEM_SHAPE_VOLUME>
260.3

> <PUBCHEM_COORDINATE_TYPE>
2
5
10

$$$$

