12305708
  -OEChem-07051213112D

 39 42  0     0  0  0  0  0  0999 V2000
    6.9338    1.6251    0.0000 O   0  0  0  0  0  0  0  0  0  0  0  0
    8.6822    1.6597    0.0000 O   0  0  0  0  0  0  0  0  0  0  0  0
    5.1854    1.6597    0.0000 O   0  0  0  0  0  0  0  0  0  0  0  0
   10.5194    1.7028    0.0000 O   0  0  0  0  0  0  0  0  0  0  0  0
    3.4037   -1.3990    0.0000 O   0  0  0  0  0  0  0  0  0  0  0  0
    3.4075    1.6493    0.0000 O   0  0  0  0  0  0  0  0  0  0  0  0
    2.5357    0.1526    0.0000 N   0  0  0  0  0  0  0  0  0  0  0  0
    7.7998    0.1251    0.0000 C   0  0  0  0  0  0  0  0  0  0  0  0
    7.7998   -0.8749    0.0000 C   0  0  0  0  0  0  0  0  0  0  0  0
    6.0678    0.1251    0.0000 C   0  0  0  0  0  0  0  0  0  0  0  0
    6.0678   -0.8749    0.0000 C   0  0  0  0  0  0  0  0  0  0  0  0
    6.9338    0.6251    0.0000 C   0  0  0  0  0  0  0  0  0  0  0  0
    9.5998    0.1460    0.0000 C   0  0  0  0  0  0  0  0  0  0  0  0
    6.9338   -1.3749    0.0000 C   0  0  0  0  0  0  0  0  0  0  0  0
    8.6938    0.6598    0.0000 C   0  0  0  0  0  0  0  0  0  0  0  0
    9.5998   -0.8957    0.0000 C   0  0  0  0  0  0  0  0  0  0  0  0
    8.6938   -1.4095    0.0000 C   0  0  0  0  0  0  0  0  0  0  0  0
    5.1738    0.6598    0.0000 C   0  0  0  0  0  0  0  0  0  0  0  0
    5.1738   -1.4095    0.0000 C   0  0  0  0  0  0  0  0  0  0  0  0
    4.2678    0.1460    0.0000 C   0  0  0  0  0  0  0  0  0  0  0  0
   10.5310    0.7029    0.0000 C   0  0  0  0  0  0  0  0  0  0  0  0
    4.2678   -0.8957    0.0000 C   0  0  0  0  0  0  0  0  0  0  0  0
   10.5310   -1.4526    0.0000 C   0  0  0  0  0  0  0  0  0  0  0  0
   11.4748    0.1676    0.0000 C   0  0  0  0  0  0  0  0  0  0  0  0
   11.4748   -0.9174    0.0000 C   0  0  0  0  0  0  0  0  0  0  0  0
    3.4037    0.6493    0.0000 C   0  0  0  0  0  0  0  0  0  0  0  0
    6.9338   -1.9949    0.0000 H   0  0  0  0  0  0  0  0  0  0  0  0
    8.6866   -2.0295    0.0000 H   0  0  0  0  0  0  0  0  0  0  0  0
    5.1810   -2.0295    0.0000 H   0  0  0  0  0  0  0  0  0  0  0  0
   10.5238   -2.0726    0.0000 H   0  0  0  0  0  0  0  0  0  0  0  0
   12.0105    0.4797    0.0000 H   0  0  0  0  0  0  0  0  0  0  0  0
   12.0105   -1.2294    0.0000 H   0  0  0  0  0  0  0  0  0  0  0  0
    6.3969    1.9351    0.0000 H   0  0  0  0  0  0  0  0  0  0  0  0
    9.2155    1.9759    0.0000 H   0  0  0  0  0  0  0  0  0  0  0  0
    4.6521    1.9759    0.0000 H   0  0  0  0  0  0  0  0  0  0  0  0
   11.0528    2.0190    0.0000 H   0  0  0  0  0  0  0  0  0  0  0  0
    3.4061   -2.0190    0.0000 H   0  0  0  0  0  0  0  0  0  0  0  0
    2.0000    0.4647    0.0000 H   0  0  0  0  0  0  0  0  0  0  0  0
    2.5334   -0.4674    0.0000 H   0  0  0  0  0  0  0  0  0  0  0  0
  1 12  1  0  0  0  0
  1 33  1  0  0  0  0
  2 15  1  0  0  0  0
  2 34  1  0  0  0  0
  3 18  1  0  0  0  0
  3 35  1  0  0  0  0
  4 21  1  0  0  0  0
  4 36  1  0  0  0  0
  5 22  1  0  0  0  0
  5 37  1  0  0  0  0
  6 26  2  0  0  0  0
  7 26  1  0  0  0  0
  7 38  1  0  0  0  0
  7 39  1  0  0  0  0
  8  9  1  0  0  0  0
  8 12  2  0  0  0  0
  8 15  1  0  0  0  0
  9 14  2  0  0  0  0
  9 17  1  0  0  0  0
 10 11  1  0  0  0  0
 10 12  1  0  0  0  0
 10 18  2  0  0  0  0
 11 14  1  0  0  0  0
 11 19  2  0  0  0  0
 13 15  2  0  0  0  0
 13 16  1  0  0  0  0
 13 21  1  0  0  0  0
 14 27  1  0  0  0  0
 16 17  2  0  0  0  0
 16 23  1  0  0  0  0
 17 28  1  0  0  0  0
 18 20  1  0  0  0  0
 19 22  1  0  0  0  0
 19 29  1  0  0  0  0
 20 22  2  0  0  0  0
 20 26  1  0  0  0  0
 21 24  2  0  0  0  0
 23 25  2  0  0  0  0
 23 30  1  0  0  0  0
 24 25  1  0  0  0  0
 24 31  1  0  0  0  0
 25 32  1  0  0  0  0
M  END
> <PUBCHEM_COMPOUND_CID>
12305708

> <PUBCHEM_COMPOUND_CANONICALIZED>
1

> <PUBCHEM_CACTVS_COMPLEXITY>
558

> <PUBCHEM_CACTVS_HBOND_ACCEPTOR>
6

> <PUBCHEM_CACTVS_HBOND_DONOR>
6

> <PUBCHEM_CACTVS_ROTATABLE_BOND>
1

> <PUBCHEM_CACTVS_SUBSKEYS>
AAADccB6OAAAAAAAAAAAAAAAAAAAAAAAAAAwYMGAAAAAAADBVAAAHgAQCAAADASBmAAwBsBAAgCIAiFSEACCAAAkIAAIiAEGDMgIJzaClROAcUBn4BUImQeY/PTO4AADCAAYAADAAAYQADAAAAAAAAAAAA==

> <PUBCHEM_IUPAC_OPENEYE_NAME>
1,3,10,11,12-pentahydroxytetracene-2-carboxamide

> <PUBCHEM_IUPAC_CAS_NAME>
1,3,10,11,12-pentahydroxy-2-tetracenecarboxamide

> <PUBCHEM_IUPAC_NAME>
1,3,10,11,12-pentahydroxytetracene-2-carboxamide

> <PUBCHEM_IUPAC_SYSTEMATIC_NAME>
1,3,10,11,12-pentakis(oxidanyl)tetracene-2-carboxamide

> <PUBCHEM_IUPAC_TRADITIONAL_NAME>
1,3,10,11,12-pentahydroxytetracene-2-carboxamide

> <PUBCHEM_IUPAC_INCHI>
InChI=1S/C19H13NO6/c20-19(26)15-11(22)6-9-5-8-4-7-2-1-3-10(21)12(7)16(23)13(8)17(24)14(9)18(15)25/h1-6,21-25H,(H2,20,26)

> <PUBCHEM_IUPAC_INCHIKEY>
ZZAJNFHIGVVCFT-UHFFFAOYSA-N

> <PUBCHEM_XLOGP3_AA>
4.4

> <PUBCHEM_EXACT_MASS>
351.074287

> <PUBCHEM_MOLECULAR_FORMULA>
C19H13NO6

> <PUBCHEM_MOLECULAR_WEIGHT>
351.30962

> <PUBCHEM_OPENEYE_CAN_SMILES>
C1=CC2=CC3=CC4=CC(=C(C(=C4C(=C3C(=C2C(=C1)O)O)O)O)C(=O)N)O

> <PUBCHEM_OPENEYE_ISO_SMILES>
C1=CC2=CC3=CC4=CC(=C(C(=C4C(=C3C(=C2C(=C1)O)O)O)O)C(=O)N)O

> <PUBCHEM_CACTVS_TPSA>
144

> <PUBCHEM_MONOISOTOPIC_WEIGHT>
351.074287

> <PUBCHEM_TOTAL_CHARGE>
0

> <PUBCHEM_HEAVY_ATOM_COUNT>
26

> <PUBCHEM_ATOM_DEF_STEREO_COUNT>
0

> <PUBCHEM_ATOM_UDEF_STEREO_COUNT>
0

> <PUBCHEM_BOND_DEF_STEREO_COUNT>
0

> <PUBCHEM_BOND_UDEF_STEREO_COUNT>
0

> <PUBCHEM_ISOTOPIC_ATOM_COUNT>
0

> <PUBCHEM_COMPONENT_COUNT>
1

> <PUBCHEM_CACTVS_TAUTO_COUNT>
997

> <PUBCHEM_COORDINATE_TYPE>
1
5
255

> <PUBCHEM_BONDANNOTATIONS>
10  11  8
10  12  8
10  18  8
11  14  8
11  19  8
13  15  8
13  16  8
13  21  8
16  17  8
16  23  8
18  20  8
19  22  8
20  22  8
21  24  8
23  25  8
24  25  8
8  12  8
8  15  8
8  9  8
9  14  8
9  17  8

$$$$

