82170
  -OEChem-07051212463D

 26 25  0     1  0  0  0  0  0999 V2000
   -0.3420    1.8646   -0.6532 O   0  0  0  0  0  0  0  0  0  0  0  0
    0.4057   -0.7482   -1.5429 O   0  0  0  0  0  0  0  0  0  0  0  0
   -2.9539    1.2283    0.0852 O   0  0  0  0  0  0  0  0  0  0  0  0
    2.0107    0.4618    1.5177 O   0  0  0  0  0  0  0  0  0  0  0  0
   -3.7860   -1.3887    0.2658 O   0  0  0  0  0  0  0  0  0  0  0  0
    4.3006   -0.2402    0.0630 O   0  0  0  0  0  0  0  0  0  0  0  0
   -0.6056    0.6865    0.1081 C   0  0  2  0  0  0  0  0  0  0  0  0
    0.4983   -0.3458   -0.1768 C   0  0  2  0  0  0  0  0  0  0  0  0
   -2.0262    0.1745   -0.2042 C   0  0  1  0  0  0  0  0  0  0  0  0
    1.9208    0.1719    0.1170 C   0  0  2  0  0  0  0  0  0  0  0  0
   -2.4523   -1.0357    0.6239 C   0  0  0  0  0  0  0  0  0  0  0  0
    3.0299   -0.8291   -0.2036 C   0  0  0  0  0  0  0  0  0  0  0  0
   -0.5655    0.9937    1.1597 H   0  0  0  0  0  0  0  0  0  0  0  0
    0.3172   -1.2291    0.4467 H   0  0  0  0  0  0  0  0  0  0  0  0
   -2.1435   -0.0383   -1.2731 H   0  0  0  0  0  0  0  0  0  0  0  0
    2.1134    1.1024   -0.4301 H   0  0  0  0  0  0  0  0  0  0  0  0
   -2.4426   -0.8133    1.6958 H   0  0  0  0  0  0  0  0  0  0  0  0
   -1.8190   -1.9054    0.4337 H   0  0  0  0  0  0  0  0  0  0  0  0
    3.0195   -1.1125   -1.2594 H   0  0  0  0  0  0  0  0  0  0  0  0
    2.9443   -1.7349    0.4057 H   0  0  0  0  0  0  0  0  0  0  0  0
   -0.3665    1.6184   -1.5937 H   0  0  0  0  0  0  0  0  0  0  0  0
    0.9004   -1.5790   -1.6411 H   0  0  0  0  0  0  0  0  0  0  0  0
   -2.6884    2.0011   -0.4422 H   0  0  0  0  0  0  0  0  0  0  0  0
    2.8240    0.9751    1.6593 H   0  0  0  0  0  0  0  0  0  0  0  0
   -4.3473   -0.6124    0.4334 H   0  0  0  0  0  0  0  0  0  0  0  0
    4.3869   -0.1529    1.0273 H   0  0  0  0  0  0  0  0  0  0  0  0
  1  7  1  0  0  0  0
  1 21  1  0  0  0  0
  2  8  1  0  0  0  0
  2 22  1  0  0  0  0
  3  9  1  0  0  0  0
  3 23  1  0  0  0  0
  4 10  1  0  0  0  0
  4 24  1  0  0  0  0
  5 11  1  0  0  0  0
  5 25  1  0  0  0  0
  6 12  1  0  0  0  0
  6 26  1  0  0  0  0
  7  8  1  0  0  0  0
  7  9  1  0  0  0  0
  7 13  1  0  0  0  0
  8 10  1  0  0  0  0
  8 14  1  0  0  0  0
  9 11  1  0  0  0  0
  9 15  1  0  0  0  0
 10 12  1  0  0  0  0
 10 16  1  0  0  0  0
 11 17  1  0  0  0  0
 11 18  1  0  0  0  0
 12 19  1  0  0  0  0
 12 20  1  0  0  0  0
M  END
> <PUBCHEM_COMPOUND_CID>
82170

> <PUBCHEM_CONFORMER_RMSD>
0.6

> <PUBCHEM_CONFORMER_DIVERSEORDER>
3
20
9
22
29
23
5
24
12
15
13
17
27
25
6
11
10
16
18
8
19
2
26
14
4
21
1
28
7

> <PUBCHEM_MMFF94_PARTIAL_CHARGES>
18
1 -0.68
10 0.28
11 0.28
12 0.28
2 -0.68
21 0.4
22 0.4
23 0.4
24 0.4
25 0.4
26 0.4
3 -0.68
4 -0.68
5 -0.68
6 -0.68
7 0.28
8 0.28
9 0.28

> <PUBCHEM_EFFECTIVE_ROTOR_COUNT>
5

> <PUBCHEM_PHARMACOPHORE_FEATURES>
12
1 1 acceptor
1 1 donor
1 2 acceptor
1 2 donor
1 3 acceptor
1 3 donor
1 4 acceptor
1 4 donor
1 5 acceptor
1 5 donor
1 6 acceptor
1 6 donor

> <PUBCHEM_HEAVY_ATOM_COUNT>
12

> <PUBCHEM_ATOM_DEF_STEREO_COUNT>
4

> <PUBCHEM_ATOM_UDEF_STEREO_COUNT>
0

> <PUBCHEM_BOND_DEF_STEREO_COUNT>
0

> <PUBCHEM_BOND_UDEF_STEREO_COUNT>
0

> <PUBCHEM_ISOTOPIC_ATOM_COUNT>
0

> <PUBCHEM_COMPONENT_COUNT>
1

> <PUBCHEM_CACTVS_TAUTO_COUNT>
1

> <PUBCHEM_CONFORMER_ID>
000140FA00000003

> <PUBCHEM_MMFF94_ENERGY>
27.6136

> <PUBCHEM_FEATURE_SELFOVERLAP>
60.925

> <PUBCHEM_SHAPE_FINGERPRINT>
10219947 1 18114460072163855399
10857977 72 18410580565189139209
11062470 55 15410895171331164382
12932764 1 17676494929771266694
14128692 85 17274814718993420735
14325111 11 18408603686406085678
14993402 34 16272206375420736810
17844478 74 18259987084867716784
18175812 5 18260833704214959085
18186145 218 10447656837009290002
20211469 26 18260833683146265495
20281407 28 18409161147402008202
20645464 45 18114174276792897299
20653085 51 6627465267590348650
20715346 28 18187657881055392521
20871998 184 18335137613709833655
21061003 4 17603303743571815345
21293036 1 12319738050963229691
23402655 69 11527685029201388267
23532345 42 18340212886152808736
5084963 1 18334858342035423888
75552 356 18342454854939269115

> <PUBCHEM_SHAPE_MULTIPOLES>
211.74
6.05
1.34
0.98
1.51
0.27
0
-1.86
0.86
-0.95
-0.1
0.31
-0.04
0.4

> <PUBCHEM_SHAPE_SELFOVERLAP>
397.109

> <PUBCHEM_SHAPE_VOLUME>
131.4

> <PUBCHEM_COORDINATE_TYPE>
2
5
10

$$$$

