17395741
  -OEChem-06241222522D

 31 32  0     0  0  0  0  0  0999 V2000
    6.2731    2.4139    0.0000 S   0  0  0  0  0  0  0  0  0  0  0  0
    2.0000   -2.1739    0.0000 F   0  0  0  0  0  0  0  0  0  0  0  0
    3.7320    0.8261    0.0000 O   0  0  0  0  0  0  0  0  0  0  0  0
    5.4641    0.8261    0.0000 N   0  0  0  0  0  0  0  0  0  0  0  0
    4.6551    2.4139    0.0000 N   0  0  0  0  0  0  0  0  0  0  0  0
    3.7320   -1.1739    0.0000 C   0  0  0  0  0  0  0  0  0  0  0  0
    4.5981   -0.6739    0.0000 C   0  0  0  0  0  0  0  0  0  0  0  0
    3.7320   -2.1739    0.0000 C   0  0  0  0  0  0  0  0  0  0  0  0
    4.5981    0.3261    0.0000 C   0  0  0  0  0  0  0  0  0  0  0  0
    2.8660   -2.6739    0.0000 C   0  0  0  0  0  0  0  0  0  0  0  0
    4.5981   -2.6739    0.0000 C   0  0  0  0  0  0  0  0  0  0  0  0
    2.8660   -3.6739    0.0000 C   0  0  0  0  0  0  0  0  0  0  0  0
    4.5981   -3.6739    0.0000 C   0  0  0  0  0  0  0  0  0  0  0  0
    5.4641    1.8261    0.0000 C   0  0  0  0  0  0  0  0  0  0  0  0
    3.7320   -4.1739    0.0000 C   0  0  0  0  0  0  0  0  0  0  0  0
    4.9641    3.3649    0.0000 C   0  0  0  0  0  0  0  0  0  0  0  0
    5.9641    3.3649    0.0000 C   0  0  0  0  0  0  0  0  0  0  0  0
    4.3763    4.1739    0.0000 C   0  0  0  0  0  0  0  0  0  0  0  0
    3.5200   -0.5913    0.0000 H   0  0  0  0  0  0  0  0  0  0  0  0
    3.1215   -1.2816    0.0000 H   0  0  0  0  0  0  0  0  0  0  0  0
    4.8101   -1.2565    0.0000 H   0  0  0  0  0  0  0  0  0  0  0  0
    5.2087   -0.5663    0.0000 H   0  0  0  0  0  0  0  0  0  0  0  0
    5.1350   -2.3639    0.0000 H   0  0  0  0  0  0  0  0  0  0  0  0
    6.0010    0.5161    0.0000 H   0  0  0  0  0  0  0  0  0  0  0  0
    2.3291   -3.9839    0.0000 H   0  0  0  0  0  0  0  0  0  0  0  0
    5.1350   -3.9839    0.0000 H   0  0  0  0  0  0  0  0  0  0  0  0
    3.7320   -4.7939    0.0000 H   0  0  0  0  0  0  0  0  0  0  0  0
    6.3285    3.8665    0.0000 H   0  0  0  0  0  0  0  0  0  0  0  0
    4.8779    4.5384    0.0000 H   0  0  0  0  0  0  0  0  0  0  0  0
    4.0119    4.6755    0.0000 H   0  0  0  0  0  0  0  0  0  0  0  0
    3.8747    3.8095    0.0000 H   0  0  0  0  0  0  0  0  0  0  0  0
  1 14  1  0  0  0  0
  1 17  1  0  0  0  0
  2 10  1  0  0  0  0
  3  9  2  0  0  0  0
  4  9  1  0  0  0  0
  4 14  1  0  0  0  0
  4 24  1  0  0  0  0
  5 14  2  0  0  0  0
  5 16  1  0  0  0  0
  6  7  1  0  0  0  0
  6  8  1  0  0  0  0
  6 19  1  0  0  0  0
  6 20  1  0  0  0  0
  7  9  1  0  0  0  0
  7 21  1  0  0  0  0
  7 22  1  0  0  0  0
  8 10  1  0  0  0  0
  8 11  2  0  0  0  0
 10 12  2  0  0  0  0
 11 13  1  0  0  0  0
 11 23  1  0  0  0  0
 12 15  1  0  0  0  0
 12 25  1  0  0  0  0
 13 15  2  0  0  0  0
 13 26  1  0  0  0  0
 15 27  1  0  0  0  0
 16 17  2  0  0  0  0
 16 18  1  0  0  0  0
 17 28  1  0  0  0  0
 18 29  1  0  0  0  0
 18 30  1  0  0  0  0
 18 31  1  0  0  0  0
M  END
> <PUBCHEM_COMPOUND_CID>
17395741

> <PUBCHEM_COMPOUND_CANONICALIZED>
1

> <PUBCHEM_CACTVS_COMPLEXITY>
290

> <PUBCHEM_CACTVS_HBOND_ACCEPTOR>
4

> <PUBCHEM_CACTVS_HBOND_DONOR>
1

> <PUBCHEM_CACTVS_ROTATABLE_BOND>
4

> <PUBCHEM_CACTVS_SUBSKEYS>
AAADccBzIQBAAAAAAAAAAAAAAAAAAWAAAAAwAAAAAAAAAAABwAAAHwQQAAAADAiF3gizkZLIEAisAyVydAAC8KlhCjkJiBUQIIiIIDKgmRCEIAAokQIIiCcYiICOAAAAAAAAAAAAAAAAAAAAAAAAAAAAAA==

> <PUBCHEM_IUPAC_OPENEYE_NAME>
3-(2-fluorophenyl)-N-(4-methylthiazol-2-yl)propanamide

> <PUBCHEM_IUPAC_CAS_NAME>
3-(2-fluorophenyl)-N-(4-methyl-2-thiazolyl)propanamide

> <PUBCHEM_IUPAC_NAME>
3-(2-fluorophenyl)-N-(4-methyl-1,3-thiazol-2-yl)propanamide

> <PUBCHEM_IUPAC_SYSTEMATIC_NAME>
3-(2-fluorophenyl)-N-(4-methyl-1,3-thiazol-2-yl)propanamide

> <PUBCHEM_IUPAC_TRADITIONAL_NAME>
3-(2-fluorophenyl)-N-(4-methylthiazol-2-yl)propionamide

> <PUBCHEM_IUPAC_INCHI>
InChI=1S/C13H13FN2OS/c1-9-8-18-13(15-9)16-12(17)7-6-10-4-2-3-5-11(10)14/h2-5,8H,6-7H2,1H3,(H,15,16,17)

> <PUBCHEM_IUPAC_INCHIKEY>
IFZWYKVADUIYHC-UHFFFAOYSA-N

> <PUBCHEM_XLOGP3_AA>
2.9

> <PUBCHEM_EXACT_MASS>
264.073262

> <PUBCHEM_MOLECULAR_FORMULA>
C13H13FN2OS

> <PUBCHEM_MOLECULAR_WEIGHT>
264.318523

> <PUBCHEM_OPENEYE_CAN_SMILES>
CC1=CSC(=N1)NC(=O)CCC2=CC=CC=C2F

> <PUBCHEM_OPENEYE_ISO_SMILES>
CC1=CSC(=N1)NC(=O)CCC2=CC=CC=C2F

> <PUBCHEM_CACTVS_TPSA>
70.2

> <PUBCHEM_MONOISOTOPIC_WEIGHT>
264.073262

> <PUBCHEM_TOTAL_CHARGE>
0

> <PUBCHEM_HEAVY_ATOM_COUNT>
18

> <PUBCHEM_ATOM_DEF_STEREO_COUNT>
0

> <PUBCHEM_ATOM_UDEF_STEREO_COUNT>
0

> <PUBCHEM_BOND_DEF_STEREO_COUNT>
0

> <PUBCHEM_BOND_UDEF_STEREO_COUNT>
0

> <PUBCHEM_ISOTOPIC_ATOM_COUNT>
0

> <PUBCHEM_COMPONENT_COUNT>
1

> <PUBCHEM_CACTVS_TAUTO_COUNT>
5

> <PUBCHEM_COORDINATE_TYPE>
1
5
255

> <PUBCHEM_BONDANNOTATIONS>
1  14  8
1  17  8
10  12  8
11  13  8
12  15  8
13  15  8
16  17  8
5  14  8
5  16  8
8  10  8
8  11  8

$$$$

