442860
  -OEChem-07051213003D

 78 81  0     1  0  0  0  0  0999 V2000
   -3.1345    1.0075    0.7735 O   0  0  0  0  0  0  0  0  0  0  0  0
    3.1557    1.0456   -0.7735 O   0  0  0  0  0  0  0  0  0  0  0  0
   -3.1008   -1.2998    0.5718 N   0  0  0  0  0  0  0  0  0  0  0  0
    3.0760   -1.2609   -0.5770 N   0  0  0  0  0  0  0  0  0  0  0  0
   -6.2220   -1.3355   -0.2211 N   0  0  1  0  0  0  0  0  0  0  0  0
    6.1948   -1.3604    0.2195 N   0  0  1  0  0  0  0  0  0  0  0  0
   -6.2145   -0.1977    0.7408 C   0  0  1  0  0  0  0  0  0  0  0  0
    6.2111   -0.2206   -0.7399 C   0  0  1  0  0  0  0  0  0  0  0  0
   -1.9403   -1.2863   -0.3107 C   0  0  0  0  0  0  0  0  0  0  0  0
    1.9148   -1.2262    0.3042 C   0  0  0  0  0  0  0  0  0  0  0  0
   -3.5356   -2.6161    1.0401 C   0  0  0  0  0  0  0  0  0  0  0  0
    3.4851   -2.5846   -1.0477 C   0  0  0  0  0  0  0  0  0  0  0  0
   -0.6239   -1.2575    0.4598 C   0  0  0  0  0  0  0  0  0  0  0  0
    0.5986   -1.2660   -0.4660 C   0  0  0  0  0  0  0  0  0  0  0  0
   -4.6485   -3.2312    0.2000 C   0  0  0  0  0  0  0  0  0  0  0  0
    4.5845   -3.2236   -0.2077 C   0  0  0  0  0  0  0  0  0  0  0  0
   -4.9980   -0.1480    1.7009 C   0  0  0  0  0  0  0  0  0  0  0  0
    4.9970   -0.1446   -1.7013 C   0  0  0  0  0  0  0  0  0  0  0  0
   -6.0448   -2.6457    0.4339 C   0  0  0  0  0  0  0  0  0  0  0  0
    5.9924   -2.6653   -0.4388 C   0  0  0  0  0  0  0  0  0  0  0  0
   -3.6540   -0.0922    0.9889 C   0  0  0  0  0  0  0  0  0  0  0  0
    3.6534   -0.0637   -0.9909 C   0  0  0  0  0  0  0  0  0  0  0  0
   -6.3554    1.1732    0.0674 C   0  0  0  0  0  0  0  0  0  0  0  0
    6.3785    1.1458   -0.0633 C   0  0  0  0  0  0  0  0  0  0  0  0
   -7.4770   -1.3639   -0.9941 C   0  0  0  0  0  0  0  0  0  0  0  0
    7.4481   -1.4155    0.9937 C   0  0  0  0  0  0  0  0  0  0  0  0
   -7.1416    2.1628    0.6578 C   0  0  0  0  0  0  0  0  0  0  0  0
    7.1848    2.1208   -0.6507 C   0  0  0  0  0  0  0  0  0  0  0  0
   -5.6973    1.4307   -1.1353 C   0  0  0  0  0  0  0  0  0  0  0  0
    5.7240    1.4137    1.1391 C   0  0  0  0  0  0  0  0  0  0  0  0
   -7.2698    3.4095    0.0456 C   0  0  0  0  0  0  0  0  0  0  0  0
    7.3370    3.3634   -0.0356 C   0  0  0  0  0  0  0  0  0  0  0  0
   -5.8253    2.6775   -1.7474 C   0  0  0  0  0  0  0  0  0  0  0  0
    5.8763    2.6564    1.7541 C   0  0  0  0  0  0  0  0  0  0  0  0
   -6.6116    3.6670   -1.1568 C   0  0  0  0  0  0  0  0  0  0  0  0
    6.6827    3.6313    1.1666 C   0  0  0  0  0  0  0  0  0  0  0  0
   -7.0992   -0.3230    1.3837 H   0  0  0  0  0  0  0  0  0  0  0  0
    7.0939   -0.3620   -1.3821 H   0  0  0  0  0  0  0  0  0  0  0  0
   -1.9903   -2.1595   -0.9717 H   0  0  0  0  0  0  0  0  0  0  0  0
   -1.9998   -0.3989   -0.9526 H   0  0  0  0  0  0  0  0  0  0  0  0
    1.9531   -0.3107    0.9065 H   0  0  0  0  0  0  0  0  0  0  0  0
    1.9842   -2.0682    1.0031 H   0  0  0  0  0  0  0  0  0  0  0  0
   -2.6671   -3.2858    1.0152 H   0  0  0  0  0  0  0  0  0  0  0  0
   -3.8293   -2.5616    2.0921 H   0  0  0  0  0  0  0  0  0  0  0  0
    2.6060   -3.2398   -1.0239 H   0  0  0  0  0  0  0  0  0  0  0  0
    3.7805   -2.5338   -2.0994 H   0  0  0  0  0  0  0  0  0  0  0  0
   -0.5693   -2.1204    1.1347 H   0  0  0  0  0  0  0  0  0  0  0  0
   -0.5908   -0.3652    1.0973 H   0  0  0  0  0  0  0  0  0  0  0  0
    0.5470   -0.4050   -1.1444 H   0  0  0  0  0  0  0  0  0  0  0  0
    0.5601   -2.1597   -1.1000 H   0  0  0  0  0  0  0  0  0  0  0  0
   -4.6988   -4.2979    0.4557 H   0  0  0  0  0  0  0  0  0  0  0  0
   -4.3946   -3.1851   -0.8666 H   0  0  0  0  0  0  0  0  0  0  0  0
    4.6141   -4.2905   -0.4657 H   0  0  0  0  0  0  0  0  0  0  0  0
    4.3305   -3.1750    0.8587 H   0  0  0  0  0  0  0  0  0  0  0  0
   -5.0299   -0.9716    2.4165 H   0  0  0  0  0  0  0  0  0  0  0  0
   -5.0586    0.7521    2.3292 H   0  0  0  0  0  0  0  0  0  0  0  0
    5.0762    0.7555   -2.3276 H   0  0  0  0  0  0  0  0  0  0  0  0
    5.0134   -0.9671   -2.4187 H   0  0  0  0  0  0  0  0  0  0  0  0
   -6.2921   -2.6190    1.5022 H   0  0  0  0  0  0  0  0  0  0  0  0
   -6.7451   -3.3795    0.0105 H   0  0  0  0  0  0  0  0  0  0  0  0
    6.2414   -2.6411   -1.5068 H   0  0  0  0  0  0  0  0  0  0  0  0
    6.6776   -3.4138   -0.0161 H   0  0  0  0  0  0  0  0  0  0  0  0
   -7.6328   -0.4529   -1.5786 H   0  0  0  0  0  0  0  0  0  0  0  0
   -8.3503   -1.5102   -0.3474 H   0  0  0  0  0  0  0  0  0  0  0  0
   -7.4515   -2.1776   -1.7289 H   0  0  0  0  0  0  0  0  0  0  0  0
    7.4057   -2.2302    1.7268 H   0  0  0  0  0  0  0  0  0  0  0  0
    8.3191   -1.5776    0.3478 H   0  0  0  0  0  0  0  0  0  0  0  0
    7.6214   -0.5091    1.5805 H   0  0  0  0  0  0  0  0  0  0  0  0
   -7.6580    1.9764    1.5956 H   0  0  0  0  0  0  0  0  0  0  0  0
    7.6985    1.9262   -1.5882 H   0  0  0  0  0  0  0  0  0  0  0  0
   -5.0721    0.6801   -1.6111 H   0  0  0  0  0  0  0  0  0  0  0  0
    5.0835    0.6747    1.6126 H   0  0  0  0  0  0  0  0  0  0  0  0
   -7.8814    4.1802    0.5057 H   0  0  0  0  0  0  0  0  0  0  0  0
    7.9642    4.1227   -0.4933 H   0  0  0  0  0  0  0  0  0  0  0  0
   -5.3112    2.8789   -2.6826 H   0  0  0  0  0  0  0  0  0  0  0  0
    5.3651    2.8660    2.6892 H   0  0  0  0  0  0  0  0  0  0  0  0
   -6.7107    4.6380   -1.6331 H   0  0  0  0  0  0  0  0  0  0  0  0
    6.8006    4.5991    1.6451 H   0  0  0  0  0  0  0  0  0  0  0  0
  1 21  2  0  0  0  0
  2 22  2  0  0  0  0
  3  9  1  0  0  0  0
  3 11  1  0  0  0  0
  3 21  1  0  0  0  0
  4 10  1  0  0  0  0
  4 12  1  0  0  0  0
  4 22  1  0  0  0  0
  5  7  1  0  0  0  0
  5 19  1  0  0  0  0
  5 25  1  0  0  0  0
  6  8  1  0  0  0  0
  6 20  1  0  0  0  0
  6 26  1  0  0  0  0
  7 17  1  0  0  0  0
  7 23  1  0  0  0  0
  7 37  1  0  0  0  0
  8 18  1  0  0  0  0
  8 24  1  0  0  0  0
  8 38  1  0  0  0  0
  9 13  1  0  0  0  0
  9 39  1  0  0  0  0
  9 40  1  0  0  0  0
 10 14  1  0  0  0  0
 10 41  1  0  0  0  0
 10 42  1  0  0  0  0
 11 15  1  0  0  0  0
 11 43  1  0  0  0  0
 11 44  1  0  0  0  0
 12 16  1  0  0  0  0
 12 45  1  0  0  0  0
 12 46  1  0  0  0  0
 13 14  1  0  0  0  0
 13 47  1  0  0  0  0
 13 48  1  0  0  0  0
 14 49  1  0  0  0  0
 14 50  1  0  0  0  0
 15 19  1  0  0  0  0
 15 51  1  0  0  0  0
 15 52  1  0  0  0  0
 16 20  1  0  0  0  0
 16 53  1  0  0  0  0
 16 54  1  0  0  0  0
 17 21  1  0  0  0  0
 17 55  1  0  0  0  0
 17 56  1  0  0  0  0
 18 22  1  0  0  0  0
 18 57  1  0  0  0  0
 18 58  1  0  0  0  0
 19 59  1  0  0  0  0
 19 60  1  0  0  0  0
 20 61  1  0  0  0  0
 20 62  1  0  0  0  0
 23 27  2  0  0  0  0
 23 29  1  0  0  0  0
 24 28  2  0  0  0  0
 24 30  1  0  0  0  0
 25 63  1  0  0  0  0
 25 64  1  0  0  0  0
 25 65  1  0  0  0  0
 26 66  1  0  0  0  0
 26 67  1  0  0  0  0
 26 68  1  0  0  0  0
 27 31  1  0  0  0  0
 27 69  1  0  0  0  0
 28 32  1  0  0  0  0
 28 70  1  0  0  0  0
 29 33  2  0  0  0  0
 29 71  1  0  0  0  0
 30 34  2  0  0  0  0
 30 72  1  0  0  0  0
 31 35  2  0  0  0  0
 31 73  1  0  0  0  0
 32 36  2  0  0  0  0
 32 74  1  0  0  0  0
 33 35  1  0  0  0  0
 33 75  1  0  0  0  0
 34 36  1  0  0  0  0
 34 76  1  0  0  0  0
 35 77  1  0  0  0  0
 36 78  1  0  0  0  0
M  END
> <PUBCHEM_COMPOUND_CID>
442860

> <PUBCHEM_CONFORMER_RMSD>
1

> <PUBCHEM_CONFORMER_DIVERSEORDER>
1
5
90
86
285
233
80
144
111
270
263
2
145
42
198
139
238
9
156
260
115
227
117
258
26
164
98
195
194
237
179
239
32
251
134
11
104
250
132
288
196
269
70
284
105
216
272
137
274
219
236
214
149
278
169
147
243
184
207
127
146
262
79
13
192
53
68
66
218
273
34
256
181
229
283
289
255
81
141
22
205
213
234
88
166
113
241
172
281
171
291
17
62
203
58
188
265
287
142
64
259
128
159
277
77
290
56
36
148
242
52
264
89
96
31
103
176
209
41
126
138
76
69
44
158
136
100
232
191
20
155
235
280
186
204
110
224
253
150
84
108
21
257
180
49
47
121
174
175
226
245
178
261
16
75
163
249
97
254
124
30
45
161
106
182
116
23
167
87
120
246
190
183
24
279
292
268
210
114
275
130
231
208
244
102
123
153
154
55
125
267
94
187
40
109
228
54
28
293
170
200
282
135
107
95
19
33
177
6
59
92
151
140
61
248
160
173
71
99
46
3
82
38
212
73
223
65
74
206
221
39
112
101
129
143
43
220
271
67
15
78
60
165
217
201
222
8
50
4
225
14
202
185
122
215
29
72
197
83
266
240
193
168
10
93
189
131
162
27
57
211
91
63
286
51
230
35
247
157
276
37
119
25
85
118
199
48
7
18
252
133
152
12

> <PUBCHEM_MMFF94_PARTIAL_CHARGES>
42
1 -0.57
10 0.3
11 0.3
12 0.3
17 0.06
18 0.06
19 0.27
2 -0.57
20 0.27
21 0.57
22 0.57
23 -0.14
24 -0.14
25 0.27
26 0.27
27 -0.15
28 -0.15
29 -0.15
3 -0.66
30 -0.15
31 -0.15
32 -0.15
33 -0.15
34 -0.15
35 -0.15
36 -0.15
4 -0.66
5 -0.81
6 -0.81
69 0.15
7 0.41
70 0.15
71 0.15
72 0.15
73 0.15
74 0.15
75 0.15
76 0.15
77 0.15
78 0.15
8 0.41
9 0.3

> <PUBCHEM_EFFECTIVE_ROTOR_COUNT>
9.8

> <PUBCHEM_PHARMACOPHORE_FEATURES>
6
1 1 acceptor
1 2 acceptor
1 5 cation
1 6 cation
6 23 27 29 31 33 35 rings
6 24 28 30 32 34 36 rings

> <PUBCHEM_HEAVY_ATOM_COUNT>
36

> <PUBCHEM_ATOM_DEF_STEREO_COUNT>
2

> <PUBCHEM_ATOM_UDEF_STEREO_COUNT>
0

> <PUBCHEM_BOND_DEF_STEREO_COUNT>
0

> <PUBCHEM_BOND_UDEF_STEREO_COUNT>
0

> <PUBCHEM_ISOTOPIC_ATOM_COUNT>
0

> <PUBCHEM_COMPONENT_COUNT>
1

> <PUBCHEM_CACTVS_TAUTO_COUNT>
1

> <PUBCHEM_CONFORMER_ID>
0006C1EC00000001

> <PUBCHEM_MMFF94_ENERGY>
106.321

> <PUBCHEM_FEATURE_SELFOVERLAP>
30.446

> <PUBCHEM_SHAPE_FINGERPRINT>
10554248 39 17603583075655361622
10835480 77 18408604768437371880
11007060 377 18342731919491671259
11991303 11 16370726976624291334
12013929 29 18044369663674949921
13878862 14 18187375341897574124
15183329 4 17167854241039458058
15320295 198 18334573512563486328
15400415 2 18412257346113108947
17686467 74 18338234839914558979
19053607 189 18200304421713653532
21033648 29 18131347518362324711
21130935 74 18272087176151846242
21814621 53 18130496505158557674
21859007 373 18058733640144362717
23191077 185 18410304592298559291
24771293 8 18201435844373588588
3918712 181 18261112950811155584
4073 2 18271801268557831082
4169191 19 18186794773012086017
444735 82 18341047433169947356
44880568 143 18260823843476332711
4625314 4 18335980947887532022
49967989 163 4967313730738206973
9831232 110 18188761868994835166
99344 41 18412825811046884690

> <PUBCHEM_SHAPE_MULTIPOLES>
709.2
29.99
4.82
1.41
0.5
2.17
0
17
0.1
-0.14
0
0.02
0.56
3.63

> <PUBCHEM_SHAPE_SELFOVERLAP>
1471.511

> <PUBCHEM_SHAPE_VOLUME>
398.5

> <PUBCHEM_COORDINATE_TYPE>
2
5
10

$$$$

