5489029
  -OEChem-07051213092D

 63 68  0     1  0  0  0  0  0999 V2000
    4.5004    1.7078    0.0000 O   0  0  0  0  0  0  0  0  0  0  0  0
    4.2690   -0.7471    0.0000 O   0  0  0  0  0  0  0  0  0  0  0  0
    4.2690    4.0572    0.0000 O   0  0  0  0  0  0  0  0  0  0  0  0
    5.1350   -2.2472    0.0000 O   0  0  0  0  0  0  0  0  0  0  0  0
    2.5369   -1.7472    0.0000 O   0  0  0  0  0  0  0  0  0  0  0  0
    2.5369   -3.7472    0.0000 O   0  0  0  0  0  0  0  0  0  0  0  0
    4.2690   -4.7472    0.0000 O   0  0  0  0  0  0  0  0  0  0  0  0
    6.0010   -4.7472    0.0000 O   0  0  0  0  0  0  0  0  0  0  0  0
    6.8671   -3.2472    0.0000 O   0  0  0  0  0  0  0  0  0  0  0  0
    8.4296    0.7039    0.0000 N   0  0  3  0  0  0  0  0  0  0  0  0
    5.9587    1.1795    0.0000 C   0  0  1  0  0  0  0  0  0  0  0  0
    6.7823    0.7039    0.0000 C   0  0  2  0  0  0  0  0  0  0  0  0
    5.1350    0.7039    0.0000 C   0  0  2  0  0  0  0  0  0  0  0  0
    7.6060    1.1795    0.0000 C   0  0  1  0  0  0  0  0  0  0  0  0
    6.5082    1.8769    0.0000 C   0  0  0  0  0  0  0  0  0  0  0  0
    5.9587    2.1305    0.0000 C   0  0  0  0  0  0  0  0  0  0  0  0
    7.6060    2.1305    0.0000 C   0  0  0  0  0  0  0  0  0  0  0  0
    7.8608    1.8769    0.0000 C   0  0  0  0  0  0  0  0  0  0  0  0
    5.1350   -0.2472    0.0000 C   0  0  2  0  0  0  0  0  0  0  0  0
    6.7823    2.6061    0.0000 C   0  0  0  0  0  0  0  0  0  0  0  0
    6.7823   -0.2472    0.0000 C   0  0  0  0  0  0  0  0  0  0  0  0
    5.1350    2.6061    0.0000 C   0  0  0  0  0  0  0  0  0  0  0  0
    5.9587   -0.7227    0.0000 C   0  0  0  0  0  0  0  0  0  0  0  0
    6.7823    3.5572    0.0000 C   0  0  0  0  0  0  0  0  0  0  0  0
    9.1108   -0.0282    0.0000 C   0  0  0  0  0  0  0  0  0  0  0  0
    5.1350    3.5572    0.0000 C   0  0  0  0  0  0  0  0  0  0  0  0
    5.9587    4.0327    0.0000 C   0  0  0  0  0  0  0  0  0  0  0  0
    4.2690   -1.7472    0.0000 C   0  0  2  0  0  0  0  0  0  0  0  0
    3.4030   -2.2472    0.0000 C   0  0  1  0  0  0  0  0  0  0  0  0
    3.4030   -3.2472    0.0000 C   0  0  2  0  0  0  0  0  0  0  0  0
    4.2690   -3.7472    0.0000 C   0  0  1  0  0  0  0  0  0  0  0  0
    5.1350   -3.2472    0.0000 C   0  0  1  0  0  0  0  0  0  0  0  0
    4.2690    5.0572    0.0000 C   0  0  0  0  0  0  0  0  0  0  0  0
    6.0010   -3.7472    0.0000 C   0  0  0  0  0  0  0  0  0  0  0  0
    7.3287    0.0528    0.0000 H   0  0  0  0  0  0  0  0  0  0  0  0
    4.3186    0.4675    0.0000 H   0  0  0  0  0  0  0  0  0  0  0  0
    7.8974    0.3810    0.0000 H   0  0  0  0  0  0  0  0  0  0  0  0
    6.6450    2.4816    0.0000 H   0  0  0  0  0  0  0  0  0  0  0  0
    5.9485    2.1437    0.0000 H   0  0  0  0  0  0  0  0  0  0  0  0
    8.2166    2.0229    0.0000 H   0  0  0  0  0  0  0  0  0  0  0  0
    7.8180    2.7131    0.0000 H   0  0  0  0  0  0  0  0  0  0  0  0
    8.4530    2.0607    0.0000 H   0  0  0  0  0  0  0  0  0  0  0  0
    7.7679    2.4899    0.0000 H   0  0  0  0  0  0  0  0  0  0  0  0
    5.1350   -0.8672    0.0000 H   0  0  0  0  0  0  0  0  0  0  0  0
    7.3193   -0.5571    0.0000 H   0  0  0  0  0  0  0  0  0  0  0  0
    5.9587   -1.3427    0.0000 H   0  0  0  0  0  0  0  0  0  0  0  0
    7.3193    3.8672    0.0000 H   0  0  0  0  0  0  0  0  0  0  0  0
    8.6569   -0.4505    0.0000 H   0  0  0  0  0  0  0  0  0  0  0  0
    9.5331   -0.4821    0.0000 H   0  0  0  0  0  0  0  0  0  0  0  0
    9.5647    0.3941    0.0000 H   0  0  0  0  0  0  0  0  0  0  0  0
    5.9587    4.6527    0.0000 H   0  0  0  0  0  0  0  0  0  0  0  0
    3.7320   -1.4372    0.0000 H   0  0  0  0  0  0  0  0  0  0  0  0
    2.8660   -2.5572    0.0000 H   0  0  0  0  0  0  0  0  0  0  0  0
    3.4030   -3.8672    0.0000 H   0  0  0  0  0  0  0  0  0  0  0  0
    4.8059   -4.0572    0.0000 H   0  0  0  0  0  0  0  0  0  0  0  0
    5.6720   -2.9372    0.0000 H   0  0  0  0  0  0  0  0  0  0  0  0
    4.8890    5.0572    0.0000 H   0  0  0  0  0  0  0  0  0  0  0  0
    4.2690    5.6772    0.0000 H   0  0  0  0  0  0  0  0  0  0  0  0
    3.6490    5.0572    0.0000 H   0  0  0  0  0  0  0  0  0  0  0  0
    2.0000   -2.0572    0.0000 H   0  0  0  0  0  0  0  0  0  0  0  0
    2.0000   -3.4372    0.0000 H   0  0  0  0  0  0  0  0  0  0  0  0
    3.7320   -5.0572    0.0000 H   0  0  0  0  0  0  0  0  0  0  0  0
    6.5380   -5.0572    0.0000 H   0  0  0  0  0  0  0  0  0  0  0  0
  1 13  1  0  0  0  0
  1 22  1  0  0  0  0
 19  2  1  6  0  0  0
 28  2  1  6  0  0  0
  3 26  1  0  0  0  0
  3 33  1  0  0  0  0
  4 28  1  0  0  0  0
  4 32  1  0  0  0  0
 29  5  1  1  0  0  0
  5 60  1  0  0  0  0
 30  6  1  6  0  0  0
  6 61  1  0  0  0  0
 31  7  1  1  0  0  0
  7 62  1  0  0  0  0
  8 34  1  0  0  0  0
  8 63  1  0  0  0  0
  9 34  2  0  0  0  0
 10 14  1  0  0  0  0
 10 18  1  0  0  0  0
 10 25  1  0  0  0  0
 11 12  1  0  0  0  0
 11 13  1  0  0  0  0
 11 15  1  1  0  0  0
 11 16  1  0  0  0  0
 12 14  1  0  0  0  0
 12 21  1  0  0  0  0
 12 35  1  1  0  0  0
 13 19  1  0  0  0  0
 13 36  1  1  0  0  0
 14 17  1  0  0  0  0
 14 37  1  6  0  0  0
 15 18  1  0  0  0  0
 15 38  1  0  0  0  0
 15 39  1  0  0  0  0
 16 20  2  0  0  0  0
 16 22  1  0  0  0  0
 17 20  1  0  0  0  0
 17 40  1  0  0  0  0
 17 41  1  0  0  0  0
 18 42  1  0  0  0  0
 18 43  1  0  0  0  0
 19 23  1  0  0  0  0
 19 44  1  0  0  0  0
 20 24  1  0  0  0  0
 21 23  2  0  0  0  0
 21 45  1  0  0  0  0
 22 26  2  0  0  0  0
 23 46  1  0  0  0  0
 24 27  2  0  0  0  0
 24 47  1  0  0  0  0
 25 48  1  0  0  0  0
 25 49  1  0  0  0  0
 25 50  1  0  0  0  0
 26 27  1  0  0  0  0
 27 51  1  0  0  0  0
 28 29  1  0  0  0  0
 28 52  1  0  0  0  0
 29 30  1  0  0  0  0
 29 53  1  0  0  0  0
 30 31  1  0  0  0  0
 30 54  1  0  0  0  0
 31 32  1  0  0  0  0
 31 55  1  0  0  0  0
 32 34  1  6  0  0  0
 32 56  1  0  0  0  0
 33 57  1  0  0  0  0
 33 58  1  0  0  0  0
 33 59  1  0  0  0  0
M  END
> <PUBCHEM_COMPOUND_CID>
5489029

> <PUBCHEM_COMPOUND_CANONICALIZED>
1

> <PUBCHEM_CACTVS_COMPLEXITY>
854

> <PUBCHEM_CACTVS_HBOND_ACCEPTOR>
10

> <PUBCHEM_CACTVS_HBOND_DONOR>
4

> <PUBCHEM_CACTVS_ROTATABLE_BOND>
4

> <PUBCHEM_CACTVS_SUBSKEYS>
AAADceB6PAAAAAAAAAAAAAAAAAAAASAAAAA8aIECAAAWAEjBAAAAHgAACAAADzzxmAcyDoMABgCIAiDSCAICCAAgIAAIiAFOiIgdNjaEsR+meCKl4BGPqAf6/P9PoAABAAAYQADQAAaAADSAAAAAAAAAAA==

> <PUBCHEM_IUPAC_OPENEYE_NAME>
(2S,3S,4S,5R,6R)-6-[[(4R,4aR,7S,7aR,12bS)-9-methoxy-3-methyl-2,4,4a,7,7a,13-hexahydro-1H-4,12-methanobenzofuro[3,2-e]isoquinoline-7-yl]oxy]-3,4,5-trihydroxy-tetrahydropyran-2-carboxylic acid

> <PUBCHEM_IUPAC_CAS_NAME>
(2S,3S,4S,5R,6R)-6-[[(4R,4aR,7S,7aR,12bS)-9-methoxy-3-methyl-2,4,4a,7,7a,13-hexahydro-1H-4,12-methanobenzofuro[3,2-e]isoquinoline-7-yl]oxy]-3,4,5-trihydroxy-2-oxanecarboxylic acid

> <PUBCHEM_IUPAC_NAME>
(2S,3S,4S,5R,6R)-6-[[(4R,4aR,7S,7aR,12bS)-9-methoxy-3-methyl-2,4,4a,7,7a,13-hexahydro-1H-4,12-methanobenzofuro[3,2-e]isoquinoline-7-yl]oxy]-3,4,5-trihydroxyoxane-2-carboxylic acid

> <PUBCHEM_IUPAC_SYSTEMATIC_NAME>
(2S,3S,4S,5R,6R)-6-[[(4R,4aR,7S,7aR,12bS)-9-methoxy-3-methyl-2,4,4a,7,7a,13-hexahydro-1H-4,12-methanobenzofuro[3,2-e]isoquinoline-7-yl]oxy]-3,4,5-tris(oxidanyl)oxane-2-carboxylic acid

> <PUBCHEM_IUPAC_TRADITIONAL_NAME>
(2S,3S,4S,5R,6R)-6-[[(4R,4aR,7S,7aR,12bS)-9-methoxy-3-methyl-2,4,4a,7,7a,13-hexahydro-1H-4,12-methanobenzofuro[3,2-e]isoquinoline-7-yl]oxy]-3,4,5-trihydroxy-tetrahydropyran-2-carboxylic acid

> <PUBCHEM_IUPAC_INCHI>
InChI=1S/C24H29NO9/c1-25-8-7-24-11-4-6-14(32-23-18(28)16(26)17(27)20(34-23)22(29)30)21(24)33-19-13(31-2)5-3-10(15(19)24)9-12(11)25/h3-6,11-12,14,16-18,20-21,23,26-28H,7-9H2,1-2H3,(H,29,30)/t11-,12+,14-,16-,17-,18+,20-,21-,23+,24-/m0/s1

> <PUBCHEM_IUPAC_INCHIKEY>
CRWVOYRJXPDBPM-HSCJLHHPSA-N

> <PUBCHEM_XLOGP3>
-2.5

> <PUBCHEM_EXACT_MASS>
475.184232

> <PUBCHEM_MOLECULAR_FORMULA>
C24H29NO9

> <PUBCHEM_MOLECULAR_WEIGHT>
475.48836

> <PUBCHEM_OPENEYE_CAN_SMILES>
CN1CCC23C4C1CC5=C2C(=C(C=C5)OC)OC3C(C=C4)OC6C(C(C(C(O6)C(=O)O)O)O)O

> <PUBCHEM_OPENEYE_ISO_SMILES>
CN1CC[C@]23[C@@H]4[C@H]1CC5=C2C(=C(C=C5)OC)O[C@H]3[C@H](C=C4)O[C@H]6[C@@H]([C@H]([C@@H]([C@H](O6)C(=O)O)O)O)O

> <PUBCHEM_CACTVS_TPSA>
138

> <PUBCHEM_MONOISOTOPIC_WEIGHT>
475.184232

> <PUBCHEM_TOTAL_CHARGE>
0

> <PUBCHEM_HEAVY_ATOM_COUNT>
34

> <PUBCHEM_ATOM_DEF_STEREO_COUNT>
10

> <PUBCHEM_ATOM_UDEF_STEREO_COUNT>
0

> <PUBCHEM_BOND_DEF_STEREO_COUNT>
0

> <PUBCHEM_BOND_UDEF_STEREO_COUNT>
0

> <PUBCHEM_ISOTOPIC_ATOM_COUNT>
0

> <PUBCHEM_COMPONENT_COUNT>
1

> <PUBCHEM_CACTVS_TAUTO_COUNT>
1

> <PUBCHEM_COORDINATE_TYPE>
1
5
255

> <PUBCHEM_BONDANNOTATIONS>
11  15  5
12  35  5
13  36  5
14  37  6
16  20  8
16  22  8
19  2  6
28  2  6
20  24  8
22  26  8
24  27  8
26  27  8
32  34  6
29  5  5
30  6  6
31  7  5

$$$$

