108009
  -OEChem-07051213062D

 26 25  0     1  0  0  0  0  0999 V2000
    3.4030   -0.0950    0.0000 S   0  0  0  0  0  0  0  0  0  0  0  0
    2.5369    1.4050    0.0000 O   0  0  0  0  0  0  0  0  0  0  0  0
    3.4030    2.9050    0.0000 O   0  0  0  0  0  0  0  0  0  0  0  0
    2.5369   -2.5950    0.0000 O   0  0  0  0  0  0  0  0  0  0  0  0
    6.0010    0.4050    0.0000 O   0  0  0  0  0  0  0  0  0  0  0  0
    5.1350    1.9050    0.0000 N   0  0  0  0  0  0  0  0  0  0  0  0
    4.2690    1.4050    0.0000 C   0  0  1  0  0  0  0  0  0  0  0  0
    4.2690    0.4050    0.0000 C   0  0  0  0  0  0  0  0  0  0  0  0
    3.4030   -1.0950    0.0000 C   0  0  0  0  0  0  0  0  0  0  0  0
    3.4030    1.9050    0.0000 C   0  0  0  0  0  0  0  0  0  0  0  0
    6.0010    1.4050    0.0000 C   0  0  0  0  0  0  0  0  0  0  0  0
    2.5369   -1.5950    0.0000 C   0  0  0  0  0  0  0  0  0  0  0  0
    6.8671    1.9050    0.0000 C   0  0  0  0  0  0  0  0  0  0  0  0
    4.2690    2.0250    0.0000 H   0  0  0  0  0  0  0  0  0  0  0  0
    4.4810   -0.1776    0.0000 H   0  0  0  0  0  0  0  0  0  0  0  0
    4.8796    0.5127    0.0000 H   0  0  0  0  0  0  0  0  0  0  0  0
    5.1350    2.5250    0.0000 H   0  0  0  0  0  0  0  0  0  0  0  0
    3.6150   -1.6776    0.0000 H   0  0  0  0  0  0  0  0  0  0  0  0
    4.0135   -0.9873    0.0000 H   0  0  0  0  0  0  0  0  0  0  0  0
    2.3249   -1.0124    0.0000 H   0  0  0  0  0  0  0  0  0  0  0  0
    1.9264   -1.7027    0.0000 H   0  0  0  0  0  0  0  0  0  0  0  0
    7.1771    1.3681    0.0000 H   0  0  0  0  0  0  0  0  0  0  0  0
    7.4040    2.2150    0.0000 H   0  0  0  0  0  0  0  0  0  0  0  0
    6.5571    2.4419    0.0000 H   0  0  0  0  0  0  0  0  0  0  0  0
    2.0000    1.7150    0.0000 H   0  0  0  0  0  0  0  0  0  0  0  0
    2.0000   -2.9050    0.0000 H   0  0  0  0  0  0  0  0  0  0  0  0
  1  8  1  0  0  0  0
  1  9  1  0  0  0  0
  2 10  1  0  0  0  0
  2 25  1  0  0  0  0
  3 10  2  0  0  0  0
  4 12  1  0  0  0  0
  4 26  1  0  0  0  0
  5 11  2  0  0  0  0
  7  6  1  1  0  0  0
  6 11  1  0  0  0  0
  6 17  1  0  0  0  0
  7  8  1  0  0  0  0
  7 10  1  0  0  0  0
  7 14  1  0  0  0  0
  8 15  1  0  0  0  0
  8 16  1  0  0  0  0
  9 12  1  0  0  0  0
  9 18  1  0  0  0  0
  9 19  1  0  0  0  0
 11 13  1  0  0  0  0
 12 20  1  0  0  0  0
 12 21  1  0  0  0  0
 13 22  1  0  0  0  0
 13 23  1  0  0  0  0
 13 24  1  0  0  0  0
M  END
> <PUBCHEM_COMPOUND_CID>
108009

> <PUBCHEM_COMPOUND_CANONICALIZED>
1

> <PUBCHEM_CACTVS_COMPLEXITY>
185

> <PUBCHEM_CACTVS_HBOND_ACCEPTOR>
5

> <PUBCHEM_CACTVS_HBOND_DONOR>
3

> <PUBCHEM_CACTVS_ROTATABLE_BOND>
6

> <PUBCHEM_CACTVS_SUBSKEYS>
AAADccBiOABAAAAAAAAAAAAAAAAAAAAAAAAAAAAAAAAAAAAAAAAAHgQQCAAACCjlwAaCCALAAggIAAGQGAAAAAAAABAAAIGIAAACEAAgACAAQAAAFgCwAAAAAAAAAAAAAAAAAAAAAAAAAAAAAAAAAAAAAA==

> <PUBCHEM_IUPAC_OPENEYE_NAME>
(2R)-2-acetamido-3-(2-hydroxyethylsulfanyl)propanoic acid

> <PUBCHEM_IUPAC_CAS_NAME>
(2R)-2-acetamido-3-(2-hydroxyethylthio)propanoic acid

> <PUBCHEM_IUPAC_NAME>
(2R)-2-acetamido-3-(2-hydroxyethylsulfanyl)propanoic acid

> <PUBCHEM_IUPAC_SYSTEMATIC_NAME>
(2R)-2-acetamido-3-(2-hydroxyethylsulfanyl)propanoic acid

> <PUBCHEM_IUPAC_TRADITIONAL_NAME>
(2R)-2-acetamido-3-(2-hydroxyethylthio)propionic acid

> <PUBCHEM_IUPAC_INCHI>
InChI=1S/C7H13NO4S/c1-5(10)8-6(7(11)12)4-13-3-2-9/h6,9H,2-4H2,1H3,(H,8,10)(H,11,12)/t6-/m0/s1

> <PUBCHEM_IUPAC_INCHIKEY>
NAYOYSKSFGMFOB-LURJTMIESA-N

> <PUBCHEM_XLOGP3_AA>
-0.9

> <PUBCHEM_EXACT_MASS>
207.056529

> <PUBCHEM_MOLECULAR_FORMULA>
C7H13NO4S

> <PUBCHEM_MOLECULAR_WEIGHT>
207.24742

> <PUBCHEM_OPENEYE_CAN_SMILES>
CC(=O)NC(CSCCO)C(=O)O

> <PUBCHEM_OPENEYE_ISO_SMILES>
CC(=O)N[C@@H](CSCCO)C(=O)O

> <PUBCHEM_CACTVS_TPSA>
112

> <PUBCHEM_MONOISOTOPIC_WEIGHT>
207.056529

> <PUBCHEM_TOTAL_CHARGE>
0

> <PUBCHEM_HEAVY_ATOM_COUNT>
13

> <PUBCHEM_ATOM_DEF_STEREO_COUNT>
1

> <PUBCHEM_ATOM_UDEF_STEREO_COUNT>
0

> <PUBCHEM_BOND_DEF_STEREO_COUNT>
0

> <PUBCHEM_BOND_UDEF_STEREO_COUNT>
0

> <PUBCHEM_ISOTOPIC_ATOM_COUNT>
0

> <PUBCHEM_COMPONENT_COUNT>
1

> <PUBCHEM_CACTVS_TAUTO_COUNT>
2

> <PUBCHEM_COORDINATE_TYPE>
1
5
255

> <PUBCHEM_BONDANNOTATIONS>
7  6  5

$$$$

