443228
  -OEChem-07051213013D

 31 32  0     1  0  0  0  0  0999 V2000
    1.4377   -1.1766   -0.5435 O   0  0  0  0  0  0  0  0  0  0  0  0
    4.0134    0.9696    0.7306 O   0  0  0  0  0  0  0  0  0  0  0  0
    3.2035    0.6573   -1.4060 O   0  0  0  0  0  0  0  0  0  0  0  0
   -1.7893    0.5184   -0.0897 C   0  0  0  0  0  0  0  0  0  0  0  0
   -2.6514   -0.5974    0.0302 C   0  0  0  0  0  0  0  0  0  0  0  0
    0.1030   -0.9876   -0.3559 C   0  0  0  0  0  0  0  0  0  0  0  0
    2.3150   -0.6391    0.4451 C   0  0  1  0  0  0  0  0  0  0  0  0
   -0.4144    0.3061   -0.2826 C   0  0  0  0  0  0  0  0  0  0  0  0
   -2.1135   -1.8926   -0.0464 C   0  0  0  0  0  0  0  0  0  0  0  0
   -0.7450   -2.0849   -0.2383 C   0  0  0  0  0  0  0  0  0  0  0  0
   -2.3273    1.8133   -0.0134 C   0  0  0  0  0  0  0  0  0  0  0  0
   -4.0263   -0.3855    0.2229 C   0  0  0  0  0  0  0  0  0  0  0  0
    3.1176   -1.7845    1.0368 C   0  0  0  0  0  0  0  0  0  0  0  0
   -3.6958    2.0054    0.1787 C   0  0  0  0  0  0  0  0  0  0  0  0
   -4.5437    0.9081    0.2966 C   0  0  0  0  0  0  0  0  0  0  0  0
    3.2165    0.3861   -0.2123 C   0  0  0  0  0  0  0  0  0  0  0  0
    4.9001    1.9837    0.2472 C   0  0  0  0  0  0  0  0  0  0  0  0
    1.7572   -0.1359    1.2459 H   0  0  0  0  0  0  0  0  0  0  0  0
    0.2529    1.1599   -0.3859 H   0  0  0  0  0  0  0  0  0  0  0  0
   -2.7577   -2.7648    0.0431 H   0  0  0  0  0  0  0  0  0  0  0  0
   -0.3471   -3.0945   -0.2944 H   0  0  0  0  0  0  0  0  0  0  0  0
   -1.6835    2.6858   -0.1029 H   0  0  0  0  0  0  0  0  0  0  0  0
   -4.7077   -1.2284    0.3176 H   0  0  0  0  0  0  0  0  0  0  0  0
    3.7962   -1.4406    1.8235 H   0  0  0  0  0  0  0  0  0  0  0  0
    2.4512   -2.5440    1.4595 H   0  0  0  0  0  0  0  0  0  0  0  0
    3.7171   -2.2807    0.2650 H   0  0  0  0  0  0  0  0  0  0  0  0
   -4.0992    3.0123    0.2360 H   0  0  0  0  0  0  0  0  0  0  0  0
   -5.6090    1.0584    0.4461 H   0  0  0  0  0  0  0  0  0  0  0  0
    4.3294    2.8086   -0.1899 H   0  0  0  0  0  0  0  0  0  0  0  0
    5.5940    1.5616   -0.4859 H   0  0  0  0  0  0  0  0  0  0  0  0
    5.4748    2.3652    1.0954 H   0  0  0  0  0  0  0  0  0  0  0  0
  1  6  1  0  0  0  0
  1  7  1  0  0  0  0
  2 16  1  0  0  0  0
  2 17  1  0  0  0  0
  3 16  2  0  0  0  0
  4  5  1  0  0  0  0
  4  8  1  0  0  0  0
  4 11  2  0  0  0  0
  5  9  1  0  0  0  0
  5 12  2  0  0  0  0
  6  8  2  0  0  0  0
  6 10  1  0  0  0  0
  7 13  1  0  0  0  0
  7 16  1  0  0  0  0
  7 18  1  0  0  0  0
  8 19  1  0  0  0  0
  9 10  2  0  0  0  0
  9 20  1  0  0  0  0
 10 21  1  0  0  0  0
 11 14  1  0  0  0  0
 11 22  1  0  0  0  0
 12 15  1  0  0  0  0
 12 23  1  0  0  0  0
 13 24  1  0  0  0  0
 13 25  1  0  0  0  0
 13 26  1  0  0  0  0
 14 15  2  0  0  0  0
 14 27  1  0  0  0  0
 15 28  1  0  0  0  0
 17 29  1  0  0  0  0
 17 30  1  0  0  0  0
 17 31  1  0  0  0  0
M  END
> <PUBCHEM_COMPOUND_CID>
443228

> <PUBCHEM_CONFORMER_RMSD>
0.6

> <PUBCHEM_CONFORMER_DIVERSEORDER>
1
67
52
72
42
76
17
63
47
38
68
60
24
70
33
73
28
11
71
12
77
66
44
36
9
21
55
20
43
6
10
56
35
41
79
53
57
2
30
74
58
49
40
37
14
59
31
16
26
62
4
39
75
22
29
5
54
32
25
15
45
78
46
48
13
3
61
23
27
51
34
19
69
8
65
50
18
64
7

> <PUBCHEM_MMFF94_PARTIAL_CHARGES>
21
1 -0.36
10 -0.15
11 -0.15
12 -0.15
14 -0.15
15 -0.15
16 0.66
17 0.28
19 0.15
2 -0.43
20 0.15
21 0.15
22 0.15
23 0.15
27 0.15
28 0.15
3 -0.57
6 0.08
7 0.34
8 -0.15
9 -0.15

> <PUBCHEM_EFFECTIVE_ROTOR_COUNT>
4

> <PUBCHEM_PHARMACOPHORE_FEATURES>
4
1 1 acceptor
1 3 acceptor
6 4 5 11 12 14 15 rings
6 4 5 6 8 9 10 rings

> <PUBCHEM_HEAVY_ATOM_COUNT>
17

> <PUBCHEM_ATOM_DEF_STEREO_COUNT>
0

> <PUBCHEM_ATOM_UDEF_STEREO_COUNT>
1

> <PUBCHEM_BOND_DEF_STEREO_COUNT>
0

> <PUBCHEM_BOND_UDEF_STEREO_COUNT>
0

> <PUBCHEM_ISOTOPIC_ATOM_COUNT>
0

> <PUBCHEM_COMPONENT_COUNT>
1

> <PUBCHEM_CACTVS_TAUTO_COUNT>
1

> <PUBCHEM_CONFORMER_ID>
0006C35C00000001

> <PUBCHEM_MMFF94_ENERGY>
50.3419

> <PUBCHEM_FEATURE_SELFOVERLAP>
20.331

> <PUBCHEM_SHAPE_FINGERPRINT>
10498660 4 18333728022449387384
10608611 8 18335421304536045983
11132069 177 18413668006740751445
11543360 7 15285654187289385477
12173636 292 18409731772419718327
122479 349 18409729568837880955
12251169 10 18271249438158141970
12390115 104 18115288077772047417
12403814 3 17846504720757030525
12788726 201 17196270938861353354
12892183 10 17988637515137881523
13140716 1 18269555116430135923
13675066 3 17417809590878478979
14739800 52 18189353307307367320
14787075 74 18260271841605428601
15196674 1 18410012160780154777
15209294 21 18341335509326690892
15536298 74 18410853295802430286
15669948 3 18335424534573538031
1741750 31 18335138687293304394
17834072 32 18336263535097105553
18186145 218 18200029676101324143
19050596 39 18272375269450795194
19862831 5 5833988338955811895
20510252 161 18261106387815400371
20645477 56 18408318869744404252
20645477 70 16515950541567390806
20715895 44 17908995648811320701
21524375 3 18264491857111096127
21652331 79 18410856559777271001
23227448 37 18261957323552352405
23402539 116 18409175390051723191
23557571 272 17969215629890989094
23559900 14 18044652242041309910
2748010 2 17979060915247582119
3545911 37 18412542119924344004
474 4 17703785869556753796
5104073 3 18342170124620020025
6333272 397 18338514243920025603
633830 44 18042686276854031973
7097593 13 17913505793757574914
7364860 26 18192429899165187318
7808743 9 18264210206230650096

> <PUBCHEM_SHAPE_MULTIPOLES>
332.24
9.32
2.31
0.84
4.26
0
-0.04
5.2
1.41
0.12
0.17
0.57
-0.05
-0.4

> <PUBCHEM_SHAPE_SELFOVERLAP>
709.345

> <PUBCHEM_SHAPE_VOLUME>
186

> <PUBCHEM_COORDINATE_TYPE>
2
5
10

$$$$

