46174015
  -OEChem-07051213113D

 51 52  0     1  0  0  0  0  0999 V2000
   -0.4668    0.2634    0.4118 O   0  0  0  0  0  0  0  0  0  0  0  0
   -2.0138   -0.2995   -1.2879 O   0  0  0  0  0  0  0  0  0  0  0  0
    1.3103    2.0202   -1.0106 O   0  0  0  0  0  0  0  0  0  0  0  0
    3.2194   -2.6090    1.4634 O   0  0  0  0  0  0  0  0  0  0  0  0
    4.9933   -0.8521    0.0432 O   0  0  0  0  0  0  0  0  0  0  0  0
   -4.2957    2.1758    1.1107 O   0  0  0  0  0  0  0  0  0  0  0  0
   -4.7667   -0.6602    1.1344 O   0  0  0  0  0  0  0  0  0  0  0  0
   -2.5434   -2.9420   -1.7220 O   0  0  0  0  0  0  0  0  0  0  0  0
    4.0784    1.8577   -0.2163 N   0  0  0  0  0  0  0  0  0  0  0  0
    0.4604   -2.4638    0.6565 N   0  0  0  0  0  0  0  0  0  0  0  0
   -1.5409    2.9063    0.5280 N   0  0  0  0  0  0  0  0  0  0  0  0
    0.8177   -0.1395   -0.0721 C   0  0  2  0  0  0  0  0  0  0  0  0
    1.3230   -1.2845    0.8170 C   0  0  2  0  0  0  0  0  0  0  0  0
    1.7551    1.0722   -0.0359 C   0  0  1  0  0  0  0  0  0  0  0  0
    3.2007    0.6885   -0.3708 C   0  0  2  0  0  0  0  0  0  0  0  0
    2.7731   -1.6640    0.4862 C   0  0  1  0  0  0  0  0  0  0  0  0
    3.7068   -0.4490    0.5225 C   0  0  1  0  0  0  0  0  0  0  0  0
   -1.2863    0.7531   -0.6474 C   0  0  1  0  0  0  0  0  0  0  0  0
   -2.2622    1.8190   -0.1344 C   0  0  1  0  0  0  0  0  0  0  0  0
   -3.2939    1.2007    0.8153 C   0  0  2  0  0  0  0  0  0  0  0  0
   -3.9652   -0.0074    0.1526 C   0  0  1  0  0  0  0  0  0  0  0  0
   -2.9231   -0.9787   -0.4150 C   0  0  1  0  0  0  0  0  0  0  0  0
   -3.5674   -2.0995   -1.2263 C   0  0  0  0  0  0  0  0  0  0  0  0
    5.2874    1.6920   -1.0029 C   0  0  0  0  0  0  0  0  0  0  0  0
    0.7273   -0.5108   -1.1042 H   0  0  0  0  0  0  0  0  0  0  0  0
    1.2504   -0.9870    1.8718 H   0  0  0  0  0  0  0  0  0  0  0  0
    1.6902    1.5649    0.9422 H   0  0  0  0  0  0  0  0  0  0  0  0
    3.2201    0.3683   -1.4228 H   0  0  0  0  0  0  0  0  0  0  0  0
    2.8369   -2.1608   -0.4899 H   0  0  0  0  0  0  0  0  0  0  0  0
    3.8437   -0.1084    1.5564 H   0  0  0  0  0  0  0  0  0  0  0  0
   -0.7032    1.2091   -1.4488 H   0  0  0  0  0  0  0  0  0  0  0  0
   -2.7986    2.2456   -0.9928 H   0  0  0  0  0  0  0  0  0  0  0  0
   -2.8376    0.9106    1.7697 H   0  0  0  0  0  0  0  0  0  0  0  0
   -4.6385    0.3369   -0.6418 H   0  0  0  0  0  0  0  0  0  0  0  0
   -2.3547   -1.4432    0.3981 H   0  0  0  0  0  0  0  0  0  0  0  0
    3.5835    2.6800   -0.5639 H   0  0  0  0  0  0  0  0  0  0  0  0
   -0.4727   -2.2479    1.0016 H   0  0  0  0  0  0  0  0  0  0  0  0
    0.8109   -3.2219    1.2411 H   0  0  0  0  0  0  0  0  0  0  0  0
    1.4489    1.6349   -1.8927 H   0  0  0  0  0  0  0  0  0  0  0  0
    3.1748   -2.1832    2.3365 H   0  0  0  0  0  0  0  0  0  0  0  0
    4.8842   -1.1949   -0.8604 H   0  0  0  0  0  0  0  0  0  0  0  0
   -4.2506   -2.6948   -0.6130 H   0  0  0  0  0  0  0  0  0  0  0  0
   -4.1119   -1.6946   -2.0859 H   0  0  0  0  0  0  0  0  0  0  0  0
   -0.8977    3.3426   -0.1312 H   0  0  0  0  0  0  0  0  0  0  0  0
   -2.1998    3.6298    0.8129 H   0  0  0  0  0  0  0  0  0  0  0  0
    5.7367    2.6808   -1.1532 H   0  0  0  0  0  0  0  0  0  0  0  0
    6.0523    1.1106   -0.4833 H   0  0  0  0  0  0  0  0  0  0  0  0
    5.1098    1.2789   -2.0014 H   0  0  0  0  0  0  0  0  0  0  0  0
   -4.7092    2.4478    0.2737 H   0  0  0  0  0  0  0  0  0  0  0  0
   -4.1755   -0.9988    1.8283 H   0  0  0  0  0  0  0  0  0  0  0  0
   -2.9745   -3.6455   -2.2367 H   0  0  0  0  0  0  0  0  0  0  0  0
  1 12  1  0  0  0  0
  1 18  1  0  0  0  0
  2 18  1  0  0  0  0
  2 22  1  0  0  0  0
  3 14  1  0  0  0  0
  3 39  1  0  0  0  0
  4 16  1  0  0  0  0
  4 40  1  0  0  0  0
  5 17  1  0  0  0  0
  5 41  1  0  0  0  0
  6 20  1  0  0  0  0
  6 49  1  0  0  0  0
  7 21  1  0  0  0  0
  7 50  1  0  0  0  0
  8 23  1  0  0  0  0
  8 51  1  0  0  0  0
  9 15  1  0  0  0  0
  9 24  1  0  0  0  0
  9 36  1  0  0  0  0
 10 13  1  0  0  0  0
 10 37  1  0  0  0  0
 10 38  1  0  0  0  0
 11 19  1  0  0  0  0
 11 44  1  0  0  0  0
 11 45  1  0  0  0  0
 12 13  1  0  0  0  0
 12 14  1  0  0  0  0
 12 25  1  0  0  0  0
 13 16  1  0  0  0  0
 13 26  1  0  0  0  0
 14 15  1  0  0  0  0
 14 27  1  0  0  0  0
 15 17  1  0  0  0  0
 15 28  1  0  0  0  0
 16 17  1  0  0  0  0
 16 29  1  0  0  0  0
 17 30  1  0  0  0  0
 18 19  1  0  0  0  0
 18 31  1  0  0  0  0
 19 20  1  0  0  0  0
 19 32  1  0  0  0  0
 20 21  1  0  0  0  0
 20 33  1  0  0  0  0
 21 22  1  0  0  0  0
 21 34  1  0  0  0  0
 22 23  1  0  0  0  0
 22 35  1  0  0  0  0
 23 42  1  0  0  0  0
 23 43  1  0  0  0  0
 24 46  1  0  0  0  0
 24 47  1  0  0  0  0
 24 48  1  0  0  0  0
M  END
> <PUBCHEM_COMPOUND_CID>
46174015

> <PUBCHEM_CONFORMER_RMSD>
0.8

> <PUBCHEM_CONFORMER_DIVERSEORDER>
1
8
9
2
11
12
7
6
4
5
3
10

> <PUBCHEM_MMFF94_PARTIAL_CHARGES>
35
1 -0.56
10 -0.99
11 -0.99
12 0.28
13 0.27
14 0.28
15 0.27
16 0.28
17 0.28
18 0.56
19 0.27
2 -0.56
20 0.28
21 0.28
22 0.28
23 0.28
24 0.27
3 -0.68
36 0.36
37 0.36
38 0.36
39 0.4
4 -0.68
40 0.4
41 0.4
44 0.36
45 0.36
49 0.4
5 -0.68
50 0.4
51 0.4
6 -0.68
7 -0.68
8 -0.68
9 -0.9

> <PUBCHEM_EFFECTIVE_ROTOR_COUNT>
6.4

> <PUBCHEM_PHARMACOPHORE_FEATURES>
22
1 1 acceptor
1 10 cation
1 10 donor
1 11 cation
1 11 donor
1 2 acceptor
1 3 acceptor
1 3 donor
1 4 acceptor
1 4 donor
1 5 acceptor
1 5 donor
1 6 acceptor
1 6 donor
1 7 acceptor
1 7 donor
1 8 acceptor
1 8 donor
1 9 cation
1 9 donor
6 12 13 14 15 16 17 rings
6 2 18 19 20 21 22 rings

> <PUBCHEM_HEAVY_ATOM_COUNT>
24

> <PUBCHEM_ATOM_DEF_STEREO_COUNT>
11

> <PUBCHEM_ATOM_UDEF_STEREO_COUNT>
0

> <PUBCHEM_BOND_DEF_STEREO_COUNT>
0

> <PUBCHEM_BOND_UDEF_STEREO_COUNT>
0

> <PUBCHEM_ISOTOPIC_ATOM_COUNT>
0

> <PUBCHEM_COMPONENT_COUNT>
1

> <PUBCHEM_CACTVS_TAUTO_COUNT>
1

> <PUBCHEM_CONFORMER_ID>
02C08F3F00000001

> <PUBCHEM_MMFF94_ENERGY>
60.4882

> <PUBCHEM_FEATURE_SELFOVERLAP>
111.703

> <PUBCHEM_SHAPE_FINGERPRINT>
10062212 137 18411426136733088515
10369192 42 16013000748753647208
10616163 171 18334580139586981327
11135609 187 17913774920608422556
11578080 2 18121253976240836933
12107183 9 17691686005585216937
12236239 1 18410290307262862037
12553582 1 18262529070094602991
12788726 201 18041003908611295831
13140716 1 18126853921993647472
13167823 11 18410854378039041850
13224815 77 18131071540980721736
13760787 19 18407757036493224252
14289901 80 18411706508077264624
14341114 328 18408882923657589748
14787075 74 18192713345695254580
14790565 3 18200017457415810932
15196674 1 18342453759506636200
15209289 33 18413107255805174424
15375462 189 18410295796056824217
15537594 2 18338227172579913671
17349148 13 17988935448518648808
17492 89 18340768259800426427
19050596 39 18341612658875793304
19377110 9 18340497685771726082
200 152 18342743983700792581
20261772 1 18335136497023767211
20739085 24 18059847420144378884
21065198 48 18411133667030646169
21267235 1 18340760524595506850
21634736 98 18120383050944971502
23402539 116 18337955576070435580
23557571 272 17531234037584012517
23559900 14 17678171801300318310
23566358 27 18339639065917203814
23598288 3 18259711094653881997
23598291 2 18409739473032654182
25147074 1 18412554214658036962
34934 24 18341330076314842009
474 4 18131345268200784644
5104073 3 18341611550711155465
633830 44 18341889701878784158
7097593 13 18194409011341277418
90525 40 18261401099786729071

> <PUBCHEM_SHAPE_MULTIPOLES>
432.01
10
3.03
1.2
3.6
0.47
0.15
-0.98
-0.09
-0.49
0.01
-0.55
0.45
-2.66

> <PUBCHEM_SHAPE_SELFOVERLAP>
880.345

> <PUBCHEM_SHAPE_VOLUME>
247

> <PUBCHEM_COORDINATE_TYPE>
2
5
10

$$$$

