3148
  -OEChem-07051212543D

 44 48  0     1  0  0  0  0  0999 V2000
   -0.3353    0.8821   -0.2054 O   0  0  0  0  0  0  0  0  0  0  0  0
    6.7382   -0.8412   -0.0766 O   0  0  0  0  0  0  0  0  0  0  0  0
   -1.0490   -1.3047   -0.2916 O   0  0  0  0  0  0  0  0  0  0  0  0
    3.6232    0.5574    1.0438 N   0  0  0  0  0  0  0  0  0  0  0  0
   -4.2181    1.9388    0.1200 N   0  0  0  0  0  0  0  0  0  0  0  0
    2.8897   -0.7311    0.9383 C   0  0  2  0  0  0  0  0  0  0  0  0
    3.4105    1.3405   -0.2018 C   0  0  1  0  0  0  0  0  0  0  0  0
    4.5067   -0.7866   -0.9951 C   0  0  0  0  0  0  0  0  0  0  0  0
    3.4215   -1.5719   -0.2506 C   0  0  0  0  0  0  0  0  0  0  0  0
    3.9623    0.5774   -1.4333 C   0  0  0  0  0  0  0  0  0  0  0  0
    1.3803   -0.4587    0.8433 C   0  0  0  0  0  0  0  0  0  0  0  0
    1.9212    1.6926   -0.3405 C   0  0  0  0  0  0  0  0  0  0  0  0
    1.0190    0.4600   -0.3236 C   0  0  0  0  0  0  0  0  0  0  0  0
    5.0678    0.3001    1.2360 C   0  0  0  0  0  0  0  0  0  0  0  0
    5.5700   -0.4846    0.0400 C   0  0  0  0  0  0  0  0  0  0  0  0
   -1.2700   -0.1070   -0.2029 C   0  0  0  0  0  0  0  0  0  0  0  0
   -2.6356    0.4620   -0.0764 C   0  0  0  0  0  0  0  0  0  0  0  0
   -3.8311   -0.2525   -0.0415 C   0  0  0  0  0  0  0  0  0  0  0  0
   -2.8610    1.7883    0.0207 C   0  0  0  0  0  0  0  0  0  0  0  0
   -4.8360    0.7090    0.0847 C   0  0  0  0  0  0  0  0  0  0  0  0
   -4.1968   -1.6119   -0.1014 C   0  0  0  0  0  0  0  0  0  0  0  0
   -6.1939    0.3776    0.1542 C   0  0  0  0  0  0  0  0  0  0  0  0
   -5.5511   -1.9583   -0.0331 C   0  0  0  0  0  0  0  0  0  0  0  0
   -6.5327   -0.9772    0.0928 C   0  0  0  0  0  0  0  0  0  0  0  0
    3.0479   -1.3009    1.8640 H   0  0  0  0  0  0  0  0  0  0  0  0
    3.9500    2.2932   -0.1148 H   0  0  0  0  0  0  0  0  0  0  0  0
    4.9278   -1.3523   -1.8305 H   0  0  0  0  0  0  0  0  0  0  0  0
    2.6208   -1.8549   -0.9427 H   0  0  0  0  0  0  0  0  0  0  0  0
    3.8517   -2.5039    0.1386 H   0  0  0  0  0  0  0  0  0  0  0  0
    4.7754    1.1650   -1.8792 H   0  0  0  0  0  0  0  0  0  0  0  0
    3.2008    0.4467   -2.2098 H   0  0  0  0  0  0  0  0  0  0  0  0
    0.8803   -1.4291    0.7927 H   0  0  0  0  0  0  0  0  0  0  0  0
    1.0347   -0.0018    1.7814 H   0  0  0  0  0  0  0  0  0  0  0  0
    1.6284    2.3653    0.4777 H   0  0  0  0  0  0  0  0  0  0  0  0
    1.7458    2.2642   -1.2607 H   0  0  0  0  0  0  0  0  0  0  0  0
    1.1266   -0.0725   -1.2763 H   0  0  0  0  0  0  0  0  0  0  0  0
    5.2360   -0.2801    2.1490 H   0  0  0  0  0  0  0  0  0  0  0  0
    5.6188    1.2431    1.3105 H   0  0  0  0  0  0  0  0  0  0  0  0
   -2.2166    2.6565    0.0317 H   0  0  0  0  0  0  0  0  0  0  0  0
   -4.6979    2.8241    0.2067 H   0  0  0  0  0  0  0  0  0  0  0  0
   -3.4499   -2.3941   -0.1993 H   0  0  0  0  0  0  0  0  0  0  0  0
   -6.9588    1.1407    0.2522 H   0  0  0  0  0  0  0  0  0  0  0  0
   -5.8392   -3.0052   -0.0788 H   0  0  0  0  0  0  0  0  0  0  0  0
   -7.5787   -1.2687    0.1441 H   0  0  0  0  0  0  0  0  0  0  0  0
  1 13  1  0  0  0  0
  1 16  1  0  0  0  0
  2 15  2  0  0  0  0
  3 16  2  0  0  0  0
  4  6  1  0  0  0  0
  4  7  1  0  0  0  0
  4 14  1  0  0  0  0
  5 19  1  0  0  0  0
  5 20  1  0  0  0  0
  5 40  1  0  0  0  0
  6  9  1  0  0  0  0
  6 11  1  0  0  0  0
  6 25  1  0  0  0  0
  7 10  1  0  0  0  0
  7 12  1  0  0  0  0
  7 26  1  0  0  0  0
  8  9  1  0  0  0  0
  8 10  1  0  0  0  0
  8 15  1  0  0  0  0
  8 27  1  0  0  0  0
  9 28  1  0  0  0  0
  9 29  1  0  0  0  0
 10 30  1  0  0  0  0
 10 31  1  0  0  0  0
 11 13  1  0  0  0  0
 11 32  1  0  0  0  0
 11 33  1  0  0  0  0
 12 13  1  0  0  0  0
 12 34  1  0  0  0  0
 12 35  1  0  0  0  0
 13 36  1  0  0  0  0
 14 15  1  0  0  0  0
 14 37  1  0  0  0  0
 14 38  1  0  0  0  0
 16 17  1  0  0  0  0
 17 18  1  0  0  0  0
 17 19  2  0  0  0  0
 18 20  1  0  0  0  0
 18 21  2  0  0  0  0
 19 39  1  0  0  0  0
 20 22  2  0  0  0  0
 21 23  1  0  0  0  0
 21 41  1  0  0  0  0
 22 24  1  0  0  0  0
 22 42  1  0  0  0  0
 23 24  2  0  0  0  0
 23 43  1  0  0  0  0
 24 44  1  0  0  0  0
M  END
> <PUBCHEM_COMPOUND_CID>
3148

> <PUBCHEM_CONFORMER_RMSD>
0.8

> <PUBCHEM_CONFORMER_DIVERSEORDER>
1
32
12
13
27
29
38
31
22
10
15
16
28
14
30
33
7
2
21
26
19
8
37
34
18
17
36
35
20
3
25
39
24
5
6
11
4
9
23

> <PUBCHEM_MMFF94_PARTIAL_CHARGES>
25
1 -0.43
13 0.28
14 0.33
15 0.45
16 0.81
17 -0.09
19 -0.3
2 -0.57
20 -0.15
21 -0.15
22 -0.15
23 -0.15
24 -0.15
3 -0.57
39 0.15
4 -0.81
40 0.27
41 0.15
42 0.15
43 0.15
44 0.15
5 0.03
6 0.27
7 0.27
8 0.06

> <PUBCHEM_EFFECTIVE_ROTOR_COUNT>
4.2

> <PUBCHEM_PHARMACOPHORE_FEATURES>
9
1 2 acceptor
1 3 acceptor
1 4 cation
1 5 cation
1 5 donor
5 5 17 18 19 20 rings
6 18 20 21 22 23 24 rings
6 4 6 7 11 12 13 rings
8 4 6 7 8 9 10 14 15 rings

> <PUBCHEM_HEAVY_ATOM_COUNT>
24

> <PUBCHEM_ATOM_DEF_STEREO_COUNT>
0

> <PUBCHEM_ATOM_UDEF_STEREO_COUNT>
2

> <PUBCHEM_BOND_DEF_STEREO_COUNT>
0

> <PUBCHEM_BOND_UDEF_STEREO_COUNT>
0

> <PUBCHEM_ISOTOPIC_ATOM_COUNT>
0

> <PUBCHEM_COMPONENT_COUNT>
1

> <PUBCHEM_CACTVS_TAUTO_COUNT>
4

> <PUBCHEM_CONFORMER_ID>
00000C4C00000001

> <PUBCHEM_MMFF94_ENERGY>
57.3373

> <PUBCHEM_FEATURE_SELFOVERLAP>
46.159

> <PUBCHEM_SHAPE_FINGERPRINT>
10 15 18187658964194123784
10366900 7 17132113550020923977
10595046 47 18342173358239977549
11315181 36 18411416207491607505
11524674 6 16732983107610023255
11545043 162 18113058246362393545
12107183 9 17693664023146143737
12166972 35 18410854343606223720
12236239 1 18201999927913259573
12516196 113 18259987067418984793
12596602 18 18040998427462717872
12916748 109 18260547826880984841
13073987 5 17458903850835613458
13167823 11 18412263922118508439
13288520 33 18410855456677187349
13685833 64 18259982691348314006
14251764 18 18342737395300101348
14341114 176 18334573534190595281
14528608 73 17989202625106164757
14849402 71 18267305335932555800
14933364 13 18259984872621942873
15183329 4 18272652346549773603
15348495 7 17459194001656967459
15788980 27 18272367572922050625
17349148 13 17846493725587836005
17834072 33 18273494559387034405
17844677 252 18260543416155560193
17857418 61 18272091591182157299
1813 80 17418091039816432716
18222031 100 17704355454765344084
18681886 176 18411140212755886728
18927931 339 18410570674734135407
19489759 90 18412544319195603897
21033648 29 17095820904834523361
21054139 6 18059859450031517402
21150785 3 17489582333900145182
21267235 1 18412258436965210483
21623969 137 17022617580878144822
2297311 6 18261386763396754821
23035841 295 18413105053135882507
23402539 116 18410860941318795549
23522609 53 17986081167351343661
23559900 14 18339929186958434961
23569943 247 17911238635615937586
239999 70 18260545619900719518
3004659 81 18202001019198956044
335352 9 18411421718451600221
338550 245 18409446951495192462
34797466 226 17968086491557933796
3545911 37 18335139812405846403
4073 2 18130782322141371874
4214541 1 18411136952860020941
4325135 7 18202845461066338215
4340502 62 17095246917353266542
465052 167 18335133176744840390
5104073 3 18187651357084362642
542803 24 14045745928426403845
7495541 125 17822011960776031529

> <PUBCHEM_SHAPE_MULTIPOLES>
466.34
17.01
1.76
0.93
6.26
0.08
-0.01
-4.17
-0.44
1.33
0.1
-1.2
0.01
-0.12

> <PUBCHEM_SHAPE_SELFOVERLAP>
1045.994

> <PUBCHEM_SHAPE_VOLUME>
245.4

> <PUBCHEM_COORDINATE_TYPE>
2
5
10

$$$$

