11170991
  -OEChem-07051213022D

 17 16  0     1  0  0  0  0  0999 V2000
    4.2690   -1.0950    0.0000 O   0  0  0  0  0  0  0  0  0  0  0  0
    2.5369   -0.0950    0.0000 O   0  0  0  0  0  0  0  0  0  0  0  0
    5.1350    1.4050    0.0000 O   0  0  0  0  0  0  0  0  0  0  0  0
    6.0010   -1.0950    0.0000 O   0  0  0  0  0  0  0  0  0  0  0  0
    4.2690   -0.0950    0.0000 C   0  0  1  0  0  0  0  0  0  0  0  0
    3.4030    0.4050    0.0000 C   0  0  0  0  0  0  0  0  0  0  0  0
    5.1350    0.4050    0.0000 C   0  0  0  0  0  0  0  0  0  0  0  0
    6.0010   -0.0950    0.0000 C   0  0  0  0  0  0  0  0  0  0  0  0
    6.8671    0.4050    0.0000 C   0  0  0  0  0  0  0  0  0  0  0  0
    4.8059   -0.4050    0.0000 H   0  0  0  0  0  0  0  0  0  0  0  0
    3.8015    0.8799    0.0000 H   0  0  0  0  0  0  0  0  0  0  0  0
    3.0044    0.8799    0.0000 H   0  0  0  0  0  0  0  0  0  0  0  0
    7.1771   -0.1319    0.0000 H   0  0  0  0  0  0  0  0  0  0  0  0
    7.4040    0.7150    0.0000 H   0  0  0  0  0  0  0  0  0  0  0  0
    6.5571    0.9419    0.0000 H   0  0  0  0  0  0  0  0  0  0  0  0
    3.7320   -1.4050    0.0000 H   0  0  0  0  0  0  0  0  0  0  0  0
    2.0000    0.2150    0.0000 H   0  0  0  0  0  0  0  0  0  0  0  0
  5  1  1  1  0  0  0
  1 16  1  0  0  0  0
  2  6  1  0  0  0  0
  2 17  1  0  0  0  0
  3  7  2  0  0  0  0
  4  8  2  0  0  0  0
  5  6  1  0  0  0  0
  5  7  1  0  0  0  0
  5 10  1  0  0  0  0
  6 11  1  0  0  0  0
  6 12  1  0  0  0  0
  7  8  1  0  0  0  0
  8  9  1  0  0  0  0
  9 13  1  0  0  0  0
  9 14  1  0  0  0  0
  9 15  1  0  0  0  0
M  END
> <PUBCHEM_COMPOUND_CID>
11170991

> <PUBCHEM_COMPOUND_CANONICALIZED>
1

> <PUBCHEM_CACTVS_COMPLEXITY>
129

> <PUBCHEM_CACTVS_HBOND_ACCEPTOR>
4

> <PUBCHEM_CACTVS_HBOND_DONOR>
2

> <PUBCHEM_CACTVS_ROTATABLE_BOND>
3

> <PUBCHEM_CACTVS_SUBSKEYS>
AAADccBgOAAAAAAAAAAAAAAAAAAAAAAAAAAAAAAAAAAAAAAAAAAAGgAACAAACBSggAICAAAAAgAIAIAQAAIAAAAAAAAAAAFAAAABEBYAAAAAQAAEIAABAACCAAAAAAAAAAAAAAAAAAAAAAAAAAAAAAAAAA==

> <PUBCHEM_IUPAC_OPENEYE_NAME>
(4S)-4,5-dihydroxypentane-2,3-dione

> <PUBCHEM_IUPAC_CAS_NAME>
(4S)-4,5-dihydroxypentane-2,3-dione

> <PUBCHEM_IUPAC_NAME>
(4S)-4,5-dihydroxypentane-2,3-dione

> <PUBCHEM_IUPAC_SYSTEMATIC_NAME>
(4S)-4,5-bis(oxidanyl)pentane-2,3-dione

> <PUBCHEM_IUPAC_TRADITIONAL_NAME>
(4S)-4,5-dihydroxypentane-2,3-dione

> <PUBCHEM_IUPAC_INCHI>
InChI=1S/C5H8O4/c1-3(7)5(9)4(8)2-6/h4,6,8H,2H2,1H3/t4-/m0/s1

> <PUBCHEM_IUPAC_INCHIKEY>
UYTRITJAZOPLCZ-BYPYZUCNSA-N

> <PUBCHEM_XLOGP3_AA>
-1.7

> <PUBCHEM_EXACT_MASS>
132.042259

> <PUBCHEM_MOLECULAR_FORMULA>
C5H8O4

> <PUBCHEM_MOLECULAR_WEIGHT>
132.11462

> <PUBCHEM_OPENEYE_CAN_SMILES>
CC(=O)C(=O)C(CO)O

> <PUBCHEM_OPENEYE_ISO_SMILES>
CC(=O)C(=O)[C@H](CO)O

> <PUBCHEM_CACTVS_TPSA>
74.6

> <PUBCHEM_MONOISOTOPIC_WEIGHT>
132.042259

> <PUBCHEM_TOTAL_CHARGE>
0

> <PUBCHEM_HEAVY_ATOM_COUNT>
9

> <PUBCHEM_ATOM_DEF_STEREO_COUNT>
1

> <PUBCHEM_ATOM_UDEF_STEREO_COUNT>
0

> <PUBCHEM_BOND_DEF_STEREO_COUNT>
0

> <PUBCHEM_BOND_UDEF_STEREO_COUNT>
0

> <PUBCHEM_ISOTOPIC_ATOM_COUNT>
0

> <PUBCHEM_COMPONENT_COUNT>
1

> <PUBCHEM_CACTVS_TAUTO_COUNT>
18

> <PUBCHEM_COORDINATE_TYPE>
1
5
255

> <PUBCHEM_BONDANNOTATIONS>
5  1  5

$$$$

