9831652
  -OEChem-07051213152D

 84 88  0     1  0  0  0  0  0999 V2000
   14.2229   -0.9224    0.0000 Cl  0  0  0  0  0  0  0  0  0  0  0  0
   17.6868   -0.9625    0.0000 Cl  0  0  0  0  0  0  0  0  0  0  0  0
   14.1998   -2.9223    0.0000 S   0  0  0  0  0  0  0  0  0  0  0  0
   14.6897   -3.7940    0.0000 O   0  0  0  0  0  0  0  0  0  0  0  0
   13.7098   -2.0505    0.0000 O   0  0  0  0  0  0  0  0  0  0  0  0
   12.9735   -1.3540    0.0000 O   0  0  0  0  0  0  0  0  0  0  0  0
   15.1062    0.5675    0.0000 O   0  0  0  0  0  0  0  0  0  0  0  0
    7.3245   -4.0165    0.0000 O   0  0  0  0  0  0  0  0  0  0  0  0
   13.3280   -3.4122    0.0000 N   0  0  3  0  0  0  0  0  0  0  0  0
   11.2752   -1.6945    0.0000 N   0  0  0  0  0  0  0  0  0  0  0  0
    7.8787   -2.3755    0.0000 N   0  0  0  0  0  0  0  0  0  0  0  0
   13.3578    1.6021    0.0000 N   0  0  0  0  0  0  0  0  0  0  0  0
    2.5874   -2.4165    0.0000 N   0  0  0  0  0  0  0  0  0  0  0  0
    3.1416   -0.7755    0.0000 N   0  0  0  0  0  0  0  0  0  0  0  0
   12.4193   -2.9950    0.0000 C   0  0  1  0  0  0  0  0  0  0  0  0
   11.7416   -3.7303    0.0000 C   0  0  0  0  0  0  0  0  0  0  0  0
   12.2315   -4.6021    0.0000 C   0  0  0  0  0  0  0  0  0  0  0  0
   13.2120   -4.4055    0.0000 C   0  0  0  0  0  0  0  0  0  0  0  0
   12.2227   -2.0145    0.0000 C   0  0  0  0  0  0  0  0  0  0  0  0
   15.0715   -2.4323    0.0000 C   0  0  0  0  0  0  0  0  0  0  0  0
   10.5244   -2.3550    0.0000 C   0  0  0  0  0  0  0  0  0  0  0  0
   15.0831   -1.4324    0.0000 C   0  0  0  0  0  0  0  0  0  0  0  0
   15.9317   -2.9423    0.0000 C   0  0  0  0  0  0  0  0  0  0  0  0
    9.5770   -2.0350    0.0000 C   0  0  0  0  0  0  0  0  0  0  0  0
   15.9548   -0.9424    0.0000 C   0  0  0  0  0  0  0  0  0  0  0  0
   16.8035   -2.4524    0.0000 C   0  0  0  0  0  0  0  0  0  0  0  0
   16.8150   -1.4524    0.0000 C   0  0  0  0  0  0  0  0  0  0  0  0
    8.8262   -2.6955    0.0000 C   0  0  0  0  0  0  0  0  0  0  0  0
   15.9664    0.0575    0.0000 C   0  0  0  0  0  0  0  0  0  0  0  0
   15.1178    1.5674    0.0000 C   0  0  0  0  0  0  0  0  0  0  0  0
    7.1279   -3.0360    0.0000 C   0  0  0  0  0  0  0  0  0  0  0  0
   14.2238    2.1021    0.0000 C   0  0  0  0  0  0  0  0  0  0  0  0
   14.2238    3.1021    0.0000 C   0  0  0  0  0  0  0  0  0  0  0  0
   16.0239    2.0812    0.0000 C   0  0  0  0  0  0  0  0  0  0  0  0
    6.1805   -2.7160    0.0000 C   0  0  0  0  0  0  0  0  0  0  0  0
   13.3578    3.6021    0.0000 C   0  0  0  0  0  0  0  0  0  0  0  0
   15.1178    3.6367    0.0000 C   0  0  0  0  0  0  0  0  0  0  0  0
   16.0239    3.1229    0.0000 C   0  0  0  0  0  0  0  0  0  0  0  0
   12.4918    2.1021    0.0000 C   0  0  0  0  0  0  0  0  0  0  0  0
   12.4918    3.1021    0.0000 C   0  0  0  0  0  0  0  0  0  0  0  0
   13.3578    4.6021    0.0000 C   0  0  0  0  0  0  0  0  0  0  0  0
    5.9839   -1.7355    0.0000 C   0  0  0  0  0  0  0  0  0  0  0  0
    5.4297   -3.3765    0.0000 C   0  0  0  0  0  0  0  0  0  0  0  0
   11.6258    1.6021    0.0000 C   0  0  0  0  0  0  0  0  0  0  0  0
    5.0365   -1.4155    0.0000 C   0  0  0  0  0  0  0  0  0  0  0  0
    4.4822   -3.0565    0.0000 C   0  0  0  0  0  0  0  0  0  0  0  0
    4.2857   -2.0760    0.0000 C   0  0  0  0  0  0  0  0  0  0  0  0
    3.3382   -1.7560    0.0000 C   0  0  0  0  0  0  0  0  0  0  0  0
   12.9056   -2.6104    0.0000 H   0  0  0  0  0  0  0  0  0  0  0  0
   11.3321   -3.2648    0.0000 H   0  0  0  0  0  0  0  0  0  0  0  0
   11.2358   -4.0889    0.0000 H   0  0  0  0  0  0  0  0  0  0  0  0
   11.6623   -4.8477    0.0000 H   0  0  0  0  0  0  0  0  0  0  0  0
   12.4163   -5.1939    0.0000 H   0  0  0  0  0  0  0  0  0  0  0  0
   13.2697   -5.0228    0.0000 H   0  0  0  0  0  0  0  0  0  0  0  0
   13.8320   -4.4126    0.0000 H   0  0  0  0  0  0  0  0  0  0  0  0
   11.1534   -1.0866    0.0000 H   0  0  0  0  0  0  0  0  0  0  0  0
   10.2270   -2.8990    0.0000 H   0  0  0  0  0  0  0  0  0  0  0  0
   11.0085   -2.7423    0.0000 H   0  0  0  0  0  0  0  0  0  0  0  0
   15.9246   -3.5623    0.0000 H   0  0  0  0  0  0  0  0  0  0  0  0
    9.8744   -1.4910    0.0000 H   0  0  0  0  0  0  0  0  0  0  0  0
    9.0929   -1.6476    0.0000 H   0  0  0  0  0  0  0  0  0  0  0  0
   17.3368   -2.7685    0.0000 H   0  0  0  0  0  0  0  0  0  0  0  0
    8.5288   -3.2395    0.0000 H   0  0  0  0  0  0  0  0  0  0  0  0
    9.3103   -3.0828    0.0000 H   0  0  0  0  0  0  0  0  0  0  0  0
   16.5757   -0.0572    0.0000 H   0  0  0  0  0  0  0  0  0  0  0  0
   16.1852    0.6376    0.0000 H   0  0  0  0  0  0  0  0  0  0  0  0
    7.7569   -1.7676    0.0000 H   0  0  0  0  0  0  0  0  0  0  0  0
   16.5596    1.7692    0.0000 H   0  0  0  0  0  0  0  0  0  0  0  0
   15.1106    4.2567    0.0000 H   0  0  0  0  0  0  0  0  0  0  0  0
   16.5596    3.4350    0.0000 H   0  0  0  0  0  0  0  0  0  0  0  0
   11.9549    3.4121    0.0000 H   0  0  0  0  0  0  0  0  0  0  0  0
   13.9778    4.6021    0.0000 H   0  0  0  0  0  0  0  0  0  0  0  0
   13.3578    5.2221    0.0000 H   0  0  0  0  0  0  0  0  0  0  0  0
   12.7378    4.6021    0.0000 H   0  0  0  0  0  0  0  0  0  0  0  0
    6.4494   -1.3260    0.0000 H   0  0  0  0  0  0  0  0  0  0  0  0
    5.5515   -3.9844    0.0000 H   0  0  0  0  0  0  0  0  0  0  0  0
   11.3158    2.1390    0.0000 H   0  0  0  0  0  0  0  0  0  0  0  0
   11.0888    1.2921    0.0000 H   0  0  0  0  0  0  0  0  0  0  0  0
   11.9358    1.0651    0.0000 H   0  0  0  0  0  0  0  0  0  0  0  0
    4.9146   -0.8076    0.0000 H   0  0  0  0  0  0  0  0  0  0  0  0
    4.0167   -3.4660    0.0000 H   0  0  0  0  0  0  0  0  0  0  0  0
    2.0000   -2.2181    0.0000 H   0  0  0  0  0  0  0  0  0  0  0  0
    2.7093   -3.0244    0.0000 H   0  0  0  0  0  0  0  0  0  0  0  0
    2.5542   -0.5771    0.0000 H   0  0  0  0  0  0  0  0  0  0  0  0
  1 22  1  0  0  0  0
  2 27  1  0  0  0  0
  3  4  2  0  0  0  0
  3  5  2  0  0  0  0
  3  9  1  0  0  0  0
  3 20  1  0  0  0  0
  6 19  2  0  0  0  0
  7 29  1  0  0  0  0
  7 30  1  0  0  0  0
  8 31  2  0  0  0  0
  9 15  1  0  0  0  0
  9 18  1  0  0  0  0
 10 19  1  0  0  0  0
 10 21  1  0  0  0  0
 10 56  1  0  0  0  0
 11 28  1  0  0  0  0
 11 31  1  0  0  0  0
 11 67  1  0  0  0  0
 12 32  1  0  0  0  0
 12 39  2  0  0  0  0
 13 48  1  0  0  0  0
 13 82  1  0  0  0  0
 13 83  1  0  0  0  0
 14 48  2  0  0  0  0
 14 84  1  0  0  0  0
 15 16  1  0  0  0  0
 15 19  1  1  0  0  0
 15 49  1  0  0  0  0
 16 17  1  0  0  0  0
 16 50  1  0  0  0  0
 16 51  1  0  0  0  0
 17 18  1  0  0  0  0
 17 52  1  0  0  0  0
 17 53  1  0  0  0  0
 18 54  1  0  0  0  0
 18 55  1  0  0  0  0
 20 22  2  0  0  0  0
 20 23  1  0  0  0  0
 21 24  1  0  0  0  0
 21 57  1  0  0  0  0
 21 58  1  0  0  0  0
 22 25  1  0  0  0  0
 23 26  2  0  0  0  0
 23 59  1  0  0  0  0
 24 28  1  0  0  0  0
 24 60  1  0  0  0  0
 24 61  1  0  0  0  0
 25 27  2  0  0  0  0
 25 29  1  0  0  0  0
 26 27  1  0  0  0  0
 26 62  1  0  0  0  0
 28 63  1  0  0  0  0
 28 64  1  0  0  0  0
 29 65  1  0  0  0  0
 29 66  1  0  0  0  0
 30 32  1  0  0  0  0
 30 34  2  0  0  0  0
 31 35  1  0  0  0  0
 32 33  2  0  0  0  0
 33 36  1  0  0  0  0
 33 37  1  0  0  0  0
 34 38  1  0  0  0  0
 34 68  1  0  0  0  0
 35 42  2  0  0  0  0
 35 43  1  0  0  0  0
 36 40  2  0  0  0  0
 36 41  1  0  0  0  0
 37 38  2  0  0  0  0
 37 69  1  0  0  0  0
 38 70  1  0  0  0  0
 39 40  1  0  0  0  0
 39 44  1  0  0  0  0
 40 71  1  0  0  0  0
 41 72  1  0  0  0  0
 41 73  1  0  0  0  0
 41 74  1  0  0  0  0
 42 45  1  0  0  0  0
 42 75  1  0  0  0  0
 43 46  2  0  0  0  0
 43 76  1  0  0  0  0
 44 77  1  0  0  0  0
 44 78  1  0  0  0  0
 44 79  1  0  0  0  0
 45 47  2  0  0  0  0
 45 80  1  0  0  0  0
 46 47  1  0  0  0  0
 46 81  1  0  0  0  0
 47 48  1  0  0  0  0
M  END
> <PUBCHEM_COMPOUND_CID>
9831652

> <PUBCHEM_COMPOUND_CANONICALIZED>
1

> <PUBCHEM_CACTVS_COMPLEXITY>
1230

> <PUBCHEM_CACTVS_HBOND_ACCEPTOR>
8

> <PUBCHEM_CACTVS_HBOND_DONOR>
4

> <PUBCHEM_CACTVS_ROTATABLE_BOND>
12

> <PUBCHEM_CACTVS_SUBSKEYS>
AAADcfB/uABGAAAAAAAAAAAAAAAAAWAAAAA8YMEAAAAAAACx9AAAHgYQQAAADC7h3iYzx/LIFAKoAydydHTCiDClZyAImLm/btgOZvLF97uXOSjk1hHY6YeYyfCOwAIBgACDEICABAMAAQYhAAAAAAAAAA==

> <PUBCHEM_IUPAC_OPENEYE_NAME>
(2S)-N-[3-[(4-carbamimidoylbenzoyl)amino]propyl]-1-[2,4-dichloro-3-[(2,4-dimethyl-8-quinolyl)oxymethyl]phenyl]sulfonyl-pyrrolidine-2-carboxamide

> <PUBCHEM_IUPAC_CAS_NAME>
(2S)-N-[3-[[(4-carbamimidoylphenyl)-oxomethyl]amino]propyl]-1-[2,4-dichloro-3-[(2,4-dimethyl-8-quinolinyl)oxymethyl]phenyl]sulfonyl-2-pyrrolidinecarboxamide

> <PUBCHEM_IUPAC_NAME>
(2S)-N-[3-[(4-carbamimidoylbenzoyl)amino]propyl]-1-[2,4-dichloro-3-[(2,4-dimethylquinolin-8-yl)oxymethyl]phenyl]sulfonylpyrrolidine-2-carboxamide

> <PUBCHEM_IUPAC_SYSTEMATIC_NAME>
(2S)-1-[2,4-bis(chloranyl)-3-[(2,4-dimethylquinolin-8-yl)oxymethyl]phenyl]sulfonyl-N-[3-[(4-carbamimidoylphenyl)carbonylamino]propyl]pyrrolidine-2-carboxamide

> <PUBCHEM_IUPAC_TRADITIONAL_NAME>
(2S)-N-[3-[(4-amidinobenzoyl)amino]propyl]-1-[2,4-dichloro-3-[(2,4-dimethyl-8-quinolyl)oxymethyl]phenyl]sulfonyl-pyrrolidine-2-carboxamide

> <PUBCHEM_IUPAC_INCHI>
InChI=1S/C34H36Cl2N6O5S/c1-20-18-21(2)41-31-24(20)6-3-8-28(31)47-19-25-26(35)13-14-29(30(25)36)48(45,46)42-17-4-7-27(42)34(44)40-16-5-15-39-33(43)23-11-9-22(10-12-23)32(37)38/h3,6,8-14,18,27H,4-5,7,15-17,19H2,1-2H3,(H3,37,38)(H,39,43)(H,40,44)/t27-/m0/s1

> <PUBCHEM_IUPAC_INCHIKEY>
XUHBBTKJWIBQMY-MHZLTWQESA-N

> <PUBCHEM_XLOGP3_AA>
5

> <PUBCHEM_EXACT_MASS>
710.184495

> <PUBCHEM_MOLECULAR_FORMULA>
C34H36Cl2N6O5S

> <PUBCHEM_MOLECULAR_WEIGHT>
711.65784

> <PUBCHEM_OPENEYE_CAN_SMILES>
CC1=CC(=NC2=C1C=CC=C2OCC3=C(C=CC(=C3Cl)S(=O)(=O)N4CCCC4C(=O)NCCCNC(=O)C5=CC=C(C=C5)C(=N)N)Cl)C

> <PUBCHEM_OPENEYE_ISO_SMILES>
CC1=CC(=NC2=C1C=CC=C2OCC3=C(C=CC(=C3Cl)S(=O)(=O)N4CCC[C@H]4C(=O)NCCCNC(=O)C5=CC=C(C=C5)C(=N)N)Cl)C

> <PUBCHEM_CACTVS_TPSA>
176

> <PUBCHEM_MONOISOTOPIC_WEIGHT>
710.184495

> <PUBCHEM_TOTAL_CHARGE>
0

> <PUBCHEM_HEAVY_ATOM_COUNT>
48

> <PUBCHEM_ATOM_DEF_STEREO_COUNT>
1

> <PUBCHEM_ATOM_UDEF_STEREO_COUNT>
0

> <PUBCHEM_BOND_DEF_STEREO_COUNT>
0

> <PUBCHEM_BOND_UDEF_STEREO_COUNT>
0

> <PUBCHEM_ISOTOPIC_ATOM_COUNT>
0

> <PUBCHEM_COMPONENT_COUNT>
1

> <PUBCHEM_CACTVS_TAUTO_COUNT>
4

> <PUBCHEM_COORDINATE_TYPE>
1
5
255

> <PUBCHEM_BONDANNOTATIONS>
12  32  8
12  39  8
15  19  5
20  22  8
20  23  8
22  25  8
23  26  8
25  27  8
26  27  8
30  32  8
30  34  8
32  33  8
33  36  8
33  37  8
34  38  8
35  42  8
35  43  8
36  40  8
37  38  8
39  40  8
42  45  8
43  46  8
45  47  8
46  47  8

$$$$

