6839
  -OEChem-07051212532D

 25 26  0     1  0  0  0  0  0999 V2000
    2.0000    0.6048    0.0000 O   0  0  0  0  0  0  0  0  0  0  0  0
    4.8479    2.6739    0.0000 O   0  0  0  0  0  0  0  0  0  0  0  0
    3.2601    1.8649    0.0000 N   0  0  0  0  0  0  0  0  0  0  0  0
    3.7601    0.3261    0.0000 C   0  0  3  0  0  0  0  0  0  0  0  0
    4.5691    0.9139    0.0000 C   0  0  0  0  0  0  0  0  0  0  0  0
    2.9511    0.9139    0.0000 C   0  0  0  0  0  0  0  0  0  0  0  0
    3.7601   -0.6739    0.0000 C   0  0  0  0  0  0  0  0  0  0  0  0
    4.2601    1.8649    0.0000 C   0  0  0  0  0  0  0  0  0  0  0  0
    2.6723    2.6739    0.0000 C   0  0  0  0  0  0  0  0  0  0  0  0
    2.8940   -1.1739    0.0000 C   0  0  0  0  0  0  0  0  0  0  0  0
    4.6261   -1.1739    0.0000 C   0  0  0  0  0  0  0  0  0  0  0  0
    2.8940   -2.1739    0.0000 C   0  0  0  0  0  0  0  0  0  0  0  0
    4.6261   -2.1739    0.0000 C   0  0  0  0  0  0  0  0  0  0  0  0
    3.7601   -2.6739    0.0000 C   0  0  0  0  0  0  0  0  0  0  0  0
    4.3125    0.0446    0.0000 H   0  0  0  0  0  0  0  0  0  0  0  0
    4.8791    0.3769    0.0000 H   0  0  0  0  0  0  0  0  0  0  0  0
    5.1355    1.1660    0.0000 H   0  0  0  0  0  0  0  0  0  0  0  0
    3.1739    3.0384    0.0000 H   0  0  0  0  0  0  0  0  0  0  0  0
    2.3079    3.1755    0.0000 H   0  0  0  0  0  0  0  0  0  0  0  0
    2.1707    2.3095    0.0000 H   0  0  0  0  0  0  0  0  0  0  0  0
    2.3571   -0.8639    0.0000 H   0  0  0  0  0  0  0  0  0  0  0  0
    5.1630   -0.8639    0.0000 H   0  0  0  0  0  0  0  0  0  0  0  0
    2.3571   -2.4839    0.0000 H   0  0  0  0  0  0  0  0  0  0  0  0
    5.1630   -2.4839    0.0000 H   0  0  0  0  0  0  0  0  0  0  0  0
    3.7601   -3.2939    0.0000 H   0  0  0  0  0  0  0  0  0  0  0  0
  1  6  2  0  0  0  0
  2  8  2  0  0  0  0
  3  6  1  0  0  0  0
  3  8  1  0  0  0  0
  3  9  1  0  0  0  0
  4  5  1  0  0  0  0
  4  6  1  0  0  0  0
  4  7  1  0  0  0  0
  4 15  1  0  0  0  0
  5  8  1  0  0  0  0
  5 16  1  0  0  0  0
  5 17  1  0  0  0  0
  7 10  2  0  0  0  0
  7 11  1  0  0  0  0
  9 18  1  0  0  0  0
  9 19  1  0  0  0  0
  9 20  1  0  0  0  0
 10 12  1  0  0  0  0
 10 21  1  0  0  0  0
 11 13  2  0  0  0  0
 11 22  1  0  0  0  0
 12 14  2  0  0  0  0
 12 23  1  0  0  0  0
 13 14  1  0  0  0  0
 13 24  1  0  0  0  0
 14 25  1  0  0  0  0
M  END
> <PUBCHEM_COMPOUND_CID>
6839

> <PUBCHEM_COMPOUND_CANONICALIZED>
1

> <PUBCHEM_CACTVS_COMPLEXITY>
256

> <PUBCHEM_CACTVS_HBOND_ACCEPTOR>
2

> <PUBCHEM_CACTVS_HBOND_DONOR>
0

> <PUBCHEM_CACTVS_ROTATABLE_BOND>
1

> <PUBCHEM_CACTVS_SUBSKEYS>
AAADccByMAAAAAAAAAAAAAAAAAAAAWAAAAAwAAAAAAAAAAABAAAAHgAAAAAADQCBmAQyAIMAAACIAiFSEAACAAAgAAAIiAEIAIgIIDKAlRGEIAAghiCIiAcdiMCOgAAAAAAAAAAAAAAAAAAAAAAAAAAAAA==

> <PUBCHEM_IUPAC_OPENEYE_NAME>
1-methyl-3-phenyl-pyrrolidine-2,5-dione

> <PUBCHEM_IUPAC_CAS_NAME>
1-methyl-3-phenylpyrrolidine-2,5-dione

> <PUBCHEM_IUPAC_NAME>
1-methyl-3-phenylpyrrolidine-2,5-dione

> <PUBCHEM_IUPAC_SYSTEMATIC_NAME>
1-methyl-3-phenyl-pyrrolidine-2,5-dione

> <PUBCHEM_IUPAC_TRADITIONAL_NAME>
1-methyl-3-phenyl-pyrrolidine-2,5-quinone

> <PUBCHEM_IUPAC_INCHI>
InChI=1S/C11H11NO2/c1-12-10(13)7-9(11(12)14)8-5-3-2-4-6-8/h2-6,9H,7H2,1H3

> <PUBCHEM_IUPAC_INCHIKEY>
WLWFNJKHKGIJNW-UHFFFAOYSA-N

> <PUBCHEM_XLOGP3_AA>
0.8

> <PUBCHEM_EXACT_MASS>
189.078979

> <PUBCHEM_MOLECULAR_FORMULA>
C11H11NO2

> <PUBCHEM_MOLECULAR_WEIGHT>
189.21054

> <PUBCHEM_OPENEYE_CAN_SMILES>
CN1C(=O)CC(C1=O)C2=CC=CC=C2

> <PUBCHEM_OPENEYE_ISO_SMILES>
CN1C(=O)CC(C1=O)C2=CC=CC=C2

> <PUBCHEM_CACTVS_TPSA>
37.4

> <PUBCHEM_MONOISOTOPIC_WEIGHT>
189.078979

> <PUBCHEM_TOTAL_CHARGE>
0

> <PUBCHEM_HEAVY_ATOM_COUNT>
14

> <PUBCHEM_ATOM_DEF_STEREO_COUNT>
0

> <PUBCHEM_ATOM_UDEF_STEREO_COUNT>
1

> <PUBCHEM_BOND_DEF_STEREO_COUNT>
0

> <PUBCHEM_BOND_UDEF_STEREO_COUNT>
0

> <PUBCHEM_ISOTOPIC_ATOM_COUNT>
0

> <PUBCHEM_COMPONENT_COUNT>
1

> <PUBCHEM_CACTVS_TAUTO_COUNT>
4

> <PUBCHEM_COORDINATE_TYPE>
1
5
255

> <PUBCHEM_BONDANNOTATIONS>
10  12  8
11  13  8
12  14  8
13  14  8
4  7  3
7  10  8
7  11  8

$$$$

