643833
  -OEChem-07051212523D

  6  5  0     0  0  0  0  0  0999 V2000
    1.5899    0.7209    0.0000 Cl  0  0  0  0  0  0  0  0  0  0  0  0
   -1.5903    0.7205    0.0000 Cl  0  0  0  0  0  0  0  0  0  0  0  0
    0.6654   -0.7207    0.0000 C   0  0  0  0  0  0  0  0  0  0  0  0
   -0.6650   -0.7207    0.0000 C   0  0  0  0  0  0  0  0  0  0  0  0
    1.2713   -1.6162    0.0001 H   0  0  0  0  0  0  0  0  0  0  0  0
   -1.2707   -1.6163    0.0000 H   0  0  0  0  0  0  0  0  0  0  0  0
  1  3  1  0  0  0  0
  2  4  1  0  0  0  0
  3  4  2  0  0  0  0
  3  5  1  0  0  0  0
  4  6  1  0  0  0  0
M  END
> <PUBCHEM_COMPOUND_CID>
643833

> <PUBCHEM_CONFORMER_RMSD>
0.4

> <PUBCHEM_CONFORMER_DIVERSEORDER>
1

> <PUBCHEM_MMFF94_PARTIAL_CHARGES>
6
1 -0.14
2 -0.14
3 -0.01
4 -0.01
5 0.15
6 0.15

> <PUBCHEM_EFFECTIVE_ROTOR_COUNT>
0

> <PUBCHEM_PHARMACOPHORE_FEATURES>
0

> <PUBCHEM_HEAVY_ATOM_COUNT>
4

> <PUBCHEM_ATOM_DEF_STEREO_COUNT>
0

> <PUBCHEM_ATOM_UDEF_STEREO_COUNT>
0

> <PUBCHEM_BOND_DEF_STEREO_COUNT>
1

> <PUBCHEM_BOND_UDEF_STEREO_COUNT>
0

> <PUBCHEM_ISOTOPIC_ATOM_COUNT>
0

> <PUBCHEM_COMPONENT_COUNT>
1

> <PUBCHEM_CACTVS_TAUTO_COUNT>
1

> <PUBCHEM_CONFORMER_ID>
0009D2F900000001

> <PUBCHEM_MMFF94_ENERGY>
3.0904

> <PUBCHEM_FEATURE_SELFOVERLAP>
0

> <PUBCHEM_SHAPE_FINGERPRINT>
139733 1 18410856559639835045
21015797 1 18338520857885013158
5943 1 8788922724631560143

> <PUBCHEM_SHAPE_MULTIPOLES>
86.06
2.17
1.15
0.64
0
0.01
0
0.76
0
0
0
0
0.01
0

> <PUBCHEM_SHAPE_SELFOVERLAP>
132.906

> <PUBCHEM_SHAPE_VOLUME>
61.9

> <PUBCHEM_COORDINATE_TYPE>
2
5
10

$$$$

