582797
  -OEChem-06241222443D

 35 36  0     1  0  0  0  0  0999 V2000
   -1.7455    1.9825   -1.5620 F   0  0  0  0  0  0  0  0  0  0  0  0
   -1.9151    3.2942    0.1722 F   0  0  0  0  0  0  0  0  0  0  0  0
   -3.7060    2.4371   -0.7262 F   0  0  0  0  0  0  0  0  0  0  0  0
   -1.1087   -3.6512    0.2676 O   0  0  0  0  0  0  0  0  0  0  0  0
   -1.2758   -2.2952   -1.5820 O   0  0  0  0  0  0  0  0  0  0  0  0
   -2.8433    0.9490    1.6131 O   0  0  0  0  0  0  0  0  0  0  0  0
    3.1480   -1.3130   -0.3645 N   0  0  0  0  0  0  0  0  0  0  0  0
   -1.5397   -0.0328   -0.0482 N   0  0  0  0  0  0  0  0  0  0  0  0
    0.0011   -1.2078    1.4846 C   0  0  0  0  0  0  0  0  0  0  0  0
    1.2607   -0.9670    0.7516 C   0  0  0  0  0  0  0  0  0  0  0  0
   -1.2767   -1.2860    0.6139 C   0  0  2  0  0  0  0  0  0  0  0  0
    1.8358    0.2984    0.4471 C   0  0  0  0  0  0  0  0  0  0  0  0
    3.0189    0.0531   -0.2532 C   0  0  0  0  0  0  0  0  0  0  0  0
    2.0903   -1.9380    0.2396 C   0  0  0  0  0  0  0  0  0  0  0  0
    1.4623    1.6331    0.7010 C   0  0  0  0  0  0  0  0  0  0  0  0
   -1.2164   -2.4502   -0.3666 C   0  0  0  0  0  0  0  0  0  0  0  0
    3.8504    1.0800   -0.7142 C   0  0  0  0  0  0  0  0  0  0  0  0
    2.2843    2.6705    0.2459 C   0  0  0  0  0  0  0  0  0  0  0  0
    3.4595    2.3960   -0.4506 C   0  0  0  0  0  0  0  0  0  0  0  0
   -2.3031    0.9798    0.5110 C   0  0  0  0  0  0  0  0  0  0  0  0
   -2.4169    2.1687   -0.3971 C   0  0  0  0  0  0  0  0  0  0  0  0
   -1.0642   -4.8013   -0.5831 C   0  0  0  0  0  0  0  0  0  0  0  0
   -0.1336   -0.4202    2.2380 H   0  0  0  0  0  0  0  0  0  0  0  0
    0.0992   -2.1402    2.0569 H   0  0  0  0  0  0  0  0  0  0  0  0
   -2.1308   -1.4867    1.2738 H   0  0  0  0  0  0  0  0  0  0  0  0
    2.0251   -3.0171    0.2499 H   0  0  0  0  0  0  0  0  0  0  0  0
    3.9132   -1.7853   -0.8257 H   0  0  0  0  0  0  0  0  0  0  0  0
   -1.1292    0.1144   -0.9661 H   0  0  0  0  0  0  0  0  0  0  0  0
    0.5536    1.8676    1.2473 H   0  0  0  0  0  0  0  0  0  0  0  0
    4.7656    0.8673   -1.2565 H   0  0  0  0  0  0  0  0  0  0  0  0
    2.0015    3.7018    0.4399 H   0  0  0  0  0  0  0  0  0  0  0  0
    4.0832    3.2170   -0.7948 H   0  0  0  0  0  0  0  0  0  0  0  0
   -0.9800   -5.6888    0.0496 H   0  0  0  0  0  0  0  0  0  0  0  0
   -0.1892   -4.7532   -1.2384 H   0  0  0  0  0  0  0  0  0  0  0  0
   -1.9845   -4.8743   -1.1702 H   0  0  0  0  0  0  0  0  0  0  0  0
  1 21  1  0  0  0  0
  2 21  1  0  0  0  0
  3 21  1  0  0  0  0
  4 16  1  0  0  0  0
  4 22  1  0  0  0  0
  5 16  2  0  0  0  0
  6 20  2  0  0  0  0
  7 13  1  0  0  0  0
  7 14  1  0  0  0  0
  7 27  1  0  0  0  0
  8 11  1  0  0  0  0
  8 20  1  0  0  0  0
  8 28  1  0  0  0  0
  9 10  1  0  0  0  0
  9 11  1  0  0  0  0
  9 23  1  0  0  0  0
  9 24  1  0  0  0  0
 10 12  1  0  0  0  0
 10 14  2  0  0  0  0
 11 16  1  0  0  0  0
 11 25  1  0  0  0  0
 12 13  1  0  0  0  0
 12 15  2  0  0  0  0
 13 17  2  0  0  0  0
 14 26  1  0  0  0  0
 15 18  1  0  0  0  0
 15 29  1  0  0  0  0
 17 19  1  0  0  0  0
 17 30  1  0  0  0  0
 18 19  2  0  0  0  0
 18 31  1  0  0  0  0
 19 32  1  0  0  0  0
 20 21  1  0  0  0  0
 22 33  1  0  0  0  0
 22 34  1  0  0  0  0
 22 35  1  0  0  0  0
M  END
> <PUBCHEM_COMPOUND_CID>
582797

> <PUBCHEM_CONFORMER_RMSD>
0.8

> <PUBCHEM_CONFORMER_DIVERSEORDER>
1
34
81
93
87
49
58
22
89
96
37
53
86
18
43
4
26
38
84
97
40
6
90
95
7
57
44
71
23
20
94
45
55
42
83
91
56
70
16
30
46
77
60
5
63
78
52
14
3
2
79
35
82
33
59
73
85
72
36
41
27
76
9
11
47
80
19
24
31
10
48
8
92
66
32
54
15
12
61
25
50
64
13
17
62
29
68
75
51
74
28
69
65
39
88
67
21

> <PUBCHEM_MMFF94_PARTIAL_CHARGES>
28
1 -0.34
10 -0.18
11 0.36
13 -0.15
14 -0.3
15 -0.15
16 0.66
17 -0.15
18 -0.15
19 -0.15
2 -0.34
20 0.57
21 1.08
22 0.28
26 0.15
27 0.27
28 0.37
29 0.15
3 -0.34
30 0.15
31 0.15
32 0.15
4 -0.43
5 -0.57
6 -0.57
7 0.03
8 -0.73
9 0.18

> <PUBCHEM_EFFECTIVE_ROTOR_COUNT>
7

> <PUBCHEM_PHARMACOPHORE_FEATURES>
7
1 5 acceptor
1 6 acceptor
1 7 cation
1 7 donor
1 8 donor
5 7 10 12 13 14 rings
6 12 13 15 17 18 19 rings

> <PUBCHEM_HEAVY_ATOM_COUNT>
22

> <PUBCHEM_ATOM_DEF_STEREO_COUNT>
0

> <PUBCHEM_ATOM_UDEF_STEREO_COUNT>
1

> <PUBCHEM_BOND_DEF_STEREO_COUNT>
0

> <PUBCHEM_BOND_UDEF_STEREO_COUNT>
0

> <PUBCHEM_ISOTOPIC_ATOM_COUNT>
0

> <PUBCHEM_COMPONENT_COUNT>
1

> <PUBCHEM_CACTVS_TAUTO_COUNT>
2

> <PUBCHEM_CONFORMER_ID>
0008E48D00000001

> <PUBCHEM_MMFF94_ENERGY>
34.6664

> <PUBCHEM_FEATURE_SELFOVERLAP>
35.612

> <PUBCHEM_SHAPE_FINGERPRINT>
10498660 4 17908146482014734556
10670039 82 17550654527652979412
10871710 139 17765135181943611844
11045515 52 17620197529195079063
11578080 2 17314514721155658856
128993 33 18272086127804824436
15210252 30 17694526761774510823
16945 1 18410859828431824386
17134986 127 18268997655402623335
18219364 16 18196078052996988881
19930381 70 18194684993408348261
20344682 6 17689151215167055202
20775438 99 17539171326531387407
21524375 3 18201158861710726811
23402539 116 17688594858030403786
23419403 2 16470867463277143939
23558518 356 18056483855145469240
238 59 17482587425624114021
255183 451 17179691871488212959
3060560 45 18122074366153197997
6443956 14 17329431640938825135
81228 2 18118417146041080499

> <PUBCHEM_SHAPE_MULTIPOLES>
403.36
5.73
4.9
1.16
4.16
2.14
0.02
-1.63
-1.18
-4.86
-0.99
-0.47
0.16
-0.23

> <PUBCHEM_SHAPE_SELFOVERLAP>
861.746

> <PUBCHEM_SHAPE_VOLUME>
224.3

> <PUBCHEM_COORDINATE_TYPE>
2
5
10

$$$$

