5280631
  -OEChem-07051212482D

 44 46  0     0  0  0  0  0  0999 V2000
    5.1350   -2.9050    0.0000 S   0  0  0  0  0  0  0  0  0  0  0  0
   11.2651   -0.3775    0.0000 S   0  0  0  0  0  0  0  0  0  0  0  0
    3.4030    3.0950    0.0000 S   0  0  0  0  0  0  0  0  0  0  0  0
    6.8671    0.0950    0.0000 O   0  0  0  0  0  0  0  0  0  0  0  0
    5.1350   -1.9050    0.0000 O   0  0  0  0  0  0  0  0  0  0  0  0
   10.3972    0.1192    0.0000 O   0  0  0  0  0  0  0  0  0  0  0  0
    8.6155   -2.9396    0.0000 O   0  0  0  0  0  0  0  0  0  0  0  0
    6.8671   -2.9050    0.0000 O   0  0  0  0  0  0  0  0  0  0  0  0
    4.2690    2.5950    0.0000 O   0  0  0  0  0  0  0  0  0  0  0  0
    2.5369    1.5950    0.0000 O   0  0  0  0  0  0  0  0  0  0  0  0
    5.1350   -3.9050    0.0000 O   0  0  0  0  0  0  0  0  0  0  0  0
    4.1350   -2.9050    0.0000 O   0  0  0  0  0  0  0  0  0  0  0  0
    6.1350   -2.9050    0.0000 O   0  0  0  0  0  0  0  0  0  0  0  0
   12.1331   -0.8742    0.0000 O   0  0  0  0  0  0  0  0  0  0  0  0
    2.5369    3.5950    0.0000 O   0  0  0  0  0  0  0  0  0  0  0  0
   11.7618    0.4904    0.0000 O   0  0  0  0  0  0  0  0  0  0  0  0
   10.7685   -1.2454    0.0000 O   0  0  0  0  0  0  0  0  0  0  0  0
    3.9030    3.9610    0.0000 O   0  0  0  0  0  0  0  0  0  0  0  0
    2.9030    2.2290    0.0000 O   0  0  0  0  0  0  0  0  0  0  0  0
    7.7331   -1.4050    0.0000 C   0  0  0  0  0  0  0  0  0  0  0  0
    6.0010   -0.4050    0.0000 C   0  0  0  0  0  0  0  0  0  0  0  0
    7.7331   -0.4050    0.0000 C   0  0  0  0  0  0  0  0  0  0  0  0
    6.0010   -1.4050    0.0000 C   0  0  0  0  0  0  0  0  0  0  0  0
    5.1350    0.0950    0.0000 C   0  0  0  0  0  0  0  0  0  0  0  0
    6.8671   -1.9050    0.0000 C   0  0  0  0  0  0  0  0  0  0  0  0
    8.6270   -1.9397    0.0000 C   0  0  0  0  0  0  0  0  0  0  0  0
    8.6270    0.1297    0.0000 C   0  0  0  0  0  0  0  0  0  0  0  0
    9.5331   -0.3842    0.0000 C   0  0  0  0  0  0  0  0  0  0  0  0
    9.5331   -1.4258    0.0000 C   0  0  0  0  0  0  0  0  0  0  0  0
    5.1350    1.0950    0.0000 C   0  0  0  0  0  0  0  0  0  0  0  0
    4.2690   -0.4050    0.0000 C   0  0  0  0  0  0  0  0  0  0  0  0
    4.2690    1.5950    0.0000 C   0  0  0  0  0  0  0  0  0  0  0  0
    3.4030    0.0950    0.0000 C   0  0  0  0  0  0  0  0  0  0  0  0
    3.4030    1.0950    0.0000 C   0  0  0  0  0  0  0  0  0  0  0  0
    8.6199    0.7496    0.0000 H   0  0  0  0  0  0  0  0  0  0  0  0
   10.0688   -1.7379    0.0000 H   0  0  0  0  0  0  0  0  0  0  0  0
    5.6720    1.4050    0.0000 H   0  0  0  0  0  0  0  0  0  0  0  0
    4.2690   -1.0250    0.0000 H   0  0  0  0  0  0  0  0  0  0  0  0
    2.8660   -0.2150    0.0000 H   0  0  0  0  0  0  0  0  0  0  0  0
    9.1488   -3.2558    0.0000 H   0  0  0  0  0  0  0  0  0  0  0  0
    2.0000    1.2850    0.0000 H   0  0  0  0  0  0  0  0  0  0  0  0
    4.5981   -4.2150    0.0000 H   0  0  0  0  0  0  0  0  0  0  0  0
   12.6688   -0.5621    0.0000 H   0  0  0  0  0  0  0  0  0  0  0  0
    2.5369    4.2150    0.0000 H   0  0  0  0  0  0  0  0  0  0  0  0
  1  5  1  0  0  0  0
  1 11  1  0  0  0  0
  1 12  2  0  0  0  0
  1 13  2  0  0  0  0
  2  6  1  0  0  0  0
  2 14  1  0  0  0  0
  2 16  2  0  0  0  0
  2 17  2  0  0  0  0
  3  9  1  0  0  0  0
  3 15  1  0  0  0  0
  3 18  2  0  0  0  0
  3 19  2  0  0  0  0
  4 21  1  0  0  0  0
  4 22  1  0  0  0  0
  5 23  1  0  0  0  0
  6 28  1  0  0  0  0
  7 26  1  0  0  0  0
  7 40  1  0  0  0  0
  8 25  2  0  0  0  0
  9 32  1  0  0  0  0
 10 34  1  0  0  0  0
 10 41  1  0  0  0  0
 11 42  1  0  0  0  0
 14 43  1  0  0  0  0
 15 44  1  0  0  0  0
 20 22  1  0  0  0  0
 20 25  1  0  0  0  0
 20 26  2  0  0  0  0
 21 23  2  0  0  0  0
 21 24  1  0  0  0  0
 22 27  2  0  0  0  0
 23 25  1  0  0  0  0
 24 30  2  0  0  0  0
 24 31  1  0  0  0  0
 26 29  1  0  0  0  0
 27 28  1  0  0  0  0
 27 35  1  0  0  0  0
 28 29  2  0  0  0  0
 29 36  1  0  0  0  0
 30 32  1  0  0  0  0
 30 37  1  0  0  0  0
 31 33  2  0  0  0  0
 31 38  1  0  0  0  0
 32 34  2  0  0  0  0
 33 34  1  0  0  0  0
 33 39  1  0  0  0  0
M  END
> <PUBCHEM_COMPOUND_CID>
5280631

> <PUBCHEM_COMPOUND_CANONICALIZED>
1

> <PUBCHEM_CACTVS_COMPLEXITY>
1140

> <PUBCHEM_CACTVS_HBOND_ACCEPTOR>
16

> <PUBCHEM_CACTVS_HBOND_DONOR>
5

> <PUBCHEM_CACTVS_ROTATABLE_BOND>
7

> <PUBCHEM_CACTVS_SUBSKEYS>
AAADccBwPgBgAAAAAAAAAAAAAAAAAAAAAAAwYIAAAAAAAACBQAAAGgAACAAADASAmAAwBoAABoCIAqBSADICCAAkIAAIiAFGiMgNJzaGNRqCeWGl4BUJuQfI7LzOIAABCAAIQABAAAIQABCAAAAAAAAAAA==

> <PUBCHEM_IUPAC_OPENEYE_NAME>
[2-hydroxy-5-(5-hydroxy-4-oxo-3,7-disulfooxy-chromen-2-yl)phenyl] hydrogen sulfate

> <PUBCHEM_IUPAC_CAS_NAME>
sulfuric acid [2-hydroxy-5-(5-hydroxy-4-oxo-3,7-disulfooxy-1-benzopyran-2-yl)phenyl] ester

> <PUBCHEM_IUPAC_NAME>
[2-hydroxy-5-(5-hydroxy-4-oxo-3,7-disulfooxychromen-2-yl)phenyl] hydrogen sulfate

> <PUBCHEM_IUPAC_SYSTEMATIC_NAME>
[5-oxidanyl-4-oxidanylidene-2-(4-oxidanyl-3-sulfooxy-phenyl)-3-sulfooxy-chromen-7-yl] hydrogen sulfate

> <PUBCHEM_IUPAC_TRADITIONAL_NAME>
sulfuric acid [2-hydroxy-5-(5-hydroxy-4-keto-3,7-disulfoxy-chromen-2-yl)phenyl] ester

> <PUBCHEM_IUPAC_INCHI>
InChI=1S/C15H10O16S3/c16-8-2-1-6(3-10(8)30-33(22,23)24)14-15(31-34(25,26)27)13(18)12-9(17)4-7(5-11(12)28-14)29-32(19,20)21/h1-5,16-17H,(H,19,20,21)(H,22,23,24)(H,25,26,27)

> <PUBCHEM_IUPAC_INCHIKEY>
WWSKELVNYRIPTL-UHFFFAOYSA-N

> <PUBCHEM_XLOGP3_AA>
0.4

> <PUBCHEM_EXACT_MASS>
541.913097

> <PUBCHEM_MOLECULAR_FORMULA>
C15H10O16S3

> <PUBCHEM_MOLECULAR_WEIGHT>
542.4253

> <PUBCHEM_OPENEYE_CAN_SMILES>
C1=CC(=C(C=C1C2=C(C(=O)C3=C(C=C(C=C3O2)OS(=O)(=O)O)O)OS(=O)(=O)O)OS(=O)(=O)O)O

> <PUBCHEM_OPENEYE_ISO_SMILES>
C1=CC(=C(C=C1C2=C(C(=O)C3=C(C=C(C=C3O2)OS(=O)(=O)O)O)OS(=O)(=O)O)OS(=O)(=O)O)O

> <PUBCHEM_CACTVS_TPSA>
283

> <PUBCHEM_MONOISOTOPIC_WEIGHT>
541.913097

> <PUBCHEM_TOTAL_CHARGE>
0

> <PUBCHEM_HEAVY_ATOM_COUNT>
34

> <PUBCHEM_ATOM_DEF_STEREO_COUNT>
0

> <PUBCHEM_ATOM_UDEF_STEREO_COUNT>
0

> <PUBCHEM_BOND_DEF_STEREO_COUNT>
0

> <PUBCHEM_BOND_UDEF_STEREO_COUNT>
0

> <PUBCHEM_ISOTOPIC_ATOM_COUNT>
0

> <PUBCHEM_COMPONENT_COUNT>
1

> <PUBCHEM_CACTVS_TAUTO_COUNT>
29

> <PUBCHEM_COORDINATE_TYPE>
1
5
255

> <PUBCHEM_BONDANNOTATIONS>
20  22  8
20  25  8
20  26  8
21  23  8
22  27  8
23  25  8
24  30  8
24  31  8
26  29  8
27  28  8
28  29  8
30  32  8
31  33  8
32  34  8
33  34  8
4  21  8
4  22  8

$$$$

