636537
  -OEChem-07051212593D

 37 39  0     0  0  0  0  0  0999 V2000
    3.9080    1.8369    0.8988 O   0  0  0  0  0  0  0  0  0  0  0  0
   -4.6620   -1.9073    0.7554 O   0  0  0  0  0  0  0  0  0  0  0  0
   -6.2902   -0.4769   -0.2985 O   0  0  0  0  0  0  0  0  0  0  0  0
    4.8151   -0.1116    0.0430 N   0  0  0  0  0  0  0  0  0  0  0  0
    7.0253   -0.9053   -0.1359 C   0  0  0  0  0  0  0  0  0  0  0  0
    6.1287   -1.7630   -1.0183 C   0  0  0  0  0  0  0  0  0  0  0  0
    6.1955    0.3531    0.0637 C   0  0  0  0  0  0  0  0  0  0  0  0
    4.7361   -1.4775   -0.4727 C   0  0  0  0  0  0  0  0  0  0  0  0
    3.7758    0.6904    0.4717 C   0  0  0  0  0  0  0  0  0  0  0  0
    2.4210    0.1073    0.4079 C   0  0  0  0  0  0  0  0  0  0  0  0
    1.3929    0.9295    0.2101 C   0  0  0  0  0  0  0  0  0  0  0  0
   -4.1128   -0.7505    0.2947 C   0  0  0  0  0  0  0  0  0  0  0  0
   -2.4240    0.8380   -0.1450 C   0  0  0  0  0  0  0  0  0  0  0  0
   -5.0426    0.0663   -0.3071 C   0  0  0  0  0  0  0  0  0  0  0  0
   -2.7846   -0.3898    0.3925 C   0  0  0  0  0  0  0  0  0  0  0  0
   -3.3565    1.6778   -0.7589 C   0  0  0  0  0  0  0  0  0  0  0  0
   -4.6953    1.2886   -0.8445 C   0  0  0  0  0  0  0  0  0  0  0  0
    0.0287    0.4518    0.1327 C   0  0  0  0  0  0  0  0  0  0  0  0
   -1.0173    1.2693   -0.0662 C   0  0  0  0  0  0  0  0  0  0  0  0
   -6.0419   -1.7269    0.3766 C   0  0  0  0  0  0  0  0  0  0  0  0
    7.1870   -1.4063    0.8261 H   0  0  0  0  0  0  0  0  0  0  0  0
    8.0005   -0.7008   -0.5859 H   0  0  0  0  0  0  0  0  0  0  0  0
    6.2002   -1.4239   -2.0589 H   0  0  0  0  0  0  0  0  0  0  0  0
    6.3842   -2.8255   -0.9857 H   0  0  0  0  0  0  0  0  0  0  0  0
    6.4204    0.8717    1.0003 H   0  0  0  0  0  0  0  0  0  0  0  0
    6.3225    1.0545   -0.7684 H   0  0  0  0  0  0  0  0  0  0  0  0
    3.9583   -1.5631   -1.2368 H   0  0  0  0  0  0  0  0  0  0  0  0
    4.4927   -2.1388    0.3659 H   0  0  0  0  0  0  0  0  0  0  0  0
    2.2955   -0.9641    0.5111 H   0  0  0  0  0  0  0  0  0  0  0  0
    1.5422    2.0002    0.0958 H   0  0  0  0  0  0  0  0  0  0  0  0
   -2.0947   -1.0582    0.8937 H   0  0  0  0  0  0  0  0  0  0  0  0
   -5.4307    1.9287   -1.3184 H   0  0  0  0  0  0  0  0  0  0  0  0
   -3.0599    2.6366   -1.1771 H   0  0  0  0  0  0  0  0  0  0  0  0
   -0.8483    2.3379   -0.1853 H   0  0  0  0  0  0  0  0  0  0  0  0
   -0.1002   -0.6221    0.2302 H   0  0  0  0  0  0  0  0  0  0  0  0
   -6.6619   -1.7674    1.2796 H   0  0  0  0  0  0  0  0  0  0  0  0
   -6.3337   -2.5485   -0.2877 H   0  0  0  0  0  0  0  0  0  0  0  0
  1  9  2  0  0  0  0
  2 12  1  0  0  0  0
  2 20  1  0  0  0  0
  3 14  1  0  0  0  0
  3 20  1  0  0  0  0
  4  7  1  0  0  0  0
  4  8  1  0  0  0  0
  4  9  1  0  0  0  0
  5  6  1  0  0  0  0
  5  7  1  0  0  0  0
  5 21  1  0  0  0  0
  5 22  1  0  0  0  0
  6  8  1  0  0  0  0
  6 23  1  0  0  0  0
  6 24  1  0  0  0  0
  7 25  1  0  0  0  0
  7 26  1  0  0  0  0
  8 27  1  0  0  0  0
  8 28  1  0  0  0  0
  9 10  1  0  0  0  0
 10 11  2  0  0  0  0
 10 29  1  0  0  0  0
 11 18  1  0  0  0  0
 11 30  1  0  0  0  0
 12 14  2  0  0  0  0
 12 15  1  0  0  0  0
 13 15  2  0  0  0  0
 13 16  1  0  0  0  0
 13 19  1  0  0  0  0
 14 17  1  0  0  0  0
 15 31  1  0  0  0  0
 16 17  2  0  0  0  0
 16 33  1  0  0  0  0
 17 32  1  0  0  0  0
 18 19  2  0  0  0  0
 18 35  1  0  0  0  0
 19 34  1  0  0  0  0
 20 36  1  0  0  0  0
 20 37  1  0  0  0  0
M  END
> <PUBCHEM_COMPOUND_CID>
636537

> <PUBCHEM_CONFORMER_RMSD>
0.8

> <PUBCHEM_CONFORMER_DIVERSEORDER>
2
9
5
1
8
3
4
6
7

> <PUBCHEM_MMFF94_PARTIAL_CHARGES>
25
1 -0.57
10 -0.14
11 -0.15
12 0.08
13 0.03
14 0.08
15 -0.15
16 -0.15
17 -0.15
18 -0.15
19 -0.18
2 -0.36
20 0.56
29 0.15
3 -0.36
30 0.15
31 0.15
32 0.15
33 0.15
34 0.15
35 0.15
4 -0.66
7 0.3
8 0.3
9 0.62

> <PUBCHEM_EFFECTIVE_ROTOR_COUNT>
5.6

> <PUBCHEM_PHARMACOPHORE_FEATURES>
6
1 1 acceptor
1 2 acceptor
1 3 acceptor
5 2 3 12 14 20 rings
5 4 5 6 7 8 rings
6 12 13 14 15 16 17 rings

> <PUBCHEM_HEAVY_ATOM_COUNT>
20

> <PUBCHEM_ATOM_DEF_STEREO_COUNT>
0

> <PUBCHEM_ATOM_UDEF_STEREO_COUNT>
0

> <PUBCHEM_BOND_DEF_STEREO_COUNT>
2

> <PUBCHEM_BOND_UDEF_STEREO_COUNT>
0

> <PUBCHEM_ISOTOPIC_ATOM_COUNT>
0

> <PUBCHEM_COMPONENT_COUNT>
1

> <PUBCHEM_CACTVS_TAUTO_COUNT>
1

> <PUBCHEM_CONFORMER_ID>
0009B67900000002

> <PUBCHEM_MMFF94_ENERGY>
48.2511

> <PUBCHEM_FEATURE_SELFOVERLAP>
30.603

> <PUBCHEM_SHAPE_FINGERPRINT>
10638233 991 15339112442499869692
11315181 36 18410290311642530777
11524674 6 17240202114869500887
117890 112 9007057963639698944
12166972 35 18413386519022232668
12516196 113 18333734624199067896
12596602 18 6916258529534561174
12616971 3 15502380001913445440
13073987 5 17822291336246990048
13288520 33 18342739607545881765
13402501 40 18409163316181631806
13533116 47 17748828497502563696
13668630 136 18187361056424891102
13685833 64 18260828207141921954
13885169 127 18334012835248670297
13955234 65 17822865169700612168
1420 363 18407759235605955636
14251718 22 18272932730668029596
14251764 18 14056728919853264256
14350574 20 18409166619433007832
14455015 7 18187364341805587120
14461889 52 18340211787490397128
14528608 73 17132112438162243524
14556957 393 15410890803413216327
14729087 3 9583518702916029670
14848160 23 18408042913890359148
14849402 71 14201982081538107130
15183329 4 18131353037738354282
15348495 7 7709160362000404798
15352257 5 18409728473885282902
15716309 27 17967533467099398781
17844677 252 18408880737350905280
17870717 6 18130788967077809207
18222031 100 17489591151695194860
18335252 98 18338514141189093656
18643901 69 18202562866042173143
18681886 176 18202004296491247952
18927931 339 18060135432425070379
19489759 90 17917993884436730893
20281389 69 8358261436361261726
20621476 21 18341604881017457763
21150785 3 17561078095161360908
21267235 1 18131066005653944681
21623969 137 17822006532301476894
21682296 61 18259980500450769575
220451 1 17632581590841480097
22061861 79 18261112989053605156
2297311 6 18272088305717104069
2303208 19 18409163311959919848
23035841 295 18344147003276439761
23081809 10 14851613150214628392
23198884 109 16415478259531462179
23522609 53 18120903244621202640
23559900 14 18412834568495633881
239999 70 18411984646529063424
25122255 55 18409157814180546783
300161 21 11743836954605732008
3004659 81 18202565073143582248
335352 9 18202571679573423765
34797466 226 18131065996426278396
4073 2 18272928315162133402
4214541 1 18342741827685602405
46194498 28 18413390934950019084
465052 167 18040150743454066390
5104073 3 17968098663732576128
542803 24 15338836490830268196
5718773 13 18263084306635427183
8863177 126 18334576789691571970

> <PUBCHEM_SHAPE_MULTIPOLES>
389
20.12
1.84
0.84
12.24
0.31
0.06
8.78
2.01
-0.65
0.03
0.09
0
2.11

> <PUBCHEM_SHAPE_SELFOVERLAP>
835.259

> <PUBCHEM_SHAPE_VOLUME>
216.4

> <PUBCHEM_COORDINATE_TYPE>
2
5
10

$$$$

