6674
  -OEChem-06261201262D

 63 66  0     1  0  0  0  0  0999 V2000
    6.5271    1.2008    0.0000 O   0  0  0  0  0  0  0  0  0  0  0  0
    7.4149   -3.3307    0.0000 O   0  0  0  0  0  0  0  0  0  0  0  0
    2.0000   -3.3515    0.0000 O   0  0  0  0  0  0  0  0  0  0  0  0
   11.2283    3.2695    0.0000 O   0  0  0  0  0  0  0  0  0  0  0  0
   11.5855    1.5747    0.0000 O   0  0  0  0  0  0  0  0  0  0  0  0
    7.3931   -1.2992    0.0000 C   0  0  2  0  0  0  0  0  0  0  0  0
    7.3931   -0.2992    0.0000 C   0  0  1  0  0  0  0  0  0  0  0  0
    6.5271   -1.7992    0.0000 C   0  0  1  0  0  0  0  0  0  0  0  0
    5.6610   -1.2992    0.0000 C   0  0  1  0  0  0  0  0  0  0  0  0
    4.7510   -1.8060    0.0000 C   0  0  2  0  0  0  0  0  0  0  0  0
    8.3393    0.0055    0.0000 C   0  0  2  0  0  0  0  0  0  0  0  0
    8.3393   -1.6039    0.0000 C   0  0  0  0  0  0  0  0  0  0  0  0
    4.7430   -2.8476    0.0000 C   0  0  2  0  0  0  0  0  0  0  0  0
    5.6610   -0.2992    0.0000 C   0  0  0  0  0  0  0  0  0  0  0  0
    8.9229   -0.7992    0.0000 C   0  0  0  0  0  0  0  0  0  0  0  0
    6.5271    0.2008    0.0000 C   0  0  0  0  0  0  0  0  0  0  0  0
    6.5431   -2.8407    0.0000 C   0  0  0  0  0  0  0  0  0  0  0  0
    5.6451   -3.3685    0.0000 C   0  0  0  0  0  0  0  0  0  0  0  0
    3.8242   -1.2420    0.0000 C   0  0  0  0  0  0  0  0  0  0  0  0
    8.6500    0.9560    0.0000 C   0  0  1  0  0  0  0  0  0  0  0  0
    7.3931    0.7008    0.0000 C   0  0  0  0  0  0  0  0  0  0  0  0
    4.7587   -0.8061    0.0000 C   0  0  0  0  0  0  0  0  0  0  0  0
    3.8076   -3.3974    0.0000 C   0  0  0  0  0  0  0  0  0  0  0  0
    2.8763   -1.7699    0.0000 C   0  0  0  0  0  0  0  0  0  0  0  0
    2.8680   -2.8549    0.0000 C   0  0  0  0  0  0  0  0  0  0  0  0
    9.6285    1.1623    0.0000 C   0  0  0  0  0  0  0  0  0  0  0  0
    7.9821    1.7004    0.0000 C   0  0  0  0  0  0  0  0  0  0  0  0
    9.9391    2.1128    0.0000 C   0  0  0  0  0  0  0  0  0  0  0  0
   10.9176    2.3190    0.0000 C   0  0  0  0  0  0  0  0  0  0  0  0
    7.4830   -2.1444    0.0000 H   0  0  0  0  0  0  0  0  0  0  0  0
    7.2664   -2.2185    0.0000 H   0  0  0  0  0  0  0  0  0  0  0  0
    6.3972   -0.8742    0.0000 H   0  0  0  0  0  0  0  0  0  0  0  0
    9.1790    0.1374    0.0000 H   0  0  0  0  0  0  0  0  0  0  0  0
    8.0883   -2.1708    0.0000 H   0  0  0  0  0  0  0  0  0  0  0  0
    8.8767   -1.9132    0.0000 H   0  0  0  0  0  0  0  0  0  0  0  0
    4.7463   -3.6976    0.0000 H   0  0  0  0  0  0  0  0  0  0  0  0
    5.4490    0.2834    0.0000 H   0  0  0  0  0  0  0  0  0  0  0  0
    5.0504   -0.4069    0.0000 H   0  0  0  0  0  0  0  0  0  0  0  0
    9.3838   -1.2139    0.0000 H   0  0  0  0  0  0  0  0  0  0  0  0
    9.3838   -0.3845    0.0000 H   0  0  0  0  0  0  0  0  0  0  0  0
    5.2478   -3.8444    0.0000 H   0  0  0  0  0  0  0  0  0  0  0  0
    6.0460   -3.8414    0.0000 H   0  0  0  0  0  0  0  0  0  0  0  0
    4.2324   -0.7753    0.0000 H   0  0  0  0  0  0  0  0  0  0  0  0
    3.4343   -0.7599    0.0000 H   0  0  0  0  0  0  0  0  0  0  0  0
    8.0433    0.8282    0.0000 H   0  0  0  0  0  0  0  0  0  0  0  0
    8.0131    0.7008    0.0000 H   0  0  0  0  0  0  0  0  0  0  0  0
    7.3931    1.3208    0.0000 H   0  0  0  0  0  0  0  0  0  0  0  0
    6.7731    0.7008    0.0000 H   0  0  0  0  0  0  0  0  0  0  0  0
    5.3787   -0.8109    0.0000 H   0  0  0  0  0  0  0  0  0  0  0  0
    4.7635   -0.1861    0.0000 H   0  0  0  0  0  0  0  0  0  0  0  0
    4.1388   -0.8013    0.0000 H   0  0  0  0  0  0  0  0  0  0  0  0
    3.4103   -3.8734    0.0000 H   0  0  0  0  0  0  0  0  0  0  0  0
    4.2085   -3.8703    0.0000 H   0  0  0  0  0  0  0  0  0  0  0  0
    2.6718   -1.1846    0.0000 H   0  0  0  0  0  0  0  0  0  0  0  0
    2.2647   -1.8713    0.0000 H   0  0  0  0  0  0  0  0  0  0  0  0
    9.6490    0.5426    0.0000 H   0  0  0  0  0  0  0  0  0  0  0  0
   10.2423    1.0749    0.0000 H   0  0  0  0  0  0  0  0  0  0  0  0
    8.4436    2.1144    0.0000 H   0  0  0  0  0  0  0  0  0  0  0  0
    7.5681    2.1618    0.0000 H   0  0  0  0  0  0  0  0  0  0  0  0
    7.5207    1.2863    0.0000 H   0  0  0  0  0  0  0  0  0  0  0  0
    9.9186    2.7324    0.0000 H   0  0  0  0  0  0  0  0  0  0  0  0
    9.3253    2.2001    0.0000 H   0  0  0  0  0  0  0  0  0  0  0  0
   11.8350    3.3974    0.0000 H   0  0  0  0  0  0  0  0  0  0  0  0
  1 16  2  0  0  0  0
  2 17  2  0  0  0  0
  3 25  2  0  0  0  0
  4 29  1  0  0  0  0
  4 63  1  0  0  0  0
  5 29  2  0  0  0  0
  6  7  1  0  0  0  0
  6  8  1  0  0  0  0
  6 12  1  0  0  0  0
  6 30  1  6  0  0  0
  7 11  1  0  0  0  0
  7 16  1  0  0  0  0
  7 21  1  1  0  0  0
  8  9  1  0  0  0  0
  8 17  1  0  0  0  0
  8 31  1  1  0  0  0
  9 10  1  0  0  0  0
  9 14  1  0  0  0  0
  9 32  1  6  0  0  0
 10 13  1  0  0  0  0
 10 19  1  0  0  0  0
 10 22  1  1  0  0  0
 11 15  1  0  0  0  0
 11 20  1  0  0  0  0
 11 33  1  6  0  0  0
 12 15  1  0  0  0  0
 12 34  1  0  0  0  0
 12 35  1  0  0  0  0
 13 18  1  0  0  0  0
 13 23  1  0  0  0  0
 13 36  1  1  0  0  0
 14 16  1  0  0  0  0
 14 37  1  0  0  0  0
 14 38  1  0  0  0  0
 15 39  1  0  0  0  0
 15 40  1  0  0  0  0
 17 18  1  0  0  0  0
 18 41  1  0  0  0  0
 18 42  1  0  0  0  0
 19 24  1  0  0  0  0
 19 43  1  0  0  0  0
 19 44  1  0  0  0  0
 20 26  1  0  0  0  0
 20 27  1  6  0  0  0
 20 45  1  0  0  0  0
 21 46  1  0  0  0  0
 21 47  1  0  0  0  0
 21 48  1  0  0  0  0
 22 49  1  0  0  0  0
 22 50  1  0  0  0  0
 22 51  1  0  0  0  0
 23 25  1  0  0  0  0
 23 52  1  0  0  0  0
 23 53  1  0  0  0  0
 24 25  1  0  0  0  0
 24 54  1  0  0  0  0
 24 55  1  0  0  0  0
 26 28  1  0  0  0  0
 26 56  1  0  0  0  0
 26 57  1  0  0  0  0
 27 58  1  0  0  0  0
 27 59  1  0  0  0  0
 27 60  1  0  0  0  0
 28 29  1  0  0  0  0
 28 61  1  0  0  0  0
 28 62  1  0  0  0  0
M  END
> <PUBCHEM_COMPOUND_CID>
6674

> <PUBCHEM_COMPOUND_CANONICALIZED>
1

> <PUBCHEM_CACTVS_COMPLEXITY>
756

> <PUBCHEM_CACTVS_HBOND_ACCEPTOR>
5

> <PUBCHEM_CACTVS_HBOND_DONOR>
1

> <PUBCHEM_CACTVS_ROTATABLE_BOND>
4

> <PUBCHEM_CACTVS_SUBSKEYS>
AAADcfB4OAAAAAAAAAAAAAAAAAAAAYAAAAAwYMAAAAAAAGDAAAAAGgAACAAADwSAgAACCAAAAgAIAICQCAAAAAAAAAAAAAEAAAAAABIAAAAAQAAEAAAAAAGIyvCvgAAAAAAAAACAAAQAACAAAQAACAAAAA==

> <PUBCHEM_IUPAC_OPENEYE_NAME>
(4R)-4-[(5S,8R,9S,10S,13R,14S,17R)-10,13-dimethyl-3,7,12-trioxo-1,2,4,5,6,8,9,11,14,15,16,17-dodecahydrocyclopenta[a]phenanthren-17-yl]pentanoic acid

> <PUBCHEM_IUPAC_CAS_NAME>
(4R)-4-[(5S,8R,9S,10S,13R,14S,17R)-10,13-dimethyl-3,7,12-trioxo-1,2,4,5,6,8,9,11,14,15,16,17-dodecahydrocyclopenta[a]phenanthren-17-yl]pentanoic acid

> <PUBCHEM_IUPAC_NAME>
(4R)-4-[(5S,8R,9S,10S,13R,14S,17R)-10,13-dimethyl-3,7,12-trioxo-1,2,4,5,6,8,9,11,14,15,16,17-dodecahydrocyclopenta[a]phenanthren-17-yl]pentanoic acid

> <PUBCHEM_IUPAC_SYSTEMATIC_NAME>
(4R)-4-[(5S,8R,9S,10S,13R,14S,17R)-10,13-dimethyl-3,7,12-tris(oxidanylidene)-1,2,4,5,6,8,9,11,14,15,16,17-dodecahydrocyclopenta[a]phenanthren-17-yl]pentanoic acid

> <PUBCHEM_IUPAC_TRADITIONAL_NAME>
(4R)-4-[(5S,8R,9S,10S,13R,14S,17R)-3,7,12-triketo-10,13-dimethyl-1,2,4,5,6,8,9,11,14,15,16,17-dodecahydrocyclopenta[a]phenanthren-17-yl]valeric acid

> <PUBCHEM_IUPAC_INCHI>
InChI=1S/C24H34O5/c1-13(4-7-21(28)29)16-5-6-17-22-18(12-20(27)24(16,17)3)23(2)9-8-15(25)10-14(23)11-19(22)26/h13-14,16-18,22H,4-12H2,1-3H3,(H,28,29)/t13-,14+,16-,17+,18+,22+,23+,24-/m1/s1

> <PUBCHEM_IUPAC_INCHIKEY>
OHXPGWPVLFPUSM-KLRNGDHRSA-N

> <PUBCHEM_XLOGP3_AA>
2.6

> <PUBCHEM_EXACT_MASS>
402.240624

> <PUBCHEM_MOLECULAR_FORMULA>
C24H34O5

> <PUBCHEM_MOLECULAR_WEIGHT>
402.52376

> <PUBCHEM_OPENEYE_CAN_SMILES>
CC(CCC(=O)O)C1CCC2C1(C(=O)CC3C2C(=O)CC4C3(CCC(=O)C4)C)C

> <PUBCHEM_OPENEYE_ISO_SMILES>
C[C@H](CCC(=O)O)[C@H]1CC[C@@H]2[C@@]1(C(=O)C[C@H]3[C@H]2C(=O)C[C@H]4[C@@]3(CCC(=O)C4)C)C

> <PUBCHEM_CACTVS_TPSA>
88.5

> <PUBCHEM_MONOISOTOPIC_WEIGHT>
402.240624

> <PUBCHEM_TOTAL_CHARGE>
0

> <PUBCHEM_HEAVY_ATOM_COUNT>
29

> <PUBCHEM_ATOM_DEF_STEREO_COUNT>
8

> <PUBCHEM_ATOM_UDEF_STEREO_COUNT>
0

> <PUBCHEM_BOND_DEF_STEREO_COUNT>
0

> <PUBCHEM_BOND_UDEF_STEREO_COUNT>
0

> <PUBCHEM_ISOTOPIC_ATOM_COUNT>
0

> <PUBCHEM_COMPONENT_COUNT>
1

> <PUBCHEM_CACTVS_TAUTO_COUNT>
18

> <PUBCHEM_COORDINATE_TYPE>
1
5
255

> <PUBCHEM_BONDANNOTATIONS>
10  22  5
11  33  6
13  36  5
20  27  6
6  30  6
7  21  5
8  31  5
9  32  6

$$$$

