442686
  -OEChem-07051212592D

 86 93  0     1  0  0  0  0  0999 V2000
    6.9006    1.1866    0.0000 O   0  0  0  0  0  0  0  0  0  0  0  0
    8.2416   -2.3764    0.0000 O   0  0  0  0  0  0  0  0  0  0  0  0
    5.1304   -0.8722    0.0000 O   0  0  0  0  0  0  0  0  0  0  0  0
   10.4366    1.1588    0.0000 O   0  0  0  0  0  0  0  0  0  0  0  0
    9.0026   -1.7877    0.0000 O   0  0  0  0  0  0  0  0  0  0  0  0
    9.2301   -4.9052    0.0000 O   0  0  0  0  0  0  0  0  0  0  0  0
    4.6431   -1.6802    0.0000 O   0  0  0  0  0  0  0  0  0  0  0  0
    5.5760   -4.6570    0.0000 O   0  0  0  0  0  0  0  0  0  0  0  0
   11.3125    2.6970    0.0000 O   0  0  0  0  0  0  0  0  0  0  0  0
    4.2740    3.6794    0.0000 O   0  0  0  0  0  0  0  0  0  0  0  0
    2.5381    2.6861    0.0000 O   0  0  0  0  0  0  0  0  0  0  0  0
    6.8778    5.1732    0.0000 O   0  0  0  0  0  0  0  0  0  0  0  0
   11.5454   -0.8939    0.0000 O   0  0  0  0  0  0  0  0  0  0  0  0
    5.1575    4.1533    0.0000 O   0  0  0  0  0  0  0  0  0  0  0  0
   12.8544   -2.4060    0.0000 O   0  0  0  0  0  0  0  0  0  0  0  0
    6.9006   -0.8827    0.0000 C   0  0  2  0  0  0  0  0  0  0  0  0
    5.9945   -0.3689    0.0000 C   0  0  2  0  0  0  0  0  0  0  0  0
    7.7945   -0.3481    0.0000 C   0  0  0  0  0  0  0  0  0  0  0  0
    5.9945    0.6728    0.0000 C   0  0  1  0  0  0  0  0  0  0  0  0
    6.5694   -1.8263    0.0000 C   0  0  0  0  0  0  0  0  0  0  0  0
    7.7945    0.6519    0.0000 C   0  0  0  0  0  0  0  0  0  0  0  0
    8.6605    1.1520    0.0000 C   0  0  0  0  0  0  0  0  0  0  0  0
    7.2210   -2.5849    0.0000 C   0  0  0  0  0  0  0  0  0  0  0  0
    8.6445    2.1935    0.0000 C   0  0  2  0  0  0  0  0  0  0  0  0
    6.8899   -3.5284    0.0000 C   0  0  0  0  0  0  0  0  0  0  0  0
    8.6605   -0.8481    0.0000 C   0  0  0  0  0  0  0  0  0  0  0  0
    7.5564   -4.3290    0.0000 C   0  0  0  0  0  0  0  0  0  0  0  0
    8.5815   -4.1441    0.0000 C   0  0  1  0  0  0  0  0  0  0  0  0
    8.9264   -3.1613    0.0000 C   0  0  1  0  0  0  0  0  0  0  0  0
    5.1304    1.1761    0.0000 C   0  0  0  0  0  0  0  0  0  0  0  0
    9.5266    0.6519    0.0000 C   0  0  0  0  0  0  0  0  0  0  0  0
    5.5867   -2.0114    0.0000 C   0  0  0  0  0  0  0  0  0  0  0  0
    9.5425    2.7212    0.0000 C   0  0  0  0  0  0  0  0  0  0  0  0
    9.5266   -0.3481    0.0000 C   0  0  0  0  0  0  0  0  0  0  0  0
    5.9072   -3.7135    0.0000 C   0  0  0  0  0  0  0  0  0  0  0  0
    7.7727    2.6834    0.0000 C   0  0  0  0  0  0  0  0  0  0  0  0
    5.2556   -2.9549    0.0000 C   0  0  0  0  0  0  0  0  0  0  0  0
    9.9084   -2.9724    0.0000 C   0  0  0  0  0  0  0  0  0  0  0  0
   10.4446    2.2004    0.0000 C   0  0  0  0  0  0  0  0  0  0  0  0
    5.1343    2.1761    0.0000 C   0  0  0  0  0  0  0  0  0  0  0  0
    4.2625    0.6794    0.0000 C   0  0  0  0  0  0  0  0  0  0  0  0
    7.7612    3.6833    0.0000 C   0  0  0  0  0  0  0  0  0  0  0  0
    6.9125    2.1734    0.0000 C   0  0  0  0  0  0  0  0  0  0  0  0
    4.2702    2.6794    0.0000 C   0  0  0  0  0  0  0  0  0  0  0  0
    3.3984    1.1828    0.0000 C   0  0  0  0  0  0  0  0  0  0  0  0
   10.2359   -2.0276    0.0000 C   0  0  0  0  0  0  0  0  0  0  0  0
   10.5629   -3.7285    0.0000 C   0  0  0  0  0  0  0  0  0  0  0  0
    3.4022    2.1828    0.0000 C   0  0  0  0  0  0  0  0  0  0  0  0
    6.8894    4.1733    0.0000 C   0  0  0  0  0  0  0  0  0  0  0  0
    6.0408    2.6634    0.0000 C   0  0  0  0  0  0  0  0  0  0  0  0
   11.2179   -1.8388    0.0000 C   0  0  0  0  0  0  0  0  0  0  0  0
    6.0292    3.6633    0.0000 C   0  0  0  0  0  0  0  0  0  0  0  0
   11.5449   -3.5397    0.0000 C   0  0  0  0  0  0  0  0  0  0  0  0
   11.8724   -2.5948    0.0000 C   0  0  0  0  0  0  0  0  0  0  0  0
    6.1047   -1.1811    0.0000 H   0  0  0  0  0  0  0  0  0  0  0  0
    5.9981   -0.9889    0.0000 H   0  0  0  0  0  0  0  0  0  0  0  0
    5.9981    1.2928    0.0000 H   0  0  0  0  0  0  0  0  0  0  0  0
    8.6385    2.8134    0.0000 H   0  0  0  0  0  0  0  0  0  0  0  0
    7.0190   -4.6383    0.0000 H   0  0  0  0  0  0  0  0  0  0  0  0
    7.7692   -4.9113    0.0000 H   0  0  0  0  0  0  0  0  0  0  0  0
    9.1910   -4.0306    0.0000 H   0  0  0  0  0  0  0  0  0  0  0  0
    9.1283   -2.5751    0.0000 H   0  0  0  0  0  0  0  0  0  0  0  0
    9.9398    3.1972    0.0000 H   0  0  0  0  0  0  0  0  0  0  0  0
    9.1415    3.1941    0.0000 H   0  0  0  0  0  0  0  0  0  0  0  0
   10.0635   -0.6581    0.0000 H   0  0  0  0  0  0  0  0  0  0  0  0
    4.5923   -0.5643    0.0000 H   0  0  0  0  0  0  0  0  0  0  0  0
    4.6463   -3.0697    0.0000 H   0  0  0  0  0  0  0  0  0  0  0  0
    5.6724    2.4840    0.0000 H   0  0  0  0  0  0  0  0  0  0  0  0
    4.2601    0.0594    0.0000 H   0  0  0  0  0  0  0  0  0  0  0  0
    9.6131   -1.8954    0.0000 H   0  0  0  0  0  0  0  0  0  0  0  0
    9.0226   -5.4894    0.0000 H   0  0  0  0  0  0  0  0  0  0  0  0
    8.2945    3.9995    0.0000 H   0  0  0  0  0  0  0  0  0  0  0  0
    6.9197    1.5535    0.0000 H   0  0  0  0  0  0  0  0  0  0  0  0
    4.1728   -2.0842    0.0000 H   0  0  0  0  0  0  0  0  0  0  0  0
    2.8602    0.8748    0.0000 H   0  0  0  0  0  0  0  0  0  0  0  0
    9.8301   -1.5588    0.0000 H   0  0  0  0  0  0  0  0  0  0  0  0
   10.3599   -4.3143    0.0000 H   0  0  0  0  0  0  0  0  0  0  0  0
    4.9668   -4.7718    0.0000 H   0  0  0  0  0  0  0  0  0  0  0  0
    5.5075    2.3472    0.0000 H   0  0  0  0  0  0  0  0  0  0  0  0
   11.9507   -4.0084    0.0000 H   0  0  0  0  0  0  0  0  0  0  0  0
    3.7383    3.9915    0.0000 H   0  0  0  0  0  0  0  0  0  0  0  0
    2.0000    2.3782    0.0000 H   0  0  0  0  0  0  0  0  0  0  0  0
    7.4112    5.4894    0.0000 H   0  0  0  0  0  0  0  0  0  0  0  0
   12.1542   -0.7769    0.0000 H   0  0  0  0  0  0  0  0  0  0  0  0
    5.1503    4.7732    0.0000 H   0  0  0  0  0  0  0  0  0  0  0  0
   13.2602   -2.8748    0.0000 H   0  0  0  0  0  0  0  0  0  0  0  0
  1 19  1  0  0  0  0
  1 21  1  0  0  0  0
  2 23  1  0  0  0  0
  2 29  1  0  0  0  0
 17  3  1  1  0  0  0
  3 66  1  0  0  0  0
  4 31  1  0  0  0  0
  4 39  1  0  0  0  0
  5 26  1  0  0  0  0
  5 70  1  0  0  0  0
 28  6  1  1  0  0  0
  6 71  1  0  0  0  0
  7 32  1  0  0  0  0
  7 74  1  0  0  0  0
  8 35  1  0  0  0  0
  8 78  1  0  0  0  0
  9 39  2  0  0  0  0
 10 44  1  0  0  0  0
 10 81  1  0  0  0  0
 11 48  1  0  0  0  0
 11 82  1  0  0  0  0
 12 49  1  0  0  0  0
 12 83  1  0  0  0  0
 13 51  1  0  0  0  0
 13 84  1  0  0  0  0
 14 52  1  0  0  0  0
 14 85  1  0  0  0  0
 15 54  1  0  0  0  0
 15 86  1  0  0  0  0
 16 17  1  0  0  0  0
 16 18  1  0  0  0  0
 16 20  1  0  0  0  0
 16 55  1  1  0  0  0
 17 19  1  0  0  0  0
 17 56  1  0  0  0  0
 18 21  2  0  0  0  0
 18 26  1  0  0  0  0
 19 30  1  1  0  0  0
 19 57  1  0  0  0  0
 20 23  1  0  0  0  0
 20 32  2  0  0  0  0
 21 22  1  0  0  0  0
 22 24  1  0  0  0  0
 22 31  2  0  0  0  0
 23 25  2  0  0  0  0
 24 33  1  0  0  0  0
 24 36  1  1  0  0  0
 24 58  1  0  0  0  0
 25 27  1  0  0  0  0
 25 35  1  0  0  0  0
 26 34  2  0  0  0  0
 27 28  1  0  0  0  0
 27 59  1  0  0  0  0
 27 60  1  0  0  0  0
 28 29  1  0  0  0  0
 28 61  1  0  0  0  0
 29 38  1  6  0  0  0
 29 62  1  0  0  0  0
 30 40  2  0  0  0  0
 30 41  1  0  0  0  0
 31 34  1  0  0  0  0
 32 37  1  0  0  0  0
 33 39  1  0  0  0  0
 33 63  1  0  0  0  0
 33 64  1  0  0  0  0
 34 65  1  0  0  0  0
 35 37  2  0  0  0  0
 36 42  2  0  0  0  0
 36 43  1  0  0  0  0
 37 67  1  0  0  0  0
 38 46  2  0  0  0  0
 38 47  1  0  0  0  0
 40 44  1  0  0  0  0
 40 68  1  0  0  0  0
 41 45  2  0  0  0  0
 41 69  1  0  0  0  0
 42 49  1  0  0  0  0
 42 72  1  0  0  0  0
 43 50  2  0  0  0  0
 43 73  1  0  0  0  0
 44 48  2  0  0  0  0
 45 48  1  0  0  0  0
 45 75  1  0  0  0  0
 46 51  1  0  0  0  0
 46 76  1  0  0  0  0
 47 53  2  0  0  0  0
 47 77  1  0  0  0  0
 49 52  2  0  0  0  0
 50 52  1  0  0  0  0
 50 79  1  0  0  0  0
 51 54  2  0  0  0  0
 53 54  1  0  0  0  0
 53 80  1  0  0  0  0
M  END
> <PUBCHEM_COMPOUND_CID>
442686

> <PUBCHEM_COMPOUND_CANONICALIZED>
1

> <PUBCHEM_CACTVS_COMPLEXITY>
1320

> <PUBCHEM_CACTVS_HBOND_ACCEPTOR>
15

> <PUBCHEM_CACTVS_HBOND_DONOR>
11

> <PUBCHEM_CACTVS_ROTATABLE_BOND>
4

> <PUBCHEM_CACTVS_SUBSKEYS>
AAADcfB8PAAAAAAAAAAAAAAAAAAAAAAAAAA0aNGDAAAAAACRVAAAGgAACAAADRSgmAIwDoAABgCIAiDSCAACCAAgIAAIiAEGiIgNNzKGMRqCeiGlwBULuAfI7PzOoAADCAAIQABAAAYQABCAAAAAAAAAAA==

> <PUBCHEM_IUPAC_OPENEYE_NAME>
(2R,3R,4S,10R)-2,10-bis(3,4-dihydroxyphenyl)-4-[(2R,3S)-2-(3,4-dihydroxyphenyl)-3,5,7-trihydroxy-chroman-8-yl]-3,5-dihydroxy-3,4,9,10-tetrahydro-2H-pyrano[2,3-h]chromen-8-one

> <PUBCHEM_IUPAC_CAS_NAME>
(2R,3R,4S,10R)-2,10-bis(3,4-dihydroxyphenyl)-4-[(2R,3S)-2-(3,4-dihydroxyphenyl)-3,5,7-trihydroxy-3,4-dihydro-2H-1-benzopyran-8-yl]-3,5-dihydroxy-3,4,9,10-tetrahydro-2H-pyrano[2,3-h][1]benzopyran-8-one

> <PUBCHEM_IUPAC_NAME>
(2R,3R,4S,10R)-2,10-bis(3,4-dihydroxyphenyl)-4-[(2R,3S)-2-(3,4-dihydroxyphenyl)-3,5,7-trihydroxy-3,4-dihydro-2H-chromen-8-yl]-3,5-dihydroxy-3,4,9,10-tetrahydro-2H-pyrano[2,3-h]chromen-8-one

> <PUBCHEM_IUPAC_SYSTEMATIC_NAME>
(2R,3R,4S,10R)-2,10-bis[3,4-bis(oxidanyl)phenyl]-4-[(2R,3S)-2-[3,4-bis(oxidanyl)phenyl]-3,5,7-tris(oxidanyl)-3,4-dihydro-2H-chromen-8-yl]-3,5-bis(oxidanyl)-3,4,9,10-tetrahydro-2H-pyrano[2,3-h]chromen-8-one

> <PUBCHEM_IUPAC_TRADITIONAL_NAME>
(2R,3R,4S,10R)-2,10-bis(3,4-dihydroxyphenyl)-4-[(2R,3S)-2-(3,4-dihydroxyphenyl)-3,5,7-trihydroxy-chroman-8-yl]-3,5-dihydroxy-3,4,9,10-tetrahydro-2H-pyrano[2,3-h]chromen-8-one

> <PUBCHEM_IUPAC_INCHI>
InChI=1S/C39H32O15/c40-19-4-1-14(7-23(19)44)17-11-30(50)52-29-13-27(48)33-34(35(51)37(54-39(33)31(17)29)16-3-6-21(42)25(46)9-16)32-26(47)12-22(43)18-10-28(49)36(53-38(18)32)15-2-5-20(41)24(45)8-15/h1-9,12-13,17,28,34-37,40-49,51H,10-11H2/t17-,28+,34+,35-,36-,37-/m1/s1

> <PUBCHEM_IUPAC_INCHIKEY>
NWZBNZUABGSPSN-ZBBQFUFDSA-N

> <PUBCHEM_XLOGP3_AA>
3.2

> <PUBCHEM_EXACT_MASS>
740.17412

> <PUBCHEM_MOLECULAR_FORMULA>
C39H32O15

> <PUBCHEM_MOLECULAR_WEIGHT>
740.66238

> <PUBCHEM_OPENEYE_CAN_SMILES>
C1C(C(OC2=C1C(=CC(=C2C3C(C(OC4=C5C(CC(=O)OC5=CC(=C34)O)C6=CC(=C(C=C6)O)O)C7=CC(=C(C=C7)O)O)O)O)O)C8=CC(=C(C=C8)O)O)O

> <PUBCHEM_OPENEYE_ISO_SMILES>
C1[C@@H]([C@H](OC2=C1C(=CC(=C2[C@@H]3[C@H]([C@H](OC4=C5[C@H](CC(=O)OC5=CC(=C34)O)C6=CC(=C(C=C6)O)O)C7=CC(=C(C=C7)O)O)O)O)O)C8=CC(=C(C=C8)O)O)O

> <PUBCHEM_CACTVS_TPSA>
267

> <PUBCHEM_MONOISOTOPIC_WEIGHT>
740.17412

> <PUBCHEM_TOTAL_CHARGE>
0

> <PUBCHEM_HEAVY_ATOM_COUNT>
54

> <PUBCHEM_ATOM_DEF_STEREO_COUNT>
6

> <PUBCHEM_ATOM_UDEF_STEREO_COUNT>
0

> <PUBCHEM_BOND_DEF_STEREO_COUNT>
0

> <PUBCHEM_BOND_UDEF_STEREO_COUNT>
0

> <PUBCHEM_ISOTOPIC_ATOM_COUNT>
0

> <PUBCHEM_COMPONENT_COUNT>
1

> <PUBCHEM_CACTVS_TAUTO_COUNT>
970

> <PUBCHEM_COORDINATE_TYPE>
1
5
255

> <PUBCHEM_BONDANNOTATIONS>
16  55  5
18  21  8
18  26  8
19  30  5
20  23  8
20  32  8
21  22  8
22  31  8
23  25  8
24  36  5
25  35  8
26  34  8
29  38  6
17  3  5
30  40  8
30  41  8
31  34  8
32  37  8
35  37  8
36  42  8
36  43  8
38  46  8
38  47  8
40  44  8
41  45  8
42  49  8
43  50  8
44  48  8
45  48  8
46  51  8
47  53  8
49  52  8
50  52  8
51  54  8
53  54  8
28  6  5

$$$$

