93341
  -OEChem-07051213123D

 24 25  0     0  0  0  0  0  0999 V2000
    3.1958    2.6961   -0.2905 Cl  0  0  0  0  0  0  0  0  0  0  0  0
    3.1239   -2.7248    0.2878 Cl  0  0  0  0  0  0  0  0  0  0  0  0
   -5.2125    0.0456    0.0355 O   0  0  0  0  0  0  0  0  0  0  0  0
   -1.8519    1.0995    0.4654 N   0  0  0  0  0  0  0  0  0  0  0  0
   -3.2065    1.0811    0.4609 N   0  0  0  0  0  0  0  0  0  0  0  0
    0.2441    0.0258    0.0103 C   0  0  0  0  0  0  0  0  0  0  0  0
    3.0337   -0.0125    0.0012 C   0  0  0  0  0  0  0  0  0  0  0  0
   -1.2425    0.0472    0.0167 C   0  0  0  0  0  0  0  0  0  0  0  0
    0.9574    1.2175   -0.1202 C   0  0  0  0  0  0  0  0  0  0  0  0
    0.9256   -1.1850    0.1364 C   0  0  0  0  0  0  0  0  0  0  0  0
    2.3523    1.1981   -0.1251 C   0  0  0  0  0  0  0  0  0  0  0  0
    2.3204   -1.2040    0.1319 C   0  0  0  0  0  0  0  0  0  0  0  0
    4.5321   -0.0327   -0.0058 C   0  0  0  0  0  0  0  0  0  0  0  0
   -1.9280   -1.1514   -0.5170 C   0  0  0  0  0  0  0  0  0  0  0  0
   -3.2601   -1.1380   -0.5057 C   0  0  0  0  0  0  0  0  0  0  0  0
   -3.9837    0.0373    0.0183 C   0  0  0  0  0  0  0  0  0  0  0  0
    0.4329    2.1645   -0.2266 H   0  0  0  0  0  0  0  0  0  0  0  0
    0.3947   -2.1226    0.2759 H   0  0  0  0  0  0  0  0  0  0  0  0
    4.9469   -0.8433    0.6007 H   0  0  0  0  0  0  0  0  0  0  0  0
    4.8997   -0.1395   -1.0316 H   0  0  0  0  0  0  0  0  0  0  0  0
    4.9675    0.8716    0.4303 H   0  0  0  0  0  0  0  0  0  0  0  0
   -1.3922   -1.9907   -0.9383 H   0  0  0  0  0  0  0  0  0  0  0  0
   -3.8387   -1.9692   -0.8909 H   0  0  0  0  0  0  0  0  0  0  0  0
   -3.6391    1.9228    0.8278 H   0  0  0  0  0  0  0  0  0  0  0  0
  1 11  1  0  0  0  0
  2 12  1  0  0  0  0
  3 16  2  0  0  0  0
  4  5  1  0  0  0  0
  4  8  2  0  0  0  0
  5 16  1  0  0  0  0
  5 24  1  0  0  0  0
  6  8  1  0  0  0  0
  6  9  2  0  0  0  0
  6 10  1  0  0  0  0
  7 11  2  0  0  0  0
  7 12  1  0  0  0  0
  7 13  1  0  0  0  0
  8 14  1  0  0  0  0
  9 11  1  0  0  0  0
  9 17  1  0  0  0  0
 10 12  2  0  0  0  0
 10 18  1  0  0  0  0
 13 19  1  0  0  0  0
 13 20  1  0  0  0  0
 13 21  1  0  0  0  0
 14 15  2  0  0  0  0
 14 22  1  0  0  0  0
 15 16  1  0  0  0  0
 15 23  1  0  0  0  0
M  END
> <PUBCHEM_COMPOUND_CID>
93341

> <PUBCHEM_CONFORMER_RMSD>
0.6

> <PUBCHEM_CONFORMER_DIVERSEORDER>
1

> <PUBCHEM_MMFF94_PARTIAL_CHARGES>
21
1 -0.18
10 -0.15
11 0.18
12 0.18
13 0.14
14 -0.14
15 -0.14
16 0.62
17 0.15
18 0.15
2 -0.18
22 0.15
23 0.15
24 0.37
3 -0.57
4 -0.51
5 -0.37
6 0.09
7 -0.14
8 0.35
9 -0.15

> <PUBCHEM_EFFECTIVE_ROTOR_COUNT>
1

> <PUBCHEM_PHARMACOPHORE_FEATURES>
5
1 3 acceptor
1 4 acceptor
1 5 donor
6 4 5 8 14 15 16 rings
6 6 7 9 10 11 12 rings

> <PUBCHEM_HEAVY_ATOM_COUNT>
16

> <PUBCHEM_ATOM_DEF_STEREO_COUNT>
0

> <PUBCHEM_ATOM_UDEF_STEREO_COUNT>
0

> <PUBCHEM_BOND_DEF_STEREO_COUNT>
0

> <PUBCHEM_BOND_UDEF_STEREO_COUNT>
0

> <PUBCHEM_ISOTOPIC_ATOM_COUNT>
0

> <PUBCHEM_COMPONENT_COUNT>
1

> <PUBCHEM_CACTVS_TAUTO_COUNT>
2

> <PUBCHEM_CONFORMER_ID>
00016C9D00000001

> <PUBCHEM_MMFF94_ENERGY>
51.0949

> <PUBCHEM_FEATURE_SELFOVERLAP>
25.371

> <PUBCHEM_SHAPE_FINGERPRINT>
10608611 8 18341898489097262389
10616163 171 18261956241331844431
10967382 1 18411138030643390242
11471102 20 18413108359896573580
12107183 9 17831857224304068097
12236239 1 18113617889064162115
12251169 10 18408605872233255054
12553582 1 18052828232339237890
13140716 1 18269562628944985338
13760787 19 18261672563020326551
13760787 5 18335141986503258661
14144814 61 18408323315083093323
14251717 144 18412826893404510254
14415576 193 18411416172672887836
14576447 43 18335711498317947527
15196674 1 18337954472147457799
15342168 16 17843961434092296140
15442244 35 18265050421617675432
15536298 74 18334294236804482068
15669948 3 17749676177706721639
16945 1 18413671314340153902
17834072 33 18336830793087061943
18186145 218 17918000446793370271
18522853 276 18333452044866967088
19050596 39 18408887304339368531
19422 9 18335138704605237163
200 152 18260553311965444471
20279233 1 16486970713098355971
20281475 54 18334585628876691951
20559304 39 18408324406236830144
20645477 70 18411139151345381887
21267235 1 18408594864364126031
21501502 16 18335139786836528647
221490 88 18341604885117142130
2255824 54 18412824690292126182
22854114 111 18411699846588483788
23402539 116 17821454573317019797
23402655 69 18410294735194880709
23463225 33 18335984250215774463
23557571 272 16443337719479158272
23559900 14 18335707160622388066
2748010 2 17982718681174149402
3071541 37 18271801294722351012
3545911 37 18410011026618664231
474 4 18200310992417731556
5104073 3 18338234860608239211
633830 44 18336826364870187620
7364860 26 18408604764674972550
77779 3 18411135827493965975
8272917 22 18410007754012158774
84936 182 18116715119242472368
9709674 26 18410851049324083399
9981440 41 17763469418044338744
9999458 23 18343581807561434084

> <PUBCHEM_SHAPE_MULTIPOLES>
317.18
8.73
2.31
0.68
6.33
0.09
-0.02
-0.21
0
-2.9
0
0.06
0.02
-0.68

> <PUBCHEM_SHAPE_SELFOVERLAP>
665.439

> <PUBCHEM_SHAPE_VOLUME>
181.3

> <PUBCHEM_COORDINATE_TYPE>
2
5
10

$$$$

