6240
  -OEChem-07051212542D

 42 43  0     0  0  0  0  0  0999 V2000
    6.7319    2.6788    0.0000 Cl  0  0  0  0  0  0  0  0  0  0  0  0
    2.8660    9.3108    0.0000 Cl  0  0  0  0  0  0  0  0  0  0  0  0
    3.2018    0.6546    0.0000 S   0  0  0  0  0  0  0  0  0  0  0  0
    3.2018    2.6546    0.0000 N   0  0  0  0  0  0  0  0  0  0  0  0
    1.4697    5.6546    0.0000 N   0  0  0  0  0  0  0  0  0  0  0  0
    3.2018    3.6546    0.0000 C   0  0  0  0  0  0  0  0  0  0  0  0
    2.3358    4.1546    0.0000 C   0  0  0  0  0  0  0  0  0  0  0  0
    4.0678    2.1546    0.0000 C   0  0  0  0  0  0  0  0  0  0  0  0
    2.3358    5.1546    0.0000 C   0  0  0  0  0  0  0  0  0  0  0  0
    2.3358    2.1546    0.0000 C   0  0  0  0  0  0  0  0  0  0  0  0
    4.0678    1.1546    0.0000 C   0  0  0  0  0  0  0  0  0  0  0  0
    2.3358    1.1546    0.0000 C   0  0  0  0  0  0  0  0  0  0  0  0
    4.9617    2.6893    0.0000 C   0  0  0  0  0  0  0  0  0  0  0  0
    1.4418    2.6893    0.0000 C   0  0  0  0  0  0  0  0  0  0  0  0
    4.9617    0.6200    0.0000 C   0  0  0  0  0  0  0  0  0  0  0  0
    1.4418    0.6200    0.0000 C   0  0  0  0  0  0  0  0  0  0  0  0
    1.4697    6.6546    0.0000 C   0  0  0  0  0  0  0  0  0  0  0  0
    0.6037    5.1546    0.0000 C   0  0  0  0  0  0  0  0  0  0  0  0
    5.8678    2.1754    0.0000 C   0  0  0  0  0  0  0  0  0  0  0  0
    0.5357    2.1754    0.0000 C   0  0  0  0  0  0  0  0  0  0  0  0
    5.8678    1.1338    0.0000 C   0  0  0  0  0  0  0  0  0  0  0  0
    0.5357    1.1338    0.0000 C   0  0  0  0  0  0  0  0  0  0  0  0
    3.8124    3.5470    0.0000 H   0  0  0  0  0  0  0  0  0  0  0  0
    3.4138    4.2372    0.0000 H   0  0  0  0  0  0  0  0  0  0  0  0
    1.7252    4.2623    0.0000 H   0  0  0  0  0  0  0  0  0  0  0  0
    2.1237    3.5720    0.0000 H   0  0  0  0  0  0  0  0  0  0  0  0
    2.9463    5.0470    0.0000 H   0  0  0  0  0  0  0  0  0  0  0  0
    2.5478    5.7372    0.0000 H   0  0  0  0  0  0  0  0  0  0  0  0
    4.9546    3.3092    0.0000 H   0  0  0  0  0  0  0  0  0  0  0  0
    1.4490    3.3092    0.0000 H   0  0  0  0  0  0  0  0  0  0  0  0
    4.9546    0.0000    0.0000 H   0  0  0  0  0  0  0  0  0  0  0  0
    1.4490    0.0000    0.0000 H   0  0  0  0  0  0  0  0  0  0  0  0
    0.2937    5.6916    0.0000 H   0  0  0  0  0  0  0  0  0  0  0  0
    2.0897    6.6546    0.0000 H   0  0  0  0  0  0  0  0  0  0  0  0
    1.4697    7.2746    0.0000 H   0  0  0  0  0  0  0  0  0  0  0  0
    0.8497    6.6546    0.0000 H   0  0  0  0  0  0  0  0  0  0  0  0
    0.0668    4.8446    0.0000 H   0  0  0  0  0  0  0  0  0  0  0  0
    0.9137    4.6177    0.0000 H   0  0  0  0  0  0  0  0  0  0  0  0
    0.0000    2.4875    0.0000 H   0  0  0  0  0  0  0  0  0  0  0  0
    6.4035    0.8217    0.0000 H   0  0  0  0  0  0  0  0  0  0  0  0
    0.0000    0.8217    0.0000 H   0  0  0  0  0  0  0  0  0  0  0  0
    3.8660    9.3108    0.0000 H   0  0  0  0  0  0  0  0  0  0  0  0
  1 19  1  0  0  0  0
  2 42  1  0  0  0  0
  3 11  1  0  0  0  0
  3 12  1  0  0  0  0
  4  6  1  0  0  0  0
  4  8  1  0  0  0  0
  4 10  1  0  0  0  0
  5  9  1  0  0  0  0
  5 17  1  0  0  0  0
  5 18  1  0  0  0  0
  6  7  1  0  0  0  0
  6 23  1  0  0  0  0
  6 24  1  0  0  0  0
  7  9  1  0  0  0  0
  7 25  1  0  0  0  0
  7 26  1  0  0  0  0
  8 11  2  0  0  0  0
  8 13  1  0  0  0  0
  9 27  1  0  0  0  0
  9 28  1  0  0  0  0
 10 12  1  0  0  0  0
 10 14  2  0  0  0  0
 11 15  1  0  0  0  0
 12 16  2  0  0  0  0
 13 19  2  0  0  0  0
 13 29  1  0  0  0  0
 14 20  1  0  0  0  0
 14 30  1  0  0  0  0
 15 21  2  0  0  0  0
 15 31  1  0  0  0  0
 16 22  1  0  0  0  0
 16 32  1  0  0  0  0
 17 34  1  0  0  0  0
 17 35  1  0  0  0  0
 17 36  1  0  0  0  0
 18 33  1  0  0  0  0
 18 37  1  0  0  0  0
 18 38  1  0  0  0  0
 19 21  1  0  0  0  0
 20 22  2  0  0  0  0
 20 39  1  0  0  0  0
 21 40  1  0  0  0  0
 22 41  1  0  0  0  0
M  END
> <PUBCHEM_COMPOUND_CID>
6240

> <PUBCHEM_COMPOUND_CANONICALIZED>
1

> <PUBCHEM_CACTVS_COMPLEXITY>
339

> <PUBCHEM_CACTVS_HBOND_ACCEPTOR>
3

> <PUBCHEM_CACTVS_HBOND_DONOR>
1

> <PUBCHEM_CACTVS_ROTATABLE_BOND>
4

> <PUBCHEM_CACTVS_SUBSKEYS>
AAADceB7AABGAAAAAAAAAAAAAAAAAAAAAAA8YIAAAAAAAACxQAAAHAYAAAAACArBUCQywYMAAAiAACRCQACCAAAhDxAIiBwIZogIIGLh05GEIAhggADoyAcQAAAAAAIAAAIAAQAABAAABAACAAAAAAAAAA==

> <PUBCHEM_IUPAC_OPENEYE_NAME>
3-(2-chlorophenothiazin-10-yl)-N,N-dimethyl-propan-1-amine hydrochloride

> <PUBCHEM_IUPAC_CAS_NAME>
3-(2-chloro-10-phenothiazinyl)-N,N-dimethyl-1-propanamine hydrochloride

> <PUBCHEM_IUPAC_NAME>
3-(2-chlorophenothiazin-10-yl)-N,N-dimethylpropan-1-amine hydrochloride

> <PUBCHEM_IUPAC_SYSTEMATIC_NAME>
3-(2-chloranylphenothiazin-10-yl)-N,N-dimethyl-propan-1-amine hydrochloride

> <PUBCHEM_IUPAC_TRADITIONAL_NAME>
3-(2-chlorophenothiazin-10-yl)propyl-dimethyl-amine hydrochloride

> <PUBCHEM_IUPAC_INCHI>
InChI=1S/C17H19ClN2S.ClH/c1-19(2)10-5-11-20-14-6-3-4-7-16(14)21-17-9-8-13(18)12-15(17)20;/h3-4,6-9,12H,5,10-11H2,1-2H3;1H

> <PUBCHEM_IUPAC_INCHIKEY>
FBSMERQALIEGJT-UHFFFAOYSA-N

> <PUBCHEM_EXACT_MASS>
354.072425

> <PUBCHEM_MOLECULAR_FORMULA>
C17H20Cl2N2S

> <PUBCHEM_MOLECULAR_WEIGHT>
355.3251

> <PUBCHEM_OPENEYE_CAN_SMILES>
CN(C)CCCN1C2=CC=CC=C2SC3=C1C=C(C=C3)Cl.Cl

> <PUBCHEM_OPENEYE_ISO_SMILES>
CN(C)CCCN1C2=CC=CC=C2SC3=C1C=C(C=C3)Cl.Cl

> <PUBCHEM_CACTVS_TPSA>
31.8

> <PUBCHEM_MONOISOTOPIC_WEIGHT>
354.072425

> <PUBCHEM_TOTAL_CHARGE>
0

> <PUBCHEM_HEAVY_ATOM_COUNT>
22

> <PUBCHEM_ATOM_DEF_STEREO_COUNT>
0

> <PUBCHEM_ATOM_UDEF_STEREO_COUNT>
0

> <PUBCHEM_BOND_DEF_STEREO_COUNT>
0

> <PUBCHEM_BOND_UDEF_STEREO_COUNT>
0

> <PUBCHEM_ISOTOPIC_ATOM_COUNT>
0

> <PUBCHEM_COMPONENT_COUNT>
2

> <PUBCHEM_CACTVS_TAUTO_COUNT>
1

> <PUBCHEM_COORDINATE_TYPE>
1
5
255

> <PUBCHEM_BONDANNOTATIONS>
10  12  8
10  14  8
11  15  8
12  16  8
13  19  8
14  20  8
15  21  8
16  22  8
19  21  8
20  22  8
8  11  8
8  13  8

$$$$

