17396324
  -OEChem-06241222552D

 42 43  0     1  0  0  0  0  0999 V2000
    6.3301    0.5000    0.0000 O   0  0  0  0  0  0  0  0  0  0  0  0
    2.8660   -2.5000    0.0000 O   0  0  0  0  0  0  0  0  0  0  0  0
    6.3301   -1.5000    0.0000 O   0  0  0  0  0  0  0  0  0  0  0  0
    5.4641    2.0000    0.0000 O   0  0  0  0  0  0  0  0  0  0  0  0
    9.7942    3.5000    0.0000 O   0  0  0  0  0  0  0  0  0  0  0  0
    4.5981   -1.5000    0.0000 N   0  0  0  0  0  0  0  0  0  0  0  0
    8.0622    3.5000    0.0000 N   0  0  0  0  0  0  0  0  0  0  0  0
    5.4641    0.0000    0.0000 C   0  0  3  0  0  0  0  0  0  0  0  0
    5.4641   -1.0000    0.0000 C   0  0  0  0  0  0  0  0  0  0  0  0
    4.5981   -2.5000    0.0000 C   0  0  0  0  0  0  0  0  0  0  0  0
    4.5981    0.5000    0.0000 C   0  0  0  0  0  0  0  0  0  0  0  0
    3.7320   -3.0000    0.0000 C   0  0  0  0  0  0  0  0  0  0  0  0
    5.4641   -3.0000    0.0000 C   0  0  0  0  0  0  0  0  0  0  0  0
    3.7320   -4.0000    0.0000 C   0  0  0  0  0  0  0  0  0  0  0  0
    6.3301    1.5000    0.0000 C   0  0  0  0  0  0  0  0  0  0  0  0
    7.1962    2.0000    0.0000 C   0  0  0  0  0  0  0  0  0  0  0  0
    5.4641   -4.0000    0.0000 C   0  0  0  0  0  0  0  0  0  0  0  0
    4.5981   -4.5000    0.0000 C   0  0  0  0  0  0  0  0  0  0  0  0
    8.0622    1.5000    0.0000 C   0  0  0  0  0  0  0  0  0  0  0  0
    7.1962    3.0000    0.0000 C   0  0  0  0  0  0  0  0  0  0  0  0
    8.9282    2.0000    0.0000 C   0  0  0  0  0  0  0  0  0  0  0  0
    8.9282    3.0000    0.0000 C   0  0  0  0  0  0  0  0  0  0  0  0
    2.0000   -3.0000    0.0000 C   0  0  0  0  0  0  0  0  0  0  0  0
    9.7942    4.5000    0.0000 C   0  0  0  0  0  0  0  0  0  0  0  0
    5.4641    0.6200    0.0000 H   0  0  0  0  0  0  0  0  0  0  0  0
    4.0611   -1.1900    0.0000 H   0  0  0  0  0  0  0  0  0  0  0  0
    4.9081    1.0369    0.0000 H   0  0  0  0  0  0  0  0  0  0  0  0
    4.0611    0.8100    0.0000 H   0  0  0  0  0  0  0  0  0  0  0  0
    4.2881   -0.0369    0.0000 H   0  0  0  0  0  0  0  0  0  0  0  0
    6.0010   -2.6900    0.0000 H   0  0  0  0  0  0  0  0  0  0  0  0
    3.1951   -4.3100    0.0000 H   0  0  0  0  0  0  0  0  0  0  0  0
    6.0010   -4.3100    0.0000 H   0  0  0  0  0  0  0  0  0  0  0  0
    4.5981   -5.1200    0.0000 H   0  0  0  0  0  0  0  0  0  0  0  0
    8.0622    0.8800    0.0000 H   0  0  0  0  0  0  0  0  0  0  0  0
    6.6592    3.3100    0.0000 H   0  0  0  0  0  0  0  0  0  0  0  0
    9.4651    1.6900    0.0000 H   0  0  0  0  0  0  0  0  0  0  0  0
    1.6900   -2.4631    0.0000 H   0  0  0  0  0  0  0  0  0  0  0  0
    1.4631   -3.3100    0.0000 H   0  0  0  0  0  0  0  0  0  0  0  0
    2.3100   -3.5369    0.0000 H   0  0  0  0  0  0  0  0  0  0  0  0
   10.4142    4.5000    0.0000 H   0  0  0  0  0  0  0  0  0  0  0  0
    9.7942    5.1200    0.0000 H   0  0  0  0  0  0  0  0  0  0  0  0
    9.1742    4.5000    0.0000 H   0  0  0  0  0  0  0  0  0  0  0  0
  1  8  1  0  0  0  0
  1 15  1  0  0  0  0
  2 12  1  0  0  0  0
  2 23  1  0  0  0  0
  3  9  2  0  0  0  0
  4 15  2  0  0  0  0
  5 22  1  0  0  0  0
  5 24  1  0  0  0  0
  6  9  1  0  0  0  0
  6 10  1  0  0  0  0
  6 26  1  0  0  0  0
  7 20  1  0  0  0  0
  7 22  2  0  0  0  0
  8  9  1  0  0  0  0
  8 11  1  0  0  0  0
  8 25  1  0  0  0  0
 10 12  1  0  0  0  0
 10 13  2  0  0  0  0
 11 27  1  0  0  0  0
 11 28  1  0  0  0  0
 11 29  1  0  0  0  0
 12 14  2  0  0  0  0
 13 17  1  0  0  0  0
 13 30  1  0  0  0  0
 14 18  1  0  0  0  0
 14 31  1  0  0  0  0
 15 16  1  0  0  0  0
 16 19  1  0  0  0  0
 16 20  2  0  0  0  0
 17 18  2  0  0  0  0
 17 32  1  0  0  0  0
 18 33  1  0  0  0  0
 19 21  2  0  0  0  0
 19 34  1  0  0  0  0
 20 35  1  0  0  0  0
 21 22  1  0  0  0  0
 21 36  1  0  0  0  0
 23 37  1  0  0  0  0
 23 38  1  0  0  0  0
 23 39  1  0  0  0  0
 24 40  1  0  0  0  0
 24 41  1  0  0  0  0
 24 42  1  0  0  0  0
M  END
> <PUBCHEM_COMPOUND_CID>
17396324

> <PUBCHEM_COMPOUND_CANONICALIZED>
1

> <PUBCHEM_CACTVS_COMPLEXITY>
431

> <PUBCHEM_CACTVS_HBOND_ACCEPTOR>
6

> <PUBCHEM_CACTVS_HBOND_DONOR>
1

> <PUBCHEM_CACTVS_ROTATABLE_BOND>
7

> <PUBCHEM_CACTVS_SUBSKEYS>
AAADceB7OAAAAAAAAAAAAAAAAAAAAAAAAAA8QAAAAAAAAAABwAAAHgAQAAAADBzhmgY+zpLIFACoAjX3XAKCiCA1IiAI2CF/bNgOJvrEtZ+HMahm1BHY6ceYdQoMAAAAAAAAEAAAAAAAAAAgAAAAAAAAAA==

> <PUBCHEM_IUPAC_OPENEYE_NAME>
[2-(2-methoxyanilino)-1-methyl-2-oxo-ethyl] 6-methoxypyridine-3-carboxylate

> <PUBCHEM_IUPAC_CAS_NAME>
6-methoxy-3-pyridinecarboxylic acid [1-(2-methoxyanilino)-1-oxopropan-2-yl] ester

> <PUBCHEM_IUPAC_NAME>
[1-(2-methoxyanilino)-1-oxopropan-2-yl] 6-methoxypyridine-3-carboxylate

> <PUBCHEM_IUPAC_SYSTEMATIC_NAME>
[1-[(2-methoxyphenyl)amino]-1-oxidanylidene-propan-2-yl] 6-methoxypyridine-3-carboxylate

> <PUBCHEM_IUPAC_TRADITIONAL_NAME>
6-methoxynicotinic acid [2-keto-1-methyl-2-(o-anisidino)ethyl] ester

> <PUBCHEM_IUPAC_INCHI>
InChI=1S/C17H18N2O5/c1-11(16(20)19-13-6-4-5-7-14(13)22-2)24-17(21)12-8-9-15(23-3)18-10-12/h4-11H,1-3H3,(H,19,20)

> <PUBCHEM_IUPAC_INCHIKEY>
GIGFDUNZVSGQQK-UHFFFAOYSA-N

> <PUBCHEM_XLOGP3_AA>
2.3

> <PUBCHEM_EXACT_MASS>
330.121572

> <PUBCHEM_MOLECULAR_FORMULA>
C17H18N2O5

> <PUBCHEM_MOLECULAR_WEIGHT>
330.33522

> <PUBCHEM_OPENEYE_CAN_SMILES>
CC(C(=O)NC1=CC=CC=C1OC)OC(=O)C2=CN=C(C=C2)OC

> <PUBCHEM_OPENEYE_ISO_SMILES>
CC(C(=O)NC1=CC=CC=C1OC)OC(=O)C2=CN=C(C=C2)OC

> <PUBCHEM_CACTVS_TPSA>
86.8

> <PUBCHEM_MONOISOTOPIC_WEIGHT>
330.121572

> <PUBCHEM_TOTAL_CHARGE>
0

> <PUBCHEM_HEAVY_ATOM_COUNT>
24

> <PUBCHEM_ATOM_DEF_STEREO_COUNT>
0

> <PUBCHEM_ATOM_UDEF_STEREO_COUNT>
1

> <PUBCHEM_BOND_DEF_STEREO_COUNT>
0

> <PUBCHEM_BOND_UDEF_STEREO_COUNT>
0

> <PUBCHEM_ISOTOPIC_ATOM_COUNT>
0

> <PUBCHEM_COMPONENT_COUNT>
1

> <PUBCHEM_CACTVS_TAUTO_COUNT>
3

> <PUBCHEM_COORDINATE_TYPE>
1
5
255

> <PUBCHEM_BONDANNOTATIONS>
10  12  8
10  13  8
12  14  8
13  17  8
14  18  8
16  19  8
16  20  8
17  18  8
19  21  8
21  22  8
7  20  8
7  22  8
8  11  3

$$$$

