5491970
  -OEChem-07051213092D

 99 98  0     1  0  0  0  0  0999 V2000
    8.9282    5.8450    0.0000 O   0  0  0  0  0  0  0  0  0  0  0  0
    6.3301    4.3450    0.0000 O   0  0  0  0  0  0  0  0  0  0  0  0
    7.1962    5.8450    0.0000 O   0  0  0  0  0  0  0  0  0  0  0  0
    8.0622    4.3450    0.0000 C   0  0  1  0  0  0  0  0  0  0  0  0
    8.9282    4.8450    0.0000 C   0  0  1  0  0  0  0  0  0  0  0  0
    8.0622    3.3450    0.0000 C   0  0  0  0  0  0  0  0  0  0  0  0
    9.7942    4.3450    0.0000 C   0  0  0  0  0  0  0  0  0  0  0  0
    7.1962    2.8450    0.0000 C   0  0  0  0  0  0  0  0  0  0  0  0
   10.6603    4.8450    0.0000 C   0  0  0  0  0  0  0  0  0  0  0  0
    7.1962    1.8450    0.0000 C   0  0  0  0  0  0  0  0  0  0  0  0
   11.5263    4.3450    0.0000 C   0  0  0  0  0  0  0  0  0  0  0  0
    6.3301    1.3450    0.0000 C   0  0  0  0  0  0  0  0  0  0  0  0
   12.3923    4.8450    0.0000 C   0  0  0  0  0  0  0  0  0  0  0  0
   13.2583    4.3450    0.0000 C   0  0  0  0  0  0  0  0  0  0  0  0
    6.3301    0.3450    0.0000 C   0  0  0  0  0  0  0  0  0  0  0  0
   14.1244    4.8450    0.0000 C   0  0  0  0  0  0  0  0  0  0  0  0
    5.4641   -0.1550    0.0000 C   0  0  0  0  0  0  0  0  0  0  0  0
   14.9904    4.3450    0.0000 C   0  0  0  0  0  0  0  0  0  0  0  0
    5.4641   -1.1550    0.0000 C   0  0  0  0  0  0  0  0  0  0  0  0
    7.1962    4.8450    0.0000 C   0  0  0  0  0  0  0  0  0  0  0  0
   15.8564    4.8450    0.0000 C   0  0  0  0  0  0  0  0  0  0  0  0
    4.5981   -1.6550    0.0000 C   0  0  0  0  0  0  0  0  0  0  0  0
   16.7224    4.3450    0.0000 C   0  0  0  0  0  0  0  0  0  0  0  0
    4.5981   -2.6550    0.0000 C   0  0  0  0  0  0  0  0  0  0  0  0
   17.5885    4.8450    0.0000 C   0  0  0  0  0  0  0  0  0  0  0  0
    3.7320   -3.1550    0.0000 C   0  0  0  0  0  0  0  0  0  0  0  0
   18.4545    4.3450    0.0000 C   0  0  0  0  0  0  0  0  0  0  0  0
    3.7320   -4.1550    0.0000 C   0  0  0  0  0  0  0  0  0  0  0  0
   19.3205    4.8450    0.0000 C   0  0  0  0  0  0  0  0  0  0  0  0
    2.8660   -4.6550    0.0000 C   0  0  0  0  0  0  0  0  0  0  0  0
   20.1865    4.3450    0.0000 C   0  0  0  0  0  0  0  0  0  0  0  0
    2.8660   -5.6550    0.0000 C   0  0  0  0  0  0  0  0  0  0  0  0
   21.0526    4.8450    0.0000 C   0  0  0  0  0  0  0  0  0  0  0  0
    2.0000   -6.1550    0.0000 C   0  0  0  0  0  0  0  0  0  0  0  0
   21.9186    4.3450    0.0000 C   0  0  0  0  0  0  0  0  0  0  0  0
    8.0622    4.9650    0.0000 H   0  0  0  0  0  0  0  0  0  0  0  0
    9.4651    5.1550    0.0000 H   0  0  0  0  0  0  0  0  0  0  0  0
    8.2742    2.7624    0.0000 H   0  0  0  0  0  0  0  0  0  0  0  0
    8.6728    3.4527    0.0000 H   0  0  0  0  0  0  0  0  0  0  0  0
    9.3957    3.8700    0.0000 H   0  0  0  0  0  0  0  0  0  0  0  0
   10.1928    3.8700    0.0000 H   0  0  0  0  0  0  0  0  0  0  0  0
    6.9841    3.4276    0.0000 H   0  0  0  0  0  0  0  0  0  0  0  0
    6.5856    2.7373    0.0000 H   0  0  0  0  0  0  0  0  0  0  0  0
   11.0588    5.3200    0.0000 H   0  0  0  0  0  0  0  0  0  0  0  0
   10.2617    5.3200    0.0000 H   0  0  0  0  0  0  0  0  0  0  0  0
    7.4082    1.2624    0.0000 H   0  0  0  0  0  0  0  0  0  0  0  0
    7.8067    1.9527    0.0000 H   0  0  0  0  0  0  0  0  0  0  0  0
   11.1278    3.8700    0.0000 H   0  0  0  0  0  0  0  0  0  0  0  0
   11.9248    3.8700    0.0000 H   0  0  0  0  0  0  0  0  0  0  0  0
    6.1181    1.9276    0.0000 H   0  0  0  0  0  0  0  0  0  0  0  0
    5.7196    1.2373    0.0000 H   0  0  0  0  0  0  0  0  0  0  0  0
   12.7908    5.3200    0.0000 H   0  0  0  0  0  0  0  0  0  0  0  0
   11.9938    5.3200    0.0000 H   0  0  0  0  0  0  0  0  0  0  0  0
   12.8598    3.8700    0.0000 H   0  0  0  0  0  0  0  0  0  0  0  0
   13.6569    3.8700    0.0000 H   0  0  0  0  0  0  0  0  0  0  0  0
    6.5422   -0.2376    0.0000 H   0  0  0  0  0  0  0  0  0  0  0  0
    6.9407    0.4527    0.0000 H   0  0  0  0  0  0  0  0  0  0  0  0
   14.5229    5.3200    0.0000 H   0  0  0  0  0  0  0  0  0  0  0  0
   13.7258    5.3200    0.0000 H   0  0  0  0  0  0  0  0  0  0  0  0
    5.2520    0.4276    0.0000 H   0  0  0  0  0  0  0  0  0  0  0  0
    4.8535   -0.2627    0.0000 H   0  0  0  0  0  0  0  0  0  0  0  0
   14.5919    3.8700    0.0000 H   0  0  0  0  0  0  0  0  0  0  0  0
   15.3889    3.8700    0.0000 H   0  0  0  0  0  0  0  0  0  0  0  0
    5.6762   -1.7376    0.0000 H   0  0  0  0  0  0  0  0  0  0  0  0
    6.0747   -1.0473    0.0000 H   0  0  0  0  0  0  0  0  0  0  0  0
   16.2549    5.3200    0.0000 H   0  0  0  0  0  0  0  0  0  0  0  0
   15.4579    5.3200    0.0000 H   0  0  0  0  0  0  0  0  0  0  0  0
    4.3860   -1.0724    0.0000 H   0  0  0  0  0  0  0  0  0  0  0  0
    3.9875   -1.7627    0.0000 H   0  0  0  0  0  0  0  0  0  0  0  0
   16.3239    3.8700    0.0000 H   0  0  0  0  0  0  0  0  0  0  0  0
   17.1210    3.8700    0.0000 H   0  0  0  0  0  0  0  0  0  0  0  0
    4.8101   -3.2376    0.0000 H   0  0  0  0  0  0  0  0  0  0  0  0
    5.2087   -2.5473    0.0000 H   0  0  0  0  0  0  0  0  0  0  0  0
   17.9870    5.3200    0.0000 H   0  0  0  0  0  0  0  0  0  0  0  0
   17.1899    5.3200    0.0000 H   0  0  0  0  0  0  0  0  0  0  0  0
    9.4651    6.1550    0.0000 H   0  0  0  0  0  0  0  0  0  0  0  0
    3.5200   -2.5724    0.0000 H   0  0  0  0  0  0  0  0  0  0  0  0
    3.1215   -3.2627    0.0000 H   0  0  0  0  0  0  0  0  0  0  0  0
   18.0560    3.8700    0.0000 H   0  0  0  0  0  0  0  0  0  0  0  0
   18.8530    3.8700    0.0000 H   0  0  0  0  0  0  0  0  0  0  0  0
    3.9441   -4.7376    0.0000 H   0  0  0  0  0  0  0  0  0  0  0  0
    4.3426   -4.0473    0.0000 H   0  0  0  0  0  0  0  0  0  0  0  0
   19.7190    5.3200    0.0000 H   0  0  0  0  0  0  0  0  0  0  0  0
   18.9220    5.3200    0.0000 H   0  0  0  0  0  0  0  0  0  0  0  0
    2.6540   -4.0724    0.0000 H   0  0  0  0  0  0  0  0  0  0  0  0
    2.2554   -4.7627    0.0000 H   0  0  0  0  0  0  0  0  0  0  0  0
   19.7880    3.8700    0.0000 H   0  0  0  0  0  0  0  0  0  0  0  0
   20.5851    3.8700    0.0000 H   0  0  0  0  0  0  0  0  0  0  0  0
    5.7932    4.6550    0.0000 H   0  0  0  0  0  0  0  0  0  0  0  0
    3.0781   -6.2376    0.0000 H   0  0  0  0  0  0  0  0  0  0  0  0
    3.4766   -5.5473    0.0000 H   0  0  0  0  0  0  0  0  0  0  0  0
   21.4511    5.3200    0.0000 H   0  0  0  0  0  0  0  0  0  0  0  0
   20.6540    5.3200    0.0000 H   0  0  0  0  0  0  0  0  0  0  0  0
    1.6900   -5.6181    0.0000 H   0  0  0  0  0  0  0  0  0  0  0  0
    1.4631   -6.4650    0.0000 H   0  0  0  0  0  0  0  0  0  0  0  0
    2.3100   -6.6919    0.0000 H   0  0  0  0  0  0  0  0  0  0  0  0
   21.6086    3.8081    0.0000 H   0  0  0  0  0  0  0  0  0  0  0  0
   22.4555    4.0350    0.0000 H   0  0  0  0  0  0  0  0  0  0  0  0
   22.2286    4.8819    0.0000 H   0  0  0  0  0  0  0  0  0  0  0  0
  5  1  1  6  0  0  0
  1 76  1  0  0  0  0
  2 20  1  0  0  0  0
  2 89  1  0  0  0  0
  3 20  2  0  0  0  0
  4  5  1  0  0  0  0
  4  6  1  6  0  0  0
  4 20  1  0  0  0  0
  4 36  1  0  0  0  0
  5  7  1  0  0  0  0
  5 37  1  0  0  0  0
  6  8  1  0  0  0  0
  6 38  1  0  0  0  0
  6 39  1  0  0  0  0
  7  9  1  0  0  0  0
  7 40  1  0  0  0  0
  7 41  1  0  0  0  0
  8 10  1  0  0  0  0
  8 42  1  0  0  0  0
  8 43  1  0  0  0  0
  9 11  1  0  0  0  0
  9 44  1  0  0  0  0
  9 45  1  0  0  0  0
 10 12  1  0  0  0  0
 10 46  1  0  0  0  0
 10 47  1  0  0  0  0
 11 13  1  0  0  0  0
 11 48  1  0  0  0  0
 11 49  1  0  0  0  0
 12 15  1  0  0  0  0
 12 50  1  0  0  0  0
 12 51  1  0  0  0  0
 13 14  1  0  0  0  0
 13 52  1  0  0  0  0
 13 53  1  0  0  0  0
 14 16  1  0  0  0  0
 14 54  1  0  0  0  0
 14 55  1  0  0  0  0
 15 17  1  0  0  0  0
 15 56  1  0  0  0  0
 15 57  1  0  0  0  0
 16 18  1  0  0  0  0
 16 58  1  0  0  0  0
 16 59  1  0  0  0  0
 17 19  1  0  0  0  0
 17 60  1  0  0  0  0
 17 61  1  0  0  0  0
 18 21  1  0  0  0  0
 18 62  1  0  0  0  0
 18 63  1  0  0  0  0
 19 22  1  0  0  0  0
 19 64  1  0  0  0  0
 19 65  1  0  0  0  0
 21 23  1  0  0  0  0
 21 66  1  0  0  0  0
 21 67  1  0  0  0  0
 22 24  1  0  0  0  0
 22 68  1  0  0  0  0
 22 69  1  0  0  0  0
 23 25  1  0  0  0  0
 23 70  1  0  0  0  0
 23 71  1  0  0  0  0
 24 26  1  0  0  0  0
 24 72  1  0  0  0  0
 24 73  1  0  0  0  0
 25 27  1  0  0  0  0
 25 74  1  0  0  0  0
 25 75  1  0  0  0  0
 26 28  1  0  0  0  0
 26 77  1  0  0  0  0
 26 78  1  0  0  0  0
 27 29  1  0  0  0  0
 27 79  1  0  0  0  0
 27 80  1  0  0  0  0
 28 30  1  0  0  0  0
 28 81  1  0  0  0  0
 28 82  1  0  0  0  0
 29 31  1  0  0  0  0
 29 83  1  0  0  0  0
 29 84  1  0  0  0  0
 30 32  1  0  0  0  0
 30 85  1  0  0  0  0
 30 86  1  0  0  0  0
 31 33  1  0  0  0  0
 31 87  1  0  0  0  0
 31 88  1  0  0  0  0
 32 34  1  0  0  0  0
 32 90  1  0  0  0  0
 32 91  1  0  0  0  0
 33 35  1  0  0  0  0
 33 92  1  0  0  0  0
 33 93  1  0  0  0  0
 34 94  1  0  0  0  0
 34 95  1  0  0  0  0
 34 96  1  0  0  0  0
 35 97  1  0  0  0  0
 35 98  1  0  0  0  0
 35 99  1  0  0  0  0
M  END
> <PUBCHEM_COMPOUND_CID>
5491970

> <PUBCHEM_COMPOUND_CANONICALIZED>
1

> <PUBCHEM_CACTVS_COMPLEXITY>
423

> <PUBCHEM_CACTVS_HBOND_ACCEPTOR>
3

> <PUBCHEM_CACTVS_HBOND_DONOR>
2

> <PUBCHEM_CACTVS_ROTATABLE_BOND>
29

> <PUBCHEM_CACTVS_SUBSKEYS>
AAADcfB8MAAAAAAAAAAAAAAAAAAAAAAAAAAAAAAAAAAAAAAAAAAAGgAACAAADRSggAICCAAAAgAIAACQCAAAAAAAAAAAAAEAAAAAEBYAAAAAQAAFIAAAAAGIyOCOAAAAAAAAAAAAAAAAAAAAAAAAAAAAAA==

> <PUBCHEM_IUPAC_OPENEYE_NAME>
(2R,3R)-3-hydroxy-2-tetradecyl-octadecanoic acid

> <PUBCHEM_IUPAC_CAS_NAME>
(2R,3R)-3-hydroxy-2-tetradecyloctadecanoic acid

> <PUBCHEM_IUPAC_NAME>
(2R,3R)-3-hydroxy-2-tetradecyloctadecanoic acid

> <PUBCHEM_IUPAC_SYSTEMATIC_NAME>
(2R,3R)-3-oxidanyl-2-tetradecyl-octadecanoic acid

> <PUBCHEM_IUPAC_TRADITIONAL_NAME>
(2R,3R)-3-hydroxy-2-myristyl-stearic acid

> <PUBCHEM_IUPAC_INCHI>
InChI=1S/C32H64O3/c1-3-5-7-9-11-13-15-17-19-21-23-25-27-29-31(33)30(32(34)35)28-26-24-22-20-18-16-14-12-10-8-6-4-2/h30-31,33H,3-29H2,1-2H3,(H,34,35)/t30-,31-/m1/s1

> <PUBCHEM_IUPAC_INCHIKEY>
CUEQHYJSSUSIFI-FIRIVFDPSA-N

> <PUBCHEM_XLOGP3_AA>
14.3

> <PUBCHEM_EXACT_MASS>
496.485546

> <PUBCHEM_MOLECULAR_FORMULA>
C32H64O3

> <PUBCHEM_MOLECULAR_WEIGHT>
496.84876

> <PUBCHEM_OPENEYE_CAN_SMILES>
CCCCCCCCCCCCCCCC(C(CCCCCCCCCCCCCC)C(=O)O)O

> <PUBCHEM_OPENEYE_ISO_SMILES>
CCCCCCCCCCCCCCC[C@H]([C@@H](CCCCCCCCCCCCCC)C(=O)O)O

> <PUBCHEM_CACTVS_TPSA>
57.5

> <PUBCHEM_MONOISOTOPIC_WEIGHT>
496.485546

> <PUBCHEM_TOTAL_CHARGE>
0

> <PUBCHEM_HEAVY_ATOM_COUNT>
35

> <PUBCHEM_ATOM_DEF_STEREO_COUNT>
2

> <PUBCHEM_ATOM_UDEF_STEREO_COUNT>
0

> <PUBCHEM_BOND_DEF_STEREO_COUNT>
0

> <PUBCHEM_BOND_UDEF_STEREO_COUNT>
0

> <PUBCHEM_ISOTOPIC_ATOM_COUNT>
0

> <PUBCHEM_COMPONENT_COUNT>
1

> <PUBCHEM_CACTVS_TAUTO_COUNT>
1

> <PUBCHEM_COORDINATE_TYPE>
1
5
255

> <PUBCHEM_BONDANNOTATIONS>
5  1  6
4  6  6

$$$$

