13860
  -OEChem-06241222402D

 23 23  0     0  0  0  0  0  0999 V2000
    3.7320    1.9400    0.0000 O   0  0  0  0  0  0  0  0  0  0  0  0
    2.8660    0.4400    0.0000 C   0  0  0  0  0  0  0  0  0  0  0  0
    2.0000   -0.0600    0.0000 C   0  0  0  0  0  0  0  0  0  0  0  0
    3.7320   -0.0600    0.0000 C   0  0  0  0  0  0  0  0  0  0  0  0
    2.0000   -1.0600    0.0000 C   0  0  0  0  0  0  0  0  0  0  0  0
    3.7320   -1.0600    0.0000 C   0  0  0  0  0  0  0  0  0  0  0  0
    2.8660   -1.5600    0.0000 C   0  0  0  0  0  0  0  0  0  0  0  0
    2.8660    1.4400    0.0000 C   0  0  0  0  0  0  0  0  0  0  0  0
    2.8660   -2.5600    0.0000 C   0  0  0  0  0  0  0  0  0  0  0  0
    3.4030    0.7500    0.0000 H   0  0  0  0  0  0  0  0  0  0  0  0
    4.3426   -0.1677    0.0000 H   0  0  0  0  0  0  0  0  0  0  0  0
    3.9441    0.5226    0.0000 H   0  0  0  0  0  0  0  0  0  0  0  0
    1.7880    0.5226    0.0000 H   0  0  0  0  0  0  0  0  0  0  0  0
    1.3894   -0.1677    0.0000 H   0  0  0  0  0  0  0  0  0  0  0  0
    1.3894   -0.9523    0.0000 H   0  0  0  0  0  0  0  0  0  0  0  0
    1.7880   -1.6426    0.0000 H   0  0  0  0  0  0  0  0  0  0  0  0
    3.9441   -1.6426    0.0000 H   0  0  0  0  0  0  0  0  0  0  0  0
    4.3426   -0.9523    0.0000 H   0  0  0  0  0  0  0  0  0  0  0  0
    2.6540    2.0226    0.0000 H   0  0  0  0  0  0  0  0  0  0  0  0
    2.2554    1.3323    0.0000 H   0  0  0  0  0  0  0  0  0  0  0  0
    2.3291   -2.8700    0.0000 H   0  0  0  0  0  0  0  0  0  0  0  0
    3.4030   -2.8700    0.0000 H   0  0  0  0  0  0  0  0  0  0  0  0
    3.7320    2.5600    0.0000 H   0  0  0  0  0  0  0  0  0  0  0  0
  1  8  1  0  0  0  0
  1 23  1  0  0  0  0
  2  3  1  0  0  0  0
  2  4  1  0  0  0  0
  2  8  1  0  0  0  0
  2 10  1  0  0  0  0
  3  5  1  0  0  0  0
  3 13  1  0  0  0  0
  3 14  1  0  0  0  0
  4  6  1  0  0  0  0
  4 11  1  0  0  0  0
  4 12  1  0  0  0  0
  5  7  1  0  0  0  0
  5 15  1  0  0  0  0
  5 16  1  0  0  0  0
  6  7  1  0  0  0  0
  6 17  1  0  0  0  0
  6 18  1  0  0  0  0
  7  9  2  0  0  0  0
  8 19  1  0  0  0  0
  8 20  1  0  0  0  0
  9 21  1  0  0  0  0
  9 22  1  0  0  0  0
M  END
> <PUBCHEM_COMPOUND_CID>
13860

> <PUBCHEM_COMPOUND_CANONICALIZED>
1

> <PUBCHEM_CACTVS_COMPLEXITY>
97.1

> <PUBCHEM_CACTVS_HBOND_ACCEPTOR>
1

> <PUBCHEM_CACTVS_HBOND_DONOR>
1

> <PUBCHEM_CACTVS_ROTATABLE_BOND>
1

> <PUBCHEM_CACTVS_SUBSKEYS>
AAADccBwIAAAAAAAAAAAAAAAAAAAAAAAAAAwAAAAAAAAAAAAAAAAGgAACAAADQCggAIAAAAAAgCAAgBCAAAAAAAgAAAAAAAAAAgAEAIAAQAAQAAEgAAAAAGAwCAOAAAAAAAAAAAAAAAAAAAAAAAAAAAAAA==

> <PUBCHEM_IUPAC_OPENEYE_NAME>
(4-methylenecyclohexyl)methanol

> <PUBCHEM_IUPAC_CAS_NAME>
(4-methylenecyclohexyl)methanol

> <PUBCHEM_IUPAC_NAME>
(4-methylidenecyclohexyl)methanol

> <PUBCHEM_IUPAC_SYSTEMATIC_NAME>
(4-methylidenecyclohexyl)methanol

> <PUBCHEM_IUPAC_TRADITIONAL_NAME>
(4-methylenecyclohexyl)methanol

> <PUBCHEM_IUPAC_INCHI>
InChI=1S/C8H14O/c1-7-2-4-8(6-9)5-3-7/h8-9H,1-6H2

> <PUBCHEM_IUPAC_INCHIKEY>
VEDQBZWFMDUFHU-UHFFFAOYSA-N

> <PUBCHEM_XLOGP3_AA>
1.3

> <PUBCHEM_EXACT_MASS>
126.104465

> <PUBCHEM_MOLECULAR_FORMULA>
C8H14O

> <PUBCHEM_MOLECULAR_WEIGHT>
126.19616

> <PUBCHEM_OPENEYE_CAN_SMILES>
C=C1CCC(CC1)CO

> <PUBCHEM_OPENEYE_ISO_SMILES>
C=C1CCC(CC1)CO

> <PUBCHEM_CACTVS_TPSA>
20.2

> <PUBCHEM_MONOISOTOPIC_WEIGHT>
126.104465

> <PUBCHEM_TOTAL_CHARGE>
0

> <PUBCHEM_HEAVY_ATOM_COUNT>
9

> <PUBCHEM_ATOM_DEF_STEREO_COUNT>
0

> <PUBCHEM_ATOM_UDEF_STEREO_COUNT>
0

> <PUBCHEM_BOND_DEF_STEREO_COUNT>
0

> <PUBCHEM_BOND_UDEF_STEREO_COUNT>
0

> <PUBCHEM_ISOTOPIC_ATOM_COUNT>
0

> <PUBCHEM_COMPONENT_COUNT>
1

> <PUBCHEM_CACTVS_TAUTO_COUNT>
1

> <PUBCHEM_COORDINATE_TYPE>
1
5
255

$$$$

