442867
  -OEChem-07051213002D

 53 54  0     1  0  0  0  0  0999 V2000
    8.8131    0.9181    0.0000 O   0  0  0  0  0  0  0  0  0  0  0  0
    3.5731    1.9313    0.0000 O   0  0  0  0  0  0  0  0  0  0  0  0
    6.1712    0.4313    0.0000 N   0  0  3  0  0  0  0  0  0  0  0  0
    3.9318   -1.7934    0.0000 N   0  0  0  0  0  0  0  0  0  0  0  0
    2.7071    0.4313    0.0000 N   0  0  0  0  0  0  0  0  0  0  0  0
    7.0812    0.9381    0.0000 C   0  0  1  0  0  0  0  0  0  0  0  0
    5.3052    0.9313    0.0000 C   0  0  1  0  0  0  0  0  0  0  0  0
    7.0892    1.9797    0.0000 C   0  0  0  0  0  0  0  0  0  0  0  0
    7.9414    0.4282    0.0000 C   0  0  2  0  0  0  0  0  0  0  0  0
    6.1712   -0.5687    0.0000 C   0  0  0  0  0  0  0  0  0  0  0  0
    4.4392    0.4313    0.0000 C   0  0  0  0  0  0  0  0  0  0  0  0
    5.2891    1.9728    0.0000 C   0  0  0  0  0  0  0  0  0  0  0  0
    6.1872    2.5006    0.0000 C   0  0  0  0  0  0  0  0  0  0  0  0
    5.7638   -1.5523    0.0000 C   0  0  0  0  0  0  0  0  0  0  0  0
    7.9298   -0.5718    0.0000 C   0  0  0  0  0  0  0  0  0  0  0  0
    4.8978   -2.0523    0.0000 C   0  0  0  0  0  0  0  0  0  0  0  0
    3.5731    0.9313    0.0000 C   0  0  0  0  0  0  0  0  0  0  0  0
    8.7900   -1.0818    0.0000 C   0  0  0  0  0  0  0  0  0  0  0  0
    3.2247   -2.5006    0.0000 C   0  0  0  0  0  0  0  0  0  0  0  0
    2.2588   -2.2417    0.0000 C   0  0  0  0  0  0  0  0  0  0  0  0
    2.0000   -1.2758    0.0000 C   0  0  0  0  0  0  0  0  0  0  0  0
    2.7071   -0.5687    0.0000 C   0  0  0  0  0  0  0  0  0  0  0  0
    7.8214    1.3560    0.0000 H   0  0  0  0  0  0  0  0  0  0  0  0
    4.5658    1.3506    0.0000 H   0  0  0  0  0  0  0  0  0  0  0  0
    7.6993    1.8689    0.0000 H   0  0  0  0  0  0  0  0  0  0  0  0
    7.3028    2.5618    0.0000 H   0  0  0  0  0  0  0  0  0  0  0  0
    7.9486    1.0481    0.0000 H   0  0  0  0  0  0  0  0  0  0  0  0
    6.6096   -1.0071    0.0000 H   0  0  0  0  0  0  0  0  0  0  0  0
    5.5631   -0.4477    0.0000 H   0  0  0  0  0  0  0  0  0  0  0  0
    4.0406   -0.0437    0.0000 H   0  0  0  0  0  0  0  0  0  0  0  0
    4.8377   -0.0437    0.0000 H   0  0  0  0  0  0  0  0  0  0  0  0
    4.7486    2.2766    0.0000 H   0  0  0  0  0  0  0  0  0  0  0  0
    6.1848    3.1206    0.0000 H   0  0  0  0  0  0  0  0  0  0  0  0
    5.8980   -2.1576    0.0000 H   0  0  0  0  0  0  0  0  0  0  0  0
    6.3814   -1.6063    0.0000 H   0  0  0  0  0  0  0  0  0  0  0  0
    7.3205   -0.4571    0.0000 H   0  0  0  0  0  0  0  0  0  0  0  0
    7.7111   -1.1519    0.0000 H   0  0  0  0  0  0  0  0  0  0  0  0
    4.5878   -2.5892    0.0000 H   0  0  0  0  0  0  0  0  0  0  0  0
    5.3362   -2.4907    0.0000 H   0  0  0  0  0  0  0  0  0  0  0  0
    9.3465    0.6019    0.0000 H   0  0  0  0  0  0  0  0  0  0  0  0
    8.4738   -1.6151    0.0000 H   0  0  0  0  0  0  0  0  0  0  0  0
    9.3233   -1.3979    0.0000 H   0  0  0  0  0  0  0  0  0  0  0  0
    9.1062   -0.5484    0.0000 H   0  0  0  0  0  0  0  0  0  0  0  0
    3.7714   -1.1946    0.0000 H   0  0  0  0  0  0  0  0  0  0  0  0
    2.9627   -3.0625    0.0000 H   0  0  0  0  0  0  0  0  0  0  0  0
    3.7326   -2.8562    0.0000 H   0  0  0  0  0  0  0  0  0  0  0  0
    1.6412   -2.2958    0.0000 H   0  0  0  0  0  0  0  0  0  0  0  0
    2.2048   -2.8594    0.0000 H   0  0  0  0  0  0  0  0  0  0  0  0
    2.1702    0.7413    0.0000 H   0  0  0  0  0  0  0  0  0  0  0  0
    1.6444   -0.7679    0.0000 H   0  0  0  0  0  0  0  0  0  0  0  0
    1.4381   -1.5378    0.0000 H   0  0  0  0  0  0  0  0  0  0  0  0
    3.0171   -1.1056    0.0000 H   0  0  0  0  0  0  0  0  0  0  0  0
    3.3060   -0.4082    0.0000 H   0  0  0  0  0  0  0  0  0  0  0  0
  9  1  1  1  0  0  0
  1 40  1  0  0  0  0
  2 17  2  0  0  0  0
  3  6  1  0  0  0  0
  3  7  1  0  0  0  0
  3 10  1  0  0  0  0
  4 16  1  0  0  0  0
  4 19  1  0  0  0  0
  4 44  1  0  0  0  0
  5 17  1  0  0  0  0
  5 22  1  0  0  0  0
  5 49  1  0  0  0  0
  6  8  1  0  0  0  0
  6  9  1  0  0  0  0
  6 23  1  6  0  0  0
  7 11  1  0  0  0  0
  7 12  1  0  0  0  0
  7 24  1  6  0  0  0
  8 13  1  0  0  0  0
  8 25  1  0  0  0  0
  8 26  1  0  0  0  0
  9 15  1  0  0  0  0
  9 27  1  0  0  0  0
 10 14  1  0  0  0  0
 10 28  1  0  0  0  0
 10 29  1  0  0  0  0
 11 17  1  0  0  0  0
 11 30  1  0  0  0  0
 11 31  1  0  0  0  0
 12 13  2  0  0  0  0
 12 32  1  0  0  0  0
 13 33  1  0  0  0  0
 14 16  1  0  0  0  0
 14 34  1  0  0  0  0
 14 35  1  0  0  0  0
 15 18  1  0  0  0  0
 15 36  1  0  0  0  0
 15 37  1  0  0  0  0
 16 38  1  0  0  0  0
 16 39  1  0  0  0  0
 18 41  1  0  0  0  0
 18 42  1  0  0  0  0
 18 43  1  0  0  0  0
 19 20  1  0  0  0  0
 19 45  1  0  0  0  0
 19 46  1  0  0  0  0
 20 21  1  0  0  0  0
 20 47  1  0  0  0  0
 20 48  1  0  0  0  0
 21 22  1  0  0  0  0
 21 50  1  0  0  0  0
 21 51  1  0  0  0  0
 22 52  1  0  0  0  0
 22 53  1  0  0  0  0
M  END
> <PUBCHEM_COMPOUND_CID>
442867

> <PUBCHEM_COMPOUND_CANONICALIZED>
1

> <PUBCHEM_CACTVS_COMPLEXITY>
373

> <PUBCHEM_CACTVS_HBOND_ACCEPTOR>
4

> <PUBCHEM_CACTVS_HBOND_DONOR>
3

> <PUBCHEM_CACTVS_ROTATABLE_BOND>
2

> <PUBCHEM_CACTVS_SUBSKEYS>
AAADceB7MAAAAAAAAAAAAAAAAAAAAAAAAAAgAAAAAAAAAAAAAAAAHgAQCAAACDzhgAYCAAPAAgCIACFSEACAAAAgAAAICIEIAAgCEBoAwQAEQAAElgCYAAMAAAAAAAAAAAAAAAAAAAAAAAAAAAAAAAAAAA==

> <PUBCHEM_IUPAC_OPENEYE_NAME>
(13S,17S)-17-[(1S)-1-hydroxypropyl]-1,5,10-triazabicyclo[11.4.0]heptadec-14-en-11-one

> <PUBCHEM_IUPAC_CAS_NAME>
(13S,17S)-17-[(1S)-1-hydroxypropyl]-1,5,10-triazabicyclo[11.4.0]heptadec-14-en-11-one

> <PUBCHEM_IUPAC_NAME>
(13S,17S)-17-[(1S)-1-hydroxypropyl]-1,5,10-triazabicyclo[11.4.0]heptadec-14-en-11-one

> <PUBCHEM_IUPAC_SYSTEMATIC_NAME>
(13S,17S)-17-[(1S)-1-oxidanylpropyl]-1,5,10-triazabicyclo[11.4.0]heptadec-14-en-11-one

> <PUBCHEM_IUPAC_TRADITIONAL_NAME>
(13S,17S)-17-[(1S)-1-hydroxypropyl]-1,5,10-triazabicyclo[11.4.0]heptadec-14-en-11-one

> <PUBCHEM_IUPAC_INCHI>
InChI=1S/C17H31N3O2/c1-2-16(21)15-8-5-7-14-13-17(22)19-11-4-3-9-18-10-6-12-20(14)15/h5,7,14-16,18,21H,2-4,6,8-13H2,1H3,(H,19,22)/t14-,15+,16+/m1/s1

> <PUBCHEM_IUPAC_INCHIKEY>
YBZUGUWOQLUNKD-PMPSAXMXSA-N

> <PUBCHEM_XLOGP3_AA>
1

> <PUBCHEM_EXACT_MASS>
309.241627

> <PUBCHEM_MOLECULAR_FORMULA>
C17H31N3O2

> <PUBCHEM_MOLECULAR_WEIGHT>
309.44694

> <PUBCHEM_OPENEYE_CAN_SMILES>
CCC(C1CC=CC2N1CCCNCCCCNC(=O)C2)O

> <PUBCHEM_OPENEYE_ISO_SMILES>
CC[C@@H]([C@@H]1CC=C[C@H]2N1CCCNCCCCNC(=O)C2)O

> <PUBCHEM_CACTVS_TPSA>
64.6

> <PUBCHEM_MONOISOTOPIC_WEIGHT>
309.241627

> <PUBCHEM_TOTAL_CHARGE>
0

> <PUBCHEM_HEAVY_ATOM_COUNT>
22

> <PUBCHEM_ATOM_DEF_STEREO_COUNT>
3

> <PUBCHEM_ATOM_UDEF_STEREO_COUNT>
0

> <PUBCHEM_BOND_DEF_STEREO_COUNT>
0

> <PUBCHEM_BOND_UDEF_STEREO_COUNT>
0

> <PUBCHEM_ISOTOPIC_ATOM_COUNT>
0

> <PUBCHEM_COMPONENT_COUNT>
1

> <PUBCHEM_CACTVS_TAUTO_COUNT>
3

> <PUBCHEM_COORDINATE_TYPE>
1
5
255

> <PUBCHEM_BONDANNOTATIONS>
9  1  5
6  23  6
7  24  6

$$$$

