5180
  -OEChem-06261200332D

 81 85  0     1  0  0  0  0  0999 V2000
    6.2619    5.1962    0.0000 S   0  0  0  0  0  0  0  0  0  0  0  0
    4.6783    6.0009    0.0000 S   0  0  0  0  0  0  0  0  0  0  0  0
    9.7619    4.3301    0.0000 O   0  0  0  0  0  0  0  0  0  0  0  0
    8.2619    3.4641    0.0000 O   0  0  0  0  0  0  0  0  0  0  0  0
   12.2619    8.6602    0.0000 O   0  0  0  0  0  0  0  0  0  0  0  0
   10.7619   -0.8660    0.0000 O   0  0  0  0  0  0  0  0  0  0  0  0
    8.2619   -6.9282    0.0000 O   0  0  0  0  0  0  0  0  0  0  0  0
    9.2619   -8.6602    0.0000 O   0  0  0  0  0  0  0  0  0  0  0  0
    9.2619    0.0000    0.0000 N   0  0  0  0  0  0  0  0  0  0  0  0
    4.6783    4.3914    0.0000 N   0  0  0  0  0  0  0  0  0  0  0  0
    9.7619   -7.7942    0.0000 N   0  0  0  0  0  0  0  0  0  0  0  0
    8.2619    5.1962    0.0000 C   0  0  0  0  0  0  0  0  0  0  0  0
    9.2619    5.1962    0.0000 C   0  0  3  0  0  0  0  0  0  0  0  0
    7.7619    4.3301    0.0000 C   0  0  3  0  0  0  0  0  0  0  0  0
    9.2619    3.4641    0.0000 C   0  0  3  0  0  0  0  0  0  0  0  0
    9.7619    6.0622    0.0000 C   0  0  0  0  0  0  0  0  0  0  0  0
    6.7619    4.3301    0.0000 C   0  0  0  0  0  0  0  0  0  0  0  0
    9.7619    2.5981    0.0000 C   0  0  0  0  0  0  0  0  0  0  0  0
   10.7619    6.0622    0.0000 C   0  0  0  0  0  0  0  0  0  0  0  0
    9.2619    6.9282    0.0000 C   0  0  0  0  0  0  0  0  0  0  0  0
    9.2619    1.7320    0.0000 C   0  0  0  0  0  0  0  0  0  0  0  0
   10.7619    2.5981    0.0000 C   0  0  0  0  0  0  0  0  0  0  0  0
   11.2619    6.9282    0.0000 C   0  0  0  0  0  0  0  0  0  0  0  0
    9.7619    7.7942    0.0000 C   0  0  0  0  0  0  0  0  0  0  0  0
    9.7619    0.8660    0.0000 C   0  0  0  0  0  0  0  0  0  0  0  0
   10.7619    7.7942    0.0000 C   0  0  0  0  0  0  0  0  0  0  0  0
    9.2619   -3.4641    0.0000 C   0  0  0  0  0  0  0  0  0  0  0  0
    9.7619   -2.5981    0.0000 C   0  0  0  0  0  0  0  0  0  0  0  0
   11.2619    1.7320    0.0000 C   0  0  0  0  0  0  0  0  0  0  0  0
    9.7619   -4.3301    0.0000 C   0  0  0  0  0  0  0  0  0  0  0  0
   10.7619    0.8660    0.0000 C   0  0  0  0  0  0  0  0  0  0  0  0
    9.2619   -1.7320    0.0000 C   0  0  0  0  0  0  0  0  0  0  0  0
    9.2619   -5.1962    0.0000 C   0  0  0  0  0  0  0  0  0  0  0  0
    5.2619    5.1962    0.0000 C   0  0  0  0  0  0  0  0  0  0  0  0
    9.7619   -0.8660    0.0000 C   0  0  0  0  0  0  0  0  0  0  0  0
   11.2619    8.6602    0.0000 C   0  0  0  0  0  0  0  0  0  0  0  0
    9.7619   -6.0622    0.0000 C   0  0  0  0  0  0  0  0  0  0  0  0
    3.7320    5.6962    0.0000 C   0  0  0  0  0  0  0  0  0  0  0  0
    3.7320    4.6962    0.0000 C   0  0  0  0  0  0  0  0  0  0  0  0
    9.2619   -6.9282    0.0000 C   0  0  0  0  0  0  0  0  0  0  0  0
    2.8660    6.1962    0.0000 C   0  0  0  0  0  0  0  0  0  0  0  0
    2.8660    4.1962    0.0000 C   0  0  0  0  0  0  0  0  0  0  0  0
    2.0000    5.6962    0.0000 C   0  0  0  0  0  0  0  0  0  0  0  0
    2.0000    4.6962    0.0000 C   0  0  0  0  0  0  0  0  0  0  0  0
    8.3695    5.8067    0.0000 H   0  0  0  0  0  0  0  0  0  0  0  0
    7.6793    5.4082    0.0000 H   0  0  0  0  0  0  0  0  0  0  0  0
    8.9519    5.7331    0.0000 H   0  0  0  0  0  0  0  0  0  0  0  0
    7.4519    3.7932    0.0000 H   0  0  0  0  0  0  0  0  0  0  0  0
    9.8819    3.4641    0.0000 H   0  0  0  0  0  0  0  0  0  0  0  0
    6.1793    4.1181    0.0000 H   0  0  0  0  0  0  0  0  0  0  0  0
    6.8695    3.7196    0.0000 H   0  0  0  0  0  0  0  0  0  0  0  0
   11.0719    5.5252    0.0000 H   0  0  0  0  0  0  0  0  0  0  0  0
    8.6419    6.9282    0.0000 H   0  0  0  0  0  0  0  0  0  0  0  0
    8.6419    1.7320    0.0000 H   0  0  0  0  0  0  0  0  0  0  0  0
   11.0719    3.1350    0.0000 H   0  0  0  0  0  0  0  0  0  0  0  0
   11.8819    6.9282    0.0000 H   0  0  0  0  0  0  0  0  0  0  0  0
    9.4519    8.3312    0.0000 H   0  0  0  0  0  0  0  0  0  0  0  0
    8.7869   -3.0656    0.0000 H   0  0  0  0  0  0  0  0  0  0  0  0
    8.7869   -3.8626    0.0000 H   0  0  0  0  0  0  0  0  0  0  0  0
   10.2368   -2.9966    0.0000 H   0  0  0  0  0  0  0  0  0  0  0  0
   10.2368   -2.1996    0.0000 H   0  0  0  0  0  0  0  0  0  0  0  0
   10.2368   -4.7287    0.0000 H   0  0  0  0  0  0  0  0  0  0  0  0
   10.2368   -3.9316    0.0000 H   0  0  0  0  0  0  0  0  0  0  0  0
   11.8819    1.7320    0.0000 H   0  0  0  0  0  0  0  0  0  0  0  0
   11.0719    0.3291    0.0000 H   0  0  0  0  0  0  0  0  0  0  0  0
    8.7869   -1.3335    0.0000 H   0  0  0  0  0  0  0  0  0  0  0  0
    8.7869   -2.1306    0.0000 H   0  0  0  0  0  0  0  0  0  0  0  0
    8.7869   -4.7976    0.0000 H   0  0  0  0  0  0  0  0  0  0  0  0
    8.7869   -5.5947    0.0000 H   0  0  0  0  0  0  0  0  0  0  0  0
    8.6419    0.0000    0.0000 H   0  0  0  0  0  0  0  0  0  0  0  0
   11.3695    9.2708    0.0000 H   0  0  0  0  0  0  0  0  0  0  0  0
   10.6793    8.8723    0.0000 H   0  0  0  0  0  0  0  0  0  0  0  0
   10.2368   -6.4607    0.0000 H   0  0  0  0  0  0  0  0  0  0  0  0
   10.2368   -5.6636    0.0000 H   0  0  0  0  0  0  0  0  0  0  0  0
   12.5719    9.1972    0.0000 H   0  0  0  0  0  0  0  0  0  0  0  0
    2.8660    6.8162    0.0000 H   0  0  0  0  0  0  0  0  0  0  0  0
    2.8660    3.5762    0.0000 H   0  0  0  0  0  0  0  0  0  0  0  0
    1.4631    6.0062    0.0000 H   0  0  0  0  0  0  0  0  0  0  0  0
    1.4631    4.3862    0.0000 H   0  0  0  0  0  0  0  0  0  0  0  0
   10.3819   -7.7942    0.0000 H   0  0  0  0  0  0  0  0  0  0  0  0
    9.5719   -9.1972    0.0000 H   0  0  0  0  0  0  0  0  0  0  0  0
  1 17  1  0  0  0  0
  1 34  1  0  0  0  0
  2 34  1  0  0  0  0
  2 38  1  0  0  0  0
  3 13  1  0  0  0  0
  3 15  1  0  0  0  0
  4 14  1  0  0  0  0
  4 15  1  0  0  0  0
  5 36  1  0  0  0  0
  5 75  1  0  0  0  0
  6 35  2  0  0  0  0
  7 40  2  0  0  0  0
  8 11  1  0  0  0  0
  8 81  1  0  0  0  0
  9 25  1  0  0  0  0
  9 35  1  0  0  0  0
  9 70  1  0  0  0  0
 10 34  2  0  0  0  0
 10 39  1  0  0  0  0
 11 40  1  0  0  0  0
 11 80  1  0  0  0  0
 12 13  1  0  0  0  0
 12 14  1  0  0  0  0
 12 45  1  0  0  0  0
 12 46  1  0  0  0  0
 13 16  1  0  0  0  0
 13 47  1  0  0  0  0
 14 17  1  0  0  0  0
 14 48  1  0  0  0  0
 15 18  1  0  0  0  0
 15 49  1  0  0  0  0
 16 19  2  0  0  0  0
 16 20  1  0  0  0  0
 17 50  1  0  0  0  0
 17 51  1  0  0  0  0
 18 21  2  0  0  0  0
 18 22  1  0  0  0  0
 19 23  1  0  0  0  0
 19 52  1  0  0  0  0
 20 24  2  0  0  0  0
 20 53  1  0  0  0  0
 21 25  1  0  0  0  0
 21 54  1  0  0  0  0
 22 29  2  0  0  0  0
 22 55  1  0  0  0  0
 23 26  2  0  0  0  0
 23 56  1  0  0  0  0
 24 26  1  0  0  0  0
 24 57  1  0  0  0  0
 25 31  2  0  0  0  0
 26 36  1  0  0  0  0
 27 28  1  0  0  0  0
 27 30  1  0  0  0  0
 27 58  1  0  0  0  0
 27 59  1  0  0  0  0
 28 32  1  0  0  0  0
 28 60  1  0  0  0  0
 28 61  1  0  0  0  0
 29 31  1  0  0  0  0
 29 64  1  0  0  0  0
 30 33  1  0  0  0  0
 30 62  1  0  0  0  0
 30 63  1  0  0  0  0
 31 65  1  0  0  0  0
 32 35  1  0  0  0  0
 32 66  1  0  0  0  0
 32 67  1  0  0  0  0
 33 37  1  0  0  0  0
 33 68  1  0  0  0  0
 33 69  1  0  0  0  0
 36 71  1  0  0  0  0
 36 72  1  0  0  0  0
 37 40  1  0  0  0  0
 37 73  1  0  0  0  0
 37 74  1  0  0  0  0
 38 39  1  0  0  0  0
 38 41  2  0  0  0  0
 39 42  2  0  0  0  0
 41 43  1  0  0  0  0
 41 76  1  0  0  0  0
 42 44  1  0  0  0  0
 42 77  1  0  0  0  0
 43 44  2  0  0  0  0
 43 78  1  0  0  0  0
 44 79  1  0  0  0  0
M  END
> <PUBCHEM_COMPOUND_CID>
5180

> <PUBCHEM_COMPOUND_CANONICALIZED>
1

> <PUBCHEM_CACTVS_COMPLEXITY>
894

> <PUBCHEM_CACTVS_HBOND_ACCEPTOR>
9

> <PUBCHEM_CACTVS_HBOND_DONOR>
4

> <PUBCHEM_CACTVS_ROTATABLE_BOND>
14

> <PUBCHEM_CACTVS_SUBSKEYS>
AAADcfB/OABgAAAAAAAAAAAAAAAAAWAAAAA0YMEAAAAAAFgB9AAAHgQUCAAADBy13gOwybLYFgisAyVyVACD8aBhCjhomD0wbJgYNrLgsZmmcAhl1AHM+Ae4yPCOQAAAQAAAAQCAAACAAAACAAAAAAAAAA==

> <PUBCHEM_IUPAC_OPENEYE_NAME>
N-[3-[4-(1,3-benzothiazol-2-ylsulfanylmethyl)-6-[4-(hydroxymethyl)phenyl]-1,3-dioxan-2-yl]phenyl]-8-(hydroxyamino)-8-oxo-octanamide

> <PUBCHEM_IUPAC_CAS_NAME>
N-[3-[4-[(1,3-benzothiazol-2-ylthio)methyl]-6-[4-(hydroxymethyl)phenyl]-1,3-dioxan-2-yl]phenyl]-N'-hydroxyoctanediamide

> <PUBCHEM_IUPAC_NAME>
N-[3-[4-(1,3-benzothiazol-2-ylsulfanylmethyl)-6-[4-(hydroxymethyl)phenyl]-1,3-dioxan-2-yl]phenyl]-N'-hydroxyoctanediamide

> <PUBCHEM_IUPAC_SYSTEMATIC_NAME>
N-[3-[4-(1,3-benzothiazol-2-ylsulfanylmethyl)-6-[4-(hydroxymethyl)phenyl]-1,3-dioxan-2-yl]phenyl]-N'-oxidanyl-octanediamide

> <PUBCHEM_IUPAC_TRADITIONAL_NAME>
N-[3-[4-[(1,3-benzothiazol-2-ylthio)methyl]-6-(4-methylolphenyl)-1,3-dioxan-2-yl]phenyl]-8-(hydroxyamino)-8-keto-caprylamide

> <PUBCHEM_IUPAC_INCHI>
InChI=1S/C33H37N3O6S2/c37-20-22-14-16-23(17-15-22)28-19-26(21-43-33-35-27-10-5-6-11-29(27)44-33)41-32(42-28)24-8-7-9-25(18-24)34-30(38)12-3-1-2-4-13-31(39)36-40/h5-11,14-18,26,28,32,37,40H,1-4,12-13,19-21H2,(H,34,38)(H,36,39)

> <PUBCHEM_IUPAC_INCHIKEY>
IMMFCMWFIGSVCK-UHFFFAOYSA-N

> <PUBCHEM_XLOGP3_AA>
5.1

> <PUBCHEM_EXACT_MASS>
635.212378

> <PUBCHEM_MOLECULAR_FORMULA>
C33H37N3O6S2

> <PUBCHEM_MOLECULAR_WEIGHT>
635.79338

> <PUBCHEM_OPENEYE_CAN_SMILES>
C1C(OC(OC1C2=CC=C(C=C2)CO)C3=CC(=CC=C3)NC(=O)CCCCCCC(=O)NO)CSC4=NC5=CC=CC=C5S4

> <PUBCHEM_OPENEYE_ISO_SMILES>
C1C(OC(OC1C2=CC=C(C=C2)CO)C3=CC(=CC=C3)NC(=O)CCCCCCC(=O)NO)CSC4=NC5=CC=CC=C5S4

> <PUBCHEM_CACTVS_TPSA>
184

> <PUBCHEM_MONOISOTOPIC_WEIGHT>
635.212378

> <PUBCHEM_TOTAL_CHARGE>
0

> <PUBCHEM_HEAVY_ATOM_COUNT>
44

> <PUBCHEM_ATOM_DEF_STEREO_COUNT>
0

> <PUBCHEM_ATOM_UDEF_STEREO_COUNT>
3

> <PUBCHEM_BOND_DEF_STEREO_COUNT>
0

> <PUBCHEM_BOND_UDEF_STEREO_COUNT>
0

> <PUBCHEM_ISOTOPIC_ATOM_COUNT>
0

> <PUBCHEM_COMPONENT_COUNT>
1

> <PUBCHEM_CACTVS_TAUTO_COUNT>
12

> <PUBCHEM_COORDINATE_TYPE>
1
5
255

> <PUBCHEM_BONDANNOTATIONS>
10  34  8
10  39  8
13  16  3
14  17  3
15  18  3
16  19  8
16  20  8
18  21  8
18  22  8
19  23  8
2  34  8
2  38  8
20  24  8
21  25  8
22  29  8
23  26  8
24  26  8
25  31  8
29  31  8
38  39  8
38  41  8
39  42  8
41  43  8
42  44  8
43  44  8

$$$$

