582795
  -OEChem-06241222443D

 34 36  0     0  0  0  0  0  0999 V2000
   -4.5962    2.6926   -0.2589 Cl  0  0  0  0  0  0  0  0  0  0  0  0
   -0.6802   -0.8394    0.9784 S   0  0  0  0  0  0  0  0  0  0  0  0
   -6.1304    0.2472   -0.9323 F   0  0  0  0  0  0  0  0  0  0  0  0
    0.2269   -0.8410   -0.3829 O   0  0  0  0  0  0  0  0  0  0  0  0
   -0.3157    0.3018    1.7958 O   0  0  0  0  0  0  0  0  0  0  0  0
   -0.6950   -2.1883    1.5131 O   0  0  0  0  0  0  0  0  0  0  0  0
    1.9874    1.2600   -0.1296 N   0  0  0  0  0  0  0  0  0  0  0  0
    2.4591    0.0050   -0.2540 C   0  0  0  0  0  0  0  0  0  0  0  0
    3.8420   -0.2734   -0.2587 C   0  0  0  0  0  0  0  0  0  0  0  0
    1.5757   -1.0632   -0.3830 C   0  0  0  0  0  0  0  0  0  0  0  0
   -2.3182   -0.5072    0.4046 C   0  0  0  0  0  0  0  0  0  0  0  0
    4.2993   -1.5956   -0.3906 C   0  0  0  0  0  0  0  0  0  0  0  0
    2.0300   -2.3778   -0.5141 C   0  0  0  0  0  0  0  0  0  0  0  0
    4.7318    0.8015   -0.1290 C   0  0  0  0  0  0  0  0  0  0  0  0
    2.8796    2.2693   -0.0069 C   0  0  0  0  0  0  0  0  0  0  0  0
    3.3935   -2.6447   -0.5179 C   0  0  0  0  0  0  0  0  0  0  0  0
    4.2487    2.0957   -0.0007 C   0  0  0  0  0  0  0  0  0  0  0  0
   -2.7509    0.8050    0.3134 C   0  0  0  0  0  0  0  0  0  0  0  0
   -3.1401   -1.5656    0.0563 C   0  0  0  0  0  0  0  0  0  0  0  0
    2.3149    3.6440    0.1280 C   0  0  0  0  0  0  0  0  0  0  0  0
   -4.0439    1.0664   -0.1396 C   0  0  0  0  0  0  0  0  0  0  0  0
   -4.4332   -1.3042   -0.3967 C   0  0  0  0  0  0  0  0  0  0  0  0
   -4.8850    0.0119   -0.4947 C   0  0  0  0  0  0  0  0  0  0  0  0
    5.3646   -1.8154   -0.3948 H   0  0  0  0  0  0  0  0  0  0  0  0
    1.3221   -3.1961   -0.6150 H   0  0  0  0  0  0  0  0  0  0  0  0
    5.8067    0.6357   -0.1273 H   0  0  0  0  0  0  0  0  0  0  0  0
    3.7505   -3.6649   -0.6199 H   0  0  0  0  0  0  0  0  0  0  0  0
    4.9317    2.9319    0.0999 H   0  0  0  0  0  0  0  0  0  0  0  0
   -2.0978    1.6317    0.5788 H   0  0  0  0  0  0  0  0  0  0  0  0
   -2.8052   -2.5964    0.1170 H   0  0  0  0  0  0  0  0  0  0  0  0
   -5.0877   -2.1249   -0.6751 H   0  0  0  0  0  0  0  0  0  0  0  0
    1.2202    3.6226    0.1107 H   0  0  0  0  0  0  0  0  0  0  0  0
    2.6283    4.0933    1.0757 H   0  0  0  0  0  0  0  0  0  0  0  0
    2.6533    4.2776   -0.6981 H   0  0  0  0  0  0  0  0  0  0  0  0
  1 21  1  0  0  0  0
  2  4  1  0  0  0  0
  2  5  2  0  0  0  0
  2  6  2  0  0  0  0
  2 11  1  0  0  0  0
  3 23  1  0  0  0  0
  4 10  1  0  0  0  0
  7  8  1  0  0  0  0
  7 15  2  0  0  0  0
  8  9  2  0  0  0  0
  8 10  1  0  0  0  0
  9 12  1  0  0  0  0
  9 14  1  0  0  0  0
 10 13  2  0  0  0  0
 11 18  2  0  0  0  0
 11 19  1  0  0  0  0
 12 16  2  0  0  0  0
 12 24  1  0  0  0  0
 13 16  1  0  0  0  0
 13 25  1  0  0  0  0
 14 17  2  0  0  0  0
 14 26  1  0  0  0  0
 15 17  1  0  0  0  0
 15 20  1  0  0  0  0
 16 27  1  0  0  0  0
 17 28  1  0  0  0  0
 18 21  1  0  0  0  0
 18 29  1  0  0  0  0
 19 22  2  0  0  0  0
 19 30  1  0  0  0  0
 20 32  1  0  0  0  0
 20 33  1  0  0  0  0
 20 34  1  0  0  0  0
 21 23  2  0  0  0  0
 22 23  1  0  0  0  0
 22 31  1  0  0  0  0
M  END
> <PUBCHEM_COMPOUND_CID>
582795

> <PUBCHEM_CONFORMER_RMSD>
0.6

> <PUBCHEM_CONFORMER_DIVERSEORDER>
1
17
22
25
3
15
20
13
24
28
16
10
6
12
27
18
11
14
2
26
4
8
19
21
7
5
9
23

> <PUBCHEM_MMFF94_PARTIAL_CHARGES>
30
1 -0.18
10 0.08
11 -0.01
12 -0.15
13 -0.15
14 -0.15
15 0.17
16 -0.15
17 -0.15
18 -0.15
19 -0.15
2 1.49
20 0.14
21 0.18
22 -0.15
23 0.19
24 0.15
25 0.15
26 0.15
27 0.15
28 0.15
29 0.15
3 -0.19
30 0.15
31 0.15
4 -0.27
5 -0.65
6 -0.65
7 -0.62
8 0.31

> <PUBCHEM_EFFECTIVE_ROTOR_COUNT>
3

> <PUBCHEM_PHARMACOPHORE_FEATURES>
6
1 5 acceptor
1 6 acceptor
1 7 acceptor
6 11 18 19 21 22 23 rings
6 7 8 9 14 15 17 rings
6 8 9 10 12 13 16 rings

> <PUBCHEM_HEAVY_ATOM_COUNT>
23

> <PUBCHEM_ATOM_DEF_STEREO_COUNT>
0

> <PUBCHEM_ATOM_UDEF_STEREO_COUNT>
0

> <PUBCHEM_BOND_DEF_STEREO_COUNT>
0

> <PUBCHEM_BOND_UDEF_STEREO_COUNT>
0

> <PUBCHEM_ISOTOPIC_ATOM_COUNT>
0

> <PUBCHEM_COMPONENT_COUNT>
1

> <PUBCHEM_CACTVS_TAUTO_COUNT>
1

> <PUBCHEM_CONFORMER_ID>
0008E48B00000001

> <PUBCHEM_MMFF94_ENERGY>
54.1073

> <PUBCHEM_FEATURE_SELFOVERLAP>
30.494

> <PUBCHEM_SHAPE_FINGERPRINT>
10411042 1 18049159166786010478
10595046 47 18334579027685771639
10693767 8 17895746409653953990
11370993 70 18339361855637081746
12107183 9 17830730224864414001
12403259 327 17059226839054746672
12403259 415 18130212783802998715
12596602 18 13973953299062793997
12633257 1 17703242710891883784
13402501 40 18343586226566440492
13583140 156 18340758265258424139
13944108 23 16542440280584534925
14251757 17 18340773740220685865
14251764 38 18342173328339211109
14466204 15 18337678516768796936
14468879 13 17983012250140644736
14863182 85 16009027336789634326
15196674 1 18410291432291183445
15961568 22 17846215497522727156
16989378 47 16589686046273837038
17492 89 18408037411964290079
17844677 252 18336538400250613687
17959699 21 18410855486188090041
18335252 114 18123477348124666285
18681886 176 18187369844044445290
19930381 70 18192997011031491649
200 152 17967249818890679531
20157964 124 18409169896118443567
20567600 299 18335140860616029456
20645477 70 18187358861527862958
20681677 76 18341038615159243426
20715895 44 18044655545287605753
20832881 197 17985262126083722914
21033648 29 17346323725939215109
21065198 57 18411135840157568815
21315763 129 18411141337478174855
21709351 56 18334860506593465974
21860390 5 18335693966688375892
221357 26 18410858802056213325
22289505 5 18411136965755329756
22393880 68 18260821571280332534
23227448 37 18264208019654420695
23522609 53 17604690181439451137
23557571 272 17702092570042007699
23559900 14 18408886226561332570
25222932 49 13768798757478255533
3052486 1 16128106662064388204
345986 75 17199694075167175722
351380 180 18412827962545333949
4214541 1 18337390543273776509
4280585 95 17392179021490289334
474 4 18412263895953059272
495365 180 18261398793594707600
5104073 3 18413385458085579387
5281201 14 18409726283398649381
5283173 99 18338518646309210665
543358 83 18337386149327138250
6328613 192 17916858024986480900
633830 44 18343306989436261943
6443956 14 18339355375016417172
9709674 26 18339635655296419786
9981440 41 17978516330025582296

> <PUBCHEM_SHAPE_MULTIPOLES>
449.19
11.85
3.35
0.95
9.51
1.84
-0.31
2.75
3.07
-2.47
0.11
0.34
-0.24
0.7

> <PUBCHEM_SHAPE_SELFOVERLAP>
966.883

> <PUBCHEM_SHAPE_VOLUME>
251.6

> <PUBCHEM_COORDINATE_TYPE>
2
5
10

$$$$

