5360001
  -OEChem-07051212493D

 21 22  0     0  0  0  0  0  0999 V2000
   -1.1178   -2.9248    0.0010 O   0  0  0  0  0  0  0  0  0  0  0  0
    3.5584    0.8736   -0.0004 O   0  0  0  0  0  0  0  0  0  0  0  0
   -0.3211   -1.7867   -0.0003 N   0  0  0  0  0  0  0  0  0  0  0  0
    2.2806    1.4317   -0.0007 N   0  0  0  0  0  0  0  0  0  0  0  0
   -0.0685    0.6523    0.0003 C   0  0  0  0  0  0  0  0  0  0  0  0
   -0.9010   -0.4919   -0.0004 C   0  0  0  0  0  0  0  0  0  0  0  0
    1.4179    0.4643    0.0003 C   0  0  0  0  0  0  0  0  0  0  0  0
   -0.6412    1.9310    0.0011 C   0  0  0  0  0  0  0  0  0  0  0  0
   -2.2947   -0.3193   -0.0013 C   0  0  0  0  0  0  0  0  0  0  0  0
    1.9277   -0.9335    0.0003 C   0  0  0  0  0  0  0  0  0  0  0  0
    1.0429   -1.9335   -0.0001 C   0  0  0  0  0  0  0  0  0  0  0  0
   -2.0291    2.0787    0.0007 C   0  0  0  0  0  0  0  0  0  0  0  0
   -2.8539    0.9581   -0.0007 C   0  0  0  0  0  0  0  0  0  0  0  0
   -0.0186    2.8217    0.0019 H   0  0  0  0  0  0  0  0  0  0  0  0
   -2.9628   -1.1770   -0.0022 H   0  0  0  0  0  0  0  0  0  0  0  0
    2.9779   -1.1958    0.0006 H   0  0  0  0  0  0  0  0  0  0  0  0
    1.3717   -2.9673    0.0001 H   0  0  0  0  0  0  0  0  0  0  0  0
   -2.4665    3.0731    0.0012 H   0  0  0  0  0  0  0  0  0  0  0  0
   -3.9333    1.0780   -0.0013 H   0  0  0  0  0  0  0  0  0  0  0  0
   -1.2418   -3.0825    0.9529 H   0  0  0  0  0  0  0  0  0  0  0  0
    4.1192    1.6676   -0.0012 H   0  0  0  0  0  0  0  0  0  0  0  0
  1  3  1  0  0  0  0
  1 20  1  0  0  0  0
  2  4  1  0  0  0  0
  2 21  1  0  0  0  0
  3  6  1  0  0  0  0
  3 11  1  0  0  0  0
  4  7  2  0  0  0  0
  5  6  1  0  0  0  0
  5  7  1  0  0  0  0
  5  8  2  0  0  0  0
  6  9  2  0  0  0  0
  7 10  1  0  0  0  0
  8 12  1  0  0  0  0
  8 14  1  0  0  0  0
  9 13  1  0  0  0  0
  9 15  1  0  0  0  0
 10 11  2  0  0  0  0
 10 16  1  0  0  0  0
 11 17  1  0  0  0  0
 12 13  2  0  0  0  0
 12 18  1  0  0  0  0
 13 19  1  0  0  0  0
M  END
> <PUBCHEM_COMPOUND_CID>
5360001

> <PUBCHEM_CONFORMER_RMSD>
0.4

> <PUBCHEM_CONFORMER_DIVERSEORDER>
1

> <PUBCHEM_MMFF94_PARTIAL_CHARGES>
21
1 -0.38
10 -0.14
11 -0.05
12 -0.15
13 -0.15
14 0.15
15 0.15
16 0.15
17 0.15
18 0.15
19 0.15
2 -0.34
20 0.4
21 0.4
3 -0.22
4 -0.51
5 0.09
6 0.1
7 0.35
8 -0.15
9 -0.15

> <PUBCHEM_EFFECTIVE_ROTOR_COUNT>
0

> <PUBCHEM_PHARMACOPHORE_FEATURES>
5
1 1 anion
1 2 anion
1 4 acceptor
6 3 5 6 7 10 11 rings
6 5 6 8 9 12 13 rings

> <PUBCHEM_HEAVY_ATOM_COUNT>
13

> <PUBCHEM_ATOM_DEF_STEREO_COUNT>
0

> <PUBCHEM_ATOM_UDEF_STEREO_COUNT>
0

> <PUBCHEM_BOND_DEF_STEREO_COUNT>
1

> <PUBCHEM_BOND_UDEF_STEREO_COUNT>
0

> <PUBCHEM_ISOTOPIC_ATOM_COUNT>
0

> <PUBCHEM_COMPONENT_COUNT>
1

> <PUBCHEM_CACTVS_TAUTO_COUNT>
2

> <PUBCHEM_CONFORMER_ID>
0051C98100000001

> <PUBCHEM_MMFF94_ENERGY>
41.7507

> <PUBCHEM_FEATURE_SELFOVERLAP>
25.394

> <PUBCHEM_SHAPE_FINGERPRINT>
1 1 18122626316785109991
10967382 1 18410855511688907333
12423570 1 7876775231376073506
12524768 44 17983009252464506957
13380535 76 18409172129596421790
13897977 150 18268149949402710077
14325111 11 18338517546460141568
14648413 74 17836363022838941425
15775835 57 18333728056777314801
16945 1 18338516343884850116
17990270 104 17762339514947978419
193761 8 18410575101964787078
19973954 147 18122061167861362345
20510252 161 18046905979222388032
20871998 184 18044932372687520806
21040471 1 18410856559745291104
21501502 16 18265899249000289345
22802520 49 18116129135336783278
2334 1 18410856602710983201
23402539 116 18263094231423107247
23463225 33 18198628924484355706
23552423 10 18050288360378062421
23559900 14 17757544536909871574
241688 4 16392680225121219147
2748010 2 18340200907536518861
5084963 1 17969790871892923539
528886 8 18410580590953785225
54173680 148 18267866069165179394
66348 1 18267864063251551509
7364860 26 18046909556650485966

> <PUBCHEM_SHAPE_MULTIPOLES>
245.83
3.93
2.65
0.59
0.49
1.3
0
-1.84
0
0.17
0
-0.04
-0.01
0

> <PUBCHEM_SHAPE_SELFOVERLAP>
531.441

> <PUBCHEM_SHAPE_VOLUME>
134

> <PUBCHEM_COORDINATE_TYPE>
2
5
10

$$$$

