34256
  -OEChem-07051213012D

 28 27  0     0  0  0  0  0  0999 V2000
    4.5981   -0.9330    0.0000 O   0  0  0  0  0  0  0  0  0  0  0  0
    2.8660    0.0670    0.0000 N   0  3  0  0  0  0  0  0  0  0  0  0
    3.7320    0.5670    0.0000 C   0  0  0  0  0  0  0  0  0  0  0  0
    2.0000   -0.4330    0.0000 C   0  0  0  0  0  0  0  0  0  0  0  0
    2.3660    0.9330    0.0000 C   0  0  0  0  0  0  0  0  0  0  0  0
    3.3660   -0.7990    0.0000 C   0  0  0  0  0  0  0  0  0  0  0  0
    4.5981    0.0670    0.0000 C   0  0  0  0  0  0  0  0  0  0  0  0
    5.4641    0.5670    0.0000 C   0  0  0  0  0  0  0  0  0  0  0  0
    6.3301    0.0670    0.0000 C   0  0  0  0  0  0  0  0  0  0  0  0
    7.1962    0.5670    0.0000 C   0  0  0  0  0  0  0  0  0  0  0  0
    4.1306    1.0419    0.0000 H   0  0  0  0  0  0  0  0  0  0  0  0
    3.3335    1.0419    0.0000 H   0  0  0  0  0  0  0  0  0  0  0  0
    2.8291   -1.1090    0.0000 H   0  0  0  0  0  0  0  0  0  0  0  0
    3.6760   -1.3360    0.0000 H   0  0  0  0  0  0  0  0  0  0  0  0
    3.9030   -0.4890    0.0000 H   0  0  0  0  0  0  0  0  0  0  0  0
    2.9030    1.2430    0.0000 H   0  0  0  0  0  0  0  0  0  0  0  0
    2.0560    1.4700    0.0000 H   0  0  0  0  0  0  0  0  0  0  0  0
    1.8291    0.6230    0.0000 H   0  0  0  0  0  0  0  0  0  0  0  0
    1.6900    0.1039    0.0000 H   0  0  0  0  0  0  0  0  0  0  0  0
    1.4631   -0.7430    0.0000 H   0  0  0  0  0  0  0  0  0  0  0  0
    2.3100   -0.9699    0.0000 H   0  0  0  0  0  0  0  0  0  0  0  0
    5.8626    1.0419    0.0000 H   0  0  0  0  0  0  0  0  0  0  0  0
    5.0656    1.0419    0.0000 H   0  0  0  0  0  0  0  0  0  0  0  0
    5.9316   -0.4080    0.0000 H   0  0  0  0  0  0  0  0  0  0  0  0
    6.7287   -0.4080    0.0000 H   0  0  0  0  0  0  0  0  0  0  0  0
    7.5062    0.0301    0.0000 H   0  0  0  0  0  0  0  0  0  0  0  0
    7.7331    0.8770    0.0000 H   0  0  0  0  0  0  0  0  0  0  0  0
    6.8862    1.1039    0.0000 H   0  0  0  0  0  0  0  0  0  0  0  0
  1  7  2  0  0  0  0
  2  3  1  0  0  0  0
  2  4  1  0  0  0  0
  2  5  1  0  0  0  0
  2  6  1  0  0  0  0
  3  7  1  0  0  0  0
  3 11  1  0  0  0  0
  3 12  1  0  0  0  0
  4 19  1  0  0  0  0
  4 20  1  0  0  0  0
  4 21  1  0  0  0  0
  5 16  1  0  0  0  0
  5 17  1  0  0  0  0
  5 18  1  0  0  0  0
  6 13  1  0  0  0  0
  6 14  1  0  0  0  0
  6 15  1  0  0  0  0
  7  8  1  0  0  0  0
  8  9  1  0  0  0  0
  8 22  1  0  0  0  0
  8 23  1  0  0  0  0
  9 10  1  0  0  0  0
  9 24  1  0  0  0  0
  9 25  1  0  0  0  0
 10 26  1  0  0  0  0
 10 27  1  0  0  0  0
 10 28  1  0  0  0  0
M  CHG  1   2   1
M  END
> <PUBCHEM_COMPOUND_CID>
34256

> <PUBCHEM_COMPOUND_CANONICALIZED>
1

> <PUBCHEM_CACTVS_COMPLEXITY>
113

> <PUBCHEM_CACTVS_HBOND_ACCEPTOR>
1

> <PUBCHEM_CACTVS_HBOND_DONOR>
0

> <PUBCHEM_CACTVS_ROTATABLE_BOND>
4

> <PUBCHEM_CACTVS_SUBSKEYS>
AAADceByIAAAAAAAAAAAAAAAAAAAAAAAAAAAAAAAAAAAAAAAAAAAHgAAAAAACATBgAQCAAMAAAAIAIAQAAAAAAAAAAAAAAGIAAAAABIAgCAEAAAAAAAAAAAQAAAAAAAAAAAAAAAAAAAAAAAAAAAAAAAAAA==

> <PUBCHEM_IUPAC_OPENEYE_NAME>
trimethyl(2-oxopentyl)ammonium

> <PUBCHEM_IUPAC_CAS_NAME>
trimethyl(2-oxopentyl)ammonium

> <PUBCHEM_IUPAC_NAME>
trimethyl(2-oxopentyl)azanium

> <PUBCHEM_IUPAC_SYSTEMATIC_NAME>
trimethyl(2-oxidanylidenepentyl)azanium

> <PUBCHEM_IUPAC_TRADITIONAL_NAME>
2-ketopentyl(trimethyl)ammonium

> <PUBCHEM_IUPAC_INCHI>
InChI=1S/C8H18NO/c1-5-6-8(10)7-9(2,3)4/h5-7H2,1-4H3/q+1

> <PUBCHEM_IUPAC_INCHIKEY>
NFIMAPQYTHEQEY-UHFFFAOYSA-N

> <PUBCHEM_XLOGP3_AA>
0.9

> <PUBCHEM_EXACT_MASS>
144.138839

> <PUBCHEM_MOLECULAR_FORMULA>
C8H18NO+

> <PUBCHEM_MOLECULAR_WEIGHT>
144.23462

> <PUBCHEM_OPENEYE_CAN_SMILES>
CCCC(=O)C[N+](C)(C)C

> <PUBCHEM_OPENEYE_ISO_SMILES>
CCCC(=O)C[N+](C)(C)C

> <PUBCHEM_CACTVS_TPSA>
17.1

> <PUBCHEM_MONOISOTOPIC_WEIGHT>
144.138839

> <PUBCHEM_TOTAL_CHARGE>
1

> <PUBCHEM_HEAVY_ATOM_COUNT>
10

> <PUBCHEM_ATOM_DEF_STEREO_COUNT>
0

> <PUBCHEM_ATOM_UDEF_STEREO_COUNT>
0

> <PUBCHEM_BOND_DEF_STEREO_COUNT>
0

> <PUBCHEM_BOND_UDEF_STEREO_COUNT>
0

> <PUBCHEM_ISOTOPIC_ATOM_COUNT>
0

> <PUBCHEM_COMPONENT_COUNT>
1

> <PUBCHEM_CACTVS_TAUTO_COUNT>
3

> <PUBCHEM_COORDINATE_TYPE>
1
5
255

$$$$

