13922653
  -OEChem-07051213102D

 39 40  0     1  0  0  0  0  0999 V2000
    2.0000   -2.0002    0.0000 O   0  0  0  0  0  0  0  0  0  0  0  0
    2.0003    2.0002    0.0000 O   0  0  0  0  0  0  0  0  0  0  0  0
    2.8663   -1.4998    0.0000 C   0  0  2  0  0  0  0  0  0  0  0  0
    2.0003   -0.9998    0.0000 C   0  0  2  0  0  0  0  0  0  0  0  0
    3.7323   -0.9998    0.0000 C   0  0  0  0  0  0  0  0  0  0  0  0
    2.0003    0.0002    0.0000 C   0  0  0  0  0  0  0  0  0  0  0  0
    3.7323   -1.9998    0.0000 C   0  0  0  0  0  0  0  0  0  0  0  0
    3.7323    0.0002    0.0000 C   0  0  0  0  0  0  0  0  0  0  0  0
    2.8663    0.5002    0.0000 C   0  0  0  0  0  0  0  0  0  0  0  0
    4.5983    0.5002    0.0000 C   0  0  0  0  0  0  0  0  0  0  0  0
    2.8663    1.5002    0.0000 C   0  0  0  0  0  0  0  0  0  0  0  0
    3.3663   -0.3658    0.0000 C   0  0  0  0  0  0  0  0  0  0  0  0
    3.7323    2.0002    0.0000 C   0  0  0  0  0  0  0  0  0  0  0  0
    4.5983    1.5002    0.0000 C   0  0  0  0  0  0  0  0  0  0  0  0
    4.3663   -0.3658    0.0000 C   0  0  0  0  0  0  0  0  0  0  0  0
    2.3815   -0.5394    0.0000 C   0  0  0  0  0  0  0  0  0  0  0  0
    5.4644    2.0002    0.0000 C   0  0  0  0  0  0  0  0  0  0  0  0
    1.1503   -0.9997    0.0000 H   0  0  0  0  0  0  0  0  0  0  0  0
    3.9444   -1.5824    0.0000 H   0  0  0  0  0  0  0  0  0  0  0  0
    4.3429   -0.8921    0.0000 H   0  0  0  0  0  0  0  0  0  0  0  0
    1.7882    0.5828    0.0000 H   0  0  0  0  0  0  0  0  0  0  0  0
    1.3897   -0.1074    0.0000 H   0  0  0  0  0  0  0  0  0  0  0  0
    3.4223   -2.5367    0.0000 H   0  0  0  0  0  0  0  0  0  0  0  0
    4.2692   -2.3098    0.0000 H   0  0  0  0  0  0  0  0  0  0  0  0
    4.0423   -1.4628    0.0000 H   0  0  0  0  0  0  0  0  0  0  0  0
    3.5202    0.5828    0.0000 H   0  0  0  0  0  0  0  0  0  0  0  0
    3.1217   -0.1074    0.0000 H   0  0  0  0  0  0  0  0  0  0  0  0
    5.1353    0.1902    0.0000 H   0  0  0  0  0  0  0  0  0  0  0  0
    4.1308    2.4752    0.0000 H   0  0  0  0  0  0  0  0  0  0  0  0
    3.3338    2.4752    0.0000 H   0  0  0  0  0  0  0  0  0  0  0  0
    2.2738    0.0712    0.0000 H   0  0  0  0  0  0  0  0  0  0  0  0
    1.7709   -0.6471    0.0000 H   0  0  0  0  0  0  0  0  0  0  0  0
    2.4891   -1.1500    0.0000 H   0  0  0  0  0  0  0  0  0  0  0  0
    4.3663   -0.9858    0.0000 H   0  0  0  0  0  0  0  0  0  0  0  0
    4.9863   -0.3658    0.0000 H   0  0  0  0  0  0  0  0  0  0  0  0
    4.3663    0.2542    0.0000 H   0  0  0  0  0  0  0  0  0  0  0  0
    5.7744    1.4633    0.0000 H   0  0  0  0  0  0  0  0  0  0  0  0
    6.0013    2.3102    0.0000 H   0  0  0  0  0  0  0  0  0  0  0  0
    5.1544    2.5372    0.0000 H   0  0  0  0  0  0  0  0  0  0  0  0
  1  3  1  0  0  0  0
  1  4  1  0  0  0  0
  2 11  2  0  0  0  0
  3  4  1  0  0  0  0
  3  5  1  0  0  0  0
  3  7  1  1  0  0  0
  4  6  1  0  0  0  0
  4 18  1  6  0  0  0
  5  8  1  0  0  0  0
  5 19  1  0  0  0  0
  5 20  1  0  0  0  0
  6  9  1  0  0  0  0
  6 21  1  0  0  0  0
  6 22  1  0  0  0  0
  7 23  1  0  0  0  0
  7 24  1  0  0  0  0
  7 25  1  0  0  0  0
  8 10  1  0  0  0  0
  8 26  1  0  0  0  0
  8 27  1  0  0  0  0
  9 11  1  0  0  0  0
  9 12  2  0  0  0  0
 10 14  2  0  0  0  0
 10 28  1  0  0  0  0
 11 13  1  0  0  0  0
 12 15  1  0  0  0  0
 12 16  1  0  0  0  0
 13 14  1  0  0  0  0
 13 29  1  0  0  0  0
 13 30  1  0  0  0  0
 14 17  1  0  0  0  0
 15 34  1  0  0  0  0
 15 35  1  0  0  0  0
 15 36  1  0  0  0  0
 16 31  1  0  0  0  0
 16 32  1  0  0  0  0
 16 33  1  0  0  0  0
 17 37  1  0  0  0  0
 17 38  1  0  0  0  0
 17 39  1  0  0  0  0
M  END
> <PUBCHEM_COMPOUND_CID>
13922653

> <PUBCHEM_COMPOUND_CANONICALIZED>
1

> <PUBCHEM_CACTVS_COMPLEXITY>
399

> <PUBCHEM_CACTVS_HBOND_ACCEPTOR>
2

> <PUBCHEM_CACTVS_HBOND_DONOR>
0

> <PUBCHEM_CACTVS_ROTATABLE_BOND>
0

> <PUBCHEM_CACTVS_SUBSKEYS>
AAADceBwMAAAAAAAAAAAAAAAEgAAAAAAAAAAAAAAAAAAAACAAAAAGgAAAAAADFSggAICAAAABACIAqBSAAAAAAAgAAAACAEAAEgAABIAAQACAAAEwAAIAQOKzODOAAAAAAAAAAAAAAAAAAAAAAAAAAAAAA==

> <PUBCHEM_IUPAC_OPENEYE_NAME>
(1S,6Z,10S)-3-isopropylidene-6,10-dimethyl-11-oxabicyclo[8.1.0]undec-6-en-4-one

> <PUBCHEM_IUPAC_CAS_NAME>
(1S,6Z,10S)-6,10-dimethyl-3-propan-2-ylidene-11-oxabicyclo[8.1.0]undec-6-en-4-one

> <PUBCHEM_IUPAC_NAME>
(1S,6Z,10S)-6,10-dimethyl-3-propan-2-ylidene-11-oxabicyclo[8.1.0]undec-6-en-4-one

> <PUBCHEM_IUPAC_SYSTEMATIC_NAME>
(1S,6Z,10S)-6,10-dimethyl-3-propan-2-ylidene-11-oxabicyclo[8.1.0]undec-6-en-4-one

> <PUBCHEM_IUPAC_TRADITIONAL_NAME>
(1S,6Z,10S)-3-isopropylidene-6,10-dimethyl-11-oxabicyclo[8.1.0]undec-6-en-4-one

> <PUBCHEM_IUPAC_INCHI>
InChI=1S/C15H22O2/c1-10(2)12-9-14-15(4,17-14)7-5-6-11(3)8-13(12)16/h6,14H,5,7-9H2,1-4H3/b11-6-/t14-,15-/m0/s1

> <PUBCHEM_IUPAC_INCHIKEY>
DWGVRYKQVZGSIB-ZRDDCUNGSA-N

> <PUBCHEM_XLOGP3_AA>
2.8

> <PUBCHEM_EXACT_MASS>
234.16198

> <PUBCHEM_MOLECULAR_FORMULA>
C15H22O2

> <PUBCHEM_MOLECULAR_WEIGHT>
234.33398

> <PUBCHEM_OPENEYE_CAN_SMILES>
CC1=CCCC2(C(O2)CC(=C(C)C)C(=O)C1)C

> <PUBCHEM_OPENEYE_ISO_SMILES>
C/C/1=C/CC[C@]2([C@@H](O2)CC(=C(C)C)C(=O)C1)C

> <PUBCHEM_CACTVS_TPSA>
29.6

> <PUBCHEM_MONOISOTOPIC_WEIGHT>
234.16198

> <PUBCHEM_TOTAL_CHARGE>
0

> <PUBCHEM_HEAVY_ATOM_COUNT>
17

> <PUBCHEM_ATOM_DEF_STEREO_COUNT>
2

> <PUBCHEM_ATOM_UDEF_STEREO_COUNT>
0

> <PUBCHEM_BOND_DEF_STEREO_COUNT>
1

> <PUBCHEM_BOND_UDEF_STEREO_COUNT>
0

> <PUBCHEM_ISOTOPIC_ATOM_COUNT>
0

> <PUBCHEM_COMPONENT_COUNT>
1

> <PUBCHEM_CACTVS_TAUTO_COUNT>
13

> <PUBCHEM_COORDINATE_TYPE>
1
5
255

> <PUBCHEM_BONDANNOTATIONS>
3  7  5
4  18  6

$$$$

