7846932
  -OEChem-06241222473D

 46 48  0     0  0  0  0  0  0999 V2000
    0.9350    0.3715    2.5674 Cl  0  0  0  0  0  0  0  0  0  0  0  0
   -2.1606   -2.2142    1.4703 S   0  0  0  0  0  0  0  0  0  0  0  0
   -2.3898    1.6338    0.3252 O   0  0  0  0  0  0  0  0  0  0  0  0
   -4.3238    2.1368   -0.8275 O   0  0  0  0  0  0  0  0  0  0  0  0
    0.3565    3.5890    0.2506 O   0  0  0  0  0  0  0  0  0  0  0  0
    0.3782    1.2932   -0.2599 N   0  0  0  0  0  0  0  0  0  0  0  0
   -2.3827   -1.2909   -0.9276 N   0  0  0  0  0  0  0  0  0  0  0  0
   -4.3645   -0.8874    0.4903 C   0  0  0  0  0  0  0  0  0  0  0  0
   -4.3504    0.5577    1.0223 C   0  0  0  0  0  0  0  0  0  0  0  0
   -3.0055   -1.4059    0.2221 C   0  0  0  0  0  0  0  0  0  0  0  0
    1.7037    0.9292    0.0064 C   0  0  0  0  0  0  0  0  0  0  0  0
    2.6540    1.0098   -1.0116 C   0  0  0  0  0  0  0  0  0  0  0  0
   -0.8267   -2.4474    0.4030 C   0  0  0  0  0  0  0  0  0  0  0  0
   -1.1315   -1.8836   -0.8396 C   0  0  0  0  0  0  0  0  0  0  0  0
    4.3513    0.2078    0.5091 C   0  0  0  0  0  0  0  0  0  0  0  0
    3.9777    0.6490   -0.7603 C   0  0  0  0  0  0  0  0  0  0  0  0
    2.0774    0.4878    1.2758 C   0  0  0  0  0  0  0  0  0  0  0  0
    3.4012    0.1271    1.5271 C   0  0  0  0  0  0  0  0  0  0  0  0
   -3.7251    1.5360    0.0540 C   0  0  0  0  0  0  0  0  0  0  0  0
    2.2861    1.4775   -2.3827 C   0  0  0  0  0  0  0  0  0  0  0  0
   -1.6538    2.5279   -0.5159 C   0  0  0  0  0  0  0  0  0  0  0  0
    0.4010   -3.0835    0.6476 C   0  0  0  0  0  0  0  0  0  0  0  0
   -0.1719   -1.9606   -1.8722 C   0  0  0  0  0  0  0  0  0  0  0  0
   -0.1879    2.5558   -0.1244 C   0  0  0  0  0  0  0  0  0  0  0  0
    5.7667   -0.1782    0.7776 C   0  0  0  0  0  0  0  0  0  0  0  0
    1.3330   -3.1459   -0.3913 C   0  0  0  0  0  0  0  0  0  0  0  0
    1.0524   -2.5923   -1.6357 C   0  0  0  0  0  0  0  0  0  0  0  0
   -4.9403   -0.9158   -0.4437 H   0  0  0  0  0  0  0  0  0  0  0  0
   -4.9007   -1.5273    1.2013 H   0  0  0  0  0  0  0  0  0  0  0  0
   -5.3770    0.8927    1.2122 H   0  0  0  0  0  0  0  0  0  0  0  0
   -3.8284    0.6211    1.9851 H   0  0  0  0  0  0  0  0  0  0  0  0
    4.7228    0.7121   -1.5499 H   0  0  0  0  0  0  0  0  0  0  0  0
    3.6971   -0.2161    2.5160 H   0  0  0  0  0  0  0  0  0  0  0  0
   -0.2724    0.5153   -0.3150 H   0  0  0  0  0  0  0  0  0  0  0  0
    1.4580    0.8843   -2.7847 H   0  0  0  0  0  0  0  0  0  0  0  0
    3.1209    1.3785   -3.0851 H   0  0  0  0  0  0  0  0  0  0  0  0
    1.9977    2.5335   -2.3607 H   0  0  0  0  0  0  0  0  0  0  0  0
   -2.0594    3.5411   -0.4167 H   0  0  0  0  0  0  0  0  0  0  0  0
   -1.7302    2.2047   -1.5608 H   0  0  0  0  0  0  0  0  0  0  0  0
    0.6278   -3.5160    1.6172 H   0  0  0  0  0  0  0  0  0  0  0  0
   -0.3795   -1.5289   -2.8471 H   0  0  0  0  0  0  0  0  0  0  0  0
    6.3353    0.6929    1.1178 H   0  0  0  0  0  0  0  0  0  0  0  0
    5.8253   -0.9573    1.5452 H   0  0  0  0  0  0  0  0  0  0  0  0
    6.2445   -0.5799   -0.1225 H   0  0  0  0  0  0  0  0  0  0  0  0
    2.2906   -3.6312   -0.2222 H   0  0  0  0  0  0  0  0  0  0  0  0
    1.7908   -2.6475   -2.4308 H   0  0  0  0  0  0  0  0  0  0  0  0
  1 17  1  0  0  0  0
  2 10  1  0  0  0  0
  2 13  1  0  0  0  0
  3 19  1  0  0  0  0
  3 21  1  0  0  0  0
  4 19  2  0  0  0  0
  5 24  2  0  0  0  0
  6 11  1  0  0  0  0
  6 24  1  0  0  0  0
  6 34  1  0  0  0  0
  7 10  2  0  0  0  0
  7 14  1  0  0  0  0
  8  9  1  0  0  0  0
  8 10  1  0  0  0  0
  8 28  1  0  0  0  0
  8 29  1  0  0  0  0
  9 19  1  0  0  0  0
  9 30  1  0  0  0  0
  9 31  1  0  0  0  0
 11 12  2  0  0  0  0
 11 17  1  0  0  0  0
 12 16  1  0  0  0  0
 12 20  1  0  0  0  0
 13 14  1  0  0  0  0
 13 22  2  0  0  0  0
 14 23  2  0  0  0  0
 15 16  2  0  0  0  0
 15 18  1  0  0  0  0
 15 25  1  0  0  0  0
 16 32  1  0  0  0  0
 17 18  2  0  0  0  0
 18 33  1  0  0  0  0
 20 35  1  0  0  0  0
 20 36  1  0  0  0  0
 20 37  1  0  0  0  0
 21 24  1  0  0  0  0
 21 38  1  0  0  0  0
 21 39  1  0  0  0  0
 22 26  1  0  0  0  0
 22 40  1  0  0  0  0
 23 27  1  0  0  0  0
 23 41  1  0  0  0  0
 25 42  1  0  0  0  0
 25 43  1  0  0  0  0
 25 44  1  0  0  0  0
 26 27  2  0  0  0  0
 26 45  1  0  0  0  0
 27 46  1  0  0  0  0
M  END
> <PUBCHEM_COMPOUND_CID>
7846932

> <PUBCHEM_CONFORMER_RMSD>
1.2

> <PUBCHEM_CONFORMER_DIVERSEORDER>
1
89
48
184
6
137
93
136
153
124
174
42
127
45
88
17
177
155
120
158
182
146
185
175
140
165
160
85
112
161
55
59
98
96
25
142
5
194
72
168
192
20
151
34
156
150
102
163
186
180
81
92
149
164
143
176
195
117
166
172
145
159
132
179
138
68
2
26
139
46
196
73
131
80
74
191
133
63
181
53
70
119
14
58
82
69
111
40
100
87
190
91
122
30
94
37
171
123
147
114
11
198
108
157
200
189
51
39
121
125
144
29
84
199
19
23
178
83
197
193
8
56
38
24
18
41
22
152
187
101
106
169
188
31
115
75
15
126
128
4
183
118
148
64
43
9
134
60
57
54
170
50
201
3
7
162
16
104
116
97
62
154
71
76
90
67
33
44
47
135
52
109
32
79
61
36
13
141
107
105
12
77
10
27
65
110
49
86
95
21
28
173
129
78
130
99
202
113
167
66
35
103

> <PUBCHEM_MMFF94_PARTIAL_CHARGES>
34
1 -0.18
10 0.2
11 0.12
12 -0.14
13 0.04
14 0.23
15 -0.14
16 -0.15
17 0.18
18 -0.15
19 0.66
2 -0.08
20 0.14
21 0.34
22 -0.15
23 -0.15
24 0.57
25 0.14
26 -0.15
27 -0.15
3 -0.43
32 0.15
33 0.15
34 0.37
4 -0.57
40 0.15
41 0.15
45 0.15
46 0.15
5 -0.57
6 -0.55
7 -0.57
8 0.18
9 0.06

> <PUBCHEM_EFFECTIVE_ROTOR_COUNT>
8

> <PUBCHEM_PHARMACOPHORE_FEATURES>
7
1 4 acceptor
1 5 acceptor
1 6 donor
1 7 acceptor
5 2 7 10 13 14 rings
6 11 12 15 16 17 18 rings
6 13 14 22 23 26 27 rings

> <PUBCHEM_HEAVY_ATOM_COUNT>
27

> <PUBCHEM_ATOM_DEF_STEREO_COUNT>
0

> <PUBCHEM_ATOM_UDEF_STEREO_COUNT>
0

> <PUBCHEM_BOND_DEF_STEREO_COUNT>
0

> <PUBCHEM_BOND_UDEF_STEREO_COUNT>
0

> <PUBCHEM_ISOTOPIC_ATOM_COUNT>
0

> <PUBCHEM_COMPONENT_COUNT>
1

> <PUBCHEM_CACTVS_TAUTO_COUNT>
4

> <PUBCHEM_CONFORMER_ID>
0077BC1400000001

> <PUBCHEM_MMFF94_ENERGY>
72.7962

> <PUBCHEM_FEATURE_SELFOVERLAP>
35.591

> <PUBCHEM_SHAPE_FINGERPRINT>
10675989 125 16974225050794925061
10759866 29 17844793794712182748
11578080 2 16986323943538883599
12422481 6 18123491607194380898
12467345 10 17846778503378709348
12633257 1 18130503037914499635
12788726 201 18339911637753549620
13140716 1 18264203622051190017
13402501 40 18335982059803474475
13726171 33 17980161298079220125
14251751 93 18342177786330069857
14251764 3 17603867788578243090
14466204 15 18408604747057338056
15274700 242 17844833468137174338
16112460 7 18189036638746595641
16752209 62 18338804407415193999
17093844 170 18266737068223195444
19319366 153 17486205609332489040
20600515 1 18115023000822353440
20691752 17 17915444198855826427
20905425 154 18190172580307425183
238918 7 18260547848698946694
3052486 1 18341322358010126566
3298306 158 18339364162498925565
338550 245 18342734165542691126
35225 105 17975453301210673812
3524813 1 17968097499405892283
513532 50 16299248945562734451
5265222 85 18261668161670423662
7226269 152 17894914018957719706

> <PUBCHEM_SHAPE_MULTIPOLES>
533.8
8.17
3.89
1.85
1.78
0.43
-0.03
-2.17
-1.76
-1.73
0.82
1
0.26
0.17

> <PUBCHEM_SHAPE_SELFOVERLAP>
1121.159

> <PUBCHEM_SHAPE_VOLUME>
303.1

> <PUBCHEM_COORDINATE_TYPE>
2
5
10

$$$$

