5282225
  -OEChem-07051213033D

 40 40  0     1  0  0  0  0  0999 V2000
   -0.0818   -1.1830    1.4270 O   0  0  0  0  0  0  0  0  0  0  0  0
   -4.3903    1.1029   -0.9577 O   0  0  0  0  0  0  0  0  0  0  0  0
    5.7489   -0.9486    0.2856 O   0  0  0  0  0  0  0  0  0  0  0  0
   -1.6172   -1.2261   -0.4698 C   0  0  0  0  0  0  0  0  0  0  0  0
   -0.7512   -0.3272    0.4902 C   0  0  1  0  0  0  0  0  0  0  0  0
   -2.5101   -0.3293   -1.3522 C   0  0  0  0  0  0  0  0  0  0  0  0
   -1.6159    0.6873    1.2397 C   0  0  0  0  0  0  0  0  0  0  0  0
   -2.5188   -2.2105    0.3257 C   0  0  0  0  0  0  0  0  0  0  0  0
   -0.7351   -2.1031   -1.3902 C   0  0  0  0  0  0  0  0  0  0  0  0
   -3.3252    0.6518   -0.5385 C   0  0  0  0  0  0  0  0  0  0  0  0
    0.3394    0.4140   -0.2441 C   0  0  0  0  0  0  0  0  0  0  0  0
   -2.7956    1.1212    0.7647 C   0  0  0  0  0  0  0  0  0  0  0  0
   -1.0854    1.2366    2.5395 C   0  0  0  0  0  0  0  0  0  0  0  0
    1.6489    0.2113   -0.0264 C   0  0  0  0  0  0  0  0  0  0  0  0
    2.7651    0.8874   -0.6920 C   0  0  0  0  0  0  0  0  0  0  0  0
    2.4292    1.9214   -1.7348 C   0  0  0  0  0  0  0  0  0  0  0  0
    4.0237    0.5502   -0.3401 C   0  0  0  0  0  0  0  0  0  0  0  0
    4.4716   -0.4561    0.6735 C   0  0  0  0  0  0  0  0  0  0  0  0
   -3.2075   -0.9485   -1.9304 H   0  0  0  0  0  0  0  0  0  0  0  0
   -1.9166    0.2492   -2.0695 H   0  0  0  0  0  0  0  0  0  0  0  0
   -3.1515   -1.7017    1.0592 H   0  0  0  0  0  0  0  0  0  0  0  0
   -3.1835   -2.7638   -0.3485 H   0  0  0  0  0  0  0  0  0  0  0  0
   -1.9209   -2.9539    0.8646 H   0  0  0  0  0  0  0  0  0  0  0  0
   -0.0497   -2.7289   -0.8082 H   0  0  0  0  0  0  0  0  0  0  0  0
   -1.3518   -2.7709   -2.0034 H   0  0  0  0  0  0  0  0  0  0  0  0
   -0.1379   -1.5001   -2.0824 H   0  0  0  0  0  0  0  0  0  0  0  0
    0.0185    1.1400   -0.9867 H   0  0  0  0  0  0  0  0  0  0  0  0
   -3.3959    1.8481    1.3015 H   0  0  0  0  0  0  0  0  0  0  0  0
   -0.7296   -1.4942    2.0815 H   0  0  0  0  0  0  0  0  0  0  0  0
   -1.7285    2.0248    2.9458 H   0  0  0  0  0  0  0  0  0  0  0  0
   -0.0902    1.6699    2.3988 H   0  0  0  0  0  0  0  0  0  0  0  0
   -1.0202    0.4474    3.2949 H   0  0  0  0  0  0  0  0  0  0  0  0
    1.9296   -0.5108    0.7305 H   0  0  0  0  0  0  0  0  0  0  0  0
    1.8483    2.7419   -1.3001 H   0  0  0  0  0  0  0  0  0  0  0  0
    3.3358    2.3601   -2.1662 H   0  0  0  0  0  0  0  0  0  0  0  0
    1.8618    1.4764   -2.5591 H   0  0  0  0  0  0  0  0  0  0  0  0
    4.8315    1.0911   -0.8334 H   0  0  0  0  0  0  0  0  0  0  0  0
    4.5744    0.0189    1.6536 H   0  0  0  0  0  0  0  0  0  0  0  0
    3.8119   -1.3231    0.7455 H   0  0  0  0  0  0  0  0  0  0  0  0
    6.0342   -1.5753    0.9725 H   0  0  0  0  0  0  0  0  0  0  0  0
  1  5  1  0  0  0  0
  1 29  1  0  0  0  0
  2 10  2  0  0  0  0
  3 18  1  0  0  0  0
  3 40  1  0  0  0  0
  4  5  1  0  0  0  0
  4  6  1  0  0  0  0
  4  8  1  0  0  0  0
  4  9  1  0  0  0  0
  5  7  1  0  0  0  0
  5 11  1  0  0  0  0
  6 10  1  0  0  0  0
  6 19  1  0  0  0  0
  6 20  1  0  0  0  0
  7 12  2  0  0  0  0
  7 13  1  0  0  0  0
  8 21  1  0  0  0  0
  8 22  1  0  0  0  0
  8 23  1  0  0  0  0
  9 24  1  0  0  0  0
  9 25  1  0  0  0  0
  9 26  1  0  0  0  0
 10 12  1  0  0  0  0
 11 14  2  0  0  0  0
 11 27  1  0  0  0  0
 12 28  1  0  0  0  0
 13 30  1  0  0  0  0
 13 31  1  0  0  0  0
 13 32  1  0  0  0  0
 14 15  1  0  0  0  0
 14 33  1  0  0  0  0
 15 16  1  0  0  0  0
 15 17  2  0  0  0  0
 16 34  1  0  0  0  0
 16 35  1  0  0  0  0
 16 36  1  0  0  0  0
 17 18  1  0  0  0  0
 17 37  1  0  0  0  0
 18 38  1  0  0  0  0
 18 39  1  0  0  0  0
M  END
> <PUBCHEM_COMPOUND_CID>
5282225

> <PUBCHEM_CONFORMER_RMSD>
0.6

> <PUBCHEM_CONFORMER_DIVERSEORDER>
1
25
20
19
13
26
8
14
18
16
7
5
10
2
12
23
27
11
22
6
24
21
9
17
3
15
4

> <PUBCHEM_MMFF94_PARTIAL_CHARGES>
21
1 -0.68
10 0.49
11 -0.29
12 -0.14
13 0.14
14 -0.15
15 -0.14
16 0.14
17 -0.29
18 0.42
2 -0.57
27 0.15
28 0.15
29 0.4
3 -0.68
33 0.15
37 0.15
40 0.4
5 0.56
6 0.06
7 -0.28

> <PUBCHEM_EFFECTIVE_ROTOR_COUNT>
3.6

> <PUBCHEM_PHARMACOPHORE_FEATURES>
8
1 1 acceptor
1 1 donor
1 16 hydrophobe
1 2 acceptor
1 3 acceptor
1 3 donor
3 4 8 9 hydrophobe
6 4 5 6 7 10 12 rings

> <PUBCHEM_HEAVY_ATOM_COUNT>
18

> <PUBCHEM_ATOM_DEF_STEREO_COUNT>
1

> <PUBCHEM_ATOM_UDEF_STEREO_COUNT>
0

> <PUBCHEM_BOND_DEF_STEREO_COUNT>
2

> <PUBCHEM_BOND_UDEF_STEREO_COUNT>
0

> <PUBCHEM_ISOTOPIC_ATOM_COUNT>
0

> <PUBCHEM_COMPONENT_COUNT>
1

> <PUBCHEM_CACTVS_TAUTO_COUNT>
5

> <PUBCHEM_CONFORMER_ID>
005099B100000001

> <PUBCHEM_MMFF94_ENERGY>
43.2858

> <PUBCHEM_FEATURE_SELFOVERLAP>
40.594

> <PUBCHEM_SHAPE_FINGERPRINT>
10062212 137 18411707556171000022
11315181 36 18260266335700039304
12592029 89 18272929461913301803
128620 24 6050442605079605880
12916754 54 17845368856146213718
13024252 1 15698001782670599771
13533116 47 17531251729124055974
14004511 7 18201722851331083148
14943859 89 18202848742558365837
15295992 7 17274814740384406932
15309172 13 13398641536536866585
15375358 24 16515402958727483036
16945 1 18187359913921151913
17349148 13 18113899377237017806
17834072 14 17240489078698019776
18186145 218 17060070202737358100
187816 3 17676212381316567037
192875 21 18187082858292228744
19489759 90 17240486944294173066
19784866 170 12750967688535483447
200 152 17894919516083289500
20279233 1 16515399660261132588
20645476 183 18341905090725779303
20645477 70 17775003492967615746
21339142 149 16950832683030206033
21486144 27 16343423891135520420
2306618 200 18408600370623086385
23402539 116 17313109686750063401
23419403 2 14925941145569775991
23557571 272 15864339264532694888
23559900 14 17677061161686337992
2748010 2 17535214180257143065
2838139 119 17917162705434290773
347723 3 18187651331741975377
559249 180 18341338863675498306
5706482 22 18260259772262283467
633830 44 16487256543567575932
6913067 236 14779562205017968660
74978 22 17774154596591380724
7615 1 18265038164229795228
81228 2 16734082644279466016
9709674 26 16805592707707684054

> <PUBCHEM_SHAPE_MULTIPOLES>
352.82
8.13
1.92
1.72
10.37
0.67
-0.04
0.04
0.75
-1.28
-0.23
-0.07
-0.65
-0.84

> <PUBCHEM_SHAPE_SELFOVERLAP>
714.673

> <PUBCHEM_SHAPE_VOLUME>
205.2

> <PUBCHEM_COORDINATE_TYPE>
2
5
10

$$$$

