440565
  -OEChem-07051212503D

 43 42  0     1  0  0  0  0  0999 V2000
   -0.1544    0.1361   -2.1658 S   0  0  0  0  0  0  0  0  0  0  0  0
    2.6471    0.2318    0.7165 S   0  0  0  0  0  0  0  0  0  0  0  0
    4.7624    1.2017   -0.5290 O   0  0  0  0  0  0  0  0  0  0  0  0
   -7.0592    0.6757    0.4253 O   0  0  0  0  0  0  0  0  0  0  0  0
   -7.6270   -1.5544    0.4252 N   0  0  0  0  0  0  0  0  0  0  0  0
   -0.4584    0.6214   -0.4253 C   0  0  2  0  0  0  0  0  0  0  0  0
   -1.9391    0.9966   -0.2115 C   0  0  0  0  0  0  0  0  0  0  0  0
   -2.8799   -0.2120   -0.1118 C   0  0  0  0  0  0  0  0  0  0  0  0
    0.4489    1.8014   -0.0145 C   0  0  0  0  0  0  0  0  0  0  0  0
   -4.3323    0.2349    0.0886 C   0  0  0  0  0  0  0  0  0  0  0  0
    1.9567    1.6238   -0.2244 C   0  0  0  0  0  0  0  0  0  0  0  0
    5.2304   -0.7265    0.8635 C   0  0  2  0  0  0  0  0  0  0  0  0
   -5.2995   -0.9451    0.1684 C   0  0  0  0  0  0  0  0  0  0  0  0
    5.9139   -1.5821   -0.2145 C   0  0  0  0  0  0  0  0  0  0  0  0
    4.3411    0.3367    0.2308 C   0  0  0  0  0  0  0  0  0  0  0  0
    6.2729   -0.0261    1.7341 C   0  0  0  0  0  0  0  0  0  0  0  0
   -6.7370   -0.5075    0.3508 C   0  0  0  0  0  0  0  0  0  0  0  0
    4.9135   -2.3063   -1.1063 C   0  0  0  0  0  0  0  0  0  0  0  0
   -0.2231   -0.2471    0.1989 H   0  0  0  0  0  0  0  0  0  0  0  0
   -2.0280    1.5531    0.7314 H   0  0  0  0  0  0  0  0  0  0  0  0
   -2.2811    1.6805   -0.9991 H   0  0  0  0  0  0  0  0  0  0  0  0
   -2.8129   -0.8175   -1.0226 H   0  0  0  0  0  0  0  0  0  0  0  0
   -2.5725   -0.8497    0.7255 H   0  0  0  0  0  0  0  0  0  0  0  0
    0.2692    2.0314    1.0447 H   0  0  0  0  0  0  0  0  0  0  0  0
    0.1387    2.6997   -0.5663 H   0  0  0  0  0  0  0  0  0  0  0  0
   -4.4073    0.8325    1.0059 H   0  0  0  0  0  0  0  0  0  0  0  0
   -4.6278    0.8927   -0.7386 H   0  0  0  0  0  0  0  0  0  0  0  0
    2.4594    2.5383    0.1105 H   0  0  0  0  0  0  0  0  0  0  0  0
    2.1948    1.5017   -1.2852 H   0  0  0  0  0  0  0  0  0  0  0  0
    4.6374   -1.3867    1.5081 H   0  0  0  0  0  0  0  0  0  0  0  0
   -5.0292   -1.5940    1.0098 H   0  0  0  0  0  0  0  0  0  0  0  0
   -5.2382   -1.5419   -0.7495 H   0  0  0  0  0  0  0  0  0  0  0  0
    6.5581   -0.9575   -0.8456 H   0  0  0  0  0  0  0  0  0  0  0  0
    6.5613   -2.3247    0.2672 H   0  0  0  0  0  0  0  0  0  0  0  0
   -0.4801    1.3151   -2.7159 H   0  0  0  0  0  0  0  0  0  0  0  0
    6.9186    0.6301    1.1399 H   0  0  0  0  0  0  0  0  0  0  0  0
    5.7892    0.5920    2.4985 H   0  0  0  0  0  0  0  0  0  0  0  0
    6.9090   -0.7575    2.2431 H   0  0  0  0  0  0  0  0  0  0  0  0
    4.2331   -2.9243   -0.5120 H   0  0  0  0  0  0  0  0  0  0  0  0
    5.4424   -2.9627   -1.8048 H   0  0  0  0  0  0  0  0  0  0  0  0
    4.3180   -1.6052   -1.6989 H   0  0  0  0  0  0  0  0  0  0  0  0
   -8.6203   -1.3883    0.5480 H   0  0  0  0  0  0  0  0  0  0  0  0
   -7.3300   -2.5228    0.3609 H   0  0  0  0  0  0  0  0  0  0  0  0
  1  6  1  0  0  0  0
  1 35  1  0  0  0  0
  2 11  1  0  0  0  0
  2 15  1  0  0  0  0
  3 15  2  0  0  0  0
  4 17  2  0  0  0  0
  5 17  1  0  0  0  0
  5 42  1  0  0  0  0
  5 43  1  0  0  0  0
  6  7  1  0  0  0  0
  6  9  1  0  0  0  0
  6 19  1  0  0  0  0
  7  8  1  0  0  0  0
  7 20  1  0  0  0  0
  7 21  1  0  0  0  0
  8 10  1  0  0  0  0
  8 22  1  0  0  0  0
  8 23  1  0  0  0  0
  9 11  1  0  0  0  0
  9 24  1  0  0  0  0
  9 25  1  0  0  0  0
 10 13  1  0  0  0  0
 10 26  1  0  0  0  0
 10 27  1  0  0  0  0
 11 28  1  0  0  0  0
 11 29  1  0  0  0  0
 12 14  1  0  0  0  0
 12 15  1  0  0  0  0
 12 16  1  0  0  0  0
 12 30  1  0  0  0  0
 13 17  1  0  0  0  0
 13 31  1  0  0  0  0
 13 32  1  0  0  0  0
 14 18  1  0  0  0  0
 14 33  1  0  0  0  0
 14 34  1  0  0  0  0
 16 36  1  0  0  0  0
 16 37  1  0  0  0  0
 16 38  1  0  0  0  0
 18 39  1  0  0  0  0
 18 40  1  0  0  0  0
 18 41  1  0  0  0  0
M  END
> <PUBCHEM_COMPOUND_CID>
440565

> <PUBCHEM_CONFORMER_RMSD>
1.4

> <PUBCHEM_CONFORMER_DIVERSEORDER>
1
33
32
45
59
6
31
47
24
3
53
16
17
57
51
52
42
46
5
7
8
36
29
28
9
19
14
23
60
55
2
39
49
11
10
20
58
63
18
48
56
21
50
4
13
40
12
37
30
15
41
26
34
35
38
22
44
25
27
43
54
62
61

> <PUBCHEM_MMFF94_PARTIAL_CHARGES>
14
1 -0.41
11 0.23
12 0.06
13 0.06
15 0.65
17 0.57
2 -0.37
3 -0.57
35 0.18
4 -0.57
42 0.37
43 0.37
5 -0.8
6 0.23

> <PUBCHEM_EFFECTIVE_ROTOR_COUNT>
11

> <PUBCHEM_PHARMACOPHORE_FEATURES>
5
1 16 hydrophobe
1 18 hydrophobe
1 4 acceptor
1 5 donor
4 7 8 10 13 hydrophobe

> <PUBCHEM_HEAVY_ATOM_COUNT>
18

> <PUBCHEM_ATOM_DEF_STEREO_COUNT>
0

> <PUBCHEM_ATOM_UDEF_STEREO_COUNT>
2

> <PUBCHEM_BOND_DEF_STEREO_COUNT>
0

> <PUBCHEM_BOND_UDEF_STEREO_COUNT>
0

> <PUBCHEM_ISOTOPIC_ATOM_COUNT>
0

> <PUBCHEM_COMPONENT_COUNT>
1

> <PUBCHEM_CACTVS_TAUTO_COUNT>
2

> <PUBCHEM_CONFORMER_ID>
0006B8F500000001

> <PUBCHEM_MMFF94_ENERGY>
20.8305

> <PUBCHEM_FEATURE_SELFOVERLAP>
25.371

> <PUBCHEM_SHAPE_FINGERPRINT>
10 15 16153429428348195609
10316853 100 18411976971059385342
10638233 991 12535345710139354871
117890 112 6916260745532080288
125118 31 6266630784551081955
12596602 18 17603304877480247994
12714333 28 9007060166847294889
13533116 47 18261110755697205864
13551218 46 18113901593313854022
13668630 136 17775567503767526819
13673619 4 17846784013500263564
13685833 64 18273497866311450817
14123256 10 13398632753249443008
14216079 64 18343585148914387587
14251752 14 17417819469561787853
14251764 18 17894916195841701309
14528608 73 10735876170974286928
14598715 104 6194567637532196011
15003188 100 10735870686554575794
1768 124 18113901550216884311
20157964 124 10087644806053352672
20281389 69 7132441202831530483
20397935 70 17822004337646950678
20735858 18 17022619758990754133
21150785 3 15769770252025934430
21267235 1 18411135866370120294
21637258 2 17846788402898577016
221357 26 12319459904982195854
22224240 67 16443066084810261623
23016692 55 17489586774859366687
23035841 295 17704075092712281059
23424782 7 10303514110231321341
23559900 14 17345470389068429505
2767999 5 7565342032999457338
28498 318 18341897407456191029
3004659 81 18131910468964566564
33532 11 18411700997692784995
3472631 163 10663809789580867384
4072396 5 17240196625658430037
4325135 7 17846778482521071164
465052 167 18408600344636829516
5104073 3 17896044420053579176
5207 217 8934998183526902813

> <PUBCHEM_SHAPE_MULTIPOLES>
361.41
20.94
1.76
1.3
23.97
0.41
-0.42
10.38
7.3
-1.48
-0.34
-1.36
0.12
0.93

> <PUBCHEM_SHAPE_SELFOVERLAP>
654.902

> <PUBCHEM_SHAPE_VOLUME>
232.7

> <PUBCHEM_COORDINATE_TYPE>
2
5
10

$$$$

