47205219
  -OEChem-06241222583D

 33 34  0     0  0  0  0  0  0999 V2000
    1.3718   -2.3421    0.2526 O   0  0  0  0  0  0  0  0  0  0  0  0
   -3.0659    2.4238   -1.2428 O   0  5  0  0  0  0  0  0  0  0  0  0
   -2.6979    2.7172    0.9014 O   0  0  0  0  0  0  0  0  0  0  0  0
    1.6258   -0.4783   -1.1034 N   0  0  0  0  0  0  0  0  0  0  0  0
   -4.5829   -0.0801    0.4846 N   0  0  0  0  0  0  0  0  0  0  0  0
    4.1326    1.3019   -0.3505 N   0  0  0  0  0  0  0  0  0  0  0  0
   -2.7073    1.9935   -0.1217 N   0  3  0  0  0  0  0  0  0  0  0  0
    4.9664    1.6908    0.6290 N   0  0  0  0  0  0  0  0  0  0  0  0
   -0.5223   -1.0020   -0.0871 C   0  0  0  0  0  0  0  0  0  0  0  0
    3.0229   -0.6840   -1.4112 C   0  0  0  0  0  0  0  0  0  0  0  0
   -3.2139   -0.3727    0.2889 C   0  0  0  0  0  0  0  0  0  0  0  0
   -2.2966    0.6358   -0.0065 C   0  0  0  0  0  0  0  0  0  0  0  0
   -0.9508    0.3210   -0.1944 C   0  0  0  0  0  0  0  0  0  0  0  0
    0.8808   -1.3313   -0.2810 C   0  0  0  0  0  0  0  0  0  0  0  0
    3.9226   -0.0452   -0.3931 C   0  0  0  0  0  0  0  0  0  0  0  0
   -1.4397   -2.0104    0.2084 C   0  0  0  0  0  0  0  0  0  0  0  0
   -2.7854   -1.6958    0.3964 C   0  0  0  0  0  0  0  0  0  0  0  0
    4.6716   -0.5743    0.6295 C   0  0  0  0  0  0  0  0  0  0  0  0
    5.2923    0.5404    1.2244 C   0  0  0  0  0  0  0  0  0  0  0  0
   -5.6241   -1.0083    0.1764 C   0  0  0  0  0  0  0  0  0  0  0  0
    3.2097   -0.2555   -2.4019 H   0  0  0  0  0  0  0  0  0  0  0  0
    3.2234   -1.7597   -1.4659 H   0  0  0  0  0  0  0  0  0  0  0  0
   -0.2530    1.1313   -0.3908 H   0  0  0  0  0  0  0  0  0  0  0  0
   -1.1264   -3.0477    0.2944 H   0  0  0  0  0  0  0  0  0  0  0  0
    1.1774    0.3061   -1.5643 H   0  0  0  0  0  0  0  0  0  0  0  0
   -3.4704   -2.5046    0.6337 H   0  0  0  0  0  0  0  0  0  0  0  0
   -4.8395    0.8980    0.5594 H   0  0  0  0  0  0  0  0  0  0  0  0
    4.7558   -1.6151    0.9060 H   0  0  0  0  0  0  0  0  0  0  0  0
    3.7402    2.0127   -0.9555 H   0  0  0  0  0  0  0  0  0  0  0  0
    5.9684    0.5622    2.0670 H   0  0  0  0  0  0  0  0  0  0  0  0
   -5.5204   -1.4084   -0.8377 H   0  0  0  0  0  0  0  0  0  0  0  0
   -6.5946   -0.5045    0.2332 H   0  0  0  0  0  0  0  0  0  0  0  0
   -5.6502   -1.8367    0.8914 H   0  0  0  0  0  0  0  0  0  0  0  0
  1 14  2  0  0  0  0
  2  7  1  0  0  0  0
  3  7  2  0  0  0  0
  4 10  1  0  0  0  0
  4 14  1  0  0  0  0
  4 25  1  0  0  0  0
  5 11  1  0  0  0  0
  5 20  1  0  0  0  0
  5 27  1  0  0  0  0
  6  8  1  0  0  0  0
  6 15  1  0  0  0  0
  6 29  1  0  0  0  0
  7 12  1  0  0  0  0
  8 19  2  0  0  0  0
  9 13  2  0  0  0  0
  9 14  1  0  0  0  0
  9 16  1  0  0  0  0
 10 15  1  0  0  0  0
 10 21  1  0  0  0  0
 10 22  1  0  0  0  0
 11 12  2  0  0  0  0
 11 17  1  0  0  0  0
 12 13  1  0  0  0  0
 13 23  1  0  0  0  0
 15 18  2  0  0  0  0
 16 17  2  0  0  0  0
 16 24  1  0  0  0  0
 17 26  1  0  0  0  0
 18 19  1  0  0  0  0
 18 28  1  0  0  0  0
 19 30  1  0  0  0  0
 20 31  1  0  0  0  0
 20 32  1  0  0  0  0
 20 33  1  0  0  0  0
M  CHG  2   2  -1   7   1
M  END
> <PUBCHEM_COMPOUND_CID>
47205219

> <PUBCHEM_CONFORMER_RMSD>
0.8

> <PUBCHEM_CONFORMER_DIVERSEORDER>
1
9
31
37
16
12
40
45
21
28
34
10
26
41
3
17
24
22
29
43
25
13
44
5
7
42
39
33
11
18
20
47
8
19
4
35
32
6
46
30
38
14
2
23
15
36
27

> <PUBCHEM_MMFF94_PARTIAL_CHARGES>
28
1 -0.57
10 0.48
11 0.1
12 0.13
13 -0.15
14 0.54
15 -0.33
16 -0.15
17 -0.15
18 -0.15
19 0.14
2 -0.52
20 0.37
23 0.15
24 0.15
25 0.37
26 0.15
27 0.4
28 0.15
29 0.27
3 -0.52
30 0.15
4 -0.73
5 -0.87
6 0.3
7 0.91
8 -0.71
9 0.09

> <PUBCHEM_EFFECTIVE_ROTOR_COUNT>
6

> <PUBCHEM_PHARMACOPHORE_FEATURES>
11
1 1 acceptor
1 2 acceptor
1 2 anion
1 3 acceptor
1 4 donor
1 5 cation
1 5 donor
1 6 donor
1 8 acceptor
5 6 8 15 18 19 rings
6 9 11 12 13 16 17 rings

> <PUBCHEM_HEAVY_ATOM_COUNT>
20

> <PUBCHEM_ATOM_DEF_STEREO_COUNT>
0

> <PUBCHEM_ATOM_UDEF_STEREO_COUNT>
0

> <PUBCHEM_BOND_DEF_STEREO_COUNT>
0

> <PUBCHEM_BOND_UDEF_STEREO_COUNT>
0

> <PUBCHEM_ISOTOPIC_ATOM_COUNT>
0

> <PUBCHEM_COMPONENT_COUNT>
1

> <PUBCHEM_CACTVS_TAUTO_COUNT>
10

> <PUBCHEM_CONFORMER_ID>
02D04B6300000001

> <PUBCHEM_MMFF94_ENERGY>
57.9052

> <PUBCHEM_FEATURE_SELFOVERLAP>
55.9

> <PUBCHEM_SHAPE_FINGERPRINT>
10646746 165 18409726283789110886
10670039 82 18199729454330975380
11128504 68 4967612797800701858
11595378 159 18060151937298736432
12107183 9 17840037569672207546
12403259 415 18335696178654438124
12596602 18 17203047362061269472
12670546 56 18202569496680393858
12892183 10 18200880574327925338
13081056 2 18261105283940408734
13140716 1 18124867963581177955
13533116 47 18060142067638522418
13914758 101 15984835865128520575
13965767 371 17555731362756570413
14251764 38 18335419063086084624
15042514 8 18269547244098811715
17349148 13 17275096219771902007
1741750 31 18337387265754942979
18186145 218 18041262358015163958
18915474 69 7997969090090363050
20510252 161 18335695100680982771
20645477 56 18333724711050655814
20645477 70 16878212160999360654
21315764 268 18412270514909515256
21652331 79 18410292488794875640
23402539 116 18341336608996899415
23557571 272 18261374681221118124
23559900 14 18046065132063927470
341906 21 18413670210496811188
351380 180 18409731729517504746
3545911 37 18260543420972454910
4325135 7 17531248318613730151
5104073 3 18269829986116560515
5281201 14 17604696889560883430
574716 61 4895258361176710096
7808743 9 18047473319212790168
90316 7 17418378021205025956
9981440 41 18202281437846185003

> <PUBCHEM_SHAPE_MULTIPOLES>
369.08
11.83
2.38
1.01
6.01
1.06
-0.13
2.61
2.69
-1.69
0.09
0.72
0.16
0.75

> <PUBCHEM_SHAPE_SELFOVERLAP>
784.59

> <PUBCHEM_SHAPE_VOLUME>
205.2

> <PUBCHEM_COORDINATE_TYPE>
2
5
10

$$$$

