53297420
  -OEChem-07051213133D

 39 40  0     0  0  0  0  0  0999 V2000
    1.0686   -2.1069   -1.0266 O   0  0  0  0  0  0  0  0  0  0  0  0
    4.5511    1.9800    0.3214 O   0  0  0  0  0  0  0  0  0  0  0  0
   -1.3822    1.8936    0.0283 O   0  0  0  0  0  0  0  0  0  0  0  0
   -2.8758    0.1837    0.5368 N   0  0  0  0  0  0  0  0  0  0  0  0
   -3.6516    2.2744   -0.2249 N   0  0  0  0  0  0  0  0  0  0  0  0
   -2.1202   -1.0059    0.3892 C   0  0  0  0  0  0  0  0  0  0  0  0
   -0.1385   -2.1416   -0.3988 C   0  0  0  0  0  0  0  0  0  0  0  0
   -0.8823   -0.9706   -0.2530 C   0  0  0  0  0  0  0  0  0  0  0  0
   -2.6143   -2.2123    0.8853 C   0  0  0  0  0  0  0  0  0  0  0  0
   -0.6327   -3.3481    0.0973 C   0  0  0  0  0  0  0  0  0  0  0  0
    1.9403   -1.0848   -0.6897 C   0  0  0  0  0  0  0  0  0  0  0  0
   -1.8707   -3.3835    0.7392 C   0  0  0  0  0  0  0  0  0  0  0  0
   -2.5370    1.4684    0.1044 C   0  0  0  0  0  0  0  0  0  0  0  0
    2.1400   -0.7523    0.6504 C   0  0  0  0  0  0  0  0  0  0  0  0
    2.6178   -0.3871   -1.6897 C   0  0  0  0  0  0  0  0  0  0  0  0
    3.6949    0.9749   -0.0099 C   0  0  0  0  0  0  0  0  0  0  0  0
    3.0174    0.2774    0.9904 C   0  0  0  0  0  0  0  0  0  0  0  0
    3.4951    0.6428   -1.3498 C   0  0  0  0  0  0  0  0  0  0  0  0
   -5.0230    1.7774   -0.1372 C   0  0  0  0  0  0  0  0  0  0  0  0
   -3.5051    3.6534   -0.6734 C   0  0  0  0  0  0  0  0  0  0  0  0
    4.7083    2.2673    1.7102 C   0  0  0  0  0  0  0  0  0  0  0  0
   -0.4989   -0.0601   -0.6971 H   0  0  0  0  0  0  0  0  0  0  0  0
   -3.5774   -2.2538    1.3876 H   0  0  0  0  0  0  0  0  0  0  0  0
   -3.7866    0.0541    0.9673 H   0  0  0  0  0  0  0  0  0  0  0  0
   -0.0578   -4.2635   -0.0132 H   0  0  0  0  0  0  0  0  0  0  0  0
   -2.2554   -4.3228    1.1255 H   0  0  0  0  0  0  0  0  0  0  0  0
    1.6413   -1.2942    1.4497 H   0  0  0  0  0  0  0  0  0  0  0  0
    2.4653   -0.6414   -2.7350 H   0  0  0  0  0  0  0  0  0  0  0  0
    3.1294    0.4803    2.0499 H   0  0  0  0  0  0  0  0  0  0  0  0
    4.0198    1.1827   -2.1332 H   0  0  0  0  0  0  0  0  0  0  0  0
   -5.6970    2.4261   -0.7047 H   0  0  0  0  0  0  0  0  0  0  0  0
   -5.0934    0.7662   -0.5477 H   0  0  0  0  0  0  0  0  0  0  0  0
   -4.0642    4.3055    0.0037 H   0  0  0  0  0  0  0  0  0  0  0  0
   -2.4559    3.9585   -0.6790 H   0  0  0  0  0  0  0  0  0  0  0  0
   -3.9065    3.7392   -1.6872 H   0  0  0  0  0  0  0  0  0  0  0  0
   -5.3247    1.7722    0.9142 H   0  0  0  0  0  0  0  0  0  0  0  0
    3.7703    2.6118    2.1586 H   0  0  0  0  0  0  0  0  0  0  0  0
    5.1394    1.4176    2.2505 H   0  0  0  0  0  0  0  0  0  0  0  0
    5.4231    3.0928    1.7905 H   0  0  0  0  0  0  0  0  0  0  0  0
  1  7  1  0  0  0  0
  1 11  1  0  0  0  0
  2 16  1  0  0  0  0
  2 21  1  0  0  0  0
  3 13  2  0  0  0  0
  4  6  1  0  0  0  0
  4 13  1  0  0  0  0
  4 24  1  0  0  0  0
  5 13  1  0  0  0  0
  5 19  1  0  0  0  0
  5 20  1  0  0  0  0
  6  8  2  0  0  0  0
  6  9  1  0  0  0  0
  7  8  1  0  0  0  0
  7 10  2  0  0  0  0
  8 22  1  0  0  0  0
  9 12  2  0  0  0  0
  9 23  1  0  0  0  0
 10 12  1  0  0  0  0
 10 25  1  0  0  0  0
 11 14  2  0  0  0  0
 11 15  1  0  0  0  0
 12 26  1  0  0  0  0
 14 17  1  0  0  0  0
 14 27  1  0  0  0  0
 15 18  2  0  0  0  0
 15 28  1  0  0  0  0
 16 17  2  0  0  0  0
 16 18  1  0  0  0  0
 17 29  1  0  0  0  0
 18 30  1  0  0  0  0
 19 31  1  0  0  0  0
 19 32  1  0  0  0  0
 19 36  1  0  0  0  0
 20 33  1  0  0  0  0
 20 34  1  0  0  0  0
 20 35  1  0  0  0  0
 21 37  1  0  0  0  0
 21 38  1  0  0  0  0
 21 39  1  0  0  0  0
M  END
> <PUBCHEM_COMPOUND_CID>
53297420

> <PUBCHEM_CONFORMER_RMSD>
0.8

> <PUBCHEM_CONFORMER_DIVERSEORDER>
1
38
84
54
81
19
27
82
26
36
47
8
63
76
66
72
77
57
48
28
34
14
31
58
5
29
43
4
60
22
51
67
12
9
42
11
55
46
41
35
64
40
2
25
17
13
45
33
44
10
65
50
69
49
79
20
52
73
23
15
59
32
39
30
6
70
21
53
24
74
68
80
3
16
62
61
56
7
18
37
83
71
75
78

> <PUBCHEM_MMFF94_PARTIAL_CHARGES>
30
1 -0.17
10 -0.15
11 0.08
12 -0.15
13 0.69
14 -0.15
15 -0.15
16 0.08
17 -0.15
18 -0.15
19 0.3
2 -0.36
20 0.3
21 0.28
22 0.15
23 0.15
24 0.37
25 0.15
26 0.15
27 0.15
28 0.15
29 0.15
3 -0.57
30 0.15
4 -0.55
5 -0.66
6 0.12
7 0.08
8 -0.15
9 -0.15

> <PUBCHEM_EFFECTIVE_ROTOR_COUNT>
6

> <PUBCHEM_PHARMACOPHORE_FEATURES>
6
1 1 acceptor
1 2 acceptor
1 3 acceptor
1 4 donor
6 11 14 15 16 17 18 rings
6 6 7 8 9 10 12 rings

> <PUBCHEM_HEAVY_ATOM_COUNT>
21

> <PUBCHEM_ATOM_DEF_STEREO_COUNT>
0

> <PUBCHEM_ATOM_UDEF_STEREO_COUNT>
0

> <PUBCHEM_BOND_DEF_STEREO_COUNT>
0

> <PUBCHEM_BOND_UDEF_STEREO_COUNT>
0

> <PUBCHEM_ISOTOPIC_ATOM_COUNT>
0

> <PUBCHEM_COMPONENT_COUNT>
1

> <PUBCHEM_CACTVS_TAUTO_COUNT>
2

> <PUBCHEM_CONFORMER_ID>
032D410C00000001

> <PUBCHEM_MMFF94_ENERGY>
83.1076

> <PUBCHEM_FEATURE_SELFOVERLAP>
30.446

> <PUBCHEM_SHAPE_FINGERPRINT>
10319926 262 18337400340600542386
10498660 4 18335696152462907225
10670039 82 18050551964465951220
10675989 125 17975142255026454289
11370993 70 18339926029624637933
11595378 159 18053119332626945856
12107183 9 18198921365013896098
12173636 292 18412824681449088247
12769317 202 17978800326232803005
12788726 201 17771327696014108715
12892183 10 18197510515480746370
13965767 371 17916594287543869540
14178342 30 18201156555608921518
14466204 15 17692538127481689354
14468879 13 18200581605627606673
14787075 74 18261682545173409005
14848178 96 18123747827599944597
14957384 54 18340780307494213464
15961568 22 17473259877997333740
173720 79 17846224358340210667
17876694 64 17558539215022302447
17980427 23 17761245453687130667
20510252 161 18336533928973809683
20567600 299 17332533878510438453
21524375 3 18193833971419155175
23557571 272 18265039254876896062
23559900 14 18119810471896918463
238 59 17823413988340820767
3117164 225 18269009699340423450
3187 122 18053388695289615561
3246875 12 18410576185156239577
3524813 1 17751637650526428490
43658 37 18266179616149594965
4371632 12 15577274220039569440
44317340 157 17477780439031299437
474 4 18053660562772560093
633830 44 18044096984822546149
7097593 13 18059309754758725882
7808743 9 18270105830375535852
84936 182 17905605863015112513
90316 7 18051964836311478891
9981440 41 18413113857333991371

> <PUBCHEM_SHAPE_MULTIPOLES>
404.6
9.02
4.34
1.24
2.42
0.2
0.07
-9.66
-1.3
-4.46
-0.31
1.45
-0.13
2.1

> <PUBCHEM_SHAPE_SELFOVERLAP>
853.598

> <PUBCHEM_SHAPE_VOLUME>
227.9

> <PUBCHEM_COORDINATE_TYPE>
2
5
10

$$$$

