440630
  -OEChem-07051212503D

 37 39  0     1  0  0  0  0  0999 V2000
   -0.1147    1.2963   -0.5809 N   0  0  1  0  0  0  0  0  0  0  0  0
    0.2309   -0.1350   -0.4310 C   0  0  1  0  0  0  0  0  0  0  0  0
    1.7057   -0.4085   -0.1849 C   0  0  0  0  0  0  0  0  0  0  0  0
    0.5512    2.1283    0.4288 C   0  0  0  0  0  0  0  0  0  0  0  0
    2.0779    2.0274    0.3998 C   0  0  0  0  0  0  0  0  0  0  0  0
    2.5703    0.6122    0.2493 C   0  0  0  0  0  0  0  0  0  0  0  0
   -0.6226   -0.7477    0.6910 C   0  0  0  0  0  0  0  0  0  0  0  0
    0.1273    1.7802   -1.9404 C   0  0  0  0  0  0  0  0  0  0  0  0
    2.2148   -1.7043   -0.3677 C   0  0  0  0  0  0  0  0  0  0  0  0
   -2.0849   -0.5523    0.4259 C   0  0  0  0  0  0  0  0  0  0  0  0
    3.9229    0.3249    0.4818 C   0  0  0  0  0  0  0  0  0  0  0  0
    3.5602   -1.9812   -0.1254 C   0  0  0  0  0  0  0  0  0  0  0  0
    4.4135   -0.9672    0.2995 C   0  0  0  0  0  0  0  0  0  0  0  0
   -2.7259    0.5874    0.9009 C   0  0  0  0  0  0  0  0  0  0  0  0
   -2.7901   -1.5118   -0.2936 C   0  0  0  0  0  0  0  0  0  0  0  0
   -4.0866    0.7695    0.6541 C   0  0  0  0  0  0  0  0  0  0  0  0
   -4.1508   -1.3294   -0.5406 C   0  0  0  0  0  0  0  0  0  0  0  0
   -4.7990   -0.1888   -0.0667 C   0  0  0  0  0  0  0  0  0  0  0  0
   -0.0435   -0.6472   -1.3652 H   0  0  0  0  0  0  0  0  0  0  0  0
    0.1979    1.8420    1.4268 H   0  0  0  0  0  0  0  0  0  0  0  0
    0.2494    3.1771    0.3149 H   0  0  0  0  0  0  0  0  0  0  0  0
    2.4759    2.4598    1.3258 H   0  0  0  0  0  0  0  0  0  0  0  0
    2.4725    2.6190   -0.4356 H   0  0  0  0  0  0  0  0  0  0  0  0
   -0.3615   -0.3354    1.6749 H   0  0  0  0  0  0  0  0  0  0  0  0
   -0.4200   -1.8238    0.7826 H   0  0  0  0  0  0  0  0  0  0  0  0
   -0.1584    2.8342   -2.0299 H   0  0  0  0  0  0  0  0  0  0  0  0
   -0.4964    1.2306   -2.6545 H   0  0  0  0  0  0  0  0  0  0  0  0
    1.1712    1.6788   -2.2549 H   0  0  0  0  0  0  0  0  0  0  0  0
    1.5620   -2.5077   -0.7005 H   0  0  0  0  0  0  0  0  0  0  0  0
    4.6025    1.1107    0.8022 H   0  0  0  0  0  0  0  0  0  0  0  0
    3.9416   -2.9878   -0.2700 H   0  0  0  0  0  0  0  0  0  0  0  0
    5.4622   -1.1809    0.4841 H   0  0  0  0  0  0  0  0  0  0  0  0
   -2.1924    1.3367    1.4781 H   0  0  0  0  0  0  0  0  0  0  0  0
   -2.2953   -2.4030   -0.6697 H   0  0  0  0  0  0  0  0  0  0  0  0
   -4.5923    1.6558    1.0262 H   0  0  0  0  0  0  0  0  0  0  0  0
   -4.7056   -2.0752   -1.1022 H   0  0  0  0  0  0  0  0  0  0  0  0
   -5.8587   -0.0473   -0.2583 H   0  0  0  0  0  0  0  0  0  0  0  0
  1  2  1  0  0  0  0
  1  4  1  0  0  0  0
  1  8  1  0  0  0  0
  2  3  1  0  0  0  0
  2  7  1  0  0  0  0
  2 19  1  0  0  0  0
  3  6  1  0  0  0  0
  3  9  2  0  0  0  0
  4  5  1  0  0  0  0
  4 20  1  0  0  0  0
  4 21  1  0  0  0  0
  5  6  1  0  0  0  0
  5 22  1  0  0  0  0
  5 23  1  0  0  0  0
  6 11  2  0  0  0  0
  7 10  1  0  0  0  0
  7 24  1  0  0  0  0
  7 25  1  0  0  0  0
  8 26  1  0  0  0  0
  8 27  1  0  0  0  0
  8 28  1  0  0  0  0
  9 12  1  0  0  0  0
  9 29  1  0  0  0  0
 10 14  2  0  0  0  0
 10 15  1  0  0  0  0
 11 13  1  0  0  0  0
 11 30  1  0  0  0  0
 12 13  2  0  0  0  0
 12 31  1  0  0  0  0
 13 32  1  0  0  0  0
 14 16  1  0  0  0  0
 14 33  1  0  0  0  0
 15 17  2  0  0  0  0
 15 34  1  0  0  0  0
 16 18  2  0  0  0  0
 16 35  1  0  0  0  0
 17 18  1  0  0  0  0
 17 36  1  0  0  0  0
 18 37  1  0  0  0  0
M  END
> <PUBCHEM_COMPOUND_CID>
440630

> <PUBCHEM_CONFORMER_RMSD>
0.6

> <PUBCHEM_CONFORMER_DIVERSEORDER>
1
3
10
15
2
8
5
11
9
7
4
14
12
6
13

> <PUBCHEM_MMFF94_PARTIAL_CHARGES>
27
1 -0.81
10 -0.14
11 -0.15
12 -0.15
13 -0.15
14 -0.15
15 -0.15
16 -0.15
17 -0.15
18 -0.15
2 0.41
29 0.15
3 -0.14
30 0.15
31 0.15
32 0.15
33 0.15
34 0.15
35 0.15
36 0.15
37 0.15
4 0.27
5 0.14
6 -0.14
7 0.14
8 0.27
9 -0.15

> <PUBCHEM_EFFECTIVE_ROTOR_COUNT>
2.8

> <PUBCHEM_PHARMACOPHORE_FEATURES>
4
1 1 cation
6 1 2 3 4 5 6 rings
6 10 14 15 16 17 18 rings
6 3 6 9 11 12 13 rings

> <PUBCHEM_HEAVY_ATOM_COUNT>
18

> <PUBCHEM_ATOM_DEF_STEREO_COUNT>
0

> <PUBCHEM_ATOM_UDEF_STEREO_COUNT>
1

> <PUBCHEM_BOND_DEF_STEREO_COUNT>
0

> <PUBCHEM_BOND_UDEF_STEREO_COUNT>
0

> <PUBCHEM_ISOTOPIC_ATOM_COUNT>
0

> <PUBCHEM_COMPONENT_COUNT>
1

> <PUBCHEM_CACTVS_TAUTO_COUNT>
1

> <PUBCHEM_CONFORMER_ID>
0006B93600000001

> <PUBCHEM_MMFF94_ENERGY>
52.9806

> <PUBCHEM_FEATURE_SELFOVERLAP>
20.318

> <PUBCHEM_SHAPE_FINGERPRINT>
10062212 137 18113339691712163179
10922049 32 8934994880285491508
11132069 177 18410860983682951474
11471102 20 18410576171690686024
116883 192 18201441410456012188
11806522 49 18336549322057275595
12011746 2 18407754833607381822
12107183 9 17683514413808663883
12251169 10 18260547826933660734
12670546 56 17822015302408118425
12760667 363 18128540555946634322
128620 24 6411297927442520857
13134695 92 18409450254414564013
13167823 11 18187366510785553943
13533116 47 18262801753347040147
13544653 18 18341325673619455074
13583140 156 16371304297379995923
13675066 3 18272645745206054441
14181834 199 18269545061922434116
14251717 144 18409168788032945546
14251739 40 18335139756829864471
14790565 3 17979351954911563876
15196674 1 18408040710397991691
15375462 478 17530965799685731185
15442244 35 18334853952457541193
15501101 241 18412826863323954068
15536298 74 18333449824352933875
15848700 24 18343586252367346942
15848702 151 18334857250945165991
16752209 62 16271662155893247669
16945 1 18337663131789260256
17357779 13 18130804359876809797
17492 89 18263926536257184415
1813 80 17846775230423700204
18186145 218 17917999347772437523
19141452 34 18409167731797934511
200 152 18040722441907871975
20233049 118 15410625760949269405
20600515 1 18060125544940902198
20645477 70 18341054021016834931
21069387 34 18341049610613014063
21267235 1 18335411370409033363
21285901 2 18059578047995216111
21421861 104 17772758409892120434
221490 88 18267017259010264819
23175994 123 17203322330098982509
23184049 59 18409729564558835407
23402539 116 18201443609600437130
23419403 2 18265641873169862460
23559900 14 18187088338363958930
2748010 2 18192727845973753316
3286 77 18261117339634098672
4214541 1 18334012813499137507
439807 62 17607549946917589135
5104073 3 18261391118319650539
6443956 14 18411136939553086964
7364860 26 18262518082993104008
7495541 125 15194987328965627529
74978 22 17416960634852691475
81228 2 17914601993970339604
83771 10 18341895225053602878
9709674 26 18334570205544020231
9971528 1 18343585126843452244
9981440 41 17402054401022978257

> <PUBCHEM_SHAPE_MULTIPOLES>
365.45
8.7
2.15
1.03
3.88
0.4
0.35
-3.2
-1.06
-1.08
0.28
0.18
0.41
-0.18

> <PUBCHEM_SHAPE_SELFOVERLAP>
787.616

> <PUBCHEM_SHAPE_VOLUME>
200.6

> <PUBCHEM_COORDINATE_TYPE>
2
5
10

$$$$

