4835
  -OEChem-06261200223D

 63 66  0     1  0  0  0  0  0999 V2000
   -3.4516   -1.9307   -0.9070 S   0  0  0  0  0  0  0  0  0  0  0  0
   -4.3661    1.5722    1.5665 O   0  0  0  0  0  0  0  0  0  0  0  0
   -7.9915   -1.3817   -0.1529 O   0  0  0  0  0  0  0  0  0  0  0  0
   -6.4754   -2.7417    0.8708 O   0  0  0  0  0  0  0  0  0  0  0  0
   -0.0389    0.0809    2.1110 O   0  0  0  0  0  0  0  0  0  0  0  0
    2.2899    0.1044   -2.2013 O   0  0  0  0  0  0  0  0  0  0  0  0
    3.6880   -0.6234    1.7148 O   0  0  0  0  0  0  0  0  0  0  0  0
    6.2723   -0.9372    2.0002 O   0  0  0  0  0  0  0  0  0  0  0  0
   -4.8002   -0.6642    0.9534 N   0  0  0  0  0  0  0  0  0  0  0  0
   -1.7398    0.0358    0.5361 N   0  0  0  0  0  0  0  0  0  0  0  0
    1.7858    0.2600    0.0376 N   0  0  0  0  0  0  0  0  0  0  0  0
    3.9095   -0.5484   -0.6359 N   0  0  0  0  0  0  0  0  0  0  0  0
    6.4220   -1.7801   -0.1706 N   0  0  0  0  0  0  0  0  0  0  0  0
   -3.6590   -1.5775    0.8793 C   0  0  2  0  0  0  0  0  0  0  0  0
   -4.9507   -0.9528   -1.4183 C   0  0  0  0  0  0  0  0  0  0  0  0
   -5.7551   -0.6631   -0.1311 C   0  0  1  0  0  0  0  0  0  0  0  0
   -2.7969   -0.4374    1.4459 C   0  0  2  0  0  0  0  0  0  0  0  0
   -4.0857    0.4064    1.4037 C   0  0  0  0  0  0  0  0  0  0  0  0
   -5.7308   -1.7457   -2.4717 C   0  0  0  0  0  0  0  0  0  0  0  0
   -4.4495    0.3564   -2.0513 C   0  0  0  0  0  0  0  0  0  0  0  0
   -6.7455   -1.7171    0.2620 C   0  0  0  0  0  0  0  0  0  0  0  0
   -0.4344    0.2554    0.9599 C   0  0  0  0  0  0  0  0  0  0  0  0
    0.4557    0.7903   -0.1546 C   0  0  1  0  0  0  0  0  0  0  0  0
    0.4518    2.3004   -0.2006 C   0  0  0  0  0  0  0  0  0  0  0  0
    2.6279   -0.0525   -1.0244 C   0  0  0  0  0  0  0  0  0  0  0  0
   -0.4881    2.9719   -0.9826 C   0  0  0  0  0  0  0  0  0  0  0  0
    1.3878    3.0233    0.5392 C   0  0  0  0  0  0  0  0  0  0  0  0
    4.8794   -0.7448   -1.7112 C   0  0  0  0  0  0  0  0  0  0  0  0
    5.7342   -1.9615   -1.4333 C   0  0  0  0  0  0  0  0  0  0  0  0
    4.3503   -0.7478    0.6897 C   0  0  0  0  0  0  0  0  0  0  0  0
   -0.4919    4.3661   -1.0250 C   0  0  0  0  0  0  0  0  0  0  0  0
    1.3838    4.4175    0.4969 C   0  0  0  0  0  0  0  0  0  0  0  0
    5.7892   -1.1626    0.8964 C   0  0  0  0  0  0  0  0  0  0  0  0
    7.7561   -2.3407   -0.0366 C   0  0  0  0  0  0  0  0  0  0  0  0
    0.4439    5.0889   -0.2853 C   0  0  0  0  0  0  0  0  0  0  0  0
    8.8235   -1.3190   -0.3697 C   0  0  0  0  0  0  0  0  0  0  0  0
   -3.7622   -2.4551    1.5235 H   0  0  0  0  0  0  0  0  0  0  0  0
   -6.2480    0.3157   -0.1623 H   0  0  0  0  0  0  0  0  0  0  0  0
   -2.4479   -0.6140    2.4695 H   0  0  0  0  0  0  0  0  0  0  0  0
   -6.6422   -1.2106   -2.7622 H   0  0  0  0  0  0  0  0  0  0  0  0
   -6.0279   -2.7370   -2.1120 H   0  0  0  0  0  0  0  0  0  0  0  0
   -5.1384   -1.8937   -3.3827 H   0  0  0  0  0  0  0  0  0  0  0  0
   -3.8835    0.9775   -1.3507 H   0  0  0  0  0  0  0  0  0  0  0  0
   -5.2970    0.9604   -2.3968 H   0  0  0  0  0  0  0  0  0  0  0  0
   -3.8117    0.1676   -2.9230 H   0  0  0  0  0  0  0  0  0  0  0  0
   -1.9623    0.2114   -0.4402 H   0  0  0  0  0  0  0  0  0  0  0  0
    0.0917    0.4049   -1.1158 H   0  0  0  0  0  0  0  0  0  0  0  0
   -8.6548   -2.0614    0.0928 H   0  0  0  0  0  0  0  0  0  0  0  0
    2.1145    0.1376    0.9889 H   0  0  0  0  0  0  0  0  0  0  0  0
   -1.2233    2.4211   -1.5633 H   0  0  0  0  0  0  0  0  0  0  0  0
    2.1227    2.5309    1.1697 H   0  0  0  0  0  0  0  0  0  0  0  0
    4.3785   -0.8597   -2.6774 H   0  0  0  0  0  0  0  0  0  0  0  0
    5.4953    0.1620   -1.7589 H   0  0  0  0  0  0  0  0  0  0  0  0
    5.1287   -2.8717   -1.3589 H   0  0  0  0  0  0  0  0  0  0  0  0
    6.4679   -2.0888   -2.2365 H   0  0  0  0  0  0  0  0  0  0  0  0
   -1.2240    4.8889   -1.6335 H   0  0  0  0  0  0  0  0  0  0  0  0
    2.1100    4.9808    1.0755 H   0  0  0  0  0  0  0  0  0  0  0  0
    7.8434   -3.2250   -0.6773 H   0  0  0  0  0  0  0  0  0  0  0  0
    7.8944   -2.6708    0.9994 H   0  0  0  0  0  0  0  0  0  0  0  0
    0.4403    6.1744   -0.3175 H   0  0  0  0  0  0  0  0  0  0  0  0
    9.8200   -1.7561   -0.2542 H   0  0  0  0  0  0  0  0  0  0  0  0
    8.7547   -0.4461    0.2880 H   0  0  0  0  0  0  0  0  0  0  0  0
    8.7222   -0.9660   -1.4013 H   0  0  0  0  0  0  0  0  0  0  0  0
  1 14  1  0  0  0  0
  1 15  1  0  0  0  0
  2 18  2  0  0  0  0
  3 21  1  0  0  0  0
  3 48  1  0  0  0  0
  4 21  2  0  0  0  0
  5 22  2  0  0  0  0
  6 25  2  0  0  0  0
  7 30  2  0  0  0  0
  8 33  2  0  0  0  0
  9 14  1  0  0  0  0
  9 16  1  0  0  0  0
  9 18  1  0  0  0  0
 10 17  1  0  0  0  0
 10 22  1  0  0  0  0
 10 46  1  0  0  0  0
 11 23  1  0  0  0  0
 11 25  1  0  0  0  0
 11 49  1  0  0  0  0
 12 25  1  0  0  0  0
 12 28  1  0  0  0  0
 12 30  1  0  0  0  0
 13 29  1  0  0  0  0
 13 33  1  0  0  0  0
 13 34  1  0  0  0  0
 14 17  1  0  0  0  0
 14 37  1  0  0  0  0
 15 16  1  0  0  0  0
 15 19  1  0  0  0  0
 15 20  1  0  0  0  0
 16 21  1  0  0  0  0
 16 38  1  0  0  0  0
 17 18  1  0  0  0  0
 17 39  1  0  0  0  0
 19 40  1  0  0  0  0
 19 41  1  0  0  0  0
 19 42  1  0  0  0  0
 20 43  1  0  0  0  0
 20 44  1  0  0  0  0
 20 45  1  0  0  0  0
 22 23  1  0  0  0  0
 23 24  1  0  0  0  0
 23 47  1  0  0  0  0
 24 26  2  0  0  0  0
 24 27  1  0  0  0  0
 26 31  1  0  0  0  0
 26 50  1  0  0  0  0
 27 32  2  0  0  0  0
 27 51  1  0  0  0  0
 28 29  1  0  0  0  0
 28 52  1  0  0  0  0
 28 53  1  0  0  0  0
 29 54  1  0  0  0  0
 29 55  1  0  0  0  0
 30 33  1  0  0  0  0
 31 35  2  0  0  0  0
 31 56  1  0  0  0  0
 32 35  1  0  0  0  0
 32 57  1  0  0  0  0
 34 36  1  0  0  0  0
 34 58  1  0  0  0  0
 34 59  1  0  0  0  0
 35 60  1  0  0  0  0
 36 61  1  0  0  0  0
 36 62  1  0  0  0  0
 36 63  1  0  0  0  0
M  END
> <PUBCHEM_COMPOUND_CID>
4835

> <PUBCHEM_CONFORMER_RMSD>
1.6

> <PUBCHEM_CONFORMER_DIVERSEORDER>
1
67
61
65
51
78
10
64
70
62
33
42
63
41
32
58
22
69
59
27
46
2
25
77
13
55
72
54
60
74
5
3
56
20
8
30
49
43
14
24
76
48
68
18
7
73
29
66
45
16
79
40
53
52
4
71
75
21
26
39
44
50
31
47
17
12
34
38
6
36
19
35
11
9
28
57
37
15
23

> <PUBCHEM_MMFF94_PARTIAL_CHARGES>
41
1 -0.45
10 -0.65
11 -0.73
12 -0.42
13 -0.66
14 0.44
15 0.23
16 0.36
17 0.28
18 0.58
2 -0.57
21 0.66
22 0.57
23 0.5
24 -0.14
25 0.69
26 -0.15
27 -0.15
28 0.3
29 0.3
3 -0.65
30 0.63
31 -0.15
32 -0.15
33 0.63
34 0.3
35 -0.15
4 -0.57
46 0.37
48 0.5
49 0.37
5 -0.57
50 0.15
51 0.15
56 0.15
57 0.15
6 -0.57
60 0.15
7 -0.57
8 -0.57
9 -0.59

> <PUBCHEM_EFFECTIVE_ROTOR_COUNT>
10.6

> <PUBCHEM_PHARMACOPHORE_FEATURES>
15
1 10 donor
1 11 donor
1 2 acceptor
1 3 acceptor
1 4 acceptor
1 5 acceptor
1 6 acceptor
1 7 acceptor
1 8 acceptor
3 15 19 20 hydrophobe
3 3 4 21 anion
4 9 14 17 18 rings
6 12 13 28 29 30 33 rings
6 24 26 27 31 32 35 rings
7 1 9 14 15 16 17 18 rings

> <PUBCHEM_HEAVY_ATOM_COUNT>
36

> <PUBCHEM_ATOM_DEF_STEREO_COUNT>
0

> <PUBCHEM_ATOM_UDEF_STEREO_COUNT>
4

> <PUBCHEM_BOND_DEF_STEREO_COUNT>
0

> <PUBCHEM_BOND_UDEF_STEREO_COUNT>
0

> <PUBCHEM_ISOTOPIC_ATOM_COUNT>
0

> <PUBCHEM_COMPONENT_COUNT>
1

> <PUBCHEM_CACTVS_TAUTO_COUNT>
4

> <PUBCHEM_CONFORMER_ID>
000012E300000001

> <PUBCHEM_MMFF94_ENERGY>
92.3062

> <PUBCHEM_FEATURE_SELFOVERLAP>
80.146

> <PUBCHEM_SHAPE_FINGERPRINT>
10 15 6555413111070954703
10670039 82 15769783463757060367
11007060 377 10663516180915461055
11331351 85 18113617902334731881
12166972 35 18187362095664175379
12342043 65 17271700829508285947
12516196 113 18412546505080866970
12633046 712 17558521674671160641
12788726 201 18058732541139176202
12977781 61 17610892779354583686
13631057 29 18201435939474408472
13726171 33 13613978763334641255
13782708 43 17896041108750370534
13899415 180 18411138030501478917
14068700 675 18187078455998061089
14347329 18 15841286899808225277
14394314 77 18338228387844636336
14556957 393 17987499546594568164
15021287 119 18336255778923849793
15183329 4 15769776870771270230
15198563 99 18341615987945472780
17686467 74 18335423461691232600
1813 80 18335414668927962500
19303781 99 18189059711769890887
2132832 1 18187921751605190297
21424621 283 10159693586728614510
21756936 100 9223219737573078488
21792965 68 10231745705163742998
23536364 44 18130797793083076925
23559900 14 18269274552608835225
3004659 81 17632576046302529274
3383291 50 18260263019659544619
392239 28 15936408952829373310
397830 11 16370444475419297582
4017518 198 17615974310288660208
42767 28 14692572104797493423
5080951 261 18118132595804397612
5219985 9 18411411826308519300
5969126 39 18410857706997808380

> <PUBCHEM_SHAPE_MULTIPOLES>
678.72
20.69
4.5
1.93
13.55
8.59
-0.32
-25.39
-1.09
0.84
-0.79
-0.84
-0.47
-0.12

> <PUBCHEM_SHAPE_SELFOVERLAP>
1432.452

> <PUBCHEM_SHAPE_VOLUME>
382.2

> <PUBCHEM_COORDINATE_TYPE>
2
5
10

$$$$

