5211
  -OEChem-06261200353D

 58 62  0     1  0  0  0  0  0999 V2000
    1.4232    1.8525   -0.1255 O   0  0  0  0  0  0  0  0  0  0  0  0
    0.6783   -1.5220    1.3584 O   0  0  0  0  0  0  0  0  0  0  0  0
    3.1696   -2.6753   -0.1207 O   0  0  0  0  0  0  0  0  0  0  0  0
   -1.6774   -0.4673   -0.0751 C   0  0  2  0  0  0  0  0  0  0  0  0
   -2.6627    0.7344   -0.3344 C   0  0  1  0  0  0  0  0  0  0  0  0
   -0.2099    0.0444   -0.2838 C   0  0  1  0  0  0  0  0  0  0  0  0
    0.1826    1.3678    0.4547 C   0  0  2  0  0  0  0  0  0  0  0  0
   -4.1939    0.3874   -0.3650 C   0  0  0  0  0  0  0  0  0  0  0  0
   -2.0154   -1.5427   -1.1579 C   0  0  0  0  0  0  0  0  0  0  0  0
   -2.2964    1.9774    0.4955 C   0  0  0  0  0  0  0  0  0  0  0  0
   -1.7554   -1.1349    1.3211 C   0  0  0  0  0  0  0  0  0  0  0  0
   -0.8783    2.4418    0.1594 C   0  0  0  0  0  0  0  0  0  0  0  0
    0.8341   -1.0364    0.0271 C   0  0  1  0  0  0  0  0  0  0  0  0
   -4.4274   -0.7929   -1.3427 C   0  0  0  0  0  0  0  0  0  0  0  0
   -3.4828   -1.9728   -1.1510 C   0  0  0  0  0  0  0  0  0  0  0  0
   -0.5981   -2.1041    1.5912 C   0  0  0  0  0  0  0  0  0  0  0  0
    0.4118    1.3466    1.9838 C   0  0  0  0  0  0  0  0  0  0  0  0
   -5.0001    1.5892   -0.9277 C   0  0  0  0  0  0  0  0  0  0  0  0
   -4.8005    0.0731    1.0139 C   0  0  0  0  0  0  0  0  0  0  0  0
    2.2217   -0.4627   -0.1295 C   0  0  0  0  0  0  0  0  0  0  0  0
    2.4324    0.9227   -0.2120 C   0  0  0  0  0  0  0  0  0  0  0  0
    3.3261   -1.3228   -0.2092 C   0  0  0  0  0  0  0  0  0  0  0  0
    3.7188    1.4319   -0.4059 C   0  0  0  0  0  0  0  0  0  0  0  0
    4.6117   -0.8107   -0.3871 C   0  0  0  0  0  0  0  0  0  0  0  0
    4.8070    0.5650   -0.4902 C   0  0  0  0  0  0  0  0  0  0  0  0
    6.1809    1.1105   -0.6874 C   0  0  0  0  0  0  0  0  0  0  0  0
   -2.4502    1.0389   -1.3745 H   0  0  0  0  0  0  0  0  0  0  0  0
   -0.1074    0.2694   -1.3590 H   0  0  0  0  0  0  0  0  0  0  0  0
   -1.3973   -2.4388   -1.0458 H   0  0  0  0  0  0  0  0  0  0  0  0
   -1.7793   -1.1433   -2.1537 H   0  0  0  0  0  0  0  0  0  0  0  0
   -2.4014    1.7832    1.5667 H   0  0  0  0  0  0  0  0  0  0  0  0
   -2.9676    2.8105    0.2664 H   0  0  0  0  0  0  0  0  0  0  0  0
   -2.6715   -1.7095    1.4542 H   0  0  0  0  0  0  0  0  0  0  0  0
   -1.7745   -0.3761    2.1038 H   0  0  0  0  0  0  0  0  0  0  0  0
   -0.8270    2.7260   -0.9009 H   0  0  0  0  0  0  0  0  0  0  0  0
   -0.6519    3.3658    0.7072 H   0  0  0  0  0  0  0  0  0  0  0  0
    0.7272   -1.8716   -0.6762 H   0  0  0  0  0  0  0  0  0  0  0  0
   -4.3028   -0.4344   -2.3741 H   0  0  0  0  0  0  0  0  0  0  0  0
   -5.4636   -1.1474   -1.2707 H   0  0  0  0  0  0  0  0  0  0  0  0
   -3.6442   -2.6900   -1.9653 H   0  0  0  0  0  0  0  0  0  0  0  0
   -3.7291   -2.5092   -0.2295 H   0  0  0  0  0  0  0  0  0  0  0  0
   -0.6289   -2.4171    2.6404 H   0  0  0  0  0  0  0  0  0  0  0  0
   -0.6901   -3.0161    0.9913 H   0  0  0  0  0  0  0  0  0  0  0  0
    1.2096    0.6647    2.2895 H   0  0  0  0  0  0  0  0  0  0  0  0
    0.7522    2.3352    2.3197 H   0  0  0  0  0  0  0  0  0  0  0  0
   -0.4811    1.1099    2.5602 H   0  0  0  0  0  0  0  0  0  0  0  0
   -4.5685    1.9561   -1.8657 H   0  0  0  0  0  0  0  0  0  0  0  0
   -6.0384    1.3031   -1.1352 H   0  0  0  0  0  0  0  0  0  0  0  0
   -5.0375    2.4247   -0.2213 H   0  0  0  0  0  0  0  0  0  0  0  0
   -4.5405    0.8357    1.7543 H   0  0  0  0  0  0  0  0  0  0  0  0
   -5.8958    0.0432    0.9566 H   0  0  0  0  0  0  0  0  0  0  0  0
   -4.5012   -0.8983    1.4045 H   0  0  0  0  0  0  0  0  0  0  0  0
    3.8685    2.5067   -0.4782 H   0  0  0  0  0  0  0  0  0  0  0  0
    5.4637   -1.4839   -0.4486 H   0  0  0  0  0  0  0  0  0  0  0  0
    4.0391   -3.1040   -0.1980 H   0  0  0  0  0  0  0  0  0  0  0  0
    6.8030    0.4156   -1.2618 H   0  0  0  0  0  0  0  0  0  0  0  0
    6.1564    2.0531   -1.2449 H   0  0  0  0  0  0  0  0  0  0  0  0
    6.6568    1.2891    0.2818 H   0  0  0  0  0  0  0  0  0  0  0  0
  1  7  1  0  0  0  0
  1 21  1  0  0  0  0
  2 13  1  0  0  0  0
  2 16  1  0  0  0  0
  3 22  1  0  0  0  0
  3 55  1  0  0  0  0
  4  5  1  0  0  0  0
  4  6  1  0  0  0  0
  4  9  1  0  0  0  0
  4 11  1  0  0  0  0
  5  8  1  0  0  0  0
  5 10  1  0  0  0  0
  5 27  1  0  0  0  0
  6  7  1  0  0  0  0
  6 13  1  0  0  0  0
  6 28  1  0  0  0  0
  7 12  1  0  0  0  0
  7 17  1  0  0  0  0
  8 14  1  0  0  0  0
  8 18  1  0  0  0  0
  8 19  1  0  0  0  0
  9 15  1  0  0  0  0
  9 29  1  0  0  0  0
  9 30  1  0  0  0  0
 10 12  1  0  0  0  0
 10 31  1  0  0  0  0
 10 32  1  0  0  0  0
 11 16  1  0  0  0  0
 11 33  1  0  0  0  0
 11 34  1  0  0  0  0
 12 35  1  0  0  0  0
 12 36  1  0  0  0  0
 13 20  1  0  0  0  0
 13 37  1  0  0  0  0
 14 15  1  0  0  0  0
 14 38  1  0  0  0  0
 14 39  1  0  0  0  0
 15 40  1  0  0  0  0
 15 41  1  0  0  0  0
 16 42  1  0  0  0  0
 16 43  1  0  0  0  0
 17 44  1  0  0  0  0
 17 45  1  0  0  0  0
 17 46  1  0  0  0  0
 18 47  1  0  0  0  0
 18 48  1  0  0  0  0
 18 49  1  0  0  0  0
 19 50  1  0  0  0  0
 19 51  1  0  0  0  0
 19 52  1  0  0  0  0
 20 21  1  0  0  0  0
 20 22  2  0  0  0  0
 21 23  2  0  0  0  0
 22 24  1  0  0  0  0
 23 25  1  0  0  0  0
 23 53  1  0  0  0  0
 24 25  2  0  0  0  0
 24 54  1  0  0  0  0
 25 26  1  0  0  0  0
 26 56  1  0  0  0  0
 26 57  1  0  0  0  0
 26 58  1  0  0  0  0
M  END
> <PUBCHEM_COMPOUND_CID>
5211

> <PUBCHEM_CONFORMER_RMSD>
0.6

> <PUBCHEM_CONFORMER_DIVERSEORDER>
2
28
22
19
3
12
32
26
20
24
7
34
18
11
15
9
23
35
8
31
25
39
30
5
37
36
33
14
16
4
21
38
17
1
6
13
27
29
10

> <PUBCHEM_MMFF94_PARTIAL_CHARGES>
16
1 -0.36
13 0.42
16 0.28
2 -0.56
20 -0.14
21 0.08
22 0.08
23 -0.15
24 -0.15
25 -0.14
26 0.14
3 -0.53
53 0.15
54 0.15
55 0.45
7 0.28

> <PUBCHEM_EFFECTIVE_ROTOR_COUNT>
2

> <PUBCHEM_PHARMACOPHORE_FEATURES>
9
1 1 acceptor
1 2 acceptor
1 3 donor
3 8 18 19 hydrophobe
6 1 6 7 13 20 21 rings
6 2 4 6 11 13 16 rings
6 20 21 22 23 24 25 rings
6 4 5 6 7 10 12 rings
6 4 5 8 9 14 15 rings

> <PUBCHEM_HEAVY_ATOM_COUNT>
26

> <PUBCHEM_ATOM_DEF_STEREO_COUNT>
0

> <PUBCHEM_ATOM_UDEF_STEREO_COUNT>
5

> <PUBCHEM_BOND_DEF_STEREO_COUNT>
0

> <PUBCHEM_BOND_UDEF_STEREO_COUNT>
0

> <PUBCHEM_ISOTOPIC_ATOM_COUNT>
0

> <PUBCHEM_COMPONENT_COUNT>
1

> <PUBCHEM_CACTVS_TAUTO_COUNT>
9

> <PUBCHEM_CONFORMER_ID>
0000145B00000002

> <PUBCHEM_MMFF94_ENERGY>
109.7331

> <PUBCHEM_FEATURE_SELFOVERLAP>
45.844

> <PUBCHEM_SHAPE_FINGERPRINT>
10366900 7 18334290942881077512
10863032 1 18114467773208937667
10906281 52 18340471301967156172
11578080 2 13541023847538697236
12035759 4 18269000945479460521
12236239 1 18411138060412729965
12788726 201 17531802579584665144
13224815 77 18407758131941727010
13944108 23 17114397386189968765
14294032 229 16371555047469083401
14787075 74 18413108350879384016
14790565 3 18046341105293040097
15196674 1 18339078297390171005
15209289 33 18341894069807653115
15219462 58 15336864108810032297
15420108 30 16534258823161724192
15484559 13 16252810242761238405
16752209 62 18043828682636983153
16945 1 18261397766638815089
17349148 13 18343869909504019984
17492 89 18264487463180711150
18186145 218 17917438622242836391
18608769 82 18128531575254180411
19862831 5 18342461447460945415
200 152 18114178618883475374
20511986 3 18338815467441238924
20691752 17 18129680616027815881
20775438 99 16600447735158586503
21033648 144 17559115363811229276
21033650 10 18119501423588734124
21267235 1 18335411374592854270
21279426 13 18200029684706894543
221357 26 18337680702901473055
22393880 68 18041284257689292742
23402539 116 18342460318079829436
23557571 272 17241043314167922688
23559900 14 18262243218499160808
23566358 2 18338802341683644092
25147074 1 18266452282454180768
3004659 81 18339363067276782406
335352 9 18260269646888274893
34934 24 18409732875936078357
350125 39 18261954150268171137
474 4 18060135423239050060
5104073 3 18334297539296716835
633830 44 18131075965198008823
9709674 26 18410845586658101710

> <PUBCHEM_SHAPE_MULTIPOLES>
517.46
10.51
2.47
1.32
5.58
0.17
-0.44
-1.35
3.98
-0.13
-0.18
-0.85
0.28
-0.43

> <PUBCHEM_SHAPE_SELFOVERLAP>
1130.763

> <PUBCHEM_SHAPE_VOLUME>
276.6

> <PUBCHEM_COORDINATE_TYPE>
2
5
10

$$$$

