17395567
  -OEChem-06241222512D

 40 42  0     1  0  0  0  0  0999 V2000
    3.5103    3.1046    0.0000 O   0  0  0  0  0  0  0  0  0  0  0  0
    5.4641   -0.7432    0.0000 O   0  0  0  0  0  0  0  0  0  0  0  0
    7.3495    3.7432    0.0000 O   0  0  0  0  0  0  0  0  0  0  0  0
    5.0981    2.2956    0.0000 N   0  0  0  0  0  0  0  0  0  0  0  0
    3.7320   -0.7432    0.0000 N   0  0  0  0  0  0  0  0  0  0  0  0
    4.5981    0.7568    0.0000 C   0  0  3  0  0  0  0  0  0  0  0  0
    5.4071    1.3446    0.0000 C   0  0  0  0  0  0  0  0  0  0  0  0
    3.7891    1.3446    0.0000 C   0  0  0  0  0  0  0  0  0  0  0  0
    4.0981    2.2956    0.0000 C   0  0  0  0  0  0  0  0  0  0  0  0
    5.6859    3.1046    0.0000 C   0  0  0  0  0  0  0  0  0  0  0  0
    4.5981   -0.2432    0.0000 C   0  0  0  0  0  0  0  0  0  0  0  0
    6.6804    3.0001    0.0000 C   0  0  0  0  0  0  0  0  0  0  0  0
    3.7320   -1.7432    0.0000 C   0  0  0  0  0  0  0  0  0  0  0  0
    7.1804    2.1341    0.0000 C   0  0  0  0  0  0  0  0  0  0  0  0
    2.8660   -2.2432    0.0000 C   0  0  0  0  0  0  0  0  0  0  0  0
    4.5981   -2.2432    0.0000 C   0  0  0  0  0  0  0  0  0  0  0  0
    8.1585    2.3420    0.0000 C   0  0  0  0  0  0  0  0  0  0  0  0
    8.2631    3.3365    0.0000 C   0  0  0  0  0  0  0  0  0  0  0  0
    2.8660   -3.2432    0.0000 C   0  0  0  0  0  0  0  0  0  0  0  0
    2.0000   -1.7432    0.0000 C   0  0  0  0  0  0  0  0  0  0  0  0
    4.5981   -3.2432    0.0000 C   0  0  0  0  0  0  0  0  0  0  0  0
    3.7320   -3.7432    0.0000 C   0  0  0  0  0  0  0  0  0  0  0  0
    5.1505    0.4753    0.0000 H   0  0  0  0  0  0  0  0  0  0  0  0
    5.7171    0.8076    0.0000 H   0  0  0  0  0  0  0  0  0  0  0  0
    5.9735    1.5967    0.0000 H   0  0  0  0  0  0  0  0  0  0  0  0
    3.2227    1.5967    0.0000 H   0  0  0  0  0  0  0  0  0  0  0  0
    3.4791    0.8076    0.0000 H   0  0  0  0  0  0  0  0  0  0  0  0
    5.8568    3.7006    0.0000 H   0  0  0  0  0  0  0  0  0  0  0  0
    5.1286    3.3764    0.0000 H   0  0  0  0  0  0  0  0  0  0  0  0
    3.1951   -0.4332    0.0000 H   0  0  0  0  0  0  0  0  0  0  0  0
    6.9282    1.5677    0.0000 H   0  0  0  0  0  0  0  0  0  0  0  0
    5.1350   -1.9332    0.0000 H   0  0  0  0  0  0  0  0  0  0  0  0
    8.6193    1.9271    0.0000 H   0  0  0  0  0  0  0  0  0  0  0  0
    8.8000    3.6465    0.0000 H   0  0  0  0  0  0  0  0  0  0  0  0
    2.3291   -3.5532    0.0000 H   0  0  0  0  0  0  0  0  0  0  0  0
    2.3100   -1.2063    0.0000 H   0  0  0  0  0  0  0  0  0  0  0  0
    1.4631   -1.4332    0.0000 H   0  0  0  0  0  0  0  0  0  0  0  0
    1.6900   -2.2802    0.0000 H   0  0  0  0  0  0  0  0  0  0  0  0
    5.1350   -3.5532    0.0000 H   0  0  0  0  0  0  0  0  0  0  0  0
    3.7320   -4.3632    0.0000 H   0  0  0  0  0  0  0  0  0  0  0  0
  1  9  2  0  0  0  0
  2 11  2  0  0  0  0
  3 12  1  0  0  0  0
  3 18  1  0  0  0  0
  4  7  1  0  0  0  0
  4  9  1  0  0  0  0
  4 10  1  0  0  0  0
  5 11  1  0  0  0  0
  5 13  1  0  0  0  0
  5 30  1  0  0  0  0
  6  7  1  0  0  0  0
  6  8  1  0  0  0  0
  6 11  1  0  0  0  0
  6 23  1  0  0  0  0
  7 24  1  0  0  0  0
  7 25  1  0  0  0  0
  8  9  1  0  0  0  0
  8 26  1  0  0  0  0
  8 27  1  0  0  0  0
 10 12  1  0  0  0  0
 10 28  1  0  0  0  0
 10 29  1  0  0  0  0
 12 14  2  0  0  0  0
 13 15  1  0  0  0  0
 13 16  2  0  0  0  0
 14 17  1  0  0  0  0
 14 31  1  0  0  0  0
 15 19  2  0  0  0  0
 15 20  1  0  0  0  0
 16 21  1  0  0  0  0
 16 32  1  0  0  0  0
 17 18  2  0  0  0  0
 17 33  1  0  0  0  0
 18 34  1  0  0  0  0
 19 22  1  0  0  0  0
 19 35  1  0  0  0  0
 20 36  1  0  0  0  0
 20 37  1  0  0  0  0
 20 38  1  0  0  0  0
 21 22  2  0  0  0  0
 21 39  1  0  0  0  0
 22 40  1  0  0  0  0
M  END
> <PUBCHEM_COMPOUND_CID>
17395567

> <PUBCHEM_COMPOUND_CANONICALIZED>
1

> <PUBCHEM_CACTVS_COMPLEXITY>
426

> <PUBCHEM_CACTVS_HBOND_ACCEPTOR>
3

> <PUBCHEM_CACTVS_HBOND_DONOR>
1

> <PUBCHEM_CACTVS_ROTATABLE_BOND>
4

> <PUBCHEM_CACTVS_SUBSKEYS>
AAADceB7MAAAAAAAAAAAAAAAAAAAAWJAAAAwAAAAAAAAAAABwAAAHgAQAAAADQzhmAYyxIPABECIAq1S0ACCCAAlIgAIiAGObMgOJjrE9buHOSjk1hHY6YedkQIOAAAAAAACAAAAAAAAAAQAAAAAAAAAAA==

> <PUBCHEM_IUPAC_OPENEYE_NAME>
1-(2-furylmethyl)-N-(o-tolyl)-5-oxo-pyrrolidine-3-carboxamide

> <PUBCHEM_IUPAC_CAS_NAME>
1-(2-furanylmethyl)-N-(2-methylphenyl)-5-oxo-3-pyrrolidinecarboxamide

> <PUBCHEM_IUPAC_NAME>
1-(furan-2-ylmethyl)-N-(2-methylphenyl)-5-oxopyrrolidine-3-carboxamide

> <PUBCHEM_IUPAC_SYSTEMATIC_NAME>
1-(furan-2-ylmethyl)-N-(2-methylphenyl)-5-oxidanylidene-pyrrolidine-3-carboxamide

> <PUBCHEM_IUPAC_TRADITIONAL_NAME>
1-(2-furfuryl)-5-keto-N-(o-tolyl)pyrrolidine-3-carboxamide

> <PUBCHEM_IUPAC_INCHI>
InChI=1S/C17H18N2O3/c1-12-5-2-3-7-15(12)18-17(21)13-9-16(20)19(10-13)11-14-6-4-8-22-14/h2-8,13H,9-11H2,1H3,(H,18,21)

> <PUBCHEM_IUPAC_INCHIKEY>
UHESWIWJRJHHDZ-UHFFFAOYSA-N

> <PUBCHEM_XLOGP3_AA>
1.2

> <PUBCHEM_EXACT_MASS>
298.131742

> <PUBCHEM_MOLECULAR_FORMULA>
C17H18N2O3

> <PUBCHEM_MOLECULAR_WEIGHT>
298.33642

> <PUBCHEM_OPENEYE_CAN_SMILES>
CC1=CC=CC=C1NC(=O)C2CC(=O)N(C2)CC3=CC=CO3

> <PUBCHEM_OPENEYE_ISO_SMILES>
CC1=CC=CC=C1NC(=O)C2CC(=O)N(C2)CC3=CC=CO3

> <PUBCHEM_CACTVS_TPSA>
62.6

> <PUBCHEM_MONOISOTOPIC_WEIGHT>
298.131742

> <PUBCHEM_TOTAL_CHARGE>
0

> <PUBCHEM_HEAVY_ATOM_COUNT>
22

> <PUBCHEM_ATOM_DEF_STEREO_COUNT>
0

> <PUBCHEM_ATOM_UDEF_STEREO_COUNT>
1

> <PUBCHEM_BOND_DEF_STEREO_COUNT>
0

> <PUBCHEM_BOND_UDEF_STEREO_COUNT>
0

> <PUBCHEM_ISOTOPIC_ATOM_COUNT>
0

> <PUBCHEM_COMPONENT_COUNT>
1

> <PUBCHEM_CACTVS_TAUTO_COUNT>
6

> <PUBCHEM_COORDINATE_TYPE>
1
5
255

> <PUBCHEM_BONDANNOTATIONS>
12  14  8
13  15  8
13  16  8
14  17  8
15  19  8
16  21  8
17  18  8
19  22  8
21  22  8
3  12  8
3  18  8
6  11  3

$$$$

