10099075
  -OEChem-07051213082D

 95 95  0     0  0  0  0  0  0999 V2000
   14.9904    9.9400    0.0000 O   0  0  0  0  0  0  0  0  0  0  0  0
   14.1244    9.4400    0.0000 C   0  0  0  0  0  0  0  0  0  0  0  0
   13.2583    8.9400    0.0000 C   0  0  0  0  0  0  0  0  0  0  0  0
   13.2583    7.9400    0.0000 C   0  0  0  0  0  0  0  0  0  0  0  0
   12.3923    7.4400    0.0000 C   0  0  0  0  0  0  0  0  0  0  0  0
   13.6244   10.3060    0.0000 C   0  0  0  0  0  0  0  0  0  0  0  0
   14.6244    8.5740    0.0000 C   0  0  0  0  0  0  0  0  0  0  0  0
   12.3923    6.4400    0.0000 C   0  0  0  0  0  0  0  0  0  0  0  0
   13.2583    5.9400    0.0000 C   0  0  0  0  0  0  0  0  0  0  0  0
   11.5263    5.9400    0.0000 C   0  0  0  0  0  0  0  0  0  0  0  0
   11.5263    4.9400    0.0000 C   0  0  0  0  0  0  0  0  0  0  0  0
   10.6603    4.4400    0.0000 C   0  0  0  0  0  0  0  0  0  0  0  0
    2.8660   -9.0600    0.0000 C   0  0  0  0  0  0  0  0  0  0  0  0
    3.7320   -8.5600    0.0000 C   0  0  0  0  0  0  0  0  0  0  0  0
    2.8660  -10.0600    0.0000 C   0  0  0  0  0  0  0  0  0  0  0  0
    4.5981   -9.0600    0.0000 C   0  0  0  0  0  0  0  0  0  0  0  0
    3.7320  -10.5600    0.0000 C   0  0  0  0  0  0  0  0  0  0  0  0
    4.5981  -10.0600    0.0000 C   0  0  0  0  0  0  0  0  0  0  0  0
   10.6603    3.4400    0.0000 C   0  0  0  0  0  0  0  0  0  0  0  0
    2.0000   -8.5600    0.0000 C   0  0  0  0  0  0  0  0  0  0  0  0
    3.7320   -7.5600    0.0000 C   0  0  0  0  0  0  0  0  0  0  0  0
    2.0000  -10.5600    0.0000 C   0  0  0  0  0  0  0  0  0  0  0  0
    5.4641   -8.5600    0.0000 C   0  0  0  0  0  0  0  0  0  0  0  0
   11.5263    2.9400    0.0000 C   0  0  0  0  0  0  0  0  0  0  0  0
    4.5981   -7.0600    0.0000 C   0  0  0  0  0  0  0  0  0  0  0  0
    9.7942    2.9400    0.0000 C   0  0  0  0  0  0  0  0  0  0  0  0
    4.5981   -6.0600    0.0000 C   0  0  0  0  0  0  0  0  0  0  0  0
    9.7942    1.9400    0.0000 C   0  0  0  0  0  0  0  0  0  0  0  0
    3.7320   -5.5600    0.0000 C   0  0  0  0  0  0  0  0  0  0  0  0
    5.4641   -5.5600    0.0000 C   0  0  0  0  0  0  0  0  0  0  0  0
    8.9282    1.4400    0.0000 C   0  0  0  0  0  0  0  0  0  0  0  0
    5.4641   -4.5600    0.0000 C   0  0  0  0  0  0  0  0  0  0  0  0
    8.9282    0.4400    0.0000 C   0  0  0  0  0  0  0  0  0  0  0  0
    6.3301   -4.0600    0.0000 C   0  0  0  0  0  0  0  0  0  0  0  0
    6.3301   -3.0600    0.0000 C   0  0  0  0  0  0  0  0  0  0  0  0
    8.0622   -0.0600    0.0000 C   0  0  0  0  0  0  0  0  0  0  0  0
    9.7942   -0.0600    0.0000 C   0  0  0  0  0  0  0  0  0  0  0  0
    7.1962   -2.5600    0.0000 C   0  0  0  0  0  0  0  0  0  0  0  0
    5.4641   -2.5600    0.0000 C   0  0  0  0  0  0  0  0  0  0  0  0
    8.0622   -1.0600    0.0000 C   0  0  0  0  0  0  0  0  0  0  0  0
    7.1962   -1.5600    0.0000 C   0  0  0  0  0  0  0  0  0  0  0  0
   13.0463    9.5226    0.0000 H   0  0  0  0  0  0  0  0  0  0  0  0
   12.6477    8.8323    0.0000 H   0  0  0  0  0  0  0  0  0  0  0  0
   13.4704    7.3574    0.0000 H   0  0  0  0  0  0  0  0  0  0  0  0
   13.8689    8.0477    0.0000 H   0  0  0  0  0  0  0  0  0  0  0  0
   12.1803    8.0226    0.0000 H   0  0  0  0  0  0  0  0  0  0  0  0
   11.7817    7.3323    0.0000 H   0  0  0  0  0  0  0  0  0  0  0  0
   14.1613   10.6160    0.0000 H   0  0  0  0  0  0  0  0  0  0  0  0
   13.3144   10.8430    0.0000 H   0  0  0  0  0  0  0  0  0  0  0  0
   13.0874    9.9960    0.0000 H   0  0  0  0  0  0  0  0  0  0  0  0
   14.0874    8.2640    0.0000 H   0  0  0  0  0  0  0  0  0  0  0  0
   14.9344    8.0370    0.0000 H   0  0  0  0  0  0  0  0  0  0  0  0
   15.1613    8.8840    0.0000 H   0  0  0  0  0  0  0  0  0  0  0  0
   14.9904   10.5600    0.0000 H   0  0  0  0  0  0  0  0  0  0  0  0
   12.9483    5.4031    0.0000 H   0  0  0  0  0  0  0  0  0  0  0  0
   13.7953    5.6300    0.0000 H   0  0  0  0  0  0  0  0  0  0  0  0
   13.5683    6.4769    0.0000 H   0  0  0  0  0  0  0  0  0  0  0  0
   10.9893    6.2500    0.0000 H   0  0  0  0  0  0  0  0  0  0  0  0
   12.0632    4.6300    0.0000 H   0  0  0  0  0  0  0  0  0  0  0  0
   10.1233    4.7500    0.0000 H   0  0  0  0  0  0  0  0  0  0  0  0
    3.7320  -11.1800    0.0000 H   0  0  0  0  0  0  0  0  0  0  0  0
    5.1350  -10.3700    0.0000 H   0  0  0  0  0  0  0  0  0  0  0  0
    2.3100   -8.0231    0.0000 H   0  0  0  0  0  0  0  0  0  0  0  0
    1.4631   -8.2500    0.0000 H   0  0  0  0  0  0  0  0  0  0  0  0
    1.6900   -9.0969    0.0000 H   0  0  0  0  0  0  0  0  0  0  0  0
    3.1951   -7.2500    0.0000 H   0  0  0  0  0  0  0  0  0  0  0  0
    1.6900  -10.0231    0.0000 H   0  0  0  0  0  0  0  0  0  0  0  0
    1.4631  -10.8700    0.0000 H   0  0  0  0  0  0  0  0  0  0  0  0
    2.3100  -11.0969    0.0000 H   0  0  0  0  0  0  0  0  0  0  0  0
    5.7741   -9.0969    0.0000 H   0  0  0  0  0  0  0  0  0  0  0  0
    6.0010   -8.2500    0.0000 H   0  0  0  0  0  0  0  0  0  0  0  0
    5.1541   -8.0231    0.0000 H   0  0  0  0  0  0  0  0  0  0  0  0
    5.1350   -7.3700    0.0000 H   0  0  0  0  0  0  0  0  0  0  0  0
   11.2163    2.4031    0.0000 H   0  0  0  0  0  0  0  0  0  0  0  0
   12.0632    2.6300    0.0000 H   0  0  0  0  0  0  0  0  0  0  0  0
   11.8363    3.4769    0.0000 H   0  0  0  0  0  0  0  0  0  0  0  0
    9.2573    3.2500    0.0000 H   0  0  0  0  0  0  0  0  0  0  0  0
   10.3312    1.6300    0.0000 H   0  0  0  0  0  0  0  0  0  0  0  0
    4.0420   -5.0231    0.0000 H   0  0  0  0  0  0  0  0  0  0  0  0
    3.1951   -5.2500    0.0000 H   0  0  0  0  0  0  0  0  0  0  0  0
    3.4220   -6.0969    0.0000 H   0  0  0  0  0  0  0  0  0  0  0  0
    6.0010   -5.8700    0.0000 H   0  0  0  0  0  0  0  0  0  0  0  0
    8.3913    1.7500    0.0000 H   0  0  0  0  0  0  0  0  0  0  0  0
    4.9272   -4.2500    0.0000 H   0  0  0  0  0  0  0  0  0  0  0  0
    6.8671   -4.3700    0.0000 H   0  0  0  0  0  0  0  0  0  0  0  0
    7.5252    0.2500    0.0000 H   0  0  0  0  0  0  0  0  0  0  0  0
    9.4842   -0.5969    0.0000 H   0  0  0  0  0  0  0  0  0  0  0  0
   10.3312   -0.3700    0.0000 H   0  0  0  0  0  0  0  0  0  0  0  0
   10.1042    0.4769    0.0000 H   0  0  0  0  0  0  0  0  0  0  0  0
    7.7331   -2.8700    0.0000 H   0  0  0  0  0  0  0  0  0  0  0  0
    5.7741   -2.0231    0.0000 H   0  0  0  0  0  0  0  0  0  0  0  0
    4.9272   -2.2500    0.0000 H   0  0  0  0  0  0  0  0  0  0  0  0
    5.1541   -3.0969    0.0000 H   0  0  0  0  0  0  0  0  0  0  0  0
    8.5991   -1.3700    0.0000 H   0  0  0  0  0  0  0  0  0  0  0  0
    6.6592   -1.2500    0.0000 H   0  0  0  0  0  0  0  0  0  0  0  0
  1  2  1  0  0  0  0
  1 54  1  0  0  0  0
  2  3  1  0  0  0  0
  2  6  1  0  0  0  0
  2  7  1  0  0  0  0
  3  4  1  0  0  0  0
  3 42  1  0  0  0  0
  3 43  1  0  0  0  0
  4  5  1  0  0  0  0
  4 44  1  0  0  0  0
  4 45  1  0  0  0  0
  5  8  1  0  0  0  0
  5 46  1  0  0  0  0
  5 47  1  0  0  0  0
  6 48  1  0  0  0  0
  6 49  1  0  0  0  0
  6 50  1  0  0  0  0
  7 51  1  0  0  0  0
  7 52  1  0  0  0  0
  7 53  1  0  0  0  0
  8  9  1  0  0  0  0
  8 10  2  0  0  0  0
  9 55  1  0  0  0  0
  9 56  1  0  0  0  0
  9 57  1  0  0  0  0
 10 11  1  0  0  0  0
 10 58  1  0  0  0  0
 11 12  2  0  0  0  0
 11 59  1  0  0  0  0
 12 19  1  0  0  0  0
 12 60  1  0  0  0  0
 13 14  1  0  0  0  0
 13 15  2  0  0  0  0
 13 20  1  0  0  0  0
 14 16  2  0  0  0  0
 14 21  1  0  0  0  0
 15 17  1  0  0  0  0
 15 22  1  0  0  0  0
 16 18  1  0  0  0  0
 16 23  1  0  0  0  0
 17 18  2  0  0  0  0
 17 61  1  0  0  0  0
 18 62  1  0  0  0  0
 19 24  1  0  0  0  0
 19 26  2  0  0  0  0
 20 63  1  0  0  0  0
 20 64  1  0  0  0  0
 20 65  1  0  0  0  0
 21 25  2  0  0  0  0
 21 66  1  0  0  0  0
 22 67  1  0  0  0  0
 22 68  1  0  0  0  0
 22 69  1  0  0  0  0
 23 70  1  0  0  0  0
 23 71  1  0  0  0  0
 23 72  1  0  0  0  0
 24 74  1  0  0  0  0
 24 75  1  0  0  0  0
 24 76  1  0  0  0  0
 25 27  1  0  0  0  0
 25 73  1  0  0  0  0
 26 28  1  0  0  0  0
 26 77  1  0  0  0  0
 27 29  1  0  0  0  0
 27 30  2  0  0  0  0
 28 31  2  0  0  0  0
 28 78  1  0  0  0  0
 29 79  1  0  0  0  0
 29 80  1  0  0  0  0
 29 81  1  0  0  0  0
 30 32  1  0  0  0  0
 30 82  1  0  0  0  0
 31 33  1  0  0  0  0
 31 83  1  0  0  0  0
 32 34  2  0  0  0  0
 32 84  1  0  0  0  0
 33 36  2  0  0  0  0
 33 37  1  0  0  0  0
 34 35  1  0  0  0  0
 34 85  1  0  0  0  0
 35 38  2  0  0  0  0
 35 39  1  0  0  0  0
 36 40  1  0  0  0  0
 36 86  1  0  0  0  0
 37 87  1  0  0  0  0
 37 88  1  0  0  0  0
 37 89  1  0  0  0  0
 38 41  1  0  0  0  0
 38 90  1  0  0  0  0
 39 91  1  0  0  0  0
 39 92  1  0  0  0  0
 39 93  1  0  0  0  0
 40 41  2  0  0  0  0
 40 94  1  0  0  0  0
 41 95  1  0  0  0  0
M  END
> <PUBCHEM_COMPOUND_CID>
10099075

> <PUBCHEM_COMPOUND_CANONICALIZED>
1

> <PUBCHEM_CACTVS_COMPLEXITY>
1090

> <PUBCHEM_CACTVS_HBOND_ACCEPTOR>
1

> <PUBCHEM_CACTVS_HBOND_DONOR>
1

> <PUBCHEM_CACTVS_ROTATABLE_BOND>
14

> <PUBCHEM_CACTVS_SUBSKEYS>
AAADcfB8IAAAAAAAAAAAAAAAAAAAAAAAAAAwAAAAAAAAAAABAAAAGgAACAAADESAmAAyAIAAAgCAAiBCAAACAAAgAAAIiAAAAIgIICKAERCAYAAkgAAIiAeAwMAOwAACAAAQAACAAAQAACAAAAAAAAAAAA==

> <PUBCHEM_IUPAC_OPENEYE_NAME>
(6E,8E,10E,12E,14E,16E,18E,20E,22E,24E)-2,6,10,14,19,23-hexamethyl-25-(2,3,6-trimethylphenyl)pentacosa-6,8,10,12,14,16,18,20,22,24-decaen-2-ol

> <PUBCHEM_IUPAC_CAS_NAME>
(6E,8E,10E,12E,14E,16E,18E,20E,22E,24E)-2,6,10,14,19,23-hexamethyl-25-(2,3,6-trimethylphenyl)-2-pentacosa-6,8,10,12,14,16,18,20,22,24-decaenol

> <PUBCHEM_IUPAC_NAME>
(6E,8E,10E,12E,14E,16E,18E,20E,22E,24E)-2,6,10,14,19,23-hexamethyl-25-(2,3,6-trimethylphenyl)pentacosa-6,8,10,12,14,16,18,20,22,24-decaen-2-ol

> <PUBCHEM_IUPAC_SYSTEMATIC_NAME>
(6E,8E,10E,12E,14E,16E,18E,20E,22E,24E)-2,6,10,14,19,23-hexamethyl-25-(2,3,6-trimethylphenyl)pentacosa-6,8,10,12,14,16,18,20,22,24-decaen-2-ol

> <PUBCHEM_IUPAC_TRADITIONAL_NAME>
(6E,8E,10E,12E,14E,16E,18E,20E,22E,24E)-2,6,10,14,19,23-hexamethyl-25-(2,3,6-trimethylphenyl)pentacosa-6,8,10,12,14,16,18,20,22,24-decaen-2-ol

> <PUBCHEM_IUPAC_INCHI>
InChI=1S/C40H54O/c1-31(19-13-21-33(3)22-14-23-34(4)25-16-30-40(9,10)41)17-11-12-18-32(2)20-15-24-35(5)26-29-39-37(7)28-27-36(6)38(39)8/h11-15,17-24,26-29,41H,16,25,30H2,1-10H3/b12-11+,19-13+,20-15+,22-14+,29-26+,31-17+,32-18+,33-21+,34-23+,35-24+

> <PUBCHEM_IUPAC_INCHIKEY>
RIDGLTKNIODKLC-YWCRMUQNSA-N

> <PUBCHEM_XLOGP3_AA>
13.5

> <PUBCHEM_EXACT_MASS>
550.417466

> <PUBCHEM_MOLECULAR_FORMULA>
C40H54O

> <PUBCHEM_MOLECULAR_WEIGHT>
550.85616

> <PUBCHEM_OPENEYE_CAN_SMILES>
CC1=C(C(=C(C=C1)C)C=CC(=CC=CC(=CC=CC=C(C)C=CC=C(C)C=CC=C(C)CCCC(C)(C)O)C)C)C

> <PUBCHEM_OPENEYE_ISO_SMILES>
CC1=C(C(=C(C=C1)C)/C=C/C(=C/C=C/C(=C/C=C/C=C(\C)/C=C/C=C(\C)/C=C/C=C(\C)/CCCC(C)(C)O)/C)/C)C

> <PUBCHEM_CACTVS_TPSA>
20.2

> <PUBCHEM_MONOISOTOPIC_WEIGHT>
550.417466

> <PUBCHEM_TOTAL_CHARGE>
0

> <PUBCHEM_HEAVY_ATOM_COUNT>
41

> <PUBCHEM_ATOM_DEF_STEREO_COUNT>
0

> <PUBCHEM_ATOM_UDEF_STEREO_COUNT>
0

> <PUBCHEM_BOND_DEF_STEREO_COUNT>
10

> <PUBCHEM_BOND_UDEF_STEREO_COUNT>
0

> <PUBCHEM_ISOTOPIC_ATOM_COUNT>
0

> <PUBCHEM_COMPONENT_COUNT>
1

> <PUBCHEM_CACTVS_TAUTO_COUNT>
1

> <PUBCHEM_COORDINATE_TYPE>
1
5
255

> <PUBCHEM_BONDANNOTATIONS>
13  14  8
13  15  8
14  16  8
15  17  8
16  18  8
17  18  8

$$$$

