11953960
  -OEChem-07051213023D

 51 53  0     1  0  0  0  0  0999 V2000
   -3.9642   -1.8690   -0.5070 O   0  0  0  0  0  0  0  0  0  0  0  0
   -1.9921    3.4246   -1.3292 O   0  0  0  0  0  0  0  0  0  0  0  0
   -3.5578   -1.6080    2.6904 O   0  0  0  0  0  0  0  0  0  0  0  0
   -1.8784   -2.6631    0.0701 O   0  0  0  0  0  0  0  0  0  0  0  0
    0.3326    1.2357    1.8563 N   0  0  0  0  0  0  0  0  0  0  0  0
    2.2653   -1.1641   -0.2686 N   0  0  0  0  0  0  0  0  0  0  0  0
    0.3911    0.1427    0.8560 C   0  0  1  0  0  0  0  0  0  0  0  0
   -0.5232    0.4299   -0.3365 C   0  0  0  0  0  0  0  0  0  0  0  0
    1.8026   -0.0819    0.4235 C   0  0  0  0  0  0  0  0  0  0  0  0
    2.8584    0.7733    0.6527 C   0  0  0  0  0  0  0  0  0  0  0  0
   -1.9988    0.6983    0.0637 C   0  0  1  0  0  0  0  0  0  0  0  0
    2.6713    2.0365    1.4162 C   0  0  0  0  0  0  0  0  0  0  0  0
    1.1737    2.3974    1.5131 C   0  0  0  0  0  0  0  0  0  0  0  0
    4.0173    0.1916    0.0714 C   0  0  0  0  0  0  0  0  0  0  0  0
   -2.8304    1.1364   -1.1757 C   0  0  1  0  0  0  0  0  0  0  0  0
    3.6175   -1.0214   -0.5015 C   0  0  0  0  0  0  0  0  0  0  0  0
   -2.6085   -0.4946    0.7926 C   0  0  0  0  0  0  0  0  0  0  0  0
    5.3711    0.5715   -0.0226 C   0  0  0  0  0  0  0  0  0  0  0  0
    4.5096   -1.8696   -1.1676 C   0  0  0  0  0  0  0  0  0  0  0  0
   -4.2451    1.5423   -0.8449 C   0  0  0  0  0  0  0  0  0  0  0  0
   -2.1815    2.3330   -1.8571 C   0  0  0  0  0  0  0  0  0  0  0  0
    6.2726   -0.2686   -0.6860 C   0  0  0  0  0  0  0  0  0  0  0  0
    5.8463   -1.4695   -1.2492 C   0  0  0  0  0  0  0  0  0  0  0  0
   -2.7432   -1.7985    0.0866 C   0  0  0  0  0  0  0  0  0  0  0  0
   -3.0370   -0.5087    2.0646 C   0  0  0  0  0  0  0  0  0  0  0  0
   -5.3296    0.9867   -1.3981 C   0  0  0  0  0  0  0  0  0  0  0  0
   -4.2397   -3.0829   -1.2133 C   0  0  0  0  0  0  0  0  0  0  0  0
    0.0490   -0.7711    1.3570 H   0  0  0  0  0  0  0  0  0  0  0  0
   -0.1203    1.2851   -0.8929 H   0  0  0  0  0  0  0  0  0  0  0  0
   -0.4860   -0.4129   -1.0406 H   0  0  0  0  0  0  0  0  0  0  0  0
   -2.0022    1.5510    0.7582 H   0  0  0  0  0  0  0  0  0  0  0  0
    3.2169    2.8589    0.9406 H   0  0  0  0  0  0  0  0  0  0  0  0
    3.0817    1.9031    2.4247 H   0  0  0  0  0  0  0  0  0  0  0  0
    0.6532    0.8681    2.7533 H   0  0  0  0  0  0  0  0  0  0  0  0
    1.0390    3.1718    2.2765 H   0  0  0  0  0  0  0  0  0  0  0  0
    0.8293    2.8360    0.5687 H   0  0  0  0  0  0  0  0  0  0  0  0
    1.7052   -1.9495   -0.5708 H   0  0  0  0  0  0  0  0  0  0  0  0
   -2.8312    0.3258   -1.9168 H   0  0  0  0  0  0  0  0  0  0  0  0
    5.7185    1.5045    0.4119 H   0  0  0  0  0  0  0  0  0  0  0  0
    4.1799   -2.8060   -1.6052 H   0  0  0  0  0  0  0  0  0  0  0  0
   -4.3867    2.3272   -0.1055 H   0  0  0  0  0  0  0  0  0  0  0  0
   -1.8769    2.1631   -2.9050 H   0  0  0  0  0  0  0  0  0  0  0  0
    7.3175    0.0206   -0.7617 H   0  0  0  0  0  0  0  0  0  0  0  0
    6.5638   -2.1068   -1.7597 H   0  0  0  0  0  0  0  0  0  0  0  0
   -3.0068    0.3433    2.7276 H   0  0  0  0  0  0  0  0  0  0  0  0
   -6.3220    1.3191   -1.1137 H   0  0  0  0  0  0  0  0  0  0  0  0
   -5.2496    0.2000   -2.1398 H   0  0  0  0  0  0  0  0  0  0  0  0
   -3.5834   -2.3672    2.0873 H   0  0  0  0  0  0  0  0  0  0  0  0
   -5.2436   -3.0074   -1.6394 H   0  0  0  0  0  0  0  0  0  0  0  0
   -3.5216   -3.2179   -2.0277 H   0  0  0  0  0  0  0  0  0  0  0  0
   -4.2121   -3.9345   -0.5270 H   0  0  0  0  0  0  0  0  0  0  0  0
  1 24  1  0  0  0  0
  1 27  1  0  0  0  0
  2 21  2  0  0  0  0
  3 25  1  0  0  0  0
  3 48  1  0  0  0  0
  4 24  2  0  0  0  0
  5  7  1  0  0  0  0
  5 13  1  0  0  0  0
  5 34  1  0  0  0  0
  6  9  1  0  0  0  0
  6 16  1  0  0  0  0
  6 37  1  0  0  0  0
  7  8  1  0  0  0  0
  7  9  1  0  0  0  0
  7 28  1  0  0  0  0
  8 11  1  0  0  0  0
  8 29  1  0  0  0  0
  8 30  1  0  0  0  0
  9 10  2  0  0  0  0
 10 12  1  0  0  0  0
 10 14  1  0  0  0  0
 11 15  1  0  0  0  0
 11 17  1  0  0  0  0
 11 31  1  0  0  0  0
 12 13  1  0  0  0  0
 12 32  1  0  0  0  0
 12 33  1  0  0  0  0
 13 35  1  0  0  0  0
 13 36  1  0  0  0  0
 14 16  1  0  0  0  0
 14 18  2  0  0  0  0
 15 20  1  0  0  0  0
 15 21  1  0  0  0  0
 15 38  1  0  0  0  0
 16 19  2  0  0  0  0
 17 24  1  0  0  0  0
 17 25  2  0  0  0  0
 18 22  1  0  0  0  0
 18 39  1  0  0  0  0
 19 23  1  0  0  0  0
 19 40  1  0  0  0  0
 20 26  2  0  0  0  0
 20 41  1  0  0  0  0
 21 42  1  0  0  0  0
 22 23  2  0  0  0  0
 22 43  1  0  0  0  0
 23 44  1  0  0  0  0
 25 45  1  0  0  0  0
 26 46  1  0  0  0  0
 26 47  1  0  0  0  0
 27 49  1  0  0  0  0
 27 50  1  0  0  0  0
 27 51  1  0  0  0  0
M  END
> <PUBCHEM_COMPOUND_CID>
11953960

> <PUBCHEM_CONFORMER_RMSD>
1

> <PUBCHEM_CONFORMER_DIVERSEORDER>
1
3
4
18
14
7
22
13
6
17
28
31
24
26
21
29
30
23
2
12
9
15
16
5
32
27
25
10
19
11
8
20

> <PUBCHEM_MMFF94_PARTIAL_CHARGES>
37
1 -0.43
10 -0.18
11 0.14
12 0.18
13 0.27
15 0.2
16 -0.15
17 -0.12
18 -0.15
19 -0.15
2 -0.57
20 -0.29
21 0.45
22 -0.15
23 -0.15
24 0.71
25 -0.07
26 -0.3
27 0.28
3 -0.53
34 0.36
37 0.27
39 0.15
4 -0.57
40 0.15
41 0.15
42 0.06
43 0.15
44 0.15
45 0.15
46 0.15
47 0.15
48 0.45
5 -0.9
6 0.03
7 0.45
9 -0.33

> <PUBCHEM_EFFECTIVE_ROTOR_COUNT>
8.8

> <PUBCHEM_PHARMACOPHORE_FEATURES>
12
1 2 acceptor
1 26 hydrophobe
1 3 donor
1 4 acceptor
1 5 cation
1 5 donor
1 6 cation
1 6 donor
5 6 9 10 14 16 rings
5 8 11 15 17 20 hydrophobe
6 14 16 18 19 22 23 rings
6 5 7 9 10 12 13 rings

> <PUBCHEM_HEAVY_ATOM_COUNT>
27

> <PUBCHEM_ATOM_DEF_STEREO_COUNT>
3

> <PUBCHEM_ATOM_UDEF_STEREO_COUNT>
0

> <PUBCHEM_BOND_DEF_STEREO_COUNT>
1

> <PUBCHEM_BOND_UDEF_STEREO_COUNT>
0

> <PUBCHEM_ISOTOPIC_ATOM_COUNT>
0

> <PUBCHEM_COMPONENT_COUNT>
1

> <PUBCHEM_CACTVS_TAUTO_COUNT>
9

> <PUBCHEM_CONFORMER_ID>
00B6672800000001

> <PUBCHEM_MMFF94_ENERGY>
55.2913

> <PUBCHEM_FEATURE_SELFOVERLAP>
61.069

> <PUBCHEM_SHAPE_FINGERPRINT>
10165383 225 18196650911751555445
10366900 7 18342466975289817477
107951 10 17560515218138572611
11135926 11 18041830814523048782
12236239 1 16081093688102250152
12553582 1 18041273383185721882
12596602 18 5617248192232478198
12623949 98 17680979704467958359
12633257 1 17822552950656847795
12714826 92 18343012307171008632
12788726 201 18130235981196073553
13103583 49 17168685493094241082
13402501 40 18408044030439477223
14910302 57 18336840726866239677
17349148 13 15575006060695478852
21792961 116 18339633556069950174
22393880 68 18410583872377624386
23402539 116 17203605995756992300
23557571 272 18201725011341307089
23559900 14 18261122850087734489
46194498 28 18269558230577097524
508706 21 18341899562665097470

> <PUBCHEM_SHAPE_MULTIPOLES>
522.21
12.67
3.03
1.87
10.82
0.27
-0.68
4.5
4.95
-2.69
0.73
-1.83
-0.43
2.71

> <PUBCHEM_SHAPE_SELFOVERLAP>
1111.368

> <PUBCHEM_SHAPE_VOLUME>
287.5

> <PUBCHEM_COORDINATE_TYPE>
2
5
10

$$$$

