582859
  -OEChem-06241222443D

 54 53  0     1  0  0  0  0  0999 V2000
    4.7593   -1.0342   -0.5922 Si  0  0  0  0  0  0  0  0  0  0  0  0
    3.1909   -0.4640   -0.4436 O   0  0  0  0  0  0  0  0  0  0  0  0
    2.9533    0.7687    0.2309 C   0  0  2  0  0  0  0  0  0  0  0  0
    1.4422    1.0324    0.2441 C   0  0  0  0  0  0  0  0  0  0  0  0
    0.6696   -0.0644    0.9856 C   0  0  0  0  0  0  0  0  0  0  0  0
   -0.8297    0.2420    1.0235 C   0  0  0  0  0  0  0  0  0  0  0  0
   -1.6051   -0.8728    1.7284 C   0  0  0  0  0  0  0  0  0  0  0  0
   -3.1167   -0.6287    1.7766 C   0  0  0  0  0  0  0  0  0  0  0  0
    3.6952    1.9046   -0.4835 C   0  0  0  0  0  0  0  0  0  0  0  0
   -3.8009   -0.4143    0.4222 C   0  0  0  0  0  0  0  0  0  0  0  0
   -5.3166   -0.2316    0.5319 C   0  0  0  0  0  0  0  0  0  0  0  0
   -5.9991   -0.0096   -0.8216 C   0  0  0  0  0  0  0  0  0  0  0  0
    4.7522   -2.6716   -1.5245 C   0  0  0  0  0  0  0  0  0  0  0  0
    5.5413   -1.3287    1.0931 C   0  0  0  0  0  0  0  0  0  0  0  0
    5.8370    0.1743   -1.5493 C   0  0  0  0  0  0  0  0  0  0  0  0
    3.5060    3.2541    0.1966 C   0  0  0  0  0  0  0  0  0  0  0  0
   -7.5213    0.0984   -0.7223 C   0  0  0  0  0  0  0  0  0  0  0  0
   -8.1573    0.2455   -2.0961 C   0  0  0  0  0  0  0  0  0  0  0  0
    3.2984    0.6903    1.2714 H   0  0  0  0  0  0  0  0  0  0  0  0
    1.0701    1.0870   -0.7869 H   0  0  0  0  0  0  0  0  0  0  0  0
    1.2208    1.9892    0.7281 H   0  0  0  0  0  0  0  0  0  0  0  0
    1.0511   -0.1545    2.0099 H   0  0  0  0  0  0  0  0  0  0  0  0
    0.8299   -1.0314    0.4940 H   0  0  0  0  0  0  0  0  0  0  0  0
   -1.0038    1.1945    1.5379 H   0  0  0  0  0  0  0  0  0  0  0  0
   -1.1839    0.3562   -0.0066 H   0  0  0  0  0  0  0  0  0  0  0  0
   -1.2335   -0.9876    2.7538 H   0  0  0  0  0  0  0  0  0  0  0  0
   -1.4185   -1.8245    1.2156 H   0  0  0  0  0  0  0  0  0  0  0  0
   -3.3097    0.2461    2.4105 H   0  0  0  0  0  0  0  0  0  0  0  0
   -3.5845   -1.4836    2.2806 H   0  0  0  0  0  0  0  0  0  0  0  0
    3.4343    1.9639   -1.5455 H   0  0  0  0  0  0  0  0  0  0  0  0
    4.7643    1.7849   -0.3848 H   0  0  0  0  0  0  0  0  0  0  0  0
   -3.5841   -1.2695   -0.2293 H   0  0  0  0  0  0  0  0  0  0  0  0
   -3.3865    0.4746   -0.0662 H   0  0  0  0  0  0  0  0  0  0  0  0
   -5.5335    0.6207    1.1875 H   0  0  0  0  0  0  0  0  0  0  0  0
   -5.7491   -1.1183    1.0115 H   0  0  0  0  0  0  0  0  0  0  0  0
   -5.5984    0.9016   -1.2826 H   0  0  0  0  0  0  0  0  0  0  0  0
   -5.7410   -0.8413   -1.4892 H   0  0  0  0  0  0  0  0  0  0  0  0
    4.3312   -2.5398   -2.5255 H   0  0  0  0  0  0  0  0  0  0  0  0
    5.7691   -3.0618   -1.6254 H   0  0  0  0  0  0  0  0  0  0  0  0
    4.1492   -3.4124   -0.9912 H   0  0  0  0  0  0  0  0  0  0  0  0
    5.6230   -0.3914    1.6511 H   0  0  0  0  0  0  0  0  0  0  0  0
    4.9368   -2.0270    1.6794 H   0  0  0  0  0  0  0  0  0  0  0  0
    6.5448   -1.7502    0.9827 H   0  0  0  0  0  0  0  0  0  0  0  0
    6.5900   -0.4070   -2.0949 H   0  0  0  0  0  0  0  0  0  0  0  0
    5.2811    0.7320   -2.3075 H   0  0  0  0  0  0  0  0  0  0  0  0
    6.4084    0.8475   -0.9040 H   0  0  0  0  0  0  0  0  0  0  0  0
    2.4963    3.6453    0.0422 H   0  0  0  0  0  0  0  0  0  0  0  0
    4.2011    3.9883   -0.2253 H   0  0  0  0  0  0  0  0  0  0  0  0
    3.6966    3.1903    1.2728 H   0  0  0  0  0  0  0  0  0  0  0  0
   -7.7918    0.9597   -0.1010 H   0  0  0  0  0  0  0  0  0  0  0  0
   -7.9261   -0.7953   -0.2334 H   0  0  0  0  0  0  0  0  0  0  0  0
   -7.9321   -0.6196   -2.7279 H   0  0  0  0  0  0  0  0  0  0  0  0
   -7.7935    1.1453   -2.6023 H   0  0  0  0  0  0  0  0  0  0  0  0
   -9.2450    0.3241   -2.0033 H   0  0  0  0  0  0  0  0  0  0  0  0
  1  2  1  0  0  0  0
  1 13  1  0  0  0  0
  1 14  1  0  0  0  0
  1 15  1  0  0  0  0
  2  3  1  0  0  0  0
  3  4  1  0  0  0  0
  3  9  1  0  0  0  0
  3 19  1  0  0  0  0
  4  5  1  0  0  0  0
  4 20  1  0  0  0  0
  4 21  1  0  0  0  0
  5  6  1  0  0  0  0
  5 22  1  0  0  0  0
  5 23  1  0  0  0  0
  6  7  1  0  0  0  0
  6 24  1  0  0  0  0
  6 25  1  0  0  0  0
  7  8  1  0  0  0  0
  7 26  1  0  0  0  0
  7 27  1  0  0  0  0
  8 10  1  0  0  0  0
  8 28  1  0  0  0  0
  8 29  1  0  0  0  0
  9 16  1  0  0  0  0
  9 30  1  0  0  0  0
  9 31  1  0  0  0  0
 10 11  1  0  0  0  0
 10 32  1  0  0  0  0
 10 33  1  0  0  0  0
 11 12  1  0  0  0  0
 11 34  1  0  0  0  0
 11 35  1  0  0  0  0
 12 17  1  0  0  0  0
 12 36  1  0  0  0  0
 12 37  1  0  0  0  0
 13 38  1  0  0  0  0
 13 39  1  0  0  0  0
 13 40  1  0  0  0  0
 14 41  1  0  0  0  0
 14 42  1  0  0  0  0
 14 43  1  0  0  0  0
 15 44  1  0  0  0  0
 15 45  1  0  0  0  0
 15 46  1  0  0  0  0
 16 47  1  0  0  0  0
 16 48  1  0  0  0  0
 16 49  1  0  0  0  0
 17 18  1  0  0  0  0
 17 50  1  0  0  0  0
 17 51  1  0  0  0  0
 18 52  1  0  0  0  0
 18 53  1  0  0  0  0
 18 54  1  0  0  0  0
M  END
> <PUBCHEM_COMPOUND_CID>
582859

> <PUBCHEM_CONFORMER_RMSD>
1

> <PUBCHEM_CONFORMER_DIVERSEORDER>
3
486
249
45
205
484
229
261
326
308
319
322
26
347
103
356
97
126
139
25
409
383
237
84
35
4
38
93
99
274
178
80
437
86
461
83
349
216
485
115
222
235
114
242
482
227
94
430
297
316
42
150
265
159
18
276
345
324
456
33
66
54
277
147
396
95
406
68
244
361
323
162
5
398
469
258
402
155
27
64
1
424
302
141
17
314
138
452
40
190
331
9
70
226
332
62
243
475
74
145
133
426
77
337
100
423
176
278
355
121
449
288
188
252
55
375
195
171
399
192
447
465
203
364
61
191
204
457
286
321
441
320
209
183
480
487
401
110
22
146
432
473
393
175
181
458
50
416
16
91
389
372
131
329
287
53
291
92
255
359
96
394
250
6
248
387
154
198
58
294
223
395
107
101
445
13
19
373
169
362
208
49
48
404
315
290
334
464
105
257
185
367
210
69
446
254
213
104
307
431
233
251
435
168
224
193
476
260
284
354
28
351
352
428
240
273
182
438
78
136
21
453
298
379
239
425
202
342
266
20
63
44
346
149
301
403
82
270
312
117
285
156
343
130
128
263
234
385
81
407
196
75
32
184
186
140
368
2
194
304
129
333
60
358
215
420
429
357
180
41
444
71
219
52
236
325
225
264
189
281
39
292
15
388
451
313
272
374
12
421
338
295
436
157
56
271
122
241
211
201
340
468
317
459
253
363
207
344
132
462
478
36
10
174
111
187
335
102
37
228
197
378
282
300
218
279
34
443
88
212
414
417
419
245
73
327
142
411
381
109
98
310
46
318
371
152
7
238
262
365
79
376
450
353
24
65
118
369
112
232
14
160
148
384
439
127
167
472
170
172
309
134
350
474
43
477
268
164
454
179
275
85
123
267
377
57
348
397
113
200
158
336
283
366
151
330
328
125
89
467
410
289
11
161
341
460
483
400
311
199
269
440
296
124
408
173
427
380
422
116
434
8
455
137
280
370
120
119
231
230
30
214
390
305
221
177
59
382
299
31
412
481
51
360
166
72
67
47
392
163
293
463
306
29
108
470
442
217
153
76
479
471
143
247
433
415
256
413
339
206
165
135
87
391
90
23
259
246
144
220
303
466
386
405
418
448
106

> <PUBCHEM_MMFF94_PARTIAL_CHARGES>
6
1 0.54
13 -0.08
14 -0.08
15 -0.08
2 -0.58
3 0.28

> <PUBCHEM_EFFECTIVE_ROTOR_COUNT>
12

> <PUBCHEM_PHARMACOPHORE_FEATURES>
2
1 16 hydrophobe
1 18 hydrophobe

> <PUBCHEM_HEAVY_ATOM_COUNT>
18

> <PUBCHEM_ATOM_DEF_STEREO_COUNT>
0

> <PUBCHEM_ATOM_UDEF_STEREO_COUNT>
1

> <PUBCHEM_BOND_DEF_STEREO_COUNT>
0

> <PUBCHEM_BOND_UDEF_STEREO_COUNT>
0

> <PUBCHEM_ISOTOPIC_ATOM_COUNT>
0

> <PUBCHEM_COMPONENT_COUNT>
1

> <PUBCHEM_CACTVS_TAUTO_COUNT>
1

> <PUBCHEM_CONFORMER_ID>
0008E4CB00000003

> <PUBCHEM_MMFF94_ENERGY>
18.5411

> <PUBCHEM_FEATURE_SELFOVERLAP>
10.149

> <PUBCHEM_SHAPE_FINGERPRINT>
10378564 45 18131632287758299536
106641 1 14707216526449718354
10670039 82 17417818404462906101
10753850 27 16081091464031669443
12596602 18 14490468720401542010
12838862 33 18408883998375314468
13533116 47 17603301566308375690
13668630 136 17095241432442542383
13862211 1 15502093038748797239
14251740 57 16082196571664489310
14251757 52 14836403640385181463
146900 427 10807932648135978116
15119646 104 17530957025626811943
15183329 4 18273213131707698747
15188451 53 16660363722616173746
17834072 8 18131347514352246139
190975 80 6194549018721613023
20281389 69 15123793989743040271
20369508 70 18343575240746407626
20526848 3 15195564620078750447
20621476 66 15339114641765944911
20621476 78 18040714809208090243
20645477 70 18339063918504302626
21315764 119 16486966332485448106
21637258 2 16370451055736294241
22061861 79 18410289220557092823
221357 26 18413671322419015853
2215653 11 18342168981715821210
22224240 67 10015860982137304633
22289505 5 18131061598738469812
23081809 10 17530954775163909873
23559900 14 18339913815064540320
29717793 49 18261109686197380705
3004659 81 17894345575218958278
3014063 24 17604144951767102174
32948 21 17346594175523886538
3663271 9 11312057656547485189
4340502 62 8502373313170527684
54076057 255 14764336141947096990
6438161 24 16081381730980430599
8988823 20 17458069257412572576

> <PUBCHEM_SHAPE_MULTIPOLES>
382.78
21.55
2.17
1.79
42.62
1.19
0.09
-4.08
12.98
-5.49
0.47
1.65
-0.53
0.86

> <PUBCHEM_SHAPE_SELFOVERLAP>
680.626

> <PUBCHEM_SHAPE_VOLUME>
249.3

> <PUBCHEM_COORDINATE_TYPE>
2
5
10

$$$$

