449043
  -OEChem-07051212453D

 66 68  0     1  0  0  0  0  0999 V2000
   -2.9303    2.0660   -1.3949 P   0  0  1  0  0  0  0  0  0  0  0  0
   -1.8309    3.2464    1.0658 P   0  0  2  0  0  0  0  0  0  0  0  0
    2.9517    1.8458    1.4062 O   0  0  0  0  0  0  0  0  0  0  0  0
   -1.8429   -0.5376    0.8715 O   0  0  0  0  0  0  0  0  0  0  0  0
   -3.1663    0.6164   -0.7247 O   0  0  0  0  0  0  0  0  0  0  0  0
   -3.4624   -3.6481   -1.3592 O   0  0  0  0  0  0  0  0  0  0  0  0
    3.2416    3.9245   -0.7350 O   0  0  0  0  0  0  0  0  0  0  0  0
   -4.3171   -3.2268    1.3485 O   0  0  0  0  0  0  0  0  0  0  0  0
    3.2559    1.5980   -2.1582 O   0  0  0  0  0  0  0  0  0  0  0  0
   -0.2690    3.5004    1.4020 O   0  0  0  0  0  0  0  0  0  0  0  0
   -1.3565   -2.1952    3.0448 O   0  0  0  0  0  0  0  0  0  0  0  0
   -1.7971    2.7624   -0.4761 O   0  0  0  0  0  0  0  0  0  0  0  0
   -2.1475    1.7536   -2.7759 O   0  0  0  0  0  0  0  0  0  0  0  0
   -4.1770    2.8858   -1.5616 O   0  0  0  0  0  0  0  0  0  0  0  0
    5.3070   -0.6575   -0.8466 O   0  0  0  0  0  0  0  0  0  0  0  0
   -2.4545    4.7356    0.9660 O   0  0  0  0  0  0  0  0  0  0  0  0
   -0.1950   -1.3039   -3.3315 O   0  0  0  0  0  0  0  0  0  0  0  0
   -2.5544    2.3172    1.9962 O   0  0  0  0  0  0  0  0  0  0  0  0
    3.1981   -4.2408    1.1428 O   0  0  0  0  0  0  0  0  0  0  0  0
    3.4133   -0.2398    0.4564 N   0  0  0  0  0  0  0  0  0  0  0  0
   -1.0217   -2.2849   -1.3895 N   0  0  0  0  0  0  0  0  0  0  0  0
    4.2550   -2.4407    0.1442 N   0  0  0  0  0  0  0  0  0  0  0  0
   -2.2649   -1.5466   -1.3105 C   0  0  1  0  0  0  0  0  0  0  0  0
   -3.3811   -2.3925   -0.6893 C   0  0  2  0  0  0  0  0  0  0  0  0
    2.1703    3.0102   -0.5030 C   0  0  1  0  0  0  0  0  0  0  0  0
   -3.1563   -2.5988    0.8097 C   0  0  1  0  0  0  0  0  0  0  0  0
    2.5733    1.6120   -0.9213 C   0  0  2  0  0  0  0  0  0  0  0  0
    2.0023    2.8567    1.0026 C   0  0  1  0  0  0  0  0  0  0  0  0
    3.4543    1.1780    0.2374 C   0  0  1  0  0  0  0  0  0  0  0  0
   -2.9134   -1.2497    1.4988 C   0  0  1  0  0  0  0  0  0  0  0  0
   -2.0579   -0.2547   -0.5142 C   0  0  2  0  0  0  0  0  0  0  0  0
    0.6107    2.3897    1.4084 C   0  0  0  0  0  0  0  0  0  0  0  0
   -2.5372   -1.4178    2.9681 C   0  0  0  0  0  0  0  0  0  0  0  0
    4.3908   -1.0743   -0.1347 C   0  0  0  0  0  0  0  0  0  0  0  0
    2.4131   -0.7907    1.2490 C   0  0  0  0  0  0  0  0  0  0  0  0
   -0.0947   -2.0957   -2.3979 C   0  0  0  0  0  0  0  0  0  0  0  0
    2.2966   -2.0952    1.5059 C   0  0  0  0  0  0  0  0  0  0  0  0
    1.1171   -2.9720   -2.2267 C   0  0  0  0  0  0  0  0  0  0  0  0
    3.2770   -3.0353    0.9263 C   0  0  0  0  0  0  0  0  0  0  0  0
   -2.5582   -1.2967   -2.3384 H   0  0  0  0  0  0  0  0  0  0  0  0
   -4.3482   -1.8965   -0.8428 H   0  0  0  0  0  0  0  0  0  0  0  0
    1.2874    3.3841   -1.0294 H   0  0  0  0  0  0  0  0  0  0  0  0
   -2.3196   -3.2891    0.9618 H   0  0  0  0  0  0  0  0  0  0  0  0
    1.6817    0.9797   -1.0124 H   0  0  0  0  0  0  0  0  0  0  0  0
    2.2571    3.7812    1.5334 H   0  0  0  0  0  0  0  0  0  0  0  0
    4.4932    1.4955    0.0865 H   0  0  0  0  0  0  0  0  0  0  0  0
   -3.8213   -0.6338    1.4623 H   0  0  0  0  0  0  0  0  0  0  0  0
   -1.1448    0.2405   -0.8624 H   0  0  0  0  0  0  0  0  0  0  0  0
    0.2402    1.5968    0.7521 H   0  0  0  0  0  0  0  0  0  0  0  0
    0.6262    1.9823    2.4252 H   0  0  0  0  0  0  0  0  0  0  0  0
   -3.3318   -1.9162    3.5315 H   0  0  0  0  0  0  0  0  0  0  0  0
   -2.3285   -0.4444    3.4239 H   0  0  0  0  0  0  0  0  0  0  0  0
   -0.7992   -2.9193   -0.6286 H   0  0  0  0  0  0  0  0  0  0  0  0
   -3.5978   -3.4676   -2.3050 H   0  0  0  0  0  0  0  0  0  0  0  0
    2.9507    4.7983   -0.4226 H   0  0  0  0  0  0  0  0  0  0  0  0
   -5.0668   -2.6165    1.2426 H   0  0  0  0  0  0  0  0  0  0  0  0
    3.5497    0.6851   -2.3189 H   0  0  0  0  0  0  0  0  0  0  0  0
    1.6782   -0.1189    1.6709 H   0  0  0  0  0  0  0  0  0  0  0  0
   -1.1301   -2.2816    3.9865 H   0  0  0  0  0  0  0  0  0  0  0  0
    4.9463   -3.0591   -0.2707 H   0  0  0  0  0  0  0  0  0  0  0  0
    1.4992   -2.4898    2.1234 H   0  0  0  0  0  0  0  0  0  0  0  0
    1.0120   -3.6780   -1.3989 H   0  0  0  0  0  0  0  0  0  0  0  0
    1.9869   -2.3367   -2.0396 H   0  0  0  0  0  0  0  0  0  0  0  0
    1.2753   -3.5410   -3.1471 H   0  0  0  0  0  0  0  0  0  0  0  0
   -2.0154    2.4805   -3.4211 H   0  0  0  0  0  0  0  0  0  0  0  0
   -2.0435    5.3811    0.3525 H   0  0  0  0  0  0  0  0  0  0  0  0
  1  5  1  0  0  0  0
  1 12  1  0  0  0  0
  1 13  1  0  0  0  0
  1 14  2  0  0  0  0
  2 10  1  0  0  0  0
  2 12  1  0  0  0  0
  2 16  1  0  0  0  0
  2 18  2  0  0  0  0
  3 28  1  0  0  0  0
  3 29  1  0  0  0  0
  4 30  1  0  0  0  0
  4 31  1  0  0  0  0
  5 31  1  0  0  0  0
  6 24  1  0  0  0  0
  6 54  1  0  0  0  0
  7 25  1  0  0  0  0
  7 55  1  0  0  0  0
  8 26  1  0  0  0  0
  8 56  1  0  0  0  0
  9 27  1  0  0  0  0
  9 57  1  0  0  0  0
 10 32  1  0  0  0  0
 11 33  1  0  0  0  0
 11 59  1  0  0  0  0
 13 65  1  0  0  0  0
 15 34  2  0  0  0  0
 16 66  1  0  0  0  0
 17 36  2  0  0  0  0
 19 39  2  0  0  0  0
 20 29  1  0  0  0  0
 20 34  1  0  0  0  0
 20 35  1  0  0  0  0
 21 23  1  0  0  0  0
 21 36  1  0  0  0  0
 21 53  1  0  0  0  0
 22 34  1  0  0  0  0
 22 39  1  0  0  0  0
 22 60  1  0  0  0  0
 23 24  1  0  0  0  0
 23 31  1  0  0  0  0
 23 40  1  0  0  0  0
 24 26  1  0  0  0  0
 24 41  1  0  0  0  0
 25 27  1  0  0  0  0
 25 28  1  0  0  0  0
 25 42  1  0  0  0  0
 26 30  1  0  0  0  0
 26 43  1  0  0  0  0
 27 29  1  0  0  0  0
 27 44  1  0  0  0  0
 28 32  1  0  0  0  0
 28 45  1  0  0  0  0
 29 46  1  0  0  0  0
 30 33  1  0  0  0  0
 30 47  1  0  0  0  0
 31 48  1  0  0  0  0
 32 49  1  0  0  0  0
 32 50  1  0  0  0  0
 33 51  1  0  0  0  0
 33 52  1  0  0  0  0
 35 37  2  0  0  0  0
 35 58  1  0  0  0  0
 36 38  1  0  0  0  0
 37 39  1  0  0  0  0
 37 61  1  0  0  0  0
 38 62  1  0  0  0  0
 38 63  1  0  0  0  0
 38 64  1  0  0  0  0
M  END
> <PUBCHEM_COMPOUND_CID>
449043

> <PUBCHEM_CONFORMER_RMSD>
1.2

> <PUBCHEM_CONFORMER_DIVERSEORDER>
1
284
157
4
146
15
154
271
46
234
279
193
82
131
235
101
123
50
189
260
62
90
22
243
151
77
109
70
79
74
179
29
3
150
117
111
78
177
254
108
267
9
211
129
97
225
218
165
238
256
84
103
124
114
19
268
130
2
252
258
269
14
145
244
40
21
224
87
102
233
277
99
223
18
282
49
147
71
192
185
13
251
126
194
93
241
276
91
81
227
206
285
135
264
198
56
205
122
60
48
24
278
139
118
261
213
44
66
201
169
266
113
5
164
63
197
31
184
8
245
144
35
80
138
37
137
140
86
172
178
212
188
61
128
107
246
217
187
207
195
204
167
199
38
32
142
214
89
180
220
73
34
166
226
247
112
45
249
72
183
143
273
67
136
250
281
170
257
175
265
262
272
216
158
92
68
162
121
65
47
51
95
171
221
228
242
16
209
57
96
20
83
149
174
127
75
255
33
110
17
88
119
23
208
248
200
176
54
98
239
115
7
148
104
182
42
12
161
155
229
253
231
26
120
53
163
196
106
28
230
39
202
270
186
210
153
52
152
11
76
100
222
85
141
58
132
219
41
160
236
283
168
259
64
240
105
27
36
275
43
94
156
133
237
69
274
173
181
134
215
159
116
125
191
55
203
280
25
10
30
190
232
6
59
263

> <PUBCHEM_MMFF94_PARTIAL_CHARGES>
50
1 1.51
10 -0.55
11 -0.68
12 -0.54
13 -0.77
14 -0.7
15 -0.57
16 -0.77
17 -0.57
18 -0.7
19 -0.57
2 1.51
20 -0.47
21 -0.73
22 -0.49
23 0.3
24 0.28
25 0.28
26 0.28
27 0.28
28 0.28
29 0.58
3 -0.56
30 0.28
31 0.56
32 0.28
33 0.28
34 0.69
35 -0.04
36 0.57
37 -0.14
38 0.06
39 0.62
4 -0.56
5 -0.55
53 0.37
54 0.4
55 0.4
56 0.4
57 0.4
58 0.15
59 0.4
6 -0.68
60 0.37
61 0.15
65 0.5
66 0.5
7 -0.68
8 -0.68
9 -0.68

> <PUBCHEM_EFFECTIVE_ROTOR_COUNT>
13.2

> <PUBCHEM_PHARMACOPHORE_FEATURES>
24
1 11 acceptor
1 11 donor
1 13 acceptor
1 14 acceptor
1 15 acceptor
1 16 acceptor
1 17 acceptor
1 18 acceptor
1 19 acceptor
1 21 donor
1 22 donor
1 3 acceptor
1 4 acceptor
1 6 acceptor
1 6 donor
1 7 acceptor
1 7 donor
1 8 acceptor
1 8 donor
1 9 acceptor
1 9 donor
5 3 25 27 28 29 rings
6 20 22 34 35 37 39 rings
6 4 23 24 26 30 31 rings

> <PUBCHEM_HEAVY_ATOM_COUNT>
39

> <PUBCHEM_ATOM_DEF_STEREO_COUNT>
9

> <PUBCHEM_ATOM_UDEF_STEREO_COUNT>
0

> <PUBCHEM_BOND_DEF_STEREO_COUNT>
0

> <PUBCHEM_BOND_UDEF_STEREO_COUNT>
0

> <PUBCHEM_ISOTOPIC_ATOM_COUNT>
0

> <PUBCHEM_COMPONENT_COUNT>
1

> <PUBCHEM_CACTVS_TAUTO_COUNT>
6

> <PUBCHEM_CONFORMER_ID>
0006DA1300000001

> <PUBCHEM_MMFF94_ENERGY>
51.4942

> <PUBCHEM_FEATURE_SELFOVERLAP>
121.837

> <PUBCHEM_SHAPE_FINGERPRINT>
12107698 1 18412269423697743322
12156800 1 15817927044378095650
12786520 15 17904720519673180507
14279260 333 18127128813535339946
14725015 67 17401792090110499284
17809404 112 18190488045787081600
17921350 177 18193256701970487010
17974551 9 18272381909296220158
19319366 153 17834673799638172396
20764821 26 17612572832541419791
20775530 9 18342179920992048184
3493558 16 17681578126988501535
35225 105 17768782584472913755
3737641 26 18194673774584421681
463206 1 17904491705385430914
469060 322 17404596471531648015

> <PUBCHEM_SHAPE_MULTIPOLES>
695.58
8.32
6.28
2.82
3.78
2.4
-0.42
-2.68
0.03
-1.16
0.74
-1.63
-1.13
-0.08

> <PUBCHEM_SHAPE_SELFOVERLAP>
1417.237

> <PUBCHEM_SHAPE_VOLUME>
403.9

> <PUBCHEM_COORDINATE_TYPE>
2
5
10

$$$$

