5686
  -OEChem-06261200493D

 79 82  0     1  0  0  0  0  0999 V2000
    4.5213    0.4815    1.7933 O   0  0  0  0  0  0  0  0  0  0  0  0
    2.4000    3.4008    1.8439 O   0  0  0  0  0  0  0  0  0  0  0  0
   -7.4561   -0.0297    1.2343 O   0  0  0  0  0  0  0  0  0  0  0  0
    0.7216   -0.1910    2.1066 O   0  0  0  0  0  0  0  0  0  0  0  0
    2.5143   -1.6875   -1.9556 O   0  0  0  0  0  0  0  0  0  0  0  0
   -8.0251    2.5386   -0.2257 O   0  0  0  0  0  0  0  0  0  0  0  0
    4.3071    1.3815   -0.3160 N   0  0  0  0  0  0  0  0  0  0  0  0
    1.6420    2.0289    0.1343 N   0  0  0  0  0  0  0  0  0  0  0  0
    3.2697   -1.6083    0.2393 N   0  0  0  0  0  0  0  0  0  0  0  0
    0.4078   -0.6047   -0.1553 N   0  0  0  0  0  0  0  0  0  0  0  0
    3.9820    2.7315    0.1601 C   0  0  1  0  0  0  0  0  0  0  0  0
    3.9927    3.6056   -1.0965 C   0  0  0  0  0  0  0  0  0  0  0  0
    4.8761    2.8364   -2.0681 C   0  0  0  0  0  0  0  0  0  0  0  0
    4.5695    1.3819   -1.7503 C   0  0  0  0  0  0  0  0  0  0  0  0
    4.5994   -1.0732   -0.0324 C   0  0  1  0  0  0  0  0  0  0  0  0
    4.5264    0.3309    0.5666 C   0  0  0  0  0  0  0  0  0  0  0  0
    2.6083    2.7368    0.8294 C   0  0  0  0  0  0  0  0  0  0  0  0
    5.6671   -1.9124    0.6523 C   0  0  0  0  0  0  0  0  0  0  0  0
    0.3311    1.6943    0.6719 C   0  0  1  0  0  0  0  0  0  0  0  0
   -0.7911    2.0809   -0.2757 C   0  0  0  0  0  0  0  0  0  0  0  0
   -2.1534    1.6330    0.2552 C   0  0  0  0  0  0  0  0  0  0  0  0
    0.9108   -1.9728   -0.1682 C   0  0  2  0  0  0  0  0  0  0  0  0
    0.4586    0.2049    0.9707 C   0  0  0  0  0  0  0  0  0  0  0  0
    7.0397   -1.2491    0.5313 C   0  0  0  0  0  0  0  0  0  0  0  0
    5.7057   -3.3247    0.0675 C   0  0  0  0  0  0  0  0  0  0  0  0
   -3.2846    2.0537   -0.6853 C   0  0  0  0  0  0  0  0  0  0  0  0
    2.3097   -1.7907   -0.7473 C   0  0  0  0  0  0  0  0  0  0  0  0
   -4.6505    1.6377   -0.1312 C   0  0  0  0  0  0  0  0  0  0  0  0
    0.0451   -2.8636   -1.0428 C   0  0  0  0  0  0  0  0  0  0  0  0
   -5.8036    2.0688   -1.0332 C   0  0  0  0  0  0  0  0  0  0  0  0
   -7.3915    0.2666   -0.1665 C   0  0  2  0  0  0  0  0  0  0  0  0
   -7.1508    1.7101   -0.4522 C   0  0  0  0  0  0  0  0  0  0  0  0
   -8.6710   -0.1690    0.4865 C   0  0  0  0  0  0  0  0  0  0  0  0
   -1.3655   -2.9626   -0.5221 C   0  0  0  0  0  0  0  0  0  0  0  0
   -2.4238   -3.1633   -1.4085 C   0  0  0  0  0  0  0  0  0  0  0  0
   -1.6133   -2.8539    0.8465 C   0  0  0  0  0  0  0  0  0  0  0  0
   -3.7295   -3.2552   -0.9267 C   0  0  0  0  0  0  0  0  0  0  0  0
   -2.9191   -2.9460    1.3283 C   0  0  0  0  0  0  0  0  0  0  0  0
   -3.9772   -3.1466    0.4416 C   0  0  0  0  0  0  0  0  0  0  0  0
    4.7464    3.0336    0.8845 H   0  0  0  0  0  0  0  0  0  0  0  0
    2.9896    3.7261   -1.5230 H   0  0  0  0  0  0  0  0  0  0  0  0
    4.3807    4.6083   -0.8917 H   0  0  0  0  0  0  0  0  0  0  0  0
    3.6631    1.0404   -2.2602 H   0  0  0  0  0  0  0  0  0  0  0  0
    5.4069    0.7300   -2.0105 H   0  0  0  0  0  0  0  0  0  0  0  0
    5.9301    3.0515   -1.8535 H   0  0  0  0  0  0  0  0  0  0  0  0
    4.6826    3.0895   -3.1140 H   0  0  0  0  0  0  0  0  0  0  0  0
    4.7634   -1.0568   -1.1107 H   0  0  0  0  0  0  0  0  0  0  0  0
    5.4404   -2.0085    1.7230 H   0  0  0  0  0  0  0  0  0  0  0  0
    0.1909    2.2105    1.6294 H   0  0  0  0  0  0  0  0  0  0  0  0
    1.9087    1.5825   -0.7384 H   0  0  0  0  0  0  0  0  0  0  0  0
   -0.7893    3.1719   -0.3990 H   0  0  0  0  0  0  0  0  0  0  0  0
   -0.6315    1.6724   -1.2806 H   0  0  0  0  0  0  0  0  0  0  0  0
    3.0000   -1.7098    1.2137 H   0  0  0  0  0  0  0  0  0  0  0  0
   -2.3206    2.0703    1.2472 H   0  0  0  0  0  0  0  0  0  0  0  0
   -2.1794    0.5439    0.3746 H   0  0  0  0  0  0  0  0  0  0  0  0
    1.0167   -2.3586    0.8500 H   0  0  0  0  0  0  0  0  0  0  0  0
   -3.2628    3.1414   -0.8234 H   0  0  0  0  0  0  0  0  0  0  0  0
   -3.1344    1.5978   -1.6713 H   0  0  0  0  0  0  0  0  0  0  0  0
    7.8138   -1.8802    0.9815 H   0  0  0  0  0  0  0  0  0  0  0  0
    7.0742   -0.2832    1.0447 H   0  0  0  0  0  0  0  0  0  0  0  0
    7.3098   -1.0863   -0.5179 H   0  0  0  0  0  0  0  0  0  0  0  0
    6.4870   -3.9220    0.5502 H   0  0  0  0  0  0  0  0  0  0  0  0
    4.7560   -3.8479    0.2187 H   0  0  0  0  0  0  0  0  0  0  0  0
    5.9155   -3.3043   -1.0074 H   0  0  0  0  0  0  0  0  0  0  0  0
    0.2095   -0.1858   -1.0577 H   0  0  0  0  0  0  0  0  0  0  0  0
   -4.6645    0.5489    0.0009 H   0  0  0  0  0  0  0  0  0  0  0  0
   -4.7908    2.0720    0.8668 H   0  0  0  0  0  0  0  0  0  0  0  0
    0.4744   -3.8718   -1.0929 H   0  0  0  0  0  0  0  0  0  0  0  0
    0.0221   -2.4753   -2.0699 H   0  0  0  0  0  0  0  0  0  0  0  0
   -5.7216    1.6013   -2.0209 H   0  0  0  0  0  0  0  0  0  0  0  0
   -5.7769    3.1545   -1.1820 H   0  0  0  0  0  0  0  0  0  0  0  0
   -6.8796   -0.4489   -0.7992 H   0  0  0  0  0  0  0  0  0  0  0  0
   -9.4557    0.5534    0.6684 H   0  0  0  0  0  0  0  0  0  0  0  0
   -9.0240   -1.1741    0.2931 H   0  0  0  0  0  0  0  0  0  0  0  0
   -2.2438   -3.2511   -2.4766 H   0  0  0  0  0  0  0  0  0  0  0  0
   -0.8305   -2.7307    1.5852 H   0  0  0  0  0  0  0  0  0  0  0  0
   -4.5535   -3.4110   -1.6168 H   0  0  0  0  0  0  0  0  0  0  0  0
   -3.1123   -2.8679    2.3942 H   0  0  0  0  0  0  0  0  0  0  0  0
   -4.9939   -3.2183    0.8168 H   0  0  0  0  0  0  0  0  0  0  0  0
  1 16  2  0  0  0  0
  2 17  2  0  0  0  0
  3 31  1  0  0  0  0
  3 33  1  0  0  0  0
  4 23  2  0  0  0  0
  5 27  2  0  0  0  0
  6 32  2  0  0  0  0
  7 11  1  0  0  0  0
  7 14  1  0  0  0  0
  7 16  1  0  0  0  0
  8 17  1  0  0  0  0
  8 19  1  0  0  0  0
  8 50  1  0  0  0  0
  9 15  1  0  0  0  0
  9 27  1  0  0  0  0
  9 53  1  0  0  0  0
 10 22  1  0  0  0  0
 10 23  1  0  0  0  0
 10 65  1  0  0  0  0
 11 12  1  0  0  0  0
 11 17  1  0  0  0  0
 11 40  1  0  0  0  0
 12 13  1  0  0  0  0
 12 41  1  0  0  0  0
 12 42  1  0  0  0  0
 13 14  1  0  0  0  0
 13 45  1  0  0  0  0
 13 46  1  0  0  0  0
 14 43  1  0  0  0  0
 14 44  1  0  0  0  0
 15 16  1  0  0  0  0
 15 18  1  0  0  0  0
 15 47  1  0  0  0  0
 18 24  1  0  0  0  0
 18 25  1  0  0  0  0
 18 48  1  0  0  0  0
 19 20  1  0  0  0  0
 19 23  1  0  0  0  0
 19 49  1  0  0  0  0
 20 21  1  0  0  0  0
 20 51  1  0  0  0  0
 20 52  1  0  0  0  0
 21 26  1  0  0  0  0
 21 54  1  0  0  0  0
 21 55  1  0  0  0  0
 22 27  1  0  0  0  0
 22 29  1  0  0  0  0
 22 56  1  0  0  0  0
 24 59  1  0  0  0  0
 24 60  1  0  0  0  0
 24 61  1  0  0  0  0
 25 62  1  0  0  0  0
 25 63  1  0  0  0  0
 25 64  1  0  0  0  0
 26 28  1  0  0  0  0
 26 57  1  0  0  0  0
 26 58  1  0  0  0  0
 28 30  1  0  0  0  0
 28 66  1  0  0  0  0
 28 67  1  0  0  0  0
 29 34  1  0  0  0  0
 29 68  1  0  0  0  0
 29 69  1  0  0  0  0
 30 32  1  0  0  0  0
 30 70  1  0  0  0  0
 30 71  1  0  0  0  0
 31 32  1  0  0  0  0
 31 33  1  0  0  0  0
 31 72  1  0  0  0  0
 33 73  1  0  0  0  0
 33 74  1  0  0  0  0
 34 35  2  0  0  0  0
 34 36  1  0  0  0  0
 35 37  1  0  0  0  0
 35 75  1  0  0  0  0
 36 38  2  0  0  0  0
 36 76  1  0  0  0  0
 37 39  2  0  0  0  0
 37 77  1  0  0  0  0
 38 39  1  0  0  0  0
 38 78  1  0  0  0  0
 39 79  1  0  0  0  0
M  END
> <PUBCHEM_COMPOUND_CID>
5686

> <PUBCHEM_CONFORMER_RMSD>
1.8

> <PUBCHEM_CONFORMER_DIVERSEORDER>
1
53
12
54
51
32
61
56
62
29
48
23
37
47
57
25
34
13
44
7
6
59
45
64
58
11
41
60
49
35
21
52
26
5
28
43
55
10
18
36
65
46
4
22
66
31
15
20
63
8
38
33
16
30
42
24
14
9
39
17
19
27
40
3
50
2

> <PUBCHEM_MMFF94_PARTIAL_CHARGES>
41
1 -0.57
10 -0.73
11 0.36
14 0.3
15 0.36
16 0.57
17 0.57
19 0.36
2 -0.57
22 0.36
23 0.57
27 0.57
29 0.14
3 -0.3
30 0.06
31 0.05
32 0.51
33 -0.05
34 -0.14
35 -0.15
36 -0.15
37 -0.15
38 -0.15
39 -0.15
4 -0.57
5 -0.57
50 0.37
53 0.37
6 -0.57
65 0.37
7 -0.66
72 0.1
73 0.1
74 0.1
75 0.15
76 0.15
77 0.15
78 0.15
79 0.15
8 -0.73
9 -0.73

> <PUBCHEM_EFFECTIVE_ROTOR_COUNT>
12.4

> <PUBCHEM_PHARMACOPHORE_FEATURES>
13
1 1 acceptor
1 10 donor
1 2 acceptor
1 3 acceptor
1 4 acceptor
1 5 acceptor
1 6 acceptor
1 8 donor
1 9 donor
3 18 24 25 hydrophobe
5 20 21 26 28 30 hydrophobe
5 7 11 12 13 14 rings
6 34 35 36 37 38 39 rings

> <PUBCHEM_HEAVY_ATOM_COUNT>
39

> <PUBCHEM_ATOM_DEF_STEREO_COUNT>
0

> <PUBCHEM_ATOM_UDEF_STEREO_COUNT>
5

> <PUBCHEM_BOND_DEF_STEREO_COUNT>
0

> <PUBCHEM_BOND_UDEF_STEREO_COUNT>
0

> <PUBCHEM_ISOTOPIC_ATOM_COUNT>
0

> <PUBCHEM_COMPONENT_COUNT>
1

> <PUBCHEM_CACTVS_TAUTO_COUNT>
24

> <PUBCHEM_CONFORMER_ID>
0000163600000001

> <PUBCHEM_MMFF94_ENERGY>
99.5239

> <PUBCHEM_FEATURE_SELFOVERLAP>
65.97

> <PUBCHEM_SHAPE_FINGERPRINT>
1100329 8 18337394941294076070
12422481 6 18337388236644600443
13692114 37 18188226320583640575
14117953 113 18262234534069461678
15968369 153 18040722424754337597
16112460 7 18334286583510215337
21033648 29 17605865606461612354
21133410 90 17095815330030101610
21781051 124 18342449352880616761
249057 3 18340208582943822046
27425 322 17489303032019111201
3178227 256 18337390560432585707
4144715 1 18127403463186609571
460360 51 18339367366306761522
484989 97 18412819213675911634
54131252 71 17916323769899117978
6086070 43 17604425189518411800
6523845 18 15051736400068736088

> <PUBCHEM_SHAPE_MULTIPOLES>
747.46
19.32
5.35
1.51
29.94
0.94
-0.07
-5.69
0.28
-0.95
-0.87
-1.09
-0.22
-0.4

> <PUBCHEM_SHAPE_SELFOVERLAP>
1549.743

> <PUBCHEM_SHAPE_VOLUME>
424.1

> <PUBCHEM_COORDINATE_TYPE>
2
5
10

$$$$

