3342
  -OEChem-07051212523D

 32 33  0     1  0  0  0  0  0999 V2000
    1.4894    1.6930   -0.5572 O   0  0  0  0  0  0  0  0  0  0  0  0
   -3.0718   -2.9992    0.1443 O   0  0  0  0  0  0  0  0  0  0  0  0
   -1.3316   -1.9213    1.1169 O   0  0  0  0  0  0  0  0  0  0  0  0
   -2.7906   -0.6586   -0.3808 C   0  0  1  0  0  0  0  0  0  0  0  0
   -1.9558    0.5466   -0.1083 C   0  0  0  0  0  0  0  0  0  0  0  0
   -0.6071    0.5557   -0.4640 C   0  0  0  0  0  0  0  0  0  0  0  0
   -2.8978   -1.0205   -1.8762 C   0  0  0  0  0  0  0  0  0  0  0  0
   -2.5238    1.6650    0.5018 C   0  0  0  0  0  0  0  0  0  0  0  0
    0.1736    1.6835   -0.2097 C   0  0  0  0  0  0  0  0  0  0  0  0
   -2.3076   -1.8996    0.3782 C   0  0  0  0  0  0  0  0  0  0  0  0
   -1.7433    2.7927    0.7561 C   0  0  0  0  0  0  0  0  0  0  0  0
   -0.3946    2.8019    0.4003 C   0  0  0  0  0  0  0  0  0  0  0  0
    2.2439    0.5724   -0.2527 C   0  0  0  0  0  0  0  0  0  0  0  0
    2.1204   -0.0032    0.9989 C   0  0  0  0  0  0  0  0  0  0  0  0
    3.1017    0.0582   -1.2081 C   0  0  0  0  0  0  0  0  0  0  0  0
    2.8809   -1.1315    1.3056 C   0  0  0  0  0  0  0  0  0  0  0  0
    3.8622   -1.0701   -0.9012 C   0  0  0  0  0  0  0  0  0  0  0  0
    3.7517   -1.6650    0.3558 C   0  0  0  0  0  0  0  0  0  0  0  0
   -3.8089   -0.4716   -0.0129 H   0  0  0  0  0  0  0  0  0  0  0  0
   -0.1782   -0.3108   -0.9614 H   0  0  0  0  0  0  0  0  0  0  0  0
   -3.1990   -0.1472   -2.4653 H   0  0  0  0  0  0  0  0  0  0  0  0
   -1.9438   -1.3844   -2.2740 H   0  0  0  0  0  0  0  0  0  0  0  0
   -3.6429   -1.8060   -2.0423 H   0  0  0  0  0  0  0  0  0  0  0  0
   -3.5729    1.6750    0.7853 H   0  0  0  0  0  0  0  0  0  0  0  0
   -2.1854    3.6635    1.2312 H   0  0  0  0  0  0  0  0  0  0  0  0
    0.2085    3.6831    0.6012 H   0  0  0  0  0  0  0  0  0  0  0  0
    1.4671    0.4065    1.7637 H   0  0  0  0  0  0  0  0  0  0  0  0
    3.1883    0.5202   -2.1869 H   0  0  0  0  0  0  0  0  0  0  0  0
    2.7988   -1.5917    2.2860 H   0  0  0  0  0  0  0  0  0  0  0  0
    4.5404   -1.4855   -1.6408 H   0  0  0  0  0  0  0  0  0  0  0  0
   -2.7435   -3.7829    0.6347 H   0  0  0  0  0  0  0  0  0  0  0  0
    4.3447   -2.5429    0.5950 H   0  0  0  0  0  0  0  0  0  0  0  0
  1  9  1  0  0  0  0
  1 13  1  0  0  0  0
  2 10  1  0  0  0  0
  2 31  1  0  0  0  0
  3 10  2  0  0  0  0
  4  5  1  0  0  0  0
  4  7  1  0  0  0  0
  4 10  1  0  0  0  0
  4 19  1  0  0  0  0
  5  6  2  0  0  0  0
  5  8  1  0  0  0  0
  6  9  1  0  0  0  0
  6 20  1  0  0  0  0
  7 21  1  0  0  0  0
  7 22  1  0  0  0  0
  7 23  1  0  0  0  0
  8 11  2  0  0  0  0
  8 24  1  0  0  0  0
  9 12  2  0  0  0  0
 11 12  1  0  0  0  0
 11 25  1  0  0  0  0
 12 26  1  0  0  0  0
 13 14  2  0  0  0  0
 13 15  1  0  0  0  0
 14 16  1  0  0  0  0
 14 27  1  0  0  0  0
 15 17  2  0  0  0  0
 15 28  1  0  0  0  0
 16 18  2  0  0  0  0
 16 29  1  0  0  0  0
 17 18  1  0  0  0  0
 17 30  1  0  0  0  0
 18 32  1  0  0  0  0
M  END
> <PUBCHEM_COMPOUND_CID>
3342

> <PUBCHEM_CONFORMER_RMSD>
0.6

> <PUBCHEM_CONFORMER_DIVERSEORDER>
14
96
27
23
24
95
71
47
88
63
44
83
81
41
104
77
99
32
31
46
55
90
54
62
50
6
33
86
93
66
68
100
53
67
76
16
65
38
12
9
39
101
98
73
94
70
11
82
29
87
7
60
92
8
5
61
57
40
22
17
25
84
52
89
37
85
4
28
43
103
56
69
2
78
36
59
21
18
48
97
30
80
72
34
26
102
74
49
75
51
10
64
58
91
42
20
1
45
3
19
35
13
79
15

> <PUBCHEM_MMFF94_PARTIAL_CHARGES>
27
1 -0.17
10 0.66
11 -0.15
12 -0.15
13 0.08
14 -0.15
15 -0.15
16 -0.15
17 -0.15
18 -0.15
2 -0.65
20 0.15
24 0.15
25 0.15
26 0.15
27 0.15
28 0.15
29 0.15
3 -0.57
30 0.15
31 0.5
32 0.15
4 0.2
5 -0.14
6 -0.15
8 -0.15
9 0.08

> <PUBCHEM_EFFECTIVE_ROTOR_COUNT>
4

> <PUBCHEM_PHARMACOPHORE_FEATURES>
7
1 1 acceptor
1 2 acceptor
1 3 acceptor
1 7 hydrophobe
3 2 3 10 anion
6 13 14 15 16 17 18 rings
6 5 6 8 9 11 12 rings

> <PUBCHEM_HEAVY_ATOM_COUNT>
18

> <PUBCHEM_ATOM_DEF_STEREO_COUNT>
0

> <PUBCHEM_ATOM_UDEF_STEREO_COUNT>
1

> <PUBCHEM_BOND_DEF_STEREO_COUNT>
0

> <PUBCHEM_BOND_UDEF_STEREO_COUNT>
0

> <PUBCHEM_ISOTOPIC_ATOM_COUNT>
0

> <PUBCHEM_COMPONENT_COUNT>
1

> <PUBCHEM_CACTVS_TAUTO_COUNT>
1

> <PUBCHEM_CONFORMER_ID>
00000D0E0000000E

> <PUBCHEM_MMFF94_ENERGY>
56.4184

> <PUBCHEM_FEATURE_SELFOVERLAP>
35.58

> <PUBCHEM_SHAPE_FINGERPRINT>
10616163 171 18337101371652900694
114674 6 17119164331119505779
12346177 29 18189066454314111765
12363563 72 18334581191827270415
12553582 1 18411697699014885728
12788726 201 18334849554516947329
13140716 1 18334856116947264473
13583140 156 5111746625691627389
1420 336 18341612637374570138
14251745 187 18189332536486885334
15001771 113 18342453699308535209
15279307 12 17984975144868670314
15664445 248 16410989851678386279
16752209 62 18197511820586587357
16945 1 18042972171030849597
18981168 100 9511195048269945832
20291156 8 18339919325074907859
20442098 301 18334013921415966614
20645476 183 17986935535267356773
20645477 70 17760936143343600223
20681677 155 18193264411700618392
21452121 199 18192724349047655921
21634736 98 18272641334395908646
21731516 1 18188772734380046983
23184049 29 18409732837466281232
232386 152 18338233868565966044
23419403 2 17399579606148652804
23526113 38 18050878557825465029
23557571 272 18188221965323279008
23559900 14 18335145306255093664
23728640 28 18265047123188293859
465052 167 17843372276823434633
568465 68 17168431570706994278
6338986 31 18116169778490875525
74978 22 18341893025898907332
81228 2 18334864951916707233
90525 40 17840302551468423520
9709674 26 18261670493189195662

> <PUBCHEM_SHAPE_MULTIPOLES>
352.82
6.53
3.13
1.26
4.51
0.18
-0.22
-3.58
-0.69
-2.89
0.68
0.16
-0.38
-0.69

> <PUBCHEM_SHAPE_SELFOVERLAP>
757.158

> <PUBCHEM_SHAPE_VOLUME>
194

> <PUBCHEM_COORDINATE_TYPE>
2
5
10

$$$$

