442159
  -OEChem-07051212572D

 72 77  0     1  0  0  0  0  0999 V2000
    4.6497   -5.0998    0.0000 O   0  0  0  0  0  0  0  0  0  0  0  0
    2.8680   -2.0410    0.0000 O   0  0  0  0  0  0  0  0  0  0  0  0
    2.8680   -4.0893    0.0000 O   0  0  0  0  0  0  0  0  0  0  0  0
    7.2641   -2.5652    0.0000 N   0  0  3  0  0  0  0  0  0  0  0  0
    5.5062    0.4799    0.0000 N   0  0  0  0  0  0  0  0  0  0  0  0
    7.1485    2.7057    0.0000 N   0  0  0  0  0  0  0  0  0  0  0  0
    7.2800   -0.4959    0.0000 C   0  0  2  0  0  0  0  0  0  0  0  0
    8.1821   -1.0167    0.0000 C   0  0  2  0  0  0  0  0  0  0  0  0
    6.3981   -2.0652    0.0000 C   0  0  1  0  0  0  0  0  0  0  0  0
    6.3820   -1.0237    0.0000 C   0  0  0  0  0  0  0  0  0  0  0  0
    8.1741   -2.0583    0.0000 C   0  0  0  0  0  0  0  0  0  0  0  0
    7.2762    0.5041    0.0000 C   0  0  0  0  0  0  0  0  0  0  0  0
    6.4082    1.0008    0.0000 C   0  0  2  0  0  0  0  0  0  0  0  0
    9.0501   -0.5201    0.0000 C   0  0  0  0  0  0  0  0  0  0  0  0
    7.2641   -3.5652    0.0000 C   0  0  0  0  0  0  0  0  0  0  0  0
    5.5320   -2.5652    0.0000 C   0  0  0  0  0  0  0  0  0  0  0  0
    6.3981   -4.0652    0.0000 C   0  0  0  0  0  0  0  0  0  0  0  0
    5.5320   -3.5652    0.0000 C   0  0  0  0  0  0  0  0  0  0  0  0
    6.4002    2.0424    0.0000 C   0  0  0  0  0  0  0  0  0  0  0  0
    9.9142   -1.0234    0.0000 C   0  0  0  0  0  0  0  0  0  0  0  0
    5.5381    2.5490    0.0000 C   0  0  0  0  0  0  0  0  0  0  0  0
    4.6381   -2.0305    0.0000 C   0  0  0  0  0  0  0  0  0  0  0  0
    4.6081    1.0077    0.0000 C   0  0  0  0  0  0  0  0  0  0  0  0
    4.6242    2.0492    0.0000 C   0  0  0  0  0  0  0  0  0  0  0  0
    4.6381   -4.0998    0.0000 C   0  0  0  0  0  0  0  0  0  0  0  0
    5.7535    3.5255    0.0000 C   0  0  0  0  0  0  0  0  0  0  0  0
    3.7320   -2.5444    0.0000 C   0  0  0  0  0  0  0  0  0  0  0  0
    6.7488    3.6224    0.0000 C   0  0  0  0  0  0  0  0  0  0  0  0
    3.7320   -3.5860    0.0000 C   0  0  0  0  0  0  0  0  0  0  0  0
    5.1348    4.3635    0.0000 C   0  0  0  0  0  0  0  0  0  0  0  0
    7.1944    4.5639    0.0000 C   0  0  0  0  0  0  0  0  0  0  0  0
    5.5585    5.3150    0.0000 C   0  0  0  0  0  0  0  0  0  0  0  0
    6.5952    5.4159    0.0000 C   0  0  0  0  0  0  0  0  0  0  0  0
    2.8718   -1.0410    0.0000 C   0  0  0  0  0  0  0  0  0  0  0  0
    2.0000   -3.5926    0.0000 C   0  0  0  0  0  0  0  0  0  0  0  0
    6.7413   -0.1890    0.0000 H   0  0  0  0  0  0  0  0  0  0  0  0
    8.7173   -1.3298    0.0000 H   0  0  0  0  0  0  0  0  0  0  0  0
    7.1309   -1.6345    0.0000 H   0  0  0  0  0  0  0  0  0  0  0  0
    6.1640   -0.4433    0.0000 H   0  0  0  0  0  0  0  0  0  0  0  0
    5.7729   -1.1392    0.0000 H   0  0  0  0  0  0  0  0  0  0  0  0
    8.3786   -2.6436    0.0000 H   0  0  0  0  0  0  0  0  0  0  0  0
    8.7858   -1.9569    0.0000 H   0  0  0  0  0  0  0  0  0  0  0  0
    7.8872    0.3988    0.0000 H   0  0  0  0  0  0  0  0  0  0  0  0
    7.4860    1.0875    0.0000 H   0  0  0  0  0  0  0  0  0  0  0  0
    6.4094    0.3808    0.0000 H   0  0  0  0  0  0  0  0  0  0  0  0
    9.4504   -0.0467    0.0000 H   0  0  0  0  0  0  0  0  0  0  0  0
    8.6534   -0.0436    0.0000 H   0  0  0  0  0  0  0  0  0  0  0  0
    7.4762   -4.1478    0.0000 H   0  0  0  0  0  0  0  0  0  0  0  0
    7.8747   -3.4575    0.0000 H   0  0  0  0  0  0  0  0  0  0  0  0
    5.9995   -4.5401    0.0000 H   0  0  0  0  0  0  0  0  0  0  0  0
    6.7966   -4.5401    0.0000 H   0  0  0  0  0  0  0  0  0  0  0  0
    5.5038   -0.1401    0.0000 H   0  0  0  0  0  0  0  0  0  0  0  0
    9.6021   -1.5591    0.0000 H   0  0  0  0  0  0  0  0  0  0  0  0
   10.4499   -1.3355    0.0000 H   0  0  0  0  0  0  0  0  0  0  0  0
   10.2262   -0.4877    0.0000 H   0  0  0  0  0  0  0  0  0  0  0  0
    4.6453   -1.4105    0.0000 H   0  0  0  0  0  0  0  0  0  0  0  0
    3.9990    1.1232    0.0000 H   0  0  0  0  0  0  0  0  0  0  0  0
    4.3901    0.4273    0.0000 H   0  0  0  0  0  0  0  0  0  0  0  0
    4.4242    2.6360    0.0000 H   0  0  0  0  0  0  0  0  0  0  0  0
    4.0118    1.9525    0.0000 H   0  0  0  0  0  0  0  0  0  0  0  0
    7.7539    2.5722    0.0000 H   0  0  0  0  0  0  0  0  0  0  0  0
    4.5184    4.2963    0.0000 H   0  0  0  0  0  0  0  0  0  0  0  0
    7.8121    4.6168    0.0000 H   0  0  0  0  0  0  0  0  0  0  0  0
    4.1164   -5.4159    0.0000 H   0  0  0  0  0  0  0  0  0  0  0  0
    5.1960    5.8181    0.0000 H   0  0  0  0  0  0  0  0  0  0  0  0
    6.8539    5.9794    0.0000 H   0  0  0  0  0  0  0  0  0  0  0  0
    3.4918   -1.0434    0.0000 H   0  0  0  0  0  0  0  0  0  0  0  0
    2.8742   -0.4210    0.0000 H   0  0  0  0  0  0  0  0  0  0  0  0
    2.2518   -1.0386    0.0000 H   0  0  0  0  0  0  0  0  0  0  0  0
    2.3079   -3.0545    0.0000 H   0  0  0  0  0  0  0  0  0  0  0  0
    1.4619   -3.2847    0.0000 H   0  0  0  0  0  0  0  0  0  0  0  0
    1.6921   -4.1308    0.0000 H   0  0  0  0  0  0  0  0  0  0  0  0
  1 25  1  0  0  0  0
  1 64  1  0  0  0  0
  2 27  1  0  0  0  0
  2 34  1  0  0  0  0
  3 29  1  0  0  0  0
  3 35  1  0  0  0  0
  4  9  1  0  0  0  0
  4 11  1  0  0  0  0
  4 15  1  0  0  0  0
  5 13  1  0  0  0  0
  5 23  1  0  0  0  0
  5 52  1  0  0  0  0
  6 19  1  0  0  0  0
  6 28  1  0  0  0  0
  6 61  1  0  0  0  0
  7  8  1  0  0  0  0
  7 10  1  0  0  0  0
  7 12  1  6  0  0  0
  7 36  1  0  0  0  0
  8 11  1  0  0  0  0
  8 14  1  1  0  0  0
  8 37  1  0  0  0  0
  9 10  1  0  0  0  0
  9 16  1  0  0  0  0
  9 38  1  1  0  0  0
 10 39  1  0  0  0  0
 10 40  1  0  0  0  0
 11 41  1  0  0  0  0
 11 42  1  0  0  0  0
 13 12  1  1  0  0  0
 12 43  1  0  0  0  0
 12 44  1  0  0  0  0
 13 19  1  0  0  0  0
 13 45  1  0  0  0  0
 14 20  1  0  0  0  0
 14 46  1  0  0  0  0
 14 47  1  0  0  0  0
 15 17  1  0  0  0  0
 15 48  1  0  0  0  0
 15 49  1  0  0  0  0
 16 18  1  0  0  0  0
 16 22  2  0  0  0  0
 17 18  1  0  0  0  0
 17 50  1  0  0  0  0
 17 51  1  0  0  0  0
 18 25  2  0  0  0  0
 19 21  2  0  0  0  0
 20 53  1  0  0  0  0
 20 54  1  0  0  0  0
 20 55  1  0  0  0  0
 21 24  1  0  0  0  0
 21 26  1  0  0  0  0
 22 27  1  0  0  0  0
 22 56  1  0  0  0  0
 23 24  1  0  0  0  0
 23 57  1  0  0  0  0
 23 58  1  0  0  0  0
 24 59  1  0  0  0  0
 24 60  1  0  0  0  0
 25 29  1  0  0  0  0
 26 28  1  0  0  0  0
 26 30  2  0  0  0  0
 27 29  2  0  0  0  0
 28 31  2  0  0  0  0
 30 32  1  0  0  0  0
 30 62  1  0  0  0  0
 31 33  1  0  0  0  0
 31 63  1  0  0  0  0
 32 33  2  0  0  0  0
 32 65  1  0  0  0  0
 33 66  1  0  0  0  0
 34 67  1  0  0  0  0
 34 68  1  0  0  0  0
 34 69  1  0  0  0  0
 35 70  1  0  0  0  0
 35 71  1  0  0  0  0
 35 72  1  0  0  0  0
M  END
> <PUBCHEM_COMPOUND_CID>
442159

> <PUBCHEM_COMPOUND_CANONICALIZED>
1

> <PUBCHEM_CACTVS_COMPLEXITY>
723

> <PUBCHEM_CACTVS_HBOND_ACCEPTOR>
5

> <PUBCHEM_CACTVS_HBOND_DONOR>
3

> <PUBCHEM_CACTVS_ROTATABLE_BOND>
5

> <PUBCHEM_CACTVS_SUBSKEYS>
AAADcfB7MAAAAAAAAAAAAAAAAAAAAWAAAAA8eLECAAAAAFix9AAAHgAQCAAADSzBngYyxvPJlgCgAyRiRACCiCAhIiAImaA+7JgNZ+LGsZuUcCtl0BXL+Aew8P8OoAABCAAaQABAAAIQADSAAAAAAAAAAA==

> <PUBCHEM_IUPAC_OPENEYE_NAME>
(2S,3R,11bS)-3-ethyl-9,10-dimethoxy-2-[[(1R)-2,3,4,9-tetrahydro-1H-pyrido[3,4-b]indol-1-yl]methyl]-2,3,4,6,7,11b-hexahydro-1H-benzo[a]quinolizin-8-ol

> <PUBCHEM_IUPAC_CAS_NAME>
(2S,3R,11bS)-3-ethyl-9,10-dimethoxy-2-[[(1R)-2,3,4,9-tetrahydro-1H-pyrido[3,4-b]indol-1-yl]methyl]-2,3,4,6,7,11b-hexahydro-1H-benzo[a]quinolizin-8-ol

> <PUBCHEM_IUPAC_NAME>
(2S,3R,11bS)-3-ethyl-9,10-dimethoxy-2-[[(1R)-2,3,4,9-tetrahydro-1H-pyrido[3,4-b]indol-1-yl]methyl]-2,3,4,6,7,11b-hexahydro-1H-benzo[a]quinolizin-8-ol

> <PUBCHEM_IUPAC_SYSTEMATIC_NAME>
(2S,3R,11bS)-3-ethyl-9,10-dimethoxy-2-[[(1R)-2,3,4,9-tetrahydro-1H-pyrido[3,4-b]indol-1-yl]methyl]-2,3,4,6,7,11b-hexahydro-1H-benzo[a]quinolizin-8-ol

> <PUBCHEM_IUPAC_TRADITIONAL_NAME>
(2S,3R,11bS)-3-ethyl-9,10-dimethoxy-2-[[(1R)-2,3,4,9-tetrahydro-1H-$b-carbolin-1-yl]methyl]-2,3,4,6,7,11b-hexahydro-1H-benzo[a]quinolizin-8-ol

> <PUBCHEM_IUPAC_INCHI>
InChI=1S/C29H37N3O3/c1-4-17-16-32-12-10-21-22(15-26(34-2)29(35-3)28(21)33)25(32)14-18(17)13-24-27-20(9-11-30-24)19-7-5-6-8-23(19)31-27/h5-8,15,17-18,24-25,30-31,33H,4,9-14,16H2,1-3H3/t17-,18-,24+,25-/m0/s1

> <PUBCHEM_IUPAC_INCHIKEY>
BZIKDLPHKDIUHH-PCYHDRSOSA-N

> <PUBCHEM_XLOGP3_AA>
4.6

> <PUBCHEM_EXACT_MASS>
475.283492

> <PUBCHEM_MOLECULAR_FORMULA>
C29H37N3O3

> <PUBCHEM_MOLECULAR_WEIGHT>
475.62238

> <PUBCHEM_OPENEYE_CAN_SMILES>
CCC1CN2CCC3=C(C(=C(C=C3C2CC1CC4C5=C(CCN4)C6=CC=CC=C6N5)OC)OC)O

> <PUBCHEM_OPENEYE_ISO_SMILES>
CC[C@H]1CN2CCC3=C(C(=C(C=C3[C@@H]2C[C@@H]1C[C@@H]4C5=C(CCN4)C6=CC=CC=C6N5)OC)OC)O

> <PUBCHEM_CACTVS_TPSA>
69.8

> <PUBCHEM_MONOISOTOPIC_WEIGHT>
475.283492

> <PUBCHEM_TOTAL_CHARGE>
0

> <PUBCHEM_HEAVY_ATOM_COUNT>
35

> <PUBCHEM_ATOM_DEF_STEREO_COUNT>
4

> <PUBCHEM_ATOM_UDEF_STEREO_COUNT>
0

> <PUBCHEM_BOND_DEF_STEREO_COUNT>
0

> <PUBCHEM_BOND_UDEF_STEREO_COUNT>
0

> <PUBCHEM_ISOTOPIC_ATOM_COUNT>
0

> <PUBCHEM_COMPONENT_COUNT>
1

> <PUBCHEM_CACTVS_TAUTO_COUNT>
2

> <PUBCHEM_COORDINATE_TYPE>
1
5
255

> <PUBCHEM_BONDANNOTATIONS>
13  12  5
16  18  8
16  22  8
18  25  8
19  21  8
21  26  8
22  27  8
25  29  8
26  28  8
26  30  8
27  29  8
28  31  8
30  32  8
31  33  8
32  33  8
6  19  8
6  28  8
7  12  6
8  14  5
9  38  5

$$$$

