11954040
  -OEChem-07051213062D

 23 24  0     0  0  0  0  0  0999 V2000
    2.0000    0.1550    0.0000 Cl  0  0  0  0  0  0  0  0  0  0  0  0
    5.4641    0.1550    0.0000 Cl  0  0  0  0  0  0  0  0  0  0  0  0
    5.4641    1.1550    0.0000 Cl  0  0  0  0  0  0  0  0  0  0  0  0
    2.0000    1.1550    0.0000 Cl  0  0  0  0  0  0  0  0  0  0  0  0
    2.0000   -1.8450    0.0000 Cl  0  0  0  0  0  0  0  0  0  0  0  0
    3.7320   -2.8450    0.0000 O   0  0  0  0  0  0  0  0  0  0  0  0
    3.7320    0.1550    0.0000 C   0  0  0  0  0  0  0  0  0  0  0  0
    3.7320    1.1550    0.0000 C   0  0  0  0  0  0  0  0  0  0  0  0
    2.8660   -0.3450    0.0000 C   0  0  0  0  0  0  0  0  0  0  0  0
    4.5981   -0.3450    0.0000 C   0  0  0  0  0  0  0  0  0  0  0  0
    4.5981    1.6550    0.0000 C   0  0  0  0  0  0  0  0  0  0  0  0
    2.8660    1.6550    0.0000 C   0  0  0  0  0  0  0  0  0  0  0  0
    2.8660   -1.3450    0.0000 C   0  0  0  0  0  0  0  0  0  0  0  0
    4.5981   -1.3450    0.0000 C   0  0  0  0  0  0  0  0  0  0  0  0
    3.7320   -1.8450    0.0000 C   0  0  0  0  0  0  0  0  0  0  0  0
    4.5981    2.6550    0.0000 C   0  0  0  0  0  0  0  0  0  0  0  0
    2.8660    2.6550    0.0000 C   0  0  0  0  0  0  0  0  0  0  0  0
    3.7320    3.1550    0.0000 C   0  0  0  0  0  0  0  0  0  0  0  0
    5.1350   -1.6550    0.0000 H   0  0  0  0  0  0  0  0  0  0  0  0
    5.1350    2.9650    0.0000 H   0  0  0  0  0  0  0  0  0  0  0  0
    2.3291    2.9650    0.0000 H   0  0  0  0  0  0  0  0  0  0  0  0
    3.7320    3.7750    0.0000 H   0  0  0  0  0  0  0  0  0  0  0  0
    4.2690   -3.1550    0.0000 H   0  0  0  0  0  0  0  0  0  0  0  0
  1  9  1  0  0  0  0
  2 10  1  0  0  0  0
  3 11  1  0  0  0  0
  4 12  1  0  0  0  0
  5 13  1  0  0  0  0
  6 15  1  0  0  0  0
  6 23  1  0  0  0  0
  7  8  1  0  0  0  0
  7  9  1  0  0  0  0
  7 10  2  0  0  0  0
  8 11  2  0  0  0  0
  8 12  1  0  0  0  0
  9 13  2  0  0  0  0
 10 14  1  0  0  0  0
 11 16  1  0  0  0  0
 12 17  2  0  0  0  0
 13 15  1  0  0  0  0
 14 15  2  0  0  0  0
 14 19  1  0  0  0  0
 16 18  2  0  0  0  0
 16 20  1  0  0  0  0
 17 18  1  0  0  0  0
 17 21  1  0  0  0  0
 18 22  1  0  0  0  0
M  END
> <PUBCHEM_COMPOUND_CID>
11954040

> <PUBCHEM_COMPOUND_CANONICALIZED>
1

> <PUBCHEM_CACTVS_COMPLEXITY>
280

> <PUBCHEM_CACTVS_HBOND_ACCEPTOR>
1

> <PUBCHEM_CACTVS_HBOND_DONOR>
1

> <PUBCHEM_CACTVS_ROTATABLE_BOND>
1

> <PUBCHEM_CACTVS_SUBSKEYS>
AAADcYBwIAAHAAAAAAAAAAAAAAAAAAAAAAAwYAAAAAAAAAABQAAAGgIACAAADAaAmCAwBoAAAgCAAiBCAAACAAAgJUAIikAGC4gIJiKDExKAcAAkwBEImAeAwPAOoAAQIQCBCARAACBCAQIQCAAAAAAAAA==

> <PUBCHEM_IUPAC_OPENEYE_NAME>
2,3,5-trichloro-4-(2,6-dichlorophenyl)phenol

> <PUBCHEM_IUPAC_CAS_NAME>
2,3,5-trichloro-4-(2,6-dichlorophenyl)phenol

> <PUBCHEM_IUPAC_NAME>
2,3,5-trichloro-4-(2,6-dichlorophenyl)phenol

> <PUBCHEM_IUPAC_SYSTEMATIC_NAME>
4-[2,6-bis(chloranyl)phenyl]-2,3,5-tris(chloranyl)phenol

> <PUBCHEM_IUPAC_TRADITIONAL_NAME>
2,3,5-trichloro-4-(2,6-dichlorophenyl)phenol

> <PUBCHEM_IUPAC_INCHI>
InChI=1S/C12H5Cl5O/c13-5-2-1-3-6(14)9(5)10-7(15)4-8(18)11(16)12(10)17/h1-4,18H

> <PUBCHEM_IUPAC_INCHIKEY>
WSDQWYJHILVUQZ-UHFFFAOYSA-N

> <PUBCHEM_XLOGP3>
5.7

> <PUBCHEM_EXACT_MASS>
341.875353

> <PUBCHEM_MOLECULAR_FORMULA>
C12H5Cl5O

> <PUBCHEM_MOLECULAR_WEIGHT>
342.4325

> <PUBCHEM_OPENEYE_CAN_SMILES>
C1=CC(=C(C(=C1)Cl)C2=C(C=C(C(=C2Cl)Cl)O)Cl)Cl

> <PUBCHEM_OPENEYE_ISO_SMILES>
C1=CC(=C(C(=C1)Cl)C2=C(C=C(C(=C2Cl)Cl)O)Cl)Cl

> <PUBCHEM_CACTVS_TPSA>
20.2

> <PUBCHEM_MONOISOTOPIC_WEIGHT>
339.878303

> <PUBCHEM_TOTAL_CHARGE>
0

> <PUBCHEM_HEAVY_ATOM_COUNT>
18

> <PUBCHEM_ATOM_DEF_STEREO_COUNT>
0

> <PUBCHEM_ATOM_UDEF_STEREO_COUNT>
0

> <PUBCHEM_BOND_DEF_STEREO_COUNT>
0

> <PUBCHEM_BOND_UDEF_STEREO_COUNT>
0

> <PUBCHEM_ISOTOPIC_ATOM_COUNT>
0

> <PUBCHEM_COMPONENT_COUNT>
1

> <PUBCHEM_CACTVS_TAUTO_COUNT>
3

> <PUBCHEM_COORDINATE_TYPE>
1
5
255

> <PUBCHEM_BONDANNOTATIONS>
10  14  8
11  16  8
12  17  8
13  15  8
14  15  8
16  18  8
17  18  8
7  10  8
7  9  8
8  11  8
8  12  8
9  13  8

$$$$

