8627
  -OEChem-06261202582D

 83 86  0     1  0  0  0  0  0999 V2000
    3.5000   -3.1339    0.0000 S   0  0  0  0  0  0  0  0  0  0  0  0
    9.9641    3.1340    0.0000 S   0  0  0  0  0  0  0  0  0  0  0  0
    5.8660   -5.5000    0.0000 S   0  0  0  0  0  0  0  0  0  0  0  0
    7.5981    5.5000    0.0000 S   0  0  0  0  0  0  0  0  0  0  0  0
    6.7320    0.0000    0.0000 S   0  0  0  0  0  0  0  0  0  0  0  0
   10.4641    2.2680    0.0000 O   0  0  0  0  0  0  0  0  0  0  0  0
    3.0000   -2.2680    0.0000 O   0  0  0  0  0  0  0  0  0  0  0  0
    7.5981    6.5000    0.0000 O   0  0  0  0  0  0  0  0  0  0  0  0
    5.8660   -6.5000    0.0000 O   0  0  0  0  0  0  0  0  0  0  0  0
    2.6340   -3.6339    0.0000 O   0  0  0  0  0  0  0  0  0  0  0  0
    4.3660   -2.6340    0.0000 O   0  0  0  0  0  0  0  0  0  0  0  0
   10.8301    3.6340    0.0000 O   0  0  0  0  0  0  0  0  0  0  0  0
    9.0981    2.6340    0.0000 O   0  0  0  0  0  0  0  0  0  0  0  0
    8.5981    5.5000    0.0000 O   0  0  0  0  0  0  0  0  0  0  0  0
    6.5981    5.5000    0.0000 O   0  0  0  0  0  0  0  0  0  0  0  0
    4.8660   -5.5000    0.0000 O   0  0  0  0  0  0  0  0  0  0  0  0
    6.8660   -5.5000    0.0000 O   0  0  0  0  0  0  0  0  0  0  0  0
    7.7320    0.0000    0.0000 O   0  0  0  0  0  0  0  0  0  0  0  0
    5.7320    0.0000    0.0000 O   0  0  0  0  0  0  0  0  0  0  0  0
    6.7320   -4.0000    0.0000 N   0  0  0  0  0  0  0  0  0  0  0  0
    6.7320    4.0000    0.0000 N   0  0  0  0  0  0  0  0  0  0  0  0
    5.0000   -4.0000    0.0000 C   0  0  0  0  0  0  0  0  0  0  0  0
    8.4641    4.0000    0.0000 C   0  0  0  0  0  0  0  0  0  0  0  0
    4.0000   -4.0000    0.0000 C   0  0  3  0  0  0  0  0  0  0  0  0
    9.4641    4.0000    0.0000 C   0  0  3  0  0  0  0  0  0  0  0  0
    5.8660   -4.5000    0.0000 C   0  0  3  0  0  0  0  0  0  0  0  0
    7.5981    4.5000    0.0000 C   0  0  3  0  0  0  0  0  0  0  0  0
    3.5000   -4.8661    0.0000 C   0  0  0  0  0  0  0  0  0  0  0  0
    9.9641    4.8660    0.0000 C   0  0  0  0  0  0  0  0  0  0  0  0
    6.7320   -3.0000    0.0000 C   0  0  0  0  0  0  0  0  0  0  0  0
    6.7320    3.0000    0.0000 C   0  0  0  0  0  0  0  0  0  0  0  0
    4.0001   -5.7321    0.0000 C   0  0  0  0  0  0  0  0  0  0  0  0
    9.4641    5.7320    0.0000 C   0  0  0  0  0  0  0  0  0  0  0  0
    2.5000   -4.8660    0.0000 C   0  0  0  0  0  0  0  0  0  0  0  0
   10.9641    4.8660    0.0000 C   0  0  0  0  0  0  0  0  0  0  0  0
    6.7320   -1.0000    0.0000 C   0  0  0  0  0  0  0  0  0  0  0  0
    6.7320    1.0000    0.0000 C   0  0  0  0  0  0  0  0  0  0  0  0
    7.5981   -2.5000    0.0000 C   0  0  0  0  0  0  0  0  0  0  0  0
    5.8660    2.5000    0.0000 C   0  0  0  0  0  0  0  0  0  0  0  0
    5.8660   -2.5000    0.0000 C   0  0  0  0  0  0  0  0  0  0  0  0
    7.5981    2.5000    0.0000 C   0  0  0  0  0  0  0  0  0  0  0  0
    7.5981   -1.5000    0.0000 C   0  0  0  0  0  0  0  0  0  0  0  0
    5.8660    1.5000    0.0000 C   0  0  0  0  0  0  0  0  0  0  0  0
    5.8660   -1.5000    0.0000 C   0  0  0  0  0  0  0  0  0  0  0  0
    7.5981    1.5000    0.0000 C   0  0  0  0  0  0  0  0  0  0  0  0
    3.5001   -6.5981    0.0000 C   0  0  0  0  0  0  0  0  0  0  0  0
    9.9641    6.5981    0.0000 C   0  0  0  0  0  0  0  0  0  0  0  0
    2.0000   -5.7321    0.0000 C   0  0  0  0  0  0  0  0  0  0  0  0
   11.4641    5.7320    0.0000 C   0  0  0  0  0  0  0  0  0  0  0  0
    2.5000   -6.5981    0.0000 C   0  0  0  0  0  0  0  0  0  0  0  0
   10.9641    6.5981    0.0000 C   0  0  0  0  0  0  0  0  0  0  0  0
    7.9891    3.6015    0.0000 H   0  0  0  0  0  0  0  0  0  0  0  0
    8.6246    4.5989    0.0000 H   0  0  0  0  0  0  0  0  0  0  0  0
    5.4749   -3.6015    0.0000 H   0  0  0  0  0  0  0  0  0  0  0  0
    4.8395   -4.5989    0.0000 H   0  0  0  0  0  0  0  0  0  0  0  0
    4.4250   -3.2639    0.0000 H   0  0  0  0  0  0  0  0  0  0  0  0
    9.0391    3.2639    0.0000 H   0  0  0  0  0  0  0  0  0  0  0  0
    5.8660   -3.6500    0.0000 H   0  0  0  0  0  0  0  0  0  0  0  0
    7.5981    3.6500    0.0000 H   0  0  0  0  0  0  0  0  0  0  0  0
    7.2690   -4.3100    0.0000 H   0  0  0  0  0  0  0  0  0  0  0  0
    6.1951    4.3100    0.0000 H   0  0  0  0  0  0  0  0  0  0  0  0
    4.6201   -5.7321    0.0000 H   0  0  0  0  0  0  0  0  0  0  0  0
    8.8441    5.7320    0.0000 H   0  0  0  0  0  0  0  0  0  0  0  0
    2.1900   -4.3291    0.0000 H   0  0  0  0  0  0  0  0  0  0  0  0
   11.2741    4.3291    0.0000 H   0  0  0  0  0  0  0  0  0  0  0  0
    5.3291    2.8100    0.0000 H   0  0  0  0  0  0  0  0  0  0  0  0
    8.1350   -2.8100    0.0000 H   0  0  0  0  0  0  0  0  0  0  0  0
    8.1350    2.8100    0.0000 H   0  0  0  0  0  0  0  0  0  0  0  0
    5.3291   -2.8100    0.0000 H   0  0  0  0  0  0  0  0  0  0  0  0
    8.1350   -1.1900    0.0000 H   0  0  0  0  0  0  0  0  0  0  0  0
    5.3291    1.1900    0.0000 H   0  0  0  0  0  0  0  0  0  0  0  0
    5.3291   -1.1900    0.0000 H   0  0  0  0  0  0  0  0  0  0  0  0
    8.1350    1.1900    0.0000 H   0  0  0  0  0  0  0  0  0  0  0  0
   11.0841    2.2680    0.0000 H   0  0  0  0  0  0  0  0  0  0  0  0
    2.3800   -2.2680    0.0000 H   0  0  0  0  0  0  0  0  0  0  0  0
    3.8101   -7.1351    0.0000 H   0  0  0  0  0  0  0  0  0  0  0  0
    9.6541    7.1350    0.0000 H   0  0  0  0  0  0  0  0  0  0  0  0
    1.3800   -5.7321    0.0000 H   0  0  0  0  0  0  0  0  0  0  0  0
   12.0841    5.7320    0.0000 H   0  0  0  0  0  0  0  0  0  0  0  0
    6.4029   -6.8100    0.0000 H   0  0  0  0  0  0  0  0  0  0  0  0
    7.0611    6.8100    0.0000 H   0  0  0  0  0  0  0  0  0  0  0  0
    2.1900   -7.1351    0.0000 H   0  0  0  0  0  0  0  0  0  0  0  0
   11.2741    7.1350    0.0000 H   0  0  0  0  0  0  0  0  0  0  0  0
  1  7  1  0  0  0  0
  1 10  2  0  0  0  0
  1 11  2  0  0  0  0
  1 24  1  0  0  0  0
  2  6  1  0  0  0  0
  2 12  2  0  0  0  0
  2 13  2  0  0  0  0
  2 25  1  0  0  0  0
  3  9  1  0  0  0  0
  3 16  2  0  0  0  0
  3 17  2  0  0  0  0
  3 26  1  0  0  0  0
  4  8  1  0  0  0  0
  4 14  2  0  0  0  0
  4 15  2  0  0  0  0
  4 27  1  0  0  0  0
  5 18  2  0  0  0  0
  5 19  2  0  0  0  0
  5 36  1  0  0  0  0
  5 37  1  0  0  0  0
  6 74  1  0  0  0  0
  7 75  1  0  0  0  0
  8 81  1  0  0  0  0
  9 80  1  0  0  0  0
 20 26  1  0  0  0  0
 20 30  1  0  0  0  0
 20 60  1  0  0  0  0
 21 27  1  0  0  0  0
 21 31  1  0  0  0  0
 21 61  1  0  0  0  0
 22 24  1  0  0  0  0
 22 26  1  0  0  0  0
 22 54  1  0  0  0  0
 22 55  1  0  0  0  0
 23 25  1  0  0  0  0
 23 27  1  0  0  0  0
 23 52  1  0  0  0  0
 23 53  1  0  0  0  0
 24 28  1  0  0  0  0
 24 56  1  0  0  0  0
 25 29  1  0  0  0  0
 25 57  1  0  0  0  0
 26 58  1  0  0  0  0
 27 59  1  0  0  0  0
 28 32  2  0  0  0  0
 28 34  1  0  0  0  0
 29 33  2  0  0  0  0
 29 35  1  0  0  0  0
 30 38  2  0  0  0  0
 30 40  1  0  0  0  0
 31 39  2  0  0  0  0
 31 41  1  0  0  0  0
 32 46  1  0  0  0  0
 32 62  1  0  0  0  0
 33 47  1  0  0  0  0
 33 63  1  0  0  0  0
 34 48  2  0  0  0  0
 34 64  1  0  0  0  0
 35 49  2  0  0  0  0
 35 65  1  0  0  0  0
 36 42  2  0  0  0  0
 36 44  1  0  0  0  0
 37 43  2  0  0  0  0
 37 45  1  0  0  0  0
 38 42  1  0  0  0  0
 38 67  1  0  0  0  0
 39 43  1  0  0  0  0
 39 66  1  0  0  0  0
 40 44  2  0  0  0  0
 40 69  1  0  0  0  0
 41 45  2  0  0  0  0
 41 68  1  0  0  0  0
 42 70  1  0  0  0  0
 43 71  1  0  0  0  0
 44 72  1  0  0  0  0
 45 73  1  0  0  0  0
 46 50  2  0  0  0  0
 46 76  1  0  0  0  0
 47 51  2  0  0  0  0
 47 77  1  0  0  0  0
 48 50  1  0  0  0  0
 48 78  1  0  0  0  0
 49 51  1  0  0  0  0
 49 79  1  0  0  0  0
 50 82  1  0  0  0  0
 51 83  1  0  0  0  0
M  END
> <PUBCHEM_COMPOUND_CID>
8627

> <PUBCHEM_COMPOUND_CANONICALIZED>
1

> <PUBCHEM_CACTVS_COMPLEXITY>
1540

> <PUBCHEM_CACTVS_HBOND_ACCEPTOR>
16

> <PUBCHEM_CACTVS_HBOND_DONOR>
6

> <PUBCHEM_CACTVS_ROTATABLE_BOND>
16

> <PUBCHEM_CACTVS_SUBSKEYS>
AAADcfB7PABwAAAAAAAAAAAAAAAAAAAAAAAwYMGAAAAAAAABVAAAHAQQCAAADAjFWASwwYLAAIqAAiRCQHDKAAAhChAIiJgIZIgIICLgkZGEIAhgkADoyAcQgIAOAAQAAAAAAAAACAAAAAAAAAAAAAAAAA==

> <PUBCHEM_IUPAC_OPENEYE_NAME>
1-phenyl-3-[4-[4-[(3-phenyl-1,3-disulfo-propyl)amino]phenyl]sulfonylanilino]propane-1,3-disulfonic acid

> <PUBCHEM_IUPAC_CAS_NAME>
1-phenyl-3-[4-[4-[(3-phenyl-1,3-disulfopropyl)amino]phenyl]sulfonylanilino]propane-1,3-disulfonic acid

> <PUBCHEM_IUPAC_NAME>
1-phenyl-3-[4-[4-[(3-phenyl-1,3-disulfopropyl)amino]phenyl]sulfonylanilino]propane-1,3-disulfonic acid

> <PUBCHEM_IUPAC_SYSTEMATIC_NAME>
1-phenyl-3-[[4-[4-[(3-phenyl-1,3-disulfo-propyl)amino]phenyl]sulfonylphenyl]amino]propane-1,3-disulfonic acid

> <PUBCHEM_IUPAC_TRADITIONAL_NAME>
1-phenyl-3-[4-[4-[(3-phenyl-1,3-disulfo-propyl)amino]phenyl]sulfonylanilino]propane-1,3-disulfonic acid

> <PUBCHEM_IUPAC_INCHI>
InChI=1S/C30H32N2O14S5/c33-47(34,25-15-11-23(12-16-25)31-29(50(41,42)43)19-27(48(35,36)37)21-7-3-1-4-8-21)26-17-13-24(14-18-26)32-30(51(44,45)46)20-28(49(38,39)40)22-9-5-2-6-10-22/h1-18,27-32H,19-20H2,(H,35,36,37)(H,38,39,40)(H,41,42,43)(H,44,45,46)

> <PUBCHEM_IUPAC_INCHIKEY>
HCCUQCPVNVAHMV-UHFFFAOYSA-N

> <PUBCHEM_XLOGP3_AA>
2.3

> <PUBCHEM_EXACT_MASS>
804.045709

> <PUBCHEM_MOLECULAR_FORMULA>
C30H32N2O14S5

> <PUBCHEM_MOLECULAR_WEIGHT>
804.90508

> <PUBCHEM_OPENEYE_CAN_SMILES>
C1=CC=C(C=C1)C(CC(NC2=CC=C(C=C2)S(=O)(=O)C3=CC=C(C=C3)NC(CC(C4=CC=CC=C4)S(=O)(=O)O)S(=O)(=O)O)S(=O)(=O)O)S(=O)(=O)O

> <PUBCHEM_OPENEYE_ISO_SMILES>
C1=CC=C(C=C1)C(CC(NC2=CC=C(C=C2)S(=O)(=O)C3=CC=C(C=C3)NC(CC(C4=CC=CC=C4)S(=O)(=O)O)S(=O)(=O)O)S(=O)(=O)O)S(=O)(=O)O

> <PUBCHEM_CACTVS_TPSA>
318

> <PUBCHEM_MONOISOTOPIC_WEIGHT>
804.045709

> <PUBCHEM_TOTAL_CHARGE>
0

> <PUBCHEM_HEAVY_ATOM_COUNT>
51

> <PUBCHEM_ATOM_DEF_STEREO_COUNT>
0

> <PUBCHEM_ATOM_UDEF_STEREO_COUNT>
4

> <PUBCHEM_BOND_DEF_STEREO_COUNT>
0

> <PUBCHEM_BOND_UDEF_STEREO_COUNT>
0

> <PUBCHEM_ISOTOPIC_ATOM_COUNT>
0

> <PUBCHEM_COMPONENT_COUNT>
1

> <PUBCHEM_CACTVS_TAUTO_COUNT>
1

> <PUBCHEM_COORDINATE_TYPE>
1
5
255

> <PUBCHEM_BONDANNOTATIONS>
24  56  3
25  57  3
26  58  3
27  59  3
28  32  8
28  34  8
29  33  8
29  35  8
30  38  8
30  40  8
31  39  8
31  41  8
32  46  8
33  47  8
34  48  8
35  49  8
36  42  8
36  44  8
37  43  8
37  45  8
38  42  8
39  43  8
40  44  8
41  45  8
46  50  8
47  51  8
48  50  8
49  51  8

$$$$

