352542
  -OEChem-07051212562D

 52 56  0     1  0  0  0  0  0999 V2000
    5.8785   -1.7760    0.0000 O   0  0  0  0  0  0  0  0  0  0  0  0
    4.3012    1.6195    0.0000 O   0  0  0  0  0  0  0  0  0  0  0  0
    2.2423   -2.0315    0.0000 O   0  0  0  0  0  0  0  0  0  0  0  0
    2.6307    1.6728    0.0000 O   0  0  0  0  0  0  0  0  0  0  0  0
    7.6405   -1.6060    0.0000 O   0  0  0  0  0  0  0  0  0  0  0  0
    8.3235   -0.3348    0.0000 O   0  0  0  0  0  0  0  0  0  0  0  0
    4.8702   -0.2847    0.0000 C   0  0  1  0  0  0  0  0  0  0  0  0
    5.7398    0.2887    0.0000 C   0  0  1  0  0  0  0  0  0  0  0  0
    3.9038    0.2085    0.0000 C   0  0  1  0  0  0  0  0  0  0  0  0
    6.6407   -0.1452    0.0000 C   0  0  2  0  0  0  0  0  0  0  0  0
    4.9400   -1.3240    0.0000 C   0  0  2  0  0  0  0  0  0  0  0  0
    2.9980   -0.3888    0.0000 C   0  0  0  0  0  0  0  0  0  0  0  0
    5.1474    0.7576    0.0000 C   0  0  0  0  0  0  0  0  0  0  0  0
    5.5172    1.2636    0.0000 C   0  0  0  0  0  0  0  0  0  0  0  0
    6.5339    1.0316    0.0000 C   0  0  0  0  0  0  0  0  0  0  0  0
    4.0483   -1.9421    0.0000 C   0  0  0  0  0  0  0  0  0  0  0  0
    3.0707   -1.4714    0.0000 C   0  0  2  0  0  0  0  0  0  0  0  0
    3.5206    1.2167    0.0000 C   0  0  1  0  0  0  0  0  0  0  0  0
    7.1407    2.0455    0.0000 C   0  0  1  0  0  0  0  0  0  0  0  0
    6.1407    2.0455    0.0000 C   0  0  0  0  0  0  0  0  0  0  0  0
    6.7346   -1.1826    0.0000 C   0  0  0  0  0  0  0  0  0  0  0  0
    7.5417    0.2887    0.0000 C   0  0  0  0  0  0  0  0  0  0  0  0
    7.7642    1.2636    0.0000 C   0  0  0  0  0  0  0  0  0  0  0  0
    2.0000   -0.4520    0.0000 C   0  0  0  0  0  0  0  0  0  0  0  0
    2.4443    0.4439    0.0000 C   0  0  0  0  0  0  0  0  0  0  0  0
    8.7392    1.4862    0.0000 C   0  0  0  0  0  0  0  0  0  0  0  0
    4.9160    0.0790    0.0000 H   0  0  0  0  0  0  0  0  0  0  0  0
    3.0949    0.4697    0.0000 H   0  0  0  0  0  0  0  0  0  0  0  0
    5.0068   -2.1714    0.0000 H   0  0  0  0  0  0  0  0  0  0  0  0
    5.7088    0.4946    0.0000 H   0  0  0  0  0  0  0  0  0  0  0  0
    5.5058    1.2635    0.0000 H   0  0  0  0  0  0  0  0  0  0  0  0
    5.1307    1.7484    0.0000 H   0  0  0  0  0  0  0  0  0  0  0  0
    4.9586    0.9946    0.0000 H   0  0  0  0  0  0  0  0  0  0  0  0
    6.1261    1.4986    0.0000 H   0  0  0  0  0  0  0  0  0  0  0  0
    5.9638    0.7878    0.0000 H   0  0  0  0  0  0  0  0  0  0  0  0
    3.6877   -2.4464    0.0000 H   0  0  0  0  0  0  0  0  0  0  0  0
    4.4835   -2.3837    0.0000 H   0  0  0  0  0  0  0  0  0  0  0  0
    2.5137   -1.1991    0.0000 H   0  0  0  0  0  0  0  0  0  0  0  0
    3.0586    0.8032    0.0000 H   0  0  0  0  0  0  0  0  0  0  0  0
    7.3299    2.8742    0.0000 H   0  0  0  0  0  0  0  0  0  0  0  0
    6.2787    2.6499    0.0000 H   0  0  0  0  0  0  0  0  0  0  0  0
    5.5821    2.3145    0.0000 H   0  0  0  0  0  0  0  0  0  0  0  0
    1.9608    0.1668    0.0000 H   0  0  0  0  0  0  0  0  0  0  0  0
    1.3812   -0.4912    0.0000 H   0  0  0  0  0  0  0  0  0  0  0  0
    2.0392   -1.0708    0.0000 H   0  0  0  0  0  0  0  0  0  0  0  0
    2.9606    0.7872    0.0000 H   0  0  0  0  0  0  0  0  0  0  0  0
    2.1010    0.9602    0.0000 H   0  0  0  0  0  0  0  0  0  0  0  0
    1.9280    0.1006    0.0000 H   0  0  0  0  0  0  0  0  0  0  0  0
    2.2863   -2.6499    0.0000 H   0  0  0  0  0  0  0  0  0  0  0  0
    2.5997    2.2921    0.0000 H   0  0  0  0  0  0  0  0  0  0  0  0
    9.1609    1.0317    0.0000 H   0  0  0  0  0  0  0  0  0  0  0  0
    8.9219    2.0786    0.0000 H   0  0  0  0  0  0  0  0  0  0  0  0
  1 11  1  0  0  0  0
  1 21  1  0  0  0  0
  2 13  1  0  0  0  0
  2 18  1  0  0  0  0
 17  3  1  6  0  0  0
  3 49  1  0  0  0  0
 18  4  1  6  0  0  0
  4 50  1  0  0  0  0
  5 21  2  0  0  0  0
  6 22  2  0  0  0  0
  7  8  1  0  0  0  0
  7  9  1  0  0  0  0
  7 11  1  0  0  0  0
  7 13  1  1  0  0  0
  8 10  1  0  0  0  0
  8 14  1  0  0  0  0
  8 27  1  1  0  0  0
  9 12  1  0  0  0  0
  9 18  1  0  0  0  0
  9 28  1  6  0  0  0
 10 15  1  0  0  0  0
 10 21  1  6  0  0  0
 10 22  1  0  0  0  0
 11 16  1  0  0  0  0
 11 29  1  6  0  0  0
 12 17  1  0  0  0  0
 12 24  1  0  0  0  0
 12 25  1  0  0  0  0
 13 30  1  0  0  0  0
 13 31  1  0  0  0  0
 14 20  1  0  0  0  0
 14 32  1  0  0  0  0
 14 33  1  0  0  0  0
 15 19  1  0  0  0  0
 15 34  1  0  0  0  0
 15 35  1  0  0  0  0
 16 17  1  0  0  0  0
 16 36  1  0  0  0  0
 16 37  1  0  0  0  0
 17 38  1  0  0  0  0
 18 39  1  0  0  0  0
 19 20  1  0  0  0  0
 19 23  1  0  0  0  0
 19 40  1  6  0  0  0
 20 41  1  0  0  0  0
 20 42  1  0  0  0  0
 22 23  1  0  0  0  0
 23 26  2  0  0  0  0
 24 43  1  0  0  0  0
 24 44  1  0  0  0  0
 24 45  1  0  0  0  0
 25 46  1  0  0  0  0
 25 47  1  0  0  0  0
 25 48  1  0  0  0  0
 26 51  1  0  0  0  0
 26 52  1  0  0  0  0
M  END
> <PUBCHEM_COMPOUND_CID>
352542

> <PUBCHEM_COMPOUND_CANONICALIZED>
1

> <PUBCHEM_CACTVS_COMPLEXITY>
728

> <PUBCHEM_CACTVS_HBOND_ACCEPTOR>
6

> <PUBCHEM_CACTVS_HBOND_DONOR>
2

> <PUBCHEM_CACTVS_ROTATABLE_BOND>
0

> <PUBCHEM_CACTVS_SUBSKEYS>
AAADceB4OAAAAAAAAAAAAAAAAAAAAaIAAAA0YIAABgAAAEiQAAAAGgAACAAADxSwgAMCCAAABgCIAoDSCAAAAAAgAAAAAAEAAEgQEBYIAQACQAAFoAAEAIHI7PzPgAAAAAAAAADAAAYQADAAAQAAAAAAAA==

> <PUBCHEM_IUPAC_INCHI>
InChI=1S/C20H26O6/c1-9-10-4-5-11-19(7-10,15(9)22)17(24)26-13-6-12(21)18(2,3)14-16(23)25-8-20(11,13)14/h10-14,16,21,23H,1,4-8H2,2-3H3/t10-,11-,12+,13+,14-,16-,19+,20-/m1/s1

> <PUBCHEM_IUPAC_INCHIKEY>
MQOJPNKACWKUGI-CDKPERABSA-N

> <PUBCHEM_XLOGP3_AA>
1.8

> <PUBCHEM_EXACT_MASS>
362.172939

> <PUBCHEM_MOLECULAR_FORMULA>
C20H26O6

> <PUBCHEM_MOLECULAR_WEIGHT>
362.41684

> <PUBCHEM_OPENEYE_CAN_SMILES>
CC1(C(CC2C3(C1C(OC3)O)C4CCC5CC4(C(=O)C5=C)C(=O)O2)O)C

> <PUBCHEM_OPENEYE_ISO_SMILES>
CC1([C@H](C[C@H]2[C@]3([C@@H]1[C@@H](OC3)O)[C@@H]4CC[C@@H]5C[C@]4(C(=O)C5=C)C(=O)O2)O)C

> <PUBCHEM_CACTVS_TPSA>
93.1

> <PUBCHEM_MONOISOTOPIC_WEIGHT>
362.172939

> <PUBCHEM_TOTAL_CHARGE>
0

> <PUBCHEM_HEAVY_ATOM_COUNT>
26

> <PUBCHEM_ATOM_DEF_STEREO_COUNT>
8

> <PUBCHEM_ATOM_UDEF_STEREO_COUNT>
0

> <PUBCHEM_BOND_DEF_STEREO_COUNT>
0

> <PUBCHEM_BOND_UDEF_STEREO_COUNT>
0

> <PUBCHEM_ISOTOPIC_ATOM_COUNT>
0

> <PUBCHEM_COMPONENT_COUNT>
1

> <PUBCHEM_CACTVS_TAUTO_COUNT>
1

> <PUBCHEM_COORDINATE_TYPE>
1
5
255

> <PUBCHEM_BONDANNOTATIONS>
10  21  6
11  29  6
19  40  6
17  3  6
18  4  6
7  13  5
8  27  5
9  28  6

$$$$

