14026
  -OEChem-06241222412D

 58 55  0     0  0  0  0  0  0999 V2000
    4.1840    0.0000    0.0000 Br  0  5  0  0  0  0  0  0  0  0  0  0
    4.1840    2.5000    0.0000 Br  0  5  0  0  0  0  0  0  0  0  0  0
    2.2690    7.2690    0.0000 N   0  3  0  0  0  0  0  0  0  0  0  0
    6.5991    7.7690    0.0000 N   0  3  0  0  0  0  0  0  0  0  0  0
    3.1350    7.7690    0.0000 C   0  0  0  0  0  0  0  0  0  0  0  0
    5.7331    7.2690    0.0000 C   0  0  0  0  0  0  0  0  0  0  0  0
    4.0010    7.2690    0.0000 C   0  0  0  0  0  0  0  0  0  0  0  0
    4.8671    7.7690    0.0000 C   0  0  0  0  0  0  0  0  0  0  0  0
    1.4030    6.7690    0.0000 C   0  0  0  0  0  0  0  0  0  0  0  0
    1.7690    8.1350    0.0000 C   0  0  0  0  0  0  0  0  0  0  0  0
    2.7690    6.4030    0.0000 C   0  0  0  0  0  0  0  0  0  0  0  0
    7.4651    8.2690    0.0000 C   0  0  0  0  0  0  0  0  0  0  0  0
    7.0991    6.9030    0.0000 C   0  0  0  0  0  0  0  0  0  0  0  0
    6.0991    8.6350    0.0000 C   0  0  0  0  0  0  0  0  0  0  0  0
    0.5369    7.2690    0.0000 C   0  0  0  0  0  0  0  0  0  0  0  0
    2.2690    9.0010    0.0000 C   0  0  0  0  0  0  0  0  0  0  0  0
    2.2690    5.5369    0.0000 C   0  0  0  0  0  0  0  0  0  0  0  0
    8.3312    7.7690    0.0000 C   0  0  0  0  0  0  0  0  0  0  0  0
    6.5991    6.0369    0.0000 C   0  0  0  0  0  0  0  0  0  0  0  0
    6.5991    9.5010    0.0000 C   0  0  0  0  0  0  0  0  0  0  0  0
    3.5335    8.2439    0.0000 H   0  0  0  0  0  0  0  0  0  0  0  0
    2.7365    8.2439    0.0000 H   0  0  0  0  0  0  0  0  0  0  0  0
    5.3346    6.7940    0.0000 H   0  0  0  0  0  0  0  0  0  0  0  0
    6.1316    6.7940    0.0000 H   0  0  0  0  0  0  0  0  0  0  0  0
    3.6025    6.7940    0.0000 H   0  0  0  0  0  0  0  0  0  0  0  0
    4.3996    6.7940    0.0000 H   0  0  0  0  0  0  0  0  0  0  0  0
    5.2656    8.2439    0.0000 H   0  0  0  0  0  0  0  0  0  0  0  0
    4.4685    8.2439    0.0000 H   0  0  0  0  0  0  0  0  0  0  0  0
    1.0044    6.2940    0.0000 H   0  0  0  0  0  0  0  0  0  0  0  0
    1.8015    6.2940    0.0000 H   0  0  0  0  0  0  0  0  0  0  0  0
    1.2940    8.5335    0.0000 H   0  0  0  0  0  0  0  0  0  0  0  0
    1.2940    7.7365    0.0000 H   0  0  0  0  0  0  0  0  0  0  0  0
    3.2439    6.0044    0.0000 H   0  0  0  0  0  0  0  0  0  0  0  0
    3.2439    6.8015    0.0000 H   0  0  0  0  0  0  0  0  0  0  0  0
    7.8637    8.7439    0.0000 H   0  0  0  0  0  0  0  0  0  0  0  0
    7.0666    8.7439    0.0000 H   0  0  0  0  0  0  0  0  0  0  0  0
    7.5741    6.5044    0.0000 H   0  0  0  0  0  0  0  0  0  0  0  0
    7.5741    7.3015    0.0000 H   0  0  0  0  0  0  0  0  0  0  0  0
    5.6242    9.0335    0.0000 H   0  0  0  0  0  0  0  0  0  0  0  0
    5.6242    8.2365    0.0000 H   0  0  0  0  0  0  0  0  0  0  0  0
    1.7320    5.8469    0.0000 H   0  0  0  0  0  0  0  0  0  0  0  0
    1.9590    5.0000    0.0000 H   0  0  0  0  0  0  0  0  0  0  0  0
    2.8059    5.2269    0.0000 H   0  0  0  0  0  0  0  0  0  0  0  0
    2.8059    8.6910    0.0000 H   0  0  0  0  0  0  0  0  0  0  0  0
    2.5790    9.5380    0.0000 H   0  0  0  0  0  0  0  0  0  0  0  0
    1.7320    9.3110    0.0000 H   0  0  0  0  0  0  0  0  0  0  0  0
    0.8469    7.8059    0.0000 H   0  0  0  0  0  0  0  0  0  0  0  0
    0.0000    7.5790    0.0000 H   0  0  0  0  0  0  0  0  0  0  0  0
    0.2269    6.7320    0.0000 H   0  0  0  0  0  0  0  0  0  0  0  0
    8.0212    7.2320    0.0000 H   0  0  0  0  0  0  0  0  0  0  0  0
    8.8681    7.4590    0.0000 H   0  0  0  0  0  0  0  0  0  0  0  0
    8.6412    8.3059    0.0000 H   0  0  0  0  0  0  0  0  0  0  0  0
    6.0622    6.3469    0.0000 H   0  0  0  0  0  0  0  0  0  0  0  0
    6.2891    5.5000    0.0000 H   0  0  0  0  0  0  0  0  0  0  0  0
    7.1360    5.7269    0.0000 H   0  0  0  0  0  0  0  0  0  0  0  0
    7.1360    9.1910    0.0000 H   0  0  0  0  0  0  0  0  0  0  0  0
    6.9091   10.0380    0.0000 H   0  0  0  0  0  0  0  0  0  0  0  0
    6.0622    9.8110    0.0000 H   0  0  0  0  0  0  0  0  0  0  0  0
  3  5  1  0  0  0  0
  3  9  1  0  0  0  0
  3 10  1  0  0  0  0
  3 11  1  0  0  0  0
  4  6  1  0  0  0  0
  4 12  1  0  0  0  0
  4 13  1  0  0  0  0
  4 14  1  0  0  0  0
  5  7  1  0  0  0  0
  5 21  1  0  0  0  0
  5 22  1  0  0  0  0
  6  8  1  0  0  0  0
  6 23  1  0  0  0  0
  6 24  1  0  0  0  0
  7  8  1  0  0  0  0
  7 25  1  0  0  0  0
  7 26  1  0  0  0  0
  8 27  1  0  0  0  0
  8 28  1  0  0  0  0
  9 15  1  0  0  0  0
  9 29  1  0  0  0  0
  9 30  1  0  0  0  0
 10 16  1  0  0  0  0
 10 31  1  0  0  0  0
 10 32  1  0  0  0  0
 11 17  1  0  0  0  0
 11 33  1  0  0  0  0
 11 34  1  0  0  0  0
 12 18  1  0  0  0  0
 12 35  1  0  0  0  0
 12 36  1  0  0  0  0
 13 19  1  0  0  0  0
 13 37  1  0  0  0  0
 13 38  1  0  0  0  0
 14 20  1  0  0  0  0
 14 39  1  0  0  0  0
 14 40  1  0  0  0  0
 15 47  1  0  0  0  0
 15 48  1  0  0  0  0
 15 49  1  0  0  0  0
 16 44  1  0  0  0  0
 16 45  1  0  0  0  0
 16 46  1  0  0  0  0
 17 41  1  0  0  0  0
 17 42  1  0  0  0  0
 17 43  1  0  0  0  0
 18 50  1  0  0  0  0
 18 51  1  0  0  0  0
 18 52  1  0  0  0  0
 19 53  1  0  0  0  0
 19 54  1  0  0  0  0
 19 55  1  0  0  0  0
 20 56  1  0  0  0  0
 20 57  1  0  0  0  0
 20 58  1  0  0  0  0
M  CHG  4   1  -1   2  -1   3   1   4   1
M  END
> <PUBCHEM_COMPOUND_CID>
14026

> <PUBCHEM_COMPOUND_CANONICALIZED>
1

> <PUBCHEM_CACTVS_COMPLEXITY>
155

> <PUBCHEM_CACTVS_HBOND_ACCEPTOR>
2

> <PUBCHEM_CACTVS_HBOND_DONOR>
0

> <PUBCHEM_CACTVS_ROTATABLE_BOND>
11

> <PUBCHEM_CACTVS_SUBSKEYS>
AAADcfB7AAAAGAAAAAAAAAAAAAAAAAAAAAAAAAAAAAAAAAAAAAAAHAAAAAAACADBAAQCAAMAAAAAAAAAAAAAAAAAAAAAAAAIAAAAAAAAgAAEAAAAAACAAAAAAAAAAAAAAAAAAAAAAAAAAAAAAAAAAAAAAA==

> <PUBCHEM_IUPAC_OPENEYE_NAME>
triethyl-[4-(triethylammonio)butyl]ammonium dibromide

> <PUBCHEM_IUPAC_CAS_NAME>
triethyl-[4-(triethylammonio)butyl]ammonium dibromide

> <PUBCHEM_IUPAC_NAME>
triethyl-[4-(triethylazaniumyl)butyl]azanium dibromide

> <PUBCHEM_IUPAC_SYSTEMATIC_NAME>
triethyl-[4-(triethylazaniumyl)butyl]azanium dibromide

> <PUBCHEM_IUPAC_TRADITIONAL_NAME>
triethyl-[4-(triethylammonio)butyl]ammonium dibromide

> <PUBCHEM_IUPAC_INCHI>
InChI=1S/C16H38N2.2BrH/c1-7-17(8-2,9-3)15-13-14-16-18(10-4,11-5)12-6;;/h7-16H2,1-6H3;2*1H/q+2;;/p-2

> <PUBCHEM_IUPAC_INCHIKEY>
NUIGSIPDCSDQDC-UHFFFAOYSA-L

> <PUBCHEM_EXACT_MASS>
418.138127

> <PUBCHEM_MOLECULAR_FORMULA>
C16H38Br2N2

> <PUBCHEM_MOLECULAR_WEIGHT>
418.29432

> <PUBCHEM_OPENEYE_CAN_SMILES>
CC[N+](CC)(CC)CCCC[N+](CC)(CC)CC.[Br-].[Br-]

> <PUBCHEM_OPENEYE_ISO_SMILES>
CC[N+](CC)(CC)CCCC[N+](CC)(CC)CC.[Br-].[Br-]

> <PUBCHEM_CACTVS_TPSA>
0

> <PUBCHEM_MONOISOTOPIC_WEIGHT>
416.140173

> <PUBCHEM_TOTAL_CHARGE>
0

> <PUBCHEM_HEAVY_ATOM_COUNT>
20

> <PUBCHEM_ATOM_DEF_STEREO_COUNT>
0

> <PUBCHEM_ATOM_UDEF_STEREO_COUNT>
0

> <PUBCHEM_BOND_DEF_STEREO_COUNT>
0

> <PUBCHEM_BOND_UDEF_STEREO_COUNT>
0

> <PUBCHEM_ISOTOPIC_ATOM_COUNT>
0

> <PUBCHEM_COMPONENT_COUNT>
3

> <PUBCHEM_CACTVS_TAUTO_COUNT>
1

> <PUBCHEM_COORDINATE_TYPE>
1
5
255

$$$$

