22227
  -OEChem-07051213013D

 27 27  0     1  0  0  0  0  0999 V2000
   -2.0451   -1.8620   -0.2432 O   0  0  0  0  0  0  0  0  0  0  0  0
    0.9163    0.0411   -0.3304 C   0  0  2  0  0  0  0  0  0  0  0  0
    0.3693    1.4351    0.0033 C   0  0  0  0  0  0  0  0  0  0  0  0
   -1.9542    0.4844    0.3574 C   0  0  2  0  0  0  0  0  0  0  0  0
   -1.1125    1.5440   -0.3591 C   0  0  0  0  0  0  0  0  0  0  0  0
    0.1163   -1.0490    0.3846 C   0  0  0  0  0  0  0  0  0  0  0  0
   -1.3626   -0.8963    0.0955 C   0  0  0  0  0  0  0  0  0  0  0  0
    2.3698   -0.0492    0.0178 C   0  0  0  0  0  0  0  0  0  0  0  0
   -3.4130    0.5669   -0.0804 C   0  0  0  0  0  0  0  0  0  0  0  0
    3.3080   -0.3115   -1.1227 C   0  0  0  0  0  0  0  0  0  0  0  0
    2.8075    0.0965    1.2772 C   0  0  0  0  0  0  0  0  0  0  0  0
    0.7927   -0.1090   -1.4124 H   0  0  0  0  0  0  0  0  0  0  0  0
    0.9282    2.2014   -0.5488 H   0  0  0  0  0  0  0  0  0  0  0  0
    0.4847    1.6654    1.0700 H   0  0  0  0  0  0  0  0  0  0  0  0
   -1.9073    0.6492    1.4413 H   0  0  0  0  0  0  0  0  0  0  0  0
   -1.4744    2.5458   -0.0987 H   0  0  0  0  0  0  0  0  0  0  0  0
   -1.2215    1.4381   -1.4464 H   0  0  0  0  0  0  0  0  0  0  0  0
    0.2342   -1.0162    1.4738 H   0  0  0  0  0  0  0  0  0  0  0  0
    0.4383   -2.0406    0.0443 H   0  0  0  0  0  0  0  0  0  0  0  0
   -3.5201    0.3644   -1.1519 H   0  0  0  0  0  0  0  0  0  0  0  0
   -4.0235   -0.1670    0.4568 H   0  0  0  0  0  0  0  0  0  0  0  0
   -3.8258    1.5604    0.1229 H   0  0  0  0  0  0  0  0  0  0  0  0
    3.0628   -1.2630   -1.6057 H   0  0  0  0  0  0  0  0  0  0  0  0
    3.2340    0.4877   -1.8674 H   0  0  0  0  0  0  0  0  0  0  0  0
    4.3514   -0.3644   -0.7942 H   0  0  0  0  0  0  0  0  0  0  0  0
    3.8647    0.0284    1.5132 H   0  0  0  0  0  0  0  0  0  0  0  0
    2.1341    0.2865    2.1056 H   0  0  0  0  0  0  0  0  0  0  0  0
  1  7  2  0  0  0  0
  2  3  1  0  0  0  0
  2  6  1  0  0  0  0
  2  8  1  0  0  0  0
  2 12  1  0  0  0  0
  3  5  1  0  0  0  0
  3 13  1  0  0  0  0
  3 14  1  0  0  0  0
  4  5  1  0  0  0  0
  4  7  1  0  0  0  0
  4  9  1  0  0  0  0
  4 15  1  0  0  0  0
  5 16  1  0  0  0  0
  5 17  1  0  0  0  0
  6  7  1  0  0  0  0
  6 18  1  0  0  0  0
  6 19  1  0  0  0  0
  8 10  1  0  0  0  0
  8 11  2  0  0  0  0
  9 20  1  0  0  0  0
  9 21  1  0  0  0  0
  9 22  1  0  0  0  0
 10 23  1  0  0  0  0
 10 24  1  0  0  0  0
 10 25  1  0  0  0  0
 11 26  1  0  0  0  0
 11 27  1  0  0  0  0
M  END
> <PUBCHEM_COMPOUND_CID>
22227

> <PUBCHEM_CONFORMER_RMSD>
0.4

> <PUBCHEM_CONFORMER_DIVERSEORDER>
1
13
14
11
5
8
2
6
9
7
3
10
12
4

> <PUBCHEM_MMFF94_PARTIAL_CHARGES>
10
1 -0.57
10 0.14
11 -0.3
2 0.14
26 0.15
27 0.15
4 0.06
6 0.06
7 0.45
8 -0.28

> <PUBCHEM_EFFECTIVE_ROTOR_COUNT>
2

> <PUBCHEM_PHARMACOPHORE_FEATURES>
2
1 1 acceptor
6 2 3 4 5 6 7 rings

> <PUBCHEM_HEAVY_ATOM_COUNT>
11

> <PUBCHEM_ATOM_DEF_STEREO_COUNT>
2

> <PUBCHEM_ATOM_UDEF_STEREO_COUNT>
0

> <PUBCHEM_BOND_DEF_STEREO_COUNT>
0

> <PUBCHEM_BOND_UDEF_STEREO_COUNT>
0

> <PUBCHEM_ISOTOPIC_ATOM_COUNT>
0

> <PUBCHEM_COMPONENT_COUNT>
1

> <PUBCHEM_CACTVS_TAUTO_COUNT>
3

> <PUBCHEM_CONFORMER_ID>
000056D300000001

> <PUBCHEM_MMFF94_ENERGY>
15.4919

> <PUBCHEM_FEATURE_SELFOVERLAP>
10.148

> <PUBCHEM_SHAPE_FINGERPRINT>
10857977 72 18335148548559302144
12716758 59 18335419118513879778
12932741 1 17821728334241997946
12932764 1 17918277545383126668
14128692 85 18268701732224695732
14911166 2 18411136956949136829
14993402 34 18341611538226913141
15219456 202 17894632522416507768
15310529 11 16415479371733001421
15775835 57 18202280324879416192
16945 1 18411703213763625089
18175812 5 17822009796228344372
20201158 50 17968371342463049190
20279233 1 17967814955356773526
20645464 45 18113912567071021328
20645476 183 17489010609233891078
20711983 138 17821999956442418882
20715346 28 17822010861396187730
20871998 184 18260544481381140175
21040471 1 18196093458923210440
21501502 16 18266464191591858105
23235685 24 18410013281687660157
23402539 116 18188223094762573013
23402655 69 18124052367178854293
23552423 10 17986388880298257789
23559900 14 18335416890354125302
2748010 2 18195531393886039445
3248919 1 17894634746877374656
369184 2 18411429418188322960
5084963 1 18260259750750302840
6333449 129 18261398836101346543

> <PUBCHEM_SHAPE_MULTIPOLES>
220.51
4.99
1.49
0.93
0.77
0.12
-0.07
0.07
0.31
-0.88
0.09
0.78
0
0.08

> <PUBCHEM_SHAPE_SELFOVERLAP>
435.983

> <PUBCHEM_SHAPE_VOLUME>
131.9

> <PUBCHEM_COORDINATE_TYPE>
2
5
10

$$$$

