245468
  -OEChem-07051213053D

 42 45  0     1  0  0  0  0  0999 V2000
   -5.0969   -1.0857    0.1010 O   0  0  0  0  0  0  0  0  0  0  0  0
    5.8528   -0.1022    0.3940 O   0  0  0  0  0  0  0  0  0  0  0  0
   -2.6712   -0.5806    0.0996 C   0  0  1  0  0  0  0  0  0  0  0  0
   -1.9511    0.7327   -0.2804 C   0  0  2  0  0  0  0  0  0  0  0  0
   -0.4891    0.7399    0.1764 C   0  0  1  0  0  0  0  0  0  0  0  0
   -4.0829   -0.2504   -0.4231 C   0  0  2  0  0  0  0  0  0  0  0  0
   -1.9740   -1.7436   -0.6196 C   0  0  0  0  0  0  0  0  0  0  0  0
   -2.9041    1.8136    0.2269 C   0  0  0  0  0  0  0  0  0  0  0  0
    0.2449   -0.4409   -0.5412 C   0  0  2  0  0  0  0  0  0  0  0  0
   -4.3041    1.2142   -0.0002 C   0  0  0  0  0  0  0  0  0  0  0  0
   -0.4679   -1.7928   -0.2997 C   0  0  0  0  0  0  0  0  0  0  0  0
   -2.7185   -0.8781    1.6208 C   0  0  0  0  0  0  0  0  0  0  0  0
    0.2246    2.0422   -0.0969 C   0  0  0  0  0  0  0  0  0  0  0  0
    1.7367   -0.3987   -0.2281 C   0  0  0  0  0  0  0  0  0  0  0  0
    2.3585    0.8680   -0.1307 C   0  0  0  0  0  0  0  0  0  0  0  0
    1.5561    2.0927   -0.2457 C   0  0  0  0  0  0  0  0  0  0  0  0
    2.5293   -1.5489   -0.1159 C   0  0  0  0  0  0  0  0  0  0  0  0
    3.7413    0.9603    0.0721 C   0  0  0  0  0  0  0  0  0  0  0  0
    3.9054   -1.4462    0.0996 C   0  0  0  0  0  0  0  0  0  0  0  0
    4.5103   -0.1956    0.1913 C   0  0  0  0  0  0  0  0  0  0  0  0
   -1.9457    0.8248   -1.3798 H   0  0  0  0  0  0  0  0  0  0  0  0
   -0.4476    0.5981    1.2641 H   0  0  0  0  0  0  0  0  0  0  0  0
   -4.1202   -0.3256   -1.5167 H   0  0  0  0  0  0  0  0  0  0  0  0
   -2.0936   -1.6359   -1.7056 H   0  0  0  0  0  0  0  0  0  0  0  0
   -2.4392   -2.7000   -0.3524 H   0  0  0  0  0  0  0  0  0  0  0  0
   -2.7856    2.7561   -0.3172 H   0  0  0  0  0  0  0  0  0  0  0  0
   -2.7454    2.0221    1.2907 H   0  0  0  0  0  0  0  0  0  0  0  0
    0.1841   -0.2629   -1.6274 H   0  0  0  0  0  0  0  0  0  0  0  0
   -4.9155    1.3065    0.9043 H   0  0  0  0  0  0  0  0  0  0  0  0
   -4.8325    1.7550   -0.7937 H   0  0  0  0  0  0  0  0  0  0  0  0
   -0.3154   -2.1171    0.7366 H   0  0  0  0  0  0  0  0  0  0  0  0
   -0.0212   -2.5693   -0.9329 H   0  0  0  0  0  0  0  0  0  0  0  0
   -3.2374   -1.8244    1.8139 H   0  0  0  0  0  0  0  0  0  0  0  0
   -1.7233   -0.9725    2.0631 H   0  0  0  0  0  0  0  0  0  0  0  0
   -3.2428   -0.1007    2.1853 H   0  0  0  0  0  0  0  0  0  0  0  0
   -0.3422    2.9673   -0.1262 H   0  0  0  0  0  0  0  0  0  0  0  0
   -5.2210   -0.8787    1.0421 H   0  0  0  0  0  0  0  0  0  0  0  0
    2.0616    3.0385   -0.4070 H   0  0  0  0  0  0  0  0  0  0  0  0
    2.0992   -2.5419   -0.2013 H   0  0  0  0  0  0  0  0  0  0  0  0
    4.2245    1.9323    0.1451 H   0  0  0  0  0  0  0  0  0  0  0  0
    4.4962   -2.3546    0.1854 H   0  0  0  0  0  0  0  0  0  0  0  0
    6.2261   -0.9985    0.4521 H   0  0  0  0  0  0  0  0  0  0  0  0
  1  6  1  0  0  0  0
  1 37  1  0  0  0  0
  2 20  1  0  0  0  0
  2 42  1  0  0  0  0
  3  4  1  0  0  0  0
  3  6  1  0  0  0  0
  3  7  1  0  0  0  0
  3 12  1  0  0  0  0
  4  5  1  0  0  0  0
  4  8  1  0  0  0  0
  4 21  1  0  0  0  0
  5  9  1  0  0  0  0
  5 13  1  0  0  0  0
  5 22  1  0  0  0  0
  6 10  1  0  0  0  0
  6 23  1  0  0  0  0
  7 11  1  0  0  0  0
  7 24  1  0  0  0  0
  7 25  1  0  0  0  0
  8 10  1  0  0  0  0
  8 26  1  0  0  0  0
  8 27  1  0  0  0  0
  9 11  1  0  0  0  0
  9 14  1  0  0  0  0
  9 28  1  0  0  0  0
 10 29  1  0  0  0  0
 10 30  1  0  0  0  0
 11 31  1  0  0  0  0
 11 32  1  0  0  0  0
 12 33  1  0  0  0  0
 12 34  1  0  0  0  0
 12 35  1  0  0  0  0
 13 16  2  0  0  0  0
 13 36  1  0  0  0  0
 14 15  2  0  0  0  0
 14 17  1  0  0  0  0
 15 16  1  0  0  0  0
 15 18  1  0  0  0  0
 16 38  1  0  0  0  0
 17 19  2  0  0  0  0
 17 39  1  0  0  0  0
 18 20  2  0  0  0  0
 18 40  1  0  0  0  0
 19 20  1  0  0  0  0
 19 41  1  0  0  0  0
M  END
> <PUBCHEM_COMPOUND_CID>
245468

> <PUBCHEM_CONFORMER_RMSD>
0.6

> <PUBCHEM_CONFORMER_DIVERSEORDER>
1

> <PUBCHEM_MMFF94_PARTIAL_CHARGES>
20
1 -0.68
13 -0.29
14 -0.14
15 0.03
16 -0.18
17 -0.15
18 -0.15
19 -0.15
2 -0.53
20 0.08
36 0.15
37 0.4
38 0.15
39 0.15
40 0.15
41 0.15
42 0.45
5 0.14
6 0.28
9 0.14

> <PUBCHEM_EFFECTIVE_ROTOR_COUNT>
1

> <PUBCHEM_PHARMACOPHORE_FEATURES>
7
1 1 acceptor
1 1 donor
1 2 donor
5 3 4 6 8 10 rings
6 14 15 17 18 19 20 rings
6 3 4 5 7 9 11 rings
6 5 9 13 14 15 16 rings

> <PUBCHEM_HEAVY_ATOM_COUNT>
20

> <PUBCHEM_ATOM_DEF_STEREO_COUNT>
5

> <PUBCHEM_ATOM_UDEF_STEREO_COUNT>
0

> <PUBCHEM_BOND_DEF_STEREO_COUNT>
0

> <PUBCHEM_BOND_UDEF_STEREO_COUNT>
0

> <PUBCHEM_ISOTOPIC_ATOM_COUNT>
0

> <PUBCHEM_COMPONENT_COUNT>
1

> <PUBCHEM_CACTVS_TAUTO_COUNT>
3

> <PUBCHEM_CONFORMER_ID>
0003BEDC00000001

> <PUBCHEM_MMFF94_ENERGY>
71.9217

> <PUBCHEM_FEATURE_SELFOVERLAP>
35.622

> <PUBCHEM_SHAPE_FINGERPRINT>
10 15 18339091398169364344
10062212 137 18333456452072956047
10967382 1 18409730668433677502
11132069 177 18333452049610197238
11315181 36 18411982459900385008
12011746 2 18410295830205631133
12107183 9 17690564503830003634
12236239 1 18060138752192008668
12251169 10 18408323267864742454
12403259 226 18337678520958164853
12403260 363 18335986385379016533
12403814 3 17989210360337152837
124424 183 18273214192401077257
12507557 5 18409449189441756161
128620 24 8358258150600361178
13140716 1 18191865613281251435
13675066 3 18413388713644220384
13862211 1 18409736153075590774
14115302 16 17418083304675244934
14790565 3 17835519324444734244
15042514 8 18265332803281632039
15099037 51 18411985775662389557
15196674 1 18409730694119072156
15375358 24 18335421296136145494
15442244 35 18409730672739304668
15536298 74 18334013904225554340
16945 1 18266171730120167077
17349148 13 17894915122263212983
17802600 8 18409169891871007301
17804303 29 18408039602270432220
1813 80 17489868267559331020
18186145 218 16845296007940827172
18522853 276 18407760343486043368
200 152 18186805781298127853
20028762 73 18114465540016959503
20261772 1 18260268525326524558
20510252 161 18114179799646294537
20645477 70 18409729564838248046
21033648 29 17822307802376058824
21267235 1 18410004438539986270
21279426 13 18124317361299757471
21421861 104 17843409724600804562
221490 88 18198898124022541256
23184049 59 18408601487124373966
23402539 116 18260557735438959269
23463225 33 18410854369396548268
23559900 14 18334865982708890864
23622692 118 17970641683645608215
26918003 58 17989207040643839922
2748010 2 18192422180897232476
335352 9 18410012177680663956
34934 24 18411706521157442402
350125 39 18409446982113701377
351380 180 18411983559469781587
3545911 37 18334012791871437038
4214541 1 18410856581304796501
474 4 17631446770583092780
5104073 3 18409730689803019657
69090 78 18334861614637129111
7364860 26 18263927640094986152
9709674 26 18410567401135917743

> <PUBCHEM_SHAPE_MULTIPOLES>
399.85
9.69
2.11
0.82
3.6
0.34
0.19
-1.02
1.07
-0.24
-0.12
-0.4
-0.16
-0.01

> <PUBCHEM_SHAPE_SELFOVERLAP>
877.959

> <PUBCHEM_SHAPE_VOLUME>
215.8

> <PUBCHEM_COORDINATE_TYPE>
2
5
10

$$$$

