251427
  -OEChem-07051213063D

 29 31  0     0  0  0  0  0  0999 V2000
   -0.0173   -2.2845   -0.0313 O   0  0  0  0  0  0  0  0  0  0  0  0
    2.4606   -2.2221    0.0927 O   0  0  0  0  0  0  0  0  0  0  0  0
   -2.5703   -2.2559   -0.0839 O   0  0  0  0  0  0  0  0  0  0  0  0
    2.5158    1.9396    0.1328 C   0  0  0  0  0  0  0  0  0  0  0  0
    1.2221    1.1731    0.0682 C   0  0  0  0  0  0  0  0  0  0  0  0
    3.6540    1.1482   -0.4972 C   0  0  0  0  0  0  0  0  0  0  0  0
    1.2004   -0.2269    0.0441 C   0  0  0  0  0  0  0  0  0  0  0  0
    3.7726   -0.2230    0.1466 C   0  0  0  0  0  0  0  0  0  0  0  0
    2.4731   -0.9944    0.0741 C   0  0  0  0  0  0  0  0  0  0  0  0
    0.0058    1.8712    0.0770 C   0  0  0  0  0  0  0  0  0  0  0  0
   -0.0178   -0.9170    0.0025 C   0  0  0  0  0  0  0  0  0  0  0  0
   -1.2360   -0.2185   -0.0035 C   0  0  0  0  0  0  0  0  0  0  0  0
   -1.2247    1.1942    0.0364 C   0  0  0  0  0  0  0  0  0  0  0  0
   -2.4670   -0.8940   -0.0441 C   0  0  0  0  0  0  0  0  0  0  0  0
   -2.4442    1.8914    0.0356 C   0  0  0  0  0  0  0  0  0  0  0  0
   -3.6692   -0.1861   -0.0449 C   0  0  0  0  0  0  0  0  0  0  0  0
   -3.6578    1.2045   -0.0052 C   0  0  0  0  0  0  0  0  0  0  0  0
    2.4165    2.8944   -0.3969 H   0  0  0  0  0  0  0  0  0  0  0  0
    2.7426    2.1615    1.1826 H   0  0  0  0  0  0  0  0  0  0  0  0
    3.4724    1.0336   -1.5739 H   0  0  0  0  0  0  0  0  0  0  0  0
    4.5960    1.6965   -0.3848 H   0  0  0  0  0  0  0  0  0  0  0  0
    4.0612   -0.1381    1.2001 H   0  0  0  0  0  0  0  0  0  0  0  0
    4.5441   -0.7980   -0.3773 H   0  0  0  0  0  0  0  0  0  0  0  0
    0.0204    2.9599    0.1131 H   0  0  0  0  0  0  0  0  0  0  0  0
   -2.4591    2.9790    0.0664 H   0  0  0  0  0  0  0  0  0  0  0  0
   -4.6193   -0.7130   -0.0762 H   0  0  0  0  0  0  0  0  0  0  0  0
   -4.5934    1.7561   -0.0056 H   0  0  0  0  0  0  0  0  0  0  0  0
    0.8160   -2.6136   -0.4018 H   0  0  0  0  0  0  0  0  0  0  0  0
   -1.6963   -2.6699   -0.1290 H   0  0  0  0  0  0  0  0  0  0  0  0
  1 11  1  0  0  0  0
  1 28  1  0  0  0  0
  2  9  2  0  0  0  0
  3 14  1  0  0  0  0
  3 29  1  0  0  0  0
  4  5  1  0  0  0  0
  4  6  1  0  0  0  0
  4 18  1  0  0  0  0
  4 19  1  0  0  0  0
  5  7  2  0  0  0  0
  5 10  1  0  0  0  0
  6  8  1  0  0  0  0
  6 20  1  0  0  0  0
  6 21  1  0  0  0  0
  7  9  1  0  0  0  0
  7 11  1  0  0  0  0
  8  9  1  0  0  0  0
  8 22  1  0  0  0  0
  8 23  1  0  0  0  0
 10 13  2  0  0  0  0
 10 24  1  0  0  0  0
 11 12  2  0  0  0  0
 12 13  1  0  0  0  0
 12 14  1  0  0  0  0
 13 15  1  0  0  0  0
 14 16  2  0  0  0  0
 15 17  2  0  0  0  0
 15 25  1  0  0  0  0
 16 17  1  0  0  0  0
 16 26  1  0  0  0  0
 17 27  1  0  0  0  0
M  END
> <PUBCHEM_COMPOUND_CID>
251427

> <PUBCHEM_CONFORMER_RMSD>
0.6

> <PUBCHEM_CONFORMER_DIVERSEORDER>
1

> <PUBCHEM_MMFF94_PARTIAL_CHARGES>
20
1 -0.53
10 -0.15
11 0.08
14 0.08
15 -0.15
16 -0.15
17 -0.15
2 -0.57
24 0.15
25 0.15
26 0.15
27 0.15
28 0.45
29 0.45
3 -0.53
4 0.14
5 -0.14
7 0.09
8 0.06
9 0.42

> <PUBCHEM_EFFECTIVE_ROTOR_COUNT>
0.6

> <PUBCHEM_PHARMACOPHORE_FEATURES>
6
1 1 donor
1 2 acceptor
1 3 donor
6 12 13 14 15 16 17 rings
6 4 5 6 7 8 9 rings
6 5 7 10 11 12 13 rings

> <PUBCHEM_HEAVY_ATOM_COUNT>
17

> <PUBCHEM_ATOM_DEF_STEREO_COUNT>
0

> <PUBCHEM_ATOM_UDEF_STEREO_COUNT>
0

> <PUBCHEM_BOND_DEF_STEREO_COUNT>
0

> <PUBCHEM_BOND_UDEF_STEREO_COUNT>
0

> <PUBCHEM_ISOTOPIC_ATOM_COUNT>
0

> <PUBCHEM_COMPONENT_COUNT>
1

> <PUBCHEM_CACTVS_TAUTO_COUNT>
100

> <PUBCHEM_CONFORMER_ID>
0003D62300000001

> <PUBCHEM_MMFF94_ENERGY>
50.4985

> <PUBCHEM_FEATURE_SELFOVERLAP>
30.508

> <PUBCHEM_SHAPE_FINGERPRINT>
10062212 137 18411429405271947906
10411042 1 15816782797403925768
10608611 8 18410859858196213641
10616163 171 18409445847577554247
10967382 1 18410575119022836785
10980938 120 18411418423298826936
11132069 177 18410017645311116512
11471102 20 18411142462770194948
12251169 10 18410575123354805393
13140716 1 18410857697832536217
13221675 6 18410012143310154692
13380535 21 18410848863106049817
13380535 76 18410575097553391971
13897977 150 18410858767305980653
14144814 61 18410575101864229153
14325111 11 18410855460133793824
14790565 3 15605655678239465805
15196674 1 18410855464428449316
15309172 13 18409157810075113427
15442244 35 18266178529237909002
15536298 74 18334576862895627628
15775835 57 18411694396111435388
16945 1 18194124014464873769
18186145 218 18336823199168203076
193761 8 17905890279675162265
19591789 44 18337950069922329222
200 152 18113343002672973557
20510252 161 18117555137166633609
20645477 70 18338520845427256039
21267235 1 18410846672625379498
21501502 16 18411139134128147497
221490 88 18412254022166423026
2334 1 18410575058909125393
23366157 5 18059855086913917242
23402539 116 18334865991477647340
23463225 33 18340206387888427656
23559900 14 18334015034355873550
238 59 16117156832112351125
2748010 2 18410856551134400517
2871803 45 18267028262821725287
3312278 4 18408881806770868593
335352 9 18050568744164074421
34934 24 18410301314862991536
474 4 17417522493985101412
5104073 3 18410855460165151008
528886 8 18409735074959418385
53812653 166 18334580122607234352
69090 78 18409453609094894589
7364860 26 18335701689134473342
8809292 202 18343017766111598827
9709674 26 18409444791073777614

> <PUBCHEM_SHAPE_MULTIPOLES>
332.24
6.42
2.45
0.62
0.2
0.54
0.01
-0.61
0.23
0
-0.02
0.06
-0.05
-0.17

> <PUBCHEM_SHAPE_SELFOVERLAP>
745.982

> <PUBCHEM_SHAPE_VOLUME>
174.7

> <PUBCHEM_COORDINATE_TYPE>
2
5
10

$$$$

