99300
  -OEChem-07051212593D

 29 31  0     0  0  0  0  0  0999 V2000
    2.2377    2.4992    0.0002 O   0  0  0  0  0  0  0  0  0  0  0  0
    1.7715   -2.9996   -0.0002 O   0  0  0  0  0  0  0  0  0  0  0  0
   -0.3276    2.6356   -0.0032 O   0  0  0  0  0  0  0  0  0  0  0  0
   -0.7934   -2.6876   -0.0023 O   0  0  0  0  0  0  0  0  0  0  0  0
    0.7964    0.5557    0.0000 C   0  0  0  0  0  0  0  0  0  0  0  0
    0.6741   -0.8353   -0.0002 C   0  0  0  0  0  0  0  0  0  0  0  0
   -1.7399    0.7786   -0.0001 C   0  0  0  0  0  0  0  0  0  0  0  0
   -1.8622   -0.6124    0.0003 C   0  0  0  0  0  0  0  0  0  0  0  0
   -0.4062    1.4135   -0.0006 C   0  0  0  0  0  0  0  0  0  0  0  0
   -0.6596   -1.4703   -0.0004 C   0  0  0  0  0  0  0  0  0  0  0  0
    2.0663    1.1450    0.0006 C   0  0  0  0  0  0  0  0  0  0  0  0
    3.2074    0.3423    0.0008 C   0  0  0  0  0  0  0  0  0  0  0  0
    1.8218   -1.6371    0.0000 C   0  0  0  0  0  0  0  0  0  0  0  0
    3.0855   -1.0458    0.0003 C   0  0  0  0  0  0  0  0  0  0  0  0
   -2.8876    1.5805    0.0002 C   0  0  0  0  0  0  0  0  0  0  0  0
   -3.1322   -1.2017    0.0009 C   0  0  0  0  0  0  0  0  0  0  0  0
    4.5728    0.9488    0.0013 C   0  0  0  0  0  0  0  0  0  0  0  0
   -4.1513    0.9892    0.0010 C   0  0  0  0  0  0  0  0  0  0  0  0
   -4.2734   -0.3989    0.0015 C   0  0  0  0  0  0  0  0  0  0  0  0
    3.9771   -1.6687    0.0005 H   0  0  0  0  0  0  0  0  0  0  0  0
   -2.8212    2.6652   -0.0002 H   0  0  0  0  0  0  0  0  0  0  0  0
   -3.2560   -2.2813    0.0011 H   0  0  0  0  0  0  0  0  0  0  0  0
    4.7151    1.5666   -0.8916 H   0  0  0  0  0  0  0  0  0  0  0  0
    4.7139    1.5678    0.8935 H   0  0  0  0  0  0  0  0  0  0  0  0
    5.3602    0.1875    0.0024 H   0  0  0  0  0  0  0  0  0  0  0  0
   -5.0413    1.6119    0.0013 H   0  0  0  0  0  0  0  0  0  0  0  0
   -5.2584   -0.8567    0.0021 H   0  0  0  0  0  0  0  0  0  0  0  0
    1.3851    2.9583    0.0053 H   0  0  0  0  0  0  0  0  0  0  0  0
    2.6746   -3.3602    0.0001 H   0  0  0  0  0  0  0  0  0  0  0  0
  1 11  1  0  0  0  0
  1 28  1  0  0  0  0
  2 13  1  0  0  0  0
  2 29  1  0  0  0  0
  3  9  2  0  0  0  0
  4 10  2  0  0  0  0
  5  6  1  0  0  0  0
  5  9  1  0  0  0  0
  5 11  2  0  0  0  0
  6 10  1  0  0  0  0
  6 13  2  0  0  0  0
  7  8  1  0  0  0  0
  7  9  1  0  0  0  0
  7 15  2  0  0  0  0
  8 10  1  0  0  0  0
  8 16  2  0  0  0  0
 11 12  1  0  0  0  0
 12 14  2  0  0  0  0
 12 17  1  0  0  0  0
 13 14  1  0  0  0  0
 14 20  1  0  0  0  0
 15 18  1  0  0  0  0
 15 21  1  0  0  0  0
 16 19  1  0  0  0  0
 16 22  1  0  0  0  0
 17 23  1  0  0  0  0
 17 24  1  0  0  0  0
 17 25  1  0  0  0  0
 18 19  2  0  0  0  0
 18 26  1  0  0  0  0
 19 27  1  0  0  0  0
M  END
> <PUBCHEM_COMPOUND_CID>
99300

> <PUBCHEM_CONFORMER_RMSD>
0.4

> <PUBCHEM_CONFORMER_DIVERSEORDER>
1

> <PUBCHEM_MMFF94_PARTIAL_CHARGES>
26
1 -0.53
10 0.4
11 0.08
12 -0.14
13 0.08
14 -0.15
15 -0.15
16 -0.15
17 0.14
18 -0.15
19 -0.15
2 -0.53
20 0.15
21 0.15
22 0.15
26 0.15
27 0.15
28 0.45
29 0.45
3 -0.57
4 -0.57
5 0.09
6 0.09
7 0.09
8 0.09
9 0.4

> <PUBCHEM_EFFECTIVE_ROTOR_COUNT>
0

> <PUBCHEM_PHARMACOPHORE_FEATURES>
7
1 1 donor
1 2 donor
1 3 acceptor
1 4 acceptor
6 5 6 11 12 13 14 rings
6 5 6 7 8 9 10 rings
6 7 8 15 16 18 19 rings

> <PUBCHEM_HEAVY_ATOM_COUNT>
19

> <PUBCHEM_ATOM_DEF_STEREO_COUNT>
0

> <PUBCHEM_ATOM_UDEF_STEREO_COUNT>
0

> <PUBCHEM_BOND_DEF_STEREO_COUNT>
0

> <PUBCHEM_BOND_UDEF_STEREO_COUNT>
0

> <PUBCHEM_ISOTOPIC_ATOM_COUNT>
0

> <PUBCHEM_COMPONENT_COUNT>
1

> <PUBCHEM_CACTVS_TAUTO_COUNT>
27

> <PUBCHEM_CONFORMER_ID>
000183E400000001

> <PUBCHEM_MMFF94_ENERGY>
60.7728

> <PUBCHEM_FEATURE_SELFOVERLAP>
35.562

> <PUBCHEM_SHAPE_FINGERPRINT>
10411042 1 17617940678611156015
10608611 8 18412547647500041013
10616163 171 18338233752348823183
10967382 1 18410855485908534566
10980938 120 18411699902333309930
11132069 177 18409454682340872537
11471102 20 18410859879665346790
11578080 2 16986605405577769558
11680986 33 18340476859169780930
12011746 2 18410572890045638788
13132413 78 18408885109701069565
13140716 1 18122626054702382352
13221675 6 18410855455849057766
13380535 76 18411700967522285002
13583140 156 16845024424315867465
138480 1 17978228584449775502
13897977 150 18410858784723077253
14790565 3 18339068299023486132
15196674 1 18410856585414894087
15230672 131 13514617409726282587
15442244 35 18121499321566765211
15536298 74 18334575780273790206
16945 1 18410575080573963366
18186145 218 18335133249891061949
193761 8 17762336907712821669
19591789 44 18338233752237897423
200 152 18113907044091342149
20510252 161 18261109703156074305
20645477 70 18337960111882811255
20739085 24 18052228955441300097
21267235 1 18410565163431329303
21421861 104 17914902164823496610
21501502 16 18265614458081739107
221490 88 18340196505031964858
2334 1 18410575093580126083
23366157 5 17987230209116463210
23402539 116 18334021561835751742
23463225 33 18411982489811921813
23559900 14 18264212589895236154
238 59 17838943435069290269
2748010 2 18411417340956557863
335352 9 17906452486905002013
34934 24 18410017649727376983
350125 39 18123463882568113049
5104073 3 18411136969464650778
53812653 166 18335423456335851384
69090 78 18408608037123644975
7364860 26 18335983181112010462
9709674 26 18410006628657107927

> <PUBCHEM_SHAPE_MULTIPOLES>
367.53
7.12
2.74
0.6
0.91
0.57
0
-1.33
0
-0.74
0
0.02
0
0

> <PUBCHEM_SHAPE_SELFOVERLAP>
834.335

> <PUBCHEM_SHAPE_VOLUME>
190.5

> <PUBCHEM_COORDINATE_TYPE>
2
5
10

$$$$

