5487635
  -OEChem-07051213033D

 70 74  0     1  0  0  0  0  0999 V2000
    2.5328   -1.1180   -0.4048 O   0  0  0  0  0  0  0  0  0  0  0  0
   -0.8798   -2.4181   -0.2909 O   0  0  0  0  0  0  0  0  0  0  0  0
    2.4563   -0.3550    1.8008 O   0  0  0  0  0  0  0  0  0  0  0  0
   -0.0356   -0.4125    0.5509 O   0  0  0  0  0  0  0  0  0  0  0  0
    2.8840   -4.0391   -0.5615 O   0  0  0  0  0  0  0  0  0  0  0  0
    0.6915   -5.2459   -2.0080 O   0  0  0  0  0  0  0  0  0  0  0  0
    5.2784   -0.3533   -0.5384 O   0  0  0  0  0  0  0  0  0  0  0  0
    5.8962    1.8268    1.2514 O   0  0  0  0  0  0  0  0  0  0  0  0
    4.9242    1.2295    3.9704 O   0  0  0  0  0  0  0  0  0  0  0  0
   -3.1411   -3.5851   -1.3306 O   0  0  0  0  0  0  0  0  0  0  0  0
   -2.6185    1.9613   -0.5811 O   0  0  0  0  0  0  0  0  0  0  0  0
   -2.3289   -1.2911    1.8565 O   0  0  0  0  0  0  0  0  0  0  0  0
   -4.8759   -1.1045    2.4177 O   0  0  0  0  0  0  0  0  0  0  0  0
   -7.2491    2.4464    0.3432 O   0  0  0  0  0  0  0  0  0  0  0  0
    2.2656    4.4470   -0.7758 O   0  0  0  0  0  0  0  0  0  0  0  0
    2.8056    3.5606   -3.3536 O   0  0  0  0  0  0  0  0  0  0  0  0
    1.5217   -2.0901   -0.1404 C   0  0  2  0  0  0  0  0  0  0  0  0
    1.7474   -3.3121   -1.0307 C   0  0  2  0  0  0  0  0  0  0  0  0
    0.5405   -4.2500   -0.9997 C   0  0  1  0  0  0  0  0  0  0  0  0
   -0.7562   -3.4747   -1.2445 C   0  0  1  0  0  0  0  0  0  0  0  0
    0.1599   -1.4499   -0.4096 C   0  0  1  0  0  0  0  0  0  0  0  0
    3.3050   -0.8421    0.7630 C   0  0  2  0  0  0  0  0  0  0  0  0
    4.3546    0.2075    0.3942 C   0  0  1  0  0  0  0  0  0  0  0  0
    5.1350    0.6766    1.6220 C   0  0  2  0  0  0  0  0  0  0  0  0
    4.1895    1.0378    2.7669 C   0  0  1  0  0  0  0  0  0  0  0  0
   -1.9840   -4.3686   -1.1023 C   0  0  0  0  0  0  0  0  0  0  0  0
    3.1759   -0.0745    2.9963 C   0  0  0  0  0  0  0  0  0  0  0  0
   -1.2510    0.2141    0.3799 C   0  0  0  0  0  0  0  0  0  0  0  0
   -1.4187    1.2883   -0.4128 C   0  0  0  0  0  0  0  0  0  0  0  0
   -2.4199   -0.3165    1.1222 C   0  0  0  0  0  0  0  0  0  0  0  0
   -3.6934    0.3939    0.9287 C   0  0  0  0  0  0  0  0  0  0  0  0
   -0.3119    1.8860   -1.1807 C   0  0  0  0  0  0  0  0  0  0  0  0
   -3.7255    1.5008    0.0835 C   0  0  0  0  0  0  0  0  0  0  0  0
   -4.8538   -0.0296    1.5813 C   0  0  0  0  0  0  0  0  0  0  0  0
   -4.9206    2.1929   -0.1146 C   0  0  0  0  0  0  0  0  0  0  0  0
    0.4660    2.8956   -0.6133 C   0  0  0  0  0  0  0  0  0  0  0  0
   -0.0412    1.4423   -2.4754 C   0  0  0  0  0  0  0  0  0  0  0  0
   -6.0480    0.6639    1.3812 C   0  0  0  0  0  0  0  0  0  0  0  0
   -6.0816    1.7731    0.5350 C   0  0  0  0  0  0  0  0  0  0  0  0
    1.5140    3.4611   -1.3398 C   0  0  0  0  0  0  0  0  0  0  0  0
    1.0065    2.0080   -3.2021 C   0  0  0  0  0  0  0  0  0  0  0  0
    1.7842    3.0172   -2.6343 C   0  0  0  0  0  0  0  0  0  0  0  0
    1.5544   -2.4242    0.9069 H   0  0  0  0  0  0  0  0  0  0  0  0
    1.9798   -3.0089   -2.0583 H   0  0  0  0  0  0  0  0  0  0  0  0
    0.5071   -4.7605   -0.0284 H   0  0  0  0  0  0  0  0  0  0  0  0
   -0.7687   -3.0395   -2.2531 H   0  0  0  0  0  0  0  0  0  0  0  0
    0.1508   -1.0255   -1.4190 H   0  0  0  0  0  0  0  0  0  0  0  0
    3.7942   -1.7737    1.0794 H   0  0  0  0  0  0  0  0  0  0  0  0
    3.8828    1.0661   -0.1005 H   0  0  0  0  0  0  0  0  0  0  0  0
    5.8567   -0.0835    1.9458 H   0  0  0  0  0  0  0  0  0  0  0  0
    3.6784    1.9794    2.5311 H   0  0  0  0  0  0  0  0  0  0  0  0
   -2.0591   -4.7898   -0.0943 H   0  0  0  0  0  0  0  0  0  0  0  0
   -1.9831   -5.1860   -1.8281 H   0  0  0  0  0  0  0  0  0  0  0  0
    2.4542    0.2284    3.7629 H   0  0  0  0  0  0  0  0  0  0  0  0
    3.6547   -0.9886    3.3695 H   0  0  0  0  0  0  0  0  0  0  0  0
    2.7162   -4.3033    0.3591 H   0  0  0  0  0  0  0  0  0  0  0  0
    0.0586   -5.9589   -1.8196 H   0  0  0  0  0  0  0  0  0  0  0  0
    4.7646   -0.6680   -1.3018 H   0  0  0  0  0  0  0  0  0  0  0  0
    6.4736    1.5682    0.5127 H   0  0  0  0  0  0  0  0  0  0  0  0
    4.2903    1.4733    4.6664 H   0  0  0  0  0  0  0  0  0  0  0  0
   -3.1366   -2.8580   -0.6846 H   0  0  0  0  0  0  0  0  0  0  0  0
   -4.9421    3.0567   -0.7746 H   0  0  0  0  0  0  0  0  0  0  0  0
    0.2623    3.2474    0.3957 H   0  0  0  0  0  0  0  0  0  0  0  0
   -0.6442    0.6640   -2.9368 H   0  0  0  0  0  0  0  0  0  0  0  0
   -6.9557    0.3409    1.8853 H   0  0  0  0  0  0  0  0  0  0  0  0
    1.2049    1.6540   -4.2102 H   0  0  0  0  0  0  0  0  0  0  0  0
   -3.9979   -1.5119    2.4718 H   0  0  0  0  0  0  0  0  0  0  0  0
   -7.0905    3.1843   -0.2705 H   0  0  0  0  0  0  0  0  0  0  0  0
    2.9442    4.7195   -1.4177 H   0  0  0  0  0  0  0  0  0  0  0  0
    2.8436    3.1298   -4.2247 H   0  0  0  0  0  0  0  0  0  0  0  0
  1 17  1  0  0  0  0
  1 22  1  0  0  0  0
  2 20  1  0  0  0  0
  2 21  1  0  0  0  0
  3 22  1  0  0  0  0
  3 27  1  0  0  0  0
  4 21  1  0  0  0  0
  4 28  1  0  0  0  0
  5 18  1  0  0  0  0
  5 56  1  0  0  0  0
  6 19  1  0  0  0  0
  6 57  1  0  0  0  0
  7 23  1  0  0  0  0
  7 58  1  0  0  0  0
  8 24  1  0  0  0  0
  8 59  1  0  0  0  0
  9 25  1  0  0  0  0
  9 60  1  0  0  0  0
 10 26  1  0  0  0  0
 10 61  1  0  0  0  0
 11 29  1  0  0  0  0
 11 33  1  0  0  0  0
 12 30  2  0  0  0  0
 13 34  1  0  0  0  0
 13 67  1  0  0  0  0
 14 39  1  0  0  0  0
 14 68  1  0  0  0  0
 15 40  1  0  0  0  0
 15 69  1  0  0  0  0
 16 42  1  0  0  0  0
 16 70  1  0  0  0  0
 17 18  1  0  0  0  0
 17 21  1  0  0  0  0
 17 43  1  0  0  0  0
 18 19  1  0  0  0  0
 18 44  1  0  0  0  0
 19 20  1  0  0  0  0
 19 45  1  0  0  0  0
 20 26  1  0  0  0  0
 20 46  1  0  0  0  0
 21 47  1  0  0  0  0
 22 23  1  0  0  0  0
 22 48  1  0  0  0  0
 23 24  1  0  0  0  0
 23 49  1  0  0  0  0
 24 25  1  0  0  0  0
 24 50  1  0  0  0  0
 25 27  1  0  0  0  0
 25 51  1  0  0  0  0
 26 52  1  0  0  0  0
 26 53  1  0  0  0  0
 27 54  1  0  0  0  0
 27 55  1  0  0  0  0
 28 29  2  0  0  0  0
 28 30  1  0  0  0  0
 29 32  1  0  0  0  0
 30 31  1  0  0  0  0
 31 33  1  0  0  0  0
 31 34  2  0  0  0  0
 32 36  2  0  0  0  0
 32 37  1  0  0  0  0
 33 35  2  0  0  0  0
 34 38  1  0  0  0  0
 35 39  1  0  0  0  0
 35 62  1  0  0  0  0
 36 40  1  0  0  0  0
 36 63  1  0  0  0  0
 37 41  2  0  0  0  0
 37 64  1  0  0  0  0
 38 39  2  0  0  0  0
 38 65  1  0  0  0  0
 40 42  2  0  0  0  0
 41 42  1  0  0  0  0
 41 66  1  0  0  0  0
M  END
> <PUBCHEM_COMPOUND_CID>
5487635

> <PUBCHEM_CONFORMER_RMSD>
1

> <PUBCHEM_CONFORMER_DIVERSEORDER>
1
212
337
19
360
118
128
277
375
367
399
65
208
46
136
149
164
183
280
330
154
33
389
70
334
243
135
293
254
205
372
200
376
188
187
300
241
394
148
244
109
320
357
48
308
210
397
256
262
246
60
355
345
232
263
182
317
156
396
335
31
386
231
316
311
275
298
195
347
346
119
137
392
318
124
322
233
382
278
185
344
342
380
393
74
29
306
169
146
341
358
333
258
349
378
106
37
362
78
179
127
139
403
327
226
213
325
171
328
284
218
324
194
251
181
247
92
225
58
319
338
203
147
220
235
132
234
7
271
163
107
104
366
158
52
273
95
175
261
98
339
314
369
267
209
44
214
264
150
268
53
371
155
49
404
177
173
193
299
13
309
162
373
42
211
291
10
281
383
198
296
395
201
157
304
310
166
323
3
64
265
405
279
377
359
77
122
305
176
123
129
257
151
381
354
178
248
329
350
126
89
269
253
370
39
140
76
216
83
294
159
276
385
61
363
238
161
356
191
63
303
307
379
145
121
84
180
144
41
130
2
192
289
18
71
259
215
332
54
312
102
125
57
110
287
26
186
55
80
286
387
170
43
315
270
133
22
167
24
348
295
374
352
51
81
266
40
117
94
27
406
82
340
237
69
401
190
331
67
108
199
196
153
174
326
301
93
361
101
88
321
113
302
240
288
143
384
353
365
250
100
99
68
30
368
242
62
142
197
28
400
168
75
207
105
255
297
138
90
91
79
172
283
274
221
224
112
11
38
25
45
73
120
17
15
272
364
165
245
96
236
282
114
402
86
343
16
239
222
141
103
219
50
407
5
35
351
32
14
189
72
398
8
390
97
223
285
6
23
260
313
56
116
249
160
111
217
20
388
229
336
292
115
290
87
152
227
131
66
4
230
184
34
252
391
21
134
206
36
202
85
47
12
9
228
59
204

> <PUBCHEM_MMFF94_PARTIAL_CHARGES>
57
1 -0.56
10 -0.68
11 -0.16
12 -0.57
13 -0.53
14 -0.53
15 -0.53
16 -0.53
17 0.28
18 0.28
19 0.28
2 -0.56
20 0.28
21 0.56
22 0.56
23 0.28
24 0.28
25 0.28
26 0.28
27 0.28
28 0.09
29 0.05
3 -0.56
30 0.47
31 0.09
32 0.03
33 0.08
34 0.08
35 -0.15
36 -0.15
37 -0.15
38 -0.15
39 0.08
4 -0.36
40 0.08
41 -0.15
42 0.08
5 -0.68
56 0.4
57 0.4
58 0.4
59 0.4
6 -0.68
60 0.4
61 0.4
62 0.15
63 0.15
64 0.15
65 0.15
66 0.15
67 0.45
68 0.45
69 0.45
7 -0.68
70 0.45
8 -0.68
9 -0.68

> <PUBCHEM_EFFECTIVE_ROTOR_COUNT>
8.4

> <PUBCHEM_PHARMACOPHORE_FEATURES>
27
1 1 acceptor
1 10 acceptor
1 10 donor
1 11 acceptor
1 12 acceptor
1 13 donor
1 14 donor
1 15 donor
1 16 donor
1 2 acceptor
1 3 acceptor
1 4 acceptor
1 5 acceptor
1 5 donor
1 6 acceptor
1 6 donor
1 7 acceptor
1 7 donor
1 8 acceptor
1 8 donor
1 9 acceptor
1 9 donor
6 11 28 29 30 31 33 rings
6 2 17 18 19 20 21 rings
6 3 22 23 24 25 27 rings
6 31 33 34 35 38 39 rings
6 32 36 37 40 41 42 rings

> <PUBCHEM_HEAVY_ATOM_COUNT>
42

> <PUBCHEM_ATOM_DEF_STEREO_COUNT>
9

> <PUBCHEM_ATOM_UDEF_STEREO_COUNT>
0

> <PUBCHEM_BOND_DEF_STEREO_COUNT>
0

> <PUBCHEM_BOND_UDEF_STEREO_COUNT>
0

> <PUBCHEM_ISOTOPIC_ATOM_COUNT>
0

> <PUBCHEM_COMPONENT_COUNT>
1

> <PUBCHEM_CACTVS_TAUTO_COUNT>
162

> <PUBCHEM_CONFORMER_ID>
0053BC1300000001

> <PUBCHEM_MMFF94_ENERGY>
134.0403

> <PUBCHEM_FEATURE_SELFOVERLAP>
137.17

> <PUBCHEM_SHAPE_FINGERPRINT>
10165383 225 18334293215066346402
11093857 51 18193529316287586478
11297750 10 17548700033231312267
11578080 2 14491570307078510847
12156800 1 17608075486560421422
12422481 6 18343866614884315409
12608794 3 17917163714719650687
12788726 201 17615399264841189319
13111901 51 18264217911422825165
133893 2 17342673153913757540
1361 2 18337389465363878223
13636023 51 18268434709808025674
13965767 371 18265637488329740818
14004853 49 18117257195997427539
140371 6 18125702716403448625
14725015 67 17694785516253594675
14955137 171 18342444972182929308
15297060 5 18260817165002550084
15324884 4 18124879207768642191
15420108 30 18196651800625156644
15444296 8 16916525721347050501
15775530 1 17260193718341536533
17980427 23 18201445766000833525
18365409 1 18115322081413258799
19309040 13 16880212009610801000
19311894 1 16680326103822624206
19319366 153 17241630427554565650
1979834 28 18338513148561200249
21033648 29 18260839201857618216
22149856 69 18190436395570579577
23559900 14 18197478809762998611
27425 322 17168441380017127280
44880168 125 18267886011320743058
469060 322 17843151167395544090
5265222 85 17479973594411615428
581034 39 18190175689674038059

> <PUBCHEM_SHAPE_MULTIPOLES>
770.43
11.71
5.98
3.09
9.8
5.5
0.61
-7.26
9.81
-1.6
-5.85
-3.65
-1.71
-0.23

> <PUBCHEM_SHAPE_SELFOVERLAP>
1683.937

> <PUBCHEM_SHAPE_VOLUME>
410.6

> <PUBCHEM_COORDINATE_TYPE>
2
5
10

$$$$

