13187055
  -OEChem-07051213112D

 58 59  0     1  0  0  0  0  0999 V2000
    8.0622    0.9400    0.0000 O   0  0  0  0  0  0  0  0  0  0  0  0
    6.3301    0.9400    0.0000 O   0  0  0  0  0  0  0  0  0  0  0  0
    8.0622   -3.0600    0.0000 O   0  0  0  0  0  0  0  0  0  0  0  0
    6.3301   -0.0600    0.0000 O   0  0  0  0  0  0  0  0  0  0  0  0
    6.3301   -2.0600    0.0000 N   0  0  0  0  0  0  0  0  0  0  0  0
    9.7942   -0.0600    0.0000 N   0  0  0  0  0  0  0  0  0  0  0  0
    8.0622    2.9400    0.0000 N   0  0  0  0  0  0  0  0  0  0  0  0
    3.7320    1.4400    0.0000 N   0  0  0  0  0  0  0  0  0  0  0  0
    8.0622   -0.0600    0.0000 C   0  0  1  0  0  0  0  0  0  0  0  0
    7.1962   -1.5600    0.0000 C   0  0  1  0  0  0  0  0  0  0  0  0
    7.1962   -0.5600    0.0000 C   0  0  1  0  0  0  0  0  0  0  0  0
    8.9282   -0.5600    0.0000 C   0  0  2  0  0  0  0  0  0  0  0  0
    8.0622   -2.0600    0.0000 C   0  0  2  0  0  0  0  0  0  0  0  0
    8.9282   -1.5600    0.0000 C   0  0  0  0  0  0  0  0  0  0  0  0
    7.1962    1.4400    0.0000 C   0  0  1  0  0  0  0  0  0  0  0  0
    7.1962    2.4400    0.0000 C   0  0  1  0  0  0  0  0  0  0  0  0
    6.3301    2.9400    0.0000 C   0  0  0  0  0  0  0  0  0  0  0  0
    5.4641    1.4400    0.0000 C   0  0  1  0  0  0  0  0  0  0  0  0
    5.4641    2.4400    0.0000 C   0  0  0  0  0  0  0  0  0  0  0  0
    4.5981    0.9400    0.0000 C   0  0  0  0  0  0  0  0  0  0  0  0
    6.3301   -3.0600    0.0000 C   0  0  0  0  0  0  0  0  0  0  0  0
    8.9282   -3.5600    0.0000 C   0  0  0  0  0  0  0  0  0  0  0  0
    2.8660    0.9400    0.0000 C   0  0  0  0  0  0  0  0  0  0  0  0
    2.0000    1.4400    0.0000 C   0  0  0  0  0  0  0  0  0  0  0  0
    7.5252    0.2500    0.0000 H   0  0  0  0  0  0  0  0  0  0  0  0
    6.6592   -1.2500    0.0000 H   0  0  0  0  0  0  0  0  0  0  0  0
    6.6592   -0.8700    0.0000 H   0  0  0  0  0  0  0  0  0  0  0  0
    9.4651   -0.8700    0.0000 H   0  0  0  0  0  0  0  0  0  0  0  0
    7.5252   -2.3700    0.0000 H   0  0  0  0  0  0  0  0  0  0  0  0
    9.1403   -2.1426    0.0000 H   0  0  0  0  0  0  0  0  0  0  0  0
    9.5388   -1.4523    0.0000 H   0  0  0  0  0  0  0  0  0  0  0  0
    7.7331    1.7500    0.0000 H   0  0  0  0  0  0  0  0  0  0  0  0
    7.7331    2.1300    0.0000 H   0  0  0  0  0  0  0  0  0  0  0  0
    6.7287    3.4150    0.0000 H   0  0  0  0  0  0  0  0  0  0  0  0
    5.9316    3.4150    0.0000 H   0  0  0  0  0  0  0  0  0  0  0  0
    5.7932   -1.7500    0.0000 H   0  0  0  0  0  0  0  0  0  0  0  0
    5.4641    0.8200    0.0000 H   0  0  0  0  0  0  0  0  0  0  0  0
    5.2520    3.0226    0.0000 H   0  0  0  0  0  0  0  0  0  0  0  0
    4.8535    2.3323    0.0000 H   0  0  0  0  0  0  0  0  0  0  0  0
   10.3312   -0.3700    0.0000 H   0  0  0  0  0  0  0  0  0  0  0  0
    9.7942    0.5600    0.0000 H   0  0  0  0  0  0  0  0  0  0  0  0
    5.7932   -0.3700    0.0000 H   0  0  0  0  0  0  0  0  0  0  0  0
    4.1996    0.4651    0.0000 H   0  0  0  0  0  0  0  0  0  0  0  0
    4.9966    0.4651    0.0000 H   0  0  0  0  0  0  0  0  0  0  0  0
    5.7101   -3.0600    0.0000 H   0  0  0  0  0  0  0  0  0  0  0  0
    6.3301   -3.6800    0.0000 H   0  0  0  0  0  0  0  0  0  0  0  0
    6.9501   -3.0600    0.0000 H   0  0  0  0  0  0  0  0  0  0  0  0
    8.0622    3.5600    0.0000 H   0  0  0  0  0  0  0  0  0  0  0  0
    8.5991    2.6300    0.0000 H   0  0  0  0  0  0  0  0  0  0  0  0
    8.6182   -4.0969    0.0000 H   0  0  0  0  0  0  0  0  0  0  0  0
    9.4651   -3.8700    0.0000 H   0  0  0  0  0  0  0  0  0  0  0  0
    9.2382   -3.0231    0.0000 H   0  0  0  0  0  0  0  0  0  0  0  0
    3.7320    2.0600    0.0000 H   0  0  0  0  0  0  0  0  0  0  0  0
    2.4675    0.4651    0.0000 H   0  0  0  0  0  0  0  0  0  0  0  0
    3.2646    0.4651    0.0000 H   0  0  0  0  0  0  0  0  0  0  0  0
    2.3100    1.9769    0.0000 H   0  0  0  0  0  0  0  0  0  0  0  0
    1.4631    1.7500    0.0000 H   0  0  0  0  0  0  0  0  0  0  0  0
    1.6900    0.9031    0.0000 H   0  0  0  0  0  0  0  0  0  0  0  0
  9  1  1  6  0  0  0
 15  1  1  1  0  0  0
  2 15  1  0  0  0  0
  2 18  1  0  0  0  0
 13  3  1  6  0  0  0
  3 22  1  0  0  0  0
 11  4  1  1  0  0  0
  4 42  1  0  0  0  0
 10  5  1  1  0  0  0
  5 21  1  0  0  0  0
  5 36  1  0  0  0  0
 12  6  1  1  0  0  0
  6 40  1  0  0  0  0
  6 41  1  0  0  0  0
 16  7  1  1  0  0  0
  7 48  1  0  0  0  0
  7 49  1  0  0  0  0
  8 20  1  0  0  0  0
  8 23  1  0  0  0  0
  8 53  1  0  0  0  0
  9 11  1  0  0  0  0
  9 12  1  0  0  0  0
  9 25  1  0  0  0  0
 10 11  1  0  0  0  0
 10 13  1  0  0  0  0
 10 26  1  0  0  0  0
 11 27  1  0  0  0  0
 12 14  1  0  0  0  0
 12 28  1  0  0  0  0
 13 14  1  0  0  0  0
 13 29  1  0  0  0  0
 14 30  1  0  0  0  0
 14 31  1  0  0  0  0
 15 16  1  0  0  0  0
 15 32  1  0  0  0  0
 16 17  1  0  0  0  0
 16 33  1  0  0  0  0
 17 19  1  0  0  0  0
 17 34  1  0  0  0  0
 17 35  1  0  0  0  0
 18 19  1  0  0  0  0
 18 20  1  6  0  0  0
 18 37  1  0  0  0  0
 19 38  1  0  0  0  0
 19 39  1  0  0  0  0
 20 43  1  0  0  0  0
 20 44  1  0  0  0  0
 21 45  1  0  0  0  0
 21 46  1  0  0  0  0
 21 47  1  0  0  0  0
 22 50  1  0  0  0  0
 22 51  1  0  0  0  0
 22 52  1  0  0  0  0
 23 24  1  0  0  0  0
 23 54  1  0  0  0  0
 23 55  1  0  0  0  0
 24 56  1  0  0  0  0
 24 57  1  0  0  0  0
 24 58  1  0  0  0  0
M  END
> <PUBCHEM_COMPOUND_CID>
13187055

> <PUBCHEM_COMPOUND_CANONICALIZED>
1

> <PUBCHEM_CACTVS_COMPLEXITY>
376

> <PUBCHEM_CACTVS_HBOND_ACCEPTOR>
8

> <PUBCHEM_CACTVS_HBOND_DONOR>
5

> <PUBCHEM_CACTVS_ROTATABLE_BOND>
7

> <PUBCHEM_CACTVS_SUBSKEYS>
AAADcfB7uAAAAAAAAAAAAAAAAAAAAAAAAAA0QAAAAAAAAAAAAAAAHgAQCAAACDzxgAcCCALABgAAAAAAAAAAAAAAAAAAAIAIAAATEAIAgAAnQAAHEACXAAHwcA8AAAAAAAAAAAACAQAUAACgAAAAAAAAAA==

> <PUBCHEM_IUPAC_OPENEYE_NAME>
(1R,2R,3S,5S,6S)-3-amino-2-[(2R,3R,6S)-3-amino-6-(ethylaminomethyl)tetrahydropyran-2-yl]oxy-5-methoxy-6-(methylamino)cyclohexanol

> <PUBCHEM_IUPAC_CAS_NAME>
(1R,2R,3S,5S,6S)-3-amino-2-[[(2R,3R,6S)-3-amino-6-(ethylaminomethyl)-2-oxanyl]oxy]-5-methoxy-6-(methylamino)-1-cyclohexanol

> <PUBCHEM_IUPAC_NAME>
(1R,2R,3S,5S,6S)-3-amino-2-[(2R,3R,6S)-3-amino-6-(ethylaminomethyl)oxan-2-yl]oxy-5-methoxy-6-(methylamino)cyclohexan-1-ol

> <PUBCHEM_IUPAC_SYSTEMATIC_NAME>
(1R,2R,3S,5S,6S)-3-azanyl-2-[(2R,3R,6S)-3-azanyl-6-(ethylaminomethyl)oxan-2-yl]oxy-5-methoxy-6-(methylamino)cyclohexan-1-ol

> <PUBCHEM_IUPAC_TRADITIONAL_NAME>
(1R,2R,3S,5S,6S)-3-amino-2-[(2R,3R,6S)-3-amino-6-(ethylaminomethyl)tetrahydropyran-2-yl]oxy-5-methoxy-6-(methylamino)cyclohexanol

> <PUBCHEM_IUPAC_INCHI>
InChI=1S/C16H34N4O4/c1-4-20-8-9-5-6-10(17)16(23-9)24-15-11(18)7-12(22-3)13(19-2)14(15)21/h9-16,19-21H,4-8,17-18H2,1-3H3/t9-,10+,11-,12-,13+,14+,15+,16+/m0/s1

> <PUBCHEM_IUPAC_INCHIKEY>
MBIKACINXASGTE-PFCCBWJBSA-N

> <PUBCHEM_XLOGP3_AA>
-2

> <PUBCHEM_EXACT_MASS>
346.258006

> <PUBCHEM_MOLECULAR_FORMULA>
C16H34N4O4

> <PUBCHEM_MOLECULAR_WEIGHT>
346.46556

> <PUBCHEM_OPENEYE_CAN_SMILES>
CCNCC1CCC(C(O1)OC2C(CC(C(C2O)NC)OC)N)N

> <PUBCHEM_OPENEYE_ISO_SMILES>
CCNC[C@@H]1CC[C@H]([C@H](O1)O[C@@H]2[C@H](C[C@@H]([C@H]([C@H]2O)NC)OC)N)N

> <PUBCHEM_CACTVS_TPSA>
124

> <PUBCHEM_MONOISOTOPIC_WEIGHT>
346.258006

> <PUBCHEM_TOTAL_CHARGE>
0

> <PUBCHEM_HEAVY_ATOM_COUNT>
24

> <PUBCHEM_ATOM_DEF_STEREO_COUNT>
8

> <PUBCHEM_ATOM_UDEF_STEREO_COUNT>
0

> <PUBCHEM_BOND_DEF_STEREO_COUNT>
0

> <PUBCHEM_BOND_UDEF_STEREO_COUNT>
0

> <PUBCHEM_ISOTOPIC_ATOM_COUNT>
0

> <PUBCHEM_COMPONENT_COUNT>
1

> <PUBCHEM_CACTVS_TAUTO_COUNT>
1

> <PUBCHEM_COORDINATE_TYPE>
1
5
255

> <PUBCHEM_BONDANNOTATIONS>
15  1  5
9  1  6
18  20  6
13  3  6
11  4  5
10  5  5
12  6  5
16  7  5

$$$$

