72924
  -OEChem-07051212453D

 15 15  0     0  0  0  0  0  0999 V2000
    2.6366   -1.1093    0.4428 O   0  0  0  0  0  0  0  0  0  0  0  0
   -3.3633    0.0448    0.0160 O   0  0  0  0  0  0  0  0  0  0  0  0
    2.7925    1.0287   -0.3892 O   0  0  0  0  0  0  0  0  0  0  0  0
   -1.3568    1.1804    0.1796 N   0  0  0  0  0  0  0  0  0  0  0  0
    0.6844    0.0221   -0.0134 C   0  0  0  0  0  0  0  0  0  0  0  0
    0.0173    1.1684    0.1690 C   0  0  0  0  0  0  0  0  0  0  0  0
   -0.0413   -1.2103   -0.2006 C   0  0  0  0  0  0  0  0  0  0  0  0
   -1.3813   -1.2272   -0.1951 C   0  0  0  0  0  0  0  0  0  0  0  0
   -2.1349    0.0457    0.0082 C   0  0  0  0  0  0  0  0  0  0  0  0
    2.1467    0.0566   -0.0173 C   0  0  0  0  0  0  0  0  0  0  0  0
    0.4898    2.1316    0.3187 H   0  0  0  0  0  0  0  0  0  0  0  0
    0.5010   -2.1356   -0.3626 H   0  0  0  0  0  0  0  0  0  0  0  0
   -1.8176    2.0743    0.3223 H   0  0  0  0  0  0  0  0  0  0  0  0
   -1.9445   -2.1413   -0.3397 H   0  0  0  0  0  0  0  0  0  0  0  0
    3.6175   -1.1193    0.4552 H   0  0  0  0  0  0  0  0  0  0  0  0
  1 10  1  0  0  0  0
  1 15  1  0  0  0  0
  2  9  2  0  0  0  0
  3 10  2  0  0  0  0
  4  6  1  0  0  0  0
  4  9  1  0  0  0  0
  4 13  1  0  0  0  0
  5  6  2  0  0  0  0
  5  7  1  0  0  0  0
  5 10  1  0  0  0  0
  6 11  1  0  0  0  0
  7  8  2  0  0  0  0
  7 12  1  0  0  0  0
  8  9  1  0  0  0  0
  8 14  1  0  0  0  0
M  END
> <PUBCHEM_COMPOUND_CID>
72924

> <PUBCHEM_CONFORMER_RMSD>
0.4

> <PUBCHEM_CONFORMER_DIVERSEORDER>
1
3
2

> <PUBCHEM_MMFF94_PARTIAL_CHARGES>
15
1 -0.65
10 0.71
11 0.15
12 0.15
13 0.37
14 0.15
15 0.5
2 -0.57
3 -0.57
4 -0.54
5 0.01
6 -0.04
7 -0.15
8 -0.14
9 0.62

> <PUBCHEM_EFFECTIVE_ROTOR_COUNT>
1

> <PUBCHEM_PHARMACOPHORE_FEATURES>
6
1 1 acceptor
1 2 acceptor
1 3 acceptor
1 4 donor
3 1 3 10 anion
6 4 5 6 7 8 9 rings

> <PUBCHEM_HEAVY_ATOM_COUNT>
10

> <PUBCHEM_ATOM_DEF_STEREO_COUNT>
0

> <PUBCHEM_ATOM_UDEF_STEREO_COUNT>
0

> <PUBCHEM_BOND_DEF_STEREO_COUNT>
0

> <PUBCHEM_BOND_UDEF_STEREO_COUNT>
0

> <PUBCHEM_ISOTOPIC_ATOM_COUNT>
0

> <PUBCHEM_COMPONENT_COUNT>
1

> <PUBCHEM_CACTVS_TAUTO_COUNT>
3

> <PUBCHEM_CONFORMER_ID>
00011CDC00000001

> <PUBCHEM_MMFF94_ENERGY>
24.1753

> <PUBCHEM_FEATURE_SELFOVERLAP>
30.497

> <PUBCHEM_SHAPE_FINGERPRINT>
14325111 11 18411136943895358069
15310529 11 17489877037249520141
16945 1 18260266351977873667
193761 8 17472134450309312617
21040471 1 18334858350308769322
23235685 24 18407761434692508237
23402655 69 18118983601421246389
23552423 10 18198061365756797108
2748010 2 17975419010017488229
29004967 10 16128658548160799084
369184 2 18202567275949972203
5084963 1 18335705008748469946

> <PUBCHEM_SHAPE_MULTIPOLES>
183.21
4.12
1.37
0.62
0
0.08
0
-0.15
-0.01
0.09
-0.01
0.07
0.02
-0.26

> <PUBCHEM_SHAPE_SELFOVERLAP>
385.061

> <PUBCHEM_SHAPE_VOLUME>
103.1

> <PUBCHEM_COORDINATE_TYPE>
2
5
10

$$$$

