94578
  -OEChem-07051213133D

 47 48  0     0  0  0  0  0  0999 V2000
   -0.8430   -1.3981   -0.9091 O   0  0  0  0  0  0  0  0  0  0  0  0
    5.2461    0.9397   -0.1436 O   0  0  0  0  0  0  0  0  0  0  0  0
   -1.4001   -0.4847    1.1299 O   0  0  0  0  0  0  0  0  0  0  0  0
    3.1174    1.2003   -0.9378 O   0  0  0  0  0  0  0  0  0  0  0  0
   -2.8902   -0.1982   -0.6814 N   0  0  0  0  0  0  0  0  0  0  0  0
    3.7804   -0.7343    0.2105 N   0  0  0  0  0  0  0  0  0  0  0  0
   -3.0667   -0.5118   -2.1318 C   0  0  0  0  0  0  0  0  0  0  0  0
   -3.9147    0.4645   -0.0046 C   0  0  0  0  0  0  0  0  0  0  0  0
    5.4451    2.3532   -0.0255 C   0  0  0  0  0  0  0  0  0  0  0  0
   -1.6804   -0.6677   -0.0531 C   0  0  0  0  0  0  0  0  0  0  0  0
   -2.4878    0.5784   -3.0098 C   0  0  0  0  0  0  0  0  0  0  0  0
   -4.1519    0.1903    1.3424 C   0  0  0  0  0  0  0  0  0  0  0  0
   -4.7013    1.4017   -0.6745 C   0  0  0  0  0  0  0  0  0  0  0  0
    0.3367   -1.8622   -0.3164 C   0  0  0  0  0  0  0  0  0  0  0  0
    2.6303   -1.5238    0.2337 C   0  0  0  0  0  0  0  0  0  0  0  0
    1.4547   -1.0609   -0.3575 C   0  0  0  0  0  0  0  0  0  0  0  0
    0.3298   -3.1009    0.2830 C   0  0  0  0  0  0  0  0  0  0  0  0
   -5.1757    0.8529    2.0193 C   0  0  0  0  0  0  0  0  0  0  0  0
   -5.7250    2.0645    0.0027 C   0  0  0  0  0  0  0  0  0  0  0  0
    2.6555   -2.7752    0.8494 C   0  0  0  0  0  0  0  0  0  0  0  0
    6.9276    2.6362    0.1644 C   0  0  0  0  0  0  0  0  0  0  0  0
    4.6144    2.8805    1.1345 C   0  0  0  0  0  0  0  0  0  0  0  0
    1.5053   -3.5637    0.8741 C   0  0  0  0  0  0  0  0  0  0  0  0
   -5.9622    1.7901    1.3496 C   0  0  0  0  0  0  0  0  0  0  0  0
    3.9558    0.5293   -0.3484 C   0  0  0  0  0  0  0  0  0  0  0  0
   -2.5977   -1.4720   -2.3703 H   0  0  0  0  0  0  0  0  0  0  0  0
   -4.1353   -0.6460   -2.3390 H   0  0  0  0  0  0  0  0  0  0  0  0
    5.1269    2.8332   -0.9593 H   0  0  0  0  0  0  0  0  0  0  0  0
   -2.8481    1.5825   -2.7830 H   0  0  0  0  0  0  0  0  0  0  0  0
   -1.3974    0.6093   -2.9039 H   0  0  0  0  0  0  0  0  0  0  0  0
   -2.7092    0.3694   -4.0613 H   0  0  0  0  0  0  0  0  0  0  0  0
   -3.6012   -0.5662    1.8917 H   0  0  0  0  0  0  0  0  0  0  0  0
   -4.5780    1.6470   -1.7207 H   0  0  0  0  0  0  0  0  0  0  0  0
    1.3603   -0.1048   -0.8522 H   0  0  0  0  0  0  0  0  0  0  0  0
    7.3056    2.1471    1.0690 H   0  0  0  0  0  0  0  0  0  0  0  0
    7.5031    2.2316   -0.6751 H   0  0  0  0  0  0  0  0  0  0  0  0
    7.1234    3.7102    0.2376 H   0  0  0  0  0  0  0  0  0  0  0  0
    4.8243    2.3193    2.0521 H   0  0  0  0  0  0  0  0  0  0  0  0
    3.5391    2.7972    0.9516 H   0  0  0  0  0  0  0  0  0  0  0  0
    4.8306    3.9379    1.3197 H   0  0  0  0  0  0  0  0  0  0  0  0
   -0.5656   -3.7141    0.3014 H   0  0  0  0  0  0  0  0  0  0  0  0
    3.5646   -3.1483    1.3143 H   0  0  0  0  0  0  0  0  0  0  0  0
   -5.3688    0.6310    3.0649 H   0  0  0  0  0  0  0  0  0  0  0  0
   -6.3409    2.7913   -0.5191 H   0  0  0  0  0  0  0  0  0  0  0  0
    4.6008   -1.1324    0.6612 H   0  0  0  0  0  0  0  0  0  0  0  0
    1.5248   -4.5381    1.3535 H   0  0  0  0  0  0  0  0  0  0  0  0
   -6.7617    2.3034    1.8757 H   0  0  0  0  0  0  0  0  0  0  0  0
  1 10  1  0  0  0  0
  1 14  1  0  0  0  0
  2  9  1  0  0  0  0
  2 25  1  0  0  0  0
  3 10  2  0  0  0  0
  4 25  2  0  0  0  0
  5  7  1  0  0  0  0
  5  8  1  0  0  0  0
  5 10  1  0  0  0  0
  6 15  1  0  0  0  0
  6 25  1  0  0  0  0
  6 45  1  0  0  0  0
  7 11  1  0  0  0  0
  7 26  1  0  0  0  0
  7 27  1  0  0  0  0
  8 12  2  0  0  0  0
  8 13  1  0  0  0  0
  9 21  1  0  0  0  0
  9 22  1  0  0  0  0
  9 28  1  0  0  0  0
 11 29  1  0  0  0  0
 11 30  1  0  0  0  0
 11 31  1  0  0  0  0
 12 18  1  0  0  0  0
 12 32  1  0  0  0  0
 13 19  2  0  0  0  0
 13 33  1  0  0  0  0
 14 16  1  0  0  0  0
 14 17  2  0  0  0  0
 15 16  2  0  0  0  0
 15 20  1  0  0  0  0
 16 34  1  0  0  0  0
 17 23  1  0  0  0  0
 17 41  1  0  0  0  0
 18 24  2  0  0  0  0
 18 43  1  0  0  0  0
 19 24  1  0  0  0  0
 19 44  1  0  0  0  0
 20 23  2  0  0  0  0
 20 42  1  0  0  0  0
 21 35  1  0  0  0  0
 21 36  1  0  0  0  0
 21 37  1  0  0  0  0
 22 38  1  0  0  0  0
 22 39  1  0  0  0  0
 22 40  1  0  0  0  0
 23 46  1  0  0  0  0
 24 47  1  0  0  0  0
M  END
> <PUBCHEM_COMPOUND_CID>
94578

> <PUBCHEM_CONFORMER_RMSD>
1

> <PUBCHEM_CONFORMER_DIVERSEORDER>
1
65
107
235
42
180
143
253
214
171
147
101
247
67
61
104
142
158
243
189
44
63
90
39
238
234
156
114
70
62
245
40
223
150
91
259
248
185
41
77
207
144
216
211
87
58
74
227
66
122
209
241
192
184
255
136
190
187
126
117
242
3
240
89
172
251
99
159
105
226
203
202
83
140
151
197
52
213
102
95
51
97
175
79
94
57
220
154
217
135
139
98
100
115
188
133
20
116
123
54
38
249
176
106
219
221
121
183
138
231
119
124
230
5
239
85
161
81
157
204
148
69
196
186
92
128
153
166
258
78
252
250
193
229
257
205
225
224
152
256
4
228
179
201
215
232
28
254
182
163
30
206
110
34
165
212
164
236
218
149
167
22
59
36
118
130
84
233
25
194
46
168
246
43
200
93
96
23
198
129
12
260
178
47
71
191
141
27
208
14
210
31
195
169
64
48
68
237
145
75
160
49
173
127
37
50
88
109
53
125
155
222
199
162
120
108
10
103
35
32
132
262
170
26
19
56
174
244
82
21
60
80
261
146
15
45
111
55
177
2
131
72
24
13
181
29
33
73
76
17
113
6
18
16
86
112
11
134
7
137
9
8

> <PUBCHEM_MMFF94_PARTIAL_CHARGES>
32
1 -0.23
10 0.78
12 -0.15
13 -0.15
14 0.08
15 0.12
16 -0.15
17 -0.15
18 -0.15
19 -0.15
2 -0.43
20 -0.15
23 -0.15
24 -0.15
25 0.78
3 -0.57
32 0.15
33 0.15
34 0.15
4 -0.57
41 0.15
42 0.15
43 0.15
44 0.15
45 0.37
46 0.15
47 0.15
5 -0.48
6 -0.55
7 0.3
8 0.12
9 0.28

> <PUBCHEM_EFFECTIVE_ROTOR_COUNT>
9

> <PUBCHEM_PHARMACOPHORE_FEATURES>
6
1 3 acceptor
1 4 acceptor
1 6 donor
3 9 21 22 hydrophobe
6 14 15 16 17 20 23 rings
6 8 12 13 18 19 24 rings

> <PUBCHEM_HEAVY_ATOM_COUNT>
25

> <PUBCHEM_ATOM_DEF_STEREO_COUNT>
0

> <PUBCHEM_ATOM_UDEF_STEREO_COUNT>
0

> <PUBCHEM_BOND_DEF_STEREO_COUNT>
0

> <PUBCHEM_BOND_UDEF_STEREO_COUNT>
0

> <PUBCHEM_ISOTOPIC_ATOM_COUNT>
0

> <PUBCHEM_COMPONENT_COUNT>
1

> <PUBCHEM_CACTVS_TAUTO_COUNT>
2

> <PUBCHEM_CONFORMER_ID>
0001717200000001

> <PUBCHEM_MMFF94_ENERGY>
86.5416

> <PUBCHEM_FEATURE_SELFOVERLAP>
30.446

> <PUBCHEM_SHAPE_FINGERPRINT>
10074138 170 17344904114235322299
10319926 262 15984551125428077394
10670039 82 16371282367704069033
11135609 201 18336828580698798459
11273773 42 18260270707423190221
11410812 94 14780088884621526712
12390115 104 18268423551904898758
12596602 18 18260258677525502187
12616971 3 18262527003782972798
12633257 1 16343697682278399796
12788726 201 17385998524463687656
12892183 10 16200164221863967554
13540713 5 18337411377923889374
13828863 39 18409725154012232503
13911852 28 9655587296386366880
13955234 65 18199748227053296794
14251764 75 18339073792381252512
14765038 42 18337949000676342236
14840074 17 17894907469143792289
14848178 5 10592043535648234357
14932701 244 17754751424253630567
15131766 46 18336559265207558301
15142526 21 18411981338581644362
15188451 53 13326856604355699785
15342168 16 18408603699344034207
15475509 35 16056322872777487250
17913733 40 18343582953584491666
19784866 34 18410013225795089066
1979834 28 17917417757170283061
20511986 3 17822301183805646464
21033648 29 17346607416760263375
21365058 113 17466206948533126606
21401589 2 18130792209382674122
21756936 100 18260829237707602998
22122407 14 18191858149382842289
22849339 104 15285655261268788717
23559900 14 16628547245180807511
23569914 2 17412789233730096285
23845131 108 18272087180014147595
270888 7 18408322164332752752
2748736 6 18336274427471999424
283562 15 17981051816709304682
2838139 119 17823422596230962504
3178227 256 18130508652117426050
3472631 163 17967811643531021125
38570 142 18261097587385290694
474 4 18410013268592041171
50009960 94 15695439839326997377
5104073 3 18202289069997769186
5385378 56 18343584062530274418
56638632 10 18339647724339560701
6034566 193 18187366536913761903
633830 44 18261112997528086614
636775 72 17903079929010505144
6697151 62 17338180914491527563
7288768 16 18272368637805194530
7970288 3 9295300434525636344

> <PUBCHEM_SHAPE_MULTIPOLES>
481.05
15.44
3.72
1.77
4.03
1.39
0.96
-18.39
-3.81
5.54
-1.25
-2.88
-0.32
-0.78

> <PUBCHEM_SHAPE_SELFOVERLAP>
1006.963

> <PUBCHEM_SHAPE_VOLUME>
268.8

> <PUBCHEM_COORDINATE_TYPE>
2
5
10

$$$$

