47205592
  -OEChem-06241222593D

 32 34  0     0  0  0  0  0  0999 V2000
   -2.6988   -1.5349    0.7971 S   0  0  0  0  0  0  0  0  0  0  0  0
    5.2145   -1.4918   -0.6638 O   0  0  0  0  0  0  0  0  0  0  0  0
   -0.3187    2.3081   -0.6383 O   0  0  0  0  0  0  0  0  0  0  0  0
    1.9595    1.9672    0.9857 O   0  0  0  0  0  0  0  0  0  0  0  0
   -2.9806    0.8013   -0.3571 N   0  0  0  0  0  0  0  0  0  0  0  0
   -0.7443    0.1665    0.3088 N   0  0  0  0  0  0  0  0  0  0  0  0
    2.0479    0.0508   -0.4043 N   0  0  0  0  0  0  0  0  0  0  0  0
    3.8659   -1.4313   -0.9933 N   0  0  0  0  0  0  0  0  0  0  0  0
   -6.4575   -0.4109    0.0186 C   0  0  0  0  0  0  0  0  0  0  0  0
   -5.5679   -1.6480    0.3840 C   0  0  0  0  0  0  0  0  0  0  0  0
   -5.5334    0.6338   -0.6957 C   0  0  0  0  0  0  0  0  0  0  0  0
   -4.2229   -1.0453    0.3179 C   0  0  0  0  0  0  0  0  0  0  0  0
   -4.1940    0.1899   -0.2643 C   0  0  0  0  0  0  0  0  0  0  0  0
   -2.0951   -0.0237    0.1789 C   0  0  0  0  0  0  0  0  0  0  0  0
    0.0238    1.2733   -0.0913 C   0  0  0  0  0  0  0  0  0  0  0  0
    1.4812    1.1321    0.2365 C   0  0  0  0  0  0  0  0  0  0  0  0
    3.3973   -0.3659   -0.3371 C   0  0  0  0  0  0  0  0  0  0  0  0
    4.3944    0.2786    0.4152 C   0  0  0  0  0  0  0  0  0  0  0  0
    5.5173   -0.4686    0.1754 C   0  0  0  0  0  0  0  0  0  0  0  0
    6.9114   -0.3811    0.6270 C   0  0  0  0  0  0  0  0  0  0  0  0
   -6.8446    0.0335    0.9453 H   0  0  0  0  0  0  0  0  0  0  0  0
   -7.3197   -0.6886   -0.5959 H   0  0  0  0  0  0  0  0  0  0  0  0
   -5.6825   -2.4364   -0.3666 H   0  0  0  0  0  0  0  0  0  0  0  0
   -5.8218   -2.0391    1.3728 H   0  0  0  0  0  0  0  0  0  0  0  0
   -5.7675    1.6531   -0.3778 H   0  0  0  0  0  0  0  0  0  0  0  0
   -5.6352    0.5553   -1.7827 H   0  0  0  0  0  0  0  0  0  0  0  0
   -0.2528   -0.6026    0.7578 H   0  0  0  0  0  0  0  0  0  0  0  0
    1.4638   -0.5307   -1.0000 H   0  0  0  0  0  0  0  0  0  0  0  0
    4.3352    1.1536    1.0446 H   0  0  0  0  0  0  0  0  0  0  0  0
    7.1988   -1.2886    1.1669 H   0  0  0  0  0  0  0  0  0  0  0  0
    7.5856   -0.2604   -0.2265 H   0  0  0  0  0  0  0  0  0  0  0  0
    7.0570    0.4721    1.2970 H   0  0  0  0  0  0  0  0  0  0  0  0
  1 12  1  0  0  0  0
  1 14  1  0  0  0  0
  2  8  1  0  0  0  0
  2 19  1  0  0  0  0
  3 15  2  0  0  0  0
  4 16  2  0  0  0  0
  5 13  1  0  0  0  0
  5 14  2  0  0  0  0
  6 14  1  0  0  0  0
  6 15  1  0  0  0  0
  6 27  1  0  0  0  0
  7 16  1  0  0  0  0
  7 17  1  0  0  0  0
  7 28  1  0  0  0  0
  8 17  2  0  0  0  0
  9 10  1  0  0  0  0
  9 11  1  0  0  0  0
  9 21  1  0  0  0  0
  9 22  1  0  0  0  0
 10 12  1  0  0  0  0
 10 23  1  0  0  0  0
 10 24  1  0  0  0  0
 11 13  1  0  0  0  0
 11 25  1  0  0  0  0
 11 26  1  0  0  0  0
 12 13  2  0  0  0  0
 15 16  1  0  0  0  0
 17 18  1  0  0  0  0
 18 19  2  0  0  0  0
 18 29  1  0  0  0  0
 19 20  1  0  0  0  0
 20 30  1  0  0  0  0
 20 31  1  0  0  0  0
 20 32  1  0  0  0  0
M  END
> <PUBCHEM_COMPOUND_CID>
47205592

> <PUBCHEM_CONFORMER_RMSD>
0.8

> <PUBCHEM_CONFORMER_DIVERSEORDER>
1
12
4
3
5
7
9
8
10
11
6
2

> <PUBCHEM_MMFF94_PARTIAL_CHARGES>
22
1 -0.08
10 0.18
11 0.18
12 -0.14
13 0.05
14 0.44
15 0.63
16 0.63
17 0.35
18 -0.15
19 -0.04
2 -0.02
20 0.18
27 0.37
28 0.37
29 0.15
3 -0.57
4 -0.57
5 -0.57
6 -0.49
7 -0.49
8 -0.41

> <PUBCHEM_EFFECTIVE_ROTOR_COUNT>
5.6

> <PUBCHEM_PHARMACOPHORE_FEATURES>
7
1 3 acceptor
1 4 acceptor
1 6 donor
1 7 donor
5 1 5 12 13 14 rings
5 2 8 17 18 19 rings
5 9 10 11 12 13 rings

> <PUBCHEM_HEAVY_ATOM_COUNT>
20

> <PUBCHEM_ATOM_DEF_STEREO_COUNT>
0

> <PUBCHEM_ATOM_UDEF_STEREO_COUNT>
0

> <PUBCHEM_BOND_DEF_STEREO_COUNT>
0

> <PUBCHEM_BOND_UDEF_STEREO_COUNT>
0

> <PUBCHEM_ISOTOPIC_ATOM_COUNT>
0

> <PUBCHEM_COMPONENT_COUNT>
1

> <PUBCHEM_CACTVS_TAUTO_COUNT>
24

> <PUBCHEM_CONFORMER_ID>
02D04CD800000001

> <PUBCHEM_MMFF94_ENERGY>
41.44

> <PUBCHEM_FEATURE_SELFOVERLAP>
35.736

> <PUBCHEM_SHAPE_FINGERPRINT>
10 15 18261686896402197592
10354089 29 5617535194826472850
10613725 11 16917349238112608514
106641 1 15574722365347094370
10670039 82 11743852373512152742
10803635 8 17632303388582343455
11128504 68 15841548552714195326
11315181 36 18408601453107683017
11796584 16 18202845444002728202
12236239 1 16630809919592437328
12516196 113 18186802478526416632
12596602 18 15140682479465958526
13288520 33 18343582932911437037
13402501 40 18411135844210131303
13533116 47 17749390338879766440
13544592 145 18341614785222085025
13685833 64 18410852140487843747
14251731 8 18201721760525402015
14251751 18 18334856061503183511
14251752 14 17489597795819255823
14251764 18 18334009480514948889
14341114 328 14129057027842571990
14386348 63 18409728465226438646
14528608 73 11671780442640697027
14848160 23 18408605872518227990
15183329 4 17989212559703091563
17492 89 17910952440522447515
17834072 8 18343871017816436101
17844677 252 18201716245624454981
18006028 8 18260832600519296216
19141452 34 18187647964318992463
19784866 240 18409157822917998925
200 152 17748826319822119537
20374829 77 18344148089760688681
20403669 9 18410852174631453582
20645477 70 18409165480696773788
21267235 1 18131347472167503219
21279426 13 18196091268653498183
21623969 137 18040715883413878574
2215653 11 18410580587101799767
22224240 67 16950290594292337814
2297311 6 17917992772488672317
23198884 109 15339117948769248661
23402539 116 18131635598956538837
23536379 177 16487257685743910030
23559900 14 18339929208158945417
23622692 88 16660365857352037596
239999 70 18411419497547098666
26918003 58 18040715853116686811
2838139 119 10807934834385374674
2871803 45 18342454885326092418
29717793 49 16200431403743482938
3004659 81 17989203742267056150
314173 85 18336256912125406456
335352 9 18343304765254859901
347723 3 16128657457444970680
4325135 7 18272086077166985492
465052 167 18259980466307283214
5104073 3 17896605179784858018
559249 180 18272654545778926443
6138700 20 18342738546061686515
9709674 26 18055351332578235515
9971528 1 18341335479283532141

> <PUBCHEM_SHAPE_MULTIPOLES>
377.91
17.28
1.73
0.84
6.02
0.33
0.01
-6.79
-0.06
-0.28
0.02
0.3
-0.05
1.19

> <PUBCHEM_SHAPE_SELFOVERLAP>
801.648

> <PUBCHEM_SHAPE_VOLUME>
213.3

> <PUBCHEM_COORDINATE_TYPE>
2
5
10

$$$$

