5460287
  -OEChem-07051212503D

 24 23  0     1  0  0  0  0  0999 V2000
   -1.4874   -1.4360    1.2431 O   0  0  0  0  0  0  0  0  0  0  0  0
   -0.7715    2.3120   -0.2607 O   0  0  0  0  0  0  0  0  0  0  0  0
   -0.5253    1.1690    1.6820 O   0  0  0  0  0  0  0  0  0  0  0  0
   -3.0035   -0.1329   -1.7244 O   0  0  0  0  0  0  0  0  0  0  0  0
   -3.7501   -0.2319    0.4217 O   0  0  0  0  0  0  0  0  0  0  0  0
    4.5142    0.6179   -0.3398 O   0  0  0  0  0  0  0  0  0  0  0  0
    3.6551   -1.4021    0.2508 O   0  0  0  0  0  0  0  0  0  0  0  0
   -0.3664   -0.0519   -0.4166 C   0  0  1  0  0  0  0  0  0  0  0  0
    1.0294   -0.6534   -0.1763 C   0  0  0  0  0  0  0  0  0  0  0  0
   -1.5150   -1.0379   -0.1202 C   0  0  2  0  0  0  0  0  0  0  0  0
    2.1493    0.3458   -0.4629 C   0  0  0  0  0  0  0  0  0  0  0  0
   -0.5535    1.1814    0.4574 C   0  0  0  0  0  0  0  0  0  0  0  0
   -2.8703   -0.4236   -0.4057 C   0  0  0  0  0  0  0  0  0  0  0  0
    3.4949   -0.2562   -0.1486 C   0  0  0  0  0  0  0  0  0  0  0  0
   -0.4267    0.2622   -1.4668 H   0  0  0  0  0  0  0  0  0  0  0  0
    1.1536   -1.5410   -0.8097 H   0  0  0  0  0  0  0  0  0  0  0  0
    1.1116   -0.9980    0.8629 H   0  0  0  0  0  0  0  0  0  0  0  0
   -1.4160   -1.9455   -0.7253 H   0  0  0  0  0  0  0  0  0  0  0  0
    2.1357    0.6328   -1.5196 H   0  0  0  0  0  0  0  0  0  0  0  0
    2.0427    1.2424    0.1558 H   0  0  0  0  0  0  0  0  0  0  0  0
   -1.6134   -0.6504    1.8009 H   0  0  0  0  0  0  0  0  0  0  0  0
   -0.8953    3.0944    0.3178 H   0  0  0  0  0  0  0  0  0  0  0  0
   -3.8816    0.2547   -1.9268 H   0  0  0  0  0  0  0  0  0  0  0  0
    5.3841    0.2186   -0.1248 H   0  0  0  0  0  0  0  0  0  0  0  0
  1 10  1  0  0  0  0
  1 21  1  0  0  0  0
  2 12  1  0  0  0  0
  2 22  1  0  0  0  0
  3 12  2  0  0  0  0
  4 13  1  0  0  0  0
  4 23  1  0  0  0  0
  5 13  2  0  0  0  0
  6 14  1  0  0  0  0
  6 24  1  0  0  0  0
  7 14  2  0  0  0  0
  8  9  1  0  0  0  0
  8 10  1  0  0  0  0
  8 12  1  0  0  0  0
  8 15  1  0  0  0  0
  9 11  1  0  0  0  0
  9 16  1  0  0  0  0
  9 17  1  0  0  0  0
 10 13  1  0  0  0  0
 10 18  1  0  0  0  0
 11 14  1  0  0  0  0
 11 19  1  0  0  0  0
 11 20  1  0  0  0  0
M  END
> <PUBCHEM_COMPOUND_CID>
5460287

> <PUBCHEM_CONFORMER_RMSD>
0.6

> <PUBCHEM_CONFORMER_DIVERSEORDER>
1
17
49
63
54
25
45
44
8
61
56
58
36
60
35
55
19
5
3
57
43
34
14
6
32
59
27
39
50
51
13
29
23
21
9
48
10
53
26
41
38
40
46
22
47
37
24
52
4
42
7
15
64
12
28
18
20
33
31
30
62
16
11
2

> <PUBCHEM_MMFF94_PARTIAL_CHARGES>
17
1 -0.68
10 0.34
11 0.06
12 0.66
13 0.66
14 0.66
2 -0.65
21 0.4
22 0.5
23 0.5
24 0.5
3 -0.57
4 -0.65
5 -0.57
6 -0.65
7 -0.57
8 0.06

> <PUBCHEM_EFFECTIVE_ROTOR_COUNT>
6

> <PUBCHEM_PHARMACOPHORE_FEATURES>
11
1 1 acceptor
1 1 donor
1 2 acceptor
1 3 acceptor
1 4 acceptor
1 5 acceptor
1 6 acceptor
1 7 acceptor
3 2 3 12 anion
3 4 5 13 anion
3 6 7 14 anion

> <PUBCHEM_HEAVY_ATOM_COUNT>
14

> <PUBCHEM_ATOM_DEF_STEREO_COUNT>
2

> <PUBCHEM_ATOM_UDEF_STEREO_COUNT>
0

> <PUBCHEM_BOND_DEF_STEREO_COUNT>
0

> <PUBCHEM_BOND_UDEF_STEREO_COUNT>
0

> <PUBCHEM_ISOTOPIC_ATOM_COUNT>
0

> <PUBCHEM_COMPONENT_COUNT>
1

> <PUBCHEM_CACTVS_TAUTO_COUNT>
1

> <PUBCHEM_CONFORMER_ID>
0053513F00000001

> <PUBCHEM_MMFF94_ENERGY>
15.0338

> <PUBCHEM_FEATURE_SELFOVERLAP>
56.004

> <PUBCHEM_SHAPE_FINGERPRINT>
10130415 120 18409727339781256025
11062470 55 18410291397904980430
12119455 92 9223239528872003739
12932764 1 13912609420036321028
13024252 1 12679455379034223221
14943859 89 15123514704840817935
14993402 34 17458351805719773791
15342168 16 14708077370812833802
16945 1 18338530685017930911
18175812 5 5328745188203460951
18186145 218 17275392022658967124
187816 3 18342741814557730719
200 152 18260552229702387694
20201158 50 18411136926673537814
20279233 1 15195278742834173824
20525323 117 18041271166486373880
20645477 70 18342740754133935926
20653085 51 16343980312490498205
22959321 105 17846213298556869358
23402539 116 18334020505258128639
23559900 14 18342745105114362360
3312278 4 18272928285166128666
353137 74 18201443626695676481
366044 4 12391516373290026289
81228 2 18189596401696678008

> <PUBCHEM_SHAPE_MULTIPOLES>
247.03
6.54
1.5
1.09
5.03
0.6
0.08
-1.33
-1
-0.13
0.25
-0.76
0.05
-0.14

> <PUBCHEM_SHAPE_SELFOVERLAP>
486.707

> <PUBCHEM_SHAPE_VOLUME>
145.9

> <PUBCHEM_COORDINATE_TYPE>
2
5
10

$$$$

