242326
  -OEChem-07051213073D

 88 91  0     1  0  0  0  0  0999 V2000
    0.5871   -2.2822    1.4692 O   0  0  0  0  0  0  0  0  0  0  0  0
    0.3584    3.2282   -0.8627 O   0  0  0  0  0  0  0  0  0  0  0  0
    6.5854   -0.4598   -0.7056 O   0  0  0  0  0  0  0  0  0  0  0  0
    6.6704   -2.5233   -1.7408 O   0  0  0  0  0  0  0  0  0  0  0  0
   -1.3405    1.1035    0.0912 C   0  0  2  0  0  0  0  0  0  0  0  0
   -2.0158    0.0315    1.0256 C   0  0  1  0  0  0  0  0  0  0  0  0
    0.1713    1.1883    0.4460 C   0  0  1  0  0  0  0  0  0  0  0  0
    0.8723   -0.1906    0.2063 C   0  0  1  0  0  0  0  0  0  0  0  0
    2.4231   -0.1448    0.5485 C   0  0  2  0  0  0  0  0  0  0  0  0
   -3.5131    0.2485    0.6963 C   0  0  2  0  0  0  0  0  0  0  0  0
    3.0554    0.9895   -0.3588 C   0  0  2  0  0  0  0  0  0  0  0  0
   -2.2049    2.3401    0.4097 C   0  0  0  0  0  0  0  0  0  0  0  0
   -1.4546   -1.3498    0.6927 C   0  0  0  0  0  0  0  0  0  0  0  0
   -3.6351    1.7888    0.6079 C   0  0  0  0  0  0  0  0  0  0  0  0
    4.6309    1.0349   -0.4585 C   0  0  0  0  0  0  0  0  0  0  0  0
    0.0617   -1.3419    0.8729 C   0  0  0  0  0  0  0  0  0  0  0  0
    2.4202    2.3574   -0.0670 C   0  0  0  0  0  0  0  0  0  0  0  0
    0.9231    2.3131   -0.2639 C   0  0  0  0  0  0  0  0  0  0  0  0
    3.0944   -1.4934    0.1649 C   0  0  0  0  0  0  0  0  0  0  0  0
   -1.5155    0.8133   -1.4380 C   0  0  0  0  0  0  0  0  0  0  0  0
   -1.7903    0.2667    2.5553 C   0  0  0  0  0  0  0  0  0  0  0  0
   -4.5348   -0.3647    1.6468 C   0  0  1  0  0  0  0  0  0  0  0  0
    5.1615   -0.3925   -0.7750 C   0  0  2  0  0  0  0  0  0  0  0  0
    2.6085    0.1005    2.0647 C   0  0  0  0  0  0  0  0  0  0  0  0
    4.6169   -1.4570    0.1655 C   0  0  0  0  0  0  0  0  0  0  0  0
    5.3188    1.6220    0.7920 C   0  0  0  0  0  0  0  0  0  0  0  0
    5.0441    1.9573   -1.6416 C   0  0  0  0  0  0  0  0  0  0  0  0
   -5.9896   -0.0929    1.2128 C   0  0  0  0  0  0  0  0  0  0  0  0
   -4.3108   -1.8779    1.7502 C   0  0  0  0  0  0  0  0  0  0  0  0
   -6.3739   -0.5720   -0.1934 C   0  0  0  0  0  0  0  0  0  0  0  0
   -7.8077   -0.2082   -0.5922 C   0  0  0  0  0  0  0  0  0  0  0  0
    7.1325   -1.6788   -0.9855 C   0  0  0  0  0  0  0  0  0  0  0  0
   -8.2159   -0.7515   -1.9756 C   0  0  0  0  0  0  0  0  0  0  0  0
    8.4108   -1.8458   -0.2213 C   0  0  0  0  0  0  0  0  0  0  0  0
   -8.0748   -2.2713   -2.0747 C   0  0  0  0  0  0  0  0  0  0  0  0
   -7.3695   -0.0850   -3.0635 C   0  0  0  0  0  0  0  0  0  0  0  0
    0.2584    1.4611    1.5030 H   0  0  0  0  0  0  0  0  0  0  0  0
    0.8198   -0.4186   -0.8674 H   0  0  0  0  0  0  0  0  0  0  0  0
   -3.6890   -0.1738   -0.2991 H   0  0  0  0  0  0  0  0  0  0  0  0
    2.7306    0.7328   -1.3817 H   0  0  0  0  0  0  0  0  0  0  0  0
   -1.8647    2.8383    1.3248 H   0  0  0  0  0  0  0  0  0  0  0  0
   -2.1911    3.0936   -0.3850 H   0  0  0  0  0  0  0  0  0  0  0  0
   -1.8236   -2.1284    1.3609 H   0  0  0  0  0  0  0  0  0  0  0  0
   -1.6847   -1.6749   -0.3257 H   0  0  0  0  0  0  0  0  0  0  0  0
   -4.0693    2.2268    1.5138 H   0  0  0  0  0  0  0  0  0  0  0  0
   -4.2787    2.0712   -0.2329 H   0  0  0  0  0  0  0  0  0  0  0  0
    2.8016    3.1171   -0.7556 H   0  0  0  0  0  0  0  0  0  0  0  0
    2.6209    2.7105    0.9479 H   0  0  0  0  0  0  0  0  0  0  0  0
    2.7983   -2.2907    0.8526 H   0  0  0  0  0  0  0  0  0  0  0  0
    2.7543   -1.8011   -0.8328 H   0  0  0  0  0  0  0  0  0  0  0  0
   -1.0032    1.5641   -2.0475 H   0  0  0  0  0  0  0  0  0  0  0  0
   -1.1215   -0.1587   -1.7415 H   0  0  0  0  0  0  0  0  0  0  0  0
   -2.5610    0.8444   -1.7601 H   0  0  0  0  0  0  0  0  0  0  0  0
   -2.2717   -0.5034    3.1643 H   0  0  0  0  0  0  0  0  0  0  0  0
   -2.1797    1.2314    2.8943 H   0  0  0  0  0  0  0  0  0  0  0  0
   -0.7348    0.2317    2.8397 H   0  0  0  0  0  0  0  0  0  0  0  0
   -4.4340    0.0638    2.6516 H   0  0  0  0  0  0  0  0  0  0  0  0
    4.8611   -0.6457   -1.8021 H   0  0  0  0  0  0  0  0  0  0  0  0
    2.0229   -0.6079    2.6590 H   0  0  0  0  0  0  0  0  0  0  0  0
    3.6399   -0.0322    2.3905 H   0  0  0  0  0  0  0  0  0  0  0  0
    2.2979    1.1005    2.3756 H   0  0  0  0  0  0  0  0  0  0  0  0
    4.9502   -2.4633   -0.1076 H   0  0  0  0  0  0  0  0  0  0  0  0
    5.0047   -1.3079    1.1798 H   0  0  0  0  0  0  0  0  0  0  0  0
    4.8976    2.5926    1.0710 H   0  0  0  0  0  0  0  0  0  0  0  0
    5.2582    0.9658    1.6594 H   0  0  0  0  0  0  0  0  0  0  0  0
    6.3878    1.7879    0.6098 H   0  0  0  0  0  0  0  0  0  0  0  0
    4.8305    3.0110   -1.4373 H   0  0  0  0  0  0  0  0  0  0  0  0
    6.1201    1.8882   -1.8404 H   0  0  0  0  0  0  0  0  0  0  0  0
    4.5234    1.6775   -2.5641 H   0  0  0  0  0  0  0  0  0  0  0  0
   -6.1833    0.9853    1.2770 H   0  0  0  0  0  0  0  0  0  0  0  0
   -6.6709   -0.5545    1.9399 H   0  0  0  0  0  0  0  0  0  0  0  0
   -3.5226   -2.1289    2.4616 H   0  0  0  0  0  0  0  0  0  0  0  0
   -5.2079   -2.3706    2.1451 H   0  0  0  0  0  0  0  0  0  0  0  0
   -4.0981   -2.3382    0.7801 H   0  0  0  0  0  0  0  0  0  0  0  0
   -6.2368   -1.6565   -0.2344 H   0  0  0  0  0  0  0  0  0  0  0  0
   -5.6926   -0.1285   -0.9233 H   0  0  0  0  0  0  0  0  0  0  0  0
   -8.4984   -0.6104    0.1596 H   0  0  0  0  0  0  0  0  0  0  0  0
   -7.9283    0.8821   -0.5744 H   0  0  0  0  0  0  0  0  0  0  0  0
   -9.2673   -0.4869   -2.1424 H   0  0  0  0  0  0  0  0  0  0  0  0
    8.8429   -2.8250   -0.4466 H   0  0  0  0  0  0  0  0  0  0  0  0
    9.1241   -1.0731   -0.5187 H   0  0  0  0  0  0  0  0  0  0  0  0
    8.2099   -1.7926    0.8517 H   0  0  0  0  0  0  0  0  0  0  0  0
   -8.5915   -2.7655   -1.2456 H   0  0  0  0  0  0  0  0  0  0  0  0
   -8.5239   -2.6311   -3.0072 H   0  0  0  0  0  0  0  0  0  0  0  0
   -7.0296   -2.5958   -2.0746 H   0  0  0  0  0  0  0  0  0  0  0  0
   -6.3226   -0.4027   -3.0334 H   0  0  0  0  0  0  0  0  0  0  0  0
   -7.7575   -0.3467   -4.0544 H   0  0  0  0  0  0  0  0  0  0  0  0
   -7.4023    1.0059   -2.9753 H   0  0  0  0  0  0  0  0  0  0  0  0
  1 16  2  0  0  0  0
  2 18  2  0  0  0  0
  3 23  1  0  0  0  0
  3 32  1  0  0  0  0
  4 32  2  0  0  0  0
  5  6  1  0  0  0  0
  5  7  1  0  0  0  0
  5 12  1  0  0  0  0
  5 20  1  0  0  0  0
  6 10  1  0  0  0  0
  6 13  1  0  0  0  0
  6 21  1  0  0  0  0
  7  8  1  0  0  0  0
  7 18  1  0  0  0  0
  7 37  1  0  0  0  0
  8  9  1  0  0  0  0
  8 16  1  0  0  0  0
  8 38  1  0  0  0  0
  9 11  1  0  0  0  0
  9 19  1  0  0  0  0
  9 24  1  0  0  0  0
 10 14  1  0  0  0  0
 10 22  1  0  0  0  0
 10 39  1  0  0  0  0
 11 15  1  0  0  0  0
 11 17  1  0  0  0  0
 11 40  1  0  0  0  0
 12 14  1  0  0  0  0
 12 41  1  0  0  0  0
 12 42  1  0  0  0  0
 13 16  1  0  0  0  0
 13 43  1  0  0  0  0
 13 44  1  0  0  0  0
 14 45  1  0  0  0  0
 14 46  1  0  0  0  0
 15 23  1  0  0  0  0
 15 26  1  0  0  0  0
 15 27  1  0  0  0  0
 17 18  1  0  0  0  0
 17 47  1  0  0  0  0
 17 48  1  0  0  0  0
 19 25  1  0  0  0  0
 19 49  1  0  0  0  0
 19 50  1  0  0  0  0
 20 51  1  0  0  0  0
 20 52  1  0  0  0  0
 20 53  1  0  0  0  0
 21 54  1  0  0  0  0
 21 55  1  0  0  0  0
 21 56  1  0  0  0  0
 22 28  1  0  0  0  0
 22 29  1  0  0  0  0
 22 57  1  0  0  0  0
 23 25  1  0  0  0  0
 23 58  1  0  0  0  0
 24 59  1  0  0  0  0
 24 60  1  0  0  0  0
 24 61  1  0  0  0  0
 25 62  1  0  0  0  0
 25 63  1  0  0  0  0
 26 64  1  0  0  0  0
 26 65  1  0  0  0  0
 26 66  1  0  0  0  0
 27 67  1  0  0  0  0
 27 68  1  0  0  0  0
 27 69  1  0  0  0  0
 28 30  1  0  0  0  0
 28 70  1  0  0  0  0
 28 71  1  0  0  0  0
 29 72  1  0  0  0  0
 29 73  1  0  0  0  0
 29 74  1  0  0  0  0
 30 31  1  0  0  0  0
 30 75  1  0  0  0  0
 30 76  1  0  0  0  0
 31 33  1  0  0  0  0
 31 77  1  0  0  0  0
 31 78  1  0  0  0  0
 32 34  1  0  0  0  0
 33 35  1  0  0  0  0
 33 36  1  0  0  0  0
 33 79  1  0  0  0  0
 34 80  1  0  0  0  0
 34 81  1  0  0  0  0
 34 82  1  0  0  0  0
 35 83  1  0  0  0  0
 35 84  1  0  0  0  0
 35 85  1  0  0  0  0
 36 86  1  0  0  0  0
 36 87  1  0  0  0  0
 36 88  1  0  0  0  0
M  END
> <PUBCHEM_COMPOUND_CID>
242326

> <PUBCHEM_CONFORMER_RMSD>
1

> <PUBCHEM_CONFORMER_DIVERSEORDER>
1
5
2
4
6
3

> <PUBCHEM_MMFF94_PARTIAL_CHARGES>
13
1 -0.57
13 0.06
16 0.45
17 0.06
18 0.45
2 -0.57
23 0.28
3 -0.43
32 0.66
34 0.06
4 -0.57
7 0.06
8 0.06

> <PUBCHEM_EFFECTIVE_ROTOR_COUNT>
8.8

> <PUBCHEM_PHARMACOPHORE_FEATURES>
11
1 1 acceptor
1 2 acceptor
1 29 hydrophobe
1 4 acceptor
3 15 26 27 hydrophobe
3 33 35 36 hydrophobe
5 22 28 30 31 33 hydrophobe
5 5 6 10 12 14 rings
6 5 6 7 8 13 16 rings
6 7 8 9 11 17 18 rings
6 9 11 15 19 23 25 rings

> <PUBCHEM_HEAVY_ATOM_COUNT>
36

> <PUBCHEM_ATOM_DEF_STEREO_COUNT>
9

> <PUBCHEM_ATOM_UDEF_STEREO_COUNT>
0

> <PUBCHEM_BOND_DEF_STEREO_COUNT>
0

> <PUBCHEM_BOND_UDEF_STEREO_COUNT>
0

> <PUBCHEM_ISOTOPIC_ATOM_COUNT>
0

> <PUBCHEM_COMPONENT_COUNT>
1

> <PUBCHEM_CACTVS_TAUTO_COUNT>
9

> <PUBCHEM_CONFORMER_ID>
0003B29600000001

> <PUBCHEM_MMFF94_ENERGY>
145.4413

> <PUBCHEM_FEATURE_SELFOVERLAP>
55.908

> <PUBCHEM_SHAPE_FINGERPRINT>
10 15 6627467385172619526
10190206 1 17346606326466759605
10693767 8 18408327704561321159
11135609 12 5039944165443022180
11135926 11 18272644680350129683
11181472 205 14476689662430837622
11497681 19 18040155132462743623
11578080 2 16199601319382111319
12011746 2 17989200439062847737
12120059 9 18270411494486842450
12166972 35 18186513306889613152
12236239 1 17894622656597385641
12838862 33 18200323108773863104
13782708 43 17385437726589138871
13811026 1 18342175527335820283
14040221 8 16271380715065350597
14068700 675 17967250901597134505
14931854 50 17703789236420581033
15131766 46 15839000860446737364
15183329 4 18272379655461548325
15198563 99 17988075720510012908
16728433 281 16128105571596376245
16994733 274 13614519641091951189
18603816 31 17530973479683713295
20028762 73 18186803582423234919
2026 5 18114737265264823422
21267235 1 18270947025700737984
21279426 13 18059569153323407779
21315759 40 17385436635525053331
21424621 283 14261360171982513225
21792961 116 17846780753757021226
21987483 16 16372435566855977087
221357 26 18342731936502195560
23522609 53 17751889528831599777
23559900 14 18198899228336188473
23569943 247 17970622102695045998
23576562 1 17631169681100281559
3004659 81 17846207857329255352
335352 9 18343293769157484434
3383291 50 18342168973674955298
3633792 109 18412829084307550713
4112364 45 4895256128448032586
4149490 64 15357693124643709630
4353968 344 18337955709071698148
484989 97 18059283259184416283
504579 68 17989487432925015739
6081469 158 17418092148282075974
9962374 69 18186807967985088558

> <PUBCHEM_SHAPE_MULTIPOLES>
717.39
22.24
2.66
2.1
11.44
0.52
0.42
-13.92
14.76
-2.38
0.56
3.55
-0.53
-0.46

> <PUBCHEM_SHAPE_SELFOVERLAP>
1492.8

> <PUBCHEM_SHAPE_VOLUME>
405.4

> <PUBCHEM_COORDINATE_TYPE>
2
5
10

$$$$

