47205120
  -OEChem-06241222583D

 33 33  0     0  0  0  0  0  0999 V2000
   -1.4578    2.0395   -1.8242 Cl  0  0  0  0  0  0  0  0  0  0  0  0
   -1.7685   -2.7138    0.8729 Cl  0  0  0  0  0  0  0  0  0  0  0  0
   -5.4961    1.0836    1.5850 Cl  0  0  0  0  0  0  0  0  0  0  0  0
   -0.2192   -0.8475   -1.2162 S   0  0  0  0  0  0  0  0  0  0  0  0
    4.9310    0.5761    0.6645 O   0  0  0  0  0  0  0  0  0  0  0  0
    0.1418   -2.1338   -0.6511 O   0  0  0  0  0  0  0  0  0  0  0  0
   -0.4242   -0.7106   -2.6455 O   0  0  0  0  0  0  0  0  0  0  0  0
    0.8980    0.3272   -0.7050 N   0  0  0  0  0  0  0  0  0  0  0  0
    1.1668    0.5133    0.7372 C   0  0  0  0  0  0  0  0  0  0  0  0
    2.5917    1.0047    0.9515 C   0  0  0  0  0  0  0  0  0  0  0  0
    3.6393    0.0427    0.4038 C   0  0  0  0  0  0  0  0  0  0  0  0
   -1.7045   -0.3034   -0.4272 C   0  0  0  0  0  0  0  0  0  0  0  0
   -2.2221    0.9605   -0.7108 C   0  0  0  0  0  0  0  0  0  0  0  0
   -2.3592   -1.1381    0.4783 C   0  0  0  0  0  0  0  0  0  0  0  0
    5.9562   -0.2781    0.1759 C   0  0  0  0  0  0  0  0  0  0  0  0
   -3.3945    1.3896   -0.0888 C   0  0  0  0  0  0  0  0  0  0  0  0
   -3.5316   -0.7091    1.1003 C   0  0  0  0  0  0  0  0  0  0  0  0
   -4.0493    0.5548    0.8167 C   0  0  0  0  0  0  0  0  0  0  0  0
    7.3026    0.3423    0.4826 C   0  0  0  0  0  0  0  0  0  0  0  0
    1.0191   -0.4273    1.2777 H   0  0  0  0  0  0  0  0  0  0  0  0
    0.4631    1.2521    1.1345 H   0  0  0  0  0  0  0  0  0  0  0  0
    2.7260    1.9851    0.4765 H   0  0  0  0  0  0  0  0  0  0  0  0
    2.7682    1.1657    2.0221 H   0  0  0  0  0  0  0  0  0  0  0  0
    1.0392    1.1569   -1.2947 H   0  0  0  0  0  0  0  0  0  0  0  0
    3.5405   -0.9345    0.8910 H   0  0  0  0  0  0  0  0  0  0  0  0
    3.5174   -0.0875   -0.6774 H   0  0  0  0  0  0  0  0  0  0  0  0
    5.8834   -1.2588    0.6593 H   0  0  0  0  0  0  0  0  0  0  0  0
    5.8478   -0.4063   -0.9069 H   0  0  0  0  0  0  0  0  0  0  0  0
   -3.8009    2.3748   -0.3078 H   0  0  0  0  0  0  0  0  0  0  0  0
   -4.0447   -1.3577    1.8074 H   0  0  0  0  0  0  0  0  0  0  0  0
    7.3876    1.3294    0.0163 H   0  0  0  0  0  0  0  0  0  0  0  0
    7.4231    0.4886    1.5611 H   0  0  0  0  0  0  0  0  0  0  0  0
    8.1168   -0.2909    0.1193 H   0  0  0  0  0  0  0  0  0  0  0  0
  1 13  1  0  0  0  0
  2 14  1  0  0  0  0
  3 18  1  0  0  0  0
  4  6  2  0  0  0  0
  4  7  2  0  0  0  0
  4  8  1  0  0  0  0
  4 12  1  0  0  0  0
  5 11  1  0  0  0  0
  5 15  1  0  0  0  0
  8  9  1  0  0  0  0
  8 24  1  0  0  0  0
  9 10  1  0  0  0  0
  9 20  1  0  0  0  0
  9 21  1  0  0  0  0
 10 11  1  0  0  0  0
 10 22  1  0  0  0  0
 10 23  1  0  0  0  0
 11 25  1  0  0  0  0
 11 26  1  0  0  0  0
 12 13  2  0  0  0  0
 12 14  1  0  0  0  0
 13 16  1  0  0  0  0
 14 17  2  0  0  0  0
 15 19  1  0  0  0  0
 15 27  1  0  0  0  0
 15 28  1  0  0  0  0
 16 18  2  0  0  0  0
 16 29  1  0  0  0  0
 17 18  1  0  0  0  0
 17 30  1  0  0  0  0
 19 31  1  0  0  0  0
 19 32  1  0  0  0  0
 19 33  1  0  0  0  0
M  END
> <PUBCHEM_COMPOUND_CID>
47205120

> <PUBCHEM_CONFORMER_RMSD>
0.8

> <PUBCHEM_CONFORMER_DIVERSEORDER>
1
65
37
63
39
52
40
24
46
11
36
50
25
29
45
41
55
16
64
42
21
47
62
22
33
4
14
17
7
31
57
30
34
48
51
49
44
60
28
9
27
53
23
35
32
18
5
38
58
56
8
10
59
19
12
15
13
61
43
20
54
2
6
26
3

> <PUBCHEM_MMFF94_PARTIAL_CHARGES>
20
1 -0.18
11 0.28
12 -0.01
13 0.18
14 0.18
15 0.28
16 -0.15
17 -0.15
18 0.18
2 -0.18
24 0.42
29 0.15
3 -0.18
30 0.15
4 1.45
5 -0.56
6 -0.65
7 -0.65
8 -0.91
9 0.36

> <PUBCHEM_EFFECTIVE_ROTOR_COUNT>
7

> <PUBCHEM_PHARMACOPHORE_FEATURES>
5
1 5 acceptor
1 6 acceptor
1 7 acceptor
1 8 donor
6 12 13 14 16 17 18 rings

> <PUBCHEM_HEAVY_ATOM_COUNT>
19

> <PUBCHEM_ATOM_DEF_STEREO_COUNT>
0

> <PUBCHEM_ATOM_UDEF_STEREO_COUNT>
0

> <PUBCHEM_BOND_DEF_STEREO_COUNT>
0

> <PUBCHEM_BOND_UDEF_STEREO_COUNT>
0

> <PUBCHEM_ISOTOPIC_ATOM_COUNT>
0

> <PUBCHEM_COMPONENT_COUNT>
1

> <PUBCHEM_CACTVS_TAUTO_COUNT>
1

> <PUBCHEM_CONFORMER_ID>
02D04B0000000001

> <PUBCHEM_MMFF94_ENERGY>
31.1821

> <PUBCHEM_FEATURE_SELFOVERLAP>
25.39

> <PUBCHEM_SHAPE_FINGERPRINT>
11089746 13 14706931731563164098
11578080 2 18051133889732643545
12011746 2 18272101482671077797
12633257 1 18412819166774286305
13288520 33 13758352267807164561
14178342 30 18269535223049183731
14251732 17 17894624872636635592
15295992 7 17749393607080905488
16110190 28 18342454795174360540
16945 1 17986362617638560717
17093844 174 17458634380846435090
1813 80 15697710506215029726
187816 3 6988318322690800073
19784866 240 13901895709984315513
20300324 65 7853581205254890283
20600515 1 18271225167772654213
20871999 31 8574438603879384443
21637258 2 14620507883778209601
23402539 116 18341337700087248047
23419403 2 17902785598393707311
23566358 27 17487328249533545988
23622692 88 17846495928869044701
2748010 2 17771612728067200567
2838139 119 16588306120363072889
5104073 3 18337964368416948288
5283173 99 8214153932161636394
56616090 284 7853563609396409561
7226269 152 16660644059922144552

> <PUBCHEM_SHAPE_MULTIPOLES>
377.88
12.62
1.99
1.66
25.26
0.81
0.76
-2.27
-7.44
-2.02
0.41
-1.01
-0.25
0.36

> <PUBCHEM_SHAPE_SELFOVERLAP>
724.763

> <PUBCHEM_SHAPE_VOLUME>
233

> <PUBCHEM_COORDINATE_TYPE>
2
5
10

$$$$

