11337
  -OEChem-06261205333D

 40 39  0     1  0  0  0  0  0999 V2000
    7.3803   -2.0452    0.0566 Cl  0  0  0  0  0  0  0  0  0  0  0  0
   -8.0513   -0.7118   -0.2909 Cl  0  0  0  0  0  0  0  0  0  0  0  0
    0.8464    0.3234    1.7139 O   0  0  0  0  0  0  0  0  0  0  0  0
   -0.8505    2.1784    0.3606 O   0  0  0  0  0  0  0  0  0  0  0  0
    2.0163    1.7029   -1.4958 O   0  0  0  0  0  0  0  0  0  0  0  0
   -1.3356   -1.3715   -0.3950 O   0  0  0  0  0  0  0  0  0  0  0  0
    3.8666   -0.1091   -0.2186 N   0  0  0  0  0  0  0  0  0  0  0  0
   -4.0557   -0.6565    0.1698 N   0  0  0  0  0  0  0  0  0  0  0  0
    0.8829    0.4764    0.2971 C   0  0  1  0  0  0  0  0  0  0  0  0
   -0.5282    0.8974   -0.1773 C   0  0  1  0  0  0  0  0  0  0  0  0
    1.9741    1.5037   -0.0840 C   0  0  1  0  0  0  0  0  0  0  0  0
   -1.6345   -0.1102    0.2078 C   0  0  1  0  0  0  0  0  0  0  0  0
    3.3934    1.1369    0.3772 C   0  0  0  0  0  0  0  0  0  0  0  0
   -3.0426    0.3062   -0.2400 C   0  0  0  0  0  0  0  0  0  0  0  0
    5.2332   -0.3934    0.1937 C   0  0  0  0  0  0  0  0  0  0  0  0
   -5.3841   -0.2208   -0.2394 C   0  0  0  0  0  0  0  0  0  0  0  0
    5.7161   -1.6799   -0.4579 C   0  0  0  0  0  0  0  0  0  0  0  0
   -6.4269   -1.2271    0.2221 C   0  0  0  0  0  0  0  0  0  0  0  0
    1.1164   -0.4975   -0.1489 H   0  0  0  0  0  0  0  0  0  0  0  0
   -0.5008    0.9911   -1.2705 H   0  0  0  0  0  0  0  0  0  0  0  0
    1.7263    2.4684    0.3760 H   0  0  0  0  0  0  0  0  0  0  0  0
   -1.6385   -0.2456    1.2967 H   0  0  0  0  0  0  0  0  0  0  0  0
    4.0700    1.9505    0.0848 H   0  0  0  0  0  0  0  0  0  0  0  0
    3.4186    1.0682    1.4707 H   0  0  0  0  0  0  0  0  0  0  0  0
   -3.2850    1.2881    0.1815 H   0  0  0  0  0  0  0  0  0  0  0  0
   -3.0529    0.3920   -1.3337 H   0  0  0  0  0  0  0  0  0  0  0  0
    3.8169   -0.0420   -1.2349 H   0  0  0  0  0  0  0  0  0  0  0  0
   -4.0277   -0.7749    1.1822 H   0  0  0  0  0  0  0  0  0  0  0  0
    1.6481   -0.1572    1.9799 H   0  0  0  0  0  0  0  0  0  0  0  0
   -1.5617    2.5577   -0.1825 H   0  0  0  0  0  0  0  0  0  0  0  0
    2.6645    2.4047   -1.6770 H   0  0  0  0  0  0  0  0  0  0  0  0
   -2.0323   -1.9947   -0.1267 H   0  0  0  0  0  0  0  0  0  0  0  0
    5.2783   -0.4979    1.2848 H   0  0  0  0  0  0  0  0  0  0  0  0
    5.8965    0.4323   -0.0929 H   0  0  0  0  0  0  0  0  0  0  0  0
   -5.4250   -0.1279   -1.3316 H   0  0  0  0  0  0  0  0  0  0  0  0
   -5.6104    0.7629    0.1908 H   0  0  0  0  0  0  0  0  0  0  0  0
    5.7190   -1.5992   -1.5497 H   0  0  0  0  0  0  0  0  0  0  0  0
    5.0891   -2.5310   -0.1737 H   0  0  0  0  0  0  0  0  0  0  0  0
   -6.4396   -1.3189    1.3128 H   0  0  0  0  0  0  0  0  0  0  0  0
   -6.2441   -2.2169   -0.2081 H   0  0  0  0  0  0  0  0  0  0  0  0
  1 17  1  0  0  0  0
  2 18  1  0  0  0  0
  3  9  1  0  0  0  0
  3 29  1  0  0  0  0
  4 10  1  0  0  0  0
  4 30  1  0  0  0  0
  5 11  1  0  0  0  0
  5 31  1  0  0  0  0
  6 12  1  0  0  0  0
  6 32  1  0  0  0  0
  7 13  1  0  0  0  0
  7 15  1  0  0  0  0
  7 27  1  0  0  0  0
  8 14  1  0  0  0  0
  8 16  1  0  0  0  0
  8 28  1  0  0  0  0
  9 10  1  0  0  0  0
  9 11  1  0  0  0  0
  9 19  1  0  0  0  0
 10 12  1  0  0  0  0
 10 20  1  0  0  0  0
 11 13  1  0  0  0  0
 11 21  1  0  0  0  0
 12 14  1  0  0  0  0
 12 22  1  0  0  0  0
 13 23  1  0  0  0  0
 13 24  1  0  0  0  0
 14 25  1  0  0  0  0
 14 26  1  0  0  0  0
 15 17  1  0  0  0  0
 15 33  1  0  0  0  0
 15 34  1  0  0  0  0
 16 18  1  0  0  0  0
 16 35  1  0  0  0  0
 16 36  1  0  0  0  0
 17 37  1  0  0  0  0
 17 38  1  0  0  0  0
 18 39  1  0  0  0  0
 18 40  1  0  0  0  0
M  END
> <PUBCHEM_COMPOUND_CID>
11337

> <PUBCHEM_CONFORMER_RMSD>
1.2

> <PUBCHEM_CONFORMER_DIVERSEORDER>
2
23
24
27
20
67
43
83
88
60
63
26
1
75
95
103
3
57
105
98
72
5
111
101
52
102
69
10
62
30
113
33
74
108
13
73
29
90
117
18
94
110
96
38
56
97
85
107
77
114
87
41
58
17
49
61
109
21
51
71
44
19
50
112
25
116
78
93
37
82
55
115
104
64
91
106
68
22
9
6
47
42
92
70
100
39
81
11
15
65
86
66
59
84
12
80
99
14
46
4
45
16
79
89
8
40
54
34
32
35
53
36
7
76
48
28
31

> <PUBCHEM_MMFF94_PARTIAL_CHARGES>
24
1 -0.29
10 0.28
11 0.28
12 0.28
13 0.27
14 0.27
15 0.27
16 0.27
17 0.29
18 0.29
2 -0.29
27 0.36
28 0.36
29 0.4
3 -0.68
30 0.4
31 0.4
32 0.4
4 -0.68
5 -0.68
6 -0.68
7 -0.9
8 -0.9
9 0.28

> <PUBCHEM_EFFECTIVE_ROTOR_COUNT>
11

> <PUBCHEM_PHARMACOPHORE_FEATURES>
12
1 3 acceptor
1 3 donor
1 4 acceptor
1 4 donor
1 5 acceptor
1 5 donor
1 6 acceptor
1 6 donor
1 7 cation
1 7 donor
1 8 cation
1 8 donor

> <PUBCHEM_HEAVY_ATOM_COUNT>
18

> <PUBCHEM_ATOM_DEF_STEREO_COUNT>
0

> <PUBCHEM_ATOM_UDEF_STEREO_COUNT>
4

> <PUBCHEM_BOND_DEF_STEREO_COUNT>
0

> <PUBCHEM_BOND_UDEF_STEREO_COUNT>
0

> <PUBCHEM_ISOTOPIC_ATOM_COUNT>
0

> <PUBCHEM_COMPONENT_COUNT>
1

> <PUBCHEM_CACTVS_TAUTO_COUNT>
1

> <PUBCHEM_CONFORMER_ID>
00002C4900000002

> <PUBCHEM_MMFF94_ENERGY>
20.6303

> <PUBCHEM_FEATURE_SELFOVERLAP>
60.903

> <PUBCHEM_SHAPE_FINGERPRINT>
10 15 6266896866079945878
106641 1 14562539465977086854
10753850 27 18343025527835011890
11638347 137 14201391703495849470
13533116 47 18260268521342741720
13668630 136 18273215279439578267
13685833 64 18409167723234328170
13862211 1 18261110751686951647
14123256 10 12679464183606735191
14216079 64 18408886269463825006
14251764 18 17821726122086005393
15690457 1 18113341911614520303
1768 124 17676488371662915206
17834072 8 17918274238036665195
19784866 240 18411130351299893784
20397935 70 16950274135766657014
20621476 38 18410855435012966527
20621476 8 18343866637319208677
20645477 70 18341895182489012796
20735858 18 16225766324114787191
21130983 4 10375872983055032935
21150785 3 16559029385241731342
21267235 1 18411979173896741763
21637258 2 18334303093243200830
22224240 67 5400795059995679580
23402539 116 18114185263055996613
23559900 14 18270401581543878840
246663 6 18201997729586466211
28498 318 18411421722245258023
29717793 49 18272651221252557029
3004659 81 18202567267333624968
328311 84 18201716237577547011
33532 11 18408887322010445727
4072396 5 15936406732494434948
4325135 7 18412541012867234860
4340502 62 14562526271679220733
445580 37 15626235645456504479
465052 167 18333727996768968782
5104073 3 15864922998006941019
559249 180 18337391650911193001
6138700 20 18411981386047998995
6438161 24 18131358527054978066

> <PUBCHEM_SHAPE_MULTIPOLES>
340.73
19.79
1.89
0.88
11.6
0.09
-0.06
-15.92
1.26
-2.32
0.17
-0.32
0.2
0.04

> <PUBCHEM_SHAPE_SELFOVERLAP>
617.612

> <PUBCHEM_SHAPE_VOLUME>
218.7

> <PUBCHEM_COORDINATE_TYPE>
2
5
10

$$$$

