47205490
  -OEChem-06241222593D

 34 34  0     0  0  0  0  0  0999 V2000
    1.4808   -2.7924    0.9422 O   0  0  0  0  0  0  0  0  0  0  0  0
   -4.0141   -0.0085   -0.9715 O   0  0  0  0  0  0  0  0  0  0  0  0
    0.2753   -0.1290    1.6508 O   0  0  0  0  0  0  0  0  0  0  0  0
    2.4634   -1.1100   -0.3724 N   0  0  0  0  0  0  0  0  0  0  0  0
   -0.7249   -1.0883   -0.2718 N   0  0  0  0  0  0  0  0  0  0  0  0
   -2.9023   -0.7832   -1.2790 N   0  0  0  0  0  0  0  0  0  0  0  0
    2.8706    1.3064   -0.0095 C   0  0  0  0  0  0  0  0  0  0  0  0
    2.3244    0.2247   -0.9355 C   0  0  0  0  0  0  0  0  0  0  0  0
    2.7015    2.7141   -0.5858 C   0  0  0  0  0  0  0  0  0  0  0  0
    3.1995    3.7745    0.3838 C   0  0  0  0  0  0  0  0  0  0  0  0
    3.7054   -1.8088   -0.6890 C   0  0  0  0  0  0  0  0  0  0  0  0
    1.4736   -1.6846    0.4186 C   0  0  0  0  0  0  0  0  0  0  0  0
    0.2534   -0.8557    0.6716 C   0  0  0  0  0  0  0  0  0  0  0  0
   -2.0099   -0.5011   -0.3256 C   0  0  0  0  0  0  0  0  0  0  0  0
   -2.4979    0.4357    0.6018 C   0  0  0  0  0  0  0  0  0  0  0  0
   -3.7612    0.7129    0.1504 C   0  0  0  0  0  0  0  0  0  0  0  0
   -4.8378    1.5933    0.6210 C   0  0  0  0  0  0  0  0  0  0  0  0
    2.3731    1.2525    0.9653 H   0  0  0  0  0  0  0  0  0  0  0  0
    3.9349    1.1213    0.1825 H   0  0  0  0  0  0  0  0  0  0  0  0
    1.2757    0.4341   -1.1647 H   0  0  0  0  0  0  0  0  0  0  0  0
    2.8526    0.2505   -1.8966 H   0  0  0  0  0  0  0  0  0  0  0  0
    1.6441    2.8997   -0.8073 H   0  0  0  0  0  0  0  0  0  0  0  0
    3.2517    2.7970   -1.5301 H   0  0  0  0  0  0  0  0  0  0  0  0
    4.2620    3.6339    0.6068 H   0  0  0  0  0  0  0  0  0  0  0  0
    3.0719    4.7722   -0.0477 H   0  0  0  0  0  0  0  0  0  0  0  0
    2.6425    3.7380    1.3255 H   0  0  0  0  0  0  0  0  0  0  0  0
    3.7692   -1.9456   -1.7723 H   0  0  0  0  0  0  0  0  0  0  0  0
    3.7313   -2.7883   -0.2041 H   0  0  0  0  0  0  0  0  0  0  0  0
    4.5526   -1.2133   -0.3385 H   0  0  0  0  0  0  0  0  0  0  0  0
   -0.5390   -1.7491   -1.0222 H   0  0  0  0  0  0  0  0  0  0  0  0
   -2.0261    0.8624    1.4739 H   0  0  0  0  0  0  0  0  0  0  0  0
   -5.0912    2.3338   -0.1438 H   0  0  0  0  0  0  0  0  0  0  0  0
   -5.7371    1.0131    0.8497 H   0  0  0  0  0  0  0  0  0  0  0  0
   -4.5414    2.1302    1.5274 H   0  0  0  0  0  0  0  0  0  0  0  0
  1 12  2  0  0  0  0
  2  6  1  0  0  0  0
  2 16  1  0  0  0  0
  3 13  2  0  0  0  0
  4  8  1  0  0  0  0
  4 11  1  0  0  0  0
  4 12  1  0  0  0  0
  5 13  1  0  0  0  0
  5 14  1  0  0  0  0
  5 30  1  0  0  0  0
  6 14  2  0  0  0  0
  7  8  1  0  0  0  0
  7  9  1  0  0  0  0
  7 18  1  0  0  0  0
  7 19  1  0  0  0  0
  8 20  1  0  0  0  0
  8 21  1  0  0  0  0
  9 10  1  0  0  0  0
  9 22  1  0  0  0  0
  9 23  1  0  0  0  0
 10 24  1  0  0  0  0
 10 25  1  0  0  0  0
 10 26  1  0  0  0  0
 11 27  1  0  0  0  0
 11 28  1  0  0  0  0
 11 29  1  0  0  0  0
 12 13  1  0  0  0  0
 14 15  1  0  0  0  0
 15 16  2  0  0  0  0
 15 31  1  0  0  0  0
 16 17  1  0  0  0  0
 17 32  1  0  0  0  0
 17 33  1  0  0  0  0
 17 34  1  0  0  0  0
M  END
> <PUBCHEM_COMPOUND_CID>
47205490

> <PUBCHEM_CONFORMER_RMSD>
0.8

> <PUBCHEM_CONFORMER_DIVERSEORDER>
4
46
29
23
35
47
49
7
40
44
36
48
25
37
33
45
42
28
11
17
27
15
19
39
41
26
2
38
6
34
22
14
20
31
21
13
9
24
5
30
32
16
1
3
12
43
8
18
10

> <PUBCHEM_MMFF94_PARTIAL_CHARGES>
16
1 -0.57
11 0.3
12 0.63
13 0.63
14 0.35
15 -0.15
16 -0.04
17 0.18
2 -0.02
3 -0.57
30 0.37
31 0.15
4 -0.66
5 -0.49
6 -0.41
8 0.3

> <PUBCHEM_EFFECTIVE_ROTOR_COUNT>
7

> <PUBCHEM_PHARMACOPHORE_FEATURES>
5
1 1 acceptor
1 10 hydrophobe
1 3 acceptor
1 5 donor
5 2 6 14 15 16 rings

> <PUBCHEM_HEAVY_ATOM_COUNT>
17

> <PUBCHEM_ATOM_DEF_STEREO_COUNT>
0

> <PUBCHEM_ATOM_UDEF_STEREO_COUNT>
0

> <PUBCHEM_BOND_DEF_STEREO_COUNT>
0

> <PUBCHEM_BOND_UDEF_STEREO_COUNT>
0

> <PUBCHEM_ISOTOPIC_ATOM_COUNT>
0

> <PUBCHEM_COMPONENT_COUNT>
1

> <PUBCHEM_CACTVS_TAUTO_COUNT>
8

> <PUBCHEM_CONFORMER_ID>
02D04C7200000004

> <PUBCHEM_MMFF94_ENERGY>
16.1694

> <PUBCHEM_FEATURE_SELFOVERLAP>
25.372

> <PUBCHEM_SHAPE_MULTIPOLES>
317.3
8.33
3.27
1.1
7.51
2.43
-0.06
4.33
1.14
-4.96
-0.48
0.18
-0.19
-0.42

> <PUBCHEM_SHAPE_SELFOVERLAP>
633.555

> <PUBCHEM_SHAPE_VOLUME>
187.3

> <PUBCHEM_COORDINATE_TYPE>
2
5
10

$$$$

