73067
  -OEChem-07051212463D

 34 37  0     1  0  0  0  0  0999 V2000
   -0.5100    0.3799    1.7272 O   0  0  0  0  0  0  0  0  0  0  0  0
    1.4237   -1.6703   -1.0423 O   0  0  0  0  0  0  0  0  0  0  0  0
   -4.4682    1.2754   -0.8672 O   0  0  0  0  0  0  0  0  0  0  0  0
    4.8051    1.6316   -1.3707 O   0  0  0  0  0  0  0  0  0  0  0  0
   -0.1518   -1.8511    0.8423 C   0  0  1  0  0  0  0  0  0  0  0  0
    0.5018   -0.6473    1.5448 C   0  0  1  0  0  0  0  0  0  0  0  0
   -1.3204   -1.1703    0.2210 C   0  0  0  0  0  0  0  0  0  0  0  0
    0.8044   -2.5567   -0.1057 C   0  0  0  0  0  0  0  0  0  0  0  0
    1.6692   -0.0724    0.7783 C   0  0  0  0  0  0  0  0  0  0  0  0
   -1.4778    0.0797    0.8019 C   0  0  0  0  0  0  0  0  0  0  0  0
    2.0540   -0.6033   -0.4585 C   0  0  0  0  0  0  0  0  0  0  0  0
   -2.2179   -1.6230   -0.7300 C   0  0  0  0  0  0  0  0  0  0  0  0
    2.3740    1.0251    1.2938 C   0  0  0  0  0  0  0  0  0  0  0  0
   -2.5213    0.9202    0.4655 C   0  0  0  0  0  0  0  0  0  0  0  0
    3.0947   -0.0217   -1.1868 C   0  0  0  0  0  0  0  0  0  0  0  0
   -3.2752   -0.7851   -1.0952 C   0  0  0  0  0  0  0  0  0  0  0  0
   -3.4265    0.4780   -0.4999 C   0  0  0  0  0  0  0  0  0  0  0  0
    3.4271    1.5926    0.5755 C   0  0  0  0  0  0  0  0  0  0  0  0
    3.7835    1.0725   -0.6666 C   0  0  0  0  0  0  0  0  0  0  0  0
   -4.5684    2.5462   -0.2274 C   0  0  0  0  0  0  0  0  0  0  0  0
   -0.5381   -2.5574    1.5883 H   0  0  0  0  0  0  0  0  0  0  0  0
    0.8608   -0.9542    2.5357 H   0  0  0  0  0  0  0  0  0  0  0  0
    1.5917   -3.0757    0.4566 H   0  0  0  0  0  0  0  0  0  0  0  0
    0.2761   -3.3205   -0.6870 H   0  0  0  0  0  0  0  0  0  0  0  0
   -2.1166   -2.6048   -1.1793 H   0  0  0  0  0  0  0  0  0  0  0  0
    2.0992    1.4500    2.2561 H   0  0  0  0  0  0  0  0  0  0  0  0
   -2.5764    1.8788    0.9662 H   0  0  0  0  0  0  0  0  0  0  0  0
    3.3700   -0.4324   -2.1553 H   0  0  0  0  0  0  0  0  0  0  0  0
   -3.9897   -1.1219   -1.8422 H   0  0  0  0  0  0  0  0  0  0  0  0
    3.9605    2.4448    0.9876 H   0  0  0  0  0  0  0  0  0  0  0  0
    4.9153    1.1460   -2.2062 H   0  0  0  0  0  0  0  0  0  0  0  0
   -5.4507    3.0470   -0.6394 H   0  0  0  0  0  0  0  0  0  0  0  0
   -3.7052    3.1808   -0.4551 H   0  0  0  0  0  0  0  0  0  0  0  0
   -4.7340    2.4424    0.8503 H   0  0  0  0  0  0  0  0  0  0  0  0
  1  6  1  0  0  0  0
  1 10  1  0  0  0  0
  2  8  1  0  0  0  0
  2 11  1  0  0  0  0
  3 17  1  0  0  0  0
  3 20  1  0  0  0  0
  4 19  1  0  0  0  0
  4 31  1  0  0  0  0
  5  6  1  0  0  0  0
  5  7  1  0  0  0  0
  5  8  1  0  0  0  0
  5 21  1  0  0  0  0
  6  9  1  0  0  0  0
  6 22  1  0  0  0  0
  7 10  2  0  0  0  0
  7 12  1  0  0  0  0
  8 23  1  0  0  0  0
  8 24  1  0  0  0  0
  9 11  2  0  0  0  0
  9 13  1  0  0  0  0
 10 14  1  0  0  0  0
 11 15  1  0  0  0  0
 12 16  2  0  0  0  0
 12 25  1  0  0  0  0
 13 18  2  0  0  0  0
 13 26  1  0  0  0  0
 14 17  2  0  0  0  0
 14 27  1  0  0  0  0
 15 19  2  0  0  0  0
 15 28  1  0  0  0  0
 16 17  1  0  0  0  0
 16 29  1  0  0  0  0
 18 19  1  0  0  0  0
 18 30  1  0  0  0  0
 20 32  1  0  0  0  0
 20 33  1  0  0  0  0
 20 34  1  0  0  0  0
M  END
> <PUBCHEM_COMPOUND_CID>
73067

> <PUBCHEM_CONFORMER_RMSD>
0.6

> <PUBCHEM_CONFORMER_DIVERSEORDER>
1
2

> <PUBCHEM_MMFF94_PARTIAL_CHARGES>
27
1 -0.36
10 0.08
11 0.08
12 -0.15
13 -0.15
14 -0.15
15 -0.15
16 -0.15
17 0.08
18 -0.15
19 0.08
2 -0.36
20 0.28
25 0.15
26 0.15
27 0.15
28 0.15
29 0.15
3 -0.36
30 0.15
31 0.45
4 -0.53
5 0.14
6 0.42
7 -0.14
8 0.28
9 -0.14

> <PUBCHEM_EFFECTIVE_ROTOR_COUNT>
1.6

> <PUBCHEM_PHARMACOPHORE_FEATURES>
8
1 1 acceptor
1 2 acceptor
1 3 acceptor
1 4 donor
5 1 5 6 7 10 rings
6 2 5 6 8 9 11 rings
6 7 10 12 14 16 17 rings
6 9 11 13 15 18 19 rings

> <PUBCHEM_HEAVY_ATOM_COUNT>
20

> <PUBCHEM_ATOM_DEF_STEREO_COUNT>
2

> <PUBCHEM_ATOM_UDEF_STEREO_COUNT>
0

> <PUBCHEM_BOND_DEF_STEREO_COUNT>
0

> <PUBCHEM_BOND_UDEF_STEREO_COUNT>
0

> <PUBCHEM_ISOTOPIC_ATOM_COUNT>
0

> <PUBCHEM_COMPONENT_COUNT>
1

> <PUBCHEM_CACTVS_TAUTO_COUNT>
3

> <PUBCHEM_CONFORMER_ID>
00011D6B00000001

> <PUBCHEM_MMFF94_ENERGY>
73.3307

> <PUBCHEM_FEATURE_SELFOVERLAP>
40.991

> <PUBCHEM_SHAPE_FINGERPRINT>
10498660 4 18409455790843686261
10610426 29 6050449210259175162
10863032 1 18335423456351902974
10871710 139 14946223570126654480
10948715 1 18343864411460694798
11046707 91 7132445613530821764
11640471 11 17702960140318561490
11796584 16 6193684751307071693
12173636 292 18337403707533259319
12251169 10 12391511975085129771
12363563 72 7565343141180160445
12633257 1 13470396764877312325
12730499 353 18410283749069418811
12788726 201 17413311269587263162
12824470 246 6122516665737160900
12892183 10 13326865434634419684
13103583 49 10231769910612505733
13464514 151 18409729599013311434
14178342 30 10879444966464523613
14251764 38 17981609260736120740
15163728 17 18201423775546725972
15210252 30 18341047501426207152
15342168 16 17917712431035239773
16945 1 17749382702201262066
17357779 13 17175476970271723863
17804303 29 11023836127294816459
17980427 23 17830214442126332082
1813 80 6915988100997503234
18186145 218 17895472531661356274
192875 21 18040714818435847874
19765921 60 18341900696821164299
19862831 5 17530963579155711128
200 152 15502641677586358082
20361792 2 5184348525077152227
20645477 70 15285656360490232689
20775530 9 5255310924014405076
20871999 31 18114467769214780975
21713013 43 17023470720518343135
21731228 192 15195566775508722640
21731516 1 6194846981408100402
22182313 1 17605565340100498722
22393880 68 18040436568699884948
22907989 373 17904745696892457076
23114952 82 18189615119211445007
23402539 116 18336274466015486816
23419403 2 4960932135265249699
23493267 7 18201155438928020090
23557571 272 18199178495493811323
23559900 14 17968946417278484614
238 59 17675923175319479052
25 1 18261381261227124818
2748010 2 16888090976057772762
2838139 119 18271523075352703596
3009799 131 18114740547178304822
3323516 105 17458911414067397067
3472631 163 18130791148668443437
4028521 119 18334574620474455709
474 4 17988924483198311525
5262128 65 16805587145556516096
633830 44 17917434249860608026
7097593 13 11311762969391125975
76465 3 7925623402278206013
7808743 9 18273213071314860733
9981440 41 18340213977338681874

> <PUBCHEM_SHAPE_MULTIPOLES>
388.11
8.03
2.34
1.42
1.52
0.16
0.18
-6.7
-3.6
0.75
-0.25
-0.62
-0.06
-0.12

> <PUBCHEM_SHAPE_SELFOVERLAP>
875.009

> <PUBCHEM_SHAPE_VOLUME>
203.4

> <PUBCHEM_COORDINATE_TYPE>
2
5
10

$$$$

