586307
  -OEChem-06241222463D

 35 37  0     0  0  0  0  0  0999 V2000
    1.0380   -0.4017   -1.1765 S   0  0  0  0  0  0  0  0  0  0  0  0
   -3.7177   -3.3232    0.0725 F   0  0  0  0  0  0  0  0  0  0  0  0
   -1.5701    1.7362    0.1566 O   0  0  0  0  0  0  0  0  0  0  0  0
   -3.7716    2.6727    0.3583 O   0  0  0  0  0  0  0  0  0  0  0  0
   -2.1532    0.4950    0.1305 C   0  0  0  0  0  0  0  0  0  0  0  0
   -3.5357    0.3152    0.0013 C   0  0  0  0  0  0  0  0  0  0  0  0
   -1.3063   -0.6061    0.2635 C   0  0  0  0  0  0  0  0  0  0  0  0
   -4.4307    1.5088   -0.1376 C   0  0  0  0  0  0  0  0  0  0  0  0
    0.1686   -0.4320    0.4199 C   0  0  0  0  0  0  0  0  0  0  0  0
   -4.0588   -0.9818   -0.0293 C   0  0  0  0  0  0  0  0  0  0  0  0
   -1.8372   -1.8953    0.2444 C   0  0  0  0  0  0  0  0  0  0  0  0
   -3.2109   -2.0833    0.0947 C   0  0  0  0  0  0  0  0  0  0  0  0
   -2.4707    2.7862   -0.2141 C   0  0  0  0  0  0  0  0  0  0  0  0
    2.6971   -0.1891   -0.6101 C   0  0  0  0  0  0  0  0  0  0  0  0
    3.5035   -1.3025   -0.3301 C   0  0  0  0  0  0  0  0  0  0  0  0
    3.2315    1.0959   -0.4327 C   0  0  0  0  0  0  0  0  0  0  0  0
    5.3334    0.1483    0.2895 C   0  0  0  0  0  0  0  0  0  0  0  0
    4.8142   -1.1347    0.1173 C   0  0  0  0  0  0  0  0  0  0  0  0
    4.5420    1.2637    0.0145 C   0  0  0  0  0  0  0  0  0  0  0  0
    6.7346    0.3277    0.7674 C   0  0  0  0  0  0  0  0  0  0  0  0
   -4.7038    1.6641   -1.1875 H   0  0  0  0  0  0  0  0  0  0  0  0
   -5.3461    1.3767    0.4479 H   0  0  0  0  0  0  0  0  0  0  0  0
    0.3958    0.4829    0.9792 H   0  0  0  0  0  0  0  0  0  0  0  0
    0.5736   -1.2535    1.0238 H   0  0  0  0  0  0  0  0  0  0  0  0
   -5.1276   -1.1413   -0.1447 H   0  0  0  0  0  0  0  0  0  0  0  0
   -1.1923   -2.7648    0.3415 H   0  0  0  0  0  0  0  0  0  0  0  0
   -2.0366    3.7245    0.1445 H   0  0  0  0  0  0  0  0  0  0  0  0
   -2.5339    2.8525   -1.3082 H   0  0  0  0  0  0  0  0  0  0  0  0
    3.1185   -2.3119   -0.4575 H   0  0  0  0  0  0  0  0  0  0  0  0
    2.6317    1.9791   -0.6411 H   0  0  0  0  0  0  0  0  0  0  0  0
    5.4213   -2.0114    0.3266 H   0  0  0  0  0  0  0  0  0  0  0  0
    4.9359    2.2683    0.1433 H   0  0  0  0  0  0  0  0  0  0  0  0
    7.0376   -0.4968    1.4217 H   0  0  0  0  0  0  0  0  0  0  0  0
    7.4198    0.3692   -0.0850 H   0  0  0  0  0  0  0  0  0  0  0  0
    6.8392    1.2511    1.3471 H   0  0  0  0  0  0  0  0  0  0  0  0
  1  9  1  0  0  0  0
  1 14  1  0  0  0  0
  2 12  1  0  0  0  0
  3  5  1  0  0  0  0
  3 13  1  0  0  0  0
  4  8  1  0  0  0  0
  4 13  1  0  0  0  0
  5  6  2  0  0  0  0
  5  7  1  0  0  0  0
  6  8  1  0  0  0  0
  6 10  1  0  0  0  0
  7  9  1  0  0  0  0
  7 11  2  0  0  0  0
  8 21  1  0  0  0  0
  8 22  1  0  0  0  0
  9 23  1  0  0  0  0
  9 24  1  0  0  0  0
 10 12  2  0  0  0  0
 10 25  1  0  0  0  0
 11 12  1  0  0  0  0
 11 26  1  0  0  0  0
 13 27  1  0  0  0  0
 13 28  1  0  0  0  0
 14 15  2  0  0  0  0
 14 16  1  0  0  0  0
 15 18  1  0  0  0  0
 15 29  1  0  0  0  0
 16 19  2  0  0  0  0
 16 30  1  0  0  0  0
 17 18  2  0  0  0  0
 17 19  1  0  0  0  0
 17 20  1  0  0  0  0
 18 31  1  0  0  0  0
 19 32  1  0  0  0  0
 20 33  1  0  0  0  0
 20 34  1  0  0  0  0
 20 35  1  0  0  0  0
M  END
> <PUBCHEM_COMPOUND_CID>
586307

> <PUBCHEM_CONFORMER_RMSD>
0.6

> <PUBCHEM_CONFORMER_DIVERSEORDER>
1
8
3
11
7
10
4
12
13
6
5
2
9

> <PUBCHEM_MMFF94_PARTIAL_CHARGES>
26
1 -0.33
10 -0.15
11 -0.15
12 0.19
13 0.56
14 0.1
15 -0.15
16 -0.15
17 -0.14
18 -0.15
19 -0.15
2 -0.19
20 0.14
25 0.15
26 0.15
29 0.15
3 -0.36
30 0.15
31 0.15
32 0.15
4 -0.56
5 0.08
6 -0.14
7 -0.14
8 0.42
9 0.37

> <PUBCHEM_EFFECTIVE_ROTOR_COUNT>
3.8

> <PUBCHEM_PHARMACOPHORE_FEATURES>
5
1 3 acceptor
1 4 acceptor
6 14 15 16 17 18 19 rings
6 3 4 5 6 8 13 rings
6 5 6 7 10 11 12 rings

> <PUBCHEM_HEAVY_ATOM_COUNT>
20

> <PUBCHEM_ATOM_DEF_STEREO_COUNT>
0

> <PUBCHEM_ATOM_UDEF_STEREO_COUNT>
0

> <PUBCHEM_BOND_DEF_STEREO_COUNT>
0

> <PUBCHEM_BOND_UDEF_STEREO_COUNT>
0

> <PUBCHEM_ISOTOPIC_ATOM_COUNT>
0

> <PUBCHEM_COMPONENT_COUNT>
1

> <PUBCHEM_CACTVS_TAUTO_COUNT>
1

> <PUBCHEM_CONFORMER_ID>
0008F24300000001

> <PUBCHEM_MMFF94_ENERGY>
54.715

> <PUBCHEM_FEATURE_SELFOVERLAP>
25.435

> <PUBCHEM_SHAPE_FINGERPRINT>
10319926 262 18336559287098847202
10411042 1 18050567349123317715
10595046 47 18342175514978094426
11315181 36 18131352973498246390
11370993 70 18408885178478756918
11405975 8 18412261774629748242
12107183 9 17909837870575399162
12236239 1 17704072888835012098
12403259 118 18336553733584690092
12403260 363 18270963432307048916
12507557 5 18114181917466117560
12507560 40 18260828220269709598
12596602 18 17060051511076979600
12616971 3 17060333024787095020
12633257 1 18130787876098594324
12670546 56 18342744035103256458
13167823 11 18341614802492047026
13403585 85 18408609136893800752
13583140 156 17894920611521742742
13911987 19 16588027896560209016
14251764 38 18411696569808336636
14341114 176 18410006672138991588
14508225 48 18265347110154448063
14790565 3 18047744082309618921
14844126 61 18341329981794140875
15042514 8 18341321216097783035
15196674 1 18410854356770226020
17349148 13 17561079164234002226
17492 89 18411413999536169062
17844677 252 18411130304224084548
18927931 339 18411129204333012735
19489759 90 18411421700316747266
20645477 56 18339353184235040341
20645477 70 16733821029764262758
21033648 29 17676785218585215840
21065198 48 18343586235725645274
21065198 57 18410008866746103590
21065199 12 18408322185960492030
21315763 129 18410295770814651512
21859007 373 17414444101439095509
23227448 37 18410011056905228581
23402539 116 18412549786129945623
23557571 272 18260822700498119268
23559900 14 18189051074574528678
245318 6 16768714851727338172
351380 180 18409731772572809196
3545911 37 18408601491867772996
4073 2 18273490161989831410
4214541 1 18411418427588610364
441001 317 18408606976192908936
5104073 3 18410571825184108010
573450 72 18343871017378859138
5924683 9 18410576154284353375
5969126 39 18188219685012454823
77779 3 18410854356828137838
9709674 26 18262510498144578822
9981440 41 18341328972265699883

> <PUBCHEM_SHAPE_MULTIPOLES>
396.43
13.28
2.7
0.79
16.02
0.06
-0.1
1.27
2.02
-4.42
0.1
0.4
-0.02
0.18

> <PUBCHEM_SHAPE_SELFOVERLAP>
842.896

> <PUBCHEM_SHAPE_VOLUME>
225.1

> <PUBCHEM_COORDINATE_TYPE>
2
5
10

$$$$

