247297
  -OEChem-07051213072D

 74 77  0     1  0  0  0  0  0999 V2000
    2.4233   -4.0116    0.0000 O   0  0  0  0  0  0  0  0  0  0  0  0
    2.6200   -2.3118    0.0000 N   0  0  0  0  0  0  0  0  0  0  0  0
    7.5061   -0.3015    0.0000 C   0  0  1  0  0  0  0  0  0  0  0  0
    7.5061   -1.3015    0.0000 C   0  0  2  0  0  0  0  0  0  0  0  0
    6.6401   -1.8015    0.0000 C   0  0  1  0  0  0  0  0  0  0  0  0
    5.7740   -1.3015    0.0000 C   0  0  2  0  0  0  0  0  0  0  0  0
    8.4523    0.0033    0.0000 C   0  0  2  0  0  0  0  0  0  0  0  0
    6.6401    0.1985    0.0000 C   0  0  0  0  0  0  0  0  0  0  0  0
    8.4523   -1.6062    0.0000 C   0  0  0  0  0  0  0  0  0  0  0  0
    5.7740   -0.3015    0.0000 C   0  0  0  0  0  0  0  0  0  0  0  0
    4.8640   -1.8083    0.0000 C   0  0  2  0  0  0  0  0  0  0  0  0
    9.0359   -0.8015    0.0000 C   0  0  0  0  0  0  0  0  0  0  0  0
    6.6561   -2.8430    0.0000 C   0  0  0  0  0  0  0  0  0  0  0  0
    8.7630    0.9538    0.0000 C   0  0  1  0  0  0  0  0  0  0  0  0
    7.5061    0.6985    0.0000 C   0  0  0  0  0  0  0  0  0  0  0  0
    4.8560   -2.8499    0.0000 C   0  0  0  0  0  0  0  0  0  0  0  0
    5.7581   -3.3707    0.0000 C   0  0  0  0  0  0  0  0  0  0  0  0
    4.0659   -1.1706    0.0000 C   0  0  0  0  0  0  0  0  0  0  0  0
    4.8718   -0.8083    0.0000 C   0  0  0  0  0  0  0  0  0  0  0  0
    9.7415    1.1600    0.0000 C   0  0  0  0  0  0  0  0  0  0  0  0
    8.0951    1.6981    0.0000 C   0  0  0  0  0  0  0  0  0  0  0  0
    3.0691   -1.3942    0.0000 C   0  0  0  0  0  0  0  0  0  0  0  0
    4.0482   -3.4753    0.0000 C   0  0  0  0  0  0  0  0  0  0  0  0
   10.0521    2.1105    0.0000 C   0  0  0  0  0  0  0  0  0  0  0  0
    3.0549   -3.2363    0.0000 C   0  0  0  0  0  0  0  0  0  0  0  0
   11.0307    2.3168    0.0000 C   0  0  0  0  0  0  0  0  0  0  0  0
   11.3413    3.2673    0.0000 C   0  0  0  0  0  0  0  0  0  0  0  0
   12.3198    3.4735    0.0000 C   0  0  0  0  0  0  0  0  0  0  0  0
   10.6735    4.0116    0.0000 C   0  0  0  0  0  0  0  0  0  0  0  0
    7.5960   -2.1467    0.0000 H   0  0  0  0  0  0  0  0  0  0  0  0
    7.3794   -2.2208    0.0000 H   0  0  0  0  0  0  0  0  0  0  0  0
    6.5102   -0.8765    0.0000 H   0  0  0  0  0  0  0  0  0  0  0  0
    9.2920    0.1352    0.0000 H   0  0  0  0  0  0  0  0  0  0  0  0
    7.0386    0.6735    0.0000 H   0  0  0  0  0  0  0  0  0  0  0  0
    6.2416    0.6735    0.0000 H   0  0  0  0  0  0  0  0  0  0  0  0
    8.2013   -2.1731    0.0000 H   0  0  0  0  0  0  0  0  0  0  0  0
    8.9897   -1.9154    0.0000 H   0  0  0  0  0  0  0  0  0  0  0  0
    5.5620    0.2811    0.0000 H   0  0  0  0  0  0  0  0  0  0  0  0
    5.1635   -0.4091    0.0000 H   0  0  0  0  0  0  0  0  0  0  0  0
    9.4968   -1.2162    0.0000 H   0  0  0  0  0  0  0  0  0  0  0  0
    9.4968   -0.3867    0.0000 H   0  0  0  0  0  0  0  0  0  0  0  0
    6.8742   -3.4234    0.0000 H   0  0  0  0  0  0  0  0  0  0  0  0
    7.2653   -2.7275    0.0000 H   0  0  0  0  0  0  0  0  0  0  0  0
    8.9556    1.5431    0.0000 H   0  0  0  0  0  0  0  0  0  0  0  0
    8.1261    0.6985    0.0000 H   0  0  0  0  0  0  0  0  0  0  0  0
    7.5061    1.3185    0.0000 H   0  0  0  0  0  0  0  0  0  0  0  0
    6.8861    0.6985    0.0000 H   0  0  0  0  0  0  0  0  0  0  0  0
    5.3608   -3.8467    0.0000 H   0  0  0  0  0  0  0  0  0  0  0  0
    6.1591   -3.8436    0.0000 H   0  0  0  0  0  0  0  0  0  0  0  0
    4.5514   -0.7849    0.0000 H   0  0  0  0  0  0  0  0  0  0  0  0
    3.7985   -0.6112    0.0000 H   0  0  0  0  0  0  0  0  0  0  0  0
    5.4917   -0.8131    0.0000 H   0  0  0  0  0  0  0  0  0  0  0  0
    4.8765   -0.1884    0.0000 H   0  0  0  0  0  0  0  0  0  0  0  0
    4.2518   -0.8036    0.0000 H   0  0  0  0  0  0  0  0  0  0  0  0
    9.7620    0.5404    0.0000 H   0  0  0  0  0  0  0  0  0  0  0  0
   10.3553    1.0727    0.0000 H   0  0  0  0  0  0  0  0  0  0  0  0
    8.5566    2.1122    0.0000 H   0  0  0  0  0  0  0  0  0  0  0  0
    7.6811    2.1596    0.0000 H   0  0  0  0  0  0  0  0  0  0  0  0
    7.6337    1.2840    0.0000 H   0  0  0  0  0  0  0  0  0  0  0  0
    3.0719   -0.7742    0.0000 H   0  0  0  0  0  0  0  0  0  0  0  0
    2.4654   -1.2530    0.0000 H   0  0  0  0  0  0  0  0  0  0  0  0
    4.1782   -4.0815    0.0000 H   0  0  0  0  0  0  0  0  0  0  0  0
   10.0316    2.7302    0.0000 H   0  0  0  0  0  0  0  0  0  0  0  0
    9.4383    2.1979    0.0000 H   0  0  0  0  0  0  0  0  0  0  0  0
    2.0000   -2.3071    0.0000 H   0  0  0  0  0  0  0  0  0  0  0  0
   11.0512    1.6971    0.0000 H   0  0  0  0  0  0  0  0  0  0  0  0
   11.6445    2.2294    0.0000 H   0  0  0  0  0  0  0  0  0  0  0  0
   11.5339    3.8566    0.0000 H   0  0  0  0  0  0  0  0  0  0  0  0
   12.4477    2.8668    0.0000 H   0  0  0  0  0  0  0  0  0  0  0  0
   11.1349    4.4256    0.0000 H   0  0  0  0  0  0  0  0  0  0  0  0
   10.2594    4.4730    0.0000 H   0  0  0  0  0  0  0  0  0  0  0  0
   10.2120    3.5975    0.0000 H   0  0  0  0  0  0  0  0  0  0  0  0
   12.9265    3.6013    0.0000 H   0  0  0  0  0  0  0  0  0  0  0  0
   12.1920    4.0802    0.0000 H   0  0  0  0  0  0  0  0  0  0  0  0
  1 25  2  0  0  0  0
  2 22  1  0  0  0  0
  2 25  1  0  0  0  0
  2 65  1  0  0  0  0
  3  4  1  0  0  0  0
  3  7  1  0  0  0  0
  3  8  1  0  0  0  0
  3 15  1  1  0  0  0
  4  5  1  0  0  0  0
  4  9  1  0  0  0  0
  4 30  1  6  0  0  0
  5  6  1  0  0  0  0
  5 13  1  0  0  0  0
  5 31  1  1  0  0  0
  6 10  1  0  0  0  0
  6 11  1  0  0  0  0
  6 32  1  6  0  0  0
  7 12  1  0  0  0  0
  7 14  1  0  0  0  0
  7 33  1  6  0  0  0
  8 10  1  0  0  0  0
  8 34  1  0  0  0  0
  8 35  1  0  0  0  0
  9 12  1  0  0  0  0
  9 36  1  0  0  0  0
  9 37  1  0  0  0  0
 10 38  1  0  0  0  0
 10 39  1  0  0  0  0
 11 16  1  0  0  0  0
 11 18  1  0  0  0  0
 11 19  1  1  0  0  0
 12 40  1  0  0  0  0
 12 41  1  0  0  0  0
 13 17  1  0  0  0  0
 13 42  1  0  0  0  0
 13 43  1  0  0  0  0
 14 20  1  0  0  0  0
 14 21  1  6  0  0  0
 14 44  1  0  0  0  0
 15 45  1  0  0  0  0
 15 46  1  0  0  0  0
 15 47  1  0  0  0  0
 16 17  1  0  0  0  0
 16 23  2  0  0  0  0
 17 48  1  0  0  0  0
 17 49  1  0  0  0  0
 18 22  1  0  0  0  0
 18 50  1  0  0  0  0
 18 51  1  0  0  0  0
 19 52  1  0  0  0  0
 19 53  1  0  0  0  0
 19 54  1  0  0  0  0
 20 24  1  0  0  0  0
 20 55  1  0  0  0  0
 20 56  1  0  0  0  0
 21 57  1  0  0  0  0
 21 58  1  0  0  0  0
 21 59  1  0  0  0  0
 22 60  1  0  0  0  0
 22 61  1  0  0  0  0
 23 25  1  0  0  0  0
 23 62  1  0  0  0  0
 24 26  1  0  0  0  0
 24 63  1  0  0  0  0
 24 64  1  0  0  0  0
 26 27  1  0  0  0  0
 26 66  1  0  0  0  0
 26 67  1  0  0  0  0
 27 28  1  0  0  0  0
 27 29  1  0  0  0  0
 27 68  1  0  0  0  0
 28 69  1  0  0  0  0
 28 73  1  0  0  0  0
 28 74  1  0  0  0  0
 29 70  1  0  0  0  0
 29 71  1  0  0  0  0
 29 72  1  0  0  0  0
M  END
> <PUBCHEM_COMPOUND_CID>
247297

> <PUBCHEM_COMPOUND_CANONICALIZED>
1

> <PUBCHEM_CACTVS_COMPLEXITY>
651

> <PUBCHEM_CACTVS_HBOND_ACCEPTOR>
1

> <PUBCHEM_CACTVS_HBOND_DONOR>
1

> <PUBCHEM_CACTVS_ROTATABLE_BOND>
5

> <PUBCHEM_CACTVS_SUBSKEYS>
AAADcfB6IAAAAAAAAAAAAAAAAAAAAYAAAAAwYAAABAAAAGDAAAAAHgAQAAAADwDBgAQCAALAAACIAiFSEACAAAAgAAAACIAIAEgAAAIAgQAEAAAAlgCIAQMQgMAPgAAAAAAAAACAAAQAACAAAQAACAAAAA==

> <PUBCHEM_IUPAC_OPENEYE_NAME>
(1R,3aS,3bS,10aR,10bS,12aR)-1-[(1R)-1,5-dimethylhexyl]-10a,12a-dimethyl-2,3,3a,3b,4,5,8,9,10,10b,11,12-dodecahydro-1H-indeno[4,5-i][3]benzazepin-7-one

> <PUBCHEM_IUPAC_CAS_NAME>
(1R,3aS,3bS,10aR,10bS,12aR)-10a,12a-dimethyl-1-[(2R)-6-methylheptan-2-yl]-2,3,3a,3b,4,5,8,9,10,10b,11,12-dodecahydro-1H-indeno[4,5-i][3]benzazepin-7-one

> <PUBCHEM_IUPAC_NAME>
(1R,3aS,3bS,10aR,10bS,12aR)-10a,12a-dimethyl-1-[(2R)-6-methylheptan-2-yl]-2,3,3a,3b,4,5,8,9,10,10b,11,12-dodecahydro-1H-indeno[4,5-i][3]benzazepin-7-one

> <PUBCHEM_IUPAC_SYSTEMATIC_NAME>
(1R,3aS,3bS,10aR,10bS,12aR)-10a,12a-dimethyl-1-[(2R)-6-methylheptan-2-yl]-2,3,3a,3b,4,5,8,9,10,10b,11,12-dodecahydro-1H-indeno[4,5-i][3]benzazepin-7-one

> <PUBCHEM_IUPAC_TRADITIONAL_NAME>
(1R,3aS,3bS,10aR,10bS,12aR)-1-[(1R)-1,5-dimethylhexyl]-10a,12a-dimethyl-2,3,3a,3b,4,5,8,9,10,10b,11,12-dodecahydro-1H-indeno[4,5-i][3]benzazepin-7-one

> <PUBCHEM_IUPAC_INCHI>
InChI=1S/C27H45NO/c1-18(2)7-6-8-19(3)22-11-12-23-21-10-9-20-17-25(29)28-16-15-26(20,4)24(21)13-14-27(22,23)5/h17-19,21-24H,6-16H2,1-5H3,(H,28,29)/t19-,21+,22-,23+,24+,26+,27-/m1/s1

> <PUBCHEM_IUPAC_INCHIKEY>
FKEMOURCBNXSDQ-HZPUXBNGSA-N

> <PUBCHEM_XLOGP3_AA>
8.1

> <PUBCHEM_EXACT_MASS>
399.350115

> <PUBCHEM_MOLECULAR_FORMULA>
C27H45NO

> <PUBCHEM_MOLECULAR_WEIGHT>
399.6523

> <PUBCHEM_OPENEYE_CAN_SMILES>
CC(C)CCCC(C)C1CCC2C1(CCC3C2CCC4=CC(=O)NCCC34C)C

> <PUBCHEM_OPENEYE_ISO_SMILES>
C[C@H](CCCC(C)C)[C@H]1CC[C@@H]2[C@@]1(CC[C@H]3[C@H]2CCC4=CC(=O)NCC[C@]34C)C

> <PUBCHEM_CACTVS_TPSA>
29.1

> <PUBCHEM_MONOISOTOPIC_WEIGHT>
399.350115

> <PUBCHEM_TOTAL_CHARGE>
0

> <PUBCHEM_HEAVY_ATOM_COUNT>
29

> <PUBCHEM_ATOM_DEF_STEREO_COUNT>
7

> <PUBCHEM_ATOM_UDEF_STEREO_COUNT>
0

> <PUBCHEM_BOND_DEF_STEREO_COUNT>
0

> <PUBCHEM_BOND_UDEF_STEREO_COUNT>
0

> <PUBCHEM_ISOTOPIC_ATOM_COUNT>
0

> <PUBCHEM_COMPONENT_COUNT>
1

> <PUBCHEM_CACTVS_TAUTO_COUNT>
2

> <PUBCHEM_COORDINATE_TYPE>
1
5
255

> <PUBCHEM_BONDANNOTATIONS>
11  19  5
14  21  6
3  15  5
4  30  6
5  31  5
6  32  6
7  33  6

$$$$

