9839
  -OEChem-06261204073D

 17 16  0     0  0  0  0  0  0999 V2000
    3.0099    0.0907   -0.3201 F   0  0  0  0  0  0  0  0  0  0  0  0
   -0.4404    0.6760    0.2054 O   0  0  0  0  0  0  0  0  0  0  0  0
    0.9056   -1.0829    0.8612 O   0  0  0  0  0  0  0  0  0  0  0  0
   -1.6221   -0.1191    0.2043 C   0  0  0  0  0  0  0  0  0  0  0  0
   -2.8383    0.7916    0.1333 C   0  0  0  0  0  0  0  0  0  0  0  0
   -1.5716   -1.0895   -0.9660 C   0  0  0  0  0  0  0  0  0  0  0  0
    0.7370   -0.0114    0.2949 C   0  0  0  0  0  0  0  0  0  0  0  0
    1.8200    0.7446   -0.4130 C   0  0  0  0  0  0  0  0  0  0  0  0
   -1.6746   -0.6784    1.1469 H   0  0  0  0  0  0  0  0  0  0  0  0
   -3.7695    0.2173    0.1514 H   0  0  0  0  0  0  0  0  0  0  0  0
   -2.8414    1.4899    0.9772 H   0  0  0  0  0  0  0  0  0  0  0  0
   -2.8180    1.4000   -0.7777 H   0  0  0  0  0  0  0  0  0  0  0  0
   -2.5165   -1.6348   -1.0609 H   0  0  0  0  0  0  0  0  0  0  0  0
   -0.7781   -1.8347   -0.8581 H   0  0  0  0  0  0  0  0  0  0  0  0
   -1.3835   -0.5589   -1.9062 H   0  0  0  0  0  0  0  0  0  0  0  0
    1.9452    1.7293    0.0439 H   0  0  0  0  0  0  0  0  0  0  0  0
    1.5733    0.8393   -1.4733 H   0  0  0  0  0  0  0  0  0  0  0  0
  1  8  1  0  0  0  0
  2  4  1  0  0  0  0
  2  7  1  0  0  0  0
  3  7  2  0  0  0  0
  4  5  1  0  0  0  0
  4  6  1  0  0  0  0
  4  9  1  0  0  0  0
  5 10  1  0  0  0  0
  5 11  1  0  0  0  0
  5 12  1  0  0  0  0
  6 13  1  0  0  0  0
  6 14  1  0  0  0  0
  6 15  1  0  0  0  0
  7  8  1  0  0  0  0
  8 16  1  0  0  0  0
  8 17  1  0  0  0  0
M  END
> <PUBCHEM_COMPOUND_CID>
9839

> <PUBCHEM_CONFORMER_RMSD>
0.6

> <PUBCHEM_CONFORMER_DIVERSEORDER>
1
10
12
6
5
9
11
7
4
8
2
3

> <PUBCHEM_MMFF94_PARTIAL_CHARGES>
6
1 -0.34
2 -0.43
3 -0.57
4 0.28
7 0.66
8 0.4

> <PUBCHEM_EFFECTIVE_ROTOR_COUNT>
3

> <PUBCHEM_PHARMACOPHORE_FEATURES>
2
1 3 acceptor
3 4 5 6 hydrophobe

> <PUBCHEM_HEAVY_ATOM_COUNT>
8

> <PUBCHEM_ATOM_DEF_STEREO_COUNT>
0

> <PUBCHEM_ATOM_UDEF_STEREO_COUNT>
0

> <PUBCHEM_BOND_DEF_STEREO_COUNT>
0

> <PUBCHEM_BOND_UDEF_STEREO_COUNT>
0

> <PUBCHEM_ISOTOPIC_ATOM_COUNT>
0

> <PUBCHEM_COMPONENT_COUNT>
1

> <PUBCHEM_CACTVS_TAUTO_COUNT>
1

> <PUBCHEM_CONFORMER_ID>
0000266F00000001

> <PUBCHEM_MMFF94_ENERGY>
8.8476

> <PUBCHEM_FEATURE_SELFOVERLAP>
10.148

> <PUBCHEM_SHAPE_FINGERPRINT>
12932741 1 16371019468165461963
14390081 3 18413109446238846097
15310529 11 18059861705052338489
16714656 1 18113896065727633037
21040471 1 17895482534925018411
23552423 10 18336550404230512462
24536 1 17489043620536832721
29004967 10 17060617823773197249
5084963 1 16199868341350505844
5460574 1 7637401817634288369

> <PUBCHEM_SHAPE_MULTIPOLES>
145.62
3.88
1.08
0.84
0.63
0.17
0
-0.72
0.5
-0.4
0.08
0.03
0.18
-0.4

> <PUBCHEM_SHAPE_SELFOVERLAP>
268.303

> <PUBCHEM_SHAPE_VOLUME>
92.6

> <PUBCHEM_COORDINATE_TYPE>
2
5
10

$$$$

