443326
  -OEChem-07051213022D

 50 54  0     1  0  0  0  0  0999 V2000
    6.6555   -2.7562    0.0000 O   0  0  0  0  0  0  0  0  0  0  0  0
    7.0156   -1.0620    0.0000 O   0  0  0  0  0  0  0  0  0  0  0  0
    6.4218    3.2021    0.0000 O   0  0  0  0  0  0  0  0  0  0  0  0
    2.6254   -1.0142    0.0000 N   0  0  3  0  0  0  0  0  0  0  0  0
    5.7049   -0.0136    0.0000 N   0  0  0  0  0  0  0  0  0  0  0  0
    4.1652   -0.5139    0.0000 C   0  0  2  0  0  0  0  0  0  0  0  0
    3.5397   -1.2086    0.0000 C   0  0  2  0  0  0  0  0  0  0  0  0
    3.8286   -2.0975    0.0000 C   0  0  1  0  0  0  0  0  0  0  0  0
    3.7801    0.5217    0.0000 C   0  0  0  0  0  0  0  0  0  0  0  0
    5.0795   -0.7083    0.0000 C   0  0  0  0  0  0  0  0  0  0  0  0
    2.3366   -0.1253    0.0000 C   0  0  0  0  0  0  0  0  0  0  0  0
    4.7429   -2.2919    0.0000 C   0  0  0  0  0  0  0  0  0  0  0  0
    4.5018    1.0697    0.0000 C   0  0  0  0  0  0  0  0  0  0  0  0
    5.3683   -1.5972    0.0000 C   0  0  0  0  0  0  0  0  0  0  0  0
    4.1376   -3.0486    0.0000 C   0  0  0  0  0  0  0  0  0  0  0  0
    3.2031   -2.7922    0.0000 C   0  0  0  0  0  0  0  0  0  0  0  0
    2.0000   -1.7088    0.0000 C   0  0  0  0  0  0  0  0  0  0  0  0
    5.4161    0.8753    0.0000 C   0  0  0  0  0  0  0  0  0  0  0  0
    2.2888   -2.5978    0.0000 C   0  0  0  0  0  0  0  0  0  0  0  0
    4.2129    1.9586    0.0000 C   0  0  0  0  0  0  0  0  0  0  0  0
    3.4685   -3.7917    0.0000 C   0  0  0  0  0  0  0  0  0  0  0  0
    6.3465   -1.8051    0.0000 C   0  0  0  0  0  0  0  0  0  0  0  0
    6.0415    1.5700    0.0000 C   0  0  0  0  0  0  0  0  0  0  0  0
    4.8384    2.6533    0.0000 C   0  0  0  0  0  0  0  0  0  0  0  0
    5.7527    2.4589    0.0000 C   0  0  0  0  0  0  0  0  0  0  0  0
    7.6336   -2.9641    0.0000 C   0  0  0  0  0  0  0  0  0  0  0  0
    3.2771   -0.4002    0.0000 H   0  0  0  0  0  0  0  0  0  0  0  0
    4.3564    0.7504    0.0000 H   0  0  0  0  0  0  0  0  0  0  0  0
    3.5389    1.0929    0.0000 H   0  0  0  0  0  0  0  0  0  0  0  0
    2.1034    0.4492    0.0000 H   0  0  0  0  0  0  0  0  0  0  0  0
    1.7542   -0.3378    0.0000 H   0  0  0  0  0  0  0  0  0  0  0  0
    4.5106   -2.8667    0.0000 H   0  0  0  0  0  0  0  0  0  0  0  0
    5.2687   -2.6204    0.0000 H   0  0  0  0  0  0  0  0  0  0  0  0
    4.5193   -3.5371    0.0000 H   0  0  0  0  0  0  0  0  0  0  0  0
    4.6850   -2.7575    0.0000 H   0  0  0  0  0  0  0  0  0  0  0  0
    3.3947   -3.3818    0.0000 H   0  0  0  0  0  0  0  0  0  0  0  0
    1.6183   -1.2203    0.0000 H   0  0  0  0  0  0  0  0  0  0  0  0
    1.4526   -1.9999    0.0000 H   0  0  0  0  0  0  0  0  0  0  0  0
    6.3114   -0.1425    0.0000 H   0  0  0  0  0  0  0  0  0  0  0  0
    1.8740   -3.0586    0.0000 H   0  0  0  0  0  0  0  0  0  0  0  0
    3.6065    2.0875    0.0000 H   0  0  0  0  0  0  0  0  0  0  0  0
    3.0077   -3.3769    0.0000 H   0  0  0  0  0  0  0  0  0  0  0  0
    3.0536   -4.2525    0.0000 H   0  0  0  0  0  0  0  0  0  0  0  0
    3.9292   -4.2066    0.0000 H   0  0  0  0  0  0  0  0  0  0  0  0
    6.6480    1.4410    0.0000 H   0  0  0  0  0  0  0  0  0  0  0  0
    4.6468    3.2429    0.0000 H   0  0  0  0  0  0  0  0  0  0  0  0
    6.2302    3.7917    0.0000 H   0  0  0  0  0  0  0  0  0  0  0  0
    7.5047   -3.5706    0.0000 H   0  0  0  0  0  0  0  0  0  0  0  0
    8.2401   -3.0930    0.0000 H   0  0  0  0  0  0  0  0  0  0  0  0
    7.7625   -2.3577    0.0000 H   0  0  0  0  0  0  0  0  0  0  0  0
  1 22  1  0  0  0  0
  1 26  1  0  0  0  0
  2 22  2  0  0  0  0
  3 25  1  0  0  0  0
  3 47  1  0  0  0  0
  4  7  1  0  0  0  0
  4 11  1  0  0  0  0
  4 17  1  0  0  0  0
  5 10  1  0  0  0  0
  5 18  1  0  0  0  0
  5 39  1  0  0  0  0
  6  7  1  0  0  0  0
  6  9  1  6  0  0  0
  6 10  1  0  0  0  0
  6 13  1  0  0  0  0
  7  8  1  0  0  0  0
  7 27  1  1  0  0  0
  8 12  1  0  0  0  0
  8 15  1  1  0  0  0
  8 16  1  0  0  0  0
  9 11  1  0  0  0  0
  9 28  1  0  0  0  0
  9 29  1  0  0  0  0
 10 14  2  0  0  0  0
 11 30  1  0  0  0  0
 11 31  1  0  0  0  0
 12 14  1  0  0  0  0
 12 32  1  0  0  0  0
 12 33  1  0  0  0  0
 13 18  2  0  0  0  0
 13 20  1  0  0  0  0
 14 22  1  0  0  0  0
 15 21  1  0  0  0  0
 15 34  1  0  0  0  0
 15 35  1  0  0  0  0
 16 19  2  0  0  0  0
 16 36  1  0  0  0  0
 17 19  1  0  0  0  0
 17 37  1  0  0  0  0
 17 38  1  0  0  0  0
 18 23  1  0  0  0  0
 19 40  1  0  0  0  0
 20 24  2  0  0  0  0
 20 41  1  0  0  0  0
 21 42  1  0  0  0  0
 21 43  1  0  0  0  0
 21 44  1  0  0  0  0
 23 25  2  0  0  0  0
 23 45  1  0  0  0  0
 24 25  1  0  0  0  0
 24 46  1  0  0  0  0
 26 48  1  0  0  0  0
 26 49  1  0  0  0  0
 26 50  1  0  0  0  0
M  END
> <PUBCHEM_COMPOUND_CID>
443326

> <PUBCHEM_COMPOUND_CANONICALIZED>
1

> <PUBCHEM_CACTVS_COMPLEXITY>
701

> <PUBCHEM_CACTVS_HBOND_ACCEPTOR>
5

> <PUBCHEM_CACTVS_HBOND_DONOR>
2

> <PUBCHEM_CACTVS_ROTATABLE_BOND>
3

> <PUBCHEM_CACTVS_SUBSKEYS>
AAADceB7MAAAAAAAAAAAAAAAAAAAAWLAAAAwQIAAAAAAAFiBAAAAHgAQCAAADizBmAYyzoPABgCIAiTSSACCAAAhIgAIiAEObMgIJjLC8ZOEcAhm0BnI+UeY2fOfoAAAAgACAABAAAAEAAQAAAAAAAAAAA==

> <PUBCHEM_IUPAC_INCHI>
InChI=1S/C21H24N2O3/c1-3-20-7-4-9-23-10-8-21(19(20)23)15-6-5-13(24)11-16(15)22-17(21)14(12-20)18(25)26-2/h4-7,11,19,22,24H,3,8-10,12H2,1-2H3/t19-,20-,21-/m0/s1

> <PUBCHEM_IUPAC_INCHIKEY>
FXUFRJQCBVSCRZ-ACRUOGEOSA-N

> <PUBCHEM_XLOGP3_AA>
3

> <PUBCHEM_EXACT_MASS>
352.178693

> <PUBCHEM_MOLECULAR_FORMULA>
C21H24N2O3

> <PUBCHEM_MOLECULAR_WEIGHT>
352.42686

> <PUBCHEM_OPENEYE_CAN_SMILES>
CCC12CC(=C3C4(C1N(CC4)CC=C2)C5=C(N3)C=C(C=C5)O)C(=O)OC

> <PUBCHEM_OPENEYE_ISO_SMILES>
CC[C@]12CC(=C3[C@@]4([C@H]1N(CC4)CC=C2)C5=C(N3)C=C(C=C5)O)C(=O)OC

> <PUBCHEM_CACTVS_TPSA>
61.8

> <PUBCHEM_MONOISOTOPIC_WEIGHT>
352.178693

> <PUBCHEM_TOTAL_CHARGE>
0

> <PUBCHEM_HEAVY_ATOM_COUNT>
26

> <PUBCHEM_ATOM_DEF_STEREO_COUNT>
3

> <PUBCHEM_ATOM_UDEF_STEREO_COUNT>
0

> <PUBCHEM_BOND_DEF_STEREO_COUNT>
0

> <PUBCHEM_BOND_UDEF_STEREO_COUNT>
0

> <PUBCHEM_ISOTOPIC_ATOM_COUNT>
0

> <PUBCHEM_COMPONENT_COUNT>
1

> <PUBCHEM_CACTVS_TAUTO_COUNT>
17

> <PUBCHEM_COORDINATE_TYPE>
1
5
255

> <PUBCHEM_BONDANNOTATIONS>
13  18  8
13  20  8
18  23  8
20  24  8
23  25  8
24  25  8
6  9  6
7  27  5
8  15  5

$$$$

