11454
  -OEChem-06261205413D

 18 18  0     1  0  0  0  0  0999 V2000
    2.5456    0.9630    1.2062 Br  0  0  0  0  0  0  0  0  0  0  0  0
    1.7273    0.2085   -0.4125 C   0  0  2  0  0  0  0  0  0  0  0  0
    0.2550    0.0939   -0.2031 C   0  0  0  0  0  0  0  0  0  0  0  0
   -0.5789    1.1690   -0.5108 C   0  0  0  0  0  0  0  0  0  0  0  0
   -0.2881   -1.0884    0.3000 C   0  0  0  0  0  0  0  0  0  0  0  0
    2.4589   -1.0925   -0.7476 C   0  0  0  0  0  0  0  0  0  0  0  0
   -1.9558    1.0620   -0.3153 C   0  0  0  0  0  0  0  0  0  0  0  0
   -1.6651   -1.1954    0.4954 C   0  0  0  0  0  0  0  0  0  0  0  0
   -2.4989   -0.1202    0.1877 C   0  0  0  0  0  0  0  0  0  0  0  0
    1.9404    0.9362   -1.2043 H   0  0  0  0  0  0  0  0  0  0  0  0
   -0.1694    2.0963   -0.9027 H   0  0  0  0  0  0  0  0  0  0  0  0
    0.3289   -1.9411    0.5637 H   0  0  0  0  0  0  0  0  0  0  0  0
    2.0018   -1.5886   -1.6108 H   0  0  0  0  0  0  0  0  0  0  0  0
    2.4752   -1.8014    0.0875 H   0  0  0  0  0  0  0  0  0  0  0  0
    3.5050   -0.8857   -1.0030 H   0  0  0  0  0  0  0  0  0  0  0  0
   -2.6051    1.8991   -0.5544 H   0  0  0  0  0  0  0  0  0  0  0  0
   -2.0883   -2.1145    0.8901 H   0  0  0  0  0  0  0  0  0  0  0  0
   -3.5709   -0.2032    0.3407 H   0  0  0  0  0  0  0  0  0  0  0  0
  1  2  1  0  0  0  0
  2  3  1  0  0  0  0
  2  6  1  0  0  0  0
  2 10  1  0  0  0  0
  3  4  2  0  0  0  0
  3  5  1  0  0  0  0
  4  7  1  0  0  0  0
  4 11  1  0  0  0  0
  5  8  2  0  0  0  0
  5 12  1  0  0  0  0
  6 13  1  0  0  0  0
  6 14  1  0  0  0  0
  6 15  1  0  0  0  0
  7  9  2  0  0  0  0
  7 16  1  0  0  0  0
  8  9  1  0  0  0  0
  8 17  1  0  0  0  0
  9 18  1  0  0  0  0
M  END
> <PUBCHEM_COMPOUND_CID>
11454

> <PUBCHEM_CONFORMER_RMSD>
0.4

> <PUBCHEM_CONFORMER_DIVERSEORDER>
2
1

> <PUBCHEM_MMFF94_PARTIAL_CHARGES>
13
1 -0.23
11 0.15
12 0.15
16 0.15
17 0.15
18 0.15
2 0.37
3 -0.14
4 -0.15
5 -0.15
7 -0.15
8 -0.15
9 -0.15

> <PUBCHEM_EFFECTIVE_ROTOR_COUNT>
1

> <PUBCHEM_PHARMACOPHORE_FEATURES>
3
1 1 hydrophobe
3 1 2 6 hydrophobe
6 3 4 5 7 8 9 rings

> <PUBCHEM_HEAVY_ATOM_COUNT>
9

> <PUBCHEM_ATOM_DEF_STEREO_COUNT>
0

> <PUBCHEM_ATOM_UDEF_STEREO_COUNT>
1

> <PUBCHEM_BOND_DEF_STEREO_COUNT>
0

> <PUBCHEM_BOND_UDEF_STEREO_COUNT>
0

> <PUBCHEM_ISOTOPIC_ATOM_COUNT>
0

> <PUBCHEM_COMPONENT_COUNT>
1

> <PUBCHEM_CACTVS_TAUTO_COUNT>
1

> <PUBCHEM_CONFORMER_ID>
00002CBE00000002

> <PUBCHEM_MMFF94_ENERGY>
20.4814

> <PUBCHEM_FEATURE_SELFOVERLAP>
16.156

> <PUBCHEM_SHAPE_FINGERPRINT>
10857977 72 18270683065015247217
12423570 1 9197188851071933740
12716758 59 18342176716925346139
12932741 1 18334576862637125964
12932764 1 17967525757680646726
15219456 202 18333453136268584672
15310529 11 16370728119101129257
16945 1 18060137648016187389
19973954 147 18261109686081693424
20645464 45 18336275582379663480
20653085 51 16878495860315332561
21040471 1 18129382772814533181
23552423 10 17989196036674019774
2748010 2 18413385453779938535
29004967 10 17458338688831635686
369184 2 17676206866261898435
5084963 1 18340759437805010276

> <PUBCHEM_SHAPE_MULTIPOLES>
191.16
3.94
1.45
0.99
0.84
0.07
-0.13
-0.22
-0.52
0.11
-0.01
0.46
-0.08
0.85

> <PUBCHEM_SHAPE_SELFOVERLAP>
374.072

> <PUBCHEM_SHAPE_VOLUME>
117.5

> <PUBCHEM_COORDINATE_TYPE>
2
5
10

$$$$

