247876
  -OEChem-07051213062D

 48 51  0     1  0  0  0  0  0999 V2000
    6.5271    2.2991    0.0000 F   0  0  0  0  0  0  0  0  0  0  0  0
    4.7950    1.2991    0.0000 O   0  0  0  0  0  0  0  0  0  0  0  0
    8.6500    2.0543    0.0000 O   0  0  0  0  0  0  0  0  0  0  0  0
    2.0000   -2.2532    0.0000 O   0  0  0  0  0  0  0  0  0  0  0  0
    7.3931   -0.2009    0.0000 C   0  0  2  0  0  0  0  0  0  0  0  0
    7.3931    0.7991    0.0000 C   0  0  2  0  0  0  0  0  0  0  0  0
    6.5271   -0.7009    0.0000 C   0  0  1  0  0  0  0  0  0  0  0  0
    5.6610   -0.2009    0.0000 C   0  0  2  0  0  0  0  0  0  0  0  0
    6.5271    1.2991    0.0000 C   0  0  2  0  0  0  0  0  0  0  0  0
    5.6610    0.7991    0.0000 C   0  0  2  0  0  0  0  0  0  0  0  0
    8.3393    1.1038    0.0000 C   0  0  2  0  0  0  0  0  0  0  0  0
    8.3393   -0.5056    0.0000 C   0  0  0  0  0  0  0  0  0  0  0  0
    4.7510   -0.7078    0.0000 C   0  0  1  0  0  0  0  0  0  0  0  0
    6.5431   -1.7424    0.0000 C   0  0  0  0  0  0  0  0  0  0  0  0
    8.9229    0.2991    0.0000 C   0  0  0  0  0  0  0  0  0  0  0  0
    7.3931    1.7991    0.0000 C   0  0  0  0  0  0  0  0  0  0  0  0
    5.6451   -2.2702    0.0000 C   0  0  0  0  0  0  0  0  0  0  0  0
    4.7430   -1.7494    0.0000 C   0  0  0  0  0  0  0  0  0  0  0  0
    4.7587    0.2922    0.0000 C   0  0  0  0  0  0  0  0  0  0  0  0
    3.8242   -0.1437    0.0000 C   0  0  0  0  0  0  0  0  0  0  0  0
    3.8076   -2.2991    0.0000 C   0  0  0  0  0  0  0  0  0  0  0  0
    2.8763   -0.6716    0.0000 C   0  0  0  0  0  0  0  0  0  0  0  0
    2.8680   -1.7566    0.0000 C   0  0  0  0  0  0  0  0  0  0  0  0
    7.4830   -1.0461    0.0000 H   0  0  0  0  0  0  0  0  0  0  0  0
    7.2664   -1.1202    0.0000 H   0  0  0  0  0  0  0  0  0  0  0  0
    6.3972    0.2241    0.0000 H   0  0  0  0  0  0  0  0  0  0  0  0
    7.0640    1.6091    0.0000 H   0  0  0  0  0  0  0  0  0  0  0  0
    5.6610    1.4191    0.0000 H   0  0  0  0  0  0  0  0  0  0  0  0
    7.9018    1.5432    0.0000 H   0  0  0  0  0  0  0  0  0  0  0  0
    8.0883   -1.0725    0.0000 H   0  0  0  0  0  0  0  0  0  0  0  0
    8.8767   -0.8149    0.0000 H   0  0  0  0  0  0  0  0  0  0  0  0
    6.7612   -2.3228    0.0000 H   0  0  0  0  0  0  0  0  0  0  0  0
    7.1523   -1.6269    0.0000 H   0  0  0  0  0  0  0  0  0  0  0  0
    9.3838   -0.1156    0.0000 H   0  0  0  0  0  0  0  0  0  0  0  0
    9.3838    0.7138    0.0000 H   0  0  0  0  0  0  0  0  0  0  0  0
    8.0131    1.7991    0.0000 H   0  0  0  0  0  0  0  0  0  0  0  0
    7.3931    2.4191    0.0000 H   0  0  0  0  0  0  0  0  0  0  0  0
    6.7731    1.7991    0.0000 H   0  0  0  0  0  0  0  0  0  0  0  0
    5.2478   -2.7462    0.0000 H   0  0  0  0  0  0  0  0  0  0  0  0
    6.0460   -2.7431    0.0000 H   0  0  0  0  0  0  0  0  0  0  0  0
    5.3787    0.2874    0.0000 H   0  0  0  0  0  0  0  0  0  0  0  0
    4.7635    0.9122    0.0000 H   0  0  0  0  0  0  0  0  0  0  0  0
    4.1388    0.2970    0.0000 H   0  0  0  0  0  0  0  0  0  0  0  0
    3.8361    0.4762    0.0000 H   0  0  0  0  0  0  0  0  0  0  0  0
    4.7950    1.9191    0.0000 H   0  0  0  0  0  0  0  0  0  0  0  0
    9.2566    2.1822    0.0000 H   0  0  0  0  0  0  0  0  0  0  0  0
    3.8100   -2.9191    0.0000 H   0  0  0  0  0  0  0  0  0  0  0  0
    2.3430   -0.3554    0.0000 H   0  0  0  0  0  0  0  0  0  0  0  0
  9  1  1  6  0  0  0
 10  2  1  1  0  0  0
  2 45  1  0  0  0  0
 11  3  1  1  0  0  0
  3 46  1  0  0  0  0
  4 23  2  0  0  0  0
  5  6  1  0  0  0  0
  5  7  1  0  0  0  0
  5 12  1  0  0  0  0
  5 24  1  6  0  0  0
  6  9  1  0  0  0  0
  6 11  1  0  0  0  0
  6 16  1  1  0  0  0
  7  8  1  0  0  0  0
  7 14  1  0  0  0  0
  7 25  1  1  0  0  0
  8 10  1  0  0  0  0
  8 13  1  0  0  0  0
  8 26  1  6  0  0  0
  9 10  1  0  0  0  0
  9 27  1  0  0  0  0
 10 28  1  0  0  0  0
 11 15  1  0  0  0  0
 11 29  1  0  0  0  0
 12 15  1  0  0  0  0
 12 30  1  0  0  0  0
 12 31  1  0  0  0  0
 13 18  1  0  0  0  0
 13 19  1  1  0  0  0
 13 20  1  0  0  0  0
 14 17  1  0  0  0  0
 14 32  1  0  0  0  0
 14 33  1  0  0  0  0
 15 34  1  0  0  0  0
 15 35  1  0  0  0  0
 16 36  1  0  0  0  0
 16 37  1  0  0  0  0
 16 38  1  0  0  0  0
 17 18  1  0  0  0  0
 17 39  1  0  0  0  0
 17 40  1  0  0  0  0
 18 21  2  0  0  0  0
 19 41  1  0  0  0  0
 19 42  1  0  0  0  0
 19 43  1  0  0  0  0
 20 22  2  0  0  0  0
 20 44  1  0  0  0  0
 21 23  1  0  0  0  0
 21 47  1  0  0  0  0
 22 23  1  0  0  0  0
 22 48  1  0  0  0  0
M  END
> <PUBCHEM_COMPOUND_CID>
247876

> <PUBCHEM_COMPOUND_CANONICALIZED>
1

> <PUBCHEM_CACTVS_COMPLEXITY>
612

> <PUBCHEM_CACTVS_HBOND_ACCEPTOR>
4

> <PUBCHEM_CACTVS_HBOND_DONOR>
2

> <PUBCHEM_CACTVS_ROTATABLE_BOND>
0

> <PUBCHEM_CACTVS_SUBSKEYS>
AAADceB4MQAAAAAAAAAAAAAAAAAAAYAAAAAwYIAAAAAAAGDAAAAAGwAACAAADxSggAICAAAAAgCIAqBSAAAAAAAgAAAICAAAAEgAEAIAAQAAQAAEgAAIAYPAwPAPgAAAAAAAAADAAAYAADAAAIAADAAAAA==

> <PUBCHEM_IUPAC_OPENEYE_NAME>
(8S,9S,10R,11R,12R,13S,14S,17S)-12-fluoro-11,17-dihydroxy-10,13-dimethyl-6,7,8,9,11,12,14,15,16,17-decahydrocyclopenta[a]phenanthren-3-one

> <PUBCHEM_IUPAC_CAS_NAME>
(8S,9S,10R,11R,12R,13S,14S,17S)-12-fluoro-11,17-dihydroxy-10,13-dimethyl-6,7,8,9,11,12,14,15,16,17-decahydrocyclopenta[a]phenanthren-3-one

> <PUBCHEM_IUPAC_NAME>
(8S,9S,10R,11R,12R,13S,14S,17S)-12-fluoro-11,17-dihydroxy-10,13-dimethyl-6,7,8,9,11,12,14,15,16,17-decahydrocyclopenta[a]phenanthren-3-one

> <PUBCHEM_IUPAC_SYSTEMATIC_NAME>
(8S,9S,10R,11R,12R,13S,14S,17S)-12-fluoranyl-10,13-dimethyl-11,17-bis(oxidanyl)-6,7,8,9,11,12,14,15,16,17-decahydrocyclopenta[a]phenanthren-3-one

> <PUBCHEM_IUPAC_TRADITIONAL_NAME>
(8S,9S,10R,11R,12R,13S,14S,17S)-12-fluoro-11,17-dihydroxy-10,13-dimethyl-6,7,8,9,11,12,14,15,16,17-decahydrocyclopenta[a]phenanthren-3-one

> <PUBCHEM_IUPAC_INCHI>
InChI=1S/C19H25FO3/c1-18-8-7-11(21)9-10(18)3-4-12-13-5-6-14(22)19(13,2)17(20)16(23)15(12)18/h7-9,12-17,22-23H,3-6H2,1-2H3/t12-,13-,14-,15+,16+,17-,18-,19-/m0/s1

> <PUBCHEM_IUPAC_INCHIKEY>
SWCGYQXTFNYYSV-HPLVRFQDSA-N

> <PUBCHEM_XLOGP3_AA>
2.4

> <PUBCHEM_EXACT_MASS>
320.178773

> <PUBCHEM_MOLECULAR_FORMULA>
C19H25FO3

> <PUBCHEM_MOLECULAR_WEIGHT>
320.398403

> <PUBCHEM_OPENEYE_CAN_SMILES>
CC12C=CC(=O)C=C1CCC3C2C(C(C4(C3CCC4O)C)F)O

> <PUBCHEM_OPENEYE_ISO_SMILES>
C[C@]12C=CC(=O)C=C1CC[C@@H]3[C@@H]2[C@H]([C@@H]([C@]4([C@H]3CC[C@@H]4O)C)F)O

> <PUBCHEM_CACTVS_TPSA>
57.5

> <PUBCHEM_MONOISOTOPIC_WEIGHT>
320.178773

> <PUBCHEM_TOTAL_CHARGE>
0

> <PUBCHEM_HEAVY_ATOM_COUNT>
23

> <PUBCHEM_ATOM_DEF_STEREO_COUNT>
8

> <PUBCHEM_ATOM_UDEF_STEREO_COUNT>
0

> <PUBCHEM_BOND_DEF_STEREO_COUNT>
0

> <PUBCHEM_BOND_UDEF_STEREO_COUNT>
0

> <PUBCHEM_ISOTOPIC_ATOM_COUNT>
0

> <PUBCHEM_COMPONENT_COUNT>
1

> <PUBCHEM_CACTVS_TAUTO_COUNT>
3

> <PUBCHEM_COORDINATE_TYPE>
1
5
255

> <PUBCHEM_BONDANNOTATIONS>
9  1  6
13  19  5
10  2  5
11  3  5
5  24  6
6  16  5
7  25  5
8  26  6

$$$$

