239405
  -OEChem-07051213063D

 52 55  0     1  0  0  0  0  0999 V2000
    0.7454   -0.0271    1.4286 F   0  0  0  0  0  0  0  0  0  0  0  0
   -0.1593    2.2391   -1.2096 O   0  0  0  0  0  0  0  0  0  0  0  0
   -4.9501    1.6436    0.1447 O   0  0  0  0  0  0  0  0  0  0  0  0
    5.9578   -0.0473    1.2954 O   0  0  0  0  0  0  0  0  0  0  0  0
   -0.0692   -0.9467   -0.5696 C   0  0  2  0  0  0  0  0  0  0  0  0
    0.6556    0.2815    0.0762 C   0  0  2  0  0  0  0  0  0  0  0  0
   -1.4819   -1.0380    0.0144 C   0  0  1  0  0  0  0  0  0  0  0  0
   -2.3354    0.2097   -0.3048 C   0  0  2  0  0  0  0  0  0  0  0  0
    2.1519    0.4239   -0.4190 C   0  0  2  0  0  0  0  0  0  0  0  0
   -0.2005    1.5880    0.0511 C   0  0  2  0  0  0  0  0  0  0  0  0
   -1.6852    1.3851    0.4418 C   0  0  0  0  0  0  0  0  0  0  0  0
    0.7159   -2.2367   -0.2894 C   0  0  0  0  0  0  0  0  0  0  0  0
   -2.3909   -2.2253   -0.3079 C   0  0  0  0  0  0  0  0  0  0  0  0
    2.8653   -0.9256   -0.2392 C   0  0  0  0  0  0  0  0  0  0  0  0
    2.1520   -2.1406   -0.7843 C   0  0  0  0  0  0  0  0  0  0  0  0
   -3.6578   -0.3147    0.1938 C   0  0  0  0  0  0  0  0  0  0  0  0
    2.8541    1.5157    0.4402 C   0  0  0  0  0  0  0  0  0  0  0  0
   -2.5126    0.5152   -1.8099 C   0  0  0  0  0  0  0  0  0  0  0  0
    2.2816    0.8000   -1.9139 C   0  0  0  0  0  0  0  0  0  0  0  0
   -3.7085   -1.6554    0.1489 C   0  0  0  0  0  0  0  0  0  0  0  0
    4.3712    1.4769    0.3496 C   0  0  0  0  0  0  0  0  0  0  0  0
    4.0764   -1.0673    0.3251 C   0  0  0  0  0  0  0  0  0  0  0  0
   -4.7852    0.5040    0.6037 C   0  0  0  0  0  0  0  0  0  0  0  0
    4.8772    0.1107    0.7312 C   0  0  0  0  0  0  0  0  0  0  0  0
   -5.7676   -0.0687    1.6030 C   0  0  0  0  0  0  0  0  0  0  0  0
   -0.1294   -0.8205   -1.6551 H   0  0  0  0  0  0  0  0  0  0  0  0
   -1.3450   -1.0865    1.1114 H   0  0  0  0  0  0  0  0  0  0  0  0
    0.2223    2.2897    0.7798 H   0  0  0  0  0  0  0  0  0  0  0  0
   -1.7384    1.2066    1.5242 H   0  0  0  0  0  0  0  0  0  0  0  0
   -2.2503    2.3058    0.2504 H   0  0  0  0  0  0  0  0  0  0  0  0
    0.2303   -3.0861   -0.7843 H   0  0  0  0  0  0  0  0  0  0  0  0
    0.7138   -2.4562    0.7862 H   0  0  0  0  0  0  0  0  0  0  0  0
   -2.1167   -3.1086    0.2763 H   0  0  0  0  0  0  0  0  0  0  0  0
   -2.4131   -2.4808   -1.3713 H   0  0  0  0  0  0  0  0  0  0  0  0
    2.1580   -2.0938   -1.8803 H   0  0  0  0  0  0  0  0  0  0  0  0
    2.6781   -3.0649   -0.5156 H   0  0  0  0  0  0  0  0  0  0  0  0
    2.5798    1.3915    1.4967 H   0  0  0  0  0  0  0  0  0  0  0  0
    2.5088    2.5150    0.1487 H   0  0  0  0  0  0  0  0  0  0  0  0
   -1.5658    0.6470   -2.3373 H   0  0  0  0  0  0  0  0  0  0  0  0
   -3.0460   -0.2842   -2.3384 H   0  0  0  0  0  0  0  0  0  0  0  0
   -3.0936    1.4342   -1.9520 H   0  0  0  0  0  0  0  0  0  0  0  0
    3.3029    0.6422   -2.2819 H   0  0  0  0  0  0  0  0  0  0  0  0
    1.6202    0.2072   -2.5526 H   0  0  0  0  0  0  0  0  0  0  0  0
    2.0538    1.8554   -2.0907 H   0  0  0  0  0  0  0  0  0  0  0  0
   -4.5607   -2.2715    0.3963 H   0  0  0  0  0  0  0  0  0  0  0  0
    4.7920    2.2109    1.0457 H   0  0  0  0  0  0  0  0  0  0  0  0
    4.7275    1.7181   -0.6568 H   0  0  0  0  0  0  0  0  0  0  0  0
    4.5442   -2.0388    0.4433 H   0  0  0  0  0  0  0  0  0  0  0  0
   -0.6371    3.0818   -1.1269 H   0  0  0  0  0  0  0  0  0  0  0  0
   -5.2500   -0.6669    2.3581 H   0  0  0  0  0  0  0  0  0  0  0  0
   -6.5132   -0.6745    1.0822 H   0  0  0  0  0  0  0  0  0  0  0  0
   -6.2695    0.7537    2.1220 H   0  0  0  0  0  0  0  0  0  0  0  0
  1  6  1  0  0  0  0
  2 10  1  0  0  0  0
  2 49  1  0  0  0  0
  3 23  2  0  0  0  0
  4 24  2  0  0  0  0
  5  6  1  0  0  0  0
  5  7  1  0  0  0  0
  5 12  1  0  0  0  0
  5 26  1  0  0  0  0
  6  9  1  0  0  0  0
  6 10  1  0  0  0  0
  7  8  1  0  0  0  0
  7 13  1  0  0  0  0
  7 27  1  0  0  0  0
  8 11  1  0  0  0  0
  8 16  1  0  0  0  0
  8 18  1  0  0  0  0
  9 14  1  0  0  0  0
  9 17  1  0  0  0  0
  9 19  1  0  0  0  0
 10 11  1  0  0  0  0
 10 28  1  0  0  0  0
 11 29  1  0  0  0  0
 11 30  1  0  0  0  0
 12 15  1  0  0  0  0
 12 31  1  0  0  0  0
 12 32  1  0  0  0  0
 13 20  1  0  0  0  0
 13 33  1  0  0  0  0
 13 34  1  0  0  0  0
 14 15  1  0  0  0  0
 14 22  2  0  0  0  0
 15 35  1  0  0  0  0
 15 36  1  0  0  0  0
 16 20  2  0  0  0  0
 16 23  1  0  0  0  0
 17 21  1  0  0  0  0
 17 37  1  0  0  0  0
 17 38  1  0  0  0  0
 18 39  1  0  0  0  0
 18 40  1  0  0  0  0
 18 41  1  0  0  0  0
 19 42  1  0  0  0  0
 19 43  1  0  0  0  0
 19 44  1  0  0  0  0
 20 45  1  0  0  0  0
 21 24  1  0  0  0  0
 21 46  1  0  0  0  0
 21 47  1  0  0  0  0
 22 24  1  0  0  0  0
 22 48  1  0  0  0  0
 23 25  1  0  0  0  0
 25 50  1  0  0  0  0
 25 51  1  0  0  0  0
 25 52  1  0  0  0  0
M  END
> <PUBCHEM_COMPOUND_CID>
239405

> <PUBCHEM_CONFORMER_RMSD>
0.6

> <PUBCHEM_CONFORMER_DIVERSEORDER>
1
2

> <PUBCHEM_MMFF94_PARTIAL_CHARGES>
21
1 -0.34
10 0.28
13 0.14
14 -0.28
15 0.14
16 -0.12
2 -0.68
20 -0.29
21 0.06
22 -0.14
23 0.49
24 0.49
25 0.06
3 -0.57
4 -0.57
45 0.15
48 0.15
49 0.4
6 0.34
8 0.14
9 0.14

> <PUBCHEM_EFFECTIVE_ROTOR_COUNT>
2.4

> <PUBCHEM_PHARMACOPHORE_FEATURES>
8
1 2 acceptor
1 2 donor
1 3 acceptor
1 4 acceptor
5 7 8 13 16 20 rings
6 5 6 7 8 10 11 rings
6 5 6 9 12 14 15 rings
6 9 14 17 21 22 24 rings

> <PUBCHEM_HEAVY_ATOM_COUNT>
25

> <PUBCHEM_ATOM_DEF_STEREO_COUNT>
6

> <PUBCHEM_ATOM_UDEF_STEREO_COUNT>
0

> <PUBCHEM_BOND_DEF_STEREO_COUNT>
0

> <PUBCHEM_BOND_UDEF_STEREO_COUNT>
0

> <PUBCHEM_ISOTOPIC_ATOM_COUNT>
0

> <PUBCHEM_COMPONENT_COUNT>
1

> <PUBCHEM_CACTVS_TAUTO_COUNT>
25

> <PUBCHEM_CONFORMER_ID>
0003A72D00000001

> <PUBCHEM_MMFF94_ENERGY>
83.6234

> <PUBCHEM_FEATURE_SELFOVERLAP>
40.695

> <PUBCHEM_SHAPE_FINGERPRINT>
10 15 18341892969895267984
10062212 137 18340491058389651263
10863032 1 18336264556961374183
10906281 52 18270663308582306406
11089746 13 16660371376121074257
11132069 177 18411978061742928719
12166972 35 15338835383092371582
12236239 1 17917992771750232840
12403259 415 18411144636656935260
12403814 3 17917994958400010463
12422481 6 18340491169879056608
12633257 1 18411139108368880242
13140716 1 18265615390063288120
13224815 77 18335703823290218430
13583140 156 17202786867656804110
13675066 3 18272365373940921617
14178342 30 18337110055950061991
14223421 5 18336548338773431230
14341114 176 18336263526728392354
14790565 3 18122336874961388324
15142383 8 17203051875971644629
15163728 17 14708309513942719619
15196674 1 18408322163879059022
15238133 3 18260815029987546881
15375358 24 18187080663510627807
15788980 27 17346605157581078405
1601671 61 18334573533910935976
16945 1 18260541247096465534
17349148 13 17989208127375969672
17980427 23 18339366245373155820
1813 80 17346591989026746068
18222031 100 12247680435239390747
18785283 64 18128522774597236877
19141452 34 18409448064202568095
19784866 170 18408601465591677419
19784866 9 18334576853952414938
20715895 44 18268716189459491821
20775438 99 11956594507648654745
21033648 29 18269577029348622408
21267235 1 18339349842486993186
21421861 104 18129388257788886418
21452121 103 18334294313860750818
21637258 2 15769770213946261475
22182313 1 18198908195889733869
23402539 116 18410020913717905734
23557571 272 18131354141181166612
23559900 14 17968923241803234924
296302 2 16008748000395062078
335352 9 18336263534769714006
34934 24 18261396671717586167
350125 39 18409449177021292304
3680242 22 18410291458272049290
4340502 62 18113332016067398771
465052 167 17561073687923599968
5104073 3 18337955575906749826
633830 44 17822572711948887884
7495541 125 15123497078374325233
9709674 26 18334572460238132134

> <PUBCHEM_SHAPE_MULTIPOLES>
489.61
10.71
2.16
1.28
1.19
0.5
-0.28
-1.32
4.79
0.04
-0.33
0.04
-0.27
0.08

> <PUBCHEM_SHAPE_SELFOVERLAP>
1066.081

> <PUBCHEM_SHAPE_VOLUME>
267.8

> <PUBCHEM_COORDINATE_TYPE>
2
5
10

$$$$

