10832
  -OEChem-06261205012D

 23 24  0     0  0  0  0  0  0999 V2000
    4.5981   -0.6900    0.0000 N   0  0  0  0  0  0  0  0  0  0  0  0
    6.3301   -0.6900    0.0000 N   0  0  0  0  0  0  0  0  0  0  0  0
    5.4641    0.8100    0.0000 N   0  0  0  0  0  0  0  0  0  0  0  0
    7.1962    0.8100    0.0000 N   0  0  0  0  0  0  0  0  0  0  0  0
    8.0622   -0.6900    0.0000 N   0  0  0  0  0  0  0  0  0  0  0  0
    3.7320   -0.1900    0.0000 C   0  0  0  0  0  0  0  0  0  0  0  0
    3.7320    0.8100    0.0000 C   0  0  0  0  0  0  0  0  0  0  0  0
    2.8660   -0.6900    0.0000 C   0  0  0  0  0  0  0  0  0  0  0  0
    5.4641   -0.1900    0.0000 C   0  0  0  0  0  0  0  0  0  0  0  0
    2.8660    1.3100    0.0000 C   0  0  0  0  0  0  0  0  0  0  0  0
    2.0000   -0.1900    0.0000 C   0  0  0  0  0  0  0  0  0  0  0  0
    2.0000    0.8100    0.0000 C   0  0  0  0  0  0  0  0  0  0  0  0
    7.1962   -0.1900    0.0000 C   0  0  0  0  0  0  0  0  0  0  0  0
    6.3301    1.3100    0.0000 C   0  0  0  0  0  0  0  0  0  0  0  0
    4.5981   -1.3100    0.0000 H   0  0  0  0  0  0  0  0  0  0  0  0
    4.2690    1.1200    0.0000 H   0  0  0  0  0  0  0  0  0  0  0  0
    2.8660   -1.3100    0.0000 H   0  0  0  0  0  0  0  0  0  0  0  0
    2.8660    1.9300    0.0000 H   0  0  0  0  0  0  0  0  0  0  0  0
    1.4631   -0.5000    0.0000 H   0  0  0  0  0  0  0  0  0  0  0  0
    1.4631    1.1200    0.0000 H   0  0  0  0  0  0  0  0  0  0  0  0
    6.3301    1.9300    0.0000 H   0  0  0  0  0  0  0  0  0  0  0  0
    8.5991   -0.3800    0.0000 H   0  0  0  0  0  0  0  0  0  0  0  0
    8.0622   -1.3100    0.0000 H   0  0  0  0  0  0  0  0  0  0  0  0
  1  6  1  0  0  0  0
  1  9  1  0  0  0  0
  1 15  1  0  0  0  0
  2  9  1  0  0  0  0
  2 13  2  0  0  0  0
  3  9  2  0  0  0  0
  3 14  1  0  0  0  0
  4 13  1  0  0  0  0
  4 14  2  0  0  0  0
  5 13  1  0  0  0  0
  5 22  1  0  0  0  0
  5 23  1  0  0  0  0
  6  7  2  0  0  0  0
  6  8  1  0  0  0  0
  7 10  1  0  0  0  0
  7 16  1  0  0  0  0
  8 11  2  0  0  0  0
  8 17  1  0  0  0  0
 10 12  2  0  0  0  0
 10 18  1  0  0  0  0
 11 12  1  0  0  0  0
 11 19  1  0  0  0  0
 12 20  1  0  0  0  0
 14 21  1  0  0  0  0
M  END
> <PUBCHEM_COMPOUND_CID>
10832

> <PUBCHEM_COMPOUND_CANONICALIZED>
1

> <PUBCHEM_CACTVS_COMPLEXITY>
169

> <PUBCHEM_CACTVS_HBOND_ACCEPTOR>
5

> <PUBCHEM_CACTVS_HBOND_DONOR>
2

> <PUBCHEM_CACTVS_ROTATABLE_BOND>
2

> <PUBCHEM_CACTVS_SUBSKEYS>
AAADccBzgAAAAAAAAAAAAAAAAAAAAAAAAAA8QAAAAAAAAAABwAAAHAAQAAAACAiBEAQ10IbIEACgACRDZACCAAkxAoAJyAAIZIiIKCLAmZGEIAhokAJIyCcQAAAAAAAAAAAAAAAAAAAAAAAAAAAAAAAAAA==

> <PUBCHEM_IUPAC_OPENEYE_NAME>
N2-phenyl-1,3,5-triazine-2,4-diamine

> <PUBCHEM_IUPAC_CAS_NAME>
N2-phenyl-1,3,5-triazine-2,4-diamine

> <PUBCHEM_IUPAC_NAME>
2-N-phenyl-1,3,5-triazine-2,4-diamine

> <PUBCHEM_IUPAC_SYSTEMATIC_NAME>
N2-phenyl-1,3,5-triazine-2,4-diamine

> <PUBCHEM_IUPAC_TRADITIONAL_NAME>
(4-amino-s-triazin-2-yl)-phenyl-amine

> <PUBCHEM_IUPAC_INCHI>
InChI=1S/C9H9N5/c10-8-11-6-12-9(14-8)13-7-4-2-1-3-5-7/h1-6H,(H3,10,11,12,13,14)

> <PUBCHEM_IUPAC_INCHIKEY>
YMFGJWGABDOFID-UHFFFAOYSA-N

> <PUBCHEM_XLOGP3_AA>
1.5

> <PUBCHEM_EXACT_MASS>
187.085795

> <PUBCHEM_MOLECULAR_FORMULA>
C9H9N5

> <PUBCHEM_MOLECULAR_WEIGHT>
187.20126

> <PUBCHEM_OPENEYE_CAN_SMILES>
C1=CC=C(C=C1)NC2=NC=NC(=N2)N

> <PUBCHEM_OPENEYE_ISO_SMILES>
C1=CC=C(C=C1)NC2=NC=NC(=N2)N

> <PUBCHEM_CACTVS_TPSA>
76.7

> <PUBCHEM_MONOISOTOPIC_WEIGHT>
187.085795

> <PUBCHEM_TOTAL_CHARGE>
0

> <PUBCHEM_HEAVY_ATOM_COUNT>
14

> <PUBCHEM_ATOM_DEF_STEREO_COUNT>
0

> <PUBCHEM_ATOM_UDEF_STEREO_COUNT>
0

> <PUBCHEM_BOND_DEF_STEREO_COUNT>
0

> <PUBCHEM_BOND_UDEF_STEREO_COUNT>
0

> <PUBCHEM_ISOTOPIC_ATOM_COUNT>
0

> <PUBCHEM_COMPONENT_COUNT>
1

> <PUBCHEM_CACTVS_TAUTO_COUNT>
9

> <PUBCHEM_COORDINATE_TYPE>
1
5
255

> <PUBCHEM_BONDANNOTATIONS>
10  12  8
11  12  8
2  13  8
2  9  8
3  14  8
3  9  8
4  13  8
4  14  8
6  7  8
6  8  8
7  10  8
8  11  8

$$$$

