132942
  -OEChem-07051212552D

111113  0     1  0  0  0  0  0999 V2000
   12.2311    0.2400    0.0000 O   0  0  0  0  0  0  0  0  0  0  0  0
   18.1886    1.8268    0.0000 O   0  0  0  0  0  0  0  0  0  0  0  0
   14.1991   -0.4594    0.0000 O   0  0  0  0  0  0  0  0  0  0  0  0
   16.2206    2.5261    0.0000 O   0  0  0  0  0  0  0  0  0  0  0  0
   10.2631   -0.4594    0.0000 O   0  0  0  0  0  0  0  0  0  0  0  0
   25.5665   -1.1796    0.0000 O   0  0  0  0  0  0  0  0  0  0  0  0
   28.9467   -1.2197    0.0000 O   0  0  0  0  0  0  0  0  0  0  0  0
   28.8535    0.5599    0.0000 O   0  0  0  0  0  0  0  0  0  0  0  0
   13.0401    0.8278    0.0000 C   0  0  3  0  0  0  0  0  0  0  0  0
   17.3796    1.2390    0.0000 C   0  0  3  0  0  0  0  0  0  0  0  0
   11.4221    0.8278    0.0000 C   0  0  3  0  0  0  0  0  0  0  0  0
   12.7311    1.7788    0.0000 C   0  0  0  0  0  0  0  0  0  0  0  0
   13.9912    0.5187    0.0000 C   0  0  3  0  0  0  0  0  0  0  0  0
   11.7311    1.7788    0.0000 C   0  0  0  0  0  0  0  0  0  0  0  0
   16.4285    1.5480    0.0000 C   0  0  3  0  0  0  0  0  0  0  0  0
   18.9976    1.2390    0.0000 C   0  0  3  0  0  0  0  0  0  0  0  0
   17.6886    0.2879    0.0000 C   0  0  0  0  0  0  0  0  0  0  0  0
   18.6886    0.2879    0.0000 C   0  0  0  0  0  0  0  0  0  0  0  0
   14.7343    1.1879    0.0000 C   0  0  0  0  0  0  0  0  0  0  0  0
   15.6854    0.8789    0.0000 C   0  0  0  0  0  0  0  0  0  0  0  0
   10.4710    0.5187    0.0000 C   0  0  3  0  0  0  0  0  0  0  0  0
   19.9486    1.5480    0.0000 C   0  0  0  0  0  0  0  0  0  0  0  0
    9.7279    1.1879    0.0000 C   0  0  0  0  0  0  0  0  0  0  0  0
   20.6918    0.8789    0.0000 C   0  0  0  0  0  0  0  0  0  0  0  0
    8.7768    0.8789    0.0000 C   0  0  0  0  0  0  0  0  0  0  0  0
   21.6428    1.1879    0.0000 C   0  0  0  0  0  0  0  0  0  0  0  0
    8.0337    1.5480    0.0000 C   0  0  0  0  0  0  0  0  0  0  0  0
   22.3860    0.5187    0.0000 C   0  0  0  0  0  0  0  0  0  0  0  0
    7.0826    1.2390    0.0000 C   0  0  0  0  0  0  0  0  0  0  0  0
   23.3370    0.8278    0.0000 C   0  0  0  0  0  0  0  0  0  0  0  0
    6.3395    1.9081    0.0000 C   0  0  0  0  0  0  0  0  0  0  0  0
   24.0802    0.1586    0.0000 C   0  0  0  0  0  0  0  0  0  0  0  0
    5.3884    1.5991    0.0000 C   0  0  0  0  0  0  0  0  0  0  0  0
   25.0312    0.4676    0.0000 C   0  0  0  0  0  0  0  0  0  0  0  0
   25.7744   -0.2015    0.0000 C   0  0  3  0  0  0  0  0  0  0  0  0
    4.6453    2.2682    0.0000 C   0  0  0  0  0  0  0  0  0  0  0  0
   26.7255    0.1075    0.0000 C   0  0  0  0  0  0  0  0  0  0  0  0
    3.6942    1.9592    0.0000 C   0  0  0  0  0  0  0  0  0  0  0  0
   27.4686   -0.5616    0.0000 C   0  0  0  0  0  0  0  0  0  0  0  0
    2.9511    2.6283    0.0000 C   0  0  0  0  0  0  0  0  0  0  0  0
   27.3641   -1.5561    0.0000 C   0  0  0  0  0  0  0  0  0  0  0  0
   28.2776   -1.9628    0.0000 C   0  0  3  0  0  0  0  0  0  0  0  0
   28.4467   -0.3537    0.0000 C   0  0  0  0  0  0  0  0  0  0  0  0
    2.0000    2.3193    0.0000 C   0  0  0  0  0  0  0  0  0  0  0  0
   28.4855   -2.9410    0.0000 C   0  0  0  0  0  0  0  0  0  0  0  0
   13.1371    0.2154    0.0000 H   0  0  0  0  0  0  0  0  0  0  0  0
   17.2826    1.8513    0.0000 H   0  0  0  0  0  0  0  0  0  0  0  0
   11.3251    0.2154    0.0000 H   0  0  0  0  0  0  0  0  0  0  0  0
   13.3375    1.9077    0.0000 H   0  0  0  0  0  0  0  0  0  0  0  0
   12.6663    2.3954    0.0000 H   0  0  0  0  0  0  0  0  0  0  0  0
   14.5808    0.3272    0.0000 H   0  0  0  0  0  0  0  0  0  0  0  0
   11.7959    2.3954    0.0000 H   0  0  0  0  0  0  0  0  0  0  0  0
   11.1246    1.9077    0.0000 H   0  0  0  0  0  0  0  0  0  0  0  0
   15.8388    1.7396    0.0000 H   0  0  0  0  0  0  0  0  0  0  0  0
   19.0946    1.8513    0.0000 H   0  0  0  0  0  0  0  0  0  0  0  0
   17.0821    0.1590    0.0000 H   0  0  0  0  0  0  0  0  0  0  0  0
   17.7534   -0.3287    0.0000 H   0  0  0  0  0  0  0  0  0  0  0  0
   18.6238   -0.3287    0.0000 H   0  0  0  0  0  0  0  0  0  0  0  0
   19.2950    0.1590    0.0000 H   0  0  0  0  0  0  0  0  0  0  0  0
   15.0254    1.7353    0.0000 H   0  0  0  0  0  0  0  0  0  0  0  0
   14.2457    1.5696    0.0000 H   0  0  0  0  0  0  0  0  0  0  0  0
   15.3943    0.3314    0.0000 H   0  0  0  0  0  0  0  0  0  0  0  0
   16.1739    0.4972    0.0000 H   0  0  0  0  0  0  0  0  0  0  0  0
    9.8814    0.3272    0.0000 H   0  0  0  0  0  0  0  0  0  0  0  0
   20.4372    1.9297    0.0000 H   0  0  0  0  0  0  0  0  0  0  0  0
   19.6576    2.0954    0.0000 H   0  0  0  0  0  0  0  0  0  0  0  0
   10.2164    1.5696    0.0000 H   0  0  0  0  0  0  0  0  0  0  0  0
    9.4368    1.7353    0.0000 H   0  0  0  0  0  0  0  0  0  0  0  0
   20.2032    0.4972    0.0000 H   0  0  0  0  0  0  0  0  0  0  0  0
   20.9829    0.3314    0.0000 H   0  0  0  0  0  0  0  0  0  0  0  0
    8.2882    0.4972    0.0000 H   0  0  0  0  0  0  0  0  0  0  0  0
    9.0679    0.3314    0.0000 H   0  0  0  0  0  0  0  0  0  0  0  0
   14.7887   -0.6510    0.0000 H   0  0  0  0  0  0  0  0  0  0  0  0
   22.1314    1.5696    0.0000 H   0  0  0  0  0  0  0  0  0  0  0  0
   21.3518    1.7353    0.0000 H   0  0  0  0  0  0  0  0  0  0  0  0
   16.6813    2.9410    0.0000 H   0  0  0  0  0  0  0  0  0  0  0  0
    8.5222    1.9297    0.0000 H   0  0  0  0  0  0  0  0  0  0  0  0
    7.7426    2.0954    0.0000 H   0  0  0  0  0  0  0  0  0  0  0  0
    9.6734   -0.6510    0.0000 H   0  0  0  0  0  0  0  0  0  0  0  0
   21.8974    0.1370    0.0000 H   0  0  0  0  0  0  0  0  0  0  0  0
   22.6771   -0.0287    0.0000 H   0  0  0  0  0  0  0  0  0  0  0  0
    6.5940    0.8573    0.0000 H   0  0  0  0  0  0  0  0  0  0  0  0
    7.3737    0.6915    0.0000 H   0  0  0  0  0  0  0  0  0  0  0  0
   23.8256    1.2095    0.0000 H   0  0  0  0  0  0  0  0  0  0  0  0
   23.0460    1.3752    0.0000 H   0  0  0  0  0  0  0  0  0  0  0  0
    6.8280    2.2898    0.0000 H   0  0  0  0  0  0  0  0  0  0  0  0
    6.0484    2.4555    0.0000 H   0  0  0  0  0  0  0  0  0  0  0  0
   23.5916   -0.2231    0.0000 H   0  0  0  0  0  0  0  0  0  0  0  0
   24.3713   -0.3888    0.0000 H   0  0  0  0  0  0  0  0  0  0  0  0
    4.8998    1.2174    0.0000 H   0  0  0  0  0  0  0  0  0  0  0  0
    5.6795    1.0517    0.0000 H   0  0  0  0  0  0  0  0  0  0  0  0
   25.5198    0.8494    0.0000 H   0  0  0  0  0  0  0  0  0  0  0  0
   24.7402    1.0151    0.0000 H   0  0  0  0  0  0  0  0  0  0  0  0
   25.1847   -0.3931    0.0000 H   0  0  0  0  0  0  0  0  0  0  0  0
    5.1338    2.6499    0.0000 H   0  0  0  0  0  0  0  0  0  0  0  0
    4.3542    2.8157    0.0000 H   0  0  0  0  0  0  0  0  0  0  0  0
   27.2140    0.4892    0.0000 H   0  0  0  0  0  0  0  0  0  0  0  0
   26.4344    0.6550    0.0000 H   0  0  0  0  0  0  0  0  0  0  0  0
    3.2056    1.5775    0.0000 H   0  0  0  0  0  0  0  0  0  0  0  0
    3.9853    1.4118    0.0000 H   0  0  0  0  0  0  0  0  0  0  0  0
    3.4396    3.0100    0.0000 H   0  0  0  0  0  0  0  0  0  0  0  0
    2.6600    3.1758    0.0000 H   0  0  0  0  0  0  0  0  0  0  0  0
   24.9768   -1.3712    0.0000 H   0  0  0  0  0  0  0  0  0  0  0  0
   26.8271   -1.8661    0.0000 H   0  0  0  0  0  0  0  0  0  0  0  0
   28.8765   -2.1233    0.0000 H   0  0  0  0  0  0  0  0  0  0  0  0
    1.8084    2.9090    0.0000 H   0  0  0  0  0  0  0  0  0  0  0  0
    1.4103    2.1277    0.0000 H   0  0  0  0  0  0  0  0  0  0  0  0
    2.1916    1.7297    0.0000 H   0  0  0  0  0  0  0  0  0  0  0  0
   27.8791   -3.0699    0.0000 H   0  0  0  0  0  0  0  0  0  0  0  0
   28.6144   -3.5474    0.0000 H   0  0  0  0  0  0  0  0  0  0  0  0
   29.0920   -2.8121    0.0000 H   0  0  0  0  0  0  0  0  0  0  0  0
  1  9  1  0  0  0  0
  1 11  1  0  0  0  0
  2 10  1  0  0  0  0
  2 16  1  0  0  0  0
  3 13  1  0  0  0  0
  3 73  1  0  0  0  0
  4 15  1  0  0  0  0
  4 76  1  0  0  0  0
  5 21  1  0  0  0  0
  5 79  1  0  0  0  0
  6 35  1  0  0  0  0
  6103  1  0  0  0  0
  7 42  1  0  0  0  0
  7 43  1  0  0  0  0
  8 43  2  0  0  0  0
  9 12  1  0  0  0  0
  9 13  1  0  0  0  0
  9 46  1  0  0  0  0
 10 15  1  0  0  0  0
 10 17  1  0  0  0  0
 10 47  1  0  0  0  0
 11 14  1  0  0  0  0
 11 21  1  0  0  0  0
 11 48  1  0  0  0  0
 12 14  1  0  0  0  0
 12 49  1  0  0  0  0
 12 50  1  0  0  0  0
 13 19  1  0  0  0  0
 13 51  1  0  0  0  0
 14 52  1  0  0  0  0
 14 53  1  0  0  0  0
 15 20  1  0  0  0  0
 15 54  1  0  0  0  0
 16 18  1  0  0  0  0
 16 22  1  0  0  0  0
 16 55  1  0  0  0  0
 17 18  1  0  0  0  0
 17 56  1  0  0  0  0
 17 57  1  0  0  0  0
 18 58  1  0  0  0  0
 18 59  1  0  0  0  0
 19 20  1  0  0  0  0
 19 60  1  0  0  0  0
 19 61  1  0  0  0  0
 20 62  1  0  0  0  0
 20 63  1  0  0  0  0
 21 23  1  0  0  0  0
 21 64  1  0  0  0  0
 22 24  1  0  0  0  0
 22 65  1  0  0  0  0
 22 66  1  0  0  0  0
 23 25  1  0  0  0  0
 23 67  1  0  0  0  0
 23 68  1  0  0  0  0
 24 26  1  0  0  0  0
 24 69  1  0  0  0  0
 24 70  1  0  0  0  0
 25 27  1  0  0  0  0
 25 71  1  0  0  0  0
 25 72  1  0  0  0  0
 26 28  1  0  0  0  0
 26 74  1  0  0  0  0
 26 75  1  0  0  0  0
 27 29  1  0  0  0  0
 27 77  1  0  0  0  0
 27 78  1  0  0  0  0
 28 30  1  0  0  0  0
 28 80  1  0  0  0  0
 28 81  1  0  0  0  0
 29 31  1  0  0  0  0
 29 82  1  0  0  0  0
 29 83  1  0  0  0  0
 30 32  1  0  0  0  0
 30 84  1  0  0  0  0
 30 85  1  0  0  0  0
 31 33  1  0  0  0  0
 31 86  1  0  0  0  0
 31 87  1  0  0  0  0
 32 34  1  0  0  0  0
 32 88  1  0  0  0  0
 32 89  1  0  0  0  0
 33 36  1  0  0  0  0
 33 90  1  0  0  0  0
 33 91  1  0  0  0  0
 34 35  1  0  0  0  0
 34 92  1  0  0  0  0
 34 93  1  0  0  0  0
 35 37  1  0  0  0  0
 35 94  1  0  0  0  0
 36 38  1  0  0  0  0
 36 95  1  0  0  0  0
 36 96  1  0  0  0  0
 37 39  1  0  0  0  0
 37 97  1  0  0  0  0
 37 98  1  0  0  0  0
 38 40  1  0  0  0  0
 38 99  1  0  0  0  0
 38100  1  0  0  0  0
 39 41  2  0  0  0  0
 39 43  1  0  0  0  0
 40 44  1  0  0  0  0
 40101  1  0  0  0  0
 40102  1  0  0  0  0
 41 42  1  0  0  0  0
 41104  1  0  0  0  0
 42 45  1  0  0  0  0
 42105  1  0  0  0  0
 44106  1  0  0  0  0
 44107  1  0  0  0  0
 44108  1  0  0  0  0
 45109  1  0  0  0  0
 45110  1  0  0  0  0
 45111  1  0  0  0  0
M  END
> <PUBCHEM_COMPOUND_CID>
132942

> <PUBCHEM_COMPOUND_CANONICALIZED>
1

> <PUBCHEM_CACTVS_COMPLEXITY>
833

> <PUBCHEM_CACTVS_HBOND_ACCEPTOR>
8

> <PUBCHEM_CACTVS_HBOND_DONOR>
4

> <PUBCHEM_CACTVS_ROTATABLE_BOND>
25

> <PUBCHEM_CACTVS_SUBSKEYS>
AAADcfB8PAAAAAAAAAAAAAAAAAAAASJEAAAAAAAAAAAAAAAAAAAAGgAACAAADBSggAICCAAABgCIAiDSCAAAAAAgAAAACAEAAEgBFBIAIQACUAAEwAALIYPK6KyAAAAAAAAAAAAAAAAAAAAAAAAAAAAAAA==

> <PUBCHEM_IUPAC_OPENEYE_NAME>
4-[9-[5-[1,4-dihydroxy-4-[5-(1-hydroxyundecyl)tetrahydrofuran-2-yl]butyl]tetrahydrofuran-2-yl]-2-hydroxy-nonyl]-2-methyl-2H-furan-5-one

> <PUBCHEM_IUPAC_CAS_NAME>
4-[9-[5-[1,4-dihydroxy-4-[5-(1-hydroxyundecyl)-2-oxolanyl]butyl]-2-oxolanyl]-2-hydroxynonyl]-2-methyl-2H-furan-5-one

> <PUBCHEM_IUPAC_NAME>
4-[9-[5-[1,4-dihydroxy-4-[5-(1-hydroxyundecyl)oxolan-2-yl]butyl]oxolan-2-yl]-2-hydroxynonyl]-2-methyl-2H-furan-5-one

> <PUBCHEM_IUPAC_SYSTEMATIC_NAME>
4-[9-[5-[1,4-bis(oxidanyl)-4-[5-(1-oxidanylundecyl)oxolan-2-yl]butyl]oxolan-2-yl]-2-oxidanyl-nonyl]-2-methyl-2H-furan-5-one

> <PUBCHEM_IUPAC_TRADITIONAL_NAME>
4-[9-[5-[1,4-dihydroxy-4-[5-(1-hydroxyundecyl)tetrahydrofuran-2-yl]butyl]tetrahydrofuran-2-yl]-2-hydroxy-nonyl]-2-methyl-2H-furan-5-one

> <PUBCHEM_IUPAC_INCHI>
InChI=1S/C37H66O8/c1-3-4-5-6-7-8-12-15-18-31(39)35-23-24-36(45-35)33(41)21-20-32(40)34-22-19-30(44-34)17-14-11-9-10-13-16-29(38)26-28-25-27(2)43-37(28)42/h25,27,29-36,38-41H,3-24,26H2,1-2H3

> <PUBCHEM_IUPAC_INCHIKEY>
HKMBLJVHVBJAIH-UHFFFAOYSA-N

> <PUBCHEM_XLOGP3_AA>
8.2

> <PUBCHEM_EXACT_MASS>
638.475769

> <PUBCHEM_MOLECULAR_FORMULA>
C37H66O8

> <PUBCHEM_MOLECULAR_WEIGHT>
638.91514

> <PUBCHEM_OPENEYE_CAN_SMILES>
CCCCCCCCCCC(C1CCC(O1)C(CCC(C2CCC(O2)CCCCCCCC(CC3=CC(OC3=O)C)O)O)O)O

> <PUBCHEM_OPENEYE_ISO_SMILES>
CCCCCCCCCCC(C1CCC(O1)C(CCC(C2CCC(O2)CCCCCCCC(CC3=CC(OC3=O)C)O)O)O)O

> <PUBCHEM_CACTVS_TPSA>
126

> <PUBCHEM_MONOISOTOPIC_WEIGHT>
638.475769

> <PUBCHEM_TOTAL_CHARGE>
0

> <PUBCHEM_HEAVY_ATOM_COUNT>
45

> <PUBCHEM_ATOM_DEF_STEREO_COUNT>
0

> <PUBCHEM_ATOM_UDEF_STEREO_COUNT>
9

> <PUBCHEM_BOND_DEF_STEREO_COUNT>
0

> <PUBCHEM_BOND_UDEF_STEREO_COUNT>
0

> <PUBCHEM_ISOTOPIC_ATOM_COUNT>
0

> <PUBCHEM_COMPONENT_COUNT>
1

> <PUBCHEM_CACTVS_TAUTO_COUNT>
1

> <PUBCHEM_COORDINATE_TYPE>
1
5
255

> <PUBCHEM_BONDANNOTATIONS>
10  17  3
11  14  3
16  22  3
13  3  3
15  4  3
42  45  3
21  5  3
35  6  3
9  12  3

$$$$

