11954119
  -OEChem-07051213062D

 23 24  0     0  0  0  0  0  0999 V2000
    4.5981    1.1550    0.0000 Cl  0  0  0  0  0  0  0  0  0  0  0  0
    2.8660   -2.8450    0.0000 O   0  0  0  0  0  0  0  0  0  0  0  0
    2.8660    0.1550    0.0000 C   0  0  0  0  0  0  0  0  0  0  0  0
    2.8660    1.1550    0.0000 C   0  0  0  0  0  0  0  0  0  0  0  0
    2.0000   -0.3450    0.0000 C   0  0  0  0  0  0  0  0  0  0  0  0
    3.7320   -0.3450    0.0000 C   0  0  0  0  0  0  0  0  0  0  0  0
    3.7320    1.6550    0.0000 C   0  0  0  0  0  0  0  0  0  0  0  0
    2.0000    1.6550    0.0000 C   0  0  0  0  0  0  0  0  0  0  0  0
    2.0000   -1.3450    0.0000 C   0  0  0  0  0  0  0  0  0  0  0  0
    3.7320   -1.3450    0.0000 C   0  0  0  0  0  0  0  0  0  0  0  0
    2.8660   -1.8450    0.0000 C   0  0  0  0  0  0  0  0  0  0  0  0
    3.7320    2.6550    0.0000 C   0  0  0  0  0  0  0  0  0  0  0  0
    2.0000    2.6550    0.0000 C   0  0  0  0  0  0  0  0  0  0  0  0
    2.8660    3.1550    0.0000 C   0  0  0  0  0  0  0  0  0  0  0  0
    1.4631   -0.0350    0.0000 H   0  0  0  0  0  0  0  0  0  0  0  0
    4.2690   -0.0350    0.0000 H   0  0  0  0  0  0  0  0  0  0  0  0
    1.4631    1.3450    0.0000 H   0  0  0  0  0  0  0  0  0  0  0  0
    1.4631   -1.6550    0.0000 H   0  0  0  0  0  0  0  0  0  0  0  0
    4.2690   -1.6550    0.0000 H   0  0  0  0  0  0  0  0  0  0  0  0
    4.2690    2.9650    0.0000 H   0  0  0  0  0  0  0  0  0  0  0  0
    1.4631    2.9650    0.0000 H   0  0  0  0  0  0  0  0  0  0  0  0
    2.8660    3.7750    0.0000 H   0  0  0  0  0  0  0  0  0  0  0  0
    2.3291   -3.1550    0.0000 H   0  0  0  0  0  0  0  0  0  0  0  0
  1  7  1  0  0  0  0
  2 11  1  0  0  0  0
  2 23  1  0  0  0  0
  3  4  1  0  0  0  0
  3  5  2  0  0  0  0
  3  6  1  0  0  0  0
  4  7  1  0  0  0  0
  4  8  2  0  0  0  0
  5  9  1  0  0  0  0
  5 15  1  0  0  0  0
  6 10  2  0  0  0  0
  6 16  1  0  0  0  0
  7 12  2  0  0  0  0
  8 13  1  0  0  0  0
  8 17  1  0  0  0  0
  9 11  2  0  0  0  0
  9 18  1  0  0  0  0
 10 11  1  0  0  0  0
 10 19  1  0  0  0  0
 12 14  1  0  0  0  0
 12 20  1  0  0  0  0
 13 14  2  0  0  0  0
 13 21  1  0  0  0  0
 14 22  1  0  0  0  0
M  END
> <PUBCHEM_COMPOUND_CID>
11954119

> <PUBCHEM_COMPOUND_CANONICALIZED>
1

> <PUBCHEM_CACTVS_COMPLEXITY>
175

> <PUBCHEM_CACTVS_HBOND_ACCEPTOR>
1

> <PUBCHEM_CACTVS_HBOND_DONOR>
1

> <PUBCHEM_CACTVS_ROTATABLE_BOND>
1

> <PUBCHEM_CACTVS_SUBSKEYS>
AAADccBwIAAEAAAAAAAAAAAAAAAAAAAAAAAwYAAAAAAAAAABQAAAGgIACAAADAaAmCAwBoAAAgCAAiBCAAACAAAgJQAIiAAGCogIJiKDExKAcAAkwBEImAeAwPAOoAAAAAABAABAAAAAAAIAAAAAAAAAAA==

> <PUBCHEM_IUPAC_OPENEYE_NAME>
4-(2-chlorophenyl)phenol

> <PUBCHEM_IUPAC_CAS_NAME>
4-(2-chlorophenyl)phenol

> <PUBCHEM_IUPAC_NAME>
4-(2-chlorophenyl)phenol

> <PUBCHEM_IUPAC_SYSTEMATIC_NAME>
4-(2-chlorophenyl)phenol

> <PUBCHEM_IUPAC_TRADITIONAL_NAME>
4-(2-chlorophenyl)phenol

> <PUBCHEM_IUPAC_INCHI>
InChI=1S/C12H9ClO/c13-12-4-2-1-3-11(12)9-5-7-10(14)8-6-9/h1-8,14H

> <PUBCHEM_IUPAC_INCHIKEY>
WNVDNJPDZNUWLK-UHFFFAOYSA-N

> <PUBCHEM_XLOGP3>
4.1

> <PUBCHEM_EXACT_MASS>
204.034193

> <PUBCHEM_MOLECULAR_FORMULA>
C12H9ClO

> <PUBCHEM_MOLECULAR_WEIGHT>
204.65226

> <PUBCHEM_OPENEYE_CAN_SMILES>
C1=CC=C(C(=C1)C2=CC=C(C=C2)O)Cl

> <PUBCHEM_OPENEYE_ISO_SMILES>
C1=CC=C(C(=C1)C2=CC=C(C=C2)O)Cl

> <PUBCHEM_CACTVS_TPSA>
20.2

> <PUBCHEM_MONOISOTOPIC_WEIGHT>
204.034193

> <PUBCHEM_TOTAL_CHARGE>
0

> <PUBCHEM_HEAVY_ATOM_COUNT>
14

> <PUBCHEM_ATOM_DEF_STEREO_COUNT>
0

> <PUBCHEM_ATOM_UDEF_STEREO_COUNT>
0

> <PUBCHEM_BOND_DEF_STEREO_COUNT>
0

> <PUBCHEM_BOND_UDEF_STEREO_COUNT>
0

> <PUBCHEM_ISOTOPIC_ATOM_COUNT>
0

> <PUBCHEM_COMPONENT_COUNT>
1

> <PUBCHEM_CACTVS_TAUTO_COUNT>
2

> <PUBCHEM_COORDINATE_TYPE>
1
5
255

> <PUBCHEM_BONDANNOTATIONS>
10  11  8
12  14  8
13  14  8
3  5  8
3  6  8
4  7  8
4  8  8
5  9  8
6  10  8
7  12  8
8  13  8
9  11  8

$$$$

