86354
  -OEChem-07051213013D

 47 48  0     0  0  0  0  0  0999 V2000
    1.6058   -2.0018   -0.0781 Cl  0  0  0  0  0  0  0  0  0  0  0  0
    1.1810    2.0852    1.0296 O   0  0  0  0  0  0  0  0  0  0  0  0
    0.8246    1.2165   -1.0673 N   0  0  0  0  0  0  0  0  0  0  0  0
    3.9799    0.9847    0.4276 N   0  0  0  0  0  0  0  0  0  0  0  0
    4.9107    0.0175    0.4941 N   0  0  0  0  0  0  0  0  0  0  0  0
   -5.0830   -0.9052    0.4567 C   0  0  0  0  0  0  0  0  0  0  0  0
   -3.8329   -0.1435   -0.0137 C   0  0  0  0  0  0  0  0  0  0  0  0
   -5.7035   -1.8174   -0.6258 C   0  0  0  0  0  0  0  0  0  0  0  0
   -6.1735    0.1007    0.8848 C   0  0  0  0  0  0  0  0  0  0  0  0
   -4.7221   -1.8048    1.6586 C   0  0  0  0  0  0  0  0  0  0  0  0
   -3.2072    0.6930    0.8761 C   0  0  0  0  0  0  0  0  0  0  0  0
   -3.3998   -0.3354   -1.3015 C   0  0  0  0  0  0  0  0  0  0  0  0
   -1.6020    1.2150   -0.8524 C   0  0  0  0  0  0  0  0  0  0  0  0
   -2.0728    1.3839    0.4496 C   0  0  0  0  0  0  0  0  0  0  0  0
   -2.2654    0.3553   -1.7279 C   0  0  0  0  0  0  0  0  0  0  0  0
   -0.3898    1.9539   -1.3086 C   0  0  0  0  0  0  0  0  0  0  0  0
    2.7461    0.4958    0.2307 C   0  0  0  0  0  0  0  0  0  0  0  0
    4.1986   -1.1004    0.3287 C   0  0  0  0  0  0  0  0  0  0  0  0
    1.5464    1.3376    0.1204 C   0  0  0  0  0  0  0  0  0  0  0  0
    2.8241   -0.8489    0.1580 C   0  0  0  0  0  0  0  0  0  0  0  0
    4.8903   -2.4022    0.3418 C   0  0  0  0  0  0  0  0  0  0  0  0
    4.3847    2.3644    0.5677 C   0  0  0  0  0  0  0  0  0  0  0  0
    5.3600   -2.8437   -1.0492 C   0  0  0  0  0  0  0  0  0  0  0  0
   -6.5895   -2.3347   -0.2368 H   0  0  0  0  0  0  0  0  0  0  0  0
   -6.0346   -1.2479   -1.5022 H   0  0  0  0  0  0  0  0  0  0  0  0
   -5.0063   -2.5970   -0.9547 H   0  0  0  0  0  0  0  0  0  0  0  0
   -7.0923   -0.4175    1.1842 H   0  0  0  0  0  0  0  0  0  0  0  0
   -5.8640    0.7157    1.7369 H   0  0  0  0  0  0  0  0  0  0  0  0
   -6.4279    0.7805    0.0631 H   0  0  0  0  0  0  0  0  0  0  0  0
   -4.3839   -1.2280    2.5262 H   0  0  0  0  0  0  0  0  0  0  0  0
   -5.5882   -2.3922    1.9857 H   0  0  0  0  0  0  0  0  0  0  0  0
   -3.9221   -2.5084    1.3986 H   0  0  0  0  0  0  0  0  0  0  0  0
   -3.5558    0.8407    1.8924 H   0  0  0  0  0  0  0  0  0  0  0  0
   -3.8745   -0.9892   -2.0218 H   0  0  0  0  0  0  0  0  0  0  0  0
   -1.5705    2.0537    1.1420 H   0  0  0  0  0  0  0  0  0  0  0  0
   -1.9067    0.2139   -2.7442 H   0  0  0  0  0  0  0  0  0  0  0  0
   -0.4421    2.1493   -2.3860 H   0  0  0  0  0  0  0  0  0  0  0  0
   -0.3301    2.9335   -0.8194 H   0  0  0  0  0  0  0  0  0  0  0  0
    1.1479    0.5743   -1.7853 H   0  0  0  0  0  0  0  0  0  0  0  0
    5.7619   -2.3566    1.0071 H   0  0  0  0  0  0  0  0  0  0  0  0
    4.2361   -3.1772    0.7582 H   0  0  0  0  0  0  0  0  0  0  0  0
    4.1450    2.6872    1.5836 H   0  0  0  0  0  0  0  0  0  0  0  0
    5.4602    2.4464    0.3894 H   0  0  0  0  0  0  0  0  0  0  0  0
    3.8477    2.9692   -0.1673 H   0  0  0  0  0  0  0  0  0  0  0  0
    4.5134   -2.9461   -1.7363 H   0  0  0  0  0  0  0  0  0  0  0  0
    5.8694   -3.8104   -0.9866 H   0  0  0  0  0  0  0  0  0  0  0  0
    6.0569   -2.1159   -1.4780 H   0  0  0  0  0  0  0  0  0  0  0  0
  1 20  1  0  0  0  0
  2 19  2  0  0  0  0
  3 16  1  0  0  0  0
  3 19  1  0  0  0  0
  3 39  1  0  0  0  0
  4  5  1  0  0  0  0
  4 17  1  0  0  0  0
  4 22  1  0  0  0  0
  5 18  2  0  0  0  0
  6  7  1  0  0  0  0
  6  8  1  0  0  0  0
  6  9  1  0  0  0  0
  6 10  1  0  0  0  0
  7 11  2  0  0  0  0
  7 12  1  0  0  0  0
  8 24  1  0  0  0  0
  8 25  1  0  0  0  0
  8 26  1  0  0  0  0
  9 27  1  0  0  0  0
  9 28  1  0  0  0  0
  9 29  1  0  0  0  0
 10 30  1  0  0  0  0
 10 31  1  0  0  0  0
 10 32  1  0  0  0  0
 11 14  1  0  0  0  0
 11 33  1  0  0  0  0
 12 15  2  0  0  0  0
 12 34  1  0  0  0  0
 13 14  2  0  0  0  0
 13 15  1  0  0  0  0
 13 16  1  0  0  0  0
 14 35  1  0  0  0  0
 15 36  1  0  0  0  0
 16 37  1  0  0  0  0
 16 38  1  0  0  0  0
 17 19  1  0  0  0  0
 17 20  2  0  0  0  0
 18 20  1  0  0  0  0
 18 21  1  0  0  0  0
 21 23  1  0  0  0  0
 21 40  1  0  0  0  0
 21 41  1  0  0  0  0
 22 42  1  0  0  0  0
 22 43  1  0  0  0  0
 22 44  1  0  0  0  0
 23 45  1  0  0  0  0
 23 46  1  0  0  0  0
 23 47  1  0  0  0  0
M  END
> <PUBCHEM_COMPOUND_CID>
86354

> <PUBCHEM_CONFORMER_RMSD>
0.8

> <PUBCHEM_CONFORMER_DIVERSEORDER>
1
3
5
11
8
15
18
14
21
13
20
22
9
10
2
17
19
4
7
6
16
12

> <PUBCHEM_MMFF94_PARTIAL_CHARGES>
24
1 -0.12
11 -0.15
12 -0.15
13 -0.14
14 -0.15
15 -0.15
16 0.44
17 -0.24
18 0.11
19 0.71
2 -0.57
20 0.12
21 0.18
22 0.26
3 -0.73
33 0.15
34 0.15
35 0.15
36 0.15
39 0.37
4 0.31
5 -0.71
6 0.14
7 -0.14

> <PUBCHEM_EFFECTIVE_ROTOR_COUNT>
6

> <PUBCHEM_PHARMACOPHORE_FEATURES>
7
1 2 acceptor
1 23 hydrophobe
1 3 donor
1 5 acceptor
4 6 8 9 10 hydrophobe
5 4 5 17 18 20 rings
6 7 11 12 13 14 15 rings

> <PUBCHEM_HEAVY_ATOM_COUNT>
23

> <PUBCHEM_ATOM_DEF_STEREO_COUNT>
0

> <PUBCHEM_ATOM_UDEF_STEREO_COUNT>
0

> <PUBCHEM_BOND_DEF_STEREO_COUNT>
0

> <PUBCHEM_BOND_UDEF_STEREO_COUNT>
0

> <PUBCHEM_ISOTOPIC_ATOM_COUNT>
0

> <PUBCHEM_COMPONENT_COUNT>
1

> <PUBCHEM_CACTVS_TAUTO_COUNT>
2

> <PUBCHEM_CONFORMER_ID>
0001515200000001

> <PUBCHEM_MMFF94_ENERGY>
53.052

> <PUBCHEM_FEATURE_SELFOVERLAP>
35.52

> <PUBCHEM_SHAPE_FINGERPRINT>
10692045 39 5039400921058064140
11089746 13 7637410613764558708
11578080 2 16952555485351217994
12107183 9 17972306584842147793
12236239 1 18040716944386597881
12596602 18 17603864447531569427
12623949 98 18334568053912767366
12633257 1 16805608040524879821
12892183 10 18259706691875098856
13103583 49 18040705987851186193
13402501 40 18201998820128617891
13464513 79 18201440259567878000
13533116 47 18335139765145570497
13544653 18 18412827996900076972
13551218 46 18335421270603965487
13583140 156 18260555498531728669
13911882 115 18272649000632970280
13914758 101 18187088378189919349
14251764 30 18189891101437258718
14341114 176 18409162212574873227
14341114 328 17313100817884858873
14386348 63 17917996061990385825
15183329 4 10807945868256422315
15375462 189 18113345197538665208
15537594 2 18260268512568002676
15880784 105 18334292063524741355
16994733 274 14636296811293236776
17870717 6 16988566805963189263
1813 80 17418092105258556781
193927 3 17988920059561273117
20028762 73 18260552246703857446
20403669 9 18060138747575580467
21033650 10 15984267477003126484
21065198 48 18186798080443255145
212916 134 14490471980513328277
21623969 137 18412548678376412778
221490 88 18339650061444535364
22393880 68 17845665879041614490
23559900 14 18342462496219429881
239999 70 17988929942529142592
2871803 45 17917717915212409562
314194 84 18334864874369438316
34797466 226 16917060040990447820
3737641 26 17971751335891967766
5104073 3 18263936586685762384
5758199 1 18043255648375093176
636775 8 18119239817869921366
8863177 126 18413668019810717794

> <PUBCHEM_SHAPE_MULTIPOLES>
454.39
14.61
2.78
1.32
3.72
0.65
-0.24
8.88
2.68
-3.3
-0.05
1.11
-0.01
1.29

> <PUBCHEM_SHAPE_SELFOVERLAP>
944.763

> <PUBCHEM_SHAPE_VOLUME>
263.5

> <PUBCHEM_COORDINATE_TYPE>
2
5
10

$$$$

