5281077
  -OEChem-07051212543D

 18 17  0     1  0  0  0  0  0999 V2000
    3.4322   -0.7800    0.3294 Cl  0  0  0  0  0  0  0  0  0  0  0  0
   -0.5334    0.2908   -1.5661 O   0  0  0  0  0  0  0  0  0  0  0  0
   -0.5762    0.0971   -0.1512 C   0  0  2  0  0  0  0  0  0  0  0  0
   -1.1128    1.3857    0.5103 C   0  0  0  0  0  0  0  0  0  0  0  0
   -0.2074    2.6017    0.3339 C   0  0  0  0  0  0  0  0  0  0  0  0
    0.7971   -0.2615    0.3771 C   0  0  0  0  0  0  0  0  0  0  0  0
   -1.4858   -1.0310    0.1402 C   0  0  0  0  0  0  0  0  0  0  0  0
    1.9157   -0.3589   -0.3497 C   0  0  0  0  0  0  0  0  0  0  0  0
   -2.2295   -1.9439    0.3760 C   0  0  0  0  0  0  0  0  0  0  0  0
   -2.0928    1.6354    0.0814 H   0  0  0  0  0  0  0  0  0  0  0  0
   -1.2737    1.2255    1.5848 H   0  0  0  0  0  0  0  0  0  0  0  0
    0.7529    2.4676    0.8406 H   0  0  0  0  0  0  0  0  0  0  0  0
   -0.6860    3.4872    0.7647 H   0  0  0  0  0  0  0  0  0  0  0  0
   -0.0171    2.8055   -0.7244 H   0  0  0  0  0  0  0  0  0  0  0  0
    0.8604   -0.4469    1.4495 H   0  0  0  0  0  0  0  0  0  0  0  0
   -1.4187    0.5634   -1.8630 H   0  0  0  0  0  0  0  0  0  0  0  0
    1.9784   -0.1935   -1.4162 H   0  0  0  0  0  0  0  0  0  0  0  0
   -2.8891   -2.7534    0.5852 H   0  0  0  0  0  0  0  0  0  0  0  0
  1  8  1  0  0  0  0
  2  3  1  0  0  0  0
  2 16  1  0  0  0  0
  3  4  1  0  0  0  0
  3  6  1  0  0  0  0
  3  7  1  0  0  0  0
  4  5  1  0  0  0  0
  4 10  1  0  0  0  0
  4 11  1  0  0  0  0
  5 12  1  0  0  0  0
  5 13  1  0  0  0  0
  5 14  1  0  0  0  0
  6  8  2  0  0  0  0
  6 15  1  0  0  0  0
  7  9  3  0  0  0  0
  8 17  1  0  0  0  0
  9 18  1  0  0  0  0
M  END
> <PUBCHEM_COMPOUND_CID>
5281077

> <PUBCHEM_CONFORMER_RMSD>
0.4

> <PUBCHEM_CONFORMER_DIVERSEORDER>
1
9
4
5
10
3
7
2
8
6

> <PUBCHEM_MMFF94_PARTIAL_CHARGES>
11
1 -0.14
15 0.15
16 0.4
17 0.15
18 0.18
2 -0.68
3 0.62
6 -0.29
7 -0.2
8 -0.01
9 -0.18

> <PUBCHEM_EFFECTIVE_ROTOR_COUNT>
2

> <PUBCHEM_PHARMACOPHORE_FEATURES>
4
1 2 acceptor
1 2 donor
1 5 hydrophobe
1 9 hydrophobe

> <PUBCHEM_HEAVY_ATOM_COUNT>
9

> <PUBCHEM_ATOM_DEF_STEREO_COUNT>
0

> <PUBCHEM_ATOM_UDEF_STEREO_COUNT>
1

> <PUBCHEM_BOND_DEF_STEREO_COUNT>
1

> <PUBCHEM_BOND_UDEF_STEREO_COUNT>
0

> <PUBCHEM_ISOTOPIC_ATOM_COUNT>
0

> <PUBCHEM_COMPONENT_COUNT>
1

> <PUBCHEM_CACTVS_TAUTO_COUNT>
1

> <PUBCHEM_CONFORMER_ID>
0050953500000001

> <PUBCHEM_MMFF94_ENERGY>
7.8045

> <PUBCHEM_FEATURE_SELFOVERLAP>
20.297

> <PUBCHEM_SHAPE_FINGERPRINT>
100427 49 18188782625858982912
12716758 59 18046624787734630626
12932764 1 17417246684317965698
13024252 1 13613945773062689428
14128692 85 17845085169219355598
20871998 184 18187362164056935574
21040471 1 17905317786430899376
21524375 3 17250061688796205928
23211744 41 17393317032718978749
23552449 1 18408884066092438856
23552449 11 17975969865448758867
29004967 10 18191305983316437907
528862 383 17758964714135177128

> <PUBCHEM_SHAPE_MULTIPOLES>
181.22
3.58
2.25
0.91
3.74
1.29
-0.28
-2.29
0.55
-1.42
0.47
-0.08
0.06
0.03

> <PUBCHEM_SHAPE_SELFOVERLAP>
333.105

> <PUBCHEM_SHAPE_VOLUME>
115.6

> <PUBCHEM_COORDINATE_TYPE>
2
5
10

$$$$

