17396224
  -OEChem-06241222553D

 50 52  0     0  0  0  0  0  0999 V2000
    1.2624    2.4561   -1.2732 Cl  0  0  0  0  0  0  0  0  0  0  0  0
   -4.7006    1.9832    1.0505 O   0  0  0  0  0  0  0  0  0  0  0  0
    4.0211    1.6212   -1.4695 O   0  0  0  0  0  0  0  0  0  0  0  0
   -8.0351   -0.5270   -1.7106 O   0  0  0  0  0  0  0  0  0  0  0  0
   -0.1041    0.3398    0.5509 N   0  0  0  0  0  0  0  0  0  0  0  0
   -2.8551    0.8489    0.2131 N   0  0  0  0  0  0  0  0  0  0  0  0
    4.0017   -0.2074   -0.0039 N   0  0  0  0  0  0  0  0  0  0  0  0
    3.2465   -1.0687    0.7482 N   0  0  0  0  0  0  0  0  0  0  0  0
   -7.3777   -1.0514    0.4612 N   0  0  0  0  0  0  0  0  0  0  0  0
   -0.7042    1.4917    1.2282 C   0  0  0  0  0  0  0  0  0  0  0  0
   -1.0121   -0.7859    0.3184 C   0  0  0  0  0  0  0  0  0  0  0  0
   -1.9347    1.9617    0.4561 C   0  0  0  0  0  0  0  0  0  0  0  0
   -2.2444   -0.3104   -0.4497 C   0  0  0  0  0  0  0  0  0  0  0  0
    1.2294    0.2713    0.2715 C   0  0  0  0  0  0  0  0  0  0  0  0
   -4.2024    0.9729    0.5473 C   0  0  0  0  0  0  0  0  0  0  0  0
   -5.0794   -0.2212    0.2672 C   0  0  0  0  0  0  0  0  0  0  0  0
    1.9683    1.0873   -0.4828 C   0  0  0  0  0  0  0  0  0  0  0  0
    1.9837   -0.8413    0.8620 C   0  0  0  0  0  0  0  0  0  0  0  0
   -6.5061    0.0706    0.6837 C   0  0  0  0  0  0  0  0  0  0  0  0
    3.4305    0.8675   -0.6961 C   0  0  0  0  0  0  0  0  0  0  0  0
    5.4054   -0.5413   -0.0149 C   0  0  0  0  0  0  0  0  0  0  0  0
   -8.0722   -1.2566   -0.7232 C   0  0  0  0  0  0  0  0  0  0  0  0
    6.3600    0.4631   -0.1758 C   0  0  0  0  0  0  0  0  0  0  0  0
    5.8082   -1.8684    0.1360 C   0  0  0  0  0  0  0  0  0  0  0  0
    7.7170    0.1406   -0.1861 C   0  0  0  0  0  0  0  0  0  0  0  0
    7.1653   -2.1907    0.1258 C   0  0  0  0  0  0  0  0  0  0  0  0
   -8.8910   -2.5193   -0.6991 C   0  0  0  0  0  0  0  0  0  0  0  0
    8.1196   -1.1862   -0.0353 C   0  0  0  0  0  0  0  0  0  0  0  0
    0.0029    2.3202    1.3476 H   0  0  0  0  0  0  0  0  0  0  0  0
   -0.9985    1.1849    2.2399 H   0  0  0  0  0  0  0  0  0  0  0  0
   -1.3106   -1.2102    1.2849 H   0  0  0  0  0  0  0  0  0  0  0  0
   -0.5234   -1.5831   -0.2547 H   0  0  0  0  0  0  0  0  0  0  0  0
   -1.6551    2.3622   -0.5245 H   0  0  0  0  0  0  0  0  0  0  0  0
   -2.4323    2.7653    1.0080 H   0  0  0  0  0  0  0  0  0  0  0  0
   -1.9605    0.0162   -1.4577 H   0  0  0  0  0  0  0  0  0  0  0  0
   -2.9445   -1.1396   -0.5621 H   0  0  0  0  0  0  0  0  0  0  0  0
   -5.0464   -0.4504   -0.8039 H   0  0  0  0  0  0  0  0  0  0  0  0
   -4.7003   -1.0858    0.8239 H   0  0  0  0  0  0  0  0  0  0  0  0
    1.4000   -1.5440    1.4801 H   0  0  0  0  0  0  0  0  0  0  0  0
   -6.9013    0.9344    0.1359 H   0  0  0  0  0  0  0  0  0  0  0  0
   -6.5602    0.3037    1.7532 H   0  0  0  0  0  0  0  0  0  0  0  0
   -7.4699   -1.7321    1.2097 H   0  0  0  0  0  0  0  0  0  0  0  0
    6.0887    1.5107   -0.2581 H   0  0  0  0  0  0  0  0  0  0  0  0
    5.0906   -2.6766    0.2486 H   0  0  0  0  0  0  0  0  0  0  0  0
    8.4609    0.9234   -0.3029 H   0  0  0  0  0  0  0  0  0  0  0  0
    7.4793   -3.2242    0.2402 H   0  0  0  0  0  0  0  0  0  0  0  0
   -8.2282   -3.3839   -0.7913 H   0  0  0  0  0  0  0  0  0  0  0  0
   -9.5979   -2.5155   -1.5334 H   0  0  0  0  0  0  0  0  0  0  0  0
   -9.4547   -2.5901    0.2356 H   0  0  0  0  0  0  0  0  0  0  0  0
    9.1763   -1.4372   -0.0418 H   0  0  0  0  0  0  0  0  0  0  0  0
  1 17  1  0  0  0  0
  2 15  2  0  0  0  0
  3 20  2  0  0  0  0
  4 22  2  0  0  0  0
  5 10  1  0  0  0  0
  5 11  1  0  0  0  0
  5 14  1  0  0  0  0
  6 12  1  0  0  0  0
  6 13  1  0  0  0  0
  6 15  1  0  0  0  0
  7  8  1  0  0  0  0
  7 20  1  0  0  0  0
  7 21  1  0  0  0  0
  8 18  2  0  0  0  0
  9 19  1  0  0  0  0
  9 22  1  0  0  0  0
  9 42  1  0  0  0  0
 10 12  1  0  0  0  0
 10 29  1  0  0  0  0
 10 30  1  0  0  0  0
 11 13  1  0  0  0  0
 11 31  1  0  0  0  0
 11 32  1  0  0  0  0
 12 33  1  0  0  0  0
 12 34  1  0  0  0  0
 13 35  1  0  0  0  0
 13 36  1  0  0  0  0
 14 17  2  0  0  0  0
 14 18  1  0  0  0  0
 15 16  1  0  0  0  0
 16 19  1  0  0  0  0
 16 37  1  0  0  0  0
 16 38  1  0  0  0  0
 17 20  1  0  0  0  0
 18 39  1  0  0  0  0
 19 40  1  0  0  0  0
 19 41  1  0  0  0  0
 21 23  2  0  0  0  0
 21 24  1  0  0  0  0
 22 27  1  0  0  0  0
 23 25  1  0  0  0  0
 23 43  1  0  0  0  0
 24 26  2  0  0  0  0
 24 44  1  0  0  0  0
 25 28  2  0  0  0  0
 25 45  1  0  0  0  0
 26 28  1  0  0  0  0
 26 46  1  0  0  0  0
 27 47  1  0  0  0  0
 27 48  1  0  0  0  0
 27 49  1  0  0  0  0
 28 50  1  0  0  0  0
M  END
> <PUBCHEM_COMPOUND_CID>
17396224

> <PUBCHEM_CONFORMER_RMSD>
1

> <PUBCHEM_CONFORMER_DIVERSEORDER>
1
33
4
5
8
24
13
27
37
12
26
18
10
2
25
17
35
9
6
34
23
30
32
19
39
15
29
14
22
16
38
3
21
28
20
11
36
31
7

> <PUBCHEM_MMFF94_PARTIAL_CHARGES>
35
1 -0.14
10 0.37
11 0.37
12 0.3
13 0.3
14 0.11
15 0.57
16 0.06
17 0.15
18 0.38
19 0.3
2 -0.57
20 0.62
21 0.12
22 0.57
23 -0.15
24 -0.15
25 -0.15
26 -0.15
27 0.06
28 -0.15
3 -0.57
39 0.06
4 -0.57
42 0.37
43 0.15
44 0.15
45 0.15
46 0.15
5 -0.84
50 0.15
6 -0.66
7 -0.11
8 -0.51
9 -0.73

> <PUBCHEM_EFFECTIVE_ROTOR_COUNT>
8.2

> <PUBCHEM_PHARMACOPHORE_FEATURES>
9
1 2 acceptor
1 3 acceptor
1 4 acceptor
1 5 cation
1 8 acceptor
1 9 donor
6 21 23 24 25 26 28 rings
6 5 6 10 11 12 13 rings
6 7 8 14 17 18 20 rings

> <PUBCHEM_HEAVY_ATOM_COUNT>
28

> <PUBCHEM_ATOM_DEF_STEREO_COUNT>
0

> <PUBCHEM_ATOM_UDEF_STEREO_COUNT>
0

> <PUBCHEM_BOND_DEF_STEREO_COUNT>
0

> <PUBCHEM_BOND_UDEF_STEREO_COUNT>
0

> <PUBCHEM_ISOTOPIC_ATOM_COUNT>
0

> <PUBCHEM_COMPONENT_COUNT>
1

> <PUBCHEM_CACTVS_TAUTO_COUNT>
2

> <PUBCHEM_CONFORMER_ID>
0109720000000001

> <PUBCHEM_MMFF94_ENERGY>
83.5197

> <PUBCHEM_FEATURE_SELFOVERLAP>
45.669

> <PUBCHEM_SHAPE_FINGERPRINT>
10 15 8502379940948305847
10162869 55 18343865498989234508
10299344 5 18334574654892235939
106641 1 17603589617169939352
11386260 185 16916781838657712548
11456790 92 5617259174485121990
12166972 35 18411133632391904736
12236239 1 18410288155584603640
12516196 113 18412823616882735088
12592606 108 18411420583852590847
13073987 5 15285904927506460747
13862211 1 18333167259272162009
14170010 4 18131347502053081932
14178184 131 17823140026175515295
14251764 18 18408881841336133846
15183329 4 17489869357969483336
15198563 99 16271647909750524262
15690457 1 18408042914027762506
15849732 13 18413106177937214398
16120349 18 18271805680211599092
16728433 281 15553344664517596215
1768 124 18260827150702014422
18681886 176 18411141333151592064
21095123 145 16008751290630258509
21130935 74 17969218013909418906
21267235 1 18343294894818698176
21315759 40 18334007294434403193
21315763 28 18335137618047050848
22224240 67 5184341893827151116
23522609 53 18045749405145336785
23559900 14 18059287665166747073
23569917 315 18334568083983592414
23569943 247 17764583614587858218
23576562 1 16056302917969013071
249057 25 18339063952389897541
249057 3 17632574920878594971
3178227 256 4678815056437526834
335352 9 18131625682932184598
34797466 226 17312817183368143616
3633792 109 17917995001054498233
3711267 37 10159698040515502255
4093350 32 7925639894984642028
4339292 15 17095252398243018695
4340502 62 16081369691923414612
5283156 175 18410008849064957433
54039377 194 18335141965171347423
9953998 17 13912324565326524175
9962374 69 17241057496566639869

> <PUBCHEM_SHAPE_MULTIPOLES>
535.58
26.87
2.23
1.07
23.1
0.04
0.19
-19.22
5.09
0.59
0.29
0.94
0.29
-2.3

> <PUBCHEM_SHAPE_SELFOVERLAP>
1119.036

> <PUBCHEM_SHAPE_VOLUME>
301.2

> <PUBCHEM_COORDINATE_TYPE>
2
5
10

$$$$

