5299
  -OEChem-06261200372D

 33 32  0     1  0  0  0  0  0999 V2000
    7.1962    1.3450    0.0000 O   0  0  0  0  0  0  0  0  0  0  0  0
    8.0622   -1.1550    0.0000 O   0  0  0  0  0  0  0  0  0  0  0  0
    8.9282    1.3450    0.0000 O   0  0  0  0  0  0  0  0  0  0  0  0
   10.6603    0.3450    0.0000 O   0  0  0  0  0  0  0  0  0  0  0  0
    5.4641   -1.6550    0.0000 O   0  0  0  0  0  0  0  0  0  0  0  0
    4.5981   -1.1550    0.0000 O   0  0  0  0  0  0  0  0  0  0  0  0
    2.0000    0.3450    0.0000 O   0  0  0  0  0  0  0  0  0  0  0  0
    5.4641    0.3450    0.0000 N   0  0  0  0  0  0  0  0  0  0  0  0
    3.7320    0.3450    0.0000 N   0  0  0  0  0  0  0  0  0  0  0  0
    2.8660   -0.1550    0.0000 N   0  0  0  0  0  0  0  0  0  0  0  0
    7.1962    0.3450    0.0000 C   0  0  3  0  0  0  0  0  0  0  0  0
    8.0622   -0.1550    0.0000 C   0  0  3  0  0  0  0  0  0  0  0  0
    6.3301   -0.1550    0.0000 C   0  0  3  0  0  0  0  0  0  0  0  0
    8.9282    0.3450    0.0000 C   0  0  3  0  0  0  0  0  0  0  0  0
    9.7942   -0.1550    0.0000 C   0  0  0  0  0  0  0  0  0  0  0  0
    6.3301   -1.1550    0.0000 C   0  0  0  0  0  0  0  0  0  0  0  0
    4.5981   -0.1550    0.0000 C   0  0  0  0  0  0  0  0  0  0  0  0
    3.7320    1.3450    0.0000 C   0  0  0  0  0  0  0  0  0  0  0  0
    6.4600    0.7700    0.0000 H   0  0  0  0  0  0  0  0  0  0  0  0
    7.3261   -0.5800    0.0000 H   0  0  0  0  0  0  0  0  0  0  0  0
    5.5940   -0.5800    0.0000 H   0  0  0  0  0  0  0  0  0  0  0  0
    9.6643    0.7700    0.0000 H   0  0  0  0  0  0  0  0  0  0  0  0
    9.3957   -0.6299    0.0000 H   0  0  0  0  0  0  0  0  0  0  0  0
   10.1928   -0.6299    0.0000 H   0  0  0  0  0  0  0  0  0  0  0  0
    5.4641    0.9650    0.0000 H   0  0  0  0  0  0  0  0  0  0  0  0
    6.8671   -1.4650    0.0000 H   0  0  0  0  0  0  0  0  0  0  0  0
    7.7331    1.6550    0.0000 H   0  0  0  0  0  0  0  0  0  0  0  0
    8.5991   -1.4650    0.0000 H   0  0  0  0  0  0  0  0  0  0  0  0
    9.4651    1.6550    0.0000 H   0  0  0  0  0  0  0  0  0  0  0  0
   11.1972    0.0350    0.0000 H   0  0  0  0  0  0  0  0  0  0  0  0
    4.3520    1.3450    0.0000 H   0  0  0  0  0  0  0  0  0  0  0  0
    3.7320    1.9650    0.0000 H   0  0  0  0  0  0  0  0  0  0  0  0
    3.1120    1.3450    0.0000 H   0  0  0  0  0  0  0  0  0  0  0  0
  1 11  1  0  0  0  0
  1 27  1  0  0  0  0
  2 12  1  0  0  0  0
  2 28  1  0  0  0  0
  3 14  1  0  0  0  0
  3 29  1  0  0  0  0
  4 15  1  0  0  0  0
  4 30  1  0  0  0  0
  5 16  2  0  0  0  0
  6 17  2  0  0  0  0
  7 10  2  0  0  0  0
  8 13  1  0  0  0  0
  8 17  1  0  0  0  0
  8 25  1  0  0  0  0
  9 10  1  0  0  0  0
  9 17  1  0  0  0  0
  9 18  1  0  0  0  0
 11 12  1  0  0  0  0
 11 13  1  0  0  0  0
 11 19  1  0  0  0  0
 12 14  1  0  0  0  0
 12 20  1  0  0  0  0
 13 16  1  0  0  0  0
 13 21  1  0  0  0  0
 14 15  1  0  0  0  0
 14 22  1  0  0  0  0
 15 23  1  0  0  0  0
 15 24  1  0  0  0  0
 16 26  1  0  0  0  0
 18 31  1  0  0  0  0
 18 32  1  0  0  0  0
 18 33  1  0  0  0  0
M  END
> <PUBCHEM_COMPOUND_CID>
5299

> <PUBCHEM_COMPOUND_CANONICALIZED>
1

> <PUBCHEM_CACTVS_COMPLEXITY>
300

> <PUBCHEM_CACTVS_HBOND_ACCEPTOR>
8

> <PUBCHEM_CACTVS_HBOND_DONOR>
5

> <PUBCHEM_CACTVS_ROTATABLE_BOND>
6

> <PUBCHEM_CACTVS_SUBSKEYS>
AAADccBzOAAAAAAAAAAAAAAAAAAAAAAAAAAAAAAAAAAAAAAAAAAAHgAcCAAACDzhgAYDAALAAgAJAAgQkAAAAAAAAAAGAIGIAACDEBYAgCAEQAAfNgIRAAH6XANAAAAAAAAAAAAAAAAAAAAAAAAAAAAAAA==

> <PUBCHEM_IUPAC_OPENEYE_NAME>
3-(1-formyl-2,3,4,5-tetrahydroxy-pentyl)-1-methyl-1-nitroso-urea

> <PUBCHEM_IUPAC_CAS_NAME>
1-methyl-1-nitroso-3-(3,4,5,6-tetrahydroxy-1-oxohexan-2-yl)urea

> <PUBCHEM_IUPAC_NAME>
1-methyl-1-nitroso-3-(3,4,5,6-tetrahydroxy-1-oxohexan-2-yl)urea

> <PUBCHEM_IUPAC_SYSTEMATIC_NAME>
1-methyl-1-nitroso-3-[3,4,5,6-tetrakis(oxidanyl)-1-oxidanylidene-hexan-2-yl]urea

> <PUBCHEM_IUPAC_TRADITIONAL_NAME>
3-(1-formyl-2,3,4,5-tetrahydroxy-pentyl)-1-methyl-1-nitroso-urea

> <PUBCHEM_IUPAC_INCHI>
InChI=1S/C8H15N3O7/c1-11(10-18)8(17)9-4(2-12)6(15)7(16)5(14)3-13/h2,4-7,13-16H,3H2,1H3,(H,9,17)

> <PUBCHEM_IUPAC_INCHIKEY>
AGRCPNMCOXLKFO-UHFFFAOYSA-N

> <PUBCHEM_XLOGP3_AA>
-3.2

> <PUBCHEM_EXACT_MASS>
265.091

> <PUBCHEM_MOLECULAR_FORMULA>
C8H15N3O7

> <PUBCHEM_MOLECULAR_WEIGHT>
265.2206

> <PUBCHEM_OPENEYE_CAN_SMILES>
CN(C(=O)NC(C=O)C(C(C(CO)O)O)O)N=O

> <PUBCHEM_OPENEYE_ISO_SMILES>
CN(C(=O)NC(C=O)C(C(C(CO)O)O)O)N=O

> <PUBCHEM_CACTVS_TPSA>
160

> <PUBCHEM_MONOISOTOPIC_WEIGHT>
265.091

> <PUBCHEM_TOTAL_CHARGE>
0

> <PUBCHEM_HEAVY_ATOM_COUNT>
18

> <PUBCHEM_ATOM_DEF_STEREO_COUNT>
0

> <PUBCHEM_ATOM_UDEF_STEREO_COUNT>
4

> <PUBCHEM_BOND_DEF_STEREO_COUNT>
0

> <PUBCHEM_BOND_UDEF_STEREO_COUNT>
0

> <PUBCHEM_ISOTOPIC_ATOM_COUNT>
0

> <PUBCHEM_COMPONENT_COUNT>
1

> <PUBCHEM_CACTVS_TAUTO_COUNT>
4

> <PUBCHEM_COORDINATE_TYPE>
1
5
255

> <PUBCHEM_BONDANNOTATIONS>
11  19  3
12  20  3
13  21  3
14  22  3

$$$$

