17396044
  -OEChem-06241222543D

 48 50  0     0  0  0  0  0  0999 V2000
   -3.3611    1.5349   -1.7739 O   0  0  0  0  0  0  0  0  0  0  0  0
    3.8330    1.4203    2.0763 O   0  5  0  0  0  0  0  0  0  0  0  0
    3.1161   -0.5723    2.6549 O   0  0  0  0  0  0  0  0  0  0  0  0
   -0.8041    1.2899   -0.3761 N   0  0  0  0  0  0  0  0  0  0  0  0
   -4.0751    0.5209    0.1898 N   0  0  0  0  0  0  0  0  0  0  0  0
    1.8411    0.2118   -0.3922 N   0  0  0  0  0  0  0  0  0  0  0  0
    3.6386    0.2081    1.8250 N   0  3  0  0  0  0  0  0  0  0  0  0
   -5.2630   -0.1030   -0.3388 C   0  0  0  0  0  0  0  0  0  0  0  0
   -4.9967   -1.5293   -0.8050 C   0  0  0  0  0  0  0  0  0  0  0  0
   -6.3249   -0.2921    0.7370 C   0  0  0  0  0  0  0  0  0  0  0  0
   -5.0951   -2.3826    0.4584 C   0  0  0  0  0  0  0  0  0  0  0  0
   -5.9124   -1.5697    1.4629 C   0  0  0  0  0  0  0  0  0  0  0  0
    0.3401    2.1248    0.0103 C   0  0  0  0  0  0  0  0  0  0  0  0
   -0.5659   -0.1011    0.0277 C   0  0  0  0  0  0  0  0  0  0  0  0
    1.6262    1.6391   -0.6622 C   0  0  0  0  0  0  0  0  0  0  0  0
    0.6907   -0.6615   -0.6432 C   0  0  0  0  0  0  0  0  0  0  0  0
   -2.0357    1.7961    0.2287 C   0  0  0  0  0  0  0  0  0  0  0  0
   -3.2160    1.2942   -0.5774 C   0  0  0  0  0  0  0  0  0  0  0  0
    3.1389   -0.2943   -0.5252 C   0  0  0  0  0  0  0  0  0  0  0  0
    4.0242   -0.3001    0.5527 C   0  0  0  0  0  0  0  0  0  0  0  0
    3.5420   -0.7989   -1.7616 C   0  0  0  0  0  0  0  0  0  0  0  0
    5.3127   -0.8107    0.3942 C   0  0  0  0  0  0  0  0  0  0  0  0
    4.8306   -1.3093   -1.9200 C   0  0  0  0  0  0  0  0  0  0  0  0
    5.7158   -1.3152   -0.8422 C   0  0  0  0  0  0  0  0  0  0  0  0
   -5.6404    0.5128   -1.1622 H   0  0  0  0  0  0  0  0  0  0  0  0
   -4.0310   -1.6520   -1.3060 H   0  0  0  0  0  0  0  0  0  0  0  0
   -5.7805   -1.8391   -1.5072 H   0  0  0  0  0  0  0  0  0  0  0  0
   -6.4084    0.5584    1.4209 H   0  0  0  0  0  0  0  0  0  0  0  0
   -7.3043   -0.4453    0.2670 H   0  0  0  0  0  0  0  0  0  0  0  0
   -5.5606   -3.3505    0.2456 H   0  0  0  0  0  0  0  0  0  0  0  0
   -4.0971   -2.5819    0.8652 H   0  0  0  0  0  0  0  0  0  0  0  0
   -5.2944   -1.3299    2.3361 H   0  0  0  0  0  0  0  0  0  0  0  0
   -6.7847   -2.1244    1.8229 H   0  0  0  0  0  0  0  0  0  0  0  0
    0.4706    2.1217    1.1010 H   0  0  0  0  0  0  0  0  0  0  0  0
    0.1698    3.1641   -0.2959 H   0  0  0  0  0  0  0  0  0  0  0  0
   -1.4103   -0.7383   -0.2601 H   0  0  0  0  0  0  0  0  0  0  0  0
   -0.4590   -0.1759    1.1186 H   0  0  0  0  0  0  0  0  0  0  0  0
   -3.8345    0.3312    1.1582 H   0  0  0  0  0  0  0  0  0  0  0  0
    2.4656    2.2381   -0.2895 H   0  0  0  0  0  0  0  0  0  0  0  0
    1.5687    1.7987   -1.7467 H   0  0  0  0  0  0  0  0  0  0  0  0
    0.5257   -0.7579   -1.7238 H   0  0  0  0  0  0  0  0  0  0  0  0
    0.8826   -1.6657   -0.2455 H   0  0  0  0  0  0  0  0  0  0  0  0
   -2.0859    2.8906    0.1563 H   0  0  0  0  0  0  0  0  0  0  0  0
   -2.1118    1.5469    1.2935 H   0  0  0  0  0  0  0  0  0  0  0  0
    2.8687   -0.7971   -2.6149 H   0  0  0  0  0  0  0  0  0  0  0  0
    6.0141   -0.8221    1.2250 H   0  0  0  0  0  0  0  0  0  0  0  0
    5.1451   -1.7008   -2.8830 H   0  0  0  0  0  0  0  0  0  0  0  0
    6.7191   -1.7123   -0.9659 H   0  0  0  0  0  0  0  0  0  0  0  0
  1 18  2  0  0  0  0
  2  7  1  0  0  0  0
  3  7  2  0  0  0  0
  4 13  1  0  0  0  0
  4 14  1  0  0  0  0
  4 17  1  0  0  0  0
  5  8  1  0  0  0  0
  5 18  1  0  0  0  0
  5 38  1  0  0  0  0
  6 15  1  0  0  0  0
  6 16  1  0  0  0  0
  6 19  1  0  0  0  0
  7 20  1  0  0  0  0
  8  9  1  0  0  0  0
  8 10  1  0  0  0  0
  8 25  1  0  0  0  0
  9 11  1  0  0  0  0
  9 26  1  0  0  0  0
  9 27  1  0  0  0  0
 10 12  1  0  0  0  0
 10 28  1  0  0  0  0
 10 29  1  0  0  0  0
 11 12  1  0  0  0  0
 11 30  1  0  0  0  0
 11 31  1  0  0  0  0
 12 32  1  0  0  0  0
 12 33  1  0  0  0  0
 13 15  1  0  0  0  0
 13 34  1  0  0  0  0
 13 35  1  0  0  0  0
 14 16  1  0  0  0  0
 14 36  1  0  0  0  0
 14 37  1  0  0  0  0
 15 39  1  0  0  0  0
 15 40  1  0  0  0  0
 16 41  1  0  0  0  0
 16 42  1  0  0  0  0
 17 18  1  0  0  0  0
 17 43  1  0  0  0  0
 17 44  1  0  0  0  0
 19 20  1  0  0  0  0
 19 21  2  0  0  0  0
 20 22  2  0  0  0  0
 21 23  1  0  0  0  0
 21 45  1  0  0  0  0
 22 24  1  0  0  0  0
 22 46  1  0  0  0  0
 23 24  2  0  0  0  0
 23 47  1  0  0  0  0
 24 48  1  0  0  0  0
M  CHG  2   2  -1   7   1
M  END
> <PUBCHEM_COMPOUND_CID>
17396044

> <PUBCHEM_CONFORMER_RMSD>
0.8

> <PUBCHEM_CONFORMER_DIVERSEORDER>
2
192
153
88
208
209
84
75
187
194
131
207
141
120
129
152
203
181
154
212
147
161
81
199
98
143
104
151
44
148
24
146
159
45
158
48
97
93
142
205
168
204
127
170
155
167
180
121
174
136
195
78
206
82
166
130
128
122
40
183
163
31
50
193
66
38
92
105
115
134
113
171
29
49
87
43
201
6
65
190
34
145
123
67
139
138
186
80
46
101
196
55
112
175
172
77
111
179
72
90
36
189
91
35
182
73
59
132
135
102
69
144
64
107
8
133
126
109
160
137
185
149
70
176
119
211
12
16
198
188
68
76
108
30
52
114
10
165
140
85
210
57
61
156
150
103
162
74
21
117
178
54
62
110
125
83
63
18
124
5
79
17
20
191
47
184
60
26
56
157
99
25
37
39
13
86
53
94
71
23
96
118
41
14
58
173
51
169
89
177
164
19
27
95
28
42
7
1
100
9
4
197
33
32
3
11
200
116
106
202
15
22

> <PUBCHEM_MMFF94_PARTIAL_CHARGES>
25
1 -0.57
13 0.27
14 0.27
15 0.37
16 0.37
17 0.33
18 0.57
19 0.1
2 -0.52
20 0.13
21 -0.15
22 -0.15
23 -0.15
24 -0.15
3 -0.52
38 0.37
4 -0.81
45 0.15
46 0.15
47 0.15
48 0.15
5 -0.73
6 -0.84
7 0.91
8 0.3

> <PUBCHEM_EFFECTIVE_ROTOR_COUNT>
8.2

> <PUBCHEM_PHARMACOPHORE_FEATURES>
10
1 1 acceptor
1 2 acceptor
1 2 anion
1 3 acceptor
1 4 cation
1 5 donor
1 6 cation
5 8 9 10 11 12 rings
6 19 20 21 22 23 24 rings
6 4 6 13 14 15 16 rings

> <PUBCHEM_HEAVY_ATOM_COUNT>
24

> <PUBCHEM_ATOM_DEF_STEREO_COUNT>
0

> <PUBCHEM_ATOM_UDEF_STEREO_COUNT>
0

> <PUBCHEM_BOND_DEF_STEREO_COUNT>
0

> <PUBCHEM_BOND_UDEF_STEREO_COUNT>
0

> <PUBCHEM_ISOTOPIC_ATOM_COUNT>
0

> <PUBCHEM_COMPONENT_COUNT>
1

> <PUBCHEM_CACTVS_TAUTO_COUNT>
2

> <PUBCHEM_CONFORMER_ID>
0109714C00000002

> <PUBCHEM_MMFF94_ENERGY>
72.816

> <PUBCHEM_FEATURE_SELFOVERLAP>
50.828

> <PUBCHEM_SHAPE_FINGERPRINT>
10693767 8 16486135175474282442
11069576 57 16486424307749538106
11135609 149 13685206183027523210
11545043 162 18114463465056410456
11552529 35 14781267440041233445
11796584 16 18272656757591917405
12035758 1 17531825644519230946
12236239 1 17489586814004591902
12422481 6 17894347761658012391
12616971 3 15430042062432740980
13782708 43 18115586097226630454
14341114 176 16370727067161351656
14849402 71 15792312410060728986
14950920 106 16443063885587019867
15142383 8 15502650563346322634
15183329 4 14692574316811171211
15348495 7 17530685381724636515
15537594 2 17917706929329755355
15880784 105 17095245791929578991
17138139 8 17560520599299876731
17349148 13 17917708015555424151
17844677 252 17240479234516952345
17857418 61 17489596653621757913
18222031 100 18201718461632167020
18927931 339 18202559575975853039
193927 3 18409161113126718069
20028762 73 18261672584807263639
20281389 69 7781516988693896615
21033648 29 17531825652127795753
21054139 6 17489585684354716978
21150785 3 16630233745440227222
21585481 104 14117259239077972075
220451 1 17274821398110846409
2303208 19 18260264178671882646
23522609 53 17700095998771241981
23559900 14 18271241617344475341
23569914 152 12027911211032223483
25122255 55 18335976528144359039
2838139 119 10087652451137116847
3004659 81 18059571369779694509
312425 54 17385718093775900111
351380 3 18131347505973398939
4015057 19 14908170963084708661
439807 62 16845287204044095123
5104073 3 17822855411006875024
7495541 125 18409727344134563980
8863177 126 18040713675684845326
960060 61 16200432472462170556

> <PUBCHEM_SHAPE_MULTIPOLES>
456.38
16.18
2.07
1.76
10.65
0.24
-0.73
-9.32
-1.87
1.39
0.16
-1.84
-0.12
2.1

> <PUBCHEM_SHAPE_SELFOVERLAP>
954.27

> <PUBCHEM_SHAPE_VOLUME>
259.1

> <PUBCHEM_COORDINATE_TYPE>
2
5
10

$$$$

