2809
  -OEChem-07051212522D

 33 35  0     1  0  0  0  0  0999 V2000
    8.9747   -0.1360    0.0000 Cl  0  0  0  0  0  0  0  0  0  0  0  0
    3.9304   -2.8430    0.0000 O   0  0  0  0  0  0  0  0  0  0  0  0
    2.6200   -0.2941    0.0000 O   0  0  0  0  0  0  0  0  0  0  0  0
    2.6200   -2.0262    0.0000 O   0  0  0  0  0  0  0  0  0  0  0  0
    5.5288   -2.2836    0.0000 N   0  0  0  0  0  0  0  0  0  0  0  0
    4.5539   -0.2592    0.0000 N   0  0  0  0  0  0  0  0  0  0  0  0
    6.3106   -0.6602    0.0000 C   0  0  0  0  0  0  0  0  0  0  0  0
    5.5288   -0.0367    0.0000 C   0  0  0  0  0  0  0  0  0  0  0  0
    6.3106   -1.6602    0.0000 C   0  0  0  0  0  0  0  0  0  0  0  0
    4.1200   -1.1602    0.0000 C   0  0  3  0  0  0  0  0  0  0  0  0
    5.7513    0.9383    0.0000 C   0  0  0  0  0  0  0  0  0  0  0  0
    4.5539   -2.0611    0.0000 C   0  0  0  0  0  0  0  0  0  0  0  0
    7.2046   -0.1255    0.0000 C   0  0  0  0  0  0  0  0  0  0  0  0
    7.2046   -2.1948    0.0000 C   0  0  0  0  0  0  0  0  0  0  0  0
    8.1106   -0.6393    0.0000 C   0  0  0  0  0  0  0  0  0  0  0  0
    8.1106   -1.6810    0.0000 C   0  0  0  0  0  0  0  0  0  0  0  0
    6.7069    1.2330    0.0000 C   0  0  0  0  0  0  0  0  0  0  0  0
    5.0183    1.6184    0.0000 C   0  0  0  0  0  0  0  0  0  0  0  0
    3.1200   -1.1602    0.0000 C   0  0  0  0  0  0  0  0  0  0  0  0
    6.9294    2.2079    0.0000 C   0  0  0  0  0  0  0  0  0  0  0  0
    5.2408    2.5934    0.0000 C   0  0  0  0  0  0  0  0  0  0  0  0
    6.1964    2.8881    0.0000 C   0  0  0  0  0  0  0  0  0  0  0  0
    3.7901   -0.6352    0.0000 H   0  0  0  0  0  0  0  0  0  0  0  0
    5.6668   -2.8881    0.0000 H   0  0  0  0  0  0  0  0  0  0  0  0
    7.1974    0.4945    0.0000 H   0  0  0  0  0  0  0  0  0  0  0  0
    7.1974   -2.8148    0.0000 H   0  0  0  0  0  0  0  0  0  0  0  0
    8.6464   -1.9930    0.0000 H   0  0  0  0  0  0  0  0  0  0  0  0
    7.1614    0.8113    0.0000 H   0  0  0  0  0  0  0  0  0  0  0  0
    4.4258    1.4357    0.0000 H   0  0  0  0  0  0  0  0  0  0  0  0
    7.5219    2.3907    0.0000 H   0  0  0  0  0  0  0  0  0  0  0  0
    4.7863    3.0151    0.0000 H   0  0  0  0  0  0  0  0  0  0  0  0
    6.3343    3.4926    0.0000 H   0  0  0  0  0  0  0  0  0  0  0  0
    2.0000   -0.2941    0.0000 H   0  0  0  0  0  0  0  0  0  0  0  0
  1 15  1  0  0  0  0
  2 12  2  0  0  0  0
  3 19  1  0  0  0  0
  3 33  1  0  0  0  0
  4 19  2  0  0  0  0
  5  9  1  0  0  0  0
  5 12  1  0  0  0  0
  5 24  1  0  0  0  0
  6  8  2  0  0  0  0
  6 10  1  0  0  0  0
  7  8  1  0  0  0  0
  7  9  2  0  0  0  0
  7 13  1  0  0  0  0
  8 11  1  0  0  0  0
  9 14  1  0  0  0  0
 10 12  1  0  0  0  0
 10 19  1  0  0  0  0
 10 23  1  0  0  0  0
 11 17  2  0  0  0  0
 11 18  1  0  0  0  0
 13 15  2  0  0  0  0
 13 25  1  0  0  0  0
 14 16  2  0  0  0  0
 14 26  1  0  0  0  0
 15 16  1  0  0  0  0
 16 27  1  0  0  0  0
 17 20  1  0  0  0  0
 17 28  1  0  0  0  0
 18 21  2  0  0  0  0
 18 29  1  0  0  0  0
 20 22  2  0  0  0  0
 20 30  1  0  0  0  0
 21 22  1  0  0  0  0
 21 31  1  0  0  0  0
 22 32  1  0  0  0  0
M  END
> <PUBCHEM_COMPOUND_CID>
2809

> <PUBCHEM_COMPOUND_CANONICALIZED>
1

> <PUBCHEM_CACTVS_COMPLEXITY>
488

> <PUBCHEM_CACTVS_HBOND_ACCEPTOR>
4

> <PUBCHEM_CACTVS_HBOND_DONOR>
2

> <PUBCHEM_CACTVS_ROTATABLE_BOND>
2

> <PUBCHEM_CACTVS_SUBSKEYS>
AAADccB7MAAEAAAAAAAAAAAAAAAAAAAAAAAwYAAABAAAAAABQAAAHgIQCAAADCrBmCQwyILAAgCoAyXyXACCAAAhBwAIiAGgZpgKYK7Jk5GUYAhitADIyAcQgMAOAABAIAACAAAAAIBAAAQAAAAAAAAAAA==

> <PUBCHEM_IUPAC_OPENEYE_NAME>
7-chloro-2-oxo-5-phenyl-1,3-dihydro-1,4-benzodiazepine-3-carboxylic acid

> <PUBCHEM_IUPAC_CAS_NAME>
7-chloro-2-oxo-5-phenyl-1,3-dihydro-1,4-benzodiazepine-3-carboxylic acid

> <PUBCHEM_IUPAC_NAME>
7-chloro-2-oxo-5-phenyl-1,3-dihydro-1,4-benzodiazepine-3-carboxylic acid

> <PUBCHEM_IUPAC_SYSTEMATIC_NAME>
7-chloranyl-2-oxidanylidene-5-phenyl-1,3-dihydro-1,4-benzodiazepine-3-carboxylic acid

> <PUBCHEM_IUPAC_TRADITIONAL_NAME>
7-chloro-2-keto-5-phenyl-1,3-dihydro-1,4-benzodiazepine-3-carboxylic acid

> <PUBCHEM_IUPAC_INCHI>
InChI=1S/C16H11ClN2O3/c17-10-6-7-12-11(8-10)13(9-4-2-1-3-5-9)19-14(16(21)22)15(20)18-12/h1-8,14H,(H,18,20)(H,21,22)

> <PUBCHEM_IUPAC_INCHIKEY>
XDDJGVMJFWAHJX-UHFFFAOYSA-N

> <PUBCHEM_XLOGP3>
3.3

> <PUBCHEM_EXACT_MASS>
314.04582

> <PUBCHEM_MOLECULAR_FORMULA>
C16H11ClN2O3

> <PUBCHEM_MOLECULAR_WEIGHT>
314.72314

> <PUBCHEM_OPENEYE_CAN_SMILES>
C1=CC=C(C=C1)C2=NC(C(=O)NC3=C2C=C(C=C3)Cl)C(=O)O

> <PUBCHEM_OPENEYE_ISO_SMILES>
C1=CC=C(C=C1)C2=NC(C(=O)NC3=C2C=C(C=C3)Cl)C(=O)O

> <PUBCHEM_CACTVS_TPSA>
78.8

> <PUBCHEM_MONOISOTOPIC_WEIGHT>
314.04582

> <PUBCHEM_TOTAL_CHARGE>
0

> <PUBCHEM_HEAVY_ATOM_COUNT>
22

> <PUBCHEM_ATOM_DEF_STEREO_COUNT>
0

> <PUBCHEM_ATOM_UDEF_STEREO_COUNT>
1

> <PUBCHEM_BOND_DEF_STEREO_COUNT>
0

> <PUBCHEM_BOND_UDEF_STEREO_COUNT>
0

> <PUBCHEM_ISOTOPIC_ATOM_COUNT>
0

> <PUBCHEM_COMPONENT_COUNT>
1

> <PUBCHEM_CACTVS_TAUTO_COUNT>
14

> <PUBCHEM_COORDINATE_TYPE>
1
5
255

> <PUBCHEM_BONDANNOTATIONS>
10  19  3
11  17  8
11  18  8
13  15  8
14  16  8
15  16  8
17  20  8
18  21  8
20  22  8
21  22  8
7  13  8
7  9  8
9  14  8

$$$$

