68712
  -OEChem-07051213012D

 29 31  0     0  0  0  0  0  0999 V2000
    3.6180   -1.5014    0.0000 O   0  0  0  0  0  0  0  0  0  0  0  0
    2.8090    0.0864    0.0000 N   0  0  0  0  0  0  0  0  0  0  0  0
    2.0000   -1.5014    0.0000 N   0  0  0  0  0  0  0  0  0  0  0  0
    3.6750    1.5864    0.0000 C   0  0  0  0  0  0  0  0  0  0  0  0
    4.5411    0.0864    0.0000 C   0  0  0  0  0  0  0  0  0  0  0  0
    3.6750    0.5864    0.0000 C   0  0  0  0  0  0  0  0  0  0  0  0
    4.1750    2.4524    0.0000 C   0  0  0  0  0  0  0  0  0  0  0  0
    3.1750    2.4524    0.0000 C   0  0  0  0  0  0  0  0  0  0  0  0
    5.0411   -0.7796    0.0000 C   0  0  0  0  0  0  0  0  0  0  0  0
    5.5411    0.0864    0.0000 C   0  0  0  0  0  0  0  0  0  0  0  0
    2.8090   -0.9136    0.0000 C   0  0  0  0  0  0  0  0  0  0  0  0
    3.3090   -2.4524    0.0000 C   0  0  0  0  0  0  0  0  0  0  0  0
    2.3090   -2.4524    0.0000 C   0  0  0  0  0  0  0  0  0  0  0  0
    3.0762    1.4259    0.0000 H   0  0  0  0  0  0  0  0  0  0  0  0
    4.1027   -0.3520    0.0000 H   0  0  0  0  0  0  0  0  0  0  0  0
    3.1381    0.8964    0.0000 H   0  0  0  0  0  0  0  0  0  0  0  0
    4.7576    2.2404    0.0000 H   0  0  0  0  0  0  0  0  0  0  0  0
    4.2827    3.0630    0.0000 H   0  0  0  0  0  0  0  0  0  0  0  0
    3.0674    3.0630    0.0000 H   0  0  0  0  0  0  0  0  0  0  0  0
    2.5924    2.2404    0.0000 H   0  0  0  0  0  0  0  0  0  0  0  0
    4.5661   -1.1782    0.0000 H   0  0  0  0  0  0  0  0  0  0  0  0
    5.5160   -1.1782    0.0000 H   0  0  0  0  0  0  0  0  0  0  0  0
    6.1237   -0.1256    0.0000 H   0  0  0  0  0  0  0  0  0  0  0  0
    5.6487    0.6970    0.0000 H   0  0  0  0  0  0  0  0  0  0  0  0
    2.2721    0.3964    0.0000 H   0  0  0  0  0  0  0  0  0  0  0  0
    3.2442   -3.0690    0.0000 H   0  0  0  0  0  0  0  0  0  0  0  0
    3.9155   -2.5813    0.0000 H   0  0  0  0  0  0  0  0  0  0  0  0
    1.7026   -2.5813    0.0000 H   0  0  0  0  0  0  0  0  0  0  0  0
    2.3738   -3.0690    0.0000 H   0  0  0  0  0  0  0  0  0  0  0  0
  1 11  1  0  0  0  0
  1 12  1  0  0  0  0
  2  6  1  0  0  0  0
  2 11  1  0  0  0  0
  2 25  1  0  0  0  0
  3 11  2  0  0  0  0
  3 13  1  0  0  0  0
  4  6  1  0  0  0  0
  4  7  1  0  0  0  0
  4  8  1  0  0  0  0
  4 14  1  0  0  0  0
  5  6  1  0  0  0  0
  5  9  1  0  0  0  0
  5 10  1  0  0  0  0
  5 15  1  0  0  0  0
  6 16  1  0  0  0  0
  7  8  1  0  0  0  0
  7 17  1  0  0  0  0
  7 18  1  0  0  0  0
  8 19  1  0  0  0  0
  8 20  1  0  0  0  0
  9 10  1  0  0  0  0
  9 21  1  0  0  0  0
  9 22  1  0  0  0  0
 10 23  1  0  0  0  0
 10 24  1  0  0  0  0
 12 13  1  0  0  0  0
 12 26  1  0  0  0  0
 12 27  1  0  0  0  0
 13 28  1  0  0  0  0
 13 29  1  0  0  0  0
M  END
> <PUBCHEM_COMPOUND_CID>
68712

> <PUBCHEM_COMPOUND_CANONICALIZED>
1

> <PUBCHEM_CACTVS_COMPLEXITY>
219

> <PUBCHEM_CACTVS_HBOND_ACCEPTOR>
2

> <PUBCHEM_CACTVS_HBOND_DONOR>
1

> <PUBCHEM_CACTVS_ROTATABLE_BOND>
4

> <PUBCHEM_CACTVS_SUBSKEYS>
AAADceBzIAAAAAAAAAAAAAAAGDAAAQAAAAAAAAAAAAAAAAAAAAAAHgAQAAAADSjhgAYBAALABAAgAAAAJAAAAAEAAAABAIAIAAECAAIAiAANAAAAEAAAAAEAgAAMAAAAAAAAAAAAAAAAAAAAAAAAAAAAAA==

> <PUBCHEM_IUPAC_OPENEYE_NAME>
N-(dicyclopropylmethyl)-4,5-dihydrooxazol-2-amine

> <PUBCHEM_IUPAC_CAS_NAME>
N-(dicyclopropylmethyl)-4,5-dihydrooxazol-2-amine

> <PUBCHEM_IUPAC_NAME>
N-(dicyclopropylmethyl)-4,5-dihydro-1,3-oxazol-2-amine

> <PUBCHEM_IUPAC_SYSTEMATIC_NAME>
N-(dicyclopropylmethyl)-4,5-dihydro-1,3-oxazol-2-amine

> <PUBCHEM_IUPAC_TRADITIONAL_NAME>
dicyclopropylmethyl(2-oxazolin-2-yl)amine

> <PUBCHEM_IUPAC_INCHI>
InChI=1S/C10H16N2O/c1-2-7(1)9(8-3-4-8)12-10-11-5-6-13-10/h7-9H,1-6H2,(H,11,12)

> <PUBCHEM_IUPAC_INCHIKEY>
CQXADFVORZEARL-UHFFFAOYSA-N

> <PUBCHEM_XLOGP3_AA>
1.2

> <PUBCHEM_EXACT_MASS>
180.126263

> <PUBCHEM_MOLECULAR_FORMULA>
C10H16N2O

> <PUBCHEM_MOLECULAR_WEIGHT>
180.24684

> <PUBCHEM_OPENEYE_CAN_SMILES>
C1CC1C(C2CC2)NC3=NCCO3

> <PUBCHEM_OPENEYE_ISO_SMILES>
C1CC1C(C2CC2)NC3=NCCO3

> <PUBCHEM_CACTVS_TPSA>
33.6

> <PUBCHEM_MONOISOTOPIC_WEIGHT>
180.126263

> <PUBCHEM_TOTAL_CHARGE>
0

> <PUBCHEM_HEAVY_ATOM_COUNT>
13

> <PUBCHEM_ATOM_DEF_STEREO_COUNT>
0

> <PUBCHEM_ATOM_UDEF_STEREO_COUNT>
0

> <PUBCHEM_BOND_DEF_STEREO_COUNT>
0

> <PUBCHEM_BOND_UDEF_STEREO_COUNT>
0

> <PUBCHEM_ISOTOPIC_ATOM_COUNT>
0

> <PUBCHEM_COMPONENT_COUNT>
1

> <PUBCHEM_CACTVS_TAUTO_COUNT>
2

> <PUBCHEM_COORDINATE_TYPE>
1
5
255

$$$$

