853907
  -OEChem-06241222463D

 39 40  0     0  0  0  0  0  0999 V2000
    7.2378    1.5335   -0.7944 Cl  0  0  0  0  0  0  0  0  0  0  0  0
    2.1153   -0.8123    0.8641 O   0  0  0  0  0  0  0  0  0  0  0  0
   -4.5417    2.3155   -0.7068 O   0  0  0  0  0  0  0  0  0  0  0  0
   -0.1022   -2.1222    0.4603 O   0  0  0  0  0  0  0  0  0  0  0  0
   -2.7492    2.2153    0.7340 O   0  0  0  0  0  0  0  0  0  0  0  0
   -1.4157   -0.1708    0.3273 N   0  0  0  0  0  0  0  0  0  0  0  0
   -2.7067   -0.6580    0.1035 C   0  0  0  0  0  0  0  0  0  0  0  0
    3.3162   -0.2742    0.4671 C   0  0  0  0  0  0  0  0  0  0  0  0
    4.0660   -0.8893   -0.5271 C   0  0  0  0  0  0  0  0  0  0  0  0
   -3.7892    0.2111   -0.0317 C   0  0  0  0  0  0  0  0  0  0  0  0
    0.9657   -0.0059    0.7098 C   0  0  0  0  0  0  0  0  0  0  0  0
   -0.2326   -0.9020    0.4839 C   0  0  0  0  0  0  0  0  0  0  0  0
   -2.9036   -2.0361    0.0158 C   0  0  0  0  0  0  0  0  0  0  0  0
    3.7614    0.8916    1.0771 C   0  0  0  0  0  0  0  0  0  0  0  0
    5.2821   -0.3291   -0.9182 C   0  0  0  0  0  0  0  0  0  0  0  0
   -5.0687   -0.2979   -0.2545 C   0  0  0  0  0  0  0  0  0  0  0  0
    3.5931   -2.1425   -1.1869 C   0  0  0  0  0  0  0  0  0  0  0  0
   -4.1830   -2.5452   -0.2071 C   0  0  0  0  0  0  0  0  0  0  0  0
    4.9775    1.4517    0.6858 C   0  0  0  0  0  0  0  0  0  0  0  0
    5.7378    0.8414   -0.3119 C   0  0  0  0  0  0  0  0  0  0  0  0
   -5.2655   -1.6761   -0.3422 C   0  0  0  0  0  0  0  0  0  0  0  0
   -3.6189    1.6560    0.0562 C   0  0  0  0  0  0  0  0  0  0  0  0
   -4.4760    3.7456   -0.7041 C   0  0  0  0  0  0  0  0  0  0  0  0
    1.0578    0.6675   -0.1517 H   0  0  0  0  0  0  0  0  0  0  0  0
    0.8027    0.5799    1.6211 H   0  0  0  0  0  0  0  0  0  0  0  0
   -1.3239    0.8403    0.3790 H   0  0  0  0  0  0  0  0  0  0  0  0
   -2.1228   -2.7769    0.1083 H   0  0  0  0  0  0  0  0  0  0  0  0
    3.1829    1.3721    1.8608 H   0  0  0  0  0  0  0  0  0  0  0  0
    5.8765   -0.8032   -1.6960 H   0  0  0  0  0  0  0  0  0  0  0  0
   -5.9364    0.3496   -0.3493 H   0  0  0  0  0  0  0  0  0  0  0  0
    4.3051   -2.5056   -1.9359 H   0  0  0  0  0  0  0  0  0  0  0  0
    3.4624   -2.9369   -0.4447 H   0  0  0  0  0  0  0  0  0  0  0  0
    2.6395   -1.9667   -1.6958 H   0  0  0  0  0  0  0  0  0  0  0  0
   -4.3380   -3.6182   -0.2749 H   0  0  0  0  0  0  0  0  0  0  0  0
    5.3210    2.3632    1.1682 H   0  0  0  0  0  0  0  0  0  0  0  0
   -6.2621   -2.0730   -0.5122 H   0  0  0  0  0  0  0  0  0  0  0  0
   -3.5100    4.0794   -1.0943 H   0  0  0  0  0  0  0  0  0  0  0  0
   -4.6374    4.1284    0.3079 H   0  0  0  0  0  0  0  0  0  0  0  0
   -5.2688    4.1240   -1.3547 H   0  0  0  0  0  0  0  0  0  0  0  0
  1 20  1  0  0  0  0
  2  8  1  0  0  0  0
  2 11  1  0  0  0  0
  3 22  1  0  0  0  0
  3 23  1  0  0  0  0
  4 12  2  0  0  0  0
  5 22  2  0  0  0  0
  6  7  1  0  0  0  0
  6 12  1  0  0  0  0
  6 26  1  0  0  0  0
  7 10  1  0  0  0  0
  7 13  2  0  0  0  0
  8  9  2  0  0  0  0
  8 14  1  0  0  0  0
  9 15  1  0  0  0  0
  9 17  1  0  0  0  0
 10 16  2  0  0  0  0
 10 22  1  0  0  0  0
 11 12  1  0  0  0  0
 11 24  1  0  0  0  0
 11 25  1  0  0  0  0
 13 18  1  0  0  0  0
 13 27  1  0  0  0  0
 14 19  2  0  0  0  0
 14 28  1  0  0  0  0
 15 20  2  0  0  0  0
 15 29  1  0  0  0  0
 16 21  1  0  0  0  0
 16 30  1  0  0  0  0
 17 31  1  0  0  0  0
 17 32  1  0  0  0  0
 17 33  1  0  0  0  0
 18 21  2  0  0  0  0
 18 34  1  0  0  0  0
 19 20  1  0  0  0  0
 19 35  1  0  0  0  0
 21 36  1  0  0  0  0
 23 37  1  0  0  0  0
 23 38  1  0  0  0  0
 23 39  1  0  0  0  0
M  END
> <PUBCHEM_COMPOUND_CID>
853907

> <PUBCHEM_CONFORMER_RMSD>
0.8

> <PUBCHEM_CONFORMER_DIVERSEORDER>
1
107
256
212
206
111
108
175
274
168
264
71
147
13
186
40
251
65
236
62
292
120
296
249
216
30
267
324
246
153
102
160
318
139
300
166
197
158
127
230
299
156
36
214
19
303
66
234
188
239
142
16
57
96
119
165
98
320
319
110
135
173
262
3
263
69
86
310
162
229
297
72
14
97
157
284
37
167
133
121
248
291
7
210
90
5
302
132
295
288
140
286
114
181
170
8
280
75
159
191
270
15
77
177
55
53
74
257
323
254
33
27
73
48
101
193
311
223
301
150
182
94
81
259
46
179
201
38
88
275
183
129
266
238
84
20
190
93
28
50
298
176
312
61
213
103
89
305
204
106
209
68
271
164
265
70
22
171
145
104
78
113
207
148
203
247
79
169
134
317
109
83
76
163
125
35
124
82
199
304
115
112
219
277
217
308
118
2
58
243
32
273
316
143
313
224
154
54
211
287
43
272
131
105
59
155
126
122
226
260
91
42
18
146
283
293
172
128
290
63
255
196
52
26
282
138
232
307
137
11
56
23
149
315
208
152
279
231
80
31
141
29
200
117
309
228
17
51
241
100
34
314
9
244
99
67
178
144
24
285
161
189
60
242
233
198
195
268
221
237
269
306
289
253
194
261
64
39
49
85
45
258
25
130
250
10
21
245
235
278
321
44
151
225
92
123
180
47
184
294
222
240
4
322
220
116
95
6
136
218
215
276
41
12
205
281
87
174
187
252
202
192
227
185

> <PUBCHEM_MMFF94_PARTIAL_CHARGES>
31
1 -0.18
10 0.09
11 0.34
12 0.57
13 -0.15
14 -0.15
15 -0.15
16 -0.15
17 0.14
18 -0.15
19 -0.15
2 -0.36
20 0.18
21 -0.15
22 0.63
23 0.28
26 0.37
27 0.15
28 0.15
29 0.15
3 -0.43
30 0.15
34 0.15
35 0.15
36 0.15
4 -0.57
5 -0.57
6 -0.55
7 0.12
8 0.08
9 -0.14

> <PUBCHEM_EFFECTIVE_ROTOR_COUNT>
7

> <PUBCHEM_PHARMACOPHORE_FEATURES>
6
1 2 acceptor
1 4 acceptor
1 5 acceptor
1 6 donor
6 7 10 13 16 18 21 rings
6 8 9 14 15 19 20 rings

> <PUBCHEM_HEAVY_ATOM_COUNT>
23

> <PUBCHEM_ATOM_DEF_STEREO_COUNT>
0

> <PUBCHEM_ATOM_UDEF_STEREO_COUNT>
0

> <PUBCHEM_BOND_DEF_STEREO_COUNT>
0

> <PUBCHEM_BOND_UDEF_STEREO_COUNT>
0

> <PUBCHEM_ISOTOPIC_ATOM_COUNT>
0

> <PUBCHEM_COMPONENT_COUNT>
1

> <PUBCHEM_CACTVS_TAUTO_COUNT>
3

> <PUBCHEM_CONFORMER_ID>
000D079300000001

> <PUBCHEM_MMFF94_ENERGY>
76.4079

> <PUBCHEM_FEATURE_SELFOVERLAP>
30.457

> <PUBCHEM_SHAPE_FINGERPRINT>
10087517 78 18201722838293642628
10411042 1 17980198579286762779
10498660 4 18338802315755902888
10595046 47 18342741806026136762
10670039 82 18342460339797525228
11056379 131 18411420588321559859
11315621 246 17896045334444413135
11719270 70 18040998454351502798
12107183 9 17839195347406469578
12236239 1 17704079477468065530
12390115 104 18263076773230680305
12403259 415 18041003916357049512
12916748 109 18341892974264224547
13073987 5 18202003235312657210
13631057 29 16772668789982322947
13668630 136 15792006745168804190
14251764 38 18342452608497871980
14251764 75 17978226390222959329
14528608 73 18411983529479013002
14573314 32 18334574646486846158
15183329 4 17822285803727635098
15575132 122 18341617036111924237
15961568 22 18272087154755851852
16087824 20 18411426116967538279
16126227 98 18264485256285004361
17844677 252 18409163307585772952
19427546 20 18343024376804498765
20645477 70 17313094268455793942
21033650 10 18199166529761962196
21267235 1 18265332812298678611
21315763 129 18411141295119423536
22061861 79 17312817186945361734
22122407 14 15267344033042449839
221357 26 18114184107508827577
22289505 5 18261111911570961408
22393880 68 18337111266919771506
2297311 6 18261952951829454907
23522609 53 6771034054860650674
23557571 272 18408319973434889772
23559900 14 18261398784567189561
255183 451 17758408375202853767
26918003 58 11312064240120303086
3004659 81 18410290346524683786
34797466 226 17968367962481997340
351380 3 4895278113720877502
4073 2 18201151075515885178
4098825 35 18411133671763508894
4214541 1 18407760352244679251
445580 37 18341324518621600748
46194498 28 17968653805561897052
484985 159 14129353832491291605
497634 4 17749100081116844155
5283173 99 18409730672850074552
6327066 14 18056205898174697133
6898599 12 18341055202860907029
7808743 9 18341900752771932713
90127 26 18342449370065760898

> <PUBCHEM_SHAPE_MULTIPOLES>
446.74
17.05
3.1
0.97
13.95
1.91
-0.03
5.68
-4.31
-4.96
-0.73
0.83
0.07
0.94

> <PUBCHEM_SHAPE_SELFOVERLAP>
940.3

> <PUBCHEM_SHAPE_VOLUME>
252.2

> <PUBCHEM_COORDINATE_TYPE>
2
5
10

$$$$

