46173765
  -OEChem-07051212522D

 64 67  0     1  0  0  0  0  0999 V2000
    3.4116    2.8272    0.0000 P   0  0  0  0  0  0  0  0  0  0  0  0
    4.4150   -0.0936    0.0000 O   0  0  0  0  0  0  0  0  0  0  0  0
    6.7609   -1.1855    0.0000 O   0  0  0  0  0  0  0  0  0  0  0  0
    3.7190    1.8756    0.0000 O   0  0  0  0  0  0  0  0  0  0  0  0
    5.7491    2.3931    0.0000 O   0  0  0  0  0  0  0  0  0  0  0  0
    3.1042    3.7788    0.0000 O   0  0  0  0  0  0  0  0  0  0  0  0
    2.4600    2.5198    0.0000 O   0  0  0  0  0  0  0  0  0  0  0  0
    4.3632    3.1345    0.0000 O   0  0  0  0  0  0  0  0  0  0  0  0
    5.6462    3.3878    0.0000 O   0  0  0  0  0  0  0  0  0  0  0  0
   11.6249    4.5084    0.0000 O   0  0  0  0  0  0  0  0  0  0  0  0
    6.7647    0.9901    0.0000 N   0  0  0  0  0  0  0  0  0  0  0  0
    4.6907   -1.8542    0.0000 N   0  0  0  0  0  0  0  0  0  0  0  0
    4.6907   -3.4636    0.0000 N   0  0  0  0  0  0  0  0  0  0  0  0
    7.3691    3.5659    0.0000 N   0  0  0  0  0  0  0  0  0  0  0  0
    2.8784   -1.6589    0.0000 N   0  0  0  0  0  0  0  0  0  0  0  0
    2.0124   -3.1589    0.0000 N   0  0  0  0  0  0  0  0  0  0  0  0
    2.8784   -4.6589    0.0000 N   0  0  0  0  0  0  0  0  0  0  0  0
    5.9547    0.4037    0.0000 C   0  0  1  0  0  0  0  0  0  0  0  0
    5.9529   -0.5963    0.0000 C   0  0  2  0  0  0  0  0  0  0  0  0
    5.0042    0.7144    0.0000 C   0  0  1  0  0  0  0  0  0  0  0  0
    5.0014   -0.9037    0.0000 C   0  0  1  0  0  0  0  0  0  0  0  0
    4.6968    1.6660    0.0000 C   0  0  0  0  0  0  0  0  0  0  0  0
    6.6619    1.9848    0.0000 C   0  0  0  0  0  0  0  0  0  0  0  0
    3.7445   -2.1589    0.0000 C   0  0  0  0  0  0  0  0  0  0  0  0
    5.2743   -2.6589    0.0000 C   0  0  0  0  0  0  0  0  0  0  0  0
    7.4719    2.5712    0.0000 C   0  0  2  0  0  0  0  0  0  0  0  0
    3.7445   -3.1589    0.0000 C   0  0  0  0  0  0  0  0  0  0  0  0
    8.3848    2.1629    0.0000 C   0  0  0  0  0  0  0  0  0  0  0  0
    2.8784   -3.6589    0.0000 C   0  0  0  0  0  0  0  0  0  0  0  0
    9.1948    2.7492    0.0000 C   0  0  0  0  0  0  0  0  0  0  0  0
    2.0124   -2.1589    0.0000 C   0  0  0  0  0  0  0  0  0  0  0  0
    6.4563    3.9742    0.0000 C   0  0  0  0  0  0  0  0  0  0  0  0
   10.1076    2.3409    0.0000 C   0  0  0  0  0  0  0  0  0  0  0  0
    9.0920    3.7440    0.0000 C   0  0  0  0  0  0  0  0  0  0  0  0
    6.3535    4.9689    0.0000 C   0  0  0  0  0  0  0  0  0  0  0  0
   10.9177    2.9273    0.0000 C   0  0  0  0  0  0  0  0  0  0  0  0
    9.9020    4.3303    0.0000 C   0  0  0  0  0  0  0  0  0  0  0  0
   10.8149    3.9220    0.0000 C   0  0  0  0  0  0  0  0  0  0  0  0
    5.8587    1.0163    0.0000 H   0  0  0  0  0  0  0  0  0  0  0  0
    6.5058   -0.3158    0.0000 H   0  0  0  0  0  0  0  0  0  0  0  0
    4.3919    0.8124    0.0000 H   0  0  0  0  0  0  0  0  0  0  0  0
    4.3888   -0.9996    0.0000 H   0  0  0  0  0  0  0  0  0  0  0  0
    5.3109    1.7512    0.0000 H   0  0  0  0  0  0  0  0  0  0  0  0
    4.7195    2.2856    0.0000 H   0  0  0  0  0  0  0  0  0  0  0  0
    7.3307    0.7369    0.0000 H   0  0  0  0  0  0  0  0  0  0  0  0
    7.3278   -0.9343    0.0000 H   0  0  0  0  0  0  0  0  0  0  0  0
    5.8943   -2.6589    0.0000 H   0  0  0  0  0  0  0  0  0  0  0  0
    6.9060    2.8243    0.0000 H   0  0  0  0  0  0  0  0  0  0  0  0
    8.0372    1.6495    0.0000 H   0  0  0  0  0  0  0  0  0  0  0  0
    8.8300    1.7314    0.0000 H   0  0  0  0  0  0  0  0  0  0  0  0
    7.8713    3.9294    0.0000 H   0  0  0  0  0  0  0  0  0  0  0  0
    1.4755   -1.8489    0.0000 H   0  0  0  0  0  0  0  0  0  0  0  0
   10.1714    1.7242    0.0000 H   0  0  0  0  0  0  0  0  0  0  0  0
    8.5260    3.9971    0.0000 H   0  0  0  0  0  0  0  0  0  0  0  0
    2.3415   -4.9689    0.0000 H   0  0  0  0  0  0  0  0  0  0  0  0
    3.4154   -4.9689    0.0000 H   0  0  0  0  0  0  0  0  0  0  0  0
    2.0000    2.9354    0.0000 H   0  0  0  0  0  0  0  0  0  0  0  0
    2.4980    3.9087    0.0000 H   0  0  0  0  0  0  0  0  0  0  0  0
    6.9702    5.0326    0.0000 H   0  0  0  0  0  0  0  0  0  0  0  0
    6.2897    5.5856    0.0000 H   0  0  0  0  0  0  0  0  0  0  0  0
    5.7368    4.9052    0.0000 H   0  0  0  0  0  0  0  0  0  0  0  0
   11.4836    2.6742    0.0000 H   0  0  0  0  0  0  0  0  0  0  0  0
    9.8383    4.9470    0.0000 H   0  0  0  0  0  0  0  0  0  0  0  0
   12.1909    4.2552    0.0000 H   0  0  0  0  0  0  0  0  0  0  0  0
  1  4  1  0  0  0  0
  1  6  1  0  0  0  0
  1  7  1  0  0  0  0
  1  8  2  0  0  0  0
  2 20  1  0  0  0  0
  2 21  1  0  0  0  0
 19  3  1  1  0  0  0
  3 46  1  0  0  0  0
  4 22  1  0  0  0  0
  5 23  2  0  0  0  0
  6 58  1  0  0  0  0
  7 57  1  0  0  0  0
  9 32  2  0  0  0  0
 10 38  1  0  0  0  0
 10 64  1  0  0  0  0
 18 11  1  1  0  0  0
 11 23  1  0  0  0  0
 11 45  1  0  0  0  0
 21 12  1  6  0  0  0
 12 24  1  0  0  0  0
 12 25  1  0  0  0  0
 13 25  2  0  0  0  0
 13 27  1  0  0  0  0
 26 14  1  1  0  0  0
 14 32  1  0  0  0  0
 14 51  1  0  0  0  0
 15 24  2  0  0  0  0
 15 31  1  0  0  0  0
 16 29  1  0  0  0  0
 16 31  2  0  0  0  0
 17 29  1  0  0  0  0
 17 55  1  0  0  0  0
 17 56  1  0  0  0  0
 18 19  1  0  0  0  0
 18 20  1  0  0  0  0
 18 39  1  0  0  0  0
 19 21  1  0  0  0  0
 19 40  1  0  0  0  0
 20 22  1  6  0  0  0
 20 41  1  0  0  0  0
 21 42  1  0  0  0  0
 22 43  1  0  0  0  0
 22 44  1  0  0  0  0
 23 26  1  0  0  0  0
 24 27  1  0  0  0  0
 25 47  1  0  0  0  0
 26 28  1  0  0  0  0
 26 48  1  0  0  0  0
 27 29  2  0  0  0  0
 28 30  1  0  0  0  0
 28 49  1  0  0  0  0
 28 50  1  0  0  0  0
 30 33  2  0  0  0  0
 30 34  1  0  0  0  0
 31 52  1  0  0  0  0
 32 35  1  0  0  0  0
 33 36  1  0  0  0  0
 33 53  1  0  0  0  0
 34 37  2  0  0  0  0
 34 54  1  0  0  0  0
 35 59  1  0  0  0  0
 35 60  1  0  0  0  0
 35 61  1  0  0  0  0
 36 38  2  0  0  0  0
 36 62  1  0  0  0  0
 37 38  1  0  0  0  0
 37 63  1  0  0  0  0
M  END
> <PUBCHEM_COMPOUND_CID>
46173765

> <PUBCHEM_COMPOUND_CANONICALIZED>
1

> <PUBCHEM_CACTVS_COMPLEXITY>
889

> <PUBCHEM_CACTVS_HBOND_ACCEPTOR>
13

> <PUBCHEM_CACTVS_HBOND_DONOR>
7

> <PUBCHEM_CACTVS_ROTATABLE_BOND>
9

> <PUBCHEM_CACTVS_SUBSKEYS>
AAADceB7vAIAAAAAAAAAAAAAAAAAAWJAAAA8QAAAAAAAAFgB/AAAHgAQCCAADDzhnwY39r/MFxCoQydzdICCgC0xMKAJ2KGuXJiLfjLC2XOfdAgv1hPbmCf4+KKOIAAAAAAAAABAAAAAAAAAAAAAAAAAAA==

> <PUBCHEM_IUPAC_OPENEYE_NAME>
[(2S,3S,4R,5R)-3-[[(2S)-2-acetamido-3-(4-hydroxyphenyl)propanoyl]amino]-5-(6-aminopurin-9-yl)-4-hydroxy-tetrahydrofuran-2-yl]methyl dihydrogen phosphate

> <PUBCHEM_IUPAC_CAS_NAME>
[(2S,3S,4R,5R)-3-[[(2S)-2-acetamido-3-(4-hydroxyphenyl)-1-oxopropyl]amino]-5-(6-aminopurin-9-yl)-4-hydroxy-2-oxolanyl]methyl dihydrogen phosphate

> <PUBCHEM_IUPAC_NAME>
[(2S,3S,4R,5R)-3-[[(2S)-2-acetamido-3-(4-hydroxyphenyl)propanoyl]amino]-5-(6-aminopurin-9-yl)-4-hydroxyoxolan-2-yl]methyl dihydrogen phosphate

> <PUBCHEM_IUPAC_SYSTEMATIC_NAME>
[(2S,3S,4R,5R)-3-[[(2S)-2-acetamido-3-(4-hydroxyphenyl)propanoyl]amino]-5-(6-aminopurin-9-yl)-4-oxidanyl-oxolan-2-yl]methyl dihydrogen phosphate

> <PUBCHEM_IUPAC_TRADITIONAL_NAME>
[(2S,3S,4R,5R)-3-[[(2S)-2-acetamido-3-(4-hydroxyphenyl)propanoyl]amino]-5-adenin-9-yl-4-hydroxy-tetrahydrofuran-2-yl]methyl dihydrogen phosphate

> <PUBCHEM_IUPAC_INCHI>
InChI=1S/C21H26N7O9P/c1-10(29)26-13(6-11-2-4-12(30)5-3-11)20(32)27-15-14(7-36-38(33,34)35)37-21(17(15)31)28-9-25-16-18(22)23-8-24-19(16)28/h2-5,8-9,13-15,17,21,30-31H,6-7H2,1H3,(H,26,29)(H,27,32)(H2,22,23,24)(H2,33,34,35)/t13-,14+,15+,17+,21+/m0/s1

> <PUBCHEM_IUPAC_INCHIKEY>
RCAQZKLXYOXGDM-YXDKPKCJSA-N

> <PUBCHEM_XLOGP3>
-2.5

> <PUBCHEM_EXACT_MASS>
551.152962

> <PUBCHEM_MOLECULAR_FORMULA>
C21H26N7O9P

> <PUBCHEM_MOLECULAR_WEIGHT>
551.446402

> <PUBCHEM_OPENEYE_CAN_SMILES>
CC(=O)NC(CC1=CC=C(C=C1)O)C(=O)NC2C(OC(C2O)N3C=NC4=C3N=CN=C4N)COP(=O)(O)O

> <PUBCHEM_OPENEYE_ISO_SMILES>
CC(=O)N[C@@H](CC1=CC=C(C=C1)O)C(=O)N[C@@H]2[C@H](O[C@H]([C@@H]2O)N3C=NC4=C3N=CN=C4N)COP(=O)(O)O

> <PUBCHEM_CACTVS_TPSA>
244

> <PUBCHEM_MONOISOTOPIC_WEIGHT>
551.152962

> <PUBCHEM_TOTAL_CHARGE>
0

> <PUBCHEM_HEAVY_ATOM_COUNT>
38

> <PUBCHEM_ATOM_DEF_STEREO_COUNT>
5

> <PUBCHEM_ATOM_UDEF_STEREO_COUNT>
0

> <PUBCHEM_BOND_DEF_STEREO_COUNT>
0

> <PUBCHEM_BOND_UDEF_STEREO_COUNT>
0

> <PUBCHEM_ISOTOPIC_ATOM_COUNT>
0

> <PUBCHEM_COMPONENT_COUNT>
1

> <PUBCHEM_CACTVS_TAUTO_COUNT>
24

> <PUBCHEM_COORDINATE_TYPE>
1
5
255

> <PUBCHEM_BONDANNOTATIONS>
18  11  5
21  12  6
12  24  8
12  25  8
13  25  8
13  27  8
26  14  5
15  24  8
15  31  8
16  29  8
16  31  8
20  22  6
24  27  8
27  29  8
19  3  5
30  33  8
30  34  8
33  36  8
34  37  8
36  38  8
37  38  8

$$$$

