443162
  -OEChem-07051213013D

 29 29  0     1  0  0  0  0  0999 V2000
   -2.1334    0.1429   -1.3732 O   0  0  0  0  0  0  0  0  0  0  0  0
   -0.5025   -0.0181    0.3660 C   0  0  1  0  0  0  0  0  0  0  0  0
   -1.9933    0.0054    0.0363 C   0  0  0  0  0  0  0  0  0  0  0  0
    0.1831   -1.2384   -0.2567 C   0  0  0  0  0  0  0  0  0  0  0  0
    0.1813    1.2745   -0.1077 C   0  0  0  0  0  0  0  0  0  0  0  0
    1.6673   -1.2919    0.1191 C   0  0  0  0  0  0  0  0  0  0  0  0
    2.3630    0.0436    0.0354 C   0  0  0  0  0  0  0  0  0  0  0  0
    1.6796    1.1951   -0.0817 C   0  0  0  0  0  0  0  0  0  0  0  0
   -2.6684    1.1845    0.7230 C   0  0  0  0  0  0  0  0  0  0  0  0
   -2.6384   -1.3104    0.4470 C   0  0  0  0  0  0  0  0  0  0  0  0
    3.8617    0.0128    0.0924 C   0  0  0  0  0  0  0  0  0  0  0  0
   -0.3806   -0.0891    1.4574 H   0  0  0  0  0  0  0  0  0  0  0  0
    0.0927   -1.2112   -1.3504 H   0  0  0  0  0  0  0  0  0  0  0  0
   -0.2613   -2.1805    0.0785 H   0  0  0  0  0  0  0  0  0  0  0  0
   -0.1123    2.1045    0.5456 H   0  0  0  0  0  0  0  0  0  0  0  0
   -0.1165    1.5451   -1.1273 H   0  0  0  0  0  0  0  0  0  0  0  0
    2.1651   -2.0128   -0.5407 H   0  0  0  0  0  0  0  0  0  0  0  0
    1.7692   -1.6705    1.1439 H   0  0  0  0  0  0  0  0  0  0  0  0
    2.2167    2.1368   -0.1598 H   0  0  0  0  0  0  0  0  0  0  0  0
   -2.4892    1.1858    1.8032 H   0  0  0  0  0  0  0  0  0  0  0  0
   -3.7532    1.1524    0.5637 H   0  0  0  0  0  0  0  0  0  0  0  0
   -2.3473    2.1449    0.3063 H   0  0  0  0  0  0  0  0  0  0  0  0
   -2.3684   -2.1375   -0.2179 H   0  0  0  0  0  0  0  0  0  0  0  0
   -2.4007   -1.5806    1.4812 H   0  0  0  0  0  0  0  0  0  0  0  0
   -3.7306   -1.2386    0.3698 H   0  0  0  0  0  0  0  0  0  0  0  0
   -3.0834    0.1642   -1.5803 H   0  0  0  0  0  0  0  0  0  0  0  0
    4.1957   -0.4501    1.0267 H   0  0  0  0  0  0  0  0  0  0  0  0
    4.2979    1.0161    0.0431 H   0  0  0  0  0  0  0  0  0  0  0  0
    4.2621   -0.5665   -0.7457 H   0  0  0  0  0  0  0  0  0  0  0  0
  1  3  1  0  0  0  0
  1 26  1  0  0  0  0
  2  3  1  0  0  0  0
  2  4  1  0  0  0  0
  2  5  1  0  0  0  0
  2 12  1  0  0  0  0
  3  9  1  0  0  0  0
  3 10  1  0  0  0  0
  4  6  1  0  0  0  0
  4 13  1  0  0  0  0
  4 14  1  0  0  0  0
  5  8  1  0  0  0  0
  5 15  1  0  0  0  0
  5 16  1  0  0  0  0
  6  7  1  0  0  0  0
  6 17  1  0  0  0  0
  6 18  1  0  0  0  0
  7  8  2  0  0  0  0
  7 11  1  0  0  0  0
  8 19  1  0  0  0  0
  9 20  1  0  0  0  0
  9 21  1  0  0  0  0
  9 22  1  0  0  0  0
 10 23  1  0  0  0  0
 10 24  1  0  0  0  0
 10 25  1  0  0  0  0
 11 27  1  0  0  0  0
 11 28  1  0  0  0  0
 11 29  1  0  0  0  0
M  END
> <PUBCHEM_COMPOUND_CID>
443162

> <PUBCHEM_CONFORMER_RMSD>
0.4

> <PUBCHEM_CONFORMER_DIVERSEORDER>
1
4
2
3

> <PUBCHEM_MMFF94_PARTIAL_CHARGES>
9
1 -0.68
11 0.14
19 0.15
26 0.4
3 0.28
5 0.14
6 0.14
7 -0.28
8 -0.29

> <PUBCHEM_EFFECTIVE_ROTOR_COUNT>
1.8

> <PUBCHEM_PHARMACOPHORE_FEATURES>
4
1 1 acceptor
1 1 donor
3 3 9 10 hydrophobe
6 2 4 5 6 7 8 rings

> <PUBCHEM_HEAVY_ATOM_COUNT>
11

> <PUBCHEM_ATOM_DEF_STEREO_COUNT>
1

> <PUBCHEM_ATOM_UDEF_STEREO_COUNT>
0

> <PUBCHEM_BOND_DEF_STEREO_COUNT>
0

> <PUBCHEM_BOND_UDEF_STEREO_COUNT>
0

> <PUBCHEM_ISOTOPIC_ATOM_COUNT>
0

> <PUBCHEM_COMPONENT_COUNT>
1

> <PUBCHEM_CACTVS_TAUTO_COUNT>
1

> <PUBCHEM_CONFORMER_ID>
0006C31A00000001

> <PUBCHEM_MMFF94_ENERGY>
19.3728

> <PUBCHEM_FEATURE_SELFOVERLAP>
20.297

> <PUBCHEM_SHAPE_FINGERPRINT>
10857977 72 18411986827618140762
12032990 46 18410284809826185262
12138202 97 17345777277007564703
12897270 3 18411985758150093886
12932764 1 17418376904307514122
14325111 11 18409727344355908576
15775835 57 17894347804127662912
16945 1 18343023332431275756
17844478 74 17704060824562164297
200 152 18261684670939530207
20201158 50 18343303673357415211
23235685 24 18410857676510732128
23402539 116 18260555532848807949
23402655 69 18264222472831392549
23463225 33 18341894121426427354
23552423 10 18271802406417286467
2748010 2 18195246603305216132
29004967 10 18413386548864606712
3248919 1 18409736170218250754
369184 2 17632580465427900139
5084963 1 17916869010705260141
528886 8 18409451418165643201
8030462 33 18187654612738105005

> <PUBCHEM_SHAPE_MULTIPOLES>
220.51
5.06
1.48
0.82
1.87
0.07
0.14
-0.02
-0.44
-0.27
-0.1
-0.42
-0.04
-0.08

> <PUBCHEM_SHAPE_SELFOVERLAP>
436.058

> <PUBCHEM_SHAPE_VOLUME>
132

> <PUBCHEM_COORDINATE_TYPE>
2
5
10

$$$$

