439973
  -OEChem-07051212482D

 38 40  0     1  0  0  0  0  0999 V2000
    5.9134    3.3034    0.0000 P   0  0  0  0  0  0  0  0  0  0  0  0
    5.2686   -0.1498    0.0000 O   0  0  0  0  0  0  0  0  0  0  0  0
    7.6146   -1.2416    0.0000 O   0  0  0  0  0  0  0  0  0  0  0  0
    7.6183    0.9340    0.0000 O   0  0  0  0  0  0  0  0  0  0  0  0
    6.2208    2.3518    0.0000 O   0  0  0  0  0  0  0  0  0  0  0  0
    7.1279   -2.7150    0.0000 O   0  0  0  0  0  0  0  0  0  0  0  0
    3.7320   -4.7150    0.0000 O   0  0  0  0  0  0  0  0  0  0  0  0
    2.0000   -1.7150    0.0000 O   0  0  0  0  0  0  0  0  0  0  0  0
    5.6061    4.2550    0.0000 O   0  0  0  0  0  0  0  0  0  0  0  0
    6.8650    3.6108    0.0000 O   0  0  0  0  0  0  0  0  0  0  0  0
    4.9618    2.9960    0.0000 O   0  0  0  0  0  0  0  0  0  0  0  0
    5.5443   -1.9103    0.0000 N   0  0  0  0  0  0  0  0  0  0  0  0
    5.5443   -3.5198    0.0000 N   0  0  0  0  0  0  0  0  0  0  0  0
    3.7320   -1.7150    0.0000 N   0  0  0  0  0  0  0  0  0  0  0  0
    2.8660   -3.2150    0.0000 N   0  0  0  0  0  0  0  0  0  0  0  0
    5.8550   -0.9598    0.0000 C   0  0  1  0  0  0  0  0  0  0  0  0
    6.8066   -0.6524    0.0000 C   0  0  1  0  0  0  0  0  0  0  0  0
    6.8083    0.3476    0.0000 C   0  0  1  0  0  0  0  0  0  0  0  0
    5.8578    0.6582    0.0000 C   0  0  1  0  0  0  0  0  0  0  0  0
    5.5504    1.6098    0.0000 C   0  0  0  0  0  0  0  0  0  0  0  0
    4.5981   -2.2150    0.0000 C   0  0  0  0  0  0  0  0  0  0  0  0
    6.1279   -2.7150    0.0000 C   0  0  0  0  0  0  0  0  0  0  0  0
    4.5981   -3.2150    0.0000 C   0  0  0  0  0  0  0  0  0  0  0  0
    3.7320   -3.7150    0.0000 C   0  0  0  0  0  0  0  0  0  0  0  0
    2.8660   -2.2150    0.0000 C   0  0  0  0  0  0  0  0  0  0  0  0
    6.2926   -1.3990    0.0000 H   0  0  0  0  0  0  0  0  0  0  0  0
    7.3595   -0.3719    0.0000 H   0  0  0  0  0  0  0  0  0  0  0  0
    7.3602    0.0652    0.0000 H   0  0  0  0  0  0  0  0  0  0  0  0
    5.2456    0.7563    0.0000 H   0  0  0  0  0  0  0  0  0  0  0  0
    5.1695    2.0991    0.0000 H   0  0  0  0  0  0  0  0  0  0  0  0
    5.0025    1.3197    0.0000 H   0  0  0  0  0  0  0  0  0  0  0  0
    8.1814   -0.9904    0.0000 H   0  0  0  0  0  0  0  0  0  0  0  0
    8.1843    0.6808    0.0000 H   0  0  0  0  0  0  0  0  0  0  0  0
    5.7369   -4.1091    0.0000 H   0  0  0  0  0  0  0  0  0  0  0  0
    3.7320   -1.0950    0.0000 H   0  0  0  0  0  0  0  0  0  0  0  0
    2.3291   -3.5250    0.0000 H   0  0  0  0  0  0  0  0  0  0  0  0
    6.0217    4.7150    0.0000 H   0  0  0  0  0  0  0  0  0  0  0  0
    6.9950    4.2170    0.0000 H   0  0  0  0  0  0  0  0  0  0  0  0
  1  5  1  0  0  0  0
  1  9  1  0  0  0  0
  1 10  1  0  0  0  0
  1 11  2  0  0  0  0
  2 16  1  0  0  0  0
  2 19  1  0  0  0  0
 17  3  1  1  0  0  0
  3 32  1  0  0  0  0
 18  4  1  1  0  0  0
  4 33  1  0  0  0  0
  5 20  1  0  0  0  0
  6 22  2  0  0  0  0
  7 24  2  0  0  0  0
  8 25  2  0  0  0  0
  9 37  1  0  0  0  0
 10 38  1  0  0  0  0
 16 12  1  6  0  0  0
 12 21  1  0  0  0  0
 12 22  1  0  0  0  0
 13 22  1  0  0  0  0
 13 23  1  0  0  0  0
 13 34  1  0  0  0  0
 14 21  1  0  0  0  0
 14 25  1  0  0  0  0
 14 35  1  0  0  0  0
 15 24  1  0  0  0  0
 15 25  1  0  0  0  0
 15 36  1  0  0  0  0
 16 17  1  0  0  0  0
 16 26  1  0  0  0  0
 17 18  1  0  0  0  0
 17 27  1  0  0  0  0
 18 19  1  0  0  0  0
 18 28  1  0  0  0  0
 19 20  1  6  0  0  0
 19 29  1  0  0  0  0
 20 30  1  0  0  0  0
 20 31  1  0  0  0  0
 21 23  2  0  0  0  0
 23 24  1  0  0  0  0
M  END
> <PUBCHEM_COMPOUND_CID>
439973

> <PUBCHEM_COMPOUND_CANONICALIZED>
1

> <PUBCHEM_CACTVS_COMPLEXITY>
719

> <PUBCHEM_CACTVS_HBOND_ACCEPTOR>
10

> <PUBCHEM_CACTVS_HBOND_DONOR>
7

> <PUBCHEM_CACTVS_ROTATABLE_BOND>
4

> <PUBCHEM_CACTVS_SUBSKEYS>
AAADccBzvAIAAAAAAAAAAAAAAAAAASIAAAAgAAAAAAAAAFgAAAAAHgAQCCAACBzhgAYBAAPABxCIQAVQUICAAAAAAAAAAACIAECDUAIAgCAeQAAPByITAEDwMAIAAAAAAAAAAAAAAAAAAAAAAAAAAAAAAA==

> <PUBCHEM_IUPAC_OPENEYE_NAME>
[(2R,3S,4R,5R)-3,4-dihydroxy-5-(2,6,8-trioxo-3,7-dihydropurin-9-yl)tetrahydrofuran-2-yl]methyl dihydrogen phosphate

> <PUBCHEM_IUPAC_CAS_NAME>
[(2R,3S,4R,5R)-3,4-dihydroxy-5-(2,6,8-trioxo-3,7-dihydropurin-9-yl)-2-oxolanyl]methyl dihydrogen phosphate

> <PUBCHEM_IUPAC_NAME>
[(2R,3S,4R,5R)-3,4-dihydroxy-5-(2,6,8-trioxo-3,7-dihydropurin-9-yl)oxolan-2-yl]methyl dihydrogen phosphate

> <PUBCHEM_IUPAC_SYSTEMATIC_NAME>
[(2R,3S,4R,5R)-3,4-bis(oxidanyl)-5-[2,6,8-tris(oxidanylidene)-3,7-dihydropurin-9-yl]oxolan-2-yl]methyl dihydrogen phosphate

> <PUBCHEM_IUPAC_TRADITIONAL_NAME>
[(2R,3S,4R,5R)-3,4-dihydroxy-5-(2,6,8-triketo-3,7-dihydropurin-9-yl)tetrahydrofuran-2-yl]methyl dihydrogen phosphate

> <PUBCHEM_IUPAC_INCHI>
InChI=1S/C10H13N4O10P/c15-4-2(1-23-25(20,21)22)24-8(5(4)16)14-6-3(11-10(14)19)7(17)13-9(18)12-6/h2,4-5,8,15-16H,1H2,(H,11,19)(H2,20,21,22)(H2,12,13,17,18)/t2-,4-,5-,8-/m1/s1

> <PUBCHEM_IUPAC_INCHIKEY>
YWNXQSHHYSTFPH-UMMCILCDSA-N

> <PUBCHEM_XLOGP3_AA>
-4.9

> <PUBCHEM_EXACT_MASS>
380.036929

> <PUBCHEM_MOLECULAR_FORMULA>
C10H13N4O10P

> <PUBCHEM_MOLECULAR_WEIGHT>
380.204782

> <PUBCHEM_OPENEYE_CAN_SMILES>
C(C1C(C(C(O1)N2C3=C(C(=O)NC(=O)N3)NC2=O)O)O)OP(=O)(O)O

> <PUBCHEM_OPENEYE_ISO_SMILES>
C([C@@H]1[C@H]([C@H]([C@@H](O1)N2C3=C(C(=O)NC(=O)N3)NC2=O)O)O)OP(=O)(O)O

> <PUBCHEM_CACTVS_TPSA>
207

> <PUBCHEM_MONOISOTOPIC_WEIGHT>
380.036929

> <PUBCHEM_TOTAL_CHARGE>
0

> <PUBCHEM_HEAVY_ATOM_COUNT>
25

> <PUBCHEM_ATOM_DEF_STEREO_COUNT>
4

> <PUBCHEM_ATOM_UDEF_STEREO_COUNT>
0

> <PUBCHEM_BOND_DEF_STEREO_COUNT>
0

> <PUBCHEM_BOND_UDEF_STEREO_COUNT>
0

> <PUBCHEM_ISOTOPIC_ATOM_COUNT>
0

> <PUBCHEM_COMPONENT_COUNT>
1

> <PUBCHEM_CACTVS_TAUTO_COUNT>
18

> <PUBCHEM_COORDINATE_TYPE>
1
5
255

> <PUBCHEM_BONDANNOTATIONS>
16  12  6
12  21  8
12  22  8
13  22  8
13  23  8
14  21  8
14  25  8
15  24  8
15  25  8
19  20  6
21  23  8
23  24  8
17  3  5
18  4  5

$$$$

