5243
  -OEChem-06261200363D

 44 46  0     0  0  0  0  0  0999 V2000
    5.3880   -2.2366   -0.4872 S   0  0  0  0  0  0  0  0  0  0  0  0
   -5.4046   -2.1587   -0.5429 S   0  0  0  0  0  0  0  0  0  0  0  0
    5.2092   -0.6820    0.0180 O   0  0  0  0  0  0  0  0  0  0  0  0
   -4.1608   -2.4457    0.4936 O   0  0  0  0  0  0  0  0  0  0  0  0
    7.0039   -2.4677   -0.4750 O   0  0  0  0  0  0  0  0  0  0  0  0
   -6.4438   -3.3841   -0.2544 O   0  0  0  0  0  0  0  0  0  0  0  0
    4.8028   -3.1244    0.5007 O   0  0  0  0  0  0  0  0  0  0  0  0
    4.9514   -2.3034   -1.8698 O   0  0  0  0  0  0  0  0  0  0  0  0
   -6.0591   -0.9200   -0.1636 O   0  0  0  0  0  0  0  0  0  0  0  0
   -4.9004   -2.3274   -1.8934 O   0  0  0  0  0  0  0  0  0  0  0  0
   -0.9387    2.5002   -1.0241 N   0  0  0  0  0  0  0  0  0  0  0  0
    0.0101    1.3346    0.8739 C   0  0  0  0  0  0  0  0  0  0  0  0
    1.3840    0.8014    0.6476 C   0  0  0  0  0  0  0  0  0  0  0  0
   -1.1326    0.2990    0.7695 C   0  0  0  0  0  0  0  0  0  0  0  0
   -0.3217    2.6553    0.1426 C   0  0  0  0  0  0  0  0  0  0  0  0
    2.0729    0.1834    1.6910 C   0  0  0  0  0  0  0  0  0  0  0  0
   -2.2077    0.4416    1.6039 C   0  0  0  0  0  0  0  0  0  0  0  0
    1.9804    0.9210   -0.6078 C   0  0  0  0  0  0  0  0  0  0  0  0
   -1.0080   -0.7052   -0.1518 C   0  0  0  0  0  0  0  0  0  0  0  0
    0.0422    3.8160    0.7511 C   0  0  0  0  0  0  0  0  0  0  0  0
    3.3583   -0.3150    1.4794 C   0  0  0  0  0  0  0  0  0  0  0  0
   -3.2387   -0.4931    1.5098 C   0  0  0  0  0  0  0  0  0  0  0  0
    3.2659    0.4224   -0.8196 C   0  0  0  0  0  0  0  0  0  0  0  0
   -2.0391   -1.6399   -0.2460 C   0  0  0  0  0  0  0  0  0  0  0  0
    3.9549   -0.1957    0.2240 C   0  0  0  0  0  0  0  0  0  0  0  0
   -3.1546   -1.5339    0.5849 C   0  0  0  0  0  0  0  0  0  0  0  0
   -0.2706    4.9856    0.0671 C   0  0  0  0  0  0  0  0  0  0  0  0
   -1.2265    3.6583   -1.6596 C   0  0  0  0  0  0  0  0  0  0  0  0
   -0.9170    4.9138   -1.1619 C   0  0  0  0  0  0  0  0  0  0  0  0
    0.0009    1.6159    1.9413 H   0  0  0  0  0  0  0  0  0  0  0  0
    1.6213    0.0803    2.6743 H   0  0  0  0  0  0  0  0  0  0  0  0
   -2.2805    1.2498    2.3242 H   0  0  0  0  0  0  0  0  0  0  0  0
    1.4693    1.3833   -1.4464 H   0  0  0  0  0  0  0  0  0  0  0  0
   -0.1635   -0.8066   -0.8223 H   0  0  0  0  0  0  0  0  0  0  0  0
    0.5483    3.8561    1.7078 H   0  0  0  0  0  0  0  0  0  0  0  0
    3.8898   -0.7939    2.2973 H   0  0  0  0  0  0  0  0  0  0  0  0
   -4.1039   -0.4051    2.1613 H   0  0  0  0  0  0  0  0  0  0  0  0
    3.7241    0.5176   -1.8002 H   0  0  0  0  0  0  0  0  0  0  0  0
   -1.9677   -2.4472   -0.9699 H   0  0  0  0  0  0  0  0  0  0  0  0
   -0.0104    5.9510    0.4906 H   0  0  0  0  0  0  0  0  0  0  0  0
   -1.7306    3.5479   -2.6142 H   0  0  0  0  0  0  0  0  0  0  0  0
   -1.1703    5.8123   -1.7129 H   0  0  0  0  0  0  0  0  0  0  0  0
    7.5351   -1.7494   -0.8923 H   0  0  0  0  0  0  0  0  0  0  0  0
   -6.0357   -4.2806   -0.2101 H   0  0  0  0  0  0  0  0  0  0  0  0
  1  3  1  0  0  0  0
  1  5  1  0  0  0  0
  1  7  2  0  0  0  0
  1  8  2  0  0  0  0
  2  4  1  0  0  0  0
  2  6  1  0  0  0  0
  2  9  2  0  0  0  0
  2 10  2  0  0  0  0
  3 25  1  0  0  0  0
  4 26  1  0  0  0  0
  5 43  1  0  0  0  0
  6 44  1  0  0  0  0
 11 15  1  0  0  0  0
 11 28  2  0  0  0  0
 12 13  1  0  0  0  0
 12 14  1  0  0  0  0
 12 15  1  0  0  0  0
 12 30  1  0  0  0  0
 13 16  2  0  0  0  0
 13 18  1  0  0  0  0
 14 17  2  0  0  0  0
 14 19  1  0  0  0  0
 15 20  2  0  0  0  0
 16 21  1  0  0  0  0
 16 31  1  0  0  0  0
 17 22  1  0  0  0  0
 17 32  1  0  0  0  0
 18 23  2  0  0  0  0
 18 33  1  0  0  0  0
 19 24  2  0  0  0  0
 19 34  1  0  0  0  0
 20 27  1  0  0  0  0
 20 35  1  0  0  0  0
 21 25  2  0  0  0  0
 21 36  1  0  0  0  0
 22 26  2  0  0  0  0
 22 37  1  0  0  0  0
 23 25  1  0  0  0  0
 23 38  1  0  0  0  0
 24 26  1  0  0  0  0
 24 39  1  0  0  0  0
 27 29  2  0  0  0  0
 27 40  1  0  0  0  0
 28 29  1  0  0  0  0
 28 41  1  0  0  0  0
 29 42  1  0  0  0  0
M  END
> <PUBCHEM_COMPOUND_CID>
5243

> <PUBCHEM_CONFORMER_RMSD>
0.8

> <PUBCHEM_CONFORMER_DIVERSEORDER>
1
54
37
63
66
61
46
44
49
9
34
19
11
60
68
6
12
27
10
24
42
48
55
58
8
69
5
39
40
35
23
62
2
70
22
64
57
67
20
47
31
41
50
33
15
4
26
56
21
17
43
7
51
29
13
52
32
28
30
53
65
45
38
14
36
16
18
59
25
3

> <PUBCHEM_MMFF94_PARTIAL_CHARGES>
43
1 1.67
10 -0.65
11 -0.62
12 0.43
13 -0.14
14 -0.14
15 0.17
16 -0.15
17 -0.15
18 -0.15
19 -0.15
2 1.67
20 -0.15
21 -0.15
22 -0.15
23 -0.15
24 -0.15
25 0.08
26 0.08
27 -0.15
28 0.16
29 -0.15
3 -0.27
31 0.15
32 0.15
33 0.15
34 0.15
35 0.15
36 0.15
37 0.15
38 0.15
39 0.15
4 -0.27
40 0.15
41 0.15
42 0.15
43 0.5
44 0.5
5 -0.68
6 -0.68
7 -0.65
8 -0.65
9 -0.65

> <PUBCHEM_EFFECTIVE_ROTOR_COUNT>
7

> <PUBCHEM_PHARMACOPHORE_FEATURES>
12
1 10 acceptor
1 11 acceptor
1 5 acceptor
1 6 acceptor
1 7 acceptor
1 8 acceptor
1 9 acceptor
4 1 5 7 8 anion
4 2 6 9 10 anion
6 11 15 20 27 28 29 rings
6 13 16 18 21 23 25 rings
6 14 17 19 22 24 26 rings

> <PUBCHEM_HEAVY_ATOM_COUNT>
29

> <PUBCHEM_ATOM_DEF_STEREO_COUNT>
0

> <PUBCHEM_ATOM_UDEF_STEREO_COUNT>
0

> <PUBCHEM_BOND_DEF_STEREO_COUNT>
0

> <PUBCHEM_BOND_UDEF_STEREO_COUNT>
0

> <PUBCHEM_ISOTOPIC_ATOM_COUNT>
0

> <PUBCHEM_COMPONENT_COUNT>
1

> <PUBCHEM_CACTVS_TAUTO_COUNT>
1

> <PUBCHEM_CONFORMER_ID>
0000147B00000001

> <PUBCHEM_MMFF94_ENERGY>
81.5346

> <PUBCHEM_FEATURE_SELFOVERLAP>
61.011

> <PUBCHEM_SHAPE_FINGERPRINT>
10254770 206 16326260918475488378
105312 117 17694775625371011028
11069576 57 17395872967878479679
11331351 85 18261387850176728345
11809386 21 18127974307653346114
11991303 11 17769655635191450677
12166972 35 18190460463976734627
12633046 712 17772445938479293315
12788726 201 18059018413788091961
13540713 4 18189071931347019280
13690498 29 18335413630284492030
13911987 19 17483085187186662132
14068700 675 18272934942560317662
14114206 34 17774998028840872344
14347329 18 15839621152787907295
14347332 77 18341612685215491154
14556957 393 17916565614648319812
14955137 171 18199160968011650649
15420108 30 17184209240248627336
15475509 8 18412263948278637587
15664445 248 18268430123009513832
16628084 112 18055634168986343459
17349148 13 17751349600450815283
17539 30 18340769367785820468
1813 80 18337668616251409641
21033648 29 6915992409124527746
21424621 283 9871750186958378559
21703447 108 18411430501306240848
22907989 373 18269552900522949700
23559900 14 18124319303226667339
24771750 20 17194029004023077461
255183 313 17975956967810292993
3103668 31 18199756998120255301
3388396 114 17771874235620290116
3472631 163 11527954438839745091
437815 12 18412267207779123975
4409770 3 18196934598288244265
5080951 261 17898031232811228926
5081480 168 18057057813363724101
613672 6 18271527490135563258
633830 44 16125810934242973074
7164475 11 18343293799971621204
7970288 3 18409165476592743570

> <PUBCHEM_SHAPE_MULTIPOLES>
552.57
12.73
5.88
1.52
3.16
7.7
-0.06
-21.96
-3.43
-2.6
-2.25
-0.11
0.15
0.45

> <PUBCHEM_SHAPE_SELFOVERLAP>
1176.169

> <PUBCHEM_SHAPE_VOLUME>
309.1

> <PUBCHEM_COORDINATE_TYPE>
2
5
10

$$$$

