443266
  -OEChem-07051213013D

 44 44  0     1  0  0  0  0  0999 V2000
   -0.6868   -3.1232   -1.0472 P   0  0  0  0  0  0  0  0  0  0  0  0
    1.4051    3.0134   -1.0591 P   0  0  0  0  0  0  0  0  0  0  0  0
   -3.6979    1.0011    0.2925 P   0  0  0  0  0  0  0  0  0  0  0  0
    3.2125   -0.9513    0.5007 P   0  0  0  0  0  0  0  0  0  0  0  0
    0.2582   -1.8564   -0.7274 O   0  0  0  0  0  0  0  0  0  0  0  0
    0.3746    1.7758   -1.1441 O   0  0  0  0  0  0  0  0  0  0  0  0
   -2.2923    0.7234   -0.4480 O   0  0  0  0  0  0  0  0  0  0  0  0
    1.8563   -0.5243    1.2649 O   0  0  0  0  0  0  0  0  0  0  0  0
   -0.7170   -1.4608    2.0087 O   0  0  0  0  0  0  0  0  0  0  0  0
    0.2638    0.9327    3.0558 O   0  0  0  0  0  0  0  0  0  0  0  0
    0.3041   -4.3927   -0.9007 O   0  0  0  0  0  0  0  0  0  0  0  0
   -0.9034   -3.0030   -2.6454 O   0  0  0  0  0  0  0  0  0  0  0  0
    0.6477    4.2034   -1.8500 O   0  0  0  0  0  0  0  0  0  0  0  0
    2.5720    2.5680   -2.0862 O   0  0  0  0  0  0  0  0  0  0  0  0
   -4.3179    2.2147   -0.5780 O   0  0  0  0  0  0  0  0  0  0  0  0
   -4.6138   -0.2638   -0.1276 O   0  0  0  0  0  0  0  0  0  0  0  0
    4.2152    0.2672    0.8541 O   0  0  0  0  0  0  0  0  0  0  0  0
    3.7872   -2.1751    1.3880 O   0  0  0  0  0  0  0  0  0  0  0  0
   -1.9500   -3.1987   -0.2404 O   0  0  0  0  0  0  0  0  0  0  0  0
    1.8757    3.3597    0.3233 O   0  0  0  0  0  0  0  0  0  0  0  0
   -3.6028    1.2628    1.7673 O   0  0  0  0  0  0  0  0  0  0  0  0
    3.0560   -1.2388   -0.9639 O   0  0  0  0  0  0  0  0  0  0  0  0
   -0.2810   -0.5512   -0.9226 C   0  0  2  0  0  0  0  0  0  0  0  0
    0.8114    0.5054   -0.6669 C   0  0  2  0  0  0  0  0  0  0  0  0
   -1.5129   -0.3883   -0.0125 C   0  0  1  0  0  0  0  0  0  0  0  0
    1.1717    0.6441    0.8192 C   0  0  1  0  0  0  0  0  0  0  0  0
   -1.1528   -0.2130    1.4709 C   0  0  2  0  0  0  0  0  0  0  0  0
   -0.0830    0.8691    1.6747 C   0  0  1  0  0  0  0  0  0  0  0  0
   -0.6024   -0.4566   -1.9675 H   0  0  0  0  0  0  0  0  0  0  0  0
    1.6627    0.2745   -1.2926 H   0  0  0  0  0  0  0  0  0  0  0  0
   -2.2049   -1.2059   -0.1049 H   0  0  0  0  0  0  0  0  0  0  0  0
    1.8830    1.4256    1.0418 H   0  0  0  0  0  0  0  0  0  0  0  0
   -1.9876    0.0195    2.1156 H   0  0  0  0  0  0  0  0  0  0  0  0
   -0.5218    1.8403    1.4145 H   0  0  0  0  0  0  0  0  0  0  0  0
   -1.4322   -2.1061    1.8754 H   0  0  0  0  0  0  0  0  0  0  0  0
    0.9218    1.6409    3.1607 H   0  0  0  0  0  0  0  0  0  0  0  0
   -0.0649   -5.2964   -0.9978 H   0  0  0  0  0  0  0  0  0  0  0  0
   -1.5315   -3.6140   -3.0862 H   0  0  0  0  0  0  0  0  0  0  0  0
    1.0645    5.0907   -1.8841 H   0  0  0  0  0  0  0  0  0  0  0  0
    3.3833    3.1156   -2.1490 H   0  0  0  0  0  0  0  0  0  0  0  0
   -5.1471    2.6414   -0.2738 H   0  0  0  0  0  0  0  0  0  0  0  0
   -5.5128   -0.3467    0.2557 H   0  0  0  0  0  0  0  0  0  0  0  0
    5.0958    0.2972    0.4232 H   0  0  0  0  0  0  0  0  0  0  0  0
    4.5908   -2.6469    1.0815 H   0  0  0  0  0  0  0  0  0  0  0  0
  1  5  1  0  0  0  0
  1 11  1  0  0  0  0
  1 12  1  0  0  0  0
  1 19  2  0  0  0  0
  2  6  1  0  0  0  0
  2 13  1  0  0  0  0
  2 14  1  0  0  0  0
  2 20  2  0  0  0  0
  3  7  1  0  0  0  0
  3 15  1  0  0  0  0
  3 16  1  0  0  0  0
  3 21  2  0  0  0  0
  4  8  1  0  0  0  0
  4 17  1  0  0  0  0
  4 18  1  0  0  0  0
  4 22  2  0  0  0  0
  5 23  1  0  0  0  0
  6 24  1  0  0  0  0
  7 25  1  0  0  0  0
  8 26  1  0  0  0  0
  9 27  1  0  0  0  0
  9 35  1  0  0  0  0
 10 28  1  0  0  0  0
 10 36  1  0  0  0  0
 11 37  1  0  0  0  0
 12 38  1  0  0  0  0
 13 39  1  0  0  0  0
 14 40  1  0  0  0  0
 15 41  1  0  0  0  0
 16 42  1  0  0  0  0
 17 43  1  0  0  0  0
 18 44  1  0  0  0  0
 23 24  1  0  0  0  0
 23 25  1  0  0  0  0
 23 29  1  0  0  0  0
 24 26  1  0  0  0  0
 24 30  1  0  0  0  0
 25 27  1  0  0  0  0
 25 31  1  0  0  0  0
 26 28  1  0  0  0  0
 26 32  1  0  0  0  0
 27 28  1  0  0  0  0
 27 33  1  0  0  0  0
 28 34  1  0  0  0  0
M  END
> <PUBCHEM_COMPOUND_CID>
443266

> <PUBCHEM_CONFORMER_RMSD>
1

> <PUBCHEM_CONFORMER_DIVERSEORDER>
1
6
5
3
2
4

> <PUBCHEM_MMFF94_PARTIAL_CHARGES>
38
1 1.51
10 -0.68
11 -0.77
12 -0.77
13 -0.77
14 -0.77
15 -0.77
16 -0.77
17 -0.77
18 -0.77
19 -0.7
2 1.51
20 -0.7
21 -0.7
22 -0.7
23 0.28
24 0.28
25 0.28
26 0.28
27 0.28
28 0.28
3 1.51
35 0.4
36 0.4
37 0.5
38 0.5
39 0.5
4 1.51
40 0.5
41 0.5
42 0.5
43 0.5
44 0.5
5 -0.55
6 -0.55
7 -0.55
8 -0.55
9 -0.68

> <PUBCHEM_EFFECTIVE_ROTOR_COUNT>
9.2

> <PUBCHEM_PHARMACOPHORE_FEATURES>
21
1 10 acceptor
1 10 donor
1 11 acceptor
1 12 acceptor
1 13 acceptor
1 14 acceptor
1 15 acceptor
1 16 acceptor
1 17 acceptor
1 18 acceptor
1 19 acceptor
1 20 acceptor
1 21 acceptor
1 22 acceptor
1 9 acceptor
1 9 donor
4 1 11 12 19 anion
4 2 13 14 20 anion
4 3 15 16 21 anion
4 4 17 18 22 anion
6 23 24 25 26 27 28 rings

> <PUBCHEM_HEAVY_ATOM_COUNT>
28

> <PUBCHEM_ATOM_DEF_STEREO_COUNT>
6

> <PUBCHEM_ATOM_UDEF_STEREO_COUNT>
0

> <PUBCHEM_BOND_DEF_STEREO_COUNT>
0

> <PUBCHEM_BOND_UDEF_STEREO_COUNT>
0

> <PUBCHEM_ISOTOPIC_ATOM_COUNT>
0

> <PUBCHEM_COMPONENT_COUNT>
1

> <PUBCHEM_CACTVS_TAUTO_COUNT>
1

> <PUBCHEM_CONFORMER_ID>
0006C38200000001

> <PUBCHEM_MMFF94_ENERGY>
-43.1128

> <PUBCHEM_FEATURE_SELFOVERLAP>
106.718

> <PUBCHEM_SHAPE_FINGERPRINT>
10863032 1 18268422426248674057
11578080 2 17680714709291182001
12788726 201 16825862964496059468
12930653 34 17175213121903365680
13134695 92 18059852900053377525
133893 2 17128200246941831272
13583140 156 17845358982243143531
14178342 30 17978242564731724380
14943834 7 18122911919241203422
16945 1 18116719714503355913
17980427 26 17131565937385056697
20600515 1 18114183055769366900
21330990 113 17974572703897026772
21524375 3 18125983985095271541
229495 10 17836898158525826809
23419403 2 16313062329212359283
23558518 356 18053954947877819002
23559900 14 17603585244998934810
3380486 145 16245449012418480514
5845 1 15476730392770473843

> <PUBCHEM_SHAPE_MULTIPOLES>
485.98
5.74
4.64
2.19
2.46
0.88
0.48
-1.41
1.02
-0.94
-3.29
-0.36
-0.23
-1.48

> <PUBCHEM_SHAPE_SELFOVERLAP>
935.702

> <PUBCHEM_SHAPE_VOLUME>
296.8

> <PUBCHEM_COORDINATE_TYPE>
2
5
10

$$$$

