16069998
  -OEChem-07051212483D

 75 77  0     1  0  0  0  0  0999 V2000
   -0.9617   -0.6126    0.3158 O   0  0  0  0  0  0  0  0  0  0  0  0
    1.8682   -0.2583    0.1987 O   0  0  0  0  0  0  0  0  0  0  0  0
   -2.9043    0.4050    1.1514 O   0  0  0  0  0  0  0  0  0  0  0  0
    0.8067   -2.1990    3.0824 O   0  0  0  0  0  0  0  0  0  0  0  0
    4.1249    0.2447   -0.3132 O   0  0  0  0  0  0  0  0  0  0  0  0
   -1.9092    1.2632   -1.4746 O   0  0  0  0  0  0  0  0  0  0  0  0
   -6.1786    1.1308   -0.3612 O   0  0  0  0  0  0  0  0  0  0  0  0
    2.5317    3.3008    2.7244 O   0  0  0  0  0  0  0  0  0  0  0  0
   -0.5880   -4.1602    1.2630 N   0  0  0  0  0  0  0  0  0  0  0  0
    2.4359   -3.7852    1.1366 N   0  0  0  0  0  0  0  0  0  0  0  0
   -4.8723   -0.8995   -1.6670 N   0  0  0  0  0  0  0  0  0  0  0  0
    1.4163    2.4975    0.8449 N   0  0  0  0  0  0  0  0  0  0  0  0
    5.1173   -0.1270   -3.8414 N   0  0  0  0  0  0  0  0  0  0  0  0
   -0.6452   -1.6896    1.2008 C   0  0  2  0  0  0  0  0  0  0  0  0
    1.8985   -1.3707    1.0957 C   0  0  1  0  0  0  0  0  0  0  0  0
    0.6354   -1.3246    1.9716 C   0  0  2  0  0  0  0  0  0  0  0  0
   -0.5294   -2.9909    0.3843 C   0  0  1  0  0  0  0  0  0  0  0  0
    2.0409   -2.6686    0.2778 C   0  0  2  0  0  0  0  0  0  0  0  0
    0.7428   -2.9914   -0.4844 C   0  0  0  0  0  0  0  0  0  0  0  0
   -2.3713   -0.4717    0.1583 C   0  0  1  0  0  0  0  0  0  0  0  0
   -4.1507    0.3667   -1.4640 C   0  0  2  0  0  0  0  0  0  0  0  0
   -2.6549    0.0647   -1.2522 C   0  0  1  0  0  0  0  0  0  0  0  0
   -4.7503    1.1528   -0.2643 C   0  0  2  0  0  0  0  0  0  0  0  0
    2.9639    0.6239    0.4337 C   0  0  1  0  0  0  0  0  0  0  0  0
    2.5709    2.0673    0.0960 C   0  0  1  0  0  0  0  0  0  0  0  0
   -4.3248    0.5164    1.0666 C   0  0  0  0  0  0  0  0  0  0  0  0
    2.3507    2.2328   -1.4080 C   0  0  0  0  0  0  0  0  0  0  0  0
    3.9360    0.3060   -1.7318 C   0  0  1  0  0  0  0  0  0  0  0  0
    3.5702    1.7253   -2.1710 C   0  0  0  0  0  0  0  0  0  0  0  0
   -4.3384    2.6339   -0.2937 C   0  0  0  0  0  0  0  0  0  0  0  0
    5.2312   -0.1516   -2.3899 C   0  0  0  0  0  0  0  0  0  0  0  0
   -4.7048   -1.3678   -3.0317 C   0  0  0  0  0  0  0  0  0  0  0  0
    1.4968    3.0800    2.1007 C   0  0  0  0  0  0  0  0  0  0  0  0
    0.1453    3.4569    2.6457 C   0  0  0  0  0  0  0  0  0  0  0  0
   -1.4475   -1.7967    1.9460 H   0  0  0  0  0  0  0  0  0  0  0  0
    2.7759   -1.3146    1.7555 H   0  0  0  0  0  0  0  0  0  0  0  0
    0.5179   -0.3082    2.3690 H   0  0  0  0  0  0  0  0  0  0  0  0
   -1.3791   -3.0677   -0.3049 H   0  0  0  0  0  0  0  0  0  0  0  0
    2.8331   -2.5309   -0.4689 H   0  0  0  0  0  0  0  0  0  0  0  0
    0.8413   -3.9530   -1.0060 H   0  0  0  0  0  0  0  0  0  0  0  0
    0.6163   -2.2425   -1.2785 H   0  0  0  0  0  0  0  0  0  0  0  0
   -2.8642   -1.4481    0.2582 H   0  0  0  0  0  0  0  0  0  0  0  0
   -4.2900    0.9951   -2.3549 H   0  0  0  0  0  0  0  0  0  0  0  0
   -2.2605   -0.6490   -1.9825 H   0  0  0  0  0  0  0  0  0  0  0  0
    3.2440    0.6174    1.4950 H   0  0  0  0  0  0  0  0  0  0  0  0
    3.4130    2.7158    0.3744 H   0  0  0  0  0  0  0  0  0  0  0  0
   -4.6656    1.1284    1.9098 H   0  0  0  0  0  0  0  0  0  0  0  0
   -4.7853   -0.4695    1.2089 H   0  0  0  0  0  0  0  0  0  0  0  0
   -0.5533   -5.0114    0.7039 H   0  0  0  0  0  0  0  0  0  0  0  0
   -1.4797   -4.1746    1.7563 H   0  0  0  0  0  0  0  0  0  0  0  0
    3.3361   -3.5844    1.5700 H   0  0  0  0  0  0  0  0  0  0  0  0
    2.5687   -4.6229    0.5715 H   0  0  0  0  0  0  0  0  0  0  0  0
    2.1684    3.2861   -1.6527 H   0  0  0  0  0  0  0  0  0  0  0  0
    1.4582    1.6790   -1.7271 H   0  0  0  0  0  0  0  0  0  0  0  0
    3.1314   -0.3882   -2.0079 H   0  0  0  0  0  0  0  0  0  0  0  0
    3.3636    1.7721   -3.2457 H   0  0  0  0  0  0  0  0  0  0  0  0
    4.4094    2.4030   -1.9674 H   0  0  0  0  0  0  0  0  0  0  0  0
    1.5840   -1.8948    3.5810 H   0  0  0  0  0  0  0  0  0  0  0  0
   -4.8854    3.2007    0.4693 H   0  0  0  0  0  0  0  0  0  0  0  0
   -3.2716    2.7857   -0.1123 H   0  0  0  0  0  0  0  0  0  0  0  0
   -4.5983    3.0906   -1.2554 H   0  0  0  0  0  0  0  0  0  0  0  0
   -5.8667   -0.7476   -1.4977 H   0  0  0  0  0  0  0  0  0  0  0  0
    0.4984    2.3125    0.4498 H   0  0  0  0  0  0  0  0  0  0  0  0
   -2.0726    1.5451   -2.3909 H   0  0  0  0  0  0  0  0  0  0  0  0
    5.4788   -1.1654   -2.0538 H   0  0  0  0  0  0  0  0  0  0  0  0
    6.0652    0.4864   -2.0745 H   0  0  0  0  0  0  0  0  0  0  0  0
   -6.5410    1.5691    0.4277 H   0  0  0  0  0  0  0  0  0  0  0  0
   -5.2885   -2.2846   -3.1663 H   0  0  0  0  0  0  0  0  0  0  0  0
   -5.0734   -0.6392   -3.7618 H   0  0  0  0  0  0  0  0  0  0  0  0
   -3.6684   -1.6204   -3.2706 H   0  0  0  0  0  0  0  0  0  0  0  0
    5.9741   -0.4928   -4.2545 H   0  0  0  0  0  0  0  0  0  0  0  0
    4.3678   -0.7506   -4.1381 H   0  0  0  0  0  0  0  0  0  0  0  0
   -0.2507    4.3070    2.0838 H   0  0  0  0  0  0  0  0  0  0  0  0
    0.2364    3.7323    3.6999 H   0  0  0  0  0  0  0  0  0  0  0  0
   -0.5446    2.6119    2.5627 H   0  0  0  0  0  0  0  0  0  0  0  0
  1 14  1  0  0  0  0
  1 20  1  0  0  0  0
  2 15  1  0  0  0  0
  2 24  1  0  0  0  0
  3 20  1  0  0  0  0
  3 26  1  0  0  0  0
  4 16  1  0  0  0  0
  4 58  1  0  0  0  0
  5 24  1  0  0  0  0
  5 28  1  0  0  0  0
  6 22  1  0  0  0  0
  6 64  1  0  0  0  0
  7 23  1  0  0  0  0
  7 67  1  0  0  0  0
  8 33  2  0  0  0  0
  9 17  1  0  0  0  0
  9 49  1  0  0  0  0
  9 50  1  0  0  0  0
 10 18  1  0  0  0  0
 10 51  1  0  0  0  0
 10 52  1  0  0  0  0
 11 21  1  0  0  0  0
 11 32  1  0  0  0  0
 11 62  1  0  0  0  0
 12 25  1  0  0  0  0
 12 33  1  0  0  0  0
 12 63  1  0  0  0  0
 13 31  1  0  0  0  0
 13 71  1  0  0  0  0
 13 72  1  0  0  0  0
 14 16  1  0  0  0  0
 14 17  1  0  0  0  0
 14 35  1  0  0  0  0
 15 16  1  0  0  0  0
 15 18  1  0  0  0  0
 15 36  1  0  0  0  0
 16 37  1  0  0  0  0
 17 19  1  0  0  0  0
 17 38  1  0  0  0  0
 18 19  1  0  0  0  0
 18 39  1  0  0  0  0
 19 40  1  0  0  0  0
 19 41  1  0  0  0  0
 20 22  1  0  0  0  0
 20 42  1  0  0  0  0
 21 22  1  0  0  0  0
 21 23  1  0  0  0  0
 21 43  1  0  0  0  0
 22 44  1  0  0  0  0
 23 26  1  0  0  0  0
 23 30  1  0  0  0  0
 24 25  1  0  0  0  0
 24 45  1  0  0  0  0
 25 27  1  0  0  0  0
 25 46  1  0  0  0  0
 26 47  1  0  0  0  0
 26 48  1  0  0  0  0
 27 29  1  0  0  0  0
 27 53  1  0  0  0  0
 27 54  1  0  0  0  0
 28 29  1  0  0  0  0
 28 31  1  0  0  0  0
 28 55  1  0  0  0  0
 29 56  1  0  0  0  0
 29 57  1  0  0  0  0
 30 59  1  0  0  0  0
 30 60  1  0  0  0  0
 30 61  1  0  0  0  0
 31 65  1  0  0  0  0
 31 66  1  0  0  0  0
 32 68  1  0  0  0  0
 32 69  1  0  0  0  0
 32 70  1  0  0  0  0
 33 34  1  0  0  0  0
 34 73  1  0  0  0  0
 34 74  1  0  0  0  0
 34 75  1  0  0  0  0
M  END
> <PUBCHEM_COMPOUND_CID>
16069998

> <PUBCHEM_CONFORMER_RMSD>
1.2

> <PUBCHEM_CONFORMER_DIVERSEORDER>
1
32
30
21
15
65
35
67
36
55
27
70
48
53
56
10
12
68
61
17
34
14
42
4
41
39
3
47
28
46
13
54
51
59
38
44
19
58
43
69
20
26
63
66
23
52
45
33
50
25
57
64
7
22
5
18
9
31
49
16
60
37
8
24
71
2
40
62
11
6
29

> <PUBCHEM_MMFF94_PARTIAL_CHARGES>
41
1 -0.56
10 -0.99
11 -0.9
12 -0.73
13 -0.99
14 0.28
15 0.28
16 0.28
17 0.27
18 0.27
2 -0.56
20 0.56
21 0.27
22 0.28
23 0.28
24 0.56
25 0.3
26 0.28
28 0.28
3 -0.56
31 0.27
32 0.27
33 0.57
34 0.06
4 -0.68
49 0.36
5 -0.56
50 0.36
51 0.36
52 0.36
58 0.4
6 -0.68
62 0.36
63 0.37
64 0.4
67 0.4
7 -0.68
71 0.36
72 0.36
8 -0.57
9 -0.99

> <PUBCHEM_EFFECTIVE_ROTOR_COUNT>
11.6

> <PUBCHEM_PHARMACOPHORE_FEATURES>
23
1 1 acceptor
1 10 cation
1 10 donor
1 11 cation
1 11 donor
1 12 donor
1 13 cation
1 13 donor
1 2 acceptor
1 3 acceptor
1 4 acceptor
1 4 donor
1 5 acceptor
1 6 acceptor
1 6 donor
1 7 acceptor
1 7 donor
1 8 acceptor
1 9 cation
1 9 donor
6 14 15 16 17 18 19 rings
6 3 20 21 22 23 26 rings
6 5 24 25 27 28 29 rings

> <PUBCHEM_HEAVY_ATOM_COUNT>
34

> <PUBCHEM_ATOM_DEF_STEREO_COUNT>
12

> <PUBCHEM_ATOM_UDEF_STEREO_COUNT>
0

> <PUBCHEM_BOND_DEF_STEREO_COUNT>
0

> <PUBCHEM_BOND_UDEF_STEREO_COUNT>
0

> <PUBCHEM_ISOTOPIC_ATOM_COUNT>
0

> <PUBCHEM_COMPONENT_COUNT>
1

> <PUBCHEM_CACTVS_TAUTO_COUNT>
2

> <PUBCHEM_CONFORMER_ID>
00F5356E00000001

> <PUBCHEM_MMFF94_ENERGY>
77.1341

> <PUBCHEM_FEATURE_SELFOVERLAP>
116.809

> <PUBCHEM_SHAPE_FINGERPRINT>
10165383 225 18129359571237617837
11578080 2 18123744250235221112
12156800 1 14715424143968559400
12160290 23 17555745295946756131
12788726 201 17970890384090612976
15775530 1 17612024876735670920
20465049 17 18335409167180020199
20775438 99 17317629590083924375
21927370 108 17265524116702332482
22393880 68 18260557710133690949
23559900 14 15409230610017530851
238 59 18129958835355843735
469060 322 11022136054748402888
474 4 18201722885838611959
513532 50 17749122075512400496
5252454 2 18131350791291045143

> <PUBCHEM_SHAPE_MULTIPOLES>
627.84
10.44
4.5
3.17
7.98
0.98
-0.94
-3.47
-9.68
-1.88
3.56
-2.46
-0.45
-0.49

> <PUBCHEM_SHAPE_SELFOVERLAP>
1281.368

> <PUBCHEM_SHAPE_VOLUME>
358.1

> <PUBCHEM_COORDINATE_TYPE>
2
5
10

$$$$

