582695
  -OEChem-06241222433D

 48 51  0     0  0  0  0  0  0999 V2000
   -0.9621   -2.9163    1.1074 O   0  0  0  0  0  0  0  0  0  0  0  0
    1.1641   -3.4823   -0.6019 O   0  0  0  0  0  0  0  0  0  0  0  0
   -2.9623   -2.4976    0.0381 O   0  0  0  0  0  0  0  0  0  0  0  0
    0.6895   -1.6200   -1.8771 O   0  0  0  0  0  0  0  0  0  0  0  0
   -4.3649    1.6114    0.2721 N   0  0  0  0  0  0  0  0  0  0  0  0
    3.3972    1.7201   -1.2139 N   0  0  0  0  0  0  0  0  0  0  0  0
   -2.7465    0.2297    0.9033 C   0  0  0  0  0  0  0  0  0  0  0  0
    3.0112   -0.3814   -0.6876 C   0  0  0  0  0  0  0  0  0  0  0  0
   -2.2044    1.1495   -0.0375 C   0  0  0  0  0  0  0  0  0  0  0  0
    2.8134    0.3886    0.4783 C   0  0  0  0  0  0  0  0  0  0  0  0
   -3.2405    2.0054   -0.4177 C   0  0  0  0  0  0  0  0  0  0  0  0
    3.0633    1.7155    0.1217 C   0  0  0  0  0  0  0  0  0  0  0  0
   -2.0225   -0.8645    1.5817 C   0  0  0  0  0  0  0  0  0  0  0  0
    2.8585   -1.8669   -0.7952 C   0  0  0  0  0  0  0  0  0  0  0  0
   -4.0764    0.5393    1.0729 C   0  0  0  0  0  0  0  0  0  0  0  0
    3.3671    0.4455   -1.7126 C   0  0  0  0  0  0  0  0  0  0  0  0
   -0.9279    1.3367   -0.6039 C   0  0  0  0  0  0  0  0  0  0  0  0
    2.4467    0.1012    1.8080 C   0  0  0  0  0  0  0  0  0  0  0  0
   -3.0629    3.0431   -1.3395 C   0  0  0  0  0  0  0  0  0  0  0  0
    2.9642    2.7736    1.0322 C   0  0  0  0  0  0  0  0  0  0  0  0
   -2.0690   -2.1718    0.8081 C   0  0  0  0  0  0  0  0  0  0  0  0
    1.4509   -2.2697   -1.1733 C   0  0  0  0  0  0  0  0  0  0  0  0
   -0.7356    2.3706   -1.5274 C   0  0  0  0  0  0  0  0  0  0  0  0
    2.3438    1.1495    2.7297 C   0  0  0  0  0  0  0  0  0  0  0  0
   -1.7881    3.2095   -1.8881 C   0  0  0  0  0  0  0  0  0  0  0  0
    2.5990    2.4644    2.3455 C   0  0  0  0  0  0  0  0  0  0  0  0
   -0.8725   -4.1815    0.4445 C   0  0  0  0  0  0  0  0  0  0  0  0
   -0.1333   -4.0015   -0.8675 C   0  0  0  0  0  0  0  0  0  0  0  0
   -0.9741   -0.5755    1.7238 H   0  0  0  0  0  0  0  0  0  0  0  0
   -2.4460   -1.0535    2.5749 H   0  0  0  0  0  0  0  0  0  0  0  0
    3.5390   -2.2717   -1.5530 H   0  0  0  0  0  0  0  0  0  0  0  0
    3.1234   -2.3272    0.1641 H   0  0  0  0  0  0  0  0  0  0  0  0
   -4.8441    0.0937    1.6901 H   0  0  0  0  0  0  0  0  0  0  0  0
    3.6019    0.2553   -2.7506 H   0  0  0  0  0  0  0  0  0  0  0  0
   -5.2720    2.0508    0.1973 H   0  0  0  0  0  0  0  0  0  0  0  0
    3.6296    2.5458   -1.7484 H   0  0  0  0  0  0  0  0  0  0  0  0
   -0.1007    0.6889   -0.3347 H   0  0  0  0  0  0  0  0  0  0  0  0
    2.2409   -0.9176    2.1235 H   0  0  0  0  0  0  0  0  0  0  0  0
   -3.8817    3.6967   -1.6210 H   0  0  0  0  0  0  0  0  0  0  0  0
    3.1620    3.7977    0.7338 H   0  0  0  0  0  0  0  0  0  0  0  0
    0.2466    2.5187   -1.9684 H   0  0  0  0  0  0  0  0  0  0  0  0
    2.0598    0.9337    3.7563 H   0  0  0  0  0  0  0  0  0  0  0  0
   -1.6164    4.0062   -2.6075 H   0  0  0  0  0  0  0  0  0  0  0  0
    2.5123    3.2633    3.0775 H   0  0  0  0  0  0  0  0  0  0  0  0
   -1.8568   -4.6401    0.2990 H   0  0  0  0  0  0  0  0  0  0  0  0
   -0.2994   -4.8367    1.1094 H   0  0  0  0  0  0  0  0  0  0  0  0
   -0.0072   -4.9749   -1.3531 H   0  0  0  0  0  0  0  0  0  0  0  0
   -0.7180   -3.3718   -1.5462 H   0  0  0  0  0  0  0  0  0  0  0  0
  1 21  1  0  0  0  0
  1 27  1  0  0  0  0
  2 22  1  0  0  0  0
  2 28  1  0  0  0  0
  3 21  2  0  0  0  0
  4 22  2  0  0  0  0
  5 11  1  0  0  0  0
  5 15  1  0  0  0  0
  5 35  1  0  0  0  0
  6 12  1  0  0  0  0
  6 16  1  0  0  0  0
  6 36  1  0  0  0  0
  7  9  1  0  0  0  0
  7 13  1  0  0  0  0
  7 15  2  0  0  0  0
  8 10  1  0  0  0  0
  8 14  1  0  0  0  0
  8 16  2  0  0  0  0
  9 11  1  0  0  0  0
  9 17  2  0  0  0  0
 10 12  1  0  0  0  0
 10 18  2  0  0  0  0
 11 19  2  0  0  0  0
 12 20  2  0  0  0  0
 13 21  1  0  0  0  0
 13 29  1  0  0  0  0
 13 30  1  0  0  0  0
 14 22  1  0  0  0  0
 14 31  1  0  0  0  0
 14 32  1  0  0  0  0
 15 33  1  0  0  0  0
 16 34  1  0  0  0  0
 17 23  1  0  0  0  0
 17 37  1  0  0  0  0
 18 24  1  0  0  0  0
 18 38  1  0  0  0  0
 19 25  1  0  0  0  0
 19 39  1  0  0  0  0
 20 26  1  0  0  0  0
 20 40  1  0  0  0  0
 23 25  2  0  0  0  0
 23 41  1  0  0  0  0
 24 26  2  0  0  0  0
 24 42  1  0  0  0  0
 25 43  1  0  0  0  0
 26 44  1  0  0  0  0
 27 28  1  0  0  0  0
 27 45  1  0  0  0  0
 27 46  1  0  0  0  0
 28 47  1  0  0  0  0
 28 48  1  0  0  0  0
M  END
> <PUBCHEM_COMPOUND_CID>
582695

> <PUBCHEM_CONFORMER_RMSD>
1.2

> <PUBCHEM_CONFORMER_DIVERSEORDER>
8
21
7
140
74
20
5
70
18
72
119
55
1
32
87
156
104
25
153
101
62
3
159
127
11
103
51
34
13
63
158
66
109
15
172
88
76
17
78
139
126
42
94
145
65
168
136
120
138
48
132
71
134
86
166
163
123
137
33
164
26
59
121
133
135
111
143
58
161
108
91
90
110
95
118
93
56
169
46
170
92
49
2
24
102
29
128
31
157
125
30
47
160
144
4
142
173
148
165
83
6
147
154
36
67
146
40
35
39
22
77
80
41
52
45
112
141
167
116
130
175
44
73
9
10
79
113
85
150
97
12
16
152
68
124
149
81
23
84
107
53
75
96
27
57
19
171
151
105
61
43
54
50
131
155
129
122
115
162
89
64
98
60
106
14
69
28
117
37
174
99
38
100
114
82

> <PUBCHEM_MMFF94_PARTIAL_CHARGES>
38
1 -0.43
11 -0.15
12 -0.15
13 0.24
14 0.24
15 -0.3
16 -0.3
17 -0.15
18 -0.15
19 -0.15
2 -0.43
20 -0.15
21 0.66
22 0.66
23 -0.15
24 -0.15
25 -0.15
26 -0.15
27 0.28
28 0.28
3 -0.57
33 0.15
34 0.15
35 0.27
36 0.27
37 0.15
38 0.15
39 0.15
4 -0.57
40 0.15
41 0.15
42 0.15
43 0.15
44 0.15
5 0.03
6 0.03
7 -0.18
8 -0.18

> <PUBCHEM_EFFECTIVE_ROTOR_COUNT>
9

> <PUBCHEM_PHARMACOPHORE_FEATURES>
10
1 3 acceptor
1 4 acceptor
1 5 cation
1 5 donor
1 6 cation
1 6 donor
5 5 7 9 11 15 rings
5 6 8 10 12 16 rings
6 10 12 18 20 24 26 rings
6 9 11 17 19 23 25 rings

> <PUBCHEM_HEAVY_ATOM_COUNT>
28

> <PUBCHEM_ATOM_DEF_STEREO_COUNT>
0

> <PUBCHEM_ATOM_UDEF_STEREO_COUNT>
0

> <PUBCHEM_BOND_DEF_STEREO_COUNT>
0

> <PUBCHEM_BOND_UDEF_STEREO_COUNT>
0

> <PUBCHEM_ISOTOPIC_ATOM_COUNT>
0

> <PUBCHEM_COMPONENT_COUNT>
1

> <PUBCHEM_CACTVS_TAUTO_COUNT>
1

> <PUBCHEM_CONFORMER_ID>
0008E42700000008

> <PUBCHEM_MMFF94_ENERGY>
42.4525

> <PUBCHEM_FEATURE_SELFOVERLAP>
50.927

> <PUBCHEM_SHAPE_FINGERPRINT>
10165383 225 18190999284334524760
10366900 7 18261385693454429125
12100795 323 18338234847454538440
12104220 1 17120895014799918912
12156800 1 15879920353235572490
12522641 24 17970338429702324537
12553582 1 17842832235866483697
12633257 1 18335692888345577186
13402501 40 18268699679082472783
150020 26 17983872355938345995
151778 21 18338782528841479281
161222 619 16523033363392783273
17921350 177 18271253806414065456
17977149 70 18122880094066621836
20600515 1 16749912043123823958
20764821 26 18196931290967747492
20775438 99 17694821740824797719
23536364 44 17398921239618333974
23559900 14 17913202350043926005
238 59 17894633672956131054
3187 122 17836086676132459643
3298306 158 18124598836587814733
35225 105 17316480596206079868
3524813 1 18053084401051635783
469060 322 17248678086271461724
508706 21 18410290294336126054
6287921 2 17615386079370893536

> <PUBCHEM_SHAPE_MULTIPOLES>
542.79
7.01
5.29
2.19
1.79
4.67
0.63
-4.47
0.72
1.22
-1.12
-1.26
-1.1
2.71

> <PUBCHEM_SHAPE_SELFOVERLAP>
1192.495

> <PUBCHEM_SHAPE_VOLUME>
294

> <PUBCHEM_COORDINATE_TYPE>
2
5
10

$$$$

