439858
  -OEChem-07051212473D

 55 58  0     1  0  0  0  0  0999 V2000
    0.4509   -2.6573   -0.3689 O   0  0  0  0  0  0  0  0  0  0  0  0
   -5.2605    0.3790    0.7682 O   0  0  0  0  0  0  0  0  0  0  0  0
    6.3356   -0.3612   -0.9764 O   0  0  0  0  0  0  0  0  0  0  0  0
   -6.2294   -1.9407   -0.1802 O   0  0  0  0  0  0  0  0  0  0  0  0
   -1.1369    1.1856   -0.4223 C   0  0  2  0  0  0  0  0  0  0  0  0
   -2.0794    0.0793    0.0901 C   0  0  2  0  0  0  0  0  0  0  0  0
    0.2550    1.1204    0.2130 C   0  0  1  0  0  0  0  0  0  0  0  0
    0.9196   -0.2588   -0.1219 C   0  0  1  0  0  0  0  0  0  0  0  0
    2.3859   -0.3737    0.4881 C   0  0  2  0  0  0  0  0  0  0  0  0
   -1.4744   -1.2625   -0.3251 C   0  0  0  0  0  0  0  0  0  0  0  0
   -3.3658    0.4700   -0.6707 C   0  0  2  0  0  0  0  0  0  0  0  0
   -0.0396   -1.4495    0.2107 C   0  0  1  0  0  0  0  0  0  0  0  0
   -1.9654    2.4568   -0.2581 C   0  0  0  0  0  0  0  0  0  0  0  0
    1.1390    2.2727   -0.2778 C   0  0  0  0  0  0  0  0  0  0  0  0
   -3.3985    2.0099   -0.5960 C   0  0  0  0  0  0  0  0  0  0  0  0
    3.1903    0.8896    0.1346 C   0  0  0  0  0  0  0  0  0  0  0  0
   -2.3082    0.1011    1.6232 C   0  0  0  0  0  0  0  0  0  0  0  0
    2.5131    2.2174    0.3702 C   0  0  0  0  0  0  0  0  0  0  0  0
    3.1012   -1.6263   -0.0994 C   0  0  0  0  0  0  0  0  0  0  0  0
    2.3502   -0.5070    2.0280 C   0  0  0  0  0  0  0  0  0  0  0  0
   -4.6166   -0.1541   -0.1342 C   0  0  0  0  0  0  0  0  0  0  0  0
    4.6104   -1.6296    0.0913 C   0  0  0  0  0  0  0  0  0  0  0  0
    4.4458    0.8815   -0.3444 C   0  0  0  0  0  0  0  0  0  0  0  0
    5.2120   -0.3761   -0.4788 C   0  0  0  0  0  0  0  0  0  0  0  0
   -5.0342   -1.4663   -0.7633 C   0  0  0  0  0  0  0  0  0  0  0  0
   -0.9957    1.0508   -1.5080 H   0  0  0  0  0  0  0  0  0  0  0  0
    0.1550    1.2255    1.2984 H   0  0  0  0  0  0  0  0  0  0  0  0
    1.0533   -0.2821   -1.2159 H   0  0  0  0  0  0  0  0  0  0  0  0
   -1.4604   -1.3564   -1.4197 H   0  0  0  0  0  0  0  0  0  0  0  0
   -2.0941   -2.0962    0.0262 H   0  0  0  0  0  0  0  0  0  0  0  0
   -3.2806    0.1949   -1.7312 H   0  0  0  0  0  0  0  0  0  0  0  0
   -0.0756   -1.6032    1.2933 H   0  0  0  0  0  0  0  0  0  0  0  0
   -1.6321    3.2560   -0.9278 H   0  0  0  0  0  0  0  0  0  0  0  0
   -1.9139    2.8398    0.7671 H   0  0  0  0  0  0  0  0  0  0  0  0
    0.6778    3.2366   -0.0330 H   0  0  0  0  0  0  0  0  0  0  0  0
    1.2390    2.2357   -1.3704 H   0  0  0  0  0  0  0  0  0  0  0  0
   -4.0959    2.4086    0.1479 H   0  0  0  0  0  0  0  0  0  0  0  0
   -3.7055    2.4203   -1.5653 H   0  0  0  0  0  0  0  0  0  0  0  0
   -1.3801   -0.0043    2.1910 H   0  0  0  0  0  0  0  0  0  0  0  0
   -2.7833    1.0269    1.9629 H   0  0  0  0  0  0  0  0  0  0  0  0
   -2.9538   -0.7296    1.9311 H   0  0  0  0  0  0  0  0  0  0  0  0
    2.4197    2.3844    1.4503 H   0  0  0  0  0  0  0  0  0  0  0  0
    3.1157    3.0487   -0.0161 H   0  0  0  0  0  0  0  0  0  0  0  0
    2.8957   -1.6917   -1.1768 H   0  0  0  0  0  0  0  0  0  0  0  0
    2.7137   -2.5435    0.3572 H   0  0  0  0  0  0  0  0  0  0  0  0
    3.3567   -0.4558    2.4595 H   0  0  0  0  0  0  0  0  0  0  0  0
    1.7636    0.2857    2.5021 H   0  0  0  0  0  0  0  0  0  0  0  0
    1.9186   -1.4642    2.3387 H   0  0  0  0  0  0  0  0  0  0  0  0
    5.0367   -2.4911   -0.4348 H   0  0  0  0  0  0  0  0  0  0  0  0
    4.8878   -1.7050    1.1474 H   0  0  0  0  0  0  0  0  0  0  0  0
   -0.1341   -3.3803   -0.0849 H   0  0  0  0  0  0  0  0  0  0  0  0
    4.9697    1.7976   -0.5966 H   0  0  0  0  0  0  0  0  0  0  0  0
   -4.2592   -2.2167   -0.6017 H   0  0  0  0  0  0  0  0  0  0  0  0
   -5.1941   -1.3281   -1.8362 H   0  0  0  0  0  0  0  0  0  0  0  0
   -6.9346   -1.3094   -0.4036 H   0  0  0  0  0  0  0  0  0  0  0  0
  1 12  1  0  0  0  0
  1 51  1  0  0  0  0
  2 21  2  0  0  0  0
  3 24  2  0  0  0  0
  4 25  1  0  0  0  0
  4 55  1  0  0  0  0
  5  6  1  0  0  0  0
  5  7  1  0  0  0  0
  5 13  1  0  0  0  0
  5 26  1  0  0  0  0
  6 10  1  0  0  0  0
  6 11  1  0  0  0  0
  6 17  1  0  0  0  0
  7  8  1  0  0  0  0
  7 14  1  0  0  0  0
  7 27  1  0  0  0  0
  8  9  1  0  0  0  0
  8 12  1  0  0  0  0
  8 28  1  0  0  0  0
  9 16  1  0  0  0  0
  9 19  1  0  0  0  0
  9 20  1  0  0  0  0
 10 12  1  0  0  0  0
 10 29  1  0  0  0  0
 10 30  1  0  0  0  0
 11 15  1  0  0  0  0
 11 21  1  0  0  0  0
 11 31  1  0  0  0  0
 12 32  1  0  0  0  0
 13 15  1  0  0  0  0
 13 33  1  0  0  0  0
 13 34  1  0  0  0  0
 14 18  1  0  0  0  0
 14 35  1  0  0  0  0
 14 36  1  0  0  0  0
 15 37  1  0  0  0  0
 15 38  1  0  0  0  0
 16 18  1  0  0  0  0
 16 23  2  0  0  0  0
 17 39  1  0  0  0  0
 17 40  1  0  0  0  0
 17 41  1  0  0  0  0
 18 42  1  0  0  0  0
 18 43  1  0  0  0  0
 19 22  1  0  0  0  0
 19 44  1  0  0  0  0
 19 45  1  0  0  0  0
 20 46  1  0  0  0  0
 20 47  1  0  0  0  0
 20 48  1  0  0  0  0
 21 25  1  0  0  0  0
 22 24  1  0  0  0  0
 22 49  1  0  0  0  0
 22 50  1  0  0  0  0
 23 24  1  0  0  0  0
 23 52  1  0  0  0  0
 25 53  1  0  0  0  0
 25 54  1  0  0  0  0
M  END
> <PUBCHEM_COMPOUND_CID>
439858

> <PUBCHEM_CONFORMER_RMSD>
0.8

> <PUBCHEM_CONFORMER_DIVERSEORDER>
1
6
2
4
3
5

> <PUBCHEM_MMFF94_PARTIAL_CHARGES>
17
1 -0.68
11 0.06
12 0.28
16 -0.28
18 0.14
2 -0.57
21 0.45
22 0.06
23 -0.14
24 0.49
25 0.34
3 -0.57
4 -0.68
51 0.4
52 0.15
55 0.4
9 0.14

> <PUBCHEM_EFFECTIVE_ROTOR_COUNT>
3.8

> <PUBCHEM_PHARMACOPHORE_FEATURES>
10
1 1 acceptor
1 1 donor
1 2 acceptor
1 3 acceptor
1 4 acceptor
1 4 donor
5 5 6 11 13 15 rings
6 5 6 7 8 10 12 rings
6 7 8 9 14 16 18 rings
6 9 16 19 22 23 24 rings

> <PUBCHEM_HEAVY_ATOM_COUNT>
25

> <PUBCHEM_ATOM_DEF_STEREO_COUNT>
5

> <PUBCHEM_ATOM_UDEF_STEREO_COUNT>
2

> <PUBCHEM_BOND_DEF_STEREO_COUNT>
0

> <PUBCHEM_BOND_UDEF_STEREO_COUNT>
0

> <PUBCHEM_ISOTOPIC_ATOM_COUNT>
0

> <PUBCHEM_COMPONENT_COUNT>
1

> <PUBCHEM_CACTVS_TAUTO_COUNT>
20

> <PUBCHEM_CONFORMER_ID>
0006B63200000001

> <PUBCHEM_MMFF94_ENERGY>
75.0802

> <PUBCHEM_FEATURE_SELFOVERLAP>
50.845

> <PUBCHEM_SHAPE_FINGERPRINT>
10366900 7 17775566433429165729
11089746 13 13038904404355886079
11578080 2 16735531650645055330
11963148 33 18339369578210910999
12011746 2 18272369771612918956
12166972 35 18114460076290336449
12236239 1 17821725022585082913
12403259 226 18410864277854951685
12403259 415 18334304183574531264
12553582 1 18338813259295441716
12616971 3 14201405962370514312
12916754 54 18408042909901535425
13140716 1 18338516327058474075
13224815 77 18201440315233855657
13533116 47 17969222248187867328
13862211 1 18411985771299012642
14787075 74 18272650155705022083
14790565 3 18338508737540597061
15142383 8 14129048240413252995
15196674 1 18411984697330400372
1601671 61 18339363075629242380
17349148 13 18040715844605931815
17492 89 18339368564592672147
17980427 23 17632283619106174733
18681886 176 18410579457341063768
19591789 44 18410578408983655375
200 152 18186803569532440793
20028762 73 18186807941683399199
20645477 70 18342181029336619220
21033648 29 18341343244109734200
21267235 1 18410005524834220935
21857420 4 15584339604439924726
221357 26 18410858763074323444
22393880 68 18271254905572297733
23402539 116 18343024402310616893
23522609 53 18122030252534648917
23559900 14 18411427202122802813
2871803 45 18131074817998758968
335352 9 18409729564553229709
350125 39 18409165523936850409
465052 167 18334292033185650711
5104073 3 18336553801644901649
7495541 125 17748832890694912106
9709674 26 18343584010436798377

> <PUBCHEM_SHAPE_MULTIPOLES>
491.01
11.94
2.46
1.05
1.71
0.36
-0.46
-4
2.23
0.53
0.33
-0.13
-0.09
-0.08

> <PUBCHEM_SHAPE_SELFOVERLAP>
1051.025

> <PUBCHEM_SHAPE_VOLUME>
270

> <PUBCHEM_COORDINATE_TYPE>
2
5
10

$$$$

