10065132
  -OEChem-07051213113D

 42 43  0     1  0  0  0  0  0999 V2000
    1.4008    0.7586   -0.2517 O   0  0  0  0  0  0  0  0  0  0  0  0
   -0.6128   -0.3851   -0.5366 O   0  0  0  0  0  0  0  0  0  0  0  0
    3.5772   -2.6921   -0.7237 O   0  0  0  0  0  0  0  0  0  0  0  0
    0.7225   -2.8233   -0.0069 O   0  0  0  0  0  0  0  0  0  0  0  0
    4.8128   -0.3640    0.4633 O   0  0  0  0  0  0  0  0  0  0  0  0
   -2.9767   -0.1771    2.2497 O   0  0  0  0  0  0  0  0  0  0  0  0
    2.4681    3.1571    0.5631 O   0  0  0  0  0  0  0  0  0  0  0  0
   -2.3510   -2.8015   -0.1754 O   0  0  0  0  0  0  0  0  0  0  0  0
   -0.5219    3.6783   -0.0054 N   0  0  0  0  0  0  0  0  0  0  0  0
    2.8589   -1.7016    0.0135 C   0  0  2  0  0  0  0  0  0  0  0  0
    1.4089   -1.6602   -0.4688 C   0  0  2  0  0  0  0  0  0  0  0  0
    3.5525   -0.3564   -0.2020 C   0  0  1  0  0  0  0  0  0  0  0  0
    0.6793   -0.4288    0.0680 C   0  0  1  0  0  0  0  0  0  0  0  0
    2.6981    0.7891    0.3459 C   0  0  1  0  0  0  0  0  0  0  0  0
   -1.5674    0.2371    0.3232 C   0  0  2  0  0  0  0  0  0  0  0  0
   -2.2088   -0.8237    1.2346 C   0  0  2  0  0  0  0  0  0  0  0  0
    3.3141    2.1503    0.0384 C   0  0  0  0  0  0  0  0  0  0  0  0
   -3.1253   -1.7915    0.4649 C   0  0  1  0  0  0  0  0  0  0  0  0
   -2.5914    0.9369   -0.5438 C   0  0  0  0  0  0  0  0  0  0  0  0
   -3.9402   -1.1084   -0.5959 C   0  0  0  0  0  0  0  0  0  0  0  0
   -3.7047    0.1395   -1.0252 C   0  0  0  0  0  0  0  0  0  0  0  0
   -2.4876    2.2400   -0.8469 C   0  0  0  0  0  0  0  0  0  0  0  0
   -1.4053    3.0271   -0.3822 C   0  0  0  0  0  0  0  0  0  0  0  0
    2.9066   -2.0045    1.0668 H   0  0  0  0  0  0  0  0  0  0  0  0
    1.3720   -1.6845   -1.5644 H   0  0  0  0  0  0  0  0  0  0  0  0
    3.7475   -0.2142   -1.2721 H   0  0  0  0  0  0  0  0  0  0  0  0
    0.5852   -0.5137    1.1595 H   0  0  0  0  0  0  0  0  0  0  0  0
    2.5820    0.7086    1.4353 H   0  0  0  0  0  0  0  0  0  0  0  0
   -1.0753    0.9686    0.9778 H   0  0  0  0  0  0  0  0  0  0  0  0
   -1.4296   -1.4012    1.7439 H   0  0  0  0  0  0  0  0  0  0  0  0
    3.4015    2.3163   -1.0405 H   0  0  0  0  0  0  0  0  0  0  0  0
    4.3028    2.2595    0.4932 H   0  0  0  0  0  0  0  0  0  0  0  0
   -3.8130   -2.2851    1.1619 H   0  0  0  0  0  0  0  0  0  0  0  0
    4.4957   -2.6840   -0.4037 H   0  0  0  0  0  0  0  0  0  0  0  0
    0.7402   -2.8183    0.9654 H   0  0  0  0  0  0  0  0  0  0  0  0
    4.6495   -0.4824    1.4146 H   0  0  0  0  0  0  0  0  0  0  0  0
   -4.7779   -1.6593   -1.0153 H   0  0  0  0  0  0  0  0  0  0  0  0
   -4.3686    0.5768   -1.7657 H   0  0  0  0  0  0  0  0  0  0  0  0
   -3.7095    0.3016    1.8278 H   0  0  0  0  0  0  0  0  0  0  0  0
   -3.2334    2.7311   -1.4647 H   0  0  0  0  0  0  0  0  0  0  0  0
    1.5946    3.0495    0.1502 H   0  0  0  0  0  0  0  0  0  0  0  0
   -1.8573   -3.2753    0.5154 H   0  0  0  0  0  0  0  0  0  0  0  0
  1 13  1  0  0  0  0
  1 14  1  0  0  0  0
  2 13  1  0  0  0  0
  2 15  1  0  0  0  0
  3 10  1  0  0  0  0
  3 34  1  0  0  0  0
  4 11  1  0  0  0  0
  4 35  1  0  0  0  0
  5 12  1  0  0  0  0
  5 36  1  0  0  0  0
  6 16  1  0  0  0  0
  6 39  1  0  0  0  0
  7 17  1  0  0  0  0
  7 41  1  0  0  0  0
  8 18  1  0  0  0  0
  8 42  1  0  0  0  0
  9 23  3  0  0  0  0
 10 11  1  0  0  0  0
 10 12  1  0  0  0  0
 10 24  1  0  0  0  0
 11 13  1  0  0  0  0
 11 25  1  0  0  0  0
 12 14  1  0  0  0  0
 12 26  1  0  0  0  0
 13 27  1  0  0  0  0
 14 17  1  0  0  0  0
 14 28  1  0  0  0  0
 15 16  1  0  0  0  0
 15 19  1  0  0  0  0
 15 29  1  0  0  0  0
 16 18  1  0  0  0  0
 16 30  1  0  0  0  0
 17 31  1  0  0  0  0
 17 32  1  0  0  0  0
 18 20  1  0  0  0  0
 18 33  1  0  0  0  0
 19 21  1  0  0  0  0
 19 22  2  0  0  0  0
 20 21  2  0  0  0  0
 20 37  1  0  0  0  0
 21 38  1  0  0  0  0
 22 23  1  0  0  0  0
 22 40  1  0  0  0  0
M  END
> <PUBCHEM_COMPOUND_CID>
10065132

> <PUBCHEM_CONFORMER_RMSD>
0.8

> <PUBCHEM_CONFORMER_DIVERSEORDER>
1
27
26
18
23
9
24
22
16
12
25
8
20
4
17
14
5
6
10
11
7
3
2
15
21
19
13

> <PUBCHEM_MMFF94_PARTIAL_CHARGES>
32
1 -0.56
10 0.28
11 0.28
12 0.28
13 0.56
14 0.28
15 0.42
16 0.28
17 0.28
18 0.42
19 -0.14
2 -0.56
20 -0.29
21 -0.15
22 -0.09
23 0.49
3 -0.68
34 0.4
35 0.4
36 0.4
37 0.15
38 0.15
39 0.4
4 -0.68
40 0.15
41 0.4
42 0.4
5 -0.68
6 -0.68
7 -0.68
8 -0.68
9 -0.56

> <PUBCHEM_EFFECTIVE_ROTOR_COUNT>
4.8

> <PUBCHEM_PHARMACOPHORE_FEATURES>
17
1 1 acceptor
1 2 acceptor
1 3 acceptor
1 3 donor
1 4 acceptor
1 4 donor
1 5 acceptor
1 5 donor
1 6 acceptor
1 6 donor
1 7 acceptor
1 7 donor
1 8 acceptor
1 8 donor
1 9 acceptor
6 1 10 11 12 13 14 rings
6 15 16 18 19 20 21 rings

> <PUBCHEM_HEAVY_ATOM_COUNT>
23

> <PUBCHEM_ATOM_DEF_STEREO_COUNT>
8

> <PUBCHEM_ATOM_UDEF_STEREO_COUNT>
0

> <PUBCHEM_BOND_DEF_STEREO_COUNT>
1

> <PUBCHEM_BOND_UDEF_STEREO_COUNT>
0

> <PUBCHEM_ISOTOPIC_ATOM_COUNT>
0

> <PUBCHEM_COMPONENT_COUNT>
1

> <PUBCHEM_CACTVS_TAUTO_COUNT>
1

> <PUBCHEM_CONFORMER_ID>
009994EC00000001

> <PUBCHEM_MMFF94_ENERGY>
52.7636

> <PUBCHEM_FEATURE_SELFOVERLAP>
86.329

> <PUBCHEM_SHAPE_FINGERPRINT>
10366900 7 18271801311501462282
10498660 4 18268430135715002980
10608611 8 18412267254575280316
10967382 1 18194685860653917620
1100329 8 16970553798305582506
11578080 2 17170146778581523225
12403259 226 18409733962868785204
12403260 363 18339655485460650958
12553582 1 18339624677364779199
12596599 1 17750778996174329397
12633257 1 18339926038140589792
12916754 54 18334293171547227655
13140716 1 18412540990042042209
13224815 77 18336542729150341166
14223421 5 18410573993920798900
14790565 3 17620183244250559861
15375462 6 18410576145720623716
16945 1 18338512061823658974
18186145 218 18187353333983924430
19591789 44 17331395368263051469
19930381 70 18194691366928877421
200 152 17895202107994479959
20681677 76 18411423929283396206
221490 88 18410571812372961046
2306618 200 18260829332333722097
23557571 272 17917705760871920675
23559900 14 18338528528865214030
2748010 2 18341050726776944965
3084891 72 17258221190318240244
3380486 145 18199178487336055753
350125 39 18410853231435865068
6049 1 18271512182650216112
81228 2 18060131081227969901
9709674 26 18338802315776657518

> <PUBCHEM_SHAPE_MULTIPOLES>
421.39
7.67
3.8
1.04
3.42
2.08
0.41
-1.7
-0.2
0.6
-0.3
-0.91
-0.09
1.01

> <PUBCHEM_SHAPE_SELFOVERLAP>
874.543

> <PUBCHEM_SHAPE_VOLUME>
233.6

> <PUBCHEM_COORDINATE_TYPE>
2
5
10

$$$$

