5281726
  -OEChem-07051212592D

 61 62  0     1  0  0  0  0  0999 V2000
    7.3960   -1.0635    0.0000 Cl  0  0  0  0  0  0  0  0  0  0  0  0
    3.7320   -1.5458    0.0000 O   0  0  0  0  0  0  0  0  0  0  0  0
    5.5902   -1.9055    0.0000 O   0  0  0  0  0  0  0  0  0  0  0  0
    8.2030   -1.1152    0.0000 O   0  0  0  0  0  0  0  0  0  0  0  0
    5.0464    0.6272    0.0000 O   0  0  0  0  0  0  0  0  0  0  0  0
    7.7547   -2.7882    0.0000 O   0  0  0  0  0  0  0  0  0  0  0  0
    5.8788   -1.1579    0.0000 O   0  0  0  0  0  0  0  0  0  0  0  0
    6.1140    0.6560    0.0000 O   0  0  0  0  0  0  0  0  0  0  0  0
    2.8660   -0.0459    0.0000 O   0  0  0  0  0  0  0  0  0  0  0  0
    8.8680    2.0812    0.0000 N   0  0  3  0  0  0  0  0  0  0  0  0
    4.8569   -2.0118    0.0000 C   0  0  2  0  0  0  0  0  0  0  0  0
    5.8228   -2.2706    0.0000 C   0  0  0  0  0  0  0  0  0  0  0  0
    6.5299   -1.5635    0.0000 C   0  0  1  0  0  0  0  0  0  0  0  0
    4.5981   -1.0459    0.0000 C   0  0  1  0  0  0  0  0  0  0  0  0
    6.5299   -0.5635    0.0000 C   0  0  1  0  0  0  0  0  0  0  0  0
    4.1498   -2.7189    0.0000 C   0  0  0  0  0  0  0  0  0  0  0  0
    3.7320   -0.5459    0.0000 C   0  0  0  0  0  0  0  0  0  0  0  0
    7.4958   -1.8223    0.0000 C   0  0  0  0  0  0  0  0  0  0  0  0
    5.3052   -0.3388    0.0000 C   0  0  0  0  0  0  0  0  0  0  0  0
    7.9441   -0.1493    0.0000 C   0  0  2  0  0  0  0  0  0  0  0  0
    8.8680    0.2334    0.0000 C   0  0  0  0  0  0  0  0  0  0  0  0
    5.7639    0.0793    0.0000 C   0  0  0  0  0  0  0  0  0  0  0  0
    9.2507    1.1573    0.0000 C   0  0  0  0  0  0  0  0  0  0  0  0
    7.0203    0.2334    0.0000 C   0  0  0  0  0  0  0  0  0  0  0  0
    6.6376    1.1573    0.0000 C   0  0  0  0  0  0  0  0  0  0  0  0
    5.6716    1.4161    0.0000 C   0  0  0  0  0  0  0  0  0  0  0  0
    7.9441    2.4638    0.0000 C   0  0  0  0  0  0  0  0  0  0  0  0
    7.0203    2.0812    0.0000 C   0  0  0  0  0  0  0  0  0  0  0  0
    2.8660   -1.0459    0.0000 C   0  0  0  0  0  0  0  0  0  0  0  0
    9.5751    2.7882    0.0000 C   0  0  0  0  0  0  0  0  0  0  0  0
    2.0000   -1.5459    0.0000 C   0  0  0  0  0  0  0  0  0  0  0  0
    5.0174   -2.6107    0.0000 H   0  0  0  0  0  0  0  0  0  0  0  0
    5.5608   -2.8325    0.0000 H   0  0  0  0  0  0  0  0  0  0  0  0
    6.3307   -2.6262    0.0000 H   0  0  0  0  0  0  0  0  0  0  0  0
    6.8856   -0.0556    0.0000 H   0  0  0  0  0  0  0  0  0  0  0  0
    3.7114   -2.2805    0.0000 H   0  0  0  0  0  0  0  0  0  0  0  0
    3.7114   -3.1573    0.0000 H   0  0  0  0  0  0  0  0  0  0  0  0
    4.5882   -3.1573    0.0000 H   0  0  0  0  0  0  0  0  0  0  0  0
    4.0420   -0.0089    0.0000 H   0  0  0  0  0  0  0  0  0  0  0  0
    3.1951   -0.2359    0.0000 H   0  0  0  0  0  0  0  0  0  0  0  0
    3.4220   -1.0828    0.0000 H   0  0  0  0  0  0  0  0  0  0  0  0
    8.7065   -0.5252    0.0000 H   0  0  0  0  0  0  0  0  0  0  0  0
    8.9490   -0.3813    0.0000 H   0  0  0  0  0  0  0  0  0  0  0  0
    9.4827    0.1525    0.0000 H   0  0  0  0  0  0  0  0  0  0  0  0
    6.1624    0.5542    0.0000 H   0  0  0  0  0  0  0  0  0  0  0  0
    5.2889    0.4778    0.0000 H   0  0  0  0  0  0  0  0  0  0  0  0
    5.3654   -0.3957    0.0000 H   0  0  0  0  0  0  0  0  0  0  0  0
    5.2803   -2.4424    0.0000 H   0  0  0  0  0  0  0  0  0  0  0  0
    9.7426    0.7798    0.0000 H   0  0  0  0  0  0  0  0  0  0  0  0
    9.7426    1.5347    0.0000 H   0  0  0  0  0  0  0  0  0  0  0  0
    5.9119    1.9876    0.0000 H   0  0  0  0  0  0  0  0  0  0  0  0
    5.1380    1.7317    0.0000 H   0  0  0  0  0  0  0  0  0  0  0  0
    8.3216    2.9557    0.0000 H   0  0  0  0  0  0  0  0  0  0  0  0
    7.5667    2.9557    0.0000 H   0  0  0  0  0  0  0  0  0  0  0  0
    6.5819    2.5196    0.0000 H   0  0  0  0  0  0  0  0  0  0  0  0
   10.0135    2.3498    0.0000 H   0  0  0  0  0  0  0  0  0  0  0  0
   10.0135    3.2267    0.0000 H   0  0  0  0  0  0  0  0  0  0  0  0
    9.1367    3.2267    0.0000 H   0  0  0  0  0  0  0  0  0  0  0  0
    1.6900   -1.0089    0.0000 H   0  0  0  0  0  0  0  0  0  0  0  0
    1.4631   -1.8559    0.0000 H   0  0  0  0  0  0  0  0  0  0  0  0
    2.3100   -2.0828    0.0000 H   0  0  0  0  0  0  0  0  0  0  0  0
 15  1  1  1  0  0  0
 14  2  1  1  0  0  0
  2 29  1  0  0  0  0
 13  3  1  1  0  0  0
  3 48  1  0  0  0  0
  4 18  1  0  0  0  0
  4 20  1  0  0  0  0
  5 19  1  0  0  0  0
  5 26  1  0  0  0  0
  6 18  2  0  0  0  0
  7 19  2  0  0  0  0
  8 24  2  0  0  0  0
  9 29  2  0  0  0  0
 10 23  1  0  0  0  0
 10 27  1  0  0  0  0
 10 30  1  0  0  0  0
 11 12  1  0  0  0  0
 11 14  1  0  0  0  0
 11 16  1  1  0  0  0
 11 32  1  0  0  0  0
 12 13  1  0  0  0  0
 12 33  1  0  0  0  0
 12 34  1  0  0  0  0
 13 15  1  0  0  0  0
 13 18  1  0  0  0  0
 14 17  1  0  0  0  0
 14 19  1  0  0  0  0
 15 22  1  0  0  0  0
 15 35  1  0  0  0  0
 16 36  1  0  0  0  0
 16 37  1  0  0  0  0
 16 38  1  0  0  0  0
 17 39  1  0  0  0  0
 17 40  1  0  0  0  0
 17 41  1  0  0  0  0
 20 21  1  0  0  0  0
 20 24  1  0  0  0  0
 20 42  1  6  0  0  0
 21 23  1  0  0  0  0
 21 43  1  0  0  0  0
 21 44  1  0  0  0  0
 22 45  1  0  0  0  0
 22 46  1  0  0  0  0
 22 47  1  0  0  0  0
 23 49  1  0  0  0  0
 23 50  1  0  0  0  0
 24 25  1  0  0  0  0
 25 26  1  0  0  0  0
 25 28  2  0  0  0  0
 26 51  1  0  0  0  0
 26 52  1  0  0  0  0
 27 28  1  0  0  0  0
 27 53  1  0  0  0  0
 27 54  1  0  0  0  0
 28 55  1  0  0  0  0
 29 31  1  0  0  0  0
 30 56  1  0  0  0  0
 30 57  1  0  0  0  0
 30 58  1  0  0  0  0
 31 59  1  0  0  0  0
 31 60  1  0  0  0  0
 31 61  1  0  0  0  0
M  END
> <PUBCHEM_COMPOUND_CID>
5281726

> <PUBCHEM_COMPOUND_CANONICALIZED>
1

> <PUBCHEM_CACTVS_COMPLEXITY>
783

> <PUBCHEM_CACTVS_HBOND_ACCEPTOR>
9

> <PUBCHEM_CACTVS_HBOND_DONOR>
1

> <PUBCHEM_CACTVS_ROTATABLE_BOND>
3

> <PUBCHEM_CACTVS_SUBSKEYS>
AAADceB6PAAEAAAAAAAAAAAAAAAAAAAAAAAAAAAAAAAQAAAAAAAAHgIACAAADVfhgEYCCAMABgCIAqDSCAKAAAAgAAAACAFIA0gBBBYBoQQGUAAG4ACLIYPc7HzOgAAAAAAAAAAAAAAAAAAAAAAAAAAAAA==

> <PUBCHEM_IUPAC_OPENEYE_NAME>
[(1R,4R,6R,7R,11Z)-4-[(1R)-1-chloroethyl]-4-hydroxy-6,7,14-trimethyl-3,8,17-trioxo-2,9-dioxa-14-azabicyclo[9.5.1]heptadec-11-en-7-yl] acetate

> <PUBCHEM_IUPAC_CAS_NAME>
acetic acid [(1R,4R,6R,7R,11Z)-4-[(1R)-1-chloroethyl]-4-hydroxy-6,7,14-trimethyl-3,8,17-trioxo-2,9-dioxa-14-azabicyclo[9.5.1]heptadec-11-en-7-yl] ester

> <PUBCHEM_IUPAC_NAME>
[(1R,4R,6R,7R,11Z)-4-[(1R)-1-chloroethyl]-4-hydroxy-6,7,14-trimethyl-3,8,17-trioxo-2,9-dioxa-14-azabicyclo[9.5.1]heptadec-11-en-7-yl] acetate

> <PUBCHEM_IUPAC_SYSTEMATIC_NAME>
[(1R,4R,6R,7R,11Z)-4-[(1R)-1-chloranylethyl]-6,7,14-trimethyl-4-oxidanyl-3,8,17-tris(oxidanylidene)-2,9-dioxa-14-azabicyclo[9.5.1]heptadec-11-en-7-yl] ethanoate

> <PUBCHEM_IUPAC_TRADITIONAL_NAME>
acetic acid [(1R,4R,6R,7R,11Z)-4-[(1R)-1-chloroethyl]-4-hydroxy-3,8,17-triketo-6,7,14-trimethyl-2,9-dioxa-14-azabicyclo[9.5.1]heptadec-11-en-7-yl] ester

> <PUBCHEM_IUPAC_INCHI>
InChI=1S/C21H30ClNO8/c1-12-10-21(28,13(2)22)19(27)30-16-7-9-23(5)8-6-15(17(16)25)11-29-18(26)20(12,4)31-14(3)24/h6,12-13,16,28H,7-11H2,1-5H3/b15-6-/t12-,13-,16-,20-,21+/m1/s1

> <PUBCHEM_IUPAC_INCHIKEY>
VGRSISYREBBIAL-XAHVSKGQSA-N

> <PUBCHEM_XLOGP3_AA>
1.5

> <PUBCHEM_EXACT_MASS>
459.165995

> <PUBCHEM_MOLECULAR_FORMULA>
C21H30ClNO8

> <PUBCHEM_MOLECULAR_WEIGHT>
459.9178

> <PUBCHEM_OPENEYE_CAN_SMILES>
CC1CC(C(=O)OC2CCN(CC=C(C2=O)COC(=O)C1(C)OC(=O)C)C)(C(C)Cl)O

> <PUBCHEM_OPENEYE_ISO_SMILES>
C[C@@H]1C[C@@](C(=O)O[C@@H]2CCN(C/C=C(\C2=O)/COC(=O)[C@]1(C)OC(=O)C)C)([C@@H](C)Cl)O

> <PUBCHEM_CACTVS_TPSA>
119

> <PUBCHEM_MONOISOTOPIC_WEIGHT>
459.165995

> <PUBCHEM_TOTAL_CHARGE>
0

> <PUBCHEM_HEAVY_ATOM_COUNT>
31

> <PUBCHEM_ATOM_DEF_STEREO_COUNT>
5

> <PUBCHEM_ATOM_UDEF_STEREO_COUNT>
0

> <PUBCHEM_BOND_DEF_STEREO_COUNT>
1

> <PUBCHEM_BOND_UDEF_STEREO_COUNT>
0

> <PUBCHEM_ISOTOPIC_ATOM_COUNT>
0

> <PUBCHEM_COMPONENT_COUNT>
1

> <PUBCHEM_CACTVS_TAUTO_COUNT>
1

> <PUBCHEM_COORDINATE_TYPE>
1
5
255

> <PUBCHEM_BONDANNOTATIONS>
15  1  5
11  16  5
14  2  5
20  42  6
13  3  5

$$$$

