17396555
  -OEChem-06241222572D

 27 27  0     1  0  0  0  0  0999 V2000
    3.7320   -4.0600    0.0000 Br  0  0  0  0  0  0  0  0  0  0  0  0
    2.0000   -1.0600    0.0000 F   0  0  0  0  0  0  0  0  0  0  0  0
    3.7320   -0.0600    0.0000 O   0  0  0  0  0  0  0  0  0  0  0  0
    3.7320    1.9400    0.0000 O   0  0  0  0  0  0  0  0  0  0  0  0
    4.5981    3.4400    0.0000 O   0  0  0  0  0  0  0  0  0  0  0  0
    5.4641    1.9400    0.0000 N   0  0  0  0  0  0  0  0  0  0  0  0
    6.3301    3.4400    0.0000 N   0  0  0  0  0  0  0  0  0  0  0  0
    4.5981    0.4400    0.0000 C   0  0  3  0  0  0  0  0  0  0  0  0
    5.4641   -0.0600    0.0000 C   0  0  0  0  0  0  0  0  0  0  0  0
    3.7320   -1.0600    0.0000 C   0  0  0  0  0  0  0  0  0  0  0  0
    4.5981    1.4400    0.0000 C   0  0  0  0  0  0  0  0  0  0  0  0
    2.8660   -1.5600    0.0000 C   0  0  0  0  0  0  0  0  0  0  0  0
    4.5981   -1.5600    0.0000 C   0  0  0  0  0  0  0  0  0  0  0  0
    2.8660   -2.5600    0.0000 C   0  0  0  0  0  0  0  0  0  0  0  0
    4.5981   -2.5600    0.0000 C   0  0  0  0  0  0  0  0  0  0  0  0
    3.7320   -3.0600    0.0000 C   0  0  0  0  0  0  0  0  0  0  0  0
    5.4641    2.9400    0.0000 C   0  0  0  0  0  0  0  0  0  0  0  0
    4.5981   -0.1800    0.0000 H   0  0  0  0  0  0  0  0  0  0  0  0
    5.1541   -0.5969    0.0000 H   0  0  0  0  0  0  0  0  0  0  0  0
    6.0010   -0.3700    0.0000 H   0  0  0  0  0  0  0  0  0  0  0  0
    5.7741    0.4769    0.0000 H   0  0  0  0  0  0  0  0  0  0  0  0
    5.1350   -1.2500    0.0000 H   0  0  0  0  0  0  0  0  0  0  0  0
    6.0010    1.6300    0.0000 H   0  0  0  0  0  0  0  0  0  0  0  0
    2.3291   -2.8700    0.0000 H   0  0  0  0  0  0  0  0  0  0  0  0
    5.1350   -2.8700    0.0000 H   0  0  0  0  0  0  0  0  0  0  0  0
    6.3301    4.0600    0.0000 H   0  0  0  0  0  0  0  0  0  0  0  0
    6.8671    3.1300    0.0000 H   0  0  0  0  0  0  0  0  0  0  0  0
  1 16  1  0  0  0  0
  2 12  1  0  0  0  0
  3  8  1  0  0  0  0
  3 10  1  0  0  0  0
  4 11  2  0  0  0  0
  5 17  2  0  0  0  0
  6 11  1  0  0  0  0
  6 17  1  0  0  0  0
  6 23  1  0  0  0  0
  7 17  1  0  0  0  0
  7 26  1  0  0  0  0
  7 27  1  0  0  0  0
  8  9  1  0  0  0  0
  8 11  1  0  0  0  0
  8 18  1  0  0  0  0
  9 19  1  0  0  0  0
  9 20  1  0  0  0  0
  9 21  1  0  0  0  0
 10 12  2  0  0  0  0
 10 13  1  0  0  0  0
 12 14  1  0  0  0  0
 13 15  2  0  0  0  0
 13 22  1  0  0  0  0
 14 16  2  0  0  0  0
 14 24  1  0  0  0  0
 15 16  1  0  0  0  0
 15 25  1  0  0  0  0
M  END
> <PUBCHEM_COMPOUND_CID>
17396555

> <PUBCHEM_COMPOUND_CANONICALIZED>
1

> <PUBCHEM_CACTVS_COMPLEXITY>
303

> <PUBCHEM_CACTVS_HBOND_ACCEPTOR>
4

> <PUBCHEM_CACTVS_HBOND_DONOR>
2

> <PUBCHEM_CACTVS_ROTATABLE_BOND>
3

> <PUBCHEM_CACTVS_SUBSKEYS>
AAADccBzMQAAEAAAAAAAAAAAAAAAAAAAAAAwAAAAAAAAAAABAAAAHwBQAAABqBShkAozBoLABACIACFSEAICCAAgIAQIiAFGCKiOJiKEMR6HOCCk1TMYqheAQAAAABAAAAAAAAAAIAAAAAAAAAAAAAAAAA==

> <PUBCHEM_IUPAC_OPENEYE_NAME>
2-(4-bromo-2-fluoro-phenoxy)-N-carbamoyl-propanamide

> <PUBCHEM_IUPAC_CAS_NAME>
2-(4-bromo-2-fluorophenoxy)-N-carbamoylpropanamide

> <PUBCHEM_IUPAC_NAME>
2-(4-bromo-2-fluorophenoxy)-N-carbamoylpropanamide

> <PUBCHEM_IUPAC_SYSTEMATIC_NAME>
N-aminocarbonyl-2-(4-bromanyl-2-fluoranyl-phenoxy)propanamide

> <PUBCHEM_IUPAC_TRADITIONAL_NAME>
2-(4-bromo-2-fluoro-phenoxy)-N-carbamoyl-propionamide

> <PUBCHEM_IUPAC_INCHI>
InChI=1S/C10H10BrFN2O3/c1-5(9(15)14-10(13)16)17-8-3-2-6(11)4-7(8)12/h2-5H,1H3,(H3,13,14,15,16)

> <PUBCHEM_IUPAC_INCHIKEY>
AZKZWMRGGODZPB-UHFFFAOYSA-N

> <PUBCHEM_XLOGP3_AA>
2.2

> <PUBCHEM_EXACT_MASS>
303.985883

> <PUBCHEM_MOLECULAR_FORMULA>
C10H10BrFN2O3

> <PUBCHEM_MOLECULAR_WEIGHT>
305.100403

> <PUBCHEM_OPENEYE_CAN_SMILES>
CC(C(=O)NC(=O)N)OC1=C(C=C(C=C1)Br)F

> <PUBCHEM_OPENEYE_ISO_SMILES>
CC(C(=O)NC(=O)N)OC1=C(C=C(C=C1)Br)F

> <PUBCHEM_CACTVS_TPSA>
81.4

> <PUBCHEM_MONOISOTOPIC_WEIGHT>
303.985883

> <PUBCHEM_TOTAL_CHARGE>
0

> <PUBCHEM_HEAVY_ATOM_COUNT>
17

> <PUBCHEM_ATOM_DEF_STEREO_COUNT>
0

> <PUBCHEM_ATOM_UDEF_STEREO_COUNT>
1

> <PUBCHEM_BOND_DEF_STEREO_COUNT>
0

> <PUBCHEM_BOND_UDEF_STEREO_COUNT>
0

> <PUBCHEM_ISOTOPIC_ATOM_COUNT>
0

> <PUBCHEM_COMPONENT_COUNT>
1

> <PUBCHEM_CACTVS_TAUTO_COUNT>
5

> <PUBCHEM_COORDINATE_TYPE>
1
5
255

> <PUBCHEM_BONDANNOTATIONS>
10  12  8
10  13  8
12  14  8
13  15  8
14  16  8
15  16  8
8  9  3

$$$$

