183009
  -OEChem-07051213152D

 50 51  0     1  0  0  0  0  0999 V2000
    6.3301   -1.0950    0.0000 O   0  0  0  0  0  0  0  0  0  0  0  0
    4.5981   -1.0950    0.0000 O   0  0  0  0  0  0  0  0  0  0  0  0
    6.3301   -4.0950    0.0000 O   0  0  0  0  0  0  0  0  0  0  0  0
    4.5981   -3.0950    0.0000 O   0  0  0  0  0  0  0  0  0  0  0  0
    8.0622   -3.0950    0.0000 O   0  0  0  0  0  0  0  0  0  0  0  0
    8.0622   -0.0950    0.0000 O   0  0  0  0  0  0  0  0  0  0  0  0
    8.9282   -1.5950    0.0000 O   0  0  0  0  0  0  0  0  0  0  0  0
    7.1962    4.4050    0.0000 O   0  0  0  0  0  0  0  0  0  0  0  0
    6.3301    2.9050    0.0000 N   0  0  0  0  0  0  0  0  0  0  0  0
    2.0000    0.4050    0.0000 N   0  0  0  0  0  0  0  0  0  0  0  0
    7.1962    3.4050    0.0000 N   0  0  0  0  0  0  0  0  0  0  0  0
    6.3301   -3.0950    0.0000 C   0  0  2  0  0  0  0  0  0  0  0  0
    5.4641   -2.5950    0.0000 C   0  0  2  0  0  0  0  0  0  0  0  0
    7.1962   -2.5950    0.0000 C   0  0  1  0  0  0  0  0  0  0  0  0
    5.4641   -1.5950    0.0000 C   0  0  1  0  0  0  0  0  0  0  0  0
    7.1962   -1.5950    0.0000 C   0  0  1  0  0  0  0  0  0  0  0  0
    4.5981   -0.0950    0.0000 C   0  0  3  0  0  0  0  0  0  0  0  0
    5.4641    0.4050    0.0000 C   0  0  0  0  0  0  0  0  0  0  0  0
    8.0622   -1.0950    0.0000 C   0  0  0  0  0  0  0  0  0  0  0  0
    5.4641    1.4050    0.0000 C   0  0  0  0  0  0  0  0  0  0  0  0
    3.7320    0.4050    0.0000 C   0  0  0  0  0  0  0  0  0  0  0  0
    6.3301    1.9050    0.0000 C   0  0  0  0  0  0  0  0  0  0  0  0
    3.7320    1.4050    0.0000 C   0  0  0  0  0  0  0  0  0  0  0  0
    2.8660   -0.0950    0.0000 C   0  0  0  0  0  0  0  0  0  0  0  0
    2.8660    1.9050    0.0000 C   0  0  0  0  0  0  0  0  0  0  0  0
    5.4641    3.4050    0.0000 C   0  0  0  0  0  0  0  0  0  0  0  0
    2.0000    1.4050    0.0000 C   0  0  0  0  0  0  0  0  0  0  0  0
    6.8671   -3.4050    0.0000 H   0  0  0  0  0  0  0  0  0  0  0  0
    5.4641   -3.2150    0.0000 H   0  0  0  0  0  0  0  0  0  0  0  0
    7.7331   -2.2850    0.0000 H   0  0  0  0  0  0  0  0  0  0  0  0
    5.4641   -0.9750    0.0000 H   0  0  0  0  0  0  0  0  0  0  0  0
    7.1962   -0.9750    0.0000 H   0  0  0  0  0  0  0  0  0  0  0  0
    5.1350   -0.4050    0.0000 H   0  0  0  0  0  0  0  0  0  0  0  0
    5.6762   -0.1776    0.0000 H   0  0  0  0  0  0  0  0  0  0  0  0
    6.0747    0.5127    0.0000 H   0  0  0  0  0  0  0  0  0  0  0  0
    5.2520    1.9876    0.0000 H   0  0  0  0  0  0  0  0  0  0  0  0
    4.8535    1.2973    0.0000 H   0  0  0  0  0  0  0  0  0  0  0  0
    5.7932   -4.4050    0.0000 H   0  0  0  0  0  0  0  0  0  0  0  0
    4.0611   -2.7850    0.0000 H   0  0  0  0  0  0  0  0  0  0  0  0
    8.0622   -3.7150    0.0000 H   0  0  0  0  0  0  0  0  0  0  0  0
    6.5422    1.3224    0.0000 H   0  0  0  0  0  0  0  0  0  0  0  0
    6.9407    2.0127    0.0000 H   0  0  0  0  0  0  0  0  0  0  0  0
    4.2690    1.7150    0.0000 H   0  0  0  0  0  0  0  0  0  0  0  0
    2.8660   -0.7150    0.0000 H   0  0  0  0  0  0  0  0  0  0  0  0
    8.5991    0.2150    0.0000 H   0  0  0  0  0  0  0  0  0  0  0  0
    2.8660    2.5250    0.0000 H   0  0  0  0  0  0  0  0  0  0  0  0
    5.7741    3.9419    0.0000 H   0  0  0  0  0  0  0  0  0  0  0  0
    4.9272    3.7150    0.0000 H   0  0  0  0  0  0  0  0  0  0  0  0
    5.1541    2.8681    0.0000 H   0  0  0  0  0  0  0  0  0  0  0  0
    1.4631    1.7150    0.0000 H   0  0  0  0  0  0  0  0  0  0  0  0
  1 15  1  0  0  0  0
  1 16  1  0  0  0  0
 15  2  1  6  0  0  0
  2 17  1  0  0  0  0
 12  3  1  6  0  0  0
  3 38  1  0  0  0  0
 13  4  1  1  0  0  0
  4 39  1  0  0  0  0
 14  5  1  1  0  0  0
  5 40  1  0  0  0  0
  6 19  1  0  0  0  0
  6 45  1  0  0  0  0
  7 19  2  0  0  0  0
  8 11  2  0  0  0  0
  9 11  1  0  0  0  0
  9 22  1  0  0  0  0
  9 26  1  0  0  0  0
 10 24  1  0  0  0  0
 10 27  2  0  0  0  0
 12 13  1  0  0  0  0
 12 14  1  0  0  0  0
 12 28  1  0  0  0  0
 13 15  1  0  0  0  0
 13 29  1  0  0  0  0
 14 16  1  0  0  0  0
 14 30  1  0  0  0  0
 15 31  1  0  0  0  0
 16 19  1  6  0  0  0
 16 32  1  0  0  0  0
 17 18  1  0  0  0  0
 17 21  1  0  0  0  0
 17 33  1  0  0  0  0
 18 20  1  0  0  0  0
 18 34  1  0  0  0  0
 18 35  1  0  0  0  0
 20 22  1  0  0  0  0
 20 36  1  0  0  0  0
 20 37  1  0  0  0  0
 21 23  1  0  0  0  0
 21 24  2  0  0  0  0
 22 41  1  0  0  0  0
 22 42  1  0  0  0  0
 23 25  2  0  0  0  0
 23 43  1  0  0  0  0
 24 44  1  0  0  0  0
 25 27  1  0  0  0  0
 25 46  1  0  0  0  0
 26 47  1  0  0  0  0
 26 48  1  0  0  0  0
 26 49  1  0  0  0  0
 27 50  1  0  0  0  0
M  END
> <PUBCHEM_COMPOUND_CID>
183009

> <PUBCHEM_COMPOUND_CANONICALIZED>
1

> <PUBCHEM_CACTVS_COMPLEXITY>
496

> <PUBCHEM_CACTVS_HBOND_ACCEPTOR>
11

> <PUBCHEM_CACTVS_HBOND_DONOR>
4

> <PUBCHEM_CACTVS_ROTATABLE_BOND>
8

> <PUBCHEM_CACTVS_SUBSKEYS>
AAADceB7PAAAAAAAAAAAAAAAAAAAAAAAAAAsSAAAAAAAAAABgAAAHgAMCAAADBTxmgc+iJIIFgCpAjD3TAKCgCAxAiAY2CF4bJgZNvbAsZ2mcAhn4AHP6Af6/I5OAAAAAAAAAAAAAAAAAAAAAAAAAAAAAA==

> <PUBCHEM_IUPAC_OPENEYE_NAME>
(2S,3S,4S,5R,6R)-3,4,5-trihydroxy-6-[4-[methyl(nitroso)amino]-1-(3-pyridyl)butoxy]tetrahydropyran-2-carboxylic acid

> <PUBCHEM_IUPAC_CAS_NAME>
(2S,3S,4S,5R,6R)-3,4,5-trihydroxy-6-[4-[methyl(nitroso)amino]-1-(3-pyridinyl)butoxy]-2-oxanecarboxylic acid

> <PUBCHEM_IUPAC_NAME>
(2S,3S,4S,5R,6R)-3,4,5-trihydroxy-6-[4-[methyl(nitroso)amino]-1-pyridin-3-ylbutoxy]oxane-2-carboxylic acid

> <PUBCHEM_IUPAC_SYSTEMATIC_NAME>
(2S,3S,4S,5R,6R)-6-[4-[methyl(nitroso)amino]-1-pyridin-3-yl-butoxy]-3,4,5-tris(oxidanyl)oxane-2-carboxylic acid

> <PUBCHEM_IUPAC_TRADITIONAL_NAME>
(2S,3S,4S,5R,6R)-3,4,5-trihydroxy-6-[4-[methyl(nitroso)amino]-1-(3-pyridyl)butoxy]tetrahydropyran-2-carboxylic acid

> <PUBCHEM_IUPAC_INCHI>
InChI=1S/C16H23N3O8/c1-19(18-25)7-3-5-10(9-4-2-6-17-8-9)26-16-13(22)11(20)12(21)14(27-16)15(23)24/h2,4,6,8,10-14,16,20-22H,3,5,7H2,1H3,(H,23,24)/t10?,11-,12-,13+,14-,16+/m0/s1

> <PUBCHEM_IUPAC_INCHIKEY>
KNPUXTWHFSLCDT-BBYIEOQPSA-N

> <PUBCHEM_XLOGP3_AA>
-0.7

> <PUBCHEM_EXACT_MASS>
385.148515

> <PUBCHEM_MOLECULAR_FORMULA>
C16H23N3O8

> <PUBCHEM_MOLECULAR_WEIGHT>
385.36912

> <PUBCHEM_OPENEYE_CAN_SMILES>
CN(CCCC(C1=CN=CC=C1)OC2C(C(C(C(O2)C(=O)O)O)O)O)N=O

> <PUBCHEM_OPENEYE_ISO_SMILES>
CN(CCCC(C1=CN=CC=C1)O[C@H]2[C@@H]([C@H]([C@@H]([C@H](O2)C(=O)O)O)O)O)N=O

> <PUBCHEM_CACTVS_TPSA>
162

> <PUBCHEM_MONOISOTOPIC_WEIGHT>
385.148515

> <PUBCHEM_TOTAL_CHARGE>
0

> <PUBCHEM_HEAVY_ATOM_COUNT>
27

> <PUBCHEM_ATOM_DEF_STEREO_COUNT>
5

> <PUBCHEM_ATOM_UDEF_STEREO_COUNT>
1

> <PUBCHEM_BOND_DEF_STEREO_COUNT>
0

> <PUBCHEM_BOND_UDEF_STEREO_COUNT>
0

> <PUBCHEM_ISOTOPIC_ATOM_COUNT>
0

> <PUBCHEM_COMPONENT_COUNT>
1

> <PUBCHEM_CACTVS_TAUTO_COUNT>
1

> <PUBCHEM_COORDINATE_TYPE>
1
5
255

> <PUBCHEM_BONDANNOTATIONS>
10  24  8
10  27  8
16  19  6
17  18  3
15  2  6
21  23  8
21  24  8
23  25  8
25  27  8
12  3  6
13  4  5
14  5  5

$$$$

