56928092
  -OEChem-07051213092D

115121  0     1  0  0  0  0  0999 V2000
    4.7439    2.8380    0.0000 O   0  0  0  0  0  0  0  0  0  0  0  0
    6.4760    3.8380    0.0000 O   0  0  0  0  0  0  0  0  0  0  0  0
    8.0759    3.8771    0.0000 O   0  0  0  0  0  0  0  0  0  0  0  0
    3.7169    0.1060    0.0000 O   0  0  0  0  0  0  0  0  0  0  0  0
    9.0418    1.8862    0.0000 O   0  0  0  0  0  0  0  0  0  0  0  0
    3.3660    1.4904    0.0000 O   0  0  0  0  0  0  0  0  0  0  0  0
    5.3688   -4.9580    0.0000 O   0  0  0  0  0  0  0  0  0  0  0  0
    5.6100   -2.1261    0.0000 O   0  0  0  0  0  0  0  0  0  0  0  0
    6.3688   -3.9580    0.0000 O   0  0  0  0  0  0  0  0  0  0  0  0
    3.7780   -1.8849    0.0000 O   0  0  0  0  0  0  0  0  0  0  0  0
    9.4901   -1.5189    0.0000 O   0  0  0  0  0  0  0  0  0  0  0  0
    6.7868   -0.8989    0.0000 O   0  0  0  0  0  0  0  0  0  0  0  0
    5.6100    3.3380    0.0000 C   0  0  3  0  0  0  0  0  0  0  0  0
    4.7439    1.8380    0.0000 C   0  0  1  0  0  0  0  0  0  0  0  0
    6.4760    2.8380    0.0000 C   0  0  0  0  0  0  0  0  0  0  0  0
    5.2439    0.9720    0.0000 C   0  0  1  0  0  0  0  0  0  0  0  0
    6.4760    1.8380    0.0000 C   0  0  1  0  0  0  0  0  0  0  0  0
    6.4760    4.8380    0.0000 C   0  0  2  0  0  0  0  0  0  0  0  0
    4.7439    3.8380    0.0000 C   0  0  0  0  0  0  0  0  0  0  0  0
    5.6100    1.3380    0.0000 C   0  0  0  0  0  0  0  0  0  0  0  0
    7.4760    4.8380    0.0000 C   0  0  2  0  0  0  0  0  0  0  0  0
    4.7439    0.1060    0.0000 C   0  0  0  0  0  0  0  0  0  0  0  0
    5.6100    5.3380    0.0000 C   0  0  0  0  0  0  0  0  0  0  0  0
    4.7439    4.8380    0.0000 C   0  0  0  0  0  0  0  0  0  0  0  0
    4.2282    0.9837    0.0000 C   0  0  2  0  0  0  0  0  0  0  0  0
    5.2439   -0.7600    0.0000 C   0  0  2  0  0  0  0  0  0  0  0  0
    6.9760    0.9720    0.0000 C   0  0  0  0  0  0  0  0  0  0  0  0
    7.5759    3.0111    0.0000 C   0  0  1  0  0  0  0  0  0  0  0  0
    8.4678    4.8442    0.0000 C   0  0  0  0  0  0  0  0  0  0  0  0
    8.0759    2.1450    0.0000 C   0  0  2  0  0  0  0  0  0  0  0  0
    4.5028   -3.4580    0.0000 C   0  0  2  0  0  0  0  0  0  0  0  0
    5.3688   -3.9580    0.0000 C   0  0  1  0  0  0  0  0  0  0  0  0
    4.2282   -0.7718    0.0000 C   0  0  0  0  0  0  0  0  0  0  0  0
    3.6367   -3.9580    0.0000 C   0  0  1  0  0  0  0  0  0  0  0  0
    7.3444    1.4778    0.0000 C   0  0  0  0  0  0  0  0  0  0  0  0
    6.2526    0.5719    0.0000 C   0  0  0  0  0  0  0  0  0  0  0  0
    8.7830    0.9203    0.0000 C   0  0  1  0  0  0  0  0  0  0  0  0
    7.8395    0.6204    0.0000 C   0  0  0  0  0  0  0  0  0  0  0  0
    5.8688   -3.0920    0.0000 C   0  0  2  0  0  0  0  0  0  0  0  0
    8.5624    3.1131    0.0000 C   0  0  0  0  0  0  0  0  0  0  0  0
    8.9964    4.0050    0.0000 C   0  0  0  0  0  0  0  0  0  0  0  0
    4.7439   -1.6261    0.0000 C   0  0  0  0  0  0  0  0  0  0  0  0
    3.8779    5.3380    0.0000 C   0  0  0  0  0  0  0  0  0  0  0  0
    3.6367   -4.9580    0.0000 C   0  0  0  0  0  0  0  0  0  0  0  0
    4.5028   -5.4580    0.0000 C   0  0  0  0  0  0  0  0  0  0  0  0
    4.5028   -2.4580    0.0000 C   0  0  0  0  0  0  0  0  0  0  0  0
    9.2830    0.0543    0.0000 C   0  0  0  0  0  0  0  0  0  0  0  0
    2.7707   -3.4580    0.0000 C   0  0  0  0  0  0  0  0  0  0  0  0
    6.8347   -3.3508    0.0000 C   0  0  0  0  0  0  0  0  0  0  0  0
    8.7830   -0.8118    0.0000 C   0  0  2  0  0  0  0  0  0  0  0  0
    3.2282   -0.7795    0.0000 C   0  0  0  0  0  0  0  0  0  0  0  0
    7.7830   -0.8118    0.0000 C   0  0  2  0  0  0  0  0  0  0  0  0
    7.2830   -1.6778    0.0000 C   0  0  0  0  0  0  0  0  0  0  0  0
    7.5418   -2.6437    0.0000 C   0  0  0  0  0  0  0  0  0  0  0  0
   10.2830    0.0543    0.0000 C   0  0  0  0  0  0  0  0  0  0  0  0
    4.0078    2.2630    0.0000 H   0  0  0  0  0  0  0  0  0  0  0  0
    6.6880    3.4206    0.0000 H   0  0  0  0  0  0  0  0  0  0  0  0
    7.0866    2.7304    0.0000 H   0  0  0  0  0  0  0  0  0  0  0  0
    5.5300    0.1716    0.0000 H   0  0  0  0  0  0  0  0  0  0  0  0
    7.0129    2.1481    0.0000 H   0  0  0  0  0  0  0  0  0  0  0  0
    6.4760    5.6880    0.0000 H   0  0  0  0  0  0  0  0  0  0  0  0
    4.5319    3.2554    0.0000 H   0  0  0  0  0  0  0  0  0  0  0  0
    4.1334    3.9457    0.0000 H   0  0  0  0  0  0  0  0  0  0  0  0
    7.8882    5.5814    0.0000 H   0  0  0  0  0  0  0  0  0  0  0  0
    4.2690   -0.2926    0.0000 H   0  0  0  0  0  0  0  0  0  0  0  0
    4.2690    0.5045    0.0000 H   0  0  0  0  0  0  0  0  0  0  0  0
    5.2114    5.8130    0.0000 H   0  0  0  0  0  0  0  0  0  0  0  0
    6.0085    5.8130    0.0000 H   0  0  0  0  0  0  0  0  0  0  0  0
    4.3944    1.5810    0.0000 H   0  0  0  0  0  0  0  0  0  0  0  0
    6.0939   -0.7502    0.0000 H   0  0  0  0  0  0  0  0  0  0  0  0
    7.5129    1.2820    0.0000 H   0  0  0  0  0  0  0  0  0  0  0  0
    7.2860    0.4351    0.0000 H   0  0  0  0  0  0  0  0  0  0  0  0
    6.4391    0.6620    0.0000 H   0  0  0  0  0  0  0  0  0  0  0  0
    7.1509    3.7472    0.0000 H   0  0  0  0  0  0  0  0  0  0  0  0
    8.3498    5.4528    0.0000 H   0  0  0  0  0  0  0  0  0  0  0  0
    9.0443    5.0723    0.0000 H   0  0  0  0  0  0  0  0  0  0  0  0
    8.8619    2.4685    0.0000 H   0  0  0  0  0  0  0  0  0  0  0  0
    3.9658   -3.1480    0.0000 H   0  0  0  0  0  0  0  0  0  0  0  0
    3.6367   -3.3380    0.0000 H   0  0  0  0  0  0  0  0  0  0  0  0
    6.8312    1.1300    0.0000 H   0  0  0  0  0  0  0  0  0  0  0  0
    6.9606    1.9648    0.0000 H   0  0  0  0  0  0  0  0  0  0  0  0
    6.8632    0.6795    0.0000 H   0  0  0  0  0  0  0  0  0  0  0  0
    6.0405   -0.0107    0.0000 H   0  0  0  0  0  0  0  0  0  0  0  0
    9.6257    1.0312    0.0000 H   0  0  0  0  0  0  0  0  0  0  0  0
    8.0692    0.0446    0.0000 H   0  0  0  0  0  0  0  0  0  0  0  0
    7.2816    0.3498    0.0000 H   0  0  0  0  0  0  0  0  0  0  0  0
    5.0188   -3.0920    0.0000 H   0  0  0  0  0  0  0  0  0  0  0  0
    8.9179    2.6051    0.0000 H   0  0  0  0  0  0  0  0  0  0  0  0
    9.6154    4.0388    0.0000 H   0  0  0  0  0  0  0  0  0  0  0  0
    3.4247   -5.5406    0.0000 H   0  0  0  0  0  0  0  0  0  0  0  0
    3.0262   -4.8504    0.0000 H   0  0  0  0  0  0  0  0  0  0  0  0
    3.3410    5.0280    0.0000 H   0  0  0  0  0  0  0  0  0  0  0  0
    3.8779    5.9580    0.0000 H   0  0  0  0  0  0  0  0  0  0  0  0
    4.9013   -5.9330    0.0000 H   0  0  0  0  0  0  0  0  0  0  0  0
    4.1042   -5.9330    0.0000 H   0  0  0  0  0  0  0  0  0  0  0  0
    2.8267    1.1846    0.0000 H   0  0  0  0  0  0  0  0  0  0  0  0
    3.8828   -2.4580    0.0000 H   0  0  0  0  0  0  0  0  0  0  0  0
    4.5028   -1.8380    0.0000 H   0  0  0  0  0  0  0  0  0  0  0  0
    5.1228   -2.4580    0.0000 H   0  0  0  0  0  0  0  0  0  0  0  0
    2.4607   -3.9950    0.0000 H   0  0  0  0  0  0  0  0  0  0  0  0
    2.2338   -3.1480    0.0000 H   0  0  0  0  0  0  0  0  0  0  0  0
    3.0807   -2.9211    0.0000 H   0  0  0  0  0  0  0  0  0  0  0  0
    6.9952   -3.9497    0.0000 H   0  0  0  0  0  0  0  0  0  0  0  0
    8.6225   -1.4106    0.0000 H   0  0  0  0  0  0  0  0  0  0  0  0
    2.9224   -1.3188    0.0000 H   0  0  0  0  0  0  0  0  0  0  0  0
    2.9141   -0.2450    0.0000 H   0  0  0  0  0  0  0  0  0  0  0  0
    6.6788   -4.4950    0.0000 H   0  0  0  0  0  0  0  0  0  0  0  0
    7.6225   -0.2129    0.0000 H   0  0  0  0  0  0  0  0  0  0  0  0
    6.7461   -1.9878    0.0000 H   0  0  0  0  0  0  0  0  0  0  0  0
    6.8446   -1.2394    0.0000 H   0  0  0  0  0  0  0  0  0  0  0  0
    8.1407   -2.8042    0.0000 H   0  0  0  0  0  0  0  0  0  0  0  0
   10.5930    0.5912    0.0000 H   0  0  0  0  0  0  0  0  0  0  0  0
   10.5930   -0.4827    0.0000 H   0  0  0  0  0  0  0  0  0  0  0  0
   10.0890   -1.3584    0.0000 H   0  0  0  0  0  0  0  0  0  0  0  0
    6.5248   -1.4608    0.0000 H   0  0  0  0  0  0  0  0  0  0  0  0
  1 13  1  0  0  0  0
  1 14  1  0  0  0  0
  2 13  1  0  0  0  0
  2 18  1  0  0  0  0
  3 21  1  0  0  0  0
  3 28  1  0  0  0  0
  4 25  1  0  0  0  0
  4 33  1  0  0  0  0
  5 30  1  0  0  0  0
  5 37  1  0  0  0  0
 25  6  1  6  0  0  0
  6 96  1  0  0  0  0
  7 32  1  0  0  0  0
  7 45  1  0  0  0  0
  8 39  1  0  0  0  0
  8 42  1  0  0  0  0
 32  9  1  6  0  0  0
  9107  1  0  0  0  0
 10 42  2  0  0  0  0
 50 11  1  1  0  0  0
 11114  1  0  0  0  0
 52 12  1  6  0  0  0
 12115  1  0  0  0  0
 13 15  1  0  0  0  0
 13 19  1  0  0  0  0
 14 16  1  0  0  0  0
 14 20  1  0  0  0  0
 14 56  1  1  0  0  0
 15 17  1  0  0  0  0
 15 57  1  0  0  0  0
 15 58  1  0  0  0  0
 16 22  1  0  0  0  0
 16 25  1  0  0  0  0
 16 59  1  6  0  0  0
 17 20  1  0  0  0  0
 17 27  1  6  0  0  0
 17 60  1  0  0  0  0
 18 21  1  0  0  0  0
 18 23  1  0  0  0  0
 18 61  1  6  0  0  0
 19 24  1  0  0  0  0
 19 62  1  0  0  0  0
 19 63  1  0  0  0  0
 20 36  2  0  0  0  0
 21 29  1  0  0  0  0
 21 64  1  1  0  0  0
 22 26  1  0  0  0  0
 22 65  1  0  0  0  0
 22 66  1  0  0  0  0
 23 24  1  0  0  0  0
 23 67  1  0  0  0  0
 23 68  1  0  0  0  0
 24 43  2  0  0  0  0
 25 69  1  0  0  0  0
 26 33  1  0  0  0  0
 26 42  1  0  0  0  0
 26 70  1  6  0  0  0
 27 71  1  0  0  0  0
 27 72  1  0  0  0  0
 27 73  1  0  0  0  0
 28 30  1  0  0  0  0
 28 40  1  0  0  0  0
 28 74  1  1  0  0  0
 29 41  1  0  0  0  0
 29 75  1  0  0  0  0
 29 76  1  0  0  0  0
 30 35  1  0  0  0  0
 30 77  1  6  0  0  0
 31 32  1  0  0  0  0
 31 34  1  0  0  0  0
 31 46  1  6  0  0  0
 31 78  1  0  0  0  0
 32 39  1  0  0  0  0
 33 51  2  0  0  0  0
 34 44  1  0  0  0  0
 34 48  1  1  0  0  0
 34 79  1  0  0  0  0
 35 38  1  0  0  0  0
 35 80  1  0  0  0  0
 35 81  1  0  0  0  0
 36 82  1  0  0  0  0
 36 83  1  0  0  0  0
 37 38  1  0  0  0  0
 37 47  1  0  0  0  0
 37 84  1  1  0  0  0
 38 85  1  0  0  0  0
 38 86  1  0  0  0  0
 39 49  1  0  0  0  0
 39 87  1  6  0  0  0
 40 41  2  0  0  0  0
 40 88  1  0  0  0  0
 41 89  1  0  0  0  0
 43 92  1  0  0  0  0
 43 93  1  0  0  0  0
 44 45  1  0  0  0  0
 44 90  1  0  0  0  0
 44 91  1  0  0  0  0
 45 94  1  0  0  0  0
 45 95  1  0  0  0  0
 46 97  1  0  0  0  0
 46 98  1  0  0  0  0
 46 99  1  0  0  0  0
 47 50  1  0  0  0  0
 47 55  2  0  0  0  0
 48100  1  0  0  0  0
 48101  1  0  0  0  0
 48102  1  0  0  0  0
 49 54  2  0  0  0  0
 49103  1  0  0  0  0
 50 52  1  0  0  0  0
 50104  1  0  0  0  0
 51105  1  0  0  0  0
 51106  1  0  0  0  0
 52 53  1  0  0  0  0
 52108  1  0  0  0  0
 53 54  1  0  0  0  0
 53109  1  0  0  0  0
 53110  1  0  0  0  0
 54111  1  0  0  0  0
 55112  1  0  0  0  0
 55113  1  0  0  0  0
M  END
> <PUBCHEM_COMPOUND_CID>
56928092

> <PUBCHEM_COMPOUND_CANONICALIZED>
1

> <PUBCHEM_CACTVS_COMPLEXITY>
1570

> <PUBCHEM_CACTVS_HBOND_ACCEPTOR>
12

> <PUBCHEM_CACTVS_HBOND_DONOR>
4

> <PUBCHEM_CACTVS_ROTATABLE_BOND>
1

> <PUBCHEM_CACTVS_SUBSKEYS>
AAADcfB8PAAAAAAAAAAAAAAAAAAAASAAAAAkSJEiAAAAAAAAAAAAGgAACAAADRSwgAMCCAAABgCIAiDSCAAACAAgAAAICAEAAAgRFBYAIQAiUAAF4AAPMAPI7PzOgAAAAAAAAAAAAAAAAAAAAAAAAAAAAA==

> <PUBCHEM_IUPAC_INCHI>
InChI=1S/C43H60O12/c1-22-18-36-34-12-9-11-33(52-34)35-15-14-32(51-35)26(5)38(45)31(44)10-8-13-37(43(48)27(6)23(2)16-17-49-43)53-40(46)29-19-30(41(47)50-28(29)7)39-25(4)24(3)21-42(20-22,54-36)55-39/h8-9,11,13,23-24,27,29-39,41,44-45,47-48H,1,4-5,7,10,12,14-21H2,2-3,6H3/b13-8-/t23-,24+,27+,29-,30-,31+,32+,33-,34+,35+,36+,37+,38-,39-,41+,42?,43+/m1/s1

> <PUBCHEM_IUPAC_INCHIKEY>
CUZZOTHBRFDPNJ-VEEMWHMWSA-N

> <PUBCHEM_XLOGP3_AA>
3.5

> <PUBCHEM_EXACT_MASS>
768.408477

> <PUBCHEM_MOLECULAR_FORMULA>
C43H60O12

> <PUBCHEM_MOLECULAR_WEIGHT>
768.9293

> <PUBCHEM_OPENEYE_CAN_SMILES>
CC1CCOC(C1C)(C2C=CCC(C(C(=C)C3CCC(O3)C4C=CCC(O4)C5CC(=C)CC6(O5)CC(C(=C)C(O6)C7CC(C(=C)OC7O)C(=O)O2)C)O)O)O

> <PUBCHEM_OPENEYE_ISO_SMILES>
C[C@@H]1CCO[C@@]([C@H]1C)([C@@H]2/C=C\C[C@@H]([C@@H](C(=C)[C@@H]3CC[C@H](O3)[C@H]4C=CC[C@H](O4)[C@@H]5CC(=C)CC6(O5)C[C@@H](C(=C)[C@@H](O6)[C@H]7C[C@H](C(=C)O[C@@H]7O)C(=O)O2)C)O)O)O

> <PUBCHEM_CACTVS_TPSA>
163

> <PUBCHEM_MONOISOTOPIC_WEIGHT>
768.408477

> <PUBCHEM_TOTAL_CHARGE>
0

> <PUBCHEM_HEAVY_ATOM_COUNT>
55

> <PUBCHEM_ATOM_DEF_STEREO_COUNT>
16

> <PUBCHEM_ATOM_UDEF_STEREO_COUNT>
1

> <PUBCHEM_BOND_DEF_STEREO_COUNT>
1

> <PUBCHEM_BOND_UDEF_STEREO_COUNT>
0

> <PUBCHEM_ISOTOPIC_ATOM_COUNT>
0

> <PUBCHEM_COMPONENT_COUNT>
1

> <PUBCHEM_CACTVS_TAUTO_COUNT>
1

> <PUBCHEM_COORDINATE_TYPE>
1
5
255

> <PUBCHEM_BONDANNOTATIONS>
50  11  5
52  12  6
13  15  3
14  56  5
16  59  6
17  27  6
18  61  6
21  64  5
26  70  6
28  74  5
30  77  6
31  46  6
34  48  5
37  84  5
39  87  6
25  6  6
32  9  6

$$$$

