441181
  -OEChem-07051212522D

 83 88  0     1  0  0  0  0  0999 V2000
    5.9998   -1.2558    0.0000 O   0  0  0  0  0  0  0  0  0  0  0  0
    5.1396    0.2476    0.0000 O   0  0  0  0  0  0  0  0  0  0  0  0
    4.2639   -2.2491    0.0000 O   0  0  0  0  0  0  0  0  0  0  0  0
    2.5357   -1.2424    0.0000 O   0  0  0  0  0  0  0  0  0  0  0  0
    6.0156    0.7925    0.0000 O   0  0  0  0  0  0  0  0  0  0  0  0
    2.5434    0.7576    0.0000 O   0  0  0  0  0  0  0  0  0  0  0  0
   10.3839    0.2893    0.0000 O   0  0  0  0  0  0  0  0  0  0  0  0
   10.4760   -0.7562    0.0000 O   0  0  0  0  0  0  0  0  0  0  0  0
    7.7640    3.8208    0.0000 O   0  0  0  0  0  0  0  0  0  0  0  0
   11.2880    1.7862    0.0000 O   0  0  0  0  0  0  0  0  0  0  0  0
   11.3685   -2.3376    0.0000 O   0  0  0  0  0  0  0  0  0  0  0  0
    8.6453    5.4334    0.0000 O   0  0  0  0  0  0  0  0  0  0  0  0
   12.2601    5.4474    0.0000 O   0  0  0  0  0  0  0  0  0  0  0  0
   12.2749   -5.8274    0.0000 O   0  0  0  0  0  0  0  0  0  0  0  0
   10.5430   -5.8474    0.0000 O   0  0  0  0  0  0  0  0  0  0  0  0
   10.5198   -3.8476    0.0000 N   0  0  0  0  0  0  0  0  0  0  0  0
    6.8678   -0.7591    0.0000 C   0  0  2  0  0  0  0  0  0  0  0  0
    5.1357   -0.7524    0.0000 C   0  0  2  0  0  0  0  0  0  0  0  0
    4.2678   -1.2491    0.0000 C   0  0  1  0  0  0  0  0  0  0  0  0
    3.4037   -0.7458    0.0000 C   0  0  2  0  0  0  0  0  0  0  0  0
    6.8758    0.2825    0.0000 C   0  0  2  0  0  0  0  0  0  0  0  0
    3.4075    0.2542    0.0000 C   0  0  2  0  0  0  0  0  0  0  0  0
    4.2755    0.7509    0.0000 C   0  0  1  0  0  0  0  0  0  0  0  0
    7.7698   -1.2799    0.0000 C   0  0  0  0  0  0  0  0  0  0  0  0
    7.7858    0.7893    0.0000 C   0  0  0  0  0  0  0  0  0  0  0  0
    8.6679   -0.7522    0.0000 C   0  0  0  0  0  0  0  0  0  0  0  0
    8.6518    0.2893    0.0000 C   0  0  0  0  0  0  0  0  0  0  0  0
    7.7615   -2.3649    0.0000 C   0  0  0  0  0  0  0  0  0  0  0  0
    7.7858    1.7893    0.0000 C   0  0  0  0  0  0  0  0  0  0  0  0
    9.5178    0.7893    0.0000 C   0  0  0  0  0  0  0  0  0  0  0  0
    4.2793    1.7509    0.0000 C   0  0  0  0  0  0  0  0  0  0  0  0
    9.6198   -1.2728    0.0000 C   0  0  0  0  0  0  0  0  0  0  0  0
    8.6518    2.2893    0.0000 C   0  0  0  0  0  0  0  0  0  0  0  0
    9.5178    1.7893    0.0000 C   0  0  0  0  0  0  0  0  0  0  0  0
    8.7011   -2.9074    0.0000 C   0  0  0  0  0  0  0  0  0  0  0  0
    9.6365   -2.3577    0.0000 C   0  0  0  0  0  0  0  0  0  0  0  0
    8.6358    3.3308    0.0000 C   0  0  0  0  0  0  0  0  0  0  0  0
   10.4278    2.2962    0.0000 C   0  0  0  0  0  0  0  0  0  0  0  0
    9.5338    3.8586    0.0000 C   0  0  0  0  0  0  0  0  0  0  0  0
   10.4359    3.3378    0.0000 C   0  0  0  0  0  0  0  0  0  0  0  0
    8.7050   -3.9074    0.0000 C   0  0  0  0  0  0  0  0  0  0  0  0
   10.5083   -2.8476    0.0000 C   0  0  0  0  0  0  0  0  0  0  0  0
    9.5171    4.9435    0.0000 C   0  0  0  0  0  0  0  0  0  0  0  0
   11.3838    3.8657    0.0000 C   0  0  0  0  0  0  0  0  0  0  0  0
   11.3921    4.9507    0.0000 C   0  0  0  0  0  0  0  0  0  0  0  0
   10.4525    5.4932    0.0000 C   0  0  0  0  0  0  0  0  0  0  0  0
   11.3916   -4.3375    0.0000 C   0  0  3  0  0  0  0  0  0  0  0  0
   12.2518   -3.8275    0.0000 C   0  0  0  0  0  0  0  0  0  0  0  0
   11.4032   -5.3374    0.0000 C   0  0  0  0  0  0  0  0  0  0  0  0
   12.2639    6.4473    0.0000 C   0  0  0  0  0  0  0  0  0  0  0  0
    6.8666   -1.3791    0.0000 H   0  0  0  0  0  0  0  0  0  0  0  0
    5.1333   -1.3724    0.0000 H   0  0  0  0  0  0  0  0  0  0  0  0
    3.7296   -1.5570    0.0000 H   0  0  0  0  0  0  0  0  0  0  0  0
    2.8680   -0.4337    0.0000 H   0  0  0  0  0  0  0  0  0  0  0  0
    6.3359   -0.0223    0.0000 H   0  0  0  0  0  0  0  0  0  0  0  0
    2.8694   -0.0537    0.0000 H   0  0  0  0  0  0  0  0  0  0  0  0
    4.8136    1.0588    0.0000 H   0  0  0  0  0  0  0  0  0  0  0  0
    7.2234   -2.6728    0.0000 H   0  0  0  0  0  0  0  0  0  0  0  0
    7.2488    2.0993    0.0000 H   0  0  0  0  0  0  0  0  0  0  0  0
    4.8993    1.7485    0.0000 H   0  0  0  0  0  0  0  0  0  0  0  0
    4.2817    2.3709    0.0000 H   0  0  0  0  0  0  0  0  0  0  0  0
    3.6593    1.7533    0.0000 H   0  0  0  0  0  0  0  0  0  0  0  0
    3.7258   -2.5570    0.0000 H   0  0  0  0  0  0  0  0  0  0  0  0
    2.0000   -0.9303    0.0000 H   0  0  0  0  0  0  0  0  0  0  0  0
    6.0228    1.4124    0.0000 H   0  0  0  0  0  0  0  0  0  0  0  0
    2.5458    1.3776    0.0000 H   0  0  0  0  0  0  0  0  0  0  0  0
    8.0850   -3.9098    0.0000 H   0  0  0  0  0  0  0  0  0  0  0  0
    8.7074   -4.5274    0.0000 H   0  0  0  0  0  0  0  0  0  0  0  0
    9.3250   -3.9050    0.0000 H   0  0  0  0  0  0  0  0  0  0  0  0
   10.9208    0.5993    0.0000 H   0  0  0  0  0  0  0  0  0  0  0  0
   11.0188   -1.0558    0.0000 H   0  0  0  0  0  0  0  0  0  0  0  0
   11.9171    3.5495    0.0000 H   0  0  0  0  0  0  0  0  0  0  0  0
    9.9865   -4.1637    0.0000 H   0  0  0  0  0  0  0  0  0  0  0  0
   10.4501    6.1132    0.0000 H   0  0  0  0  0  0  0  0  0  0  0  0
   10.8583   -4.6537    0.0000 H   0  0  0  0  0  0  0  0  0  0  0  0
    8.6382    6.0534    0.0000 H   0  0  0  0  0  0  0  0  0  0  0  0
   12.5680   -4.3608    0.0000 H   0  0  0  0  0  0  0  0  0  0  0  0
   12.7851   -3.5113    0.0000 H   0  0  0  0  0  0  0  0  0  0  0  0
   11.9356   -3.2942    0.0000 H   0  0  0  0  0  0  0  0  0  0  0  0
   12.8839    6.4450    0.0000 H   0  0  0  0  0  0  0  0  0  0  0  0
   12.2663    7.0673    0.0000 H   0  0  0  0  0  0  0  0  0  0  0  0
   11.6439    6.4497    0.0000 H   0  0  0  0  0  0  0  0  0  0  0  0
   12.2821   -6.4473    0.0000 H   0  0  0  0  0  0  0  0  0  0  0  0
 17  1  1  6  0  0  0
 18  1  1  1  0  0  0
  2 18  1  0  0  0  0
  2 23  1  0  0  0  0
 19  3  1  6  0  0  0
  3 63  1  0  0  0  0
 20  4  1  1  0  0  0
  4 64  1  0  0  0  0
 21  5  1  1  0  0  0
  5 65  1  0  0  0  0
 22  6  1  1  0  0  0
  6 66  1  0  0  0  0
  7 30  1  0  0  0  0
  7 70  1  0  0  0  0
  8 32  1  0  0  0  0
  8 71  1  0  0  0  0
  9 37  2  0  0  0  0
 10 38  2  0  0  0  0
 11 42  2  0  0  0  0
 12 43  1  0  0  0  0
 12 76  1  0  0  0  0
 13 45  1  0  0  0  0
 13 50  1  0  0  0  0
 14 49  1  0  0  0  0
 14 83  1  0  0  0  0
 15 49  2  0  0  0  0
 16 42  1  0  0  0  0
 16 47  1  0  0  0  0
 16 73  1  0  0  0  0
 17 21  1  0  0  0  0
 17 24  1  0  0  0  0
 17 51  1  0  0  0  0
 18 19  1  0  0  0  0
 18 52  1  0  0  0  0
 19 20  1  0  0  0  0
 19 53  1  0  0  0  0
 20 22  1  0  0  0  0
 20 54  1  0  0  0  0
 21 25  1  0  0  0  0
 21 55  1  0  0  0  0
 22 23  1  0  0  0  0
 22 56  1  0  0  0  0
 23 31  1  1  0  0  0
 23 57  1  0  0  0  0
 24 26  2  0  0  0  0
 24 28  1  0  0  0  0
 25 27  1  0  0  0  0
 25 29  2  0  0  0  0
 26 27  1  0  0  0  0
 26 32  1  0  0  0  0
 27 30  2  0  0  0  0
 28 35  2  0  0  0  0
 28 58  1  0  0  0  0
 29 33  1  0  0  0  0
 29 59  1  0  0  0  0
 30 34  1  0  0  0  0
 31 60  1  0  0  0  0
 31 61  1  0  0  0  0
 31 62  1  0  0  0  0
 32 36  2  0  0  0  0
 33 34  2  0  0  0  0
 33 37  1  0  0  0  0
 34 38  1  0  0  0  0
 35 36  1  0  0  0  0
 35 41  1  0  0  0  0
 36 42  1  0  0  0  0
 37 39  1  0  0  0  0
 38 40  1  0  0  0  0
 39 40  2  0  0  0  0
 39 43  1  0  0  0  0
 40 44  1  0  0  0  0
 41 67  1  0  0  0  0
 41 68  1  0  0  0  0
 41 69  1  0  0  0  0
 43 46  2  0  0  0  0
 44 45  2  0  0  0  0
 44 72  1  0  0  0  0
 45 46  1  0  0  0  0
 46 74  1  0  0  0  0
 47 48  1  0  0  0  0
 47 49  1  0  0  0  0
 47 75  1  0  0  0  0
 48 77  1  0  0  0  0
 48 78  1  0  0  0  0
 48 79  1  0  0  0  0
 50 80  1  0  0  0  0
 50 81  1  0  0  0  0
 50 82  1  0  0  0  0
M  END
> <PUBCHEM_COMPOUND_CID>
441181

> <PUBCHEM_COMPOUND_CANONICALIZED>
1

> <PUBCHEM_CACTVS_COMPLEXITY>
1330

> <PUBCHEM_CACTVS_HBOND_ACCEPTOR>
15

> <PUBCHEM_CACTVS_HBOND_DONOR>
9

> <PUBCHEM_CACTVS_ROTATABLE_BOND>
6

> <PUBCHEM_CACTVS_SUBSKEYS>
AAADcfB+PAAAAAAAAAAAAAAAAAAAAAAAAAA0YMGDAAAAAADBUAAAHgAQCAAADDzxmAcyDoLABgCIAqHSGACCCAAkIAAAiIGODMgfNzaGtTumcWhn9hWfuYfb7PzO4AADCAAYAADAAAYQADCAAAAAAAAAAA==

> <PUBCHEM_IUPAC_OPENEYE_NAME>
2-[[(5S,6S)-1,6,9,14-tetrahydroxy-11-methoxy-3-methyl-8,13-dioxo-5-[(2S,3R,4S,5R,6R)-3,4,5-trihydroxy-6-methyl-tetrahydropyran-2-yl]oxy-5,6-dihydrobenzo[a]tetracene-2-carbonyl]amino]propanoic acid

> <PUBCHEM_IUPAC_CAS_NAME>
2-[[oxo-[(5S,6S)-1,6,9,14-tetrahydroxy-11-methoxy-3-methyl-8,13-dioxo-5-[[(2S,3R,4S,5R,6R)-3,4,5-trihydroxy-6-methyl-2-oxanyl]oxy]-5,6-dihydrobenzo[a]tetracen-2-yl]methyl]amino]propanoic acid

> <PUBCHEM_IUPAC_NAME>
2-[[(5S,6S)-1,6,9,14-tetrahydroxy-11-methoxy-3-methyl-8,13-dioxo-5-[(2S,3R,4S,5R,6R)-3,4,5-trihydroxy-6-methyloxan-2-yl]oxy-5,6-dihydrobenzo[a]tetracene-2-carbonyl]amino]propanoic acid

> <PUBCHEM_IUPAC_SYSTEMATIC_NAME>
2-[[(5S,6S)-11-methoxy-3-methyl-5-[(2S,3R,4S,5R,6R)-6-methyl-3,4,5-tris(oxidanyl)oxan-2-yl]oxy-1,6,9,14-tetrakis(oxidanyl)-8,13-bis(oxidanylidene)-5,6-dihydrobenzo[a]tetracen-2-yl]carbonylamino]propanoic acid

> <PUBCHEM_IUPAC_TRADITIONAL_NAME>
2-[[(5S,6S)-1,6,9,14-tetrahydroxy-8,13-diketo-11-methoxy-3-methyl-5-[(2S,3R,4S,5R,6R)-3,4,5-trihydroxy-6-methyl-tetrahydropyran-2-yl]oxy-5,6-dihydrobenzo[a]tetracene-2-carbonyl]amino]propionic acid

> <PUBCHEM_IUPAC_INCHI>
InChI=1S/C34H33NO15/c1-9-5-16-21(27(41)18(9)32(45)35-10(2)33(46)47)20-14(26(40)31(16)50-34-30(44)29(43)23(37)11(3)49-34)8-15-22(28(20)42)25(39)13-6-12(48-4)7-17(36)19(13)24(15)38/h5-8,10-11,23,26,29-31,34,36-37,40-44H,1-4H3,(H,35,45)(H,46,47)/t10?,11-,23+,26+,29+,30-,31+,34+/m1/s1

> <PUBCHEM_IUPAC_INCHIKEY>
PRUXMUKWYBVNMB-OVAHQGMASA-N

> <PUBCHEM_XLOGP3_AA>
1.7

> <PUBCHEM_EXACT_MASS>
695.185019

> <PUBCHEM_MOLECULAR_FORMULA>
C34H33NO15

> <PUBCHEM_MOLECULAR_WEIGHT>
695.62352

> <PUBCHEM_OPENEYE_CAN_SMILES>
CC1C(C(C(C(O1)OC2C(C3=C(C4=C(C(=C(C=C24)C)C(=O)NC(C)C(=O)O)O)C(=C5C(=C3)C(=O)C6=C(C=C(C=C6C5=O)OC)O)O)O)O)O)O

> <PUBCHEM_OPENEYE_ISO_SMILES>
C[C@@H]1[C@@H]([C@@H]([C@H]([C@@H](O1)O[C@@H]2[C@H](C3=C(C4=C(C(=C(C=C24)C)C(=O)NC(C)C(=O)O)O)C(=C5C(=C3)C(=O)C6=C(C=C(C=C6C5=O)OC)O)O)O)O)O)O

> <PUBCHEM_CACTVS_TPSA>
270

> <PUBCHEM_MONOISOTOPIC_WEIGHT>
695.185019

> <PUBCHEM_TOTAL_CHARGE>
0

> <PUBCHEM_HEAVY_ATOM_COUNT>
50

> <PUBCHEM_ATOM_DEF_STEREO_COUNT>
7

> <PUBCHEM_ATOM_UDEF_STEREO_COUNT>
1

> <PUBCHEM_BOND_DEF_STEREO_COUNT>
0

> <PUBCHEM_BOND_UDEF_STEREO_COUNT>
0

> <PUBCHEM_ISOTOPIC_ATOM_COUNT>
0

> <PUBCHEM_COMPONENT_COUNT>
1

> <PUBCHEM_CACTVS_TAUTO_COUNT>
994

> <PUBCHEM_COORDINATE_TYPE>
1
5
255

> <PUBCHEM_BONDANNOTATIONS>
17  1  6
18  1  5
23  31  5
24  26  8
24  28  8
25  27  8
25  29  8
26  32  8
27  30  8
28  35  8
29  33  8
19  3  6
30  34  8
32  36  8
33  34  8
35  36  8
39  40  8
39  43  8
20  4  5
40  44  8
43  46  8
44  45  8
45  46  8
47  48  3
21  5  5
22  6  5

$$$$

