5281691
  -OEChem-07051212593D

 35 37  0     0  0  0  0  0  0999 V2000
   -0.1207   -0.7328   -0.1318 O   0  0  0  0  0  0  0  0  0  0  0  0
    1.1967    2.7091   -0.0576 O   0  0  0  0  0  0  0  0  0  0  0  0
   -4.4979   -2.5655   -0.0179 O   0  0  0  0  0  0  0  0  0  0  0  0
   -4.0026    2.1531    0.1684 O   0  0  0  0  0  0  0  0  0  0  0  0
   -1.5565    3.0740    0.0931 O   0  0  0  0  0  0  0  0  0  0  0  0
    4.9359   -0.8082    2.0412 O   0  0  0  0  0  0  0  0  0  0  0  0
    6.1597   -1.0770   -0.4400 O   0  0  0  0  0  0  0  0  0  0  0  0
   -2.0255    0.7639    0.0199 C   0  0  0  0  0  0  0  0  0  0  0  0
   -1.4718   -0.5119   -0.0610 C   0  0  0  0  0  0  0  0  0  0  0  0
    0.7304    0.3609   -0.1101 C   0  0  0  0  0  0  0  0  0  0  0  0
    2.1527   -0.0159   -0.1930 C   0  0  0  0  0  0  0  0  0  0  0  0
   -1.1282    1.9294    0.0295 C   0  0  0  0  0  0  0  0  0  0  0  0
    0.3246    1.6420   -0.0439 C   0  0  0  0  0  0  0  0  0  0  0  0
   -3.4112    0.9287    0.0886 C   0  0  0  0  0  0  0  0  0  0  0  0
   -2.3017   -1.6332   -0.0742 C   0  0  0  0  0  0  0  0  0  0  0  0
   -3.6857   -1.4729   -0.0055 C   0  0  0  0  0  0  0  0  0  0  0  0
   -4.2391   -0.1944    0.0758 C   0  0  0  0  0  0  0  0  0  0  0  0
    2.8852   -0.2379    0.9735 C   0  0  0  0  0  0  0  0  0  0  0  0
    2.7677   -0.1507   -1.4381 C   0  0  0  0  0  0  0  0  0  0  0  0
    4.2314   -0.5943    0.8949 C   0  0  0  0  0  0  0  0  0  0  0  0
    4.1139   -0.5071   -1.5167 C   0  0  0  0  0  0  0  0  0  0  0  0
    4.8457   -0.7289   -0.3501 C   0  0  0  0  0  0  0  0  0  0  0  0
   -5.9032   -2.3304    0.0551 C   0  0  0  0  0  0  0  0  0  0  0  0
   -1.8730   -2.6302   -0.1377 H   0  0  0  0  0  0  0  0  0  0  0  0
   -5.3071   -0.0097    0.1315 H   0  0  0  0  0  0  0  0  0  0  0  0
    2.4138   -0.1356    1.9486 H   0  0  0  0  0  0  0  0  0  0  0  0
    2.2100    0.0185   -2.3561 H   0  0  0  0  0  0  0  0  0  0  0  0
    4.5866   -0.6104   -2.4896 H   0  0  0  0  0  0  0  0  0  0  0  0
    0.6643    3.5219   -0.0081 H   0  0  0  0  0  0  0  0  0  0  0  0
   -3.3336    2.8546    0.1739 H   0  0  0  0  0  0  0  0  0  0  0  0
   -6.1831   -1.8530    1.0004 H   0  0  0  0  0  0  0  0  0  0  0  0
   -6.3955   -3.3082    0.0337 H   0  0  0  0  0  0  0  0  0  0  0  0
   -6.2640   -1.7724   -0.8156 H   0  0  0  0  0  0  0  0  0  0  0  0
    5.7071   -1.3666    1.8520 H   0  0  0  0  0  0  0  0  0  0  0  0
    6.6134   -0.8597    0.3903 H   0  0  0  0  0  0  0  0  0  0  0  0
  1  9  1  0  0  0  0
  1 10  1  0  0  0  0
  2 13  1  0  0  0  0
  2 29  1  0  0  0  0
  3 16  1  0  0  0  0
  3 23  1  0  0  0  0
  4 14  1  0  0  0  0
  4 30  1  0  0  0  0
  5 12  2  0  0  0  0
  6 20  1  0  0  0  0
  6 34  1  0  0  0  0
  7 22  1  0  0  0  0
  7 35  1  0  0  0  0
  8  9  1  0  0  0  0
  8 12  1  0  0  0  0
  8 14  2  0  0  0  0
  9 15  2  0  0  0  0
 10 11  1  0  0  0  0
 10 13  2  0  0  0  0
 11 18  2  0  0  0  0
 11 19  1  0  0  0  0
 12 13  1  0  0  0  0
 14 17  1  0  0  0  0
 15 16  1  0  0  0  0
 15 24  1  0  0  0  0
 16 17  2  0  0  0  0
 17 25  1  0  0  0  0
 18 20  1  0  0  0  0
 18 26  1  0  0  0  0
 19 21  2  0  0  0  0
 19 27  1  0  0  0  0
 20 22  2  0  0  0  0
 21 22  1  0  0  0  0
 21 28  1  0  0  0  0
 23 31  1  0  0  0  0
 23 32  1  0  0  0  0
 23 33  1  0  0  0  0
M  END
> <PUBCHEM_COMPOUND_CID>
5281691

> <PUBCHEM_CONFORMER_RMSD>
0.6

> <PUBCHEM_CONFORMER_DIVERSEORDER>
2
6
3
5
1
4

> <PUBCHEM_MMFF94_PARTIAL_CHARGES>
32
1 -0.16
10 0.05
11 0.03
12 0.47
13 0.09
14 0.08
15 -0.15
16 0.08
17 -0.15
18 -0.15
19 -0.15
2 -0.53
20 0.08
21 -0.15
22 0.08
23 0.28
24 0.15
25 0.15
26 0.15
27 0.15
28 0.15
29 0.45
3 -0.36
30 0.45
34 0.45
35 0.45
4 -0.53
5 -0.57
6 -0.53
7 -0.53
8 0.09
9 0.08

> <PUBCHEM_EFFECTIVE_ROTOR_COUNT>
2

> <PUBCHEM_PHARMACOPHORE_FEATURES>
10
1 1 acceptor
1 2 donor
1 3 acceptor
1 4 donor
1 5 acceptor
1 6 donor
1 7 donor
6 1 8 9 10 12 13 rings
6 11 18 19 20 21 22 rings
6 8 9 14 15 16 17 rings

> <PUBCHEM_HEAVY_ATOM_COUNT>
23

> <PUBCHEM_ATOM_DEF_STEREO_COUNT>
0

> <PUBCHEM_ATOM_UDEF_STEREO_COUNT>
0

> <PUBCHEM_BOND_DEF_STEREO_COUNT>
0

> <PUBCHEM_BOND_UDEF_STEREO_COUNT>
0

> <PUBCHEM_ISOTOPIC_ATOM_COUNT>
0

> <PUBCHEM_COMPONENT_COUNT>
1

> <PUBCHEM_CACTVS_TAUTO_COUNT>
183

> <PUBCHEM_CONFORMER_ID>
0050979B00000002

> <PUBCHEM_MMFF94_ENERGY>
79.6697

> <PUBCHEM_FEATURE_SELFOVERLAP>
50.776

> <PUBCHEM_SHAPE_FINGERPRINT>
10062212 137 18201717375205504777
10319926 262 18190198943523602794
10411042 1 18337951178493208135
11046707 91 18411981360351548045
11370993 144 16660914599273808915
11796584 16 18047185543477196262
12166972 35 17775003440863623359
12236239 1 17846211203013541134
12553582 1 18412823586153052947
13140716 1 18408322168707088385
13288520 33 18410008840828580783
13540713 5 18266157467241275781
13675066 3 17749111088484871158
13782708 43 17604140545557807918
13862211 1 18337391544186493831
14178342 30 18041826420132726955
14251752 14 17704082806758621679
14386348 63 17821727277864711646
15042514 8 18410008862556598713
15196674 1 18410009910011933645
16752209 62 18343867714317023307
17138139 8 17630894806718606994
17349148 13 17846215583500647850
17492 89 17904200326663158759
17804303 29 18407477769135075953
1813 80 18131631170998289756
18222031 100 18335139735386923303
18681886 176 18412821370804366782
19141452 34 17604148130158887351
193927 3 18337380544542841223
200 152 16774076306340722412
20028762 73 18042405729844556487
21033648 29 17168156662165742971
21065201 7 18262517125753447590
21267235 1 18411693262751889075
21728266 224 18272098222379696866
2297311 6 18334568062423216334
23366157 5 18057883533205431372
23402539 116 18411138064807937230
23557571 272 18187638137243674726
23559900 14 18116987987304642838
25147074 1 18268130012296605245
3004659 81 18130787832732027478
312423 11 18269824333918427725
335352 9 18410573986248755893
3411729 13 18119253861768972152
465052 167 18264761069914264783
474 4 17202184237276418028
5104073 3 18334575720044255969
573450 72 18272374208440794714
602551 16 18408325505901627226
7970288 3 18410575046035890462
8863177 126 17699274470628237123
9709674 26 18195807358620026563

> <PUBCHEM_SHAPE_MULTIPOLES>
432.24
12.19
2.56
1.04
3.42
1.29
0.11
-8.51
0.64
-3.53
0.06
1.79
-0.25
-0.2

> <PUBCHEM_SHAPE_SELFOVERLAP>
962.842

> <PUBCHEM_SHAPE_VOLUME>
229.4

> <PUBCHEM_COORDINATE_TYPE>
2
5
10

$$$$

