585136
  -OEChem-06241222452D

 47 50  0     0  0  0  0  0  0999 V2000
    4.5985    1.0583    0.0000 S   0  0  0  0  0  0  0  0  0  0  0  0
    6.3305    1.0581    0.0000 N   0  0  0  0  0  0  0  0  0  0  0  0
    5.4644   -0.4418    0.0000 N   0  0  0  0  0  0  0  0  0  0  0  0
    4.5983   -0.9417    0.0000 N   0  0  0  0  0  0  0  0  0  0  0  0
    2.0001   -2.4415    0.0000 N   0  0  0  0  0  0  0  0  0  0  0  0
    6.3306    2.0581    0.0000 C   0  0  0  0  0  0  0  0  0  0  0  0
    6.1855    2.4932    0.0000 C   0  0  0  0  0  0  0  0  0  0  0  0
    7.8579    2.4932    0.0000 C   0  0  0  0  0  0  0  0  0  0  0  0
    7.0217    3.9416    0.0000 C   0  0  0  0  0  0  0  0  0  0  0  0
    5.3487    2.0105    0.0000 C   0  0  0  0  0  0  0  0  0  0  0  0
    7.2363    1.5813    0.0000 C   0  0  0  0  0  0  0  0  0  0  0  0
    6.3306    3.1034    0.0000 C   0  0  0  0  0  0  0  0  0  0  0  0
    7.0217    2.1905    0.0000 C   0  0  0  0  0  0  0  0  0  0  0  0
    6.1855    3.4588    0.0000 C   0  0  0  0  0  0  0  0  0  0  0  0
    7.8579    3.4588    0.0000 C   0  0  0  0  0  0  0  0  0  0  0  0
    5.4645    0.5582    0.0000 C   0  0  0  0  0  0  0  0  0  0  0  0
    4.5982   -1.9417    0.0000 C   0  0  0  0  0  0  0  0  0  0  0  0
    3.7321   -2.4416    0.0000 C   0  0  0  0  0  0  0  0  0  0  0  0
    5.4642   -2.4418    0.0000 C   0  0  0  0  0  0  0  0  0  0  0  0
    3.7321   -3.4416    0.0000 C   0  0  0  0  0  0  0  0  0  0  0  0
    2.8662   -1.9416    0.0000 C   0  0  0  0  0  0  0  0  0  0  0  0
    2.8660   -3.9416    0.0000 C   0  0  0  0  0  0  0  0  0  0  0  0
    2.0000   -3.4415    0.0000 C   0  0  0  0  0  0  0  0  0  0  0  0
    6.2399    1.8756    0.0000 H   0  0  0  0  0  0  0  0  0  0  0  0
    8.4503    2.3105    0.0000 H   0  0  0  0  0  0  0  0  0  0  0  0
    7.0217    4.5616    0.0000 H   0  0  0  0  0  0  0  0  0  0  0  0
    5.1555    1.4213    0.0000 H   0  0  0  0  0  0  0  0  0  0  0  0
    4.8674    2.4014    0.0000 H   0  0  0  0  0  0  0  0  0  0  0  0
    7.7614    1.2518    0.0000 H   0  0  0  0  0  0  0  0  0  0  0  0
    6.9268    1.0441    0.0000 H   0  0  0  0  0  0  0  0  0  0  0  0
    5.7372    2.9239    0.0000 H   0  0  0  0  0  0  0  0  0  0  0  0
    5.9870    3.6195    0.0000 H   0  0  0  0  0  0  0  0  0  0  0  0
    7.3917    1.6929    0.0000 H   0  0  0  0  0  0  0  0  0  0  0  0
    6.6517    1.6929    0.0000 H   0  0  0  0  0  0  0  0  0  0  0  0
    5.5749    3.3511    0.0000 H   0  0  0  0  0  0  0  0  0  0  0  0
    5.9734    4.0414    0.0000 H   0  0  0  0  0  0  0  0  0  0  0  0
    8.0699    4.0414    0.0000 H   0  0  0  0  0  0  0  0  0  0  0  0
    8.4684    3.3511    0.0000 H   0  0  0  0  0  0  0  0  0  0  0  0
    6.0013   -0.7518    0.0000 H   0  0  0  0  0  0  0  0  0  0  0  0
    4.0615    0.7483    0.0000 H   0  0  0  0  0  0  0  0  0  0  0  0
    5.1541   -2.9787    0.0000 H   0  0  0  0  0  0  0  0  0  0  0  0
    6.0011   -2.7518    0.0000 H   0  0  0  0  0  0  0  0  0  0  0  0
    5.7742   -1.9049    0.0000 H   0  0  0  0  0  0  0  0  0  0  0  0
    4.2690   -3.7517    0.0000 H   0  0  0  0  0  0  0  0  0  0  0  0
    2.8662   -1.3216    0.0000 H   0  0  0  0  0  0  0  0  0  0  0  0
    2.8659   -4.5616    0.0000 H   0  0  0  0  0  0  0  0  0  0  0  0
    1.4630   -3.7514    0.0000 H   0  0  0  0  0  0  0  0  0  0  0  0
  1 16  1  0  0  0  0
  1 40  1  0  0  0  0
  2  6  1  0  0  0  0
  2 16  2  0  0  0  0
  3  4  1  0  0  0  0
  3 16  1  0  0  0  0
  3 39  1  0  0  0  0
  4 17  2  3  0  0  0
  5 21  1  0  0  0  0
  5 23  2  0  0  0  0
  6 10  1  0  0  0  0
  6 11  1  0  0  0  0
  6 12  1  0  0  0  0
  7 10  1  0  0  0  0
  7 13  1  0  0  0  0
  7 14  1  0  0  0  0
  7 24  1  0  0  0  0
  8 11  1  0  0  0  0
  8 13  1  0  0  0  0
  8 15  1  0  0  0  0
  8 25  1  0  0  0  0
  9 12  1  0  0  0  0
  9 14  1  0  0  0  0
  9 15  1  0  0  0  0
  9 26  1  0  0  0  0
 10 27  1  0  0  0  0
 10 28  1  0  0  0  0
 11 29  1  0  0  0  0
 11 30  1  0  0  0  0
 12 31  1  0  0  0  0
 12 32  1  0  0  0  0
 13 33  1  0  0  0  0
 13 34  1  0  0  0  0
 14 35  1  0  0  0  0
 14 36  1  0  0  0  0
 15 37  1  0  0  0  0
 15 38  1  0  0  0  0
 17 18  1  0  0  0  0
 17 19  1  0  0  0  0
 18 20  1  0  0  0  0
 18 21  2  0  0  0  0
 19 41  1  0  0  0  0
 19 42  1  0  0  0  0
 19 43  1  0  0  0  0
 20 22  2  0  0  0  0
 20 44  1  0  0  0  0
 21 45  1  0  0  0  0
 22 23  1  0  0  0  0
 22 46  1  0  0  0  0
 23 47  1  0  0  0  0
M  END
> <PUBCHEM_COMPOUND_CID>
585136

> <PUBCHEM_COMPOUND_CANONICALIZED>
1

> <PUBCHEM_CACTVS_COMPLEXITY>
472

> <PUBCHEM_CACTVS_HBOND_ACCEPTOR>
4

> <PUBCHEM_CACTVS_HBOND_DONOR>
2

> <PUBCHEM_CACTVS_ROTATABLE_BOND>
4

> <PUBCHEM_CACTVS_SUBSKEYS>
AAADceB7gABAAAAAAAAAAAAAAAAAAAAAAAA8YMGCAAAAAAABgAAAHAQYAAAADYjBGgQ/gJJqEASgAzBnZACSkCExAiAI2CA4ZJgIIOLAkZGEIAhgiADIyAcQgMAOAAAAAAAAAAAAAASAAAAAAAAAAAAAAA==

> <PUBCHEM_IUPAC_OPENEYE_NAME>
3-(1-adamantyl)-1-[1-(3-pyridyl)ethylideneamino]isothiourea

> <PUBCHEM_IUPAC_CAS_NAME>
N'-(1-adamantyl)-N-[1-(3-pyridinyl)ethylideneamino]carbamimidothioic acid

> <PUBCHEM_IUPAC_NAME>
N'-(1-adamantyl)-N-(1-pyridin-3-ylethylideneamino)carbamimidothioic acid

> <PUBCHEM_IUPAC_SYSTEMATIC_NAME>
N'-(1-adamantyl)-N-(1-pyridin-3-ylethylideneamino)carbamimidothioic acid

> <PUBCHEM_IUPAC_TRADITIONAL_NAME>
3-(1-adamantyl)-1-[1-(3-pyridyl)ethylideneamino]isothiourea

> <PUBCHEM_IUPAC_INCHI>
InChI=1S/C18H24N4S/c1-12(16-3-2-4-19-11-16)21-22-17(23)20-18-8-13-5-14(9-18)7-15(6-13)10-18/h2-4,11,13-15H,5-10H2,1H3,(H2,20,22,23)

> <PUBCHEM_IUPAC_INCHIKEY>
MOOVNTDJBILTCO-UHFFFAOYSA-N

> <PUBCHEM_XLOGP3_AA>
3.7

> <PUBCHEM_EXACT_MASS>
328.172168

> <PUBCHEM_MOLECULAR_FORMULA>
C18H24N4S

> <PUBCHEM_MOLECULAR_WEIGHT>
328.47496

> <PUBCHEM_OPENEYE_CAN_SMILES>
CC(=NNC(=NC12CC3CC(C1)CC(C3)C2)S)C4=CN=CC=C4

> <PUBCHEM_OPENEYE_ISO_SMILES>
CC(=NNC(=NC12CC3CC(C1)CC(C3)C2)S)C4=CN=CC=C4

> <PUBCHEM_CACTVS_TPSA>
50.6

> <PUBCHEM_MONOISOTOPIC_WEIGHT>
328.172168

> <PUBCHEM_TOTAL_CHARGE>
0

> <PUBCHEM_HEAVY_ATOM_COUNT>
23

> <PUBCHEM_ATOM_DEF_STEREO_COUNT>
0

> <PUBCHEM_ATOM_UDEF_STEREO_COUNT>
0

> <PUBCHEM_BOND_DEF_STEREO_COUNT>
0

> <PUBCHEM_BOND_UDEF_STEREO_COUNT>
1

> <PUBCHEM_ISOTOPIC_ATOM_COUNT>
0

> <PUBCHEM_COMPONENT_COUNT>
1

> <PUBCHEM_CACTVS_TAUTO_COUNT>
3

> <PUBCHEM_COORDINATE_TYPE>
1
5
255

> <PUBCHEM_BONDANNOTATIONS>
18  20  8
18  21  8
20  22  8
22  23  8
4  17  1
5  21  8
5  23  8

$$$$

