439545
  -OEChem-07051212463D

 24 23  0     1  0  0  0  0  0999 V2000
   -1.4253    0.8539    1.3645 O   0  0  0  0  0  0  0  0  0  0  0  0
    0.2413   -0.6307   -1.5205 O   0  0  0  0  0  0  0  0  0  0  0  0
   -2.6535   -1.5129    0.2442 O   0  0  0  0  0  0  0  0  0  0  0  0
    1.4131    1.7379   -0.3530 O   0  0  0  0  0  0  0  0  0  0  0  0
    2.6273   -1.3996    0.9119 O   0  0  0  0  0  0  0  0  0  0  0  0
    3.5566    0.1461   -0.4611 O   0  0  0  0  0  0  0  0  0  0  0  0
   -1.3031    0.4958   -0.0206 C   0  0  1  0  0  0  0  0  0  0  0  0
    0.0545   -0.2288   -0.1668 C   0  0  2  0  0  0  0  0  0  0  0  0
   -2.5745   -0.2656   -0.4388 C   0  0  2  0  0  0  0  0  0  0  0  0
    1.2960    0.5096    0.3542 C   0  0  1  0  0  0  0  0  0  0  0  0
   -3.8448    0.5261   -0.1350 C   0  0  0  0  0  0  0  0  0  0  0  0
    2.6124   -0.2321    0.2209 C   0  0  0  0  0  0  0  0  0  0  0  0
   -1.2674    1.4305   -0.5930 H   0  0  0  0  0  0  0  0  0  0  0  0
   -0.0038   -1.1587    0.4148 H   0  0  0  0  0  0  0  0  0  0  0  0
   -2.5319   -0.4779   -1.5127 H   0  0  0  0  0  0  0  0  0  0  0  0
    1.1794    0.7658    1.4127 H   0  0  0  0  0  0  0  0  0  0  0  0
   -4.7239   -0.0138   -0.5042 H   0  0  0  0  0  0  0  0  0  0  0  0
   -3.8217    1.5117   -0.6095 H   0  0  0  0  0  0  0  0  0  0  0  0
   -3.9917    0.6528    0.9429 H   0  0  0  0  0  0  0  0  0  0  0  0
   -1.5039    0.0294    1.8745 H   0  0  0  0  0  0  0  0  0  0  0  0
   -0.4489   -1.2795   -1.7376 H   0  0  0  0  0  0  0  0  0  0  0  0
   -3.4498   -1.9724   -0.0725 H   0  0  0  0  0  0  0  0  0  0  0  0
    1.4519    1.5316   -1.3028 H   0  0  0  0  0  0  0  0  0  0  0  0
    3.4761   -1.8790    0.8026 H   0  0  0  0  0  0  0  0  0  0  0  0
  1  7  1  0  0  0  0
  1 20  1  0  0  0  0
  2  8  1  0  0  0  0
  2 21  1  0  0  0  0
  3  9  1  0  0  0  0
  3 22  1  0  0  0  0
  4 10  1  0  0  0  0
  4 23  1  0  0  0  0
  5 12  1  0  0  0  0
  5 24  1  0  0  0  0
  6 12  2  0  0  0  0
  7  8  1  0  0  0  0
  7  9  1  0  0  0  0
  7 13  1  0  0  0  0
  8 10  1  0  0  0  0
  8 14  1  0  0  0  0
  9 11  1  0  0  0  0
  9 15  1  0  0  0  0
 10 12  1  0  0  0  0
 10 16  1  0  0  0  0
 11 17  1  0  0  0  0
 11 18  1  0  0  0  0
 11 19  1  0  0  0  0
M  END
> <PUBCHEM_COMPOUND_CID>
439545

> <PUBCHEM_CONFORMER_RMSD>
0.6

> <PUBCHEM_CONFORMER_DIVERSEORDER>
1
23
24
3
21
28
31
13
15
18
20
27
12
6
8
22
25
16
30
11
14
26
29
4
5
19
2
10
17
9
7

> <PUBCHEM_MMFF94_PARTIAL_CHARGES>
16
1 -0.68
10 0.34
12 0.66
2 -0.68
20 0.4
21 0.4
22 0.4
23 0.4
24 0.5
3 -0.68
4 -0.68
5 -0.65
6 -0.57
7 0.28
8 0.28
9 0.28

> <PUBCHEM_EFFECTIVE_ROTOR_COUNT>
4

> <PUBCHEM_PHARMACOPHORE_FEATURES>
11
1 1 acceptor
1 1 donor
1 2 acceptor
1 2 donor
1 3 acceptor
1 3 donor
1 4 acceptor
1 4 donor
1 5 acceptor
1 6 acceptor
3 5 6 12 anion

> <PUBCHEM_HEAVY_ATOM_COUNT>
12

> <PUBCHEM_ATOM_DEF_STEREO_COUNT>
4

> <PUBCHEM_ATOM_UDEF_STEREO_COUNT>
0

> <PUBCHEM_BOND_DEF_STEREO_COUNT>
0

> <PUBCHEM_BOND_UDEF_STEREO_COUNT>
0

> <PUBCHEM_ISOTOPIC_ATOM_COUNT>
0

> <PUBCHEM_COMPONENT_COUNT>
1

> <PUBCHEM_CACTVS_TAUTO_COUNT>
1

> <PUBCHEM_CONFORMER_ID>
0006B4F900000001

> <PUBCHEM_MMFF94_ENERGY>
20.2039

> <PUBCHEM_FEATURE_SELFOVERLAP>
55.895

> <PUBCHEM_SHAPE_FINGERPRINT>
10130415 120 18259988171568328393
10219947 1 17675924300400476468
10857977 72 16878228580252754395
11062470 55 17489587874392093493
11769659 78 18342468010266218027
12932764 1 17203061715683580229
14144814 61 18410576210018370161
14325111 11 18411140195143377165
14993402 34 18260824899927595916
15775835 57 18131067142950158227
177051 138 18186523172318396775
20201158 50 18113617902387024527
20645477 70 17988088905653266283
21293036 1 13686296876744489867
23552423 10 18270402659522283917
3248919 1 17894622656660376901
5084963 1 18334859402586501344

> <PUBCHEM_SHAPE_MULTIPOLES>
211.74
5.76
1.24
0.98
0.84
0.02
-0.02
0.47
0.09
-0.08
0.11
-0.05
0.06
-0.33

> <PUBCHEM_SHAPE_SELFOVERLAP>
404.265

> <PUBCHEM_SHAPE_VOLUME>
129.5

> <PUBCHEM_COORDINATE_TYPE>
2
5
10

$$$$

