219592
  -OEChem-07051213073D

 30 31  0     0  0  0  0  0  0999 V2000
    2.6985   -0.8411   -2.1307 O   0  0  0  0  0  0  0  0  0  0  0  0
   -2.7153   -0.8571    2.1193 O   0  0  0  0  0  0  0  0  0  0  0  0
    0.9541   -2.6364   -1.0146 O   0  0  0  0  0  0  0  0  0  0  0  0
   -0.9833   -2.6251    1.0045 O   0  0  0  0  0  0  0  0  0  0  0  0
    4.2738    2.4756    0.9054 O   0  0  0  0  0  0  0  0  0  0  0  0
   -4.2503    2.4999   -0.8932 O   0  0  0  0  0  0  0  0  0  0  0  0
    1.6293   -0.5934    0.0022 C   0  0  0  0  0  0  0  0  0  0  0  0
   -1.6450   -0.5754   -0.0082 C   0  0  0  0  0  0  0  0  0  0  0  0
    0.6908   -1.6666   -0.2957 C   0  0  0  0  0  0  0  0  0  0  0  0
   -0.6993   -1.6748    0.2899 C   0  0  0  0  0  0  0  0  0  0  0  0
    2.6005   -0.2143   -0.9246 C   0  0  0  0  0  0  0  0  0  0  0  0
   -2.6052   -0.2184    0.9204 C   0  0  0  0  0  0  0  0  0  0  0  0
    1.5466    0.0592    1.2323 C   0  0  0  0  0  0  0  0  0  0  0  0
   -1.5344    0.0716   -1.2259 C   0  0  0  0  0  0  0  0  0  0  0  0
    3.4889    0.8172   -0.6213 C   0  0  0  0  0  0  0  0  0  0  0  0
   -3.4857    0.8213    0.6215 C   0  0  0  0  0  0  0  0  0  0  0  0
    2.4352    1.0907    1.5355 C   0  0  0  0  0  0  0  0  0  0  0  0
   -2.4149    1.1112   -1.5247 C   0  0  0  0  0  0  0  0  0  0  0  0
    3.4064    1.4697    0.6088 C   0  0  0  0  0  0  0  0  0  0  0  0
   -3.3907    1.4861   -0.6010 C   0  0  0  0  0  0  0  0  0  0  0  0
    0.8085   -0.2236    1.9780 H   0  0  0  0  0  0  0  0  0  0  0  0
   -0.7930   -0.2105   -1.9674 H   0  0  0  0  0  0  0  0  0  0  0  0
    4.2441    1.1077   -1.3476 H   0  0  0  0  0  0  0  0  0  0  0  0
   -4.2471    1.1143    1.3405 H   0  0  0  0  0  0  0  0  0  0  0  0
    2.3679    1.5936    2.4964 H   0  0  0  0  0  0  0  0  0  0  0  0
   -2.3380    1.6234   -2.4799 H   0  0  0  0  0  0  0  0  0  0  0  0
    1.9858   -1.4909   -2.2376 H   0  0  0  0  0  0  0  0  0  0  0  0
   -3.4452   -0.4609    2.6252 H   0  0  0  0  0  0  0  0  0  0  0  0
    4.8761    2.6048    0.1527 H   0  0  0  0  0  0  0  0  0  0  0  0
   -4.8575    2.6250   -0.1437 H   0  0  0  0  0  0  0  0  0  0  0  0
  1 11  1  0  0  0  0
  1 27  1  0  0  0  0
  2 12  1  0  0  0  0
  2 28  1  0  0  0  0
  3  9  2  0  0  0  0
  4 10  2  0  0  0  0
  5 19  1  0  0  0  0
  5 29  1  0  0  0  0
  6 20  1  0  0  0  0
  6 30  1  0  0  0  0
  7  9  1  0  0  0  0
  7 11  2  0  0  0  0
  7 13  1  0  0  0  0
  8 10  1  0  0  0  0
  8 12  2  0  0  0  0
  8 14  1  0  0  0  0
  9 10  1  0  0  0  0
 11 15  1  0  0  0  0
 12 16  1  0  0  0  0
 13 17  2  0  0  0  0
 13 21  1  0  0  0  0
 14 18  2  0  0  0  0
 14 22  1  0  0  0  0
 15 19  2  0  0  0  0
 15 23  1  0  0  0  0
 16 20  2  0  0  0  0
 16 24  1  0  0  0  0
 17 19  1  0  0  0  0
 17 25  1  0  0  0  0
 18 20  1  0  0  0  0
 18 26  1  0  0  0  0
M  END
> <PUBCHEM_COMPOUND_CID>
219592

> <PUBCHEM_CONFORMER_RMSD>
0.6

> <PUBCHEM_CONFORMER_DIVERSEORDER>
2
41
55
27
57
35
3
34
43
25
4
26
47
31
54
24
16
22
49
32
44
1
53
40
19
36
6
50
28
30
45
42
8
52
60
5
7
38
20
59
58
39
12
14
11
29
17
37
9
51
10
46
13
48
15
21
18
33
56
23

> <PUBCHEM_MMFF94_PARTIAL_CHARGES>
30
1 -0.53
10 0.48
11 0.08
12 0.08
13 -0.15
14 -0.15
15 -0.15
16 -0.15
17 -0.15
18 -0.15
19 0.08
2 -0.53
20 0.08
21 0.15
22 0.15
23 0.15
24 0.15
25 0.15
26 0.15
27 0.45
28 0.45
29 0.45
3 -0.57
30 0.45
4 -0.57
5 -0.53
6 -0.53
7 0.09
8 0.09
9 0.48

> <PUBCHEM_EFFECTIVE_ROTOR_COUNT>
3

> <PUBCHEM_PHARMACOPHORE_FEATURES>
8
1 1 donor
1 2 donor
1 3 acceptor
1 4 acceptor
1 5 donor
1 6 donor
6 7 11 13 15 17 19 rings
6 8 12 14 16 18 20 rings

> <PUBCHEM_HEAVY_ATOM_COUNT>
20

> <PUBCHEM_ATOM_DEF_STEREO_COUNT>
0

> <PUBCHEM_ATOM_UDEF_STEREO_COUNT>
0

> <PUBCHEM_BOND_DEF_STEREO_COUNT>
0

> <PUBCHEM_BOND_UDEF_STEREO_COUNT>
0

> <PUBCHEM_ISOTOPIC_ATOM_COUNT>
0

> <PUBCHEM_COMPONENT_COUNT>
1

> <PUBCHEM_CACTVS_TAUTO_COUNT>
78

> <PUBCHEM_CONFORMER_ID>
000359C800000002

> <PUBCHEM_MMFF94_ENERGY>
56.9325

> <PUBCHEM_FEATURE_SELFOVERLAP>
40.598

> <PUBCHEM_SHAPE_FINGERPRINT>
10165383 225 18122588804387973615
10498660 4 18408610266259618669
11127187 94 6915992456157527691
12633257 1 15339121246972296952
13134695 92 17832719232762341918
13764800 53 18272929436201377249
13965767 371 17488197077940372004
14341114 328 16199857397895512556
14386348 128 18338503201268963683
14957384 54 17988379091082070388
15295992 7 18270400623607649939
16945 1 17988073366456138951
18186145 218 18041267808164852846
18219364 16 18334850593682320193
18981168 100 18410568491888286048
21486144 27 18187632588098442326
21524375 3 18410586079785125131
21731516 1 9222949351943385239
21756936 100 17058916751169492364
23175994 123 17973993240016444446
23493267 7 17560222726058596010
23503958 25 18271230664655663469
23557571 272 17916567817934652771
23559900 14 17559387175032349783
238 59 18114749355385764271
25 1 18186793708071355282
27216 239 18200318710457963025
3082319 5 15647053763323321449
3797600 57 16413758571695451132
474 4 18187654612574886577
495365 180 17984713478645008645
633830 44 17822842195413675353
6442390 28 18336818706896551683
7097593 13 16415213307283533072
7808743 9 18130212758249668044
81228 2 17907008478711600122
90316 7 16128658569920641861

> <PUBCHEM_SHAPE_MULTIPOLES>
376.37
7.24
2.46
1.69
0.07
0.38
0
-5.98
-0.04
-0.04
0.01
0.02
0.09
1.92

> <PUBCHEM_SHAPE_SELFOVERLAP>
827.383

> <PUBCHEM_SHAPE_VOLUME>
202.3

> <PUBCHEM_COORDINATE_TYPE>
2
5
10

$$$$

