15595021
  -OEChem-07051213042D

 90 88  0     0  0  0  0  0  0999 V2000
    7.7222    1.1340    0.0000 O   0  0  0  0  0  0  0  0  0  0  0  0
    7.7222    7.4030    0.0000 O   0  0  0  0  0  0  0  0  0  0  0  0
    8.9542    2.0000    0.0000 O   0  0  0  0  0  0  0  0  0  0  0  0
    8.9542    8.2690    0.0000 O   0  0  0  0  0  0  0  0  0  0  0  0
    8.0882    3.5000    0.0000 O   0  0  0  0  0  0  0  0  0  0  0  0
    8.0882    9.7690    0.0000 O   0  0  0  0  0  0  0  0  0  0  0  0
    5.4902    6.2690    0.0000 O   0  0  0  0  0  0  0  0  0  0  0  0
    5.2222   10.0010    0.0000 O   0  0  0  0  0  0  0  0  0  0  0  0
    5.4902    0.0000    0.0000 O   0  0  0  0  0  0  0  0  0  0  0  0
    5.2222    3.7320    0.0000 O   0  0  0  0  0  0  0  0  0  0  0  0
    7.2222    6.2690    0.0000 O   0  0  0  0  0  0  0  0  0  0  0  0
    5.2222    8.2690    0.0000 O   0  0  0  0  0  0  0  0  0  0  0  0
    7.2222    0.0000    0.0000 O   0  0  0  0  0  0  0  0  0  0  0  0
    5.2222    2.0000    0.0000 O   0  0  0  0  0  0  0  0  0  0  0  0
    1.4766    6.8890    0.0000 N   0  0  0  0  0  0  0  0  0  0  0  0
    1.4766    8.8890    0.0000 N   0  0  0  0  0  0  0  0  0  0  0  0
   12.9678    6.8890    0.0000 N   0  0  0  0  0  0  0  0  0  0  0  0
   12.9678    8.8890    0.0000 N   0  0  0  0  0  0  0  0  0  0  0  0
    7.2222   13.1580    0.0000 N   0  0  0  0  0  0  0  0  0  0  0  0
    7.2222   15.1580    0.0000 N   0  0  0  0  0  0  0  0  0  0  0  0
    0.6106    7.3890    0.0000 C   0  0  0  0  0  0  0  0  0  0  0  0
    2.3426    7.3890    0.0000 C   0  0  0  0  0  0  0  0  0  0  0  0
    2.3426    8.3890    0.0000 C   0  0  0  0  0  0  0  0  0  0  0  0
    0.6106    8.3890    0.0000 C   0  0  0  0  0  0  0  0  0  0  0  0
   12.1018    7.3890    0.0000 C   0  0  0  0  0  0  0  0  0  0  0  0
   13.8338    7.3890    0.0000 C   0  0  0  0  0  0  0  0  0  0  0  0
    6.3562   14.6580    0.0000 C   0  0  0  0  0  0  0  0  0  0  0  0
    8.0882   14.6580    0.0000 C   0  0  0  0  0  0  0  0  0  0  0  0
    6.3562   13.6580    0.0000 C   0  0  0  0  0  0  0  0  0  0  0  0
    8.0882   13.6580    0.0000 C   0  0  0  0  0  0  0  0  0  0  0  0
   13.8338    8.3890    0.0000 C   0  0  0  0  0  0  0  0  0  0  0  0
   12.1018    8.3890    0.0000 C   0  0  0  0  0  0  0  0  0  0  0  0
    7.2222    2.0000    0.0000 C   0  0  0  0  0  0  0  0  0  0  0  0
    7.2222    8.2690    0.0000 C   0  0  0  0  0  0  0  0  0  0  0  0
    6.3562    7.7690    0.0000 C   0  0  0  0  0  0  0  0  0  0  0  0
    6.7222    9.1350    0.0000 C   0  0  0  0  0  0  0  0  0  0  0  0
    6.3562    1.5000    0.0000 C   0  0  0  0  0  0  0  0  0  0  0  0
    6.7222    2.8660    0.0000 C   0  0  0  0  0  0  0  0  0  0  0  0
    8.0882    8.7690    0.0000 C   0  0  0  0  0  0  0  0  0  0  0  0
    8.0882    2.5000    0.0000 C   0  0  0  0  0  0  0  0  0  0  0  0
    6.3562    6.7690    0.0000 C   0  0  0  0  0  0  0  0  0  0  0  0
    5.7222    9.1350    0.0000 C   0  0  0  0  0  0  0  0  0  0  0  0
    6.3562    0.5000    0.0000 C   0  0  0  0  0  0  0  0  0  0  0  0
    5.7222    2.8660    0.0000 C   0  0  0  0  0  0  0  0  0  0  0  0
    2.5547    6.8064    0.0000 H   0  0  0  0  0  0  0  0  0  0  0  0
    2.9532    7.4966    0.0000 H   0  0  0  0  0  0  0  0  0  0  0  0
    0.0000    7.4966    0.0000 H   0  0  0  0  0  0  0  0  0  0  0  0
    0.3985    6.8064    0.0000 H   0  0  0  0  0  0  0  0  0  0  0  0
    2.9532    8.2813    0.0000 H   0  0  0  0  0  0  0  0  0  0  0  0
    2.5547    8.9716    0.0000 H   0  0  0  0  0  0  0  0  0  0  0  0
    0.3985    8.9716    0.0000 H   0  0  0  0  0  0  0  0  0  0  0  0
    0.0000    8.2813    0.0000 H   0  0  0  0  0  0  0  0  0  0  0  0
   11.4912    7.4966    0.0000 H   0  0  0  0  0  0  0  0  0  0  0  0
   11.8897    6.8064    0.0000 H   0  0  0  0  0  0  0  0  0  0  0  0
   14.0459    6.8064    0.0000 H   0  0  0  0  0  0  0  0  0  0  0  0
   14.4444    7.4966    0.0000 H   0  0  0  0  0  0  0  0  0  0  0  0
   11.8897    8.9716    0.0000 H   0  0  0  0  0  0  0  0  0  0  0  0
   11.4912    8.2813    0.0000 H   0  0  0  0  0  0  0  0  0  0  0  0
   14.4444    8.2813    0.0000 H   0  0  0  0  0  0  0  0  0  0  0  0
   14.0459    8.9716    0.0000 H   0  0  0  0  0  0  0  0  0  0  0  0
    8.3003   13.0754    0.0000 H   0  0  0  0  0  0  0  0  0  0  0  0
    8.6988   13.7656    0.0000 H   0  0  0  0  0  0  0  0  0  0  0  0
    5.7456   13.7656    0.0000 H   0  0  0  0  0  0  0  0  0  0  0  0
    6.1441   13.0754    0.0000 H   0  0  0  0  0  0  0  0  0  0  0  0
    8.6988   14.5503    0.0000 H   0  0  0  0  0  0  0  0  0  0  0  0
    8.3003   15.2406    0.0000 H   0  0  0  0  0  0  0  0  0  0  0  0
    6.1441   15.2406    0.0000 H   0  0  0  0  0  0  0  0  0  0  0  0
    5.7456   14.5503    0.0000 H   0  0  0  0  0  0  0  0  0  0  0  0
    1.4766    6.2690    0.0000 H   0  0  0  0  0  0  0  0  0  0  0  0
    1.4766    9.5090    0.0000 H   0  0  0  0  0  0  0  0  0  0  0  0
   12.9678    6.2690    0.0000 H   0  0  0  0  0  0  0  0  0  0  0  0
   12.9678    9.5090    0.0000 H   0  0  0  0  0  0  0  0  0  0  0  0
    7.2222   12.5380    0.0000 H   0  0  0  0  0  0  0  0  0  0  0  0
    7.2222   15.7780    0.0000 H   0  0  0  0  0  0  0  0  0  0  0  0
    6.1441    8.3516    0.0000 H   0  0  0  0  0  0  0  0  0  0  0  0
    5.7456    7.6613    0.0000 H   0  0  0  0  0  0  0  0  0  0  0  0
    7.3048    9.3471    0.0000 H   0  0  0  0  0  0  0  0  0  0  0  0
    6.6145    9.7456    0.0000 H   0  0  0  0  0  0  0  0  0  0  0  0
    6.1441    2.0826    0.0000 H   0  0  0  0  0  0  0  0  0  0  0  0
    5.7456    1.3923    0.0000 H   0  0  0  0  0  0  0  0  0  0  0  0
    7.3048    3.0781    0.0000 H   0  0  0  0  0  0  0  0  0  0  0  0
    6.6145    3.4766    0.0000 H   0  0  0  0  0  0  0  0  0  0  0  0
    7.4122    6.8660    0.0000 H   0  0  0  0  0  0  0  0  0  0  0  0
    7.4122    0.5970    0.0000 H   0  0  0  0  0  0  0  0  0  0  0  0
    9.4912    2.3100    0.0000 H   0  0  0  0  0  0  0  0  0  0  0  0
    9.4912    8.5790    0.0000 H   0  0  0  0  0  0  0  0  0  0  0  0
    5.5322    4.2690    0.0000 H   0  0  0  0  0  0  0  0  0  0  0  0
    4.9532    0.3100    0.0000 H   0  0  0  0  0  0  0  0  0  0  0  0
    5.5322   10.5380    0.0000 H   0  0  0  0  0  0  0  0  0  0  0  0
    4.9532    6.5790    0.0000 H   0  0  0  0  0  0  0  0  0  0  0  0
  1 33  1  0  0  0  0
  1 84  1  0  0  0  0
  2 34  1  0  0  0  0
  2 83  1  0  0  0  0
  3 40  1  0  0  0  0
  3 85  1  0  0  0  0
  4 39  1  0  0  0  0
  4 86  1  0  0  0  0
  5 40  2  0  0  0  0
  6 39  2  0  0  0  0
  7 41  1  0  0  0  0
  7 90  1  0  0  0  0
  8 42  1  0  0  0  0
  8 89  1  0  0  0  0
  9 43  1  0  0  0  0
  9 88  1  0  0  0  0
 10 44  1  0  0  0  0
 10 87  1  0  0  0  0
 11 41  2  0  0  0  0
 12 42  2  0  0  0  0
 13 43  2  0  0  0  0
 14 44  2  0  0  0  0
 15 21  1  0  0  0  0
 15 22  1  0  0  0  0
 15 69  1  0  0  0  0
 16 23  1  0  0  0  0
 16 24  1  0  0  0  0
 16 70  1  0  0  0  0
 17 25  1  0  0  0  0
 17 26  1  0  0  0  0
 17 71  1  0  0  0  0
 18 31  1  0  0  0  0
 18 32  1  0  0  0  0
 18 72  1  0  0  0  0
 19 29  1  0  0  0  0
 19 30  1  0  0  0  0
 19 73  1  0  0  0  0
 20 27  1  0  0  0  0
 20 28  1  0  0  0  0
 20 74  1  0  0  0  0
 21 24  1  0  0  0  0
 21 47  1  0  0  0  0
 21 48  1  0  0  0  0
 22 23  1  0  0  0  0
 22 45  1  0  0  0  0
 22 46  1  0  0  0  0
 23 49  1  0  0  0  0
 23 50  1  0  0  0  0
 24 51  1  0  0  0  0
 24 52  1  0  0  0  0
 25 32  1  0  0  0  0
 25 53  1  0  0  0  0
 25 54  1  0  0  0  0
 26 31  1  0  0  0  0
 26 55  1  0  0  0  0
 26 56  1  0  0  0  0
 27 29  1  0  0  0  0
 27 67  1  0  0  0  0
 27 68  1  0  0  0  0
 28 30  1  0  0  0  0
 28 65  1  0  0  0  0
 28 66  1  0  0  0  0
 29 63  1  0  0  0  0
 29 64  1  0  0  0  0
 30 61  1  0  0  0  0
 30 62  1  0  0  0  0
 31 59  1  0  0  0  0
 31 60  1  0  0  0  0
 32 57  1  0  0  0  0
 32 58  1  0  0  0  0
 33 37  1  0  0  0  0
 33 38  1  0  0  0  0
 33 40  1  0  0  0  0
 34 35  1  0  0  0  0
 34 36  1  0  0  0  0
 34 39  1  0  0  0  0
 35 41  1  0  0  0  0
 35 75  1  0  0  0  0
 35 76  1  0  0  0  0
 36 42  1  0  0  0  0
 36 77  1  0  0  0  0
 36 78  1  0  0  0  0
 37 43  1  0  0  0  0
 37 79  1  0  0  0  0
 37 80  1  0  0  0  0
 38 44  1  0  0  0  0
 38 81  1  0  0  0  0
 38 82  1  0  0  0  0
M  END
> <PUBCHEM_COMPOUND_CID>
15595021

> <PUBCHEM_COMPOUND_CANONICALIZED>
1

> <PUBCHEM_CACTVS_COMPLEXITY>
254

> <PUBCHEM_CACTVS_HBOND_ACCEPTOR>
20

> <PUBCHEM_CACTVS_HBOND_DONOR>
14

> <PUBCHEM_CACTVS_ROTATABLE_BOND>
10

> <PUBCHEM_CACTVS_SUBSKEYS>
AAADcfB7vAAAAAAAAAAAAAAAAAAAAAAAAAAsWLAAAAAAAAAAAAAAHgAQCAAADETBgAQACALAAgAIAACQCAIAAAAAAAAAAIFIAAABQBYAAAAQQAAFMACBAADLJgAKAAAAAAAAAAAAAAAAAAAAAAAAAAAAAA==

> <PUBCHEM_IUPAC_OPENEYE_NAME>
citric acid; piperazine

> <PUBCHEM_IUPAC_CAS_NAME>
2-hydroxypropane-1,2,3-tricarboxylic acid; piperazine

> <PUBCHEM_IUPAC_NAME>
2-hydroxypropane-1,2,3-tricarboxylic acid; piperazine

> <PUBCHEM_IUPAC_SYSTEMATIC_NAME>
2-oxidanylpropane-1,2,3-tricarboxylic acid; piperazine

> <PUBCHEM_IUPAC_TRADITIONAL_NAME>
citric acid; piperazine

> <PUBCHEM_IUPAC_INCHI>
InChI=1S/2C6H8O7.3C4H10N2/c2*7-3(8)1-6(13,5(11)12)2-4(9)10;3*1-2-6-4-3-5-1/h2*13H,1-2H2,(H,7,8)(H,9,10)(H,11,12);3*5-6H,1-4H2

> <PUBCHEM_IUPAC_INCHIKEY>
JDDHUROHDHPVIO-UHFFFAOYSA-N

> <PUBCHEM_EXACT_MASS>
642.3072

> <PUBCHEM_MOLECULAR_FORMULA>
C24H46N6O14

> <PUBCHEM_MOLECULAR_WEIGHT>
642.65384

> <PUBCHEM_OPENEYE_CAN_SMILES>
C1CNCCN1.C1CNCCN1.C1CNCCN1.C(C(=O)O)C(CC(=O)O)(C(=O)O)O.C(C(=O)O)C(CC(=O)O)(C(=O)O)O

> <PUBCHEM_OPENEYE_ISO_SMILES>
C1CNCCN1.C1CNCCN1.C1CNCCN1.C(C(=O)O)C(CC(=O)O)(C(=O)O)O.C(C(=O)O)C(CC(=O)O)(C(=O)O)O

> <PUBCHEM_CACTVS_TPSA>
336

> <PUBCHEM_MONOISOTOPIC_WEIGHT>
642.3072

> <PUBCHEM_TOTAL_CHARGE>
0

> <PUBCHEM_HEAVY_ATOM_COUNT>
44

> <PUBCHEM_ATOM_DEF_STEREO_COUNT>
0

> <PUBCHEM_ATOM_UDEF_STEREO_COUNT>
0

> <PUBCHEM_BOND_DEF_STEREO_COUNT>
0

> <PUBCHEM_BOND_UDEF_STEREO_COUNT>
0

> <PUBCHEM_ISOTOPIC_ATOM_COUNT>
0

> <PUBCHEM_COMPONENT_COUNT>
5

> <PUBCHEM_CACTVS_TAUTO_COUNT>
1

> <PUBCHEM_COORDINATE_TYPE>
1
5
255

$$$$

