229407
  -OEChem-07051213073D

 55 58  0     1  0  0  0  0  0999 V2000
    5.0616   -0.8188   -0.0031 O   0  0  0  0  0  0  0  0  0  0  0  0
    0.3279   -2.2418   -1.1611 O   0  0  0  0  0  0  0  0  0  0  0  0
   -5.8099    0.1925    1.1193 O   0  0  0  0  0  0  0  0  0  0  0  0
    1.8262    0.8747    0.1615 C   0  0  1  0  0  0  0  0  0  0  0  0
    0.4066    0.8499   -0.4287 C   0  0  1  0  0  0  0  0  0  0  0  0
    2.6178   -0.4262   -0.0819 C   0  0  1  0  0  0  0  0  0  0  0  0
   -0.3873   -0.3309    0.2239 C   0  0  1  0  0  0  0  0  0  0  0  0
   -1.8987   -0.3577   -0.2422 C   0  0  2  0  0  0  0  0  0  0  0  0
    3.9988   -0.0388    0.5414 C   0  0  2  0  0  0  0  0  0  0  0  0
    0.3792   -1.6864    0.1443 C   0  0  2  0  0  0  0  0  0  0  0  0
    1.8516   -1.5773    0.6022 C   0  0  0  0  0  0  0  0  0  0  0  0
   -2.5138    1.0395    0.1053 C   0  0  1  0  0  0  0  0  0  0  0  0
    2.7899    1.9664   -0.2926 C   0  0  0  0  0  0  0  0  0  0  0  0
   -0.2951    2.1977   -0.1909 C   0  0  0  0  0  0  0  0  0  0  0  0
    4.1818    1.4409    0.1067 C   0  0  0  0  0  0  0  0  0  0  0  0
   -1.7668    2.1831   -0.5882 C   0  0  0  0  0  0  0  0  0  0  0  0
   -2.6889   -1.4234    0.5699 C   0  0  0  0  0  0  0  0  0  0  0  0
    2.8225   -0.7504   -1.5906 C   0  0  0  0  0  0  0  0  0  0  0  0
   -2.0423   -0.6753   -1.7518 C   0  0  0  0  0  0  0  0  0  0  0  0
   -4.0194    1.1325   -0.1633 C   0  0  0  0  0  0  0  0  0  0  0  0
    4.1045   -0.1632    2.0666 C   0  0  0  0  0  0  0  0  0  0  0  0
   -4.1958   -1.3889    0.3308 C   0  0  0  0  0  0  0  0  0  0  0  0
   -4.7505    0.0019    0.5225 C   0  0  0  0  0  0  0  0  0  0  0  0
    1.6995    1.0124    1.2465 H   0  0  0  0  0  0  0  0  0  0  0  0
    0.4662    0.7016   -1.5111 H   0  0  0  0  0  0  0  0  0  0  0  0
   -0.4153   -0.1015    1.3021 H   0  0  0  0  0  0  0  0  0  0  0  0
   -0.1135   -2.4075    0.8065 H   0  0  0  0  0  0  0  0  0  0  0  0
    1.8357   -1.4241    1.6876 H   0  0  0  0  0  0  0  0  0  0  0  0
    2.3746   -2.5244    0.4220 H   0  0  0  0  0  0  0  0  0  0  0  0
   -2.3900    1.1868    1.1900 H   0  0  0  0  0  0  0  0  0  0  0  0
    2.5780    2.9267    0.1887 H   0  0  0  0  0  0  0  0  0  0  0  0
    2.7375    2.1215   -1.3761 H   0  0  0  0  0  0  0  0  0  0  0  0
    0.2133    2.9891   -0.7542 H   0  0  0  0  0  0  0  0  0  0  0  0
   -0.2194    2.4712    0.8697 H   0  0  0  0  0  0  0  0  0  0  0  0
    4.8751    1.5352   -0.7374 H   0  0  0  0  0  0  0  0  0  0  0  0
    4.5944    2.0504    0.9190 H   0  0  0  0  0  0  0  0  0  0  0  0
   -2.2148    3.1445   -0.3081 H   0  0  0  0  0  0  0  0  0  0  0  0
   -1.8591    2.1050   -1.6776 H   0  0  0  0  0  0  0  0  0  0  0  0
   -2.5040   -1.2680    1.6414 H   0  0  0  0  0  0  0  0  0  0  0  0
   -2.3299   -2.4320    0.3343 H   0  0  0  0  0  0  0  0  0  0  0  0
    3.4892   -0.0356   -2.0847 H   0  0  0  0  0  0  0  0  0  0  0  0
    3.2725   -1.7425   -1.7133 H   0  0  0  0  0  0  0  0  0  0  0  0
    1.8949   -0.7432   -2.1653 H   0  0  0  0  0  0  0  0  0  0  0  0
   -1.3624   -0.0868   -2.3725 H   0  0  0  0  0  0  0  0  0  0  0  0
   -1.8521   -1.7321   -1.9609 H   0  0  0  0  0  0  0  0  0  0  0  0
   -3.0518   -0.4801   -2.1241 H   0  0  0  0  0  0  0  0  0  0  0  0
   -4.2570    1.1071   -1.2310 H   0  0  0  0  0  0  0  0  0  0  0  0
   -4.4055    2.0787    0.2346 H   0  0  0  0  0  0  0  0  0  0  0  0
    5.0890    0.1782    2.4088 H   0  0  0  0  0  0  0  0  0  0  0  0
    3.3454    0.4195    2.5954 H   0  0  0  0  0  0  0  0  0  0  0  0
    4.0281   -1.2094    2.3828 H   0  0  0  0  0  0  0  0  0  0  0  0
   -4.6903   -2.0650    1.0370 H   0  0  0  0  0  0  0  0  0  0  0  0
   -4.4488   -1.7237   -0.6802 H   0  0  0  0  0  0  0  0  0  0  0  0
    4.8884   -1.7497    0.2190 H   0  0  0  0  0  0  0  0  0  0  0  0
    0.7778   -3.1033   -1.1355 H   0  0  0  0  0  0  0  0  0  0  0  0
  1  9  1  0  0  0  0
  1 54  1  0  0  0  0
  2 10  1  0  0  0  0
  2 55  1  0  0  0  0
  3 23  2  0  0  0  0
  4  5  1  0  0  0  0
  4  6  1  0  0  0  0
  4 13  1  0  0  0  0
  4 24  1  0  0  0  0
  5  7  1  0  0  0  0
  5 14  1  0  0  0  0
  5 25  1  0  0  0  0
  6  9  1  0  0  0  0
  6 11  1  0  0  0  0
  6 18  1  0  0  0  0
  7  8  1  0  0  0  0
  7 10  1  0  0  0  0
  7 26  1  0  0  0  0
  8 12  1  0  0  0  0
  8 17  1  0  0  0  0
  8 19  1  0  0  0  0
  9 15  1  0  0  0  0
  9 21  1  0  0  0  0
 10 11  1  0  0  0  0
 10 27  1  0  0  0  0
 11 28  1  0  0  0  0
 11 29  1  0  0  0  0
 12 16  1  0  0  0  0
 12 20  1  0  0  0  0
 12 30  1  0  0  0  0
 13 15  1  0  0  0  0
 13 31  1  0  0  0  0
 13 32  1  0  0  0  0
 14 16  1  0  0  0  0
 14 33  1  0  0  0  0
 14 34  1  0  0  0  0
 15 35  1  0  0  0  0
 15 36  1  0  0  0  0
 16 37  1  0  0  0  0
 16 38  1  0  0  0  0
 17 22  1  0  0  0  0
 17 39  1  0  0  0  0
 17 40  1  0  0  0  0
 18 41  1  0  0  0  0
 18 42  1  0  0  0  0
 18 43  1  0  0  0  0
 19 44  1  0  0  0  0
 19 45  1  0  0  0  0
 19 46  1  0  0  0  0
 20 23  1  0  0  0  0
 20 47  1  0  0  0  0
 20 48  1  0  0  0  0
 21 49  1  0  0  0  0
 21 50  1  0  0  0  0
 21 51  1  0  0  0  0
 22 23  1  0  0  0  0
 22 52  1  0  0  0  0
 22 53  1  0  0  0  0
M  END
> <PUBCHEM_COMPOUND_CID>
229407

> <PUBCHEM_CONFORMER_RMSD>
0.6

> <PUBCHEM_CONFORMER_DIVERSEORDER>
1

> <PUBCHEM_MMFF94_PARTIAL_CHARGES>
10
1 -0.68
10 0.28
2 -0.68
20 0.06
22 0.06
23 0.45
3 -0.57
54 0.4
55 0.4
9 0.28

> <PUBCHEM_EFFECTIVE_ROTOR_COUNT>
2

> <PUBCHEM_PHARMACOPHORE_FEATURES>
9
1 1 acceptor
1 1 donor
1 2 acceptor
1 2 donor
1 3 acceptor
5 4 6 9 13 15 rings
6 4 5 6 7 10 11 rings
6 5 7 8 12 14 16 rings
6 8 12 17 20 22 23 rings

> <PUBCHEM_HEAVY_ATOM_COUNT>
23

> <PUBCHEM_ATOM_DEF_STEREO_COUNT>
8

> <PUBCHEM_ATOM_UDEF_STEREO_COUNT>
0

> <PUBCHEM_BOND_DEF_STEREO_COUNT>
0

> <PUBCHEM_BOND_UDEF_STEREO_COUNT>
0

> <PUBCHEM_ISOTOPIC_ATOM_COUNT>
0

> <PUBCHEM_COMPONENT_COUNT>
1

> <PUBCHEM_CACTVS_TAUTO_COUNT>
3

> <PUBCHEM_CONFORMER_ID>
0003801F00000001

> <PUBCHEM_MMFF94_ENERGY>
92.6376

> <PUBCHEM_FEATURE_SELFOVERLAP>
45.755

> <PUBCHEM_SHAPE_FINGERPRINT>
10062212 137 18339649940710684303
10967382 1 18411982472431553604
11132069 177 18408324393251623449
12236239 1 17967532359530683643
12403259 415 18260838111442443544
12403814 3 18335146384238643829
12553582 1 18341339945584913037
12592029 89 18341613749876686018
12633257 1 18272927203071617307
12788726 201 18188195563980709432
128620 24 17967814950650252097
13140716 1 18267868289420223771
13214271 11 18410296913107134255
13224815 77 18412548699460943477
13533116 47 17346324829234237474
13583140 156 17274004404867646358
13675066 3 18186523193703322066
13862211 1 18342179951468425123
14178342 30 18194688300517446144
14223421 5 18269273632995333477
14341114 176 18273212006341877552
14341114 328 18343581828540502283
14787075 74 18271524200216682353
14790565 3 18195798574959141653
15196674 1 18412544284250465377
15375358 24 18411138056608359911
15536298 74 18334008402040177797
15788980 27 15841556266934498483
1601671 61 18335134284772555937
16945 1 18271814561554568302
17349148 13 17918278653241914090
17980427 23 17970370134802593556
1813 80 17132108048600035933
18186145 218 18060427897758835412
19141452 34 18113616764231403167
19591789 44 18339362963564336887
19784866 170 18409444808659536211
200 152 18335428937331215127
20028762 73 18189617146895834575
20261772 1 18334861597372727350
20715895 44 17698740416993126565
21033648 29 17604728762075616880
21267235 1 18341885311936826387
21421861 104 17916028038929029907
22182313 1 18190743222357194452
23184049 59 18409165480834047373
23227448 37 18336265656979391279
23402539 116 18335991886657129351
23557571 272 18336822095277095004
23559900 14 18265895950460248374
2748010 2 18409453613110475732
2838139 119 15431430862532487921
296302 2 14851608756293863593
335352 9 18412825815045745125
34934 24 18412269462800367557
350125 39 18412260632258501372
3680242 22 18272087248732870865
4072396 5 18341339954443762667
4340502 62 15864066559757519751
465052 167 18131344206921466818
5104073 3 18341049619002385537
5374978 207 18272088292330854016
633830 44 18411140208202554062
7064713 232 18113618971680803035
7097593 13 17412762961066200706
9709674 26 18410853304202493319

> <PUBCHEM_SHAPE_MULTIPOLES>
455.72
9.8
2.15
1.23
3.15
0.44
0.07
-0.05
-3.16
0.02
0.27
-0.49
-0.34
0.09

> <PUBCHEM_SHAPE_SELFOVERLAP>
970.921

> <PUBCHEM_SHAPE_VOLUME>
250.7

> <PUBCHEM_COORDINATE_TYPE>
2
5
10

$$$$

