24892793
  -OEChem-07051213082D

 74 73  0     1  0  0  0  0  0999 V2000
    7.7331   -1.3450    0.0000 S   0  0  0  0  0  0  0  0  0  0  0  0
    6.8671   -0.8450    0.0000 O   0  0  0  0  0  0  0  0  0  0  0  0
    9.4651    1.6550    0.0000 O   0  0  0  0  0  0  0  0  0  0  0  0
   12.0632   -0.8450    0.0000 O   0  0  0  0  0  0  0  0  0  0  0  0
    2.5369    0.6550    0.0000 O   0  0  0  0  0  0  0  0  0  0  0  0
    3.4030   -0.8450    0.0000 O   0  0  0  0  0  0  0  0  0  0  0  0
   16.3933    0.6550    0.0000 N   0  0  0  0  0  0  0  0  0  0  0  0
   20.7235    0.1550    0.0000 N   0  0  0  0  0  0  0  0  0  0  0  0
   12.9292    0.6550    0.0000 N   0  0  0  0  0  0  0  0  0  0  0  0
    7.7331    0.6550    0.0000 N   0  0  0  0  0  0  0  0  0  0  0  0
   10.3312    0.1550    0.0000 N   0  0  0  0  0  0  0  0  0  0  0  0
    4.2690    1.6550    0.0000 N   0  0  0  0  0  0  0  0  0  0  0  0
   24.1876    0.1550    0.0000 N   0  0  0  0  0  0  0  0  0  0  0  0
   18.1254    0.6550    0.0000 C   0  0  0  0  0  0  0  0  0  0  0  0
   18.9914    0.1550    0.0000 C   0  0  0  0  0  0  0  0  0  0  0  0
   17.2594    0.1550    0.0000 C   0  0  0  0  0  0  0  0  0  0  0  0
   19.8574    0.6550    0.0000 C   0  0  0  0  0  0  0  0  0  0  0  0
   15.5273    0.1550    0.0000 C   0  0  0  0  0  0  0  0  0  0  0  0
   14.6613    0.6550    0.0000 C   0  0  0  0  0  0  0  0  0  0  0  0
   21.5895    0.6550    0.0000 C   0  0  0  0  0  0  0  0  0  0  0  0
   13.7953    0.1550    0.0000 C   0  0  0  0  0  0  0  0  0  0  0  0
   22.4555    0.1550    0.0000 C   0  0  0  0  0  0  0  0  0  0  0  0
    8.5991    0.1550    0.0000 C   0  0  2  0  0  0  0  0  0  0  0  0
    5.1350    0.1550    0.0000 C   0  0  0  0  0  0  0  0  0  0  0  0
    6.0010    0.6550    0.0000 C   0  0  0  0  0  0  0  0  0  0  0  0
    4.2690    0.6550    0.0000 C   0  0  1  0  0  0  0  0  0  0  0  0
   23.3215    0.6550    0.0000 C   0  0  0  0  0  0  0  0  0  0  0  0
    6.8671    0.1550    0.0000 C   0  0  0  0  0  0  0  0  0  0  0  0
    9.4651    0.6550    0.0000 C   0  0  0  0  0  0  0  0  0  0  0  0
   11.1972    0.6550    0.0000 C   0  0  0  0  0  0  0  0  0  0  0  0
    8.5991   -0.8450    0.0000 C   0  0  0  0  0  0  0  0  0  0  0  0
   12.0632    0.1550    0.0000 C   0  0  0  0  0  0  0  0  0  0  0  0
    3.4030    0.1550    0.0000 C   0  0  0  0  0  0  0  0  0  0  0  0
   18.5239    1.1300    0.0000 H   0  0  0  0  0  0  0  0  0  0  0  0
   17.7269    1.1300    0.0000 H   0  0  0  0  0  0  0  0  0  0  0  0
   18.5929   -0.3199    0.0000 H   0  0  0  0  0  0  0  0  0  0  0  0
   19.3899   -0.3199    0.0000 H   0  0  0  0  0  0  0  0  0  0  0  0
   16.8608   -0.3199    0.0000 H   0  0  0  0  0  0  0  0  0  0  0  0
   17.6579   -0.3199    0.0000 H   0  0  0  0  0  0  0  0  0  0  0  0
   20.2560    1.1300    0.0000 H   0  0  0  0  0  0  0  0  0  0  0  0
   19.4589    1.1300    0.0000 H   0  0  0  0  0  0  0  0  0  0  0  0
   15.1288   -0.3199    0.0000 H   0  0  0  0  0  0  0  0  0  0  0  0
   15.9258   -0.3199    0.0000 H   0  0  0  0  0  0  0  0  0  0  0  0
   16.3933    1.2750    0.0000 H   0  0  0  0  0  0  0  0  0  0  0  0
   15.0598    1.1300    0.0000 H   0  0  0  0  0  0  0  0  0  0  0  0
   14.2628    1.1300    0.0000 H   0  0  0  0  0  0  0  0  0  0  0  0
   20.7235   -0.4650    0.0000 H   0  0  0  0  0  0  0  0  0  0  0  0
   21.9880    1.1300    0.0000 H   0  0  0  0  0  0  0  0  0  0  0  0
   21.1910    1.1300    0.0000 H   0  0  0  0  0  0  0  0  0  0  0  0
   13.3967   -0.3199    0.0000 H   0  0  0  0  0  0  0  0  0  0  0  0
   14.1938   -0.3199    0.0000 H   0  0  0  0  0  0  0  0  0  0  0  0
   22.0570   -0.3199    0.0000 H   0  0  0  0  0  0  0  0  0  0  0  0
   22.8540   -0.3199    0.0000 H   0  0  0  0  0  0  0  0  0  0  0  0
    8.5991    0.7750    0.0000 H   0  0  0  0  0  0  0  0  0  0  0  0
    4.7365   -0.3199    0.0000 H   0  0  0  0  0  0  0  0  0  0  0  0
    5.5335   -0.3199    0.0000 H   0  0  0  0  0  0  0  0  0  0  0  0
    6.3996    1.1300    0.0000 H   0  0  0  0  0  0  0  0  0  0  0  0
    5.6025    1.1300    0.0000 H   0  0  0  0  0  0  0  0  0  0  0  0
   12.9292    1.2750    0.0000 H   0  0  0  0  0  0  0  0  0  0  0  0
    4.8059    0.9650    0.0000 H   0  0  0  0  0  0  0  0  0  0  0  0
   23.7201    1.1300    0.0000 H   0  0  0  0  0  0  0  0  0  0  0  0
   22.9230    1.1300    0.0000 H   0  0  0  0  0  0  0  0  0  0  0  0
    7.7331    1.2750    0.0000 H   0  0  0  0  0  0  0  0  0  0  0  0
   11.5957    1.1300    0.0000 H   0  0  0  0  0  0  0  0  0  0  0  0
   10.7987    1.1300    0.0000 H   0  0  0  0  0  0  0  0  0  0  0  0
    8.8112   -1.4276    0.0000 H   0  0  0  0  0  0  0  0  0  0  0  0
    9.2097   -0.7373    0.0000 H   0  0  0  0  0  0  0  0  0  0  0  0
   10.3312   -0.4650    0.0000 H   0  0  0  0  0  0  0  0  0  0  0  0
    3.7320    1.9650    0.0000 H   0  0  0  0  0  0  0  0  0  0  0  0
    4.8059    1.9650    0.0000 H   0  0  0  0  0  0  0  0  0  0  0  0
   24.7245    0.4650    0.0000 H   0  0  0  0  0  0  0  0  0  0  0  0
   24.1876   -0.4650    0.0000 H   0  0  0  0  0  0  0  0  0  0  0  0
    7.7331   -1.9650    0.0000 H   0  0  0  0  0  0  0  0  0  0  0  0
    2.0000    0.3450    0.0000 H   0  0  0  0  0  0  0  0  0  0  0  0
  1 31  1  0  0  0  0
  1 73  1  0  0  0  0
  2 28  2  0  0  0  0
  3 29  2  0  0  0  0
  4 32  2  0  0  0  0
  5 33  1  0  0  0  0
  5 74  1  0  0  0  0
  6 33  2  0  0  0  0
  7 16  1  0  0  0  0
  7 18  1  0  0  0  0
  7 44  1  0  0  0  0
  8 17  1  0  0  0  0
  8 20  1  0  0  0  0
  8 47  1  0  0  0  0
  9 21  1  0  0  0  0
  9 32  1  0  0  0  0
  9 59  1  0  0  0  0
 23 10  1  6  0  0  0
 10 28  1  0  0  0  0
 10 63  1  0  0  0  0
 11 29  1  0  0  0  0
 11 30  1  0  0  0  0
 11 68  1  0  0  0  0
 26 12  1  1  0  0  0
 12 69  1  0  0  0  0
 12 70  1  0  0  0  0
 13 27  1  0  0  0  0
 13 71  1  0  0  0  0
 13 72  1  0  0  0  0
 14 15  1  0  0  0  0
 14 16  1  0  0  0  0
 14 34  1  0  0  0  0
 14 35  1  0  0  0  0
 15 17  1  0  0  0  0
 15 36  1  0  0  0  0
 15 37  1  0  0  0  0
 16 38  1  0  0  0  0
 16 39  1  0  0  0  0
 17 40  1  0  0  0  0
 17 41  1  0  0  0  0
 18 19  1  0  0  0  0
 18 42  1  0  0  0  0
 18 43  1  0  0  0  0
 19 21  1  0  0  0  0
 19 45  1  0  0  0  0
 19 46  1  0  0  0  0
 20 22  1  0  0  0  0
 20 48  1  0  0  0  0
 20 49  1  0  0  0  0
 21 50  1  0  0  0  0
 21 51  1  0  0  0  0
 22 27  1  0  0  0  0
 22 52  1  0  0  0  0
 22 53  1  0  0  0  0
 23 29  1  0  0  0  0
 23 31  1  0  0  0  0
 23 54  1  0  0  0  0
 24 25  1  0  0  0  0
 24 26  1  0  0  0  0
 24 55  1  0  0  0  0
 24 56  1  0  0  0  0
 25 28  1  0  0  0  0
 25 57  1  0  0  0  0
 25 58  1  0  0  0  0
 26 33  1  0  0  0  0
 26 60  1  0  0  0  0
 27 61  1  0  0  0  0
 27 62  1  0  0  0  0
 30 32  1  0  0  0  0
 30 64  1  0  0  0  0
 30 65  1  0  0  0  0
 31 66  1  0  0  0  0
 31 67  1  0  0  0  0
M  END
> <PUBCHEM_COMPOUND_CID>
24892793

> <PUBCHEM_COMPOUND_CANONICALIZED>
1

> <PUBCHEM_CACTVS_COMPLEXITY>
583

> <PUBCHEM_CACTVS_HBOND_ACCEPTOR>
10

> <PUBCHEM_CACTVS_HBOND_DONOR>
9

> <PUBCHEM_CACTVS_ROTATABLE_BOND>
21

> <PUBCHEM_CACTVS_SUBSKEYS>
AAADcfB7uABAAAAAAAAAAAAAAAAAAAAAAAAAAAAAAAAAAAAAAAAAHgQQCAAACCjFwASACALAAgQIAAGQGAAAAAAAAAAAAIGIAAACQBIAwCAUQAAEFgCAAACcFwIAAAAAAAAAAAAAAAAAAAAAAAAAAAAAAA==

> <PUBCHEM_IUPAC_OPENEYE_NAME>
(2S)-2-amino-5-[[(1R)-2-[[2-[3-[4-(3-aminopropylamino)butylamino]propylamino]-2-oxo-ethyl]amino]-2-oxo-1-(sulfanylmethyl)ethyl]amino]-5-oxo-pentanoic acid

> <PUBCHEM_IUPAC_CAS_NAME>
(2S)-2-amino-5-[[(2R)-1-[[2-[3-[4-(3-aminopropylamino)butylamino]propylamino]-2-oxoethyl]amino]-3-mercapto-1-oxopropan-2-yl]amino]-5-oxopentanoic acid

> <PUBCHEM_IUPAC_NAME>
(2S)-2-amino-5-[[(2R)-1-[[2-[3-[4-(3-aminopropylamino)butylamino]propylamino]-2-oxoethyl]amino]-1-oxo-3-sulfanylpropan-2-yl]amino]-5-oxopentanoic acid

> <PUBCHEM_IUPAC_SYSTEMATIC_NAME>
(2S)-2-azanyl-5-[[(2R)-1-[[2-[3-[4-(3-azanylpropylamino)butylamino]propylamino]-2-oxidanylidene-ethyl]amino]-1-oxidanylidene-3-sulfanyl-propan-2-yl]amino]-5-oxidanylidene-pentanoic acid

> <PUBCHEM_IUPAC_TRADITIONAL_NAME>
(2S)-2-amino-5-[[(1R)-2-[[2-[3-[4-(3-aminopropylamino)butylamino]propylamino]-2-keto-ethyl]amino]-2-keto-1-(mercaptomethyl)ethyl]amino]-5-keto-valeric acid

> <PUBCHEM_IUPAC_INCHI>
InChI=1S/C20H41N7O5S/c21-7-3-10-23-8-1-2-9-24-11-4-12-25-18(29)13-26-19(30)16(14-33)27-17(28)6-5-15(22)20(31)32/h15-16,23-24,33H,1-14,21-22H2,(H,25,29)(H,26,30)(H,27,28)(H,31,32)/t15-,16-/m0/s1

> <PUBCHEM_IUPAC_INCHIKEY>
JMWFFJATYDQZCI-HOTGVXAUSA-N

> <PUBCHEM_XLOGP3_AA>
-5.1

> <PUBCHEM_EXACT_MASS>
491.288988

> <PUBCHEM_MOLECULAR_FORMULA>
C20H41N7O5S

> <PUBCHEM_MOLECULAR_WEIGHT>
491.64844

> <PUBCHEM_OPENEYE_CAN_SMILES>
C(CCNCCCNC(=O)CNC(=O)C(CS)NC(=O)CCC(C(=O)O)N)CNCCCN

> <PUBCHEM_OPENEYE_ISO_SMILES>
C(CCNCCCNC(=O)CNC(=O)[C@H](CS)NC(=O)CC[C@@H](C(=O)O)N)CNCCCN

> <PUBCHEM_CACTVS_TPSA>
202

> <PUBCHEM_MONOISOTOPIC_WEIGHT>
491.288988

> <PUBCHEM_TOTAL_CHARGE>
0

> <PUBCHEM_HEAVY_ATOM_COUNT>
33

> <PUBCHEM_ATOM_DEF_STEREO_COUNT>
2

> <PUBCHEM_ATOM_UDEF_STEREO_COUNT>
0

> <PUBCHEM_BOND_DEF_STEREO_COUNT>
0

> <PUBCHEM_BOND_UDEF_STEREO_COUNT>
0

> <PUBCHEM_ISOTOPIC_ATOM_COUNT>
0

> <PUBCHEM_COMPONENT_COUNT>
1

> <PUBCHEM_CACTVS_TAUTO_COUNT>
8

> <PUBCHEM_COORDINATE_TYPE>
1
5
255

> <PUBCHEM_BONDANNOTATIONS>
23  10  6
26  12  5

$$$$

