14001
  -OEChem-06241222412D

 64 68  0     1  0  0  0  0  0999 V2000
    9.7788   -1.6582    0.0000 O   0  0  0  0  0  0  0  0  0  0  0  0
   10.0878    0.9109    0.0000 N   0  0  3  0  0  0  0  0  0  0  0  0
    7.5000    0.1019    0.0000 N   0  0  0  0  0  0  0  0  0  0  0  0
   11.0388   -0.3981    0.0000 N   0  0  0  0  0  0  0  0  0  0  0  0
    5.0000    1.2359    0.0000 N   0  0  0  0  0  0  0  0  0  0  0  0
    9.5000    0.1019    0.0000 C   0  0  0  0  0  0  0  0  0  0  0  0
    9.0000    0.9679    0.0000 C   0  0  0  0  0  0  0  0  0  0  0  0
    9.0000   -0.7641    0.0000 C   0  0  0  0  0  0  0  0  0  0  0  0
    8.0000    0.9679    0.0000 C   0  0  0  0  0  0  0  0  0  0  0  0
    8.0000   -0.7641    0.0000 C   0  0  0  0  0  0  0  0  0  0  0  0
   10.0878   -0.7071    0.0000 C   0  0  0  0  0  0  0  0  0  0  0  0
   11.0388    0.6019    0.0000 C   0  0  0  0  0  0  0  0  0  0  0  0
    6.5000    0.1019    0.0000 C   0  0  0  0  0  0  0  0  0  0  0  0
    9.7788    1.8620    0.0000 C   0  0  0  0  0  0  0  0  0  0  0  0
    6.0000   -0.7641    0.0000 C   0  0  0  0  0  0  0  0  0  0  0  0
    5.0000   -0.7641    0.0000 C   0  0  0  0  0  0  0  0  0  0  0  0
   10.4479    2.6051    0.0000 C   0  0  0  0  0  0  0  0  0  0  0  0
    8.8006    2.0699    0.0000 C   0  0  0  0  0  0  0  0  0  0  0  0
    4.0000   -0.7641    0.0000 C   0  0  0  0  0  0  0  0  0  0  0  0
    5.0000   -1.7641    0.0000 C   0  0  0  0  0  0  0  0  0  0  0  0
   10.1389    3.5562    0.0000 C   0  0  0  0  0  0  0  0  0  0  0  0
    8.4916    3.0210    0.0000 C   0  0  0  0  0  0  0  0  0  0  0  0
    5.0000    0.2359    0.0000 C   0  0  0  0  0  0  0  0  0  0  0  0
    9.1607    3.7641    0.0000 C   0  0  0  0  0  0  0  0  0  0  0  0
    4.1340   -2.2641    0.0000 C   0  0  0  0  0  0  0  0  0  0  0  0
    3.5000    0.1019    0.0000 C   0  0  0  0  0  0  0  0  0  0  0  0
    5.8660   -2.2641    0.0000 C   0  0  0  0  0  0  0  0  0  0  0  0
    3.5000   -1.6301    0.0000 C   0  0  0  0  0  0  0  0  0  0  0  0
    4.1340   -3.2641    0.0000 C   0  0  0  0  0  0  0  0  0  0  0  0
    2.5000    0.1019    0.0000 C   0  0  0  0  0  0  0  0  0  0  0  0
    5.8660   -3.2641    0.0000 C   0  0  0  0  0  0  0  0  0  0  0  0
    2.5000   -1.6301    0.0000 C   0  0  0  0  0  0  0  0  0  0  0  0
    5.0000   -3.7641    0.0000 C   0  0  0  0  0  0  0  0  0  0  0  0
    2.0000   -0.7641    0.0000 C   0  0  0  0  0  0  0  0  0  0  0  0
    8.8923   -1.3747    0.0000 H   0  0  0  0  0  0  0  0  0  0  0  0
    9.5826   -0.9762    0.0000 H   0  0  0  0  0  0  0  0  0  0  0  0
    9.5826    1.1800    0.0000 H   0  0  0  0  0  0  0  0  0  0  0  0
    8.8923    1.5785    0.0000 H   0  0  0  0  0  0  0  0  0  0  0  0
    8.1077    1.5785    0.0000 H   0  0  0  0  0  0  0  0  0  0  0  0
    7.4174    1.1800    0.0000 H   0  0  0  0  0  0  0  0  0  0  0  0
    7.4174   -0.9762    0.0000 H   0  0  0  0  0  0  0  0  0  0  0  0
    8.1077   -1.3747    0.0000 H   0  0  0  0  0  0  0  0  0  0  0  0
   11.6554    0.5371    0.0000 H   0  0  0  0  0  0  0  0  0  0  0  0
   11.1677    1.2084    0.0000 H   0  0  0  0  0  0  0  0  0  0  0  0
    6.6077    0.7125    0.0000 H   0  0  0  0  0  0  0  0  0  0  0  0
    5.9174    0.3140    0.0000 H   0  0  0  0  0  0  0  0  0  0  0  0
   11.5404   -0.7625    0.0000 H   0  0  0  0  0  0  0  0  0  0  0  0
    5.8923   -1.3747    0.0000 H   0  0  0  0  0  0  0  0  0  0  0  0
    6.5826   -0.9762    0.0000 H   0  0  0  0  0  0  0  0  0  0  0  0
   11.0544    2.4762    0.0000 H   0  0  0  0  0  0  0  0  0  0  0  0
    8.3858    1.6092    0.0000 H   0  0  0  0  0  0  0  0  0  0  0  0
   10.5537    4.0169    0.0000 H   0  0  0  0  0  0  0  0  0  0  0  0
    7.8852    3.1499    0.0000 H   0  0  0  0  0  0  0  0  0  0  0  0
    8.9691    4.3538    0.0000 H   0  0  0  0  0  0  0  0  0  0  0  0
    3.5970   -1.9541    0.0000 H   0  0  0  0  0  0  0  0  0  0  0  0
    3.8100    0.6389    0.0000 H   0  0  0  0  0  0  0  0  0  0  0  0
    6.4030   -1.9541    0.0000 H   0  0  0  0  0  0  0  0  0  0  0  0
    3.8100   -2.1671    0.0000 H   0  0  0  0  0  0  0  0  0  0  0  0
    3.5970   -3.5741    0.0000 H   0  0  0  0  0  0  0  0  0  0  0  0
    2.1900    0.6389    0.0000 H   0  0  0  0  0  0  0  0  0  0  0  0
    6.4030   -3.5741    0.0000 H   0  0  0  0  0  0  0  0  0  0  0  0
    2.1900   -2.1671    0.0000 H   0  0  0  0  0  0  0  0  0  0  0  0
    5.0000   -4.3841    0.0000 H   0  0  0  0  0  0  0  0  0  0  0  0
    1.3800   -0.7641    0.0000 H   0  0  0  0  0  0  0  0  0  0  0  0
  1 11  2  0  0  0  0
  2  6  1  0  0  0  0
  2 12  1  0  0  0  0
  2 14  1  0  0  0  0
  3  9  1  0  0  0  0
  3 10  1  0  0  0  0
  3 13  1  0  0  0  0
  4 11  1  0  0  0  0
  4 12  1  0  0  0  0
  4 47  1  0  0  0  0
  5 23  3  0  0  0  0
  6  7  1  0  0  0  0
  6  8  1  0  0  0  0
  6 11  1  0  0  0  0
  7  9  1  0  0  0  0
  7 37  1  0  0  0  0
  7 38  1  0  0  0  0
  8 10  1  0  0  0  0
  8 35  1  0  0  0  0
  8 36  1  0  0  0  0
  9 39  1  0  0  0  0
  9 40  1  0  0  0  0
 10 41  1  0  0  0  0
 10 42  1  0  0  0  0
 12 43  1  0  0  0  0
 12 44  1  0  0  0  0
 13 15  1  0  0  0  0
 13 45  1  0  0  0  0
 13 46  1  0  0  0  0
 14 17  2  0  0  0  0
 14 18  1  0  0  0  0
 15 16  1  0  0  0  0
 15 48  1  0  0  0  0
 15 49  1  0  0  0  0
 16 19  1  0  0  0  0
 16 20  1  0  0  0  0
 16 23  1  0  0  0  0
 17 21  1  0  0  0  0
 17 50  1  0  0  0  0
 18 22  2  0  0  0  0
 18 51  1  0  0  0  0
 19 26  2  0  0  0  0
 19 28  1  0  0  0  0
 20 25  2  0  0  0  0
 20 27  1  0  0  0  0
 21 24  2  0  0  0  0
 21 52  1  0  0  0  0
 22 24  1  0  0  0  0
 22 53  1  0  0  0  0
 24 54  1  0  0  0  0
 25 29  1  0  0  0  0
 25 55  1  0  0  0  0
 26 30  1  0  0  0  0
 26 56  1  0  0  0  0
 27 31  2  0  0  0  0
 27 57  1  0  0  0  0
 28 32  2  0  0  0  0
 28 58  1  0  0  0  0
 29 33  2  0  0  0  0
 29 59  1  0  0  0  0
 30 34  2  0  0  0  0
 30 60  1  0  0  0  0
 31 33  1  0  0  0  0
 31 61  1  0  0  0  0
 32 34  1  0  0  0  0
 32 62  1  0  0  0  0
 33 63  1  0  0  0  0
 34 64  1  0  0  0  0
M  END
> <PUBCHEM_COMPOUND_CID>
14001

> <PUBCHEM_COMPOUND_CANONICALIZED>
1

> <PUBCHEM_CACTVS_COMPLEXITY>
713

> <PUBCHEM_CACTVS_HBOND_ACCEPTOR>
4

> <PUBCHEM_CACTVS_HBOND_DONOR>
1

> <PUBCHEM_CACTVS_ROTATABLE_BOND>
6

> <PUBCHEM_CACTVS_SUBSKEYS>
AAADceB7oAAAAAAAAAAAAAAAAAAAAWAAAAA8YMEAAAAAAAABUAAAHgAQAAAADojBmAQxwIPAAACYBiVSUACCAAAhAgAIiIGIZIiI4DLA0bGUIAhogwLIyC8UgMAPgAAAAAAAAAAAAAAAAAAAAAAAAAAAAA==

> <PUBCHEM_IUPAC_OPENEYE_NAME>
4-(4-oxo-1-phenyl-1,3,8-triazaspiro[4.5]decan-8-yl)-2,2-diphenyl-butanenitrile

> <PUBCHEM_IUPAC_CAS_NAME>
4-(4-oxo-1-phenyl-1,3,8-triazaspiro[4.5]decan-8-yl)-2,2-diphenylbutanenitrile

> <PUBCHEM_IUPAC_NAME>
4-(4-oxo-1-phenyl-1,3,8-triazaspiro[4.5]decan-8-yl)-2,2-diphenylbutanenitrile

> <PUBCHEM_IUPAC_SYSTEMATIC_NAME>
4-(4-oxidanylidene-1-phenyl-1,3,8-triazaspiro[4.5]decan-8-yl)-2,2-diphenyl-butanenitrile

> <PUBCHEM_IUPAC_TRADITIONAL_NAME>
4-(4-keto-1-phenyl-1,3,8-triazaspiro[4.5]decan-8-yl)-2,2-diphenyl-butyronitrile

> <PUBCHEM_IUPAC_INCHI>
InChI=1S/C29H30N4O/c30-22-28(24-10-4-1-5-11-24,25-12-6-2-7-13-25)16-19-32-20-17-29(18-21-32)27(34)31-23-33(29)26-14-8-3-9-15-26/h1-15H,16-21,23H2,(H,31,34)

> <PUBCHEM_IUPAC_INCHIKEY>
OLKPMRDEHKCJON-UHFFFAOYSA-N

> <PUBCHEM_XLOGP3>
4.5

> <PUBCHEM_EXACT_MASS>
450.241962

> <PUBCHEM_MOLECULAR_FORMULA>
C29H30N4O

> <PUBCHEM_MOLECULAR_WEIGHT>
450.5747

> <PUBCHEM_OPENEYE_CAN_SMILES>
C1CN(CCC12C(=O)NCN2C3=CC=CC=C3)CCC(C#N)(C4=CC=CC=C4)C5=CC=CC=C5

> <PUBCHEM_OPENEYE_ISO_SMILES>
C1CN(CCC12C(=O)NCN2C3=CC=CC=C3)CCC(C#N)(C4=CC=CC=C4)C5=CC=CC=C5

> <PUBCHEM_CACTVS_TPSA>
59.4

> <PUBCHEM_MONOISOTOPIC_WEIGHT>
450.241962

> <PUBCHEM_TOTAL_CHARGE>
0

> <PUBCHEM_HEAVY_ATOM_COUNT>
34

> <PUBCHEM_ATOM_DEF_STEREO_COUNT>
0

> <PUBCHEM_ATOM_UDEF_STEREO_COUNT>
0

> <PUBCHEM_BOND_DEF_STEREO_COUNT>
0

> <PUBCHEM_BOND_UDEF_STEREO_COUNT>
0

> <PUBCHEM_ISOTOPIC_ATOM_COUNT>
0

> <PUBCHEM_COMPONENT_COUNT>
1

> <PUBCHEM_CACTVS_TAUTO_COUNT>
2

> <PUBCHEM_COORDINATE_TYPE>
1
5
255

> <PUBCHEM_BONDANNOTATIONS>
14  17  8
14  18  8
17  21  8
18  22  8
19  26  8
19  28  8
20  25  8
20  27  8
21  24  8
22  24  8
25  29  8
26  30  8
27  31  8
28  32  8
29  33  8
30  34  8
31  33  8
32  34  8

$$$$

