10007
  -OEChem-07051212532D

 26 26  0     0  0  0  0  0  0999 V2000
    2.8660   -2.8100    0.0000 Cl  0  0  0  0  0  0  0  0  0  0  0  0
    4.5981    2.1900    0.0000 N   0  0  0  0  0  0  0  0  0  0  0  0
    3.7320    1.6900    0.0000 C   0  0  0  0  0  0  0  0  0  0  0  0
    2.8660    1.1900    0.0000 C   0  0  0  0  0  0  0  0  0  0  0  0
    3.2320    2.5560    0.0000 C   0  0  0  0  0  0  0  0  0  0  0  0
    4.2320    0.8240    0.0000 C   0  0  0  0  0  0  0  0  0  0  0  0
    2.8660    0.1900    0.0000 C   0  0  0  0  0  0  0  0  0  0  0  0
    2.0000   -0.3100    0.0000 C   0  0  0  0  0  0  0  0  0  0  0  0
    3.7320   -0.3100    0.0000 C   0  0  0  0  0  0  0  0  0  0  0  0
    2.0000   -1.3100    0.0000 C   0  0  0  0  0  0  0  0  0  0  0  0
    3.7320   -1.3100    0.0000 C   0  0  0  0  0  0  0  0  0  0  0  0
    2.8660   -1.8100    0.0000 C   0  0  0  0  0  0  0  0  0  0  0  0
    2.6540    1.7726    0.0000 H   0  0  0  0  0  0  0  0  0  0  0  0
    2.2554    1.0823    0.0000 H   0  0  0  0  0  0  0  0  0  0  0  0
    3.7690    2.8660    0.0000 H   0  0  0  0  0  0  0  0  0  0  0  0
    3.6951    0.5140    0.0000 H   0  0  0  0  0  0  0  0  0  0  0  0
    4.5420    0.2870    0.0000 H   0  0  0  0  0  0  0  0  0  0  0  0
    4.7690    1.1340    0.0000 H   0  0  0  0  0  0  0  0  0  0  0  0
    2.9220    3.0930    0.0000 H   0  0  0  0  0  0  0  0  0  0  0  0
    2.6951    2.2460    0.0000 H   0  0  0  0  0  0  0  0  0  0  0  0
    4.5981    2.8100    0.0000 H   0  0  0  0  0  0  0  0  0  0  0  0
    5.1350    1.8800    0.0000 H   0  0  0  0  0  0  0  0  0  0  0  0
    1.4631    0.0000    0.0000 H   0  0  0  0  0  0  0  0  0  0  0  0
    4.2690    0.0000    0.0000 H   0  0  0  0  0  0  0  0  0  0  0  0
    1.4631   -1.6200    0.0000 H   0  0  0  0  0  0  0  0  0  0  0  0
    4.2690   -1.6200    0.0000 H   0  0  0  0  0  0  0  0  0  0  0  0
  1 12  1  0  0  0  0
  2  3  1  0  0  0  0
  2 21  1  0  0  0  0
  2 22  1  0  0  0  0
  3  4  1  0  0  0  0
  3  5  1  0  0  0  0
  3  6  1  0  0  0  0
  4  7  1  0  0  0  0
  4 13  1  0  0  0  0
  4 14  1  0  0  0  0
  5 15  1  0  0  0  0
  5 19  1  0  0  0  0
  5 20  1  0  0  0  0
  6 16  1  0  0  0  0
  6 17  1  0  0  0  0
  6 18  1  0  0  0  0
  7  8  2  0  0  0  0
  7  9  1  0  0  0  0
  8 10  1  0  0  0  0
  8 23  1  0  0  0  0
  9 11  2  0  0  0  0
  9 24  1  0  0  0  0
 10 12  2  0  0  0  0
 10 25  1  0  0  0  0
 11 12  1  0  0  0  0
 11 26  1  0  0  0  0
M  END
> <PUBCHEM_COMPOUND_CID>
10007

> <PUBCHEM_COMPOUND_CANONICALIZED>
1

> <PUBCHEM_CACTVS_COMPLEXITY>
137

> <PUBCHEM_CACTVS_HBOND_ACCEPTOR>
1

> <PUBCHEM_CACTVS_HBOND_DONOR>
1

> <PUBCHEM_CACTVS_ROTATABLE_BOND>
2

> <PUBCHEM_CACTVS_SUBSKEYS>
AAADccByAAAEAAAAAAAAAAAAAAAAAAAAAAAwAAAAAAAAAAABAAAAHAIQAAAADIqBGCAyAIBAAACAAiBCAAACAAAgBQAIiAAAAogIICKBkxGAIAAgkAAIiAcQgMAOBAAAAAAAAAAIAAAAAAAAAAAAAAAAAA==

> <PUBCHEM_IUPAC_OPENEYE_NAME>
1-(4-chlorophenyl)-2-methyl-propan-2-amine

> <PUBCHEM_IUPAC_CAS_NAME>
1-(4-chlorophenyl)-2-methyl-2-propanamine

> <PUBCHEM_IUPAC_NAME>
1-(4-chlorophenyl)-2-methylpropan-2-amine

> <PUBCHEM_IUPAC_SYSTEMATIC_NAME>
1-(4-chlorophenyl)-2-methyl-propan-2-amine

> <PUBCHEM_IUPAC_TRADITIONAL_NAME>
[2-(4-chlorophenyl)-1,1-dimethyl-ethyl]amine

> <PUBCHEM_IUPAC_INCHI>
InChI=1S/C10H14ClN/c1-10(2,12)7-8-3-5-9(11)6-4-8/h3-6H,7,12H2,1-2H3

> <PUBCHEM_IUPAC_INCHIKEY>
ZCKAMNXUHHNZLN-UHFFFAOYSA-N

> <PUBCHEM_XLOGP3>
2.6

> <PUBCHEM_EXACT_MASS>
183.081477

> <PUBCHEM_MOLECULAR_FORMULA>
C10H14ClN

> <PUBCHEM_MOLECULAR_WEIGHT>
183.67786

> <PUBCHEM_OPENEYE_CAN_SMILES>
CC(C)(CC1=CC=C(C=C1)Cl)N

> <PUBCHEM_OPENEYE_ISO_SMILES>
CC(C)(CC1=CC=C(C=C1)Cl)N

> <PUBCHEM_CACTVS_TPSA>
26

> <PUBCHEM_MONOISOTOPIC_WEIGHT>
183.081477

> <PUBCHEM_TOTAL_CHARGE>
0

> <PUBCHEM_HEAVY_ATOM_COUNT>
12

> <PUBCHEM_ATOM_DEF_STEREO_COUNT>
0

> <PUBCHEM_ATOM_UDEF_STEREO_COUNT>
0

> <PUBCHEM_BOND_DEF_STEREO_COUNT>
0

> <PUBCHEM_BOND_UDEF_STEREO_COUNT>
0

> <PUBCHEM_ISOTOPIC_ATOM_COUNT>
0

> <PUBCHEM_COMPONENT_COUNT>
1

> <PUBCHEM_CACTVS_TAUTO_COUNT>
1

> <PUBCHEM_COORDINATE_TYPE>
1
5
255

> <PUBCHEM_BONDANNOTATIONS>
10  12  8
11  12  8
7  8  8
7  9  8
8  10  8
9  11  8

$$$$

