47205501
  -OEChem-06241222592D

 31 32  0     0  0  0  0  0  0999 V2000
    6.7046   -2.5187    0.0000 S   0  0  0  0  0  0  0  0  0  0  0  0
    2.2788    2.0859    0.0000 O   0  0  0  0  0  0  0  0  0  0  0  0
    6.7500    1.1588    0.0000 O   0  0  0  0  0  0  0  0  0  0  0  0
    4.3126    0.1296    0.0000 O   0  0  0  0  0  0  0  0  0  0  0  0
    6.2147   -0.4884    0.0000 N   0  0  0  0  0  0  0  0  0  0  0  0
    8.2872   -2.1823    0.0000 N   0  0  0  0  0  0  0  0  0  0  0  0
    4.8479    1.7769    0.0000 N   0  0  0  0  0  0  0  0  0  0  0  0
    3.0878    1.4981    0.0000 N   0  0  0  0  0  0  0  0  0  0  0  0
    7.1658   -0.7974    0.0000 C   0  0  0  0  0  0  0  0  0  0  0  0
    7.3737   -1.7756    0.0000 C   0  0  0  0  0  0  0  0  0  0  0  0
    8.1827   -3.1768    0.0000 C   0  0  0  0  0  0  0  0  0  0  0  0
    3.8968    2.0859    0.0000 C   0  0  0  0  0  0  0  0  0  0  0  0
    6.0068    0.4897    0.0000 C   0  0  0  0  0  0  0  0  0  0  0  0
    7.2046   -3.3848    0.0000 C   0  0  0  0  0  0  0  0  0  0  0  0
    3.5878    3.0370    0.0000 C   0  0  0  0  0  0  0  0  0  0  0  0
    5.0558    0.7987    0.0000 C   0  0  0  0  0  0  0  0  0  0  0  0
    2.5878    3.0370    0.0000 C   0  0  0  0  0  0  0  0  0  0  0  0
    8.9259   -3.8460    0.0000 C   0  0  0  0  0  0  0  0  0  0  0  0
    2.0000    3.8460    0.0000 C   0  0  0  0  0  0  0  0  0  0  0  0
    7.7854   -0.7758    0.0000 H   0  0  0  0  0  0  0  0  0  0  0  0
    7.2521   -0.1835    0.0000 H   0  0  0  0  0  0  0  0  0  0  0  0
    5.7540   -0.9033    0.0000 H   0  0  0  0  0  0  0  0  0  0  0  0
    6.9524   -3.9512    0.0000 H   0  0  0  0  0  0  0  0  0  0  0  0
    3.9522    3.5386    0.0000 H   0  0  0  0  0  0  0  0  0  0  0  0
    5.3086    2.1918    0.0000 H   0  0  0  0  0  0  0  0  0  0  0  0
    8.5110   -4.3067    0.0000 H   0  0  0  0  0  0  0  0  0  0  0  0
    9.3866   -4.2608    0.0000 H   0  0  0  0  0  0  0  0  0  0  0  0
    9.3407   -3.3852    0.0000 H   0  0  0  0  0  0  0  0  0  0  0  0
    2.5016    4.2104    0.0000 H   0  0  0  0  0  0  0  0  0  0  0  0
    1.6356    4.3476    0.0000 H   0  0  0  0  0  0  0  0  0  0  0  0
    1.4984    3.4816    0.0000 H   0  0  0  0  0  0  0  0  0  0  0  0
  1 10  1  0  0  0  0
  1 14  1  0  0  0  0
  2  8  1  0  0  0  0
  2 17  1  0  0  0  0
  3 13  2  0  0  0  0
  4 16  2  0  0  0  0
  5  9  1  0  0  0  0
  5 13  1  0  0  0  0
  5 22  1  0  0  0  0
  6 10  2  0  0  0  0
  6 11  1  0  0  0  0
  7 12  1  0  0  0  0
  7 16  1  0  0  0  0
  7 25  1  0  0  0  0
  8 12  2  0  0  0  0
  9 10  1  0  0  0  0
  9 20  1  0  0  0  0
  9 21  1  0  0  0  0
 11 14  2  0  0  0  0
 11 18  1  0  0  0  0
 12 15  1  0  0  0  0
 13 16  1  0  0  0  0
 14 23  1  0  0  0  0
 15 17  2  0  0  0  0
 15 24  1  0  0  0  0
 17 19  1  0  0  0  0
 18 26  1  0  0  0  0
 18 27  1  0  0  0  0
 18 28  1  0  0  0  0
 19 29  1  0  0  0  0
 19 30  1  0  0  0  0
 19 31  1  0  0  0  0
M  END
> <PUBCHEM_COMPOUND_CID>
47205501

> <PUBCHEM_COMPOUND_CANONICALIZED>
1

> <PUBCHEM_CACTVS_COMPLEXITY>
355

> <PUBCHEM_CACTVS_HBOND_ACCEPTOR>
6

> <PUBCHEM_CACTVS_HBOND_DONOR>
2

> <PUBCHEM_CACTVS_ROTATABLE_BOND>
3

> <PUBCHEM_CACTVS_SUBSKEYS>
AAADccBzsABAAAAAAAAAAAAAAAAAAWLAAAAAAAAAAAAAAAAB4AAAHgQUAAAACAzF1gSztZLYEAitAadydgCA8KBlKjghGLW+bFqAZAhgiaAUAIhCFwrgQEAAAAAAAAAAAAAAAAAAAAAAAAAAAAAAAAAAAA==

> <PUBCHEM_IUPAC_OPENEYE_NAME>
N'-(5-methylisoxazol-3-yl)-N-[(4-methylthiazol-2-yl)methyl]oxamide

> <PUBCHEM_IUPAC_CAS_NAME>
N'-(5-methyl-3-isoxazolyl)-N-[(4-methyl-2-thiazolyl)methyl]oxamide

> <PUBCHEM_IUPAC_NAME>
N'-(5-methyl-1,2-oxazol-3-yl)-N-[(4-methyl-1,3-thiazol-2-yl)methyl]oxamide

> <PUBCHEM_IUPAC_SYSTEMATIC_NAME>
N'-(5-methyl-1,2-oxazol-3-yl)-N-[(4-methyl-1,3-thiazol-2-yl)methyl]ethanediamide

> <PUBCHEM_IUPAC_TRADITIONAL_NAME>
N'-(5-methylisoxazol-3-yl)-N-[(4-methylthiazol-2-yl)methyl]oxamide

> <PUBCHEM_IUPAC_INCHI>
InChI=1S/C11H12N4O3S/c1-6-5-19-9(13-6)4-12-10(16)11(17)14-8-3-7(2)18-15-8/h3,5H,4H2,1-2H3,(H,12,16)(H,14,15,17)

> <PUBCHEM_IUPAC_INCHIKEY>
GHVMLKGFLXPWST-UHFFFAOYSA-N

> <PUBCHEM_XLOGP3_AA>
1

> <PUBCHEM_EXACT_MASS>
280.063011

> <PUBCHEM_MOLECULAR_FORMULA>
C11H12N4O3S

> <PUBCHEM_MOLECULAR_WEIGHT>
280.30298

> <PUBCHEM_OPENEYE_CAN_SMILES>
CC1=CC(=NO1)NC(=O)C(=O)NCC2=NC(=CS2)C

> <PUBCHEM_OPENEYE_ISO_SMILES>
CC1=CC(=NO1)NC(=O)C(=O)NCC2=NC(=CS2)C

> <PUBCHEM_CACTVS_TPSA>
125

> <PUBCHEM_MONOISOTOPIC_WEIGHT>
280.063011

> <PUBCHEM_TOTAL_CHARGE>
0

> <PUBCHEM_HEAVY_ATOM_COUNT>
19

> <PUBCHEM_ATOM_DEF_STEREO_COUNT>
0

> <PUBCHEM_ATOM_UDEF_STEREO_COUNT>
0

> <PUBCHEM_BOND_DEF_STEREO_COUNT>
0

> <PUBCHEM_BOND_UDEF_STEREO_COUNT>
0

> <PUBCHEM_ISOTOPIC_ATOM_COUNT>
0

> <PUBCHEM_COMPONENT_COUNT>
1

> <PUBCHEM_CACTVS_TAUTO_COUNT>
16

> <PUBCHEM_COORDINATE_TYPE>
1
5
255

> <PUBCHEM_BONDANNOTATIONS>
1  10  8
1  14  8
11  14  8
12  15  8
15  17  8
2  17  8
2  8  8
6  10  8
6  11  8
8  12  8

$$$$

