5281748
  -OEChem-07051212592D

 51 53  0     1  0  0  0  0  0999 V2000
    4.5787    0.3580    0.0000 O   0  0  0  0  0  0  0  0  0  0  0  0
    6.9792   -2.3045    0.0000 O   0  0  0  0  0  0  0  0  0  0  0  0
    7.1188   -0.1309    0.0000 O   0  0  0  0  0  0  0  0  0  0  0  0
    4.0404    3.9775    0.0000 O   0  0  0  0  0  0  0  0  0  0  0  0
    7.9848   -1.6086    0.0000 O   0  0  0  0  0  0  0  0  0  0  0  0
    2.8660    0.3691    0.0000 O   0  0  0  0  0  0  0  0  0  0  0  0
    5.7545   -3.5292    0.0000 O   0  0  0  0  0  0  0  0  0  0  0  0
    5.4255    2.8021    0.0000 N   0  0  0  0  0  0  0  0  0  0  0  0
    5.4255   -1.1085    0.0000 C   0  0  1  0  0  0  0  0  0  0  0  0
    6.2721   -1.5974    0.0000 C   0  0  1  0  0  0  0  0  0  0  0  0
    4.5787    1.3356    0.0000 C   0  0  2  0  0  0  0  0  0  0  0  0
    5.4255    1.8245    0.0000 C   0  0  0  0  0  0  0  0  0  0  0  0
    4.5787   -1.5974    0.0000 C   0  0  0  0  0  0  0  0  0  0  0  0
    3.8842    2.2644    0.0000 C   0  0  0  0  0  0  0  0  0  0  0  0
    6.2721    1.3356    0.0000 C   0  0  0  0  0  0  0  0  0  0  0  0
    4.4056    3.0465    0.0000 C   0  0  0  0  0  0  0  0  0  0  0  0
    5.4255   -0.1085    0.0000 C   0  0  0  0  0  0  0  0  0  0  0  0
    6.0133   -2.5633    0.0000 C   0  0  0  0  0  0  0  0  0  0  0  0
    7.1188   -1.1085    0.0000 C   0  0  0  0  0  0  0  0  0  0  0  0
    3.7320   -1.1085    0.0000 C   0  0  0  0  0  0  0  0  0  0  0  0
    6.2721    0.3580    0.0000 C   0  0  0  0  0  0  0  0  0  0  0  0
    6.3609    3.0682    0.0000 C   0  0  0  0  0  0  0  0  0  0  0  0
    6.9692    2.2644    0.0000 C   0  0  0  0  0  0  0  0  0  0  0  0
    3.7320   -0.1309    0.0000 C   0  0  0  0  0  0  0  0  0  0  0  0
    2.8660   -1.6085    0.0000 C   0  0  0  0  0  0  0  0  0  0  0  0
    6.7205   -3.2704    0.0000 C   0  0  0  0  0  0  0  0  0  0  0  0
    2.0000   -1.1086    0.0000 C   0  0  0  0  0  0  0  0  0  0  0  0
    7.4276   -3.9775    0.0000 C   0  0  0  0  0  0  0  0  0  0  0  0
    5.9624   -0.7985    0.0000 H   0  0  0  0  0  0  0  0  0  0  0  0
    3.7721    1.0674    0.0000 H   0  0  0  0  0  0  0  0  0  0  0  0
    4.1802   -2.0723    0.0000 H   0  0  0  0  0  0  0  0  0  0  0  0
    4.9772   -2.0723    0.0000 H   0  0  0  0  0  0  0  0  0  0  0  0
    3.4106    2.6646    0.0000 H   0  0  0  0  0  0  0  0  0  0  0  0
    3.4329    1.8392    0.0000 H   0  0  0  0  0  0  0  0  0  0  0  0
    6.0455   -0.1085    0.0000 H   0  0  0  0  0  0  0  0  0  0  0  0
    5.4254    0.5115    0.0000 H   0  0  0  0  0  0  0  0  0  0  0  0
    4.8055   -0.1085    0.0000 H   0  0  0  0  0  0  0  0  0  0  0  0
    5.4144   -2.4028    0.0000 H   0  0  0  0  0  0  0  0  0  0  0  0
    5.8528   -3.1622    0.0000 H   0  0  0  0  0  0  0  0  0  0  0  0
    6.6122   -2.7238    0.0000 H   0  0  0  0  0  0  0  0  0  0  0  0
    5.6615    0.4656    0.0000 H   0  0  0  0  0  0  0  0  0  0  0  0
    6.0601   -0.2246    0.0000 H   0  0  0  0  0  0  0  0  0  0  0  0
    6.5576    3.6562    0.0000 H   0  0  0  0  0  0  0  0  0  0  0  0
    7.5892    2.2656    0.0000 H   0  0  0  0  0  0  0  0  0  0  0  0
    2.8660   -2.2285    0.0000 H   0  0  0  0  0  0  0  0  0  0  0  0
    2.3100   -0.5716    0.0000 H   0  0  0  0  0  0  0  0  0  0  0  0
    1.4631   -0.7986    0.0000 H   0  0  0  0  0  0  0  0  0  0  0  0
    1.6900   -1.6455    0.0000 H   0  0  0  0  0  0  0  0  0  0  0  0
    6.9892   -4.4159    0.0000 H   0  0  0  0  0  0  0  0  0  0  0  0
    7.8660   -4.4159    0.0000 H   0  0  0  0  0  0  0  0  0  0  0  0
    7.8660   -3.5390    0.0000 H   0  0  0  0  0  0  0  0  0  0  0  0
  1 11  1  0  0  0  0
  1 24  1  0  0  0  0
 10  2  1  6  0  0  0
  2 26  1  0  0  0  0
  3 19  1  0  0  0  0
  3 21  1  0  0  0  0
  4 16  2  0  0  0  0
  5 19  2  0  0  0  0
  6 24  2  0  0  0  0
  7 26  2  0  0  0  0
  8 12  1  0  0  0  0
  8 16  1  0  0  0  0
  8 22  1  0  0  0  0
  9 10  1  0  0  0  0
  9 13  1  0  0  0  0
  9 17  1  1  0  0  0
  9 29  1  0  0  0  0
 10 18  1  0  0  0  0
 10 19  1  0  0  0  0
 11 12  1  0  0  0  0
 11 14  1  0  0  0  0
 11 30  1  6  0  0  0
 12 15  2  0  0  0  0
 13 20  1  0  0  0  0
 13 31  1  0  0  0  0
 13 32  1  0  0  0  0
 14 16  1  0  0  0  0
 14 33  1  0  0  0  0
 14 34  1  0  0  0  0
 15 21  1  0  0  0  0
 15 23  1  0  0  0  0
 17 35  1  0  0  0  0
 17 36  1  0  0  0  0
 17 37  1  0  0  0  0
 18 38  1  0  0  0  0
 18 39  1  0  0  0  0
 18 40  1  0  0  0  0
 20 24  1  0  0  0  0
 20 25  2  0  0  0  0
 21 41  1  0  0  0  0
 21 42  1  0  0  0  0
 22 23  2  0  0  0  0
 22 43  1  0  0  0  0
 23 44  1  0  0  0  0
 25 27  1  0  0  0  0
 25 45  1  0  0  0  0
 26 28  1  0  0  0  0
 27 46  1  0  0  0  0
 27 47  1  0  0  0  0
 27 48  1  0  0  0  0
 28 49  1  0  0  0  0
 28 50  1  0  0  0  0
 28 51  1  0  0  0  0
M  END
> <PUBCHEM_COMPOUND_CID>
5281748

> <PUBCHEM_COMPOUND_CANONICALIZED>
1

> <PUBCHEM_CACTVS_COMPLEXITY>
730

> <PUBCHEM_CACTVS_HBOND_ACCEPTOR>
7

> <PUBCHEM_CACTVS_HBOND_DONOR>
0

> <PUBCHEM_CACTVS_ROTATABLE_BOND>
2

> <PUBCHEM_CACTVS_SUBSKEYS>
AAADceB6OAAAAAAAAAAAAAAAAAAAAWLAAAAAAAAAAAAWAAABgAAAHgAAAAAADVzhngY+iJMMFACoAzX3XAaCgCAxAiAI2CF4bNgLJvbAsZ2HEAhm5gHa6Yf8/B7OgAAAAAAAAAAAAAAAAAAAAAAAAAAAAA==

> <PUBCHEM_IUPAC_INCHI>
InChI=1S/C20H23NO7/c1-5-13-8-11(2)20(4,28-12(3)22)19(25)26-10-14-6-7-21-16(23)9-15(17(14)21)27-18(13)24/h5-7,11,15H,8-10H2,1-4H3/b13-5-/t11-,15+,20-/m1/s1

> <PUBCHEM_IUPAC_INCHIKEY>
NTGIQQBAUYBEBF-ZCXFZNNUSA-N

> <PUBCHEM_XLOGP3_AA>
1.5

> <PUBCHEM_EXACT_MASS>
389.147452

> <PUBCHEM_MOLECULAR_FORMULA>
C20H23NO7

> <PUBCHEM_MOLECULAR_WEIGHT>
389.39912

> <PUBCHEM_OPENEYE_CAN_SMILES>
CC=C1CC(C(C(=O)OCC2=C3C(CC(=O)N3C=C2)OC1=O)(C)OC(=O)C)C

> <PUBCHEM_OPENEYE_ISO_SMILES>
C/C=C\1/C[C@H]([C@@](C(=O)OCC2=C3[C@H](CC(=O)N3C=C2)OC1=O)(C)OC(=O)C)C

> <PUBCHEM_CACTVS_TPSA>
101

> <PUBCHEM_MONOISOTOPIC_WEIGHT>
389.147452

> <PUBCHEM_TOTAL_CHARGE>
0

> <PUBCHEM_HEAVY_ATOM_COUNT>
28

> <PUBCHEM_ATOM_DEF_STEREO_COUNT>
3

> <PUBCHEM_ATOM_UDEF_STEREO_COUNT>
0

> <PUBCHEM_BOND_DEF_STEREO_COUNT>
1

> <PUBCHEM_BOND_UDEF_STEREO_COUNT>
0

> <PUBCHEM_ISOTOPIC_ATOM_COUNT>
0

> <PUBCHEM_COMPONENT_COUNT>
1

> <PUBCHEM_CACTVS_TAUTO_COUNT>
2

> <PUBCHEM_COORDINATE_TYPE>
1
5
255

> <PUBCHEM_BONDANNOTATIONS>
11  30  6
12  15  8
15  23  8
10  2  6
22  23  8
8  12  8
8  22  8
9  17  5

$$$$

