11229
  -OEChem-06261205253D

 23 22  0     0  0  0  0  0  0999 V2000
   -0.0001   -0.4994    0.0002 C   0  0  0  0  0  0  0  0  0  0  0  0
    1.0128    0.3688    0.7948 C   0  0  0  0  0  0  0  0  0  0  0  0
   -1.0357    0.3446   -0.7914 C   0  0  0  0  0  0  0  0  0  0  0  0
    0.7490   -1.3998   -1.0051 C   0  0  0  0  0  0  0  0  0  0  0  0
   -0.7251   -1.4230    1.0022 C   0  0  0  0  0  0  0  0  0  0  0  0
    1.8797    1.3047   -0.0390 C   0  0  0  0  0  0  0  0  0  0  0  0
   -1.8806    1.3041    0.0382 C   0  0  0  0  0  0  0  0  0  0  0  0
    1.6850   -0.2923    1.3585 H   0  0  0  0  0  0  0  0  0  0  0  0
    0.4841    0.9637    1.5494 H   0  0  0  0  0  0  0  0  0  0  0  0
   -0.5255    0.9226   -1.5716 H   0  0  0  0  0  0  0  0  0  0  0  0
   -1.7188   -0.3319   -1.3224 H   0  0  0  0  0  0  0  0  0  0  0  0
    1.5345   -1.9808   -0.5087 H   0  0  0  0  0  0  0  0  0  0  0  0
    1.2164   -0.8156   -1.8045 H   0  0  0  0  0  0  0  0  0  0  0  0
    0.0641   -2.1101   -1.4827 H   0  0  0  0  0  0  0  0  0  0  0  0
   -1.2111   -0.8530    1.8009 H   0  0  0  0  0  0  0  0  0  0  0  0
   -1.4928   -2.0250    0.5033 H   0  0  0  0  0  0  0  0  0  0  0  0
   -0.0215   -2.1145    1.4803 H   0  0  0  0  0  0  0  0  0  0  0  0
    2.5109    0.7544   -0.7420 H   0  0  0  0  0  0  0  0  0  0  0  0
    2.5442    1.8758    0.6181 H   0  0  0  0  0  0  0  0  0  0  0  0
    1.2748    2.0232   -0.5989 H   0  0  0  0  0  0  0  0  0  0  0  0
   -2.5818    1.8361   -0.6136 H   0  0  0  0  0  0  0  0  0  0  0  0
   -2.4711    0.7770    0.7924 H   0  0  0  0  0  0  0  0  0  0  0  0
   -1.2643    2.0565    0.5378 H   0  0  0  0  0  0  0  0  0  0  0  0
  1  2  1  0  0  0  0
  1  3  1  0  0  0  0
  1  4  1  0  0  0  0
  1  5  1  0  0  0  0
  2  6  1  0  0  0  0
  2  8  1  0  0  0  0
  2  9  1  0  0  0  0
  3  7  1  0  0  0  0
  3 10  1  0  0  0  0
  3 11  1  0  0  0  0
  4 12  1  0  0  0  0
  4 13  1  0  0  0  0
  4 14  1  0  0  0  0
  5 15  1  0  0  0  0
  5 16  1  0  0  0  0
  5 17  1  0  0  0  0
  6 18  1  0  0  0  0
  6 19  1  0  0  0  0
  6 20  1  0  0  0  0
  7 21  1  0  0  0  0
  7 22  1  0  0  0  0
  7 23  1  0  0  0  0
M  END
> <PUBCHEM_COMPOUND_CID>
11229

> <PUBCHEM_CONFORMER_RMSD>
0.4

> <PUBCHEM_CONFORMER_DIVERSEORDER>
1
5
2
3
4

> <PUBCHEM_MMFF94_PARTIAL_CHARGES>
0

> <PUBCHEM_EFFECTIVE_ROTOR_COUNT>
2

> <PUBCHEM_PHARMACOPHORE_FEATURES>
3
1 6 hydrophobe
1 7 hydrophobe
3 1 4 5 hydrophobe

> <PUBCHEM_HEAVY_ATOM_COUNT>
7

> <PUBCHEM_ATOM_DEF_STEREO_COUNT>
0

> <PUBCHEM_ATOM_UDEF_STEREO_COUNT>
0

> <PUBCHEM_BOND_DEF_STEREO_COUNT>
0

> <PUBCHEM_BOND_UDEF_STEREO_COUNT>
0

> <PUBCHEM_ISOTOPIC_ATOM_COUNT>
0

> <PUBCHEM_COMPONENT_COUNT>
1

> <PUBCHEM_CACTVS_TAUTO_COUNT>
1

> <PUBCHEM_CONFORMER_ID>
00002BDD00000001

> <PUBCHEM_MMFF94_ENERGY>
11.8637

> <PUBCHEM_FEATURE_SELFOVERLAP>
15.225

> <PUBCHEM_SHAPE_FINGERPRINT>
137420 1 16104504777401428558
16714656 1 17832136122184355988
20096714 4 18337968872998981249
21040471 1 18335155171288252032
29004967 10 17464256406409793015
5084963 1 18125472831982748436
5943 1 15176412604237397926

> <PUBCHEM_SHAPE_MULTIPOLES>
144.06
2.08
1.74
1.08
0.01
0.17
0
-1.21
-0.01
0
0.01
0
0.34
0.35

> <PUBCHEM_SHAPE_SELFOVERLAP>
253.609

> <PUBCHEM_SHAPE_VOLUME>
98

> <PUBCHEM_COORDINATE_TYPE>
2
5
10

$$$$

