129958
  -OEChem-07051213043D

 25 27  0     0  0  0  0  0  0999 V2000
   -1.0432    3.1389   -0.0008 Br  0  0  0  0  0  0  0  0  0  0  0  0
   -4.5028   -1.3891    0.0004 Br  0  0  0  0  0  0  0  0  0  0  0  0
   -3.6232    1.5566   -0.0003 O   0  0  0  0  0  0  0  0  0  0  0  0
    0.8433   -1.6312    0.0000 N   0  0  0  0  0  0  0  0  0  0  0  0
    4.0457    0.1991   -0.0004 N   0  0  0  0  0  0  0  0  0  0  0  0
   -0.3810   -1.0045    0.0002 C   0  0  0  0  0  0  0  0  0  0  0  0
   -0.1418    0.3703    0.0003 C   0  0  0  0  0  0  0  0  0  0  0  0
    1.2769    0.5569    0.0005 C   0  0  0  0  0  0  0  0  0  0  0  0
    1.8614   -0.7091   -0.0001 C   0  0  0  0  0  0  0  0  0  0  0  0
   -1.2468    1.2471   -0.0001 C   0  0  0  0  0  0  0  0  0  0  0  0
   -1.6707   -1.5484    0.0002 C   0  0  0  0  0  0  0  0  0  0  0  0
    1.0338   -3.0679   -0.0004 C   0  0  0  0  0  0  0  0  0  0  0  0
    2.1176    1.6809    0.0008 C   0  0  0  0  0  0  0  0  0  0  0  0
    3.2389   -0.8870   -0.0006 C   0  0  0  0  0  0  0  0  0  0  0  0
   -2.5424    0.7181   -0.0003 C   0  0  0  0  0  0  0  0  0  0  0  0
   -2.7488   -0.6592    0.0002 C   0  0  0  0  0  0  0  0  0  0  0  0
    3.4829    1.4284    0.0005 C   0  0  0  0  0  0  0  0  0  0  0  0
   -1.8259   -2.6227    0.0044 H   0  0  0  0  0  0  0  0  0  0  0  0
    2.0032   -3.3178   -0.4365 H   0  0  0  0  0  0  0  0  0  0  0  0
    0.9788   -3.4160    1.0340 H   0  0  0  0  0  0  0  0  0  0  0  0
    0.2546   -3.5365   -0.6063 H   0  0  0  0  0  0  0  0  0  0  0  0
    1.7630    2.7025    0.0014 H   0  0  0  0  0  0  0  0  0  0  0  0
    3.7257   -1.8531    0.0033 H   0  0  0  0  0  0  0  0  0  0  0  0
    4.1907    2.2520    0.0008 H   0  0  0  0  0  0  0  0  0  0  0  0
   -3.3017    2.4745   -0.0005 H   0  0  0  0  0  0  0  0  0  0  0  0
  1 10  1  0  0  0  0
  2 16  1  0  0  0  0
  3 15  1  0  0  0  0
  3 25  1  0  0  0  0
  4  6  1  0  0  0  0
  4  9  1  0  0  0  0
  4 12  1  0  0  0  0
  5 14  2  0  0  0  0
  5 17  1  0  0  0  0
  6  7  1  0  0  0  0
  6 11  2  0  0  0  0
  7  8  1  0  0  0  0
  7 10  2  0  0  0  0
  8  9  2  0  0  0  0
  8 13  1  0  0  0  0
  9 14  1  0  0  0  0
 10 15  1  0  0  0  0
 11 16  1  0  0  0  0
 11 18  1  0  0  0  0
 12 19  1  0  0  0  0
 12 20  1  0  0  0  0
 12 21  1  0  0  0  0
 13 17  2  0  0  0  0
 13 22  1  0  0  0  0
 14 23  1  0  0  0  0
 15 16  2  0  0  0  0
 17 24  1  0  0  0  0
M  END
> <PUBCHEM_COMPOUND_CID>
129958

> <PUBCHEM_CONFORMER_RMSD>
0.4

> <PUBCHEM_CONFORMER_DIVERSEORDER>
1

> <PUBCHEM_MMFF94_PARTIAL_CHARGES>
20
1 -0.11
10 0.11
11 -0.15
12 0.26
13 -0.15
14 0.16
15 0.08
16 0.11
17 0.16
18 0.15
2 -0.11
22 0.15
23 0.15
24 0.15
25 0.45
3 -0.53
4 0.05
5 -0.62
6 -0.15
9 -0.15

> <PUBCHEM_EFFECTIVE_ROTOR_COUNT>
0

> <PUBCHEM_PHARMACOPHORE_FEATURES>
8
1 1 hydrophobe
1 2 hydrophobe
1 3 donor
1 4 cation
1 5 acceptor
5 4 6 7 8 9 rings
6 5 8 9 13 14 17 rings
6 6 7 10 11 15 16 rings

> <PUBCHEM_HEAVY_ATOM_COUNT>
17

> <PUBCHEM_ATOM_DEF_STEREO_COUNT>
0

> <PUBCHEM_ATOM_UDEF_STEREO_COUNT>
0

> <PUBCHEM_BOND_DEF_STEREO_COUNT>
0

> <PUBCHEM_BOND_UDEF_STEREO_COUNT>
0

> <PUBCHEM_ISOTOPIC_ATOM_COUNT>
0

> <PUBCHEM_COMPONENT_COUNT>
1

> <PUBCHEM_CACTVS_TAUTO_COUNT>
3

> <PUBCHEM_CONFORMER_ID>
0001FBA600000001

> <PUBCHEM_MMFF94_ENERGY>
41.0811

> <PUBCHEM_FEATURE_SELFOVERLAP>
40.78

> <PUBCHEM_SHAPE_FINGERPRINT>
10498660 4 18412262847965650261
10608611 8 18410857693511435076
10967382 1 18338517417631825446
11132069 177 18409172112247884128
11471102 20 18410859824078886647
11806522 49 18266743489526383087
12403259 226 18409172129665188480
13140716 1 18410857650603759152
13380535 76 18412826893098724138
14178342 30 18194695984176489426
14223421 5 18266740357983306895
14790565 3 18123173624763915133
15196674 1 18410575084726525348
15375462 6 18410574006837459759
15442244 35 17978512262575494842
15536298 74 18334575741735051118
16945 1 18266458887291046470
18186145 218 18187354433400431336
193761 8 18122625225726201574
19591789 44 18337390448415698431
200 152 18187653470873013871
20510252 161 18334574624817013016
21029758 11 18336551508701953489
21267235 1 18411129208495981022
21421861 104 18057041526462687187
21501502 16 18339363088176501795
221490 88 18339071704779252650
2334 1 18266458706971076256
23366157 5 17987230226159318778
23402539 116 18261963929206623071
23463225 33 18413672400629347620
23557571 272 18260819393383870604
23558518 356 18199461254475677105
23559900 14 18264213693485520946
238 59 16187800471223814941
2748010 2 18338515218629675436
2871803 45 18411705365890549615
335352 9 18194401314743747222
34934 24 18410860984236975663
350125 39 18122901190365606888
43471831 8 18341617027000282914
474 4 17058644054910970228
5104073 3 18410575101853531056
537710 114 18269267967859870437
589210 1 18122343746438705876
69090 78 18261394382109789711
7364860 26 18192149510909868654
8809292 202 18271801354161037090
9709674 26 18410849988477639415

> <PUBCHEM_SHAPE_MULTIPOLES>
345.91
6.66
3.04
0.62
1.37
0.58
0
-0.54
0
0.39
0
0.05
0.02
0

> <PUBCHEM_SHAPE_SELFOVERLAP>
746.293

> <PUBCHEM_SHAPE_VOLUME>
199.1

> <PUBCHEM_COORDINATE_TYPE>
2
5
10

$$$$

