442175
  -OEChem-07051212573D

 38 42  0     1  0  0  0  0  0999 V2000
   -2.7583    0.0712   -1.0908 O   0  0  0  0  0  0  0  0  0  0  0  0
   -1.9481   -2.6297   -0.7379 O   0  0  0  0  0  0  0  0  0  0  0  0
    1.8079   -1.3128    0.0259 O   0  0  0  0  0  0  0  0  0  0  0  0
   -2.7673    2.4536   -0.0920 O   0  0  0  0  0  0  0  0  0  0  0  0
    4.1044   -1.4751    0.0506 O   0  0  0  0  0  0  0  0  0  0  0  0
   -1.6542    0.3357   -0.2006 C   0  0  1  0  0  0  0  0  0  0  0  0
   -0.9566   -1.9903    0.0726 C   0  0  1  0  0  0  0  0  0  0  0  0
   -2.8785   -0.4862    0.2210 C   0  0  2  0  0  0  0  0  0  0  0  0
   -0.4729   -0.6234   -0.4455 C   0  0  2  0  0  0  0  0  0  0  0  0
   -2.4300   -1.9269    0.4143 C   0  0  1  0  0  0  0  0  0  0  0  0
   -1.5316    1.7806    0.2428 C   0  0  1  0  0  0  0  0  0  0  0  0
    0.8576   -0.2314    0.1929 C   0  0  2  0  0  0  0  0  0  0  0  0
   -0.1047   -2.9501    0.8123 C   0  0  0  0  0  0  0  0  0  0  0  0
    1.5330    0.9438   -0.5001 C   0  0  1  0  0  0  0  0  0  0  0  0
   -0.4380    2.5583   -0.5092 C   0  0  0  0  0  0  0  0  0  0  0  0
    1.0086    2.3104   -0.0864 C   0  0  0  0  0  0  0  0  0  0  0  0
   -1.4061    1.8950    1.7679 C   0  0  0  0  0  0  0  0  0  0  0  0
    2.9560    0.6432   -0.1604 C   0  0  0  0  0  0  0  0  0  0  0  0
    3.0798   -0.8207   -0.0065 C   0  0  0  0  0  0  0  0  0  0  0  0
    3.9989    1.4547    0.0292 C   0  0  0  0  0  0  0  0  0  0  0  0
   -3.6096   -0.0635    0.8945 H   0  0  0  0  0  0  0  0  0  0  0  0
   -0.3254   -0.7316   -1.5290 H   0  0  0  0  0  0  0  0  0  0  0  0
   -2.8112   -2.4956    1.2503 H   0  0  0  0  0  0  0  0  0  0  0  0
    0.7475   -0.0785    1.2725 H   0  0  0  0  0  0  0  0  0  0  0  0
    0.3586   -2.4940    1.6924 H   0  0  0  0  0  0  0  0  0  0  0  0
   -0.6955   -3.7961    1.1854 H   0  0  0  0  0  0  0  0  0  0  0  0
    0.6629   -3.3854    0.1653 H   0  0  0  0  0  0  0  0  0  0  0  0
    1.4403    0.8401   -1.5908 H   0  0  0  0  0  0  0  0  0  0  0  0
   -0.6328    3.6326   -0.3798 H   0  0  0  0  0  0  0  0  0  0  0  0
   -0.5395    2.3841   -1.5892 H   0  0  0  0  0  0  0  0  0  0  0  0
    1.6214    3.0816   -0.5718 H   0  0  0  0  0  0  0  0  0  0  0  0
    1.1322    2.4697    0.9910 H   0  0  0  0  0  0  0  0  0  0  0  0
   -1.3336    2.9464    2.0698 H   0  0  0  0  0  0  0  0  0  0  0  0
   -2.2994    1.4987    2.2645 H   0  0  0  0  0  0  0  0  0  0  0  0
   -0.5447    1.3619    2.1729 H   0  0  0  0  0  0  0  0  0  0  0  0
   -2.8856    2.3931   -1.0557 H   0  0  0  0  0  0  0  0  0  0  0  0
    3.9015    2.5296   -0.0741 H   0  0  0  0  0  0  0  0  0  0  0  0
    4.9795    1.0708    0.2903 H   0  0  0  0  0  0  0  0  0  0  0  0
  1  6  1  0  0  0  0
  1  8  1  0  0  0  0
  2  7  1  0  0  0  0
  2 10  1  0  0  0  0
  3 12  1  0  0  0  0
  3 19  1  0  0  0  0
  4 11  1  0  0  0  0
  4 36  1  0  0  0  0
  5 19  2  0  0  0  0
  6  8  1  0  0  0  0
  6  9  1  0  0  0  0
  6 11  1  0  0  0  0
  7  9  1  0  0  0  0
  7 10  1  0  0  0  0
  7 13  1  0  0  0  0
  8 10  1  0  0  0  0
  8 21  1  0  0  0  0
  9 12  1  0  0  0  0
  9 22  1  0  0  0  0
 10 23  1  0  0  0  0
 11 15  1  0  0  0  0
 11 17  1  0  0  0  0
 12 14  1  0  0  0  0
 12 24  1  0  0  0  0
 13 25  1  0  0  0  0
 13 26  1  0  0  0  0
 13 27  1  0  0  0  0
 14 16  1  0  0  0  0
 14 18  1  0  0  0  0
 14 28  1  0  0  0  0
 15 16  1  0  0  0  0
 15 29  1  0  0  0  0
 15 30  1  0  0  0  0
 16 31  1  0  0  0  0
 16 32  1  0  0  0  0
 17 33  1  0  0  0  0
 17 34  1  0  0  0  0
 17 35  1  0  0  0  0
 18 19  1  0  0  0  0
 18 20  2  0  0  0  0
 20 37  1  0  0  0  0
 20 38  1  0  0  0  0
M  END
> <PUBCHEM_COMPOUND_CID>
442175

> <PUBCHEM_CONFORMER_RMSD>
0.6

> <PUBCHEM_CONFORMER_DIVERSEORDER>
1
2

> <PUBCHEM_MMFF94_PARTIAL_CHARGES>
22
1 -0.3
10 0.05
11 0.38
12 0.28
13 0.09
14 0.14
18 -0.12
19 0.71
2 -0.3
20 -0.3
21 0.1
23 0.1
3 -0.43
36 0.4
37 0.15
38 0.15
4 -0.68
5 -0.57
6 -0.04
7 -0.04
8 0.05
9 0.19

> <PUBCHEM_EFFECTIVE_ROTOR_COUNT>
1.2

> <PUBCHEM_PHARMACOPHORE_FEATURES>
8
1 1 acceptor
1 2 acceptor
1 4 acceptor
1 4 donor
1 5 acceptor
5 3 12 14 18 19 rings
7 1 2 6 7 8 9 10 rings
7 6 9 11 12 14 15 16 rings

> <PUBCHEM_HEAVY_ATOM_COUNT>
20

> <PUBCHEM_ATOM_DEF_STEREO_COUNT>
8

> <PUBCHEM_ATOM_UDEF_STEREO_COUNT>
0

> <PUBCHEM_BOND_DEF_STEREO_COUNT>
0

> <PUBCHEM_BOND_UDEF_STEREO_COUNT>
0

> <PUBCHEM_ISOTOPIC_ATOM_COUNT>
0

> <PUBCHEM_COMPONENT_COUNT>
1

> <PUBCHEM_CACTVS_TAUTO_COUNT>
1

> <PUBCHEM_CONFORMER_ID>
0006BF3F00000001

> <PUBCHEM_MMFF94_ENERGY>
71.2592

> <PUBCHEM_FEATURE_SELFOVERLAP>
40.643

> <PUBCHEM_SHAPE_FINGERPRINT>
10616163 171 18337667517130107262
10967382 1 17907579486138829726
1100329 8 18192995039720409952
11578080 2 17487929794195075236
12553582 1 18123463882705282582
12592029 89 18053659458807956665
13027679 85 18048593729528767297
13140716 1 18267017435103664160
138480 1 16465865909546926013
14081887 123 18189347766514504064
1420 336 18411981347308611554
14223421 5 18335140839388703632
14790565 3 18338790230040256637
15001771 113 18194958552501811001
15196674 1 18411699880768607741
15309172 13 18194954377761970464
15442244 35 18411983598377824770
16752209 62 18338807800555395807
16945 1 18196652882660957125
19591789 44 18195522820914902375
20510252 161 18409446947078496258
20905425 154 17759515569450312468
21029758 11 18120943802265663487
21267235 1 18267857290199285326
21501502 16 18410853270327928036
21524375 3 18192711374141137773
21731228 192 18119234310507543745
2334 1 18410852187553174764
23402539 116 18261685843143796831
23419403 2 16606678804542771661
23557571 272 18189322477720567782
23559900 14 18335427855231798896
238 59 17265289881769710725
2748010 2 18267013041283425005
335352 9 18195246843812874660
34934 24 18338805494136852444
353137 74 18411704274562362739
427121 178 16303961482712139193
6992083 37 18270952552928398620
7364860 26 17615969906875140112
81228 2 18338503149824314946
8809292 202 18198341745654081762
90525 40 18338233889671589166
9709674 26 18333730251922321830

> <PUBCHEM_SHAPE_MULTIPOLES>
382.24
5.39
3.38
0.92
4.59
0.16
-0.23
0.58
0.19
-1.23
-0.36
-0.43
-0.22
-0.27

> <PUBCHEM_SHAPE_SELFOVERLAP>
845.551

> <PUBCHEM_SHAPE_VOLUME>
207.5

> <PUBCHEM_COORDINATE_TYPE>
2
5
10

$$$$

