9088
  -OEChem-06261203233D

 13 14  0     0  0  0  0  0  0999 V2000
    0.0000    0.0000    0.0000 C   0  0  0  0  0  0  0  0  0  0  0  0
    1.2415    0.5652   -0.5178 C   0  0  0  0  0  0  0  0  0  0  0  0
   -1.2415   -0.5181   -0.5649 C   0  0  0  0  0  0  0  0  0  0  0  0
   -1.2415    0.5181    0.5649 C   0  0  0  0  0  0  0  0  0  0  0  0
    1.2415   -0.5652    0.5178 C   0  0  0  0  0  0  0  0  0  0  0  0
    1.5394    1.5497   -0.1809 H   0  0  0  0  0  0  0  0  0  0  0  0
    1.5394    0.3156   -1.5279 H   0  0  0  0  0  0  0  0  0  0  0  0
   -1.5395   -1.5280   -0.3147 H   0  0  0  0  0  0  0  0  0  0  0  0
   -1.5394   -0.1817   -1.5495 H   0  0  0  0  0  0  0  0  0  0  0  0
   -1.5394    1.5281    0.3147 H   0  0  0  0  0  0  0  0  0  0  0  0
   -1.5394    0.1818    1.5495 H   0  0  0  0  0  0  0  0  0  0  0  0
    1.5395   -1.5496    0.1808 H   0  0  0  0  0  0  0  0  0  0  0  0
    1.5395   -0.3155    1.5279 H   0  0  0  0  0  0  0  0  0  0  0  0
  1  2  1  0  0  0  0
  1  3  1  0  0  0  0
  1  4  1  0  0  0  0
  1  5  1  0  0  0  0
  2  5  1  0  0  0  0
  2  6  1  0  0  0  0
  2  7  1  0  0  0  0
  3  4  1  0  0  0  0
  3  8  1  0  0  0  0
  3  9  1  0  0  0  0
  4 10  1  0  0  0  0
  4 11  1  0  0  0  0
  5 12  1  0  0  0  0
  5 13  1  0  0  0  0
M  END
> <PUBCHEM_COMPOUND_CID>
9088

> <PUBCHEM_CONFORMER_RMSD>
0.4

> <PUBCHEM_CONFORMER_DIVERSEORDER>
1

> <PUBCHEM_MMFF94_PARTIAL_CHARGES>
12
10 0.1
11 0.1
12 0.1
13 0.1
2 -0.2
3 -0.2
4 -0.2
5 -0.2
6 0.1
7 0.1
8 0.1
9 0.1

> <PUBCHEM_EFFECTIVE_ROTOR_COUNT>
0.8

> <PUBCHEM_PHARMACOPHORE_FEATURES>
0

> <PUBCHEM_HEAVY_ATOM_COUNT>
5

> <PUBCHEM_ATOM_DEF_STEREO_COUNT>
0

> <PUBCHEM_ATOM_UDEF_STEREO_COUNT>
0

> <PUBCHEM_BOND_DEF_STEREO_COUNT>
0

> <PUBCHEM_BOND_UDEF_STEREO_COUNT>
0

> <PUBCHEM_ISOTOPIC_ATOM_COUNT>
0

> <PUBCHEM_COMPONENT_COUNT>
1

> <PUBCHEM_CACTVS_TAUTO_COUNT>
1

> <PUBCHEM_CONFORMER_ID>
0000238000000001

> <PUBCHEM_MMFF94_ENERGY>
19.2221

> <PUBCHEM_FEATURE_SELFOVERLAP>
0

> <PUBCHEM_SHAPE_FINGERPRINT>
20096714 4 18340193133550929868
21015797 1 9439140748450626688
21040471 1 17459740622049679713
24536 1 18410576184174784642
29004967 10 17346314946619788792
5943 1 8536571474478104592

> <PUBCHEM_SHAPE_MULTIPOLES>
102.9
1.85
0.85
0.85
0
0
0
0
0
0.01
0
-0.01
0
-0.29

> <PUBCHEM_SHAPE_SELFOVERLAP>
202.74

> <PUBCHEM_SHAPE_VOLUME>
65.2

> <PUBCHEM_COORDINATE_TYPE>
2
5
10

$$$$

