441970
  -OEChem-07051212562D

 39 41  0     1  0  0  0  0  0999 V2000
    7.3424   -1.5374    0.0000 O   0  0  0  0  0  0  0  0  0  0  0  0
    9.9260   -0.7327    0.0000 O   0  0  0  0  0  0  0  0  0  0  0  0
    5.5301    1.2673    0.0000 O   0  0  0  0  0  0  0  0  0  0  0  0
    3.7702   -1.7673    0.0000 O   0  0  0  0  0  0  0  0  0  0  0  0
    3.7817    1.3019    0.0000 O   0  0  0  0  0  0  0  0  0  0  0  0
    7.9260   -0.7327    0.0000 C   0  0  2  0  0  0  0  0  0  0  0  0
    8.9260   -0.7327    0.0000 C   0  0  0  0  0  0  0  0  0  0  0  0
    7.3424    0.0721    0.0000 C   0  0  0  0  0  0  0  0  0  0  0  0
    6.3961   -0.2327    0.0000 C   0  0  0  0  0  0  0  0  0  0  0  0
    6.3961   -1.2327    0.0000 C   0  0  0  0  0  0  0  0  0  0  0  0
    8.9260   -1.7327    0.0000 C   0  0  0  0  0  0  0  0  0  0  0  0
    8.9260    0.2673    0.0000 C   0  0  0  0  0  0  0  0  0  0  0  0
    5.5301    0.2673    0.0000 C   0  0  0  0  0  0  0  0  0  0  0  0
    5.5301   -1.7327    0.0000 C   0  0  0  0  0  0  0  0  0  0  0  0
    4.6641   -0.2327    0.0000 C   0  0  0  0  0  0  0  0  0  0  0  0
    4.6641   -1.2327    0.0000 C   0  0  0  0  0  0  0  0  0  0  0  0
    3.7702    0.3020    0.0000 C   0  0  0  0  0  0  0  0  0  0  0  0
    2.8641   -1.2535    0.0000 C   0  0  0  0  0  0  0  0  0  0  0  0
    2.8641   -0.2119    0.0000 C   0  0  0  0  0  0  0  0  0  0  0  0
    6.3961    1.7673    0.0000 C   0  0  0  0  0  0  0  0  0  0  0  0
    2.0000   -1.7568    0.0000 C   0  0  0  0  0  0  0  0  0  0  0  0
    8.3122   -1.4899    0.0000 H   0  0  0  0  0  0  0  0  0  0  0  0
    7.8798    0.3813    0.0000 H   0  0  0  0  0  0  0  0  0  0  0  0
    7.0913    0.6390    0.0000 H   0  0  0  0  0  0  0  0  0  0  0  0
    8.3060   -1.7327    0.0000 H   0  0  0  0  0  0  0  0  0  0  0  0
    8.9260   -2.3527    0.0000 H   0  0  0  0  0  0  0  0  0  0  0  0
    9.5460   -1.7327    0.0000 H   0  0  0  0  0  0  0  0  0  0  0  0
    9.5460    0.2673    0.0000 H   0  0  0  0  0  0  0  0  0  0  0  0
    8.9260    0.8873    0.0000 H   0  0  0  0  0  0  0  0  0  0  0  0
    8.3060    0.2673    0.0000 H   0  0  0  0  0  0  0  0  0  0  0  0
    5.5301   -2.3527    0.0000 H   0  0  0  0  0  0  0  0  0  0  0  0
   10.2360   -1.2696    0.0000 H   0  0  0  0  0  0  0  0  0  0  0  0
    2.3284    0.1002    0.0000 H   0  0  0  0  0  0  0  0  0  0  0  0
    6.7062    1.2304    0.0000 H   0  0  0  0  0  0  0  0  0  0  0  0
    6.9331    2.0773    0.0000 H   0  0  0  0  0  0  0  0  0  0  0  0
    6.0862    2.3043    0.0000 H   0  0  0  0  0  0  0  0  0  0  0  0
    1.6879   -1.2211    0.0000 H   0  0  0  0  0  0  0  0  0  0  0  0
    1.4643   -2.0689    0.0000 H   0  0  0  0  0  0  0  0  0  0  0  0
    2.3121   -2.2926    0.0000 H   0  0  0  0  0  0  0  0  0  0  0  0
  1  6  1  0  0  0  0
  1 10  1  0  0  0  0
  2  7  1  0  0  0  0
  2 32  1  0  0  0  0
  3 13  1  0  0  0  0
  3 20  1  0  0  0  0
  4 16  1  0  0  0  0
  4 18  1  0  0  0  0
  5 17  2  0  0  0  0
  6  7  1  0  0  0  0
  6  8  1  0  0  0  0
  6 22  1  6  0  0  0
  7 11  1  0  0  0  0
  7 12  1  0  0  0  0
  8  9  1  0  0  0  0
  8 23  1  0  0  0  0
  8 24  1  0  0  0  0
  9 10  2  0  0  0  0
  9 13  1  0  0  0  0
 10 14  1  0  0  0  0
 11 25  1  0  0  0  0
 11 26  1  0  0  0  0
 11 27  1  0  0  0  0
 12 28  1  0  0  0  0
 12 29  1  0  0  0  0
 12 30  1  0  0  0  0
 13 15  2  0  0  0  0
 14 16  2  0  0  0  0
 14 31  1  0  0  0  0
 15 16  1  0  0  0  0
 15 17  1  0  0  0  0
 17 19  1  0  0  0  0
 18 19  2  0  0  0  0
 18 21  1  0  0  0  0
 19 33  1  0  0  0  0
 20 34  1  0  0  0  0
 20 35  1  0  0  0  0
 20 36  1  0  0  0  0
 21 37  1  0  0  0  0
 21 38  1  0  0  0  0
 21 39  1  0  0  0  0
M  END
> <PUBCHEM_COMPOUND_CID>
441970

> <PUBCHEM_COMPOUND_CANONICALIZED>
1

> <PUBCHEM_CACTVS_COMPLEXITY>
469

> <PUBCHEM_CACTVS_HBOND_ACCEPTOR>
5

> <PUBCHEM_CACTVS_HBOND_DONOR>
1

> <PUBCHEM_CACTVS_ROTATABLE_BOND>
2

> <PUBCHEM_CACTVS_SUBSKEYS>
AAADceB4OAAAAAAAAAAAAAAAAAAAASAAAAAwQAAAAAAAAEiBAAAAGgAACAAADFSgmAIyBoAABgCIAqBSAAACCAAkIAAAiAEGCMgNJzaENRqCeWCl4BULqQfI7PzOIAACCAAIAABAAAQQABAAAAAAAAAAAA==

> <PUBCHEM_IUPAC_OPENEYE_NAME>
(2S)-2-(1-hydroxy-1-methyl-ethyl)-4-methoxy-7-methyl-2,3-dihydrofuro[3,2-g]chromen-5-one

> <PUBCHEM_IUPAC_CAS_NAME>
(2S)-2-(2-hydroxypropan-2-yl)-4-methoxy-7-methyl-2,3-dihydrofuro[3,2-g][1]benzopyran-5-one

> <PUBCHEM_IUPAC_NAME>
(2S)-2-(2-hydroxypropan-2-yl)-4-methoxy-7-methyl-2,3-dihydrofuro[3,2-g]chromen-5-one

> <PUBCHEM_IUPAC_SYSTEMATIC_NAME>
(2S)-4-methoxy-7-methyl-2-(2-oxidanylpropan-2-yl)-2,3-dihydrofuro[3,2-g]chromen-5-one

> <PUBCHEM_IUPAC_TRADITIONAL_NAME>
(2S)-2-(1-hydroxy-1-methyl-ethyl)-4-methoxy-7-methyl-2,3-dihydrofuro[3,2-g]chromen-5-one

> <PUBCHEM_IUPAC_INCHI>
InChI=1S/C16H18O5/c1-8-5-10(17)14-12(20-8)7-11-9(15(14)19-4)6-13(21-11)16(2,3)18/h5,7,13,18H,6H2,1-4H3/t13-/m0/s1

> <PUBCHEM_IUPAC_INCHIKEY>
DGFLRNOCLJGHLY-ZDUSSCGKSA-N

> <PUBCHEM_XLOGP3_AA>
1.9

> <PUBCHEM_EXACT_MASS>
290.115424

> <PUBCHEM_MOLECULAR_FORMULA>
C16H18O5

> <PUBCHEM_MOLECULAR_WEIGHT>
290.31112

> <PUBCHEM_OPENEYE_CAN_SMILES>
CC1=CC(=O)C2=C(C3=C(C=C2O1)OC(C3)C(C)(C)O)OC

> <PUBCHEM_OPENEYE_ISO_SMILES>
CC1=CC(=O)C2=C(C3=C(C=C2O1)O[C@@H](C3)C(C)(C)O)OC

> <PUBCHEM_CACTVS_TPSA>
65

> <PUBCHEM_MONOISOTOPIC_WEIGHT>
290.115424

> <PUBCHEM_TOTAL_CHARGE>
0

> <PUBCHEM_HEAVY_ATOM_COUNT>
21

> <PUBCHEM_ATOM_DEF_STEREO_COUNT>
1

> <PUBCHEM_ATOM_UDEF_STEREO_COUNT>
0

> <PUBCHEM_BOND_DEF_STEREO_COUNT>
0

> <PUBCHEM_BOND_UDEF_STEREO_COUNT>
0

> <PUBCHEM_ISOTOPIC_ATOM_COUNT>
0

> <PUBCHEM_COMPONENT_COUNT>
1

> <PUBCHEM_CACTVS_TAUTO_COUNT>
3

> <PUBCHEM_COORDINATE_TYPE>
1
5
255

> <PUBCHEM_BONDANNOTATIONS>
10  14  8
13  15  8
14  16  8
15  16  8
15  17  8
17  19  8
18  19  8
4  16  8
4  18  8
6  22  6
9  10  8
9  13  8

$$$$

