14845451
  -OEChem-07051212573D

 50 52  0     1  0  0  0  0  0999 V2000
    2.7042   -1.1695   -0.5761 O   0  0  0  0  0  0  0  0  0  0  0  0
   -1.5374   -0.0218    0.2100 O   0  0  0  0  0  0  0  0  0  0  0  0
    1.9365   -0.2648   -3.1601 O   0  0  0  0  0  0  0  0  0  0  0  0
   -0.9164    2.0579    2.7359 O   0  0  0  0  0  0  0  0  0  0  0  0
    3.8166   -2.2101    1.1463 O   0  0  0  0  0  0  0  0  0  0  0  0
   -2.2884   -2.0262    1.0582 O   0  0  0  0  0  0  0  0  0  0  0  0
    0.4536    1.2261    0.8752 C   0  0  2  0  0  0  0  0  0  0  0  0
    0.4215    1.9454   -0.4976 C   0  0  2  0  0  0  0  0  0  0  0  0
   -0.2581   -0.1406    0.8552 C   0  0  2  0  0  0  0  0  0  0  0  0
    1.4816    1.4705   -1.5131 C   0  0  1  0  0  0  0  0  0  0  0  0
    0.4492   -1.3349    0.1820 C   0  0  1  0  0  0  0  0  0  0  0  0
    1.3404   -1.1388   -1.0435 C   0  0  1  0  0  0  0  0  0  0  0  0
    1.1311    0.0357   -2.0067 C   0  0  2  0  0  0  0  0  0  0  0  0
   -0.3092    2.2638    1.6961 C   0  0  0  0  0  0  0  0  0  0  0  0
    1.8354    1.1856    1.5639 C   0  0  0  0  0  0  0  0  0  0  0  0
    0.3574    3.4016   -0.1040 C   0  0  0  0  0  0  0  0  0  0  0  0
    1.4082   -2.0537    1.0767 C   0  0  0  0  0  0  0  0  0  0  0  0
    1.5533    2.4341   -2.7164 C   0  0  0  0  0  0  0  0  0  0  0  0
   -0.1458    3.6090    1.1160 C   0  0  0  0  0  0  0  0  0  0  0  0
    2.7886   -1.8610    0.5955 C   0  0  0  0  0  0  0  0  0  0  0  0
    1.1354   -2.8090    2.1438 C   0  0  0  0  0  0  0  0  0  0  0  0
   -2.2972   -1.1487    0.2066 C   0  0  0  0  0  0  0  0  0  0  0  0
   -3.1561   -1.1597   -1.0164 C   0  0  0  0  0  0  0  0  0  0  0  0
   -2.6010   -1.7677   -2.2703 C   0  0  0  0  0  0  0  0  0  0  0  0
   -4.3657   -0.5837   -0.8898 C   0  0  0  0  0  0  0  0  0  0  0  0
   -4.9379    0.0607    0.3329 C   0  0  0  0  0  0  0  0  0  0  0  0
   -0.5510    1.7803   -0.9873 H   0  0  0  0  0  0  0  0  0  0  0  0
   -0.4762   -0.4024    1.9006 H   0  0  0  0  0  0  0  0  0  0  0  0
    2.4842    1.4738   -1.0725 H   0  0  0  0  0  0  0  0  0  0  0  0
   -0.2670   -2.0936   -0.1450 H   0  0  0  0  0  0  0  0  0  0  0  0
    1.2522   -2.0477   -1.6613 H   0  0  0  0  0  0  0  0  0  0  0  0
    0.0966    0.0245   -2.3625 H   0  0  0  0  0  0  0  0  0  0  0  0
    2.2106    2.1878    1.8055 H   0  0  0  0  0  0  0  0  0  0  0  0
    1.7767    0.6433    2.5151 H   0  0  0  0  0  0  0  0  0  0  0  0
    2.6077    0.7196    0.9575 H   0  0  0  0  0  0  0  0  0  0  0  0
    0.5548    4.2190   -0.7834 H   0  0  0  0  0  0  0  0  0  0  0  0
    1.8670    3.4355   -2.4068 H   0  0  0  0  0  0  0  0  0  0  0  0
    2.2912    2.1048   -3.4550 H   0  0  0  0  0  0  0  0  0  0  0  0
    0.5828    2.5145   -3.2177 H   0  0  0  0  0  0  0  0  0  0  0  0
   -0.3803    4.5403    1.5991 H   0  0  0  0  0  0  0  0  0  0  0  0
    2.8658   -0.2715   -2.8726 H   0  0  0  0  0  0  0  0  0  0  0  0
    0.1121   -2.9542    2.4729 H   0  0  0  0  0  0  0  0  0  0  0  0
    1.9171   -3.2999    2.7135 H   0  0  0  0  0  0  0  0  0  0  0  0
   -3.3558   -1.8138   -3.0620 H   0  0  0  0  0  0  0  0  0  0  0  0
   -1.7593   -1.1804   -2.6428 H   0  0  0  0  0  0  0  0  0  0  0  0
   -2.2564   -2.7884   -2.0769 H   0  0  0  0  0  0  0  0  0  0  0  0
   -5.0135   -0.5634   -1.7642 H   0  0  0  0  0  0  0  0  0  0  0  0
   -5.1693    1.1091    0.1190 H   0  0  0  0  0  0  0  0  0  0  0  0
   -4.2777    0.0368    1.2031 H   0  0  0  0  0  0  0  0  0  0  0  0
   -5.8704   -0.4421    0.6085 H   0  0  0  0  0  0  0  0  0  0  0  0
  1 12  1  0  0  0  0
  1 20  1  0  0  0  0
  2  9  1  0  0  0  0
  2 22  1  0  0  0  0
  3 13  1  0  0  0  0
  3 41  1  0  0  0  0
  4 14  2  0  0  0  0
  5 20  2  0  0  0  0
  6 22  2  0  0  0  0
  7  8  1  0  0  0  0
  7  9  1  0  0  0  0
  7 14  1  0  0  0  0
  7 15  1  0  0  0  0
  8 10  1  0  0  0  0
  8 16  1  0  0  0  0
  8 27  1  0  0  0  0
  9 11  1  0  0  0  0
  9 28  1  0  0  0  0
 10 13  1  0  0  0  0
 10 18  1  0  0  0  0
 10 29  1  0  0  0  0
 11 12  1  0  0  0  0
 11 17  1  0  0  0  0
 11 30  1  0  0  0  0
 12 13  1  0  0  0  0
 12 31  1  0  0  0  0
 13 32  1  0  0  0  0
 14 19  1  0  0  0  0
 15 33  1  0  0  0  0
 15 34  1  0  0  0  0
 15 35  1  0  0  0  0
 16 19  2  0  0  0  0
 16 36  1  0  0  0  0
 17 20  1  0  0  0  0
 17 21  2  0  0  0  0
 18 37  1  0  0  0  0
 18 38  1  0  0  0  0
 18 39  1  0  0  0  0
 19 40  1  0  0  0  0
 21 42  1  0  0  0  0
 21 43  1  0  0  0  0
 22 23  1  0  0  0  0
 23 24  1  0  0  0  0
 23 25  2  0  0  0  0
 24 44  1  0  0  0  0
 24 45  1  0  0  0  0
 24 46  1  0  0  0  0
 25 26  1  0  0  0  0
 25 47  1  0  0  0  0
 26 48  1  0  0  0  0
 26 49  1  0  0  0  0
 26 50  1  0  0  0  0
M  END
> <PUBCHEM_COMPOUND_CID>
14845451

> <PUBCHEM_CONFORMER_RMSD>
0.8

> <PUBCHEM_CONFORMER_DIVERSEORDER>
1
6
4
5
3
2

> <PUBCHEM_MMFF94_PARTIAL_CHARGES>
29
1 -0.43
11 0.14
12 0.28
13 0.28
14 0.49
16 -0.29
17 -0.12
19 -0.14
2 -0.43
20 0.71
21 -0.3
22 0.71
23 -0.12
24 0.14
25 -0.29
26 0.14
3 -0.68
36 0.15
4 -0.57
40 0.15
41 0.4
42 0.15
43 0.15
47 0.15
5 -0.57
6 -0.57
7 0.06
8 0.14
9 0.28

> <PUBCHEM_EFFECTIVE_ROTOR_COUNT>
3.8

> <PUBCHEM_PHARMACOPHORE_FEATURES>
10
1 24 hydrophobe
1 26 hydrophobe
1 3 acceptor
1 3 donor
1 4 acceptor
1 5 acceptor
1 6 acceptor
5 1 11 12 17 20 rings
5 7 8 14 16 19 rings
7 7 8 9 10 11 12 13 rings

> <PUBCHEM_HEAVY_ATOM_COUNT>
26

> <PUBCHEM_ATOM_DEF_STEREO_COUNT>
7

> <PUBCHEM_ATOM_UDEF_STEREO_COUNT>
0

> <PUBCHEM_BOND_DEF_STEREO_COUNT>
1

> <PUBCHEM_BOND_UDEF_STEREO_COUNT>
0

> <PUBCHEM_ISOTOPIC_ATOM_COUNT>
0

> <PUBCHEM_COMPONENT_COUNT>
1

> <PUBCHEM_CACTVS_TAUTO_COUNT>
3

> <PUBCHEM_CONFORMER_ID>
00E2860B00000001

> <PUBCHEM_MMFF94_ENERGY>
97.3155

> <PUBCHEM_FEATURE_SELFOVERLAP>
50.869

> <PUBCHEM_SHAPE_FINGERPRINT>
10165383 225 17410178765570342939
11578080 2 18055097568356459332
11582403 64 16305442180750335817
12035759 4 18123722452479239044
12788726 201 18265326398888521548
13004483 165 18193295193156592890
13134695 92 18336846211629147511
13294875 104 18047197349439816484
133893 2 17975724730337844543
13583140 156 15736857110073098736
13681431 1 18260547775494195699
13911987 19 16700019839114505526
14713325 29 16335800788146992516
14817 1 7184863022193131766
15238133 3 18337942511291292579
16945 1 17974581194978630496
17876694 64 18199184181840314832
18981168 100 17631181792675817431
20567600 347 17324666387466409879
20600515 1 17748832933797728339
20905425 154 18114755849329232681
21524375 3 16959862701499074353
22112679 90 18120065502537889520
23419403 2 18050325632173036828
23526113 38 17544437926951153046
23557571 272 17677041477059981343
23559900 14 17632307735738411807
238 59 16668511911384677189
25222932 49 16384555307014021863
266924 78 17199624633413045197
2803657 2 18195780037879551420
3380486 77 18129092497587496267
35225 105 17469350452291819671
5845 1 13104712584960394578
5895379 119 17095510825755429377
81228 2 18045488966168504411

> <PUBCHEM_SHAPE_MULTIPOLES>
499.85
5.25
3.87
2.68
7.52
1.81
1.2
-2.91
0.99
-2.4
-1.62
-1.01
0.66
-1.44

> <PUBCHEM_SHAPE_SELFOVERLAP>
1068.547

> <PUBCHEM_SHAPE_VOLUME>
276.4

> <PUBCHEM_COORDINATE_TYPE>
2
5
10

$$$$

