47205128
  -OEChem-06241222583D

 34 35  0     1  0  0  0  0  0999 V2000
   -1.7445   -1.2598   -2.4428 Cl  0  0  0  0  0  0  0  0  0  0  0  0
   -0.9419   -0.0891    2.8439 Cl  0  0  0  0  0  0  0  0  0  0  0  0
   -4.9662    2.1906    0.1168 Cl  0  0  0  0  0  0  0  0  0  0  0  0
   -0.0426   -1.7037    0.2309 S   0  0  0  0  0  0  0  0  0  0  0  0
    3.4124   -0.4391    0.4182 O   0  0  0  0  0  0  0  0  0  0  0  0
    0.5778   -1.6014    1.5381 O   0  0  0  0  0  0  0  0  0  0  0  0
   -0.5073   -2.9879   -0.2575 O   0  0  0  0  0  0  0  0  0  0  0  0
    0.9779   -1.0140   -0.9361 N   0  0  0  0  0  0  0  0  0  0  0  0
    2.9801    0.3731   -0.6863 C   0  0  1  0  0  0  0  0  0  0  0  0
    1.4656    0.3777   -0.7603 C   0  0  1  0  0  0  0  0  0  0  0  0
    3.5799    1.7499   -0.4593 C   0  0  0  0  0  0  0  0  0  0  0  0
    4.8903    1.4016    0.2007 C   0  0  0  0  0  0  0  0  0  0  0  0
    4.4982    0.2305    1.0763 C   0  0  0  0  0  0  0  0  0  0  0  0
    0.9546    1.2222   -1.9209 C   0  0  0  0  0  0  0  0  0  0  0  0
   -1.4286   -0.6070    0.1984 C   0  0  0  0  0  0  0  0  0  0  0  0
   -2.1525   -0.4325   -0.9810 C   0  0  0  0  0  0  0  0  0  0  0  0
   -1.7982    0.0838    1.3525 C   0  0  0  0  0  0  0  0  0  0  0  0
   -3.2464    0.4327   -1.0064 C   0  0  0  0  0  0  0  0  0  0  0  0
   -2.8921    0.9489    1.3272 C   0  0  0  0  0  0  0  0  0  0  0  0
   -3.6162    1.1233    0.1477 C   0  0  0  0  0  0  0  0  0  0  0  0
    3.4087   -0.0774   -1.5913 H   0  0  0  0  0  0  0  0  0  0  0  0
    1.0700    0.7828    0.1784 H   0  0  0  0  0  0  0  0  0  0  0  0
    2.9680    2.3410    0.2330 H   0  0  0  0  0  0  0  0  0  0  0  0
    3.7071    2.3214   -1.3829 H   0  0  0  0  0  0  0  0  0  0  0  0
    5.6135    1.0769   -0.5569 H   0  0  0  0  0  0  0  0  0  0  0  0
    5.3329    2.2268    0.7645 H   0  0  0  0  0  0  0  0  0  0  0  0
    5.3224   -0.4707    1.2340 H   0  0  0  0  0  0  0  0  0  0  0  0
    4.1360    0.5696    2.0526 H   0  0  0  0  0  0  0  0  0  0  0  0
    1.0668   -1.4329   -1.8696 H   0  0  0  0  0  0  0  0  0  0  0  0
    1.2959    0.8254   -2.8836 H   0  0  0  0  0  0  0  0  0  0  0  0
    1.2955    2.2593   -1.8424 H   0  0  0  0  0  0  0  0  0  0  0  0
   -0.1367    1.2536   -1.9459 H   0  0  0  0  0  0  0  0  0  0  0  0
   -3.8130    0.5711   -1.9249 H   0  0  0  0  0  0  0  0  0  0  0  0
   -3.1831    1.4892    2.2257 H   0  0  0  0  0  0  0  0  0  0  0  0
  1 16  1  0  0  0  0
  2 17  1  0  0  0  0
  3 20  1  0  0  0  0
  4  6  2  0  0  0  0
  4  7  2  0  0  0  0
  4  8  1  0  0  0  0
  4 15  1  0  0  0  0
  5  9  1  0  0  0  0
  5 13  1  0  0  0  0
  8 10  1  0  0  0  0
  8 29  1  0  0  0  0
  9 10  1  0  0  0  0
  9 11  1  0  0  0  0
  9 21  1  0  0  0  0
 10 14  1  0  0  0  0
 10 22  1  0  0  0  0
 11 12  1  0  0  0  0
 11 23  1  0  0  0  0
 11 24  1  0  0  0  0
 12 13  1  0  0  0  0
 12 25  1  0  0  0  0
 12 26  1  0  0  0  0
 13 27  1  0  0  0  0
 13 28  1  0  0  0  0
 14 30  1  0  0  0  0
 14 31  1  0  0  0  0
 14 32  1  0  0  0  0
 15 16  2  0  0  0  0
 15 17  1  0  0  0  0
 16 18  1  0  0  0  0
 17 19  2  0  0  0  0
 18 20  2  0  0  0  0
 18 33  1  0  0  0  0
 19 20  1  0  0  0  0
 19 34  1  0  0  0  0
M  END
> <PUBCHEM_COMPOUND_CID>
47205128

> <PUBCHEM_CONFORMER_RMSD>
0.8

> <PUBCHEM_CONFORMER_DIVERSEORDER>
1
13
24
33
43
12
34
40
41
42
15
20
31
29
44
32
39
22
19
21
14
10
8
27
25
37
3
26
28
45
5
7
30
17
38
16
36
2
18
4
6
35
11
9
23

> <PUBCHEM_MMFF94_PARTIAL_CHARGES>
20
1 -0.18
10 0.36
13 0.28
15 -0.01
16 0.18
17 0.18
18 -0.15
19 -0.15
2 -0.18
20 0.18
29 0.42
3 -0.18
33 0.15
34 0.15
4 1.45
5 -0.56
6 -0.65
7 -0.65
8 -0.91
9 0.28

> <PUBCHEM_EFFECTIVE_ROTOR_COUNT>
5

> <PUBCHEM_PHARMACOPHORE_FEATURES>
6
1 5 acceptor
1 6 acceptor
1 7 acceptor
1 8 donor
5 5 9 11 12 13 rings
6 15 16 17 18 19 20 rings

> <PUBCHEM_HEAVY_ATOM_COUNT>
20

> <PUBCHEM_ATOM_DEF_STEREO_COUNT>
0

> <PUBCHEM_ATOM_UDEF_STEREO_COUNT>
2

> <PUBCHEM_BOND_DEF_STEREO_COUNT>
0

> <PUBCHEM_BOND_UDEF_STEREO_COUNT>
0

> <PUBCHEM_ISOTOPIC_ATOM_COUNT>
0

> <PUBCHEM_COMPONENT_COUNT>
1

> <PUBCHEM_CACTVS_TAUTO_COUNT>
1

> <PUBCHEM_CONFORMER_ID>
02D04B0800000001

> <PUBCHEM_MMFF94_ENERGY>
40.4567

> <PUBCHEM_FEATURE_SELFOVERLAP>
30.464

> <PUBCHEM_SHAPE_FINGERPRINT>
10498660 4 16298386829862984712
11640471 11 18187924014408778795
11961588 58 17313968384246845133
12011746 2 14692304936372909559
12633257 1 16487244470119367461
12788726 201 17976266733604667710
12892183 10 16772938217037346400
13004483 165 16768989754860227691
13675066 3 16343714214034894124
14142880 1 18200878374987989879
14251764 30 11455891399157903768
14251764 38 17753065903346903648
14790565 3 14637367958419075883
15061688 2 18335699459524317717
15209289 33 12103846756679916552
15534591 1 18334859398497398919
17492 54 14129351697106788205
1813 80 10807929396819563058
19765921 60 18187085083042875667
20112054 13 18201997724758547500
20291156 8 10663811962539017197
20344682 6 14562529626059253837
20645476 183 18040726900305400279
20871999 31 15719392858688032313
212916 134 18336276690375847840
21339142 149 18041560221980453726
21452121 103 17773036582408329213
21475661 188 17630889502829524573
21731228 192 17418088810786382555
21731516 1 11527669605503868374
22950370 63 9655573032546827393
23184049 59 18060421322169167052
23503958 8 11887681692442808053
23557571 272 16515960350692458668
23559900 14 16370723743072825846
2838139 119 18197228146935275085
3286 77 17559946637382363637
3472631 163 17967254208569139873
394222 165 17971469848093385771
4028521 119 17312820480826821664
4340502 62 18342446080938353115
465052 167 12103258540024645849
474 4 18409164449962690570
598444 67 15913336792178454799
633830 44 18341895186609991590
6992083 37 17987800692194128190
7097593 13 15409749385789090572
7970288 3 10159690283540899425
90316 7 14692563300209592231
9981440 41 17676492718196068270

> <PUBCHEM_SHAPE_MULTIPOLES>
398.46
8.42
2.16
2.1
4.72
0.47
-0.42
-4.27
5.17
-1.54
-0.52
-0.05
-0.04
0.24

> <PUBCHEM_SHAPE_SELFOVERLAP>
793.673

> <PUBCHEM_SHAPE_VOLUME>
239

> <PUBCHEM_COORDINATE_TYPE>
2
5
10

$$$$

