656646
  -OEChem-07051213032D

 73 69  0     1  0  0  0  0  0999 V2000
    8.5991    1.6550    0.0000 Fe  0  1  0  0  0  0  0  0  0  0  0  0
    5.1350    4.6550    0.0000 O   0  0  0  0  0  0  0  0  0  0  0  0
   12.9292    3.1550    0.0000 O   0  0  0  0  0  0  0  0  0  0  0  0
    7.7331   -2.8450    0.0000 O   0  0  0  0  0  0  0  0  0  0  0  0
    6.0010    2.1550    0.0000 O   0  0  0  0  0  0  0  0  0  0  0  0
   12.0632    0.6550    0.0000 O   0  0  0  0  0  0  0  0  0  0  0  0
    6.0010   -0.8450    0.0000 O   0  0  0  0  0  0  0  0  0  0  0  0
    4.2690    2.1550    0.0000 O   0  0  0  0  0  0  0  0  0  0  0  0
   13.7953    0.6550    0.0000 O   0  0  0  0  0  0  0  0  0  0  0  0
    5.1350   -2.3450    0.0000 O   0  0  0  0  0  0  0  0  0  0  0  0
    6.8671    4.6550    0.0000 O   0  0  0  0  0  0  0  0  0  0  0  0
   11.1972    3.1550    0.0000 O   0  0  0  0  0  0  0  0  0  0  0  0
    8.5991   -1.3450    0.0000 O   0  0  0  0  0  0  0  0  0  0  0  0
    2.5369    3.1550    0.0000 O   0  0  0  0  0  0  0  0  0  0  0  0
   15.5273    1.6550    0.0000 O   0  0  0  0  0  0  0  0  0  0  0  0
    5.1350   -4.3450    0.0000 O   0  0  0  0  0  0  0  0  0  0  0  0
    7.7331    2.1550    0.0000 O   0  5  0  0  0  0  0  0  0  0  0  0
    8.5991    3.6550    0.0000 O   0  0  0  0  0  0  0  0  0  0  0  0
    9.4651    2.1550    0.0000 O   0  5  0  0  0  0  0  0  0  0  0  0
    8.5991    0.6550    0.0000 O   0  5  0  0  0  0  0  0  0  0  0  0
   10.3312    0.6550    0.0000 O   0  0  0  0  0  0  0  0  0  0  0  0
    6.8671    0.6550    0.0000 O   0  0  0  0  0  0  0  0  0  0  0  0
    5.1350    3.6550    0.0000 C   0  0  1  0  0  0  0  0  0  0  0  0
   12.9292    2.1550    0.0000 C   0  0  1  0  0  0  0  0  0  0  0  0
    6.8671   -2.3450    0.0000 C   0  0  1  0  0  0  0  0  0  0  0  0
    6.0010    3.1550    0.0000 C   0  0  1  0  0  0  0  0  0  0  0  0
   12.0632    1.6550    0.0000 C   0  0  1  0  0  0  0  0  0  0  0  0
    6.8671   -1.3450    0.0000 C   0  0  1  0  0  0  0  0  0  0  0  0
    4.2690    3.1550    0.0000 C   0  0  1  0  0  0  0  0  0  0  0  0
   13.7953    1.6550    0.0000 C   0  0  1  0  0  0  0  0  0  0  0  0
    6.0010   -2.8450    0.0000 C   0  0  1  0  0  0  0  0  0  0  0  0
    6.8671    3.6550    0.0000 C   0  0  2  0  0  0  0  0  0  0  0  0
   11.1972    2.1550    0.0000 C   0  0  2  0  0  0  0  0  0  0  0  0
    7.7331   -0.8450    0.0000 C   0  0  2  0  0  0  0  0  0  0  0  0
    3.4030    3.6550    0.0000 C   0  0  0  0  0  0  0  0  0  0  0  0
   14.6613    2.1550    0.0000 C   0  0  0  0  0  0  0  0  0  0  0  0
    6.0010   -3.8450    0.0000 C   0  0  0  0  0  0  0  0  0  0  0  0
    7.7331    3.1550    0.0000 C   0  0  0  0  0  0  0  0  0  0  0  0
   10.3312    1.6550    0.0000 C   0  0  0  0  0  0  0  0  0  0  0  0
    7.7331    0.1550    0.0000 C   0  0  0  0  0  0  0  0  0  0  0  0
    5.6720    3.9650    0.0000 H   0  0  0  0  0  0  0  0  0  0  0  0
   12.3923    2.4650    0.0000 H   0  0  0  0  0  0  0  0  0  0  0  0
    7.4040   -2.0350    0.0000 H   0  0  0  0  0  0  0  0  0  0  0  0
    6.5380    2.8450    0.0000 H   0  0  0  0  0  0  0  0  0  0  0  0
   12.6002    1.3450    0.0000 H   0  0  0  0  0  0  0  0  0  0  0  0
    6.3301   -1.6550    0.0000 H   0  0  0  0  0  0  0  0  0  0  0  0
    4.8059    2.8450    0.0000 H   0  0  0  0  0  0  0  0  0  0  0  0
   14.3322    1.3450    0.0000 H   0  0  0  0  0  0  0  0  0  0  0  0
    5.4641   -3.1550    0.0000 H   0  0  0  0  0  0  0  0  0  0  0  0
    6.3301    3.9650    0.0000 H   0  0  0  0  0  0  0  0  0  0  0  0
   10.6603    2.4650    0.0000 H   0  0  0  0  0  0  0  0  0  0  0  0
    7.7331   -1.4650    0.0000 H   0  0  0  0  0  0  0  0  0  0  0  0
    3.8015    4.1300    0.0000 H   0  0  0  0  0  0  0  0  0  0  0  0
    3.0044    4.1300    0.0000 H   0  0  0  0  0  0  0  0  0  0  0  0
   15.0598    2.6300    0.0000 H   0  0  0  0  0  0  0  0  0  0  0  0
   14.2628    2.6300    0.0000 H   0  0  0  0  0  0  0  0  0  0  0  0
    6.2131   -4.4276    0.0000 H   0  0  0  0  0  0  0  0  0  0  0  0
    6.6116   -3.7373    0.0000 H   0  0  0  0  0  0  0  0  0  0  0  0
    4.5981    4.9650    0.0000 H   0  0  0  0  0  0  0  0  0  0  0  0
   13.4662    3.4650    0.0000 H   0  0  0  0  0  0  0  0  0  0  0  0
    7.7331   -3.4650    0.0000 H   0  0  0  0  0  0  0  0  0  0  0  0
    5.4641    1.8450    0.0000 H   0  0  0  0  0  0  0  0  0  0  0  0
   11.5263    0.3450    0.0000 H   0  0  0  0  0  0  0  0  0  0  0  0
    5.4641   -1.1550    0.0000 H   0  0  0  0  0  0  0  0  0  0  0  0
    3.7320    1.8450    0.0000 H   0  0  0  0  0  0  0  0  0  0  0  0
   14.3322    0.3450    0.0000 H   0  0  0  0  0  0  0  0  0  0  0  0
    4.5981   -2.6550    0.0000 H   0  0  0  0  0  0  0  0  0  0  0  0
    6.3301    4.9650    0.0000 H   0  0  0  0  0  0  0  0  0  0  0  0
   10.6603    3.4650    0.0000 H   0  0  0  0  0  0  0  0  0  0  0  0
    8.5991   -1.9650    0.0000 H   0  0  0  0  0  0  0  0  0  0  0  0
    2.0000    3.4650    0.0000 H   0  0  0  0  0  0  0  0  0  0  0  0
   16.0643    1.9650    0.0000 H   0  0  0  0  0  0  0  0  0  0  0  0
    5.1350   -4.9650    0.0000 H   0  0  0  0  0  0  0  0  0  0  0  0
 23  2  1  1  0  0  0
  2 59  1  0  0  0  0
 24  3  1  6  0  0  0
  3 60  1  0  0  0  0
 25  4  1  6  0  0  0
  4 61  1  0  0  0  0
 26  5  1  1  0  0  0
  5 62  1  0  0  0  0
 27  6  1  6  0  0  0
  6 63  1  0  0  0  0
 28  7  1  6  0  0  0
  7 64  1  0  0  0  0
 29  8  1  6  0  0  0
  8 65  1  0  0  0  0
 30  9  1  1  0  0  0
  9 66  1  0  0  0  0
 31 10  1  1  0  0  0
 10 67  1  0  0  0  0
 32 11  1  1  0  0  0
 11 68  1  0  0  0  0
 33 12  1  6  0  0  0
 12 69  1  0  0  0  0
 34 13  1  6  0  0  0
 13 70  1  0  0  0  0
 14 35  1  0  0  0  0
 14 71  1  0  0  0  0
 15 36  1  0  0  0  0
 15 72  1  0  0  0  0
 16 37  1  0  0  0  0
 16 73  1  0  0  0  0
 17 38  1  0  0  0  0
 18 38  2  0  0  0  0
 19 39  1  0  0  0  0
 20 40  1  0  0  0  0
 21 39  2  0  0  0  0
 22 40  2  0  0  0  0
 23 26  1  0  0  0  0
 23 29  1  0  0  0  0
 23 41  1  0  0  0  0
 24 27  1  0  0  0  0
 24 30  1  0  0  0  0
 24 42  1  0  0  0  0
 25 28  1  0  0  0  0
 25 31  1  0  0  0  0
 25 43  1  0  0  0  0
 26 32  1  0  0  0  0
 26 44  1  0  0  0  0
 27 33  1  0  0  0  0
 27 45  1  0  0  0  0
 28 34  1  0  0  0  0
 28 46  1  0  0  0  0
 29 35  1  0  0  0  0
 29 47  1  0  0  0  0
 30 36  1  0  0  0  0
 30 48  1  0  0  0  0
 31 37  1  0  0  0  0
 31 49  1  0  0  0  0
 32 38  1  0  0  0  0
 32 50  1  0  0  0  0
 33 39  1  0  0  0  0
 33 51  1  0  0  0  0
 34 40  1  0  0  0  0
 34 52  1  0  0  0  0
 35 53  1  0  0  0  0
 35 54  1  0  0  0  0
 36 55  1  0  0  0  0
 36 56  1  0  0  0  0
 37 57  1  0  0  0  0
 37 58  1  0  0  0  0
M  CHG  4   1   3  17  -1  19  -1  20  -1
M  END
> <PUBCHEM_COMPOUND_CID>
656646

> <PUBCHEM_COMPOUND_CANONICALIZED>
1

> <PUBCHEM_CACTVS_COMPLEXITY>
165

> <PUBCHEM_CACTVS_HBOND_ACCEPTOR>
21

> <PUBCHEM_CACTVS_HBOND_DONOR>
15

> <PUBCHEM_CACTVS_ROTATABLE_BOND>
12

> <PUBCHEM_CACTVS_SUBSKEYS>
AAADcfB4PgAAAAAgAAAAAAAAAAAAAAAAAAAAAAAAAAAAAAAAAAAAGgAACAAACBSggAIACAAAAgAIAACQCAIAAAAAAAAAAAFAAAABEBYAAAAAQAAFIAABAAHKbARAAAAAAAAAAAAAAAAAAAAAAAAAAAAAAA==

> <PUBCHEM_IUPAC_OPENEYE_NAME>
ferric (2R,3S,4R,5R)-2,3,4,5,6-pentahydroxyhexanoate

> <PUBCHEM_IUPAC_CAS_NAME>
iron(3+); (2R,3S,4R,5R)-2,3,4,5,6-pentahydroxyhexanoate

> <PUBCHEM_IUPAC_NAME>
iron(3+); (2R,3S,4R,5R)-2,3,4,5,6-pentahydroxyhexanoate

> <PUBCHEM_IUPAC_SYSTEMATIC_NAME>
iron(3+); (2R,3S,4R,5R)-2,3,4,5,6-pentakis(oxidanyl)hexanoate

> <PUBCHEM_IUPAC_TRADITIONAL_NAME>
ferric (2R,3S,4R,5R)-2,3,4,5,6-pentahydroxyhexanoate

> <PUBCHEM_IUPAC_INCHI>
InChI=1S/3C6H12O7.Fe/c3*7-1-2(8)3(9)4(10)5(11)6(12)13;/h3*2-5,7-11H,1H2,(H,12,13);/q;;;+3/p-3/t3*2-,3-,4+,5-;/m111./s1

> <PUBCHEM_IUPAC_INCHIKEY>
CZNVSLGYWMSMKE-OPDGVEILSA-K

> <PUBCHEM_EXACT_MASS>
641.086371

> <PUBCHEM_MOLECULAR_FORMULA>
C18H33FeO21

> <PUBCHEM_MOLECULAR_WEIGHT>
641.28702

> <PUBCHEM_OPENEYE_CAN_SMILES>
C(C(C(C(C(C(=O)[O-])O)O)O)O)O.C(C(C(C(C(C(=O)[O-])O)O)O)O)O.C(C(C(C(C(C(=O)[O-])O)O)O)O)O.[Fe+3]

> <PUBCHEM_OPENEYE_ISO_SMILES>
C([C@H]([C@H]([C@@H]([C@H](C(=O)[O-])O)O)O)O)O.C([C@H]([C@H]([C@@H]([C@H](C(=O)[O-])O)O)O)O)O.C([C@H]([C@H]([C@@H]([C@H](C(=O)[O-])O)O)O)O)O.[Fe+3]

> <PUBCHEM_CACTVS_TPSA>
424

> <PUBCHEM_MONOISOTOPIC_WEIGHT>
641.086371

> <PUBCHEM_TOTAL_CHARGE>
0

> <PUBCHEM_HEAVY_ATOM_COUNT>
40

> <PUBCHEM_ATOM_DEF_STEREO_COUNT>
12

> <PUBCHEM_ATOM_UDEF_STEREO_COUNT>
0

> <PUBCHEM_BOND_DEF_STEREO_COUNT>
0

> <PUBCHEM_BOND_UDEF_STEREO_COUNT>
0

> <PUBCHEM_ISOTOPIC_ATOM_COUNT>
0

> <PUBCHEM_COMPONENT_COUNT>
4

> <PUBCHEM_CACTVS_TAUTO_COUNT>
1

> <PUBCHEM_COORDINATE_TYPE>
1
5
255

> <PUBCHEM_BONDANNOTATIONS>
31  10  5
32  11  5
33  12  6
34  13  6
23  2  5
24  3  6
25  4  6
26  5  5
27  6  6
28  7  6
29  8  6
30  9  5

$$$$

