853875
  -OEChem-06241222452D

 38 41  0     1  0  0  0  0  0999 V2000
    4.6660   -2.2991    0.0000 O   0  0  0  0  0  0  0  0  0  0  0  0
    4.6660    0.7009    0.0000 N   0  0  3  0  0  0  0  0  0  0  0  0
    5.5321    0.2009    0.0000 C   0  0  1  0  0  0  0  0  0  0  0  0
    3.8000    0.2009    0.0000 C   0  0  0  0  0  0  0  0  0  0  0  0
    5.5321   -0.7991    0.0000 C   0  0  0  0  0  0  0  0  0  0  0  0
    3.8000   -0.7991    0.0000 C   0  0  0  0  0  0  0  0  0  0  0  0
    4.6500    1.7424    0.0000 C   0  0  0  0  0  0  0  0  0  0  0  0
    2.9061    0.7356    0.0000 C   0  0  0  0  0  0  0  0  0  0  0  0
    6.4421    0.7078    0.0000 C   0  0  0  0  0  0  0  0  0  0  0  0
    2.9061   -1.3338    0.0000 C   0  0  0  0  0  0  0  0  0  0  0  0
    5.5480    2.2702    0.0000 C   0  0  0  0  0  0  0  0  0  0  0  0
    2.0000    0.2217    0.0000 C   0  0  0  0  0  0  0  0  0  0  0  0
    4.6660   -1.2991    0.0000 C   0  0  0  0  0  0  0  0  0  0  0  0
    2.0000   -0.8199    0.0000 C   0  0  0  0  0  0  0  0  0  0  0  0
    6.4501    1.7494    0.0000 C   0  0  0  0  0  0  0  0  0  0  0  0
    7.3689    0.1437    0.0000 C   0  0  0  0  0  0  0  0  0  0  0  0
    7.3855    2.2991    0.0000 C   0  0  0  0  0  0  0  0  0  0  0  0
    8.3168    0.6716    0.0000 C   0  0  0  0  0  0  0  0  0  0  0  0
    8.3252    1.7566    0.0000 C   0  0  0  0  0  0  0  0  0  0  0  0
    6.2649   -0.2297    0.0000 H   0  0  0  0  0  0  0  0  0  0  0  0
    5.7441   -1.3817    0.0000 H   0  0  0  0  0  0  0  0  0  0  0  0
    6.1426   -0.6914    0.0000 H   0  0  0  0  0  0  0  0  0  0  0  0
    4.4319    2.3228    0.0000 H   0  0  0  0  0  0  0  0  0  0  0  0
    4.0408    1.6269    0.0000 H   0  0  0  0  0  0  0  0  0  0  0  0
    3.3107    1.2054    0.0000 H   0  0  0  0  0  0  0  0  0  0  0  0
    2.5124    1.2146    0.0000 H   0  0  0  0  0  0  0  0  0  0  0  0
    2.5124   -1.8128    0.0000 H   0  0  0  0  0  0  0  0  0  0  0  0
    3.3107   -1.8035    0.0000 H   0  0  0  0  0  0  0  0  0  0  0  0
    5.9453    2.7462    0.0000 H   0  0  0  0  0  0  0  0  0  0  0  0
    5.1470    2.7431    0.0000 H   0  0  0  0  0  0  0  0  0  0  0  0
    1.7909    0.8054    0.0000 H   0  0  0  0  0  0  0  0  0  0  0  0
    1.3891    0.1156    0.0000 H   0  0  0  0  0  0  0  0  0  0  0  0
    1.3891   -0.7138    0.0000 H   0  0  0  0  0  0  0  0  0  0  0  0
    1.7909   -1.4036    0.0000 H   0  0  0  0  0  0  0  0  0  0  0  0
    7.3570   -0.4762    0.0000 H   0  0  0  0  0  0  0  0  0  0  0  0
    7.3831    2.9191    0.0000 H   0  0  0  0  0  0  0  0  0  0  0  0
    8.8501    0.3554    0.0000 H   0  0  0  0  0  0  0  0  0  0  0  0
    8.8633    2.0645    0.0000 H   0  0  0  0  0  0  0  0  0  0  0  0
  1 13  2  0  0  0  0
  2  3  1  0  0  0  0
  2  4  1  0  0  0  0
  2  7  1  0  0  0  0
  3  5  1  0  0  0  0
  3  9  1  0  0  0  0
  3 20  1  1  0  0  0
  4  6  2  0  0  0  0
  4  8  1  0  0  0  0
  5 13  1  0  0  0  0
  5 21  1  0  0  0  0
  5 22  1  0  0  0  0
  6 10  1  0  0  0  0
  6 13  1  0  0  0  0
  7 11  1  0  0  0  0
  7 23  1  0  0  0  0
  7 24  1  0  0  0  0
  8 12  1  0  0  0  0
  8 25  1  0  0  0  0
  8 26  1  0  0  0  0
  9 15  1  0  0  0  0
  9 16  2  0  0  0  0
 10 14  1  0  0  0  0
 10 27  1  0  0  0  0
 10 28  1  0  0  0  0
 11 15  1  0  0  0  0
 11 29  1  0  0  0  0
 11 30  1  0  0  0  0
 12 14  1  0  0  0  0
 12 31  1  0  0  0  0
 12 32  1  0  0  0  0
 14 33  1  0  0  0  0
 14 34  1  0  0  0  0
 15 17  2  0  0  0  0
 16 18  1  0  0  0  0
 16 35  1  0  0  0  0
 17 19  1  0  0  0  0
 17 36  1  0  0  0  0
 18 19  2  0  0  0  0
 18 37  1  0  0  0  0
 19 38  1  0  0  0  0
M  END
> <PUBCHEM_COMPOUND_CID>
853875

> <PUBCHEM_COMPOUND_CANONICALIZED>
1

> <PUBCHEM_CACTVS_COMPLEXITY>
425

> <PUBCHEM_CACTVS_HBOND_ACCEPTOR>
2

> <PUBCHEM_CACTVS_HBOND_DONOR>
0

> <PUBCHEM_CACTVS_ROTATABLE_BOND>
0

> <PUBCHEM_CACTVS_SUBSKEYS>
AAADceB6IAAAAAAAAAAAAAAAAAAAAAAAAAA8QIEAAAAAAACxAAAAHgAAAAAADCzBmAQwAIMAAACIAqRSQACCAAAgAAAIiAEIBMgIIDqAkRGEIAhggACIiUcYiMCOgAAAAAAQAAAAAAAAACAAAAAAAAAAAA==

> <PUBCHEM_IUPAC_OPENEYE_NAME>
(11bS)-1,2,3,4,6,7,11b,12-octahydroisoquinolino[2,1-a]quinolin-13-one

> <PUBCHEM_IUPAC_CAS_NAME>
(11bS)-1,2,3,4,6,7,11b,12-octahydroisoquinolino[2,1-a]quinolin-13-one

> <PUBCHEM_IUPAC_NAME>
(11bS)-1,2,3,4,6,7,11b,12-octahydroisoquinolino[2,1-a]quinolin-13-one

> <PUBCHEM_IUPAC_SYSTEMATIC_NAME>
(11bS)-1,2,3,4,6,7,11b,12-octahydroisoquinolino[2,1-a]quinolin-13-one

> <PUBCHEM_IUPAC_TRADITIONAL_NAME>
(11bS)-1,2,3,4,6,7,11b,12-octahydroisoquinolino[2,1-a]quinolin-13-one

> <PUBCHEM_IUPAC_INCHI>
InChI=1S/C17H19NO/c19-17-11-16-13-6-2-1-5-12(13)9-10-18(16)15-8-4-3-7-14(15)17/h1-2,5-6,16H,3-4,7-11H2/t16-/m0/s1

> <PUBCHEM_IUPAC_INCHIKEY>
DQGJCVQOGLJWMY-INIZCTEOSA-N

> <PUBCHEM_XLOGP3_AA>
2.9

> <PUBCHEM_EXACT_MASS>
253.146664

> <PUBCHEM_MOLECULAR_FORMULA>
C17H19NO

> <PUBCHEM_MOLECULAR_WEIGHT>
253.33886

> <PUBCHEM_OPENEYE_CAN_SMILES>
C1CCC2=C(C1)C(=O)CC3N2CCC4=CC=CC=C34

> <PUBCHEM_OPENEYE_ISO_SMILES>
C1CCC2=C(C1)C(=O)C[C@@H]3N2CCC4=CC=CC=C34

> <PUBCHEM_CACTVS_TPSA>
20.3

> <PUBCHEM_MONOISOTOPIC_WEIGHT>
253.146664

> <PUBCHEM_TOTAL_CHARGE>
0

> <PUBCHEM_HEAVY_ATOM_COUNT>
19

> <PUBCHEM_ATOM_DEF_STEREO_COUNT>
1

> <PUBCHEM_ATOM_UDEF_STEREO_COUNT>
0

> <PUBCHEM_BOND_DEF_STEREO_COUNT>
0

> <PUBCHEM_BOND_UDEF_STEREO_COUNT>
0

> <PUBCHEM_ISOTOPIC_ATOM_COUNT>
0

> <PUBCHEM_COMPONENT_COUNT>
1

> <PUBCHEM_CACTVS_TAUTO_COUNT>
5

> <PUBCHEM_COORDINATE_TYPE>
1
5
255

> <PUBCHEM_BONDANNOTATIONS>
15  17  8
16  18  8
17  19  8
18  19  8
3  20  5
9  15  8
9  16  8

$$$$

