17396313
  -OEChem-06241222552D

 47 48  0     0  0  0  0  0  0999 V2000
    6.3301   -1.2125    0.0000 S   0  0  0  0  0  0  0  0  0  0  0  0
    8.0622   -2.2125    0.0000 O   0  0  0  0  0  0  0  0  0  0  0  0
    9.8298    2.2125    0.0000 O   0  0  0  0  0  0  0  0  0  0  0  0
    9.8418   -1.1192    0.0000 N   0  0  0  0  0  0  0  0  0  0  0  0
    4.5981   -1.2125    0.0000 N   0  0  0  0  0  0  0  0  0  0  0  0
    3.7320    0.2875    0.0000 N   0  0  0  0  0  0  0  0  0  0  0  0
    9.0327    0.2820    0.0000 C   0  0  0  0  0  0  0  0  0  0  0  0
    8.9282   -0.7125    0.0000 C   0  0  0  0  0  0  0  0  0  0  0  0
   10.0109    0.4899    0.0000 C   0  0  0  0  0  0  0  0  0  0  0  0
   10.5109   -0.3761    0.0000 C   0  0  0  0  0  0  0  0  0  0  0  0
    2.8660   -1.2125    0.0000 C   0  0  0  0  0  0  0  0  0  0  0  0
    8.0622   -1.2125    0.0000 C   0  0  0  0  0  0  0  0  0  0  0  0
    8.2896    0.9512    0.0000 C   0  0  0  0  0  0  0  0  0  0  0  0
   11.5054   -0.4806    0.0000 C   0  0  0  0  0  0  0  0  0  0  0  0
   10.4176    1.4035    0.0000 C   0  0  0  0  0  0  0  0  0  0  0  0
    7.1962   -0.7125    0.0000 C   0  0  0  0  0  0  0  0  0  0  0  0
    3.7320   -0.7125    0.0000 C   0  0  0  0  0  0  0  0  0  0  0  0
    2.0000   -0.7125    0.0000 C   0  0  0  0  0  0  0  0  0  0  0  0
    2.8660   -2.2125    0.0000 C   0  0  0  0  0  0  0  0  0  0  0  0
    5.4641   -0.7125    0.0000 C   0  0  0  0  0  0  0  0  0  0  0  0
   11.4121    1.5080    0.0000 C   0  0  0  0  0  0  0  0  0  0  0  0
    4.5981    0.7875    0.0000 C   0  0  0  0  0  0  0  0  0  0  0  0
    5.4641    0.2875    0.0000 C   0  0  0  0  0  0  0  0  0  0  0  0
    4.5981    1.7875    0.0000 C   0  0  0  0  0  0  0  0  0  0  0  0
    9.9706   -1.7257    0.0000 H   0  0  0  0  0  0  0  0  0  0  0  0
    3.4030   -1.5225    0.0000 H   0  0  0  0  0  0  0  0  0  0  0  0
    8.7044    1.4119    0.0000 H   0  0  0  0  0  0  0  0  0  0  0  0
    7.8288    1.3660    0.0000 H   0  0  0  0  0  0  0  0  0  0  0  0
    7.8747    0.4904    0.0000 H   0  0  0  0  0  0  0  0  0  0  0  0
   11.4406   -1.0972    0.0000 H   0  0  0  0  0  0  0  0  0  0  0  0
   12.1220   -0.5454    0.0000 H   0  0  0  0  0  0  0  0  0  0  0  0
   11.5702    0.1360    0.0000 H   0  0  0  0  0  0  0  0  0  0  0  0
    7.5947   -0.2376    0.0000 H   0  0  0  0  0  0  0  0  0  0  0  0
    6.7976   -0.2376    0.0000 H   0  0  0  0  0  0  0  0  0  0  0  0
    2.3100   -0.1756    0.0000 H   0  0  0  0  0  0  0  0  0  0  0  0
    1.4631   -0.4025    0.0000 H   0  0  0  0  0  0  0  0  0  0  0  0
    1.6900   -1.2494    0.0000 H   0  0  0  0  0  0  0  0  0  0  0  0
    2.2460   -2.2125    0.0000 H   0  0  0  0  0  0  0  0  0  0  0  0
    2.8660   -2.8325    0.0000 H   0  0  0  0  0  0  0  0  0  0  0  0
    3.4860   -2.2125    0.0000 H   0  0  0  0  0  0  0  0  0  0  0  0
   11.4769    0.8914    0.0000 H   0  0  0  0  0  0  0  0  0  0  0  0
   12.0287    1.5728    0.0000 H   0  0  0  0  0  0  0  0  0  0  0  0
   11.3473    2.1246    0.0000 H   0  0  0  0  0  0  0  0  0  0  0  0
    6.0010    0.5975    0.0000 H   0  0  0  0  0  0  0  0  0  0  0  0
    5.2181    1.7875    0.0000 H   0  0  0  0  0  0  0  0  0  0  0  0
    4.5981    2.4075    0.0000 H   0  0  0  0  0  0  0  0  0  0  0  0
    3.9781    1.7875    0.0000 H   0  0  0  0  0  0  0  0  0  0  0  0
  1 16  1  0  0  0  0
  1 20  1  0  0  0  0
  2 12  2  0  0  0  0
  3 15  2  0  0  0  0
  4  8  1  0  0  0  0
  4 10  1  0  0  0  0
  4 25  1  0  0  0  0
  5 17  1  0  0  0  0
  5 20  2  0  0  0  0
  6 17  2  0  0  0  0
  6 22  1  0  0  0  0
  7  8  2  0  0  0  0
  7  9  1  0  0  0  0
  7 13  1  0  0  0  0
  8 12  1  0  0  0  0
  9 10  2  0  0  0  0
  9 15  1  0  0  0  0
 10 14  1  0  0  0  0
 11 17  1  0  0  0  0
 11 18  1  0  0  0  0
 11 19  1  0  0  0  0
 11 26  1  0  0  0  0
 12 16  1  0  0  0  0
 13 27  1  0  0  0  0
 13 28  1  0  0  0  0
 13 29  1  0  0  0  0
 14 30  1  0  0  0  0
 14 31  1  0  0  0  0
 14 32  1  0  0  0  0
 15 21  1  0  0  0  0
 16 33  1  0  0  0  0
 16 34  1  0  0  0  0
 18 35  1  0  0  0  0
 18 36  1  0  0  0  0
 18 37  1  0  0  0  0
 19 38  1  0  0  0  0
 19 39  1  0  0  0  0
 19 40  1  0  0  0  0
 20 23  1  0  0  0  0
 21 41  1  0  0  0  0
 21 42  1  0  0  0  0
 21 43  1  0  0  0  0
 22 23  2  0  0  0  0
 22 24  1  0  0  0  0
 23 44  1  0  0  0  0
 24 45  1  0  0  0  0
 24 46  1  0  0  0  0
 24 47  1  0  0  0  0
M  END
> <PUBCHEM_COMPOUND_CID>
17396313

> <PUBCHEM_COMPOUND_CANONICALIZED>
1

> <PUBCHEM_CACTVS_COMPLEXITY>
471

> <PUBCHEM_CACTVS_HBOND_ACCEPTOR>
5

> <PUBCHEM_CACTVS_HBOND_DONOR>
1

> <PUBCHEM_CACTVS_ROTATABLE_BOND>
6

> <PUBCHEM_CACTVS_SUBSKEYS>
AAADceB7MABAAAAAAAAAAAAAAAAAAWAAAAAsAAAAAAAAAAAB4AAAHgQQAAAADQyF3wCzkZbJkAioA6ZyZACC0ClnCrABmTmwZNiIKHrg3fGEBYxokALoyWcciwA+gAAAAAAAAAAAAAAAAAAAAAAAAAAAAA==

> <PUBCHEM_IUPAC_OPENEYE_NAME>
1-(4-acetyl-3,5-dimethyl-1H-pyrrol-2-yl)-2-(2-isopropyl-6-methyl-pyrimidin-4-yl)sulfanyl-ethanone

> <PUBCHEM_IUPAC_CAS_NAME>
1-(4-acetyl-3,5-dimethyl-1H-pyrrol-2-yl)-2-[(6-methyl-2-propan-2-yl-4-pyrimidinyl)thio]ethanone

> <PUBCHEM_IUPAC_NAME>
1-(4-acetyl-3,5-dimethyl-1H-pyrrol-2-yl)-2-(6-methyl-2-propan-2-ylpyrimidin-4-yl)sulfanylethanone

> <PUBCHEM_IUPAC_SYSTEMATIC_NAME>
1-(4-ethanoyl-3,5-dimethyl-1H-pyrrol-2-yl)-2-(6-methyl-2-propan-2-yl-pyrimidin-4-yl)sulfanyl-ethanone

> <PUBCHEM_IUPAC_TRADITIONAL_NAME>
1-(4-acetyl-3,5-dimethyl-1H-pyrrol-2-yl)-2-[(2-isopropyl-6-methyl-pyrimidin-4-yl)thio]ethanone

> <PUBCHEM_IUPAC_INCHI>
InChI=1S/C18H23N3O2S/c1-9(2)18-19-10(3)7-15(21-18)24-8-14(23)17-11(4)16(13(6)22)12(5)20-17/h7,9,20H,8H2,1-6H3

> <PUBCHEM_IUPAC_INCHIKEY>
CDJOSAUCPDLSLM-UHFFFAOYSA-N

> <PUBCHEM_XLOGP3_AA>
3.6

> <PUBCHEM_EXACT_MASS>
345.151098

> <PUBCHEM_MOLECULAR_FORMULA>
C18H23N3O2S

> <PUBCHEM_MOLECULAR_WEIGHT>
345.45912

> <PUBCHEM_OPENEYE_CAN_SMILES>
CC1=CC(=NC(=N1)C(C)C)SCC(=O)C2=C(C(=C(N2)C)C(=O)C)C

> <PUBCHEM_OPENEYE_ISO_SMILES>
CC1=CC(=NC(=N1)C(C)C)SCC(=O)C2=C(C(=C(N2)C)C(=O)C)C

> <PUBCHEM_CACTVS_TPSA>
101

> <PUBCHEM_MONOISOTOPIC_WEIGHT>
345.151098

> <PUBCHEM_TOTAL_CHARGE>
0

> <PUBCHEM_HEAVY_ATOM_COUNT>
24

> <PUBCHEM_ATOM_DEF_STEREO_COUNT>
0

> <PUBCHEM_ATOM_UDEF_STEREO_COUNT>
0

> <PUBCHEM_BOND_DEF_STEREO_COUNT>
0

> <PUBCHEM_BOND_UDEF_STEREO_COUNT>
0

> <PUBCHEM_ISOTOPIC_ATOM_COUNT>
0

> <PUBCHEM_COMPONENT_COUNT>
1

> <PUBCHEM_CACTVS_TAUTO_COUNT>
186

> <PUBCHEM_COORDINATE_TYPE>
1
5
255

> <PUBCHEM_BONDANNOTATIONS>
20  23  8
22  23  8
4  10  8
4  8  8
5  17  8
5  20  8
6  17  8
6  22  8
7  8  8
7  9  8
9  10  8

$$$$

