6882
  -OEChem-06261201333D

 17 18  0     0  0  0  0  0  0999 V2000
   -2.4382   -0.8624   -0.0002 O   0  0  0  0  0  0  0  0  0  0  0  0
   -0.9628    3.1556    0.0004 O   0  5  0  0  0  0  0  0  0  0  0  0
   -2.7496    1.8804   -0.0005 O   0  0  0  0  0  0  0  0  0  0  0  0
    3.7146   -0.9324   -0.0001 O   0  5  0  0  0  0  0  0  0  0  0  0
    3.4244    1.2436   -0.0002 O   0  0  0  0  0  0  0  0  0  0  0  0
   -1.5026    2.0226    0.0001 N   0  3  0  0  0  0  0  0  0  0  0  0
   -1.1609   -2.6624    0.0004 N   0  0  0  0  0  0  0  0  0  0  0  0
    2.9681    0.0755    0.0000 N   0  3  0  0  0  0  0  0  0  0  0  0
   -2.4314   -2.2627    0.0000 N   0  0  0  0  0  0  0  0  0  0  0  0
   -1.1467   -0.4393   -0.0001 C   0  0  0  0  0  0  0  0  0  0  0  0
   -0.6781    0.8673    0.0001 C   0  0  0  0  0  0  0  0  0  0  0  0
   -0.3513   -1.5626   -0.0001 C   0  0  0  0  0  0  0  0  0  0  0  0
    1.5593   -0.1125    0.0002 C   0  0  0  0  0  0  0  0  0  0  0  0
    0.7144    1.0052    0.0002 C   0  0  0  0  0  0  0  0  0  0  0  0
    1.0409   -1.4159    0.0000 C   0  0  0  0  0  0  0  0  0  0  0  0
    1.1500    2.0030    0.0004 H   0  0  0  0  0  0  0  0  0  0  0  0
    1.6701   -2.2997    0.0001 H   0  0  0  0  0  0  0  0  0  0  0  0
  1  9  1  0  0  0  0
  1 10  1  0  0  0  0
  2  6  1  0  0  0  0
  3  6  2  0  0  0  0
  4  8  1  0  0  0  0
  5  8  2  0  0  0  0
  6 11  1  0  0  0  0
  7  9  2  0  0  0  0
  7 12  1  0  0  0  0
  8 13  1  0  0  0  0
 10 11  1  0  0  0  0
 10 12  2  0  0  0  0
 11 14  2  0  0  0  0
 12 15  1  0  0  0  0
 13 14  1  0  0  0  0
 13 15  2  0  0  0  0
 14 16  1  0  0  0  0
 15 17  1  0  0  0  0
M  CHG  4   2  -1   4  -1   6   1   8   1
M  END
> <PUBCHEM_COMPOUND_CID>
6882

> <PUBCHEM_CONFORMER_RMSD>
0.6

> <PUBCHEM_CONFORMER_DIVERSEORDER>
1

> <PUBCHEM_MMFF94_PARTIAL_CHARGES>
17
1 -0.02
10 0.14
11 0.13
12 0.23
13 0.13
14 -0.15
15 -0.15
16 0.15
17 0.15
2 -0.52
3 -0.52
4 -0.52
5 -0.52
6 0.91
7 -0.23
8 0.91
9 -0.12

> <PUBCHEM_EFFECTIVE_ROTOR_COUNT>
2

> <PUBCHEM_PHARMACOPHORE_FEATURES>
8
1 2 acceptor
1 2 anion
1 3 acceptor
1 4 acceptor
1 4 anion
1 5 acceptor
5 1 7 9 10 12 rings
6 10 11 12 13 14 15 rings

> <PUBCHEM_HEAVY_ATOM_COUNT>
15

> <PUBCHEM_ATOM_DEF_STEREO_COUNT>
0

> <PUBCHEM_ATOM_UDEF_STEREO_COUNT>
0

> <PUBCHEM_BOND_DEF_STEREO_COUNT>
0

> <PUBCHEM_BOND_UDEF_STEREO_COUNT>
0

> <PUBCHEM_ISOTOPIC_ATOM_COUNT>
0

> <PUBCHEM_COMPONENT_COUNT>
1

> <PUBCHEM_CACTVS_TAUTO_COUNT>
1

> <PUBCHEM_CONFORMER_ID>
00001AE200000001

> <PUBCHEM_MMFF94_ENERGY>
38.112

> <PUBCHEM_FEATURE_SELFOVERLAP>
40.869

> <PUBCHEM_SHAPE_FINGERPRINT>
1 1 17618783999638890101
10967382 1 18266459999787841893
13380535 76 18192155008167041414
14648413 74 16971669798519114417
15490181 7 18050841414600278643
15490181 8 17977955905486498071
16945 1 18410855451659793346
193761 8 18194402427246323663
20510252 161 18334857203784675240
20711985 365 18411419505641271430
20871998 184 18260263010419731047
21296965 67 18193838141668622267
21501502 16 18411136948501522742
21524375 3 18121502611453535629
221490 88 17404024721723526207
2334 1 17978228257715145765
23402539 116 18261967271013127679
23526114 1 17113537009148742884
23557571 272 18189321408458567804
23559900 14 18116992385979258406
241688 4 18194120720335695443
2748010 2 18048886190715232087
3071541 158 17839470985765003293
54173680 148 18411699876500319555
6333449 129 18410013272886683501
7364860 26 17256527950890824933
81228 2 18411696547884568289

> <PUBCHEM_SHAPE_MULTIPOLES>
259.42
4.39
2.99
0.56
3.62
0.79
0
0.05
0
-2.26
0
0.01
-0.02
0

> <PUBCHEM_SHAPE_SELFOVERLAP>
570.431

> <PUBCHEM_SHAPE_VOLUME>
141.8

> <PUBCHEM_COORDINATE_TYPE>
2
5
10

$$$$

