91744
  -OEChem-07051213123D

 35 35  0     1  0  0  0  0  0999 V2000
   -1.9622   -3.7372   -0.7299 Cl  0  0  0  0  0  0  0  0  0  0  0  0
   -1.9908    2.3812   -1.3669 S   0  0  0  0  0  0  0  0  0  0  0  0
    3.6797    0.3105    0.3445 O   0  0  0  0  0  0  0  0  0  0  0  0
    0.4680   -2.7641    0.2974 O   0  0  0  0  0  0  0  0  0  0  0  0
    0.0708   -0.4441    0.3645 N   0  0  0  0  0  0  0  0  0  0  0  0
    1.3737   -0.0976    0.9299 C   0  0  1  0  0  0  0  0  0  0  0  0
   -0.8471    0.6015   -0.0095 C   0  0  0  0  0  0  0  0  0  0  0  0
    2.3985    0.0174   -0.1992 C   0  0  0  0  0  0  0  0  0  0  0  0
    1.2686    1.1976    1.7357 C   0  0  0  0  0  0  0  0  0  0  0  0
   -1.8465    1.0707    0.8381 C   0  0  0  0  0  0  0  0  0  0  0  0
   -0.7761    1.1830   -1.2218 C   0  0  0  0  0  0  0  0  0  0  0  0
   -0.2687   -1.7961    0.0926 C   0  0  0  0  0  0  0  0  0  0  0  0
   -2.5658    2.0667    0.2151 C   0  0  0  0  0  0  0  0  0  0  0  0
   -2.1298    0.5970    2.2148 C   0  0  0  0  0  0  0  0  0  0  0  0
    0.1384    0.9492   -2.3630 C   0  0  0  0  0  0  0  0  0  0  0  0
   -1.6653   -2.0057   -0.4656 C   0  0  0  0  0  0  0  0  0  0  0  0
    4.6545    0.4701   -0.6768 C   0  0  0  0  0  0  0  0  0  0  0  0
    1.6851   -0.9011    1.6090 H   0  0  0  0  0  0  0  0  0  0  0  0
    2.4479   -0.9111   -0.7797 H   0  0  0  0  0  0  0  0  0  0  0  0
    2.1457    0.8421   -0.8636 H   0  0  0  0  0  0  0  0  0  0  0  0
    0.5400    1.1118    2.5461 H   0  0  0  0  0  0  0  0  0  0  0  0
    1.0209    2.0696    1.1215 H   0  0  0  0  0  0  0  0  0  0  0  0
    2.2297    1.4187    2.2145 H   0  0  0  0  0  0  0  0  0  0  0  0
   -3.4019    2.6278    0.6093 H   0  0  0  0  0  0  0  0  0  0  0  0
   -1.8925    1.3793    2.9434 H   0  0  0  0  0  0  0  0  0  0  0  0
   -3.1914    0.3477    2.3205 H   0  0  0  0  0  0  0  0  0  0  0  0
   -1.5588   -0.2973    2.4807 H   0  0  0  0  0  0  0  0  0  0  0  0
   -0.4093    0.9832   -3.3125 H   0  0  0  0  0  0  0  0  0  0  0  0
    0.9138    1.7200   -2.4089 H   0  0  0  0  0  0  0  0  0  0  0  0
    0.6072   -0.0377   -2.3239 H   0  0  0  0  0  0  0  0  0  0  0  0
   -2.4233   -1.6577    0.2384 H   0  0  0  0  0  0  0  0  0  0  0  0
   -1.7772   -1.5129   -1.4334 H   0  0  0  0  0  0  0  0  0  0  0  0
    4.7492   -0.4481   -1.2646 H   0  0  0  0  0  0  0  0  0  0  0  0
    5.6170    0.6817   -0.2033 H   0  0  0  0  0  0  0  0  0  0  0  0
    4.3951    1.3102   -1.3284 H   0  0  0  0  0  0  0  0  0  0  0  0
  1 16  1  0  0  0  0
  2 11  1  0  0  0  0
  2 13  1  0  0  0  0
  3  8  1  0  0  0  0
  3 17  1  0  0  0  0
  4 12  2  0  0  0  0
  5  6  1  0  0  0  0
  5  7  1  0  0  0  0
  5 12  1  0  0  0  0
  6  8  1  0  0  0  0
  6  9  1  0  0  0  0
  6 18  1  0  0  0  0
  7 10  1  0  0  0  0
  7 11  2  0  0  0  0
  8 19  1  0  0  0  0
  8 20  1  0  0  0  0
  9 21  1  0  0  0  0
  9 22  1  0  0  0  0
  9 23  1  0  0  0  0
 10 13  2  0  0  0  0
 10 14  1  0  0  0  0
 11 15  1  0  0  0  0
 12 16  1  0  0  0  0
 13 24  1  0  0  0  0
 14 25  1  0  0  0  0
 14 26  1  0  0  0  0
 14 27  1  0  0  0  0
 15 28  1  0  0  0  0
 15 29  1  0  0  0  0
 15 30  1  0  0  0  0
 16 31  1  0  0  0  0
 16 32  1  0  0  0  0
 17 33  1  0  0  0  0
 17 34  1  0  0  0  0
 17 35  1  0  0  0  0
M  END
> <PUBCHEM_COMPOUND_CID>
91744

> <PUBCHEM_CONFORMER_RMSD>
0.8

> <PUBCHEM_CONFORMER_DIVERSEORDER>
3
38
64
19
53
24
2
60
55
63
4
7
45
66
42
30
35
12
51
15
18
56
29
28
57
48
61
34
39
47
46
62
37
65
25
20
59
14
49
50
6
32
17
9
21
52
11
36
27
31
26
13
33
43
58
44
10
54
22
5
1
41
16
8
23
40

> <PUBCHEM_MMFF94_PARTIAL_CHARGES>
17
1 -0.29
10 -0.18
11 -0.14
12 0.57
13 -0.11
14 0.18
15 0.18
16 0.35
17 0.28
2 -0.08
24 0.15
3 -0.56
4 -0.57
5 -0.42
6 0.3
7 0.06
8 0.28

> <PUBCHEM_EFFECTIVE_ROTOR_COUNT>
6

> <PUBCHEM_PHARMACOPHORE_FEATURES>
3
1 3 acceptor
1 4 acceptor
5 2 7 10 11 13 rings

> <PUBCHEM_HEAVY_ATOM_COUNT>
17

> <PUBCHEM_ATOM_DEF_STEREO_COUNT>
0

> <PUBCHEM_ATOM_UDEF_STEREO_COUNT>
1

> <PUBCHEM_BOND_DEF_STEREO_COUNT>
0

> <PUBCHEM_BOND_UDEF_STEREO_COUNT>
0

> <PUBCHEM_ISOTOPIC_ATOM_COUNT>
0

> <PUBCHEM_COMPONENT_COUNT>
1

> <PUBCHEM_CACTVS_TAUTO_COUNT>
1

> <PUBCHEM_CONFORMER_ID>
0001666000000003

> <PUBCHEM_MMFF94_ENERGY>
61.3619

> <PUBCHEM_FEATURE_SELFOVERLAP>
15.223

> <PUBCHEM_SHAPE_FINGERPRINT>
12173636 292 18409735079671584780
12423570 1 13144550674151889677
13132413 78 17470455032466236649
13134695 92 16884423040133671695
13214271 11 17203600497882680052
14648413 74 17191796389870241116
14817 1 4742650279073733729
15309172 13 18340203110796972848
16945 1 18194148289999780395
20379382 53 17471564898970266289
20600515 1 17478359451264744450
20602899 9 18262253208334004919
20645477 56 18412819180218383004
20711985 344 18197232368370629330
21524375 3 17914912047643704592
22112679 90 17981579612290896533
23419403 2 17462585909229478569
23493267 7 16589161609355766281
23557571 272 17907596735207798408
23559900 14 18113622326989388082
2748010 2 17769919496628144615
3729539 64 17617912061755656262
458136 41 18119811571708635369
81228 2 18196097629442060810
84936 31 17833553779077223975
9925002 15 17982146960185425029

> <PUBCHEM_SHAPE_MULTIPOLES>
338.85
4.75
3.34
1.85
7.19
3.76
-0.03
-1.38
0.2
-3.39
1.08
-0.55
-0.98
-0.22

> <PUBCHEM_SHAPE_SELFOVERLAP>
662.288

> <PUBCHEM_SHAPE_VOLUME>
208.5

> <PUBCHEM_COORDINATE_TYPE>
2
5
10

$$$$

