92201
  -OEChem-07051213153D

 32 34  0     1  0  0  0  0  0999 V2000
   -2.0260   -1.2355    0.2055 O   0  0  0  0  0  0  0  0  0  0  0  0
   -3.3777    0.5556   -1.5069 O   0  0  0  0  0  0  0  0  0  0  0  0
    1.9308    1.3010    0.0797 O   0  0  0  0  0  0  0  0  0  0  0  0
    3.8486    2.5504    0.0076 O   0  0  0  0  0  0  0  0  0  0  0  0
   -2.2921    0.1381    0.5933 C   0  0  2  0  0  0  0  0  0  0  0  0
   -3.5673    0.6045   -0.0897 C   0  0  0  0  0  0  0  0  0  0  0  0
   -1.0762    1.0021    0.2240 C   0  0  0  0  0  0  0  0  0  0  0  0
   -0.0461   -0.0568    0.1559 C   0  0  0  0  0  0  0  0  0  0  0  0
   -0.6584   -1.2985    0.1248 C   0  0  0  0  0  0  0  0  0  0  0  0
   -3.9078    2.0454    0.2993 C   0  0  0  0  0  0  0  0  0  0  0  0
   -4.7357   -0.3255    0.2439 C   0  0  0  0  0  0  0  0  0  0  0  0
    1.3290    0.0326    0.0635 C   0  0  0  0  0  0  0  0  0  0  0  0
    0.0647   -2.4710    0.0010 C   0  0  0  0  0  0  0  0  0  0  0  0
    2.0959   -1.1268   -0.0503 C   0  0  0  0  0  0  0  0  0  0  0  0
    1.4582   -2.3799   -0.0818 C   0  0  0  0  0  0  0  0  0  0  0  0
    3.5407   -0.9963   -0.1410 C   0  0  0  0  0  0  0  0  0  0  0  0
    3.3112    1.4482   -0.0081 C   0  0  0  0  0  0  0  0  0  0  0  0
    4.1083    0.2124   -0.1206 C   0  0  0  0  0  0  0  0  0  0  0  0
   -2.4262    0.1369    1.6851 H   0  0  0  0  0  0  0  0  0  0  0  0
   -0.8699    1.7517    0.9934 H   0  0  0  0  0  0  0  0  0  0  0  0
   -1.1623    1.4899   -0.7519 H   0  0  0  0  0  0  0  0  0  0  0  0
   -4.8444    2.3639   -0.1735 H   0  0  0  0  0  0  0  0  0  0  0  0
   -4.0191    2.1534    1.3831 H   0  0  0  0  0  0  0  0  0  0  0  0
   -3.1445    2.7503   -0.0469 H   0  0  0  0  0  0  0  0  0  0  0  0
   -4.5633   -1.3401   -0.1320 H   0  0  0  0  0  0  0  0  0  0  0  0
   -5.6583    0.0200   -0.2375 H   0  0  0  0  0  0  0  0  0  0  0  0
   -4.9132   -0.3773    1.3231 H   0  0  0  0  0  0  0  0  0  0  0  0
   -0.4283   -3.4365   -0.0285 H   0  0  0  0  0  0  0  0  0  0  0  0
   -4.1952    0.8677   -1.9314 H   0  0  0  0  0  0  0  0  0  0  0  0
    2.0413   -3.2933   -0.1750 H   0  0  0  0  0  0  0  0  0  0  0  0
    4.1463   -1.8918   -0.2256 H   0  0  0  0  0  0  0  0  0  0  0  0
    5.1856    0.3179   -0.1881 H   0  0  0  0  0  0  0  0  0  0  0  0
  1  5  1  0  0  0  0
  1  9  1  0  0  0  0
  2  6  1  0  0  0  0
  2 29  1  0  0  0  0
  3 12  1  0  0  0  0
  3 17  1  0  0  0  0
  4 17  2  0  0  0  0
  5  6  1  0  0  0  0
  5  7  1  0  0  0  0
  5 19  1  0  0  0  0
  6 10  1  0  0  0  0
  6 11  1  0  0  0  0
  7  8  1  0  0  0  0
  7 20  1  0  0  0  0
  7 21  1  0  0  0  0
  8  9  2  0  0  0  0
  8 12  1  0  0  0  0
  9 13  1  0  0  0  0
 10 22  1  0  0  0  0
 10 23  1  0  0  0  0
 10 24  1  0  0  0  0
 11 25  1  0  0  0  0
 11 26  1  0  0  0  0
 11 27  1  0  0  0  0
 12 14  2  0  0  0  0
 13 15  2  0  0  0  0
 13 28  1  0  0  0  0
 14 15  1  0  0  0  0
 14 16  1  0  0  0  0
 15 30  1  0  0  0  0
 16 18  2  0  0  0  0
 16 31  1  0  0  0  0
 17 18  1  0  0  0  0
 18 32  1  0  0  0  0
M  END
> <PUBCHEM_COMPOUND_CID>
92201

> <PUBCHEM_CONFORMER_RMSD>
0.6

> <PUBCHEM_CONFORMER_DIVERSEORDER>
1
3
2

> <PUBCHEM_MMFF94_PARTIAL_CHARGES>
21
1 -0.36
12 0.08
13 -0.15
14 0.03
15 -0.15
16 -0.18
17 0.71
18 -0.14
2 -0.68
28 0.15
29 0.4
3 -0.23
30 0.15
31 0.15
32 0.15
4 -0.57
5 0.28
6 0.28
7 0.14
8 -0.14
9 0.08

> <PUBCHEM_EFFECTIVE_ROTOR_COUNT>
1.6

> <PUBCHEM_PHARMACOPHORE_FEATURES>
8
1 1 acceptor
1 2 acceptor
1 2 donor
1 4 acceptor
3 6 10 11 hydrophobe
5 1 5 7 8 9 rings
6 3 12 14 16 17 18 rings
6 8 9 12 13 14 15 rings

> <PUBCHEM_HEAVY_ATOM_COUNT>
18

> <PUBCHEM_ATOM_DEF_STEREO_COUNT>
1

> <PUBCHEM_ATOM_UDEF_STEREO_COUNT>
0

> <PUBCHEM_BOND_DEF_STEREO_COUNT>
0

> <PUBCHEM_BOND_UDEF_STEREO_COUNT>
0

> <PUBCHEM_ISOTOPIC_ATOM_COUNT>
0

> <PUBCHEM_COMPONENT_COUNT>
1

> <PUBCHEM_CACTVS_TAUTO_COUNT>
1

> <PUBCHEM_CONFORMER_ID>
0001682900000001

> <PUBCHEM_MMFF94_ENERGY>
62.2547

> <PUBCHEM_FEATURE_SELFOVERLAP>
40.725

> <PUBCHEM_SHAPE_FINGERPRINT>
10411042 1 17402047193915172819
10608611 8 18341612659055089121
10967382 1 18410290328653172546
11471102 20 18410293653026541830
11543360 7 15574999429423975696
12236239 1 17676206909686279649
12403259 226 18127697238848298510
12403259 415 18273495688984759861
12403260 363 18339089271078825248
12644460 14 18200307856896199874
13140716 1 18412826871940334122
13380535 76 18411135835773041106
13583140 156 17203338788144739577
13897977 150 18411701006055366003
14123255 52 18410575046288136552
14415576 193 18411133658134645900
14787075 74 18335421206379812099
14897335 6 18408887304555698290
15099037 51 18410006667939288310
15196674 1 18410572911420189721
15219456 202 18342453764070459947
15442244 35 17904197383950223114
15536298 74 18334293197184941646
16945 1 18337948021006729258
18186145 218 18408884070165697660
19862831 5 17821445776627710065
200 152 17967818279228794547
204376 136 18339357470306329706
20510252 161 18118958101134396794
20645477 70 18335418010497025422
21267235 1 18337099137826690923
21499 59 18409733941214652767
21524375 3 18413108350964111410
21639500 275 18338810003731161615
21709351 56 18336834202752862581
22854114 111 18341047501272186882
231179 274 17989212576592920678
23402539 116 18186808010375773956
23402655 69 18188211004213356789
23558518 356 17695351378542222616
23559900 14 18260546711207449898
25 1 18411701019109235374
2748010 2 18338785711639118062
3060560 45 18334857272741905694
335352 9 18410572933565264310
474 4 18410290341295598377
4990 188 17895185640825934846
5104073 3 18341890835597033801
543358 83 18119524590098639217
6333272 397 18411418397296992634
633830 44 18261390087263540469
69090 78 18409731737796358851
7364860 26 18264203785048879006
8272917 22 18190173675624279791
84936 182 18187369847843287696
9709674 26 18337664317137372043
9999458 23 18273212011006376318

> <PUBCHEM_SHAPE_MULTIPOLES>
346.95
8.33
2.41
0.73
3.12
0.1
-0.13
-3.83
-0.41
-1.4
0.05
0.42
-0.04
0.08

> <PUBCHEM_SHAPE_SELFOVERLAP>
764.293

> <PUBCHEM_SHAPE_VOLUME>
188.1

> <PUBCHEM_COORDINATE_TYPE>
2
5
10

$$$$

