15623
  -OEChem-07051212573D

 29 30  0     0  0  0  0  0  0999 V2000
   -2.5181   -1.3501   -0.2943 O   0  0  0  0  0  0  0  0  0  0  0  0
   -2.5041    1.3635    0.2963 O   0  0  0  0  0  0  0  0  0  0  0  0
    3.5553    0.5495    0.5057 N   0  0  0  0  0  0  0  0  0  0  0  0
    2.3809   -1.4504   -0.2988 C   0  0  0  0  0  0  0  0  0  0  0  0
    1.0832   -0.6949   -0.1649 C   0  0  0  0  0  0  0  0  0  0  0  0
    1.0918    0.6738    0.1578 C   0  0  0  0  0  0  0  0  0  0  0  0
    3.5840   -0.5242   -0.4866 C   0  0  0  0  0  0  0  0  0  0  0  0
    2.3961    1.4221    0.2852 C   0  0  0  0  0  0  0  0  0  0  0  0
   -0.1379   -1.3670   -0.3037 C   0  0  0  0  0  0  0  0  0  0  0  0
   -0.1232    1.3571    0.2999 C   0  0  0  0  0  0  0  0  0  0  0  0
   -1.3414   -0.6794   -0.1492 C   0  0  0  0  0  0  0  0  0  0  0  0
   -1.3341    0.6813    0.1499 C   0  0  0  0  0  0  0  0  0  0  0  0
   -3.0755   -1.9421    0.8775 C   0  0  0  0  0  0  0  0  0  0  0  0
   -3.0569    1.9608   -0.8750 C   0  0  0  0  0  0  0  0  0  0  0  0
    2.5195   -2.0528    0.6080 H   0  0  0  0  0  0  0  0  0  0  0  0
    2.3260   -2.1368   -1.1520 H   0  0  0  0  0  0  0  0  0  0  0  0
    4.5058   -1.1045   -0.3699 H   0  0  0  0  0  0  0  0  0  0  0  0
    3.5966   -0.1042   -1.5004 H   0  0  0  0  0  0  0  0  0  0  0  0
    2.5493    2.0183   -0.6229 H   0  0  0  0  0  0  0  0  0  0  0  0
    2.3341    2.1148    1.1321 H   0  0  0  0  0  0  0  0  0  0  0  0
    4.4076    1.1044    0.4330 H   0  0  0  0  0  0  0  0  0  0  0  0
   -0.1491   -2.4299   -0.5341 H   0  0  0  0  0  0  0  0  0  0  0  0
   -0.1240    2.4204    0.5290 H   0  0  0  0  0  0  0  0  0  0  0  0
   -2.3944   -2.6942    1.2882 H   0  0  0  0  0  0  0  0  0  0  0  0
   -4.0128   -2.4325    0.6009 H   0  0  0  0  0  0  0  0  0  0  0  0
   -3.2898   -1.1775    1.6310 H   0  0  0  0  0  0  0  0  0  0  0  0
   -2.3692    2.7066   -1.2862 H   0  0  0  0  0  0  0  0  0  0  0  0
   -3.9892    2.4601   -0.5974 H   0  0  0  0  0  0  0  0  0  0  0  0
   -3.2792    1.1984   -1.6283 H   0  0  0  0  0  0  0  0  0  0  0  0
  1 11  1  0  0  0  0
  1 13  1  0  0  0  0
  2 12  1  0  0  0  0
  2 14  1  0  0  0  0
  3  7  1  0  0  0  0
  3  8  1  0  0  0  0
  3 21  1  0  0  0  0
  4  5  1  0  0  0  0
  4  7  1  0  0  0  0
  4 15  1  0  0  0  0
  4 16  1  0  0  0  0
  5  6  1  0  0  0  0
  5  9  2  0  0  0  0
  6  8  1  0  0  0  0
  6 10  2  0  0  0  0
  7 17  1  0  0  0  0
  7 18  1  0  0  0  0
  8 19  1  0  0  0  0
  8 20  1  0  0  0  0
  9 11  1  0  0  0  0
  9 22  1  0  0  0  0
 10 12  1  0  0  0  0
 10 23  1  0  0  0  0
 11 12  2  0  0  0  0
 13 24  1  0  0  0  0
 13 25  1  0  0  0  0
 13 26  1  0  0  0  0
 14 27  1  0  0  0  0
 14 28  1  0  0  0  0
 14 29  1  0  0  0  0
M  END
> <PUBCHEM_COMPOUND_CID>
15623

> <PUBCHEM_CONFORMER_RMSD>
0.6

> <PUBCHEM_CONFORMER_DIVERSEORDER>
2
1

> <PUBCHEM_MMFF94_PARTIAL_CHARGES>
17
1 -0.36
10 -0.15
11 0.08
12 0.08
13 0.28
14 0.28
2 -0.36
21 0.36
22 0.15
23 0.15
3 -0.9
4 0.14
5 -0.14
6 -0.14
7 0.27
8 0.41
9 -0.15

> <PUBCHEM_EFFECTIVE_ROTOR_COUNT>
2.8

> <PUBCHEM_PHARMACOPHORE_FEATURES>
6
1 1 acceptor
1 2 acceptor
1 3 cation
1 3 donor
6 3 4 5 6 7 8 rings
6 5 6 9 10 11 12 rings

> <PUBCHEM_HEAVY_ATOM_COUNT>
14

> <PUBCHEM_ATOM_DEF_STEREO_COUNT>
0

> <PUBCHEM_ATOM_UDEF_STEREO_COUNT>
0

> <PUBCHEM_BOND_DEF_STEREO_COUNT>
0

> <PUBCHEM_BOND_UDEF_STEREO_COUNT>
0

> <PUBCHEM_ISOTOPIC_ATOM_COUNT>
0

> <PUBCHEM_COMPONENT_COUNT>
1

> <PUBCHEM_CACTVS_TAUTO_COUNT>
1

> <PUBCHEM_CONFORMER_ID>
00003D0700000002

> <PUBCHEM_MMFF94_ENERGY>
52.0002

> <PUBCHEM_FEATURE_SELFOVERLAP>
30.472

> <PUBCHEM_SHAPE_FINGERPRINT>
10608611 8 18408890628734090152
10922523 26 18334855013335432422
10967382 1 18192430990038686484
11206711 2 18410012104808417293
11680986 33 18262518229407243686
12032990 46 18336538331330897678
12138202 97 18271812388343256245
12500047 106 18199753698672007877
12730499 353 17624701554895137549
12932764 1 17703794768470430616
13140716 1 18335982068488283562
13296908 3 18259981583019891854
13380535 21 18337943592800098668
13380535 76 18264495151118559391
13897977 150 18335142037294072140
14325111 11 18408323276639455632
14911166 2 18191586569419437380
15219456 202 18333450941297553784
15279308 100 18267869565062810716
15775835 57 18200308948039172204
16945 1 18191872210472135886
17844478 74 18340762624834436659
18186145 218 18189052160710410180
200 152 17676214546064389543
20201158 50 18115589391033457854
20510252 161 18261391105118107136
20645477 70 17749672999383501998
20715346 28 18259987063345238578
20871998 184 18259700086441809335
21501502 16 18409729560263523692
2334 1 18408323259200922190
23402655 69 18117011077070405749
23463225 33 18410573972656926384
23552423 10 18413386523342774654
23559900 14 18262798609805727510
25 1 18049730908014753565
2748010 2 18335138691461593244
3312278 4 18408600392160882032
5104073 3 18408605872940124666
528886 8 18335709398315913624
53812653 166 18334017224235404208
6333449 129 18408042930996368829
69090 78 18336270132356373541
81228 2 18201433637123953161
8809292 202 18339917224904621394

> <PUBCHEM_SHAPE_MULTIPOLES>
271.39
5.72
2.15
0.79
1.26
0.01
0.01
0.04
0.06
-1.53
-0.01
-0.2
-0.01
0.93

> <PUBCHEM_SHAPE_SELFOVERLAP>
569.036

> <PUBCHEM_SHAPE_VOLUME>
153.7

> <PUBCHEM_COORDINATE_TYPE>
2
5
10

$$$$

