51090908
  -OEChem-06241223003D

 43 44  0     1  0  0  0  0  0999 V2000
    2.3069    0.6862   -1.9721 O   0  0  0  0  0  0  0  0  0  0  0  0
   -2.6734    0.1970    0.2245 N   0  0  2  0  0  0  0  0  0  0  0  0
    1.8693    1.7025    0.0668 N   0  0  0  0  0  0  0  0  0  0  0  0
    4.0991   -1.1708   -0.7360 N   0  0  0  0  0  0  0  0  0  0  0  0
    4.8665   -1.9149    0.0786 N   0  0  0  0  0  0  0  0  0  0  0  0
   -4.0419    0.1345   -0.3237 C   0  0  1  0  0  0  0  0  0  0  0  0
   -4.1639   -1.0716   -1.2747 C   0  0  0  0  0  0  0  0  0  0  0  0
   -2.2687   -1.0281    0.9230 C   0  0  0  0  0  0  0  0  0  0  0  0
   -3.7495   -2.3822   -0.6123 C   0  0  0  0  0  0  0  0  0  0  0  0
   -2.3640   -2.2481    0.0067 C   0  0  0  0  0  0  0  0  0  0  0  0
   -2.4412    1.3757    1.0546 C   0  0  0  0  0  0  0  0  0  0  0  0
   -5.1669    0.1258    0.7229 C   0  0  0  0  0  0  0  0  0  0  0  0
   -0.9801    1.8280    1.0103 C   0  0  0  0  0  0  0  0  0  0  0  0
   -0.5032    2.1787   -0.4047 C   0  0  0  0  0  0  0  0  0  0  0  0
    0.9378    2.6803   -0.4250 C   0  0  0  0  0  0  0  0  0  0  0  0
    2.4869    0.7712   -0.7601 C   0  0  0  0  0  0  0  0  0  0  0  0
    3.4039   -0.1887   -0.0934 C   0  0  0  0  0  0  0  0  0  0  0  0
    3.7396   -0.2984    1.2339 C   0  0  0  0  0  0  0  0  0  0  0  0
    4.6429   -1.3773    1.2806 C   0  0  0  0  0  0  0  0  0  0  0  0
   -4.1929    1.0276   -0.9453 H   0  0  0  0  0  0  0  0  0  0  0  0
   -5.1894   -1.1579   -1.6530 H   0  0  0  0  0  0  0  0  0  0  0  0
   -3.5235   -0.9010   -2.1506 H   0  0  0  0  0  0  0  0  0  0  0  0
   -1.2276   -0.9567    1.2570 H   0  0  0  0  0  0  0  0  0  0  0  0
   -2.8763   -1.1930    1.8213 H   0  0  0  0  0  0  0  0  0  0  0  0
   -4.4756   -2.6602    0.1602 H   0  0  0  0  0  0  0  0  0  0  0  0
   -3.7497   -3.1899   -1.3528 H   0  0  0  0  0  0  0  0  0  0  0  0
   -1.6166   -2.1621   -0.7926 H   0  0  0  0  0  0  0  0  0  0  0  0
   -2.1219   -3.1556    0.5714 H   0  0  0  0  0  0  0  0  0  0  0  0
   -3.0411    2.2197    0.6885 H   0  0  0  0  0  0  0  0  0  0  0  0
   -2.7515    1.2077    2.0937 H   0  0  0  0  0  0  0  0  0  0  0  0
   -5.1018   -0.7299    1.4013 H   0  0  0  0  0  0  0  0  0  0  0  0
   -6.1445    0.0825    0.2300 H   0  0  0  0  0  0  0  0  0  0  0  0
   -5.1535    1.0368    1.3300 H   0  0  0  0  0  0  0  0  0  0  0  0
   -0.3344    1.0603    1.4504 H   0  0  0  0  0  0  0  0  0  0  0  0
   -0.8772    2.7149    1.6485 H   0  0  0  0  0  0  0  0  0  0  0  0
   -0.5832    1.2993   -1.0547 H   0  0  0  0  0  0  0  0  0  0  0  0
   -1.1537    2.9535   -0.8277 H   0  0  0  0  0  0  0  0  0  0  0  0
    1.0397    3.5721    0.2025 H   0  0  0  0  0  0  0  0  0  0  0  0
    1.2149    2.9584   -1.4478 H   0  0  0  0  0  0  0  0  0  0  0  0
    2.0631    1.7060    1.0628 H   0  0  0  0  0  0  0  0  0  0  0  0
    3.3936    0.3030    2.0617 H   0  0  0  0  0  0  0  0  0  0  0  0
    4.0979   -1.3895   -1.7246 H   0  0  0  0  0  0  0  0  0  0  0  0
    5.1471   -1.7940    2.1406 H   0  0  0  0  0  0  0  0  0  0  0  0
  1 16  2  0  0  0  0
  2  6  1  0  0  0  0
  2  8  1  0  0  0  0
  2 11  1  0  0  0  0
  3 15  1  0  0  0  0
  3 16  1  0  0  0  0
  3 40  1  0  0  0  0
  4  5  1  0  0  0  0
  4 17  1  0  0  0  0
  4 42  1  0  0  0  0
  5 19  2  0  0  0  0
  6  7  1  0  0  0  0
  6 12  1  0  0  0  0
  6 20  1  0  0  0  0
  7  9  1  0  0  0  0
  7 21  1  0  0  0  0
  7 22  1  0  0  0  0
  8 10  1  0  0  0  0
  8 23  1  0  0  0  0
  8 24  1  0  0  0  0
  9 10  1  0  0  0  0
  9 25  1  0  0  0  0
  9 26  1  0  0  0  0
 10 27  1  0  0  0  0
 10 28  1  0  0  0  0
 11 13  1  0  0  0  0
 11 29  1  0  0  0  0
 11 30  1  0  0  0  0
 12 31  1  0  0  0  0
 12 32  1  0  0  0  0
 12 33  1  0  0  0  0
 13 14  1  0  0  0  0
 13 34  1  0  0  0  0
 13 35  1  0  0  0  0
 14 15  1  0  0  0  0
 14 36  1  0  0  0  0
 14 37  1  0  0  0  0
 15 38  1  0  0  0  0
 15 39  1  0  0  0  0
 16 17  1  0  0  0  0
 17 18  2  0  0  0  0
 18 19  1  0  0  0  0
 18 41  1  0  0  0  0
 19 43  1  0  0  0  0
M  END
> <PUBCHEM_COMPOUND_CID>
51090908

> <PUBCHEM_CONFORMER_RMSD>
1

> <PUBCHEM_CONFORMER_DIVERSEORDER>
1
4
133
19
124
39
94
111
80
10
85
128
127
155
147
105
109
27
40
143
97
146
79
54
88
9
151
59
100
47
31
72
24
56
60
132
57
103
64
101
67
130
71
21
58
135
91
140
117
15
119
50
131
26
49
96
87
134
154
51
45
92
8
152
76
18
90
113
46
74
81
122
138
125
126
75
73
28
34
102
7
13
29
52
142
84
6
98
118
2
11
123
153
157
55
33
156
42
150
22
48
69
99
148
66
95
121
30
139
5
25
61
129
108
89
115
63
114
104
70
23
20
65
110
3
136
68
149
82
145
144
116
35
38
36
107
12
37
78
86
16
32
17
93
53
137
43
44
112
62
106
120
41
14
77
141
83

> <PUBCHEM_MMFF94_PARTIAL_CHARGES>
17
1 -0.57
11 0.27
15 0.3
16 0.71
17 -0.24
18 -0.15
19 0.14
2 -0.81
3 -0.73
4 0.3
40 0.37
41 0.15
42 0.27
43 0.15
5 -0.71
6 0.27
8 0.27

> <PUBCHEM_EFFECTIVE_ROTOR_COUNT>
8.2

> <PUBCHEM_PHARMACOPHORE_FEATURES>
7
1 1 acceptor
1 2 cation
1 3 donor
1 4 donor
1 5 acceptor
5 4 5 17 18 19 rings
6 2 6 7 8 9 10 rings

> <PUBCHEM_HEAVY_ATOM_COUNT>
19

> <PUBCHEM_ATOM_DEF_STEREO_COUNT>
0

> <PUBCHEM_ATOM_UDEF_STEREO_COUNT>
1

> <PUBCHEM_BOND_DEF_STEREO_COUNT>
0

> <PUBCHEM_BOND_UDEF_STEREO_COUNT>
0

> <PUBCHEM_ISOTOPIC_ATOM_COUNT>
0

> <PUBCHEM_COMPONENT_COUNT>
1

> <PUBCHEM_CACTVS_TAUTO_COUNT>
7

> <PUBCHEM_CONFORMER_ID>
030B95DC00000001

> <PUBCHEM_MMFF94_ENERGY>
9.6566

> <PUBCHEM_FEATURE_SELFOVERLAP>
35.52

> <PUBCHEM_SHAPE_FINGERPRINT>
10062212 137 18187927227798794279
11720765 8 13109589881824896936
12363563 72 18335415751233165428
12410352 35 18341898510624658042
12553582 1 18338780273988884324
12596602 18 5978095847756756261
12633257 1 18261943107489969477
12788726 201 18188187884600185785
13828863 39 15215014847450579522
13897977 13 9439139649656449659
14123255 52 9151173164410546084
14178342 30 17824531100797719392
1420 369 18409166627516351938
14251764 38 8427836312054762899
14341114 328 5545192852408334495
14848178 5 18335432252460612967
15352361 1 18410014333986283170
15537594 2 18270943679430655626
17977361 122 18410013256102446691
192875 21 18408887321545682943
20291156 8 18412824672737548368
20403669 9 18410011074069214782
20621476 51 18267878365836078002
20626108 58 18261963925053898317
20645477 70 17917705764887475456
21250096 35 18410858741567714944
21315759 227 17840033935624056963
235170 7 14261053399078509680
23557571 272 17385998528789809112
23559900 14 18260553272942097736
2637199 183 9295293876046635240
3004659 81 18272649047787965660
312425 83 17131840802649543293
339767 52 18411992342635872962
351380 3 18272366507622539874
44062 13 18343024380899278815
46194498 28 15266477548827663638
463206 1 18343865515267491779
559249 180 18270400636877790697
602551 16 18263080075928421538
7808743 9 9655280541326837406
88748 71 18269551650740051443
9882013 296 6699814185080814161

> <PUBCHEM_SHAPE_MULTIPOLES>
365.22
11.23
2.8
1.32
3.01
0.34
-0.13
-7.08
0.74
-0.12
-0.16
0.38
0.03
-1.41

> <PUBCHEM_SHAPE_SELFOVERLAP>
735.502

> <PUBCHEM_SHAPE_VOLUME>
213.6

> <PUBCHEM_COORDINATE_TYPE>
2
5
10

$$$$

