22856234
  -OEChem-07051212483D

 20 20  0     1  0  0  0  0  0999 V2000
    0.5825   -1.1009    0.1262 O   0  0  0  0  0  0  0  0  0  0  0  0
    0.9109    1.4669   -1.3938 O   0  0  0  0  0  0  0  0  0  0  0  0
   -1.4513    1.4174    1.3777 O   0  0  0  0  0  0  0  0  0  0  0  0
   -2.8692   -0.1609   -0.4228 O   0  0  0  0  0  0  0  0  0  0  0  0
   -1.3167   -2.3245    0.0796 O   0  0  0  0  0  0  0  0  0  0  0  0
    3.1303   -0.8900   -0.1819 O   0  0  0  0  0  0  0  0  0  0  0  0
    0.5243    1.3778   -0.0236 C   0  0  1  0  0  0  0  0  0  0  0  0
   -0.9963    1.2977    0.0318 C   0  0  1  0  0  0  0  0  0  0  0  0
    1.1173    0.1346    0.6307 C   0  0  2  0  0  0  0  0  0  0  0  0
   -1.4693   -0.0118   -0.5870 C   0  0  1  0  0  0  0  0  0  0  0  0
   -0.7570   -1.2406   -0.0572 C   0  0  0  0  0  0  0  0  0  0  0  0
    2.5944    0.0344    0.4203 C   0  0  0  0  0  0  0  0  0  0  0  0
    0.8842    2.2786    0.4871 H   0  0  0  0  0  0  0  0  0  0  0  0
   -1.4466    2.1267   -0.5277 H   0  0  0  0  0  0  0  0  0  0  0  0
    0.9458    0.1450    1.7135 H   0  0  0  0  0  0  0  0  0  0  0  0
   -1.2747    0.0102   -1.6668 H   0  0  0  0  0  0  0  0  0  0  0  0
    3.1975    0.8519    0.8511 H   0  0  0  0  0  0  0  0  0  0  0  0
    1.8647    1.6522   -1.4221 H   0  0  0  0  0  0  0  0  0  0  0  0
   -1.1273    2.2672    1.7217 H   0  0  0  0  0  0  0  0  0  0  0  0
   -3.1484   -0.9253   -0.9553 H   0  0  0  0  0  0  0  0  0  0  0  0
  1  9  1  0  0  0  0
  1 11  1  0  0  0  0
  2  7  1  0  0  0  0
  2 18  1  0  0  0  0
  3  8  1  0  0  0  0
  3 19  1  0  0  0  0
  4 10  1  0  0  0  0
  4 20  1  0  0  0  0
  5 11  2  0  0  0  0
  6 12  2  0  0  0  0
  7  8  1  0  0  0  0
  7  9  1  0  0  0  0
  7 13  1  0  0  0  0
  8 10  1  0  0  0  0
  8 14  1  0  0  0  0
  9 12  1  0  0  0  0
  9 15  1  0  0  0  0
 10 11  1  0  0  0  0
 10 16  1  0  0  0  0
 12 17  1  0  0  0  0
M  END
> <PUBCHEM_COMPOUND_CID>
22856234

> <PUBCHEM_CONFORMER_RMSD>
0.6

> <PUBCHEM_CONFORMER_DIVERSEORDER>
1
2
4
3

> <PUBCHEM_MMFF94_PARTIAL_CHARGES>
16
1 -0.43
10 0.34
11 0.66
12 0.45
17 0.06
18 0.4
19 0.4
2 -0.68
20 0.4
3 -0.68
4 -0.68
5 -0.57
6 -0.57
7 0.28
8 0.28
9 0.34

> <PUBCHEM_EFFECTIVE_ROTOR_COUNT>
2

> <PUBCHEM_PHARMACOPHORE_FEATURES>
9
1 2 acceptor
1 2 donor
1 3 acceptor
1 3 donor
1 4 acceptor
1 4 donor
1 5 acceptor
1 6 acceptor
6 1 7 8 9 10 11 rings

> <PUBCHEM_HEAVY_ATOM_COUNT>
12

> <PUBCHEM_ATOM_DEF_STEREO_COUNT>
4

> <PUBCHEM_ATOM_UDEF_STEREO_COUNT>
0

> <PUBCHEM_BOND_DEF_STEREO_COUNT>
0

> <PUBCHEM_BOND_UDEF_STEREO_COUNT>
0

> <PUBCHEM_ISOTOPIC_ATOM_COUNT>
0

> <PUBCHEM_COMPONENT_COUNT>
1

> <PUBCHEM_CACTVS_TAUTO_COUNT>
2

> <PUBCHEM_CONFORMER_ID>
015CC22A00000001

> <PUBCHEM_MMFF94_ENERGY>
22.3656

> <PUBCHEM_FEATURE_SELFOVERLAP>
45.684

> <PUBCHEM_SHAPE_FINGERPRINT>
12423570 1 16831532617573676969
13024252 1 15051449470077214840
137420 1 8052406820776796377
14128692 85 18198627627108872158
14993402 34 18272370905537104236
15001771 113 18267580208741626617
15219459 52 18272365356434063524
15310529 11 16486707955457141715
16945 1 18340506511465327625
18185500 45 18270408187066040112
207724 885 18272368698018846362
21040471 1 18265902530265418432
23552423 10 17986117301058052814
241688 4 18051134992599533867
2748010 2 18123198900218346239
369184 2 15864364553120324098
5084963 1 18409173241697558793

> <PUBCHEM_SHAPE_MULTIPOLES>
211.74
3.33
1.87
0.94
1.35
0.42
0
0.73
0.08
-0.54
-0.02
-0.05
-0.4
-0.26

> <PUBCHEM_SHAPE_SELFOVERLAP>
433.646

> <PUBCHEM_SHAPE_VOLUME>
119.8

> <PUBCHEM_COORDINATE_TYPE>
2
5
10

$$$$

