441048
  -OEChem-07051212513D

 45 47  0     0  0  0  0  0  0999 V2000
   -1.9708    2.7287   -0.6888 Cl  0  0  0  0  0  0  0  0  0  0  0  0
   -1.8599   -2.7066   -0.7991 Cl  0  0  0  0  0  0  0  0  0  0  0  0
   -0.7189    0.0416   -1.0228 O   0  0  0  0  0  0  0  0  0  0  0  0
    7.0249   -1.1992    0.5235 O   0  0  0  0  0  0  0  0  0  0  0  0
   -6.7674    1.1199    0.4204 O   0  0  0  0  0  0  0  0  0  0  0  0
   -6.9159   -1.1616    0.4123 N   0  0  0  0  0  0  0  0  0  0  0  0
    8.3129   -1.0778    0.0162 N   0  0  0  0  0  0  0  0  0  0  0  0
    2.6518    0.0706    0.6370 C   0  0  0  0  0  0  0  0  0  0  0  0
    4.0750    0.0475    0.0771 C   0  0  0  0  0  0  0  0  0  0  0  0
    1.6139    0.0579   -0.4833 C   0  0  0  0  0  0  0  0  0  0  0  0
    5.1150    0.0937    1.2002 C   0  0  0  0  0  0  0  0  0  0  0  0
    0.1944    0.0376    0.0657 C   0  0  0  0  0  0  0  0  0  0  0  0
    6.5199    0.0353    0.6554 C   0  0  0  0  0  0  0  0  0  0  0  0
   -2.0532    0.0075   -0.7107 C   0  0  0  0  0  0  0  0  0  0  0  0
    7.3849    0.9865    0.2694 C   0  0  0  0  0  0  0  0  0  0  0  0
   -4.7633   -0.0604   -0.0761 C   0  0  0  0  0  0  0  0  0  0  0  0
   -6.1941   -0.0966    0.2599 C   0  0  0  0  0  0  0  0  0  0  0  0
    8.5055    0.2364   -0.1273 C   0  0  0  0  0  0  0  0  0  0  0  0
   -2.7513    1.1981   -0.5279 C   0  0  0  0  0  0  0  0  0  0  0  0
   -2.7023   -1.2168   -0.5780 C   0  0  0  0  0  0  0  0  0  0  0  0
   -4.1089    1.1641   -0.2099 C   0  0  0  0  0  0  0  0  0  0  0  0
   -4.0599   -1.2510   -0.2600 C   0  0  0  0  0  0  0  0  0  0  0  0
   -8.0578    0.8394    0.9393 C   0  0  0  0  0  0  0  0  0  0  0  0
   -8.2610   -0.6310    0.6593 C   0  0  0  0  0  0  0  0  0  0  0  0
    9.7864    0.7365   -0.6518 C   0  0  0  0  0  0  0  0  0  0  0  0
    2.5130    0.9662    1.2546 H   0  0  0  0  0  0  0  0  0  0  0  0
    2.5014   -0.7986    1.2888 H   0  0  0  0  0  0  0  0  0  0  0  0
    4.2186   -0.8587   -0.5251 H   0  0  0  0  0  0  0  0  0  0  0  0
    4.2212    0.9010   -0.5971 H   0  0  0  0  0  0  0  0  0  0  0  0
    1.7633   -0.8157   -1.1303 H   0  0  0  0  0  0  0  0  0  0  0  0
    1.7422    0.9355   -1.1293 H   0  0  0  0  0  0  0  0  0  0  0  0
    4.9962    1.0154    1.7827 H   0  0  0  0  0  0  0  0  0  0  0  0
    4.9609   -0.7440    1.8914 H   0  0  0  0  0  0  0  0  0  0  0  0
    0.0451   -0.8585    0.6794 H   0  0  0  0  0  0  0  0  0  0  0  0
    0.0273    0.9170    0.6984 H   0  0  0  0  0  0  0  0  0  0  0  0
    7.2494    2.0576    0.2662 H   0  0  0  0  0  0  0  0  0  0  0  0
   -8.8102    1.4620    0.4468 H   0  0  0  0  0  0  0  0  0  0  0  0
   -8.0622    1.0586    2.0123 H   0  0  0  0  0  0  0  0  0  0  0  0
   -8.7446   -1.1374    1.5000 H   0  0  0  0  0  0  0  0  0  0  0  0
   -8.8799   -0.7826   -0.2320 H   0  0  0  0  0  0  0  0  0  0  0  0
   -4.6394    2.1028   -0.0707 H   0  0  0  0  0  0  0  0  0  0  0  0
   -4.5635   -2.2095   -0.1569 H   0  0  0  0  0  0  0  0  0  0  0  0
   10.6155    0.4313   -0.0052 H   0  0  0  0  0  0  0  0  0  0  0  0
    9.9723    0.3455   -1.6575 H   0  0  0  0  0  0  0  0  0  0  0  0
    9.7931    1.8298   -0.7112 H   0  0  0  0  0  0  0  0  0  0  0  0
  1 19  1  0  0  0  0
  2 20  1  0  0  0  0
  3 12  1  0  0  0  0
  3 14  1  0  0  0  0
  4  7  1  0  0  0  0
  4 13  1  0  0  0  0
  5 17  1  0  0  0  0
  5 23  1  0  0  0  0
  6 17  2  0  0  0  0
  6 24  1  0  0  0  0
  7 18  2  0  0  0  0
  8  9  1  0  0  0  0
  8 10  1  0  0  0  0
  8 26  1  0  0  0  0
  8 27  1  0  0  0  0
  9 11  1  0  0  0  0
  9 28  1  0  0  0  0
  9 29  1  0  0  0  0
 10 12  1  0  0  0  0
 10 30  1  0  0  0  0
 10 31  1  0  0  0  0
 11 13  1  0  0  0  0
 11 32  1  0  0  0  0
 11 33  1  0  0  0  0
 12 34  1  0  0  0  0
 12 35  1  0  0  0  0
 13 15  2  0  0  0  0
 14 19  2  0  0  0  0
 14 20  1  0  0  0  0
 15 18  1  0  0  0  0
 15 36  1  0  0  0  0
 16 17  1  0  0  0  0
 16 21  2  0  0  0  0
 16 22  1  0  0  0  0
 18 25  1  0  0  0  0
 19 21  1  0  0  0  0
 20 22  2  0  0  0  0
 21 41  1  0  0  0  0
 22 42  1  0  0  0  0
 23 24  1  0  0  0  0
 23 37  1  0  0  0  0
 23 38  1  0  0  0  0
 24 39  1  0  0  0  0
 24 40  1  0  0  0  0
 25 43  1  0  0  0  0
 25 44  1  0  0  0  0
 25 45  1  0  0  0  0
M  END
> <PUBCHEM_COMPOUND_CID>
441048

> <PUBCHEM_CONFORMER_RMSD>
1

> <PUBCHEM_CONFORMER_DIVERSEORDER>
1
116
132
29
79
64
70
81
68
38
129
23
84
31
48
76
3
53
103
60
2
72
35
114
45
62
93
118
133
50
7
83
47
52
42
134
110
89
17
95
25
19
58
135
96
87
11
33
43
80
73
90
109
28
92
108
86
21
40
82
102
37
106
115
30
107
24
131
126
85
36
14
9
101
71
113
32
6
54
65
124
56
34
49
69
75
104
4
105
39
20
88
119
61
8
128
10
100
67
12
94
22
74
41
44
98
51
121
26
111
18
91
59
46
63
99
127
125
97
15
5
77
16
57
117
120
13
112
27
66
55
78
123
122
130

> <PUBCHEM_MMFF94_PARTIAL_CHARGES>
25
1 -0.18
11 0.18
12 0.28
13 -0.04
14 0.08
15 -0.15
16 0.09
17 0.51
18 0.11
19 0.18
2 -0.18
20 0.18
21 -0.15
22 -0.15
23 0.28
24 0.25
25 0.18
3 -0.36
36 0.15
4 -0.02
41 0.15
42 0.15
5 -0.43
6 -0.7
7 -0.41

> <PUBCHEM_EFFECTIVE_ROTOR_COUNT>
8.6

> <PUBCHEM_PHARMACOPHORE_FEATURES>
6
1 3 acceptor
1 7 acceptor
4 8 9 10 11 hydrophobe
5 4 7 13 15 18 rings
5 5 6 17 23 24 rings
6 14 16 19 20 21 22 rings

> <PUBCHEM_HEAVY_ATOM_COUNT>
25

> <PUBCHEM_ATOM_DEF_STEREO_COUNT>
0

> <PUBCHEM_ATOM_UDEF_STEREO_COUNT>
0

> <PUBCHEM_BOND_DEF_STEREO_COUNT>
0

> <PUBCHEM_BOND_UDEF_STEREO_COUNT>
0

> <PUBCHEM_ISOTOPIC_ATOM_COUNT>
0

> <PUBCHEM_COMPONENT_COUNT>
1

> <PUBCHEM_CACTVS_TAUTO_COUNT>
1

> <PUBCHEM_CONFORMER_ID>
0006BAD800000001

> <PUBCHEM_MMFF94_ENERGY>
49.8551

> <PUBCHEM_FEATURE_SELFOVERLAP>
30.446

> <PUBCHEM_SHAPE_FINGERPRINT>
10 15 18410292514570148930
10165383 225 17967813860472558923
10299344 5 18342740711088693746
106641 1 17418372484664905752
10883706 142 15936406729027636055
11315181 36 17917994988433490045
11524674 6 16805609140274112734
12082328 90 13470420975634456755
13914758 101 5328466990424226770
14123256 10 11240001156818486081
14150022 121 18113895013899438081
14251764 18 18335424564516729766
14251764 46 17168142338460112793
14933364 13 18408889530013558240
15183329 4 17458062673581330154
18335252 98 18343584062646149954
21095086 128 17560804360090498002
21150785 3 12967130510488310296
21267235 1 18272933816767553196
21304253 13 18260267430627426529
21781055 127 17896297225380264001
21792961 116 17895196657860244920
21795232 338 18267020557545310786
22224240 67 16415480454655344322
232437 2 18333731307930420747
246663 6 16630806607930007083
28498 318 15864066581886437956
335352 9 18334581226577125965
33684 2 7925914776763948888
4325135 7 18273214192918081092
4339292 15 14129639714415684253
5758199 1 17989489623991177570
6081469 158 6699810869556381946
6394761 36 16805323288698917690
67123 10 18131912655076617832

> <PUBCHEM_SHAPE_MULTIPOLES>
490.66
31.19
1.8
0.94
45.51
0.06
-0.03
-1.11
-6.26
-1.92
0.49
-0.05
-0.02
-0.39

> <PUBCHEM_SHAPE_SELFOVERLAP>
1017.43

> <PUBCHEM_SHAPE_VOLUME>
282.8

> <PUBCHEM_COORDINATE_TYPE>
2
5
10

$$$$

