14134
  -OEChem-06241222423D

 31 32  0     0  0  0  0  0  0999 V2000
    1.9127    2.0647   -0.3707 O   0  0  0  0  0  0  0  0  0  0  0  0
    2.2317   -0.5546   -1.7593 O   0  0  0  0  0  0  0  0  0  0  0  0
   -2.2538    1.5336    0.2552 N   0  0  0  0  0  0  0  0  0  0  0  0
    2.6806   -0.8193    0.5322 N   0  0  0  0  0  0  0  0  0  0  0  0
   -0.9641   -0.2496   -0.1113 C   0  0  0  0  0  0  0  0  0  0  0  0
   -0.1550    0.9207   -0.1280 C   0  0  0  0  0  0  0  0  0  0  0  0
   -2.2762    0.1626    0.1311 C   0  0  0  0  0  0  0  0  0  0  0  0
   -0.9762    2.0009    0.0998 C   0  0  0  0  0  0  0  0  0  0  0  0
   -0.7055   -1.6243   -0.2798 C   0  0  0  0  0  0  0  0  0  0  0  0
    1.2628    1.0062   -0.3406 C   0  0  0  0  0  0  0  0  0  0  0  0
   -3.3468   -0.7347    0.2139 C   0  0  0  0  0  0  0  0  0  0  0  0
   -0.6812    3.4445    0.1881 C   0  0  0  0  0  0  0  0  0  0  0  0
   -1.7664   -2.5336   -0.1995 C   0  0  0  0  0  0  0  0  0  0  0  0
   -3.0660   -2.0936    0.0436 C   0  0  0  0  0  0  0  0  0  0  0  0
    2.1209   -0.2128   -0.5878 C   0  0  0  0  0  0  0  0  0  0  0  0
    3.5161   -2.0065    0.4317 C   0  0  0  0  0  0  0  0  0  0  0  0
    2.4663   -0.3042    1.8812 C   0  0  0  0  0  0  0  0  0  0  0  0
   -3.0663    2.1073    0.4350 H   0  0  0  0  0  0  0  0  0  0  0  0
    0.2877   -2.0126   -0.4727 H   0  0  0  0  0  0  0  0  0  0  0  0
   -4.3589   -0.3930    0.4031 H   0  0  0  0  0  0  0  0  0  0  0  0
    0.0343    3.6435    0.9926 H   0  0  0  0  0  0  0  0  0  0  0  0
   -0.2559    3.8094   -0.7524 H   0  0  0  0  0  0  0  0  0  0  0  0
   -1.5819    4.0325    0.3940 H   0  0  0  0  0  0  0  0  0  0  0  0
   -1.5733   -3.5953   -0.3289 H   0  0  0  0  0  0  0  0  0  0  0  0
   -3.8751   -2.8171    0.1020 H   0  0  0  0  0  0  0  0  0  0  0  0
    4.5088   -1.7769    0.8289 H   0  0  0  0  0  0  0  0  0  0  0  0
    3.6115   -2.3278   -0.6088 H   0  0  0  0  0  0  0  0  0  0  0  0
    3.0600   -2.8109    1.0155 H   0  0  0  0  0  0  0  0  0  0  0  0
    3.4414   -0.1526    2.3543 H   0  0  0  0  0  0  0  0  0  0  0  0
    1.9054   -1.0531    2.4486 H   0  0  0  0  0  0  0  0  0  0  0  0
    1.9218    0.6392    1.9153 H   0  0  0  0  0  0  0  0  0  0  0  0
  1 10  2  0  0  0  0
  2 15  2  0  0  0  0
  3  7  1  0  0  0  0
  3  8  1  0  0  0  0
  3 18  1  0  0  0  0
  4 15  1  0  0  0  0
  4 16  1  0  0  0  0
  4 17  1  0  0  0  0
  5  6  1  0  0  0  0
  5  7  1  0  0  0  0
  5  9  2  0  0  0  0
  6  8  2  0  0  0  0
  6 10  1  0  0  0  0
  7 11  2  0  0  0  0
  8 12  1  0  0  0  0
  9 13  1  0  0  0  0
  9 19  1  0  0  0  0
 10 15  1  0  0  0  0
 11 14  1  0  0  0  0
 11 20  1  0  0  0  0
 12 21  1  0  0  0  0
 12 22  1  0  0  0  0
 12 23  1  0  0  0  0
 13 14  2  0  0  0  0
 13 24  1  0  0  0  0
 14 25  1  0  0  0  0
 16 26  1  0  0  0  0
 16 27  1  0  0  0  0
 16 28  1  0  0  0  0
 17 29  1  0  0  0  0
 17 30  1  0  0  0  0
 17 31  1  0  0  0  0
M  END
> <PUBCHEM_COMPOUND_CID>
14134

> <PUBCHEM_CONFORMER_RMSD>
0.6

> <PUBCHEM_CONFORMER_DIVERSEORDER>
2
4
13
1
3
14
5
10
6
11
9
8
7
12

> <PUBCHEM_MMFF94_PARTIAL_CHARGES>
21
1 -0.57
10 0.66
11 -0.15
12 0.18
13 -0.15
14 -0.15
15 0.63
16 0.3
17 0.3
18 0.27
19 0.15
2 -0.57
20 0.15
24 0.15
25 0.15
3 0.03
4 -0.66
6 -0.09
7 -0.15
8 -0.33
9 -0.15

> <PUBCHEM_EFFECTIVE_ROTOR_COUNT>
3

> <PUBCHEM_PHARMACOPHORE_FEATURES>
6
1 1 acceptor
1 2 acceptor
1 3 cation
1 3 donor
5 3 5 6 7 8 rings
6 5 7 9 11 13 14 rings

> <PUBCHEM_HEAVY_ATOM_COUNT>
17

> <PUBCHEM_ATOM_DEF_STEREO_COUNT>
0

> <PUBCHEM_ATOM_UDEF_STEREO_COUNT>
0

> <PUBCHEM_BOND_DEF_STEREO_COUNT>
0

> <PUBCHEM_BOND_UDEF_STEREO_COUNT>
0

> <PUBCHEM_ISOTOPIC_ATOM_COUNT>
0

> <PUBCHEM_COMPONENT_COUNT>
1

> <PUBCHEM_CACTVS_TAUTO_COUNT>
7

> <PUBCHEM_CONFORMER_ID>
0000373600000002

> <PUBCHEM_MMFF94_ENERGY>
30.4712

> <PUBCHEM_FEATURE_SELFOVERLAP>
30.539

> <PUBCHEM_SHAPE_FINGERPRINT>
10967382 1 18049438141510609487
11578080 2 17488488371855887004
12382932 28 18190746336219059153
12553582 1 18338510846485239687
13083527 12 17543102003064589907
13140716 1 18409441514382820721
13538477 17 18271802471031667660
14022347 108 18194651887805491159
15001771 113 18342740706329411874
15076042 46 18410856602600031537
15375462 175 18192127490321950142
15375462 189 18125713492259674979
16752209 62 18270407225315106279
16945 1 18265888236719882293
17804303 29 18190180264225625962
17990270 104 18046053857436528919
19049666 15 17534340338589819382
19591789 44 17399491912022568685
20510252 161 18189338037944184032
20559304 39 18268149747180336674
21650355 55 18338532913990043248
2255824 54 17549824382907895765
23184049 29 18410858754521078148
232386 152 18342176687235381350
2334 1 18337384929593505357
23388829 49 17321848356164707175
23419403 2 16976805213573556736
23463225 33 18411134701980607783
23552423 10 17763461712835533615
23559900 14 18189330337879958774
23598291 2 17558812113239096462
23598294 1 18339624724809970665
257057 1 18338246950782914575
2748010 2 18335980891931222189
34934 24 18192712241766976549
427121 178 16231625733823213057
6338986 31 18191602856057022303
7364860 26 17685203981150044053
81228 2 18334288816545205193

> <PUBCHEM_SHAPE_MULTIPOLES>
328.15
5.09
3.2
1.03
1.04
1.63
0.11
-3.27
0.72
-1
0.07
0.95
-0.16
-0.38

> <PUBCHEM_SHAPE_SELFOVERLAP>
707.029

> <PUBCHEM_SHAPE_VOLUME>
182.9

> <PUBCHEM_COORDINATE_TYPE>
2
5
10

$$$$

