46173771
  -OEChem-07051212532D

 88 86  0     0  0  0  0  0  0999 V2000
    6.7707    0.9319    0.0000 Fe  0  0  0  0  0  0  0  0  0  0  0  0
    5.7926    1.1398    0.0000 O   0  0  0  0  0  0  0  0  0  0  0  0
    7.3585    0.1229    0.0000 O   0  0  0  0  0  0  0  0  0  0  0  0
    7.7489    1.1398    0.0000 O   0  0  0  0  0  0  0  0  0  0  0  0
    3.7405    3.2628    0.0000 O   0  0  0  0  0  0  0  0  0  0  0  0
    5.9864   -2.1462    0.0000 O   0  0  0  0  0  0  0  0  0  0  0  0
    2.5674   -1.5086    0.0000 O   0  0  0  0  0  0  0  0  0  0  0  0
    4.7694    6.0914    0.0000 O   0  0  0  0  0  0  0  0  0  0  0  0
    9.0931    0.0803    0.0000 O   0  0  0  0  0  0  0  0  0  0  0  0
    4.9836    1.7276    0.0000 N   0  0  0  0  0  0  0  0  0  0  0  0
    6.9461   -0.7881    0.0000 N   0  0  0  0  0  0  0  0  0  0  0  0
    8.5579    1.7276    0.0000 N   0  0  0  0  0  0  0  0  0  0  0  0
    3.2719    0.0737    0.0000 N   0  0  0  0  0  0  0  0  0  0  0  0
    6.2707    5.6891    0.0000 N   0  0  0  0  0  0  0  0  0  0  0  0
    8.1434   -5.8445    0.0000 N   0  0  0  0  0  0  0  0  0  0  0  0
    3.4013    2.4321    0.0000 C   0  0  0  0  0  0  0  0  0  0  0  0
    2.4067    2.3276    0.0000 C   0  0  0  0  0  0  0  0  0  0  0  0
    3.9890    1.6231    0.0000 C   0  0  0  0  0  0  0  0  0  0  0  0
    2.0000    1.4140    0.0000 C   0  0  0  0  0  0  0  0  0  0  0  0
    9.1624    3.5882    0.0000 C   0  0  0  0  0  0  0  0  0  0  0  0
    8.8534    4.5392    0.0000 C   0  0  0  0  0  0  0  0  0  0  0  0
    7.6322   -1.5157    0.0000 C   0  0  0  0  0  0  0  0  0  0  0  0
    7.3452   -2.4736    0.0000 C   0  0  0  0  0  0  0  0  0  0  0  0
    9.0579    2.5936    0.0000 C   0  0  0  0  0  0  0  0  0  0  0  0
    8.1843    5.2824    0.0000 C   0  0  0  0  0  0  0  0  0  0  0  0
    8.0313   -3.2011    0.0000 C   0  0  0  0  0  0  0  0  0  0  0  0
    2.3584    0.4804    0.0000 C   0  0  0  0  0  0  0  0  0  0  0  0
    7.2707    5.6891    0.0000 C   0  0  0  0  0  0  0  0  0  0  0  0
    4.4836    2.5936    0.0000 C   0  0  0  0  0  0  0  0  0  0  0  0
    4.3790    3.5882    0.0000 C   0  0  0  0  0  0  0  0  0  0  0  0
    7.7443   -4.1590    0.0000 C   0  0  0  0  0  0  0  0  0  0  0  0
    6.0126   -1.1465    0.0000 C   0  0  0  0  0  0  0  0  0  0  0  0
    5.0990   -0.7398    0.0000 C   0  0  0  0  0  0  0  0  0  0  0  0
    4.6880    4.5392    0.0000 C   0  0  0  0  0  0  0  0  0  0  0  0
    4.2900   -1.3276    0.0000 C   0  0  0  0  0  0  0  0  0  0  0  0
    3.3764   -0.9208    0.0000 C   0  0  0  0  0  0  0  0  0  0  0  0
    5.3572    5.2824    0.0000 C   0  0  0  0  0  0  0  0  0  0  0  0
    8.4304   -4.8866    0.0000 C   0  0  0  0  0  0  0  0  0  0  0  0
    9.3010    1.0585    0.0000 C   0  0  0  0  0  0  0  0  0  0  0  0
   10.2521    1.3675    0.0000 C   0  0  0  0  0  0  0  0  0  0  0  0
    3.9585    2.7039    0.0000 H   0  0  0  0  0  0  0  0  0  0  0  0
    3.2304    3.0281    0.0000 H   0  0  0  0  0  0  0  0  0  0  0  0
    2.4500    2.9460    0.0000 H   0  0  0  0  0  0  0  0  0  0  0  0
    1.8052    2.4776    0.0000 H   0  0  0  0  0  0  0  0  0  0  0  0
    3.4318    1.3513    0.0000 H   0  0  0  0  0  0  0  0  0  0  0  0
    4.1599    1.0271    0.0000 H   0  0  0  0  0  0  0  0  0  0  0  0
    1.5182    1.8042    0.0000 H   0  0  0  0  0  0  0  0  0  0  0  0
    1.4984    1.0496    0.0000 H   0  0  0  0  0  0  0  0  0  0  0  0
    9.7098    3.2971    0.0000 H   0  0  0  0  0  0  0  0  0  0  0  0
    8.5458    3.5233    0.0000 H   0  0  0  0  0  0  0  0  0  0  0  0
    9.4719    4.4960    0.0000 H   0  0  0  0  0  0  0  0  0  0  0  0
    8.3165    4.2292    0.0000 H   0  0  0  0  0  0  0  0  0  0  0  0
    8.1862   -1.7940    0.0000 H   0  0  0  0  0  0  0  0  0  0  0  0
    8.0026   -1.0184    0.0000 H   0  0  0  0  0  0  0  0  0  0  0  0
    6.7912   -2.1952    0.0000 H   0  0  0  0  0  0  0  0  0  0  0  0
    6.9749   -2.9708    0.0000 H   0  0  0  0  0  0  0  0  0  0  0  0
    9.4396    2.1051    0.0000 H   0  0  0  0  0  0  0  0  0  0  0  0
    8.4682    2.7852    0.0000 H   0  0  0  0  0  0  0  0  0  0  0  0
    8.7669    5.4944    0.0000 H   0  0  0  0  0  0  0  0  0  0  0  0
    7.8198    4.7808    0.0000 H   0  0  0  0  0  0  0  0  0  0  0  0
    8.5853   -3.4795    0.0000 H   0  0  0  0  0  0  0  0  0  0  0  0
    8.4016   -2.7039    0.0000 H   0  0  0  0  0  0  0  0  0  0  0  0
    1.7418    0.4156    0.0000 H   0  0  0  0  0  0  0  0  0  0  0  0
    2.2614   -0.1319    0.0000 H   0  0  0  0  0  0  0  0  0  0  0  0
    5.5404    0.5734    0.0000 H   0  0  0  0  0  0  0  0  0  0  0  0
    7.9241   -0.1310    0.0000 H   0  0  0  0  0  0  0  0  0  0  0  0
    7.7167    6.1198    0.0000 H   0  0  0  0  0  0  0  0  0  0  0  0
    7.1418    5.0826    0.0000 H   0  0  0  0  0  0  0  0  0  0  0  0
    3.9041    3.9867    0.0000 H   0  0  0  0  0  0  0  0  0  0  0  0
    4.9956    3.5233    0.0000 H   0  0  0  0  0  0  0  0  0  0  0  0
    8.2505    0.7754    0.0000 H   0  0  0  0  0  0  0  0  0  0  0  0
    7.1903   -3.8807    0.0000 H   0  0  0  0  0  0  0  0  0  0  0  0
    7.3740   -4.6563    0.0000 H   0  0  0  0  0  0  0  0  0  0  0  0
    5.4457   -0.2258    0.0000 H   0  0  0  0  0  0  0  0  0  0  0  0
    4.6530   -0.3091    0.0000 H   0  0  0  0  0  0  0  0  0  0  0  0
    4.4163    5.0965    0.0000 H   0  0  0  0  0  0  0  0  0  0  0  0
    5.2250    4.2292    0.0000 H   0  0  0  0  0  0  0  0  0  0  0  0
    3.9433   -1.8416    0.0000 H   0  0  0  0  0  0  0  0  0  0  0  0
    4.7360   -1.7582    0.0000 H   0  0  0  0  0  0  0  0  0  0  0  0
    3.7735    0.4381    0.0000 H   0  0  0  0  0  0  0  0  0  0  0  0
    6.1418    6.2955    0.0000 H   0  0  0  0  0  0  0  0  0  0  0  0
    8.9844   -5.1649    0.0000 H   0  0  0  0  0  0  0  0  0  0  0  0
    8.8008   -4.3893    0.0000 H   0  0  0  0  0  0  0  0  0  0  0  0
   10.4437    0.7778    0.0000 H   0  0  0  0  0  0  0  0  0  0  0  0
   10.8418    1.5591    0.0000 H   0  0  0  0  0  0  0  0  0  0  0  0
   10.0605    1.9571    0.0000 H   0  0  0  0  0  0  0  0  0  0  0  0
    8.5688   -6.2955    0.0000 H   0  0  0  0  0  0  0  0  0  0  0  0
    7.5401   -5.9873    0.0000 H   0  0  0  0  0  0  0  0  0  0  0  0
  2 10  1  0  0  0  0
  2 65  1  0  0  0  0
  3 11  1  0  0  0  0
  3 66  1  0  0  0  0
  4 12  1  0  0  0  0
  4 71  1  0  0  0  0
  5 29  2  0  0  0  0
  6 32  2  0  0  0  0
  7 36  2  0  0  0  0
  8 37  2  0  0  0  0
  9 39  2  0  0  0  0
 10 18  1  0  0  0  0
 10 29  1  0  0  0  0
 11 22  1  0  0  0  0
 11 32  1  0  0  0  0
 12 24  1  0  0  0  0
 12 39  1  0  0  0  0
 13 27  1  0  0  0  0
 13 36  1  0  0  0  0
 13 80  1  0  0  0  0
 14 28  1  0  0  0  0
 14 37  1  0  0  0  0
 14 81  1  0  0  0  0
 15 38  1  0  0  0  0
 15 87  1  0  0  0  0
 15 88  1  0  0  0  0
 16 17  1  0  0  0  0
 16 18  1  0  0  0  0
 16 41  1  0  0  0  0
 16 42  1  0  0  0  0
 17 19  1  0  0  0  0
 17 43  1  0  0  0  0
 17 44  1  0  0  0  0
 18 45  1  0  0  0  0
 18 46  1  0  0  0  0
 19 27  1  0  0  0  0
 19 47  1  0  0  0  0
 19 48  1  0  0  0  0
 20 21  1  0  0  0  0
 20 24  1  0  0  0  0
 20 49  1  0  0  0  0
 20 50  1  0  0  0  0
 21 25  1  0  0  0  0
 21 51  1  0  0  0  0
 21 52  1  0  0  0  0
 22 23  1  0  0  0  0
 22 53  1  0  0  0  0
 22 54  1  0  0  0  0
 23 26  1  0  0  0  0
 23 55  1  0  0  0  0
 23 56  1  0  0  0  0
 24 57  1  0  0  0  0
 24 58  1  0  0  0  0
 25 28  1  0  0  0  0
 25 59  1  0  0  0  0
 25 60  1  0  0  0  0
 26 31  1  0  0  0  0
 26 61  1  0  0  0  0
 26 62  1  0  0  0  0
 27 63  1  0  0  0  0
 27 64  1  0  0  0  0
 28 67  1  0  0  0  0
 28 68  1  0  0  0  0
 29 30  1  0  0  0  0
 30 34  1  0  0  0  0
 30 69  1  0  0  0  0
 30 70  1  0  0  0  0
 31 38  1  0  0  0  0
 31 72  1  0  0  0  0
 31 73  1  0  0  0  0
 32 33  1  0  0  0  0
 33 35  1  0  0  0  0
 33 74  1  0  0  0  0
 33 75  1  0  0  0  0
 34 37  1  0  0  0  0
 34 76  1  0  0  0  0
 34 77  1  0  0  0  0
 35 36  1  0  0  0  0
 35 78  1  0  0  0  0
 35 79  1  0  0  0  0
 38 82  1  0  0  0  0
 38 83  1  0  0  0  0
 39 40  1  0  0  0  0
 40 84  1  0  0  0  0
 40 85  1  0  0  0  0
 40 86  1  0  0  0  0
M  END
> <PUBCHEM_COMPOUND_CID>
46173771

> <PUBCHEM_COMPOUND_CANONICALIZED>
1

> <PUBCHEM_CACTVS_COMPLEXITY>
746

> <PUBCHEM_CACTVS_HBOND_ACCEPTOR>
9

> <PUBCHEM_CACTVS_HBOND_DONOR>
6

> <PUBCHEM_CACTVS_ROTATABLE_BOND>
5

> <PUBCHEM_CACTVS_SUBSKEYS>
AAADcfB7vAAAAAAgAAAAAAAAAAAAAAAAAAAAAAAAAAAAAAAAAAAAHgAUCAAACADBgAQCAALQAAAIAAEQEAAAAAAAAAAgAIEIAAAAABIAgAAEAAAAFgCAAAAVAAAAAAAAAAAAAAAAAAAAAAAAAAAAAAAAAA==

> <PUBCHEM_IUPAC_OPENEYE_NAME>
N-[5-[[4-[5-[acetyl(hydroxy)amino]pentylamino]-4-oxo-butanoyl]-hydroxy-amino]pentyl]-N'-(5-aminopentyl)-N'-hydroxy-butanediamide; iron

> <PUBCHEM_IUPAC_CAS_NAME>
N-[5-[[4-[5-[acetyl(hydroxy)amino]pentylamino]-1,4-dioxobutyl]-hydroxyamino]pentyl]-N'-(5-aminopentyl)-N'-hydroxybutanediamide; iron

> <PUBCHEM_IUPAC_NAME>
N-[5-[[4-[5-[acetyl(hydroxy)amino]pentylamino]-4-oxobutanoyl]-hydroxyamino]pentyl]-N'-(5-aminopentyl)-N'-hydroxybutanediamide; iron

> <PUBCHEM_IUPAC_SYSTEMATIC_NAME>
N'-(5-azanylpentyl)-N-[5-[[4-[5-[ethanoyl(oxidanyl)amino]pentylamino]-4-oxidanylidene-butanoyl]-oxidanyl-amino]pentyl]-N'-oxidanyl-butanediamide; iron

> <PUBCHEM_IUPAC_TRADITIONAL_NAME>
N-[5-[[4-[5-[acetyl(hydroxy)amino]pentylamino]-4-keto-butanoyl]-hydroxy-amino]pentyl]-N'-(5-aminopentyl)-N'-hydroxy-succinamide; iron

> <PUBCHEM_IUPAC_INCHI>
InChI=1S/C25H48N6O8.Fe/c1-21(32)29(37)18-9-3-6-16-27-22(33)12-14-25(36)31(39)20-10-4-7-17-28-23(34)11-13-24(35)30(38)19-8-2-5-15-26;/h37-39H,2-20,26H2,1H3,(H,27,33)(H,28,34);

> <PUBCHEM_IUPAC_INCHIKEY>
RLQJSUCFBHXPHA-UHFFFAOYSA-N

> <PUBCHEM_EXACT_MASS>
616.2883

> <PUBCHEM_MOLECULAR_FORMULA>
C25H48FeN6O8

> <PUBCHEM_MOLECULAR_WEIGHT>
616.52902

> <PUBCHEM_OPENEYE_CAN_SMILES>
CC(=O)N(CCCCCNC(=O)CCC(=O)N(CCCCCNC(=O)CCC(=O)N(CCCCCN)O)O)O.[Fe]

> <PUBCHEM_OPENEYE_ISO_SMILES>
CC(=O)N(CCCCCNC(=O)CCC(=O)N(CCCCCNC(=O)CCC(=O)N(CCCCCN)O)O)O.[Fe]

> <PUBCHEM_CACTVS_TPSA>
206

> <PUBCHEM_MONOISOTOPIC_WEIGHT>
616.2883

> <PUBCHEM_TOTAL_CHARGE>
0

> <PUBCHEM_HEAVY_ATOM_COUNT>
40

> <PUBCHEM_ATOM_DEF_STEREO_COUNT>
0

> <PUBCHEM_ATOM_UDEF_STEREO_COUNT>
0

> <PUBCHEM_BOND_DEF_STEREO_COUNT>
0

> <PUBCHEM_BOND_UDEF_STEREO_COUNT>
0

> <PUBCHEM_ISOTOPIC_ATOM_COUNT>
0

> <PUBCHEM_COMPONENT_COUNT>
2

> <PUBCHEM_CACTVS_TAUTO_COUNT>
36

> <PUBCHEM_NONSTANDARDBOND>
1  2  6
1  3  6
1  4  6

> <PUBCHEM_COORDINATE_TYPE>
1
5
255

$$$$

