17395448
  -OEChem-06241222502D

 45 47  0     0  0  0  0  0  0999 V2000
    2.8660    1.2500    0.0000 O   0  0  0  0  0  0  0  0  0  0  0  0
    4.5981    5.2500    0.0000 O   0  0  0  0  0  0  0  0  0  0  0  0
    3.7320   -0.2500    0.0000 N   0  0  0  0  0  0  0  0  0  0  0  0
    2.8660   -4.7500    0.0000 N   0  0  0  0  0  0  0  0  0  0  0  0
    3.7320    2.7500    0.0000 N   0  0  0  0  0  0  0  0  0  0  0  0
    3.7320    3.7500    0.0000 N   0  0  0  0  0  0  0  0  0  0  0  0
    5.4641    2.7500    0.0000 C   0  0  0  0  0  0  0  0  0  0  0  0
    4.5981    2.2500    0.0000 C   0  0  0  0  0  0  0  0  0  0  0  0
    4.5981    1.2500    0.0000 C   0  0  0  0  0  0  0  0  0  0  0  0
    2.8660   -0.7500    0.0000 C   0  0  0  0  0  0  0  0  0  0  0  0
    2.8660   -1.7500    0.0000 C   0  0  0  0  0  0  0  0  0  0  0  0
    5.4641    3.7500    0.0000 C   0  0  0  0  0  0  0  0  0  0  0  0
    3.7320    0.7500    0.0000 C   0  0  0  0  0  0  0  0  0  0  0  0
    2.8660   -3.7500    0.0000 C   0  0  0  0  0  0  0  0  0  0  0  0
    3.7320   -2.2500    0.0000 C   0  0  0  0  0  0  0  0  0  0  0  0
    2.0000   -2.2500    0.0000 C   0  0  0  0  0  0  0  0  0  0  0  0
    6.3580    2.2153    0.0000 C   0  0  0  0  0  0  0  0  0  0  0  0
    3.7320   -3.2500    0.0000 C   0  0  0  0  0  0  0  0  0  0  0  0
    2.0000   -3.2500    0.0000 C   0  0  0  0  0  0  0  0  0  0  0  0
    4.5981    4.2500    0.0000 C   0  0  0  0  0  0  0  0  0  0  0  0
    6.3580    4.2847    0.0000 C   0  0  0  0  0  0  0  0  0  0  0  0
    7.2641    2.7292    0.0000 C   0  0  0  0  0  0  0  0  0  0  0  0
    7.2641    3.7708    0.0000 C   0  0  0  0  0  0  0  0  0  0  0  0
    2.0000   -5.2500    0.0000 C   0  0  0  0  0  0  0  0  0  0  0  0
    3.7320   -5.2500    0.0000 C   0  0  0  0  0  0  0  0  0  0  0  0
    4.8101    0.6674    0.0000 H   0  0  0  0  0  0  0  0  0  0  0  0
    5.2087    1.3577    0.0000 H   0  0  0  0  0  0  0  0  0  0  0  0
    2.6540   -0.1674    0.0000 H   0  0  0  0  0  0  0  0  0  0  0  0
    2.2554   -0.8577    0.0000 H   0  0  0  0  0  0  0  0  0  0  0  0
    4.2690   -0.5600    0.0000 H   0  0  0  0  0  0  0  0  0  0  0  0
    4.2690   -1.9400    0.0000 H   0  0  0  0  0  0  0  0  0  0  0  0
    1.4631   -1.9400    0.0000 H   0  0  0  0  0  0  0  0  0  0  0  0
    6.3509    1.5954    0.0000 H   0  0  0  0  0  0  0  0  0  0  0  0
    4.2690   -3.5600    0.0000 H   0  0  0  0  0  0  0  0  0  0  0  0
    1.4631   -3.5600    0.0000 H   0  0  0  0  0  0  0  0  0  0  0  0
    6.3509    4.9046    0.0000 H   0  0  0  0  0  0  0  0  0  0  0  0
    3.1951    4.0600    0.0000 H   0  0  0  0  0  0  0  0  0  0  0  0
    7.7998    2.4171    0.0000 H   0  0  0  0  0  0  0  0  0  0  0  0
    7.7998    4.0829    0.0000 H   0  0  0  0  0  0  0  0  0  0  0  0
    1.6900   -4.7131    0.0000 H   0  0  0  0  0  0  0  0  0  0  0  0
    3.4220   -5.7869    0.0000 H   0  0  0  0  0  0  0  0  0  0  0  0
    4.2690   -5.5600    0.0000 H   0  0  0  0  0  0  0  0  0  0  0  0
    4.0420   -4.7131    0.0000 H   0  0  0  0  0  0  0  0  0  0  0  0
    1.4631   -5.5600    0.0000 H   0  0  0  0  0  0  0  0  0  0  0  0
    2.3100   -5.7869    0.0000 H   0  0  0  0  0  0  0  0  0  0  0  0
  1 13  2  0  0  0  0
  2 20  2  0  0  0  0
  3 10  1  0  0  0  0
  3 13  1  0  0  0  0
  3 30  1  0  0  0  0
  4 14  1  0  0  0  0
  4 24  1  0  0  0  0
  4 25  1  0  0  0  0
  5  6  1  0  0  0  0
  5  8  2  0  0  0  0
  6 20  1  0  0  0  0
  6 37  1  0  0  0  0
  7  8  1  0  0  0  0
  7 12  1  0  0  0  0
  7 17  2  0  0  0  0
  8  9  1  0  0  0  0
  9 13  1  0  0  0  0
  9 26  1  0  0  0  0
  9 27  1  0  0  0  0
 10 11  1  0  0  0  0
 10 28  1  0  0  0  0
 10 29  1  0  0  0  0
 11 15  2  0  0  0  0
 11 16  1  0  0  0  0
 12 20  1  0  0  0  0
 12 21  2  0  0  0  0
 14 18  2  0  0  0  0
 14 19  1  0  0  0  0
 15 18  1  0  0  0  0
 15 31  1  0  0  0  0
 16 19  2  0  0  0  0
 16 32  1  0  0  0  0
 17 22  1  0  0  0  0
 17 33  1  0  0  0  0
 18 34  1  0  0  0  0
 19 35  1  0  0  0  0
 21 23  1  0  0  0  0
 21 36  1  0  0  0  0
 22 23  2  0  0  0  0
 22 38  1  0  0  0  0
 23 39  1  0  0  0  0
 24 40  1  0  0  0  0
 24 44  1  0  0  0  0
 24 45  1  0  0  0  0
 25 41  1  0  0  0  0
 25 42  1  0  0  0  0
 25 43  1  0  0  0  0
M  END
> <PUBCHEM_COMPOUND_CID>
17395448

> <PUBCHEM_COMPOUND_CANONICALIZED>
1

> <PUBCHEM_CACTVS_COMPLEXITY>
524

> <PUBCHEM_CACTVS_HBOND_ACCEPTOR>
4

> <PUBCHEM_CACTVS_HBOND_DONOR>
2

> <PUBCHEM_CACTVS_ROTATABLE_BOND>
5

> <PUBCHEM_CACTVS_SUBSKEYS>
AAADceB7sAAAAAAAAAAAAAAAAAAAAAAAAAAwYIAAAAAAAACBQAAAHgAYAAAADAjBmAQywIPiAACoAyVyUACSAAAlAgAaiIE4ZNgIILLAlZGEIQhgngDIyYcYiICOiAAAAAAQAAAQAAAAACAAAAAAAAAAAA==

> <PUBCHEM_IUPAC_OPENEYE_NAME>
N-[[4-(dimethylamino)phenyl]methyl]-2-(4-oxo-3H-phthalazin-1-yl)acetamide

> <PUBCHEM_IUPAC_CAS_NAME>
N-[[4-(dimethylamino)phenyl]methyl]-2-(4-oxo-3H-phthalazin-1-yl)acetamide

> <PUBCHEM_IUPAC_NAME>
N-[[4-(dimethylamino)phenyl]methyl]-2-(4-oxo-3H-phthalazin-1-yl)acetamide

> <PUBCHEM_IUPAC_SYSTEMATIC_NAME>
N-[[4-(dimethylamino)phenyl]methyl]-2-(4-oxidanylidene-3H-phthalazin-1-yl)ethanamide

> <PUBCHEM_IUPAC_TRADITIONAL_NAME>
N-[4-(dimethylamino)benzyl]-2-(4-keto-3H-phthalazin-1-yl)acetamide

> <PUBCHEM_IUPAC_INCHI>
InChI=1S/C19H20N4O2/c1-23(2)14-9-7-13(8-10-14)12-20-18(24)11-17-15-5-3-4-6-16(15)19(25)22-21-17/h3-10H,11-12H2,1-2H3,(H,20,24)(H,22,25)

> <PUBCHEM_IUPAC_INCHIKEY>
DNECHSOKBIOJOO-UHFFFAOYSA-N

> <PUBCHEM_XLOGP3_AA>
2.1

> <PUBCHEM_EXACT_MASS>
336.158626

> <PUBCHEM_MOLECULAR_FORMULA>
C19H20N4O2

> <PUBCHEM_MOLECULAR_WEIGHT>
336.3877

> <PUBCHEM_OPENEYE_CAN_SMILES>
CN(C)C1=CC=C(C=C1)CNC(=O)CC2=NNC(=O)C3=CC=CC=C32

> <PUBCHEM_OPENEYE_ISO_SMILES>
CN(C)C1=CC=C(C=C1)CNC(=O)CC2=NNC(=O)C3=CC=CC=C32

> <PUBCHEM_CACTVS_TPSA>
73.8

> <PUBCHEM_MONOISOTOPIC_WEIGHT>
336.158626

> <PUBCHEM_TOTAL_CHARGE>
0

> <PUBCHEM_HEAVY_ATOM_COUNT>
25

> <PUBCHEM_ATOM_DEF_STEREO_COUNT>
0

> <PUBCHEM_ATOM_UDEF_STEREO_COUNT>
0

> <PUBCHEM_BOND_DEF_STEREO_COUNT>
0

> <PUBCHEM_BOND_UDEF_STEREO_COUNT>
0

> <PUBCHEM_ISOTOPIC_ATOM_COUNT>
0

> <PUBCHEM_COMPONENT_COUNT>
1

> <PUBCHEM_CACTVS_TAUTO_COUNT>
4

> <PUBCHEM_COORDINATE_TYPE>
1
5
255

> <PUBCHEM_BONDANNOTATIONS>
11  15  8
11  16  8
12  20  8
12  21  8
14  18  8
14  19  8
15  18  8
16  19  8
17  22  8
21  23  8
22  23  8
5  6  8
5  8  8
6  20  8
7  12  8
7  17  8
7  8  8

$$$$

