14304
  -OEChem-06241222433D

 21 21  0     0  0  0  0  0  0999 V2000
    1.7664   -1.4144    1.6378 Cl  0  0  0  0  0  0  0  0  0  0  0  0
    1.7516   -1.4380   -1.6418 Cl  0  0  0  0  0  0  0  0  0  0  0  0
    1.3703   -0.2758   -0.0086 Si  0  0  0  0  0  0  0  0  0  0  0  0
    2.3854    1.2449   -0.0246 C   0  0  0  0  0  0  0  0  0  0  0  0
   -0.4777   -0.0366   -0.0025 C   0  0  0  0  0  0  0  0  0  0  0  0
    3.8926    1.0308    0.0255 C   0  0  0  0  0  0  0  0  0  0  0  0
   -1.0146    1.2507   -0.0100 C   0  0  0  0  0  0  0  0  0  0  0  0
   -1.3240   -1.1452    0.0095 C   0  0  0  0  0  0  0  0  0  0  0  0
   -2.3980    1.4294   -0.0055 C   0  0  0  0  0  0  0  0  0  0  0  0
   -2.7074   -0.9666    0.0138 C   0  0  0  0  0  0  0  0  0  0  0  0
   -3.2444    0.3208    0.0063 C   0  0  0  0  0  0  0  0  0  0  0  0
    2.1566    1.8303   -0.9230 H   0  0  0  0  0  0  0  0  0  0  0  0
    2.1090    1.8796    0.8258 H   0  0  0  0  0  0  0  0  0  0  0  0
    4.4080    1.9972    0.0063 H   0  0  0  0  0  0  0  0  0  0  0  0
    4.1992    0.5109    0.9397 H   0  0  0  0  0  0  0  0  0  0  0  0
    4.2485    0.4487   -0.8316 H   0  0  0  0  0  0  0  0  0  0  0  0
   -0.3827    2.1352   -0.0197 H   0  0  0  0  0  0  0  0  0  0  0  0
   -0.9366   -2.1615    0.0156 H   0  0  0  0  0  0  0  0  0  0  0  0
   -2.8165    2.4316   -0.0114 H   0  0  0  0  0  0  0  0  0  0  0  0
   -3.3668   -1.8296    0.0230 H   0  0  0  0  0  0  0  0  0  0  0  0
   -4.3215    0.4599    0.0097 H   0  0  0  0  0  0  0  0  0  0  0  0
  1  3  1  0  0  0  0
  2  3  1  0  0  0  0
  3  4  1  0  0  0  0
  3  5  1  0  0  0  0
  4  6  1  0  0  0  0
  4 12  1  0  0  0  0
  4 13  1  0  0  0  0
  5  7  2  0  0  0  0
  5  8  1  0  0  0  0
  6 14  1  0  0  0  0
  6 15  1  0  0  0  0
  6 16  1  0  0  0  0
  7  9  1  0  0  0  0
  7 17  1  0  0  0  0
  8 10  2  0  0  0  0
  8 18  1  0  0  0  0
  9 11  2  0  0  0  0
  9 19  1  0  0  0  0
 10 11  1  0  0  0  0
 10 20  1  0  0  0  0
 11 21  1  0  0  0  0
M  END
> <PUBCHEM_COMPOUND_CID>
14304

> <PUBCHEM_CONFORMER_RMSD>
0.4

> <PUBCHEM_CONFORMER_DIVERSEORDER>
1
6
2
3
8
7
4
5

> <PUBCHEM_MMFF94_PARTIAL_CHARGES>
15
1 -0.37
10 -0.15
11 -0.15
17 0.15
18 0.15
19 0.15
2 -0.37
20 0.15
21 0.15
3 1.04
4 -0.08
5 -0.22
7 -0.15
8 -0.15
9 -0.15

> <PUBCHEM_EFFECTIVE_ROTOR_COUNT>
2

> <PUBCHEM_PHARMACOPHORE_FEATURES>
1
6 5 7 8 9 10 11 rings

> <PUBCHEM_HEAVY_ATOM_COUNT>
11

> <PUBCHEM_ATOM_DEF_STEREO_COUNT>
0

> <PUBCHEM_ATOM_UDEF_STEREO_COUNT>
0

> <PUBCHEM_BOND_DEF_STEREO_COUNT>
0

> <PUBCHEM_BOND_UDEF_STEREO_COUNT>
0

> <PUBCHEM_ISOTOPIC_ATOM_COUNT>
0

> <PUBCHEM_COMPONENT_COUNT>
1

> <PUBCHEM_CACTVS_TAUTO_COUNT>
1

> <PUBCHEM_CONFORMER_ID>
000037E000000001

> <PUBCHEM_MMFF94_ENERGY>
15.8488

> <PUBCHEM_FEATURE_SELFOVERLAP>
5.074

> <PUBCHEM_SHAPE_FINGERPRINT>
10608611 8 18334856147075384332
107287 299 17603300449310761110
11031198 65 17385443241147629924
12346645 44 18272374140016795112
12423570 1 11714547592312442606
12524768 44 18408317813330103589
12897270 3 18187358805471449412
12932764 1 17987792054930499429
13380535 76 18335420149395760206
14252887 29 18192411018815813475
14325111 11 18410855473023860036
14648413 74 18116703204754552030
15219456 202 18187355558354770030
15775835 57 18201719578291833440
16945 1 18266740181873829965
170605 34 18411698773099711432
17990270 104 18261108625213910046
18186145 218 18267581493396096013
19973954 147 18188765179501119549
20201158 50 18259700094825866020
20645464 45 18410289216156396583
20653085 51 18044643429142419033
20671657 53 17388794643263621934
20871998 184 18044090164213942055
21028194 46 18262515893050490728
21501502 16 18336550503020021891
21524375 3 18267304236246185308
22802520 49 18116412920631255231
23402539 116 18338526222341279782
23552423 10 18201998820033061263
2748010 2 18337946891693743349
305870 269 17988929997973125954
3248919 1 18041287680809765257
369184 2 18131638910766655489
5084963 1 17678174004307083339
528886 8 17894911793827036686
6333449 129 18335701607276926157
7364860 26 18339927142269093946
8030462 33 17846490486992675115

> <PUBCHEM_SHAPE_MULTIPOLES>
248.33
5.44
1.76
1.16
0.18
0.02
0
1.5
-0.04
-0.37
0.01
-0.88
-0.68
0.01

> <PUBCHEM_SHAPE_SELFOVERLAP>
469.829

> <PUBCHEM_SHAPE_VOLUME>
154.9

> <PUBCHEM_COORDINATE_TYPE>
2
5
10

$$$$

