24744
  -OEChem-07051213123D

 38 39  0     0  0  0  0  0  0999 V2000
   -0.0299   -1.0897   -1.0791 O   0  0  0  0  0  0  0  0  0  0  0  0
   -0.7199   -0.6595    1.0900 O   0  0  0  0  0  0  0  0  0  0  0  0
    5.5475    2.1113    0.2533 O   0  0  0  0  0  0  0  0  0  0  0  0
    3.3982    2.1324   -0.5280 O   0  0  0  0  0  0  0  0  0  0  0  0
   -2.1595   -0.3764   -0.7405 N   0  0  0  0  0  0  0  0  0  0  0  0
    4.4105    0.1662    0.2531 N   0  0  0  0  0  0  0  0  0  0  0  0
   -3.3532    0.0605   -0.1652 C   0  0  0  0  0  0  0  0  0  0  0  0
   -5.6504    0.7727   -0.3955 C   0  0  0  0  0  0  0  0  0  0  0  0
   -4.4575    0.3359   -0.9718 C   0  0  0  0  0  0  0  0  0  0  0  0
    3.4215   -0.8060    0.1011 C   0  0  0  0  0  0  0  0  0  0  0  0
    1.2197   -1.4387   -0.5565 C   0  0  0  0  0  0  0  0  0  0  0  0
   -3.4419    0.2223    1.2176 C   0  0  0  0  0  0  0  0  0  0  0  0
   -5.7389    0.9342    0.9872 C   0  0  0  0  0  0  0  0  0  0  0  0
    2.1756   -0.4576   -0.4203 C   0  0  0  0  0  0  0  0  0  0  0  0
   -4.6348    0.6589    1.7937 C   0  0  0  0  0  0  0  0  0  0  0  0
   -6.8314    1.0665   -1.2577 C   0  0  0  0  0  0  0  0  0  0  0  0
    3.6779   -2.1260    0.4722 C   0  0  0  0  0  0  0  0  0  0  0  0
    1.4427   -2.7492   -0.1997 C   0  0  0  0  0  0  0  0  0  0  0  0
    2.6886   -3.0976    0.3218 C   0  0  0  0  0  0  0  0  0  0  0  0
   -0.9590   -0.6994   -0.1116 C   0  0  0  0  0  0  0  0  0  0  0  0
    4.3499    1.5231   -0.0550 C   0  0  0  0  0  0  0  0  0  0  0  0
    5.6441    3.5161   -0.0091 C   0  0  0  0  0  0  0  0  0  0  0  0
   -4.3909    0.2088   -2.0501 H   0  0  0  0  0  0  0  0  0  0  0  0
   -2.6305    0.0290    1.9056 H   0  0  0  0  0  0  0  0  0  0  0  0
   -6.6632    1.2719    1.4485 H   0  0  0  0  0  0  0  0  0  0  0  0
    1.9058    0.5421   -0.7296 H   0  0  0  0  0  0  0  0  0  0  0  0
   -4.7052    0.7845    2.8703 H   0  0  0  0  0  0  0  0  0  0  0  0
   -2.1643   -0.4727   -1.7531 H   0  0  0  0  0  0  0  0  0  0  0  0
    4.6443   -2.4115    0.8802 H   0  0  0  0  0  0  0  0  0  0  0  0
    0.6726   -3.5050   -0.3174 H   0  0  0  0  0  0  0  0  0  0  0  0
   -6.5199    1.4591   -2.2317 H   0  0  0  0  0  0  0  0  0  0  0  0
   -7.4165    0.1552   -1.4165 H   0  0  0  0  0  0  0  0  0  0  0  0
   -7.4786    1.8226   -0.8002 H   0  0  0  0  0  0  0  0  0  0  0  0
    2.8882   -4.1253    0.6107 H   0  0  0  0  0  0  0  0  0  0  0  0
    5.2941   -0.1570    0.6401 H   0  0  0  0  0  0  0  0  0  0  0  0
    5.5062    3.7119   -1.0766 H   0  0  0  0  0  0  0  0  0  0  0  0
    6.6443    3.8477    0.2823 H   0  0  0  0  0  0  0  0  0  0  0  0
    4.9057    4.0633    0.5844 H   0  0  0  0  0  0  0  0  0  0  0  0
  1 11  1  0  0  0  0
  1 20  1  0  0  0  0
  2 20  2  0  0  0  0
  3 21  1  0  0  0  0
  3 22  1  0  0  0  0
  4 21  2  0  0  0  0
  5  7  1  0  0  0  0
  5 20  1  0  0  0  0
  5 28  1  0  0  0  0
  6 10  1  0  0  0  0
  6 21  1  0  0  0  0
  6 35  1  0  0  0  0
  7  9  1  0  0  0  0
  7 12  2  0  0  0  0
  8  9  2  0  0  0  0
  8 13  1  0  0  0  0
  8 16  1  0  0  0  0
  9 23  1  0  0  0  0
 10 14  2  0  0  0  0
 10 17  1  0  0  0  0
 11 14  1  0  0  0  0
 11 18  2  0  0  0  0
 12 15  1  0  0  0  0
 12 24  1  0  0  0  0
 13 15  2  0  0  0  0
 13 25  1  0  0  0  0
 14 26  1  0  0  0  0
 15 27  1  0  0  0  0
 16 31  1  0  0  0  0
 16 32  1  0  0  0  0
 16 33  1  0  0  0  0
 17 19  2  0  0  0  0
 17 29  1  0  0  0  0
 18 19  1  0  0  0  0
 18 30  1  0  0  0  0
 19 34  1  0  0  0  0
 22 36  1  0  0  0  0
 22 37  1  0  0  0  0
 22 38  1  0  0  0  0
M  END
> <PUBCHEM_COMPOUND_CID>
24744

> <PUBCHEM_CONFORMER_RMSD>
0.8

> <PUBCHEM_CONFORMER_DIVERSEORDER>
4
171
251
158
233
200
21
215
78
224
292
137
196
257
231
119
236
174
155
221
102
143
239
154
125
147
183
192
210
195
26
164
181
76
208
272
284
144
127
247
166
156
69
19
168
234
111
285
36
249
170
89
123
77
238
66
212
229
241
227
10
173
142
153
112
109
201
148
172
223
205
240
52
222
75
204
27
228
15
182
209
149
49
150
65
145
44
51
175
186
13
50
95
140
232
131
267
255
14
263
67
146
115
73
306
261
105
185
96
163
177
256
188
55
248
103
160
216
230
300
20
291
217
206
64
86
47
152
132
80
139
157
297
135
167
243
198
290
126
273
93
211
271
176
202
220
266
197
253
141
295
242
235
100
43
22
101
28
296
8
48
79
286
161
133
60
165
23
178
117
68
225
259
72
159
57
269
88
276
31
281
85
288
214
118
24
124
94
120
91
279
218
106
199
45
193
136
121
213
250
237
104
37
270
98
151
191
260
46
81
110
39
113
74
54
294
1
275
258
252
84
70
38
207
107
122
130
162
298
134
254
307
32
17
262
9
282
61
129
303
58
280
289
82
83
283
33
299
293
41
278
40
304
274
309
18
30
308
34
87
189
246
99
114
108
5
184
97
16
3
128
264
203
301
25
268
169
2
219
7
287
90
187
244
190
116
62
53
277
179
305
63
11
35
59
302
71
245
92
42
138
6
265
180
12
194
226
56
29

> <PUBCHEM_MMFF94_PARTIAL_CHARGES>
32
1 -0.23
10 0.12
11 0.08
12 -0.15
13 -0.15
14 -0.15
15 -0.15
16 0.14
17 -0.15
18 -0.15
19 -0.15
2 -0.57
20 0.78
21 0.78
22 0.28
23 0.15
24 0.15
25 0.15
26 0.15
27 0.15
28 0.37
29 0.15
3 -0.43
30 0.15
34 0.15
35 0.37
4 -0.57
5 -0.55
6 -0.55
7 0.12
8 -0.14
9 -0.15

> <PUBCHEM_EFFECTIVE_ROTOR_COUNT>
7

> <PUBCHEM_PHARMACOPHORE_FEATURES>
6
1 2 acceptor
1 4 acceptor
1 5 donor
1 6 donor
6 10 11 14 17 18 19 rings
6 7 8 9 12 13 15 rings

> <PUBCHEM_HEAVY_ATOM_COUNT>
22

> <PUBCHEM_ATOM_DEF_STEREO_COUNT>
0

> <PUBCHEM_ATOM_UDEF_STEREO_COUNT>
0

> <PUBCHEM_BOND_DEF_STEREO_COUNT>
0

> <PUBCHEM_BOND_UDEF_STEREO_COUNT>
0

> <PUBCHEM_ISOTOPIC_ATOM_COUNT>
0

> <PUBCHEM_COMPONENT_COUNT>
1

> <PUBCHEM_CACTVS_TAUTO_COUNT>
4

> <PUBCHEM_CONFORMER_ID>
000060A800000004

> <PUBCHEM_MMFF94_ENERGY>
69.1652

> <PUBCHEM_FEATURE_SELFOVERLAP>
30.446

> <PUBCHEM_SHAPE_FINGERPRINT>
10411042 1 17906738356262036390
10554248 39 17532941730251651557
10595046 47 18334581248400154471
10670039 82 16515674585059535968
10906281 52 17386276693348995539
10912923 1 17895478132926749731
11823591 26 18335425617490462680
12236239 1 17676493907711903735
12390115 104 18194671571999239950
13533116 47 17130715070547430035
13540713 5 18193298333616800622
13631057 29 18117283545690789119
13675066 3 17632569487829432951
13878862 14 18269577046543874708
13955234 65 18270399511681262090
14251764 38 18194119848574086593
14251764 75 18267015051740199616
14429380 56 18339939176962363925
14528608 73 17821732736499164801
14774955 27 18408603647556201236
15142526 21 18339362942495708794
15188451 53 15482102761888314761
15342168 16 18410293575738190846
15348495 7 18060132159253958835
15475509 35 16199604609733184562
16079462 125 17632302315304399229
17844677 252 18267020746845001277
18335252 114 18335706057385433860
19427546 62 18412266133732052822
1979834 28 18059848455004722244
20157964 124 18411703214016767895
20612939 158 18334576875337463355
21033648 29 17417816175305872429
21033650 10 15357963586701904123
22122407 14 18263633125882512545
22849339 104 15575007109163209629
23559900 14 17417517137770681095
23845131 108 18271247114813320514
268830 7 18264201581930635961
270888 7 18265899060549606292
2748736 6 18190750739168017616
2916195 48 18131353016542955753
3472631 163 18113898204806275084
34797466 226 18041273344583432679
38570 142 18261940874439181380
397830 11 18130775734373404091
44555599 121 18115868689058628265
474 4 18409166601999989650
5104073 3 18272930518422776027
531348 171 10375875148367169675
543368 44 18040716935839147281
6327066 14 18266742377399236188
633830 44 18260828189999509318
6712543 237 16056335929103670048
77188 2 17907017636410030702
8272917 22 18409447020647074950

> <PUBCHEM_SHAPE_MULTIPOLES>
419.31
16.15
3.07
1.16
12.19
0.65
-0.24
12.74
0.09
-8.1
-0.01
1.94
0.11
-0.22

> <PUBCHEM_SHAPE_SELFOVERLAP>
890.31

> <PUBCHEM_SHAPE_VOLUME>
232.5

> <PUBCHEM_COORDINATE_TYPE>
2
5
10

$$$$

