442926
  -OEChem-07051213002D

 54 56  0     1  0  0  0  0  0999 V2000
    4.8503    1.6870    0.0000 O   0  0  0  0  0  0  0  0  0  0  0  0
    6.7451   -1.2432    0.0000 O   0  0  0  0  0  0  0  0  0  0  0  0
    5.3806    2.8593    0.0000 O   0  0  0  0  0  0  0  0  0  0  0  0
    3.9050    0.8202    0.0000 O   0  0  0  0  0  0  0  0  0  0  0  0
    4.9836   -2.1548    0.0000 O   0  0  0  0  0  0  0  0  0  0  0  0
    6.4683    0.5115    0.0000 C   0  0  2  0  0  0  0  0  0  0  0  0
    7.2774    1.0993    0.0000 C   0  0  1  0  0  0  0  0  0  0  0  0
    8.0801    0.5129    0.0000 C   0  0  0  0  0  0  0  0  0  0  0  0
    6.7780   -0.4331    0.0000 C   0  0  0  0  0  0  0  0  0  0  0  0
    5.6593    1.0993    0.0000 C   0  0  1  0  0  0  0  0  0  0  0  0
    7.7720   -0.4323    0.0000 C   0  0  2  0  0  0  0  0  0  0  0  0
    6.9683    2.0503    0.0000 C   0  0  0  0  0  0  0  0  0  0  0  0
    6.1587   -0.4331    0.0000 C   0  0  0  0  0  0  0  0  0  0  0  0
    5.9683    2.0503    0.0000 C   0  0  0  0  0  0  0  0  0  0  0  0
    9.0306    0.2022    0.0000 C   0  0  0  0  0  0  0  0  0  0  0  0
    8.6692    1.3209    0.0000 C   0  0  0  0  0  0  0  0  0  0  0  0
    4.8566    0.5129    0.0000 C   0  0  0  0  0  0  0  0  0  0  0  0
    5.1646   -0.4323    0.0000 C   0  0  0  0  0  0  0  0  0  0  0  0
    8.3598   -1.2413    0.0000 C   0  0  0  0  0  0  0  0  0  0  0  0
    4.5768   -1.2413    0.0000 C   0  0  0  0  0  0  0  0  0  0  0  0
    9.3544   -1.1368    0.0000 C   0  0  0  0  0  0  0  0  0  0  0  0
    7.9531   -2.1548    0.0000 C   0  0  0  0  0  0  0  0  0  0  0  0
    3.5823   -1.1368    0.0000 C   0  0  0  0  0  0  0  0  0  0  0  0
    2.9945   -1.9458    0.0000 C   0  0  0  0  0  0  0  0  0  0  0  0
    2.0000   -1.8413    0.0000 C   0  0  0  0  0  0  0  0  0  0  0  0
    3.4013   -2.8593    0.0000 C   0  0  0  0  0  0  0  0  0  0  0  0
    7.9657    1.5980    0.0000 H   0  0  0  0  0  0  0  0  0  0  0  0
    6.1718   -0.5633    0.0000 H   0  0  0  0  0  0  0  0  0  0  0  0
    6.8437   -1.0497    0.0000 H   0  0  0  0  0  0  0  0  0  0  0  0
    7.4908   -0.9848    0.0000 H   0  0  0  0  0  0  0  0  0  0  0  0
    7.5748    2.1792    0.0000 H   0  0  0  0  0  0  0  0  0  0  0  0
    6.9035    2.6669    0.0000 H   0  0  0  0  0  0  0  0  0  0  0  0
    8.8380   -0.3871    0.0000 H   0  0  0  0  0  0  0  0  0  0  0  0
    9.6199    0.0096    0.0000 H   0  0  0  0  0  0  0  0  0  0  0  0
    9.2232    0.7915    0.0000 H   0  0  0  0  0  0  0  0  0  0  0  0
    9.1702    0.9556    0.0000 H   0  0  0  0  0  0  0  0  0  0  0  0
    9.0345    1.8218    0.0000 H   0  0  0  0  0  0  0  0  0  0  0  0
    8.1683    1.6862    0.0000 H   0  0  0  0  0  0  0  0  0  0  0  0
    4.9151    2.3037    0.0000 H   0  0  0  0  0  0  0  0  0  0  0  0
    6.4919   -1.8091    0.0000 H   0  0  0  0  0  0  0  0  0  0  0  0
    9.4192   -1.7534    0.0000 H   0  0  0  0  0  0  0  0  0  0  0  0
    9.9710   -1.0720    0.0000 H   0  0  0  0  0  0  0  0  0  0  0  0
    9.2896   -0.5202    0.0000 H   0  0  0  0  0  0  0  0  0  0  0  0
    7.3365   -2.2197    0.0000 H   0  0  0  0  0  0  0  0  0  0  0  0
    8.3175   -2.6564    0.0000 H   0  0  0  0  0  0  0  0  0  0  0  0
    3.7532   -0.5408    0.0000 H   0  0  0  0  0  0  0  0  0  0  0  0
    3.0250   -0.8650    0.0000 H   0  0  0  0  0  0  0  0  0  0  0  0
    2.7424   -1.3794    0.0000 H   0  0  0  0  0  0  0  0  0  0  0  0
    2.0648   -1.2247    0.0000 H   0  0  0  0  0  0  0  0  0  0  0  0
    1.3834   -1.7765    0.0000 H   0  0  0  0  0  0  0  0  0  0  0  0
    1.9352   -2.4579    0.0000 H   0  0  0  0  0  0  0  0  0  0  0  0
    2.8349   -3.1115    0.0000 H   0  0  0  0  0  0  0  0  0  0  0  0
    3.6534   -3.4257    0.0000 H   0  0  0  0  0  0  0  0  0  0  0  0
    3.9677   -2.6072    0.0000 H   0  0  0  0  0  0  0  0  0  0  0  0
 10  1  1  6  0  0  0
  1 39  1  0  0  0  0
  2 13  1  0  0  0  0
  2 40  1  0  0  0  0
  3 14  2  0  0  0  0
  4 17  2  0  0  0  0
  5 20  2  0  0  0  0
  6  7  1  0  0  0  0
  6  9  1  6  0  0  0
  6 10  1  0  0  0  0
  6 13  1  0  0  0  0
  7  8  1  0  0  0  0
  7 12  1  0  0  0  0
  7 27  1  1  0  0  0
  8 11  1  0  0  0  0
  8 15  1  0  0  0  0
  8 16  1  0  0  0  0
  9 11  1  0  0  0  0
  9 28  1  0  0  0  0
  9 29  1  0  0  0  0
 10 14  1  0  0  0  0
 10 17  1  0  0  0  0
 11 19  1  1  0  0  0
 11 30  1  0  0  0  0
 12 14  1  0  0  0  0
 12 31  1  0  0  0  0
 12 32  1  0  0  0  0
 13 18  2  0  0  0  0
 15 33  1  0  0  0  0
 15 34  1  0  0  0  0
 15 35  1  0  0  0  0
 16 36  1  0  0  0  0
 16 37  1  0  0  0  0
 16 38  1  0  0  0  0
 17 18  1  0  0  0  0
 18 20  1  0  0  0  0
 19 21  1  0  0  0  0
 19 22  2  0  0  0  0
 20 23  1  0  0  0  0
 21 41  1  0  0  0  0
 21 42  1  0  0  0  0
 21 43  1  0  0  0  0
 22 44  1  0  0  0  0
 22 45  1  0  0  0  0
 23 24  1  0  0  0  0
 23 46  1  0  0  0  0
 23 47  1  0  0  0  0
 24 25  1  0  0  0  0
 24 26  1  0  0  0  0
 24 48  1  0  0  0  0
 25 49  1  0  0  0  0
 25 50  1  0  0  0  0
 25 51  1  0  0  0  0
 26 52  1  0  0  0  0
 26 53  1  0  0  0  0
 26 54  1  0  0  0  0
M  END
> <PUBCHEM_COMPOUND_CID>
442926

> <PUBCHEM_COMPOUND_CANONICALIZED>
1

> <PUBCHEM_CACTVS_COMPLEXITY>
771

> <PUBCHEM_CACTVS_HBOND_ACCEPTOR>
5

> <PUBCHEM_CACTVS_HBOND_DONOR>
2

> <PUBCHEM_CACTVS_ROTATABLE_BOND>
4

> <PUBCHEM_CACTVS_SUBSKEYS>
AAADceB4OAAAAAAAAAAAAAAAAAAAAYMEAAAAAAAAAAAYIAAAAAAAGgAACAAAD0SAgAACAAAAAgCIAoBSAAIAAAAgIAAACAFAAEgAABIIAQAAQAAFwAAIAQOKzvDvgAAAAAAAAAAAAAAAAAAAAYAADAAAAA==

> <PUBCHEM_IUPAC_OPENEYE_NAME>
(2R,3aR,5aS,8aS)-5a,8-dihydroxy-2-isopropenyl-3,3-dimethyl-7-(3-methylbutanoyl)-1,2,3a,4-tetrahydrocyclopenta[c]pentalene-5,6-dione

> <PUBCHEM_IUPAC_CAS_NAME>
(2R,3aR,5aS,8aS)-5a,8-dihydroxy-3,3-dimethyl-2-(1-methylethenyl)-7-(3-methyl-1-oxobutyl)-1,2,3a,4-tetrahydrocyclopenta[c]pentalene-5,6-dione

> <PUBCHEM_IUPAC_NAME>
(2R,3aR,5aS,8aS)-5a,8-dihydroxy-3,3-dimethyl-7-(3-methylbutanoyl)-2-prop-1-en-2-yl-1,2,3a,4-tetrahydrocyclopenta[c]pentalene-5,6-dione

> <PUBCHEM_IUPAC_SYSTEMATIC_NAME>
(2R,3aR,5aS,8aS)-3,3-dimethyl-7-(3-methylbutanoyl)-5a,8-bis(oxidanyl)-2-prop-1-en-2-yl-1,2,3a,4-tetrahydrocyclopenta[c]pentalene-5,6-dione

> <PUBCHEM_IUPAC_TRADITIONAL_NAME>
(2R,3aR,5aS,8aS)-5a,8-dihydroxy-2-isopropenyl-7-isovaleryl-3,3-dimethyl-1,2,3a,4-tetrahydrocyclopenta[c]pentalene-5,6-quinone

> <PUBCHEM_IUPAC_INCHI>
InChI=1S/C21H28O5/c1-10(2)7-13(22)16-17(24)20-9-12(11(3)4)19(5,6)14(20)8-15(23)21(20,26)18(16)25/h10,12,14,24,26H,3,7-9H2,1-2,4-6H3/t12-,14-,20+,21+/m1/s1

> <PUBCHEM_IUPAC_INCHIKEY>
PWIQQNKUKZZJRP-QZHPCCELSA-N

> <PUBCHEM_XLOGP3_AA>
3.5

> <PUBCHEM_EXACT_MASS>
360.193674

> <PUBCHEM_MOLECULAR_FORMULA>
C21H28O5

> <PUBCHEM_MOLECULAR_WEIGHT>
360.44402

> <PUBCHEM_OPENEYE_CAN_SMILES>
CC(C)CC(=O)C1=C(C23CC(C(C2CC(=O)C3(C1=O)O)(C)C)C(=C)C)O

> <PUBCHEM_OPENEYE_ISO_SMILES>
CC(C)CC(=O)C1=C([C@]23C[C@@H](C([C@H]2CC(=O)[C@@]3(C1=O)O)(C)C)C(=C)C)O

> <PUBCHEM_CACTVS_TPSA>
91.7

> <PUBCHEM_MONOISOTOPIC_WEIGHT>
360.193674

> <PUBCHEM_TOTAL_CHARGE>
0

> <PUBCHEM_HEAVY_ATOM_COUNT>
26

> <PUBCHEM_ATOM_DEF_STEREO_COUNT>
4

> <PUBCHEM_ATOM_UDEF_STEREO_COUNT>
0

> <PUBCHEM_BOND_DEF_STEREO_COUNT>
0

> <PUBCHEM_BOND_UDEF_STEREO_COUNT>
0

> <PUBCHEM_ISOTOPIC_ATOM_COUNT>
0

> <PUBCHEM_COMPONENT_COUNT>
1

> <PUBCHEM_CACTVS_TAUTO_COUNT>
14

> <PUBCHEM_COORDINATE_TYPE>
1
5
255

> <PUBCHEM_BONDANNOTATIONS>
10  1  6
11  19  5
6  9  6
7  27  5

$$$$

