5106
  -OEChem-06261200312D

134136  0     1  0  0  0  0  0999 V2000
    5.5000   -1.1830    0.0000 O   0  0  0  0  0  0  0  0  0  0  0  0
    5.5000    0.5490    0.0000 O   0  0  0  0  0  0  0  0  0  0  0  0
    7.2589   -3.0149    0.0000 O   0  0  0  0  0  0  0  0  0  0  0  0
    5.5000   -2.9151    0.0000 O   0  0  0  0  0  0  0  0  0  0  0  0
    4.0000    1.4151    0.0000 O   0  0  0  0  0  0  0  0  0  0  0  0
    8.5000    2.2811    0.0000 O   0  0  0  0  0  0  0  0  0  0  0  0
    5.0000    4.1471    0.0000 O   0  0  0  0  0  0  0  0  0  0  0  0
    3.5000   -1.1830    0.0000 O   0  0  0  0  0  0  0  0  0  0  0  0
    3.5000    4.0131    0.0000 O   0  0  0  0  0  0  0  0  0  0  0  0
   10.9659    1.6739    0.0000 O   0  0  0  0  0  0  0  0  0  0  0  0
    8.7340    1.1919    0.0000 O   0  0  0  0  0  0  0  0  0  0  0  0
    8.5000    0.5490    0.0000 O   0  0  0  0  0  0  0  0  0  0  0  0
   11.0000   -2.0490    0.0000 O   0  0  0  0  0  0  0  0  0  0  0  0
   12.5000   -2.9151    0.0000 O   0  0  0  0  0  0  0  0  0  0  0  0
   14.5000   -4.6471    0.0000 O   0  0  0  0  0  0  0  0  0  0  0  0
    2.5000   -2.9151    0.0000 N   0  0  0  0  0  0  0  0  0  0  0  0
   10.0000   -2.0490    0.0000 N   0  0  0  0  0  0  0  0  0  0  0  0
    6.5000   -1.1830    0.0000 C   0  0  3  0  0  0  0  0  0  0  0  0
    7.0000   -0.3170    0.0000 C   0  0  3  0  0  0  0  0  0  0  0  0
    7.0000   -2.0490    0.0000 C   0  0  3  0  0  0  0  0  0  0  0  0
    6.5000    0.5490    0.0000 C   0  0  3  0  0  0  0  0  0  0  0  0
    8.0000   -2.0490    0.0000 C   0  0  0  0  0  0  0  0  0  0  0  0
    7.0000    1.4151    0.0000 C   0  0  3  0  0  0  0  0  0  0  0  0
    8.5000   -1.1830    0.0000 C   0  0  3  0  0  0  0  0  0  0  0  0
    5.0000   -2.0490    0.0000 C   0  0  3  0  0  0  0  0  0  0  0  0
    5.0000    1.4151    0.0000 C   0  0  3  0  0  0  0  0  0  0  0  0
    8.0000   -0.3170    0.0000 C   0  0  0  0  0  0  0  0  0  0  0  0
    5.0000    3.1471    0.0000 C   0  0  3  0  0  0  0  0  0  0  0  0
    4.0000   -2.0490    0.0000 C   0  0  3  0  0  0  0  0  0  0  0  0
    6.2929   -2.7562    0.0000 C   0  0  0  0  0  0  0  0  0  0  0  0
    3.5000   -2.9151    0.0000 C   0  0  3  0  0  0  0  0  0  0  0  0
    5.5000    2.2811    0.0000 C   0  0  0  0  0  0  0  0  0  0  0  0
   10.0000   -0.3170    0.0000 C   0  0  3  0  0  0  0  0  0  0  0  0
    4.0000    3.1471    0.0000 C   0  0  3  0  0  0  0  0  0  0  0  0
   10.0000    1.4151    0.0000 C   0  0  3  0  0  0  0  0  0  0  0  0
    9.5000   -1.1830    0.0000 C   0  0  0  0  0  0  0  0  0  0  0  0
    9.5000    0.5490    0.0000 C   0  0  3  0  0  0  0  0  0  0  0  0
    4.0000   -3.7811    0.0000 C   0  0  0  0  0  0  0  0  0  0  0  0
    3.5000    2.2811    0.0000 C   0  0  3  0  0  0  0  0  0  0  0  0
    5.0000   -3.7811    0.0000 C   0  0  3  0  0  0  0  0  0  0  0  0
    9.5000    2.2811    0.0000 C   0  0  3  0  0  0  0  0  0  0  0  0
    8.0000    1.4151    0.0000 C   0  0  0  0  0  0  0  0  0  0  0  0
    6.5000    2.2811    0.0000 C   0  0  0  0  0  0  0  0  0  0  0  0
    7.5000   -1.1830    0.0000 C   0  0  0  0  0  0  0  0  0  0  0  0
    5.8660    3.6471    0.0000 C   0  0  0  0  0  0  0  0  0  0  0  0
   11.0000   -0.3170    0.0000 C   0  0  0  0  0  0  0  0  0  0  0  0
   10.8192    0.8415    0.0000 C   0  0  0  0  0  0  0  0  0  0  0  0
   10.0000    3.1471    0.0000 C   0  0  0  0  0  0  0  0  0  0  0  0
    2.5000    2.2811    0.0000 C   0  0  0  0  0  0  0  0  0  0  0  0
    5.5000   -4.6471    0.0000 C   0  0  0  0  0  0  0  0  0  0  0  0
    2.0000   -3.7811    0.0000 C   0  0  0  0  0  0  0  0  0  0  0  0
    2.0000   -2.0490    0.0000 C   0  0  0  0  0  0  0  0  0  0  0  0
    9.5000    4.0131    0.0000 C   0  0  0  0  0  0  0  0  0  0  0  0
    5.8660    4.6471    0.0000 C   0  0  0  0  0  0  0  0  0  0  0  0
   11.5000   -2.9151    0.0000 C   0  0  0  0  0  0  0  0  0  0  0  0
   13.0000   -3.7811    0.0000 C   0  0  0  0  0  0  0  0  0  0  0  0
   14.0000   -3.7811    0.0000 C   0  0  0  0  0  0  0  0  0  0  0  0
   15.5000   -4.6471    0.0000 C   0  0  0  0  0  0  0  0  0  0  0  0
    6.0750   -0.4469    0.0000 H   0  0  0  0  0  0  0  0  0  0  0  0
    7.4250    0.4191    0.0000 H   0  0  0  0  0  0  0  0  0  0  0  0
    6.0750    1.2852    0.0000 H   0  0  0  0  0  0  0  0  0  0  0  0
    7.8923   -2.6596    0.0000 H   0  0  0  0  0  0  0  0  0  0  0  0
    8.5826   -2.2611    0.0000 H   0  0  0  0  0  0  0  0  0  0  0  0
    7.4250    2.1512    0.0000 H   0  0  0  0  0  0  0  0  0  0  0  0
    8.5000   -0.3330    0.0000 H   0  0  0  0  0  0  0  0  0  0  0  0
    4.5750   -1.3129    0.0000 H   0  0  0  0  0  0  0  0  0  0  0  0
    4.5750    0.6789    0.0000 H   0  0  0  0  0  0  0  0  0  0  0  0
    8.0000   -0.9370    0.0000 H   0  0  0  0  0  0  0  0  0  0  0  0
    8.6200   -0.3170    0.0000 H   0  0  0  0  0  0  0  0  0  0  0  0
    8.0000    0.3030    0.0000 H   0  0  0  0  0  0  0  0  0  0  0  0
    3.1500   -2.0490    0.0000 H   0  0  0  0  0  0  0  0  0  0  0  0
    5.8545   -2.3177    0.0000 H   0  0  0  0  0  0  0  0  0  0  0  0
    5.8545   -3.1946    0.0000 H   0  0  0  0  0  0  0  0  0  0  0  0
    6.7313   -3.1946    0.0000 H   0  0  0  0  0  0  0  0  0  0  0  0
    3.0750   -3.6512    0.0000 H   0  0  0  0  0  0  0  0  0  0  0  0
    5.9750    1.8826    0.0000 H   0  0  0  0  0  0  0  0  0  0  0  0
    5.9750    2.6796    0.0000 H   0  0  0  0  0  0  0  0  0  0  0  0
   10.4250    0.4191    0.0000 H   0  0  0  0  0  0  0  0  0  0  0  0
    3.1500    3.1471    0.0000 H   0  0  0  0  0  0  0  0  0  0  0  0
    8.8488    0.0027    0.0000 H   0  0  0  0  0  0  0  0  0  0  0  0
    3.4174   -3.9931    0.0000 H   0  0  0  0  0  0  0  0  0  0  0  0
    4.1077   -4.3917    0.0000 H   0  0  0  0  0  0  0  0  0  0  0  0
    3.0750    1.5450    0.0000 H   0  0  0  0  0  0  0  0  0  0  0  0
    5.8500   -3.7811    0.0000 H   0  0  0  0  0  0  0  0  0  0  0  0
    9.0750    3.0172    0.0000 H   0  0  0  0  0  0  0  0  0  0  0  0
    7.8577   -3.1754    0.0000 H   0  0  0  0  0  0  0  0  0  0  0  0
    7.0369    2.5911    0.0000 H   0  0  0  0  0  0  0  0  0  0  0  0
    6.1900    2.8180    0.0000 H   0  0  0  0  0  0  0  0  0  0  0  0
    5.9631    1.9711    0.0000 H   0  0  0  0  0  0  0  0  0  0  0  0
    7.5000   -0.5630    0.0000 H   0  0  0  0  0  0  0  0  0  0  0  0
    6.8800   -1.1830    0.0000 H   0  0  0  0  0  0  0  0  0  0  0  0
    7.5000   -1.8030    0.0000 H   0  0  0  0  0  0  0  0  0  0  0  0
    6.1760    3.1102    0.0000 H   0  0  0  0  0  0  0  0  0  0  0  0
    6.4030    3.9571    0.0000 H   0  0  0  0  0  0  0  0  0  0  0  0
    5.5560    4.1840    0.0000 H   0  0  0  0  0  0  0  0  0  0  0  0
   11.0000   -0.9370    0.0000 H   0  0  0  0  0  0  0  0  0  0  0  0
   11.6200   -0.3170    0.0000 H   0  0  0  0  0  0  0  0  0  0  0  0
   11.0000    0.3030    0.0000 H   0  0  0  0  0  0  0  0  0  0  0  0
   10.4635    0.3336    0.0000 H   0  0  0  0  0  0  0  0  0  0  0  0
   11.3270    0.4859    0.0000 H   0  0  0  0  0  0  0  0  0  0  0  0
   11.1748    1.3494    0.0000 H   0  0  0  0  0  0  0  0  0  0  0  0
   10.4749    2.7486    0.0000 H   0  0  0  0  0  0  0  0  0  0  0  0
   10.4749    3.5456    0.0000 H   0  0  0  0  0  0  0  0  0  0  0  0
    2.5000    2.9011    0.0000 H   0  0  0  0  0  0  0  0  0  0  0  0
    1.8800    2.2811    0.0000 H   0  0  0  0  0  0  0  0  0  0  0  0
    2.5000    1.6611    0.0000 H   0  0  0  0  0  0  0  0  0  0  0  0
    4.9631   -4.9571    0.0000 H   0  0  0  0  0  0  0  0  0  0  0  0
    5.8100   -5.1840    0.0000 H   0  0  0  0  0  0  0  0  0  0  0  0
    6.0369   -4.3371    0.0000 H   0  0  0  0  0  0  0  0  0  0  0  0
    2.8800   -1.1830    0.0000 H   0  0  0  0  0  0  0  0  0  0  0  0
    2.8800    4.0131    0.0000 H   0  0  0  0  0  0  0  0  0  0  0  0
   11.1264    2.2728    0.0000 H   0  0  0  0  0  0  0  0  0  0  0  0
    9.1324    1.6668    0.0000 H   0  0  0  0  0  0  0  0  0  0  0  0
    2.5369   -1.7390    0.0000 H   0  0  0  0  0  0  0  0  0  0  0  0
    1.6900   -1.5121    0.0000 H   0  0  0  0  0  0  0  0  0  0  0  0
    1.4631   -2.3590    0.0000 H   0  0  0  0  0  0  0  0  0  0  0  0
    1.4631   -3.4711    0.0000 H   0  0  0  0  0  0  0  0  0  0  0  0
    1.6900   -4.3180    0.0000 H   0  0  0  0  0  0  0  0  0  0  0  0
    2.5369   -4.0911    0.0000 H   0  0  0  0  0  0  0  0  0  0  0  0
   10.0369    4.3231    0.0000 H   0  0  0  0  0  0  0  0  0  0  0  0
    9.1900    4.5501    0.0000 H   0  0  0  0  0  0  0  0  0  0  0  0
    8.9631    3.7031    0.0000 H   0  0  0  0  0  0  0  0  0  0  0  0
    6.1760    4.1102    0.0000 H   0  0  0  0  0  0  0  0  0  0  0  0
    6.4030    4.9571    0.0000 H   0  0  0  0  0  0  0  0  0  0  0  0
    5.5560    5.1840    0.0000 H   0  0  0  0  0  0  0  0  0  0  0  0
   10.9174   -3.1271    0.0000 H   0  0  0  0  0  0  0  0  0  0  0  0
   11.6077   -3.5256    0.0000 H   0  0  0  0  0  0  0  0  0  0  0  0
   12.4174   -3.9931    0.0000 H   0  0  0  0  0  0  0  0  0  0  0  0
   13.1077   -4.3917    0.0000 H   0  0  0  0  0  0  0  0  0  0  0  0
   14.5826   -3.5690    0.0000 H   0  0  0  0  0  0  0  0  0  0  0  0
   13.8923   -3.1705    0.0000 H   0  0  0  0  0  0  0  0  0  0  0  0
   15.5000   -5.2671    0.0000 H   0  0  0  0  0  0  0  0  0  0  0  0
   16.1200   -4.6471    0.0000 H   0  0  0  0  0  0  0  0  0  0  0  0
   15.5000   -4.0271    0.0000 H   0  0  0  0  0  0  0  0  0  0  0  0
  1 18  1  0  0  0  0
  1 25  1  0  0  0  0
  2 21  1  0  0  0  0
  2 26  1  0  0  0  0
  3 20  1  0  0  0  0
  3 86  1  0  0  0  0
  4 25  1  0  0  0  0
  4 40  1  0  0  0  0
  5 26  1  0  0  0  0
  5 39  1  0  0  0  0
  6 41  1  0  0  0  0
  6 42  1  0  0  0  0
  7 28  1  0  0  0  0
  7 54  1  0  0  0  0
  8 29  1  0  0  0  0
  8110  1  0  0  0  0
  9 34  1  0  0  0  0
  9111  1  0  0  0  0
 10 35  1  0  0  0  0
 10112  1  0  0  0  0
 11 37  1  0  0  0  0
 11113  1  0  0  0  0
 12 42  2  0  0  0  0
 13 17  1  0  0  0  0
 13 55  1  0  0  0  0
 14 55  1  0  0  0  0
 14 56  1  0  0  0  0
 15 57  1  0  0  0  0
 15 58  1  0  0  0  0
 16 31  1  0  0  0  0
 16 51  1  0  0  0  0
 16 52  1  0  0  0  0
 17 36  2  3  0  0  0
 18 19  1  0  0  0  0
 18 20  1  0  0  0  0
 18 59  1  0  0  0  0
 19 21  1  0  0  0  0
 19 27  1  0  0  0  0
 19 60  1  0  0  0  0
 20 22  1  0  0  0  0
 20 30  1  0  0  0  0
 21 23  1  0  0  0  0
 21 61  1  0  0  0  0
 22 24  1  0  0  0  0
 22 62  1  0  0  0  0
 22 63  1  0  0  0  0
 23 42  1  0  0  0  0
 23 43  1  0  0  0  0
 23 64  1  0  0  0  0
 24 36  1  0  0  0  0
 24 44  1  0  0  0  0
 24 65  1  0  0  0  0
 25 29  1  0  0  0  0
 25 66  1  0  0  0  0
 26 32  1  0  0  0  0
 26 67  1  0  0  0  0
 27 68  1  0  0  0  0
 27 69  1  0  0  0  0
 27 70  1  0  0  0  0
 28 32  1  0  0  0  0
 28 34  1  0  0  0  0
 28 45  1  0  0  0  0
 29 31  1  0  0  0  0
 29 71  1  0  0  0  0
 30 72  1  0  0  0  0
 30 73  1  0  0  0  0
 30 74  1  0  0  0  0
 31 38  1  0  0  0  0
 31 75  1  0  0  0  0
 32 76  1  0  0  0  0
 32 77  1  0  0  0  0
 33 36  1  0  0  0  0
 33 37  1  0  0  0  0
 33 46  1  0  0  0  0
 33 78  1  0  0  0  0
 34 39  1  0  0  0  0
 34 79  1  0  0  0  0
 35 37  1  0  0  0  0
 35 41  1  0  0  0  0
 35 47  1  0  0  0  0
 37 80  1  0  0  0  0
 38 40  1  0  0  0  0
 38 81  1  0  0  0  0
 38 82  1  0  0  0  0
 39 49  1  0  0  0  0
 39 83  1  0  0  0  0
 40 50  1  0  0  0  0
 40 84  1  0  0  0  0
 41 48  1  0  0  0  0
 41 85  1  0  0  0  0
 43 87  1  0  0  0  0
 43 88  1  0  0  0  0
 43 89  1  0  0  0  0
 44 90  1  0  0  0  0
 44 91  1  0  0  0  0
 44 92  1  0  0  0  0
 45 93  1  0  0  0  0
 45 94  1  0  0  0  0
 45 95  1  0  0  0  0
 46 96  1  0  0  0  0
 46 97  1  0  0  0  0
 46 98  1  0  0  0  0
 47 99  1  0  0  0  0
 47100  1  0  0  0  0
 47101  1  0  0  0  0
 48 53  1  0  0  0  0
 48102  1  0  0  0  0
 48103  1  0  0  0  0
 49104  1  0  0  0  0
 49105  1  0  0  0  0
 49106  1  0  0  0  0
 50107  1  0  0  0  0
 50108  1  0  0  0  0
 50109  1  0  0  0  0
 51117  1  0  0  0  0
 51118  1  0  0  0  0
 51119  1  0  0  0  0
 52114  1  0  0  0  0
 52115  1  0  0  0  0
 52116  1  0  0  0  0
 53120  1  0  0  0  0
 53121  1  0  0  0  0
 53122  1  0  0  0  0
 54123  1  0  0  0  0
 54124  1  0  0  0  0
 54125  1  0  0  0  0
 55126  1  0  0  0  0
 55127  1  0  0  0  0
 56 57  1  0  0  0  0
 56128  1  0  0  0  0
 56129  1  0  0  0  0
 57130  1  0  0  0  0
 57131  1  0  0  0  0
 58132  1  0  0  0  0
 58133  1  0  0  0  0
 58134  1  0  0  0  0
M  END
> <PUBCHEM_COMPOUND_CID>
5106

> <PUBCHEM_COMPOUND_CANONICALIZED>
1

> <PUBCHEM_CACTVS_COMPLEXITY>
1310

> <PUBCHEM_CACTVS_HBOND_ACCEPTOR>
17

> <PUBCHEM_CACTVS_HBOND_DONOR>
5

> <PUBCHEM_CACTVS_ROTATABLE_BOND>
13

> <PUBCHEM_CACTVS_SUBSKEYS>
AAADcfB/PAAAAAAAAAAAAAAAAAAAAAAAAAAkSAAAAAAAAAAAAAAAHgAECAAADXzxgAcCCAMQBgAoAQCwCAAAAAAAAAAAAAE4AAATEBYAgAAmQAAHIAAXAAHI7PzOAAAAAAAAAAAAAAAAAAAAAAAAAAAAAA==

> <PUBCHEM_IUPAC_OPENEYE_NAME>
6-[4-(dimethylamino)-3-hydroxy-6-methyl-tetrahydropyran-2-yl]oxy-14-ethyl-7,12,13-trihydroxy-4-(5-hydroxy-4-methoxy-4,6-dimethyl-tetrahydropyran-2-yl)oxy-10-(2-methoxyethoxymethoxyimino)-3,5,7,9,11,13-hexamethyl-oxacyclotetradecan-2-one

> <PUBCHEM_IUPAC_CAS_NAME>
6-[[4-(dimethylamino)-3-hydroxy-6-methyl-2-oxanyl]oxy]-14-ethyl-7,12,13-trihydroxy-4-[(5-hydroxy-4-methoxy-4,6-dimethyl-2-oxanyl)oxy]-10-(2-methoxyethoxymethoxyimino)-3,5,7,9,11,13-hexamethyl-oxacyclotetradecan-2-one

> <PUBCHEM_IUPAC_NAME>
6-[4-(dimethylamino)-3-hydroxy-6-methyloxan-2-yl]oxy-14-ethyl-7,12,13-trihydroxy-4-(5-hydroxy-4-methoxy-4,6-dimethyloxan-2-yl)oxy-10-(2-methoxyethoxymethoxyimino)-3,5,7,9,11,13-hexamethyl-oxacyclotetradecan-2-one

> <PUBCHEM_IUPAC_SYSTEMATIC_NAME>
6-[4-(dimethylamino)-6-methyl-3-oxidanyl-oxan-2-yl]oxy-14-ethyl-4-(4-methoxy-4,6-dimethyl-5-oxidanyl-oxan-2-yl)oxy-10-(2-methoxyethoxymethoxyimino)-3,5,7,9,11,13-hexamethyl-7,12,13-tris(oxidanyl)-1-oxacyclotetradecan-2-one

> <PUBCHEM_IUPAC_TRADITIONAL_NAME>
6-[4-(dimethylamino)-3-hydroxy-6-methyl-tetrahydropyran-2-yl]oxy-14-ethyl-7,12,13-trihydroxy-4-(5-hydroxy-4-methoxy-4,6-dimethyl-tetrahydropyran-2-yl)oxy-10-(2-methoxyethoxymethyloximino)-3,5,7,9,11,13-hexamethyl-oxacyclotetradecan-2-one

> <PUBCHEM_IUPAC_INCHI>
InChI=1S/C41H76N2O15/c1-15-29-41(10,49)34(45)24(4)31(42-53-21-52-17-16-50-13)22(2)19-39(8,48)36(58-38-32(44)28(43(11)12)18-23(3)54-38)25(5)33(26(6)37(47)56-29)57-30-20-40(9,51-14)35(46)27(7)55-30/h22-30,32-36,38,44-46,48-49H,15-21H2,1-14H3

> <PUBCHEM_IUPAC_INCHIKEY>
RXZBMPWDPOLZGW-UHFFFAOYSA-N

> <PUBCHEM_XLOGP3>
3.1

> <PUBCHEM_EXACT_MASS>
836.52457

> <PUBCHEM_MOLECULAR_FORMULA>
C41H76N2O15

> <PUBCHEM_MOLECULAR_WEIGHT>
837.04654

> <PUBCHEM_OPENEYE_CAN_SMILES>
CCC1C(C(C(C(=NOCOCCOC)C(CC(C(C(C(C(C(=O)O1)C)OC2CC(C(C(O2)C)O)(C)OC)C)OC3C(C(CC(O3)C)N(C)C)O)(C)O)C)C)O)(C)O

> <PUBCHEM_OPENEYE_ISO_SMILES>
CCC1C(C(C(C(=NOCOCCOC)C(CC(C(C(C(C(C(=O)O1)C)OC2CC(C(C(O2)C)O)(C)OC)C)OC3C(C(CC(O3)C)N(C)C)O)(C)O)C)C)O)(C)O

> <PUBCHEM_CACTVS_TPSA>
217

> <PUBCHEM_MONOISOTOPIC_WEIGHT>
836.52457

> <PUBCHEM_TOTAL_CHARGE>
0

> <PUBCHEM_HEAVY_ATOM_COUNT>
58

> <PUBCHEM_ATOM_DEF_STEREO_COUNT>
0

> <PUBCHEM_ATOM_UDEF_STEREO_COUNT>
18

> <PUBCHEM_BOND_DEF_STEREO_COUNT>
0

> <PUBCHEM_BOND_UDEF_STEREO_COUNT>
1

> <PUBCHEM_ISOTOPIC_ATOM_COUNT>
0

> <PUBCHEM_COMPONENT_COUNT>
1

> <PUBCHEM_CACTVS_TAUTO_COUNT>
6

> <PUBCHEM_COORDINATE_TYPE>
1
5
255

> <PUBCHEM_BONDANNOTATIONS>
17  36  1
18  59  3
19  60  3
20  30  3
21  61  3
23  64  3
24  65  3
25  66  3
26  67  3
28  45  3
29  71  3
31  75  3
33  78  3
34  79  3
35  47  3
37  80  3
39  83  3
40  84  3
41  85  3

$$$$

