53297432
  -OEChem-07051213142D

 88 90  0     1  0  0  0  0  0999 V2000
   15.8564    5.0950    0.0000 S   0  0  0  0  0  0  0  0  0  0  0  0
    3.7320    2.0950    0.0000 S   0  0  0  0  0  0  0  0  0  0  0  0
   10.6603   -4.9050    0.0000 S   0  0  0  0  0  0  0  0  0  0  0  0
    2.0000    2.0950    0.0000 Na  0  3  0  0  0  0  0  0  0  0  0  0
    9.7942   -6.4050    0.0000 Na  0  3  0  0  0  0  0  0  0  0  0  0
   15.8564    6.0950    0.0000 O   0  0  0  0  0  0  0  0  0  0  0  0
   16.8564    5.0950    0.0000 O   0  0  0  0  0  0  0  0  0  0  0  0
   14.8564    5.0950    0.0000 O   0  0  0  0  0  0  0  0  0  0  0  0
    2.8660    1.5950    0.0000 O   0  5  0  0  0  0  0  0  0  0  0  0
    3.2320    2.9610    0.0000 O   0  0  0  0  0  0  0  0  0  0  0  0
    4.2320    1.2290    0.0000 O   0  0  0  0  0  0  0  0  0  0  0  0
   10.6603   -5.9050    0.0000 O   0  5  0  0  0  0  0  0  0  0  0  0
    9.6602   -4.9050    0.0000 O   0  0  0  0  0  0  0  0  0  0  0  0
   11.6603   -4.9050    0.0000 O   0  0  0  0  0  0  0  0  0  0  0  0
   14.1244    1.0950    0.0000 N   0  0  3  0  0  0  0  0  0  0  0  0
    7.1962    1.0950    0.0000 N   0  3  0  0  0  0  0  0  0  0  0  0
   10.6603   -0.9050    0.0000 C   0  0  0  0  0  0  0  0  0  0  0  0
   13.2583    0.5950    0.0000 C   0  0  0  0  0  0  0  0  0  0  0  0
   14.1244    2.0950    0.0000 C   0  0  0  0  0  0  0  0  0  0  0  0
    8.0622    0.5950    0.0000 C   0  0  0  0  0  0  0  0  0  0  0  0
   11.5263   -0.4050    0.0000 C   0  0  0  0  0  0  0  0  0  0  0  0
    9.7942   -0.4050    0.0000 C   0  0  0  0  0  0  0  0  0  0  0  0
    7.1962    2.0950    0.0000 C   0  0  0  0  0  0  0  0  0  0  0  0
   14.9904    0.5950    0.0000 C   0  0  0  0  0  0  0  0  0  0  0  0
    6.3301    0.5950    0.0000 C   0  0  0  0  0  0  0  0  0  0  0  0
   10.6603   -1.9050    0.0000 C   0  0  0  0  0  0  0  0  0  0  0  0
   14.9904    2.5950    0.0000 C   0  0  0  0  0  0  0  0  0  0  0  0
   12.3923    1.0950    0.0000 C   0  0  0  0  0  0  0  0  0  0  0  0
   13.2583   -0.4050    0.0000 C   0  0  0  0  0  0  0  0  0  0  0  0
   11.5263    0.5950    0.0000 C   0  0  0  0  0  0  0  0  0  0  0  0
   12.3923   -0.9050    0.0000 C   0  0  0  0  0  0  0  0  0  0  0  0
    8.0622   -0.4050    0.0000 C   0  0  0  0  0  0  0  0  0  0  0  0
    8.9282    1.0950    0.0000 C   0  0  0  0  0  0  0  0  0  0  0  0
    8.9282   -0.9050    0.0000 C   0  0  0  0  0  0  0  0  0  0  0  0
    9.7942    0.5950    0.0000 C   0  0  0  0  0  0  0  0  0  0  0  0
    6.3301    2.5950    0.0000 C   0  0  0  0  0  0  0  0  0  0  0  0
   14.9904   -0.4050    0.0000 C   0  0  0  0  0  0  0  0  0  0  0  0
   14.9904    3.5950    0.0000 C   0  0  0  0  0  0  0  0  0  0  0  0
    6.3301   -0.4050    0.0000 C   0  0  0  0  0  0  0  0  0  0  0  0
    9.7942   -2.4050    0.0000 C   0  0  0  0  0  0  0  0  0  0  0  0
   11.5263   -2.4050    0.0000 C   0  0  0  0  0  0  0  0  0  0  0  0
    5.4641    2.0950    0.0000 C   0  0  0  0  0  0  0  0  0  0  0  0
   15.8564    2.0950    0.0000 C   0  0  0  0  0  0  0  0  0  0  0  0
    6.3301    3.5950    0.0000 C   0  0  0  0  0  0  0  0  0  0  0  0
   15.8564    4.0950    0.0000 C   0  0  0  0  0  0  0  0  0  0  0  0
    4.5981    2.5950    0.0000 C   0  0  0  0  0  0  0  0  0  0  0  0
   10.6603   -3.9050    0.0000 C   0  0  0  0  0  0  0  0  0  0  0  0
    9.7942   -3.4050    0.0000 C   0  0  0  0  0  0  0  0  0  0  0  0
   11.5263   -3.4050    0.0000 C   0  0  0  0  0  0  0  0  0  0  0  0
   16.7224    2.5950    0.0000 C   0  0  0  0  0  0  0  0  0  0  0  0
   16.7224    3.5950    0.0000 C   0  0  0  0  0  0  0  0  0  0  0  0
    5.4641    4.0950    0.0000 C   0  0  0  0  0  0  0  0  0  0  0  0
    4.5981    3.5950    0.0000 C   0  0  0  0  0  0  0  0  0  0  0  0
   13.9123    2.6776    0.0000 H   0  0  0  0  0  0  0  0  0  0  0  0
   13.5138    1.9873    0.0000 H   0  0  0  0  0  0  0  0  0  0  0  0
    7.8067    1.9873    0.0000 H   0  0  0  0  0  0  0  0  0  0  0  0
    7.4082    2.6776    0.0000 H   0  0  0  0  0  0  0  0  0  0  0  0
   15.6010    0.4873    0.0000 H   0  0  0  0  0  0  0  0  0  0  0  0
   15.2024    1.1776    0.0000 H   0  0  0  0  0  0  0  0  0  0  0  0
    6.1181    1.1776    0.0000 H   0  0  0  0  0  0  0  0  0  0  0  0
    5.7196    0.4873    0.0000 H   0  0  0  0  0  0  0  0  0  0  0  0
   12.3923    1.7150    0.0000 H   0  0  0  0  0  0  0  0  0  0  0  0
   13.7953   -0.7150    0.0000 H   0  0  0  0  0  0  0  0  0  0  0  0
   10.9893    0.9050    0.0000 H   0  0  0  0  0  0  0  0  0  0  0  0
   12.3923   -1.5250    0.0000 H   0  0  0  0  0  0  0  0  0  0  0  0
    8.9282    1.7150    0.0000 H   0  0  0  0  0  0  0  0  0  0  0  0
    7.5252   -0.7150    0.0000 H   0  0  0  0  0  0  0  0  0  0  0  0
    8.9282   -1.5250    0.0000 H   0  0  0  0  0  0  0  0  0  0  0  0
   10.3312    0.9050    0.0000 H   0  0  0  0  0  0  0  0  0  0  0  0
   14.3704   -0.4050    0.0000 H   0  0  0  0  0  0  0  0  0  0  0  0
   14.9904   -1.0250    0.0000 H   0  0  0  0  0  0  0  0  0  0  0  0
   15.6104   -0.4050    0.0000 H   0  0  0  0  0  0  0  0  0  0  0  0
   14.4534    3.9050    0.0000 H   0  0  0  0  0  0  0  0  0  0  0  0
    5.7101   -0.4050    0.0000 H   0  0  0  0  0  0  0  0  0  0  0  0
    6.3301   -1.0250    0.0000 H   0  0  0  0  0  0  0  0  0  0  0  0
    6.9501   -0.4050    0.0000 H   0  0  0  0  0  0  0  0  0  0  0  0
    9.2573   -2.0950    0.0000 H   0  0  0  0  0  0  0  0  0  0  0  0
   12.0632   -2.0950    0.0000 H   0  0  0  0  0  0  0  0  0  0  0  0
    5.4641    1.4750    0.0000 H   0  0  0  0  0  0  0  0  0  0  0  0
   15.8564    1.4750    0.0000 H   0  0  0  0  0  0  0  0  0  0  0  0
    6.8671    3.9050    0.0000 H   0  0  0  0  0  0  0  0  0  0  0  0
    9.2573   -3.7150    0.0000 H   0  0  0  0  0  0  0  0  0  0  0  0
   12.0632   -3.7150    0.0000 H   0  0  0  0  0  0  0  0  0  0  0  0
   17.2594    2.2850    0.0000 H   0  0  0  0  0  0  0  0  0  0  0  0
   17.2594    3.9050    0.0000 H   0  0  0  0  0  0  0  0  0  0  0  0
    5.4641    4.7150    0.0000 H   0  0  0  0  0  0  0  0  0  0  0  0
    4.0611    3.9050    0.0000 H   0  0  0  0  0  0  0  0  0  0  0  0
   16.3933    6.4050    0.0000 H   0  0  0  0  0  0  0  0  0  0  0  0
  1  6  1  0  0  0  0
  1  7  2  0  0  0  0
  1  8  2  0  0  0  0
  1 45  1  0  0  0  0
  2  9  1  0  0  0  0
  2 10  2  0  0  0  0
  2 11  2  0  0  0  0
  2 46  1  0  0  0  0
  3 12  1  0  0  0  0
  3 13  2  0  0  0  0
  3 14  2  0  0  0  0
  3 47  1  0  0  0  0
  6 88  1  0  0  0  0
 15 18  1  0  0  0  0
 15 19  1  0  0  0  0
 15 24  1  0  0  0  0
 16 20  2  0  0  0  0
 16 23  1  0  0  0  0
 16 25  1  0  0  0  0
 17 21  1  0  0  0  0
 17 22  2  0  0  0  0
 17 26  1  0  0  0  0
 18 28  2  0  0  0  0
 18 29  1  0  0  0  0
 19 27  1  0  0  0  0
 19 54  1  0  0  0  0
 19 55  1  0  0  0  0
 20 32  1  0  0  0  0
 20 33  1  0  0  0  0
 21 30  2  0  0  0  0
 21 31  1  0  0  0  0
 22 34  1  0  0  0  0
 22 35  1  0  0  0  0
 23 36  1  0  0  0  0
 23 56  1  0  0  0  0
 23 57  1  0  0  0  0
 24 37  1  0  0  0  0
 24 58  1  0  0  0  0
 24 59  1  0  0  0  0
 25 39  1  0  0  0  0
 25 60  1  0  0  0  0
 25 61  1  0  0  0  0
 26 40  2  0  0  0  0
 26 41  1  0  0  0  0
 27 38  2  0  0  0  0
 27 43  1  0  0  0  0
 28 30  1  0  0  0  0
 28 62  1  0  0  0  0
 29 31  2  0  0  0  0
 29 63  1  0  0  0  0
 30 64  1  0  0  0  0
 31 65  1  0  0  0  0
 32 34  2  0  0  0  0
 32 67  1  0  0  0  0
 33 35  2  0  0  0  0
 33 66  1  0  0  0  0
 34 68  1  0  0  0  0
 35 69  1  0  0  0  0
 36 42  2  0  0  0  0
 36 44  1  0  0  0  0
 37 70  1  0  0  0  0
 37 71  1  0  0  0  0
 37 72  1  0  0  0  0
 38 45  1  0  0  0  0
 38 73  1  0  0  0  0
 39 74  1  0  0  0  0
 39 75  1  0  0  0  0
 39 76  1  0  0  0  0
 40 48  1  0  0  0  0
 40 77  1  0  0  0  0
 41 49  2  0  0  0  0
 41 78  1  0  0  0  0
 42 46  1  0  0  0  0
 42 79  1  0  0  0  0
 43 50  2  0  0  0  0
 43 80  1  0  0  0  0
 44 52  2  0  0  0  0
 44 81  1  0  0  0  0
 45 51  2  0  0  0  0
 46 53  2  0  0  0  0
 47 48  2  0  0  0  0
 47 49  1  0  0  0  0
 48 82  1  0  0  0  0
 49 83  1  0  0  0  0
 50 51  1  0  0  0  0
 50 84  1  0  0  0  0
 51 85  1  0  0  0  0
 52 53  1  0  0  0  0
 52 86  1  0  0  0  0
 53 87  1  0  0  0  0
M  CHG  5   4   1   5   1   9  -1  12  -1  16   1
M  END
> <PUBCHEM_COMPOUND_CID>
53297432

> <PUBCHEM_COMPOUND_CANONICALIZED>
1

> <PUBCHEM_CACTVS_COMPLEXITY>
1610

> <PUBCHEM_CACTVS_HBOND_ACCEPTOR>
10

> <PUBCHEM_CACTVS_HBOND_DONOR>
1

> <PUBCHEM_CACTVS_ROTATABLE_BOND>
10

> <PUBCHEM_CACTVS_SUBSKEYS>
AAADcfB/PDBgAAAAAAAAAAAAAAAAAAAAAAAwYMGCAAAAAAABVAAAHAQACAAADAjBWAQywYMAAIKgAyRiRHDCAEAhAgAIiBgYZJgIICLAkZGEIAhggADIyAcQgMAOGAAAgAAAAAAwAAEAAAAAAAAAAAAAAA==

> <PUBCHEM_IUPAC_OPENEYE_NAME>
disodium 3-[[ethyl-[4-[[4-[ethyl-[(3-sulfophenyl)methyl]amino]phenyl]-(4-sulfonatophenyl)methylene]cyclohexa-2,5-dien-1-ylidene]ammonio]methyl]benzenesulfonate

> <PUBCHEM_IUPAC_CAS_NAME>
disodium 3-[[ethyl-[4-[[4-[ethyl-[(3-sulfophenyl)methyl]amino]phenyl]-(4-sulfonatophenyl)methylidene]-1-cyclohexa-2,5-dienylidene]ammonio]methyl]benzenesulfonate

> <PUBCHEM_IUPAC_NAME>
disodium 3-[[ethyl-[4-[[4-[ethyl-[(3-sulfophenyl)methyl]amino]phenyl]-(4-sulfonatophenyl)methylidene]cyclohexa-2,5-dien-1-ylidene]azaniumyl]methyl]benzenesulfonate

> <PUBCHEM_IUPAC_SYSTEMATIC_NAME>
disodium 3-[[ethyl-[4-[[4-[ethyl-[(3-sulfophenyl)methyl]amino]phenyl]-(4-sulfonatophenyl)methylidene]cyclohexa-2,5-dien-1-ylidene]azaniumyl]methyl]benzenesulfonate

> <PUBCHEM_IUPAC_TRADITIONAL_NAME>
disodium 3-[[ethyl-[4-[[4-[ethyl-(3-sulfobenzyl)amino]phenyl]-(4-sulfonatophenyl)methylene]cyclohexa-2,5-dien-1-ylidene]ammonio]methyl]besylate

> <PUBCHEM_IUPAC_INCHI>
InChI=1S/C37H36N2O9S3.2Na/c1-3-38(25-27-7-5-9-35(23-27)50(43,44)45)32-17-11-29(12-18-32)37(31-15-21-34(22-16-31)49(40,41)42)30-13-19-33(20-14-30)39(4-2)26-28-8-6-10-36(24-28)51(46,47)48;;/h5-24H,3-4,25-26H2,1-2H3,(H2-,40,41,42,43,44,45,46,47,48);;/q;2*+1/p-1

> <PUBCHEM_IUPAC_INCHIKEY>
DGOBMKYRQHEFGQ-UHFFFAOYSA-M

> <PUBCHEM_EXACT_MASS>
793.130007

> <PUBCHEM_MOLECULAR_FORMULA>
C37H35N2Na2O9S3+

> <PUBCHEM_MOLECULAR_WEIGHT>
793.856339

> <PUBCHEM_OPENEYE_CAN_SMILES>
CCN(CC1=CC(=CC=C1)S(=O)(=O)O)C2=CC=C(C=C2)C(=C3C=CC(=[N+](CC)CC4=CC(=CC=C4)S(=O)(=O)[O-])C=C3)C5=CC=C(C=C5)S(=O)(=O)[O-].[Na+].[Na+]

> <PUBCHEM_OPENEYE_ISO_SMILES>
CCN(CC1=CC(=CC=C1)S(=O)(=O)O)C2=CC=C(C=C2)C(=C3C=CC(=[N+](CC)CC4=CC(=CC=C4)S(=O)(=O)[O-])C=C3)C5=CC=C(C=C5)S(=O)(=O)[O-].[Na+].[Na+]

> <PUBCHEM_CACTVS_TPSA>
200

> <PUBCHEM_MONOISOTOPIC_WEIGHT>
793.130007

> <PUBCHEM_TOTAL_CHARGE>
1

> <PUBCHEM_HEAVY_ATOM_COUNT>
53

> <PUBCHEM_ATOM_DEF_STEREO_COUNT>
0

> <PUBCHEM_ATOM_UDEF_STEREO_COUNT>
0

> <PUBCHEM_BOND_DEF_STEREO_COUNT>
0

> <PUBCHEM_BOND_UDEF_STEREO_COUNT>
0

> <PUBCHEM_ISOTOPIC_ATOM_COUNT>
0

> <PUBCHEM_COMPONENT_COUNT>
3

> <PUBCHEM_CACTVS_TAUTO_COUNT>
1

> <PUBCHEM_COORDINATE_TYPE>
1
5
255

> <PUBCHEM_BONDANNOTATIONS>
18  28  8
18  29  8
21  30  8
21  31  8
26  40  8
26  41  8
27  38  8
27  43  8
28  30  8
29  31  8
36  42  8
36  44  8
38  45  8
40  48  8
41  49  8
42  46  8
43  50  8
44  52  8
45  51  8
46  53  8
47  48  8
47  49  8
50  51  8
52  53  8

$$$$

