439937
  -OEChem-07051212482D

 39 40  0     1  0  0  0  0  0999 V2000
    4.3511   -1.4083    0.0000 P   0  0  3  0  0  0  0  0  0  0  0  0
    3.1264   -2.6331    0.0000 P   0  0  0  0  0  0  0  0  0  0  0  0
    5.3171   -1.1495    0.0000 O   0  0  0  0  0  0  0  0  0  0  0  0
    3.3852   -1.6672    0.0000 O   0  0  0  0  0  0  0  0  0  0  0  0
    4.6100   -2.3743    0.0000 O   0  0  0  0  0  0  0  0  0  0  0  0
    4.0923   -0.4424    0.0000 O   0  0  0  0  0  0  0  0  0  0  0  0
    2.8676   -3.5990    0.0000 O   0  0  0  0  0  0  0  0  0  0  0  0
    2.1605   -2.3743    0.0000 O   0  0  0  0  0  0  0  0  0  0  0  0
    4.0923   -2.8919    0.0000 O   0  0  0  0  0  0  0  0  0  0  0  0
    7.3079    0.8164    0.0000 C   0  0  3  0  0  0  0  0  0  0  0  0
    6.8301    2.7649    0.0000 C   0  0  0  0  0  0  0  0  0  0  0  0
    7.5668    1.7823    0.0000 C   0  0  3  0  0  0  0  0  0  0  0  0
    5.5759   -0.1836    0.0000 C   0  0  2  0  0  0  0  0  0  0  0  0
    9.1399    0.0576    0.0000 C   0  0  0  0  0  0  0  0  0  0  0  0
    5.0759    0.6824    0.0000 C   0  0  0  0  0  0  0  0  0  0  0  0
    9.3987    1.0235    0.0000 C   0  0  0  0  0  0  0  0  0  0  0  0
    7.0491   -0.1495    0.0000 C   0  0  0  0  0  0  0  0  0  0  0  0
    6.9347    3.7595    0.0000 C   0  0  0  0  0  0  0  0  0  0  0  0
    5.9166    3.1717    0.0000 C   0  0  0  0  0  0  0  0  0  0  0  0
    7.5766    0.9324    0.0000 H   0  0  0  0  0  0  0  0  0  0  0  0
    6.0678   -0.5610    0.0000 H   0  0  0  0  0  0  0  0  0  0  0  0
    8.9278   -0.5250    0.0000 H   0  0  0  0  0  0  0  0  0  0  0  0
    9.7312   -0.1288    0.0000 H   0  0  0  0  0  0  0  0  0  0  0  0
    4.8052    1.2402    0.0000 H   0  0  0  0  0  0  0  0  0  0  0  0
    4.5282    0.3919    0.0000 H   0  0  0  0  0  0  0  0  0  0  0  0
    9.9900    0.8371    0.0000 H   0  0  0  0  0  0  0  0  0  0  0  0
    9.6108    1.6061    0.0000 H   0  0  0  0  0  0  0  0  0  0  0  0
    6.4502    0.0110    0.0000 H   0  0  0  0  0  0  0  0  0  0  0  0
    6.8886   -0.7484    0.0000 H   0  0  0  0  0  0  0  0  0  0  0  0
    7.6480   -0.3100    0.0000 H   0  0  0  0  0  0  0  0  0  0  0  0
    7.5513    3.6947    0.0000 H   0  0  0  0  0  0  0  0  0  0  0  0
    6.9995    4.3761    0.0000 H   0  0  0  0  0  0  0  0  0  0  0  0
    6.3181    3.8243    0.0000 H   0  0  0  0  0  0  0  0  0  0  0  0
    6.1688    3.7381    0.0000 H   0  0  0  0  0  0  0  0  0  0  0  0
    5.3502    3.4239    0.0000 H   0  0  0  0  0  0  0  0  0  0  0  0
    5.6644    2.6053    0.0000 H   0  0  0  0  0  0  0  0  0  0  0  0
    5.2088   -2.5347    0.0000 H   0  0  0  0  0  0  0  0  0  0  0  0
    2.2687   -3.7595    0.0000 H   0  0  0  0  0  0  0  0  0  0  0  0
    2.0000   -1.7754    0.0000 H   0  0  0  0  0  0  0  0  0  0  0  0
  1  3  1  0  0  0  0
  1  4  1  0  0  0  0
  1  5  1  0  0  0  0
  1  6  2  0  0  0  0
  2  4  1  0  0  0  0
  2  7  1  0  0  0  0
  2  8  1  0  0  0  0
  2  9  2  0  0  0  0
 13  3  1  1  0  0  0
  5 37  1  0  0  0  0
  7 38  1  0  0  0  0
  8 39  1  0  0  0  0
 10 11  1  0  0  0  0
 10 13  1  0  0  0  0
 10 14  1  0  0  0  0
 10 17  1  0  0  0  0
 11 12  1  0  0  0  0
 11 18  1  0  0  0  0
 11 19  1  0  0  0  0
 12 15  1  0  0  0  0
 12 16  1  0  0  0  0
 12 20  1  0  0  0  0
 13 15  1  0  0  0  0
 13 21  1  0  0  0  0
 14 16  1  0  0  0  0
 14 22  1  0  0  0  0
 14 23  1  0  0  0  0
 15 24  1  0  0  0  0
 15 25  1  0  0  0  0
 16 26  1  0  0  0  0
 16 27  1  0  0  0  0
 17 28  1  0  0  0  0
 17 29  1  0  0  0  0
 17 30  1  0  0  0  0
 18 31  1  0  0  0  0
 18 32  1  0  0  0  0
 18 33  1  0  0  0  0
 19 34  1  0  0  0  0
 19 35  1  0  0  0  0
 19 36  1  0  0  0  0
M  END
> <PUBCHEM_COMPOUND_CID>
439937

> <PUBCHEM_COMPOUND_CANONICALIZED>
1

> <PUBCHEM_CACTVS_COMPLEXITY>
471

> <PUBCHEM_CACTVS_HBOND_ACCEPTOR>
7

> <PUBCHEM_CACTVS_HBOND_DONOR>
3

> <PUBCHEM_CACTVS_ROTATABLE_BOND>
4

> <PUBCHEM_CACTVS_SUBSKEYS>
AAADceBwOAMAAAAAAAAAAAAAAAAAAYMAAAAwAAAAAAAAAAAAAAAAGgAACCAADxSggAICAAAAARAAQAAAAIAAAAAAAAAAAAAAAAAAAAIAAAAAAAAEAAAAAAGAwPAPgAAAAAAAAACAAAIAABAAAYAADAAAAA==

> <PUBCHEM_IUPAC_OPENEYE_NAME>
phosphono [(2S)-1,7,7-trimethylnorbornan-2-yl] hydrogen phosphate

> <PUBCHEM_IUPAC_CAS_NAME>
phosphono [(3S)-4,7,7-trimethyl-3-bicyclo[2.2.1]heptanyl] hydrogen phosphate

> <PUBCHEM_IUPAC_NAME>
phosphono [(3S)-4,7,7-trimethyl-3-bicyclo[2.2.1]heptanyl] hydrogen phosphate

> <PUBCHEM_IUPAC_SYSTEMATIC_NAME>
phosphono [(3S)-4,7,7-trimethyl-3-bicyclo[2.2.1]heptanyl] hydrogen phosphate

> <PUBCHEM_IUPAC_TRADITIONAL_NAME>
phosphono [(2S)-1,7,7-trimethylnorbornan-2-yl] hydrogen phosphate

> <PUBCHEM_IUPAC_INCHI>
InChI=1S/C10H20O7P2/c1-9(2)7-4-5-10(9,3)8(6-7)16-19(14,15)17-18(11,12)13/h7-8H,4-6H2,1-3H3,(H,14,15)(H2,11,12,13)/t7?,8-,10?/m0/s1

> <PUBCHEM_IUPAC_INCHIKEY>
VZPAJODTZAAANV-ZCUBBSJVSA-N

> <PUBCHEM_XLOGP3_AA>
0.3

> <PUBCHEM_EXACT_MASS>
314.068426

> <PUBCHEM_MOLECULAR_FORMULA>
C10H20O7P2

> <PUBCHEM_MOLECULAR_WEIGHT>
314.209124

> <PUBCHEM_OPENEYE_CAN_SMILES>
CC1(C2CCC1(C(C2)OP(=O)(O)OP(=O)(O)O)C)C

> <PUBCHEM_OPENEYE_ISO_SMILES>
CC1(C2CCC1([C@H](C2)OP(=O)(O)OP(=O)(O)O)C)C

> <PUBCHEM_CACTVS_TPSA>
113

> <PUBCHEM_MONOISOTOPIC_WEIGHT>
314.068426

> <PUBCHEM_TOTAL_CHARGE>
0

> <PUBCHEM_HEAVY_ATOM_COUNT>
19

> <PUBCHEM_ATOM_DEF_STEREO_COUNT>
1

> <PUBCHEM_ATOM_UDEF_STEREO_COUNT>
2

> <PUBCHEM_BOND_DEF_STEREO_COUNT>
0

> <PUBCHEM_BOND_UDEF_STEREO_COUNT>
0

> <PUBCHEM_ISOTOPIC_ATOM_COUNT>
0

> <PUBCHEM_COMPONENT_COUNT>
1

> <PUBCHEM_CACTVS_TAUTO_COUNT>
1

> <PUBCHEM_COORDINATE_TYPE>
1
5
255

> <PUBCHEM_BONDANNOTATIONS>
10  17  3
12  20  3
13  3  5

$$$$

