248417
  -OEChem-07051213072D

 53 56  0     1  0  0  0  0  0999 V2000
    8.7605    2.0108    0.0000 O   0  5  0  0  0  0  0  0  0  0  0  0
    7.1142    2.5489    0.0000 O   0  0  0  0  0  0  0  0  0  0  0  0
    7.7820    1.8046    0.0000 N   0  3  0  0  0  0  0  0  0  0  0  0
    4.7931   -0.4507    0.0000 C   0  0  1  0  0  0  0  0  0  0  0  0
    5.6591   -0.9507    0.0000 C   0  0  2  0  0  0  0  0  0  0  0  0
    6.5251   -0.4507    0.0000 C   0  0  1  0  0  0  0  0  0  0  0  0
    6.5251    0.5493    0.0000 C   0  0  2  0  0  0  0  0  0  0  0  0
    3.8831   -0.9575    0.0000 C   0  0  2  0  0  0  0  0  0  0  0  0
    3.8751   -1.9991    0.0000 C   0  0  1  0  0  0  0  0  0  0  0  0
    4.7931    0.5493    0.0000 C   0  0  0  0  0  0  0  0  0  0  0  0
    5.6591    1.0493    0.0000 C   0  0  0  0  0  0  0  0  0  0  0  0
    5.6752   -1.9922    0.0000 C   0  0  0  0  0  0  0  0  0  0  0  0
    7.4714    0.8540    0.0000 C   0  0  2  0  0  0  0  0  0  0  0  0
    7.4714   -0.7554    0.0000 C   0  0  0  0  0  0  0  0  0  0  0  0
    4.7771   -2.5200    0.0000 C   0  0  0  0  0  0  0  0  0  0  0  0
    2.9562   -0.3935    0.0000 C   0  0  0  0  0  0  0  0  0  0  0  0
    8.0550    0.0493    0.0000 C   0  0  0  0  0  0  0  0  0  0  0  0
    2.9396   -2.5489    0.0000 C   0  0  0  0  0  0  0  0  0  0  0  0
    6.5251    1.5493    0.0000 C   0  0  0  0  0  0  0  0  0  0  0  0
    3.8908    0.0424    0.0000 C   0  0  0  0  0  0  0  0  0  0  0  0
    2.0084   -0.9214    0.0000 C   0  0  0  0  0  0  0  0  0  0  0  0
    2.0000   -2.0064    0.0000 C   0  0  0  0  0  0  0  0  0  0  0  0
    5.5292   -0.0257    0.0000 H   0  0  0  0  0  0  0  0  0  0  0  0
    6.3985   -1.3700    0.0000 H   0  0  0  0  0  0  0  0  0  0  0  0
    6.6151   -1.2959    0.0000 H   0  0  0  0  0  0  0  0  0  0  0  0
    3.8783   -2.8491    0.0000 H   0  0  0  0  0  0  0  0  0  0  0  0
    4.5810    1.1319    0.0000 H   0  0  0  0  0  0  0  0  0  0  0  0
    4.1825    0.4416    0.0000 H   0  0  0  0  0  0  0  0  0  0  0  0
    6.0576    1.5243    0.0000 H   0  0  0  0  0  0  0  0  0  0  0  0
    5.2606    1.5243    0.0000 H   0  0  0  0  0  0  0  0  0  0  0  0
    5.8932   -2.5726    0.0000 H   0  0  0  0  0  0  0  0  0  0  0  0
    6.2843   -1.8767    0.0000 H   0  0  0  0  0  0  0  0  0  0  0  0
    8.0838    0.9502    0.0000 H   0  0  0  0  0  0  0  0  0  0  0  0
    7.2203   -1.3223    0.0000 H   0  0  0  0  0  0  0  0  0  0  0  0
    8.0087   -1.0647    0.0000 H   0  0  0  0  0  0  0  0  0  0  0  0
    4.3798   -2.9959    0.0000 H   0  0  0  0  0  0  0  0  0  0  0  0
    5.1781   -2.9928    0.0000 H   0  0  0  0  0  0  0  0  0  0  0  0
    3.3645    0.0732    0.0000 H   0  0  0  0  0  0  0  0  0  0  0  0
    2.5663    0.0886    0.0000 H   0  0  0  0  0  0  0  0  0  0  0  0
    8.5158   -0.3654    0.0000 H   0  0  0  0  0  0  0  0  0  0  0  0
    8.5158    0.4640    0.0000 H   0  0  0  0  0  0  0  0  0  0  0  0
    2.5423   -3.0248    0.0000 H   0  0  0  0  0  0  0  0  0  0  0  0
    3.3406   -3.0218    0.0000 H   0  0  0  0  0  0  0  0  0  0  0  0
    7.1451    1.5493    0.0000 H   0  0  0  0  0  0  0  0  0  0  0  0
    6.5251    2.1693    0.0000 H   0  0  0  0  0  0  0  0  0  0  0  0
    5.9051    1.5493    0.0000 H   0  0  0  0  0  0  0  0  0  0  0  0
    4.5108    0.0377    0.0000 H   0  0  0  0  0  0  0  0  0  0  0  0
    3.8956    0.6624    0.0000 H   0  0  0  0  0  0  0  0  0  0  0  0
    3.2708    0.0472    0.0000 H   0  0  0  0  0  0  0  0  0  0  0  0
    1.8038   -0.3361    0.0000 H   0  0  0  0  0  0  0  0  0  0  0  0
    1.3967   -1.0228    0.0000 H   0  0  0  0  0  0  0  0  0  0  0  0
    1.3900   -1.8956    0.0000 H   0  0  0  0  0  0  0  0  0  0  0  0
    1.7864   -2.5884    0.0000 H   0  0  0  0  0  0  0  0  0  0  0  0
  1  3  1  0  0  0  0
  2  3  2  0  0  0  0
 13  3  1  1  0  0  0
  4  5  1  0  0  0  0
  4  8  1  0  0  0  0
  4 10  1  0  0  0  0
  4 23  1  6  0  0  0
  5  6  1  0  0  0  0
  5 12  1  0  0  0  0
  5 24  1  1  0  0  0
  6  7  1  0  0  0  0
  6 14  1  0  0  0  0
  6 25  1  6  0  0  0
  7 11  1  0  0  0  0
  7 13  1  0  0  0  0
  7 19  1  1  0  0  0
  8  9  1  0  0  0  0
  8 16  1  0  0  0  0
  8 20  1  1  0  0  0
  9 15  1  0  0  0  0
  9 18  1  0  0  0  0
  9 26  1  6  0  0  0
 10 11  1  0  0  0  0
 10 27  1  0  0  0  0
 10 28  1  0  0  0  0
 11 29  1  0  0  0  0
 11 30  1  0  0  0  0
 12 15  1  0  0  0  0
 12 31  1  0  0  0  0
 12 32  1  0  0  0  0
 13 17  1  0  0  0  0
 13 33  1  0  0  0  0
 14 17  1  0  0  0  0
 14 34  1  0  0  0  0
 14 35  1  0  0  0  0
 15 36  1  0  0  0  0
 15 37  1  0  0  0  0
 16 21  1  0  0  0  0
 16 38  1  0  0  0  0
 16 39  1  0  0  0  0
 17 40  1  0  0  0  0
 17 41  1  0  0  0  0
 18 22  1  0  0  0  0
 18 42  1  0  0  0  0
 18 43  1  0  0  0  0
 19 44  1  0  0  0  0
 19 45  1  0  0  0  0
 19 46  1  0  0  0  0
 20 47  1  0  0  0  0
 20 48  1  0  0  0  0
 20 49  1  0  0  0  0
 21 22  1  0  0  0  0
 21 50  1  0  0  0  0
 21 51  1  0  0  0  0
 22 52  1  0  0  0  0
 22 53  1  0  0  0  0
M  CHG  2   1  -1   3   1
M  END
> <PUBCHEM_COMPOUND_CID>
248417

> <PUBCHEM_COMPOUND_CANONICALIZED>
1

> <PUBCHEM_CACTVS_COMPLEXITY>
473

> <PUBCHEM_CACTVS_HBOND_ACCEPTOR>
2

> <PUBCHEM_CACTVS_HBOND_DONOR>
0

> <PUBCHEM_CACTVS_ROTATABLE_BOND>
0

> <PUBCHEM_CACTVS_SUBSKEYS>
AAADceB6MAAAAAAAAAAAAAAAAAAAAYAAAAAwYMAAAAAAAGDAAAAAHAAEAAAADyjBAAQCAAAQQAABAAAAAwAAAAAAAAAgAAAAAAAAAAIAgAAAAAAAAAAAAAEQgMAPgAAAAAAAAACAAAQAACAAACAACQAAAA==

> <PUBCHEM_IUPAC_OPENEYE_NAME>
(5R,8R,9S,10S,13S,14S,17S)-10,13-dimethyl-17-nitro-2,3,4,5,6,7,8,9,11,12,14,15,16,17-tetradecahydro-1H-cyclopenta[a]phenanthrene

> <PUBCHEM_IUPAC_CAS_NAME>
(5R,8R,9S,10S,13S,14S,17S)-10,13-dimethyl-17-nitro-2,3,4,5,6,7,8,9,11,12,14,15,16,17-tetradecahydro-1H-cyclopenta[a]phenanthrene

> <PUBCHEM_IUPAC_NAME>
(5R,8R,9S,10S,13S,14S,17S)-10,13-dimethyl-17-nitro-2,3,4,5,6,7,8,9,11,12,14,15,16,17-tetradecahydro-1H-cyclopenta[a]phenanthrene

> <PUBCHEM_IUPAC_SYSTEMATIC_NAME>
(5R,8R,9S,10S,13S,14S,17S)-10,13-dimethyl-17-nitro-2,3,4,5,6,7,8,9,11,12,14,15,16,17-tetradecahydro-1H-cyclopenta[a]phenanthrene

> <PUBCHEM_IUPAC_TRADITIONAL_NAME>
(5R,8R,9S,10S,13S,14S,17S)-10,13-dimethyl-17-nitro-2,3,4,5,6,7,8,9,11,12,14,15,16,17-tetradecahydro-1H-cyclopenta[a]phenanthrene

> <PUBCHEM_IUPAC_INCHI>
InChI=1S/C19H31NO2/c1-18-11-4-3-5-13(18)6-7-14-15-8-9-17(20(21)22)19(15,2)12-10-16(14)18/h13-17H,3-12H2,1-2H3/t13-,14+,15+,16+,17+,18+,19+/m1/s1

> <PUBCHEM_IUPAC_INCHIKEY>
NEHHFSVRZKWSKW-KYQPOWKGSA-N

> <PUBCHEM_XLOGP3_AA>
6.4

> <PUBCHEM_EXACT_MASS>
305.235479

> <PUBCHEM_MOLECULAR_FORMULA>
C19H31NO2

> <PUBCHEM_MOLECULAR_WEIGHT>
305.45494

> <PUBCHEM_OPENEYE_CAN_SMILES>
CC12CCCCC1CCC3C2CCC4(C3CCC4[N+](=O)[O-])C

> <PUBCHEM_OPENEYE_ISO_SMILES>
C[C@]12CCCC[C@@H]1CC[C@@H]3[C@@H]2CC[C@]4([C@H]3CC[C@@H]4[N+](=O)[O-])C

> <PUBCHEM_CACTVS_TPSA>
45.8

> <PUBCHEM_MONOISOTOPIC_WEIGHT>
305.235479

> <PUBCHEM_TOTAL_CHARGE>
0

> <PUBCHEM_HEAVY_ATOM_COUNT>
22

> <PUBCHEM_ATOM_DEF_STEREO_COUNT>
7

> <PUBCHEM_ATOM_UDEF_STEREO_COUNT>
0

> <PUBCHEM_BOND_DEF_STEREO_COUNT>
0

> <PUBCHEM_BOND_UDEF_STEREO_COUNT>
0

> <PUBCHEM_ISOTOPIC_ATOM_COUNT>
0

> <PUBCHEM_COMPONENT_COUNT>
1

> <PUBCHEM_CACTVS_TAUTO_COUNT>
2

> <PUBCHEM_COORDINATE_TYPE>
1
5
255

> <PUBCHEM_BONDANNOTATIONS>
13  3  5
4  23  6
5  24  5
6  25  6
7  19  5
8  20  5
9  26  6

$$$$

