439915
  -OEChem-07051212483D

 27 27  0     1  0  0  0  0  0999 V2000
    2.8944    0.5831    0.1060 S   0  0  0  0  0  0  0  0  0  0  0  0
   -1.3284   -0.5417    1.1709 O   0  0  0  0  0  0  0  0  0  0  0  0
    1.5685   -0.0486    0.8178 O   0  0  0  0  0  0  0  0  0  0  0  0
   -0.0752   -1.6318   -2.0010 O   0  0  0  0  0  0  0  0  0  0  0  0
   -0.3564    1.6540   -0.4416 O   0  0  0  0  0  0  0  0  0  0  0  0
   -0.8231   -2.7858    0.5988 O   0  0  0  0  0  0  0  0  0  0  0  0
   -3.6291    1.1691   -0.9027 O   0  0  0  0  0  0  0  0  0  0  0  0
   -3.2456    1.2207    1.3437 O   0  0  0  0  0  0  0  0  0  0  0  0
    3.5092    1.5720    1.2485 O   0  0  0  0  0  0  0  0  0  0  0  0
    3.8396   -0.5007   -0.0885 O   0  0  0  0  0  0  0  0  0  0  0  0
    2.4833    1.4023   -1.0190 O   0  0  0  0  0  0  0  0  0  0  0  0
    0.3374   -0.5347   -1.1899 C   0  0  2  0  0  0  0  0  0  0  0  0
    0.8366   -1.0788    0.1560 C   0  0  2  0  0  0  0  0  0  0  0  0
   -0.8364    0.4352   -1.0083 C   0  0  1  0  0  0  0  0  0  0  0  0
   -1.8894   -0.1760   -0.0843 C   0  0  2  0  0  0  0  0  0  0  0  0
   -0.3097   -1.5419    1.0663 C   0  0  1  0  0  0  0  0  0  0  0  0
   -2.9757    0.8036    0.2272 C   0  0  0  0  0  0  0  0  0  0  0  0
    1.1103   -0.0644   -1.7863 H   0  0  0  0  0  0  0  0  0  0  0  0
    1.5063   -1.9310   -0.0170 H   0  0  0  0  0  0  0  0  0  0  0  0
   -1.2758    0.6671   -1.9858 H   0  0  0  0  0  0  0  0  0  0  0  0
   -2.3664   -1.0573   -0.5295 H   0  0  0  0  0  0  0  0  0  0  0  0
    0.0807   -1.6992    2.0783 H   0  0  0  0  0  0  0  0  0  0  0  0
   -0.7193   -2.1632   -1.5049 H   0  0  0  0  0  0  0  0  0  0  0  0
   -1.0690    2.3122   -0.5026 H   0  0  0  0  0  0  0  0  0  0  0  0
   -1.1924   -3.2506    1.3687 H   0  0  0  0  0  0  0  0  0  0  0  0
   -4.3468    1.8123   -0.7192 H   0  0  0  0  0  0  0  0  0  0  0  0
    2.8580    2.1740    1.6793 H   0  0  0  0  0  0  0  0  0  0  0  0
  1  3  1  0  0  0  0
  1  9  1  0  0  0  0
  1 10  2  0  0  0  0
  1 11  2  0  0  0  0
  2 15  1  0  0  0  0
  2 16  1  0  0  0  0
  3 13  1  0  0  0  0
  4 12  1  0  0  0  0
  4 23  1  0  0  0  0
  5 14  1  0  0  0  0
  5 24  1  0  0  0  0
  6 16  1  0  0  0  0
  6 25  1  0  0  0  0
  7 17  1  0  0  0  0
  7 26  1  0  0  0  0
  8 17  2  0  0  0  0
  9 27  1  0  0  0  0
 12 13  1  0  0  0  0
 12 14  1  0  0  0  0
 12 18  1  0  0  0  0
 13 16  1  0  0  0  0
 13 19  1  0  0  0  0
 14 15  1  0  0  0  0
 14 20  1  0  0  0  0
 15 17  1  0  0  0  0
 15 21  1  0  0  0  0
 16 22  1  0  0  0  0
M  END
> <PUBCHEM_COMPOUND_CID>
439915

> <PUBCHEM_CONFORMER_RMSD>
0.6

> <PUBCHEM_CONFORMER_DIVERSEORDER>
1
14
3
12
6
5
7
4
16
18
13
9
8
11
15
17
2
10

> <PUBCHEM_MMFF94_PARTIAL_CHARGES>
22
1 1.67
10 -0.65
11 -0.65
12 0.28
13 0.28
14 0.28
15 0.34
16 0.56
17 0.66
2 -0.56
23 0.4
24 0.4
25 0.4
26 0.5
27 0.5
3 -0.46
4 -0.68
5 -0.68
6 -0.68
7 -0.65
8 -0.57
9 -0.68

> <PUBCHEM_EFFECTIVE_ROTOR_COUNT>
4.2

> <PUBCHEM_PHARMACOPHORE_FEATURES>
15
1 10 acceptor
1 11 acceptor
1 2 acceptor
1 4 acceptor
1 4 donor
1 5 acceptor
1 5 donor
1 6 acceptor
1 6 donor
1 7 acceptor
1 8 acceptor
1 9 acceptor
3 7 8 17 anion
4 1 9 10 11 anion
6 2 12 13 14 15 16 rings

> <PUBCHEM_HEAVY_ATOM_COUNT>
17

> <PUBCHEM_ATOM_DEF_STEREO_COUNT>
4

> <PUBCHEM_ATOM_UDEF_STEREO_COUNT>
1

> <PUBCHEM_BOND_DEF_STEREO_COUNT>
0

> <PUBCHEM_BOND_UDEF_STEREO_COUNT>
0

> <PUBCHEM_ISOTOPIC_ATOM_COUNT>
0

> <PUBCHEM_COMPONENT_COUNT>
1

> <PUBCHEM_CACTVS_TAUTO_COUNT>
1

> <PUBCHEM_CONFORMER_ID>
0006B66B00000001

> <PUBCHEM_MMFF94_ENERGY>
33.8416

> <PUBCHEM_FEATURE_SELFOVERLAP>
76.287

> <PUBCHEM_SHAPE_FINGERPRINT>
10922049 32 18334855038973685503
11132069 177 18272657830764185064
12119455 92 18187369865054304790
12382932 28 18060135414359185857
12423570 1 17610032617126299135
12491281 212 17967810548403803649
13024252 1 17702964525459156014
13571099 52 18410294730857507321
14817 1 13775194358861364007
15309172 13 18202282532518915281
15775835 57 18186526492539074056
15906896 17 18265054639260307671
16945 1 17060623299682374314
18186145 218 18338791316286271477
20653085 51 17821729412146953026
21028194 46 18333166176291595800
21041028 32 17685213168184985842
21524375 3 18333735740341594191
23382010 3 16371022766552632633
23419403 2 17466454175482588879
2748010 2 18129079251997850755
7364860 26 17908989047256026443
8030462 33 5400535622849650636
81228 2 17841998788614466546

> <PUBCHEM_SHAPE_MULTIPOLES>
295.01
5.32
1.96
1.4
1.42
0.83
0.26
-3.17
-1.08
-0.21
-0.17
-0.14
0.15
0.24

> <PUBCHEM_SHAPE_SELFOVERLAP>
594.176

> <PUBCHEM_SHAPE_VOLUME>
172.4

> <PUBCHEM_COORDINATE_TYPE>
2
5
10

$$$$

