63333
  -OEChem-07051213063D

 57 61  0     0  0  0  0  0  0999 V2000
   -1.9379    0.6207   -3.4750 Cl  0  0  0  0  0  0  0  0  0  0  0  0
    4.6555    0.4186   -1.1757 O   0  0  0  0  0  0  0  0  0  0  0  0
    0.3891   -2.9469   -1.3081 O   0  0  0  0  0  0  0  0  0  0  0  0
    0.5301   -1.4488    0.5042 N   0  0  0  0  0  0  0  0  0  0  0  0
   -2.5788    3.3710    1.6393 N   0  0  0  0  0  0  0  0  0  0  0  0
   -1.4714   -0.7961    1.6128 N   0  0  0  0  0  0  0  0  0  0  0  0
    0.6229    1.6181    1.7276 C   0  0  0  0  0  0  0  0  0  0  0  0
    0.5344    0.2450    2.3770 C   0  0  0  0  0  0  0  0  0  0  0  0
   -0.7163    2.2278    1.4264 C   0  0  0  0  0  0  0  0  0  0  0  0
   -0.1838   -0.7291    1.4655 C   0  0  0  0  0  0  0  0  0  0  0  0
   -1.4392    2.0721    0.2282 C   0  0  0  0  0  0  0  0  0  0  0  0
   -2.6173    2.8054    0.3848 C   0  0  0  0  0  0  0  0  0  0  0  0
   -1.4200    3.0217    2.2794 C   0  0  0  0  0  0  0  0  0  0  0  0
    1.9662   -1.4368    0.4519 C   0  0  0  0  0  0  0  0  0  0  0  0
   -0.1389   -2.2606   -0.4363 C   0  0  0  0  0  0  0  0  0  0  0  0
   -1.6089   -2.3193   -0.2936 C   0  0  0  0  0  0  0  0  0  0  0  0
   -2.2098   -1.6030    0.7416 C   0  0  0  0  0  0  0  0  0  0  0  0
   -1.2241    1.3849   -0.9830 C   0  0  0  0  0  0  0  0  0  0  0  0
   -3.5951    2.8861   -0.6132 C   0  0  0  0  0  0  0  0  0  0  0  0
    2.6162   -0.5040   -0.3465 C   0  0  0  0  0  0  0  0  0  0  0  0
    2.6876   -2.3579    1.2011 C   0  0  0  0  0  0  0  0  0  0  0  0
   -2.1933    1.4565   -1.9901 C   0  0  0  0  0  0  0  0  0  0  0  0
   -2.3795   -3.0990   -1.1642 C   0  0  0  0  0  0  0  0  0  0  0  0
   -3.3598    2.1961   -1.8060 C   0  0  0  0  0  0  0  0  0  0  0  0
   -3.5990   -1.6745    0.8975 C   0  0  0  0  0  0  0  0  0  0  0  0
    4.0101   -0.4919   -0.3964 C   0  0  0  0  0  0  0  0  0  0  0  0
    4.0815   -2.3459    1.1511 C   0  0  0  0  0  0  0  0  0  0  0  0
    4.7427   -1.4129    0.3523 C   0  0  0  0  0  0  0  0  0  0  0  0
   -3.7622   -3.1612   -0.9981 C   0  0  0  0  0  0  0  0  0  0  0  0
   -4.3721   -2.4504    0.0327 C   0  0  0  0  0  0  0  0  0  0  0  0
    4.4281    1.7972   -0.8870 C   0  0  0  0  0  0  0  0  0  0  0  0
    5.7458    2.4517   -0.5009 C   0  0  0  0  0  0  0  0  0  0  0  0
    3.7973    2.4654   -2.0992 C   0  0  0  0  0  0  0  0  0  0  0  0
    1.2096    1.5808    0.8053 H   0  0  0  0  0  0  0  0  0  0  0  0
    1.1734    2.2877    2.4013 H   0  0  0  0  0  0  0  0  0  0  0  0
   -0.0221    0.3112    3.3207 H   0  0  0  0  0  0  0  0  0  0  0  0
    1.5360   -0.1120    2.6294 H   0  0  0  0  0  0  0  0  0  0  0  0
   -1.2161    3.3750    3.2805 H   0  0  0  0  0  0  0  0  0  0  0  0
   -3.3020    3.9588    2.0305 H   0  0  0  0  0  0  0  0  0  0  0  0
   -0.3110    0.8204   -1.1407 H   0  0  0  0  0  0  0  0  0  0  0  0
   -4.5037    3.4614   -0.4705 H   0  0  0  0  0  0  0  0  0  0  0  0
    2.0413    0.1956   -0.9455 H   0  0  0  0  0  0  0  0  0  0  0  0
    2.1806   -3.0877    1.8264 H   0  0  0  0  0  0  0  0  0  0  0  0
   -1.9232   -3.6635   -1.9726 H   0  0  0  0  0  0  0  0  0  0  0  0
   -4.1093    2.2472   -2.5930 H   0  0  0  0  0  0  0  0  0  0  0  0
   -4.0890   -1.1194    1.6940 H   0  0  0  0  0  0  0  0  0  0  0  0
    4.6519   -3.0627    1.7344 H   0  0  0  0  0  0  0  0  0  0  0  0
    5.8287   -1.4077    0.3179 H   0  0  0  0  0  0  0  0  0  0  0  0
   -4.3636   -3.7646   -1.6718 H   0  0  0  0  0  0  0  0  0  0  0  0
   -5.4494   -2.4975    0.1624 H   0  0  0  0  0  0  0  0  0  0  0  0
    3.7448    1.9174   -0.0352 H   0  0  0  0  0  0  0  0  0  0  0  0
    5.6125    3.5134   -0.2722 H   0  0  0  0  0  0  0  0  0  0  0  0
    6.1757    1.9568    0.3766 H   0  0  0  0  0  0  0  0  0  0  0  0
    6.4810    2.3560   -1.3076 H   0  0  0  0  0  0  0  0  0  0  0  0
    3.6130    3.5284   -1.9161 H   0  0  0  0  0  0  0  0  0  0  0  0
    2.8463    1.9885   -2.3572 H   0  0  0  0  0  0  0  0  0  0  0  0
    4.4444    2.3690   -2.9780 H   0  0  0  0  0  0  0  0  0  0  0  0
  1 22  1  0  0  0  0
  2 26  1  0  0  0  0
  2 31  1  0  0  0  0
  3 15  2  0  0  0  0
  4 10  1  0  0  0  0
  4 14  1  0  0  0  0
  4 15  1  0  0  0  0
  5 12  1  0  0  0  0
  5 13  1  0  0  0  0
  5 39  1  0  0  0  0
  6 10  2  0  0  0  0
  6 17  1  0  0  0  0
  7  8  1  0  0  0  0
  7  9  1  0  0  0  0
  7 34  1  0  0  0  0
  7 35  1  0  0  0  0
  8 10  1  0  0  0  0
  8 36  1  0  0  0  0
  8 37  1  0  0  0  0
  9 11  1  0  0  0  0
  9 13  2  0  0  0  0
 11 12  2  0  0  0  0
 11 18  1  0  0  0  0
 12 19  1  0  0  0  0
 13 38  1  0  0  0  0
 14 20  2  0  0  0  0
 14 21  1  0  0  0  0
 15 16  1  0  0  0  0
 16 17  1  0  0  0  0
 16 23  2  0  0  0  0
 17 25  2  0  0  0  0
 18 22  2  0  0  0  0
 18 40  1  0  0  0  0
 19 24  2  0  0  0  0
 19 41  1  0  0  0  0
 20 26  1  0  0  0  0
 20 42  1  0  0  0  0
 21 27  2  0  0  0  0
 21 43  1  0  0  0  0
 22 24  1  0  0  0  0
 23 29  1  0  0  0  0
 23 44  1  0  0  0  0
 24 45  1  0  0  0  0
 25 30  1  0  0  0  0
 25 46  1  0  0  0  0
 26 28  2  0  0  0  0
 27 28  1  0  0  0  0
 27 47  1  0  0  0  0
 28 48  1  0  0  0  0
 29 30  2  0  0  0  0
 29 49  1  0  0  0  0
 30 50  1  0  0  0  0
 31 32  1  0  0  0  0
 31 33  1  0  0  0  0
 31 51  1  0  0  0  0
 32 52  1  0  0  0  0
 32 53  1  0  0  0  0
 32 54  1  0  0  0  0
 33 55  1  0  0  0  0
 33 56  1  0  0  0  0
 33 57  1  0  0  0  0
M  END
> <PUBCHEM_COMPOUND_CID>
63333

> <PUBCHEM_CONFORMER_RMSD>
0.8

> <PUBCHEM_CONFORMER_DIVERSEORDER>
1
41
11
139
169
166
173
72
52
184
44
154
20
2
78
125
5
133
168
77
60
46
16
75
3
179
170
112
153
178
182
28
159
69
50
164
117
157
108
116
110
102
23
181
29
59
160
22
34
105
120
130
17
93
171
26
124
98
150
4
79
40
151
32
146
148
158
100
129
6
53
88
99
167
74
85
107
122
9
35
8
176
161
172
132
135
165
39
121
177
18
126
144
128
175
42
25
95
24
104
19
67
106
7
147
96
36
76
118
89
92
10
73
13
91
156
37
149
30
115
131
103
71
87
65
51
174
12
138
21
90
111
54
136
48
56
140
162
183
81
64
38
15
137
70
114
142
141
14
63
49
109
45
113
84
180
97
152
143
43
80
57
145
119
47
94
163
123
62
83
31
61
27
33
134
86
55
58
155
66
127
82
101
68

> <PUBCHEM_MMFF94_PARTIAL_CHARGES>
43
1 -0.18
10 0.45
12 -0.15
13 -0.3
14 0.12
15 0.54
16 0.09
17 0.18
18 -0.15
19 -0.15
2 -0.36
20 -0.15
21 -0.15
22 0.18
23 -0.15
24 -0.15
25 -0.15
26 0.08
27 -0.15
28 -0.15
29 -0.15
3 -0.57
30 -0.15
31 0.28
38 0.15
39 0.27
4 -0.24
40 0.15
41 0.15
42 0.15
43 0.15
44 0.15
45 0.15
46 0.15
47 0.15
48 0.15
49 0.15
5 0.03
50 0.15
6 -0.63
7 0.18
8 0.06
9 -0.18

> <PUBCHEM_EFFECTIVE_ROTOR_COUNT>
6

> <PUBCHEM_PHARMACOPHORE_FEATURES>
10
1 2 acceptor
1 3 acceptor
1 5 cation
1 5 donor
3 31 32 33 hydrophobe
5 5 9 11 12 13 rings
6 11 12 18 19 22 24 rings
6 14 20 21 26 27 28 rings
6 16 17 23 25 29 30 rings
6 4 6 10 15 16 17 rings

> <PUBCHEM_HEAVY_ATOM_COUNT>
33

> <PUBCHEM_ATOM_DEF_STEREO_COUNT>
0

> <PUBCHEM_ATOM_UDEF_STEREO_COUNT>
0

> <PUBCHEM_BOND_DEF_STEREO_COUNT>
0

> <PUBCHEM_BOND_UDEF_STEREO_COUNT>
0

> <PUBCHEM_ISOTOPIC_ATOM_COUNT>
0

> <PUBCHEM_COMPONENT_COUNT>
1

> <PUBCHEM_CACTVS_TAUTO_COUNT>
1

> <PUBCHEM_CONFORMER_ID>
0000F76500000001

> <PUBCHEM_MMFF94_ENERGY>
109.3132

> <PUBCHEM_FEATURE_SELFOVERLAP>
50.865

> <PUBCHEM_SHAPE_FINGERPRINT>
10032420 55 18265049133665901512
11421498 54 18199470974087382226
11578080 2 18262540116618451192
11582403 64 15694927758544184037
11725454 13 16628554941297581961
12107698 1 18263348232464619126
12156800 1 18053415147830018525
12355185 1 17617910579706888356
12422481 6 17984951960851861513
12788726 201 18335697209051391702
13583140 156 17344331500705282786
14932701 244 18189332356251428068
19319366 153 17321838903479934481
20764821 26 18189919598228061275
21033648 144 18270970171332549156
21049683 271 17980475664300033475
2132832 1 18343033185719502906
21792965 302 17538576405099773084
22121540 332 15432531443158435187
22182313 1 18043277693597587859
22907989 373 18333735731809727427
3027735 51 18129374895897532724
3493558 16 17774439356791007031
4409770 3 18263093261199036587
469060 322 17489013851997419068
474 4 17832988625731706897
550186 7 15504027143747069467
6287921 2 17397252210746816313

> <PUBCHEM_SHAPE_MULTIPOLES>
654.31
9.06
4.9
2.46
10.89
0.45
-0.66
0.58
-3.03
-3.03
0.06
-1.01
1.53
-1.87

> <PUBCHEM_SHAPE_SELFOVERLAP>
1441.633

> <PUBCHEM_SHAPE_VOLUME>
352.8

> <PUBCHEM_COORDINATE_TYPE>
2
5
10

$$$$

