6451137
  -OEChem-07051213123D

 48 50  0     0  0  0  0  0  0999 V2000
    2.7208    0.2083    2.4589 S   0  0  0  0  0  0  0  0  0  0  0  0
    2.2704   -2.5981   -0.1608 O   0  0  0  0  0  0  0  0  0  0  0  0
    2.8186    1.6523    2.3618 O   0  0  0  0  0  0  0  0  0  0  0  0
    3.1835   -0.4666    3.6585 O   0  0  0  0  0  0  0  0  0  0  0  0
    0.3893    1.4966    0.8611 O   0  0  0  0  0  0  0  0  0  0  0  0
   -5.5462   -1.0951    0.3047 O   0  0  0  0  0  0  0  0  0  0  0  0
   -3.3957    2.8156   -1.2931 O   0  0  0  0  0  0  0  0  0  0  0  0
    3.5171   -0.5304    1.1150 N   0  0  0  0  0  0  0  0  0  0  0  0
    1.1008   -0.2834    2.1808 N   0  0  0  0  0  0  0  0  0  0  0  0
   -1.0870   -0.2344    1.3808 N   0  0  0  0  0  0  0  0  0  0  0  0
   -3.3300   -0.6798    0.8469 N   0  0  0  0  0  0  0  0  0  0  0  0
   -2.2369    1.3083    0.0347 N   0  0  0  0  0  0  0  0  0  0  0  0
    0.5042   -1.9884   -1.5858 C   0  0  0  0  0  0  0  0  0  0  0  0
   -0.2591   -3.2306   -1.2307 C   0  0  0  0  0  0  0  0  0  0  0  0
    0.4094   -3.1176   -2.5694 C   0  0  0  0  0  0  0  0  0  0  0  0
    1.8203   -1.7173   -0.9066 C   0  0  0  0  0  0  0  0  0  0  0  0
    2.5345   -0.4703   -1.1479 C   0  0  0  0  0  0  0  0  0  0  0  0
    3.3504    0.0988   -0.1699 C   0  0  0  0  0  0  0  0  0  0  0  0
    2.3889    0.1563   -2.3856 C   0  0  0  0  0  0  0  0  0  0  0  0
    4.0206    1.2942   -0.4299 C   0  0  0  0  0  0  0  0  0  0  0  0
    3.0591    1.3516   -2.6454 C   0  0  0  0  0  0  0  0  0  0  0  0
    3.8749    1.9207   -1.6676 C   0  0  0  0  0  0  0  0  0  0  0  0
    0.1249    0.4339    1.4101 C   0  0  0  0  0  0  0  0  0  0  0  0
   -2.2773    0.1505    0.7214 C   0  0  0  0  0  0  0  0  0  0  0  0
   -4.4483   -0.2821    0.2054 C   0  0  0  0  0  0  0  0  0  0  0  0
   -3.3888    1.6451   -0.5818 C   0  0  0  0  0  0  0  0  0  0  0  0
   -4.5371    0.8818   -0.5307 C   0  0  0  0  0  0  0  0  0  0  0  0
   -5.3972   -2.2814    1.0761 C   0  0  0  0  0  0  0  0  0  0  0  0
   -2.1842    3.5615   -1.3112 C   0  0  0  0  0  0  0  0  0  0  0  0
   -0.1016   -1.1094   -1.7890 H   0  0  0  0  0  0  0  0  0  0  0  0
    0.1547   -3.9368   -0.5222 H   0  0  0  0  0  0  0  0  0  0  0  0
   -1.3405   -3.1628   -1.2005 H   0  0  0  0  0  0  0  0  0  0  0  0
   -0.2213   -2.9768   -3.4386 H   0  0  0  0  0  0  0  0  0  0  0  0
    1.2873   -3.7264   -2.7477 H   0  0  0  0  0  0  0  0  0  0  0  0
    1.7724   -0.2688   -3.1728 H   0  0  0  0  0  0  0  0  0  0  0  0
    4.6704    1.7437    0.3164 H   0  0  0  0  0  0  0  0  0  0  0  0
    3.5075   -1.5581    1.1009 H   0  0  0  0  0  0  0  0  0  0  0  0
    2.9490    1.8378   -3.6104 H   0  0  0  0  0  0  0  0  0  0  0  0
    4.3995    2.8496   -1.8714 H   0  0  0  0  0  0  0  0  0  0  0  0
    0.8339   -1.2082    2.5415 H   0  0  0  0  0  0  0  0  0  0  0  0
   -1.1491   -1.1131    1.8875 H   0  0  0  0  0  0  0  0  0  0  0  0
   -5.4485    1.1765   -1.0356 H   0  0  0  0  0  0  0  0  0  0  0  0
   -6.3511   -2.8168    1.0578 H   0  0  0  0  0  0  0  0  0  0  0  0
   -5.1630   -2.0445    2.1195 H   0  0  0  0  0  0  0  0  0  0  0  0
   -4.6338   -2.9373    0.6443 H   0  0  0  0  0  0  0  0  0  0  0  0
   -1.3758    2.9864   -1.7753 H   0  0  0  0  0  0  0  0  0  0  0  0
   -1.9047    3.8809   -0.3015 H   0  0  0  0  0  0  0  0  0  0  0  0
   -2.3498    4.4585   -1.9151 H   0  0  0  0  0  0  0  0  0  0  0  0
  1  3  2  0  0  0  0
  1  4  2  0  0  0  0
  1  8  1  0  0  0  0
  1  9  1  0  0  0  0
  2 16  2  0  0  0  0
  5 23  2  0  0  0  0
  6 25  1  0  0  0  0
  6 28  1  0  0  0  0
  7 26  1  0  0  0  0
  7 29  1  0  0  0  0
  8 18  1  0  0  0  0
  8 37  1  0  0  0  0
  9 23  1  0  0  0  0
  9 40  1  0  0  0  0
 10 23  1  0  0  0  0
 10 24  1  0  0  0  0
 10 41  1  0  0  0  0
 11 24  1  0  0  0  0
 11 25  2  0  0  0  0
 12 24  2  0  0  0  0
 12 26  1  0  0  0  0
 13 14  1  0  0  0  0
 13 15  1  0  0  0  0
 13 16  1  0  0  0  0
 13 30  1  0  0  0  0
 14 15  1  0  0  0  0
 14 31  1  0  0  0  0
 14 32  1  0  0  0  0
 15 33  1  0  0  0  0
 15 34  1  0  0  0  0
 16 17  1  0  0  0  0
 17 18  1  0  0  0  0
 17 19  2  0  0  0  0
 18 20  2  0  0  0  0
 19 21  1  0  0  0  0
 19 35  1  0  0  0  0
 20 22  1  0  0  0  0
 20 36  1  0  0  0  0
 21 22  2  0  0  0  0
 21 38  1  0  0  0  0
 22 39  1  0  0  0  0
 25 27  1  0  0  0  0
 26 27  2  0  0  0  0
 27 42  1  0  0  0  0
 28 43  1  0  0  0  0
 28 44  1  0  0  0  0
 28 45  1  0  0  0  0
 29 46  1  0  0  0  0
 29 47  1  0  0  0  0
 29 48  1  0  0  0  0
M  END
> <PUBCHEM_COMPOUND_CID>
6451137

> <PUBCHEM_CONFORMER_RMSD>
1.2

> <PUBCHEM_CONFORMER_DIVERSEORDER>
1
105
69
100
62
80
129
146
89
144
119
126
66
123
88
81
121
117
40
36
50
47
56
95
29
58
139
149
38
71
57
130
142
45
72
108
25
73
22
65
127
143
128
12
33
145
16
133
51
27
78
26
148
140
102
87
52
79
49
31
113
114
138
82
90
136
75
134
14
84
93
92
83
101
103
28
48
30
131
7
97
85
67
2
116
124
74
41
135
122
63
96
44
112
109
23
15
20
34
37
132
86
59
43
147
11
60
68
94
77
107
91
118
61
106
8
120
53
39
21
24
32
18
13
55
42
141
64
4
5
104
17
35
46
115
54
76
98
111
137
19
6
99
3
125
10
70
110
9

> <PUBCHEM_MMFF94_PARTIAL_CHARGES>
42
1 1.58
10 -0.55
11 -0.62
12 -0.62
13 -0.1
14 -0.2
15 -0.2
16 0.48
17 0.09
18 0.2
19 -0.15
2 -0.57
20 -0.15
21 -0.15
22 -0.15
23 0.87
24 0.74
25 0.39
26 0.39
27 -0.15
28 0.28
29 0.28
3 -0.65
30 0.1
31 0.1
32 0.1
33 0.1
34 0.1
35 0.15
36 0.15
37 0.42
38 0.15
39 0.15
4 -0.65
40 0.42
41 0.37
42 0.15
5 -0.57
6 -0.36
7 -0.36
8 -0.76
9 -0.79

> <PUBCHEM_EFFECTIVE_ROTOR_COUNT>
10.6

> <PUBCHEM_PHARMACOPHORE_FEATURES>
8
1 10 donor
1 2 acceptor
1 5 acceptor
1 7 acceptor
1 8 donor
1 9 donor
6 11 12 24 25 26 27 rings
6 17 18 19 20 21 22 rings

> <PUBCHEM_HEAVY_ATOM_COUNT>
29

> <PUBCHEM_ATOM_DEF_STEREO_COUNT>
0

> <PUBCHEM_ATOM_UDEF_STEREO_COUNT>
0

> <PUBCHEM_BOND_DEF_STEREO_COUNT>
0

> <PUBCHEM_BOND_UDEF_STEREO_COUNT>
0

> <PUBCHEM_ISOTOPIC_ATOM_COUNT>
0

> <PUBCHEM_COMPONENT_COUNT>
1

> <PUBCHEM_CACTVS_TAUTO_COUNT>
35

> <PUBCHEM_CONFORMER_ID>
00626FC100000001

> <PUBCHEM_MMFF94_ENERGY>
87.3217

> <PUBCHEM_FEATURE_SELFOVERLAP>
40.648

> <PUBCHEM_SHAPE_FINGERPRINT>
10764073 3 16899095404045949530
12107698 1 18060410322852926308
12156800 1 16960413548013642388
12788726 201 14398935283800973466
13149001 5 17168413845376950726
13617811 41 18408047299954490605
13726171 33 18341032052692340665
17349148 13 14117505511947888457
20691752 17 18189068503256209039
21860390 5 17632290203375396164
22149856 69 15624785355502901145
23419403 2 16680955608668021474
23557571 272 18340213015350299001
23559900 14 18196091272953681631
238 59 16660362567507127114
25222932 49 17557690379519804563
3052486 1 18046078068204418030
3472631 163 17846500391715079845
44802255 64 17693333852442096518
474 4 15841544129125019352
5895379 119 17985549098476140924
6669772 16 17458639887042228002

> <PUBCHEM_SHAPE_MULTIPOLES>
540.53
9.64
3.37
2.99
10.85
0.98
1.4
-1.3
0.64
1.53
-2.53
-3.64
-0.24
1.36

> <PUBCHEM_SHAPE_SELFOVERLAP>
1130.534

> <PUBCHEM_SHAPE_VOLUME>
307

> <PUBCHEM_COORDINATE_TYPE>
2
5
10

$$$$

