17395623
  -OEChem-06241222513D

 59 62  0     0  0  0  0  0  0999 V2000
    2.1400    3.0916    1.1008 O   0  0  0  0  0  0  0  0  0  0  0  0
   -3.7004    2.6690    1.3777 O   0  0  0  0  0  0  0  0  0  0  0  0
   -1.6275    2.0783    0.5052 N   0  0  0  0  0  0  0  0  0  0  0  0
    2.8230    2.1429   -0.9124 N   0  0  0  0  0  0  0  0  0  0  0  0
    4.1211   -0.8309   -0.8096 N   0  0  0  0  0  0  0  0  0  0  0  0
    3.7047   -0.1151    1.2530 N   0  0  0  0  0  0  0  0  0  0  0  0
    0.6929    3.2380   -0.7964 C   0  0  0  0  0  0  0  0  0  0  0  0
   -0.0378    2.0180   -1.3720 C   0  0  0  0  0  0  0  0  0  0  0  0
   -0.2144    4.0564    0.1306 C   0  0  0  0  0  0  0  0  0  0  0  0
   -0.7487    1.2093   -0.2872 C   0  0  0  0  0  0  0  0  0  0  0  0
   -0.9312    3.1849    1.1631 C   0  0  0  0  0  0  0  0  0  0  0  0
    1.9476    2.8213   -0.0818 C   0  0  0  0  0  0  0  0  0  0  0  0
   -2.9988    1.9273    0.6877 C   0  0  0  0  0  0  0  0  0  0  0  0
    4.1107    1.6551   -0.4742 C   0  0  0  0  0  0  0  0  0  0  0  0
    3.9725    0.2468    0.0184 C   0  0  0  0  0  0  0  0  0  0  0  0
    3.9365   -1.9638   -0.0593 C   0  0  0  0  0  0  0  0  0  0  0  0
   -3.6642    0.8017    0.0022 C   0  0  0  0  0  0  0  0  0  0  0  0
    4.4187   -0.7890   -2.2237 C   0  0  0  0  0  0  0  0  0  0  0  0
    3.6783   -1.4905    1.2242 C   0  0  0  0  0  0  0  0  0  0  0  0
    3.9723   -3.3205   -0.3832 C   0  0  0  0  0  0  0  0  0  0  0  0
    3.4393   -2.4112    2.2585 C   0  0  0  0  0  0  0  0  0  0  0  0
   -4.7451    0.2573    0.5753 C   0  0  0  0  0  0  0  0  0  0  0  0
    5.9128   -0.8053   -2.4974 C   0  0  0  0  0  0  0  0  0  0  0  0
    3.7320   -4.2229    0.6583 C   0  0  0  0  0  0  0  0  0  0  0  0
    3.4702   -3.7784    1.9563 C   0  0  0  0  0  0  0  0  0  0  0  0
   -5.5100   -0.8742    0.0218 C   0  0  0  0  0  0  0  0  0  0  0  0
   -5.4077   -1.1887   -1.3333 C   0  0  0  0  0  0  0  0  0  0  0  0
   -6.3363   -1.6307    0.8528 C   0  0  0  0  0  0  0  0  0  0  0  0
   -6.1319   -2.2595   -1.8575 C   0  0  0  0  0  0  0  0  0  0  0  0
   -7.0605   -2.7015    0.3287 C   0  0  0  0  0  0  0  0  0  0  0  0
   -6.9582   -3.0158   -1.0266 C   0  0  0  0  0  0  0  0  0  0  0  0
    1.0062    3.8853   -1.6266 H   0  0  0  0  0  0  0  0  0  0  0  0
    0.6212    1.3537   -1.9395 H   0  0  0  0  0  0  0  0  0  0  0  0
   -0.7934    2.3787   -2.0828 H   0  0  0  0  0  0  0  0  0  0  0  0
   -0.9726    4.5566   -0.4865 H   0  0  0  0  0  0  0  0  0  0  0  0
    0.3466    4.8490    0.6399 H   0  0  0  0  0  0  0  0  0  0  0  0
   -0.0183    0.7713    0.4040 H   0  0  0  0  0  0  0  0  0  0  0  0
   -1.2805    0.3727   -0.7402 H   0  0  0  0  0  0  0  0  0  0  0  0
   -1.6342    3.8032    1.7307 H   0  0  0  0  0  0  0  0  0  0  0  0
   -0.2333    2.7515    1.8870 H   0  0  0  0  0  0  0  0  0  0  0  0
    2.5924    2.0183   -1.8931 H   0  0  0  0  0  0  0  0  0  0  0  0
    4.8146    1.7503   -1.3046 H   0  0  0  0  0  0  0  0  0  0  0  0
    4.4773    2.2886    0.3413 H   0  0  0  0  0  0  0  0  0  0  0  0
   -3.2772    0.4686   -0.9496 H   0  0  0  0  0  0  0  0  0  0  0  0
    3.9516    0.0990   -2.6599 H   0  0  0  0  0  0  0  0  0  0  0  0
    3.9386   -1.6519   -2.6979 H   0  0  0  0  0  0  0  0  0  0  0  0
    4.1779   -3.6706   -1.3884 H   0  0  0  0  0  0  0  0  0  0  0  0
    3.2348   -2.0759    3.2702 H   0  0  0  0  0  0  0  0  0  0  0  0
    6.3771   -1.7141   -2.1001 H   0  0  0  0  0  0  0  0  0  0  0  0
    6.1005   -0.7715   -3.5751 H   0  0  0  0  0  0  0  0  0  0  0  0
    6.4145    0.0519   -2.0372 H   0  0  0  0  0  0  0  0  0  0  0  0
   -5.0974    0.6181    1.5393 H   0  0  0  0  0  0  0  0  0  0  0  0
    3.7505   -5.2904    0.4528 H   0  0  0  0  0  0  0  0  0  0  0  0
    3.2875   -4.5039    2.7449 H   0  0  0  0  0  0  0  0  0  0  0  0
   -4.7937   -0.6167   -2.0225 H   0  0  0  0  0  0  0  0  0  0  0  0
   -6.4276   -1.4012    1.9117 H   0  0  0  0  0  0  0  0  0  0  0  0
   -6.0563   -2.5020   -2.9135 H   0  0  0  0  0  0  0  0  0  0  0  0
   -7.7040   -3.2906    0.9755 H   0  0  0  0  0  0  0  0  0  0  0  0
   -7.5229   -3.8488   -1.4348 H   0  0  0  0  0  0  0  0  0  0  0  0
  1 12  2  0  0  0  0
  2 13  2  0  0  0  0
  3 10  1  0  0  0  0
  3 11  1  0  0  0  0
  3 13  1  0  0  0  0
  4 12  1  0  0  0  0
  4 14  1  0  0  0  0
  4 41  1  0  0  0  0
  5 15  1  0  0  0  0
  5 16  1  0  0  0  0
  5 18  1  0  0  0  0
  6 15  2  0  0  0  0
  6 19  1  0  0  0  0
  7  8  1  0  0  0  0
  7  9  1  0  0  0  0
  7 12  1  0  0  0  0
  7 32  1  0  0  0  0
  8 10  1  0  0  0  0
  8 33  1  0  0  0  0
  8 34  1  0  0  0  0
  9 11  1  0  0  0  0
  9 35  1  0  0  0  0
  9 36  1  0  0  0  0
 10 37  1  0  0  0  0
 10 38  1  0  0  0  0
 11 39  1  0  0  0  0
 11 40  1  0  0  0  0
 13 17  1  0  0  0  0
 14 15  1  0  0  0  0
 14 42  1  0  0  0  0
 14 43  1  0  0  0  0
 16 19  1  0  0  0  0
 16 20  2  0  0  0  0
 17 22  2  0  0  0  0
 17 44  1  0  0  0  0
 18 23  1  0  0  0  0
 18 45  1  0  0  0  0
 18 46  1  0  0  0  0
 19 21  2  0  0  0  0
 20 24  1  0  0  0  0
 20 47  1  0  0  0  0
 21 25  1  0  0  0  0
 21 48  1  0  0  0  0
 22 26  1  0  0  0  0
 22 52  1  0  0  0  0
 23 49  1  0  0  0  0
 23 50  1  0  0  0  0
 23 51  1  0  0  0  0
 24 25  2  0  0  0  0
 24 53  1  0  0  0  0
 25 54  1  0  0  0  0
 26 27  2  0  0  0  0
 26 28  1  0  0  0  0
 27 29  1  0  0  0  0
 27 55  1  0  0  0  0
 28 30  2  0  0  0  0
 28 56  1  0  0  0  0
 29 31  2  0  0  0  0
 29 57  1  0  0  0  0
 30 31  1  0  0  0  0
 30 58  1  0  0  0  0
 31 59  1  0  0  0  0
M  END
> <PUBCHEM_COMPOUND_CID>
17395623

> <PUBCHEM_CONFORMER_RMSD>
1.2

> <PUBCHEM_CONFORMER_DIVERSEORDER>
1
16
82
78
55
102
39
56
42
11
8
7
100
75
23
57
86
79
72
58
76
32
74
29
96
24
15
77
17
73
47
21
27
25
14
18
20
28
37
97
80
94
84
59
13
63
12
98
3
36
64
38
45
33
62
93
87
46
85
67
48
65
89
10
26
54
70
101
41
40
43
81
34
49
90
2
95
60
4
71
66
19
69
53
99
83
68
22
30
6
31
51
91
61
50
52
88
92
5
44
9
35

> <PUBCHEM_MMFF94_PARTIAL_CHARGES>
40
1 -0.57
10 0.3
11 0.3
12 0.57
13 0.62
14 0.48
15 0.01
16 -0.15
17 -0.14
18 0.26
19 0.23
2 -0.57
20 -0.15
21 -0.15
22 -0.18
24 -0.15
25 -0.15
26 0.03
27 -0.15
28 -0.15
29 -0.15
3 -0.66
30 -0.15
31 -0.15
4 -0.73
41 0.37
44 0.15
47 0.15
48 0.15
5 0.05
52 0.15
53 0.15
54 0.15
55 0.15
56 0.15
57 0.15
58 0.15
59 0.15
6 -0.57
7 0.06

> <PUBCHEM_EFFECTIVE_ROTOR_COUNT>
9.2

> <PUBCHEM_PHARMACOPHORE_FEATURES>
8
1 1 acceptor
1 2 acceptor
1 4 donor
3 5 6 15 cation
5 5 6 15 16 19 rings
6 16 19 20 21 24 25 rings
6 26 27 28 29 30 31 rings
6 3 7 8 9 10 11 rings

> <PUBCHEM_HEAVY_ATOM_COUNT>
31

> <PUBCHEM_ATOM_DEF_STEREO_COUNT>
0

> <PUBCHEM_ATOM_UDEF_STEREO_COUNT>
0

> <PUBCHEM_BOND_DEF_STEREO_COUNT>
1

> <PUBCHEM_BOND_UDEF_STEREO_COUNT>
0

> <PUBCHEM_ISOTOPIC_ATOM_COUNT>
0

> <PUBCHEM_COMPONENT_COUNT>
1

> <PUBCHEM_CACTVS_TAUTO_COUNT>
2

> <PUBCHEM_CONFORMER_ID>
01096FA700000001

> <PUBCHEM_MMFF94_ENERGY>
63.5715

> <PUBCHEM_FEATURE_SELFOVERLAP>
40.702

> <PUBCHEM_SHAPE_FINGERPRINT>
10049733 135 16588026766952111107
10622 236 18410860992599901187
10928967 22 17837760489443705994
11227150 75 16985781823960960578
117089 54 18190732223089459014
1200032 147 6050151303455138146
12422481 6 17022618680943660845
131258 38 18045229245253733583
13533116 47 18263360283705475249
1361 2 18339643339077321627
13692114 37 18193274093142959836
14251740 57 18186799149647388700
14347332 77 18410295788174160909
14480069 147 18342175540805959571
15001296 14 18193000318351274319
150020 26 17028816833958564542
15003188 105 18272091612978896770
15347590 135 17751087911887928200
15475509 35 18261960626804300433
17134984 74 18129662972180734091
18365409 1 17547565986320343932
19315092 285 18187086135125384128
20691028 202 10303550415890678687
20715895 44 10015584978389727524
20775438 99 18202004296164519522
20775530 9 18409726270709296393
208703 8 18260264127496324303
21136928 129 17245312615752077418
21585483 132 17825965732440896567
21599406 157 17346600764352300575
21703447 108 18262243205377103161
24983565 74 17754179674788848839
25222932 49 18410293614593304878
2748736 6 9727632778906865027
44344687 77 18200861878646815531
444735 86 18343018895740556634
50009960 94 18127436594405497442
6058803 2 18338780316987024169
6201460 15 18339078315040162571
6636735 143 13984651548372120919
7970288 3 18194683893669763218
9831232 110 18200317590241443639

> <PUBCHEM_SHAPE_MULTIPOLES>
606.3
17.58
6.01
1.92
26.7
0.11
0.42
-20.49
4.69
-2.03
-1.69
-1.86
-1.06
-3.27

> <PUBCHEM_SHAPE_SELFOVERLAP>
1301.765

> <PUBCHEM_SHAPE_VOLUME>
332.4

> <PUBCHEM_COORDINATE_TYPE>
2
5
10

$$$$

