5281236
  -OEChem-07051212552D

 95 96  0     0  0  0  0  0  0999 V2000
    5.5981   -9.2500    0.0000 O   0  0  0  0  0  0  0  0  0  0  0  0
   12.5263    7.7500    0.0000 C   0  0  0  0  0  0  0  0  0  0  0  0
   12.5263    8.7500    0.0000 C   0  0  0  0  0  0  0  0  0  0  0  0
   11.6603    9.2500    0.0000 C   0  0  0  0  0  0  0  0  0  0  0  0
   11.6603    7.2500    0.0000 C   0  0  0  0  0  0  0  0  0  0  0  0
   10.7942    8.7500    0.0000 C   0  0  0  0  0  0  0  0  0  0  0  0
   10.7942    7.7500    0.0000 C   0  0  0  0  0  0  0  0  0  0  0  0
   13.5263    7.7500    0.0000 C   0  0  0  0  0  0  0  0  0  0  0  0
   13.0263    6.8840    0.0000 C   0  0  0  0  0  0  0  0  0  0  0  0
    3.0000   -7.7500    0.0000 C   0  0  0  0  0  0  0  0  0  0  0  0
    3.0000   -8.7500    0.0000 C   0  0  0  0  0  0  0  0  0  0  0  0
    3.8660   -7.2500    0.0000 C   0  0  0  0  0  0  0  0  0  0  0  0
   11.6603    6.2500    0.0000 C   0  0  0  0  0  0  0  0  0  0  0  0
    9.9282    7.2500    0.0000 C   0  0  0  0  0  0  0  0  0  0  0  0
    3.8660   -9.2500    0.0000 C   0  0  0  0  0  0  0  0  0  0  0  0
    2.0000   -7.7500    0.0000 C   0  0  0  0  0  0  0  0  0  0  0  0
    2.5000   -6.8840    0.0000 C   0  0  0  0  0  0  0  0  0  0  0  0
    4.7320   -7.7500    0.0000 C   0  0  0  0  0  0  0  0  0  0  0  0
    4.7320   -8.7500    0.0000 C   0  0  0  0  0  0  0  0  0  0  0  0
    3.8660   -6.2500    0.0000 C   0  0  0  0  0  0  0  0  0  0  0  0
   10.7942    5.7500    0.0000 C   0  0  0  0  0  0  0  0  0  0  0  0
    5.5981   -7.2500    0.0000 C   0  0  0  0  0  0  0  0  0  0  0  0
   10.7942    4.7500    0.0000 C   0  0  0  0  0  0  0  0  0  0  0  0
    4.7320   -5.7500    0.0000 C   0  0  0  0  0  0  0  0  0  0  0  0
    4.7320   -4.7500    0.0000 C   0  0  0  0  0  0  0  0  0  0  0  0
   11.6603    4.2500    0.0000 C   0  0  0  0  0  0  0  0  0  0  0  0
    9.9282    4.2500    0.0000 C   0  0  0  0  0  0  0  0  0  0  0  0
    3.8660   -4.2500    0.0000 C   0  0  0  0  0  0  0  0  0  0  0  0
    5.5981   -4.2500    0.0000 C   0  0  0  0  0  0  0  0  0  0  0  0
    9.9282    3.2500    0.0000 C   0  0  0  0  0  0  0  0  0  0  0  0
    5.5981   -3.2500    0.0000 C   0  0  0  0  0  0  0  0  0  0  0  0
    9.0622    2.7500    0.0000 C   0  0  0  0  0  0  0  0  0  0  0  0
    6.4641   -2.7500    0.0000 C   0  0  0  0  0  0  0  0  0  0  0  0
    9.0622    1.7500    0.0000 C   0  0  0  0  0  0  0  0  0  0  0  0
    6.4641   -1.7500    0.0000 C   0  0  0  0  0  0  0  0  0  0  0  0
    9.9282    1.2500    0.0000 C   0  0  0  0  0  0  0  0  0  0  0  0
    8.1962    1.2500    0.0000 C   0  0  0  0  0  0  0  0  0  0  0  0
    7.3301   -1.2500    0.0000 C   0  0  0  0  0  0  0  0  0  0  0  0
    5.5981   -1.2500    0.0000 C   0  0  0  0  0  0  0  0  0  0  0  0
    8.1962    0.2500    0.0000 C   0  0  0  0  0  0  0  0  0  0  0  0
    7.3301   -0.2500    0.0000 C   0  0  0  0  0  0  0  0  0  0  0  0
   13.1369    8.6423    0.0000 H   0  0  0  0  0  0  0  0  0  0  0  0
   12.7383    9.3326    0.0000 H   0  0  0  0  0  0  0  0  0  0  0  0
   12.0588    9.7250    0.0000 H   0  0  0  0  0  0  0  0  0  0  0  0
   11.2617    9.7250    0.0000 H   0  0  0  0  0  0  0  0  0  0  0  0
   10.5822    9.3326    0.0000 H   0  0  0  0  0  0  0  0  0  0  0  0
   10.1836    8.6423    0.0000 H   0  0  0  0  0  0  0  0  0  0  0  0
   13.5263    7.1300    0.0000 H   0  0  0  0  0  0  0  0  0  0  0  0
   14.1463    7.7500    0.0000 H   0  0  0  0  0  0  0  0  0  0  0  0
   13.5263    8.3700    0.0000 H   0  0  0  0  0  0  0  0  0  0  0  0
   12.4893    6.5740    0.0000 H   0  0  0  0  0  0  0  0  0  0  0  0
   13.3363    6.3470    0.0000 H   0  0  0  0  0  0  0  0  0  0  0  0
   13.5632    7.1940    0.0000 H   0  0  0  0  0  0  0  0  0  0  0  0
    2.3894   -8.6423    0.0000 H   0  0  0  0  0  0  0  0  0  0  0  0
    2.7880   -9.3326    0.0000 H   0  0  0  0  0  0  0  0  0  0  0  0
   12.1972    5.9400    0.0000 H   0  0  0  0  0  0  0  0  0  0  0  0
    9.6182    7.7869    0.0000 H   0  0  0  0  0  0  0  0  0  0  0  0
    9.3913    6.9400    0.0000 H   0  0  0  0  0  0  0  0  0  0  0  0
   10.2382    6.7131    0.0000 H   0  0  0  0  0  0  0  0  0  0  0  0
    3.4675   -9.7250    0.0000 H   0  0  0  0  0  0  0  0  0  0  0  0
    4.2646   -9.7250    0.0000 H   0  0  0  0  0  0  0  0  0  0  0  0
    2.0000   -7.1300    0.0000 H   0  0  0  0  0  0  0  0  0  0  0  0
    1.3800   -7.7500    0.0000 H   0  0  0  0  0  0  0  0  0  0  0  0
    2.0000   -8.3700    0.0000 H   0  0  0  0  0  0  0  0  0  0  0  0
    3.0369   -6.5740    0.0000 H   0  0  0  0  0  0  0  0  0  0  0  0
    2.1900   -6.3470    0.0000 H   0  0  0  0  0  0  0  0  0  0  0  0
    1.9631   -7.1940    0.0000 H   0  0  0  0  0  0  0  0  0  0  0  0
    3.3291   -5.9400    0.0000 H   0  0  0  0  0  0  0  0  0  0  0  0
   10.2573    6.0600    0.0000 H   0  0  0  0  0  0  0  0  0  0  0  0
    5.9081   -7.7869    0.0000 H   0  0  0  0  0  0  0  0  0  0  0  0
    6.1350   -6.9400    0.0000 H   0  0  0  0  0  0  0  0  0  0  0  0
    5.2881   -6.7131    0.0000 H   0  0  0  0  0  0  0  0  0  0  0  0
    5.2690   -6.0600    0.0000 H   0  0  0  0  0  0  0  0  0  0  0  0
   11.3503    3.7131    0.0000 H   0  0  0  0  0  0  0  0  0  0  0  0
   12.1972    3.9400    0.0000 H   0  0  0  0  0  0  0  0  0  0  0  0
   11.9703    4.7869    0.0000 H   0  0  0  0  0  0  0  0  0  0  0  0
    9.3913    4.5600    0.0000 H   0  0  0  0  0  0  0  0  0  0  0  0
    4.1760   -3.7131    0.0000 H   0  0  0  0  0  0  0  0  0  0  0  0
    3.3291   -3.9400    0.0000 H   0  0  0  0  0  0  0  0  0  0  0  0
    3.5560   -4.7869    0.0000 H   0  0  0  0  0  0  0  0  0  0  0  0
    6.1350   -4.5600    0.0000 H   0  0  0  0  0  0  0  0  0  0  0  0
   10.4651    2.9400    0.0000 H   0  0  0  0  0  0  0  0  0  0  0  0
    5.0611   -2.9400    0.0000 H   0  0  0  0  0  0  0  0  0  0  0  0
    8.5252    3.0600    0.0000 H   0  0  0  0  0  0  0  0  0  0  0  0
    7.0010   -3.0600    0.0000 H   0  0  0  0  0  0  0  0  0  0  0  0
    9.6182    0.7131    0.0000 H   0  0  0  0  0  0  0  0  0  0  0  0
   10.4651    0.9400    0.0000 H   0  0  0  0  0  0  0  0  0  0  0  0
   10.2382    1.7869    0.0000 H   0  0  0  0  0  0  0  0  0  0  0  0
    7.6592    1.5600    0.0000 H   0  0  0  0  0  0  0  0  0  0  0  0
    7.8671   -1.5600    0.0000 H   0  0  0  0  0  0  0  0  0  0  0  0
    5.9081   -0.7131    0.0000 H   0  0  0  0  0  0  0  0  0  0  0  0
    5.0611   -0.9400    0.0000 H   0  0  0  0  0  0  0  0  0  0  0  0
    5.2881   -1.7869    0.0000 H   0  0  0  0  0  0  0  0  0  0  0  0
    8.7331   -0.0600    0.0000 H   0  0  0  0  0  0  0  0  0  0  0  0
    6.7932    0.0600    0.0000 H   0  0  0  0  0  0  0  0  0  0  0  0
  1 19  2  0  0  0  0
  2  3  1  0  0  0  0
  2  5  1  0  0  0  0
  2  8  1  0  0  0  0
  2  9  1  0  0  0  0
  3  4  1  0  0  0  0
  3 42  1  0  0  0  0
  3 43  1  0  0  0  0
  4  6  1  0  0  0  0
  4 44  1  0  0  0  0
  4 45  1  0  0  0  0
  5  7  2  0  0  0  0
  5 13  1  0  0  0  0
  6  7  1  0  0  0  0
  6 46  1  0  0  0  0
  6 47  1  0  0  0  0
  7 14  1  0  0  0  0
  8 48  1  0  0  0  0
  8 49  1  0  0  0  0
  8 50  1  0  0  0  0
  9 51  1  0  0  0  0
  9 52  1  0  0  0  0
  9 53  1  0  0  0  0
 10 11  1  0  0  0  0
 10 12  1  0  0  0  0
 10 16  1  0  0  0  0
 10 17  1  0  0  0  0
 11 15  1  0  0  0  0
 11 54  1  0  0  0  0
 11 55  1  0  0  0  0
 12 18  2  0  0  0  0
 12 20  1  0  0  0  0
 13 21  2  0  0  0  0
 13 56  1  0  0  0  0
 14 57  1  0  0  0  0
 14 58  1  0  0  0  0
 14 59  1  0  0  0  0
 15 19  1  0  0  0  0
 15 60  1  0  0  0  0
 15 61  1  0  0  0  0
 16 62  1  0  0  0  0
 16 63  1  0  0  0  0
 16 64  1  0  0  0  0
 17 65  1  0  0  0  0
 17 66  1  0  0  0  0
 17 67  1  0  0  0  0
 18 19  1  0  0  0  0
 18 22  1  0  0  0  0
 20 24  2  0  0  0  0
 20 68  1  0  0  0  0
 21 23  1  0  0  0  0
 21 69  1  0  0  0  0
 22 70  1  0  0  0  0
 22 71  1  0  0  0  0
 22 72  1  0  0  0  0
 23 26  1  0  0  0  0
 23 27  2  0  0  0  0
 24 25  1  0  0  0  0
 24 73  1  0  0  0  0
 25 28  1  0  0  0  0
 25 29  2  0  0  0  0
 26 74  1  0  0  0  0
 26 75  1  0  0  0  0
 26 76  1  0  0  0  0
 27 30  1  0  0  0  0
 27 77  1  0  0  0  0
 28 78  1  0  0  0  0
 28 79  1  0  0  0  0
 28 80  1  0  0  0  0
 29 31  1  0  0  0  0
 29 81  1  0  0  0  0
 30 32  2  0  0  0  0
 30 82  1  0  0  0  0
 31 33  2  0  0  0  0
 31 83  1  0  0  0  0
 32 34  1  0  0  0  0
 32 84  1  0  0  0  0
 33 35  1  0  0  0  0
 33 85  1  0  0  0  0
 34 36  1  0  0  0  0
 34 37  2  0  0  0  0
 35 38  2  0  0  0  0
 35 39  1  0  0  0  0
 36 86  1  0  0  0  0
 36 87  1  0  0  0  0
 36 88  1  0  0  0  0
 37 40  1  0  0  0  0
 37 89  1  0  0  0  0
 38 41  1  0  0  0  0
 38 90  1  0  0  0  0
 39 91  1  0  0  0  0
 39 92  1  0  0  0  0
 39 93  1  0  0  0  0
 40 41  2  0  0  0  0
 40 94  1  0  0  0  0
 41 95  1  0  0  0  0
M  END
> <PUBCHEM_COMPOUND_CID>
5281236

> <PUBCHEM_COMPOUND_CANONICALIZED>
1

> <PUBCHEM_CACTVS_COMPLEXITY>
1300

> <PUBCHEM_CACTVS_HBOND_ACCEPTOR>
1

> <PUBCHEM_CACTVS_HBOND_DONOR>
0

> <PUBCHEM_CACTVS_ROTATABLE_BOND>
10

> <PUBCHEM_CACTVS_SUBSKEYS>
AAADcfB8IAAAAAAAAAAAAAAAAAAAAAAAAAAgQAAAAAAAAAAAAAAAGgAAAAAADgSAgAACAAAAAACIAqBSAAAAAAAgAAAICAEAAEgIABIAAQAAAAAAgAAIgQMIiMAPAAAAAAAAAAAAAAAAAAAAAAAAAAAAAA==

> <PUBCHEM_IUPAC_OPENEYE_NAME>
2,4,4-trimethyl-3-[(1E,3E,5E,7E,9E,11E,13E,15E,17E)-3,7,12,16-tetramethyl-18-(2,6,6-trimethylcyclohexen-1-yl)octadeca-1,3,5,7,9,11,13,15,17-nonaenyl]cyclohex-2-en-1-one

> <PUBCHEM_IUPAC_CAS_NAME>
2,4,4-trimethyl-3-[(1E,3E,5E,7E,9E,11E,13E,15E,17E)-3,7,12,16-tetramethyl-18-(2,6,6-trimethyl-1-cyclohexenyl)octadeca-1,3,5,7,9,11,13,15,17-nonaenyl]-1-cyclohex-2-enone

> <PUBCHEM_IUPAC_NAME>
2,4,4-trimethyl-3-[(1E,3E,5E,7E,9E,11E,13E,15E,17E)-3,7,12,16-tetramethyl-18-(2,6,6-trimethylcyclohexen-1-yl)octadeca-1,3,5,7,9,11,13,15,17-nonaenyl]cyclohex-2-en-1-one

> <PUBCHEM_IUPAC_SYSTEMATIC_NAME>
2,4,4-trimethyl-3-[(1E,3E,5E,7E,9E,11E,13E,15E,17E)-3,7,12,16-tetramethyl-18-(2,6,6-trimethylcyclohexen-1-yl)octadeca-1,3,5,7,9,11,13,15,17-nonaenyl]cyclohex-2-en-1-one

> <PUBCHEM_IUPAC_TRADITIONAL_NAME>
2,4,4-trimethyl-3-[(1E,3E,5E,7E,9E,11E,13E,15E,17E)-3,7,12,16-tetramethyl-18-(2,6,6-trimethylcyclohexen-1-yl)octadeca-1,3,5,7,9,11,13,15,17-nonaenyl]cyclohex-2-en-1-one

> <PUBCHEM_IUPAC_INCHI>
InChI=1S/C40H54O/c1-30(18-13-20-32(3)23-25-36-34(5)22-15-28-39(36,7)8)16-11-12-17-31(2)19-14-21-33(4)24-26-37-35(6)38(41)27-29-40(37,9)10/h11-14,16-21,23-26H,15,22,27-29H2,1-10H3/b12-11+,18-13+,19-14+,25-23+,26-24+,30-16+,31-17+,32-20+,33-21+

> <PUBCHEM_IUPAC_INCHIKEY>
QXNWZXMBUKUYMD-QQGJMDNJSA-N

> <PUBCHEM_XLOGP3_AA>
12.5

> <PUBCHEM_EXACT_MASS>
550.417466

> <PUBCHEM_MOLECULAR_FORMULA>
C40H54O

> <PUBCHEM_MOLECULAR_WEIGHT>
550.85616

> <PUBCHEM_OPENEYE_CAN_SMILES>
CC1=C(C(CCC1)(C)C)C=CC(=CC=CC(=CC=CC=C(C)C=CC=C(C)C=CC2=C(C(=O)CCC2(C)C)C)C)C

> <PUBCHEM_OPENEYE_ISO_SMILES>
CC1=C(C(CCC1)(C)C)/C=C/C(=C/C=C/C(=C/C=C/C=C(\C)/C=C/C=C(\C)/C=C/C2=C(C(=O)CCC2(C)C)C)/C)/C

> <PUBCHEM_CACTVS_TPSA>
17.1

> <PUBCHEM_MONOISOTOPIC_WEIGHT>
550.417466

> <PUBCHEM_TOTAL_CHARGE>
0

> <PUBCHEM_HEAVY_ATOM_COUNT>
41

> <PUBCHEM_ATOM_DEF_STEREO_COUNT>
0

> <PUBCHEM_ATOM_UDEF_STEREO_COUNT>
0

> <PUBCHEM_BOND_DEF_STEREO_COUNT>
9

> <PUBCHEM_BOND_UDEF_STEREO_COUNT>
0

> <PUBCHEM_ISOTOPIC_ATOM_COUNT>
0

> <PUBCHEM_COMPONENT_COUNT>
1

> <PUBCHEM_CACTVS_TAUTO_COUNT>
2

> <PUBCHEM_COORDINATE_TYPE>
1
5
255

$$$$

