12883
  -OEChem-06261207303D

 36 37  0     1  0  0  0  0  0999 V2000
   -0.7806    0.0720   -0.1109 O   0  0  0  0  0  0  0  0  0  0  0  0
    1.4922    3.0445   -0.1964 O   0  0  0  0  0  0  0  0  0  0  0  0
   -1.9634   -1.2485    1.3584 O   0  0  0  0  0  0  0  0  0  0  0  0
    2.4401   -1.1827   -0.8503 N   0  0  2  0  0  0  0  0  0  0  0  0
    1.6150    0.0140   -0.4992 C   0  0  1  0  0  0  0  0  0  0  0  0
    0.4350   -0.5145    0.3189 C   0  0  2  0  0  0  0  0  0  0  0  0
    0.4431   -2.0079    0.0421 C   0  0  0  0  0  0  0  0  0  0  0  0
    1.9249   -2.3056   -0.0521 C   0  0  0  0  0  0  0  0  0  0  0  0
    2.5350    0.9435    0.2328 C   0  0  0  0  0  0  0  0  0  0  0  0
    3.8368   -0.8422   -0.5031 C   0  0  0  0  0  0  0  0  0  0  0  0
    3.7794    0.4580    0.2264 C   0  0  0  0  0  0  0  0  0  0  0  0
    2.0747    2.2313    0.8119 C   0  0  0  0  0  0  0  0  0  0  0  0
   -1.9194   -0.3865    0.4924 C   0  0  0  0  0  0  0  0  0  0  0  0
   -3.1128    0.3182   -0.0670 C   0  0  0  0  0  0  0  0  0  0  0  0
   -2.9516    1.7372   -0.5253 C   0  0  0  0  0  0  0  0  0  0  0  0
   -4.2582   -0.3884   -0.0820 C   0  0  0  0  0  0  0  0  0  0  0  0
   -5.5902    0.0576   -0.5965 C   0  0  0  0  0  0  0  0  0  0  0  0
    1.2762    0.4909   -1.4274 H   0  0  0  0  0  0  0  0  0  0  0  0
    0.5775   -0.3250    1.3916 H   0  0  0  0  0  0  0  0  0  0  0  0
   -0.0739   -2.2459   -0.8963 H   0  0  0  0  0  0  0  0  0  0  0  0
   -0.0192   -2.5982    0.8384 H   0  0  0  0  0  0  0  0  0  0  0  0
    2.3548   -2.3321    0.9578 H   0  0  0  0  0  0  0  0  0  0  0  0
    2.1206   -3.2644   -0.5410 H   0  0  0  0  0  0  0  0  0  0  0  0
    4.4166   -0.7190   -1.4244 H   0  0  0  0  0  0  0  0  0  0  0  0
    4.3282   -1.6131    0.1007 H   0  0  0  0  0  0  0  0  0  0  0  0
    4.6396    0.9448    0.6622 H   0  0  0  0  0  0  0  0  0  0  0  0
    2.9076    2.7850    1.2580 H   0  0  0  0  0  0  0  0  0  0  0  0
    1.3277    2.0539    1.5919 H   0  0  0  0  0  0  0  0  0  0  0  0
    1.1958    3.8648    0.2335 H   0  0  0  0  0  0  0  0  0  0  0  0
   -3.9000    2.2784   -0.5714 H   0  0  0  0  0  0  0  0  0  0  0  0
   -2.3118    2.2925    0.1697 H   0  0  0  0  0  0  0  0  0  0  0  0
   -2.4895    1.7664   -1.5172 H   0  0  0  0  0  0  0  0  0  0  0  0
   -4.2575   -1.4104    0.2941 H   0  0  0  0  0  0  0  0  0  0  0  0
   -5.9739   -0.6835   -1.3052 H   0  0  0  0  0  0  0  0  0  0  0  0
   -5.5580    1.0176   -1.1159 H   0  0  0  0  0  0  0  0  0  0  0  0
   -6.3010    0.1357    0.2318 H   0  0  0  0  0  0  0  0  0  0  0  0
  1  6  1  0  0  0  0
  1 13  1  0  0  0  0
  2 12  1  0  0  0  0
  2 29  1  0  0  0  0
  3 13  2  0  0  0  0
  4  5  1  0  0  0  0
  4  8  1  0  0  0  0
  4 10  1  0  0  0  0
  5  6  1  0  0  0  0
  5  9  1  0  0  0  0
  5 18  1  0  0  0  0
  6  7  1  0  0  0  0
  6 19  1  0  0  0  0
  7  8  1  0  0  0  0
  7 20  1  0  0  0  0
  7 21  1  0  0  0  0
  8 22  1  0  0  0  0
  8 23  1  0  0  0  0
  9 11  2  0  0  0  0
  9 12  1  0  0  0  0
 10 11  1  0  0  0  0
 10 24  1  0  0  0  0
 10 25  1  0  0  0  0
 11 26  1  0  0  0  0
 12 27  1  0  0  0  0
 12 28  1  0  0  0  0
 13 14  1  0  0  0  0
 14 15  1  0  0  0  0
 14 16  2  0  0  0  0
 15 30  1  0  0  0  0
 15 31  1  0  0  0  0
 15 32  1  0  0  0  0
 16 17  1  0  0  0  0
 16 33  1  0  0  0  0
 17 34  1  0  0  0  0
 17 35  1  0  0  0  0
 17 36  1  0  0  0  0
M  END
> <PUBCHEM_COMPOUND_CID>
12883

> <PUBCHEM_CONFORMER_RMSD>
0.6

> <PUBCHEM_CONFORMER_DIVERSEORDER>
1
70
56
62
57
45
40
68
13
50
71
15
37
58
31
67
29
61
27
12
54
36
51
19
55
18
24
65
44
66
25
26
52
59
3
32
47
41
28
17
60
63
9
16
34
69
64
22
53
48
38
43
33
8
6
2
10
46
14
39
11
5
72
35
23
42
20
21
49
7
30
4

> <PUBCHEM_MMFF94_PARTIAL_CHARGES>
19
1 -0.43
10 0.41
11 -0.29
12 0.42
13 0.71
14 -0.12
15 0.14
16 -0.29
17 0.14
2 -0.68
26 0.15
29 0.4
3 -0.57
33 0.15
4 -0.81
5 0.41
6 0.28
8 0.27
9 -0.28

> <PUBCHEM_EFFECTIVE_ROTOR_COUNT>
4.8

> <PUBCHEM_PHARMACOPHORE_FEATURES>
8
1 15 hydrophobe
1 17 hydrophobe
1 2 acceptor
1 2 donor
1 3 acceptor
1 4 cation
5 4 5 6 7 8 rings
5 4 5 9 10 11 rings

> <PUBCHEM_HEAVY_ATOM_COUNT>
17

> <PUBCHEM_ATOM_DEF_STEREO_COUNT>
1

> <PUBCHEM_ATOM_UDEF_STEREO_COUNT>
0

> <PUBCHEM_BOND_DEF_STEREO_COUNT>
0

> <PUBCHEM_BOND_UDEF_STEREO_COUNT>
1

> <PUBCHEM_ISOTOPIC_ATOM_COUNT>
0

> <PUBCHEM_COMPONENT_COUNT>
1

> <PUBCHEM_CACTVS_TAUTO_COUNT>
1

> <PUBCHEM_CONFORMER_ID>
0000325300000001

> <PUBCHEM_MMFF94_ENERGY>
30.4969

> <PUBCHEM_FEATURE_SELFOVERLAP>
40.959

> <PUBCHEM_SHAPE_FINGERPRINT>
10366900 7 18272644658336657227
10608611 8 18413107264500681889
11471102 20 18408321086084704910
11615756 56 18413109446254598945
11615757 297 18040431105512105139
116883 192 17396978436778472910
12236239 1 16950280723766251963
12403259 226 18413392029364280029
12403260 363 18411990147717583113
12654215 9 18410853291755200780
12670546 56 12751245804885003863
12730499 353 18341607118969608587
13922767 16 18410575067852455488
14251717 144 18407760334954098679
16945 1 18187631497625226442
17802600 8 18412830196181671925
18186145 218 18187635916587398403
200 152 17967253109310109107
20233049 118 18272366490875161212
20279233 1 18272363183228383219
20606313 2 18408885139939582384
20645477 70 18187644755667322551
20681677 76 18269549442899845763
21524375 3 18412826867318422770
21639500 275 18334301941632815829
22096605 113 18334296422831832259
221357 26 18337392750813419117
221490 88 18337666412933667463
22289505 5 18339368577287352061
22892500 29 18411139129933433302
23402539 116 17988650675112894007
23402655 69 18336550516442929263
23558518 356 17765444145227845050
23559900 14 18412827967003792691
2748010 2 18122330286296283746
3060560 45 18259984885871082230
3286 77 18271250533300897687
351380 180 18412549794962401569
3524813 1 18342463646537299429
4028521 119 18202290234075765637
474 4 18336830775416686177
5104073 3 18340485690001993107
5281201 14 18335136539973225949
6333272 397 18338519629634967555
69090 78 18408606950766256343
7364860 26 18336829787616555378
7832392 63 18046622579947692041
9709674 26 18411414012520959839

> <PUBCHEM_SHAPE_MULTIPOLES>
327.26
8.6
2.39
0.86
9.8
1
-0.09
0.47
1.43
-1.83
-0.1
0.08
-0.05
0.77

> <PUBCHEM_SHAPE_SELFOVERLAP>
675.9

> <PUBCHEM_SHAPE_VOLUME>
190

> <PUBCHEM_COORDINATE_TYPE>
2
5
10

$$$$

