5352437
  -OEChem-07051213153D

 39 39  0     0  0  0  0  0  0999 V2000
    0.9741    1.1976   -0.1326 C   0  0  0  0  0  0  0  0  0  0  0  0
    1.6240    0.9302    1.1973 C   0  0  0  0  0  0  0  0  0  0  0  0
    2.1496   -0.5086    1.2636 C   0  0  0  0  0  0  0  0  0  0  0  0
    1.8462    0.9273   -1.3325 C   0  0  0  0  0  0  0  0  0  0  0  0
   -0.2966    1.6103   -0.2446 C   0  0  0  0  0  0  0  0  0  0  0  0
    2.8454   -0.9600    0.0004 C   0  0  0  0  0  0  0  0  0  0  0  0
   -1.1646    1.8355    0.9725 C   0  0  0  0  0  0  0  0  0  0  0  0
    2.7095   -0.2925   -1.1601 C   0  0  0  0  0  0  0  0  0  0  0  0
   -1.8875    0.5756    1.4673 C   0  0  0  0  0  0  0  0  0  0  0  0
   -0.9321    1.8297   -1.5872 C   0  0  0  0  0  0  0  0  0  0  0  0
    3.6877   -2.1959    0.1130 C   0  0  0  0  0  0  0  0  0  0  0  0
   -2.8735    0.0469    0.4618 C   0  0  0  0  0  0  0  0  0  0  0  0
   -2.9020   -1.1671   -0.1201 C   0  0  0  0  0  0  0  0  0  0  0  0
   -3.9212   -1.6309   -1.1213 C   0  0  0  0  0  0  0  0  0  0  0  0
   -1.8590   -2.1980    0.2227 C   0  0  0  0  0  0  0  0  0  0  0  0
    2.4664    1.6267    1.3076 H   0  0  0  0  0  0  0  0  0  0  0  0
    0.9929    1.0914    2.0725 H   0  0  0  0  0  0  0  0  0  0  0  0
    1.3217   -1.1977    1.4709 H   0  0  0  0  0  0  0  0  0  0  0  0
    2.8438   -0.5793    2.1100 H   0  0  0  0  0  0  0  0  0  0  0  0
    2.4977    1.7920   -1.5064 H   0  0  0  0  0  0  0  0  0  0  0  0
    1.2628    0.7683   -2.2446 H   0  0  0  0  0  0  0  0  0  0  0  0
   -1.9119    2.6058    0.7349 H   0  0  0  0  0  0  0  0  0  0  0  0
   -0.5999    2.2875    1.7952 H   0  0  0  0  0  0  0  0  0  0  0  0
    3.2398   -0.6367   -2.0445 H   0  0  0  0  0  0  0  0  0  0  0  0
   -2.4551    0.8424    2.3681 H   0  0  0  0  0  0  0  0  0  0  0  0
   -1.1615   -0.1729    1.7930 H   0  0  0  0  0  0  0  0  0  0  0  0
   -1.8309    2.4501   -1.5023 H   0  0  0  0  0  0  0  0  0  0  0  0
   -0.2675    2.3639   -2.2740 H   0  0  0  0  0  0  0  0  0  0  0  0
   -1.2288    0.8772   -2.0375 H   0  0  0  0  0  0  0  0  0  0  0  0
    4.4959   -2.0406    0.8349 H   0  0  0  0  0  0  0  0  0  0  0  0
    4.1431   -2.4740   -0.8432 H   0  0  0  0  0  0  0  0  0  0  0  0
    3.0775   -3.0403    0.4497 H   0  0  0  0  0  0  0  0  0  0  0  0
   -3.6598    0.7492    0.1866 H   0  0  0  0  0  0  0  0  0  0  0  0
   -4.4408   -2.5211   -0.7526 H   0  0  0  0  0  0  0  0  0  0  0  0
   -4.6742   -0.8598   -1.3143 H   0  0  0  0  0  0  0  0  0  0  0  0
   -3.4398   -1.8734   -2.0741 H   0  0  0  0  0  0  0  0  0  0  0  0
   -0.8982   -1.7702    0.5153 H   0  0  0  0  0  0  0  0  0  0  0  0
   -1.6458   -2.8249   -0.6509 H   0  0  0  0  0  0  0  0  0  0  0  0
   -2.2206   -2.8505    1.0236 H   0  0  0  0  0  0  0  0  0  0  0  0
  1  2  1  0  0  0  0
  1  4  1  0  0  0  0
  1  5  2  0  0  0  0
  2  3  1  0  0  0  0
  2 16  1  0  0  0  0
  2 17  1  0  0  0  0
  3  6  1  0  0  0  0
  3 18  1  0  0  0  0
  3 19  1  0  0  0  0
  4  8  1  0  0  0  0
  4 20  1  0  0  0  0
  4 21  1  0  0  0  0
  5  7  1  0  0  0  0
  5 10  1  0  0  0  0
  6  8  2  0  0  0  0
  6 11  1  0  0  0  0
  7  9  1  0  0  0  0
  7 22  1  0  0  0  0
  7 23  1  0  0  0  0
  8 24  1  0  0  0  0
  9 12  1  0  0  0  0
  9 25  1  0  0  0  0
  9 26  1  0  0  0  0
 10 27  1  0  0  0  0
 10 28  1  0  0  0  0
 10 29  1  0  0  0  0
 11 30  1  0  0  0  0
 11 31  1  0  0  0  0
 11 32  1  0  0  0  0
 12 13  2  0  0  0  0
 12 33  1  0  0  0  0
 13 14  1  0  0  0  0
 13 15  1  0  0  0  0
 14 34  1  0  0  0  0
 14 35  1  0  0  0  0
 14 36  1  0  0  0  0
 15 37  1  0  0  0  0
 15 38  1  0  0  0  0
 15 39  1  0  0  0  0
M  END
> <PUBCHEM_COMPOUND_CID>
5352437

> <PUBCHEM_CONFORMER_RMSD>
0.6

> <PUBCHEM_CONFORMER_DIVERSEORDER>
6
11
40
16
44
28
46
27
35
17
24
13
19
18
23
51
43
22
31
39
47
9
34
38
25
4
20
2
48
21
33
12
36
26
29
5
37
32
10
1
14
8
41
50
15
7
30
49
3
42
45

> <PUBCHEM_MMFF94_PARTIAL_CHARGES>
17
1 -0.28
10 0.14
11 0.14
12 -0.29
13 -0.28
14 0.14
15 0.14
2 0.14
24 0.15
3 0.14
33 0.15
4 0.28
5 -0.28
6 -0.28
7 0.14
8 -0.29
9 0.14

> <PUBCHEM_EFFECTIVE_ROTOR_COUNT>
3.6

> <PUBCHEM_PHARMACOPHORE_FEATURES>
4
1 10 hydrophobe
3 13 14 15 hydrophobe
4 5 7 9 12 hydrophobe
6 1 2 3 4 6 8 rings

> <PUBCHEM_HEAVY_ATOM_COUNT>
15

> <PUBCHEM_ATOM_DEF_STEREO_COUNT>
0

> <PUBCHEM_ATOM_UDEF_STEREO_COUNT>
0

> <PUBCHEM_BOND_DEF_STEREO_COUNT>
1

> <PUBCHEM_BOND_UDEF_STEREO_COUNT>
0

> <PUBCHEM_ISOTOPIC_ATOM_COUNT>
0

> <PUBCHEM_COMPONENT_COUNT>
1

> <PUBCHEM_CACTVS_TAUTO_COUNT>
1

> <PUBCHEM_CONFORMER_ID>
0051ABF500000006

> <PUBCHEM_MMFF94_ENERGY>
15.9064

> <PUBCHEM_FEATURE_SELFOVERLAP>
20.32

> <PUBCHEM_SHAPE_FINGERPRINT>
11221954 11 10087051073721427606
11471102 22 15864072126061554168
11578080 2 18339655493808947505
11769659 78 18408320012253249144
12202030 40 18334869354242016984
12400797 245 17168147784563228549
12553582 1 18340193142061587306
12633257 1 17313653953706413507
12841375 7 18408887334404315238
128993 33 10447389630014676615
13764800 53 7925617951674466197
16752209 62 18200042870662675013
17834072 14 17313110713959000989
18186145 218 15698002933532132437
18981168 100 9726814733391078291
20291156 8 18337945697661504707
20361792 2 18130781252852633737
20621476 91 18194709114446044746
20653085 51 11023834997692368425
21256008 148 18199473344787256637
21634736 98 18271229552786479326
21713013 43 16343122659282946211
21731516 1 18272645766264139904
232386 152 18334566979975367574
23402539 116 16772097267585043754
23419403 2 17681879212590732689
251288 83 16299234497234741423
2637199 183 12606304960733118455
2748010 2 16622029056941505828
3797600 57 5037688117996676675
568465 68 16733265754664164922
6338986 31 18336550425932104641
85463 6 18040727977635680079

> <PUBCHEM_SHAPE_MULTIPOLES>
308.69
6.09
2.47
1.51
0.63
0.55
-0.1
4.75
-0.74
0.42
-0.25
0.03
-0.49
-0.64

> <PUBCHEM_SHAPE_SELFOVERLAP>
606.114

> <PUBCHEM_SHAPE_VOLUME>
184.5

> <PUBCHEM_COORDINATE_TYPE>
2
5
10

$$$$

