5280637
  -OEChem-07051212492D

 52 55  0     1  0  0  0  0  0999 V2000
   11.2690   -0.8346    0.0000 O   0  0  0  0  0  0  0  0  0  0  0  0
   10.3972    0.6621    0.0000 O   0  0  0  0  0  0  0  0  0  0  0  0
   13.8613    0.6754    0.0000 O   0  0  0  0  0  0  0  0  0  0  0  0
   13.8690   -1.3246    0.0000 O   0  0  0  0  0  0  0  0  0  0  0  0
   12.1254    1.6687    0.0000 O   0  0  0  0  0  0  0  0  0  0  0  0
   13.0087   -2.8279    0.0000 O   0  0  0  0  0  0  0  0  0  0  0  0
    6.8671    0.6379    0.0000 O   0  0  0  0  0  0  0  0  0  0  0  0
    8.6155   -2.3967    0.0000 O   0  0  0  0  0  0  0  0  0  0  0  0
    6.8671   -2.3621    0.0000 O   0  0  0  0  0  0  0  0  0  0  0  0
    4.2690    3.1379    0.0000 O   0  0  0  0  0  0  0  0  0  0  0  0
    2.5369    2.1379    0.0000 O   0  0  0  0  0  0  0  0  0  0  0  0
   12.9972    0.1721    0.0000 C   0  0  1  0  0  0  0  0  0  0  0  0
   13.0010   -0.8279    0.0000 C   0  0  1  0  0  0  0  0  0  0  0  0
   12.1292    0.6687    0.0000 C   0  0  2  0  0  0  0  0  0  0  0  0
   12.1369   -1.3313    0.0000 C   0  0  1  0  0  0  0  0  0  0  0  0
   11.2651    0.1654    0.0000 C   0  0  1  0  0  0  0  0  0  0  0  0
   12.1408   -2.3312    0.0000 C   0  0  0  0  0  0  0  0  0  0  0  0
    9.5331    0.1587    0.0000 C   0  0  0  0  0  0  0  0  0  0  0  0
    8.6270    0.6726    0.0000 C   0  0  0  0  0  0  0  0  0  0  0  0
    9.5331   -0.8829    0.0000 C   0  0  0  0  0  0  0  0  0  0  0  0
    7.7331    0.1379    0.0000 C   0  0  0  0  0  0  0  0  0  0  0  0
    7.7331   -0.8621    0.0000 C   0  0  0  0  0  0  0  0  0  0  0  0
    8.6270   -1.3968    0.0000 C   0  0  0  0  0  0  0  0  0  0  0  0
    6.8671   -1.3621    0.0000 C   0  0  0  0  0  0  0  0  0  0  0  0
    6.0010    0.1379    0.0000 C   0  0  0  0  0  0  0  0  0  0  0  0
    6.0010   -0.8621    0.0000 C   0  0  0  0  0  0  0  0  0  0  0  0
    5.1350    0.6379    0.0000 C   0  0  0  0  0  0  0  0  0  0  0  0
    5.1350    1.6379    0.0000 C   0  0  0  0  0  0  0  0  0  0  0  0
    4.2690    0.1379    0.0000 C   0  0  0  0  0  0  0  0  0  0  0  0
    4.2690    2.1379    0.0000 C   0  0  0  0  0  0  0  0  0  0  0  0
    3.4030    0.6379    0.0000 C   0  0  0  0  0  0  0  0  0  0  0  0
    3.4030    1.6379    0.0000 C   0  0  0  0  0  0  0  0  0  0  0  0
   13.5353   -0.1359    0.0000 H   0  0  0  0  0  0  0  0  0  0  0  0
   13.0034   -1.4479    0.0000 H   0  0  0  0  0  0  0  0  0  0  0  0
   12.6650    0.9808    0.0000 H   0  0  0  0  0  0  0  0  0  0  0  0
   11.6012   -1.6433    0.0000 H   0  0  0  0  0  0  0  0  0  0  0  0
   10.7294   -0.1467    0.0000 H   0  0  0  0  0  0  0  0  0  0  0  0
   11.5298   -2.2259    0.0000 H   0  0  0  0  0  0  0  0  0  0  0  0
   11.9310   -2.9147    0.0000 H   0  0  0  0  0  0  0  0  0  0  0  0
   14.3994    0.3675    0.0000 H   0  0  0  0  0  0  0  0  0  0  0  0
   14.4047   -1.0125    0.0000 H   0  0  0  0  0  0  0  0  0  0  0  0
   12.6611    1.9808    0.0000 H   0  0  0  0  0  0  0  0  0  0  0  0
   13.0111   -3.4479    0.0000 H   0  0  0  0  0  0  0  0  0  0  0  0
    8.6199    1.2925    0.0000 H   0  0  0  0  0  0  0  0  0  0  0  0
   10.0688   -1.1950    0.0000 H   0  0  0  0  0  0  0  0  0  0  0  0
    5.4641   -1.1721    0.0000 H   0  0  0  0  0  0  0  0  0  0  0  0
    9.1488   -2.7129    0.0000 H   0  0  0  0  0  0  0  0  0  0  0  0
    5.6720    1.9479    0.0000 H   0  0  0  0  0  0  0  0  0  0  0  0
    4.2690   -0.4821    0.0000 H   0  0  0  0  0  0  0  0  0  0  0  0
    2.8660    0.3279    0.0000 H   0  0  0  0  0  0  0  0  0  0  0  0
    3.7320    3.4479    0.0000 H   0  0  0  0  0  0  0  0  0  0  0  0
    2.0000    1.8279    0.0000 H   0  0  0  0  0  0  0  0  0  0  0  0
  1 15  1  0  0  0  0
  1 16  1  0  0  0  0
 16  2  1  1  0  0  0
  2 18  1  0  0  0  0
 12  3  1  1  0  0  0
  3 40  1  0  0  0  0
 13  4  1  6  0  0  0
  4 41  1  0  0  0  0
 14  5  1  6  0  0  0
  5 42  1  0  0  0  0
  6 17  1  0  0  0  0
  6 43  1  0  0  0  0
  7 21  1  0  0  0  0
  7 25  1  0  0  0  0
  8 23  1  0  0  0  0
  8 47  1  0  0  0  0
  9 24  2  0  0  0  0
 10 30  1  0  0  0  0
 10 51  1  0  0  0  0
 11 32  1  0  0  0  0
 11 52  1  0  0  0  0
 12 13  1  0  0  0  0
 12 14  1  0  0  0  0
 12 33  1  0  0  0  0
 13 15  1  0  0  0  0
 13 34  1  0  0  0  0
 14 16  1  0  0  0  0
 14 35  1  0  0  0  0
 15 17  1  1  0  0  0
 15 36  1  0  0  0  0
 16 37  1  0  0  0  0
 17 38  1  0  0  0  0
 17 39  1  0  0  0  0
 18 19  1  0  0  0  0
 18 20  2  0  0  0  0
 19 21  2  0  0  0  0
 19 44  1  0  0  0  0
 20 23  1  0  0  0  0
 20 45  1  0  0  0  0
 21 22  1  0  0  0  0
 22 23  2  0  0  0  0
 22 24  1  0  0  0  0
 24 26  1  0  0  0  0
 25 26  2  0  0  0  0
 25 27  1  0  0  0  0
 26 46  1  0  0  0  0
 27 28  2  0  0  0  0
 27 29  1  0  0  0  0
 28 30  1  0  0  0  0
 28 48  1  0  0  0  0
 29 31  2  0  0  0  0
 29 49  1  0  0  0  0
 30 32  2  0  0  0  0
 31 32  1  0  0  0  0
 31 50  1  0  0  0  0
M  END
> <PUBCHEM_COMPOUND_CID>
5280637

> <PUBCHEM_COMPOUND_CANONICALIZED>
1

> <PUBCHEM_CACTVS_COMPLEXITY>
714

> <PUBCHEM_CACTVS_HBOND_ACCEPTOR>
11

> <PUBCHEM_CACTVS_HBOND_DONOR>
7

> <PUBCHEM_CACTVS_ROTATABLE_BOND>
4

> <PUBCHEM_CACTVS_SUBSKEYS>
AAADceB4PAAAAAAAAAAAAAAAAAAAAAAAAAA0YIEAAAAAAACBQAAAGgAACAAADBSwmAMwDoAABgCIAqBSAAACCAAkIAAIiAEGiMgdNzaGNRqieWGl4BUPuQfI7LzOIAABCAAIQABAAAIQABCAAAAAAAAAAA==

> <PUBCHEM_IUPAC_OPENEYE_NAME>
2-(3,4-dihydroxyphenyl)-5-hydroxy-7-[(2S,3R,4S,5S,6R)-3,4,5-trihydroxy-6-(hydroxymethyl)tetrahydropyran-2-yl]oxy-chromen-4-one

> <PUBCHEM_IUPAC_CAS_NAME>
2-(3,4-dihydroxyphenyl)-5-hydroxy-7-[[(2S,3R,4S,5S,6R)-3,4,5-trihydroxy-6-(hydroxymethyl)-2-oxanyl]oxy]-1-benzopyran-4-one

> <PUBCHEM_IUPAC_NAME>
2-(3,4-dihydroxyphenyl)-5-hydroxy-7-[(2S,3R,4S,5S,6R)-3,4,5-trihydroxy-6-(hydroxymethyl)oxan-2-yl]oxychromen-4-one

> <PUBCHEM_IUPAC_SYSTEMATIC_NAME>
2-[3,4-bis(oxidanyl)phenyl]-7-[(2S,3R,4S,5S,6R)-6-(hydroxymethyl)-3,4,5-tris(oxidanyl)oxan-2-yl]oxy-5-oxidanyl-chromen-4-one

> <PUBCHEM_IUPAC_TRADITIONAL_NAME>
2-(3,4-dihydroxyphenyl)-5-hydroxy-7-[(2S,3R,4S,5S,6R)-3,4,5-trihydroxy-6-methylol-tetrahydropyran-2-yl]oxy-chromone

> <PUBCHEM_IUPAC_INCHI>
InChI=1S/C21H20O11/c22-7-16-18(27)19(28)20(29)21(32-16)30-9-4-12(25)17-13(26)6-14(31-15(17)5-9)8-1-2-10(23)11(24)3-8/h1-6,16,18-25,27-29H,7H2/t16-,18-,19+,20-,21-/m1/s1

> <PUBCHEM_IUPAC_INCHIKEY>
PEFNSGRTCBGNAN-QNDFHXLGSA-N

> <PUBCHEM_XLOGP3_AA>
0.5

> <PUBCHEM_EXACT_MASS>
448.100561

> <PUBCHEM_MOLECULAR_FORMULA>
C21H20O11

> <PUBCHEM_MOLECULAR_WEIGHT>
448.3769

> <PUBCHEM_OPENEYE_CAN_SMILES>
C1=CC(=C(C=C1C2=CC(=O)C3=C(C=C(C=C3O2)OC4C(C(C(C(O4)CO)O)O)O)O)O)O

> <PUBCHEM_OPENEYE_ISO_SMILES>
C1=CC(=C(C=C1C2=CC(=O)C3=C(C=C(C=C3O2)O[C@H]4[C@@H]([C@H]([C@@H]([C@H](O4)CO)O)O)O)O)O)O

> <PUBCHEM_CACTVS_TPSA>
186

> <PUBCHEM_MONOISOTOPIC_WEIGHT>
448.100561

> <PUBCHEM_TOTAL_CHARGE>
0

> <PUBCHEM_HEAVY_ATOM_COUNT>
32

> <PUBCHEM_ATOM_DEF_STEREO_COUNT>
5

> <PUBCHEM_ATOM_UDEF_STEREO_COUNT>
0

> <PUBCHEM_BOND_DEF_STEREO_COUNT>
0

> <PUBCHEM_BOND_UDEF_STEREO_COUNT>
0

> <PUBCHEM_ISOTOPIC_ATOM_COUNT>
0

> <PUBCHEM_COMPONENT_COUNT>
1

> <PUBCHEM_CACTVS_TAUTO_COUNT>
68

> <PUBCHEM_COORDINATE_TYPE>
1
5
255

> <PUBCHEM_BONDANNOTATIONS>
15  17  5
18  19  8
18  20  8
19  21  8
16  2  5
20  23  8
21  22  8
22  23  8
22  24  8
24  26  8
25  26  8
27  28  8
27  29  8
28  30  8
29  31  8
12  3  5
30  32  8
31  32  8
13  4  6
14  5  6
7  21  8
7  25  8

$$$$

