54691340
  -OEChem-07051213033D

 65 66  0     1  0  0  0  0  0999 V2000
    4.8551    0.6633   -1.7314 O   0  0  0  0  0  0  0  0  0  0  0  0
    3.1187    3.0276   -0.0271 O   0  0  0  0  0  0  0  0  0  0  0  0
    1.6875   -1.4187    0.5907 O   0  0  0  0  0  0  0  0  0  0  0  0
    0.3969    2.5987   -0.5027 O   0  0  0  0  0  0  0  0  0  0  0  0
    9.7803   -2.3607    0.7083 O   0  0  0  0  0  0  0  0  0  0  0  0
    3.7585   -0.3072    0.7436 N   0  0  0  0  0  0  0  0  0  0  0  0
   -8.4440   -0.2745    1.2182 C   0  0  1  0  0  0  0  0  0  0  0  0
   -8.7974   -0.1652   -0.2825 C   0  0  0  0  0  0  0  0  0  0  0  0
   -7.7768   -0.7991   -1.2539 C   0  0  1  0  0  0  0  0  0  0  0  0
   -9.1147    0.7910    2.1077 C   0  0  0  0  0  0  0  0  0  0  0  0
   -8.7591   -1.6904    1.7160 C   0  0  0  0  0  0  0  0  0  0  0  0
    4.3517    1.0211    0.5994 C   0  0  1  0  0  0  0  0  0  0  0  0
   -8.2892   -0.6833   -2.6932 C   0  0  0  0  0  0  0  0  0  0  0  0
   -6.4264   -0.1240   -1.1557 C   0  0  0  0  0  0  0  0  0  0  0  0
    5.4172    1.0524   -0.4759 C   0  0  1  0  0  0  0  0  0  0  0  0
  -10.6371    0.7801    2.1018 C   0  0  0  0  0  0  0  0  0  0  0  0
    3.1337    1.8325    0.2151 C   0  0  0  0  0  0  0  0  0  0  0  0
    1.9578    0.9378    0.1769 C   0  0  0  0  0  0  0  0  0  0  0  0
    6.5838    0.1406   -0.1596 C   0  0  0  0  0  0  0  0  0  0  0  0
   -5.2336   -0.6698   -0.8357 C   0  0  0  0  0  0  0  0  0  0  0  0
    2.3898   -0.4273    0.5203 C   0  0  0  0  0  0  0  0  0  0  0  0
    0.7037    1.3068   -0.1217 C   0  0  0  0  0  0  0  0  0  0  0  0
    6.5473   -1.1984   -0.5489 C   0  0  0  0  0  0  0  0  0  0  0  0
    7.6945    0.6389    0.5213 C   0  0  0  0  0  0  0  0  0  0  0  0
   -5.0273   -2.1316   -0.5364 C   0  0  0  0  0  0  0  0  0  0  0  0
   -4.0583    0.2042   -0.7818 C   0  0  0  0  0  0  0  0  0  0  0  0
    7.6217   -2.0388   -0.2576 C   0  0  0  0  0  0  0  0  0  0  0  0
    8.7688   -0.2015    0.8127 C   0  0  0  0  0  0  0  0  0  0  0  0
   -0.4387    0.4173   -0.1549 C   0  0  0  0  0  0  0  0  0  0  0  0
   -2.8000   -0.1600   -0.4835 C   0  0  0  0  0  0  0  0  0  0  0  0
    8.7324   -1.5404    0.4233 C   0  0  0  0  0  0  0  0  0  0  0  0
   -1.6970    0.7786   -0.4528 C   0  0  0  0  0  0  0  0  0  0  0  0
   -7.3652   -0.1213    1.3432 H   0  0  0  0  0  0  0  0  0  0  0  0
   -8.8954    0.8996   -0.5370 H   0  0  0  0  0  0  0  0  0  0  0  0
   -9.7873   -0.6067   -0.4587 H   0  0  0  0  0  0  0  0  0  0  0  0
   -7.7126   -1.8650   -1.0255 H   0  0  0  0  0  0  0  0  0  0  0  0
   -8.7744    1.7825    1.7838 H   0  0  0  0  0  0  0  0  0  0  0  0
   -8.7670    0.6690    3.1411 H   0  0  0  0  0  0  0  0  0  0  0  0
   -9.8086   -1.9561    1.5537 H   0  0  0  0  0  0  0  0  0  0  0  0
   -8.5481   -1.7806    2.7870 H   0  0  0  0  0  0  0  0  0  0  0  0
   -8.1432   -2.4338    1.2000 H   0  0  0  0  0  0  0  0  0  0  0  0
    4.7163    1.3314    1.5836 H   0  0  0  0  0  0  0  0  0  0  0  0
   -9.2547   -1.1892   -2.8020 H   0  0  0  0  0  0  0  0  0  0  0  0
   -7.5896   -1.1487   -3.3967 H   0  0  0  0  0  0  0  0  0  0  0  0
   -8.4229    0.3626   -2.9923 H   0  0  0  0  0  0  0  0  0  0  0  0
   -6.4616    0.9470   -1.3624 H   0  0  0  0  0  0  0  0  0  0  0  0
    5.7789    2.0795   -0.6095 H   0  0  0  0  0  0  0  0  0  0  0  0
  -11.0329   -0.1624    2.4908 H   0  0  0  0  0  0  0  0  0  0  0  0
  -11.0183    1.5865    2.7367 H   0  0  0  0  0  0  0  0  0  0  0  0
  -11.0338    0.9339    1.0940 H   0  0  0  0  0  0  0  0  0  0  0  0
    4.3063   -1.1045    1.0514 H   0  0  0  0  0  0  0  0  0  0  0  0
    5.6929   -1.6140   -1.0759 H   0  0  0  0  0  0  0  0  0  0  0  0
    7.7332    1.6797    0.8316 H   0  0  0  0  0  0  0  0  0  0  0  0
   -4.6539   -2.2640    0.4852 H   0  0  0  0  0  0  0  0  0  0  0  0
   -4.3042   -2.5682   -1.2344 H   0  0  0  0  0  0  0  0  0  0  0  0
   -5.9345   -2.7323   -0.6178 H   0  0  0  0  0  0  0  0  0  0  0  0
    5.5620    0.6982   -2.3988 H   0  0  0  0  0  0  0  0  0  0  0  0
   -4.2445    1.2541   -1.0091 H   0  0  0  0  0  0  0  0  0  0  0  0
    7.5807   -3.0803   -0.5652 H   0  0  0  0  0  0  0  0  0  0  0  0
    9.6311    0.1923    1.3439 H   0  0  0  0  0  0  0  0  0  0  0  0
   -0.2894   -0.6300    0.0728 H   0  0  0  0  0  0  0  0  0  0  0  0
   -2.5617   -1.1935   -0.2482 H   0  0  0  0  0  0  0  0  0  0  0  0
   -1.9358    1.8119   -0.6919 H   0  0  0  0  0  0  0  0  0  0  0  0
    1.2027    3.1402   -0.4844 H   0  0  0  0  0  0  0  0  0  0  0  0
    9.5861   -3.2504    0.3666 H   0  0  0  0  0  0  0  0  0  0  0  0
  1 15  1  0  0  0  0
  1 57  1  0  0  0  0
  2 17  2  0  0  0  0
  3 21  2  0  0  0  0
  4 22  1  0  0  0  0
  4 64  1  0  0  0  0
  5 31  1  0  0  0  0
  5 65  1  0  0  0  0
  6 12  1  0  0  0  0
  6 21  1  0  0  0  0
  6 51  1  0  0  0  0
  7  8  1  0  0  0  0
  7 10  1  0  0  0  0
  7 11  1  0  0  0  0
  7 33  1  0  0  0  0
  8  9  1  0  0  0  0
  8 34  1  0  0  0  0
  8 35  1  0  0  0  0
  9 13  1  0  0  0  0
  9 14  1  0  0  0  0
  9 36  1  0  0  0  0
 10 16  1  0  0  0  0
 10 37  1  0  0  0  0
 10 38  1  0  0  0  0
 11 39  1  0  0  0  0
 11 40  1  0  0  0  0
 11 41  1  0  0  0  0
 12 15  1  0  0  0  0
 12 17  1  0  0  0  0
 12 42  1  0  0  0  0
 13 43  1  0  0  0  0
 13 44  1  0  0  0  0
 13 45  1  0  0  0  0
 14 20  2  0  0  0  0
 14 46  1  0  0  0  0
 15 19  1  0  0  0  0
 15 47  1  0  0  0  0
 16 48  1  0  0  0  0
 16 49  1  0  0  0  0
 16 50  1  0  0  0  0
 17 18  1  0  0  0  0
 18 21  1  0  0  0  0
 18 22  2  0  0  0  0
 19 23  2  0  0  0  0
 19 24  1  0  0  0  0
 20 25  1  0  0  0  0
 20 26  1  0  0  0  0
 22 29  1  0  0  0  0
 23 27  1  0  0  0  0
 23 52  1  0  0  0  0
 24 28  2  0  0  0  0
 24 53  1  0  0  0  0
 25 54  1  0  0  0  0
 25 55  1  0  0  0  0
 25 56  1  0  0  0  0
 26 30  2  0  0  0  0
 26 58  1  0  0  0  0
 27 31  2  0  0  0  0
 27 59  1  0  0  0  0
 28 31  1  0  0  0  0
 28 60  1  0  0  0  0
 29 32  2  0  0  0  0
 29 61  1  0  0  0  0
 30 32  1  0  0  0  0
 30 62  1  0  0  0  0
 32 63  1  0  0  0  0
M  END
> <PUBCHEM_COMPOUND_CID>
54691340

> <PUBCHEM_CONFORMER_RMSD>
1.2

> <PUBCHEM_CONFORMER_DIVERSEORDER>
1
91
49
187
77
166
116
83
40
107
181
150
34
138
64
88
189
152
12
190
18
184
13
188
82
66
85
144
42
134
172
52
54
86
109
110
79
43
157
25
103
63
78
108
96
183
16
22
137
48
11
169
158
156
130
17
80
132
58
177
180
68
151
154
46
72
155
21
115
178
133
118
186
140
129
95
28
47
59
27
36
41
174
146
168
163
53
153
160
119
122
98
23
135
142
131
10
31
179
176
147
67
121
124
104
105
84
139
141
159
19
162
99
143
38
126
33
81
44
55
14
29
30
62
15
123
136
8
2
128
65
120
102
112
90
191
145
9
182
51
125
111
57
37
74
106
75
164
165
76
92
56
7
161
93
5
60
117
114
127
61
39
50
24
69
175
94
6
148
101
97
171
170
20
149
26
73
4
113
87
35
32
71
173
185
45
167
70
100
3
89

> <PUBCHEM_MMFF94_PARTIAL_CHARGES>
39
1 -0.68
12 0.36
14 -0.29
15 0.42
17 0.49
18 0.03
19 -0.14
2 -0.57
20 -0.14
21 0.62
22 0.08
23 -0.15
24 -0.15
25 0.14
26 -0.15
27 -0.15
28 -0.15
29 -0.15
3 -0.57
30 -0.15
31 0.08
32 -0.15
4 -0.53
46 0.15
5 -0.53
51 0.37
52 0.15
53 0.15
57 0.4
58 0.15
59 0.15
6 -0.73
60 0.15
61 0.15
62 0.15
63 0.15
64 0.45
65 0.45
9 0.14

> <PUBCHEM_EFFECTIVE_ROTOR_COUNT>
9.4

> <PUBCHEM_PHARMACOPHORE_FEATURES>
15
1 1 acceptor
1 1 donor
1 11 hydrophobe
1 13 hydrophobe
1 16 hydrophobe
1 18 anion
1 2 acceptor
1 25 hydrophobe
1 3 acceptor
1 4 donor
1 5 donor
1 6 donor
5 6 12 17 18 21 rings
5 7 8 9 10 14 hydrophobe
6 19 23 24 27 28 31 rings

> <PUBCHEM_HEAVY_ATOM_COUNT>
32

> <PUBCHEM_ATOM_DEF_STEREO_COUNT>
2

> <PUBCHEM_ATOM_UDEF_STEREO_COUNT>
2

> <PUBCHEM_BOND_DEF_STEREO_COUNT>
4

> <PUBCHEM_BOND_UDEF_STEREO_COUNT>
0

> <PUBCHEM_ISOTOPIC_ATOM_COUNT>
0

> <PUBCHEM_COMPONENT_COUNT>
1

> <PUBCHEM_CACTVS_TAUTO_COUNT>
38

> <PUBCHEM_CONFORMER_ID>
0342860C00000001

> <PUBCHEM_MMFF94_ENERGY>
72.4974

> <PUBCHEM_FEATURE_SELFOVERLAP>
76.165

> <PUBCHEM_SHAPE_FINGERPRINT>
10 15 7493285560296127620
10162869 55 9007052453407778489
10299344 5 18186523189877833871
11135926 11 18410862062358689671
11456790 92 17749385941160121337
12089408 11 17821731606817387949
14142895 15 11167938065201437160
14344974 52 14836115543106912022
14444916 359 18059853957412125515
15183329 4 18411145710741183061
15461852 350 14117516545871839609
15510794 2 17704071768318014000
15554971 5 16805606920039770213
15840311 113 7348884512883896058
16120349 18 9871745793771285246
1754911 235 11600007652374475283
1818759 1 18131069337588730491
20105231 36 17775282751757188795
2026 5 18267872855926209422
21095123 145 14549016585953033739
21267235 1 18341897393780368668
21362267 313 16805316743290311506
21792961 116 18202290229459109869
21792965 169 17561071519081596028
439807 62 18411984663730090134
44389302 135 17676491692073704390
54039377 194 17203325607602141151
5470011 282 17775563114094380564
6057620 51 12247688175403798973
6081469 158 17989213654898679580
6126387 218 16805323301647246299
6201320 215 17240758545684987801
636775 8 13758064179461936113
9937071 3 18343022203108318738
9962374 69 17677348116477037028

> <PUBCHEM_SHAPE_MULTIPOLES>
624.22
40.18
2.09
1.63
29.74
0.23
0.01
-14.15
-13.26
-2.58
-0.06
5.45
-0.16
-2.6

> <PUBCHEM_SHAPE_SELFOVERLAP>
1290.757

> <PUBCHEM_SHAPE_VOLUME>
356.7

> <PUBCHEM_COORDINATE_TYPE>
2
5
10

$$$$

