9090
  -OEChem-06261203233D

 21 22  0     0  0  0  0  0  0999 V2000
   -0.6560   -1.4168   -0.3025 S   0  0  0  0  0  0  0  0  0  0  0  0
   -1.2348    1.4229    0.4176 S   0  0  0  0  0  0  0  0  0  0  0  0
    0.0921    0.2187    0.0806 C   0  0  0  0  0  0  0  0  0  0  0  0
    0.9989    0.6822   -1.0624 C   0  0  0  0  0  0  0  0  0  0  0  0
    1.0722    0.1180    1.2515 C   0  0  0  0  0  0  0  0  0  0  0  0
    2.3175   -0.0635   -0.8465 C   0  0  0  0  0  0  0  0  0  0  0  0
    2.3631   -0.4284    0.6384 C   0  0  0  0  0  0  0  0  0  0  0  0
   -2.3647   -0.9874    0.1133 C   0  0  0  0  0  0  0  0  0  0  0  0
   -2.5883    0.4542   -0.2900 C   0  0  0  0  0  0  0  0  0  0  0  0
    1.2040    1.7589   -0.9867 H   0  0  0  0  0  0  0  0  0  0  0  0
    0.5866    0.5034   -2.0618 H   0  0  0  0  0  0  0  0  0  0  0  0
    0.7167   -0.5060    2.0791 H   0  0  0  0  0  0  0  0  0  0  0  0
    1.2897    1.1116    1.6668 H   0  0  0  0  0  0  0  0  0  0  0  0
    3.1732    0.5545   -1.1374 H   0  0  0  0  0  0  0  0  0  0  0  0
    2.3515   -0.9732   -1.4570 H   0  0  0  0  0  0  0  0  0  0  0  0
    2.4155   -1.5170    0.7550 H   0  0  0  0  0  0  0  0  0  0  0  0
    3.2448   -0.0064    1.1316 H   0  0  0  0  0  0  0  0  0  0  0  0
   -2.5213   -1.1340    1.1878 H   0  0  0  0  0  0  0  0  0  0  0  0
   -3.0520   -1.6531   -0.4171 H   0  0  0  0  0  0  0  0  0  0  0  0
   -2.5906    0.5742   -1.3789 H   0  0  0  0  0  0  0  0  0  0  0  0
   -3.5460    0.8229    0.0892 H   0  0  0  0  0  0  0  0  0  0  0  0
  1  3  1  0  0  0  0
  1  8  1  0  0  0  0
  2  3  1  0  0  0  0
  2  9  1  0  0  0  0
  3  4  1  0  0  0  0
  3  5  1  0  0  0  0
  4  6  1  0  0  0  0
  4 10  1  0  0  0  0
  4 11  1  0  0  0  0
  5  7  1  0  0  0  0
  5 12  1  0  0  0  0
  5 13  1  0  0  0  0
  6  7  1  0  0  0  0
  6 14  1  0  0  0  0
  6 15  1  0  0  0  0
  7 16  1  0  0  0  0
  7 17  1  0  0  0  0
  8  9  1  0  0  0  0
  8 18  1  0  0  0  0
  8 19  1  0  0  0  0
  9 20  1  0  0  0  0
  9 21  1  0  0  0  0
M  END
> <PUBCHEM_COMPOUND_CID>
9090

> <PUBCHEM_CONFORMER_RMSD>
0.4

> <PUBCHEM_CONFORMER_DIVERSEORDER>
1
2

> <PUBCHEM_MMFF94_PARTIAL_CHARGES>
5
1 -0.46
2 -0.46
3 0.46
8 0.23
9 0.23

> <PUBCHEM_EFFECTIVE_ROTOR_COUNT>
1.6

> <PUBCHEM_PHARMACOPHORE_FEATURES>
2
5 1 2 3 8 9 rings
5 3 4 5 6 7 rings

> <PUBCHEM_HEAVY_ATOM_COUNT>
9

> <PUBCHEM_ATOM_DEF_STEREO_COUNT>
0

> <PUBCHEM_ATOM_UDEF_STEREO_COUNT>
0

> <PUBCHEM_BOND_DEF_STEREO_COUNT>
0

> <PUBCHEM_BOND_UDEF_STEREO_COUNT>
0

> <PUBCHEM_ISOTOPIC_ATOM_COUNT>
0

> <PUBCHEM_COMPONENT_COUNT>
1

> <PUBCHEM_CACTVS_TAUTO_COUNT>
1

> <PUBCHEM_CONFORMER_ID>
0000238200000001

> <PUBCHEM_MMFF94_ENERGY>
18.8327

> <PUBCHEM_FEATURE_SELFOVERLAP>
10.155

> <PUBCHEM_SHAPE_FINGERPRINT>
10857977 72 18114189596682714473
12423570 1 14817072245625023491
12716758 59 18042679675135817723
12932764 1 17917708006812762237
14128692 85 18130788906310061071
14993402 34 18130787884118413942
15310529 11 17132114628384366429
15775835 57 17703782626466094421
16945 1 18334855043194546379
18185500 45 18131637755061750187
20201158 50 17240482528482412294
207724 885 17917148415434024074
21040471 1 18191866932010161041
23235685 24 18338516443096391909
23552333 60 17775011150129329072
23552423 10 18201999876410542687
29004967 10 15864065490115386190
369184 2 14634869760172878263
5084963 1 18131072653461582401

> <PUBCHEM_SHAPE_MULTIPOLES>
192.91
3.59
1.35
1.09
0.27
0.08
0.03
0.27
-0.13
0.7
0.01
-0.54
-0.1
-0.09

> <PUBCHEM_SHAPE_SELFOVERLAP>
363.676

> <PUBCHEM_SHAPE_VOLUME>
120.9

> <PUBCHEM_COORDINATE_TYPE>
2
5
10

$$$$

