23724463
  -OEChem-07051212443D

 59 61  0     1  0  0  0  0  0999 V2000
   -0.8351    3.6838   -1.2783 P   0  0  2  0  0  0  0  0  0  0  0  0
   -3.1819    2.3694   -0.0859 P   0  0  1  0  0  0  0  0  0  0  0  0
    1.8575    0.9373    0.7022 O   0  0  0  0  0  0  0  0  0  0  0  0
   -3.7463   -0.8296    0.7082 O   0  0  0  0  0  0  0  0  0  0  0  0
    3.9833    2.7280    1.8264 O   0  0  0  0  0  0  0  0  0  0  0  0
    5.4341    0.8719    0.4522 O   0  0  0  0  0  0  0  0  0  0  0  0
    0.1295    2.4308   -0.9371 O   0  0  0  0  0  0  0  0  0  0  0  0
   -2.3581    1.0547    0.3562 O   0  0  0  0  0  0  0  0  0  0  0  0
   -0.0612   -2.1964    2.0618 O   0  0  0  0  0  0  0  0  0  0  0  0
   -0.9495    0.5143    2.6677 O   0  0  0  0  0  0  0  0  0  0  0  0
   -2.5483   -3.2925    1.5669 O   0  0  0  0  0  0  0  0  0  0  0  0
   -2.3084    3.0186   -1.2812 O   0  0  0  0  0  0  0  0  0  0  0  0
   -3.4749   -3.4589   -1.6512 O   0  0  0  0  0  0  0  0  0  0  0  0
    4.4453   -2.2276    1.1161 O   0  0  0  0  0  0  0  0  0  0  0  0
   -0.5619    3.9691   -2.8470 O   0  0  0  0  0  0  0  0  0  0  0  0
   -5.2318   -2.6399   -0.4519 O   0  0  0  0  0  0  0  0  0  0  0  0
   -4.4873    1.7957   -0.8503 O   0  0  0  0  0  0  0  0  0  0  0  0
   -0.6913    4.8792   -0.3823 O   0  0  0  0  0  0  0  0  0  0  0  0
   -3.4888    3.3173    1.0372 O   0  0  0  0  0  0  0  0  0  0  0  0
    2.2529   -4.3235   -2.3544 O   0  0  0  0  0  0  0  0  0  0  0  0
    2.8951   -0.9900   -0.1184 N   0  0  0  0  0  0  0  0  0  0  0  0
    3.3531   -3.2694   -0.6130 N   0  0  0  0  0  0  0  0  0  0  0  0
    3.6249    2.4965    0.4642 C   0  0  1  0  0  0  0  0  0  0  0  0
    4.1167    1.1367    0.0157 C   0  0  2  0  0  0  0  0  0  0  0  0
    2.1132    2.3264    0.3993 C   0  0  1  0  0  0  0  0  0  0  0  0
    3.0941    0.2076    0.6470 C   0  0  1  0  0  0  0  0  0  0  0  0
   -0.9923   -1.4695    1.2653 C   0  0  2  0  0  0  0  0  0  0  0  0
    1.5322    2.6269   -0.9759 C   0  0  0  0  0  0  0  0  0  0  0  0
   -1.7966   -0.4982    2.1349 C   0  0  2  0  0  0  0  0  0  0  0  0
   -1.9349   -2.4609    0.5763 C   0  0  2  0  0  0  0  0  0  0  0  0
   -2.9154    0.1621    1.3205 C   0  0  2  0  0  0  0  0  0  0  0  0
   -3.0276   -1.6964   -0.1683 C   0  0  1  0  0  0  0  0  0  0  0  0
    3.6248   -2.1599    0.1985 C   0  0  0  0  0  0  0  0  0  0  0  0
    1.9857   -0.9986   -1.1696 C   0  0  0  0  0  0  0  0  0  0  0  0
   -4.0462   -2.6254   -0.7478 C   0  0  0  0  0  0  0  0  0  0  0  0
    1.7374   -2.0640   -1.9341 C   0  0  0  0  0  0  0  0  0  0  0  0
    2.4578   -3.3258   -1.6700 C   0  0  0  0  0  0  0  0  0  0  0  0
    4.0168    3.3266   -0.1290 H   0  0  0  0  0  0  0  0  0  0  0  0
    4.0945    1.0691   -1.0787 H   0  0  0  0  0  0  0  0  0  0  0  0
    1.5927    2.9172    1.1617 H   0  0  0  0  0  0  0  0  0  0  0  0
    3.3764   -0.0616    1.6718 H   0  0  0  0  0  0  0  0  0  0  0  0
   -0.4135   -0.9125    0.5221 H   0  0  0  0  0  0  0  0  0  0  0  0
   -2.2290   -1.0340    2.9882 H   0  0  0  0  0  0  0  0  0  0  0  0
   -1.3688   -3.1245   -0.0858 H   0  0  0  0  0  0  0  0  0  0  0  0
    1.9390    1.9791   -1.7558 H   0  0  0  0  0  0  0  0  0  0  0  0
    1.7629    3.6607   -1.2573 H   0  0  0  0  0  0  0  0  0  0  0  0
   -3.5445    0.7471    2.0005 H   0  0  0  0  0  0  0  0  0  0  0  0
   -2.6132   -1.1018   -0.9917 H   0  0  0  0  0  0  0  0  0  0  0  0
    3.5533    2.0597    2.3854 H   0  0  0  0  0  0  0  0  0  0  0  0
    6.0063    1.5724    0.0955 H   0  0  0  0  0  0  0  0  0  0  0  0
    1.4439   -0.0883   -1.3773 H   0  0  0  0  0  0  0  0  0  0  0  0
   -0.5662   -2.7085    2.7164 H   0  0  0  0  0  0  0  0  0  0  0  0
   -0.2248    0.0690    3.1391 H   0  0  0  0  0  0  0  0  0  0  0  0
   -3.2121   -2.7664    2.0434 H   0  0  0  0  0  0  0  0  0  0  0  0
    3.8662   -4.1211   -0.4033 H   0  0  0  0  0  0  0  0  0  0  0  0
    1.0186   -2.0343   -2.7437 H   0  0  0  0  0  0  0  0  0  0  0  0
   -4.1273   -4.0785   -2.0421 H   0  0  0  0  0  0  0  0  0  0  0  0
    0.2468    4.4592   -3.1077 H   0  0  0  0  0  0  0  0  0  0  0  0
   -5.2456    1.4741   -0.3177 H   0  0  0  0  0  0  0  0  0  0  0  0
  1  7  1  0  0  0  0
  1 12  1  0  0  0  0
  1 15  1  0  0  0  0
  1 18  2  0  0  0  0
  2  8  1  0  0  0  0
  2 12  1  0  0  0  0
  2 17  1  0  0  0  0
  2 19  2  0  0  0  0
  3 25  1  0  0  0  0
  3 26  1  0  0  0  0
  4 31  1  0  0  0  0
  4 32  1  0  0  0  0
  5 23  1  0  0  0  0
  5 49  1  0  0  0  0
  6 24  1  0  0  0  0
  6 50  1  0  0  0  0
  7 28  1  0  0  0  0
  8 31  1  0  0  0  0
  9 27  1  0  0  0  0
  9 52  1  0  0  0  0
 10 29  1  0  0  0  0
 10 53  1  0  0  0  0
 11 30  1  0  0  0  0
 11 54  1  0  0  0  0
 13 35  1  0  0  0  0
 13 57  1  0  0  0  0
 14 33  2  0  0  0  0
 15 58  1  0  0  0  0
 16 35  2  0  0  0  0
 17 59  1  0  0  0  0
 20 37  2  0  0  0  0
 21 26  1  0  0  0  0
 21 33  1  0  0  0  0
 21 34  1  0  0  0  0
 22 33  1  0  0  0  0
 22 37  1  0  0  0  0
 22 55  1  0  0  0  0
 23 24  1  0  0  0  0
 23 25  1  0  0  0  0
 23 38  1  0  0  0  0
 24 26  1  0  0  0  0
 24 39  1  0  0  0  0
 25 28  1  0  0  0  0
 25 40  1  0  0  0  0
 26 41  1  0  0  0  0
 27 29  1  0  0  0  0
 27 30  1  0  0  0  0
 27 42  1  0  0  0  0
 28 45  1  0  0  0  0
 28 46  1  0  0  0  0
 29 31  1  0  0  0  0
 29 43  1  0  0  0  0
 30 32  1  0  0  0  0
 30 44  1  0  0  0  0
 31 47  1  0  0  0  0
 32 35  1  0  0  0  0
 32 48  1  0  0  0  0
 34 36  2  0  0  0  0
 34 51  1  0  0  0  0
 36 37  1  0  0  0  0
 36 56  1  0  0  0  0
M  END
> <PUBCHEM_COMPOUND_CID>
23724463

> <PUBCHEM_CONFORMER_RMSD>
1.4

> <PUBCHEM_CONFORMER_DIVERSEORDER>
1
25
132
382
298
404
198
194
334
111
185
341
445
81
117
421
282
225
106
90
273
75
88
403
122
269
401
228
52
166
291
395
145
410
397
129
419
386
442
414
398
133
333
310
103
253
383
261
147
434
433
144
73
321
165
155
143
406
387
107
316
49
192
51
444
161
430
119
37
203
322
79
4
11
394
279
15
315
150
46
369
74
331
131
305
31
160
399
292
256
424
154
93
45
95
68
318
440
265
428
138
87
139
140
323
18
70
105
267
152
296
196
71
94
217
260
317
309
375
242
195
299
345
391
230
197
354
128
337
62
379
84
236
349
40
306
376
418
182
314
233
243
164
258
67
324
356
246
297
48
350
149
359
92
159
173
381
187
19
112
288
98
121
278
170
141
176
234
36
8
142
248
171
59
413
439
99
355
9
163
113
124
257
208
137
302
422
120
177
276
303
344
285
390
405
270
300
307
348
222
218
126
10
14
312
293
362
339
446
16
72
76
373
202
53
286
346
135
201
200
441
281
280
284
443
184
447
60
167
338
61
102
343
33
44
227
408
212
65
380
169
283
370
366
301
80
179
229
213
417
347
262
238
13
69
392
83
272
384
415
148
235
332
275
277
125
41
191
134
34
91
130
438
180
335
245
295
319
251
290
239
237
255
104
226
432
210
431
66
77
393
50
188
360
28
97
146
328
55
27
115
221
311
199
330
377
78
436
57
385
186
244
231
136
429
437
388
365
325
189
289
274
23
259
209
308
240
232
216
374
207
423
30
178
175
396
361
400
287
32
294
351
42
241
329
352
407
358
211
378
21
252
26
357
264
3
100
372
220
64
425
108
435
12
409
327
38
364
254
158
190
181
29
219
168
110
54
114
5
82
268
39
249
118
58
271
127
205
416
223
101
183
250
340
342
224
96
151
116
85
2
427
368
247
43
304
411
412
326
35
363
402
6
63
174
353
206
193
320
215
214
7
313
266
162
336
204
371
426
17
109
153
56
20
89
47
156
367
172
389
263
123
157
22
420
24
86

> <PUBCHEM_MMFF94_PARTIAL_CHARGES>
48
1 1.51
10 -0.68
11 -0.68
12 -0.54
13 -0.65
14 -0.57
15 -0.77
16 -0.57
17 -0.77
18 -0.7
19 -0.7
2 1.51
20 -0.57
21 -0.47
22 -0.49
23 0.28
24 0.28
25 0.28
26 0.58
27 0.28
28 0.28
29 0.28
3 -0.56
30 0.28
31 0.56
32 0.34
33 0.69
34 -0.04
35 0.66
36 -0.14
37 0.62
4 -0.56
49 0.4
5 -0.68
50 0.4
51 0.15
52 0.4
53 0.4
54 0.4
55 0.37
56 0.15
57 0.5
58 0.5
59 0.5
6 -0.68
7 -0.55
8 -0.55
9 -0.68

> <PUBCHEM_EFFECTIVE_ROTOR_COUNT>
11.2

> <PUBCHEM_PHARMACOPHORE_FEATURES>
25
1 10 acceptor
1 10 donor
1 11 acceptor
1 11 donor
1 13 acceptor
1 14 acceptor
1 15 acceptor
1 16 acceptor
1 17 acceptor
1 18 acceptor
1 19 acceptor
1 20 acceptor
1 22 donor
1 3 acceptor
1 4 acceptor
1 5 acceptor
1 5 donor
1 6 acceptor
1 6 donor
1 9 acceptor
1 9 donor
3 13 16 35 anion
5 3 23 24 25 26 rings
6 21 22 33 34 36 37 rings
6 4 27 29 30 31 32 rings

> <PUBCHEM_HEAVY_ATOM_COUNT>
37

> <PUBCHEM_ATOM_DEF_STEREO_COUNT>
8

> <PUBCHEM_ATOM_UDEF_STEREO_COUNT>
1

> <PUBCHEM_BOND_DEF_STEREO_COUNT>
0

> <PUBCHEM_BOND_UDEF_STEREO_COUNT>
0

> <PUBCHEM_ISOTOPIC_ATOM_COUNT>
0

> <PUBCHEM_COMPONENT_COUNT>
1

> <PUBCHEM_CACTVS_TAUTO_COUNT>
3

> <PUBCHEM_CONFORMER_ID>
016A01AF00000001

> <PUBCHEM_MMFF94_ENERGY>
50.5496

> <PUBCHEM_FEATURE_SELFOVERLAP>
126.981

> <PUBCHEM_SHAPE_FINGERPRINT>
11513181 2 18340757200243172148
11828532 37 18130780205497649347
12156800 1 17334551344602160571
12422481 6 18050249779372541777
12553582 1 17912628134359807041
13402501 40 18269555116641535048
1361 2 17543922204595437311
13642711 20 17112418269094730269
140371 6 18126278649921153841
14117953 113 18192992612815637015
14251757 17 17904765827367230522
14725015 67 18055354905706253921
15840311 113 17752451440309705899
15927050 60 15018778938252718382
20764821 26 18272365412337307612
21860390 5 17984706614928911390
22393880 68 18187071837600819302
25265897 201 17679274594182933927
3380486 145 18339628014787126976
35225 105 17626957717482095404
4403749 210 18119831118380133040
469060 322 17756459000255350044

> <PUBCHEM_SHAPE_MULTIPOLES>
653.53
9.07
6.53
2.14
0.56
1.81
-0.11
-2.91
0.81
-1.03
-3.48
-0.17
-0.35
1.66

> <PUBCHEM_SHAPE_SELFOVERLAP>
1343.345

> <PUBCHEM_SHAPE_VOLUME>
375.5

> <PUBCHEM_COORDINATE_TYPE>
2
5
10

$$$$

