11540
  -OEChem-06261205482D

 26 24  0     0  0  0  0  0  0999 V2000
    2.8850    4.8059    0.0000 Br  0  5  0  0  0  0  0  0  0  0  0  0
    4.8671    1.4030    0.0000 O   0  0  0  0  0  0  0  0  0  0  0  0
    1.4030    1.4030    0.0000 N   0  3  0  0  0  0  0  0  0  0  0  0
    2.2690    1.9030    0.0000 C   0  0  0  0  0  0  0  0  0  0  0  0
    0.5369    0.9030    0.0000 C   0  0  0  0  0  0  0  0  0  0  0  0
    0.9030    2.2690    0.0000 C   0  0  0  0  0  0  0  0  0  0  0  0
    1.9030    0.5369    0.0000 C   0  0  0  0  0  0  0  0  0  0  0  0
    3.1350    1.4030    0.0000 C   0  0  0  0  0  0  0  0  0  0  0  0
    4.0010    1.9030    0.0000 C   0  0  0  0  0  0  0  0  0  0  0  0
    5.7331    1.9030    0.0000 C   0  0  0  0  0  0  0  0  0  0  0  0
    2.6675    2.3779    0.0000 H   0  0  0  0  0  0  0  0  0  0  0  0
    1.8705    2.3779    0.0000 H   0  0  0  0  0  0  0  0  0  0  0  0
    0.8469    0.3660    0.0000 H   0  0  0  0  0  0  0  0  0  0  0  0
    0.0000    0.5930    0.0000 H   0  0  0  0  0  0  0  0  0  0  0  0
    0.2269    1.4399    0.0000 H   0  0  0  0  0  0  0  0  0  0  0  0
    1.4399    2.5790    0.0000 H   0  0  0  0  0  0  0  0  0  0  0  0
    0.5930    2.8059    0.0000 H   0  0  0  0  0  0  0  0  0  0  0  0
    0.3660    1.9590    0.0000 H   0  0  0  0  0  0  0  0  0  0  0  0
    1.3660    0.2269    0.0000 H   0  0  0  0  0  0  0  0  0  0  0  0
    2.2130    0.0000    0.0000 H   0  0  0  0  0  0  0  0  0  0  0  0
    2.4399    0.8469    0.0000 H   0  0  0  0  0  0  0  0  0  0  0  0
    3.1350    0.7830    0.0000 H   0  0  0  0  0  0  0  0  0  0  0  0
    4.0010    2.5230    0.0000 H   0  0  0  0  0  0  0  0  0  0  0  0
    5.4231    2.4399    0.0000 H   0  0  0  0  0  0  0  0  0  0  0  0
    6.2700    2.2130    0.0000 H   0  0  0  0  0  0  0  0  0  0  0  0
    6.0431    1.3660    0.0000 H   0  0  0  0  0  0  0  0  0  0  0  0
  2  9  1  0  0  0  0
  2 10  1  0  0  0  0
  3  4  1  0  0  0  0
  3  5  1  0  0  0  0
  3  6  1  0  0  0  0
  3  7  1  0  0  0  0
  4  8  1  0  0  0  0
  4 11  1  0  0  0  0
  4 12  1  0  0  0  0
  5 13  1  0  0  0  0
  5 14  1  0  0  0  0
  5 15  1  0  0  0  0
  6 16  1  0  0  0  0
  6 17  1  0  0  0  0
  6 18  1  0  0  0  0
  7 19  1  0  0  0  0
  7 20  1  0  0  0  0
  7 21  1  0  0  0  0
  8  9  2  3  0  0  0
  8 22  1  0  0  0  0
  9 23  1  0  0  0  0
 10 24  1  0  0  0  0
 10 25  1  0  0  0  0
 10 26  1  0  0  0  0
M  CHG  2   1  -1   3   1
M  END
> <PUBCHEM_COMPOUND_CID>
11540

> <PUBCHEM_COMPOUND_CANONICALIZED>
1

> <PUBCHEM_CACTVS_COMPLEXITY>
91.6

> <PUBCHEM_CACTVS_HBOND_ACCEPTOR>
2

> <PUBCHEM_CACTVS_HBOND_DONOR>
0

> <PUBCHEM_CACTVS_ROTATABLE_BOND>
3

> <PUBCHEM_CACTVS_SUBSKEYS>
AAADceBiIAAAEAAAAAAAAAAAAAAAAAAAAAAAAAAAAAAAAAAAAAAAHgAAAAAACADhgAYCAAMABACAACBCAACACAAAIAAIAAAIAAAAAAAAAQAAAAAAAAAAAAAAAAAAAAAAAAAAAAAAAAAAAAAAAAAAAAAAAA==

> <PUBCHEM_IUPAC_OPENEYE_NAME>
3-methoxyallyl(trimethyl)ammonium bromide

> <PUBCHEM_IUPAC_CAS_NAME>
3-methoxyprop-2-enyl(trimethyl)ammonium bromide

> <PUBCHEM_IUPAC_NAME>
3-methoxyprop-2-enyl(trimethyl)azanium bromide

> <PUBCHEM_IUPAC_SYSTEMATIC_NAME>
3-methoxyprop-2-enyl(trimethyl)azanium bromide

> <PUBCHEM_IUPAC_TRADITIONAL_NAME>
3-methoxyallyl(trimethyl)ammonium bromide

> <PUBCHEM_IUPAC_INCHI>
InChI=1S/C7H16NO.BrH/c1-8(2,3)6-5-7-9-4;/h5,7H,6H2,1-4H3;1H/q+1;/p-1

> <PUBCHEM_IUPAC_INCHIKEY>
HQZSABHFAHGLMX-UHFFFAOYSA-M

> <PUBCHEM_EXACT_MASS>
209.041526

> <PUBCHEM_MOLECULAR_FORMULA>
C7H16BrNO

> <PUBCHEM_MOLECULAR_WEIGHT>
210.11204

> <PUBCHEM_OPENEYE_CAN_SMILES>
C[N+](C)(C)CC=COC.[Br-]

> <PUBCHEM_OPENEYE_ISO_SMILES>
C[N+](C)(C)CC=COC.[Br-]

> <PUBCHEM_CACTVS_TPSA>
9.2

> <PUBCHEM_MONOISOTOPIC_WEIGHT>
209.041526

> <PUBCHEM_TOTAL_CHARGE>
0

> <PUBCHEM_HEAVY_ATOM_COUNT>
10

> <PUBCHEM_ATOM_DEF_STEREO_COUNT>
0

> <PUBCHEM_ATOM_UDEF_STEREO_COUNT>
0

> <PUBCHEM_BOND_DEF_STEREO_COUNT>
0

> <PUBCHEM_BOND_UDEF_STEREO_COUNT>
1

> <PUBCHEM_ISOTOPIC_ATOM_COUNT>
0

> <PUBCHEM_COMPONENT_COUNT>
2

> <PUBCHEM_CACTVS_TAUTO_COUNT>
1

> <PUBCHEM_COORDINATE_TYPE>
1
5
255

> <PUBCHEM_BONDANNOTATIONS>
8  9  1

$$$$

