54699185
  -OEChem-07051212593D

 61 64  0     0  0  0  0  0  0999 V2000
   -4.0929    0.2099   -0.3963 O   0  0  0  0  0  0  0  0  0  0  0  0
    0.2415   -1.6775   -0.5727 O   0  0  0  0  0  0  0  0  0  0  0  0
   -0.2690    3.0671    0.2351 O   0  0  0  0  0  0  0  0  0  0  0  0
    2.0201    2.0476    0.1403 O   0  0  0  0  0  0  0  0  0  0  0  0
    2.2924   -2.6633   -0.6697 O   0  0  0  0  0  0  0  0  0  0  0  0
    7.8790   -0.0796   -0.0132 O   0  0  0  0  0  0  0  0  0  0  0  0
   -5.0045    1.3123   -0.2009 C   0  0  0  0  0  0  0  0  0  0  0  0
   -2.7483    0.4330   -0.3086 C   0  0  0  0  0  0  0  0  0  0  0  0
   -2.1847    1.6878   -0.0715 C   0  0  0  0  0  0  0  0  0  0  0  0
   -1.9256   -0.6798   -0.4749 C   0  0  0  0  0  0  0  0  0  0  0  0
   -0.5419   -0.5229   -0.3990 C   0  0  0  0  0  0  0  0  0  0  0  0
    0.0512    0.7117   -0.1629 C   0  0  0  0  0  0  0  0  0  0  0  0
   -0.7883    1.8229    0.0004 C   0  0  0  0  0  0  0  0  0  0  0  0
   -4.3687    2.6619    0.0357 C   0  0  0  0  0  0  0  0  0  0  0  0
   -3.0482    2.8446    0.0968 C   0  0  0  0  0  0  0  0  0  0  0  0
   -2.5169   -2.0294   -0.7309 C   0  0  0  0  0  0  0  0  0  0  0  0
   -5.8754    0.9450    1.0064 C   0  0  0  0  0  0  0  0  0  0  0  0
   -5.8733    1.3783   -1.4627 C   0  0  0  0  0  0  0  0  0  0  0  0
    1.5121    0.7857   -0.0977 C   0  0  0  0  0  0  0  0  0  0  0  0
    2.2642   -0.3204   -0.2627 C   0  0  0  0  0  0  0  0  0  0  0  0
   -3.1165   -2.6488    0.5061 C   0  0  0  0  0  0  0  0  0  0  0  0
    1.6282   -1.6427   -0.5162 C   0  0  0  0  0  0  0  0  0  0  0  0
    3.7362   -0.2587   -0.1977 C   0  0  0  0  0  0  0  0  0  0  0  0
   -4.3867   -3.0522    0.7000 C   0  0  0  0  0  0  0  0  0  0  0  0
   -0.0689    3.4326    1.5964 C   0  0  0  0  0  0  0  0  0  0  0  0
    4.4762   -0.0209   -1.3560 C   0  0  0  0  0  0  0  0  0  0  0  0
    4.3885   -0.4368    1.0224 C   0  0  0  0  0  0  0  0  0  0  0  0
   -4.9194   -3.6643    1.9643 C   0  0  0  0  0  0  0  0  0  0  0  0
   -5.4103   -2.8971   -0.3934 C   0  0  0  0  0  0  0  0  0  0  0  0
    5.8684    0.0391   -1.2941 C   0  0  0  0  0  0  0  0  0  0  0  0
    5.7806   -0.3769    1.0843 C   0  0  0  0  0  0  0  0  0  0  0  0
    6.5206   -0.1388   -0.0740 C   0  0  0  0  0  0  0  0  0  0  0  0
    8.4803   -0.2697    1.2668 C   0  0  0  0  0  0  0  0  0  0  0  0
   -5.0231    3.5217    0.1581 H   0  0  0  0  0  0  0  0  0  0  0  0
   -2.6421    3.8355    0.2543 H   0  0  0  0  0  0  0  0  0  0  0  0
   -3.2120   -1.9503   -1.5707 H   0  0  0  0  0  0  0  0  0  0  0  0
   -1.7622   -2.7330   -1.1028 H   0  0  0  0  0  0  0  0  0  0  0  0
   -5.2639    0.8382    1.9105 H   0  0  0  0  0  0  0  0  0  0  0  0
   -6.6478    1.6974    1.2002 H   0  0  0  0  0  0  0  0  0  0  0  0
   -6.3688   -0.0217    0.8535 H   0  0  0  0  0  0  0  0  0  0  0  0
   -6.6530    2.1441   -1.3858 H   0  0  0  0  0  0  0  0  0  0  0  0
   -5.2617    1.5968   -2.3464 H   0  0  0  0  0  0  0  0  0  0  0  0
   -6.3566    0.4129   -1.6545 H   0  0  0  0  0  0  0  0  0  0  0  0
   -2.4168   -2.7924    1.3294 H   0  0  0  0  0  0  0  0  0  0  0  0
    2.9895    2.0074    0.1704 H   0  0  0  0  0  0  0  0  0  0  0  0
    0.6252    4.2773    1.6258 H   0  0  0  0  0  0  0  0  0  0  0  0
    0.3565    2.6112    2.1827 H   0  0  0  0  0  0  0  0  0  0  0  0
   -1.0136    3.7482    2.0486 H   0  0  0  0  0  0  0  0  0  0  0  0
    3.9821    0.1198   -2.3142 H   0  0  0  0  0  0  0  0  0  0  0  0
    3.8242   -0.6229    1.9331 H   0  0  0  0  0  0  0  0  0  0  0  0
   -5.6330   -3.8751   -0.8331 H   0  0  0  0  0  0  0  0  0  0  0  0
   -6.3418   -2.5001    0.0266 H   0  0  0  0  0  0  0  0  0  0  0  0
   -5.7110   -3.0385    2.3886 H   0  0  0  0  0  0  0  0  0  0  0  0
   -5.3278   -4.6599    1.7634 H   0  0  0  0  0  0  0  0  0  0  0  0
   -4.1353   -3.7706    2.7212 H   0  0  0  0  0  0  0  0  0  0  0  0
   -5.1384   -2.2176   -1.2006 H   0  0  0  0  0  0  0  0  0  0  0  0
    6.4396    0.2249   -2.1996 H   0  0  0  0  0  0  0  0  0  0  0  0
    6.2224   -0.5238    2.0639 H   0  0  0  0  0  0  0  0  0  0  0  0
    9.5637   -0.1902    1.1299 H   0  0  0  0  0  0  0  0  0  0  0  0
    8.2806   -1.2721    1.6603 H   0  0  0  0  0  0  0  0  0  0  0  0
    8.1884    0.5181    1.9696 H   0  0  0  0  0  0  0  0  0  0  0  0
  1  7  1  0  0  0  0
  1  8  1  0  0  0  0
  2 11  1  0  0  0  0
  2 22  1  0  0  0  0
  3 13  1  0  0  0  0
  3 25  1  0  0  0  0
  4 19  1  0  0  0  0
  4 45  1  0  0  0  0
  5 22  2  0  0  0  0
  6 32  1  0  0  0  0
  6 33  1  0  0  0  0
  7 14  1  0  0  0  0
  7 17  1  0  0  0  0
  7 18  1  0  0  0  0
  8  9  2  0  0  0  0
  8 10  1  0  0  0  0
  9 13  1  0  0  0  0
  9 15  1  0  0  0  0
 10 11  2  0  0  0  0
 10 16  1  0  0  0  0
 11 12  1  0  0  0  0
 12 13  2  0  0  0  0
 12 19  1  0  0  0  0
 14 15  2  0  0  0  0
 14 34  1  0  0  0  0
 15 35  1  0  0  0  0
 16 21  1  0  0  0  0
 16 36  1  0  0  0  0
 16 37  1  0  0  0  0
 17 38  1  0  0  0  0
 17 39  1  0  0  0  0
 17 40  1  0  0  0  0
 18 41  1  0  0  0  0
 18 42  1  0  0  0  0
 18 43  1  0  0  0  0
 19 20  2  0  0  0  0
 20 22  1  0  0  0  0
 20 23  1  0  0  0  0
 21 24  2  0  0  0  0
 21 44  1  0  0  0  0
 23 26  2  0  0  0  0
 23 27  1  0  0  0  0
 24 28  1  0  0  0  0
 24 29  1  0  0  0  0
 25 46  1  0  0  0  0
 25 47  1  0  0  0  0
 25 48  1  0  0  0  0
 26 30  1  0  0  0  0
 26 49  1  0  0  0  0
 27 31  2  0  0  0  0
 27 50  1  0  0  0  0
 28 53  1  0  0  0  0
 28 54  1  0  0  0  0
 28 55  1  0  0  0  0
 29 51  1  0  0  0  0
 29 52  1  0  0  0  0
 29 56  1  0  0  0  0
 30 32  2  0  0  0  0
 30 57  1  0  0  0  0
 31 32  1  0  0  0  0
 31 58  1  0  0  0  0
 33 59  1  0  0  0  0
 33 60  1  0  0  0  0
 33 61  1  0  0  0  0
M  END
> <PUBCHEM_COMPOUND_CID>
54699185

> <PUBCHEM_CONFORMER_RMSD>
0.8

> <PUBCHEM_CONFORMER_DIVERSEORDER>
3
14
5
17
15
11
21
4
18
2
22
20
13
12
16
19
7
10
1
9
8
6

> <PUBCHEM_MMFF94_PARTIAL_CHARGES>
39
1 -0.36
10 -0.14
11 0.08
12 0.03
13 0.08
14 -0.29
15 -0.18
16 0.28
19 0.05
2 -0.23
20 -0.01
21 -0.29
22 0.71
23 0.03
24 -0.28
25 0.28
26 -0.15
27 -0.15
28 0.14
29 0.14
3 -0.36
30 -0.15
31 -0.15
32 0.08
33 0.28
34 0.15
35 0.15
4 -0.53
44 0.15
45 0.45
49 0.15
5 -0.57
50 0.15
57 0.15
58 0.15
6 -0.36
7 0.42
8 0.08
9 0.03

> <PUBCHEM_EFFECTIVE_ROTOR_COUNT>
5.4

> <PUBCHEM_PHARMACOPHORE_FEATURES>
11
1 1 acceptor
1 3 acceptor
1 4 donor
1 5 acceptor
1 6 acceptor
3 24 28 29 hydrophobe
3 7 17 18 hydrophobe
6 1 7 8 9 14 15 rings
6 2 11 12 19 20 22 rings
6 23 26 27 30 31 32 rings
6 8 9 10 11 12 13 rings

> <PUBCHEM_HEAVY_ATOM_COUNT>
33

> <PUBCHEM_ATOM_DEF_STEREO_COUNT>
0

> <PUBCHEM_ATOM_UDEF_STEREO_COUNT>
0

> <PUBCHEM_BOND_DEF_STEREO_COUNT>
0

> <PUBCHEM_BOND_UDEF_STEREO_COUNT>
0

> <PUBCHEM_ISOTOPIC_ATOM_COUNT>
0

> <PUBCHEM_COMPONENT_COUNT>
1

> <PUBCHEM_CACTVS_TAUTO_COUNT>
3

> <PUBCHEM_CONFORMER_ID>
0342A4B100000003

> <PUBCHEM_MMFF94_ENERGY>
130.9165

> <PUBCHEM_FEATURE_SELFOVERLAP>
55.873

> <PUBCHEM_SHAPE_FINGERPRINT>
10050765 1 18268429031813988349
10290309 65 18195805391757652823
10411042 1 18194403287031099759
10675989 125 16972524119550288333
10906281 52 18188479302668279341
11135609 187 18193283107994328349
11135926 11 18342464784872580974
11578080 2 5255582486496596993
12236239 1 18060421309964825158
12645989 146 18119812409760931079
12788726 201 18117281560624282849
12838862 33 18263944265533691412
13140716 1 18336267855512419561
13540713 4 18194415390127568505
13631057 29 18341897363604827810
13782708 43 16951113102046310334
13811026 1 18334867069102923232
140371 6 18262225728917551621
14394314 77 18115586092552348953
14725015 67 18127127477478627755
14844126 61 18412825751239102819
14856354 85 18411979165486077791
15021287 119 16988837285375327269
15131766 46 16485258670736545700
1577012 14 17917424312271461262
16087824 20 18410292546011812517
17686467 74 18341900633209304064
18603816 31 15697997426993767489
18608769 82 18335138678539956339
19611394 137 18411694353367523850
21033648 29 17676787400476295818
21236236 1 18411698764520677239
22311459 1 18409449232317998372
23522609 53 17488156306395918060
23559900 14 18335990791488415745
23569943 247 16010141206440327350
25269216 80 17986365872839572318
335352 9 18408890642225725445
3380486 145 18265874974272121563
3383291 50 18261395529625836439
4073 2 18412823612297922714
4616759 239 18040720306786874675
469060 322 18264188297464862506
5104073 3 18337108960480155584
5171179 24 18044382630201581585
7226269 152 18335424611846032465

> <PUBCHEM_SHAPE_MULTIPOLES>
643.91
17.75
3.86
1.24
27.77
0.68
-0.25
4.14
-2.48
-7.85
-1.34
0.07
0.23
1.26

> <PUBCHEM_SHAPE_SELFOVERLAP>
1406.496

> <PUBCHEM_SHAPE_VOLUME>
351.4

> <PUBCHEM_COORDINATE_TYPE>
2
5
10

$$$$

