4201081
  -OEChem-07051213073D

 33 34  0     0  0  0  0  0  0999 V2000
   -4.5393   -2.0101    0.3253 O   0  0  0  0  0  0  0  0  0  0  0  0
    4.8254   -1.5970    0.2118 O   0  0  0  0  0  0  0  0  0  0  0  0
   -0.0003    1.2615   -0.4007 C   0  0  0  0  0  0  0  0  0  0  0  0
   -0.0037    2.5781    0.4405 C   0  0  0  0  0  0  0  0  0  0  0  0
   -1.2001    0.3970   -0.2092 C   0  0  0  0  0  0  0  0  0  0  0  0
    1.3149    0.4821   -0.2342 C   0  0  0  0  0  0  0  0  0  0  0  0
   -1.2000    3.4684    0.1202 C   0  0  0  0  0  0  0  0  0  0  0  0
   -2.0761    0.1730   -1.2714 C   0  0  0  0  0  0  0  0  0  0  0  0
    1.8507   -0.1349   -1.3364 C   0  0  0  0  0  0  0  0  0  0  0  0
   -1.4461   -0.1884    1.0328 C   0  0  0  0  0  0  0  0  0  0  0  0
    1.8928    0.4402    1.0097 C   0  0  0  0  0  0  0  0  0  0  0  0
   -3.1981   -0.6361   -1.0917 C   0  0  0  0  0  0  0  0  0  0  0  0
    3.0439   -0.8415   -1.1848 C   0  0  0  0  0  0  0  0  0  0  0  0
   -2.5679   -0.9977    1.2125 C   0  0  0  0  0  0  0  0  0  0  0  0
    3.0861   -0.2661    1.1613 C   0  0  0  0  0  0  0  0  0  0  0  0
   -3.4440   -1.2214    0.1502 C   0  0  0  0  0  0  0  0  0  0  0  0
    3.6616   -0.9070    0.0642 C   0  0  0  0  0  0  0  0  0  0  0  0
    0.0015    1.6144   -1.4441 H   0  0  0  0  0  0  0  0  0  0  0  0
    0.9163    3.1434    0.2441 H   0  0  0  0  0  0  0  0  0  0  0  0
   -0.0338    2.3716    1.5162 H   0  0  0  0  0  0  0  0  0  0  0  0
   -1.2359    3.7091   -0.9470 H   0  0  0  0  0  0  0  0  0  0  0  0
   -2.1443    2.9925    0.4010 H   0  0  0  0  0  0  0  0  0  0  0  0
   -1.1251    4.4090    0.6754 H   0  0  0  0  0  0  0  0  0  0  0  0
   -1.9000    0.6212   -2.2456 H   0  0  0  0  0  0  0  0  0  0  0  0
    1.3747   -0.0901   -2.3107 H   0  0  0  0  0  0  0  0  0  0  0  0
   -0.7895   -0.0217    1.8810 H   0  0  0  0  0  0  0  0  0  0  0  0
    1.4689    0.9132    1.8871 H   0  0  0  0  0  0  0  0  0  0  0  0
   -3.8728   -0.8024   -1.9271 H   0  0  0  0  0  0  0  0  0  0  0  0
    3.4869   -1.3392   -2.0431 H   0  0  0  0  0  0  0  0  0  0  0  0
   -2.7561   -1.4487    2.1830 H   0  0  0  0  0  0  0  0  0  0  0  0
    3.5561   -0.3125    2.1402 H   0  0  0  0  0  0  0  0  0  0  0  0
   -5.0325   -2.0548   -0.5119 H   0  0  0  0  0  0  0  0  0  0  0  0
    5.1113   -1.5377    1.1396 H   0  0  0  0  0  0  0  0  0  0  0  0
  1 16  1  0  0  0  0
  1 32  1  0  0  0  0
  2 17  1  0  0  0  0
  2 33  1  0  0  0  0
  3  4  1  0  0  0  0
  3  5  1  0  0  0  0
  3  6  1  0  0  0  0
  3 18  1  0  0  0  0
  4  7  1  0  0  0  0
  4 19  1  0  0  0  0
  4 20  1  0  0  0  0
  5  8  2  0  0  0  0
  5 10  1  0  0  0  0
  6  9  2  0  0  0  0
  6 11  1  0  0  0  0
  7 21  1  0  0  0  0
  7 22  1  0  0  0  0
  7 23  1  0  0  0  0
  8 12  1  0  0  0  0
  8 24  1  0  0  0  0
  9 13  1  0  0  0  0
  9 25  1  0  0  0  0
 10 14  2  0  0  0  0
 10 26  1  0  0  0  0
 11 15  2  0  0  0  0
 11 27  1  0  0  0  0
 12 16  2  0  0  0  0
 12 28  1  0  0  0  0
 13 17  2  0  0  0  0
 13 29  1  0  0  0  0
 14 16  1  0  0  0  0
 14 30  1  0  0  0  0
 15 17  1  0  0  0  0
 15 31  1  0  0  0  0
M  END
> <PUBCHEM_COMPOUND_CID>
4201081

> <PUBCHEM_CONFORMER_RMSD>
0.6

> <PUBCHEM_CONFORMER_DIVERSEORDER>
1
4
5
2
3

> <PUBCHEM_MMFF94_PARTIAL_CHARGES>
25
1 -0.53
10 -0.15
11 -0.15
12 -0.15
13 -0.15
14 -0.15
15 -0.15
16 0.08
17 0.08
2 -0.53
24 0.15
25 0.15
26 0.15
27 0.15
28 0.15
29 0.15
3 0.29
30 0.15
31 0.15
32 0.45
33 0.45
5 -0.14
6 -0.14
8 -0.15
9 -0.15

> <PUBCHEM_EFFECTIVE_ROTOR_COUNT>
3

> <PUBCHEM_PHARMACOPHORE_FEATURES>
5
1 1 donor
1 2 donor
1 7 hydrophobe
6 5 8 10 12 14 16 rings
6 6 9 11 13 15 17 rings

> <PUBCHEM_HEAVY_ATOM_COUNT>
17

> <PUBCHEM_ATOM_DEF_STEREO_COUNT>
0

> <PUBCHEM_ATOM_UDEF_STEREO_COUNT>
0

> <PUBCHEM_BOND_DEF_STEREO_COUNT>
0

> <PUBCHEM_BOND_UDEF_STEREO_COUNT>
0

> <PUBCHEM_ISOTOPIC_ATOM_COUNT>
0

> <PUBCHEM_COMPONENT_COUNT>
1

> <PUBCHEM_CACTVS_TAUTO_COUNT>
3

> <PUBCHEM_CONFORMER_ID>
00401A7900000001

> <PUBCHEM_MMFF94_ENERGY>
46.485

> <PUBCHEM_FEATURE_SELFOVERLAP>
25.371

> <PUBCHEM_SHAPE_FINGERPRINT>
10618630 7 18411416215490509934
11132069 177 6122509033801893355
11578080 2 16879381989599780073
12251169 10 15719389525239522390
12363563 72 18411135818482161663
12532896 13 17687184605118524309
12553582 1 18337654356854693359
12633257 1 16298391240525554062
12707595 3 18341895130437819255
12714826 92 18041550468489428588
13296908 3 18411143515010678677
13583140 156 13984955059770920475
14115302 16 17847062198637104517
14252887 29 18335423404938571408
14341114 328 15140963898455139442
14787075 74 17985832532363678808
15422964 175 18334005103684987159
15885798 251 18409724054616740209
15906896 17 17982999335348435297
16752209 62 17918003797121055979
1813 80 18188196633194703733
18186145 218 11311782812213906024
19765921 60 11455619721006271861
19862831 5 17203609306760182434
200 152 18131349713322942338
20361792 2 18335417937492825573
20645477 70 18124602981532195399
20671657 53 18339077090883961241
20832881 197 18271803493845989515
20871998 22 18336829693132504249
21296965 67 18410576158684731169
23402539 116 18342176708778562158
23402655 69 14620524457687947598
23403322 49 18273218629076440066
23503958 8 18197503033331400410
23526113 38 17915740877610882217
23557571 272 18116155644007042896
23559900 14 18200328705332027456
25 1 12247687105513589964
3082319 5 15841556266475621055
3286 77 18270401560559457895
463206 1 18272094855316137627
6049 1 17677045875781875076
633830 44 12247136284706042255
7097593 13 15285349656748999206
7364860 26 17977099068111748465
7615 1 17916287494188798812
81228 2 18265050408765117145
84936 182 10735065826530599295

> <PUBCHEM_SHAPE_MULTIPOLES>
338.11
7.32
2.44
1.31
1.99
2.63
-0.09
-6.36
0.34
-1.39
0.3
0.05
-0.21
0.38

> <PUBCHEM_SHAPE_SELFOVERLAP>
722.601

> <PUBCHEM_SHAPE_VOLUME>
187.9

> <PUBCHEM_COORDINATE_TYPE>
2
5
10

$$$$

