13167
  -OEChem-06261207502D

 12 10  0     0  0  0  0  0  0999 V2000
    4.7320    0.7500    0.0000 Ca  0  2  0  0  0  0  0  0  0  0  0  0
    3.8660   -0.7500    0.0000 S   0  0  0  0  0  0  0  0  0  0  0  0
    3.0000    0.7500    0.0000 S   0  0  0  0  0  0  0  0  0  0  0  0
    4.7320   -0.2500    0.0000 O   0  5  0  0  0  0  0  0  0  0  0  0
    3.8660    1.2500    0.0000 O   0  5  0  0  0  0  0  0  0  0  0  0
    4.3660   -1.6160    0.0000 O   0  0  0  0  0  0  0  0  0  0  0  0
    3.3660   -1.6160    0.0000 O   0  0  0  0  0  0  0  0  0  0  0  0
    2.5000    1.6160    0.0000 O   0  0  0  0  0  0  0  0  0  0  0  0
    2.0000    0.7500    0.0000 O   0  0  0  0  0  0  0  0  0  0  0  0
    3.0000   -0.2500    0.0000 C   0  0  0  0  0  0  0  0  0  0  0  0
    2.3894   -0.1423    0.0000 H   0  0  0  0  0  0  0  0  0  0  0  0
    2.7880   -0.8326    0.0000 H   0  0  0  0  0  0  0  0  0  0  0  0
  2  4  1  0  0  0  0
  2  6  2  0  0  0  0
  2  7  2  0  0  0  0
  2 10  1  0  0  0  0
  3  5  1  0  0  0  0
  3  8  2  0  0  0  0
  3  9  2  0  0  0  0
  3 10  1  0  0  0  0
 10 11  1  0  0  0  0
 10 12  1  0  0  0  0
M  CHG  3   1   2   4  -1   5  -1
M  END
> <PUBCHEM_COMPOUND_CID>
13167

> <PUBCHEM_COMPOUND_CANONICALIZED>
1

> <PUBCHEM_CACTVS_COMPLEXITY>
199

> <PUBCHEM_CACTVS_HBOND_ACCEPTOR>
6

> <PUBCHEM_CACTVS_HBOND_DONOR>
0

> <PUBCHEM_CACTVS_ROTATABLE_BOND>
0

> <PUBCHEM_CACTVS_SUBSKEYS>
AAADcQAAOABgAAgAAAAAAAAAAAAAAAAAAAAAAAAAAAAAAAAAAAAAEAQAAAAAAAAAAACAAAAAAAIAAAAAAHAAAAAAAAAAAAAAAAAAAAAAAAAAAAAAAAAAAAAAAAAAAAAAAAAAAAAAAAAAAAAAAAAAAAAAAA==

> <PUBCHEM_IUPAC_OPENEYE_NAME>
calcium methanedisulfonate

> <PUBCHEM_IUPAC_CAS_NAME>
calcium methanedisulfonate

> <PUBCHEM_IUPAC_NAME>
calcium methanedisulfonate

> <PUBCHEM_IUPAC_SYSTEMATIC_NAME>
calcium methanedisulfonate

> <PUBCHEM_IUPAC_TRADITIONAL_NAME>
calcium methanedisulfonate

> <PUBCHEM_IUPAC_INCHI>
InChI=1S/CH4O6S2.Ca/c2-8(3,4)1-9(5,6)7;/h1H2,(H,2,3,4)(H,5,6,7);/q;+2/p-2

> <PUBCHEM_IUPAC_INCHIKEY>
RPHZRUDLEUBFCM-UHFFFAOYSA-L

> <PUBCHEM_EXACT_MASS>
213.891871

> <PUBCHEM_MOLECULAR_FORMULA>
CH2CaO6S2

> <PUBCHEM_MOLECULAR_WEIGHT>
214.23098

> <PUBCHEM_OPENEYE_CAN_SMILES>
C(S(=O)(=O)[O-])S(=O)(=O)[O-].[Ca+2]

> <PUBCHEM_OPENEYE_ISO_SMILES>
C(S(=O)(=O)[O-])S(=O)(=O)[O-].[Ca+2]

> <PUBCHEM_CACTVS_TPSA>
131

> <PUBCHEM_MONOISOTOPIC_WEIGHT>
213.891871

> <PUBCHEM_TOTAL_CHARGE>
0

> <PUBCHEM_HEAVY_ATOM_COUNT>
10

> <PUBCHEM_ATOM_DEF_STEREO_COUNT>
0

> <PUBCHEM_ATOM_UDEF_STEREO_COUNT>
0

> <PUBCHEM_BOND_DEF_STEREO_COUNT>
0

> <PUBCHEM_BOND_UDEF_STEREO_COUNT>
0

> <PUBCHEM_ISOTOPIC_ATOM_COUNT>
0

> <PUBCHEM_COMPONENT_COUNT>
2

> <PUBCHEM_CACTVS_TAUTO_COUNT>
1

> <PUBCHEM_COORDINATE_TYPE>
1
5
255

$$$$

