11988278
  -OEChem-07051213083D

 77 80  0     1  0  0  0  0  0999 V2000
    7.7181    0.4400    1.5617 O   0  0  0  0  0  0  0  0  0  0  0  0
   -0.4850    0.0505   -0.9930 C   0  0  1  0  0  0  0  0  0  0  0  0
    0.2822   -1.0594   -0.2426 C   0  0  2  0  0  0  0  0  0  0  0  0
    1.7900   -1.0296   -0.5133 C   0  0  1  0  0  0  0  0  0  0  0  0
    2.3543    0.3529   -0.0542 C   0  0  1  0  0  0  0  0  0  0  0  0
   -1.9263   -0.3046   -0.5530 C   0  0  2  0  0  0  0  0  0  0  0  0
    0.0295    1.4032   -0.4815 C   0  0  0  0  0  0  0  0  0  0  0  0
    3.9131    0.4701   -0.2509 C   0  0  2  0  0  0  0  0  0  0  0  0
   -0.5051   -2.3247   -0.5696 C   0  0  0  0  0  0  0  0  0  0  0  0
    1.5526    1.5367   -0.6610 C   0  0  0  0  0  0  0  0  0  0  0  0
   -1.9674   -1.8479   -0.6469 C   0  0  0  0  0  0  0  0  0  0  0  0
    2.5149   -2.1688    0.2165 C   0  0  0  0  0  0  0  0  0  0  0  0
   -3.0579    0.3654   -1.3191 C   0  0  1  0  0  0  0  0  0  0  0  0
   -0.3414   -0.0122   -2.5345 C   0  0  0  0  0  0  0  0  0  0  0  0
    4.5896   -0.7642    0.3621 C   0  0  0  0  0  0  0  0  0  0  0  0
    4.0201   -2.1094   -0.0167 C   0  0  0  0  0  0  0  0  0  0  0  0
    4.4082    1.7747    0.4490 C   0  0  0  0  0  0  0  0  0  0  0  0
    4.3031    0.5388   -1.7463 C   0  0  0  0  0  0  0  0  0  0  0  0
   -4.4224   -0.1259   -0.7893 C   0  0  0  0  0  0  0  0  0  0  0  0
    5.9098    1.7747    0.7117 C   0  0  0  0  0  0  0  0  0  0  0  0
    5.6395   -0.6845    1.2008 C   0  0  0  0  0  0  0  0  0  0  0  0
   -2.9230    1.8892   -1.2305 C   0  0  0  0  0  0  0  0  0  0  0  0
    6.3021    0.5986    1.6015 C   0  0  1  0  0  0  0  0  0  0  0  0
   -4.6204    0.1139    0.7125 C   0  0  0  0  0  0  0  0  0  0  0  0
   -5.9927   -0.3632    1.2460 C   0  0  2  0  0  0  0  0  0  0  0  0
   -7.2080    0.1839    0.4430 C   0  0  0  0  0  0  0  0  0  0  0  0
   -6.0701   -0.0531    2.7479 C   0  0  0  0  0  0  0  0  0  0  0  0
   -8.5390   -0.3572    0.9785 C   0  0  0  0  0  0  0  0  0  0  0  0
   -7.2684    1.7120    0.3712 C   0  0  0  0  0  0  0  0  0  0  0  0
    0.1561   -0.8973    0.8414 H   0  0  0  0  0  0  0  0  0  0  0  0
    1.9656   -1.1641   -1.5859 H   0  0  0  0  0  0  0  0  0  0  0  0
    2.1751    0.4046    1.0325 H   0  0  0  0  0  0  0  0  0  0  0  0
   -1.9953   -0.0344    0.5091 H   0  0  0  0  0  0  0  0  0  0  0  0
   -0.2089    1.5232    0.5831 H   0  0  0  0  0  0  0  0  0  0  0  0
   -0.4166    2.2516   -1.0012 H   0  0  0  0  0  0  0  0  0  0  0  0
   -0.3795   -3.0949    0.1982 H   0  0  0  0  0  0  0  0  0  0  0  0
   -0.1924   -2.7564   -1.5269 H   0  0  0  0  0  0  0  0  0  0  0  0
    1.7781    1.6401   -1.7272 H   0  0  0  0  0  0  0  0  0  0  0  0
    1.8616    2.4763   -0.1893 H   0  0  0  0  0  0  0  0  0  0  0  0
   -2.4129   -2.1960   -1.5859 H   0  0  0  0  0  0  0  0  0  0  0  0
   -2.5553   -2.2725    0.1742 H   0  0  0  0  0  0  0  0  0  0  0  0
    2.1431   -3.1386   -0.1340 H   0  0  0  0  0  0  0  0  0  0  0  0
    2.3065   -2.1191    1.2933 H   0  0  0  0  0  0  0  0  0  0  0  0
   -3.0234    0.0873   -2.3798 H   0  0  0  0  0  0  0  0  0  0  0  0
    0.7008    0.0310   -2.8618 H   0  0  0  0  0  0  0  0  0  0  0  0
   -0.7632   -0.9304   -2.9557 H   0  0  0  0  0  0  0  0  0  0  0  0
   -0.8477    0.8275   -3.0204 H   0  0  0  0  0  0  0  0  0  0  0  0
    4.2384   -2.3075   -1.0731 H   0  0  0  0  0  0  0  0  0  0  0  0
    4.4957   -2.9183    0.5512 H   0  0  0  0  0  0  0  0  0  0  0  0
    3.8933    1.9031    1.4109 H   0  0  0  0  0  0  0  0  0  0  0  0
    4.1577    2.6550   -0.1555 H   0  0  0  0  0  0  0  0  0  0  0  0
    5.3896    0.4829   -1.8809 H   0  0  0  0  0  0  0  0  0  0  0  0
    3.8706   -0.2804   -2.3288 H   0  0  0  0  0  0  0  0  0  0  0  0
    3.9732    1.4760   -2.2070 H   0  0  0  0  0  0  0  0  0  0  0  0
   -5.1974    0.3929   -1.3635 H   0  0  0  0  0  0  0  0  0  0  0  0
   -4.5522   -1.1928   -1.0059 H   0  0  0  0  0  0  0  0  0  0  0  0
    6.4690    1.7461   -0.2319 H   0  0  0  0  0  0  0  0  0  0  0  0
    6.2073    2.7124    1.1969 H   0  0  0  0  0  0  0  0  0  0  0  0
    6.0528   -1.5965    1.6255 H   0  0  0  0  0  0  0  0  0  0  0  0
   -3.8784    2.3662   -1.4803 H   0  0  0  0  0  0  0  0  0  0  0  0
   -2.2123    2.2760   -1.9635 H   0  0  0  0  0  0  0  0  0  0  0  0
   -2.6496    2.2312   -0.2276 H   0  0  0  0  0  0  0  0  0  0  0  0
    6.0285    0.8209    2.6399 H   0  0  0  0  0  0  0  0  0  0  0  0
   -3.8596   -0.4258    1.2855 H   0  0  0  0  0  0  0  0  0  0  0  0
   -4.4888    1.1773    0.9429 H   0  0  0  0  0  0  0  0  0  0  0  0
   -6.0107   -1.4579    1.1465 H   0  0  0  0  0  0  0  0  0  0  0  0
    7.9557   -0.2708    2.1817 H   0  0  0  0  0  0  0  0  0  0  0  0
   -7.1295   -0.1917   -0.5846 H   0  0  0  0  0  0  0  0  0  0  0  0
   -6.9636   -0.4890    3.2038 H   0  0  0  0  0  0  0  0  0  0  0  0
   -6.0755    1.0244    2.9393 H   0  0  0  0  0  0  0  0  0  0  0  0
   -5.2072   -0.4779    3.2730 H   0  0  0  0  0  0  0  0  0  0  0  0
   -8.5088   -1.4476    1.0732 H   0  0  0  0  0  0  0  0  0  0  0  0
   -9.3561   -0.1071    0.2926 H   0  0  0  0  0  0  0  0  0  0  0  0
   -8.7913    0.0688    1.9546 H   0  0  0  0  0  0  0  0  0  0  0  0
   -8.1217    2.0323   -0.2371 H   0  0  0  0  0  0  0  0  0  0  0  0
   -7.3859    2.1588    1.3633 H   0  0  0  0  0  0  0  0  0  0  0  0
   -6.3700    2.1336   -0.0882 H   0  0  0  0  0  0  0  0  0  0  0  0
  1 23  1  0  0  0  0
  1 67  1  0  0  0  0
  2  3  1  0  0  0  0
  2  6  1  0  0  0  0
  2  7  1  0  0  0  0
  2 14  1  0  0  0  0
  3  4  1  0  0  0  0
  3  9  1  0  0  0  0
  3 30  1  0  0  0  0
  4  5  1  0  0  0  0
  4 12  1  0  0  0  0
  4 31  1  0  0  0  0
  5  8  1  0  0  0  0
  5 10  1  0  0  0  0
  5 32  1  0  0  0  0
  6 11  1  0  0  0  0
  6 13  1  0  0  0  0
  6 33  1  0  0  0  0
  7 10  1  0  0  0  0
  7 34  1  0  0  0  0
  7 35  1  0  0  0  0
  8 15  1  0  0  0  0
  8 17  1  0  0  0  0
  8 18  1  0  0  0  0
  9 11  1  0  0  0  0
  9 36  1  0  0  0  0
  9 37  1  0  0  0  0
 10 38  1  0  0  0  0
 10 39  1  0  0  0  0
 11 40  1  0  0  0  0
 11 41  1  0  0  0  0
 12 16  1  0  0  0  0
 12 42  1  0  0  0  0
 12 43  1  0  0  0  0
 13 19  1  0  0  0  0
 13 22  1  0  0  0  0
 13 44  1  0  0  0  0
 14 45  1  0  0  0  0
 14 46  1  0  0  0  0
 14 47  1  0  0  0  0
 15 16  1  0  0  0  0
 15 21  2  0  0  0  0
 16 48  1  0  0  0  0
 16 49  1  0  0  0  0
 17 20  1  0  0  0  0
 17 50  1  0  0  0  0
 17 51  1  0  0  0  0
 18 52  1  0  0  0  0
 18 53  1  0  0  0  0
 18 54  1  0  0  0  0
 19 24  1  0  0  0  0
 19 55  1  0  0  0  0
 19 56  1  0  0  0  0
 20 23  1  0  0  0  0
 20 57  1  0  0  0  0
 20 58  1  0  0  0  0
 21 23  1  0  0  0  0
 21 59  1  0  0  0  0
 22 60  1  0  0  0  0
 22 61  1  0  0  0  0
 22 62  1  0  0  0  0
 23 63  1  0  0  0  0
 24 25  1  0  0  0  0
 24 64  1  0  0  0  0
 24 65  1  0  0  0  0
 25 26  1  0  0  0  0
 25 27  1  0  0  0  0
 25 66  1  0  0  0  0
 26 28  1  0  0  0  0
 26 29  1  0  0  0  0
 26 68  1  0  0  0  0
 27 69  1  0  0  0  0
 27 70  1  0  0  0  0
 27 71  1  0  0  0  0
 28 72  1  0  0  0  0
 28 73  1  0  0  0  0
 28 74  1  0  0  0  0
 29 75  1  0  0  0  0
 29 76  1  0  0  0  0
 29 77  1  0  0  0  0
M  END
> <PUBCHEM_COMPOUND_CID>
11988278

> <PUBCHEM_CONFORMER_RMSD>
0.8

> <PUBCHEM_CONFORMER_DIVERSEORDER>
2
3
1
7
5
4
6

> <PUBCHEM_MMFF94_PARTIAL_CHARGES>
8
1 -0.68
15 -0.28
16 0.14
21 -0.29
23 0.42
59 0.15
67 0.4
8 0.14

> <PUBCHEM_EFFECTIVE_ROTOR_COUNT>
7

> <PUBCHEM_PHARMACOPHORE_FEATURES>
10
1 1 acceptor
1 1 donor
1 22 hydrophobe
1 27 hydrophobe
3 26 28 29 hydrophobe
5 13 19 24 25 26 hydrophobe
5 2 3 6 9 11 rings
6 2 3 4 5 7 10 rings
6 4 5 8 12 15 16 rings
6 8 15 17 20 21 23 rings

> <PUBCHEM_HEAVY_ATOM_COUNT>
29

> <PUBCHEM_ATOM_DEF_STEREO_COUNT>
9

> <PUBCHEM_ATOM_UDEF_STEREO_COUNT>
0

> <PUBCHEM_BOND_DEF_STEREO_COUNT>
0

> <PUBCHEM_BOND_UDEF_STEREO_COUNT>
0

> <PUBCHEM_ISOTOPIC_ATOM_COUNT>
0

> <PUBCHEM_COMPONENT_COUNT>
1

> <PUBCHEM_CACTVS_TAUTO_COUNT>
1

> <PUBCHEM_CONFORMER_ID>
00B6ED3600000002

> <PUBCHEM_MMFF94_ENERGY>
87.818

> <PUBCHEM_FEATURE_SELFOVERLAP>
50.854

> <PUBCHEM_SHAPE_FINGERPRINT>
10 15 18273496745314631840
10162869 55 18335426730298371423
10554248 39 15648175381765286813
10693767 8 10231768772905672928
11135609 201 17603592919435248914
11456790 92 18335711567522442288
11646440 116 18410857659605546448
11991303 11 7492990865690667737
12035758 1 18272934912026210378
12236239 1 17603310349062769911
12422481 6 18272642442482134047
13140716 1 18196096538852650764
13540713 4 18054515969406645326
13540713 5 17981044115684100750
13668630 136 11312054357468945201
13673619 4 14620799288439506495
13782708 43 15841835546829311539
13811026 1 18059858372737926573
14251757 52 16443062794216641849
14251764 18 18113623356900395509
14849402 71 18041000588422579169
15082195 135 7420935513620153706
15183329 4 8502377724444494231
15188451 53 15698001833798848115
15475509 35 16701753743222889994
15840311 113 17822005423862232357
16994733 274 16298383582952072939
18222031 100 10807937059378699302
1979834 28 18413668028579773422
20028762 73 14692574316758658480
20105231 36 18201720687485880514
21130935 74 18334014999469563023
21150785 3 11959729374318371138
21267235 1 18270961349406549350
21424621 283 16298380275737440619
21623969 137 18273495680125682883
21637258 2 14836125446531538259
21781051 124 17775273985565712482
21792934 111 18272938262623005821
22122407 14 17313380067904980907
22149856 69 18269259305406732593
22224240 67 18408603656874512799
22956985 138 14475022858785281472
23559900 14 18334868225657336606
23576562 1 6554826006558811593
23845131 108 17264137649783100581
24771293 8 18189063014398988772
29717793 49 11527948962782276699
3004659 81 8502652601729030415
3178227 256 18343303652547340600
392239 28 18411704257377205747
4093350 32 17167859785884597790
4340502 62 18344148094245897874
465052 167 16917347022199426204
504579 68 7997973487688786568
5104073 3 18128262370328835521
5283156 175 13254799045130976375
5385378 56 18187645834120981358

> <PUBCHEM_SHAPE_MULTIPOLES>
590.94
20.62
2.01
1.8
19.58
0.36
0.21
-4.51
14.35
-1.29
-0.22
0.69
-0.18
0.62

> <PUBCHEM_SHAPE_SELFOVERLAP>
1222.937

> <PUBCHEM_SHAPE_VOLUME>
337.9

> <PUBCHEM_COORDINATE_TYPE>
2
5
10

$$$$

