5281584
  -OEChem-07051212582D

 77 81  0     1  0  0  0  0  0999 V2000
    9.5582    0.5124    0.0000 O   0  0  0  0  0  0  0  0  0  0  0  0
    8.4588   -0.3429    0.0000 O   0  0  0  0  0  0  0  0  0  0  0  0
    7.8501   -1.2885    0.0000 O   0  0  0  0  0  0  0  0  0  0  0  0
    5.7944    0.2360    0.0000 O   0  0  0  0  0  0  0  0  0  0  0  0
    6.6014   -0.7123    0.0000 N   0  0  0  0  0  0  0  0  0  0  0  0
    7.0191    1.4607    0.0000 N   0  0  0  0  0  0  0  0  0  0  0  0
    7.7262   -3.1782    0.0000 N   0  0  0  0  0  0  0  0  0  0  0  0
    5.6049    2.8749    0.0000 N   0  0  0  0  0  0  0  0  0  0  0  0
    6.6014   -1.7123    0.0000 C   0  0  1  0  0  0  0  0  0  0  0  0
    5.6551   -2.0171    0.0000 C   0  0  0  0  0  0  0  0  0  0  0  0
    5.0715   -1.2123    0.0000 C   0  0  0  0  0  0  0  0  0  0  0  0
    5.6551   -0.4076    0.0000 C   0  0  0  0  0  0  0  0  0  0  0  0
    7.7262    0.7536    0.0000 C   0  0  2  0  0  0  0  0  0  0  0  0
    7.4674   -0.2123    0.0000 C   0  0  0  0  0  0  0  0  0  0  0  0
    7.4674   -2.2123    0.0000 C   0  0  0  0  0  0  0  0  0  0  0  0
    8.6921    1.0124    0.0000 C   0  0  1  0  0  0  0  0  0  0  0  0
    8.8227    2.0039    0.0000 C   0  0  0  0  0  0  0  0  0  0  0  0
    5.3461    1.9090    0.0000 C   0  0  2  0  0  0  0  0  0  0  0  0
    6.0532    1.2019    0.0000 C   0  0  0  0  0  0  0  0  0  0  0  0
    4.3801    1.6502    0.0000 C   0  0  0  0  0  0  0  0  0  0  0  0
    9.7465    2.3866    0.0000 C   0  0  0  0  0  0  0  0  0  0  0  0
    8.0293    2.6126    0.0000 C   0  0  0  0  0  0  0  0  0  0  0  0
    9.5582   -0.4876    0.0000 C   0  0  0  0  0  0  0  0  0  0  0  0
    8.6921   -2.9194    0.0000 C   0  0  0  0  0  0  0  0  0  0  0  0
    3.6730    2.3573    0.0000 C   0  0  0  0  0  0  0  0  0  0  0  0
    4.8978    3.5820    0.0000 C   0  0  0  0  0  0  0  0  0  0  0  0
    6.5708    3.1337    0.0000 C   0  0  0  0  0  0  0  0  0  0  0  0
    9.8771    3.3780    0.0000 C   0  0  0  0  0  0  0  0  0  0  0  0
    8.1598    3.6041    0.0000 C   0  0  0  0  0  0  0  0  0  0  0  0
    9.5582   -3.4876    0.0000 C   0  0  0  0  0  0  0  0  0  0  0  0
   10.4242   -0.9876    0.0000 C   0  0  0  0  0  0  0  0  0  0  0  0
    8.6921   -0.9876    0.0000 C   0  0  0  0  0  0  0  0  0  0  0  0
    9.5582   -2.4876    0.0000 C   0  0  0  0  0  0  0  0  0  0  0  0
    9.0837    3.9868    0.0000 C   0  0  0  0  0  0  0  0  0  0  0  0
   10.4242   -1.9876    0.0000 C   0  0  0  0  0  0  0  0  0  0  0  0
    8.6921   -1.9876    0.0000 C   0  0  0  0  0  0  0  0  0  0  0  0
    3.9318    3.3232    0.0000 C   0  0  0  0  0  0  0  0  0  0  0  0
    2.7071    2.0985    0.0000 C   0  0  0  0  0  0  0  0  0  0  0  0
    3.2247    4.0303    0.0000 C   0  0  0  0  0  0  0  0  0  0  0  0
    2.0000    2.8056    0.0000 C   0  0  0  0  0  0  0  0  0  0  0  0
    2.2588    3.7715    0.0000 C   0  0  0  0  0  0  0  0  0  0  0  0
    6.6014   -2.5623    0.0000 H   0  0  0  0  0  0  0  0  0  0  0  0
    5.1178   -2.3263    0.0000 H   0  0  0  0  0  0  0  0  0  0  0  0
    5.9062   -2.5840    0.0000 H   0  0  0  0  0  0  0  0  0  0  0  0
    5.9062    0.1593    0.0000 H   0  0  0  0  0  0  0  0  0  0  0  0
    5.1178   -0.0984    0.0000 H   0  0  0  0  0  0  0  0  0  0  0  0
    4.6107   -0.7976    0.0000 H   0  0  0  0  0  0  0  0  0  0  0  0
    4.6107   -1.6271    0.0000 H   0  0  0  0  0  0  0  0  0  0  0  0
    7.1273    0.5931    0.0000 H   0  0  0  0  0  0  0  0  0  0  0  0
    8.2260    1.4212    0.0000 H   0  0  0  0  0  0  0  0  0  0  0  0
    7.1796    2.0596    0.0000 H   0  0  0  0  0  0  0  0  0  0  0  0
    4.9077    2.3474    0.0000 H   0  0  0  0  0  0  0  0  0  0  0  0
    7.4162   -3.7152    0.0000 H   0  0  0  0  0  0  0  0  0  0  0  0
    3.8723    1.2946    0.0000 H   0  0  0  0  0  0  0  0  0  0  0  0
    4.6422    1.0883    0.0000 H   0  0  0  0  0  0  0  0  0  0  0  0
   10.2384    2.0091    0.0000 H   0  0  0  0  0  0  0  0  0  0  0  0
    7.4565    2.3754    0.0000 H   0  0  0  0  0  0  0  0  0  0  0  0
    8.9725   -2.3665    0.0000 H   0  0  0  0  0  0  0  0  0  0  0  0
    5.3362    4.0204    0.0000 H   0  0  0  0  0  0  0  0  0  0  0  0
    4.4594    4.0204    0.0000 H   0  0  0  0  0  0  0  0  0  0  0  0
    4.4594    3.1436    0.0000 H   0  0  0  0  0  0  0  0  0  0  0  0
    6.7313    2.5349    0.0000 H   0  0  0  0  0  0  0  0  0  0  0  0
    7.1697    3.2942    0.0000 H   0  0  0  0  0  0  0  0  0  0  0  0
    6.4103    3.7326    0.0000 H   0  0  0  0  0  0  0  0  0  0  0  0
   10.4499    3.6153    0.0000 H   0  0  0  0  0  0  0  0  0  0  0  0
    7.6680    3.9815    0.0000 H   0  0  0  0  0  0  0  0  0  0  0  0
    9.8579   -4.0303    0.0000 H   0  0  0  0  0  0  0  0  0  0  0  0
   10.9611   -0.6776    0.0000 H   0  0  0  0  0  0  0  0  0  0  0  0
    8.1552   -0.6776    0.0000 H   0  0  0  0  0  0  0  0  0  0  0  0
    9.1646    4.6014    0.0000 H   0  0  0  0  0  0  0  0  0  0  0  0
   10.9611   -2.2976    0.0000 H   0  0  0  0  0  0  0  0  0  0  0  0
    8.1552   -2.2976    0.0000 H   0  0  0  0  0  0  0  0  0  0  0  0
    4.5307    3.4837    0.0000 H   0  0  0  0  0  0  0  0  0  0  0  0
    2.5466    1.4996    0.0000 H   0  0  0  0  0  0  0  0  0  0  0  0
    3.3852    4.6292    0.0000 H   0  0  0  0  0  0  0  0  0  0  0  0
    1.4011    2.6451    0.0000 H   0  0  0  0  0  0  0  0  0  0  0  0
    1.8204    4.2099    0.0000 H   0  0  0  0  0  0  0  0  0  0  0  0
  1 16  1  0  0  0  0
  1 23  1  0  0  0  0
  2 14  2  0  0  0  0
  3 15  2  0  0  0  0
  4 19  2  0  0  0  0
  5  9  1  0  0  0  0
  5 12  1  0  0  0  0
  5 14  1  0  0  0  0
 13  6  1  1  0  0  0
  6 19  1  0  0  0  0
  6 51  1  0  0  0  0
  7 15  1  0  0  0  0
  7 24  1  0  0  0  0
  7 53  1  0  0  0  0
 18  8  1  6  0  0  0
  8 26  1  0  0  0  0
  8 27  1  0  0  0  0
  9 10  1  0  0  0  0
  9 15  1  0  0  0  0
  9 42  1  1  0  0  0
 10 11  1  0  0  0  0
 10 43  1  0  0  0  0
 10 44  1  0  0  0  0
 11 12  1  0  0  0  0
 11 47  1  0  0  0  0
 11 48  1  0  0  0  0
 12 45  1  0  0  0  0
 12 46  1  0  0  0  0
 13 14  1  0  0  0  0
 13 16  1  0  0  0  0
 13 49  1  0  0  0  0
 16 17  1  1  0  0  0
 16 50  1  0  0  0  0
 17 21  2  0  0  0  0
 17 22  1  0  0  0  0
 18 19  1  0  0  0  0
 18 20  1  0  0  0  0
 18 52  1  0  0  0  0
 20 25  1  0  0  0  0
 20 54  1  0  0  0  0
 20 55  1  0  0  0  0
 21 28  1  0  0  0  0
 21 56  1  0  0  0  0
 22 29  2  0  0  0  0
 22 57  1  0  0  0  0
 23 31  2  0  0  0  0
 23 32  1  0  0  0  0
 24 30  2  0  0  0  0
 24 58  1  0  0  0  0
 25 37  2  0  0  0  0
 25 38  1  0  0  0  0
 26 59  1  0  0  0  0
 26 60  1  0  0  0  0
 26 61  1  0  0  0  0
 27 62  1  0  0  0  0
 27 63  1  0  0  0  0
 27 64  1  0  0  0  0
 28 34  2  0  0  0  0
 28 65  1  0  0  0  0
 29 34  1  0  0  0  0
 29 66  1  0  0  0  0
 30 33  1  0  0  0  0
 30 67  1  0  0  0  0
 31 35  1  0  0  0  0
 31 68  1  0  0  0  0
 32 36  2  0  0  0  0
 32 69  1  0  0  0  0
 33 35  2  0  0  0  0
 33 36  1  0  0  0  0
 34 70  1  0  0  0  0
 35 71  1  0  0  0  0
 36 72  1  0  0  0  0
 37 39  1  0  0  0  0
 37 73  1  0  0  0  0
 38 40  2  0  0  0  0
 38 74  1  0  0  0  0
 39 41  2  0  0  0  0
 39 75  1  0  0  0  0
 40 41  1  0  0  0  0
 40 76  1  0  0  0  0
 41 77  1  0  0  0  0
M  END
> <PUBCHEM_COMPOUND_CID>
5281584

> <PUBCHEM_COMPOUND_CANONICALIZED>
1

> <PUBCHEM_CACTVS_COMPLEXITY>
918

> <PUBCHEM_CACTVS_HBOND_ACCEPTOR>
5

> <PUBCHEM_CACTVS_HBOND_DONOR>
2

> <PUBCHEM_CACTVS_ROTATABLE_BOND>
6

> <PUBCHEM_CACTVS_SUBSKEYS>
AAADcfB/uAAAAAAAAAAAAAAAAAAAAWAAAAAwYMAAAAAAAAABUAAAHgAQAAAADDzhmAYyBoPABACIAiFWUAACCAAgIgAIiIGOCIgOZjaEsTuXOCCm9hGYqAeYyaCOIAAAAAAAAABAAAAAAAAAAAAAAAAAAA==

> <PUBCHEM_IUPAC_INCHI>
InChI=1S/C33H36N4O4/c1-36(2)28(22-24-10-5-3-6-11-24)32(39)35-29-30(25-12-7-4-8-13-25)41-26-17-15-23(16-18-26)19-20-34-31(38)27-14-9-21-37(27)33(29)40/h3-8,10-13,15-20,27-30H,9,14,21-22H2,1-2H3,(H,34,38)(H,35,39)/b20-19-/t27-,28-,29-,30+/m0/s1

> <PUBCHEM_IUPAC_INCHIKEY>
DTRFQNPOYWLHOU-RIINEJRYSA-N

> <PUBCHEM_XLOGP3_AA>
4.4

> <PUBCHEM_EXACT_MASS>
552.273656

> <PUBCHEM_MOLECULAR_FORMULA>
C33H36N4O4

> <PUBCHEM_MOLECULAR_WEIGHT>
552.66334

> <PUBCHEM_OPENEYE_CAN_SMILES>
CN(C)C(CC1=CC=CC=C1)C(=O)NC2C(OC3=CC=C(C=C3)C=CNC(=O)C4CCCN4C2=O)C5=CC=CC=C5

> <PUBCHEM_OPENEYE_ISO_SMILES>
CN(C)[C@@H](CC1=CC=CC=C1)C(=O)N[C@H]2[C@H](OC3=CC=C(C=C3)/C=C\NC(=O)[C@@H]4CCCN4C2=O)C5=CC=CC=C5

> <PUBCHEM_CACTVS_TPSA>
91

> <PUBCHEM_MONOISOTOPIC_WEIGHT>
552.273656

> <PUBCHEM_TOTAL_CHARGE>
0

> <PUBCHEM_HEAVY_ATOM_COUNT>
41

> <PUBCHEM_ATOM_DEF_STEREO_COUNT>
4

> <PUBCHEM_ATOM_UDEF_STEREO_COUNT>
0

> <PUBCHEM_BOND_DEF_STEREO_COUNT>
1

> <PUBCHEM_BOND_UDEF_STEREO_COUNT>
0

> <PUBCHEM_ISOTOPIC_ATOM_COUNT>
0

> <PUBCHEM_COMPONENT_COUNT>
1

> <PUBCHEM_CACTVS_TAUTO_COUNT>
8

> <PUBCHEM_COORDINATE_TYPE>
1
5
255

> <PUBCHEM_BONDANNOTATIONS>
16  17  5
17  21  8
17  22  8
21  28  8
22  29  8
23  31  8
23  32  8
25  37  8
25  38  8
28  34  8
29  34  8
31  35  8
32  36  8
33  35  8
33  36  8
37  39  8
38  40  8
39  41  8
40  41  8
13  6  5
18  8  6
9  42  5

$$$$

