115056
  -OEChem-07051213102D

 31 32  0     1  0  0  0  0  0999 V2000
    3.6120    1.2375    0.0000 O   0  0  0  0  0  0  0  0  0  0  0  0
    2.5989   -2.5430    0.0000 O   0  0  0  0  0  0  0  0  0  0  0  0
    6.9217   -2.2019    0.0000 O   0  0  0  0  0  0  0  0  0  0  0  0
    4.8486    0.3889    0.0000 C   0  0  0  0  0  0  0  0  0  0  0  0
    4.5897   -0.5770    0.0000 C   0  0  0  0  0  0  0  0  0  0  0  0
    4.4780    1.7375    0.0000 C   0  0  0  0  0  0  0  0  0  0  0  0
    2.8577   -1.5770    0.0000 C   0  0  3  0  0  0  0  0  0  0  0  0
    6.4217   -1.3359    0.0000 C   0  0  3  0  0  0  0  0  0  0  0  0
    2.3577   -0.7110    0.0000 C   0  0  0  0  0  0  0  0  0  0  0  0
    6.6805   -0.3699    0.0000 C   0  0  0  0  0  0  0  0  0  0  0  0
    4.3309   -1.5430    0.0000 C   0  0  0  0  0  0  0  0  0  0  0  0
    5.1851    2.4446    0.0000 C   0  0  0  0  0  0  0  0  0  0  0  0
    4.2192    2.7034    0.0000 C   0  0  0  0  0  0  0  0  0  0  0  0
    4.8557   -0.2311    0.0000 H   0  0  0  0  0  0  0  0  0  0  0  0
    5.8612   -1.9749    0.0000 H   0  0  0  0  0  0  0  0  0  0  0  0
    2.0150   -1.6880    0.0000 H   0  0  0  0  0  0  0  0  0  0  0  0
    2.0870   -0.1532    0.0000 H   0  0  0  0  0  0  0  0  0  0  0  0
    1.8100   -1.0015    0.0000 H   0  0  0  0  0  0  0  0  0  0  0  0
    7.2718   -0.5564    0.0000 H   0  0  0  0  0  0  0  0  0  0  0  0
    6.8926    0.2127    0.0000 H   0  0  0  0  0  0  0  0  0  0  0  0
    3.7320   -1.3825    0.0000 H   0  0  0  0  0  0  0  0  0  0  0  0
    4.1705   -2.1418    0.0000 H   0  0  0  0  0  0  0  0  0  0  0  0
    4.9298   -1.7034    0.0000 H   0  0  0  0  0  0  0  0  0  0  0  0
    5.6235    2.0062    0.0000 H   0  0  0  0  0  0  0  0  0  0  0  0
    5.6235    2.8830    0.0000 H   0  0  0  0  0  0  0  0  0  0  0  0
    4.7467    2.8830    0.0000 H   0  0  0  0  0  0  0  0  0  0  0  0
    4.8180    2.8639    0.0000 H   0  0  0  0  0  0  0  0  0  0  0  0
    4.0587    3.3023    0.0000 H   0  0  0  0  0  0  0  0  0  0  0  0
    3.6203    2.5430    0.0000 H   0  0  0  0  0  0  0  0  0  0  0  0
    7.5417   -2.2019    0.0000 H   0  0  0  0  0  0  0  0  0  0  0  0
    2.0000   -2.7034    0.0000 H   0  0  0  0  0  0  0  0  0  0  0  0
  1  5  1  0  0  0  0
  1  6  1  0  0  0  0
  2  7  1  0  0  0  0
  2 31  1  0  0  0  0
  3  8  1  0  0  0  0
  3 30  1  0  0  0  0
  4  6  1  0  0  0  0
  4  9  1  0  0  0  0
  4 10  1  0  0  0  0
  4 14  1  0  0  0  0
  5  7  1  0  0  0  0
  5  8  1  0  0  0  0
  5 11  1  0  0  0  0
  6 12  1  0  0  0  0
  6 13  1  0  0  0  0
  7  9  1  0  0  0  0
  7 16  1  0  0  0  0
  8 10  1  0  0  0  0
  8 15  1  0  0  0  0
  9 17  1  0  0  0  0
  9 18  1  0  0  0  0
 10 19  1  0  0  0  0
 10 20  1  0  0  0  0
 11 21  1  0  0  0  0
 11 22  1  0  0  0  0
 11 23  1  0  0  0  0
 12 24  1  0  0  0  0
 12 25  1  0  0  0  0
 12 26  1  0  0  0  0
 13 27  1  0  0  0  0
 13 28  1  0  0  0  0
 13 29  1  0  0  0  0
M  END
> <PUBCHEM_COMPOUND_CID>
115056

> <PUBCHEM_COMPOUND_CANONICALIZED>
1

> <PUBCHEM_CACTVS_COMPLEXITY>
212

> <PUBCHEM_CACTVS_HBOND_ACCEPTOR>
3

> <PUBCHEM_CACTVS_HBOND_DONOR>
2

> <PUBCHEM_CACTVS_ROTATABLE_BOND>
0

> <PUBCHEM_CACTVS_SUBSKEYS>
AAADceBwMAAAAAAAAAAAAAAAAAAAAAAAAAA0SIAAAAAAAAAAAAAAGgAACAAADVSggAICAAAABgAAAAAAAAAAAAAAAAAAAAAAAAABEAIAAAACQAAFAAADAAHA4PQOgAAAAAAAAADAAAIQABCAAAAAAAAAAA==

> <PUBCHEM_IUPAC_OPENEYE_NAME>
2,2,4-trimethyl-3-oxabicyclo[2.2.2]octane-5,8-diol

> <PUBCHEM_IUPAC_CAS_NAME>
2,2,4-trimethyl-3-oxabicyclo[2.2.2]octane-5,8-diol

> <PUBCHEM_IUPAC_NAME>
2,2,4-trimethyl-3-oxabicyclo[2.2.2]octane-5,8-diol

> <PUBCHEM_IUPAC_SYSTEMATIC_NAME>
2,2,4-trimethyl-3-oxabicyclo[2.2.2]octane-5,8-diol

> <PUBCHEM_IUPAC_TRADITIONAL_NAME>
2,2,4-trimethyl-3-oxabicyclo[2.2.2]octane-5,8-diol

> <PUBCHEM_IUPAC_INCHI>
InChI=1S/C10H18O3/c1-9(2)6-4-7(11)10(3,13-9)8(12)5-6/h6-8,11-12H,4-5H2,1-3H3

> <PUBCHEM_IUPAC_INCHIKEY>
JSNQSLSBBZFGBM-UHFFFAOYSA-N

> <PUBCHEM_XLOGP3_AA>
0.2

> <PUBCHEM_EXACT_MASS>
186.125594

> <PUBCHEM_MOLECULAR_FORMULA>
C10H18O3

> <PUBCHEM_MOLECULAR_WEIGHT>
186.24812

> <PUBCHEM_OPENEYE_CAN_SMILES>
CC1(C2CC(C(O1)(C(C2)O)C)O)C

> <PUBCHEM_OPENEYE_ISO_SMILES>
CC1(C2CC(C(O1)(C(C2)O)C)O)C

> <PUBCHEM_CACTVS_TPSA>
49.7

> <PUBCHEM_MONOISOTOPIC_WEIGHT>
186.125594

> <PUBCHEM_TOTAL_CHARGE>
0

> <PUBCHEM_HEAVY_ATOM_COUNT>
13

> <PUBCHEM_ATOM_DEF_STEREO_COUNT>
0

> <PUBCHEM_ATOM_UDEF_STEREO_COUNT>
2

> <PUBCHEM_BOND_DEF_STEREO_COUNT>
0

> <PUBCHEM_BOND_UDEF_STEREO_COUNT>
0

> <PUBCHEM_ISOTOPIC_ATOM_COUNT>
0

> <PUBCHEM_COMPONENT_COUNT>
1

> <PUBCHEM_CACTVS_TAUTO_COUNT>
1

> <PUBCHEM_COORDINATE_TYPE>
1
5
255

> <PUBCHEM_BONDANNOTATIONS>
7  16  3
8  15  3

$$$$

