2486
  -OEChem-07051213033D

 51 50  0     1  0  0  0  0  0999 V2000
   -0.5802   -1.8902    0.5006 O   0  0  0  0  0  0  0  0  0  0  0  0
    3.4102   -1.3930   -0.2425 O   0  0  0  0  0  0  0  0  0  0  0  0
   -1.4237   -1.6354   -1.6308 O   0  0  0  0  0  0  0  0  0  0  0  0
   -5.5195    1.3502   -0.7466 O   0  0  0  0  0  0  0  0  0  0  0  0
   -4.4970    1.0913    1.2657 O   0  0  0  0  0  0  0  0  0  0  0  0
    2.1569   -0.3486    1.4124 N   0  0  0  0  0  0  0  0  0  0  0  0
    1.8305    2.0861    0.9858 C   0  0  2  0  0  0  0  0  0  0  0  0
    1.2086    1.9468   -0.4243 C   0  0  0  0  0  0  0  0  0  0  0  0
    2.7919    0.9392    1.3437 C   0  0  0  0  0  0  0  0  0  0  0  0
    0.6917    2.2593    2.0179 C   0  0  0  0  0  0  0  0  0  0  0  0
    2.1942    1.8344   -1.5933 C   0  0  0  0  0  0  0  0  0  0  0  0
    1.5147    1.7886   -2.9621 C   0  0  0  0  0  0  0  0  0  0  0  0
    1.1765    2.4078    3.4533 C   0  0  0  0  0  0  0  0  0  0  0  0
    2.5219   -1.4213    0.6048 C   0  0  0  0  0  0  0  0  0  0  0  0
    1.6788   -2.6554    0.8898 C   0  0  0  0  0  0  0  0  0  0  0  0
    2.5279    1.5770   -4.0768 C   0  0  0  0  0  0  0  0  0  0  0  0
    0.4399   -2.7511   -0.0018 C   0  0  1  0  0  0  0  0  0  0  0  0
   -0.1207   -4.1663   -0.0127 C   0  0  0  0  0  0  0  0  0  0  0  0
   -1.4536   -1.3976   -0.4314 C   0  0  0  0  0  0  0  0  0  0  0  0
   -2.4625   -0.5075    0.2621 C   0  0  0  0  0  0  0  0  0  0  0  0
   -3.5366    0.0253   -0.6785 C   0  0  0  0  0  0  0  0  0  0  0  0
   -4.5499    0.8604    0.0646 C   0  0  0  0  0  0  0  0  0  0  0  0
    2.4228    3.0114    0.9915 H   0  0  0  0  0  0  0  0  0  0  0  0
    0.5455    1.0724   -0.4436 H   0  0  0  0  0  0  0  0  0  0  0  0
    0.5651    2.8181   -0.6050 H   0  0  0  0  0  0  0  0  0  0  0  0
    3.2519    1.1158    2.3217 H   0  0  0  0  0  0  0  0  0  0  0  0
    3.6225    0.9086    0.6310 H   0  0  0  0  0  0  0  0  0  0  0  0
   -0.0035    1.4131    1.9654 H   0  0  0  0  0  0  0  0  0  0  0  0
    0.1120    3.1535    1.7564 H   0  0  0  0  0  0  0  0  0  0  0  0
    2.8861    2.6849   -1.5614 H   0  0  0  0  0  0  0  0  0  0  0  0
    2.7987    0.9296   -1.4772 H   0  0  0  0  0  0  0  0  0  0  0  0
    0.9686    2.7225   -3.1370 H   0  0  0  0  0  0  0  0  0  0  0  0
    0.7816    0.9738   -2.9847 H   0  0  0  0  0  0  0  0  0  0  0  0
    1.4334   -0.4815    2.1126 H   0  0  0  0  0  0  0  0  0  0  0  0
    0.3374    2.6761    4.1037 H   0  0  0  0  0  0  0  0  0  0  0  0
    1.5986    1.4748    3.8375 H   0  0  0  0  0  0  0  0  0  0  0  0
    1.9319    3.1955    3.5349 H   0  0  0  0  0  0  0  0  0  0  0  0
    1.3950   -2.6668    1.9492 H   0  0  0  0  0  0  0  0  0  0  0  0
    2.3365   -3.5179    0.7243 H   0  0  0  0  0  0  0  0  0  0  0  0
    3.0625    0.6304   -3.9474 H   0  0  0  0  0  0  0  0  0  0  0  0
    2.0229    1.5515   -5.0474 H   0  0  0  0  0  0  0  0  0  0  0  0
    3.2633    2.3876   -4.0971 H   0  0  0  0  0  0  0  0  0  0  0  0
    0.7253   -2.4632   -1.0219 H   0  0  0  0  0  0  0  0  0  0  0  0
   -0.4314   -4.4714    0.9928 H   0  0  0  0  0  0  0  0  0  0  0  0
    0.6191   -4.8835   -0.3818 H   0  0  0  0  0  0  0  0  0  0  0  0
   -1.0091   -4.2337   -0.6495 H   0  0  0  0  0  0  0  0  0  0  0  0
   -1.9199    0.3289    0.7170 H   0  0  0  0  0  0  0  0  0  0  0  0
   -2.9314   -1.0924    1.0627 H   0  0  0  0  0  0  0  0  0  0  0  0
   -3.0783    0.6456   -1.4567 H   0  0  0  0  0  0  0  0  0  0  0  0
   -4.0620   -0.8078   -1.1585 H   0  0  0  0  0  0  0  0  0  0  0  0
   -6.1663    1.8994   -0.2542 H   0  0  0  0  0  0  0  0  0  0  0  0
  1 17  1  0  0  0  0
  1 19  1  0  0  0  0
  2 14  2  0  0  0  0
  3 19  2  0  0  0  0
  4 22  1  0  0  0  0
  4 51  1  0  0  0  0
  5 22  2  0  0  0  0
  6  9  1  0  0  0  0
  6 14  1  0  0  0  0
  6 34  1  0  0  0  0
  7  8  1  0  0  0  0
  7  9  1  0  0  0  0
  7 10  1  0  0  0  0
  7 23  1  0  0  0  0
  8 11  1  0  0  0  0
  8 24  1  0  0  0  0
  8 25  1  0  0  0  0
  9 26  1  0  0  0  0
  9 27  1  0  0  0  0
 10 13  1  0  0  0  0
 10 28  1  0  0  0  0
 10 29  1  0  0  0  0
 11 12  1  0  0  0  0
 11 30  1  0  0  0  0
 11 31  1  0  0  0  0
 12 16  1  0  0  0  0
 12 32  1  0  0  0  0
 12 33  1  0  0  0  0
 13 35  1  0  0  0  0
 13 36  1  0  0  0  0
 13 37  1  0  0  0  0
 14 15  1  0  0  0  0
 15 17  1  0  0  0  0
 15 38  1  0  0  0  0
 15 39  1  0  0  0  0
 16 40  1  0  0  0  0
 16 41  1  0  0  0  0
 16 42  1  0  0  0  0
 17 18  1  0  0  0  0
 17 43  1  0  0  0  0
 18 44  1  0  0  0  0
 18 45  1  0  0  0  0
 18 46  1  0  0  0  0
 19 20  1  0  0  0  0
 20 21  1  0  0  0  0
 20 47  1  0  0  0  0
 20 48  1  0  0  0  0
 21 22  1  0  0  0  0
 21 49  1  0  0  0  0
 21 50  1  0  0  0  0
M  END
> <PUBCHEM_COMPOUND_CID>
2486

> <PUBCHEM_CONFORMER_RMSD>
1.4

> <PUBCHEM_CONFORMER_DIVERSEORDER>
1
66
84
56
50
44
98
40
45
100
69
94
20
86
91
22
88
59
81
68
54
61
71
19
27
57
87
25
92
74
13
103
42
89
105
2
29
37
41
58
11
3
64
51
93
7
63
30
43
26
85
79
47
15
34
101
99
97
83
78
18
35
31
73
17
10
48
55
23
102
62
82
67
14
46
65
96
8
80
12
53
36
90
77
9
75
24
16
28
21
39
72
4
76
38
60
52
49
95
33
32
106
5
104
70
6

> <PUBCHEM_MMFF94_PARTIAL_CHARGES>
16
1 -0.43
14 0.57
15 0.06
17 0.28
19 0.66
2 -0.57
20 0.06
21 0.06
22 0.66
3 -0.57
34 0.37
4 -0.65
5 -0.57
51 0.5
6 -0.73
9 0.3

> <PUBCHEM_EFFECTIVE_ROTOR_COUNT>
14

> <PUBCHEM_PHARMACOPHORE_FEATURES>
9
1 13 hydrophobe
1 16 hydrophobe
1 2 acceptor
1 3 acceptor
1 4 acceptor
1 5 acceptor
1 6 donor
3 4 5 22 anion
5 7 8 10 11 12 hydrophobe

> <PUBCHEM_HEAVY_ATOM_COUNT>
22

> <PUBCHEM_ATOM_DEF_STEREO_COUNT>
0

> <PUBCHEM_ATOM_UDEF_STEREO_COUNT>
2

> <PUBCHEM_BOND_DEF_STEREO_COUNT>
0

> <PUBCHEM_BOND_UDEF_STEREO_COUNT>
0

> <PUBCHEM_ISOTOPIC_ATOM_COUNT>
0

> <PUBCHEM_COMPONENT_COUNT>
1

> <PUBCHEM_CACTVS_TAUTO_COUNT>
2

> <PUBCHEM_CONFORMER_ID>
000009B600000001

> <PUBCHEM_MMFF94_ENERGY>
16.755

> <PUBCHEM_FEATURE_SELFOVERLAP>
45.727

> <PUBCHEM_SHAPE_FINGERPRINT>
10064457 181 18266471909779730688
10688039 33 17484809555845941586
11244481 83 16486962990831631469
11582403 64 16447037391391460456
13965767 371 17981366418709572010
14713325 29 16335508335603014916
15119646 57 14039215714210603142
20600515 1 18340216219828431490
23526113 38 17246078875480650348
23558518 356 18198635323691234659
3524813 1 18196672892850240166
3797600 57 14898345401130516362
469060 322 17411318220547504702
474 4 18336560390578485267
513532 50 16877943870833575061
550186 7 16890895800377640920
6786 2 15265061322654965996

> <PUBCHEM_SHAPE_MULTIPOLES>
418.42
6.92
4.22
3.24
11.94
3.99
-1.74
-4.3
-1.1
-1.1
0.54
-3.86
-3.81
-0.98

> <PUBCHEM_SHAPE_SELFOVERLAP>
794.389

> <PUBCHEM_SHAPE_VOLUME>
256.6

> <PUBCHEM_COORDINATE_TYPE>
2
5
10

$$$$

