7727
  -OEChem-06261202163D

 26 26  0     1  0  0  0  0  0999 V2000
   -1.3068   -1.1525   -0.2486 N   0  0  0  0  0  0  0  0  0  0  0  0
    1.0066   -0.2606   -0.2541 C   0  0  2  0  0  0  0  0  0  0  0  0
    0.4933    1.0833    0.2756 C   0  0  0  0  0  0  0  0  0  0  0  0
   -0.9687    1.2901   -0.1128 C   0  0  0  0  0  0  0  0  0  0  0  0
   -1.8317    0.0965    0.3158 C   0  0  1  0  0  0  0  0  0  0  0  0
    0.0722   -1.4001    0.1758 C   0  0  0  0  0  0  0  0  0  0  0  0
    2.4339   -0.5204    0.2233 C   0  0  0  0  0  0  0  0  0  0  0  0
   -3.2754    0.2856   -0.1465 C   0  0  0  0  0  0  0  0  0  0  0  0
    3.3766    0.5780   -0.2285 C   0  0  0  0  0  0  0  0  0  0  0  0
    1.0109   -0.2184   -1.3527 H   0  0  0  0  0  0  0  0  0  0  0  0
    1.0721    1.9194   -0.1304 H   0  0  0  0  0  0  0  0  0  0  0  0
    0.5880    1.1213    1.3683 H   0  0  0  0  0  0  0  0  0  0  0  0
   -1.3414    2.2094    0.3547 H   0  0  0  0  0  0  0  0  0  0  0  0
   -1.0369    1.4367   -1.1990 H   0  0  0  0  0  0  0  0  0  0  0  0
   -1.8352    0.0218    1.4108 H   0  0  0  0  0  0  0  0  0  0  0  0
    0.4082   -2.3435   -0.2699 H   0  0  0  0  0  0  0  0  0  0  0  0
    0.1031   -1.5410    1.2634 H   0  0  0  0  0  0  0  0  0  0  0  0
   -1.3378   -1.1008   -1.2672 H   0  0  0  0  0  0  0  0  0  0  0  0
    2.7837   -1.4768   -0.1839 H   0  0  0  0  0  0  0  0  0  0  0  0
    2.4707   -0.6069    1.3158 H   0  0  0  0  0  0  0  0  0  0  0  0
   -3.7015    1.1983    0.2841 H   0  0  0  0  0  0  0  0  0  0  0  0
   -3.3440    0.3650   -1.2373 H   0  0  0  0  0  0  0  0  0  0  0  0
   -3.9017   -0.5554    0.1714 H   0  0  0  0  0  0  0  0  0  0  0  0
    3.2868    0.7696   -1.3026 H   0  0  0  0  0  0  0  0  0  0  0  0
    3.2065    1.5135    0.3122 H   0  0  0  0  0  0  0  0  0  0  0  0
    4.4120    0.2809   -0.0294 H   0  0  0  0  0  0  0  0  0  0  0  0
  1  5  1  0  0  0  0
  1  6  1  0  0  0  0
  1 18  1  0  0  0  0
  2  3  1  0  0  0  0
  2  6  1  0  0  0  0
  2  7  1  0  0  0  0
  2 10  1  0  0  0  0
  3  4  1  0  0  0  0
  3 11  1  0  0  0  0
  3 12  1  0  0  0  0
  4  5  1  0  0  0  0
  4 13  1  0  0  0  0
  4 14  1  0  0  0  0
  5  8  1  0  0  0  0
  5 15  1  0  0  0  0
  6 16  1  0  0  0  0
  6 17  1  0  0  0  0
  7  9  1  0  0  0  0
  7 19  1  0  0  0  0
  7 20  1  0  0  0  0
  8 21  1  0  0  0  0
  8 22  1  0  0  0  0
  8 23  1  0  0  0  0
  9 24  1  0  0  0  0
  9 25  1  0  0  0  0
  9 26  1  0  0  0  0
M  END
> <PUBCHEM_COMPOUND_CID>
7727

> <PUBCHEM_CONFORMER_RMSD>
0.4

> <PUBCHEM_CONFORMER_DIVERSEORDER>
2
21
6
11
16
18
1
17
14
7
4
9
15
5
13
10
12
19
3
8
20

> <PUBCHEM_MMFF94_PARTIAL_CHARGES>
4
1 -0.9
18 0.36
5 0.27
6 0.27

> <PUBCHEM_EFFECTIVE_ROTOR_COUNT>
2.2

> <PUBCHEM_PHARMACOPHORE_FEATURES>
4
1 1 cation
1 1 donor
1 9 hydrophobe
6 1 2 3 4 5 6 rings

> <PUBCHEM_HEAVY_ATOM_COUNT>
9

> <PUBCHEM_ATOM_DEF_STEREO_COUNT>
0

> <PUBCHEM_ATOM_UDEF_STEREO_COUNT>
2

> <PUBCHEM_BOND_DEF_STEREO_COUNT>
0

> <PUBCHEM_BOND_UDEF_STEREO_COUNT>
0

> <PUBCHEM_ISOTOPIC_ATOM_COUNT>
0

> <PUBCHEM_COMPONENT_COUNT>
1

> <PUBCHEM_CACTVS_TAUTO_COUNT>
1

> <PUBCHEM_CONFORMER_ID>
00001E2F00000002

> <PUBCHEM_MMFF94_ENERGY>
0.3734

> <PUBCHEM_FEATURE_SELFOVERLAP>
20.297

> <PUBCHEM_SHAPE_FINGERPRINT>
10857977 72 18410300189597417032
11062470 55 17703790331600460821
12897270 3 18410009957403961660
12932764 1 14996572836018327492
14325111 11 18411418444504741928
15310529 11 17060348443271346320
16714656 1 18409729568832365760
16945 1 18335140899011486265
193761 8 17689998934004494873
20871998 184 18115301164125961191
21040471 1 18337390547072968938
21293036 1 18410015424918402621
23235685 24 18409733971221388389
23402655 69 18193012619723335237
23552423 10 18127130766868797940
2748010 2 18121220870252169121
29004967 10 15698281127090330498
369184 2 16200435762507281104
5084963 1 18261111936681064010

> <PUBCHEM_SHAPE_MULTIPOLES>
180.23
4.59
1.36
0.66
0.74
0.09
-0.01
-0.66
0.29
-0.07
-0.02
0.02
-0.01
-0.07

> <PUBCHEM_SHAPE_SELFOVERLAP>
341.376

> <PUBCHEM_SHAPE_VOLUME>
109.4

> <PUBCHEM_COORDINATE_TYPE>
2
5
10

$$$$

