17396275
  -OEChem-06241222552D

 43 46  0     1  0  0  0  0  0999 V2000
    2.1953   -1.9700    0.0000 O   0  0  0  0  0  0  0  0  0  0  0  0
    3.0000    1.6136    0.0000 O   0  0  0  0  0  0  0  0  0  0  0  0
    3.0000    2.6136    0.0000 O   0  0  0  0  0  0  0  0  0  0  0  0
    3.8660    0.1136    0.0000 N   0  0  0  0  0  0  0  0  0  0  0  0
    4.7320    2.6136    0.0000 N   0  0  0  0  0  0  0  0  0  0  0  0
    4.7320    4.6136    0.0000 N   0  0  0  0  0  0  0  0  0  0  0  0
    3.0000   -0.3864    0.0000 C   0  0  3  0  0  0  0  0  0  0  0  0
    3.0000   -1.3864    0.0000 C   0  0  0  0  0  0  0  0  0  0  0  0
    4.7320    1.6136    0.0000 C   0  0  0  0  0  0  0  0  0  0  0  0
    3.8047   -1.9700    0.0000 C   0  0  0  0  0  0  0  0  0  0  0  0
    3.5000   -2.9162    0.0000 C   0  0  0  0  0  0  0  0  0  0  0  0
    2.1340    0.1136    0.0000 C   0  0  0  0  0  0  0  0  0  0  0  0
    3.8660    1.1136    0.0000 C   0  0  0  0  0  0  0  0  0  0  0  0
    2.5000   -2.9162    0.0000 C   0  0  0  0  0  0  0  0  0  0  0  0
    5.5981    3.1136    0.0000 C   0  0  0  0  0  0  0  0  0  0  0  0
    5.5981    4.1136    0.0000 C   0  0  0  0  0  0  0  0  0  0  0  0
    3.8660    3.1136    0.0000 C   0  0  0  0  0  0  0  0  0  0  0  0
    4.0000   -3.7822    0.0000 C   0  0  0  0  0  0  0  0  0  0  0  0
    2.0000   -3.7822    0.0000 C   0  0  0  0  0  0  0  0  0  0  0  0
    6.4920    2.5790    0.0000 C   0  0  0  0  0  0  0  0  0  0  0  0
    6.4920    4.6483    0.0000 C   0  0  0  0  0  0  0  0  0  0  0  0
    3.5000   -4.6483    0.0000 C   0  0  0  0  0  0  0  0  0  0  0  0
    2.5000   -4.6483    0.0000 C   0  0  0  0  0  0  0  0  0  0  0  0
    3.8660    4.1136    0.0000 C   0  0  0  0  0  0  0  0  0  0  0  0
    7.3981    3.0928    0.0000 C   0  0  0  0  0  0  0  0  0  0  0  0
    7.3981    4.1344    0.0000 C   0  0  0  0  0  0  0  0  0  0  0  0
    3.0000    0.2336    0.0000 H   0  0  0  0  0  0  0  0  0  0  0  0
    4.4030   -0.1964    0.0000 H   0  0  0  0  0  0  0  0  0  0  0  0
    4.9441    1.0310    0.0000 H   0  0  0  0  0  0  0  0  0  0  0  0
    5.3426    1.7213    0.0000 H   0  0  0  0  0  0  0  0  0  0  0  0
    4.3940   -1.7774    0.0000 H   0  0  0  0  0  0  0  0  0  0  0  0
    2.4440    0.6505    0.0000 H   0  0  0  0  0  0  0  0  0  0  0  0
    1.5970    0.4236    0.0000 H   0  0  0  0  0  0  0  0  0  0  0  0
    1.8240   -0.4233    0.0000 H   0  0  0  0  0  0  0  0  0  0  0  0
    4.6200   -3.7822    0.0000 H   0  0  0  0  0  0  0  0  0  0  0  0
    1.3800   -3.7822    0.0000 H   0  0  0  0  0  0  0  0  0  0  0  0
    6.4848    1.9590    0.0000 H   0  0  0  0  0  0  0  0  0  0  0  0
    6.4848    5.2682    0.0000 H   0  0  0  0  0  0  0  0  0  0  0  0
    3.8100   -5.1852    0.0000 H   0  0  0  0  0  0  0  0  0  0  0  0
    3.3291    4.4236    0.0000 H   0  0  0  0  0  0  0  0  0  0  0  0
    2.1900   -5.1852    0.0000 H   0  0  0  0  0  0  0  0  0  0  0  0
    7.9338    2.7807    0.0000 H   0  0  0  0  0  0  0  0  0  0  0  0
    7.9338    4.4465    0.0000 H   0  0  0  0  0  0  0  0  0  0  0  0
  1  8  1  0  0  0  0
  1 14  1  0  0  0  0
  2 13  2  0  0  0  0
  3 17  2  0  0  0  0
  4  7  1  0  0  0  0
  4 13  1  0  0  0  0
  4 28  1  0  0  0  0
  5  9  1  0  0  0  0
  5 15  1  0  0  0  0
  5 17  1  0  0  0  0
  6 16  1  0  0  0  0
  6 24  2  0  0  0  0
  7  8  1  0  0  0  0
  7 12  1  0  0  0  0
  7 27  1  0  0  0  0
  8 10  2  0  0  0  0
  9 13  1  0  0  0  0
  9 29  1  0  0  0  0
  9 30  1  0  0  0  0
 10 11  1  0  0  0  0
 10 31  1  0  0  0  0
 11 14  1  0  0  0  0
 11 18  2  0  0  0  0
 12 32  1  0  0  0  0
 12 33  1  0  0  0  0
 12 34  1  0  0  0  0
 14 19  2  0  0  0  0
 15 16  1  0  0  0  0
 15 20  2  0  0  0  0
 16 21  2  0  0  0  0
 17 24  1  0  0  0  0
 18 22  1  0  0  0  0
 18 35  1  0  0  0  0
 19 23  1  0  0  0  0
 19 36  1  0  0  0  0
 20 25  1  0  0  0  0
 20 37  1  0  0  0  0
 21 26  1  0  0  0  0
 21 38  1  0  0  0  0
 22 23  2  0  0  0  0
 22 39  1  0  0  0  0
 23 41  1  0  0  0  0
 24 40  1  0  0  0  0
 25 26  2  0  0  0  0
 25 42  1  0  0  0  0
 26 43  1  0  0  0  0
M  END
> <PUBCHEM_COMPOUND_CID>
17396275

> <PUBCHEM_COMPOUND_CANONICALIZED>
1

> <PUBCHEM_CACTVS_COMPLEXITY>
579

> <PUBCHEM_CACTVS_HBOND_ACCEPTOR>
4

> <PUBCHEM_CACTVS_HBOND_DONOR>
1

> <PUBCHEM_CACTVS_ROTATABLE_BOND>
4

> <PUBCHEM_CACTVS_SUBSKEYS>
AAADceB7MAAAAAAAAAAAAAAAAAAAASAAAAAwYIAAAAAAAEiB9AAAHgAQAAAADCzBmAQyxsPABECoArVzVACCCAAlIgAIiIGOfMgOZjLEtbuXOSjk1hHY6YeY2aOeAAAAAAAIACAAAAAAABAAQAAAAAAAAA==

> <PUBCHEM_IUPAC_OPENEYE_NAME>
N-[1-(benzofuran-2-yl)ethyl]-2-(2-oxoquinoxalin-1-yl)acetamide

> <PUBCHEM_IUPAC_CAS_NAME>
N-[1-(2-benzofuranyl)ethyl]-2-(2-oxo-1-quinoxalinyl)acetamide

> <PUBCHEM_IUPAC_NAME>
N-[1-(1-benzofuran-2-yl)ethyl]-2-(2-oxoquinoxalin-1-yl)acetamide

> <PUBCHEM_IUPAC_SYSTEMATIC_NAME>
N-[1-(1-benzofuran-2-yl)ethyl]-2-(2-oxidanylidenequinoxalin-1-yl)ethanamide

> <PUBCHEM_IUPAC_TRADITIONAL_NAME>
N-[1-(benzofuran-2-yl)ethyl]-2-(2-ketoquinoxalin-1-yl)acetamide

> <PUBCHEM_IUPAC_INCHI>
InChI=1S/C20H17N3O3/c1-13(18-10-14-6-2-5-9-17(14)26-18)22-19(24)12-23-16-8-4-3-7-15(16)21-11-20(23)25/h2-11,13H,12H2,1H3,(H,22,24)

> <PUBCHEM_IUPAC_INCHIKEY>
PDPYVEOFGOJAKK-UHFFFAOYSA-N

> <PUBCHEM_XLOGP3_AA>
2.6

> <PUBCHEM_EXACT_MASS>
347.126991

> <PUBCHEM_MOLECULAR_FORMULA>
C20H17N3O3

> <PUBCHEM_MOLECULAR_WEIGHT>
347.36728

> <PUBCHEM_OPENEYE_CAN_SMILES>
CC(C1=CC2=CC=CC=C2O1)NC(=O)CN3C4=CC=CC=C4N=CC3=O

> <PUBCHEM_OPENEYE_ISO_SMILES>
CC(C1=CC2=CC=CC=C2O1)NC(=O)CN3C4=CC=CC=C4N=CC3=O

> <PUBCHEM_CACTVS_TPSA>
74.9

> <PUBCHEM_MONOISOTOPIC_WEIGHT>
347.126991

> <PUBCHEM_TOTAL_CHARGE>
0

> <PUBCHEM_HEAVY_ATOM_COUNT>
26

> <PUBCHEM_ATOM_DEF_STEREO_COUNT>
0

> <PUBCHEM_ATOM_UDEF_STEREO_COUNT>
1

> <PUBCHEM_BOND_DEF_STEREO_COUNT>
0

> <PUBCHEM_BOND_UDEF_STEREO_COUNT>
0

> <PUBCHEM_ISOTOPIC_ATOM_COUNT>
0

> <PUBCHEM_COMPONENT_COUNT>
1

> <PUBCHEM_CACTVS_TAUTO_COUNT>
2

> <PUBCHEM_COORDINATE_TYPE>
1
5
255

> <PUBCHEM_BONDANNOTATIONS>
1  14  8
1  8  8
10  11  8
11  14  8
11  18  8
14  19  8
15  16  8
15  20  8
16  21  8
17  24  8
18  22  8
19  23  8
20  25  8
21  26  8
22  23  8
25  26  8
5  15  8
5  17  8
6  16  8
6  24  8
7  12  3
8  10  8

$$$$

