17395545
  -OEChem-06241222513D

 57 60  0     0  0  0  0  0  0999 V2000
    1.4387    1.5747    1.8021 S   0  0  0  0  0  0  0  0  0  0  0  0
    1.7462   -1.5411    2.3455 O   0  0  0  0  0  0  0  0  0  0  0  0
   -0.4251    0.7979   -2.2940 O   0  0  0  0  0  0  0  0  0  0  0  0
   -2.6140   -1.7443    0.2028 N   0  0  0  0  0  0  0  0  0  0  0  0
   -2.5336   -2.0316   -1.1075 N   0  0  0  0  0  0  0  0  0  0  0  0
    1.6987   -2.1890    0.1194 N   0  0  0  0  0  0  0  0  0  0  0  0
    3.8797    1.9171    0.8089 N   0  0  0  0  0  0  0  0  0  0  0  0
   -0.5649    1.3954   -1.0472 N   0  0  0  0  0  0  0  0  0  0  0  0
   -0.6437   -2.6665    0.0072 C   0  0  0  0  0  0  0  0  0  0  0  0
   -1.5076   -2.1042    0.9149 C   0  0  0  0  0  0  0  0  0  0  0  0
   -1.3278   -2.5947   -1.2210 C   0  0  0  0  0  0  0  0  0  0  0  0
   -3.8256   -1.1008    0.7217 C   0  0  0  0  0  0  0  0  0  0  0  0
    0.6977   -3.2192    0.2653 C   0  0  0  0  0  0  0  0  0  0  0  0
   -1.3838   -1.8804    2.3680 C   0  0  0  0  0  0  0  0  0  0  0  0
   -3.7267    0.3867    0.6797 C   0  0  0  0  0  0  0  0  0  0  0  0
   -0.8647   -3.0569   -2.5417 C   0  0  0  0  0  0  0  0  0  0  0  0
   -4.1560    1.0826   -0.4505 C   0  0  0  0  0  0  0  0  0  0  0  0
   -3.2054    1.0824    1.7707 C   0  0  0  0  0  0  0  0  0  0  0  0
    2.1436   -1.4269    1.1889 C   0  0  0  0  0  0  0  0  0  0  0  0
    3.1576   -0.3894    0.8690 C   0  0  0  0  0  0  0  0  0  0  0  0
   -4.0638    2.4738   -0.4899 C   0  0  0  0  0  0  0  0  0  0  0  0
   -3.1133    2.4737    1.7313 C   0  0  0  0  0  0  0  0  0  0  0  0
   -3.5426    3.1693    0.6010 C   0  0  0  0  0  0  0  0  0  0  0  0
    2.9642    0.9640    1.0939 C   0  0  0  0  0  0  0  0  0  0  0  0
    4.3686   -0.7907    0.3161 C   0  0  0  0  0  0  0  0  0  0  0  0
    0.8470    2.6786    0.4904 C   0  0  0  0  0  0  0  0  0  0  0  0
    5.3355    0.1604    0.0093 C   0  0  0  0  0  0  0  0  0  0  0  0
    0.6275    1.9403   -0.7894 C   0  0  0  0  0  0  0  0  0  0  0  0
    5.0447    1.4893    0.2726 C   0  0  0  0  0  0  0  0  0  0  0  0
    1.5500    1.7210   -1.8270 C   0  0  0  0  0  0  0  0  0  0  0  0
    0.8385    0.9986   -2.7480 C   0  0  0  0  0  0  0  0  0  0  0  0
    1.1603    0.4302   -4.0625 C   0  0  0  0  0  0  0  0  0  0  0  0
   -4.0199   -1.4709    1.7327 H   0  0  0  0  0  0  0  0  0  0  0  0
   -4.6638   -1.4567    0.1087 H   0  0  0  0  0  0  0  0  0  0  0  0
    0.7650   -3.6583    1.2661 H   0  0  0  0  0  0  0  0  0  0  0  0
    0.9415   -4.0098   -0.4522 H   0  0  0  0  0  0  0  0  0  0  0  0
   -2.3267   -2.0193    2.9025 H   0  0  0  0  0  0  0  0  0  0  0  0
   -0.6810   -2.5921    2.8130 H   0  0  0  0  0  0  0  0  0  0  0  0
   -1.0075   -0.8741    2.5719 H   0  0  0  0  0  0  0  0  0  0  0  0
    0.1723   -2.7543   -2.7190 H   0  0  0  0  0  0  0  0  0  0  0  0
   -1.4720   -2.6412   -3.3528 H   0  0  0  0  0  0  0  0  0  0  0  0
   -0.9184   -4.1485   -2.6036 H   0  0  0  0  0  0  0  0  0  0  0  0
    2.0622   -2.0053   -0.8116 H   0  0  0  0  0  0  0  0  0  0  0  0
   -4.5626    0.5530   -1.3080 H   0  0  0  0  0  0  0  0  0  0  0  0
   -2.8841    0.5608    2.6667 H   0  0  0  0  0  0  0  0  0  0  0  0
   -4.3967    3.0154   -1.3704 H   0  0  0  0  0  0  0  0  0  0  0  0
   -2.7099    3.0156    2.5816 H   0  0  0  0  0  0  0  0  0  0  0  0
   -3.4702    4.2525    0.5702 H   0  0  0  0  0  0  0  0  0  0  0  0
    4.5767   -1.8397    0.1229 H   0  0  0  0  0  0  0  0  0  0  0  0
   -0.0866    3.1416    0.8271 H   0  0  0  0  0  0  0  0  0  0  0  0
    1.5682    3.4898    0.3427 H   0  0  0  0  0  0  0  0  0  0  0  0
    6.2871   -0.1294   -0.4215 H   0  0  0  0  0  0  0  0  0  0  0  0
    5.7648    2.2699    0.0513 H   0  0  0  0  0  0  0  0  0  0  0  0
    2.5775    2.0438   -1.9040 H   0  0  0  0  0  0  0  0  0  0  0  0
    2.1703    0.7109   -4.3774 H   0  0  0  0  0  0  0  0  0  0  0  0
    0.4575    0.7886   -4.8209 H   0  0  0  0  0  0  0  0  0  0  0  0
    1.1063   -0.6621   -4.0322 H   0  0  0  0  0  0  0  0  0  0  0  0
  1 24  1  0  0  0  0
  1 26  1  0  0  0  0
  2 19  2  0  0  0  0
  3  8  1  0  0  0  0
  3 31  1  0  0  0  0
  4  5  1  0  0  0  0
  4 10  1  0  0  0  0
  4 12  1  0  0  0  0
  5 11  2  0  0  0  0
  6 13  1  0  0  0  0
  6 19  1  0  0  0  0
  6 43  1  0  0  0  0
  7 24  1  0  0  0  0
  7 29  2  0  0  0  0
  8 28  2  0  0  0  0
  9 10  2  0  0  0  0
  9 11  1  0  0  0  0
  9 13  1  0  0  0  0
 10 14  1  0  0  0  0
 11 16  1  0  0  0  0
 12 15  1  0  0  0  0
 12 33  1  0  0  0  0
 12 34  1  0  0  0  0
 13 35  1  0  0  0  0
 13 36  1  0  0  0  0
 14 37  1  0  0  0  0
 14 38  1  0  0  0  0
 14 39  1  0  0  0  0
 15 17  2  0  0  0  0
 15 18  1  0  0  0  0
 16 40  1  0  0  0  0
 16 41  1  0  0  0  0
 16 42  1  0  0  0  0
 17 21  1  0  0  0  0
 17 44  1  0  0  0  0
 18 22  2  0  0  0  0
 18 45  1  0  0  0  0
 19 20  1  0  0  0  0
 20 24  2  0  0  0  0
 20 25  1  0  0  0  0
 21 23  2  0  0  0  0
 21 46  1  0  0  0  0
 22 23  1  0  0  0  0
 22 47  1  0  0  0  0
 23 48  1  0  0  0  0
 25 27  2  0  0  0  0
 25 49  1  0  0  0  0
 26 28  1  0  0  0  0
 26 50  1  0  0  0  0
 26 51  1  0  0  0  0
 27 29  1  0  0  0  0
 27 52  1  0  0  0  0
 28 30  1  0  0  0  0
 29 53  1  0  0  0  0
 30 31  2  0  0  0  0
 30 54  1  0  0  0  0
 31 32  1  0  0  0  0
 32 55  1  0  0  0  0
 32 56  1  0  0  0  0
 32 57  1  0  0  0  0
M  END
> <PUBCHEM_COMPOUND_CID>
17395545

> <PUBCHEM_CONFORMER_RMSD>
1.4

> <PUBCHEM_CONFORMER_DIVERSEORDER>
1
28
74
109
151
120
132
87
45
30
95
72
114
27
99
76
92
122
144
25
69
39
154
161
79
67
125
131
11
106
138
113
117
110
160
146
16
112
137
9
71
128
12
93
162
85
29
35
5
140
48
23
6
44
142
65
115
26
147
54
159
10
149
53
156
43
88
31
49
19
81
61
55
90
86
14
107
150
34
4
152
157
68
33
139
136
89
3
124
63
134
97
91
155
101
158
108
21
119
8
104
37
83
70
64
32
123
58
100
56
96
46
135
18
24
20
50
42
130
148
73
17
82
129
77
103
2
133
80
22
126
52
116
36
41
38
141
153
47
60
127
102
13
57
84
118
121
98
94
111
145
143
78
59
66
75
51
7
105
40
62
15

> <PUBCHEM_MMFF94_PARTIAL_CHARGES>
42
1 -0.33
10 -0.33
11 0.11
12 0.4
13 0.48
14 0.18
15 -0.14
16 0.18
17 -0.15
18 -0.15
19 0.54
2 -0.57
20 0.09
21 -0.15
22 -0.15
23 -0.15
24 0.41
25 -0.15
26 0.41
27 -0.15
28 0.11
29 0.16
3 -0.02
30 -0.15
31 -0.04
32 0.18
4 0.31
43 0.37
44 0.15
45 0.15
46 0.15
47 0.15
48 0.15
49 0.15
5 -0.71
52 0.15
53 0.15
54 0.15
6 -0.73
7 -0.62
8 -0.41
9 -0.18

> <PUBCHEM_EFFECTIVE_ROTOR_COUNT>
9

> <PUBCHEM_PHARMACOPHORE_FEATURES>
9
1 2 acceptor
1 5 acceptor
1 6 donor
1 7 acceptor
1 8 acceptor
5 3 8 28 30 31 rings
5 4 5 9 10 11 rings
6 15 17 18 21 22 23 rings
6 7 20 24 25 27 29 rings

> <PUBCHEM_HEAVY_ATOM_COUNT>
32

> <PUBCHEM_ATOM_DEF_STEREO_COUNT>
0

> <PUBCHEM_ATOM_UDEF_STEREO_COUNT>
0

> <PUBCHEM_BOND_DEF_STEREO_COUNT>
0

> <PUBCHEM_BOND_UDEF_STEREO_COUNT>
0

> <PUBCHEM_ISOTOPIC_ATOM_COUNT>
0

> <PUBCHEM_COMPONENT_COUNT>
1

> <PUBCHEM_CACTVS_TAUTO_COUNT>
2

> <PUBCHEM_CONFORMER_ID>
01096F5900000001

> <PUBCHEM_MMFF94_ENERGY>
54.9487

> <PUBCHEM_FEATURE_SELFOVERLAP>
45.669

> <PUBCHEM_SHAPE_FINGERPRINT>
10708813 3 18411141346221174921
11370993 70 18409453621689906473
11513181 2 17896606282884948111
11578080 2 16444721953231738847
11763715 3 17760366587277232454
12156800 1 18053348159488444526
12422481 6 17916593166968647618
12633257 1 18196668490883341090
14840074 17 17489297577948410676
25265897 201 17896577596539882662
35225 105 18115606880177502537
469060 322 16845305903687798134
550186 7 17753038402765992572

> <PUBCHEM_SHAPE_MULTIPOLES>
625.75
8.27
4.12
2.83
3.16
1.32
2.61
-4.53
-2.66
-2.35
0.02
0.46
0.18
-0.67

> <PUBCHEM_SHAPE_SELFOVERLAP>
1335.224

> <PUBCHEM_SHAPE_VOLUME>
352.4

> <PUBCHEM_COORDINATE_TYPE>
2
5
10

$$$$

