10320
  -OEChem-07051213133D

 29 30  0     0  0  0  0  0  0999 V2000
   -1.4039   -1.6929    1.1895 O   0  0  0  0  0  0  0  0  0  0  0  0
    5.3496    1.4501    1.4185 O   0  0  0  0  0  0  0  0  0  0  0  0
    0.4298   -1.5259   -0.8356 N   0  0  0  0  0  0  0  0  0  0  0  0
   -0.7426   -0.8247   -0.8545 N   0  0  0  0  0  0  0  0  0  0  0  0
    5.1996    1.1546    0.2236 N   0  0  0  0  0  0  0  0  0  0  0  0
    1.6284   -0.8520   -0.5717 C   0  0  0  0  0  0  0  0  0  0  0  0
   -2.8557   -0.1745    0.1442 C   0  0  0  0  0  0  0  0  0  0  0  0
    1.6826    0.5458   -0.6297 C   0  0  0  0  0  0  0  0  0  0  0  0
    2.7853   -1.5690   -0.2443 C   0  0  0  0  0  0  0  0  0  0  0  0
   -1.6322   -0.9574    0.2119 C   0  0  0  0  0  0  0  0  0  0  0  0
   -4.0050   -0.6187    0.7978 C   0  0  0  0  0  0  0  0  0  0  0  0
   -2.8801    1.0206   -0.5747 C   0  0  0  0  0  0  0  0  0  0  0  0
    2.8764    1.2166   -0.3641 C   0  0  0  0  0  0  0  0  0  0  0  0
    3.9790   -0.8982    0.0214 C   0  0  0  0  0  0  0  0  0  0  0  0
    4.0246    0.4947   -0.0385 C   0  0  0  0  0  0  0  0  0  0  0  0
   -5.1788    0.1321    0.7326 C   0  0  0  0  0  0  0  0  0  0  0  0
   -4.0538    1.7714   -0.6400 C   0  0  0  0  0  0  0  0  0  0  0  0
   -5.2032    1.3272    0.0137 C   0  0  0  0  0  0  0  0  0  0  0  0
    0.3772   -2.5339   -0.7631 H   0  0  0  0  0  0  0  0  0  0  0  0
    0.8130    1.1451   -0.8860 H   0  0  0  0  0  0  0  0  0  0  0  0
    2.7639   -2.6549   -0.1934 H   0  0  0  0  0  0  0  0  0  0  0  0
   -0.9189   -0.2962   -1.7019 H   0  0  0  0  0  0  0  0  0  0  0  0
   -4.0077   -1.5493    1.3594 H   0  0  0  0  0  0  0  0  0  0  0  0
   -2.0002    1.4137   -1.0758 H   0  0  0  0  0  0  0  0  0  0  0  0
    2.8941    2.3030   -0.4170 H   0  0  0  0  0  0  0  0  0  0  0  0
    4.8644   -1.4775    0.2736 H   0  0  0  0  0  0  0  0  0  0  0  0
   -6.0741   -0.2140    1.2408 H   0  0  0  0  0  0  0  0  0  0  0  0
   -4.0718    2.7050   -1.1947 H   0  0  0  0  0  0  0  0  0  0  0  0
   -6.1167    1.9125   -0.0360 H   0  0  0  0  0  0  0  0  0  0  0  0
  1 10  2  0  0  0  0
  2  5  2  0  0  0  0
  3  4  1  0  0  0  0
  3  6  1  0  0  0  0
  3 19  1  0  0  0  0
  4 10  1  0  0  0  0
  4 22  1  0  0  0  0
  5 15  1  0  0  0  0
  6  8  2  0  0  0  0
  6  9  1  0  0  0  0
  7 10  1  0  0  0  0
  7 11  2  0  0  0  0
  7 12  1  0  0  0  0
  8 13  1  0  0  0  0
  8 20  1  0  0  0  0
  9 14  2  0  0  0  0
  9 21  1  0  0  0  0
 11 16  1  0  0  0  0
 11 23  1  0  0  0  0
 12 17  2  0  0  0  0
 12 24  1  0  0  0  0
 13 15  2  0  0  0  0
 13 25  1  0  0  0  0
 14 15  1  0  0  0  0
 14 26  1  0  0  0  0
 16 18  2  0  0  0  0
 16 27  1  0  0  0  0
 17 18  1  0  0  0  0
 17 28  1  0  0  0  0
 18 29  1  0  0  0  0
M  END
> <PUBCHEM_COMPOUND_CID>
10320

> <PUBCHEM_CONFORMER_RMSD>
0.6

> <PUBCHEM_CONFORMER_DIVERSEORDER>
1
35
25
36
24
14
34
37
9
29
13
38
7
32
31
16
28
18
30
33
20
11
26
2
6
23
21
19
17
8
12
5
15
27
3
10
22
4

> <PUBCHEM_MMFF94_PARTIAL_CHARGES>
29
1 -0.57
10 0.54
11 -0.15
12 -0.15
13 -0.15
14 -0.15
15 0.3
16 -0.15
17 -0.15
18 -0.15
19 0.4
2 -0.16
20 0.15
21 0.15
22 0.37
23 0.15
24 0.15
25 0.15
26 0.15
27 0.15
28 0.15
29 0.15
3 -0.52
4 -0.41
5 -0.14
6 0.1
7 0.09
8 -0.15
9 -0.15

> <PUBCHEM_EFFECTIVE_ROTOR_COUNT>
5

> <PUBCHEM_PHARMACOPHORE_FEATURES>
5
1 1 acceptor
1 3 donor
1 4 donor
6 6 8 9 13 14 15 rings
6 7 11 12 16 17 18 rings

> <PUBCHEM_HEAVY_ATOM_COUNT>
18

> <PUBCHEM_ATOM_DEF_STEREO_COUNT>
0

> <PUBCHEM_ATOM_UDEF_STEREO_COUNT>
0

> <PUBCHEM_BOND_DEF_STEREO_COUNT>
0

> <PUBCHEM_BOND_UDEF_STEREO_COUNT>
0

> <PUBCHEM_ISOTOPIC_ATOM_COUNT>
0

> <PUBCHEM_COMPONENT_COUNT>
1

> <PUBCHEM_CACTVS_TAUTO_COUNT>
7

> <PUBCHEM_CONFORMER_ID>
0000285000000001

> <PUBCHEM_MMFF94_ENERGY>
60.3207

> <PUBCHEM_FEATURE_SELFOVERLAP>
26.942

> <PUBCHEM_SHAPE_FINGERPRINT>
10 15 18272371923919444848
11089746 13 17603592915704822536
11128504 68 14996004328509133240
12251169 10 17989482991928715062
12403259 415 18270676588478871693
12507557 5 18412259532683407697
12507560 40 18341891913396648862
12596602 18 16056593223224469105
12633257 1 17489871497005536940
12670546 177 4895268217825915120
12892183 10 17989487454442037331
13675066 3 18272082812031796391
13914758 101 15626235628408354095
14123255 352 18408887347384201437
14178342 30 17703221811148933642
1420 369 12895079530737026000
14341114 176 18272923946948147901
14455015 7 10663817490188235845
14576447 43 8935011369350847164
15188451 53 16486684754840563427
15196674 1 18412260670580462533
15238133 3 18059567001724394028
16988056 13 5963560067872938427
1813 80 14836401462726447310
19784866 240 11167946887180249134
20157964 124 18334859463196046143
204376 136 17967249814891267719
20645477 56 18411134727776694439
20645477 70 17895183463478430822
20871999 31 5833996031643289091
21065199 12 18272646870197601779
212916 134 18201727244797927194
21713013 43 7925918062487933026
23402539 116 18272654528620046023
23503953 91 17846496989741784644
23559900 14 18200579427773628598
2916195 48 18410859867097196417
351380 180 18343300379586796237
351380 3 12103846747920865352
3545911 37 18409442592250585822
4259306 186 10303816470910994376
4325135 7 18040155089955974527
465052 167 12031491203902088489
5104073 3 18271519909739578539
542803 24 16660078919002534625
5924683 9 18270117895018031715

> <PUBCHEM_SHAPE_MULTIPOLES>
343.75
12.67
1.79
0.98
0.42
0.05
0.14
5.78
3.17
0.28
0.03
0.17
0.01
1.26

> <PUBCHEM_SHAPE_SELFOVERLAP>
737.707

> <PUBCHEM_SHAPE_VOLUME>
189.1

> <PUBCHEM_COORDINATE_TYPE>
2
5
10

$$$$

