10457051
  -OEChem-07051213103D

 66 68  0     1  0  0  0  0  0999 V2000
   -3.8231   -2.2413    1.6525 O   0  0  0  0  0  0  0  0  0  0  0  0
   -2.8958    0.4837    1.5718 O   0  0  0  0  0  0  0  0  0  0  0  0
   -3.2682   -3.6801   -1.6652 O   0  0  0  0  0  0  0  0  0  0  0  0
   -2.9429    1.3250   -0.6272 O   0  0  0  0  0  0  0  0  0  0  0  0
    1.2625   -0.6158   -0.0677 O   0  0  0  0  0  0  0  0  0  0  0  0
    3.2567    0.1819    0.8439 O   0  0  0  0  0  0  0  0  0  0  0  0
    2.7464   -2.0388   -2.0123 O   0  0  0  0  0  0  0  0  0  0  0  0
    5.3439   -0.7626   -2.5646 O   0  0  0  0  0  0  0  0  0  0  0  0
    6.7679   -0.2577   -0.1003 O   0  0  0  0  0  0  0  0  0  0  0  0
   -3.7700    2.9513    0.7837 O   0  0  0  0  0  0  0  0  0  0  0  0
    4.4268    0.9942    3.1950 O   0  0  0  0  0  0  0  0  0  0  0  0
   -3.1176   -1.0566   -0.3659 C   0  0  1  0  0  0  0  0  0  0  0  0
   -1.6171   -1.4322   -0.2426 C   0  0  2  0  0  0  0  0  0  0  0  0
   -3.8725   -2.2662    0.2270 C   0  0  1  0  0  0  0  0  0  0  0  0
   -3.0347   -3.4451   -0.2821 C   0  0  2  0  0  0  0  0  0  0  0  0
   -1.5943   -2.9719   -0.0788 C   0  0  0  0  0  0  0  0  0  0  0  0
   -3.4300    0.3095    0.2561 C   0  0  1  0  0  0  0  0  0  0  0  0
   -0.9166   -0.7261    0.8942 C   0  0  0  0  0  0  0  0  0  0  0  0
   -5.3360   -2.3196   -0.2015 C   0  0  0  0  0  0  0  0  0  0  0  0
   -1.5847    0.1130    1.6994 C   0  0  0  0  0  0  0  0  0  0  0  0
    0.5460   -1.0005    1.0902 C   0  0  0  0  0  0  0  0  0  0  0  0
    2.6622   -0.8582    0.0711 C   0  0  2  0  0  0  0  0  0  0  0  0
    3.2735   -0.9016   -1.3293 C   0  0  1  0  0  0  0  0  0  0  0  0
    4.7974   -1.0079   -1.2678 C   0  0  2  0  0  0  0  0  0  0  0  0
   -3.1851    2.6110   -0.2355 C   0  0  0  0  0  0  0  0  0  0  0  0
    5.3856    0.0228   -0.3041 C   0  0  1  0  0  0  0  0  0  0  0  0
    4.6578   -0.0148    1.0418 C   0  0  1  0  0  0  0  0  0  0  0  0
   -2.6459    3.5562   -1.2879 C   0  0  0  0  0  0  0  0  0  0  0  0
    5.1485    1.0834    1.9800 C   0  0  0  0  0  0  0  0  0  0  0  0
   -1.6379    4.5720   -0.7281 C   0  0  0  0  0  0  0  0  0  0  0  0
   -1.1778    5.5196   -1.8375 C   0  0  0  0  0  0  0  0  0  0  0  0
   -0.4250    3.8733   -0.1084 C   0  0  0  0  0  0  0  0  0  0  0  0
   -3.3480   -1.0017   -1.4407 H   0  0  0  0  0  0  0  0  0  0  0  0
   -1.1178   -1.1549   -1.1802 H   0  0  0  0  0  0  0  0  0  0  0  0
   -3.2284   -4.3709    0.2698 H   0  0  0  0  0  0  0  0  0  0  0  0
   -1.2658   -3.2591    0.9273 H   0  0  0  0  0  0  0  0  0  0  0  0
   -0.9046   -3.4243   -0.7998 H   0  0  0  0  0  0  0  0  0  0  0  0
   -4.5177    0.4289    0.3252 H   0  0  0  0  0  0  0  0  0  0  0  0
   -5.4527   -2.2591   -1.2880 H   0  0  0  0  0  0  0  0  0  0  0  0
   -5.9072   -1.5021    0.2516 H   0  0  0  0  0  0  0  0  0  0  0  0
   -5.8028   -3.2494    0.1426 H   0  0  0  0  0  0  0  0  0  0  0  0
   -4.2409   -3.0560    1.9801 H   0  0  0  0  0  0  0  0  0  0  0  0
   -1.1493    0.5861    2.5692 H   0  0  0  0  0  0  0  0  0  0  0  0
    0.6990   -2.0674    1.2888 H   0  0  0  0  0  0  0  0  0  0  0  0
    0.9307   -0.4462    1.9554 H   0  0  0  0  0  0  0  0  0  0  0  0
   -2.6807   -4.4038   -1.9417 H   0  0  0  0  0  0  0  0  0  0  0  0
    2.8125   -1.8252    0.5713 H   0  0  0  0  0  0  0  0  0  0  0  0
    2.9729   -0.0190   -1.9064 H   0  0  0  0  0  0  0  0  0  0  0  0
    5.1086   -2.0225   -0.9926 H   0  0  0  0  0  0  0  0  0  0  0  0
    5.3169    1.0235   -0.7479 H   0  0  0  0  0  0  0  0  0  0  0  0
    4.8065   -0.9807    1.5439 H   0  0  0  0  0  0  0  0  0  0  0  0
   -3.5073    4.0683   -1.7331 H   0  0  0  0  0  0  0  0  0  0  0  0
   -2.1781    2.9766   -2.0940 H   0  0  0  0  0  0  0  0  0  0  0  0
    6.2158    0.9793    2.1968 H   0  0  0  0  0  0  0  0  0  0  0  0
    4.9604    2.0741    1.5527 H   0  0  0  0  0  0  0  0  0  0  0  0
   -2.1263    5.1650    0.0554 H   0  0  0  0  0  0  0  0  0  0  0  0
    2.9999   -2.8343   -1.5138 H   0  0  0  0  0  0  0  0  0  0  0  0
    5.0695    0.1270   -2.8452 H   0  0  0  0  0  0  0  0  0  0  0  0
    6.8390   -1.1383    0.3061 H   0  0  0  0  0  0  0  0  0  0  0  0
   -0.6697    4.9759   -2.6413 H   0  0  0  0  0  0  0  0  0  0  0  0
   -2.0313    6.0498   -2.2731 H   0  0  0  0  0  0  0  0  0  0  0  0
   -0.4838    6.2703   -1.4447 H   0  0  0  0  0  0  0  0  0  0  0  0
    0.0790    3.2298   -0.8377 H   0  0  0  0  0  0  0  0  0  0  0  0
    0.3023    4.6080    0.2535 H   0  0  0  0  0  0  0  0  0  0  0  0
   -0.7159    3.2538    0.7459 H   0  0  0  0  0  0  0  0  0  0  0  0
    4.7518    1.7042    3.7746 H   0  0  0  0  0  0  0  0  0  0  0  0
  1 14  1  0  0  0  0
  1 42  1  0  0  0  0
  2 17  1  0  0  0  0
  2 20  1  0  0  0  0
  3 15  1  0  0  0  0
  3 46  1  0  0  0  0
  4 17  1  0  0  0  0
  4 25  1  0  0  0  0
  5 21  1  0  0  0  0
  5 22  1  0  0  0  0
  6 22  1  0  0  0  0
  6 27  1  0  0  0  0
  7 23  1  0  0  0  0
  7 57  1  0  0  0  0
  8 24  1  0  0  0  0
  8 58  1  0  0  0  0
  9 26  1  0  0  0  0
  9 59  1  0  0  0  0
 10 25  2  0  0  0  0
 11 29  1  0  0  0  0
 11 66  1  0  0  0  0
 12 13  1  0  0  0  0
 12 14  1  0  0  0  0
 12 17  1  0  0  0  0
 12 33  1  0  0  0  0
 13 16  1  0  0  0  0
 13 18  1  0  0  0  0
 13 34  1  0  0  0  0
 14 15  1  0  0  0  0
 14 19  1  0  0  0  0
 15 16  1  0  0  0  0
 15 35  1  0  0  0  0
 16 36  1  0  0  0  0
 16 37  1  0  0  0  0
 17 38  1  0  0  0  0
 18 20  2  0  0  0  0
 18 21  1  0  0  0  0
 19 39  1  0  0  0  0
 19 40  1  0  0  0  0
 19 41  1  0  0  0  0
 20 43  1  0  0  0  0
 21 44  1  0  0  0  0
 21 45  1  0  0  0  0
 22 23  1  0  0  0  0
 22 47  1  0  0  0  0
 23 24  1  0  0  0  0
 23 48  1  0  0  0  0
 24 26  1  0  0  0  0
 24 49  1  0  0  0  0
 25 28  1  0  0  0  0
 26 27  1  0  0  0  0
 26 50  1  0  0  0  0
 27 29  1  0  0  0  0
 27 51  1  0  0  0  0
 28 30  1  0  0  0  0
 28 52  1  0  0  0  0
 28 53  1  0  0  0  0
 29 54  1  0  0  0  0
 29 55  1  0  0  0  0
 30 31  1  0  0  0  0
 30 32  1  0  0  0  0
 30 56  1  0  0  0  0
 31 60  1  0  0  0  0
 31 61  1  0  0  0  0
 31 62  1  0  0  0  0
 32 63  1  0  0  0  0
 32 64  1  0  0  0  0
 32 65  1  0  0  0  0
M  END
> <PUBCHEM_COMPOUND_CID>
10457051

> <PUBCHEM_CONFORMER_RMSD>
1

> <PUBCHEM_CONFORMER_DIVERSEORDER>
1
20
60
12
41
45
58
75
90
21
92
57
31
51
25
78
70
34
39
87
50
37
63
22
32
59
9
84
8
10
48
55
53
27
95
93
71
68
82
16
52
33
88
54
15
36
46
6
40
38
11
66
85
35
97
49
7
81
98
76
43
61
13
18
47
89
72
5
74
28
62
83
19
56
94
3
80
29
86
77
44
67
30
100
2
73
91
26
99
24
23
69
65
96
14
64
79
42
17
4

> <PUBCHEM_MMFF94_PARTIAL_CHARGES>
33
1 -0.68
10 -0.57
11 -0.68
13 0.14
14 0.28
15 0.28
17 0.56
18 -0.28
2 -0.36
20 -0.07
21 0.42
22 0.56
23 0.28
24 0.28
25 0.66
26 0.28
27 0.28
28 0.06
29 0.28
3 -0.68
4 -0.43
42 0.4
43 0.15
46 0.4
5 -0.56
57 0.4
58 0.4
59 0.4
6 -0.56
66 0.4
7 -0.68
8 -0.68
9 -0.68

> <PUBCHEM_EFFECTIVE_ROTOR_COUNT>
10.2

> <PUBCHEM_PHARMACOPHORE_FEATURES>
20
1 1 acceptor
1 1 donor
1 10 acceptor
1 11 acceptor
1 11 donor
1 2 acceptor
1 3 acceptor
1 3 donor
1 5 acceptor
1 6 acceptor
1 7 acceptor
1 7 donor
1 8 acceptor
1 8 donor
1 9 acceptor
1 9 donor
3 30 31 32 hydrophobe
5 12 13 14 15 16 rings
6 2 12 13 17 18 20 rings
6 6 22 23 24 26 27 rings

> <PUBCHEM_HEAVY_ATOM_COUNT>
32

> <PUBCHEM_ATOM_DEF_STEREO_COUNT>
10

> <PUBCHEM_ATOM_UDEF_STEREO_COUNT>
0

> <PUBCHEM_BOND_DEF_STEREO_COUNT>
0

> <PUBCHEM_BOND_UDEF_STEREO_COUNT>
0

> <PUBCHEM_ISOTOPIC_ATOM_COUNT>
0

> <PUBCHEM_COMPONENT_COUNT>
1

> <PUBCHEM_CACTVS_TAUTO_COUNT>
1

> <PUBCHEM_CONFORMER_ID>
009F8FDB00000001

> <PUBCHEM_MMFF94_ENERGY>
84.7498

> <PUBCHEM_FEATURE_SELFOVERLAP>
101.712

> <PUBCHEM_SHAPE_FINGERPRINT>
10369192 42 17098346294693192008
10670039 82 18343574162467003734
10937287 8 17622171582359377757
11059845 2 17695659589917529776
11488393 25 17118041717331954515
12788726 201 18202279199587649522
13583140 156 18040157344539680166
13617811 41 18340487760161112983
14508225 48 18265342716239659655
14910302 57 18259983764610317542
15198563 99 18411704296944847245
15297060 5 17761758964430361100
15463212 79 18270685388872467267
15961568 22 18124319307543181300
16067690 210 18060414699514843272
17349148 13 17489031465922323370
17818456 19 17911819160368908914
17844677 252 18336261263301674498
1813 80 18265612074792140899
19958102 18 18260829327828505407
20101258 96 18270669871366175337
21033650 10 18057583530198195894
2132832 1 17988081089092103044
21987440 362 17048802717114352916
22393880 68 18260260889328807718
23557571 272 18335137583623813994
23559900 14 17603861265256844994
25019877 29 17822279237492617223
376196 1 17122835003802761177
4394409 98 17257917720830916830
44249763 50 18335991943103854504
469060 322 18341315718265331763
497634 4 17241034419159265115
508706 21 18337118946558848916
531348 171 18268986673641311034
550186 7 18335978778648804420
5895379 119 18129086974739283884
6608658 132 18202282545546664397

> <PUBCHEM_SHAPE_MULTIPOLES>
593.98
12.5
5.82
2.01
18.82
8.89
0.39
-4.68
0.17
-9.48
-3.2
2.62
0.16
1.73

> <PUBCHEM_SHAPE_SELFOVERLAP>
1231.633

> <PUBCHEM_SHAPE_VOLUME>
333.8

> <PUBCHEM_COORDINATE_TYPE>
2
5
10

$$$$

