442953
  -OEChem-07051213002D

 59 64  0     1  0  0  0  0  0999 V2000
    3.2014   -0.2737    0.0000 N   0  0  3  0  0  0  0  0  0  0  0  0
    6.2679    1.2715    0.0000 N   0  0  3  0  0  0  0  0  0  0  0  0
    4.2918   -1.7060    0.0000 N   0  0  3  0  0  0  0  0  0  0  0  0
    4.9614   -0.0351    0.0000 C   0  0  1  0  0  0  0  0  0  0  0  0
    4.0375    0.3476    0.0000 C   0  0  1  0  0  0  0  0  0  0  0  0
    4.9614    2.5780    0.0000 C   0  0  1  0  0  0  0  0  0  0  0  0
    4.5954    1.2715    0.0000 C   0  0  0  0  0  0  0  0  0  0  0  0
    3.6548    1.2715    0.0000 C   0  0  2  0  0  0  0  0  0  0  0  0
    5.1132   -1.0656    0.0000 C   0  0  1  0  0  0  0  0  0  0  0  0
    5.8853    0.3476    0.0000 C   0  0  0  0  0  0  0  0  0  0  0  0
    4.0375    2.1954    0.0000 C   0  0  0  0  0  0  0  0  0  0  0  0
    5.8853    2.1954    0.0000 C   0  0  1  0  0  0  0  0  0  0  0  0
    2.7220    1.5878    0.0000 C   0  0  0  0  0  0  0  0  0  0  0  0
    3.3294   -1.3074    0.0000 C   0  0  0  0  0  0  0  0  0  0  0  0
    6.1250   -1.4575    0.0000 C   0  0  0  0  0  0  0  0  0  0  0  0
    2.2456   -0.0359    0.0000 C   0  0  0  0  0  0  0  0  0  0  0  0
    6.5066    3.0314    0.0000 C   0  0  0  0  0  0  0  0  0  0  0  0
    2.0000    0.9179    0.0000 C   0  0  0  0  0  0  0  0  0  0  0  0
    7.2984    1.1196    0.0000 C   0  0  0  0  0  0  0  0  0  0  0  0
    4.4251   -2.7828    0.0000 C   0  0  0  0  0  0  0  0  0  0  0  0
    6.2832   -2.5309    0.0000 C   0  0  0  0  0  0  0  0  0  0  0  0
    7.5403    2.9034    0.0000 C   0  0  0  0  0  0  0  0  0  0  0  0
    5.4275   -3.1980    0.0000 C   0  0  0  0  0  0  0  0  0  0  0  0
    7.9389    1.9411    0.0000 C   0  0  0  0  0  0  0  0  0  0  0  0
    4.3628   -0.4377    0.0000 H   0  0  0  0  0  0  0  0  0  0  0  0
    4.9614    3.4280    0.0000 H   0  0  0  0  0  0  0  0  0  0  0  0
    4.0888    1.6290    0.0000 H   0  0  0  0  0  0  0  0  0  0  0  0
    5.2154    1.2715    0.0000 H   0  0  0  0  0  0  0  0  0  0  0  0
    3.3295    2.0568    0.0000 H   0  0  0  0  0  0  0  0  0  0  0  0
    5.7775   -0.5352    0.0000 H   0  0  0  0  0  0  0  0  0  0  0  0
    5.9662   -0.2671    0.0000 H   0  0  0  0  0  0  0  0  0  0  0  0
    6.5000    0.2667    0.0000 H   0  0  0  0  0  0  0  0  0  0  0  0
    3.9566    2.8100    0.0000 H   0  0  0  0  0  0  0  0  0  0  0  0
    3.4228    2.2763    0.0000 H   0  0  0  0  0  0  0  0  0  0  0  0
    5.5600    2.9806    0.0000 H   0  0  0  0  0  0  0  0  0  0  0  0
    3.0151    2.1342    0.0000 H   0  0  0  0  0  0  0  0  0  0  0  0
    2.2313    1.9667    0.0000 H   0  0  0  0  0  0  0  0  0  0  0  0
    2.7102   -1.2772    0.0000 H   0  0  0  0  0  0  0  0  0  0  0  0
    3.1937   -1.9124    0.0000 H   0  0  0  0  0  0  0  0  0  0  0  0
    6.7448   -1.4734    0.0000 H   0  0  0  0  0  0  0  0  0  0  0  0
    6.2467   -0.8496    0.0000 H   0  0  0  0  0  0  0  0  0  0  0  0
    1.6280   -0.0896    0.0000 H   0  0  0  0  0  0  0  0  0  0  0  0
    2.1970   -0.6540    0.0000 H   0  0  0  0  0  0  0  0  0  0  0  0
    6.6869    3.6246    0.0000 H   0  0  0  0  0  0  0  0  0  0  0  0
    5.9530    3.3106    0.0000 H   0  0  0  0  0  0  0  0  0  0  0  0
    1.6589    1.4356    0.0000 H   0  0  0  0  0  0  0  0  0  0  0  0
    1.4332    0.6666    0.0000 H   0  0  0  0  0  0  0  0  0  0  0  0
    7.1044    0.5307    0.0000 H   0  0  0  0  0  0  0  0  0  0  0  0
    7.8454    0.8277    0.0000 H   0  0  0  0  0  0  0  0  0  0  0  0
    3.8058   -2.7526    0.0000 H   0  0  0  0  0  0  0  0  0  0  0  0
    4.2894   -3.3878    0.0000 H   0  0  0  0  0  0  0  0  0  0  0  0
    6.5751   -3.0779    0.0000 H   0  0  0  0  0  0  0  0  0  0  0  0
    6.8720   -2.3369    0.0000 H   0  0  0  0  0  0  0  0  0  0  0  0
    8.1452    3.0392    0.0000 H   0  0  0  0  0  0  0  0  0  0  0  0
    7.5101    3.5227    0.0000 H   0  0  0  0  0  0  0  0  0  0  0  0
    5.0957   -3.7218    0.0000 H   0  0  0  0  0  0  0  0  0  0  0  0
    5.8868   -3.6145    0.0000 H   0  0  0  0  0  0  0  0  0  0  0  0
    8.3554    1.4818    0.0000 H   0  0  0  0  0  0  0  0  0  0  0  0
    8.4626    2.2728    0.0000 H   0  0  0  0  0  0  0  0  0  0  0  0
  1  5  1  0  0  0  0
  1 14  1  0  0  0  0
  1 16  1  0  0  0  0
  2 10  1  0  0  0  0
  2 12  1  0  0  0  0
  2 19  1  0  0  0  0
  3  9  1  0  0  0  0
  3 14  1  0  0  0  0
  3 20  1  0  0  0  0
  4  5  1  0  0  0  0
  4  7  1  1  0  0  0
  4  9  1  0  0  0  0
  4 10  1  0  0  0  0
  5  8  1  0  0  0  0
  5 25  1  1  0  0  0
  6  7  1  0  0  0  0
  6 11  1  0  0  0  0
  6 12  1  0  0  0  0
  6 26  1  6  0  0  0
  7 27  1  0  0  0  0
  7 28  1  0  0  0  0
  8 11  1  0  0  0  0
  8 13  1  0  0  0  0
  8 29  1  6  0  0  0
  9 15  1  0  0  0  0
  9 30  1  6  0  0  0
 10 31  1  0  0  0  0
 10 32  1  0  0  0  0
 11 33  1  0  0  0  0
 11 34  1  0  0  0  0
 12 17  1  0  0  0  0
 12 35  1  6  0  0  0
 13 18  1  0  0  0  0
 13 36  1  0  0  0  0
 13 37  1  0  0  0  0
 14 38  1  0  0  0  0
 14 39  1  0  0  0  0
 15 21  1  0  0  0  0
 15 40  1  0  0  0  0
 15 41  1  0  0  0  0
 16 18  1  0  0  0  0
 16 42  1  0  0  0  0
 16 43  1  0  0  0  0
 17 22  1  0  0  0  0
 17 44  1  0  0  0  0
 17 45  1  0  0  0  0
 18 46  1  0  0  0  0
 18 47  1  0  0  0  0
 19 24  1  0  0  0  0
 19 48  1  0  0  0  0
 19 49  1  0  0  0  0
 20 23  1  0  0  0  0
 20 50  1  0  0  0  0
 20 51  1  0  0  0  0
 21 23  1  0  0  0  0
 21 52  1  0  0  0  0
 21 53  1  0  0  0  0
 22 24  1  0  0  0  0
 22 54  1  0  0  0  0
 22 55  1  0  0  0  0
 23 56  1  0  0  0  0
 23 57  1  0  0  0  0
 24 58  1  0  0  0  0
 24 59  1  0  0  0  0
M  END
> <PUBCHEM_COMPOUND_CID>
442953

> <PUBCHEM_COMPOUND_CANONICALIZED>
1

> <PUBCHEM_CACTVS_COMPLEXITY>
507

> <PUBCHEM_CACTVS_HBOND_ACCEPTOR>
3

> <PUBCHEM_CACTVS_HBOND_DONOR>
0

> <PUBCHEM_CACTVS_ROTATABLE_BOND>
0

> <PUBCHEM_CACTVS_SUBSKEYS>
AAADcfB7AAAAAAAAAAAAAAAAAAAAAAAAAAA8WLFiwAAWAACwAAAAHAAAAAAADyjBAAQBAAMAAAAAAAAAAAAAAAAAAAAAAAAIAACAAAIAwAAEAAAIAAKAAAEQgMAPAAAAAAAAAAAQAAQAAAQAAAAAAAAAAA==

> <PUBCHEM_IUPAC_INCHI>
InChI=1S/C21H35N3/c1-3-9-22-14-21-13-17(18(22)7-1)12-16-6-5-11-24(20(16)21)15-23-10-4-2-8-19(21)23/h16-20H,1-15H2/t16-,17+,18+,19+,20+,21+/m0/s1

> <PUBCHEM_IUPAC_INCHIKEY>
GFDFZTFQPIBNSQ-WSBLSWJJSA-N

> <PUBCHEM_XLOGP3_AA>
3.5

> <PUBCHEM_EXACT_MASS>
329.283098

> <PUBCHEM_MOLECULAR_FORMULA>
C21H35N3

> <PUBCHEM_MOLECULAR_WEIGHT>
329.5227

> <PUBCHEM_OPENEYE_CAN_SMILES>
C1CCN2CC34CC(C2C1)CC5C3N(CCC5)CN6C4CCCC6

> <PUBCHEM_OPENEYE_ISO_SMILES>
C1CCN2C[C@@]34C[C@H]([C@H]2C1)C[C@H]5[C@H]3N(CCC5)CN6[C@@H]4CCCC6

> <PUBCHEM_CACTVS_TPSA>
9.7

> <PUBCHEM_MONOISOTOPIC_WEIGHT>
329.283098

> <PUBCHEM_TOTAL_CHARGE>
0

> <PUBCHEM_HEAVY_ATOM_COUNT>
24

> <PUBCHEM_ATOM_DEF_STEREO_COUNT>
6

> <PUBCHEM_ATOM_UDEF_STEREO_COUNT>
0

> <PUBCHEM_BOND_DEF_STEREO_COUNT>
0

> <PUBCHEM_BOND_UDEF_STEREO_COUNT>
0

> <PUBCHEM_ISOTOPIC_ATOM_COUNT>
0

> <PUBCHEM_COMPONENT_COUNT>
1

> <PUBCHEM_CACTVS_TAUTO_COUNT>
1

> <PUBCHEM_COORDINATE_TYPE>
1
5
255

> <PUBCHEM_BONDANNOTATIONS>
12  35  6
4  7  5
5  25  5
6  26  6
8  29  6
9  30  6

$$$$

