10463
  -OEChem-06261204343D

 41 40  0     1  0  0  0  0  0999 V2000
   -7.0951   -1.1375    1.5912 O   0  0  0  0  0  0  0  0  0  0  0  0
    9.3303    2.6064    0.4915 O   0  0  0  0  0  0  0  0  0  0  0  0
   -7.2857    0.9474    0.3631 C   0  0  0  0  0  0  0  0  0  0  0  0
   -6.5399   -0.3876    0.5128 C   0  0  1  0  0  0  0  0  0  0  0  0
   -6.7807    1.8327   -0.7823 C   0  0  0  0  0  0  0  0  0  0  0  0
   -7.5605    3.1372   -0.8572 C   0  0  0  0  0  0  0  0  0  0  0  0
   -5.0689   -0.2215    0.7710 C   0  0  0  0  0  0  0  0  0  0  0  0
   -4.1161   -0.7356   -0.0216 C   0  0  0  0  0  0  0  0  0  0  0  0
    7.5427    0.9769    0.2634 C   0  0  0  0  0  0  0  0  0  0  0  0
    7.1380   -0.4991    0.3064 C   0  0  0  0  0  0  0  0  0  0  0  0
    9.0202    1.2219    0.5628 C   0  0  0  0  0  0  0  0  0  0  0  0
   -2.7020   -0.5674    0.2302 C   0  0  0  0  0  0  0  0  0  0  0  0
   -1.7517   -1.0831   -0.5648 C   0  0  0  0  0  0  0  0  0  0  0  0
    5.7129   -0.6933    0.0049 C   0  0  0  0  0  0  0  0  0  0  0  0
   -0.3361   -0.9125   -0.3088 C   0  0  0  0  0  0  0  0  0  0  0  0
    0.6742   -1.3923   -1.0490 C   0  0  0  0  0  0  0  0  0  0  0  0
    4.5486   -0.8552   -0.2392 C   0  0  0  0  0  0  0  0  0  0  0  0
    2.0521   -1.1985   -0.7572 C   0  0  0  0  0  0  0  0  0  0  0  0
    3.2177   -1.0390   -0.5171 C   0  0  0  0  0  0  0  0  0  0  0  0
   -8.3542    0.7390    0.2194 H   0  0  0  0  0  0  0  0  0  0  0  0
   -7.2258    1.5010    1.3101 H   0  0  0  0  0  0  0  0  0  0  0  0
   -6.6976   -0.9801   -0.3970 H   0  0  0  0  0  0  0  0  0  0  0  0
   -6.8765    1.2964   -1.7333 H   0  0  0  0  0  0  0  0  0  0  0  0
   -5.7198    2.0686   -0.6451 H   0  0  0  0  0  0  0  0  0  0  0  0
   -7.4565    3.7102    0.0697 H   0  0  0  0  0  0  0  0  0  0  0  0
   -7.1888    3.7537   -1.6816 H   0  0  0  0  0  0  0  0  0  0  0  0
   -8.6252    2.9482   -1.0275 H   0  0  0  0  0  0  0  0  0  0  0  0
   -4.7895    0.3459    1.6564 H   0  0  0  0  0  0  0  0  0  0  0  0
   -8.0421   -1.2600    1.4068 H   0  0  0  0  0  0  0  0  0  0  0  0
   -4.4010   -1.3045   -0.9030 H   0  0  0  0  0  0  0  0  0  0  0  0
    6.9360    1.5534    0.9745 H   0  0  0  0  0  0  0  0  0  0  0  0
    7.3040    1.3990   -0.7220 H   0  0  0  0  0  0  0  0  0  0  0  0
    7.7419   -1.0639   -0.4135 H   0  0  0  0  0  0  0  0  0  0  0  0
    7.3594   -0.9090    1.2988 H   0  0  0  0  0  0  0  0  0  0  0  0
    9.2703    0.8719    1.5691 H   0  0  0  0  0  0  0  0  0  0  0  0
    9.6576    0.6891   -0.1503 H   0  0  0  0  0  0  0  0  0  0  0  0
   -2.4225    0.0071    1.1106 H   0  0  0  0  0  0  0  0  0  0  0  0
   -2.0243   -1.6585   -1.4463 H   0  0  0  0  0  0  0  0  0  0  0  0
    9.1098    2.9096   -0.4058 H   0  0  0  0  0  0  0  0  0  0  0  0
   -0.0873   -0.3325    0.5798 H   0  0  0  0  0  0  0  0  0  0  0  0
    0.4481   -1.9733   -1.9395 H   0  0  0  0  0  0  0  0  0  0  0  0
  1  4  1  0  0  0  0
  1 29  1  0  0  0  0
  2 11  1  0  0  0  0
  2 39  1  0  0  0  0
  3  4  1  0  0  0  0
  3  5  1  0  0  0  0
  3 20  1  0  0  0  0
  3 21  1  0  0  0  0
  4  7  1  0  0  0  0
  4 22  1  0  0  0  0
  5  6  1  0  0  0  0
  5 23  1  0  0  0  0
  5 24  1  0  0  0  0
  6 25  1  0  0  0  0
  6 26  1  0  0  0  0
  6 27  1  0  0  0  0
  7  8  2  0  0  0  0
  7 28  1  0  0  0  0
  8 12  1  0  0  0  0
  8 30  1  0  0  0  0
  9 10  1  0  0  0  0
  9 11  1  0  0  0  0
  9 31  1  0  0  0  0
  9 32  1  0  0  0  0
 10 14  1  0  0  0  0
 10 33  1  0  0  0  0
 10 34  1  0  0  0  0
 11 35  1  0  0  0  0
 11 36  1  0  0  0  0
 12 13  2  0  0  0  0
 12 37  1  0  0  0  0
 13 15  1  0  0  0  0
 13 38  1  0  0  0  0
 14 17  3  0  0  0  0
 15 16  2  0  0  0  0
 15 40  1  0  0  0  0
 16 18  1  0  0  0  0
 16 41  1  0  0  0  0
 17 19  1  0  0  0  0
 18 19  3  0  0  0  0
M  END
> <PUBCHEM_COMPOUND_CID>
10463

> <PUBCHEM_CONFORMER_RMSD>
0.8

> <PUBCHEM_CONFORMER_DIVERSEORDER>
1
117
95
106
16
14
18
96
54
35
113
109
28
4
40
7
49
69
93
44
68
36
67
21
46
47
13
119
38
3
2
89
80
65
10
19
25
74
58
108
59
30
101
5
110
29
105
11
111
12
24
97
45
88
62
86
60
15
99
114
53
90
77
73
34
103
71
23
8
64
102
20
107
27
39
94
116
43
92
98
118
31
9
91
56
52
120
85
70
22
17
33
72
55
81
26
37
41
75
79
100
78
82
48
112
87
42
61
115
76
50
66
32
83
63
51
104
6
84
57

> <PUBCHEM_MMFF94_PARTIAL_CHARGES>
21
1 -0.68
10 0.2
11 0.28
12 -0.15
13 -0.15
14 -0.2
15 -0.15
16 -0.09
18 -0.06
2 -0.68
28 0.15
29 0.4
30 0.15
37 0.15
38 0.15
39 0.4
4 0.42
40 0.15
41 0.15
7 -0.29
8 -0.15

> <PUBCHEM_EFFECTIVE_ROTOR_COUNT>
7

> <PUBCHEM_PHARMACOPHORE_FEATURES>
5
1 1 acceptor
1 1 donor
1 2 acceptor
1 2 donor
1 6 hydrophobe

> <PUBCHEM_HEAVY_ATOM_COUNT>
19

> <PUBCHEM_ATOM_DEF_STEREO_COUNT>
0

> <PUBCHEM_ATOM_UDEF_STEREO_COUNT>
1

> <PUBCHEM_BOND_DEF_STEREO_COUNT>
0

> <PUBCHEM_BOND_UDEF_STEREO_COUNT>
3

> <PUBCHEM_ISOTOPIC_ATOM_COUNT>
0

> <PUBCHEM_COMPONENT_COUNT>
1

> <PUBCHEM_CACTVS_TAUTO_COUNT>
1

> <PUBCHEM_CONFORMER_ID>
000028DF00000001

> <PUBCHEM_MMFF94_ENERGY>
8.9824

> <PUBCHEM_FEATURE_SELFOVERLAP>
25.371

> <PUBCHEM_SHAPE_FINGERPRINT>
10 15 18410854356733419738
10066227 49 9511472121591246360
10429389 143 18408887364780588929
106641 1 18341046328725451515
11315181 36 17675922097942473515
11386260 185 4750867179172878826
11463208 3 9727627319982885001
11638347 137 17060627703289982282
11973863 73 12823027450978267893
12091667 2 18412823599924489959
125118 31 18272083911838934092
12838862 33 17603598430548254704
13668630 136 8790884077650943238
14251764 18 18060697277907434038
14428016 248 17095512994645413683
14598715 104 18338245950488597025
14617042 71 18338514124632411628
14729087 3 18411701028205331951
155225 1 17894347770279536784
15690457 1 12679188185435688762
17093844 174 17988922297930181403
1754908 1 16702302339158470920
1768 4 17968087604149519067
1818759 1 12175624010276618912
18335252 114 17095244727019983816
20735858 18 16415482636646982122
21095123 145 16515964766731923935
21130983 4 17894908521305069874
21150785 3 4750868234953837895
21267235 1 10735875079963247998
21344244 246 8718286637012061028
220451 1 5472859208940035679
22224240 67 18060701672028730154
246663 6 11671779381915851450
33532 11 10663822971062384272
3711267 37 18188198832888580696
437795 83 17531810281089326633
5283384 27 18260269676451359663
5470011 282 8502366746729937466
636775 72 18340207509682871221
636775 8 8502364559963764381
6438161 24 10519992543987721446
9995097 26 8430304762670806726

> <PUBCHEM_SHAPE_MULTIPOLES>
379.27
33.6
2.3
1
31.46
2.34
0.06
26.61
7.5
-1.05
-0.42
-1.18
-0.08
3.24

> <PUBCHEM_SHAPE_SELFOVERLAP>
720.875

> <PUBCHEM_SHAPE_VOLUME>
230.6

> <PUBCHEM_COORDINATE_TYPE>
2
5
10

$$$$

