78821
  -OEChem-07051212463D

 18 19  0     0  0  0  0  0  0999 V2000
    1.6966   -0.2647    0.0000 N   0  0  0  0  0  0  0  0  0  0  0  0
   -0.1065   -1.8749    0.0003 N   0  0  0  0  0  0  0  0  0  0  0  0
   -1.6095    1.3608   -0.0002 N   0  0  0  0  0  0  0  0  0  0  0  0
    1.2397    2.1548    0.0006 N   0  0  0  0  0  0  0  0  0  0  0  0
   -2.2699   -0.8439   -0.0001 N   0  0  0  0  0  0  0  0  0  0  0  0
    0.8182    0.8468    0.0002 C   0  0  0  0  0  0  0  0  0  0  0  0
   -0.4976    0.5639    0.0001 C   0  0  0  0  0  0  0  0  0  0  0  0
   -0.9716   -0.8208    0.0002 C   0  0  0  0  0  0  0  0  0  0  0  0
    1.1500   -1.5444    0.0003 C   0  0  0  0  0  0  0  0  0  0  0  0
    3.1462   -0.0844   -0.0008 C   0  0  0  0  0  0  0  0  0  0  0  0
   -2.5957    0.5068   -0.0004 C   0  0  0  0  0  0  0  0  0  0  0  0
    1.9096   -2.3429    0.0003 H   0  0  0  0  0  0  0  0  0  0  0  0
    3.4618    0.4689   -0.8918 H   0  0  0  0  0  0  0  0  0  0  0  0
    3.6789   -1.0414   -0.0021 H   0  0  0  0  0  0  0  0  0  0  0  0
    3.4630    0.4674    0.8907 H   0  0  0  0  0  0  0  0  0  0  0  0
    0.5601    2.9054    0.0011 H   0  0  0  0  0  0  0  0  0  0  0  0
    2.2291    2.3642    0.0012 H   0  0  0  0  0  0  0  0  0  0  0  0
   -3.6499    0.8226   -0.0008 H   0  0  0  0  0  0  0  0  0  0  0  0
  1  6  1  0  0  0  0
  1  9  1  0  0  0  0
  1 10  1  0  0  0  0
  2  8  1  0  0  0  0
  2  9  2  0  0  0  0
  3  7  1  0  0  0  0
  3 11  2  0  0  0  0
  4  6  1  0  0  0  0
  4 16  1  0  0  0  0
  4 17  1  0  0  0  0
  5  8  2  0  0  0  0
  5 11  1  0  0  0  0
  6  7  2  0  0  0  0
  7  8  1  0  0  0  0
  9 12  1  0  0  0  0
 10 13  1  0  0  0  0
 10 14  1  0  0  0  0
 10 15  1  0  0  0  0
 11 18  1  0  0  0  0
M  END
> <PUBCHEM_COMPOUND_CID>
78821

> <PUBCHEM_CONFORMER_RMSD>
0.4

> <PUBCHEM_CONFORMER_DIVERSEORDER>
1

> <PUBCHEM_MMFF94_PARTIAL_CHARGES>
15
1 -0.52
10 0.37
11 0.6
12 0.06
16 0.4
17 0.4
18 0.06
2 -0.66
3 -0.62
4 -0.9
5 -0.66
6 0.2
7 0.19
8 0.65
9 0.44

> <PUBCHEM_EFFECTIVE_ROTOR_COUNT>
0

> <PUBCHEM_PHARMACOPHORE_FEATURES>
7
1 4 cation
1 4 donor
3 1 2 9 cation
3 2 5 8 cation
3 3 5 11 cation
5 3 5 7 8 11 rings
6 1 2 6 7 8 9 rings

> <PUBCHEM_HEAVY_ATOM_COUNT>
11

> <PUBCHEM_ATOM_DEF_STEREO_COUNT>
0

> <PUBCHEM_ATOM_UDEF_STEREO_COUNT>
0

> <PUBCHEM_BOND_DEF_STEREO_COUNT>
0

> <PUBCHEM_BOND_UDEF_STEREO_COUNT>
0

> <PUBCHEM_ISOTOPIC_ATOM_COUNT>
0

> <PUBCHEM_COMPONENT_COUNT>
1

> <PUBCHEM_CACTVS_TAUTO_COUNT>
3

> <PUBCHEM_CONFORMER_ID>
000133E500000001

> <PUBCHEM_MMFF94_ENERGY>
40.0333

> <PUBCHEM_FEATURE_SELFOVERLAP>
36.176

> <PUBCHEM_SHAPE_FINGERPRINT>
11206711 2 18412547612981839693
12423570 1 6859502705402124690
12524768 44 18046623692180412031
14325111 11 18410856577136176356
16945 1 18410575084763442119
18185500 45 18265897045518393275
193761 8 17834394523320577094
21040471 1 18194402186611701284
23235685 24 18410298037803003184
23402655 69 18121236513409856829
23463225 33 18270403922638541794
23552423 10 18270683043487578671
241688 4 17905885138588597386
2748010 2 18050848814654823951
29004967 10 18341325703457327483
5084963 1 18114462271071047011
528886 8 18338240460955429105
53812653 166 18335144223485115104

> <PUBCHEM_SHAPE_MULTIPOLES>
201.47
3.54
1.86
0.58
0.57
0.13
0
0.22
0
0.25
0
0.01
0
0

> <PUBCHEM_SHAPE_SELFOVERLAP>
439.746

> <PUBCHEM_SHAPE_VOLUME>
105.8

> <PUBCHEM_COORDINATE_TYPE>
2
5
10

$$$$

