5799
  -OEChem-07051212543D

 27 30  0     0  0  0  0  0  0999 V2000
    2.7929    0.9512   -0.0364 N   0  0  0  0  0  0  0  0  0  0  0  0
   -1.7694    2.0735    0.0708 N   0  0  0  0  0  0  0  0  0  0  0  0
   -0.4622   -2.4384   -0.0705 N   0  0  0  0  0  0  0  0  0  0  0  0
    0.5187    1.5402    0.0168 N   0  0  0  0  0  0  0  0  0  0  0  0
    1.1860   -0.7635   -0.0553 N   0  0  0  0  0  0  0  0  0  0  0  0
   -1.1435   -0.1904   -0.0010 N   0  0  0  0  0  0  0  0  0  0  0  0
    3.8086    0.1287   -0.7061 C   0  0  0  0  0  0  0  0  0  0  0  0
    3.7889    0.2394    0.7749 C   0  0  0  0  0  0  0  0  0  0  0  0
   -3.0575    1.7890    0.7163 C   0  0  0  0  0  0  0  0  0  0  0  0
   -2.9741    1.9416   -0.7588 C   0  0  0  0  0  0  0  0  0  0  0  0
   -1.7131   -2.8915   -0.6922 C   0  0  0  0  0  0  0  0  0  0  0  0
   -1.5363   -2.9661    0.7806 C   0  0  0  0  0  0  0  0  0  0  0  0
    1.4315    0.5563   -0.0245 C   0  0  0  0  0  0  0  0  0  0  0  0
   -0.7472    1.0923    0.0265 C   0  0  0  0  0  0  0  0  0  0  0  0
   -0.1231   -1.0623   -0.0410 C   0  0  0  0  0  0  0  0  0  0  0  0
    4.5246    0.7197   -1.2587 H   0  0  0  0  0  0  0  0  0  0  0  0
    3.4589   -0.7791   -1.1744 H   0  0  0  0  0  0  0  0  0  0  0  0
    3.4119   -0.5840    1.3630 H   0  0  0  0  0  0  0  0  0  0  0  0
    4.4903    0.9069    1.2535 H   0  0  0  0  0  0  0  0  0  0  0  0
   -3.4225    2.6204    1.3016 H   0  0  0  0  0  0  0  0  0  0  0  0
   -3.1741    0.8033    1.1410 H   0  0  0  0  0  0  0  0  0  0  0  0
   -3.0169    1.0632   -1.3856 H   0  0  0  0  0  0  0  0  0  0  0  0
   -3.2804    2.8784   -1.2006 H   0  0  0  0  0  0  0  0  0  0  0  0
   -1.5860   -3.7930   -1.2739 H   0  0  0  0  0  0  0  0  0  0  0  0
   -2.3461   -2.1240   -1.1115 H   0  0  0  0  0  0  0  0  0  0  0  0
   -2.0321   -2.2429    1.4110 H   0  0  0  0  0  0  0  0  0  0  0  0
   -1.2862   -3.9185    1.2246 H   0  0  0  0  0  0  0  0  0  0  0  0
  1  7  1  0  0  0  0
  1  8  1  0  0  0  0
  1 13  1  0  0  0  0
  2  9  1  0  0  0  0
  2 10  1  0  0  0  0
  2 14  1  0  0  0  0
  3 11  1  0  0  0  0
  3 12  1  0  0  0  0
  3 15  1  0  0  0  0
  4 13  2  0  0  0  0
  4 14  1  0  0  0  0
  5 13  1  0  0  0  0
  5 15  2  0  0  0  0
  6 14  2  0  0  0  0
  6 15  1  0  0  0  0
  7  8  1  0  0  0  0
  7 16  1  0  0  0  0
  7 17  1  0  0  0  0
  8 18  1  0  0  0  0
  8 19  1  0  0  0  0
  9 10  1  0  0  0  0
  9 20  1  0  0  0  0
  9 21  1  0  0  0  0
 10 22  1  0  0  0  0
 10 23  1  0  0  0  0
 11 12  1  0  0  0  0
 11 24  1  0  0  0  0
 11 25  1  0  0  0  0
 12 26  1  0  0  0  0
 12 27  1  0  0  0  0
M  END
> <PUBCHEM_COMPOUND_CID>
5799

> <PUBCHEM_CONFORMER_RMSD>
0.6

> <PUBCHEM_CONFORMER_DIVERSEORDER>
1
3
2

> <PUBCHEM_MMFF94_PARTIAL_CHARGES>
27
1 -0.44
10 -0.03
11 -0.03
12 -0.03
13 0.72
14 0.72
15 0.72
16 0.1
17 0.1
18 0.1
19 0.1
2 -0.44
20 0.1
21 0.1
22 0.1
23 0.1
24 0.1
25 0.1
26 0.1
27 0.1
3 -0.44
4 -0.62
5 -0.62
6 -0.62
7 -0.03
8 -0.03
9 -0.03

> <PUBCHEM_EFFECTIVE_ROTOR_COUNT>
4.8

> <PUBCHEM_PHARMACOPHORE_FEATURES>
4
4 1 4 5 13 cation
4 2 4 6 14 cation
4 3 5 6 15 cation
6 4 5 6 13 14 15 rings

> <PUBCHEM_HEAVY_ATOM_COUNT>
15

> <PUBCHEM_ATOM_DEF_STEREO_COUNT>
0

> <PUBCHEM_ATOM_UDEF_STEREO_COUNT>
0

> <PUBCHEM_BOND_DEF_STEREO_COUNT>
0

> <PUBCHEM_BOND_UDEF_STEREO_COUNT>
0

> <PUBCHEM_ISOTOPIC_ATOM_COUNT>
0

> <PUBCHEM_COMPONENT_COUNT>
1

> <PUBCHEM_CACTVS_TAUTO_COUNT>
1

> <PUBCHEM_CONFORMER_ID>
000016A700000001

> <PUBCHEM_MMFF94_ENERGY>
86.2721

> <PUBCHEM_FEATURE_SELFOVERLAP>
20.427

> <PUBCHEM_SHAPE_FINGERPRINT>
1 1 18051692445110860863
11322862 65 18338789108821041174
11357001 24 18270117907443575611
116883 192 18191302680555243775
12138202 97 18410285930585530246
12532896 13 18337110167291845926
12553582 1 17833826067493921702
12759256 9 17618511321013625355
13052359 8 18341620308455198843
13140716 1 18050283665889221939
13380535 76 18335143145495744486
14178000 15 17471295054965693647
14178000 22 18267884924003075936
14178342 30 18269854055397824778
15042514 8 18413105061045380682
15309172 13 18339639065706187713
15502708 68 18051132789307827569
15885798 251 18051970320989977715
15906896 17 18334301946038722231
16945 1 18410855413036495870
18186145 218 18117273864206405340
19021347 4 18338515343341950187
193761 8 18122343467303346021
20097449 115 17834955269834709763
201361 129 17611174245382961825
20510252 161 18190741934172928064
20524608 308 18408319973656611238
20645476 183 18130489921126192380
20645477 70 17908429409260610197
20711985 344 18267315235050743186
20711985 365 18267305322403029630
20871998 184 18116145580608252022
21041028 32 17837197191635259395
21160774 45 18412830162217351725
21499 59 18267872859582386101
21524375 3 18268715072303244801
2334 1 18338516451422549855
23402539 116 18261965033535613543
23419403 2 16952830349713409363
23530152 11 18265897032797054303
23557571 272 18189606160622010204
23558518 356 18128535955946482448
23559900 14 18260827129849000716
257057 1 17759529867438632095
2748010 2 18195229225677775415
3071541 236 18340497711151217250
3091708 16 9415891575297626729
3250762 1 17973173837170185688
33824 294 18196085775981157089
352729 6 18409162212348208252
458136 41 18049421936456739337
474229 33 18411698803459751817
54173680 148 18267303136233248243
633830 44 17970345038538705956
68521 5 18195524800932022079
7364860 26 17616534398885338005
81228 2 18268154149606022851
81539 233 18055354897121594181
8272917 22 17832988622112492669

> <PUBCHEM_SHAPE_MULTIPOLES>
278.81
5.43
3.35
0.82
4.76
2.69
-0.01
-2.7
-0.03
-3.89
-0.02
-0.07
0.07
0.03

> <PUBCHEM_SHAPE_SELFOVERLAP>
588.587

> <PUBCHEM_SHAPE_VOLUME>
148

> <PUBCHEM_COORDINATE_TYPE>
2
5
10

$$$$

