4470
  -OEChem-06261200082D

116121  0     0  0  0  0  0  0999 V2000
    6.3301    1.4050    0.0000 S   0  0  0  0  0  0  0  0  0  0  0  0
   18.4545   -1.5950    0.0000 S   0  0  0  0  0  0  0  0  0  0  0  0
    4.5981   -1.5950    0.0000 S   0  0  0  0  0  0  0  0  0  0  0  0
   11.5263    1.4050    0.0000 S   0  0  0  0  0  0  0  0  0  0  0  0
    8.0622    4.4050    0.0000 S   0  0  0  0  0  0  0  0  0  0  0  0
   20.1865   -4.5950    0.0000 S   0  0  0  0  0  0  0  0  0  0  0  0
    2.8660   -4.5950    0.0000 S   0  0  0  0  0  0  0  0  0  0  0  0
   13.2583    4.4050    0.0000 S   0  0  0  0  0  0  0  0  0  0  0  0
    9.7942    0.4050    0.0000 O   0  0  0  0  0  0  0  0  0  0  0  0
   15.8564   -4.0950    0.0000 O   0  0  0  0  0  0  0  0  0  0  0  0
   14.9904    0.4050    0.0000 O   0  0  0  0  0  0  0  0  0  0  0  0
    7.1962   -4.0950    0.0000 O   0  0  0  0  0  0  0  0  0  0  0  0
   18.4545   -0.5950    0.0000 O   0  0  0  0  0  0  0  0  0  0  0  0
    5.4641    0.9050    0.0000 O   0  0  0  0  0  0  0  0  0  0  0  0
   10.6603    0.9050    0.0000 O   0  0  0  0  0  0  0  0  0  0  0  0
    4.5981   -0.5950    0.0000 O   0  0  0  0  0  0  0  0  0  0  0  0
   11.5263   -1.5950    0.0000 O   0  0  0  0  0  0  0  0  0  0  0  0
   19.4545   -1.5950    0.0000 O   0  0  0  0  0  0  0  0  0  0  0  0
   17.4545   -1.5950    0.0000 O   0  0  0  0  0  0  0  0  0  0  0  0
    5.8301    2.2710    0.0000 O   0  0  0  0  0  0  0  0  0  0  0  0
    6.8301    0.5390    0.0000 O   0  0  0  0  0  0  0  0  0  0  0  0
   11.0263    2.2710    0.0000 O   0  0  0  0  0  0  0  0  0  0  0  0
   12.0263    0.5390    0.0000 O   0  0  0  0  0  0  0  0  0  0  0  0
    3.5981   -1.5950    0.0000 O   0  0  0  0  0  0  0  0  0  0  0  0
    5.5981   -1.5950    0.0000 O   0  0  0  0  0  0  0  0  0  0  0  0
   21.0526   -5.0950    0.0000 O   0  0  0  0  0  0  0  0  0  0  0  0
    8.0622    5.4050    0.0000 O   0  0  0  0  0  0  0  0  0  0  0  0
   13.2583    5.4050    0.0000 O   0  0  0  0  0  0  0  0  0  0  0  0
    2.0000   -5.0950    0.0000 O   0  0  0  0  0  0  0  0  0  0  0  0
    7.0622    4.4050    0.0000 O   0  0  0  0  0  0  0  0  0  0  0  0
    9.0622    4.4050    0.0000 O   0  0  0  0  0  0  0  0  0  0  0  0
   19.6865   -5.4610    0.0000 O   0  0  0  0  0  0  0  0  0  0  0  0
   20.6865   -3.7290    0.0000 O   0  0  0  0  0  0  0  0  0  0  0  0
    3.3660   -5.4610    0.0000 O   0  0  0  0  0  0  0  0  0  0  0  0
    2.3660   -3.7290    0.0000 O   0  0  0  0  0  0  0  0  0  0  0  0
   14.2583    4.4050    0.0000 O   0  0  0  0  0  0  0  0  0  0  0  0
   12.2583    4.4050    0.0000 O   0  0  0  0  0  0  0  0  0  0  0  0
   16.7224   -2.5950    0.0000 N   0  0  0  0  0  0  0  0  0  0  0  0
    8.0622    0.4050    0.0000 N   0  0  0  0  0  0  0  0  0  0  0  0
   13.2583    0.4050    0.0000 N   0  0  0  0  0  0  0  0  0  0  0  0
    6.3301   -2.5950    0.0000 N   0  0  0  0  0  0  0  0  0  0  0  0
   10.6603   -3.0950    0.0000 N   0  0  0  0  0  0  0  0  0  0  0  0
   12.3923   -3.0950    0.0000 N   0  0  0  0  0  0  0  0  0  0  0  0
    8.9282   -1.0950    0.0000 C   0  0  0  0  0  0  0  0  0  0  0  0
   14.9904   -2.5950    0.0000 C   0  0  0  0  0  0  0  0  0  0  0  0
    8.0622   -2.5950    0.0000 C   0  0  0  0  0  0  0  0  0  0  0  0
   14.1244   -1.0950    0.0000 C   0  0  0  0  0  0  0  0  0  0  0  0
    9.7942   -2.5950    0.0000 C   0  0  0  0  0  0  0  0  0  0  0  0
   13.2583   -2.5950    0.0000 C   0  0  0  0  0  0  0  0  0  0  0  0
   17.5885   -3.0950    0.0000 C   0  0  0  0  0  0  0  0  0  0  0  0
    8.0622    1.4050    0.0000 C   0  0  0  0  0  0  0  0  0  0  0  0
   13.2583    1.4050    0.0000 C   0  0  0  0  0  0  0  0  0  0  0  0
    5.4641   -3.0950    0.0000 C   0  0  0  0  0  0  0  0  0  0  0  0
    8.0622   -1.5950    0.0000 C   0  0  0  0  0  0  0  0  0  0  0  0
   14.9904   -1.5950    0.0000 C   0  0  0  0  0  0  0  0  0  0  0  0
    7.1962    1.9050    0.0000 C   0  0  0  0  0  0  0  0  0  0  0  0
   18.4545   -2.5950    0.0000 C   0  0  0  0  0  0  0  0  0  0  0  0
    4.5981   -2.5950    0.0000 C   0  0  0  0  0  0  0  0  0  0  0  0
   12.3923    1.9050    0.0000 C   0  0  0  0  0  0  0  0  0  0  0  0
   14.1244   -3.0950    0.0000 C   0  0  0  0  0  0  0  0  0  0  0  0
    9.7942   -1.5950    0.0000 C   0  0  0  0  0  0  0  0  0  0  0  0
   13.2583   -1.5950    0.0000 C   0  0  0  0  0  0  0  0  0  0  0  0
    8.9282   -3.0950    0.0000 C   0  0  0  0  0  0  0  0  0  0  0  0
   15.8564   -3.0950    0.0000 C   0  0  0  0  0  0  0  0  0  0  0  0
    8.9282   -0.0950    0.0000 C   0  0  0  0  0  0  0  0  0  0  0  0
    7.1962   -3.0950    0.0000 C   0  0  0  0  0  0  0  0  0  0  0  0
   14.1244   -0.0950    0.0000 C   0  0  0  0  0  0  0  0  0  0  0  0
    8.0622    3.4050    0.0000 C   0  0  0  0  0  0  0  0  0  0  0  0
   19.3205   -4.0950    0.0000 C   0  0  0  0  0  0  0  0  0  0  0  0
    3.7320   -4.0950    0.0000 C   0  0  0  0  0  0  0  0  0  0  0  0
   13.2583    3.4050    0.0000 C   0  0  0  0  0  0  0  0  0  0  0  0
   19.3205   -3.0950    0.0000 C   0  0  0  0  0  0  0  0  0  0  0  0
    7.1962    2.9050    0.0000 C   0  0  0  0  0  0  0  0  0  0  0  0
   12.3923    2.9050    0.0000 C   0  0  0  0  0  0  0  0  0  0  0  0
    3.7320   -3.0950    0.0000 C   0  0  0  0  0  0  0  0  0  0  0  0
    8.9282    1.9050    0.0000 C   0  0  0  0  0  0  0  0  0  0  0  0
   17.5885   -4.0950    0.0000 C   0  0  0  0  0  0  0  0  0  0  0  0
    5.4641   -4.0950    0.0000 C   0  0  0  0  0  0  0  0  0  0  0  0
   14.1244    1.9050    0.0000 C   0  0  0  0  0  0  0  0  0  0  0  0
    8.9282    2.9050    0.0000 C   0  0  0  0  0  0  0  0  0  0  0  0
   18.4545   -4.5950    0.0000 C   0  0  0  0  0  0  0  0  0  0  0  0
    4.5981   -4.5950    0.0000 C   0  0  0  0  0  0  0  0  0  0  0  0
   14.1244    2.9050    0.0000 C   0  0  0  0  0  0  0  0  0  0  0  0
   11.5263   -2.5950    0.0000 C   0  0  0  0  0  0  0  0  0  0  0  0
    7.5252   -1.2850    0.0000 H   0  0  0  0  0  0  0  0  0  0  0  0
   15.5273   -1.2850    0.0000 H   0  0  0  0  0  0  0  0  0  0  0  0
   10.3312   -1.2850    0.0000 H   0  0  0  0  0  0  0  0  0  0  0  0
   14.1244   -3.7150    0.0000 H   0  0  0  0  0  0  0  0  0  0  0  0
    8.9282   -3.7150    0.0000 H   0  0  0  0  0  0  0  0  0  0  0  0
   12.7214   -1.2850    0.0000 H   0  0  0  0  0  0  0  0  0  0  0  0
    7.5252    0.0950    0.0000 H   0  0  0  0  0  0  0  0  0  0  0  0
   16.7224   -1.9750    0.0000 H   0  0  0  0  0  0  0  0  0  0  0  0
    6.3301   -1.9750    0.0000 H   0  0  0  0  0  0  0  0  0  0  0  0
   12.7214    0.0950    0.0000 H   0  0  0  0  0  0  0  0  0  0  0  0
   19.8574   -2.7850    0.0000 H   0  0  0  0  0  0  0  0  0  0  0  0
    6.6592    3.2150    0.0000 H   0  0  0  0  0  0  0  0  0  0  0  0
   11.8554    3.2150    0.0000 H   0  0  0  0  0  0  0  0  0  0  0  0
    3.1951   -2.7850    0.0000 H   0  0  0  0  0  0  0  0  0  0  0  0
   10.6603   -3.7150    0.0000 H   0  0  0  0  0  0  0  0  0  0  0  0
   12.3923   -3.7150    0.0000 H   0  0  0  0  0  0  0  0  0  0  0  0
    9.4651    1.5950    0.0000 H   0  0  0  0  0  0  0  0  0  0  0  0
   17.0515   -4.4050    0.0000 H   0  0  0  0  0  0  0  0  0  0  0  0
    6.0010   -4.4050    0.0000 H   0  0  0  0  0  0  0  0  0  0  0  0
   14.6613    1.5950    0.0000 H   0  0  0  0  0  0  0  0  0  0  0  0
    9.4651    3.2150    0.0000 H   0  0  0  0  0  0  0  0  0  0  0  0
   18.4545   -5.2150    0.0000 H   0  0  0  0  0  0  0  0  0  0  0  0
    4.5981   -5.2150    0.0000 H   0  0  0  0  0  0  0  0  0  0  0  0
   14.6613    3.2150    0.0000 H   0  0  0  0  0  0  0  0  0  0  0  0
    4.9272    1.2150    0.0000 H   0  0  0  0  0  0  0  0  0  0  0  0
   18.9914   -0.2850    0.0000 H   0  0  0  0  0  0  0  0  0  0  0  0
    4.0611   -0.2850    0.0000 H   0  0  0  0  0  0  0  0  0  0  0  0
   10.1233    1.2150    0.0000 H   0  0  0  0  0  0  0  0  0  0  0  0
    7.5252    5.7150    0.0000 H   0  0  0  0  0  0  0  0  0  0  0  0
   21.0526   -5.7150    0.0000 H   0  0  0  0  0  0  0  0  0  0  0  0
    2.0000   -5.7150    0.0000 H   0  0  0  0  0  0  0  0  0  0  0  0
   13.7953    5.7150    0.0000 H   0  0  0  0  0  0  0  0  0  0  0  0
  1 14  1  0  0  0  0
  1 20  2  0  0  0  0
  1 21  2  0  0  0  0
  1 56  1  0  0  0  0
  2 13  1  0  0  0  0
  2 18  2  0  0  0  0
  2 19  2  0  0  0  0
  2 57  1  0  0  0  0
  3 16  1  0  0  0  0
  3 24  2  0  0  0  0
  3 25  2  0  0  0  0
  3 58  1  0  0  0  0
  4 15  1  0  0  0  0
  4 22  2  0  0  0  0
  4 23  2  0  0  0  0
  4 59  1  0  0  0  0
  5 27  1  0  0  0  0
  5 30  2  0  0  0  0
  5 31  2  0  0  0  0
  5 68  1  0  0  0  0
  6 26  1  0  0  0  0
  6 32  2  0  0  0  0
  6 33  2  0  0  0  0
  6 69  1  0  0  0  0
  7 29  1  0  0  0  0
  7 34  2  0  0  0  0
  7 35  2  0  0  0  0
  7 70  1  0  0  0  0
  8 28  1  0  0  0  0
  8 36  2  0  0  0  0
  8 37  2  0  0  0  0
  8 71  1  0  0  0  0
  9 65  2  0  0  0  0
 10 64  2  0  0  0  0
 11 67  2  0  0  0  0
 12 66  2  0  0  0  0
 13110  1  0  0  0  0
 14109  1  0  0  0  0
 15112  1  0  0  0  0
 16111  1  0  0  0  0
 17 84  2  0  0  0  0
 26114  1  0  0  0  0
 27113  1  0  0  0  0
 28116  1  0  0  0  0
 29115  1  0  0  0  0
 38 50  1  0  0  0  0
 38 64  1  0  0  0  0
 38 92  1  0  0  0  0
 39 51  1  0  0  0  0
 39 65  1  0  0  0  0
 39 91  1  0  0  0  0
 40 52  1  0  0  0  0
 40 67  1  0  0  0  0
 40 94  1  0  0  0  0
 41 53  1  0  0  0  0
 41 66  1  0  0  0  0
 41 93  1  0  0  0  0
 42 48  1  0  0  0  0
 42 84  1  0  0  0  0
 42 99  1  0  0  0  0
 43 49  1  0  0  0  0
 43 84  1  0  0  0  0
 43100  1  0  0  0  0
 44 54  2  0  0  0  0
 44 61  1  0  0  0  0
 44 65  1  0  0  0  0
 45 55  2  0  0  0  0
 45 60  1  0  0  0  0
 45 64  1  0  0  0  0
 46 54  1  0  0  0  0
 46 63  2  0  0  0  0
 46 66  1  0  0  0  0
 47 55  1  0  0  0  0
 47 62  2  0  0  0  0
 47 67  1  0  0  0  0
 48 61  2  0  0  0  0
 48 63  1  0  0  0  0
 49 60  2  0  0  0  0
 49 62  1  0  0  0  0
 50 57  2  0  0  0  0
 50 77  1  0  0  0  0
 51 56  2  0  0  0  0
 51 76  1  0  0  0  0
 52 59  2  0  0  0  0
 52 79  1  0  0  0  0
 53 58  2  0  0  0  0
 53 78  1  0  0  0  0
 54 85  1  0  0  0  0
 55 86  1  0  0  0  0
 56 73  1  0  0  0  0
 57 72  1  0  0  0  0
 58 75  1  0  0  0  0
 59 74  1  0  0  0  0
 60 88  1  0  0  0  0
 61 87  1  0  0  0  0
 62 90  1  0  0  0  0
 63 89  1  0  0  0  0
 68 73  2  0  0  0  0
 68 80  1  0  0  0  0
 69 72  2  0  0  0  0
 69 81  1  0  0  0  0
 70 75  2  0  0  0  0
 70 82  1  0  0  0  0
 71 74  2  0  0  0  0
 71 83  1  0  0  0  0
 72 95  1  0  0  0  0
 73 96  1  0  0  0  0
 74 97  1  0  0  0  0
 75 98  1  0  0  0  0
 76 80  2  0  0  0  0
 76101  1  0  0  0  0
 77 81  2  0  0  0  0
 77102  1  0  0  0  0
 78 82  2  0  0  0  0
 78103  1  0  0  0  0
 79 83  2  0  0  0  0
 79104  1  0  0  0  0
 80105  1  0  0  0  0
 81106  1  0  0  0  0
 82107  1  0  0  0  0
 83108  1  0  0  0  0
M  END
> <PUBCHEM_COMPOUND_CID>
4470

> <PUBCHEM_COMPOUND_CANONICALIZED>
1

> <PUBCHEM_CACTVS_COMPLEXITY>
2990

> <PUBCHEM_CACTVS_HBOND_ACCEPTOR>
29

> <PUBCHEM_CACTVS_HBOND_DONOR>
14

> <PUBCHEM_CACTVS_ROTATABLE_BOND>
18

> <PUBCHEM_CACTVS_SUBSKEYS>
AAADcfB/vgB4AAAAAAAAAAAAAAAAAAAAAAAwYMGDAAAAAAABVAAAHgQQCAAADAiB2AAxwYLAAIKIAiVSUHDCAEAlAgAIiB0AZMiIIDLAlZGEIQholALIyacci0COAAQCQEAAAQAACASAgAACAAAAAAAAAA==

> <PUBCHEM_IUPAC_OPENEYE_NAME>
4-[[3-[[3,5-bis[(2,4-disulfophenyl)carbamoyl]phenyl]carbamoylamino]-5-[(2,4-disulfophenyl)carbamoyl]benzoyl]amino]benzene-1,3-disulfonic acid

> <PUBCHEM_IUPAC_CAS_NAME>
4-[[[3-[[[3,5-bis[(2,4-disulfoanilino)-oxomethyl]anilino]-oxomethyl]amino]-5-[(2,4-disulfoanilino)-oxomethyl]phenyl]-oxomethyl]amino]benzene-1,3-disulfonic acid

> <PUBCHEM_IUPAC_NAME>
4-[[3-[[3,5-bis[(2,4-disulfophenyl)carbamoyl]phenyl]carbamoylamino]-5-[(2,4-disulfophenyl)carbamoyl]benzoyl]amino]benzene-1,3-disulfonic acid

> <PUBCHEM_IUPAC_SYSTEMATIC_NAME>
4-[[3-[[3,5-bis[(2,4-disulfophenyl)carbamoyl]phenyl]carbamoylamino]-5-[(2,4-disulfophenyl)carbamoyl]phenyl]carbonylamino]benzene-1,3-disulfonic acid

> <PUBCHEM_IUPAC_TRADITIONAL_NAME>
4-[[3-[[3,5-bis[(2,4-disulfophenyl)carbamoyl]phenyl]carbamoylamino]-5-[(2,4-disulfophenyl)carbamoyl]benzoyl]amino]benzene-1,3-disulfonic acid

> <PUBCHEM_IUPAC_INCHI>
InChI=1S/C41H32N6O29S8/c48-37(44-29-5-1-25(77(53,54)55)15-33(29)81(65,66)67)19-9-20(38(49)45-30-6-2-26(78(56,57)58)16-34(30)82(68,69)70)12-23(11-19)42-41(52)43-24-13-21(39(50)46-31-7-3-27(79(59,60)61)17-35(31)83(71,72)73)10-22(14-24)40(51)47-32-8-4-28(80(62,63)64)18-36(32)84(74,75)76/h1-18H,(H,44,48)(H,45,49)(H,46,50)(H,47,51)(H2,42,43,52)(H,53,54,55)(H,56,57,58)(H,59,60,61)(H,62,63,64)(H,65,66,67)(H,68,69,70)(H,71,72,73)(H,74,75,76)

> <PUBCHEM_IUPAC_INCHIKEY>
FXAIVMYRMNONEG-UHFFFAOYSA-N

> <PUBCHEM_XLOGP3_AA>
-2

> <PUBCHEM_EXACT_MASS>
1327.897937

> <PUBCHEM_MOLECULAR_FORMULA>
C41H32N6O29S8

> <PUBCHEM_MOLECULAR_WEIGHT>
1329.23558

> <PUBCHEM_OPENEYE_CAN_SMILES>
C1=CC(=C(C=C1S(=O)(=O)O)S(=O)(=O)O)NC(=O)C2=CC(=CC(=C2)NC(=O)NC3=CC(=CC(=C3)C(=O)NC4=C(C=C(C=C4)S(=O)(=O)O)S(=O)(=O)O)C(=O)NC5=C(C=C(C=C5)S(=O)(=O)O)S(=O)(=O)O)C(=O)NC6=C(C=C(C=C6)S(=O)(=O)O)S(=O)(=O)O

> <PUBCHEM_OPENEYE_ISO_SMILES>
C1=CC(=C(C=C1S(=O)(=O)O)S(=O)(=O)O)NC(=O)C2=CC(=CC(=C2)NC(=O)NC3=CC(=CC(=C3)C(=O)NC4=C(C=C(C=C4)S(=O)(=O)O)S(=O)(=O)O)C(=O)NC5=C(C=C(C=C5)S(=O)(=O)O)S(=O)(=O)O)C(=O)NC6=C(C=C(C=C6)S(=O)(=O)O)S(=O)(=O)O

> <PUBCHEM_CACTVS_TPSA>
660

> <PUBCHEM_MONOISOTOPIC_WEIGHT>
1327.897937

> <PUBCHEM_TOTAL_CHARGE>
0

> <PUBCHEM_HEAVY_ATOM_COUNT>
84

> <PUBCHEM_ATOM_DEF_STEREO_COUNT>
0

> <PUBCHEM_ATOM_UDEF_STEREO_COUNT>
0

> <PUBCHEM_BOND_DEF_STEREO_COUNT>
0

> <PUBCHEM_BOND_UDEF_STEREO_COUNT>
0

> <PUBCHEM_ISOTOPIC_ATOM_COUNT>
0

> <PUBCHEM_COMPONENT_COUNT>
1

> <PUBCHEM_CACTVS_TAUTO_COUNT>
15

> <PUBCHEM_COORDINATE_TYPE>
1
5
255

> <PUBCHEM_BONDANNOTATIONS>
44  54  8
44  61  8
45  55  8
45  60  8
46  54  8
46  63  8
47  55  8
47  62  8
48  61  8
48  63  8
49  60  8
49  62  8
50  57  8
50  77  8
51  56  8
51  76  8
52  59  8
52  79  8
53  58  8
53  78  8
56  73  8
57  72  8
58  75  8
59  74  8
68  73  8
68  80  8
69  72  8
69  81  8
70  75  8
70  82  8
71  74  8
71  83  8
76  80  8
77  81  8
78  82  8
79  83  8

$$$$

