439893
  -OEChem-07051212482D

 18 17  0     0  0  0  0  0  0999 V2000
    2.3100    1.2505    0.0000 O   0  0  0  0  0  0  0  0  0  0  0  0
    3.8100   -1.3476    0.0000 O   0  0  0  0  0  0  0  0  0  0  0  0
    5.5420    0.3845    0.0000 O   0  0  0  0  0  0  0  0  0  0  0  0
    4.6760    1.8845    0.0000 O   0  0  0  0  0  0  0  0  0  0  0  0
    2.9440   -0.1155    0.0000 N   0  0  0  0  0  0  0  0  0  0  0  0
    3.8100    0.3845    0.0000 C   0  0  0  0  0  0  0  0  0  0  0  0
    3.3100    1.2505    0.0000 C   0  0  0  0  0  0  0  0  0  0  0  0
    4.3100   -0.4815    0.0000 C   0  0  0  0  0  0  0  0  0  0  0  0
    4.6760    0.8845    0.0000 C   0  0  0  0  0  0  0  0  0  0  0  0
    3.8926    1.4626    0.0000 H   0  0  0  0  0  0  0  0  0  0  0  0
    3.2023    1.8611    0.0000 H   0  0  0  0  0  0  0  0  0  0  0  0
    4.7850   -0.8801    0.0000 H   0  0  0  0  0  0  0  0  0  0  0  0
    4.7850   -0.0830    0.0000 H   0  0  0  0  0  0  0  0  0  0  0  0
    2.4070    0.1945    0.0000 H   0  0  0  0  0  0  0  0  0  0  0  0
    2.9440   -0.7355    0.0000 H   0  0  0  0  0  0  0  0  0  0  0  0
    4.1200   -1.8845    0.0000 H   0  0  0  0  0  0  0  0  0  0  0  0
    2.0000    1.7874    0.0000 H   0  0  0  0  0  0  0  0  0  0  0  0
    6.0790    0.6945    0.0000 H   0  0  0  0  0  0  0  0  0  0  0  0
  1  7  1  0  0  0  0
  1 17  1  0  0  0  0
  2  8  1  0  0  0  0
  2 16  1  0  0  0  0
  3  9  1  0  0  0  0
  3 18  1  0  0  0  0
  4  9  2  0  0  0  0
  5  6  1  0  0  0  0
  5 14  1  0  0  0  0
  5 15  1  0  0  0  0
  6  7  1  0  0  0  0
  6  8  1  0  0  0  0
  6  9  1  0  0  0  0
  7 10  1  0  0  0  0
  7 11  1  0  0  0  0
  8 12  1  0  0  0  0
  8 13  1  0  0  0  0
M  END
> <PUBCHEM_COMPOUND_CID>
439893

> <PUBCHEM_COMPOUND_CANONICALIZED>
1

> <PUBCHEM_CACTVS_COMPLEXITY>
109

> <PUBCHEM_CACTVS_HBOND_ACCEPTOR>
5

> <PUBCHEM_CACTVS_HBOND_DONOR>
4

> <PUBCHEM_CACTVS_ROTATABLE_BOND>
3

> <PUBCHEM_CACTVS_SUBSKEYS>
AAADccBiOAAAAAAAAAAAAAAAAAAAAAAAAAAAAAAAAAAAAAAAAAAAHgAQCAAADIihgAIACABAAgAIAACQCAAAAAAAAAAAAAGAAAACEAQAAAAAQAABMAAAAAAAAAAAAAAAAAAAAAAAAAAAAAAAAAAAAAAAAA==

> <PUBCHEM_IUPAC_OPENEYE_NAME>
2-amino-3-hydroxy-2-(hydroxymethyl)propanoic acid

> <PUBCHEM_IUPAC_CAS_NAME>
2-amino-3-hydroxy-2-(hydroxymethyl)propanoic acid

> <PUBCHEM_IUPAC_NAME>
2-amino-3-hydroxy-2-(hydroxymethyl)propanoic acid

> <PUBCHEM_IUPAC_SYSTEMATIC_NAME>
2-azanyl-2-(hydroxymethyl)-3-oxidanyl-propanoic acid

> <PUBCHEM_IUPAC_TRADITIONAL_NAME>
2-amino-3-hydroxy-2-methylol-propionic acid

> <PUBCHEM_IUPAC_INCHI>
InChI=1S/C4H9NO4/c5-4(1-6,2-7)3(8)9/h6-7H,1-2,5H2,(H,8,9)

> <PUBCHEM_IUPAC_INCHIKEY>
ZRPDXDBGEYHEBJ-UHFFFAOYSA-N

> <PUBCHEM_XLOGP3_AA>
-4.9

> <PUBCHEM_EXACT_MASS>
135.053158

> <PUBCHEM_MOLECULAR_FORMULA>
C4H9NO4

> <PUBCHEM_MOLECULAR_WEIGHT>
135.11856

> <PUBCHEM_OPENEYE_CAN_SMILES>
C(C(CO)(C(=O)O)N)O

> <PUBCHEM_OPENEYE_ISO_SMILES>
C(C(CO)(C(=O)O)N)O

> <PUBCHEM_CACTVS_TPSA>
104

> <PUBCHEM_MONOISOTOPIC_WEIGHT>
135.053158

> <PUBCHEM_TOTAL_CHARGE>
0

> <PUBCHEM_HEAVY_ATOM_COUNT>
9

> <PUBCHEM_ATOM_DEF_STEREO_COUNT>
0

> <PUBCHEM_ATOM_UDEF_STEREO_COUNT>
0

> <PUBCHEM_BOND_DEF_STEREO_COUNT>
0

> <PUBCHEM_BOND_UDEF_STEREO_COUNT>
0

> <PUBCHEM_ISOTOPIC_ATOM_COUNT>
0

> <PUBCHEM_COMPONENT_COUNT>
1

> <PUBCHEM_CACTVS_TAUTO_COUNT>
1

> <PUBCHEM_COORDINATE_TYPE>
1
5
255

$$$$

