10746
  -OEChem-06261204543D

 35 36  0     1  0  0  0  0  0999 V2000
    3.4903   -2.9999    1.2199 I   0  0  0  0  0  0  0  0  0  0  0  0
    4.1286    2.7828   -0.6241 I   0  0  0  0  0  0  0  0  0  0  0  0
   -3.4581   -2.1099   -1.4687 O   0  0  0  0  0  0  0  0  0  0  0  0
   -2.7431   -2.2542    0.6980 O   0  0  0  0  0  0  0  0  0  0  0  0
    4.8285   -0.1121    0.6381 O   0  0  0  0  0  0  0  0  0  0  0  0
   -1.4859    0.3641   -0.0495 C   0  0  2  0  0  0  0  0  0  0  0  0
   -2.9301   -0.0992   -0.3227 C   0  0  2  0  0  0  0  0  0  0  0  0
   -1.4181    1.8937    0.0891 C   0  0  0  0  0  0  0  0  0  0  0  0
   -3.9111    0.4526    0.7175 C   0  0  0  0  0  0  0  0  0  0  0  0
   -2.3968    2.4188    1.1346 C   0  0  0  0  0  0  0  0  0  0  0  0
   -3.8220    1.9696    0.8368 C   0  0  0  0  0  0  0  0  0  0  0  0
   -0.5270   -0.0930   -1.1537 C   0  0  0  0  0  0  0  0  0  0  0  0
   -3.0265   -1.5964   -0.2917 C   0  0  0  0  0  0  0  0  0  0  0  0
    0.8973   -0.0979   -0.6767 C   0  0  0  0  0  0  0  0  0  0  0  0
    1.6748    1.0443   -0.8236 C   0  0  0  0  0  0  0  0  0  0  0  0
    1.4226   -1.2450   -0.0941 C   0  0  0  0  0  0  0  0  0  0  0  0
    2.7456   -1.2500    0.3480 C   0  0  0  0  0  0  0  0  0  0  0  0
    2.9978    1.0394   -0.3815 C   0  0  0  0  0  0  0  0  0  0  0  0
    3.5333   -0.1077    0.2044 C   0  0  0  0  0  0  0  0  0  0  0  0
   -1.1668   -0.0740    0.9078 H   0  0  0  0  0  0  0  0  0  0  0  0
   -3.2375    0.2577   -1.3150 H   0  0  0  0  0  0  0  0  0  0  0  0
   -1.6344    2.3701   -0.8757 H   0  0  0  0  0  0  0  0  0  0  0  0
   -0.4172    2.2165    0.3904 H   0  0  0  0  0  0  0  0  0  0  0  0
   -3.7148    0.0071    1.7018 H   0  0  0  0  0  0  0  0  0  0  0  0
   -4.9367    0.1675    0.4517 H   0  0  0  0  0  0  0  0  0  0  0  0
   -2.3542    3.5135    1.1623 H   0  0  0  0  0  0  0  0  0  0  0  0
   -2.0989    2.0617    2.1281 H   0  0  0  0  0  0  0  0  0  0  0  0
   -4.4921    2.3174    1.6309 H   0  0  0  0  0  0  0  0  0  0  0  0
   -4.1654    2.4314   -0.0970 H   0  0  0  0  0  0  0  0  0  0  0  0
   -0.6261    0.5367   -2.0478 H   0  0  0  0  0  0  0  0  0  0  0  0
   -0.7691   -1.1066   -1.4961 H   0  0  0  0  0  0  0  0  0  0  0  0
    1.2537    1.9292   -1.2946 H   0  0  0  0  0  0  0  0  0  0  0  0
    0.7972   -2.1281    0.0148 H   0  0  0  0  0  0  0  0  0  0  0  0
   -3.5186   -3.0885   -1.4413 H   0  0  0  0  0  0  0  0  0  0  0  0
    5.0247   -0.9873    1.0146 H   0  0  0  0  0  0  0  0  0  0  0  0
  1 17  1  0  0  0  0
  2 18  1  0  0  0  0
  3 13  1  0  0  0  0
  3 34  1  0  0  0  0
  4 13  2  0  0  0  0
  5 19  1  0  0  0  0
  5 35  1  0  0  0  0
  6  7  1  0  0  0  0
  6  8  1  0  0  0  0
  6 12  1  0  0  0  0
  6 20  1  0  0  0  0
  7  9  1  0  0  0  0
  7 13  1  0  0  0  0
  7 21  1  0  0  0  0
  8 10  1  0  0  0  0
  8 22  1  0  0  0  0
  8 23  1  0  0  0  0
  9 11  1  0  0  0  0
  9 24  1  0  0  0  0
  9 25  1  0  0  0  0
 10 11  1  0  0  0  0
 10 26  1  0  0  0  0
 10 27  1  0  0  0  0
 11 28  1  0  0  0  0
 11 29  1  0  0  0  0
 12 14  1  0  0  0  0
 12 30  1  0  0  0  0
 12 31  1  0  0  0  0
 14 15  2  0  0  0  0
 14 16  1  0  0  0  0
 15 18  1  0  0  0  0
 15 32  1  0  0  0  0
 16 17  2  0  0  0  0
 16 33  1  0  0  0  0
 17 19  1  0  0  0  0
 18 19  2  0  0  0  0
M  END
> <PUBCHEM_COMPOUND_CID>
10746

> <PUBCHEM_CONFORMER_RMSD>
0.6

> <PUBCHEM_CONFORMER_DIVERSEORDER>
1
53
37
44
56
8
12
60
20
57
50
43
13
21
35
59
26
55
29
33
38
52
54
40
10
24
34
51
36
11
39
14
48
17
58
47
16
22
28
31
19
2
41
27
30
49
18
9
5
42
7
6
32
4
15
23
25
45
46
3

> <PUBCHEM_MMFF94_PARTIAL_CHARGES>
18
1 -0.08
12 0.14
13 0.66
14 -0.14
15 -0.15
16 -0.15
17 0.08
18 0.08
19 0.08
2 -0.08
3 -0.65
32 0.15
33 0.15
34 0.5
35 0.45
4 -0.57
5 -0.53
7 0.06

> <PUBCHEM_EFFECTIVE_ROTOR_COUNT>
4.2

> <PUBCHEM_PHARMACOPHORE_FEATURES>
8
1 1 hydrophobe
1 2 hydrophobe
1 3 acceptor
1 4 acceptor
1 5 donor
3 3 4 13 anion
6 14 15 16 17 18 19 rings
6 6 7 8 9 10 11 rings

> <PUBCHEM_HEAVY_ATOM_COUNT>
19

> <PUBCHEM_ATOM_DEF_STEREO_COUNT>
0

> <PUBCHEM_ATOM_UDEF_STEREO_COUNT>
2

> <PUBCHEM_BOND_DEF_STEREO_COUNT>
0

> <PUBCHEM_BOND_UDEF_STEREO_COUNT>
0

> <PUBCHEM_ISOTOPIC_ATOM_COUNT>
0

> <PUBCHEM_COMPONENT_COUNT>
1

> <PUBCHEM_CACTVS_TAUTO_COUNT>
2

> <PUBCHEM_CONFORMER_ID>
000029FA00000001

> <PUBCHEM_MMFF94_ENERGY>
38.9463

> <PUBCHEM_FEATURE_SELFOVERLAP>
40.649

> <PUBCHEM_SHAPE_FINGERPRINT>
10366900 7 18191589653095101562
10616163 171 18407757036430141663
10759866 29 18409439289579328512
10906281 52 17968923246430673509
12107183 9 17906452482335793304
12251169 10 18339639052662724876
12553582 1 17840033175800110418
12633257 1 18265333004548307426
12670546 177 10591463058276221890
12788726 201 18115026295309994719
13140716 1 18341044215770028531
13533116 47 18412267237823003835
13583140 156 17988354983562448425
14289901 80 18409449176382599386
14341114 176 18337105778346874922
14341114 328 18335695010181149536
14787075 74 17833831569024761556
15442244 35 18268431411520762698
17492 89 18411416232666026923
1813 80 16987425602913966966
19050596 39 18411980252134051528
200 152 18339654334383276215
20715895 44 17761208122116665945
20739085 24 17989203721077621836
21065198 48 18410574010942354000
21501502 16 18409729568811253772
23503953 91 18338239361623344400
23557571 272 17240202157386175493
23559900 14 17896029017921190294
23566358 27 18270952544644289310
23598288 3 18187363199518269357
312423 11 18410853269932562294
392239 28 17905603298771950744
474 4 18129372727208366004
5104073 3 18340768156947519344
633830 44 18337664231543514252
7097593 13 18268149936501730570
7615 1 18410016549957247557
9709674 26 18335976553750794991
9981440 41 18127128568214977168

> <PUBCHEM_SHAPE_MULTIPOLES>
397.27
9.35
3.48
1.17
0.33
0.47
0.02
-0.55
-1.7
2.44
-0.66
-0.45
0.15
-2.62

> <PUBCHEM_SHAPE_SELFOVERLAP>
788.784

> <PUBCHEM_SHAPE_VOLUME>
242.2

> <PUBCHEM_COORDINATE_TYPE>
2
5
10

$$$$

