17396152
  -OEChem-06241222543D

 45 47  0     1  0  0  0  0  0999 V2000
   -5.5820    2.4974   -0.2223 O   0  0  0  0  0  0  0  0  0  0  0  0
    1.9277   -0.7512   -1.2249 O   0  0  0  0  0  0  0  0  0  0  0  0
   -1.2537   -2.9753   -0.3853 N   0  0  0  0  0  0  0  0  0  0  0  0
    0.3658    0.2173    0.1748 N   0  0  0  0  0  0  0  0  0  0  0  0
   -0.6833   -2.1015    1.5752 N   0  0  0  0  0  0  0  0  0  0  0  0
    2.5543    0.8194    0.4035 N   0  0  0  0  0  0  0  0  0  0  0  0
   -0.7930   -0.4814   -0.3710 C   0  0  1  0  0  0  0  0  0  0  0  0
   -0.9025   -1.8480    0.3040 C   0  0  0  0  0  0  0  0  0  0  0  0
   -2.0586    0.3061   -0.3321 C   0  0  0  0  0  0  0  0  0  0  0  0
   -2.6375    0.6348    0.8937 C   0  0  0  0  0  0  0  0  0  0  0  0
   -2.6639    0.7139   -1.5209 C   0  0  0  0  0  0  0  0  0  0  0  0
   -1.2584   -4.0138    0.5029 C   0  0  0  0  0  0  0  0  0  0  0  0
   -1.5646   -3.0698   -1.7920 C   0  0  0  0  0  0  0  0  0  0  0  0
   -0.9029   -3.4499    1.7056 C   0  0  0  0  0  0  0  0  0  0  0  0
    1.6553    0.0199   -0.3079 C   0  0  0  0  0  0  0  0  0  0  0  0
   -3.8215    1.3713    0.9307 C   0  0  0  0  0  0  0  0  0  0  0  0
   -3.8477    1.4503   -1.4840 C   0  0  0  0  0  0  0  0  0  0  0  0
   -4.4265    1.7791   -0.2581 C   0  0  0  0  0  0  0  0  0  0  0  0
    3.9544    0.9177    0.2289 C   0  0  0  0  0  0  0  0  0  0  0  0
    4.6999    1.7754    1.0378 C   0  0  0  0  0  0  0  0  0  0  0  0
    4.5900    0.1561   -0.7517 C   0  0  0  0  0  0  0  0  0  0  0  0
    6.0809    1.8715    0.8662 C   0  0  0  0  0  0  0  0  0  0  0  0
    5.9709    0.2520   -0.9233 C   0  0  0  0  0  0  0  0  0  0  0  0
   -6.1196    2.7989    1.0646 C   0  0  0  0  0  0  0  0  0  0  0  0
    6.7163    1.1098   -0.1144 C   0  0  0  0  0  0  0  0  0  0  0  0
   -0.5404   -0.6620   -1.4236 H   0  0  0  0  0  0  0  0  0  0  0  0
    0.2322    0.8324    0.9718 H   0  0  0  0  0  0  0  0  0  0  0  0
   -2.1777    0.3324    1.8308 H   0  0  0  0  0  0  0  0  0  0  0  0
   -2.2266    0.4668   -2.4846 H   0  0  0  0  0  0  0  0  0  0  0  0
   -1.5037   -5.0272    0.2174 H   0  0  0  0  0  0  0  0  0  0  0  0
   -2.3886   -2.3894   -2.0174 H   0  0  0  0  0  0  0  0  0  0  0  0
   -0.6712   -2.8101   -2.3649 H   0  0  0  0  0  0  0  0  0  0  0  0
   -1.8649   -4.0942   -2.0282 H   0  0  0  0  0  0  0  0  0  0  0  0
   -0.7943   -3.9463    2.6588 H   0  0  0  0  0  0  0  0  0  0  0  0
   -4.2161    1.5933    1.9164 H   0  0  0  0  0  0  0  0  0  0  0  0
   -4.3147    1.7651   -2.4133 H   0  0  0  0  0  0  0  0  0  0  0  0
    2.1637    1.4054    1.1369 H   0  0  0  0  0  0  0  0  0  0  0  0
    4.2171    2.3743    1.8059 H   0  0  0  0  0  0  0  0  0  0  0  0
    4.0823   -0.5291   -1.4157 H   0  0  0  0  0  0  0  0  0  0  0  0
    6.6614    2.5392    1.4961 H   0  0  0  0  0  0  0  0  0  0  0  0
    6.4671   -0.3406   -1.6865 H   0  0  0  0  0  0  0  0  0  0  0  0
   -6.4023    1.8895    1.6056 H   0  0  0  0  0  0  0  0  0  0  0  0
   -5.4416    3.4335    1.6452 H   0  0  0  0  0  0  0  0  0  0  0  0
   -7.0374    3.3741    0.9048 H   0  0  0  0  0  0  0  0  0  0  0  0
    7.7916    1.1845   -0.2480 H   0  0  0  0  0  0  0  0  0  0  0  0
  1 18  1  0  0  0  0
  1 24  1  0  0  0  0
  2 15  2  0  0  0  0
  3  8  1  0  0  0  0
  3 12  1  0  0  0  0
  3 13  1  0  0  0  0
  4  7  1  0  0  0  0
  4 15  1  0  0  0  0
  4 27  1  0  0  0  0
  5  8  2  0  0  0  0
  5 14  1  0  0  0  0
  6 15  1  0  0  0  0
  6 19  1  0  0  0  0
  6 37  1  0  0  0  0
  7  8  1  0  0  0  0
  7  9  1  0  0  0  0
  7 26  1  0  0  0  0
  9 10  2  0  0  0  0
  9 11  1  0  0  0  0
 10 16  1  0  0  0  0
 10 28  1  0  0  0  0
 11 17  2  0  0  0  0
 11 29  1  0  0  0  0
 12 14  2  0  0  0  0
 12 30  1  0  0  0  0
 13 31  1  0  0  0  0
 13 32  1  0  0  0  0
 13 33  1  0  0  0  0
 14 34  1  0  0  0  0
 16 18  2  0  0  0  0
 16 35  1  0  0  0  0
 17 18  1  0  0  0  0
 17 36  1  0  0  0  0
 19 20  2  0  0  0  0
 19 21  1  0  0  0  0
 20 22  1  0  0  0  0
 20 38  1  0  0  0  0
 21 23  2  0  0  0  0
 21 39  1  0  0  0  0
 22 25  2  0  0  0  0
 22 40  1  0  0  0  0
 23 25  1  0  0  0  0
 23 41  1  0  0  0  0
 24 42  1  0  0  0  0
 24 43  1  0  0  0  0
 24 44  1  0  0  0  0
 25 45  1  0  0  0  0
M  END
> <PUBCHEM_COMPOUND_CID>
17396152

> <PUBCHEM_CONFORMER_RMSD>
0.8

> <PUBCHEM_CONFORMER_DIVERSEORDER>
4
28
56
55
19
24
44
15
53
48
42
45
57
26
32
3
52
30
35
46
2
49
51
18
37
27
22
25
33
13
54
39
23
34
21
50
38
11
41
40
17
20
43
29
16
47
14
12
7
10
5
9
36
8
6
1
31

> <PUBCHEM_MMFF94_PARTIAL_CHARGES>
38
1 -0.36
10 -0.15
11 -0.15
12 -0.3
13 0.26
14 0.08
15 0.69
16 -0.15
17 -0.15
18 0.08
19 0.12
2 -0.57
20 -0.15
21 -0.15
22 -0.15
23 -0.15
24 0.28
25 -0.15
27 0.37
28 0.15
29 0.15
3 0.05
30 0.15
34 0.15
35 0.15
36 0.15
37 0.37
38 0.15
39 0.15
4 -0.73
40 0.15
41 0.15
45 0.15
5 -0.57
6 -0.55
7 0.62
8 0.01
9 -0.14

> <PUBCHEM_EFFECTIVE_ROTOR_COUNT>
7

> <PUBCHEM_PHARMACOPHORE_FEATURES>
8
1 1 acceptor
1 2 acceptor
1 4 donor
1 6 donor
3 3 5 8 cation
5 3 5 8 12 14 rings
6 19 20 21 22 23 25 rings
6 9 10 11 16 17 18 rings

> <PUBCHEM_HEAVY_ATOM_COUNT>
25

> <PUBCHEM_ATOM_DEF_STEREO_COUNT>
0

> <PUBCHEM_ATOM_UDEF_STEREO_COUNT>
1

> <PUBCHEM_BOND_DEF_STEREO_COUNT>
0

> <PUBCHEM_BOND_UDEF_STEREO_COUNT>
0

> <PUBCHEM_ISOTOPIC_ATOM_COUNT>
0

> <PUBCHEM_COMPONENT_COUNT>
1

> <PUBCHEM_CACTVS_TAUTO_COUNT>
3

> <PUBCHEM_CONFORMER_ID>
010971B800000004

> <PUBCHEM_MMFF94_ENERGY>
66.9241

> <PUBCHEM_FEATURE_SELFOVERLAP>
40.65

> <PUBCHEM_SHAPE_FINGERPRINT>
10291535 26 17895191065411977328
105312 117 18412545409700513916
11405975 8 18338800014523558416
11823591 26 18340216279504247337
12293681 160 17822293534679675209
12390115 104 18411698790205610811
12516196 113 8646476415055503125
12643181 29 18410570709368466254
12788726 201 18194702370783244131
13955234 65 17981319312131092739
15183329 4 16732982063584985148
15927050 60 18411701006119689571
16992727 255 5905507138696476275
17093844 174 18261396586530208544
17844677 252 18120088387105032104
17913733 40 18268414893382329209
18222031 100 8934704600710486485
19784866 34 18337956804737050065
20681677 155 18341333319083274288
21033648 29 18270976716462515428
21424621 283 18335135448788386329
21756936 100 18411423894834012985
22224240 67 18343015619345518361
23558518 356 17699564745580765248
23559900 14 5039365813874014264
4015057 19 17676495986618545800
4073 2 18338800006133953832
4258327 124 17987226738350469492
4408954 64 15979708670035017443
5104073 3 18269565940750250144
5385378 56 18199746028055745665
53917941 68 18340782463167077287
56616090 46 18410289225020728836
6669772 16 18338231682101130158
7288768 16 18411697707884499035
7399639 24 17986954253441584877
77188 2 17331675748519279075
9981440 41 18113342977140877942

> <PUBCHEM_SHAPE_MULTIPOLES>
482.83
14.31
4.06
1.48
16.95
4.64
0.1
-16.99
-0.59
-5.39
-1.12
-0.76
0.55
0.43

> <PUBCHEM_SHAPE_SELFOVERLAP>
1036.997

> <PUBCHEM_SHAPE_VOLUME>
265.3

> <PUBCHEM_COORDINATE_TYPE>
2
5
10

$$$$

