613648
  -OEChem-07051213092D

 36 37  0     1  0  0  0  0  0999 V2000
    4.5981   -1.7500    0.0000 O   0  0  0  0  0  0  0  0  0  0  0  0
    2.8660   -0.7500    0.0000 O   0  0  0  0  0  0  0  0  0  0  0  0
    2.8660    1.2500    0.0000 O   0  0  0  0  0  0  0  0  0  0  0  0
    7.2641   -0.2708    0.0000 N   0  0  0  0  0  0  0  0  0  0  0  0
    6.3580   -0.7847    0.0000 C   0  0  3  0  0  0  0  0  0  0  0  0
    5.4641   -0.2500    0.0000 C   0  0  0  0  0  0  0  0  0  0  0  0
    5.4641    0.7500    0.0000 C   0  0  0  0  0  0  0  0  0  0  0  0
    6.3580    1.2847    0.0000 C   0  0  0  0  0  0  0  0  0  0  0  0
    7.2641    0.7708    0.0000 C   0  0  0  0  0  0  0  0  0  0  0  0
    4.5981   -0.7500    0.0000 C   0  0  0  0  0  0  0  0  0  0  0  0
    6.3465   -1.7846    0.0000 C   0  0  0  0  0  0  0  0  0  0  0  0
    4.5981    1.2500    0.0000 C   0  0  0  0  0  0  0  0  0  0  0  0
    3.7320   -0.2500    0.0000 C   0  0  0  0  0  0  0  0  0  0  0  0
    3.7320    0.7500    0.0000 C   0  0  0  0  0  0  0  0  0  0  0  0
    3.7320   -2.2500    0.0000 C   0  0  0  0  0  0  0  0  0  0  0  0
    2.0000   -0.2500    0.0000 C   0  0  0  0  0  0  0  0  0  0  0  0
    2.8660    2.2500    0.0000 C   0  0  0  0  0  0  0  0  0  0  0  0
    6.8920   -1.0998    0.0000 H   0  0  0  0  0  0  0  0  0  0  0  0
    6.7517    1.7637    0.0000 H   0  0  0  0  0  0  0  0  0  0  0  0
    5.9534    1.7544    0.0000 H   0  0  0  0  0  0  0  0  0  0  0  0
    7.8750    0.6647    0.0000 H   0  0  0  0  0  0  0  0  0  0  0  0
    7.4732    1.3545    0.0000 H   0  0  0  0  0  0  0  0  0  0  0  0
    7.7998   -0.5829    0.0000 H   0  0  0  0  0  0  0  0  0  0  0  0
    5.7265   -1.7774    0.0000 H   0  0  0  0  0  0  0  0  0  0  0  0
    6.3393   -2.4046    0.0000 H   0  0  0  0  0  0  0  0  0  0  0  0
    6.9664   -1.7918    0.0000 H   0  0  0  0  0  0  0  0  0  0  0  0
    4.5981    1.8700    0.0000 H   0  0  0  0  0  0  0  0  0  0  0  0
    3.4220   -1.7131    0.0000 H   0  0  0  0  0  0  0  0  0  0  0  0
    3.1951   -2.5600    0.0000 H   0  0  0  0  0  0  0  0  0  0  0  0
    4.0420   -2.7869    0.0000 H   0  0  0  0  0  0  0  0  0  0  0  0
    2.3100    0.2869    0.0000 H   0  0  0  0  0  0  0  0  0  0  0  0
    1.4631    0.0600    0.0000 H   0  0  0  0  0  0  0  0  0  0  0  0
    1.6900   -0.7869    0.0000 H   0  0  0  0  0  0  0  0  0  0  0  0
    3.4860    2.2500    0.0000 H   0  0  0  0  0  0  0  0  0  0  0  0
    2.8660    2.8700    0.0000 H   0  0  0  0  0  0  0  0  0  0  0  0
    2.2460    2.2500    0.0000 H   0  0  0  0  0  0  0  0  0  0  0  0
  1 10  1  0  0  0  0
  1 15  1  0  0  0  0
  2 13  1  0  0  0  0
  2 16  1  0  0  0  0
  3 14  1  0  0  0  0
  3 17  1  0  0  0  0
  4  5  1  0  0  0  0
  4  9  1  0  0  0  0
  4 23  1  0  0  0  0
  5  6  1  0  0  0  0
  5 11  1  0  0  0  0
  5 18  1  0  0  0  0
  6  7  1  0  0  0  0
  6 10  2  0  0  0  0
  7  8  1  0  0  0  0
  7 12  2  0  0  0  0
  8  9  1  0  0  0  0
  8 19  1  0  0  0  0
  8 20  1  0  0  0  0
  9 21  1  0  0  0  0
  9 22  1  0  0  0  0
 10 13  1  0  0  0  0
 11 24  1  0  0  0  0
 11 25  1  0  0  0  0
 11 26  1  0  0  0  0
 12 14  1  0  0  0  0
 12 27  1  0  0  0  0
 13 14  2  0  0  0  0
 15 28  1  0  0  0  0
 15 29  1  0  0  0  0
 15 30  1  0  0  0  0
 16 31  1  0  0  0  0
 16 32  1  0  0  0  0
 16 33  1  0  0  0  0
 17 34  1  0  0  0  0
 17 35  1  0  0  0  0
 17 36  1  0  0  0  0
M  END
> <PUBCHEM_COMPOUND_CID>
613648

> <PUBCHEM_COMPOUND_CANONICALIZED>
1

> <PUBCHEM_CACTVS_COMPLEXITY>
249

> <PUBCHEM_CACTVS_HBOND_ACCEPTOR>
4

> <PUBCHEM_CACTVS_HBOND_DONOR>
1

> <PUBCHEM_CACTVS_ROTATABLE_BOND>
3

> <PUBCHEM_CACTVS_SUBSKEYS>
AAADceByMAAAAAAAAAAAAAAAAAAAAAAAAAA8QAAAAAAAAACxAAAAHgAQAAAADCzBmAYyBoLABACAAiBCAACCCAAgIAAAiIAOjIgNJyKEsRuEMCpn0BWKqAew8L8OoAABCAAYQABAAAIQADCAAAAAAAAAAA==

> <PUBCHEM_IUPAC_OPENEYE_NAME>
6,7,8-trimethoxy-1-methyl-1,2,3,4-tetrahydroisoquinoline

> <PUBCHEM_IUPAC_CAS_NAME>
6,7,8-trimethoxy-1-methyl-1,2,3,4-tetrahydroisoquinoline

> <PUBCHEM_IUPAC_NAME>
6,7,8-trimethoxy-1-methyl-1,2,3,4-tetrahydroisoquinoline

> <PUBCHEM_IUPAC_SYSTEMATIC_NAME>
6,7,8-trimethoxy-1-methyl-1,2,3,4-tetrahydroisoquinoline

> <PUBCHEM_IUPAC_TRADITIONAL_NAME>
6,7,8-trimethoxy-1-methyl-1,2,3,4-tetrahydroisoquinoline

> <PUBCHEM_IUPAC_INCHI>
InChI=1S/C13H19NO3/c1-8-11-9(5-6-14-8)7-10(15-2)12(16-3)13(11)17-4/h7-8,14H,5-6H2,1-4H3

> <PUBCHEM_IUPAC_INCHIKEY>
VMFUYWSNWQYUTG-UHFFFAOYSA-N

> <PUBCHEM_XLOGP3_AA>
1.6

> <PUBCHEM_EXACT_MASS>
237.136493

> <PUBCHEM_MOLECULAR_FORMULA>
C13H19NO3

> <PUBCHEM_MOLECULAR_WEIGHT>
237.29486

> <PUBCHEM_OPENEYE_CAN_SMILES>
CC1C2=C(C(=C(C=C2CCN1)OC)OC)OC

> <PUBCHEM_OPENEYE_ISO_SMILES>
CC1C2=C(C(=C(C=C2CCN1)OC)OC)OC

> <PUBCHEM_CACTVS_TPSA>
39.7

> <PUBCHEM_MONOISOTOPIC_WEIGHT>
237.136493

> <PUBCHEM_TOTAL_CHARGE>
0

> <PUBCHEM_HEAVY_ATOM_COUNT>
17

> <PUBCHEM_ATOM_DEF_STEREO_COUNT>
0

> <PUBCHEM_ATOM_UDEF_STEREO_COUNT>
1

> <PUBCHEM_BOND_DEF_STEREO_COUNT>
0

> <PUBCHEM_BOND_UDEF_STEREO_COUNT>
0

> <PUBCHEM_ISOTOPIC_ATOM_COUNT>
0

> <PUBCHEM_COMPONENT_COUNT>
1

> <PUBCHEM_CACTVS_TAUTO_COUNT>
1

> <PUBCHEM_COORDINATE_TYPE>
1
5
255

> <PUBCHEM_BONDANNOTATIONS>
10  13  8
12  14  8
13  14  8
5  11  3
6  10  8
6  7  8
7  12  8

$$$$

