13744
  -OEChem-06241222403D

 32 34  0     1  0  0  0  0  0999 V2000
    2.3361    0.0176    0.8849 O   0  0  0  0  0  0  0  0  0  0  0  0
    2.6542   -1.6264   -1.6310 O   0  0  0  0  0  0  0  0  0  0  0  0
    4.8528    0.9321    1.7267 O   0  0  0  0  0  0  0  0  0  0  0  0
   -4.1669   -1.7627    0.3782 O   0  0  0  0  0  0  0  0  0  0  0  0
    0.0869   -0.2401    0.1598 N   0  0  0  0  0  0  0  0  0  0  0  0
   -1.6805    1.4060   -0.1317 N   0  0  0  0  0  0  0  0  0  0  0  0
   -1.2320   -2.0363    0.4499 N   0  0  0  0  0  0  0  0  0  0  0  0
   -3.9041    0.5087   -0.0003 N   0  0  0  0  0  0  0  0  0  0  0  0
   -3.5068    2.8007   -0.3806 N   0  0  0  0  0  0  0  0  0  0  0  0
    1.3093    0.5586    0.0371 C   0  0  2  0  0  0  0  0  0  0  0  0
    1.8602    0.6262   -1.3847 C   0  0  0  0  0  0  0  0  0  0  0  0
    3.0619   -0.2918   -1.3461 C   0  0  1  0  0  0  0  0  0  0  0  0
    3.5212   -0.2148    0.1014 C   0  0  1  0  0  0  0  0  0  0  0  0
    4.4903    0.9334    0.3556 C   0  0  0  0  0  0  0  0  0  0  0  0
   -1.1993    0.1782    0.0788 C   0  0  0  0  0  0  0  0  0  0  0  0
    0.0141   -1.5983    0.3865 C   0  0  0  0  0  0  0  0  0  0  0  0
   -1.9924   -0.9177    0.2559 C   0  0  0  0  0  0  0  0  0  0  0  0
   -3.4359   -0.7921    0.2224 C   0  0  0  0  0  0  0  0  0  0  0  0
   -3.0691    1.5188   -0.1627 C   0  0  0  0  0  0  0  0  0  0  0  0
    1.0641    1.5593    0.4102 H   0  0  0  0  0  0  0  0  0  0  0  0
    2.1936    1.6515   -1.5848 H   0  0  0  0  0  0  0  0  0  0  0  0
    1.1236    0.3532   -2.1472 H   0  0  0  0  0  0  0  0  0  0  0  0
    3.8321   -0.0161   -2.0724 H   0  0  0  0  0  0  0  0  0  0  0  0
    3.9546   -1.1573    0.4539 H   0  0  0  0  0  0  0  0  0  0  0  0
    4.0320    1.9045    0.1450 H   0  0  0  0  0  0  0  0  0  0  0  0
    5.3979    0.8345   -0.2477 H   0  0  0  0  0  0  0  0  0  0  0  0
    0.8953   -2.2150    0.4986 H   0  0  0  0  0  0  0  0  0  0  0  0
    3.4414   -2.1930   -1.5614 H   0  0  0  0  0  0  0  0  0  0  0  0
   -1.0943    2.2229   -0.2682 H   0  0  0  0  0  0  0  0  0  0  0  0
    5.2963    0.0872    1.9136 H   0  0  0  0  0  0  0  0  0  0  0  0
   -4.4967    3.0167   -0.4253 H   0  0  0  0  0  0  0  0  0  0  0  0
   -2.8558    3.5684   -0.5046 H   0  0  0  0  0  0  0  0  0  0  0  0
  1 10  1  0  0  0  0
  1 13  1  0  0  0  0
  2 12  1  0  0  0  0
  2 28  1  0  0  0  0
  3 14  1  0  0  0  0
  3 30  1  0  0  0  0
  4 18  2  0  0  0  0
  5 10  1  0  0  0  0
  5 15  1  0  0  0  0
  5 16  1  0  0  0  0
  6 15  1  0  0  0  0
  6 19  1  0  0  0  0
  6 29  1  0  0  0  0
  7 16  2  0  0  0  0
  7 17  1  0  0  0  0
  8 18  1  0  0  0  0
  8 19  2  0  0  0  0
  9 19  1  0  0  0  0
  9 31  1  0  0  0  0
  9 32  1  0  0  0  0
 10 11  1  0  0  0  0
 10 20  1  0  0  0  0
 11 12  1  0  0  0  0
 11 21  1  0  0  0  0
 11 22  1  0  0  0  0
 12 13  1  0  0  0  0
 12 23  1  0  0  0  0
 13 14  1  0  0  0  0
 13 24  1  0  0  0  0
 14 25  1  0  0  0  0
 14 26  1  0  0  0  0
 15 17  2  0  0  0  0
 16 27  1  0  0  0  0
 17 18  1  0  0  0  0
M  END
> <PUBCHEM_COMPOUND_CID>
13744

> <PUBCHEM_CONFORMER_RMSD>
0.6

> <PUBCHEM_CONFORMER_DIVERSEORDER>
11
9
19
8
23
6
14
15
20
1
13
18
7
3
2
12
17
21
10
22
16
4
5

> <PUBCHEM_MMFF94_PARTIAL_CHARGES>
24
1 -0.56
10 0.54
12 0.28
13 0.28
14 0.28
15 -0.07
16 0.04
17 0.14
18 0.87
19 0.55
2 -0.68
27 0.15
28 0.4
29 0.4
3 -0.68
30 0.4
31 0.4
32 0.4
4 -0.57
5 0.05
6 -0.53
7 -0.57
8 -0.66
9 -0.85

> <PUBCHEM_EFFECTIVE_ROTOR_COUNT>
3

> <PUBCHEM_PHARMACOPHORE_FEATURES>
13
1 1 acceptor
1 2 acceptor
1 2 donor
1 3 acceptor
1 3 donor
1 4 acceptor
1 6 donor
1 8 donor
1 9 donor
3 5 7 16 cation
5 1 10 11 12 13 rings
5 5 7 15 16 17 rings
6 6 8 15 17 18 19 rings

> <PUBCHEM_HEAVY_ATOM_COUNT>
19

> <PUBCHEM_ATOM_DEF_STEREO_COUNT>
2

> <PUBCHEM_ATOM_UDEF_STEREO_COUNT>
1

> <PUBCHEM_BOND_DEF_STEREO_COUNT>
0

> <PUBCHEM_BOND_UDEF_STEREO_COUNT>
0

> <PUBCHEM_ISOTOPIC_ATOM_COUNT>
0

> <PUBCHEM_COMPONENT_COUNT>
1

> <PUBCHEM_CACTVS_TAUTO_COUNT>
6

> <PUBCHEM_CONFORMER_ID>
000035B00000000B

> <PUBCHEM_MMFF94_ENERGY>
49.4741

> <PUBCHEM_FEATURE_SELFOVERLAP>
66.213

> <PUBCHEM_SHAPE_FINGERPRINT>
10319926 262 18338533992796792994
10498660 4 18342175626225705941
10608611 8 18407758144542019532
10646746 165 18410574015517090988
10922523 26 18334566971200992439
11132069 177 18343298197611723013
12173636 292 18340768251605338271
12236239 1 17418377965523145328
12403259 415 18260259768014671932
12507560 40 18334860515652787994
12788726 201 17127305218554421106
12916748 109 18342170072943222689
13140716 1 17983006752867524139
13675066 3 18410007741142964050
13965767 371 17556868232083902300
14178342 30 18202286892259289690
14739800 52 18055916490430528028
15042514 8 18198899206909032539
15219456 202 18113334223875735206
15375358 24 18259988158688512584
15536298 74 18339923826448878794
16752209 62 18343863307970636915
16945 1 18271235041654482667
1741750 31 18265613372014546201
18186145 218 18187914140342242796
19026448 4 18114177562089457588
19049666 15 18115298007498564922
19107657 47 15052015649677198901
200 152 15267352785932343603
20279233 1 18187077343559053590
20510252 161 18407754837670357665
20645477 56 18408317791818571153
20645477 70 17023459854293262862
20671657 1 17909549806923696659
21065201 7 18341325673725073486
22943178 12 18260260884547933102
23402539 116 18339653234961312567
23557571 272 18336255778480828724
23559900 14 18263076764555966390
296302 2 16950280676642872518
3268164 11 18410300194372367493
43471831 8 18202003261119624667
495365 180 17749964382965762966
5104073 3 18410854407898351842
573450 72 18060147539209994816
69090 78 18113337483598060239
77492 1 17275099526833098052
9709674 26 18337100198900014494
9862522 239 17416138389023394069

> <PUBCHEM_SHAPE_MULTIPOLES>
342.63
8.74
1.99
1.12
2.52
0.35
-0.16
2.02
1.42
-2.23
-0.09
1.6
-0.03
1.06

> <PUBCHEM_SHAPE_SELFOVERLAP>
746.575

> <PUBCHEM_SHAPE_VOLUME>
184.8

> <PUBCHEM_COORDINATE_TYPE>
2
5
10

$$$$

