443828
  -OEChem-07051213033D

 71 75  0     1  0  0  0  0  0999 V2000
   -2.1630   -0.9616   -0.1722 O   0  0  0  0  0  0  0  0  0  0  0  0
   -2.6951    1.2584    1.4964 O   0  0  0  0  0  0  0  0  0  0  0  0
   -4.4095   -1.2313   -0.8845 O   0  0  0  0  0  0  0  0  0  0  0  0
   -0.7402    3.4767   -1.5858 O   0  0  0  0  0  0  0  0  0  0  0  0
    1.7567    2.7595    1.4368 O   0  0  0  0  0  0  0  0  0  0  0  0
    0.4223   -1.7173   -1.5000 O   0  0  0  0  0  0  0  0  0  0  0  0
   -5.9588   -3.4403    0.1366 O   0  0  0  0  0  0  0  0  0  0  0  0
   -0.2382    4.8628    0.1927 O   0  0  0  0  0  0  0  0  0  0  0  0
    4.1064    1.8772    1.5555 O   0  0  0  0  0  0  0  0  0  0  0  0
    2.8216   -2.4585   -1.2896 O   0  0  0  0  0  0  0  0  0  0  0  0
    5.2177   -3.3599   -1.1605 O   0  0  0  0  0  0  0  0  0  0  0  0
   -3.7304   -4.6969    1.4104 N   0  0  0  0  0  0  0  0  0  0  0  0
   -2.3538    2.1126    0.3945 C   0  0  1  0  0  0  0  0  0  0  0  0
   -0.8853    2.5686    0.5710 C   0  0  1  0  0  0  0  0  0  0  0  0
   -2.5262    1.3182   -0.9104 C   0  0  0  0  0  0  0  0  0  0  0  0
   -1.6158    0.0868   -0.9713 C   0  0  1  0  0  0  0  0  0  0  0  0
    0.1274    1.4820    0.2579 C   0  0  0  0  0  0  0  0  0  0  0  0
   -0.2087    0.3429   -0.4936 C   0  0  0  0  0  0  0  0  0  0  0  0
   -3.3487    3.2810    0.4359 C   0  0  0  0  0  0  0  0  0  0  0  0
   -3.0806   -1.7557   -0.9185 C   0  0  2  0  0  0  0  0  0  0  0  0
    1.4514    1.6424    0.7081 C   0  0  0  0  0  0  0  0  0  0  0  0
   -3.0438   -3.1984   -0.4110 C   0  0  0  0  0  0  0  0  0  0  0  0
    0.7830   -0.6139   -0.7759 C   0  0  0  0  0  0  0  0  0  0  0  0
   -3.6817   -3.3011    0.9792 C   0  0  1  0  0  0  0  0  0  0  0  0
   -0.5784    3.7811   -0.2667 C   0  0  0  0  0  0  0  0  0  0  0  0
   -5.0836   -2.6757    0.9676 C   0  0  1  0  0  0  0  0  0  0  0  0
   -5.0077   -1.2434    0.4185 C   0  0  2  0  0  0  0  0  0  0  0  0
    2.4303    0.6851    0.4195 C   0  0  0  0  0  0  0  0  0  0  0  0
    2.0962   -0.4432   -0.3239 C   0  0  0  0  0  0  0  0  0  0  0  0
   -4.7770    2.7820    0.3996 C   0  0  0  0  0  0  0  0  0  0  0  0
    3.8117    0.8821    0.9051 C   0  0  0  0  0  0  0  0  0  0  0  0
    3.1164   -1.4648   -0.6373 C   0  0  0  0  0  0  0  0  0  0  0  0
   -6.3834   -0.5978    0.2901 C   0  0  0  0  0  0  0  0  0  0  0  0
    4.4976   -1.2711   -0.1508 C   0  0  0  0  0  0  0  0  0  0  0  0
    4.8332   -0.1381    0.5932 C   0  0  0  0  0  0  0  0  0  0  0  0
   -0.4798    4.5463   -2.5002 C   0  0  0  0  0  0  0  0  0  0  0  0
    5.4744   -2.2314   -0.4397 C   0  0  0  0  0  0  0  0  0  0  0  0
    6.1458    0.0347    1.0487 C   0  0  0  0  0  0  0  0  0  0  0  0
    6.7812   -2.0554    0.0160 C   0  0  0  0  0  0  0  0  0  0  0  0
    7.1162   -0.9248    0.7586 C   0  0  0  0  0  0  0  0  0  0  0  0
   -0.7917    2.8561    1.6251 H   0  0  0  0  0  0  0  0  0  0  0  0
   -2.3592    1.9438   -1.7906 H   0  0  0  0  0  0  0  0  0  0  0  0
   -3.5570    0.9750   -1.0036 H   0  0  0  0  0  0  0  0  0  0  0  0
   -1.5554   -0.1991   -2.0308 H   0  0  0  0  0  0  0  0  0  0  0  0
   -3.1969    3.9779   -0.3954 H   0  0  0  0  0  0  0  0  0  0  0  0
   -3.2110    3.8468    1.3662 H   0  0  0  0  0  0  0  0  0  0  0  0
   -2.7873   -1.7983   -1.9742 H   0  0  0  0  0  0  0  0  0  0  0  0
   -2.0066   -3.5529   -0.3686 H   0  0  0  0  0  0  0  0  0  0  0  0
   -3.5832   -3.8413   -1.1181 H   0  0  0  0  0  0  0  0  0  0  0  0
   -3.0602   -2.7514    1.6969 H   0  0  0  0  0  0  0  0  0  0  0  0
   -5.5099   -2.6734    1.9772 H   0  0  0  0  0  0  0  0  0  0  0  0
   -2.6018    1.7705    2.3177 H   0  0  0  0  0  0  0  0  0  0  0  0
   -4.4034   -0.6261    1.0909 H   0  0  0  0  0  0  0  0  0  0  0  0
   -5.0532    2.3875   -0.5816 H   0  0  0  0  0  0  0  0  0  0  0  0
   -4.9860    2.0313    1.1662 H   0  0  0  0  0  0  0  0  0  0  0  0
   -5.4550    3.6224    0.5893 H   0  0  0  0  0  0  0  0  0  0  0  0
   -6.8838   -0.5369    1.2610 H   0  0  0  0  0  0  0  0  0  0  0  0
   -6.3008    0.4095   -0.1262 H   0  0  0  0  0  0  0  0  0  0  0  0
   -7.0249   -1.1550   -0.4011 H   0  0  0  0  0  0  0  0  0  0  0  0
   -2.7983   -5.1058    1.3560 H   0  0  0  0  0  0  0  0  0  0  0  0
   -4.3128   -5.2349    0.7695 H   0  0  0  0  0  0  0  0  0  0  0  0
    1.0438    2.9536    2.0644 H   0  0  0  0  0  0  0  0  0  0  0  0
   -0.5181   -1.9145   -1.3771 H   0  0  0  0  0  0  0  0  0  0  0  0
   -5.7007   -3.3018   -0.7901 H   0  0  0  0  0  0  0  0  0  0  0  0
   -0.6439    4.1733   -3.5145 H   0  0  0  0  0  0  0  0  0  0  0  0
    0.5596    4.8761   -2.4106 H   0  0  0  0  0  0  0  0  0  0  0  0
   -1.1673    5.3772   -2.3157 H   0  0  0  0  0  0  0  0  0  0  0  0
    6.4322    0.9073    1.6296 H   0  0  0  0  0  0  0  0  0  0  0  0
    7.5453   -2.7963   -0.2042 H   0  0  0  0  0  0  0  0  0  0  0  0
    8.1344   -0.7902    1.1123 H   0  0  0  0  0  0  0  0  0  0  0  0
    4.2880   -3.3915   -1.4307 H   0  0  0  0  0  0  0  0  0  0  0  0
  1 16  1  0  0  0  0
  1 20  1  0  0  0  0
  2 13  1  0  0  0  0
  2 52  1  0  0  0  0
  3 20  1  0  0  0  0
  3 27  1  0  0  0  0
  4 25  1  0  0  0  0
  4 36  1  0  0  0  0
  5 21  1  0  0  0  0
  5 62  1  0  0  0  0
  6 23  1  0  0  0  0
  6 63  1  0  0  0  0
  7 26  1  0  0  0  0
  7 64  1  0  0  0  0
  8 25  2  0  0  0  0
  9 31  2  0  0  0  0
 10 32  2  0  0  0  0
 11 37  1  0  0  0  0
 11 71  1  0  0  0  0
 12 24  1  0  0  0  0
 12 60  1  0  0  0  0
 12 61  1  0  0  0  0
 13 14  1  0  0  0  0
 13 15  1  0  0  0  0
 13 19  1  0  0  0  0
 14 17  1  0  0  0  0
 14 25  1  0  0  0  0
 14 41  1  0  0  0  0
 15 16  1  0  0  0  0
 15 42  1  0  0  0  0
 15 43  1  0  0  0  0
 16 18  1  0  0  0  0
 16 44  1  0  0  0  0
 17 18  2  0  0  0  0
 17 21  1  0  0  0  0
 18 23  1  0  0  0  0
 19 30  1  0  0  0  0
 19 45  1  0  0  0  0
 19 46  1  0  0  0  0
 20 22  1  0  0  0  0
 20 47  1  0  0  0  0
 21 28  2  0  0  0  0
 22 24  1  0  0  0  0
 22 48  1  0  0  0  0
 22 49  1  0  0  0  0
 23 29  2  0  0  0  0
 24 26  1  0  0  0  0
 24 50  1  0  0  0  0
 26 27  1  0  0  0  0
 26 51  1  0  0  0  0
 27 33  1  0  0  0  0
 27 53  1  0  0  0  0
 28 29  1  0  0  0  0
 28 31  1  0  0  0  0
 29 32  1  0  0  0  0
 30 54  1  0  0  0  0
 30 55  1  0  0  0  0
 30 56  1  0  0  0  0
 31 35  1  0  0  0  0
 32 34  1  0  0  0  0
 33 57  1  0  0  0  0
 33 58  1  0  0  0  0
 33 59  1  0  0  0  0
 34 35  2  0  0  0  0
 34 37  1  0  0  0  0
 35 38  1  0  0  0  0
 36 65  1  0  0  0  0
 36 66  1  0  0  0  0
 36 67  1  0  0  0  0
 37 39  2  0  0  0  0
 38 40  2  0  0  0  0
 38 68  1  0  0  0  0
 39 40  1  0  0  0  0
 39 69  1  0  0  0  0
 40 70  1  0  0  0  0
M  END
> <PUBCHEM_COMPOUND_CID>
443828

> <PUBCHEM_CONFORMER_RMSD>
1

> <PUBCHEM_CONFORMER_DIVERSEORDER>
1
5
12
9
11
6
8
3
7
4
10
2

> <PUBCHEM_MMFF94_PARTIAL_CHARGES>
45
1 -0.56
10 -0.57
11 -0.53
12 -0.99
13 0.28
14 0.2
16 0.42
17 -0.14
18 -0.14
2 -0.68
20 0.56
21 0.08
23 0.08
24 0.27
25 0.66
26 0.28
27 0.28
28 0.09
29 0.09
3 -0.56
31 0.4
32 0.4
34 0.09
35 0.09
36 0.28
37 0.08
38 -0.15
39 -0.15
4 -0.43
40 -0.15
5 -0.53
52 0.4
6 -0.53
60 0.36
61 0.36
62 0.45
63 0.45
64 0.4
68 0.15
69 0.15
7 -0.68
70 0.15
71 0.45
8 -0.57
9 -0.57

> <PUBCHEM_EFFECTIVE_ROTOR_COUNT>
7

> <PUBCHEM_PHARMACOPHORE_FEATURES>
20
1 1 acceptor
1 10 acceptor
1 11 donor
1 12 cation
1 12 donor
1 2 acceptor
1 2 donor
1 3 acceptor
1 30 hydrophobe
1 5 donor
1 6 donor
1 7 acceptor
1 7 donor
1 8 acceptor
1 9 acceptor
6 13 14 15 16 17 18 rings
6 17 18 21 23 28 29 rings
6 28 29 31 32 34 35 rings
6 3 20 22 24 26 27 rings
6 34 35 37 38 39 40 rings

> <PUBCHEM_HEAVY_ATOM_COUNT>
40

> <PUBCHEM_ATOM_DEF_STEREO_COUNT>
7

> <PUBCHEM_ATOM_UDEF_STEREO_COUNT>
0

> <PUBCHEM_BOND_DEF_STEREO_COUNT>
0

> <PUBCHEM_BOND_UDEF_STEREO_COUNT>
0

> <PUBCHEM_ISOTOPIC_ATOM_COUNT>
0

> <PUBCHEM_COMPONENT_COUNT>
1

> <PUBCHEM_CACTVS_TAUTO_COUNT>
248

> <PUBCHEM_CONFORMER_ID>
0006C5B400000001

> <PUBCHEM_MMFF94_ENERGY>
129.7392

> <PUBCHEM_FEATURE_SELFOVERLAP>
101.594

> <PUBCHEM_SHAPE_FINGERPRINT>
10258939 38 18199486406611524992
10290309 65 17692810806175499581
11135609 12 18410856542728965490
117089 54 18410286982652947410
11828532 37 17771057199480949851
12422481 6 18040435455987077683
13140716 1 18333730251437011768
13690498 29 18335693997180707166
140371 6 18124590886307820729
14394314 77 18341330080767837827
14415360 78 17832433372418988460
15042514 8 18410009978873867585
15324884 4 17977986476995964452
15351339 4 18129956675167539171
15361156 5 18337107860937093471
15927050 60 18121221150158747127
16112460 7 17970618817703688305
17686467 74 18341621387431182056
1813 80 18129946672103647557
18608769 82 18335141995235910274
19301679 30 18337667504303825299
19315092 285 16445612420486149079
19611394 137 18410576142148668130
20739085 24 18193276278241732504
21033648 29 17241914106124227698
22122407 14 16008754648951956161
22889206 1 17320712560870142969
23559900 14 18267307530617554611
3383291 50 18413384329343325211
350125 39 18187367614871301576
3886686 26 17477798004930081666
4073 2 18336829788281141802
5104073 3 18187655755938287490
513202 73 18411415124569103043
9555976 147 17096910392784960883

> <PUBCHEM_SHAPE_MULTIPOLES>
753.64
14.72
5.94
1.4
12.33
2.11
-0.33
-14.11
3.57
-6.67
-0.55
0.1
0.59
2.14

> <PUBCHEM_SHAPE_SELFOVERLAP>
1666.586

> <PUBCHEM_SHAPE_VOLUME>
397

> <PUBCHEM_COORDINATE_TYPE>
2
5
10

$$$$

