17396342
  -OEChem-06241222563D

 40 42  0     0  0  0  0  0  0999 V2000
    3.4721    0.1735    2.2478 S   0  0  0  0  0  0  0  0  0  0  0  0
   -4.9313   -0.2541   -0.8586 O   0  0  0  0  0  0  0  0  0  0  0  0
   -0.7721    1.1182    0.4232 O   0  0  0  0  0  0  0  0  0  0  0  0
   -2.2196    2.8704    0.1229 O   0  0  0  0  0  0  0  0  0  0  0  0
    4.1543    0.7818   -2.3280 O   0  0  0  0  0  0  0  0  0  0  0  0
   -4.0473   -1.3103   -0.6741 N   0  0  0  0  0  0  0  0  0  0  0  0
    2.4396    1.1239    0.0768 N   0  0  0  0  0  0  0  0  0  0  0  0
    4.6129    0.1014   -0.1115 N   0  0  0  0  0  0  0  0  0  0  0  0
   -2.9941    0.6626   -0.2435 C   0  0  0  0  0  0  0  0  0  0  0  0
   -2.8970   -0.7382   -0.3071 C   0  0  0  0  0  0  0  0  0  0  0  0
   -1.7430   -1.5458   -0.0288 C   0  0  0  0  0  0  0  0  0  0  0  0
   -4.2926    0.9154   -0.5991 C   0  0  0  0  0  0  0  0  0  0  0  0
   -2.0099    1.6431    0.1029 C   0  0  0  0  0  0  0  0  0  0  0  0
    0.2602    2.0446    0.7795 C   0  0  0  0  0  0  0  0  0  0  0  0
   -1.5150   -2.0138    1.2654 C   0  0  0  0  0  0  0  0  0  0  0  0
   -0.8498   -1.8624   -1.0524 C   0  0  0  0  0  0  0  0  0  0  0  0
    1.5416    1.3520    1.1014 C   0  0  0  0  0  0  0  0  0  0  0  0
   -5.0919    2.1392   -0.7480 C   0  0  0  0  0  0  0  0  0  0  0  0
   -0.3937   -2.7982    1.5360 C   0  0  0  0  0  0  0  0  0  0  0  0
    0.2714   -2.6468   -0.7817 C   0  0  0  0  0  0  0  0  0  0  0  0
    1.9257    0.9080    2.3493 C   0  0  0  0  0  0  0  0  0  0  0  0
    0.4994   -3.1147    0.5125 C   0  0  0  0  0  0  0  0  0  0  0  0
    3.4937    0.5087    0.5649 C   0  0  0  0  0  0  0  0  0  0  0  0
    4.8723    0.2572   -1.4834 C   0  0  0  0  0  0  0  0  0  0  0  0
    6.2142   -0.3158   -1.8666 C   0  0  0  0  0  0  0  0  0  0  0  0
   -0.0694    2.6303    1.6463 H   0  0  0  0  0  0  0  0  0  0  0  0
    0.4234    2.7335   -0.0581 H   0  0  0  0  0  0  0  0  0  0  0  0
   -2.2006   -1.7750    2.0750 H   0  0  0  0  0  0  0  0  0  0  0  0
   -1.0120   -1.5045   -2.0664 H   0  0  0  0  0  0  0  0  0  0  0  0
   -5.1403    2.6855    0.1990 H   0  0  0  0  0  0  0  0  0  0  0  0
   -6.1176    1.9134   -1.0568 H   0  0  0  0  0  0  0  0  0  0  0  0
   -4.6521    2.7972   -1.5039 H   0  0  0  0  0  0  0  0  0  0  0  0
   -0.2152   -3.1612    2.5439 H   0  0  0  0  0  0  0  0  0  0  0  0
    0.9680   -2.8919   -1.5781 H   0  0  0  0  0  0  0  0  0  0  0  0
    1.3915    0.9749    3.2865 H   0  0  0  0  0  0  0  0  0  0  0  0
    1.3734   -3.7239    0.7235 H   0  0  0  0  0  0  0  0  0  0  0  0
    5.3168   -0.3595    0.4596 H   0  0  0  0  0  0  0  0  0  0  0  0
    6.2473   -1.3802   -1.6176 H   0  0  0  0  0  0  0  0  0  0  0  0
    7.0075    0.2104   -1.3283 H   0  0  0  0  0  0  0  0  0  0  0  0
    6.3751   -0.1979   -2.9418 H   0  0  0  0  0  0  0  0  0  0  0  0
  1 21  1  0  0  0  0
  1 23  1  0  0  0  0
  2  6  1  0  0  0  0
  2 12  1  0  0  0  0
  3 13  1  0  0  0  0
  3 14  1  0  0  0  0
  4 13  2  0  0  0  0
  5 24  2  0  0  0  0
  6 10  2  0  0  0  0
  7 17  1  0  0  0  0
  7 23  2  0  0  0  0
  8 23  1  0  0  0  0
  8 24  1  0  0  0  0
  8 37  1  0  0  0  0
  9 10  1  0  0  0  0
  9 12  2  0  0  0  0
  9 13  1  0  0  0  0
 10 11  1  0  0  0  0
 11 15  2  0  0  0  0
 11 16  1  0  0  0  0
 12 18  1  0  0  0  0
 14 17  1  0  0  0  0
 14 26  1  0  0  0  0
 14 27  1  0  0  0  0
 15 19  1  0  0  0  0
 15 28  1  0  0  0  0
 16 20  2  0  0  0  0
 16 29  1  0  0  0  0
 17 21  2  0  0  0  0
 18 30  1  0  0  0  0
 18 31  1  0  0  0  0
 18 32  1  0  0  0  0
 19 22  2  0  0  0  0
 19 33  1  0  0  0  0
 20 22  1  0  0  0  0
 20 34  1  0  0  0  0
 21 35  1  0  0  0  0
 22 36  1  0  0  0  0
 24 25  1  0  0  0  0
 25 38  1  0  0  0  0
 25 39  1  0  0  0  0
 25 40  1  0  0  0  0
M  END
> <PUBCHEM_COMPOUND_CID>
17396342

> <PUBCHEM_CONFORMER_RMSD>
1

> <PUBCHEM_CONFORMER_DIVERSEORDER>
1
176
168
63
166
112
58
41
40
116
191
75
138
122
70
126
74
180
51
160
132
23
146
47
135
78
183
120
149
92
158
175
19
157
161
139
165
99
98
136
130
144
189
39
32
48
178
103
6
164
17
43
100
167
56
150
96
2
66
14
77
133
107
27
60
79
185
169
117
11
173
46
181
152
28
65
195
148
91
83
153
187
71
102
115
174
172
188
89
69
36
182
30
87
73
94
134
95
61
42
156
85
16
118
34
22
97
81
143
37
68
25
93
82
113
106
111
21
18
90
155
194
44
121
45
131
151
80
145
10
35
38
5
20
72
163
64
171
88
104
12
29
123
4
31
127
124
196
59
9
147
13
170
62
76
128
57
8
141
53
84
49
142
3
159
162
114
140
15
119
129
179
67
55
33
86
184
137
101
193
52
109
186
7
50
24
125
110
26
190
177
105
154
192
108
54

> <PUBCHEM_MMFF94_PARTIAL_CHARGES>
32
1 -0.08
10 0.23
11 0.05
12 -0.04
13 0.81
14 0.46
15 -0.15
16 -0.15
17 0.05
18 0.18
19 -0.15
2 -0.02
20 -0.15
21 -0.11
22 -0.15
23 0.44
24 0.57
25 0.06
28 0.15
29 0.15
3 -0.43
33 0.15
34 0.15
35 0.15
36 0.15
37 0.37
4 -0.57
5 -0.57
6 -0.41
7 -0.57
8 -0.49
9 -0.09

> <PUBCHEM_EFFECTIVE_ROTOR_COUNT>
7

> <PUBCHEM_PHARMACOPHORE_FEATURES>
7
1 4 acceptor
1 5 acceptor
1 6 acceptor
1 8 donor
5 1 7 17 21 23 rings
5 2 6 9 10 12 rings
6 11 15 16 19 20 22 rings

> <PUBCHEM_HEAVY_ATOM_COUNT>
25

> <PUBCHEM_ATOM_DEF_STEREO_COUNT>
0

> <PUBCHEM_ATOM_UDEF_STEREO_COUNT>
0

> <PUBCHEM_BOND_DEF_STEREO_COUNT>
0

> <PUBCHEM_BOND_UDEF_STEREO_COUNT>
0

> <PUBCHEM_ISOTOPIC_ATOM_COUNT>
0

> <PUBCHEM_COMPONENT_COUNT>
1

> <PUBCHEM_CACTVS_TAUTO_COUNT>
3

> <PUBCHEM_CONFORMER_ID>
0109727600000001

> <PUBCHEM_MMFF94_ENERGY>
42.5531

> <PUBCHEM_FEATURE_SELFOVERLAP>
35.52

> <PUBCHEM_SHAPE_FINGERPRINT>
10674148 151 17749660909145587032
10759866 29 17846784009632271962
107951 10 18059847363956733506
11458722 379 18408044013423066425
12467345 10 16773222973226477262
12592029 89 18340499919487055427
13402501 40 17967248694046708550
13544592 145 17967255269372827456
13617811 41 18342177817034015317
13726171 33 18126824054765203824
13941206 138 18131344237382448466
14251740 79 18261376889266844008
14251757 17 17603586365494502798
14251757 5 18270389500069588644
14931854 50 18261667198964844518
15163728 17 17345487066257226493
15238133 3 18272945920618117042
16752209 62 18411143515163620776
20642791 178 17835804475036808952
20645476 183 17775004535832240067
20905425 154 18117853311218407107
21069387 34 15792002334353519794
21781051 124 18270959034561926355
23366157 5 17770228468086127147
23559900 14 18186805742791804000
3298306 158 18337685207910631773
338550 245 18127423456147439682
4058900 60 17773877682827636817
508706 21 18261682462999513583
574716 61 17345464895783815276
6138700 20 18336272344032714746
9709674 26 18044946670602000528
9862886 166 18187075162469794684

> <PUBCHEM_SHAPE_MULTIPOLES>
479.92
10.63
3.18
1.93
5.8
1.59
-0.26
-4.09
6.69
-2.27
-0.58
3.12
0.02
0.59

> <PUBCHEM_SHAPE_SELFOVERLAP>
1021.875

> <PUBCHEM_SHAPE_VOLUME>
269.9

> <PUBCHEM_COORDINATE_TYPE>
2
5
10

$$$$

