689043
  -OEChem-07051212453D

 21 21  0     0  0  0  0  0  0999 V2000
    3.3190   -1.7785    0.1936 O   0  0  0  0  0  0  0  0  0  0  0  0
    4.0965    0.8849    0.0508 O   0  0  0  0  0  0  0  0  0  0  0  0
   -4.5229    0.9658    0.3589 O   0  0  0  0  0  0  0  0  0  0  0  0
   -4.0902   -1.1869   -0.2597 O   0  0  0  0  0  0  0  0  0  0  0  0
    0.0725   -0.1250   -0.1066 C   0  0  0  0  0  0  0  0  0  0  0  0
    1.0350   -1.1270    0.0177 C   0  0  0  0  0  0  0  0  0  0  0  0
    0.4630    1.2122   -0.1779 C   0  0  0  0  0  0  0  0  0  0  0  0
    2.3879   -0.7918    0.0705 C   0  0  0  0  0  0  0  0  0  0  0  0
    2.7784    0.5453   -0.0005 C   0  0  0  0  0  0  0  0  0  0  0  0
    1.8160    1.5473   -0.1248 C   0  0  0  0  0  0  0  0  0  0  0  0
   -1.3380   -0.4746   -0.1627 C   0  0  0  0  0  0  0  0  0  0  0  0
   -2.3077    0.3952    0.1047 C   0  0  0  0  0  0  0  0  0  0  0  0
   -3.7095   -0.0669    0.0361 C   0  0  0  0  0  0  0  0  0  0  0  0
    0.7426   -2.1734    0.0756 H   0  0  0  0  0  0  0  0  0  0  0  0
   -0.2423    2.0284   -0.3015 H   0  0  0  0  0  0  0  0  0  0  0  0
    2.1076    2.5925   -0.1870 H   0  0  0  0  0  0  0  0  0  0  0  0
   -1.5669   -1.5038   -0.4270 H   0  0  0  0  0  0  0  0  0  0  0  0
   -2.1467    1.4238    0.4033 H   0  0  0  0  0  0  0  0  0  0  0  0
    4.2003   -1.3667    0.2149 H   0  0  0  0  0  0  0  0  0  0  0  0
    4.1772    1.8522   -0.0117 H   0  0  0  0  0  0  0  0  0  0  0  0
   -5.4698    0.7109    0.3286 H   0  0  0  0  0  0  0  0  0  0  0  0
  1  8  1  0  0  0  0
  1 19  1  0  0  0  0
  2  9  1  0  0  0  0
  2 20  1  0  0  0  0
  3 13  1  0  0  0  0
  3 21  1  0  0  0  0
  4 13  2  0  0  0  0
  5  6  2  0  0  0  0
  5  7  1  0  0  0  0
  5 11  1  0  0  0  0
  6  8  1  0  0  0  0
  6 14  1  0  0  0  0
  7 10  2  0  0  0  0
  7 15  1  0  0  0  0
  8  9  2  0  0  0  0
  9 10  1  0  0  0  0
 10 16  1  0  0  0  0
 11 12  2  0  0  0  0
 11 17  1  0  0  0  0
 12 13  1  0  0  0  0
 12 18  1  0  0  0  0
M  END
> <PUBCHEM_COMPOUND_CID>
689043

> <PUBCHEM_CONFORMER_RMSD>
0.6

> <PUBCHEM_CONFORMER_DIVERSEORDER>
1
2

> <PUBCHEM_MMFF94_PARTIAL_CHARGES>
21
1 -0.53
10 -0.15
11 -0.18
12 -0.14
13 0.71
14 0.15
15 0.15
16 0.15
17 0.15
18 0.15
19 0.45
2 -0.53
20 0.45
21 0.5
3 -0.65
4 -0.57
5 0.03
6 -0.15
7 -0.15
8 0.08
9 0.08

> <PUBCHEM_EFFECTIVE_ROTOR_COUNT>
2

> <PUBCHEM_PHARMACOPHORE_FEATURES>
6
1 1 donor
1 2 donor
1 3 acceptor
1 4 acceptor
3 3 4 13 anion
6 5 6 7 8 9 10 rings

> <PUBCHEM_HEAVY_ATOM_COUNT>
13

> <PUBCHEM_ATOM_DEF_STEREO_COUNT>
0

> <PUBCHEM_ATOM_UDEF_STEREO_COUNT>
0

> <PUBCHEM_BOND_DEF_STEREO_COUNT>
1

> <PUBCHEM_BOND_UDEF_STEREO_COUNT>
0

> <PUBCHEM_ISOTOPIC_ATOM_COUNT>
0

> <PUBCHEM_COMPONENT_COUNT>
1

> <PUBCHEM_CACTVS_TAUTO_COUNT>
10

> <PUBCHEM_CONFORMER_ID>
000A839300000001

> <PUBCHEM_MMFF94_ENERGY>
32.6032

> <PUBCHEM_FEATURE_SELFOVERLAP>
30.506

> <PUBCHEM_SHAPE_FINGERPRINT>
10219947 1 18409165527962623526
10980938 120 18411419505535652942
11062470 55 18261110768381478537
11471102 20 18412548725225420644
12032990 46 18339922722573478086
12346645 6 18334574650982189198
12932764 1 17313115128647382309
13380535 76 18341612564434238762
14144814 61 18408322189959774385
14251717 144 18412830170169242503
14325111 11 18410011022740395869
14576447 43 18189909612466359311
15219456 202 18201448020378817765
15442244 35 18265612267685529825
15501101 241 18272933829752461276
15536298 74 18334575754646333230
18186145 218 17988927794691904075
200 152 18260557697554360887
20279233 1 17132115727932969627
20645477 70 18410858801877021087
20871998 22 18118964939165716246
21501925 9 18340216270877220850
22485316 2 18412266142474188623
23402539 116 17240768375947080181
23402655 69 18409171021642637157
2748010 2 18196387024781531332
449060 62 18410009914791976708
4990 188 18040702659240969420
5104073 3 18410011044215376211
581208 293 18342460313763587508
77779 3 18410572886140963795

> <PUBCHEM_SHAPE_MULTIPOLES>
244.06
7.78
1.51
0.61
5.93
0.1
-0.01
0.08
0.47
-0.89
0
0.04
-0.01
-0.29

> <PUBCHEM_SHAPE_SELFOVERLAP>
514.004

> <PUBCHEM_SHAPE_VOLUME>
137.2

> <PUBCHEM_COORDINATE_TYPE>
2
5
10

$$$$

