5273621
  -OEChem-07051212583D

 29 30  0     0  0  0  0  0  0999 V2000
    1.2969   -1.1385    0.0950 O   0  0  0  0  0  0  0  0  0  0  0  0
    4.2884    1.7244   -0.1489 O   0  0  0  0  0  0  0  0  0  0  0  0
    2.8634   -2.7816    0.2141 O   0  0  0  0  0  0  0  0  0  0  0  0
   -2.7967   -0.1091    0.0139 C   0  0  0  0  0  0  0  0  0  0  0  0
    1.0126    0.2429   -0.0119 C   0  0  0  0  0  0  0  0  0  0  0  0
   -1.3487   -0.3796    0.0367 C   0  0  0  0  0  0  0  0  0  0  0  0
   -0.3874    0.5553   -0.0282 C   0  0  0  0  0  0  0  0  0  0  0  0
    1.9850    1.1594   -0.0894 C   0  0  0  0  0  0  0  0  0  0  0  0
    3.3510    0.7223   -0.0639 C   0  0  0  0  0  0  0  0  0  0  0  0
   -3.2556    1.1581    0.3357 C   0  0  0  0  0  0  0  0  0  0  0  0
   -3.6721   -1.1270   -0.3291 C   0  0  0  0  0  0  0  0  0  0  0  0
    3.6613   -0.5752    0.0355 C   0  0  0  0  0  0  0  0  0  0  0  0
   -4.6266    1.4143    0.3144 C   0  0  0  0  0  0  0  0  0  0  0  0
   -5.0431   -0.8708   -0.3506 C   0  0  0  0  0  0  0  0  0  0  0  0
    2.5903   -1.5892    0.1222 C   0  0  0  0  0  0  0  0  0  0  0  0
   -5.5202    0.3999   -0.0289 C   0  0  0  0  0  0  0  0  0  0  0  0
    5.6012    1.1946   -0.1165 C   0  0  0  0  0  0  0  0  0  0  0  0
   -0.6298    1.6097   -0.1228 H   0  0  0  0  0  0  0  0  0  0  0  0
   -1.0925   -1.4348    0.1039 H   0  0  0  0  0  0  0  0  0  0  0  0
    1.7741    2.2204   -0.1713 H   0  0  0  0  0  0  0  0  0  0  0  0
   -2.5998    1.9711    0.6306 H   0  0  0  0  0  0  0  0  0  0  0  0
   -3.3162   -2.1217   -0.5838 H   0  0  0  0  0  0  0  0  0  0  0  0
    4.6605   -0.9912    0.0614 H   0  0  0  0  0  0  0  0  0  0  0  0
   -4.9992    2.4020    0.5699 H   0  0  0  0  0  0  0  0  0  0  0  0
   -5.7392   -1.6605   -0.6179 H   0  0  0  0  0  0  0  0  0  0  0  0
   -6.5878    0.5991   -0.0444 H   0  0  0  0  0  0  0  0  0  0  0  0
    5.8181    0.5603   -0.9843 H   0  0  0  0  0  0  0  0  0  0  0  0
    5.8308    0.7029    0.8364 H   0  0  0  0  0  0  0  0  0  0  0  0
    6.2880    2.0457   -0.1879 H   0  0  0  0  0  0  0  0  0  0  0  0
  1  5  1  0  0  0  0
  1 15  1  0  0  0  0
  2  9  1  0  0  0  0
  2 17  1  0  0  0  0
  3 15  2  0  0  0  0
  4  6  1  0  0  0  0
  4 10  2  0  0  0  0
  4 11  1  0  0  0  0
  5  7  1  0  0  0  0
  5  8  2  0  0  0  0
  6  7  2  0  0  0  0
  6 19  1  0  0  0  0
  7 18  1  0  0  0  0
  8  9  1  0  0  0  0
  8 20  1  0  0  0  0
  9 12  2  0  0  0  0
 10 13  1  0  0  0  0
 10 21  1  0  0  0  0
 11 14  2  0  0  0  0
 11 22  1  0  0  0  0
 12 15  1  0  0  0  0
 12 23  1  0  0  0  0
 13 16  2  0  0  0  0
 13 24  1  0  0  0  0
 14 16  1  0  0  0  0
 14 25  1  0  0  0  0
 16 26  1  0  0  0  0
 17 27  1  0  0  0  0
 17 28  1  0  0  0  0
 17 29  1  0  0  0  0
M  END
> <PUBCHEM_COMPOUND_CID>
5273621

> <PUBCHEM_CONFORMER_RMSD>
0.6

> <PUBCHEM_CONFORMER_DIVERSEORDER>
1
4
6
7
5
3
2

> <PUBCHEM_MMFF94_PARTIAL_CHARGES>
26
1 -0.23
10 -0.15
11 -0.15
12 -0.14
13 -0.15
14 -0.15
15 0.71
16 -0.15
17 0.28
18 0.15
19 0.15
2 -0.36
20 0.15
21 0.15
22 0.15
23 0.15
24 0.15
25 0.15
26 0.15
3 -0.57
4 0.03
5 0.08
6 -0.18
7 -0.15
8 -0.15
9 0.08

> <PUBCHEM_EFFECTIVE_ROTOR_COUNT>
3

> <PUBCHEM_PHARMACOPHORE_FEATURES>
4
1 2 acceptor
1 3 acceptor
6 1 5 8 9 12 15 rings
6 4 10 11 13 14 16 rings

> <PUBCHEM_HEAVY_ATOM_COUNT>
17

> <PUBCHEM_ATOM_DEF_STEREO_COUNT>
0

> <PUBCHEM_ATOM_UDEF_STEREO_COUNT>
0

> <PUBCHEM_BOND_DEF_STEREO_COUNT>
1

> <PUBCHEM_BOND_UDEF_STEREO_COUNT>
0

> <PUBCHEM_ISOTOPIC_ATOM_COUNT>
0

> <PUBCHEM_COMPONENT_COUNT>
1

> <PUBCHEM_CACTVS_TAUTO_COUNT>
1

> <PUBCHEM_CONFORMER_ID>
0050781500000001

> <PUBCHEM_MMFF94_ENERGY>
55.3632

> <PUBCHEM_FEATURE_SELFOVERLAP>
20.297

> <PUBCHEM_SHAPE_FINGERPRINT>
10014705 185 18343305894662726277
10595046 47 18408324376261671285
10616163 171 18263081033400777759
10912923 1 18186801413622356259
11471102 20 18412262839744558260
12107183 9 17687742053423944649
12236239 1 18113899363998700804
13073987 5 18411133667352191745
13167823 11 18335140912381990215
13533116 47 18334581273996118667
13631057 29 18118405051555774727
13675066 3 17917422164344798377
13760787 19 18260268533900556927
14251718 22 18041278781569053653
14251764 18 18040995138588439401
14341114 176 18410003356324038273
14528608 73 18409165476713270452
15196674 1 18410011061368883663
15242433 33 18408041818890054495
15375358 24 18060415798508973674
15442244 35 18193555798907817545
15536298 74 18409448119710069323
17834072 33 18407761430307818231
1813 80 16988556935706318093
18186145 218 17632858663471385403
18222031 100 15140686886281427561
18335252 98 18342453704737749835
200 152 18259987055082410049
20279233 1 16415479350537551577
20645477 70 18334855064959858326
21054139 6 18265059037380574502
21065198 48 18334575776326846185
21267235 1 18336819874736967239
22485316 2 18409731772556777055
23402539 116 18343306937759413597
23402655 69 18335139786651879943
23559900 14 18116156755881352738
239999 70 18260260876491028038
245318 6 17056100828249320660
29717793 49 17894911879446847141
300161 21 18412269436809141149
33824 294 18343021103612605994
3421961 26 18267026248756805258
34797466 226 17386278801170804725
3545911 37 18411417298123065745
4073 2 18131062706143680819
4214541 1 18409167749072723153
42630746 31 18409167719208386230
42788 4 18409166588835545277
474 4 18131065983388252532
4990 188 17894901919987477844
5104073 3 18411417345393944267
542803 24 17458060473983074497
543358 83 18336823194925710464
77779 3 18410292536450959443
8272917 22 18409444825707595262
90127 26 17988073521586534809
9709674 26 18411975862883671139
9971528 1 17917708028350720716

> <PUBCHEM_SHAPE_MULTIPOLES>
332.24
12.91
1.89
0.63
3.3
0.8
0
-2.85
-0.49
-1.53
0.1
0.12
-0.01
-0.63

> <PUBCHEM_SHAPE_SELFOVERLAP>
710.899

> <PUBCHEM_SHAPE_VOLUME>
183.8

> <PUBCHEM_COORDINATE_TYPE>
2
5
10

$$$$

