13939
  -OEChem-06241222413D

 21 20  0     0  0  0  0  0  0999 V2000
   -4.8667    0.4850    0.0048 S   0  0  0  0  0  0  0  0  0  0  0  0
    2.8513    1.3484    0.0097 O   0  0  0  0  0  0  0  0  0  0  0  0
   -0.9463   -0.5601   -0.0070 N   0  0  0  0  0  0  0  0  0  0  0  0
    3.9056   -0.6949    0.0060 N   0  0  0  0  0  0  0  0  0  0  0  0
    0.2728    0.2389   -0.0105 C   0  0  0  0  0  0  0  0  0  0  0  0
   -2.1268    0.2924   -0.0203 C   0  0  0  0  0  0  0  0  0  0  0  0
    1.5000   -0.6664   -0.0076 C   0  0  0  0  0  0  0  0  0  0  0  0
   -3.3851   -0.5656    0.0215 C   0  0  0  0  0  0  0  0  0  0  0  0
    2.7953    0.1222    0.0034 C   0  0  0  0  0  0  0  0  0  0  0  0
    0.3009    0.8805   -0.9000 H   0  0  0  0  0  0  0  0  0  0  0  0
    0.3010    0.8946    0.8689 H   0  0  0  0  0  0  0  0  0  0  0  0
   -2.1272    0.9056   -0.9302 H   0  0  0  0  0  0  0  0  0  0  0  0
   -2.1089    0.9671    0.8451 H   0  0  0  0  0  0  0  0  0  0  0  0
    1.4914   -1.3154    0.8771 H   0  0  0  0  0  0  0  0  0  0  0  0
    1.4988   -1.3094   -0.8965 H   0  0  0  0  0  0  0  0  0  0  0  0
   -0.9616   -1.1601    0.8174 H   0  0  0  0  0  0  0  0  0  0  0  0
   -3.4111   -1.1808    0.9272 H   0  0  0  0  0  0  0  0  0  0  0  0
   -3.4291   -1.2348   -0.8442 H   0  0  0  0  0  0  0  0  0  0  0  0
   -4.6235    1.1160    1.1630 H   0  0  0  0  0  0  0  0  0  0  0  0
    4.8415   -0.3033    0.0132 H   0  0  0  0  0  0  0  0  0  0  0  0
    3.8345   -1.7074    0.0007 H   0  0  0  0  0  0  0  0  0  0  0  0
  1  8  1  0  0  0  0
  1 19  1  0  0  0  0
  2  9  2  0  0  0  0
  3  5  1  0  0  0  0
  3  6  1  0  0  0  0
  3 16  1  0  0  0  0
  4  9  1  0  0  0  0
  4 20  1  0  0  0  0
  4 21  1  0  0  0  0
  5  7  1  0  0  0  0
  5 10  1  0  0  0  0
  5 11  1  0  0  0  0
  6  8  1  0  0  0  0
  6 12  1  0  0  0  0
  6 13  1  0  0  0  0
  7  9  1  0  0  0  0
  7 14  1  0  0  0  0
  7 15  1  0  0  0  0
  8 17  1  0  0  0  0
  8 18  1  0  0  0  0
M  END
> <PUBCHEM_COMPOUND_CID>
13939

> <PUBCHEM_CONFORMER_RMSD>
0.6

> <PUBCHEM_CONFORMER_DIVERSEORDER>
1
66
112
58
3
18
79
102
2
110
65
80
15
92
13
72
87
71
111
11
74
109
5
42
31
83
75
34
38
56
84
48
50
60
12
90
104
69
113
97
10
93
37
4
86
107
89
88
6
76
68
91
94
98
106
9
105
52
20
29
99
8
101
64
100
7
95
49
108
103
96
25
77
24
17
54
32
67
46
73
27
36
82
81
62
39
40
44
23
19
85
61
16
14
51
33
57
30
22
47
70
45
41
78
35
28
63
53
21
59
26
43
55

> <PUBCHEM_MMFF94_PARTIAL_CHARGES>
13
1 -0.41
16 0.36
19 0.18
2 -0.57
20 0.37
21 0.37
3 -0.9
4 -0.8
5 0.27
6 0.27
7 0.06
8 0.23
9 0.57

> <PUBCHEM_EFFECTIVE_ROTOR_COUNT>
5

> <PUBCHEM_PHARMACOPHORE_FEATURES>
4
1 2 acceptor
1 3 cation
1 3 donor
1 4 donor

> <PUBCHEM_HEAVY_ATOM_COUNT>
9

> <PUBCHEM_ATOM_DEF_STEREO_COUNT>
0

> <PUBCHEM_ATOM_UDEF_STEREO_COUNT>
0

> <PUBCHEM_BOND_DEF_STEREO_COUNT>
0

> <PUBCHEM_BOND_UDEF_STEREO_COUNT>
0

> <PUBCHEM_ISOTOPIC_ATOM_COUNT>
0

> <PUBCHEM_COMPONENT_COUNT>
1

> <PUBCHEM_CACTVS_TAUTO_COUNT>
2

> <PUBCHEM_CONFORMER_ID>
0000367300000001

> <PUBCHEM_MMFF94_ENERGY>
3.3271

> <PUBCHEM_FEATURE_SELFOVERLAP>
20.297

> <PUBCHEM_SHAPE_FINGERPRINT>
11062470 55 18411699889828001743
12932764 1 17274837834444201587
14325111 11 18410573959576949607
17834076 25 16845289453852232575
190213 19 17095520695184008575
20645477 70 18262236737192992775
20719005 15 18410855464987618507
23402539 116 17676777543252005485
23402655 69 18333450941160592269

> <PUBCHEM_SHAPE_MULTIPOLES>
173.23
9.1
0.96
0.6
4.71
0.15
0
0.72
-0.05
-0.37
0
0.11
0
0.01

> <PUBCHEM_SHAPE_SELFOVERLAP>
303.733

> <PUBCHEM_SHAPE_VOLUME>
114.8

> <PUBCHEM_COORDINATE_TYPE>
2
5
10

$$$$

