5282200
  -OEChem-07051213032D

105105  0     1  0  0  0  0  0999 V2000
    5.1350   -2.8450    0.0000 O   0  0  0  0  0  0  0  0  0  0  0  0
    7.7331   -1.3450    0.0000 O   0  0  0  0  0  0  0  0  0  0  0  0
    7.2091   -1.7847    0.0000 O   0  0  0  0  0  0  0  0  0  0  0  0
    9.4651   -1.3450    0.0000 O   0  0  0  0  0  0  0  0  0  0  0  0
   12.0632   -2.8450    0.0000 O   0  0  0  0  0  0  0  0  0  0  0  0
    4.2690   -1.3450    0.0000 O   0  0  0  0  0  0  0  0  0  0  0  0
   12.9292   -1.3450    0.0000 O   0  0  0  0  0  0  0  0  0  0  0  0
   13.7953    0.1550    0.0000 O   0  0  0  0  0  0  0  0  0  0  0  0
    5.6350    0.0210    0.0000 O   0  0  0  0  0  0  0  0  0  0  0  0
   13.7953    2.1550    0.0000 O   0  0  0  0  0  0  0  0  0  0  0  0
   12.0632    3.1550    0.0000 O   0  0  0  0  0  0  0  0  0  0  0  0
    2.5369    0.6550    0.0000 O   0  0  0  0  0  0  0  0  0  0  0  0
    6.0010   -1.3450    0.0000 C   0  0  1  0  0  0  0  0  0  0  0  0
    6.0010   -2.3450    0.0000 C   0  0  2  0  0  0  0  0  0  0  0  0
    6.8671   -2.8450    0.0000 C   0  0  0  0  0  0  0  0  0  0  0  0
    7.7331   -2.3450    0.0000 C   0  0  2  0  0  0  0  0  0  0  0  0
    8.5991   -2.8450    0.0000 C   0  0  0  0  0  0  0  0  0  0  0  0
    6.8671   -0.8450    0.0000 C   0  0  1  0  0  0  0  0  0  0  0  0
    9.4651   -2.3450    0.0000 C   0  0  2  0  0  0  0  0  0  0  0  0
   10.3312   -2.8450    0.0000 C   0  0  0  0  0  0  0  0  0  0  0  0
   11.1972   -2.3450    0.0000 C   0  0  2  0  0  0  0  0  0  0  0  0
    7.0407    0.1398    0.0000 C   0  0  0  0  0  0  0  0  0  0  0  0
   11.1972   -1.3450    0.0000 C   0  0  0  0  0  0  0  0  0  0  0  0
   12.0632   -0.8450    0.0000 C   0  0  2  0  0  0  0  0  0  0  0  0
   12.0632    0.1550    0.0000 C   0  0  0  0  0  0  0  0  0  0  0  0
    7.9804    0.4818    0.0000 C   0  0  0  0  0  0  0  0  0  0  0  0
    5.1350   -0.8450    0.0000 C   0  0  0  0  0  0  0  0  0  0  0  0
   12.9292    0.6550    0.0000 C   0  0  2  0  0  0  0  0  0  0  0  0
   12.9292    1.6550    0.0000 C   0  0  2  0  0  0  0  0  0  0  0  0
    8.7464   -0.1610    0.0000 C   0  0  0  0  0  0  0  0  0  0  0  0
   12.0632    2.1550    0.0000 C   0  0  1  0  0  0  0  0  0  0  0  0
    9.6861    0.1811    0.0000 C   0  0  0  0  0  0  0  0  0  0  0  0
    3.4030   -0.8450    0.0000 C   0  0  1  0  0  0  0  0  0  0  0  0
   11.1972    1.6550    0.0000 C   0  0  0  0  0  0  0  0  0  0  0  0
    3.4030    0.1550    0.0000 C   0  0  2  0  0  0  0  0  0  0  0  0
   10.4522   -0.4617    0.0000 C   0  0  0  0  0  0  0  0  0  0  0  0
    2.5369   -1.3450    0.0000 C   0  0  0  0  0  0  0  0  0  0  0  0
   11.1972    0.6550    0.0000 C   0  0  0  0  0  0  0  0  0  0  0  0
   10.3312    2.1550    0.0000 C   0  0  0  0  0  0  0  0  0  0  0  0
    4.2690    0.6550    0.0000 C   0  0  0  0  0  0  0  0  0  0  0  0
    9.4651    1.6550    0.0000 C   0  0  0  0  0  0  0  0  0  0  0  0
    4.2690    1.6550    0.0000 C   0  0  0  0  0  0  0  0  0  0  0  0
    8.5991    2.1550    0.0000 C   0  0  0  0  0  0  0  0  0  0  0  0
    5.1350    2.1550    0.0000 C   0  0  0  0  0  0  0  0  0  0  0  0
    7.7331    1.6550    0.0000 C   0  0  0  0  0  0  0  0  0  0  0  0
    6.0010    1.6550    0.0000 C   0  0  0  0  0  0  0  0  0  0  0  0
    6.8671    2.1550    0.0000 C   0  0  0  0  0  0  0  0  0  0  0  0
    6.0010   -0.4950    0.0000 H   0  0  0  0  0  0  0  0  0  0  0  0
    5.4641   -2.0350    0.0000 H   0  0  0  0  0  0  0  0  0  0  0  0
    6.4685   -3.3200    0.0000 H   0  0  0  0  0  0  0  0  0  0  0  0
    7.2656   -3.3200    0.0000 H   0  0  0  0  0  0  0  0  0  0  0  0
    8.2700   -2.0350    0.0000 H   0  0  0  0  0  0  0  0  0  0  0  0
    8.2006   -3.3200    0.0000 H   0  0  0  0  0  0  0  0  0  0  0  0
    8.9976   -3.3200    0.0000 H   0  0  0  0  0  0  0  0  0  0  0  0
    7.4847   -0.7910    0.0000 H   0  0  0  0  0  0  0  0  0  0  0  0
   10.0021   -2.0350    0.0000 H   0  0  0  0  0  0  0  0  0  0  0  0
    9.9326   -3.3200    0.0000 H   0  0  0  0  0  0  0  0  0  0  0  0
   10.7297   -3.3200    0.0000 H   0  0  0  0  0  0  0  0  0  0  0  0
   11.1972   -2.9650    0.0000 H   0  0  0  0  0  0  0  0  0  0  0  0
    6.9330    0.7504    0.0000 H   0  0  0  0  0  0  0  0  0  0  0  0
    6.4207    0.1398    0.0000 H   0  0  0  0  0  0  0  0  0  0  0  0
   10.9851   -0.7624    0.0000 H   0  0  0  0  0  0  0  0  0  0  0  0
   10.5866   -1.4527    0.0000 H   0  0  0  0  0  0  0  0  0  0  0  0
   12.6002   -0.5350    0.0000 H   0  0  0  0  0  0  0  0  0  0  0  0
   11.8512    0.7376    0.0000 H   0  0  0  0  0  0  0  0  0  0  0  0
   11.4526    0.0473    0.0000 H   0  0  0  0  0  0  0  0  0  0  0  0
    8.4553    0.8804    0.0000 H   0  0  0  0  0  0  0  0  0  0  0  0
    7.6704    1.0188    0.0000 H   0  0  0  0  0  0  0  0  0  0  0  0
   12.9292    0.0350    0.0000 H   0  0  0  0  0  0  0  0  0  0  0  0
   12.9292    2.2750    0.0000 H   0  0  0  0  0  0  0  0  0  0  0  0
    8.2715   -0.5595    0.0000 H   0  0  0  0  0  0  0  0  0  0  0  0
    9.0564   -0.6979    0.0000 H   0  0  0  0  0  0  0  0  0  0  0  0
    5.1350   -3.4650    0.0000 H   0  0  0  0  0  0  0  0  0  0  0  0
    8.2700   -1.0350    0.0000 H   0  0  0  0  0  0  0  0  0  0  0  0
    6.6265   -1.9968    0.0000 H   0  0  0  0  0  0  0  0  0  0  0  0
   10.0021   -1.0350    0.0000 H   0  0  0  0  0  0  0  0  0  0  0  0
   12.6002    2.4650    0.0000 H   0  0  0  0  0  0  0  0  0  0  0  0
   12.0632   -3.4650    0.0000 H   0  0  0  0  0  0  0  0  0  0  0  0
   10.1611    0.5796    0.0000 H   0  0  0  0  0  0  0  0  0  0  0  0
    9.3761    0.7180    0.0000 H   0  0  0  0  0  0  0  0  0  0  0  0
    3.4030   -1.4650    0.0000 H   0  0  0  0  0  0  0  0  0  0  0  0
   12.9292   -1.9650    0.0000 H   0  0  0  0  0  0  0  0  0  0  0  0
   14.3322    0.4650    0.0000 H   0  0  0  0  0  0  0  0  0  0  0  0
    3.4030    0.7750    0.0000 H   0  0  0  0  0  0  0  0  0  0  0  0
   14.3322    1.8450    0.0000 H   0  0  0  0  0  0  0  0  0  0  0  0
   10.0537   -0.9367    0.0000 H   0  0  0  0  0  0  0  0  0  0  0  0
   10.9271   -0.8603    0.0000 H   0  0  0  0  0  0  0  0  0  0  0  0
   10.8507    0.0132    0.0000 H   0  0  0  0  0  0  0  0  0  0  0  0
    2.2269   -0.8081    0.0000 H   0  0  0  0  0  0  0  0  0  0  0  0
    2.0000   -1.6550    0.0000 H   0  0  0  0  0  0  0  0  0  0  0  0
    2.8469   -1.8819    0.0000 H   0  0  0  0  0  0  0  0  0  0  0  0
   12.6002    3.4650    0.0000 H   0  0  0  0  0  0  0  0  0  0  0  0
   10.5772    0.6550    0.0000 H   0  0  0  0  0  0  0  0  0  0  0  0
   11.1972    0.0350    0.0000 H   0  0  0  0  0  0  0  0  0  0  0  0
   11.8172    0.6550    0.0000 H   0  0  0  0  0  0  0  0  0  0  0  0
   10.3312    2.7750    0.0000 H   0  0  0  0  0  0  0  0  0  0  0  0
    4.8059    0.3450    0.0000 H   0  0  0  0  0  0  0  0  0  0  0  0
    2.0000    0.3450    0.0000 H   0  0  0  0  0  0  0  0  0  0  0  0
    9.4651    1.0350    0.0000 H   0  0  0  0  0  0  0  0  0  0  0  0
    3.7320    1.9650    0.0000 H   0  0  0  0  0  0  0  0  0  0  0  0
    8.5991    2.7750    0.0000 H   0  0  0  0  0  0  0  0  0  0  0  0
    5.1350    2.7750    0.0000 H   0  0  0  0  0  0  0  0  0  0  0  0
    7.7331    1.0350    0.0000 H   0  0  0  0  0  0  0  0  0  0  0  0
    6.0010    1.0350    0.0000 H   0  0  0  0  0  0  0  0  0  0  0  0
    6.8671    2.7750    0.0000 H   0  0  0  0  0  0  0  0  0  0  0  0
 14  1  1  6  0  0  0
  1 73  1  0  0  0  0
 16  2  1  1  0  0  0
  2 74  1  0  0  0  0
 18  3  1  1  0  0  0
  3 75  1  0  0  0  0
 19  4  1  1  0  0  0
  4 76  1  0  0  0  0
 21  5  1  6  0  0  0
  5 78  1  0  0  0  0
  6 27  1  0  0  0  0
  6 33  1  0  0  0  0
 24  7  1  6  0  0  0
  7 82  1  0  0  0  0
 28  8  1  6  0  0  0
  8 83  1  0  0  0  0
  9 27  2  0  0  0  0
 29 10  1  6  0  0  0
 10 85  1  0  0  0  0
 31 11  1  1  0  0  0
 11 92  1  0  0  0  0
 35 12  1  1  0  0  0
 12 98  1  0  0  0  0
 13 14  1  0  0  0  0
 13 18  1  0  0  0  0
 13 27  1  0  0  0  0
 13 48  1  1  0  0  0
 14 15  1  0  0  0  0
 14 49  1  0  0  0  0
 15 16  1  0  0  0  0
 15 50  1  0  0  0  0
 15 51  1  0  0  0  0
 16 17  1  0  0  0  0
 16 52  1  0  0  0  0
 17 19  1  0  0  0  0
 17 53  1  0  0  0  0
 17 54  1  0  0  0  0
 18 22  1  0  0  0  0
 18 55  1  0  0  0  0
 19 20  1  0  0  0  0
 19 56  1  0  0  0  0
 20 21  1  0  0  0  0
 20 57  1  0  0  0  0
 20 58  1  0  0  0  0
 21 23  1  0  0  0  0
 21 59  1  0  0  0  0
 22 26  1  0  0  0  0
 22 60  1  0  0  0  0
 22 61  1  0  0  0  0
 23 24  1  0  0  0  0
 23 62  1  0  0  0  0
 23 63  1  0  0  0  0
 24 25  1  0  0  0  0
 24 64  1  0  0  0  0
 25 28  1  0  0  0  0
 25 65  1  0  0  0  0
 25 66  1  0  0  0  0
 26 30  1  0  0  0  0
 26 67  1  0  0  0  0
 26 68  1  0  0  0  0
 28 29  1  0  0  0  0
 28 69  1  0  0  0  0
 29 31  1  0  0  0  0
 29 70  1  0  0  0  0
 30 32  1  0  0  0  0
 30 71  1  0  0  0  0
 30 72  1  0  0  0  0
 31 34  1  0  0  0  0
 31 77  1  0  0  0  0
 32 36  1  0  0  0  0
 32 79  1  0  0  0  0
 32 80  1  0  0  0  0
 33 35  1  0  0  0  0
 33 37  1  6  0  0  0
 33 81  1  0  0  0  0
 34 38  1  0  0  0  0
 34 39  2  0  0  0  0
 35 40  1  0  0  0  0
 35 84  1  0  0  0  0
 36 86  1  0  0  0  0
 36 87  1  0  0  0  0
 36 88  1  0  0  0  0
 37 89  1  0  0  0  0
 37 90  1  0  0  0  0
 37 91  1  0  0  0  0
 38 93  1  0  0  0  0
 38 94  1  0  0  0  0
 38 95  1  0  0  0  0
 39 41  1  0  0  0  0
 39 96  1  0  0  0  0
 40 42  2  0  0  0  0
 40 97  1  0  0  0  0
 41 43  2  0  0  0  0
 41 99  1  0  0  0  0
 42 44  1  0  0  0  0
 42100  1  0  0  0  0
 43 45  1  0  0  0  0
 43101  1  0  0  0  0
 44 46  2  0  0  0  0
 44102  1  0  0  0  0
 45 47  2  0  0  0  0
 45103  1  0  0  0  0
 46 47  1  0  0  0  0
 46104  1  0  0  0  0
 47105  1  0  0  0  0
M  END
> <PUBCHEM_COMPOUND_CID>
5282200

> <PUBCHEM_COMPOUND_CANONICALIZED>
1

> <PUBCHEM_CACTVS_COMPLEXITY>
1020

> <PUBCHEM_CACTVS_HBOND_ACCEPTOR>
12

> <PUBCHEM_CACTVS_HBOND_DONOR>
10

> <PUBCHEM_CACTVS_ROTATABLE_BOND>
5

> <PUBCHEM_CACTVS_SUBSKEYS>
AAADcfB8PAAAAAAAAAAAAAAAAAAAAAAAAAAAAAAAAAAAAAAAAAAAGgAACAAADRSggAICCAAABgCIAiDSCAAAAAAgAAAICAEAAAgJFBYAAQACUAAF4AALkAPI7OzOAAAAAAAAAAAAAAAAAAAAAAAAAAAAAA==

> <PUBCHEM_IUPAC_OPENEYE_NAME>
(3R,4S,6S,8S,10R,12R,14R,15R,16R,17E,19E,21E,23E,25E,27S,28R)-4,6,8,10,12,14,15,16,27-nonahydroxy-3-[(1R)-1-hydroxyhexyl]-17,28-dimethyl-1-oxacyclooctacosa-17,19,21,23,25-pentaen-2-one

> <PUBCHEM_IUPAC_CAS_NAME>
(3R,4S,6S,8S,10R,12R,14R,15R,16R,17E,19E,21E,23E,25E,27S,28R)-4,6,8,10,12,14,15,16,27-nonahydroxy-3-[(1R)-1-hydroxyhexyl]-17,28-dimethyl-1-oxacyclooctacosa-17,19,21,23,25-pentaen-2-one

> <PUBCHEM_IUPAC_NAME>
(3R,4S,6S,8S,10R,12R,14R,15R,16R,17E,19E,21E,23E,25E,27S,28R)-4,6,8,10,12,14,15,16,27-nonahydroxy-3-[(1R)-1-hydroxyhexyl]-17,28-dimethyl-1-oxacyclooctacosa-17,19,21,23,25-pentaen-2-one

> <PUBCHEM_IUPAC_SYSTEMATIC_NAME>
(3R,4S,6S,8S,10R,12R,14R,15R,16R,17E,19E,21E,23E,25E,27S,28R)-17,28-dimethyl-4,6,8,10,12,14,15,16,27-nonakis(oxidanyl)-3-[(1R)-1-oxidanylhexyl]-1-oxacyclooctacosa-17,19,21,23,25-pentaen-2-one

> <PUBCHEM_IUPAC_TRADITIONAL_NAME>
(3R,4S,6S,8S,10R,12R,14R,15R,16R,17E,19E,21E,23E,25E,27S,28R)-4,6,8,10,12,14,15,16,27-nonahydroxy-3-[(1R)-1-hydroxyhexyl]-17,28-dimethyl-1-oxacyclooctacosa-17,19,21,23,25-pentaen-2-one

> <PUBCHEM_IUPAC_INCHI>
InChI=1S/C35H58O12/c1-4-5-11-16-29(41)32-30(42)20-26(38)18-24(36)17-25(37)19-27(39)21-31(43)34(45)33(44)22(2)14-12-9-7-6-8-10-13-15-28(40)23(3)47-35(32)46/h6-10,12-15,23-34,36-45H,4-5,11,16-21H2,1-3H3/b7-6+,10-8+,12-9+,15-13+,22-14+/t23-,24+,25-,26+,27-,28+,29-,30+,31-,32-,33-,34-/m1/s1

> <PUBCHEM_IUPAC_INCHIKEY>
AGJUUQSLGVCRQA-SWOUQTJZSA-N

> <PUBCHEM_XLOGP3_AA>
2.2

> <PUBCHEM_EXACT_MASS>
670.392827

> <PUBCHEM_MOLECULAR_FORMULA>
C35H58O12

> <PUBCHEM_MOLECULAR_WEIGHT>
670.82782

> <PUBCHEM_OPENEYE_CAN_SMILES>
CCCCCC(C1C(CC(CC(CC(CC(CC(C(C(C(=CC=CC=CC=CC=CC(C(OC1=O)C)O)C)O)O)O)O)O)O)O)O)O

> <PUBCHEM_OPENEYE_ISO_SMILES>
CCCCC[C@H]([C@@H]1[C@H](C[C@H](C[C@H](C[C@H](C[C@H](C[C@H]([C@H]([C@@H](/C(=C/C=C/C=C/C=C/C=C/[C@@H]([C@H](OC1=O)C)O)/C)O)O)O)O)O)O)O)O)O

> <PUBCHEM_CACTVS_TPSA>
229

> <PUBCHEM_MONOISOTOPIC_WEIGHT>
670.392827

> <PUBCHEM_TOTAL_CHARGE>
0

> <PUBCHEM_HEAVY_ATOM_COUNT>
47

> <PUBCHEM_ATOM_DEF_STEREO_COUNT>
12

> <PUBCHEM_ATOM_UDEF_STEREO_COUNT>
0

> <PUBCHEM_BOND_DEF_STEREO_COUNT>
5

> <PUBCHEM_BOND_UDEF_STEREO_COUNT>
0

> <PUBCHEM_ISOTOPIC_ATOM_COUNT>
0

> <PUBCHEM_COMPONENT_COUNT>
1

> <PUBCHEM_CACTVS_TAUTO_COUNT>
2

> <PUBCHEM_COORDINATE_TYPE>
1
5
255

> <PUBCHEM_BONDANNOTATIONS>
14  1  6
29  10  6
31  11  5
35  12  5
13  48  5
16  2  5
18  3  5
33  37  6
19  4  5
21  5  6
24  7  6
28  8  6

$$$$

