4068
  -OEChem-06251223512D

 38 40  0     0  0  0  0  0  0999 V2000
    7.2785   -2.4524    0.0000 Hg  0  0  0  0  0  0  0  0  0  0  0  0
    9.0602    0.6064    0.0000 Br  0  0  0  0  0  0  0  0  0  0  0  0
    2.0000    0.6064    0.0000 Br  0  0  0  0  0  0  0  0  0  0  0  0
    5.5301   -1.4178    0.0000 O   0  0  0  0  0  0  0  0  0  0  0  0
    9.0602   -1.4419    0.0000 O   0  5  0  0  0  0  0  0  0  0  0  0
    2.0000   -1.4419    0.0000 O   0  0  0  0  0  0  0  0  0  0  0  0
    8.1387   -2.9623    0.0000 O   0  0  0  0  0  0  0  0  0  0  0  0
    3.7982    3.5823    0.0000 O   0  5  0  0  0  0  0  0  0  0  0  0
    2.9320    2.0822    0.0000 O   0  0  0  0  0  0  0  0  0  0  0  0
    5.5301    0.5822    0.0000 C   0  0  0  0  0  0  0  0  0  0  0  0
    6.3961    0.0822    0.0000 C   0  0  0  0  0  0  0  0  0  0  0  0
    4.6641    0.0822    0.0000 C   0  0  0  0  0  0  0  0  0  0  0  0
    6.3961   -0.9178    0.0000 C   0  0  0  0  0  0  0  0  0  0  0  0
    5.5301    1.5822    0.0000 C   0  0  0  0  0  0  0  0  0  0  0  0
    4.6641   -0.9178    0.0000 C   0  0  0  0  0  0  0  0  0  0  0  0
    7.2901    0.6169    0.0000 C   0  0  0  0  0  0  0  0  0  0  0  0
    3.7702    0.6169    0.0000 C   0  0  0  0  0  0  0  0  0  0  0  0
    7.2901   -1.4524    0.0000 C   0  0  0  0  0  0  0  0  0  0  0  0
    4.6641    2.0822    0.0000 C   0  0  0  0  0  0  0  0  0  0  0  0
    3.7702   -1.4524    0.0000 C   0  0  0  0  0  0  0  0  0  0  0  0
    6.3961    2.0822    0.0000 C   0  0  0  0  0  0  0  0  0  0  0  0
    8.1962    0.1031    0.0000 C   0  0  0  0  0  0  0  0  0  0  0  0
    8.1962   -0.9386    0.0000 C   0  0  0  0  0  0  0  0  0  0  0  0
    2.8641    0.1031    0.0000 C   0  0  0  0  0  0  0  0  0  0  0  0
    2.8641   -0.9386    0.0000 C   0  0  0  0  0  0  0  0  0  0  0  0
    4.6641    3.0822    0.0000 C   0  0  0  0  0  0  0  0  0  0  0  0
    6.3961    3.0822    0.0000 C   0  0  0  0  0  0  0  0  0  0  0  0
    5.5301    3.5822    0.0000 C   0  0  0  0  0  0  0  0  0  0  0  0
    3.7981    2.5823    0.0000 C   0  0  0  0  0  0  0  0  0  0  0  0
    7.2829    1.2369    0.0000 H   0  0  0  0  0  0  0  0  0  0  0  0
    3.7773    1.2369    0.0000 H   0  0  0  0  0  0  0  0  0  0  0  0
    3.7773   -2.0724    0.0000 H   0  0  0  0  0  0  0  0  0  0  0  0
    6.9331    1.7722    0.0000 H   0  0  0  0  0  0  0  0  0  0  0  0
    4.1272    3.3922    0.0000 H   0  0  0  0  0  0  0  0  0  0  0  0
    6.9331    3.3922    0.0000 H   0  0  0  0  0  0  0  0  0  0  0  0
    5.5301    4.2022    0.0000 H   0  0  0  0  0  0  0  0  0  0  0  0
    8.1316   -3.5823    0.0000 H   0  0  0  0  0  0  0  0  0  0  0  0
    8.6792   -2.6586    0.0000 H   0  0  0  0  0  0  0  0  0  0  0  0
  1 18  1  0  0  0  0
  2 22  1  0  0  0  0
  3 24  1  0  0  0  0
  4 13  1  0  0  0  0
  4 15  1  0  0  0  0
  5 23  1  0  0  0  0
  6 25  2  0  0  0  0
  7 37  1  0  0  0  0
  7 38  1  0  0  0  0
  8 29  1  0  0  0  0
  9 29  2  0  0  0  0
 10 11  1  0  0  0  0
 10 12  2  0  0  0  0
 10 14  1  0  0  0  0
 11 13  1  0  0  0  0
 11 16  2  0  0  0  0
 12 15  1  0  0  0  0
 12 17  1  0  0  0  0
 13 18  2  0  0  0  0
 14 19  1  0  0  0  0
 14 21  2  0  0  0  0
 15 20  2  0  0  0  0
 16 22  1  0  0  0  0
 16 30  1  0  0  0  0
 17 24  2  0  0  0  0
 17 31  1  0  0  0  0
 18 23  1  0  0  0  0
 19 26  2  0  0  0  0
 19 29  1  0  0  0  0
 20 25  1  0  0  0  0
 20 32  1  0  0  0  0
 21 27  1  0  0  0  0
 21 33  1  0  0  0  0
 22 23  2  0  0  0  0
 24 25  1  0  0  0  0
 26 28  1  0  0  0  0
 26 34  1  0  0  0  0
 27 28  2  0  0  0  0
 27 35  1  0  0  0  0
 28 36  1  0  0  0  0
M  CHG  2   5  -1   8  -1
M  END
> <PUBCHEM_COMPOUND_CID>
4068

> <PUBCHEM_COMPOUND_CANONICALIZED>
1

> <PUBCHEM_CACTVS_COMPLEXITY>
801

> <PUBCHEM_CACTVS_HBOND_ACCEPTOR>
6

> <PUBCHEM_CACTVS_HBOND_DONOR>
1

> <PUBCHEM_CACTVS_ROTATABLE_BOND>
2

> <PUBCHEM_CACTVS_SUBSKEYS>
AAADccB4OAAAGAAAAAAAAQAAAAAAAAAAAAAwYIEAAAAAAACBQAAAGgBACAABrASAmAAwDoAABACIAqDSCAACCAAkIAQIiAEECOgsJzKENRqCOSClwBUIq5eI6PyOoBAAGAAYBABAIAAwADAIAAAAAAAAAA==

> <PUBCHEM_IUPAC_OPENEYE_NAME>
[2,7-dibromo-9-(2-carboxylatophenyl)-3-oxido-6-oxo-xanthen-4-yl]mercury hydrate

> <PUBCHEM_IUPAC_CAS_NAME>
[2,7-dibromo-9-(2-carboxylatophenyl)-3-oxido-6-oxo-4-xanthenyl]mercury hydrate

> <PUBCHEM_IUPAC_NAME>
[2,7-dibromo-9-(2-carboxylatophenyl)-3-oxido-6-oxoxanthen-4-yl]mercury hydrate

> <PUBCHEM_IUPAC_SYSTEMATIC_NAME>
[2,7-bis(bromanyl)-9-(2-carboxylatophenyl)-3-oxidanidyl-6-oxidanylidene-xanthen-4-yl]mercury hydrate

> <PUBCHEM_IUPAC_TRADITIONAL_NAME>
[2,7-dibromo-9-(2-carboxylatophenyl)-6-keto-3-oxido-xanthen-4-yl]mercury hydrate

> <PUBCHEM_IUPAC_INCHI>
InChI=1S/C20H9Br2O5.Hg.H2O/c21-13-5-11-17(7-15(13)23)27-18-8-16(24)14(22)6-12(18)19(11)9-3-1-2-4-10(9)20(25)26;;/h1-7,24H,(H,25,26);;1H2/p-2

> <PUBCHEM_IUPAC_INCHIKEY>
NDMVPGYBWSZHHS-UHFFFAOYSA-L

> <PUBCHEM_EXACT_MASS>
706.845184

> <PUBCHEM_MOLECULAR_FORMULA>
C20H9Br2HgO6-2

> <PUBCHEM_MOLECULAR_WEIGHT>
705.67986

> <PUBCHEM_OPENEYE_CAN_SMILES>
C1=CC=C(C(=C1)C2=C3C=C(C(=O)C=C3OC4=C(C(=C(C=C24)Br)[O-])[Hg])Br)C(=O)[O-].O

> <PUBCHEM_OPENEYE_ISO_SMILES>
C1=CC=C(C(=C1)C2=C3C=C(C(=O)C=C3OC4=C(C(=C(C=C24)Br)[O-])[Hg])Br)C(=O)[O-].O

> <PUBCHEM_CACTVS_TPSA>
90.5

> <PUBCHEM_MONOISOTOPIC_WEIGHT>
704.84723

> <PUBCHEM_TOTAL_CHARGE>
-2

> <PUBCHEM_HEAVY_ATOM_COUNT>
29

> <PUBCHEM_ATOM_DEF_STEREO_COUNT>
0

> <PUBCHEM_ATOM_UDEF_STEREO_COUNT>
0

> <PUBCHEM_BOND_DEF_STEREO_COUNT>
0

> <PUBCHEM_BOND_UDEF_STEREO_COUNT>
0

> <PUBCHEM_ISOTOPIC_ATOM_COUNT>
0

> <PUBCHEM_COMPONENT_COUNT>
2

> <PUBCHEM_CACTVS_TAUTO_COUNT>
1

> <PUBCHEM_NONSTANDARDBOND>
1  7  6

> <PUBCHEM_COORDINATE_TYPE>
1
5
255

> <PUBCHEM_BONDANNOTATIONS>
10  11  8
10  12  8
11  13  8
11  16  8
12  17  8
13  18  8
14  19  8
14  21  8
15  20  8
16  22  8
17  24  8
18  23  8
19  26  8
20  25  8
21  27  8
22  23  8
24  25  8
26  28  8
27  28  8
4  13  8
4  15  8

$$$$

