440156
  -OEChem-07051212493D

 18 17  0     1  0  0  0  0  0999 V2000
    1.7743    0.0586   -0.0342 P   0  0  0  0  0  0  0  0  0  0  0  0
    0.2363    0.4050   -0.3890 O   0  0  0  0  0  0  0  0  0  0  0  0
   -2.3125    1.3496    0.1639 O   0  0  0  0  0  0  0  0  0  0  0  0
    1.9578   -1.4607   -0.5571 O   0  0  0  0  0  0  0  0  0  0  0  0
    1.7403   -0.1034    1.5745 O   0  0  0  0  0  0  0  0  0  0  0  0
    2.7838    1.0414   -0.5511 O   0  0  0  0  0  0  0  0  0  0  0  0
   -2.1353    0.0428   -0.3808 C   0  0  1  0  0  0  0  0  0  0  0  0
   -0.7780   -0.4830    0.0686 C   0  0  0  0  0  0  0  0  0  0  0  0
   -3.2668   -0.8502    0.1051 C   0  0  0  0  0  0  0  0  0  0  0  0
   -2.1569    0.1385   -1.4719 H   0  0  0  0  0  0  0  0  0  0  0  0
   -0.7337   -0.5259    1.1619 H   0  0  0  0  0  0  0  0  0  0  0  0
   -0.6023   -1.4834   -0.3387 H   0  0  0  0  0  0  0  0  0  0  0  0
   -4.2349   -0.4496   -0.2143 H   0  0  0  0  0  0  0  0  0  0  0  0
   -3.1659   -1.8672   -0.2857 H   0  0  0  0  0  0  0  0  0  0  0  0
   -3.2910   -0.8939    1.1996 H   0  0  0  0  0  0  0  0  0  0  0  0
   -3.1745    1.6799   -0.1419 H   0  0  0  0  0  0  0  0  0  0  0  0
    2.8445   -1.8768   -0.5045 H   0  0  0  0  0  0  0  0  0  0  0  0
    2.5852   -0.2291    2.0567 H   0  0  0  0  0  0  0  0  0  0  0  0
  1  2  1  0  0  0  0
  1  4  1  0  0  0  0
  1  5  1  0  0  0  0
  1  6  2  0  0  0  0
  2  8  1  0  0  0  0
  3  7  1  0  0  0  0
  3 16  1  0  0  0  0
  4 17  1  0  0  0  0
  5 18  1  0  0  0  0
  7  8  1  0  0  0  0
  7  9  1  0  0  0  0
  7 10  1  0  0  0  0
  8 11  1  0  0  0  0
  8 12  1  0  0  0  0
  9 13  1  0  0  0  0
  9 14  1  0  0  0  0
  9 15  1  0  0  0  0
M  END
> <PUBCHEM_COMPOUND_CID>
440156

> <PUBCHEM_CONFORMER_RMSD>
0.6

> <PUBCHEM_CONFORMER_DIVERSEORDER>
1
9
5
6
7
10
3
8
2
4

> <PUBCHEM_MMFF94_PARTIAL_CHARGES>
11
1 1.51
16 0.4
17 0.5
18 0.5
2 -0.55
3 -0.68
4 -0.77
5 -0.77
6 -0.7
7 0.28
8 0.28

> <PUBCHEM_EFFECTIVE_ROTOR_COUNT>
3

> <PUBCHEM_PHARMACOPHORE_FEATURES>
6
1 3 acceptor
1 3 donor
1 4 acceptor
1 5 acceptor
1 6 acceptor
4 1 4 5 6 anion

> <PUBCHEM_HEAVY_ATOM_COUNT>
9

> <PUBCHEM_ATOM_DEF_STEREO_COUNT>
0

> <PUBCHEM_ATOM_UDEF_STEREO_COUNT>
1

> <PUBCHEM_BOND_DEF_STEREO_COUNT>
0

> <PUBCHEM_BOND_UDEF_STEREO_COUNT>
0

> <PUBCHEM_ISOTOPIC_ATOM_COUNT>
0

> <PUBCHEM_COMPONENT_COUNT>
1

> <PUBCHEM_CACTVS_TAUTO_COUNT>
1

> <PUBCHEM_CONFORMER_ID>
0006B75C00000001

> <PUBCHEM_MMFF94_ENERGY>
-21.8413

> <PUBCHEM_FEATURE_SELFOVERLAP>
30.482

> <PUBCHEM_SHAPE_FINGERPRINT>
10857977 72 18262244326557790979
12932741 1 16805328764370795693
12932764 1 17312827069506828095
14325111 11 18411134749267192799
14390081 3 18408323259095732508
15310529 11 18187362134097386735
170605 34 18059572430441548108
19973954 147 18336262435395385293
23552423 10 18341048630985898215
29004967 10 18259988171151486315
3248919 1 18411429431231434831
5084963 1 18260827133083710243
5460574 1 8142093056567675511

> <PUBCHEM_SHAPE_MULTIPOLES>
159.72
4.93
1.17
0.89
1.48
0
0.31
0.04
-0.12
0
-0.12
-0.49
0.06
-0.04

> <PUBCHEM_SHAPE_SELFOVERLAP>
279.794

> <PUBCHEM_SHAPE_VOLUME>
105.7

> <PUBCHEM_COORDINATE_TYPE>
2
5
10

$$$$

