443462
  -OEChem-07051213023D

 47 50  0     1  0  0  0  0  0999 V2000
   -3.8158    0.3755   -1.2796 O   0  0  0  0  0  0  0  0  0  0  0  0
    0.7720    3.7109   -0.0251 O   0  0  0  0  0  0  0  0  0  0  0  0
    0.9365    2.5043   -1.9598 O   0  0  0  0  0  0  0  0  0  0  0  0
   -2.4764   -1.0049    2.1276 O   0  0  0  0  0  0  0  0  0  0  0  0
   -3.4482   -2.5367   -0.8411 O   0  0  0  0  0  0  0  0  0  0  0  0
   -0.9434    0.6367    2.5540 O   0  0  0  0  0  0  0  0  0  0  0  0
    1.4928    0.2835   -0.0051 C   0  0  1  0  0  0  0  0  0  0  0  0
    1.0468   -0.6220   -1.1854 C   0  0  2  0  0  0  0  0  0  0  0  0
    0.3984    1.3665    0.0768 C   0  0  2  0  0  0  0  0  0  0  0  0
   -0.8902    0.7017   -0.4807 C   0  0  1  0  0  0  0  0  0  0  0  0
    1.5875   -0.5379    1.3000 C   0  0  0  0  0  0  0  0  0  0  0  0
    2.7917   -1.4254    1.0051 C   0  0  1  0  0  0  0  0  0  0  0  0
    2.9529    0.7572   -0.1487 C   0  0  0  0  0  0  0  0  0  0  0  0
   -0.4408   -0.6717   -0.9336 C   0  0  0  0  0  0  0  0  0  0  0  0
    1.8452   -1.9309   -1.3178 C   0  0  0  0  0  0  0  0  0  0  0  0
    2.3548   -2.5097    0.0084 C   0  0  0  0  0  0  0  0  0  0  0  0
   -2.1172    0.6583    0.4575 C   0  0  2  0  0  0  0  0  0  0  0  0
    3.7365   -0.4212    0.3833 C   0  0  0  0  0  0  0  0  0  0  0  0
   -3.2115   -0.2471   -0.1529 C   0  0  2  0  0  0  0  0  0  0  0  0
    0.7316    2.5719   -0.7574 C   0  0  0  0  0  0  0  0  0  0  0  0
   -1.2521   -1.7321   -1.0009 C   0  0  0  0  0  0  0  0  0  0  0  0
   -2.6585    2.0836    0.6789 C   0  0  0  0  0  0  0  0  0  0  0  0
   -2.6896   -1.5831   -0.6642 C   0  0  0  0  0  0  0  0  0  0  0  0
   -1.7704    0.1109    1.8244 C   0  0  0  0  0  0  0  0  0  0  0  0
    5.0675   -0.5384    0.3363 C   0  0  0  0  0  0  0  0  0  0  0  0
    1.1778   -0.0839   -2.1352 H   0  0  0  0  0  0  0  0  0  0  0  0
    0.3029    1.7342    1.0991 H   0  0  0  0  0  0  0  0  0  0  0  0
   -1.2023    1.2316   -1.3935 H   0  0  0  0  0  0  0  0  0  0  0  0
    0.6983   -1.1342    1.5234 H   0  0  0  0  0  0  0  0  0  0  0  0
    1.7823    0.1115    2.1641 H   0  0  0  0  0  0  0  0  0  0  0  0
    3.1907   -1.8712    1.9217 H   0  0  0  0  0  0  0  0  0  0  0  0
    3.1429    1.6354    0.4794 H   0  0  0  0  0  0  0  0  0  0  0  0
    3.2172    0.9869   -1.1858 H   0  0  0  0  0  0  0  0  0  0  0  0
    2.7260   -1.7161   -1.9393 H   0  0  0  0  0  0  0  0  0  0  0  0
    1.2894   -2.6940   -1.8733 H   0  0  0  0  0  0  0  0  0  0  0  0
    1.5604   -3.1159    0.4621 H   0  0  0  0  0  0  0  0  0  0  0  0
    3.1890   -3.1921   -0.1954 H   0  0  0  0  0  0  0  0  0  0  0  0
   -4.0230   -0.4324    0.5616 H   0  0  0  0  0  0  0  0  0  0  0  0
   -0.9116   -2.7145   -1.3022 H   0  0  0  0  0  0  0  0  0  0  0  0
   -1.9331    2.7203    1.1977 H   0  0  0  0  0  0  0  0  0  0  0  0
   -2.9061    2.5751   -0.2682 H   0  0  0  0  0  0  0  0  0  0  0  0
   -3.5653    2.0660    1.2952 H   0  0  0  0  0  0  0  0  0  0  0  0
    5.5668   -1.4081    0.7491 H   0  0  0  0  0  0  0  0  0  0  0  0
    5.6804    0.2330   -0.1170 H   0  0  0  0  0  0  0  0  0  0  0  0
   -4.5842   -0.1618   -1.5381 H   0  0  0  0  0  0  0  0  0  0  0  0
    0.9890    4.4931   -0.5758 H   0  0  0  0  0  0  0  0  0  0  0  0
   -2.2449   -1.3552    3.0140 H   0  0  0  0  0  0  0  0  0  0  0  0
  1 19  1  0  0  0  0
  1 45  1  0  0  0  0
  2 20  1  0  0  0  0
  2 46  1  0  0  0  0
  3 20  2  0  0  0  0
  4 24  1  0  0  0  0
  4 47  1  0  0  0  0
  5 23  2  0  0  0  0
  6 24  2  0  0  0  0
  7  8  1  0  0  0  0
  7  9  1  0  0  0  0
  7 11  1  0  0  0  0
  7 13  1  0  0  0  0
  8 14  1  0  0  0  0
  8 15  1  0  0  0  0
  8 26  1  0  0  0  0
  9 10  1  0  0  0  0
  9 20  1  0  0  0  0
  9 27  1  0  0  0  0
 10 14  1  0  0  0  0
 10 17  1  0  0  0  0
 10 28  1  0  0  0  0
 11 12  1  0  0  0  0
 11 29  1  0  0  0  0
 11 30  1  0  0  0  0
 12 16  1  0  0  0  0
 12 18  1  0  0  0  0
 12 31  1  0  0  0  0
 13 18  1  0  0  0  0
 13 32  1  0  0  0  0
 13 33  1  0  0  0  0
 14 21  2  0  0  0  0
 15 16  1  0  0  0  0
 15 34  1  0  0  0  0
 15 35  1  0  0  0  0
 16 36  1  0  0  0  0
 16 37  1  0  0  0  0
 17 19  1  0  0  0  0
 17 22  1  0  0  0  0
 17 24  1  0  0  0  0
 18 25  2  0  0  0  0
 19 23  1  0  0  0  0
 19 38  1  0  0  0  0
 21 23  1  0  0  0  0
 21 39  1  0  0  0  0
 22 40  1  0  0  0  0
 22 41  1  0  0  0  0
 22 42  1  0  0  0  0
 25 43  1  0  0  0  0
 25 44  1  0  0  0  0
M  END
> <PUBCHEM_COMPOUND_CID>
443462

> <PUBCHEM_CONFORMER_RMSD>
0.6

> <PUBCHEM_CONFORMER_DIVERSEORDER>
1
4
2
3

> <PUBCHEM_MMFF94_PARTIAL_CHARGES>
26
1 -0.68
10 0.14
12 0.14
13 0.14
14 -0.28
17 0.06
18 -0.28
19 0.34
2 -0.65
20 0.66
21 -0.14
23 0.49
24 0.66
25 -0.3
3 -0.57
39 0.15
4 -0.65
43 0.15
44 0.15
45 0.4
46 0.5
47 0.5
5 -0.57
6 -0.57
8 0.14
9 0.06

> <PUBCHEM_EFFECTIVE_ROTOR_COUNT>
3.4

> <PUBCHEM_PHARMACOPHORE_FEATURES>
12
1 1 acceptor
1 1 donor
1 2 acceptor
1 3 acceptor
1 4 acceptor
1 5 acceptor
1 6 acceptor
3 2 3 20 anion
3 4 6 24 anion
5 7 8 9 10 14 rings
6 10 14 17 19 21 23 rings
8 7 8 11 12 13 15 16 18 rings

> <PUBCHEM_HEAVY_ATOM_COUNT>
25

> <PUBCHEM_ATOM_DEF_STEREO_COUNT>
7

> <PUBCHEM_ATOM_UDEF_STEREO_COUNT>
0

> <PUBCHEM_BOND_DEF_STEREO_COUNT>
0

> <PUBCHEM_BOND_UDEF_STEREO_COUNT>
0

> <PUBCHEM_ISOTOPIC_ATOM_COUNT>
0

> <PUBCHEM_COMPONENT_COUNT>
1

> <PUBCHEM_CACTVS_TAUTO_COUNT>
13

> <PUBCHEM_CONFORMER_ID>
0006C44600000001

> <PUBCHEM_MMFF94_ENERGY>
82.7797

> <PUBCHEM_FEATURE_SELFOVERLAP>
61.157

> <PUBCHEM_SHAPE_FINGERPRINT>
10863032 1 18188217622678799746
11578080 2 17971221199098349793
12011746 2 18041008374617433654
12403814 3 18266467675316328064
12553582 1 18339068367594328004
12633257 1 17317602428900699826
12788726 201 17914348015490569112
13004483 165 18126019388056563603
13009979 54 18041550348188191666
13140716 1 18117840988904623675
13224815 77 18187645829693839870
133893 2 17915168027568063020
13583140 156 17917709115657843913
13681431 1 18201987816406379972
13965767 371 17754995820819677944
14178342 30 18114731707439387511
14181834 199 18268989791360073108
14223421 5 17894352185078934626
14787075 74 18059858321061207896
14955137 171 18120341360198569272
15238133 3 17701803582945924037
16945 1 18041013829204813271
17349148 13 18041290906662579391
17980427 23 17749112179560168785
18981168 100 7709184478025941955
20691752 17 18194670682324117094
20905425 154 17251182713661804446
23184049 59 18193546994457118681
23402539 116 18131074865950157570
23419403 2 17103463562956816357
23559900 14 18188790352409962625
238 59 17771341972284420767
2748010 2 16605459884223715671
34934 24 18271529817928559696
392239 28 17169848690745229578
394222 165 17692826890685403457
5845 1 18267294503459798892
6992083 37 18334849562789863944
7364860 26 18194408788066281692
81228 2 17841706619385518356

> <PUBCHEM_SHAPE_MULTIPOLES>
479.27
6.23
2.89
1.69
2.45
1.4
0.65
-2.21
0.65
-0.28
-1
-0.67
0.07
-0.69

> <PUBCHEM_SHAPE_SELFOVERLAP>
1064.065

> <PUBCHEM_SHAPE_VOLUME>
254.6

> <PUBCHEM_COORDINATE_TYPE>
2
5
10

$$$$

