17395384
  -OEChem-06241222503D

 41 43  0     0  0  0  0  0  0999 V2000
    1.1223   -0.4251    0.4248 O   0  0  0  0  0  0  0  0  0  0  0  0
    4.0555    1.5146   -1.8221 O   0  0  0  0  0  0  0  0  0  0  0  0
   -3.1959   -2.5252   -1.6519 O   0  0  0  0  0  0  0  0  0  0  0  0
    2.8497   -1.0166    1.8112 O   0  0  0  0  0  0  0  0  0  0  0  0
   -1.8788    0.1493    1.0280 N   0  0  0  0  0  0  0  0  0  0  0  0
   -1.5276   -1.8398   -0.2374 N   0  0  0  0  0  0  0  0  0  0  0  0
    5.1811    1.2211   -1.0620 N   0  0  0  0  0  0  0  0  0  0  0  0
   -3.1481    0.3542    0.4836 C   0  0  0  0  0  0  0  0  0  0  0  0
   -3.6377   -0.5639   -0.4555 C   0  0  0  0  0  0  0  0  0  0  0  0
   -3.9396    1.4455    0.8511 C   0  0  0  0  0  0  0  0  0  0  0  0
   -1.1481   -0.9447    0.6278 C   0  0  0  0  0  0  0  0  0  0  0  0
    3.3369    0.2917   -0.1019 C   0  0  0  0  0  0  0  0  0  0  0  0
    4.7270    0.4901   -0.0400 C   0  0  0  0  0  0  0  0  0  0  0  0
    0.2150   -1.1109    1.2525 C   0  0  0  0  0  0  0  0  0  0  0  0
    5.6697   -0.0015    0.9792 C   0  0  0  0  0  0  0  0  0  0  0  0
   -4.9032   -0.3957   -1.0238 C   0  0  0  0  0  0  0  0  0  0  0  0
   -5.2040    1.6161    0.2850 C   0  0  0  0  0  0  0  0  0  0  0  0
   -2.7731   -1.7191   -0.8289 C   0  0  0  0  0  0  0  0  0  0  0  0
    2.9636    0.9558   -1.2404 C   0  0  0  0  0  0  0  0  0  0  0  0
   -5.6839    0.6980   -0.6498 C   0  0  0  0  0  0  0  0  0  0  0  0
   -3.4650    2.4526    1.8483 C   0  0  0  0  0  0  0  0  0  0  0  0
    2.4489   -0.4410    0.8048 C   0  0  0  0  0  0  0  0  0  0  0  0
    6.2548   -1.3780    0.6400 C   0  0  0  0  0  0  0  0  0  0  0  0
    1.6806    1.1726   -1.9227 C   0  0  0  0  0  0  0  0  0  0  0  0
   -1.5157    0.8097    1.7037 H   0  0  0  0  0  0  0  0  0  0  0  0
    0.4677   -2.1760    1.2983 H   0  0  0  0  0  0  0  0  0  0  0  0
    0.2159   -0.6863    2.2623 H   0  0  0  0  0  0  0  0  0  0  0  0
    6.4998    0.7084    1.0885 H   0  0  0  0  0  0  0  0  0  0  0  0
    5.1906   -0.0459    1.9633 H   0  0  0  0  0  0  0  0  0  0  0  0
   -5.2950   -1.0990   -1.7528 H   0  0  0  0  0  0  0  0  0  0  0  0
   -5.8305    2.4604    0.5611 H   0  0  0  0  0  0  0  0  0  0  0  0
   -6.6686    0.8353   -1.0873 H   0  0  0  0  0  0  0  0  0  0  0  0
   -3.2703    1.9730    2.8134 H   0  0  0  0  0  0  0  0  0  0  0  0
   -2.5509    2.9404    1.4938 H   0  0  0  0  0  0  0  0  0  0  0  0
   -4.2074    3.2396    2.0207 H   0  0  0  0  0  0  0  0  0  0  0  0
    5.4647   -2.1322    0.5618 H   0  0  0  0  0  0  0  0  0  0  0  0
    6.9542   -1.6937    1.4204 H   0  0  0  0  0  0  0  0  0  0  0  0
    6.7932   -1.3523   -0.3133 H   0  0  0  0  0  0  0  0  0  0  0  0
    0.9777    1.7013   -1.2713 H   0  0  0  0  0  0  0  0  0  0  0  0
    1.8083    1.7747   -2.8283 H   0  0  0  0  0  0  0  0  0  0  0  0
    1.2322    0.2197   -2.2205 H   0  0  0  0  0  0  0  0  0  0  0  0
  1 14  1  0  0  0  0
  1 22  1  0  0  0  0
  2  7  1  0  0  0  0
  2 19  1  0  0  0  0
  3 18  2  0  0  0  0
  4 22  2  0  0  0  0
  5  8  1  0  0  0  0
  5 11  1  0  0  0  0
  5 25  1  0  0  0  0
  6 11  2  0  0  0  0
  6 18  1  0  0  0  0
  7 13  2  0  0  0  0
  8  9  1  0  0  0  0
  8 10  2  0  0  0  0
  9 16  2  0  0  0  0
  9 18  1  0  0  0  0
 10 17  1  0  0  0  0
 10 21  1  0  0  0  0
 11 14  1  0  0  0  0
 12 13  1  0  0  0  0
 12 19  2  0  0  0  0
 12 22  1  0  0  0  0
 13 15  1  0  0  0  0
 14 26  1  0  0  0  0
 14 27  1  0  0  0  0
 15 23  1  0  0  0  0
 15 28  1  0  0  0  0
 15 29  1  0  0  0  0
 16 20  1  0  0  0  0
 16 30  1  0  0  0  0
 17 20  2  0  0  0  0
 17 31  1  0  0  0  0
 19 24  1  0  0  0  0
 20 32  1  0  0  0  0
 21 33  1  0  0  0  0
 21 34  1  0  0  0  0
 21 35  1  0  0  0  0
 23 36  1  0  0  0  0
 23 37  1  0  0  0  0
 23 38  1  0  0  0  0
 24 39  1  0  0  0  0
 24 40  1  0  0  0  0
 24 41  1  0  0  0  0
M  END
> <PUBCHEM_COMPOUND_CID>
17395384

> <PUBCHEM_CONFORMER_RMSD>
0.8

> <PUBCHEM_CONFORMER_DIVERSEORDER>
3
152
124
199
34
129
176
213
28
206
171
102
140
150
212
170
117
178
48
141
143
31
224
151
46
94
215
114
123
144
231
162
173
86
164
16
112
56
196
192
186
225
9
89
183
156
137
219
136
128
125
233
139
182
161
106
229
146
153
55
88
77
157
188
134
61
133
118
65
202
39
105
91
62
204
20
101
175
168
230
107
177
95
52
37
99
167
111
194
35
195
138
57
174
189
103
83
218
234
163
184
130
227
64
51
160
193
185
209
187
6
108
197
232
127
79
38
44
63
4
201
98
221
119
115
68
78
180
50
121
66
14
208
166
235
87
73
228
200
135
179
32
22
13
104
53
205
191
220
26
217
70
23
27
120
40
154
172
155
210
69
82
122
71
110
165
203
72
214
84
158
24
207
36
149
54
67
190
100
18
59
222
19
12
198
30
92
58
96
148
116
126
7
113
45
41
25
74
93
17
159
226
10
216
15
109
33
49
81
11
21
145
142
2
80
75
29
8
97
223
132
43
147
211
85
5
1
131
42
181
90
60
47
76
169

> <PUBCHEM_MMFF94_PARTIAL_CHARGES>
27
1 -0.43
10 -0.14
11 0.44
12 -0.09
13 0.11
14 0.34
15 0.18
16 -0.15
17 -0.15
18 0.69
19 -0.04
2 -0.02
20 -0.15
21 0.14
22 0.81
24 0.18
25 0.4
3 -0.57
30 0.15
31 0.15
32 0.15
4 -0.57
5 -0.55
6 -0.66
7 -0.41
8 0.1
9 0.09

> <PUBCHEM_EFFECTIVE_ROTOR_COUNT>
5

> <PUBCHEM_PHARMACOPHORE_FEATURES>
9
1 23 hydrophobe
1 3 acceptor
1 4 acceptor
1 5 donor
1 6 donor
1 7 acceptor
5 2 7 12 13 19 rings
6 5 6 8 9 11 18 rings
6 8 9 10 16 17 20 rings

> <PUBCHEM_HEAVY_ATOM_COUNT>
24

> <PUBCHEM_ATOM_DEF_STEREO_COUNT>
0

> <PUBCHEM_ATOM_UDEF_STEREO_COUNT>
0

> <PUBCHEM_BOND_DEF_STEREO_COUNT>
0

> <PUBCHEM_BOND_UDEF_STEREO_COUNT>
0

> <PUBCHEM_ISOTOPIC_ATOM_COUNT>
0

> <PUBCHEM_COMPONENT_COUNT>
1

> <PUBCHEM_CACTVS_TAUTO_COUNT>
3

> <PUBCHEM_CONFORMER_ID>
01096EB800000003

> <PUBCHEM_MMFF94_ENERGY>
51.0675

> <PUBCHEM_FEATURE_SELFOVERLAP>
45.729

> <PUBCHEM_SHAPE_FINGERPRINT>
10670039 82 18261667172710204425
10906281 52 17202472296833488940
11089746 13 18411140225598733440
11370993 144 15841556318463556809
11796584 16 17894349982478552598
12236239 1 18342741805740929739
12616971 3 18131915949015775726
13583140 156 14045473197538858193
13994607 96 18342164558679962235
14341114 176 12895351097013227326
14386348 63 16008745784139235319
15064981 113 18041560355393557084
15081414 286 16916781839385517572
15183329 4 18412541042188473654
15575132 122 18339641265468233357
16988056 13 15525440476343798113
17870717 6 17167856448805583285
19489759 90 17748827423059054297
20511986 3 18341062851670178924
21033648 144 17632020719747026294
21033650 10 17896576531767638816
22122407 14 17560516317782374125
235170 7 16443057326734232293
23557571 272 17095244722039468129
23559900 14 17386584478351110235
23569943 247 17700427046434660834
23596394 208 15864065503116326332
3004659 81 18187927343779229050
3459 110 16342841154373222809
34797466 226 17240758424734721576
4098825 35 13984660382797699267
4409770 3 15387536438121862787
46194498 28 16371017264742212321
474 4 17988925578320111123
497634 4 17703229495214652103
5104073 3 17130989763907891424
5283173 99 17240480355334664064
6299153 45 18267025149076048042
633830 44 18059853969742937818
9981440 41 18260260867832982511

> <PUBCHEM_SHAPE_MULTIPOLES>
455.49
14.87
2.05
1.7
8.1
0.16
0.25
-2.99
0.66
-1.94
0.12
0.66
-0.37
-3

> <PUBCHEM_SHAPE_SELFOVERLAP>
984.805

> <PUBCHEM_SHAPE_VOLUME>
250.3

> <PUBCHEM_COORDINATE_TYPE>
2
5
10

$$$$

