5327118
  -OEChem-07051213153D

 31 33  0     1  0  0  0  0  0999 V2000
    3.8610   -2.8628   -0.4752 Cl  0  0  0  0  0  0  0  0  0  0  0  0
    2.0084   -0.4976   -0.9242 O   0  0  0  0  0  0  0  0  0  0  0  0
    1.1734    2.3181    1.1482 O   0  0  0  0  0  0  0  0  0  0  0  0
    3.3752    2.1846   -0.4390 O   0  0  0  0  0  0  0  0  0  0  0  0
   -0.2118   -0.2476   -0.1252 N   0  0  0  0  0  0  0  0  0  0  0  0
   -1.6209   -1.8866    0.4283 N   0  0  0  0  0  0  0  0  0  0  0  0
   -1.8031    1.5308   -0.5801 N   0  0  0  0  0  0  0  0  0  0  0  0
   -4.0995    0.7746   -0.2470 N   0  0  0  0  0  0  0  0  0  0  0  0
   -4.6306   -1.4544    0.4436 N   0  0  0  0  0  0  0  0  0  0  0  0
    1.6987    1.0408    0.8495 C   0  0  1  0  0  0  0  0  0  0  0  0
    1.0522    0.4367   -0.3877 C   0  0  1  0  0  0  0  0  0  0  0  0
    3.1575    1.0801    0.4388 C   0  0  1  0  0  0  0  0  0  0  0  0
    3.3071   -0.2148   -0.3536 C   0  0  1  0  0  0  0  0  0  0  0  0
    3.7183   -1.3968    0.5131 C   0  0  0  0  0  0  0  0  0  0  0  0
   -1.4683    0.2816   -0.2237 C   0  0  0  0  0  0  0  0  0  0  0  0
   -0.3573   -1.5526    0.2692 C   0  0  0  0  0  0  0  0  0  0  0  0
   -2.3263   -0.7496    0.1237 C   0  0  0  0  0  0  0  0  0  0  0  0
   -3.6886   -0.4679    0.1040 C   0  0  0  0  0  0  0  0  0  0  0  0
   -3.1452    1.6833   -0.5626 C   0  0  0  0  0  0  0  0  0  0  0  0
    1.5663    0.3936    1.7242 H   0  0  0  0  0  0  0  0  0  0  0  0
    0.8508    1.1882   -1.1611 H   0  0  0  0  0  0  0  0  0  0  0  0
    3.8441    1.1830    1.2839 H   0  0  0  0  0  0  0  0  0  0  0  0
    4.0107   -0.0934   -1.1857 H   0  0  0  0  0  0  0  0  0  0  0  0
    2.9741   -1.6110    1.2855 H   0  0  0  0  0  0  0  0  0  0  0  0
    4.6852   -1.2185    0.9922 H   0  0  0  0  0  0  0  0  0  0  0  0
    1.3425    2.8985    0.3867 H   0  0  0  0  0  0  0  0  0  0  0  0
    4.3073    2.1566   -0.7148 H   0  0  0  0  0  0  0  0  0  0  0  0
    0.4853   -2.2110    0.4304 H   0  0  0  0  0  0  0  0  0  0  0  0
   -3.5097    2.6670   -0.8384 H   0  0  0  0  0  0  0  0  0  0  0  0
   -4.3266   -2.3819    0.7069 H   0  0  0  0  0  0  0  0  0  0  0  0
   -5.6149   -1.2249    0.4228 H   0  0  0  0  0  0  0  0  0  0  0  0
  1 14  1  0  0  0  0
  2 11  1  0  0  0  0
  2 13  1  0  0  0  0
  3 10  1  0  0  0  0
  3 26  1  0  0  0  0
  4 12  1  0  0  0  0
  4 27  1  0  0  0  0
  5 11  1  0  0  0  0
  5 15  1  0  0  0  0
  5 16  1  0  0  0  0
  6 16  2  0  0  0  0
  6 17  1  0  0  0  0
  7 15  2  0  0  0  0
  7 19  1  0  0  0  0
  8 18  1  0  0  0  0
  8 19  2  0  0  0  0
  9 18  1  0  0  0  0
  9 30  1  0  0  0  0
  9 31  1  0  0  0  0
 10 11  1  0  0  0  0
 10 12  1  0  0  0  0
 10 20  1  0  0  0  0
 11 21  1  0  0  0  0
 12 13  1  0  0  0  0
 12 22  1  0  0  0  0
 13 14  1  0  0  0  0
 13 23  1  0  0  0  0
 14 24  1  0  0  0  0
 14 25  1  0  0  0  0
 15 17  1  0  0  0  0
 16 28  1  0  0  0  0
 17 18  2  0  0  0  0
 19 29  1  0  0  0  0
M  END
> <PUBCHEM_COMPOUND_CID>
5327118

> <PUBCHEM_CONFORMER_RMSD>
0.6

> <PUBCHEM_CONFORMER_DIVERSEORDER>
3
9
16
1
20
10
12
5
11
13
18
7
4
19
6
14
2
17
15
8

> <PUBCHEM_MMFF94_PARTIAL_CHARGES>
25
1 -0.29
10 0.28
11 0.54
12 0.28
13 0.28
14 0.29
15 0.11
16 0.04
17 0.23
18 0.41
19 0.47
2 -0.56
26 0.4
27 0.4
28 0.15
29 0.15
3 -0.68
30 0.4
31 0.4
4 -0.68
5 0.05
6 -0.57
7 -0.57
8 -0.62
9 -0.9

> <PUBCHEM_EFFECTIVE_ROTOR_COUNT>
3

> <PUBCHEM_PHARMACOPHORE_FEATURES>
13
1 2 acceptor
1 3 acceptor
1 3 donor
1 4 acceptor
1 4 donor
1 9 cation
1 9 donor
3 5 6 16 cation
3 5 7 15 cation
3 7 8 19 cation
5 2 10 11 12 13 rings
5 5 6 15 16 17 rings
6 7 8 15 17 18 19 rings

> <PUBCHEM_HEAVY_ATOM_COUNT>
19

> <PUBCHEM_ATOM_DEF_STEREO_COUNT>
4

> <PUBCHEM_ATOM_UDEF_STEREO_COUNT>
0

> <PUBCHEM_BOND_DEF_STEREO_COUNT>
0

> <PUBCHEM_BOND_UDEF_STEREO_COUNT>
0

> <PUBCHEM_ISOTOPIC_ATOM_COUNT>
0

> <PUBCHEM_COMPONENT_COUNT>
1

> <PUBCHEM_CACTVS_TAUTO_COUNT>
3

> <PUBCHEM_CONFORMER_ID>
0051490E00000003

> <PUBCHEM_MMFF94_ENERGY>
43.767

> <PUBCHEM_FEATURE_SELFOVERLAP>
66.585

> <PUBCHEM_SHAPE_FINGERPRINT>
10608611 8 18410578353159928741
1100329 8 16464177059649615458
11405975 8 18336543919178100657
11578080 2 14130174239441953898
12403259 226 18410579495926931261
12403259 415 18272373104935101085
12507560 14 18041281062270774774
13134695 92 17677629694796862320
13581323 91 18271811185467609061
13675066 3 18261966231498984586
14866123 147 16965194774659238066
15196674 1 18412826884919953805
15219456 202 18408043991732036605
15442244 35 18337953510264823992
15536298 74 18411985779709664226
16945 1 18194691362454094287
17492 89 18411419496798973743
17804303 29 18341890843875997542
18186145 218 18335133232584676581
19049666 15 18409732863225314792
19591789 44 18412545435639772147
200 152 17676497159207329671
20510252 161 18411417289649377329
20645477 70 18409729564896568998
21501502 16 18336552607722854102
221490 88 18412257346281244970
23402539 116 18339088077806222767
23419403 2 17319052646626239440
23559900 14 18410296938860977196
3004659 81 17914607496662943582
3286 77 18408606971892524095
335352 9 18195246843728517573
350125 39 18269832180876386021
474 4 16126957475182853452
5104073 3 18411981368952065489
633830 44 18272660060194947383
69090 78 18261396603024593759
7364860 26 18410011018751507110
77779 3 18413388739292776253
9709674 26 18413385419336323658

> <PUBCHEM_SHAPE_MULTIPOLES>
350.37
8.32
2.53
0.84
2.2
0.24
0.05
2.24
-0.3
-1.73
0.11
-0.26
-0.14
0.89

> <PUBCHEM_SHAPE_SELFOVERLAP>
752.045

> <PUBCHEM_SHAPE_VOLUME>
196.2

> <PUBCHEM_COORDINATE_TYPE>
2
5
10

$$$$

