441201
  -OEChem-07051212523D

 22 21  0     1  0  0  0  0  0999 V2000
   -0.4325    0.2262    1.2478 O   0  0  0  0  0  0  0  0  0  0  0  0
    0.5553   -2.0510   -0.0697 O   0  0  0  0  0  0  0  0  0  0  0  0
    2.7499   -0.9323    0.7082 O   0  0  0  0  0  0  0  0  0  0  0  0
    3.8394    1.4060    0.0124 O   0  0  0  0  0  0  0  0  0  0  0  0
   -4.0503   -0.4006    0.0942 O   0  0  0  0  0  0  0  0  0  0  0  0
   -2.9329    1.5754    0.1322 O   0  0  0  0  0  0  0  0  0  0  0  0
   -0.4301    0.1387   -0.1826 C   0  0  1  0  0  0  0  0  0  0  0  0
    0.7511   -0.7444   -0.5960 C   0  0  1  0  0  0  0  0  0  0  0  0
   -1.7819   -0.4435   -0.6085 C   0  0  0  0  0  0  0  0  0  0  0  0
    2.0923   -0.2473   -0.0770 C   0  0  0  0  0  0  0  0  0  0  0  0
    2.5880    1.0999   -0.5690 C   0  0  0  0  0  0  0  0  0  0  0  0
   -2.9485    0.3732   -0.0919 C   0  0  0  0  0  0  0  0  0  0  0  0
   -0.3220    1.1553   -0.5761 H   0  0  0  0  0  0  0  0  0  0  0  0
    0.8143   -0.8313   -1.6854 H   0  0  0  0  0  0  0  0  0  0  0  0
   -1.8943   -1.4530   -0.1947 H   0  0  0  0  0  0  0  0  0  0  0  0
   -1.8556   -0.5015   -1.6992 H   0  0  0  0  0  0  0  0  0  0  0  0
    2.6907    1.0807   -1.6573 H   0  0  0  0  0  0  0  0  0  0  0  0
    1.8816    1.8794   -0.2763 H   0  0  0  0  0  0  0  0  0  0  0  0
    0.3413    0.7505    1.5147 H   0  0  0  0  0  0  0  0  0  0  0  0
    0.4258   -1.9699    0.8910 H   0  0  0  0  0  0  0  0  0  0  0  0
    4.4827    0.7569   -0.3202 H   0  0  0  0  0  0  0  0  0  0  0  0
   -4.8115    0.1216    0.4260 H   0  0  0  0  0  0  0  0  0  0  0  0
  1  7  1  0  0  0  0
  1 19  1  0  0  0  0
  2  8  1  0  0  0  0
  2 20  1  0  0  0  0
  3 10  2  0  0  0  0
  4 11  1  0  0  0  0
  4 21  1  0  0  0  0
  5 12  1  0  0  0  0
  5 22  1  0  0  0  0
  6 12  2  0  0  0  0
  7  8  1  0  0  0  0
  7  9  1  0  0  0  0
  7 13  1  0  0  0  0
  8 10  1  0  0  0  0
  8 14  1  0  0  0  0
  9 12  1  0  0  0  0
  9 15  1  0  0  0  0
  9 16  1  0  0  0  0
 10 11  1  0  0  0  0
 11 17  1  0  0  0  0
 11 18  1  0  0  0  0
M  END
> <PUBCHEM_COMPOUND_CID>
441201

> <PUBCHEM_CONFORMER_RMSD>
0.6

> <PUBCHEM_CONFORMER_DIVERSEORDER>
1
68
59
63
104
10
91
53
74
32
19
57
26
95
107
9
27
103
78
56
15
8
106
98
109
21
49
48
13
97
35
96
2
88
81
39
34
92
44
58
33
71
79
25
82
108
38
99
86
14
43
64
67
37
94
16
40
93
69
80
66
75
3
90
110
7
5
52
31
100
41
22
29
51
28
23
102
45
60
101
17
24
54
84
18
42
72
30
11
4
70
76
89
65
20
6
46
105
87
62
83
61
85
111
73
12
55
77
36
112
50
47

> <PUBCHEM_MMFF94_PARTIAL_CHARGES>
16
1 -0.68
10 0.45
11 0.34
12 0.66
19 0.4
2 -0.68
20 0.4
21 0.4
22 0.5
3 -0.57
4 -0.68
5 -0.65
6 -0.57
7 0.28
8 0.34
9 0.06

> <PUBCHEM_EFFECTIVE_ROTOR_COUNT>
5

> <PUBCHEM_PHARMACOPHORE_FEATURES>
10
1 1 acceptor
1 1 donor
1 2 acceptor
1 2 donor
1 3 acceptor
1 4 acceptor
1 4 donor
1 5 acceptor
1 6 acceptor
3 5 6 12 anion

> <PUBCHEM_HEAVY_ATOM_COUNT>
12

> <PUBCHEM_ATOM_DEF_STEREO_COUNT>
2

> <PUBCHEM_ATOM_UDEF_STEREO_COUNT>
0

> <PUBCHEM_BOND_DEF_STEREO_COUNT>
0

> <PUBCHEM_BOND_UDEF_STEREO_COUNT>
0

> <PUBCHEM_ISOTOPIC_ATOM_COUNT>
0

> <PUBCHEM_COMPONENT_COUNT>
1

> <PUBCHEM_CACTVS_TAUTO_COUNT>
15

> <PUBCHEM_CONFORMER_ID>
0006BB7100000001

> <PUBCHEM_MMFF94_ENERGY>
8.6762

> <PUBCHEM_FEATURE_SELFOVERLAP>
50.831

> <PUBCHEM_SHAPE_FINGERPRINT>
10219947 1 18131070445700725391
12162725 195 18341332274931545357
12932764 1 17095816485423808511
14325111 11 18411418418724278341
14390081 3 18408884048870384685
15310529 11 18335422404580462775
15775835 57 18335983086559277108
170605 34 18409164415734938038
18186145 218 18271804669912543941
21293036 1 17313381193059966804
23402539 116 17988650645011056727
23552423 10 18117272777685051087
3248919 1 18336553827709791991

> <PUBCHEM_SHAPE_MULTIPOLES>
211.74
6.19
1.45
0.81
1.49
0.13
0.08
-2.14
0.18
-0.54
-0.02
-0.09
0.02
-0.31

> <PUBCHEM_SHAPE_SELFOVERLAP>
408.23

> <PUBCHEM_SHAPE_VOLUME>
127.5

> <PUBCHEM_COORDINATE_TYPE>
2
5
10

$$$$

