17396223
  -OEChem-06241222552D

 48 50  0     0  0  0  0  0  0999 V2000
    8.9282   -3.7500    0.0000 Cl  0  0  0  0  0  0  0  0  0  0  0  0
    8.9282   -0.7500    0.0000 O   0  0  0  0  0  0  0  0  0  0  0  0
    8.0622    3.7500    0.0000 O   0  0  0  0  0  0  0  0  0  0  0  0
    3.7320   -0.7500    0.0000 N   0  0  0  0  0  0  0  0  0  0  0  0
    5.4641   -1.7500    0.0000 N   0  0  0  0  0  0  0  0  0  0  0  0
    7.1962   -0.7500    0.0000 N   0  0  0  0  0  0  0  0  0  0  0  0
    7.1962    1.2500    0.0000 N   0  0  0  0  0  0  0  0  0  0  0  0
    7.1962    2.2500    0.0000 N   0  0  0  0  0  0  0  0  0  0  0  0
    3.7320   -1.7500    0.0000 C   0  0  0  0  0  0  0  0  0  0  0  0
    4.5981   -0.2500    0.0000 C   0  0  0  0  0  0  0  0  0  0  0  0
    4.5981   -2.2500    0.0000 C   0  0  0  0  0  0  0  0  0  0  0  0
    5.4641   -0.7500    0.0000 C   0  0  0  0  0  0  0  0  0  0  0  0
    2.8660   -0.2500    0.0000 C   0  0  0  0  0  0  0  0  0  0  0  0
    6.3301   -2.2500    0.0000 C   0  0  0  0  0  0  0  0  0  0  0  0
    7.1962   -1.7500    0.0000 C   0  0  0  0  0  0  0  0  0  0  0  0
    2.0000   -0.7500    0.0000 C   0  0  0  0  0  0  0  0  0  0  0  0
    6.3301   -3.2500    0.0000 C   0  0  0  0  0  0  0  0  0  0  0  0
    8.0622   -2.2500    0.0000 C   0  0  0  0  0  0  0  0  0  0  0  0
    7.1962   -3.7500    0.0000 C   0  0  0  0  0  0  0  0  0  0  0  0
    8.0622   -3.2500    0.0000 C   0  0  0  0  0  0  0  0  0  0  0  0
    8.0622   -0.2500    0.0000 C   0  0  0  0  0  0  0  0  0  0  0  0
    8.0622    0.7500    0.0000 C   0  0  0  0  0  0  0  0  0  0  0  0
    8.9282    1.2500    0.0000 C   0  0  0  0  0  0  0  0  0  0  0  0
    8.9282    2.2500    0.0000 C   0  0  0  0  0  0  0  0  0  0  0  0
    8.0622    2.7500    0.0000 C   0  0  0  0  0  0  0  0  0  0  0  0
    6.3301    2.7500    0.0000 C   0  0  0  0  0  0  0  0  0  0  0  0
    3.1215   -1.6423    0.0000 H   0  0  0  0  0  0  0  0  0  0  0  0
    3.5200   -2.3326    0.0000 H   0  0  0  0  0  0  0  0  0  0  0  0
    4.9966    0.2249    0.0000 H   0  0  0  0  0  0  0  0  0  0  0  0
    4.1996    0.2249    0.0000 H   0  0  0  0  0  0  0  0  0  0  0  0
    4.1996   -2.7250    0.0000 H   0  0  0  0  0  0  0  0  0  0  0  0
    4.9966   -2.7250    0.0000 H   0  0  0  0  0  0  0  0  0  0  0  0
    6.0747   -0.8577    0.0000 H   0  0  0  0  0  0  0  0  0  0  0  0
    5.6762   -0.1674    0.0000 H   0  0  0  0  0  0  0  0  0  0  0  0
    3.2646    0.2249    0.0000 H   0  0  0  0  0  0  0  0  0  0  0  0
    2.4675    0.2249    0.0000 H   0  0  0  0  0  0  0  0  0  0  0  0
    1.6900   -0.2131    0.0000 H   0  0  0  0  0  0  0  0  0  0  0  0
    1.4631   -1.0600    0.0000 H   0  0  0  0  0  0  0  0  0  0  0  0
    2.3100   -1.2869    0.0000 H   0  0  0  0  0  0  0  0  0  0  0  0
    5.7932   -3.5600    0.0000 H   0  0  0  0  0  0  0  0  0  0  0  0
    8.5991   -1.9400    0.0000 H   0  0  0  0  0  0  0  0  0  0  0  0
    7.1962   -4.3700    0.0000 H   0  0  0  0  0  0  0  0  0  0  0  0
    6.6592   -0.4400    0.0000 H   0  0  0  0  0  0  0  0  0  0  0  0
    9.4651    0.9400    0.0000 H   0  0  0  0  0  0  0  0  0  0  0  0
    9.4651    2.5600    0.0000 H   0  0  0  0  0  0  0  0  0  0  0  0
    6.6401    3.2869    0.0000 H   0  0  0  0  0  0  0  0  0  0  0  0
    5.7932    3.0600    0.0000 H   0  0  0  0  0  0  0  0  0  0  0  0
    6.0201    2.2131    0.0000 H   0  0  0  0  0  0  0  0  0  0  0  0
  1 20  1  0  0  0  0
  2 21  2  0  0  0  0
  3 25  2  0  0  0  0
  4  9  1  0  0  0  0
  4 10  1  0  0  0  0
  4 13  1  0  0  0  0
  5 11  1  0  0  0  0
  5 12  1  0  0  0  0
  5 14  1  0  0  0  0
  6 15  1  0  0  0  0
  6 21  1  0  0  0  0
  6 43  1  0  0  0  0
  7  8  1  0  0  0  0
  7 22  2  0  0  0  0
  8 25  1  0  0  0  0
  8 26  1  0  0  0  0
  9 11  1  0  0  0  0
  9 27  1  0  0  0  0
  9 28  1  0  0  0  0
 10 12  1  0  0  0  0
 10 29  1  0  0  0  0
 10 30  1  0  0  0  0
 11 31  1  0  0  0  0
 11 32  1  0  0  0  0
 12 33  1  0  0  0  0
 12 34  1  0  0  0  0
 13 16  1  0  0  0  0
 13 35  1  0  0  0  0
 13 36  1  0  0  0  0
 14 15  2  0  0  0  0
 14 17  1  0  0  0  0
 15 18  1  0  0  0  0
 16 37  1  0  0  0  0
 16 38  1  0  0  0  0
 16 39  1  0  0  0  0
 17 19  2  0  0  0  0
 17 40  1  0  0  0  0
 18 20  2  0  0  0  0
 18 41  1  0  0  0  0
 19 20  1  0  0  0  0
 19 42  1  0  0  0  0
 21 22  1  0  0  0  0
 22 23  1  0  0  0  0
 23 24  2  0  0  0  0
 23 44  1  0  0  0  0
 24 25  1  0  0  0  0
 24 45  1  0  0  0  0
 26 46  1  0  0  0  0
 26 47  1  0  0  0  0
 26 48  1  0  0  0  0
M  END
> <PUBCHEM_COMPOUND_CID>
17396223

> <PUBCHEM_COMPOUND_CANONICALIZED>
1

> <PUBCHEM_CACTVS_COMPLEXITY>
600

> <PUBCHEM_CACTVS_HBOND_ACCEPTOR>
5

> <PUBCHEM_CACTVS_HBOND_DONOR>
1

> <PUBCHEM_CACTVS_ROTATABLE_BOND>
4

> <PUBCHEM_CACTVS_SUBSKEYS>
AAADceB7sAAEAAAAAAAAAAAAAAAAAAAAAAA8QIAAAAAAAAABAAAAHgIYAAAACArBkCQywIPAAACoASVyUACSAAAhBwAaiAEYdtgIYCLBk5GUIAhgngDIyYcQAAAAAABAAAIAACAAAIAABAAAQAAAAAAAAA==

> <PUBCHEM_IUPAC_OPENEYE_NAME>
N-[5-chloro-2-(4-ethylpiperazin-1-yl)phenyl]-1-methyl-6-oxo-pyridazine-3-carboxamide

> <PUBCHEM_IUPAC_CAS_NAME>
N-[5-chloro-2-(4-ethyl-1-piperazinyl)phenyl]-1-methyl-6-oxo-3-pyridazinecarboxamide

> <PUBCHEM_IUPAC_NAME>
N-[5-chloro-2-(4-ethylpiperazin-1-yl)phenyl]-1-methyl-6-oxopyridazine-3-carboxamide

> <PUBCHEM_IUPAC_SYSTEMATIC_NAME>
N-[5-chloranyl-2-(4-ethylpiperazin-1-yl)phenyl]-1-methyl-6-oxidanylidene-pyridazine-3-carboxamide

> <PUBCHEM_IUPAC_TRADITIONAL_NAME>
N-[5-chloro-2-(4-ethylpiperazino)phenyl]-6-keto-1-methyl-pyridazine-3-carboxamide

> <PUBCHEM_IUPAC_INCHI>
InChI=1S/C18H22ClN5O2/c1-3-23-8-10-24(11-9-23)16-6-4-13(19)12-15(16)20-18(26)14-5-7-17(25)22(2)21-14/h4-7,12H,3,8-11H2,1-2H3,(H,20,26)

> <PUBCHEM_IUPAC_INCHIKEY>
INLYOQBQNBCNRN-UHFFFAOYSA-N

> <PUBCHEM_XLOGP3_AA>
1.7

> <PUBCHEM_EXACT_MASS>
375.146203

> <PUBCHEM_MOLECULAR_FORMULA>
C18H22ClN5O2

> <PUBCHEM_MOLECULAR_WEIGHT>
375.85258

> <PUBCHEM_OPENEYE_CAN_SMILES>
CCN1CCN(CC1)C2=C(C=C(C=C2)Cl)NC(=O)C3=NN(C(=O)C=C3)C

> <PUBCHEM_OPENEYE_ISO_SMILES>
CCN1CCN(CC1)C2=C(C=C(C=C2)Cl)NC(=O)C3=NN(C(=O)C=C3)C

> <PUBCHEM_CACTVS_TPSA>
68.2

> <PUBCHEM_MONOISOTOPIC_WEIGHT>
375.146203

> <PUBCHEM_TOTAL_CHARGE>
0

> <PUBCHEM_HEAVY_ATOM_COUNT>
26

> <PUBCHEM_ATOM_DEF_STEREO_COUNT>
0

> <PUBCHEM_ATOM_UDEF_STEREO_COUNT>
0

> <PUBCHEM_BOND_DEF_STEREO_COUNT>
0

> <PUBCHEM_BOND_UDEF_STEREO_COUNT>
0

> <PUBCHEM_ISOTOPIC_ATOM_COUNT>
0

> <PUBCHEM_COMPONENT_COUNT>
1

> <PUBCHEM_CACTVS_TAUTO_COUNT>
2

> <PUBCHEM_COORDINATE_TYPE>
1
5
255

> <PUBCHEM_BONDANNOTATIONS>
14  15  8
14  17  8
15  18  8
17  19  8
18  20  8
19  20  8
22  23  8
23  24  8
24  25  8
7  22  8
7  8  8
8  25  8

$$$$

