276389
  -OEChem-07051213002D

 75 79  0     1  0  0  0  0  0999 V2000
    7.1920   -0.3563    0.0000 O   0  0  0  0  0  0  0  0  0  0  0  0
    8.2211   -2.2648    0.0000 O   0  0  0  0  0  0  0  0  0  0  0  0
    6.2570    2.6788    0.0000 O   0  0  0  0  0  0  0  0  0  0  0  0
    7.3023    3.9895    0.0000 O   0  0  0  0  0  0  0  0  0  0  0  0
    6.9625   -2.0731    0.0000 O   0  0  0  0  0  0  0  0  0  0  0  0
    5.7230   -0.0247    0.0000 O   0  0  0  0  0  0  0  0  0  0  0  0
    2.2361    0.3063    0.0000 O   0  0  0  0  0  0  0  0  0  0  0  0
    4.4008   -3.3791    0.0000 O   0  0  0  0  0  0  0  0  0  0  0  0
    3.7412   -1.7776    0.0000 O   0  0  0  0  0  0  0  0  0  0  0  0
   10.6702    0.2315    0.0000 N   0  0  3  0  0  0  0  0  0  0  0  0
    9.7693   -0.2024    0.0000 C   0  0  1  0  0  0  0  0  0  0  0  0
    8.8683    0.2315    0.0000 C   0  0  1  0  0  0  0  0  0  0  0  0
   10.3794   -0.9872    0.0000 C   0  0  0  0  0  0  0  0  0  0  0  0
    8.1832   -0.4888    0.0000 C   0  0  1  0  0  0  0  0  0  0  0  0
   11.6237   -0.0498    0.0000 C   0  0  0  0  0  0  0  0  0  0  0  0
   11.4838   -0.8473    0.0000 C   0  0  0  0  0  0  0  0  0  0  0  0
    9.6333   -1.1872    0.0000 C   0  0  0  0  0  0  0  0  0  0  0  0
    8.6458    1.2064    0.0000 C   0  0  0  0  0  0  0  0  0  0  0  0
   10.8928    1.2064    0.0000 C   0  0  0  0  0  0  0  0  0  0  0  0
    8.6550   -1.3638    0.0000 C   0  0  0  0  0  0  0  0  0  0  0  0
   10.2693    1.9882    0.0000 C   0  0  0  0  0  0  0  0  0  0  0  0
    9.2693    1.9882    0.0000 C   0  0  0  0  0  0  0  0  0  0  0  0
    7.6135    1.3457    0.0000 C   0  0  0  0  0  0  0  0  0  0  0  0
    8.9037    2.9636    0.0000 C   0  0  0  0  0  0  0  0  0  0  0  0
    7.2255    2.3124    0.0000 C   0  0  0  0  0  0  0  0  0  0  0  0
    7.8749    3.1268    0.0000 C   0  0  0  0  0  0  0  0  0  0  0  0
    6.5817   -1.1484    0.0000 C   0  0  0  0  0  0  0  0  0  0  0  0
    5.5905   -1.0159    0.0000 C   0  0  2  0  0  0  0  0  0  0  0  0
    8.7844   -3.0910    0.0000 C   0  0  0  0  0  0  0  0  0  0  0  0
    4.5993   -0.8834    0.0000 C   0  0  0  0  0  0  0  0  0  0  0  0
    6.3044    3.7131    0.0000 C   0  0  0  0  0  0  0  0  0  0  0  0
    5.4580   -2.0071    0.0000 C   0  0  0  0  0  0  0  0  0  0  0  0
    4.2185    0.0412    0.0000 C   0  0  0  0  0  0  0  0  0  0  0  0
    3.2273    0.1738    0.0000 C   0  0  0  0  0  0  0  0  0  0  0  0
    4.5333   -2.3879    0.0000 C   0  0  0  0  0  0  0  0  0  0  0  0
    3.3598    1.1649    0.0000 C   0  0  0  0  0  0  0  0  0  0  0  0
    3.0948   -0.8174    0.0000 C   0  0  0  0  0  0  0  0  0  0  0  0
    5.1929   -3.9895    0.0000 C   0  0  0  0  0  0  0  0  0  0  0  0
    9.5329    0.7614    0.0000 H   0  0  0  0  0  0  0  0  0  0  0  0
    9.8302   -1.2750    0.0000 H   0  0  0  0  0  0  0  0  0  0  0  0
   10.5652   -1.5787    0.0000 H   0  0  0  0  0  0  0  0  0  0  0  0
    7.8308   -0.9989    0.0000 H   0  0  0  0  0  0  0  0  0  0  0  0
   12.2299   -0.1799    0.0000 H   0  0  0  0  0  0  0  0  0  0  0  0
   11.7766    0.5511    0.0000 H   0  0  0  0  0  0  0  0  0  0  0  0
   11.5000   -1.4670    0.0000 H   0  0  0  0  0  0  0  0  0  0  0  0
   12.1021   -0.8930    0.0000 H   0  0  0  0  0  0  0  0  0  0  0  0
   10.0807   -1.6164    0.0000 H   0  0  0  0  0  0  0  0  0  0  0  0
   11.4514    0.9374    0.0000 H   0  0  0  0  0  0  0  0  0  0  0  0
   11.2793    1.6911    0.0000 H   0  0  0  0  0  0  0  0  0  0  0  0
   10.8279    2.2572    0.0000 H   0  0  0  0  0  0  0  0  0  0  0  0
   10.1313    2.5927    0.0000 H   0  0  0  0  0  0  0  0  0  0  0  0
    7.2326    0.8566    0.0000 H   0  0  0  0  0  0  0  0  0  0  0  0
    9.2959    3.4438    0.0000 H   0  0  0  0  0  0  0  0  0  0  0  0
    8.2722   -3.4403    0.0000 H   0  0  0  0  0  0  0  0  0  0  0  0
    9.1337   -3.6033    0.0000 H   0  0  0  0  0  0  0  0  0  0  0  0
    9.2967   -2.7418    0.0000 H   0  0  0  0  0  0  0  0  0  0  0  0
    3.9937   -1.0164    0.0000 H   0  0  0  0  0  0  0  0  0  0  0  0
    4.6251   -1.5029    0.0000 H   0  0  0  0  0  0  0  0  0  0  0  0
    6.2026    4.3247    0.0000 H   0  0  0  0  0  0  0  0  0  0  0  0
    5.6855    3.6762    0.0000 H   0  0  0  0  0  0  0  0  0  0  0  0
    5.5909   -2.6127    0.0000 H   0  0  0  0  0  0  0  0  0  0  0  0
    6.0774   -1.9813    0.0000 H   0  0  0  0  0  0  0  0  0  0  0  0
    4.8240    0.1742    0.0000 H   0  0  0  0  0  0  0  0  0  0  0  0
    4.1927    0.6607    0.0000 H   0  0  0  0  0  0  0  0  0  0  0  0
    5.2319    0.3537    0.0000 H   0  0  0  0  0  0  0  0  0  0  0  0
    3.9743    1.0828    0.0000 H   0  0  0  0  0  0  0  0  0  0  0  0
    3.4420    1.7795    0.0000 H   0  0  0  0  0  0  0  0  0  0  0  0
    2.7453    1.2471    0.0000 H   0  0  0  0  0  0  0  0  0  0  0  0
    2.4802   -0.7353    0.0000 H   0  0  0  0  0  0  0  0  0  0  0  0
    3.0126   -1.4320    0.0000 H   0  0  0  0  0  0  0  0  0  0  0  0
    3.7093   -0.8996    0.0000 H   0  0  0  0  0  0  0  0  0  0  0  0
    2.0000    0.8796    0.0000 H   0  0  0  0  0  0  0  0  0  0  0  0
    4.8145   -4.4806    0.0000 H   0  0  0  0  0  0  0  0  0  0  0  0
    5.6840   -4.3679    0.0000 H   0  0  0  0  0  0  0  0  0  0  0  0
    5.5714   -3.4984    0.0000 H   0  0  0  0  0  0  0  0  0  0  0  0
 14  1  1  1  0  0  0
  1 27  1  0  0  0  0
  2 20  1  0  0  0  0
  2 29  1  0  0  0  0
  3 25  1  0  0  0  0
  3 31  1  0  0  0  0
  4 26  1  0  0  0  0
  4 31  1  0  0  0  0
  5 27  2  0  0  0  0
 28  6  1  1  0  0  0
  6 65  1  0  0  0  0
  7 34  1  0  0  0  0
  7 72  1  0  0  0  0
  8 35  1  0  0  0  0
  8 38  1  0  0  0  0
  9 35  2  0  0  0  0
 10 11  1  0  0  0  0
 10 15  1  0  0  0  0
 10 19  1  0  0  0  0
 11 12  1  0  0  0  0
 11 13  1  6  0  0  0
 11 17  1  0  0  0  0
 12 14  1  0  0  0  0
 12 18  1  0  0  0  0
 12 39  1  6  0  0  0
 13 16  1  0  0  0  0
 13 40  1  0  0  0  0
 13 41  1  0  0  0  0
 14 20  1  0  0  0  0
 14 42  1  0  0  0  0
 15 16  1  0  0  0  0
 15 43  1  0  0  0  0
 15 44  1  0  0  0  0
 16 45  1  0  0  0  0
 16 46  1  0  0  0  0
 17 20  2  0  0  0  0
 17 47  1  0  0  0  0
 18 22  1  0  0  0  0
 18 23  2  0  0  0  0
 19 21  1  0  0  0  0
 19 48  1  0  0  0  0
 19 49  1  0  0  0  0
 21 22  1  0  0  0  0
 21 50  1  0  0  0  0
 21 51  1  0  0  0  0
 22 24  2  0  0  0  0
 23 25  1  0  0  0  0
 23 52  1  0  0  0  0
 24 26  1  0  0  0  0
 24 53  1  0  0  0  0
 25 26  2  0  0  0  0
 27 28  1  0  0  0  0
 28 30  1  0  0  0  0
 28 32  1  0  0  0  0
 29 54  1  0  0  0  0
 29 55  1  0  0  0  0
 29 56  1  0  0  0  0
 30 33  1  0  0  0  0
 30 57  1  0  0  0  0
 30 58  1  0  0  0  0
 31 59  1  0  0  0  0
 31 60  1  0  0  0  0
 32 35  1  0  0  0  0
 32 61  1  0  0  0  0
 32 62  1  0  0  0  0
 33 34  1  0  0  0  0
 33 63  1  0  0  0  0
 33 64  1  0  0  0  0
 34 36  1  0  0  0  0
 34 37  1  0  0  0  0
 36 66  1  0  0  0  0
 36 67  1  0  0  0  0
 36 68  1  0  0  0  0
 37 69  1  0  0  0  0
 37 70  1  0  0  0  0
 37 71  1  0  0  0  0
 38 73  1  0  0  0  0
 38 74  1  0  0  0  0
 38 75  1  0  0  0  0
M  END
> <PUBCHEM_COMPOUND_CID>
276389

> <PUBCHEM_COMPOUND_CANONICALIZED>
1

> <PUBCHEM_CACTVS_COMPLEXITY>
953

> <PUBCHEM_CACTVS_HBOND_ACCEPTOR>
10

> <PUBCHEM_CACTVS_HBOND_DONOR>
2

> <PUBCHEM_CACTVS_ROTATABLE_BOND>
10

> <PUBCHEM_CACTVS_SUBSKEYS>
AAADcfB6PAAAAAAAAAAAAAAAAAAAAWJEAAAwAAAABYAAAEixAAAAHgAACAAADdzhmAcyDoMABgCIAiDSCAKCCAAgIAAAiAFOiIgdJjaEsRumcCIn4BGPqAf7/P/OoAABAAAQQABAAAIAACCAAAAAAAAAAA==

> <PUBCHEM_IUPAC_INCHI>
InChI=1S/C28H37NO9/c1-26(2,32)8-9-28(33,15-22(30)35-4)25(31)38-24-21(34-3)14-27-7-5-10-29(27)11-6-17-12-19-20(37-16-36-19)13-18(17)23(24)27/h12-14,23-24,32-33H,5-11,15-16H2,1-4H3/t23-,24-,27+,28-/m1/s1

> <PUBCHEM_IUPAC_INCHIKEY>
HAVJATCHLFRDHY-KSZYUSJVSA-N

> <PUBCHEM_XLOGP3>
0.5

> <PUBCHEM_EXACT_MASS>
531.246832

> <PUBCHEM_MOLECULAR_FORMULA>
C28H37NO9

> <PUBCHEM_MOLECULAR_WEIGHT>
531.59468

> <PUBCHEM_OPENEYE_CAN_SMILES>
CC(C)(CCC(CC(=O)OC)(C(=O)OC1C2C3=CC4=C(C=C3CCN5C2(CCC5)C=C1OC)OCO4)O)O

> <PUBCHEM_OPENEYE_ISO_SMILES>
CC(C)(CC[C@@](CC(=O)OC)(C(=O)O[C@H]1[C@H]2C3=CC4=C(C=C3CCN5[C@@]2(CCC5)C=C1OC)OCO4)O)O

> <PUBCHEM_CACTVS_TPSA>
124

> <PUBCHEM_MONOISOTOPIC_WEIGHT>
531.246832

> <PUBCHEM_TOTAL_CHARGE>
0

> <PUBCHEM_HEAVY_ATOM_COUNT>
38

> <PUBCHEM_ATOM_DEF_STEREO_COUNT>
4

> <PUBCHEM_ATOM_UDEF_STEREO_COUNT>
0

> <PUBCHEM_BOND_DEF_STEREO_COUNT>
0

> <PUBCHEM_BOND_UDEF_STEREO_COUNT>
0

> <PUBCHEM_ISOTOPIC_ATOM_COUNT>
0

> <PUBCHEM_COMPONENT_COUNT>
1

> <PUBCHEM_CACTVS_TAUTO_COUNT>
1

> <PUBCHEM_COORDINATE_TYPE>
1
5
255

> <PUBCHEM_BONDANNOTATIONS>
14  1  5
11  13  6
12  39  6
18  22  8
18  23  8
22  24  8
23  25  8
24  26  8
25  26  8
28  6  5

$$$$

