101850
  -OEChem-07051213053D

 50 53  0     1  0  0  0  0  0999 V2000
   -0.0551   -2.7457    0.4852 O   0  0  0  0  0  0  0  0  0  0  0  0
    4.3540    0.5174   -2.4276 O   0  0  0  0  0  0  0  0  0  0  0  0
   -4.6003   -0.7508   -1.3907 O   0  0  0  0  0  0  0  0  0  0  0  0
    1.7688   -0.4592    0.8949 C   0  0  2  0  0  0  0  0  0  0  0  0
   -0.4903    0.8128    0.6585 C   0  0  2  0  0  0  0  0  0  0  0  0
    0.4009   -0.3589    0.1295 C   0  0  2  0  0  0  0  0  0  0  0  0
   -1.7684    0.8656   -0.1876 C   0  0  1  0  0  0  0  0  0  0  0  0
    2.4910    0.9345    0.8476 C   0  0  2  0  0  0  0  0  0  0  0  0
   -2.5915   -0.4337   -0.0563 C   0  0  2  0  0  0  0  0  0  0  0  0
    0.2558    2.1506    0.6270 C   0  0  0  0  0  0  0  0  0  0  0  0
    1.5951    2.0776    1.3519 C   0  0  0  0  0  0  0  0  0  0  0  0
    2.7320   -1.5192    0.2794 C   0  0  0  0  0  0  0  0  0  0  0  0
   -1.7823   -1.5692   -0.6626 C   0  0  0  0  0  0  0  0  0  0  0  0
   -0.4393   -1.6594    0.0558 C   0  0  0  0  0  0  0  0  0  0  0  0
   -2.7863    1.9774    0.0439 C   0  0  0  0  0  0  0  0  0  0  0  0
    3.0429    1.2775   -0.5529 C   0  0  0  0  0  0  0  0  0  0  0  0
    1.5489   -0.8616    2.3766 C   0  0  0  0  0  0  0  0  0  0  0  0
    3.2463   -1.1672   -1.1110 C   0  0  0  0  0  0  0  0  0  0  0  0
   -3.8211    0.0079   -0.8291 C   0  0  0  0  0  0  0  0  0  0  0  0
    3.9493    0.1829   -1.1041 C   0  0  1  0  0  0  0  0  0  0  0  0
   -3.9880    1.5168   -0.7929 C   0  0  0  0  0  0  0  0  0  0  0  0
   -3.0623   -0.7962    1.3644 C   0  0  0  0  0  0  0  0  0  0  0  0
   -0.7703    0.6201    1.6999 H   0  0  0  0  0  0  0  0  0  0  0  0
    0.6290   -0.1417   -0.9230 H   0  0  0  0  0  0  0  0  0  0  0  0
   -1.4482    0.9746   -1.2386 H   0  0  0  0  0  0  0  0  0  0  0  0
    3.3602    0.8901    1.5200 H   0  0  0  0  0  0  0  0  0  0  0  0
   -0.3540    2.9282    1.1026 H   0  0  0  0  0  0  0  0  0  0  0  0
    0.4089    2.4732   -0.4095 H   0  0  0  0  0  0  0  0  0  0  0  0
    2.1160    3.0370    1.2440 H   0  0  0  0  0  0  0  0  0  0  0  0
    1.4145    1.9572    2.4267 H   0  0  0  0  0  0  0  0  0  0  0  0
    2.2722   -2.5105    0.2440 H   0  0  0  0  0  0  0  0  0  0  0  0
    3.6043   -1.6304    0.9393 H   0  0  0  0  0  0  0  0  0  0  0  0
   -1.5931   -1.4154   -1.7312 H   0  0  0  0  0  0  0  0  0  0  0  0
   -2.3104   -2.5246   -0.5645 H   0  0  0  0  0  0  0  0  0  0  0  0
   -2.4265    2.9546   -0.2926 H   0  0  0  0  0  0  0  0  0  0  0  0
   -3.0542    2.0675    1.1021 H   0  0  0  0  0  0  0  0  0  0  0  0
    2.2348    1.4643   -1.2696 H   0  0  0  0  0  0  0  0  0  0  0  0
    3.6081    2.2179   -0.5108 H   0  0  0  0  0  0  0  0  0  0  0  0
    1.1540   -1.8777    2.4687 H   0  0  0  0  0  0  0  0  0  0  0  0
    2.4956   -0.8394    2.9295 H   0  0  0  0  0  0  0  0  0  0  0  0
    0.8589   -0.1964    2.9013 H   0  0  0  0  0  0  0  0  0  0  0  0
    3.9452   -1.9410   -1.4523 H   0  0  0  0  0  0  0  0  0  0  0  0
    2.4310   -1.1707   -1.8440 H   0  0  0  0  0  0  0  0  0  0  0  0
    4.8563    0.1253   -0.4903 H   0  0  0  0  0  0  0  0  0  0  0  0
   -3.9278    1.9033   -1.8144 H   0  0  0  0  0  0  0  0  0  0  0  0
   -4.9346    1.7962   -0.3256 H   0  0  0  0  0  0  0  0  0  0  0  0
   -3.7133   -1.6786    1.3344 H   0  0  0  0  0  0  0  0  0  0  0  0
   -2.2306   -1.0310    2.0352 H   0  0  0  0  0  0  0  0  0  0  0  0
   -3.6481    0.0041    1.8284 H   0  0  0  0  0  0  0  0  0  0  0  0
    4.9369   -0.1934   -2.7446 H   0  0  0  0  0  0  0  0  0  0  0  0
  1 14  2  0  0  0  0
  2 20  1  0  0  0  0
  2 50  1  0  0  0  0
  3 19  2  0  0  0  0
  4  6  1  0  0  0  0
  4  8  1  0  0  0  0
  4 12  1  0  0  0  0
  4 17  1  0  0  0  0
  5  6  1  0  0  0  0
  5  7  1  0  0  0  0
  5 10  1  0  0  0  0
  5 23  1  0  0  0  0
  6 14  1  0  0  0  0
  6 24  1  0  0  0  0
  7  9  1  0  0  0  0
  7 15  1  0  0  0  0
  7 25  1  0  0  0  0
  8 11  1  0  0  0  0
  8 16  1  0  0  0  0
  8 26  1  0  0  0  0
  9 13  1  0  0  0  0
  9 19  1  0  0  0  0
  9 22  1  0  0  0  0
 10 11  1  0  0  0  0
 10 27  1  0  0  0  0
 10 28  1  0  0  0  0
 11 29  1  0  0  0  0
 11 30  1  0  0  0  0
 12 18  1  0  0  0  0
 12 31  1  0  0  0  0
 12 32  1  0  0  0  0
 13 14  1  0  0  0  0
 13 33  1  0  0  0  0
 13 34  1  0  0  0  0
 15 21  1  0  0  0  0
 15 35  1  0  0  0  0
 15 36  1  0  0  0  0
 16 20  1  0  0  0  0
 16 37  1  0  0  0  0
 16 38  1  0  0  0  0
 17 39  1  0  0  0  0
 17 40  1  0  0  0  0
 17 41  1  0  0  0  0
 18 20  1  0  0  0  0
 18 42  1  0  0  0  0
 18 43  1  0  0  0  0
 19 21  1  0  0  0  0
 20 44  1  0  0  0  0
 21 45  1  0  0  0  0
 21 46  1  0  0  0  0
 22 47  1  0  0  0  0
 22 48  1  0  0  0  0
 22 49  1  0  0  0  0
M  END
> <PUBCHEM_COMPOUND_CID>
101850

> <PUBCHEM_CONFORMER_RMSD>
0.6

> <PUBCHEM_CONFORMER_DIVERSEORDER>
1
2

> <PUBCHEM_MMFF94_PARTIAL_CHARGES>
11
1 -0.57
13 0.06
14 0.45
19 0.45
2 -0.68
20 0.28
21 0.06
3 -0.57
50 0.4
6 0.06
9 0.06

> <PUBCHEM_EFFECTIVE_ROTOR_COUNT>
1.8

> <PUBCHEM_PHARMACOPHORE_FEATURES>
8
1 1 acceptor
1 2 acceptor
1 2 donor
1 3 acceptor
5 7 9 15 19 21 rings
6 4 5 6 8 10 11 rings
6 4 8 12 16 18 20 rings
6 5 6 7 9 13 14 rings

> <PUBCHEM_HEAVY_ATOM_COUNT>
22

> <PUBCHEM_ATOM_DEF_STEREO_COUNT>
7

> <PUBCHEM_ATOM_UDEF_STEREO_COUNT>
0

> <PUBCHEM_BOND_DEF_STEREO_COUNT>
0

> <PUBCHEM_BOND_UDEF_STEREO_COUNT>
0

> <PUBCHEM_ISOTOPIC_ATOM_COUNT>
0

> <PUBCHEM_COMPONENT_COUNT>
1

> <PUBCHEM_CACTVS_TAUTO_COUNT>
6

> <PUBCHEM_CONFORMER_ID>
00018DDA00000001

> <PUBCHEM_MMFF94_ENERGY>
68.9226

> <PUBCHEM_FEATURE_SELFOVERLAP>
40.728

> <PUBCHEM_SHAPE_FINGERPRINT>
10498660 4 18271530801502223621
10759866 29 17918274276780989882
10863032 1 17132106965936071730
10948715 1 15841262645821767456
10967382 1 18264786393051439265
11640471 11 17274821312105778366
11961588 58 18059295340568405196
12035759 4 18194112152044777120
12553582 1 18041266747181317256
12596599 1 17530685402956717327
13140716 1 18337399351940809081
13224815 77 18272936020375556225
14289901 80 16056885762242136433
14787075 74 17271989979306743211
14790565 3 17610889467682330913
15210252 30 18202561800089125980
15238133 3 18127986410179849241
15475509 35 13912899557914713031
16752209 62 18335991955645611849
16945 1 18266464200218410984
1813 80 5112016036490455088
18186145 218 17967814937923605987
19765921 60 17775279418529880802
19862831 5 18334575767251855197
20233049 118 18411989082824104600
20645476 183 17988923349189886059
20645477 70 17676491605466950084
20871999 31 18335410270997294804
20905425 154 17610345217767803718
21069387 34 14562532890044312998
21756936 100 12893915071125957958
221357 26 18259988180279601765
22182313 1 18045775689959085130
22393880 68 18335433378137813629
2334 1 18409738343609041265
23402539 116 18262241127007654558
23493267 7 17989200464790440635
23559900 14 18040726852565264416
2637199 183 18412819213691683702
2748010 2 18337684026752485905
2838139 119 16629383750581188748
296302 2 15482670173795836749
3323516 105 18260268533852999709
394222 165 17632859754609240074
474 4 16701729471977688404
484985 159 14061179940834155572
4990 188 18040156214361595661
5262128 65 17676480636072931616
633830 44 18186813469574846813
7364860 26 17895768274699129688
74978 22 18187370895793695251
9709674 26 18116163172799382607
9981440 41 17625253118889841136

> <PUBCHEM_SHAPE_MULTIPOLES>
435.14
7.56
2.3
1.65
1.92
0.07
-0.06
0.58
4.21
0.13
-0.37
-1.25
-0.08
0.05

> <PUBCHEM_SHAPE_SELFOVERLAP>
933.968

> <PUBCHEM_SHAPE_VOLUME>
239.3

> <PUBCHEM_COORDINATE_TYPE>
2
5
10

$$$$

