644180
  -OEChem-07051213053D

 23 24  0     0  0  0  0  0  0999 V2000
    0.3793   -2.6073    0.0658 Cl  0  0  0  0  0  0  0  0  0  0  0  0
    3.5258   -2.5056   -0.1600 Cl  0  0  0  0  0  0  0  0  0  0  0  0
    3.2593    2.9509   -0.0244 Cl  0  0  0  0  0  0  0  0  0  0  0  0
    4.9939    0.2833   -0.2054 Cl  0  0  0  0  0  0  0  0  0  0  0  0
   -4.0905    0.1745   -2.2725 Cl  0  0  0  0  0  0  0  0  0  0  0  0
   -5.1091    0.1192    0.5552 O   0  0  0  0  0  0  0  0  0  0  0  0
    0.4731    0.1020    0.1162 C   0  0  0  0  0  0  0  0  0  0  0  0
   -0.9699    0.1070    0.2214 C   0  0  0  0  0  0  0  0  0  0  0  0
    1.2157   -1.0796    0.0372 C   0  0  0  0  0  0  0  0  0  0  0  0
    1.1315    1.3341    0.0953 C   0  0  0  0  0  0  0  0  0  0  0  0
   -1.7538    0.1356   -0.9320 C   0  0  0  0  0  0  0  0  0  0  0  0
   -1.5772    0.0829    1.4769 C   0  0  0  0  0  0  0  0  0  0  0  0
    2.6061   -1.0288   -0.0619 C   0  0  0  0  0  0  0  0  0  0  0  0
    2.5219    1.3850   -0.0038 C   0  0  0  0  0  0  0  0  0  0  0  0
    3.2592    0.2035   -0.0824 C   0  0  0  0  0  0  0  0  0  0  0  0
   -3.1449    0.1400   -0.8300 C   0  0  0  0  0  0  0  0  0  0  0  0
   -2.9683    0.0874    1.5790 C   0  0  0  0  0  0  0  0  0  0  0  0
   -3.7521    0.1158    0.4255 C   0  0  0  0  0  0  0  0  0  0  0  0
    0.5584    2.2581    0.1564 H   0  0  0  0  0  0  0  0  0  0  0  0
   -1.2809    0.1539   -1.9122 H   0  0  0  0  0  0  0  0  0  0  0  0
   -0.9808    0.0601    2.3860 H   0  0  0  0  0  0  0  0  0  0  0  0
   -3.4272    0.0683    2.5640 H   0  0  0  0  0  0  0  0  0  0  0  0
   -5.3396    0.1001    1.4999 H   0  0  0  0  0  0  0  0  0  0  0  0
  1  9  1  0  0  0  0
  2 13  1  0  0  0  0
  3 14  1  0  0  0  0
  4 15  1  0  0  0  0
  5 16  1  0  0  0  0
  6 18  1  0  0  0  0
  6 23  1  0  0  0  0
  7  8  1  0  0  0  0
  7  9  1  0  0  0  0
  7 10  2  0  0  0  0
  8 11  2  0  0  0  0
  8 12  1  0  0  0  0
  9 13  2  0  0  0  0
 10 14  1  0  0  0  0
 10 19  1  0  0  0  0
 11 16  1  0  0  0  0
 11 20  1  0  0  0  0
 12 17  2  0  0  0  0
 12 21  1  0  0  0  0
 13 15  1  0  0  0  0
 14 15  2  0  0  0  0
 16 18  2  0  0  0  0
 17 18  1  0  0  0  0
 17 22  1  0  0  0  0
M  END
> <PUBCHEM_COMPOUND_CID>
644180

> <PUBCHEM_CONFORMER_RMSD>
0.6

> <PUBCHEM_CONFORMER_DIVERSEORDER>
2
3
1

> <PUBCHEM_MMFF94_PARTIAL_CHARGES>
21
1 -0.18
10 -0.15
11 -0.15
12 -0.15
13 0.18
14 0.18
15 0.18
16 0.18
17 -0.15
18 0.08
19 0.15
2 -0.18
20 0.15
21 0.15
22 0.15
23 0.45
3 -0.18
4 -0.18
5 -0.18
6 -0.53
9 0.18

> <PUBCHEM_EFFECTIVE_ROTOR_COUNT>
1

> <PUBCHEM_PHARMACOPHORE_FEATURES>
3
1 6 donor
6 7 9 10 13 14 15 rings
6 8 11 12 16 17 18 rings

> <PUBCHEM_HEAVY_ATOM_COUNT>
18

> <PUBCHEM_ATOM_DEF_STEREO_COUNT>
0

> <PUBCHEM_ATOM_UDEF_STEREO_COUNT>
0

> <PUBCHEM_BOND_DEF_STEREO_COUNT>
0

> <PUBCHEM_BOND_UDEF_STEREO_COUNT>
0

> <PUBCHEM_ISOTOPIC_ATOM_COUNT>
0

> <PUBCHEM_COMPONENT_COUNT>
1

> <PUBCHEM_CACTVS_TAUTO_COUNT>
3

> <PUBCHEM_CONFORMER_ID>
0009D45400000002

> <PUBCHEM_MMFF94_ENERGY>
52.6749

> <PUBCHEM_FEATURE_SELFOVERLAP>
15.223

> <PUBCHEM_SHAPE_FINGERPRINT>
11471102 20 18411416224465442914
11725454 13 17271765760486243053
11796584 16 14635138058480270956
12236239 1 17676203584970239865
12403259 415 17917713482985865429
13134695 92 18340770442059868436
13140716 1 18266459794389060856
13583140 156 17345770594012104336
13760787 5 18334298703174870279
14251717 144 18409165536716244354
14386348 63 17775278374298972187
15219456 202 17988644116317686895
15309172 13 18412538786676424410
15342168 16 18196644108169917653
16945 1 18410288104271556832
1813 80 17897991680789982798
18186145 218 18408324362975972868
19049666 15 17702671106194076473
19422 9 17821450166342853591
19862831 5 17748826297867520933
200 152 18260270767515555377
20279233 1 17775278369967192195
204376 136 18267862787915484912
20645477 56 17775566434030383097
20645477 70 18341613762793437266
21033648 29 17846789485256963013
21065201 7 16415478263826449281
21639500 275 18409451358125921056
22112679 90 17240482537315024617
2255824 54 18334571361079607222
22943178 12 17917706890221264843
2334 1 17905604403163906344
23402539 116 16515407365074031604
23419403 2 14759621530508057898
23557571 272 17132113546058019333
23559900 14 16773523277846248434
23598291 2 17968097585241876175
2748010 2 18050277073683939476
350125 39 17907005185019407328
474 4 18261673645658482000
5281201 14 18059855099144860861
6049 1 17774993613814906213
633830 44 18187631497150492421
7615 1 17749110014833004105
77492 1 17676204680207986345
81228 2 16682899583580058890
8272917 22 18335410322610696611
9981440 41 16449848774194383760
9999458 23 18130783422370060260

> <PUBCHEM_SHAPE_MULTIPOLES>
373.91
9.17
2.27
1.31
2.84
0.3
-0.28
-1.29
-1.37
-3.64
-0.06
2.16
-0.09
0.14

> <PUBCHEM_SHAPE_SELFOVERLAP>
767.742

> <PUBCHEM_SHAPE_VOLUME>
220.7

> <PUBCHEM_COORDINATE_TYPE>
2
5
10

$$$$

