17396002
  -OEChem-06241222532D

 35 37  0     0  0  0  0  0  0999 V2000
    2.6691    0.3194    0.0000 S   0  0  0  0  0  0  0  0  0  0  0  0
   12.3090   -1.2981    0.0000 O   0  0  0  0  0  0  0  0  0  0  0  0
    5.3147    0.7261    0.0000 O   0  0  0  0  0  0  0  0  0  0  0  0
    7.0468    1.7261    0.0000 O   0  0  0  0  0  0  0  0  0  0  0  0
    4.4487   -0.7739    0.0000 O   0  0  0  0  0  0  0  0  0  0  0  0
   10.5388   -1.3086    0.0000 N   0  0  0  0  0  0  0  0  0  0  0  0
   10.5388    0.7608    0.0000 C   0  0  0  0  0  0  0  0  0  0  0  0
    9.6448    0.2261    0.0000 C   0  0  0  0  0  0  0  0  0  0  0  0
   11.4449    0.2469    0.0000 C   0  0  0  0  0  0  0  0  0  0  0  0
    9.6448   -0.7739    0.0000 C   0  0  0  0  0  0  0  0  0  0  0  0
    8.7788    0.7261    0.0000 C   0  0  0  0  0  0  0  0  0  0  0  0
   11.4449   -0.7947    0.0000 C   0  0  0  0  0  0  0  0  0  0  0  0
    7.9128    0.2261    0.0000 C   0  0  0  0  0  0  0  0  0  0  0  0
    8.7788   -1.2739    0.0000 C   0  0  0  0  0  0  0  0  0  0  0  0
    7.9128   -0.7739    0.0000 C   0  0  0  0  0  0  0  0  0  0  0  0
    7.0468    0.7261    0.0000 C   0  0  0  0  0  0  0  0  0  0  0  0
    6.1808    0.2261    0.0000 C   0  0  0  0  0  0  0  0  0  0  0  0
    4.4487    0.2261    0.0000 C   0  0  0  0  0  0  0  0  0  0  0  0
    3.5827    0.7261    0.0000 C   0  0  0  0  0  0  0  0  0  0  0  0
    3.4782    1.7206    0.0000 C   0  0  0  0  0  0  0  0  0  0  0  0
    2.5000    1.9285    0.0000 C   0  0  0  0  0  0  0  0  0  0  0  0
    2.0000    1.0625    0.0000 C   0  0  0  0  0  0  0  0  0  0  0  0
   10.9324    1.2398    0.0000 H   0  0  0  0  0  0  0  0  0  0  0  0
   10.1342    1.2305    0.0000 H   0  0  0  0  0  0  0  0  0  0  0  0
   12.0557    0.1408    0.0000 H   0  0  0  0  0  0  0  0  0  0  0  0
   11.6539    0.8306    0.0000 H   0  0  0  0  0  0  0  0  0  0  0  0
    8.7788    1.3461    0.0000 H   0  0  0  0  0  0  0  0  0  0  0  0
   10.5316   -1.9285    0.0000 H   0  0  0  0  0  0  0  0  0  0  0  0
    8.7788   -1.8939    0.0000 H   0  0  0  0  0  0  0  0  0  0  0  0
    7.3759   -1.0839    0.0000 H   0  0  0  0  0  0  0  0  0  0  0  0
    5.7822   -0.2489    0.0000 H   0  0  0  0  0  0  0  0  0  0  0  0
    6.5793   -0.2489    0.0000 H   0  0  0  0  0  0  0  0  0  0  0  0
    3.9389    2.1355    0.0000 H   0  0  0  0  0  0  0  0  0  0  0  0
    2.2478    2.4949    0.0000 H   0  0  0  0  0  0  0  0  0  0  0  0
    1.3834    0.9977    0.0000 H   0  0  0  0  0  0  0  0  0  0  0  0
  1 19  1  0  0  0  0
  1 22  1  0  0  0  0
  2 12  2  0  0  0  0
  3 17  1  0  0  0  0
  3 18  1  0  0  0  0
  4 16  2  0  0  0  0
  5 18  2  0  0  0  0
  6 10  1  0  0  0  0
  6 12  1  0  0  0  0
  6 28  1  0  0  0  0
  7  8  1  0  0  0  0
  7  9  1  0  0  0  0
  7 23  1  0  0  0  0
  7 24  1  0  0  0  0
  8 10  2  0  0  0  0
  8 11  1  0  0  0  0
  9 12  1  0  0  0  0
  9 25  1  0  0  0  0
  9 26  1  0  0  0  0
 10 14  1  0  0  0  0
 11 13  2  0  0  0  0
 11 27  1  0  0  0  0
 13 15  1  0  0  0  0
 13 16  1  0  0  0  0
 14 15  2  0  0  0  0
 14 29  1  0  0  0  0
 15 30  1  0  0  0  0
 16 17  1  0  0  0  0
 17 31  1  0  0  0  0
 17 32  1  0  0  0  0
 18 19  1  0  0  0  0
 19 20  2  0  0  0  0
 20 21  1  0  0  0  0
 20 33  1  0  0  0  0
 21 22  2  0  0  0  0
 21 34  1  0  0  0  0
 22 35  1  0  0  0  0
M  END
> <PUBCHEM_COMPOUND_CID>
17396002

> <PUBCHEM_COMPOUND_CANONICALIZED>
1

> <PUBCHEM_CACTVS_COMPLEXITY>
467

> <PUBCHEM_CACTVS_HBOND_ACCEPTOR>
5

> <PUBCHEM_CACTVS_HBOND_DONOR>
1

> <PUBCHEM_CACTVS_ROTATABLE_BOND>
5

> <PUBCHEM_CACTVS_SUBSKEYS>
AAADccB6OABAAAAAAAAAAAAAAAAAASAAAAA8QAAAAAAAAACxwAAAHgQQAAAADAyl2AKwyYLABAiMAqXSWAKDAIAlChBIiBlAbMgIJjLgtZ2GMQhk1AHo6YeYyfCeCAACAAACAAAQAAQAAAQAAAAAAAAAAA==

> <PUBCHEM_IUPAC_OPENEYE_NAME>
[2-oxo-2-(2-oxo-3,4-dihydro-1H-quinolin-6-yl)ethyl] thiophene-2-carboxylate

> <PUBCHEM_IUPAC_CAS_NAME>
2-thiophenecarboxylic acid [2-oxo-2-(2-oxo-3,4-dihydro-1H-quinolin-6-yl)ethyl] ester

> <PUBCHEM_IUPAC_NAME>
[2-oxo-2-(2-oxo-3,4-dihydro-1H-quinolin-6-yl)ethyl] thiophene-2-carboxylate

> <PUBCHEM_IUPAC_SYSTEMATIC_NAME>
[2-oxidanylidene-2-(2-oxidanylidene-3,4-dihydro-1H-quinolin-6-yl)ethyl] thiophene-2-carboxylate

> <PUBCHEM_IUPAC_TRADITIONAL_NAME>
thiophene-2-carboxylic acid [2-keto-2-(2-keto-3,4-dihydro-1H-quinolin-6-yl)ethyl] ester

> <PUBCHEM_IUPAC_INCHI>
InChI=1S/C16H13NO4S/c18-13(9-21-16(20)14-2-1-7-22-14)11-3-5-12-10(8-11)4-6-15(19)17-12/h1-3,5,7-8H,4,6,9H2,(H,17,19)

> <PUBCHEM_IUPAC_INCHIKEY>
CDGNPJGYCRSMQZ-UHFFFAOYSA-N

> <PUBCHEM_XLOGP3_AA>
2.3

> <PUBCHEM_EXACT_MASS>
315.056529

> <PUBCHEM_MOLECULAR_FORMULA>
C16H13NO4S

> <PUBCHEM_MOLECULAR_WEIGHT>
315.34372

> <PUBCHEM_OPENEYE_CAN_SMILES>
C1CC(=O)NC2=C1C=C(C=C2)C(=O)COC(=O)C3=CC=CS3

> <PUBCHEM_OPENEYE_ISO_SMILES>
C1CC(=O)NC2=C1C=C(C=C2)C(=O)COC(=O)C3=CC=CS3

> <PUBCHEM_CACTVS_TPSA>
101

> <PUBCHEM_MONOISOTOPIC_WEIGHT>
315.056529

> <PUBCHEM_TOTAL_CHARGE>
0

> <PUBCHEM_HEAVY_ATOM_COUNT>
22

> <PUBCHEM_ATOM_DEF_STEREO_COUNT>
0

> <PUBCHEM_ATOM_UDEF_STEREO_COUNT>
0

> <PUBCHEM_BOND_DEF_STEREO_COUNT>
0

> <PUBCHEM_BOND_UDEF_STEREO_COUNT>
0

> <PUBCHEM_ISOTOPIC_ATOM_COUNT>
0

> <PUBCHEM_COMPONENT_COUNT>
1

> <PUBCHEM_CACTVS_TAUTO_COUNT>
20

> <PUBCHEM_COORDINATE_TYPE>
1
5
255

> <PUBCHEM_BONDANNOTATIONS>
1  19  8
1  22  8
10  14  8
11  13  8
13  15  8
14  15  8
19  20  8
20  21  8
21  22  8
8  10  8
8  11  8

$$$$

