249676
  -OEChem-07051213063D

 30 32  0     0  0  0  0  0  0999 V2000
    0.3602    1.7016    0.0005 O   0  0  0  0  0  0  0  0  0  0  0  0
    2.2498    2.9775   -0.0003 O   0  0  0  0  0  0  0  0  0  0  0  0
   -4.3340    1.5209   -0.0029 O   0  0  0  0  0  0  0  0  0  0  0  0
   -3.7544   -0.7644    0.0002 N   0  0  0  0  0  0  0  0  0  0  0  0
    0.4759   -0.7386    0.0004 C   0  0  0  0  0  0  0  0  0  0  0  0
    1.9409   -0.6433    0.0001 C   0  0  0  0  0  0  0  0  0  0  0  0
   -0.2731    0.4405    0.0006 C   0  0  0  0  0  0  0  0  0  0  0  0
    2.5500    0.6239    0.0004 C   0  0  0  0  0  0  0  0  0  0  0  0
   -0.2480   -1.9422    0.0001 C   0  0  0  0  0  0  0  0  0  0  0  0
   -1.6705    0.4535    0.0006 C   0  0  0  0  0  0  0  0  0  0  0  0
   -2.3596   -0.7524    0.0001 C   0  0  0  0  0  0  0  0  0  0  0  0
    2.7884   -1.7674   -0.0006 C   0  0  0  0  0  0  0  0  0  0  0  0
   -1.6492   -1.9493   -0.0001 C   0  0  0  0  0  0  0  0  0  0  0  0
    1.7387    1.8650    0.0008 C   0  0  0  0  0  0  0  0  0  0  0  0
    3.9477    0.7578    0.0001 C   0  0  0  0  0  0  0  0  0  0  0  0
    4.1802   -1.6341   -0.0008 C   0  0  0  0  0  0  0  0  0  0  0  0
    4.7595   -0.3721   -0.0004 C   0  0  0  0  0  0  0  0  0  0  0  0
   -4.6295    0.3303    0.0004 C   0  0  0  0  0  0  0  0  0  0  0  0
   -6.0728   -0.1071    0.0007 C   0  0  0  0  0  0  0  0  0  0  0  0
    0.2524   -2.9064   -0.0001 H   0  0  0  0  0  0  0  0  0  0  0  0
   -2.1464    1.4241    0.0011 H   0  0  0  0  0  0  0  0  0  0  0  0
    2.3897   -2.7782   -0.0010 H   0  0  0  0  0  0  0  0  0  0  0  0
   -2.1704   -2.9037   -0.0003 H   0  0  0  0  0  0  0  0  0  0  0  0
    4.4211    1.7362    0.0002 H   0  0  0  0  0  0  0  0  0  0  0  0
    4.8084   -2.5204   -0.0013 H   0  0  0  0  0  0  0  0  0  0  0  0
    5.8402   -0.2674   -0.0006 H   0  0  0  0  0  0  0  0  0  0  0  0
   -4.1805   -1.6889    0.0004 H   0  0  0  0  0  0  0  0  0  0  0  0
   -6.2852   -0.6800   -0.9063 H   0  0  0  0  0  0  0  0  0  0  0  0
   -6.7260    0.7695    0.0289 H   0  0  0  0  0  0  0  0  0  0  0  0
   -6.2730   -0.7262    0.8797 H   0  0  0  0  0  0  0  0  0  0  0  0
  1  7  1  0  0  0  0
  1 14  1  0  0  0  0
  2 14  2  0  0  0  0
  3 18  2  0  0  0  0
  4 11  1  0  0  0  0
  4 18  1  0  0  0  0
  4 27  1  0  0  0  0
  5  6  1  0  0  0  0
  5  7  2  0  0  0  0
  5  9  1  0  0  0  0
  6  8  1  0  0  0  0
  6 12  2  0  0  0  0
  7 10  1  0  0  0  0
  8 14  1  0  0  0  0
  8 15  2  0  0  0  0
  9 13  2  0  0  0  0
  9 20  1  0  0  0  0
 10 11  2  0  0  0  0
 10 21  1  0  0  0  0
 11 13  1  0  0  0  0
 12 16  1  0  0  0  0
 12 22  1  0  0  0  0
 13 23  1  0  0  0  0
 15 17  1  0  0  0  0
 15 24  1  0  0  0  0
 16 17  2  0  0  0  0
 16 25  1  0  0  0  0
 17 26  1  0  0  0  0
 18 19  1  0  0  0  0
 19 28  1  0  0  0  0
 19 29  1  0  0  0  0
 19 30  1  0  0  0  0
M  END
> <PUBCHEM_COMPOUND_CID>
249676

> <PUBCHEM_CONFORMER_RMSD>
0.6

> <PUBCHEM_CONFORMER_DIVERSEORDER>
1
2
3
4

> <PUBCHEM_MMFF94_PARTIAL_CHARGES>
25
1 -0.23
10 -0.15
11 0.12
12 -0.15
13 -0.15
14 0.63
15 -0.15
16 -0.15
17 -0.15
18 0.57
19 0.06
2 -0.57
20 0.15
21 0.15
22 0.15
23 0.15
24 0.15
25 0.15
26 0.15
27 0.37
3 -0.57
4 -0.55
7 0.08
8 0.09
9 -0.15

> <PUBCHEM_EFFECTIVE_ROTOR_COUNT>
2

> <PUBCHEM_PHARMACOPHORE_FEATURES>
6
1 2 acceptor
1 3 acceptor
1 4 donor
6 1 5 6 7 8 14 rings
6 5 7 9 10 11 13 rings
6 6 8 12 15 16 17 rings

> <PUBCHEM_HEAVY_ATOM_COUNT>
19

> <PUBCHEM_ATOM_DEF_STEREO_COUNT>
0

> <PUBCHEM_ATOM_UDEF_STEREO_COUNT>
0

> <PUBCHEM_BOND_DEF_STEREO_COUNT>
0

> <PUBCHEM_BOND_UDEF_STEREO_COUNT>
0

> <PUBCHEM_ISOTOPIC_ATOM_COUNT>
0

> <PUBCHEM_COMPONENT_COUNT>
1

> <PUBCHEM_CACTVS_TAUTO_COUNT>
3

> <PUBCHEM_CONFORMER_ID>
0003CF4C00000001

> <PUBCHEM_MMFF94_ENERGY>
68.5486

> <PUBCHEM_FEATURE_SELFOVERLAP>
30.494

> <PUBCHEM_SHAPE_FINGERPRINT>
10411042 1 18050567640896296130
10906281 52 18338780278890324666
10967382 1 18410856573094637506
11471102 20 18410857659272879630
11578080 2 17025169422685658538
116883 192 18189889984676377692
12011746 2 18408598180421666302
12236239 1 17821729438333501075
12403259 415 18202572782784114669
13140716 1 18195535796517590552
13675066 3 18273210863880680731
13862211 1 18338802311397722699
14115302 16 17988913458175622294
14178342 30 17833003649907032224
14790565 3 18339635741243251444
15099037 51 18410573998258146071
15196674 1 18410573946507535331
15442244 35 18409448089555413104
15475509 8 17825923052680196044
15536298 74 18334577910704013688
1601671 61 18410855503288915836
16945 1 18338797810841253930
17349148 13 17894629270888848787
18186145 218 17846508001953769239
19141452 34 18334860493592870039
19591789 44 18195528327020803806
200 152 18040156227605160955
20612939 158 18341609295932413149
20645477 70 18336263530596403614
21029758 11 18334859441299242344
21033648 29 17703525336993709053
21267235 1 18338228366897664358
21279426 13 18196373851636611343
21421861 104 17845104024774567186
21452121 103 18262247620956287792
21478907 32 17978791534672105274
221357 26 18411144658152786517
221490 88 18269267971996601650
23402539 116 18187654621233341207
23558518 356 17697881375782636922
23559900 14 18334297531271030752
2748010 2 17835518224699938918
3004659 81 18201152252600440726
335352 9 18410855456408370262
34934 24 18409453549118469650
350125 39 18410853296040287713
351380 180 18410857664074119125
3545911 37 18408602552218344891
4214541 1 18410573985779237579
495365 180 17458918037202211050
5104073 3 18339361859836987451
543358 83 18410570678459299324
602551 16 15984526811760627435
69090 78 18408045104297650719
7364860 26 18263926545194492504
7832392 63 18336551499668848838
9709674 26 18339077073440841427
9981440 41 17545608850874209208
9999458 23 18131633361331402990

> <PUBCHEM_SHAPE_MULTIPOLES>
368.42
10.33
2.29
0.6
10.15
0.73
0
0
0
-1.42
0
-0.03
-0.03
0

> <PUBCHEM_SHAPE_SELFOVERLAP>
815.216

> <PUBCHEM_SHAPE_VOLUME>
196.2

> <PUBCHEM_COORDINATE_TYPE>
2
5
10

$$$$

