12975
  -OEChem-06261207362D

 30 29  0     0  0  0  0  0  0999 V2000
    7.1962    0.9400    0.0000 O   0  0  0  0  0  0  0  0  0  0  0  0
    5.4641    0.9400    0.0000 N   0  0  0  0  0  0  0  0  0  0  0  0
    4.5981    1.4400    0.0000 C   0  0  0  0  0  0  0  0  0  0  0  0
    5.4641   -0.0600    0.0000 C   0  0  0  0  0  0  0  0  0  0  0  0
    3.7320    0.9400    0.0000 C   0  0  0  0  0  0  0  0  0  0  0  0
    4.5981   -0.5600    0.0000 C   0  0  0  0  0  0  0  0  0  0  0  0
    2.8660    1.4400    0.0000 C   0  0  0  0  0  0  0  0  0  0  0  0
    4.5981   -1.5600    0.0000 C   0  0  0  0  0  0  0  0  0  0  0  0
    2.0000    0.9400    0.0000 C   0  0  0  0  0  0  0  0  0  0  0  0
    3.7320   -2.0600    0.0000 C   0  0  0  0  0  0  0  0  0  0  0  0
    6.3301    1.4400    0.0000 C   0  0  0  0  0  0  0  0  0  0  0  0
    4.9966    1.9150    0.0000 H   0  0  0  0  0  0  0  0  0  0  0  0
    4.1996    1.9150    0.0000 H   0  0  0  0  0  0  0  0  0  0  0  0
    5.6762   -0.6426    0.0000 H   0  0  0  0  0  0  0  0  0  0  0  0
    6.0747    0.0477    0.0000 H   0  0  0  0  0  0  0  0  0  0  0  0
    4.3860    0.0226    0.0000 H   0  0  0  0  0  0  0  0  0  0  0  0
    3.9875   -0.6677    0.0000 H   0  0  0  0  0  0  0  0  0  0  0  0
    3.3335    0.4651    0.0000 H   0  0  0  0  0  0  0  0  0  0  0  0
    4.1306    0.4651    0.0000 H   0  0  0  0  0  0  0  0  0  0  0  0
    3.2646    1.9150    0.0000 H   0  0  0  0  0  0  0  0  0  0  0  0
    2.4675    1.9150    0.0000 H   0  0  0  0  0  0  0  0  0  0  0  0
    4.8101   -2.1426    0.0000 H   0  0  0  0  0  0  0  0  0  0  0  0
    5.2087   -1.4523    0.0000 H   0  0  0  0  0  0  0  0  0  0  0  0
    3.4220   -1.5231    0.0000 H   0  0  0  0  0  0  0  0  0  0  0  0
    3.1951   -2.3700    0.0000 H   0  0  0  0  0  0  0  0  0  0  0  0
    4.0420   -2.5969    0.0000 H   0  0  0  0  0  0  0  0  0  0  0  0
    1.6900    1.4769    0.0000 H   0  0  0  0  0  0  0  0  0  0  0  0
    1.4631    0.6300    0.0000 H   0  0  0  0  0  0  0  0  0  0  0  0
    2.3100    0.4031    0.0000 H   0  0  0  0  0  0  0  0  0  0  0  0
    6.3301    2.0600    0.0000 H   0  0  0  0  0  0  0  0  0  0  0  0
  1 11  2  0  0  0  0
  2  3  1  0  0  0  0
  2  4  1  0  0  0  0
  2 11  1  0  0  0  0
  3  5  1  0  0  0  0
  3 12  1  0  0  0  0
  3 13  1  0  0  0  0
  4  6  1  0  0  0  0
  4 14  1  0  0  0  0
  4 15  1  0  0  0  0
  5  7  1  0  0  0  0
  5 18  1  0  0  0  0
  5 19  1  0  0  0  0
  6  8  1  0  0  0  0
  6 16  1  0  0  0  0
  6 17  1  0  0  0  0
  7  9  1  0  0  0  0
  7 20  1  0  0  0  0
  7 21  1  0  0  0  0
  8 10  1  0  0  0  0
  8 22  1  0  0  0  0
  8 23  1  0  0  0  0
  9 27  1  0  0  0  0
  9 28  1  0  0  0  0
  9 29  1  0  0  0  0
 10 24  1  0  0  0  0
 10 25  1  0  0  0  0
 10 26  1  0  0  0  0
 11 30  1  0  0  0  0
M  END
> <PUBCHEM_COMPOUND_CID>
12975

> <PUBCHEM_COMPOUND_CANONICALIZED>
1

> <PUBCHEM_CACTVS_COMPLEXITY>
85.6

> <PUBCHEM_CACTVS_HBOND_ACCEPTOR>
1

> <PUBCHEM_CACTVS_HBOND_DONOR>
0

> <PUBCHEM_CACTVS_ROTATABLE_BOND>
6

> <PUBCHEM_CACTVS_SUBSKEYS>
AAADceByIAAAAAAAAAAAAAAAAAAAAAAAAAAAAAAAAAAAAAAAAAAAHgAAAAAACADBAAYCAAMAAAAIAAAAkAAAAAAAAAAAAAAIAAAAAAAAgAAEAAAABgCAAAAAAAAAAAAAAAAAAAAAAAAAAAAAAAAAAAAAAA==

> <PUBCHEM_IUPAC_OPENEYE_NAME>
N,N-dibutylformamide

> <PUBCHEM_IUPAC_CAS_NAME>
N,N-dibutylformamide

> <PUBCHEM_IUPAC_NAME>
N,N-dibutylformamide

> <PUBCHEM_IUPAC_SYSTEMATIC_NAME>
N,N-dibutylmethanamide

> <PUBCHEM_IUPAC_TRADITIONAL_NAME>
N,N-dibutylformamide

> <PUBCHEM_IUPAC_INCHI>
InChI=1S/C9H19NO/c1-3-5-7-10(9-11)8-6-4-2/h9H,3-8H2,1-2H3

> <PUBCHEM_IUPAC_INCHIKEY>
NZMAJUHVSZBJHL-UHFFFAOYSA-N

> <PUBCHEM_XLOGP3_AA>
2.2

> <PUBCHEM_EXACT_MASS>
157.146664

> <PUBCHEM_MOLECULAR_FORMULA>
C9H19NO

> <PUBCHEM_MOLECULAR_WEIGHT>
157.25326

> <PUBCHEM_OPENEYE_CAN_SMILES>
CCCCN(CCCC)C=O

> <PUBCHEM_OPENEYE_ISO_SMILES>
CCCCN(CCCC)C=O

> <PUBCHEM_CACTVS_TPSA>
20.3

> <PUBCHEM_MONOISOTOPIC_WEIGHT>
157.146664

> <PUBCHEM_TOTAL_CHARGE>
0

> <PUBCHEM_HEAVY_ATOM_COUNT>
11

> <PUBCHEM_ATOM_DEF_STEREO_COUNT>
0

> <PUBCHEM_ATOM_UDEF_STEREO_COUNT>
0

> <PUBCHEM_BOND_DEF_STEREO_COUNT>
0

> <PUBCHEM_BOND_UDEF_STEREO_COUNT>
0

> <PUBCHEM_ISOTOPIC_ATOM_COUNT>
0

> <PUBCHEM_COMPONENT_COUNT>
1

> <PUBCHEM_CACTVS_TAUTO_COUNT>
1

> <PUBCHEM_COORDINATE_TYPE>
1
5
255

$$$$

