440396
  -OEChem-07051212493D

 30 29  0     1  0  0  0  0  0999 V2000
    1.2417    2.0973   -1.1047 O   0  0  0  0  0  0  0  0  0  0  0  0
    0.5751   -1.4160    0.2843 O   0  0  0  0  0  0  0  0  0  0  0  0
   -1.7402    0.7743    0.3704 O   0  0  0  0  0  0  0  0  0  0  0  0
    2.6319   -0.6141   -0.3848 O   0  0  0  0  0  0  0  0  0  0  0  0
   -1.0046    0.8104   -1.8149 O   0  0  0  0  0  0  0  0  0  0  0  0
    1.1320    0.7839    0.9310 C   0  0  2  0  0  0  0  0  0  0  0  0
    0.3854    1.7142   -0.0383 C   0  0  2  0  0  0  0  0  0  0  0  0
    2.3410    1.4435    1.5976 C   0  0  0  0  0  0  0  0  0  0  0  0
    1.5601   -0.4738    0.1899 C   0  0  0  0  0  0  0  0  0  0  0  0
   -0.8445    1.0447   -0.6239 C   0  0  0  0  0  0  0  0  0  0  0  0
    0.8537   -2.6652   -0.3558 C   0  0  0  0  0  0  0  0  0  0  0  0
   -2.9637    0.1631   -0.0506 C   0  0  0  0  0  0  0  0  0  0  0  0
   -0.3266   -3.5929   -0.1612 C   0  0  0  0  0  0  0  0  0  0  0  0
   -3.8411   -0.0695    1.1609 C   0  0  0  0  0  0  0  0  0  0  0  0
    0.4590    0.4771    1.7430 H   0  0  0  0  0  0  0  0  0  0  0  0
    0.0663    2.6324    0.4666 H   0  0  0  0  0  0  0  0  0  0  0  0
    2.0314    2.3190    2.1775 H   0  0  0  0  0  0  0  0  0  0  0  0
    2.8386    0.7427    2.2768 H   0  0  0  0  0  0  0  0  0  0  0  0
    3.0827    1.7686    0.8602 H   0  0  0  0  0  0  0  0  0  0  0  0
    1.5197    1.2984   -1.5832 H   0  0  0  0  0  0  0  0  0  0  0  0
    1.0198   -2.4973   -1.4258 H   0  0  0  0  0  0  0  0  0  0  0  0
    1.7516   -3.1103    0.0869 H   0  0  0  0  0  0  0  0  0  0  0  0
   -3.4772    0.8231   -0.7585 H   0  0  0  0  0  0  0  0  0  0  0  0
   -2.7446   -0.7935   -0.5380 H   0  0  0  0  0  0  0  0  0  0  0  0
   -0.1472   -4.5600   -0.6391 H   0  0  0  0  0  0  0  0  0  0  0  0
   -0.5178   -3.7547    0.9048 H   0  0  0  0  0  0  0  0  0  0  0  0
   -1.2359   -3.1526   -0.5836 H   0  0  0  0  0  0  0  0  0  0  0  0
   -4.7873   -0.5371    0.8747 H   0  0  0  0  0  0  0  0  0  0  0  0
   -3.3331   -0.7140    1.8859 H   0  0  0  0  0  0  0  0  0  0  0  0
   -4.0534    0.8762    1.6703 H   0  0  0  0  0  0  0  0  0  0  0  0
  1  7  1  0  0  0  0
  1 20  1  0  0  0  0
  2  9  1  0  0  0  0
  2 11  1  0  0  0  0
  3 10  1  0  0  0  0
  3 12  1  0  0  0  0
  4  9  2  0  0  0  0
  5 10  2  0  0  0  0
  6  7  1  0  0  0  0
  6  8  1  0  0  0  0
  6  9  1  0  0  0  0
  6 15  1  0  0  0  0
  7 10  1  0  0  0  0
  7 16  1  0  0  0  0
  8 17  1  0  0  0  0
  8 18  1  0  0  0  0
  8 19  1  0  0  0  0
 11 13  1  0  0  0  0
 11 21  1  0  0  0  0
 11 22  1  0  0  0  0
 12 14  1  0  0  0  0
 12 23  1  0  0  0  0
 12 24  1  0  0  0  0
 13 25  1  0  0  0  0
 13 26  1  0  0  0  0
 13 27  1  0  0  0  0
 14 28  1  0  0  0  0
 14 29  1  0  0  0  0
 14 30  1  0  0  0  0
M  END
> <PUBCHEM_COMPOUND_CID>
440396

> <PUBCHEM_CONFORMER_RMSD>
0.8

> <PUBCHEM_CONFORMER_DIVERSEORDER>
1
17
53
61
37
46
63
26
75
34
58
44
14
67
20
60
25
81
69
59
72
15
86
29
16
52
51
6
11
64
83
62
13
3
28
47
74
82
22
50
9
27
33
78
19
41
21
40
24
8
12
76
77
48
73
18
84
4
43
55
39
70
42
31
66
65
54
49
38
7
30
45
5
71
85
10
56
35
2
57
80
68
32
79
23
36

> <PUBCHEM_MMFF94_PARTIAL_CHARGES>
12
1 -0.68
10 0.66
11 0.28
12 0.28
2 -0.43
20 0.4
3 -0.43
4 -0.57
5 -0.57
6 0.06
7 0.34
9 0.66

> <PUBCHEM_EFFECTIVE_ROTOR_COUNT>
7

> <PUBCHEM_PHARMACOPHORE_FEATURES>
5
1 1 acceptor
1 1 donor
1 4 acceptor
1 5 acceptor
1 8 hydrophobe

> <PUBCHEM_HEAVY_ATOM_COUNT>
14

> <PUBCHEM_ATOM_DEF_STEREO_COUNT>
2

> <PUBCHEM_ATOM_UDEF_STEREO_COUNT>
0

> <PUBCHEM_BOND_DEF_STEREO_COUNT>
0

> <PUBCHEM_BOND_UDEF_STEREO_COUNT>
0

> <PUBCHEM_ISOTOPIC_ATOM_COUNT>
0

> <PUBCHEM_COMPONENT_COUNT>
1

> <PUBCHEM_CACTVS_TAUTO_COUNT>
1

> <PUBCHEM_CONFORMER_ID>
0006B84C00000001

> <PUBCHEM_MMFF94_ENERGY>
10.7451

> <PUBCHEM_FEATURE_SELFOVERLAP>
25.379

> <PUBCHEM_SHAPE_FINGERPRINT>
10064457 181 18189597385634475219
11680611 10 17697620808748447058
13380536 167 17407127556067901896
14251717 144 18410859833112010799
14617773 55 17404032417871488040
14817 1 7959392144271213205
16945 1 18043266810171493128
20388701 513 16964647745790250522
20645477 70 18272647927482015771
21061003 4 18045794630411510562
22713034 7 18046369657929129879
23419403 2 15466421827405492214
23530152 11 18266167340901136175
2748010 2 18198361717062117156
2803657 2 16538187824779066011
53812653 11 18408598154330128350
568465 68 18263373631988746858
81228 2 17763769601687353402

> <PUBCHEM_SHAPE_MULTIPOLES>
258.77
4.05
3.19
1.28
3.78
3.98
-0.08
-1.14
1.67
-0.79
-0.38
-0.01
-0.66
0.37

> <PUBCHEM_SHAPE_SELFOVERLAP>
494.069

> <PUBCHEM_SHAPE_VOLUME>
159.5

> <PUBCHEM_COORDINATE_TYPE>
2
5
10

$$$$

