12736
  -OEChem-07051212473D

 38 37  0     0  0  0  0  0  0999 V2000
   -8.1308   -0.7156    0.0051 O   0  0  0  0  0  0  0  0  0  0  0  0
    8.0834    0.7506   -0.1146 O   0  0  0  0  0  0  0  0  0  0  0  0
   -7.1453    1.3264   -0.1026 O   0  0  0  0  0  0  0  0  0  0  0  0
    7.1388   -1.3192   -0.1101 O   0  0  0  0  0  0  0  0  0  0  0  0
   -0.6162   -0.4703    0.0690 C   0  0  0  0  0  0  0  0  0  0  0  0
    0.6421    0.4035    0.1248 C   0  0  0  0  0  0  0  0  0  0  0  0
   -1.9149    0.3378    0.0261 C   0  0  0  0  0  0  0  0  0  0  0  0
    1.9772   -0.3479    0.1074 C   0  0  0  0  0  0  0  0  0  0  0  0
   -3.1749   -0.5341    0.0486 C   0  0  0  0  0  0  0  0  0  0  0  0
    3.1970    0.5759    0.1081 C   0  0  0  0  0  0  0  0  0  0  0  0
   -4.5126    0.2153   -0.0133 C   0  0  0  0  0  0  0  0  0  0  0  0
    4.4992   -0.2251    0.0030 C   0  0  0  0  0  0  0  0  0  0  0  0
   -5.7569   -0.6727   -0.0563 C   0  0  0  0  0  0  0  0  0  0  0  0
    5.7368    0.6717    0.0321 C   0  0  0  0  0  0  0  0  0  0  0  0
   -7.0519    0.1073   -0.0668 C   0  0  0  0  0  0  0  0  0  0  0  0
    7.0293   -0.1034   -0.0603 C   0  0  0  0  0  0  0  0  0  0  0  0
   -0.6272   -1.1311    0.9444 H   0  0  0  0  0  0  0  0  0  0  0  0
   -0.5661   -1.1173   -0.8153 H   0  0  0  0  0  0  0  0  0  0  0  0
    0.6215    1.0956   -0.7269 H   0  0  0  0  0  0  0  0  0  0  0  0
    0.6001    1.0250    1.0283 H   0  0  0  0  0  0  0  0  0  0  0  0
   -1.9239    0.9594   -0.8775 H   0  0  0  0  0  0  0  0  0  0  0  0
   -1.9438    1.0230    0.8820 H   0  0  0  0  0  0  0  0  0  0  0  0
    2.0087   -0.9869   -0.7839 H   0  0  0  0  0  0  0  0  0  0  0  0
    2.0239   -1.0153    0.9766 H   0  0  0  0  0  0  0  0  0  0  0  0
   -3.1303   -1.2320   -0.7972 H   0  0  0  0  0  0  0  0  0  0  0  0
   -3.1627   -1.1496    0.9571 H   0  0  0  0  0  0  0  0  0  0  0  0
    3.2021    1.1743    1.0269 H   0  0  0  0  0  0  0  0  0  0  0  0
    3.1306    1.2750   -0.7341 H   0  0  0  0  0  0  0  0  0  0  0  0
   -4.5112    0.8656   -0.8976 H   0  0  0  0  0  0  0  0  0  0  0  0
   -4.5787    0.8854    0.8535 H   0  0  0  0  0  0  0  0  0  0  0  0
    4.4961   -0.8129   -0.9235 H   0  0  0  0  0  0  0  0  0  0  0  0
    4.5531   -0.9457    0.8289 H   0  0  0  0  0  0  0  0  0  0  0  0
   -5.7307   -1.2974   -0.9559 H   0  0  0  0  0  0  0  0  0  0  0  0
   -5.7632   -1.3242    0.8248 H   0  0  0  0  0  0  0  0  0  0  0  0
    5.7538    1.2454    0.9655 H   0  0  0  0  0  0  0  0  0  0  0  0
    5.6980    1.3700   -0.8117 H   0  0  0  0  0  0  0  0  0  0  0  0
   -8.9734   -0.2133    0.0144 H   0  0  0  0  0  0  0  0  0  0  0  0
    8.9372    0.2734   -0.1895 H   0  0  0  0  0  0  0  0  0  0  0  0
  1 15  1  0  0  0  0
  1 37  1  0  0  0  0
  2 16  1  0  0  0  0
  2 38  1  0  0  0  0
  3 15  2  0  0  0  0
  4 16  2  0  0  0  0
  5  6  1  0  0  0  0
  5  7  1  0  0  0  0
  5 17  1  0  0  0  0
  5 18  1  0  0  0  0
  6  8  1  0  0  0  0
  6 19  1  0  0  0  0
  6 20  1  0  0  0  0
  7  9  1  0  0  0  0
  7 21  1  0  0  0  0
  7 22  1  0  0  0  0
  8 10  1  0  0  0  0
  8 23  1  0  0  0  0
  8 24  1  0  0  0  0
  9 11  1  0  0  0  0
  9 25  1  0  0  0  0
  9 26  1  0  0  0  0
 10 12  1  0  0  0  0
 10 27  1  0  0  0  0
 10 28  1  0  0  0  0
 11 13  1  0  0  0  0
 11 29  1  0  0  0  0
 11 30  1  0  0  0  0
 12 14  1  0  0  0  0
 12 31  1  0  0  0  0
 12 32  1  0  0  0  0
 13 15  1  0  0  0  0
 13 33  1  0  0  0  0
 13 34  1  0  0  0  0
 14 16  1  0  0  0  0
 14 35  1  0  0  0  0
 14 36  1  0  0  0  0
M  END
> <PUBCHEM_COMPOUND_CID>
12736

> <PUBCHEM_CONFORMER_RMSD>
1

> <PUBCHEM_CONFORMER_DIVERSEORDER>
1
43
101
117
112
97
33
4
7
2
71
34
42
46
76
58
115
63
105
99
57
91
22
31
72
67
81
109
77
45
83
6
69
87
32
56
36
113
125
9
61
23
121
93
73
24
51
85
55
29
122
47
66
90
38
118
80
88
62
35
110
15
95
104
13
102
50
53
65
64
14
19
123
74
37
30
44
10
52
75
26
3
48
68
79
16
8
18
5
84
59
21
96
106
25
70
12
111
27
108
78
82
20
126
11
39
60
41
120
86
89
100
54
17
40
124
92
116
98
119
114
107
94
28
49
103

> <PUBCHEM_MMFF94_PARTIAL_CHARGES>
10
1 -0.65
13 0.06
14 0.06
15 0.66
16 0.66
2 -0.65
3 -0.57
37 0.5
38 0.5
4 -0.57

> <PUBCHEM_EFFECTIVE_ROTOR_COUNT>
11

> <PUBCHEM_PHARMACOPHORE_FEATURES>
6
1 1 acceptor
1 2 acceptor
1 3 acceptor
1 4 acceptor
3 1 3 15 anion
3 2 4 16 anion

> <PUBCHEM_HEAVY_ATOM_COUNT>
16

> <PUBCHEM_ATOM_DEF_STEREO_COUNT>
0

> <PUBCHEM_ATOM_UDEF_STEREO_COUNT>
0

> <PUBCHEM_BOND_DEF_STEREO_COUNT>
0

> <PUBCHEM_BOND_UDEF_STEREO_COUNT>
0

> <PUBCHEM_ISOTOPIC_ATOM_COUNT>
0

> <PUBCHEM_COMPONENT_COUNT>
1

> <PUBCHEM_CACTVS_TAUTO_COUNT>
1

> <PUBCHEM_CONFORMER_ID>
000031C000000001

> <PUBCHEM_MMFF94_ENERGY>
5.0266

> <PUBCHEM_FEATURE_SELFOVERLAP>
30.562

> <PUBCHEM_SHAPE_FINGERPRINT>
10066227 49 17895750824416227158
11315181 36 17967810527440553667
11638347 137 5039674747346866636
12091667 2 18409166602717199899
13533116 47 16845023393761197960
13885169 127 18410855486383496137
14123256 10 18410855464423129107
14251764 18 18410293622576544955
14251764 46 18410855455833200994
17834076 25 18411138034616500227
18006028 8 16660645158932768097
20281389 69 18272936024818625708
20621476 8 18131915983022118646
21315763 28 18409449168188556653
22224240 67 15626224598204337960
23521765 1 18335420162074738691
28498 318 18261392273808049838
33684 2 18412546513333087370
67123 10 18411136909340349975
8209 1 18410575080368111617

> <PUBCHEM_SHAPE_MULTIPOLES>
305.8
27.6
0.96
0.6
0.9
0
-0.01
0.14
1.38
-0.02
0.02
-0.01
0
0.09

> <PUBCHEM_SHAPE_SELFOVERLAP>
565.77

> <PUBCHEM_SHAPE_VOLUME>
191.5

> <PUBCHEM_COORDINATE_TYPE>
2
5
10

$$$$

