36709
  -OEChem-07051213043D

 54 57  0     1  0  0  0  0  0999 V2000
    5.1765    0.6001   -0.0692 O   0  0  0  0  0  0  0  0  0  0  0  0
   -6.2772   -0.8460    1.1503 O   0  0  0  0  0  0  0  0  0  0  0  0
    1.7655    0.0240   -0.3103 C   0  0  1  0  0  0  0  0  0  0  0  0
    0.7370    1.0536    0.2153 C   0  0  2  0  0  0  0  0  0  0  0  0
    2.9425    0.2532    0.6962 C   0  0  1  0  0  0  0  0  0  0  0  0
   -0.5371    1.1527   -0.6386 C   0  0  1  0  0  0  0  0  0  0  0  0
    1.5703    2.3139    0.4169 C   0  0  0  0  0  0  0  0  0  0  0  0
    2.9380    1.7964    0.8998 C   0  0  0  0  0  0  0  0  0  0  0  0
    1.0789   -1.3530   -0.2865 C   0  0  0  0  0  0  0  0  0  0  0  0
   -1.1909   -0.2396   -0.7343 C   0  0  0  0  0  0  0  0  0  0  0  0
   -0.2248   -1.3600   -1.1076 C   0  0  0  0  0  0  0  0  0  0  0  0
    2.2350    0.3368   -1.7633 C   0  0  0  0  0  0  0  0  0  0  0  0
   -1.4733    2.2336   -0.0692 C   0  0  0  0  0  0  0  0  0  0  0  0
    2.7909   -0.4574    2.0517 C   0  0  0  0  0  0  0  0  0  0  0  0
    4.2726   -0.2038    0.1536 C   0  0  0  0  0  0  0  0  0  0  0  0
   -2.5203   -0.4189   -0.5304 C   0  0  0  0  0  0  0  0  0  0  0  0
   -2.8783    2.0819   -0.6291 C   0  0  0  0  0  0  0  0  0  0  0  0
   -3.4110    0.7204   -0.2700 C   0  0  0  0  0  0  0  0  0  0  0  0
    4.4169   -1.6941   -0.0939 C   0  0  0  0  0  0  0  0  0  0  0  0
   -3.2525   -1.7421   -0.6096 C   0  0  0  0  0  0  0  0  0  0  0  0
   -4.6400    0.5868    0.2555 C   0  0  0  0  0  0  0  0  0  0  0  0
   -4.2185   -1.9227    0.5556 C   0  0  0  0  0  0  0  0  0  0  0  0
    5.8502   -2.1739    0.0461 C   0  0  0  0  0  0  0  0  0  0  0  0
   -5.1504   -0.7419    0.6710 C   0  0  0  0  0  0  0  0  0  0  0  0
    0.4085    0.7352    1.2177 H   0  0  0  0  0  0  0  0  0  0  0  0
   -0.2850    1.4629   -1.6600 H   0  0  0  0  0  0  0  0  0  0  0  0
    1.1216    2.9895    1.1524 H   0  0  0  0  0  0  0  0  0  0  0  0
    1.6814    2.8730   -0.5192 H   0  0  0  0  0  0  0  0  0  0  0  0
    3.7171    2.3288    0.3443 H   0  0  0  0  0  0  0  0  0  0  0  0
    3.0828    2.0571    1.9552 H   0  0  0  0  0  0  0  0  0  0  0  0
    0.8166   -1.6417    0.7378 H   0  0  0  0  0  0  0  0  0  0  0  0
    1.7415   -2.1328   -0.6748 H   0  0  0  0  0  0  0  0  0  0  0  0
   -0.6652   -2.3521   -0.9938 H   0  0  0  0  0  0  0  0  0  0  0  0
    0.0080   -1.2667   -2.1750 H   0  0  0  0  0  0  0  0  0  0  0  0
    2.8575   -0.4657   -2.1683 H   0  0  0  0  0  0  0  0  0  0  0  0
    1.4038    0.4503   -2.4636 H   0  0  0  0  0  0  0  0  0  0  0  0
    2.8182    1.2615   -1.8234 H   0  0  0  0  0  0  0  0  0  0  0  0
   -1.0852    3.2289   -0.3172 H   0  0  0  0  0  0  0  0  0  0  0  0
   -1.5096    2.1737    1.0272 H   0  0  0  0  0  0  0  0  0  0  0  0
    3.6983   -0.3402    2.6578 H   0  0  0  0  0  0  0  0  0  0  0  0
    1.9690   -0.0280    2.6356 H   0  0  0  0  0  0  0  0  0  0  0  0
    2.5907   -1.5287    1.9844 H   0  0  0  0  0  0  0  0  0  0  0  0
   -2.8674    2.1980   -1.7202 H   0  0  0  0  0  0  0  0  0  0  0  0
   -3.5140    2.8807   -0.2287 H   0  0  0  0  0  0  0  0  0  0  0  0
    3.8099   -2.2880    0.5875 H   0  0  0  0  0  0  0  0  0  0  0  0
    4.0772   -1.9115   -1.1099 H   0  0  0  0  0  0  0  0  0  0  0  0
   -3.8117   -1.7692   -1.5549 H   0  0  0  0  0  0  0  0  0  0  0  0
   -2.5866   -2.6065   -0.6206 H   0  0  0  0  0  0  0  0  0  0  0  0
   -5.2879    1.4396    0.4271 H   0  0  0  0  0  0  0  0  0  0  0  0
   -3.6792   -2.0299    1.5035 H   0  0  0  0  0  0  0  0  0  0  0  0
   -4.8176   -2.8252    0.3920 H   0  0  0  0  0  0  0  0  0  0  0  0
    5.9120   -3.2527   -0.1274 H   0  0  0  0  0  0  0  0  0  0  0  0
    6.2356   -1.9633    1.0491 H   0  0  0  0  0  0  0  0  0  0  0  0
    6.5057   -1.6756   -0.6757 H   0  0  0  0  0  0  0  0  0  0  0  0
  1 15  2  0  0  0  0
  2 24  2  0  0  0  0
  3  4  1  0  0  0  0
  3  5  1  0  0  0  0
  3  9  1  0  0  0  0
  3 12  1  0  0  0  0
  4  6  1  0  0  0  0
  4  7  1  0  0  0  0
  4 25  1  0  0  0  0
  5  8  1  0  0  0  0
  5 14  1  0  0  0  0
  5 15  1  0  0  0  0
  6 10  1  0  0  0  0
  6 13  1  0  0  0  0
  6 26  1  0  0  0  0
  7  8  1  0  0  0  0
  7 27  1  0  0  0  0
  7 28  1  0  0  0  0
  8 29  1  0  0  0  0
  8 30  1  0  0  0  0
  9 11  1  0  0  0  0
  9 31  1  0  0  0  0
  9 32  1  0  0  0  0
 10 11  1  0  0  0  0
 10 16  2  0  0  0  0
 11 33  1  0  0  0  0
 11 34  1  0  0  0  0
 12 35  1  0  0  0  0
 12 36  1  0  0  0  0
 12 37  1  0  0  0  0
 13 17  1  0  0  0  0
 13 38  1  0  0  0  0
 13 39  1  0  0  0  0
 14 40  1  0  0  0  0
 14 41  1  0  0  0  0
 14 42  1  0  0  0  0
 15 19  1  0  0  0  0
 16 18  1  0  0  0  0
 16 20  1  0  0  0  0
 17 18  1  0  0  0  0
 17 43  1  0  0  0  0
 17 44  1  0  0  0  0
 18 21  2  0  0  0  0
 19 23  1  0  0  0  0
 19 45  1  0  0  0  0
 19 46  1  0  0  0  0
 20 22  1  0  0  0  0
 20 47  1  0  0  0  0
 20 48  1  0  0  0  0
 21 24  1  0  0  0  0
 21 49  1  0  0  0  0
 22 24  1  0  0  0  0
 22 50  1  0  0  0  0
 22 51  1  0  0  0  0
 23 52  1  0  0  0  0
 23 53  1  0  0  0  0
 23 54  1  0  0  0  0
M  END
> <PUBCHEM_COMPOUND_CID>
36709

> <PUBCHEM_CONFORMER_RMSD>
0.6

> <PUBCHEM_CONFORMER_DIVERSEORDER>
1
3
2

> <PUBCHEM_MMFF94_PARTIAL_CHARGES>
16
1 -0.57
10 -0.28
11 0.14
15 0.45
16 -0.14
17 0.14
18 -0.14
19 0.06
2 -0.57
20 0.14
21 -0.14
22 0.06
24 0.49
49 0.15
5 0.06
6 0.14

> <PUBCHEM_EFFECTIVE_ROTOR_COUNT>
3.8

> <PUBCHEM_PHARMACOPHORE_FEATURES>
7
1 1 acceptor
1 2 acceptor
1 23 hydrophobe
5 3 4 5 7 8 rings
6 16 18 20 21 22 24 rings
6 3 4 6 9 10 11 rings
6 6 10 13 16 17 18 rings

> <PUBCHEM_HEAVY_ATOM_COUNT>
24

> <PUBCHEM_ATOM_DEF_STEREO_COUNT>
4

> <PUBCHEM_ATOM_UDEF_STEREO_COUNT>
0

> <PUBCHEM_BOND_DEF_STEREO_COUNT>
0

> <PUBCHEM_BOND_UDEF_STEREO_COUNT>
0

> <PUBCHEM_ISOTOPIC_ATOM_COUNT>
0

> <PUBCHEM_COMPONENT_COUNT>
1

> <PUBCHEM_CACTVS_TAUTO_COUNT>
10

> <PUBCHEM_CONFORMER_ID>
00008F6500000001

> <PUBCHEM_MMFF94_ENERGY>
71.6219

> <PUBCHEM_FEATURE_SELFOVERLAP>
35.623

> <PUBCHEM_SHAPE_FINGERPRINT>
11045977 3 18412827984473714731
11089746 13 16008751316600321235
11552529 35 17533222959940706087
12035758 1 17822023038172050906
12236239 1 17846495958933991356
12403259 226 18408612439270373325
12403259 415 18187090546088399400
12553582 1 18342752796810134139
12633257 1 17095523963564424051
12670546 177 12463567370289862243
13009979 54 18201991166296345556
13140716 1 18190460463712743471
13224815 77 18343022168637621989
13583140 156 17916049934814755117
13675066 3 18187375319699732768
14178342 30 18116986883160788017
14341114 176 18410009935696977664
14420673 8 18265049313595903382
14790565 3 17401485944647513856
15196674 1 18408889546465472748
15209289 33 18272373070195528467
15295992 7 16733277758712720274
15475509 84 17676199208351671728
15788980 27 18411141333452148591
17349148 13 17132114645353258657
17804303 29 18409168822202650181
17980427 23 6122198945874474106
1813 80 17561366170917451293
18769570 83 5112005019319456155
19591789 44 18408890646124930110
19862831 5 9799700307035012277
200 152 14333414445525353429
20028762 73 18041848307345084247
20261772 1 18260832562043704807
20739085 24 18338792304382444493
21033648 29 17532109317558926553
21267235 1 18336260241379240630
21682296 61 17896596374390231798
221490 88 18410295804926482960
22182313 1 17896596374152270468
22950370 63 18412543219435997702
23522609 53 18122310623662462541
23559900 14 18413114948160627957
2838139 119 14996557461037800257
312423 11 18201992218626590789
335352 9 18335706091265196045
3472631 163 7276823576269531378
350125 39 18408601457154899148
465052 167 18411412895444035715
474 4 4895554108187313237
5104073 3 18335146435831096968
7495541 125 18334576837226148112

> <PUBCHEM_SHAPE_MULTIPOLES>
482.17
11.85
2.37
1.21
2.27
0.35
-0.14
-5.77
-3.12
-0.18
-0.03
-0.31
-0.09
0.7

> <PUBCHEM_SHAPE_SELFOVERLAP>
1037.823

> <PUBCHEM_SHAPE_VOLUME>
265.7

> <PUBCHEM_COORDINATE_TYPE>
2
5
10

$$$$

