3742
  -OEChem-06251223383D

 64 65  0     0  0  0  0  0  0999 V2000
   -4.4978    2.7657    2.0059 I   0  0  0  0  0  0  0  0  0  0  0  0
   -7.6282   -1.4936   -1.0461 I   0  0  0  0  0  0  0  0  0  0  0  0
   -1.5256   -1.6748   -0.9492 I   0  0  0  0  0  0  0  0  0  0  0  0
    3.8711    2.8437   -1.2503 I   0  0  0  0  0  0  0  0  0  0  0  0
    1.5180   -1.3721    2.4840 I   0  0  0  0  0  0  0  0  0  0  0  0
    7.0905   -2.1614    0.1160 I   0  0  0  0  0  0  0  0  0  0  0  0
   -1.5434    0.5973    1.9255 O   0  0  0  0  0  0  0  0  0  0  0  0
    1.0298    1.4535   -1.4914 O   0  0  0  0  0  0  0  0  0  0  0  0
   -4.5697   -2.3931   -2.8536 O   0  0  0  0  0  0  0  0  0  0  0  0
   -8.6769    2.6106    0.2525 O   0  0  0  0  0  0  0  0  0  0  0  0
    6.3372    0.3914   -2.4033 O   0  0  0  0  0  0  0  0  0  0  0  0
    3.9292   -3.7641    1.0846 O   0  0  0  0  0  0  0  0  0  0  0  0
    9.9923    0.9512    0.0915 O   0  0  0  0  0  0  0  0  0  0  0  0
    4.8533   -2.8674    2.9576 O   0  0  0  0  0  0  0  0  0  0  0  0
   -6.9494    1.0864    0.7605 N   0  0  0  0  0  0  0  0  0  0  0  0
   -1.4576    1.8986    0.0082 N   0  0  0  0  0  0  0  0  0  0  0  0
    1.8246    1.3079    0.7145 N   0  0  0  0  0  0  0  0  0  0  0  0
    7.2595    1.5053   -0.5907 N   0  0  0  0  0  0  0  0  0  0  0  0
   -4.6179   -3.7114   -0.9467 N   0  0  0  0  0  0  0  0  0  0  0  0
   -5.7461    0.4735    0.3818 C   0  0  0  0  0  0  0  0  0  0  0  0
   -3.3316    0.4018    0.4212 C   0  0  0  0  0  0  0  0  0  0  0  0
   -4.5283    1.0113    0.7980 C   0  0  0  0  0  0  0  0  0  0  0  0
   -4.5705   -1.2834   -0.7878 C   0  0  0  0  0  0  0  0  0  0  0  0
   -5.7671   -0.6739   -0.4112 C   0  0  0  0  0  0  0  0  0  0  0  0
   -3.3526   -0.7455   -0.3718 C   0  0  0  0  0  0  0  0  0  0  0  0
    3.0008    0.5325    0.5802 C   0  0  0  0  0  0  0  0  0  0  0  0
   -2.0536    0.9663    0.8584 C   0  0  0  0  0  0  0  0  0  0  0  0
    5.2058    0.2207   -0.3566 C   0  0  0  0  0  0  0  0  0  0  0  0
   -0.1863    2.5262    0.2884 C   0  0  0  0  0  0  0  0  0  0  0  0
    4.0465    0.9850   -0.2243 C   0  0  0  0  0  0  0  0  0  0  0  0
    3.1144   -0.6843    1.2526 C   0  0  0  0  0  0  0  0  0  0  0  0
    4.2737   -1.4486    1.1205 C   0  0  0  0  0  0  0  0  0  0  0  0
    5.3194   -0.9960    0.3159 C   0  0  0  0  0  0  0  0  0  0  0  0
    0.9492    1.7037   -0.2932 C   0  0  0  0  0  0  0  0  0  0  0  0
   -7.6446    0.5804    1.9803 C   0  0  0  0  0  0  0  0  0  0  0  0
   -4.5932   -2.4886   -1.6184 C   0  0  0  0  0  0  0  0  0  0  0  0
   -7.5822    2.1105   -0.0183 C   0  0  0  0  0  0  0  0  0  0  0  0
    6.3020    0.6951   -1.2026 C   0  0  0  0  0  0  0  0  0  0  0  0
    8.3868    2.0702   -1.2970 C   0  0  0  0  0  0  0  0  0  0  0  0
   -6.8451    2.6372   -1.2284 C   0  0  0  0  0  0  0  0  0  0  0  0
    4.3927   -2.7256    1.8261 C   0  0  0  0  0  0  0  0  0  0  0  0
    9.5896    1.1454   -1.2580 C   0  0  0  0  0  0  0  0  0  0  0  0
   -4.6186   -4.9875   -1.6252 C   0  0  0  0  0  0  0  0  0  0  0  0
   -0.1815    3.5076   -0.1964 H   0  0  0  0  0  0  0  0  0  0  0  0
   -0.0846    2.6774    1.3674 H   0  0  0  0  0  0  0  0  0  0  0  0
   -1.9246    2.1397   -0.8615 H   0  0  0  0  0  0  0  0  0  0  0  0
    1.4064    1.2454    1.6410 H   0  0  0  0  0  0  0  0  0  0  0  0
   -8.6532    0.2598    1.7041 H   0  0  0  0  0  0  0  0  0  0  0  0
   -7.0899   -0.2463    2.4327 H   0  0  0  0  0  0  0  0  0  0  0  0
   -7.7305    1.4084    2.6900 H   0  0  0  0  0  0  0  0  0  0  0  0
    7.1677    1.7120    0.3999 H   0  0  0  0  0  0  0  0  0  0  0  0
    8.6191    3.0182   -0.8008 H   0  0  0  0  0  0  0  0  0  0  0  0
    8.0992    2.2760   -2.3329 H   0  0  0  0  0  0  0  0  0  0  0  0
   -5.9570    3.1931   -0.9230 H   0  0  0  0  0  0  0  0  0  0  0  0
   -7.4995    3.3146   -1.7858 H   0  0  0  0  0  0  0  0  0  0  0  0
   -6.5614    1.8222   -1.8978 H   0  0  0  0  0  0  0  0  0  0  0  0
   -4.6559   -3.7145    0.0685 H   0  0  0  0  0  0  0  0  0  0  0  0
    9.3545    0.1696   -1.6947 H   0  0  0  0  0  0  0  0  0  0  0  0
   10.4254    1.5881   -1.8085 H   0  0  0  0  0  0  0  0  0  0  0  0
   -5.6558   -5.3060   -1.7547 H   0  0  0  0  0  0  0  0  0  0  0  0
   -4.0870   -5.7104   -1.0021 H   0  0  0  0  0  0  0  0  0  0  0  0
   -4.1339   -4.9062   -2.6011 H   0  0  0  0  0  0  0  0  0  0  0  0
    4.0099   -4.6182    1.5604 H   0  0  0  0  0  0  0  0  0  0  0  0
   10.7645    0.3603    0.0763 H   0  0  0  0  0  0  0  0  0  0  0  0
  1 22  1  0  0  0  0
  2 24  1  0  0  0  0
  3 25  1  0  0  0  0
  4 30  1  0  0  0  0
  5 31  1  0  0  0  0
  6 33  1  0  0  0  0
  7 27  2  0  0  0  0
  8 34  2  0  0  0  0
  9 36  2  0  0  0  0
 10 37  2  0  0  0  0
 11 38  2  0  0  0  0
 12 41  1  0  0  0  0
 12 63  1  0  0  0  0
 13 42  1  0  0  0  0
 13 64  1  0  0  0  0
 14 41  2  0  0  0  0
 15 20  1  0  0  0  0
 15 35  1  0  0  0  0
 15 37  1  0  0  0  0
 16 27  1  0  0  0  0
 16 29  1  0  0  0  0
 16 46  1  0  0  0  0
 17 26  1  0  0  0  0
 17 34  1  0  0  0  0
 17 47  1  0  0  0  0
 18 38  1  0  0  0  0
 18 39  1  0  0  0  0
 18 51  1  0  0  0  0
 19 36  1  0  0  0  0
 19 43  1  0  0  0  0
 19 57  1  0  0  0  0
 20 22  1  0  0  0  0
 20 24  2  0  0  0  0
 21 22  2  0  0  0  0
 21 25  1  0  0  0  0
 21 27  1  0  0  0  0
 23 24  1  0  0  0  0
 23 25  2  0  0  0  0
 23 36  1  0  0  0  0
 26 30  2  0  0  0  0
 26 31  1  0  0  0  0
 28 30  1  0  0  0  0
 28 33  2  0  0  0  0
 28 38  1  0  0  0  0
 29 34  1  0  0  0  0
 29 44  1  0  0  0  0
 29 45  1  0  0  0  0
 31 32  2  0  0  0  0
 32 33  1  0  0  0  0
 32 41  1  0  0  0  0
 35 48  1  0  0  0  0
 35 49  1  0  0  0  0
 35 50  1  0  0  0  0
 37 40  1  0  0  0  0
 39 42  1  0  0  0  0
 39 52  1  0  0  0  0
 39 53  1  0  0  0  0
 40 54  1  0  0  0  0
 40 55  1  0  0  0  0
 40 56  1  0  0  0  0
 42 58  1  0  0  0  0
 42 59  1  0  0  0  0
 43 60  1  0  0  0  0
 43 61  1  0  0  0  0
 43 62  1  0  0  0  0
M  END
> <PUBCHEM_COMPOUND_CID>
3742

> <PUBCHEM_CONFORMER_RMSD>
1.4

> <PUBCHEM_CONFORMER_DIVERSEORDER>
9
76
18
55
68
75
62
47
56
59
45
25
36
29
51
14
38
65
5
60
23
42
44
69
27
64
35
10
41
66
43
19
61
71
73
49
34
46
15
39
30
6
28
67
72
20
1
50
22
12
8
21
26
48
74
7
63
3
16
32
37
24
70
40
17
2
58
33
52
53
31
57
4
13
11
54

> <PUBCHEM_MMFF94_PARTIAL_CHARGES>
49
1 -0.08
10 -0.57
11 -0.57
12 -0.65
13 -0.68
14 -0.57
15 -0.48
16 -0.73
17 -0.55
18 -0.73
19 -0.73
2 -0.08
20 0.12
21 0.09
22 0.08
23 0.09
24 0.08
25 0.08
26 0.12
27 0.54
28 0.09
29 0.36
3 -0.08
30 0.08
31 0.08
32 0.09
33 0.08
34 0.57
35 0.3
36 0.54
37 0.57
38 0.54
39 0.3
4 -0.08
40 0.06
41 0.63
42 0.28
43 0.3
46 0.37
47 0.37
5 -0.08
51 0.37
57 0.37
6 -0.08
63 0.5
64 0.4
7 -0.57
8 -0.57
9 -0.57

> <PUBCHEM_EFFECTIVE_ROTOR_COUNT>
15

> <PUBCHEM_PHARMACOPHORE_FEATURES>
22
1 1 hydrophobe
1 10 acceptor
1 11 acceptor
1 12 acceptor
1 13 acceptor
1 13 donor
1 14 acceptor
1 16 donor
1 17 donor
1 18 donor
1 19 donor
1 2 hydrophobe
1 3 hydrophobe
1 4 hydrophobe
1 5 hydrophobe
1 6 hydrophobe
1 7 acceptor
1 8 acceptor
1 9 acceptor
3 12 14 41 anion
6 20 21 22 23 24 25 rings
6 26 28 30 31 32 33 rings

> <PUBCHEM_HEAVY_ATOM_COUNT>
43

> <PUBCHEM_ATOM_DEF_STEREO_COUNT>
0

> <PUBCHEM_ATOM_UDEF_STEREO_COUNT>
0

> <PUBCHEM_BOND_DEF_STEREO_COUNT>
0

> <PUBCHEM_BOND_UDEF_STEREO_COUNT>
0

> <PUBCHEM_ISOTOPIC_ATOM_COUNT>
0

> <PUBCHEM_COMPONENT_COUNT>
1

> <PUBCHEM_CACTVS_TAUTO_COUNT>
16

> <PUBCHEM_CONFORMER_ID>
00000E9E00000009

> <PUBCHEM_MMFF94_ENERGY>
187.7452

> <PUBCHEM_FEATURE_SELFOVERLAP>
111.697

> <PUBCHEM_SHAPE_FINGERPRINT>
10622 236 18263939764761263303
11135926 11 17918275320969784554
117089 54 17976821978751094423
12144603 126 18411414024931140584
13782708 43 16226619468282574711
13811026 1 17989200469096029064
13947947 19 18334581252436555063
14394314 77 18412823581943111813
15001296 14 18337117756509529330
15064981 113 18044105764231889933
15183329 4 18333730251954087129
15276724 80 18060139881653311973
15328829 1 18340756104995369245
1577012 14 18411140238103774995
19304144 158 12463305690938685979
21772528 278 17632571648325168843
21781055 127 17604982789040257377
23516275 137 18192406757733957395
23522609 53 18194374871042614832
23559900 14 17458629961146324441
335507 130 17988922258532203972
3383291 50 16588315960723640791
44802255 64 18413109490275014565
4625314 4 18260549987946302060
49967989 163 17967801739589591981
5085150 59 17676779725638938655
6691757 9 17676477355682833731

> <PUBCHEM_SHAPE_MULTIPOLES>
884.67
28.57
4.44
2.26
17.49
3.35
-0.64
-6.54
7.18
-3.56
0.82
0.31
0.97
-7.38

> <PUBCHEM_SHAPE_SELFOVERLAP>
1736.584

> <PUBCHEM_SHAPE_VOLUME>
546.7

> <PUBCHEM_COORDINATE_TYPE>
2
5
10

$$$$

