7586
  -OEChem-07051213133D

 30 32  0     1  0  0  0  0  0999 V2000
   -5.8165   -0.5974   -0.0216 O   0  0  0  0  0  0  0  0  0  0  0  0
    5.8166   -0.5974    0.0214 O   0  0  0  0  0  0  0  0  0  0  0  0
   -2.3666   -0.3353   -0.3100 O   0  0  0  0  0  0  0  0  0  0  0  0
    2.3666   -0.3352    0.3100 O   0  0  0  0  0  0  0  0  0  0  0  0
   -4.5334   -0.7485    0.5904 C   0  0  1  0  0  0  0  0  0  0  0  0
    4.5334   -0.7486   -0.5904 C   0  0  1  0  0  0  0  0  0  0  0  0
   -5.0414   -1.7391   -0.4096 C   0  0  0  0  0  0  0  0  0  0  0  0
    5.0414   -1.7390    0.4096 C   0  0  0  0  0  0  0  0  0  0  0  0
   -3.5521    0.2931    0.1753 C   0  0  0  0  0  0  0  0  0  0  0  0
    3.5521    0.2932   -0.1754 C   0  0  0  0  0  0  0  0  0  0  0  0
   -1.1978    0.3449   -0.1568 C   0  0  0  0  0  0  0  0  0  0  0  0
    1.1978    0.3449    0.1569 C   0  0  0  0  0  0  0  0  0  0  0  0
   -0.0001   -0.3526    0.0001 C   0  0  0  0  0  0  0  0  0  0  0  0
   -1.1977    1.7399   -0.1568 C   0  0  0  0  0  0  0  0  0  0  0  0
    1.1977    1.7398    0.1568 C   0  0  0  0  0  0  0  0  0  0  0  0
    0.0000    2.4373    0.0000 C   0  0  0  0  0  0  0  0  0  0  0  0
   -4.4737   -1.0383    1.6293 H   0  0  0  0  0  0  0  0  0  0  0  0
    4.4736   -1.0385   -1.6293 H   0  0  0  0  0  0  0  0  0  0  0  0
   -4.6237   -1.7427   -1.4080 H   0  0  0  0  0  0  0  0  0  0  0  0
   -5.3654   -2.7071   -0.0499 H   0  0  0  0  0  0  0  0  0  0  0  0
    4.6239   -1.7424    1.4080 H   0  0  0  0  0  0  0  0  0  0  0  0
    5.3654   -2.7070    0.0502 H   0  0  0  0  0  0  0  0  0  0  0  0
   -3.3525    0.9166    1.0562 H   0  0  0  0  0  0  0  0  0  0  0  0
   -3.9647    0.9251   -0.6205 H   0  0  0  0  0  0  0  0  0  0  0  0
    3.3525    0.9164   -1.0564 H   0  0  0  0  0  0  0  0  0  0  0  0
    3.9648    0.9252    0.6204 H   0  0  0  0  0  0  0  0  0  0  0  0
   -0.0001   -1.4398    0.0001 H   0  0  0  0  0  0  0  0  0  0  0  0
   -2.1031    2.3215   -0.3021 H   0  0  0  0  0  0  0  0  0  0  0  0
    2.1032    2.3214    0.3020 H   0  0  0  0  0  0  0  0  0  0  0  0
    0.0000    3.5235    0.0000 H   0  0  0  0  0  0  0  0  0  0  0  0
  1  5  1  0  0  0  0
  1  7  1  0  0  0  0
  2  6  1  0  0  0  0
  2  8  1  0  0  0  0
  3  9  1  0  0  0  0
  3 11  1  0  0  0  0
  4 10  1  0  0  0  0
  4 12  1  0  0  0  0
  5  7  1  0  0  0  0
  5  9  1  0  0  0  0
  5 17  1  0  0  0  0
  6  8  1  0  0  0  0
  6 10  1  0  0  0  0
  6 18  1  0  0  0  0
  7 19  1  0  0  0  0
  7 20  1  0  0  0  0
  8 21  1  0  0  0  0
  8 22  1  0  0  0  0
  9 23  1  0  0  0  0
  9 24  1  0  0  0  0
 10 25  1  0  0  0  0
 10 26  1  0  0  0  0
 11 13  2  0  0  0  0
 11 14  1  0  0  0  0
 12 13  1  0  0  0  0
 12 15  2  0  0  0  0
 13 27  1  0  0  0  0
 14 16  2  0  0  0  0
 14 28  1  0  0  0  0
 15 16  1  0  0  0  0
 15 29  1  0  0  0  0
 16 30  1  0  0  0  0
M  END
> <PUBCHEM_COMPOUND_CID>
7586

> <PUBCHEM_CONFORMER_RMSD>
0.8

> <PUBCHEM_CONFORMER_DIVERSEORDER>
3
89
102
100
5
37
47
90
6
26
21
27
97
4
83
56
77
61
57
15
99
92
8
36
17
10
78
96
39
88
68
55
103
40
75
74
51
9
64
28
76
98
42
30
12
22
48
70
59
54
38
29
94
20
13
85
7
41
82
87
33
72
34
43
14
49
71
80
11
84
31
35
2
95
50
69
91
53
52
16
1
65
19
62
101
63
86
45
18
93
60
58
81
66
46
24
23
73
79
44
67
25
32

> <PUBCHEM_MMFF94_PARTIAL_CHARGES>
26
1 -0.3
10 0.38
11 0.08
12 0.08
13 -0.15
14 -0.15
15 -0.15
16 -0.15
17 0.1
18 0.1
19 0.1
2 -0.3
20 0.1
21 0.1
22 0.1
27 0.15
28 0.15
29 0.15
3 -0.36
30 0.15
4 -0.36
5 -0.05
6 -0.05
7 -0.05
8 -0.05
9 0.38

> <PUBCHEM_EFFECTIVE_ROTOR_COUNT>
7.2

> <PUBCHEM_PHARMACOPHORE_FEATURES>
5
1 1 acceptor
1 2 acceptor
1 3 acceptor
1 4 acceptor
6 11 12 13 14 15 16 rings

> <PUBCHEM_HEAVY_ATOM_COUNT>
16

> <PUBCHEM_ATOM_DEF_STEREO_COUNT>
0

> <PUBCHEM_ATOM_UDEF_STEREO_COUNT>
2

> <PUBCHEM_BOND_DEF_STEREO_COUNT>
0

> <PUBCHEM_BOND_UDEF_STEREO_COUNT>
0

> <PUBCHEM_ISOTOPIC_ATOM_COUNT>
0

> <PUBCHEM_COMPONENT_COUNT>
1

> <PUBCHEM_CACTVS_TAUTO_COUNT>
1

> <PUBCHEM_CONFORMER_ID>
00001DA200000003

> <PUBCHEM_MMFF94_ENERGY>
52.6348

> <PUBCHEM_FEATURE_SELFOVERLAP>
25.372

> <PUBCHEM_SHAPE_FINGERPRINT>
100836 57 9079114466434316706
117890 112 9655576305570376334
12032990 46 18410575084663423204
12596602 18 16732982024645436818
12714333 28 13686297967650475830
12841375 25 18411982450978153981
12892183 10 15647603574992701426
13288520 33 18410009953124766661
13685833 64 18341608188395236291
13690532 89 18410854356326841473
13740256 8 18411135809960714383
13862211 1 18410858762958532099
13955234 65 18120370952027990680
14251752 14 17775012340246791917
14252887 29 17676478480305174534
15048467 5 9583522010072651911
15188451 53 16733275539164233343
17492 89 18122345937727387670
1813 80 18336533980423616844
18222031 100 18337400365647743571
187816 3 17632573855293844744
19141452 34 17821732706271214719
19784866 140 18131355232086743307
200 152 18131349730349584000
20028762 73 17967819288895250487
20374829 77 18412546522181478247
20388580 30 18272365348092497156
20645477 70 18270403768029976175
20871999 31 17131839789264276573
21267235 1 18410847767841910054
212847 35 9871750178969610134
221490 88 18054502509380124275
22182313 1 18198086744645540852
22950370 63 18410852165888284743
2297311 6 18187635960338775452
23402539 116 18410858793107179741
23402655 69 11743844651039076065
23559900 14 17846215488679064369
2767999 5 9367345911927636942
2838139 119 11095883739755284914
3004659 81 18059855073928989998
314194 84 18411132502793958483
351380 3 18410859862470146894
4259306 186 18272936032991724943
4463277 17 18410854364911878085
465052 167 18335696113771434479
5104073 3 18260828202398984897
77188 2 18409730638264496041
83771 10 18409449189093674444
8863177 126 17843108226560744419

> <PUBCHEM_SHAPE_MULTIPOLES>
305.8
12.66
1.96
0.68
0
0.79
0
-9.66
0
0
0
0
-0.06
-0.24

> <PUBCHEM_SHAPE_SELFOVERLAP>
635.481

> <PUBCHEM_SHAPE_VOLUME>
176.2

> <PUBCHEM_COORDINATE_TYPE>
2
5
10

$$$$

