193396
  -OEChem-07051213102D

 74 77  0     1  0  0  0  0  0999 V2000
    7.4149   -3.6324    0.0000 O   0  0  0  0  0  0  0  0  0  0  0  0
    2.0000   -3.6533    0.0000 O   0  0  0  0  0  0  0  0  0  0  0  0
   12.5175    4.1245    0.0000 O   0  0  0  0  0  0  0  0  0  0  0  0
    7.3931   -0.6010    0.0000 C   0  0  1  0  0  0  0  0  0  0  0  0
    7.3931   -1.6010    0.0000 C   0  0  2  0  0  0  0  0  0  0  0  0
    6.5271   -2.1010    0.0000 C   0  0  1  0  0  0  0  0  0  0  0  0
    5.6610   -1.6010    0.0000 C   0  0  1  0  0  0  0  0  0  0  0  0
    8.3393   -0.2962    0.0000 C   0  0  2  0  0  0  0  0  0  0  0  0
    6.5271   -0.1010    0.0000 C   0  0  0  0  0  0  0  0  0  0  0  0
    8.3393   -1.9057    0.0000 C   0  0  0  0  0  0  0  0  0  0  0  0
    4.7510   -2.1078    0.0000 C   0  0  2  0  0  0  0  0  0  0  0  0
    5.6610   -0.6010    0.0000 C   0  0  0  0  0  0  0  0  0  0  0  0
    8.9229   -1.1010    0.0000 C   0  0  0  0  0  0  0  0  0  0  0  0
    6.5431   -3.1425    0.0000 C   0  0  1  0  0  0  0  0  0  0  0  0
    8.6500    0.6543    0.0000 C   0  0  1  0  0  0  0  0  0  0  0  0
    7.3931    0.3990    0.0000 C   0  0  0  0  0  0  0  0  0  0  0  0
    4.7430   -3.1494    0.0000 C   0  0  0  0  0  0  0  0  0  0  0  0
    5.6451   -3.6702    0.0000 C   0  0  0  0  0  0  0  0  0  0  0  0
    3.8242   -1.5437    0.0000 C   0  0  0  0  0  0  0  0  0  0  0  0
    4.7587   -1.1078    0.0000 C   0  0  0  0  0  0  0  0  0  0  0  0
    9.6285    0.8605    0.0000 C   0  0  0  0  0  0  0  0  0  0  0  0
    7.9821    1.3986    0.0000 C   0  0  0  0  0  0  0  0  0  0  0  0
    2.8763   -2.0717    0.0000 C   0  0  0  0  0  0  0  0  0  0  0  0
    3.8076   -3.6991    0.0000 C   0  0  0  0  0  0  0  0  0  0  0  0
    2.8680   -3.1566    0.0000 C   0  0  0  0  0  0  0  0  0  0  0  0
    9.9391    1.8110    0.0000 C   0  0  0  0  0  0  0  0  0  0  0  0
   10.9176    2.0173    0.0000 C   0  0  0  0  0  0  0  0  0  0  0  0
   11.2283    2.9678    0.0000 C   0  0  3  0  0  0  0  0  0  0  0  0
   12.2068    3.1740    0.0000 C   0  0  0  0  0  0  0  0  0  0  0  0
   10.5605    3.7121    0.0000 C   0  0  0  0  0  0  0  0  0  0  0  0
    7.4830   -2.4462    0.0000 H   0  0  0  0  0  0  0  0  0  0  0  0
    7.2664   -2.5203    0.0000 H   0  0  0  0  0  0  0  0  0  0  0  0
    6.3972   -1.1760    0.0000 H   0  0  0  0  0  0  0  0  0  0  0  0
    9.1790   -0.1643    0.0000 H   0  0  0  0  0  0  0  0  0  0  0  0
    6.9256    0.3740    0.0000 H   0  0  0  0  0  0  0  0  0  0  0  0
    6.1285    0.3740    0.0000 H   0  0  0  0  0  0  0  0  0  0  0  0
    8.0883   -2.4726    0.0000 H   0  0  0  0  0  0  0  0  0  0  0  0
    8.8767   -2.2149    0.0000 H   0  0  0  0  0  0  0  0  0  0  0  0
    5.4490   -0.0183    0.0000 H   0  0  0  0  0  0  0  0  0  0  0  0
    5.0504   -0.7086    0.0000 H   0  0  0  0  0  0  0  0  0  0  0  0
    9.3838   -1.5157    0.0000 H   0  0  0  0  0  0  0  0  0  0  0  0
    9.3838   -0.6862    0.0000 H   0  0  0  0  0  0  0  0  0  0  0  0
    6.5491   -3.7624    0.0000 H   0  0  0  0  0  0  0  0  0  0  0  0
    8.0433    0.5264    0.0000 H   0  0  0  0  0  0  0  0  0  0  0  0
    8.0131    0.3990    0.0000 H   0  0  0  0  0  0  0  0  0  0  0  0
    7.3931    1.0190    0.0000 H   0  0  0  0  0  0  0  0  0  0  0  0
    6.7731    0.3990    0.0000 H   0  0  0  0  0  0  0  0  0  0  0  0
    5.2478   -4.1462    0.0000 H   0  0  0  0  0  0  0  0  0  0  0  0
    6.0460   -4.1431    0.0000 H   0  0  0  0  0  0  0  0  0  0  0  0
    4.2324   -1.0771    0.0000 H   0  0  0  0  0  0  0  0  0  0  0  0
    3.4343   -1.0617    0.0000 H   0  0  0  0  0  0  0  0  0  0  0  0
    5.3787   -1.1126    0.0000 H   0  0  0  0  0  0  0  0  0  0  0  0
    4.7635   -0.4878    0.0000 H   0  0  0  0  0  0  0  0  0  0  0  0
    4.1388   -1.1030    0.0000 H   0  0  0  0  0  0  0  0  0  0  0  0
    9.6490    0.2409    0.0000 H   0  0  0  0  0  0  0  0  0  0  0  0
   10.2423    0.7732    0.0000 H   0  0  0  0  0  0  0  0  0  0  0  0
    8.4436    1.8127    0.0000 H   0  0  0  0  0  0  0  0  0  0  0  0
    7.5681    1.8601    0.0000 H   0  0  0  0  0  0  0  0  0  0  0  0
    7.5207    0.9845    0.0000 H   0  0  0  0  0  0  0  0  0  0  0  0
    2.6718   -1.4864    0.0000 H   0  0  0  0  0  0  0  0  0  0  0  0
    2.2647   -2.1730    0.0000 H   0  0  0  0  0  0  0  0  0  0  0  0
    3.8100   -4.3191    0.0000 H   0  0  0  0  0  0  0  0  0  0  0  0
    7.4220   -4.2524    0.0000 H   0  0  0  0  0  0  0  0  0  0  0  0
    9.9186    2.4307    0.0000 H   0  0  0  0  0  0  0  0  0  0  0  0
    9.3253    1.8984    0.0000 H   0  0  0  0  0  0  0  0  0  0  0  0
   10.9382    1.3976    0.0000 H   0  0  0  0  0  0  0  0  0  0  0  0
   11.5315    1.9299    0.0000 H   0  0  0  0  0  0  0  0  0  0  0  0
   11.4924    3.7757    0.0000 H   0  0  0  0  0  0  0  0  0  0  0  0
   12.2274    2.5543    0.0000 H   0  0  0  0  0  0  0  0  0  0  0  0
   12.8206    3.0866    0.0000 H   0  0  0  0  0  0  0  0  0  0  0  0
   11.0219    4.1261    0.0000 H   0  0  0  0  0  0  0  0  0  0  0  0
   10.1464    4.1736    0.0000 H   0  0  0  0  0  0  0  0  0  0  0  0
   10.0990    3.2980    0.0000 H   0  0  0  0  0  0  0  0  0  0  0  0
   13.1241    4.2524    0.0000 H   0  0  0  0  0  0  0  0  0  0  0  0
 14  1  1  6  0  0  0
  1 63  1  0  0  0  0
  2 25  2  0  0  0  0
  3 29  1  0  0  0  0
  3 74  1  0  0  0  0
  4  5  1  0  0  0  0
  4  8  1  0  0  0  0
  4  9  1  0  0  0  0
  4 16  1  1  0  0  0
  5  6  1  0  0  0  0
  5 10  1  0  0  0  0
  5 31  1  6  0  0  0
  6  7  1  0  0  0  0
  6 14  1  0  0  0  0
  6 32  1  1  0  0  0
  7 11  1  0  0  0  0
  7 12  1  0  0  0  0
  7 33  1  6  0  0  0
  8 13  1  0  0  0  0
  8 15  1  0  0  0  0
  8 34  1  6  0  0  0
  9 12  1  0  0  0  0
  9 35  1  0  0  0  0
  9 36  1  0  0  0  0
 10 13  1  0  0  0  0
 10 37  1  0  0  0  0
 10 38  1  0  0  0  0
 11 17  1  0  0  0  0
 11 19  1  0  0  0  0
 11 20  1  1  0  0  0
 12 39  1  0  0  0  0
 12 40  1  0  0  0  0
 13 41  1  0  0  0  0
 13 42  1  0  0  0  0
 14 18  1  0  0  0  0
 14 43  1  0  0  0  0
 15 21  1  0  0  0  0
 15 22  1  6  0  0  0
 15 44  1  0  0  0  0
 16 45  1  0  0  0  0
 16 46  1  0  0  0  0
 16 47  1  0  0  0  0
 17 18  1  0  0  0  0
 17 24  2  0  0  0  0
 18 48  1  0  0  0  0
 18 49  1  0  0  0  0
 19 23  1  0  0  0  0
 19 50  1  0  0  0  0
 19 51  1  0  0  0  0
 20 52  1  0  0  0  0
 20 53  1  0  0  0  0
 20 54  1  0  0  0  0
 21 26  1  0  0  0  0
 21 55  1  0  0  0  0
 21 56  1  0  0  0  0
 22 57  1  0  0  0  0
 22 58  1  0  0  0  0
 22 59  1  0  0  0  0
 23 25  1  0  0  0  0
 23 60  1  0  0  0  0
 23 61  1  0  0  0  0
 24 25  1  0  0  0  0
 24 62  1  0  0  0  0
 26 27  1  0  0  0  0
 26 64  1  0  0  0  0
 26 65  1  0  0  0  0
 27 28  1  0  0  0  0
 27 66  1  0  0  0  0
 27 67  1  0  0  0  0
 28 29  1  0  0  0  0
 28 30  1  0  0  0  0
 28 68  1  0  0  0  0
 29 69  1  0  0  0  0
 29 70  1  0  0  0  0
 30 71  1  0  0  0  0
 30 72  1  0  0  0  0
 30 73  1  0  0  0  0
M  END
> <PUBCHEM_COMPOUND_CID>
193396

> <PUBCHEM_COMPOUND_CANONICALIZED>
1

> <PUBCHEM_CACTVS_COMPLEXITY>
684

> <PUBCHEM_CACTVS_HBOND_ACCEPTOR>
3

> <PUBCHEM_CACTVS_HBOND_DONOR>
2

> <PUBCHEM_CACTVS_ROTATABLE_BOND>
6

> <PUBCHEM_CACTVS_SUBSKEYS>
AAADcfB4MAAAAAAAAAAAAAAAAAAAAYAAAAAwYIAAAAAAAGDAAAAAGgAACAAADxSggAICAAAAAgCIAqBSAAAAAAAgAAAACAEAAEgAEBIAAQAAQAAEwAAIAQOIyPCPgAAAAAAAAADAAAYAADAAAQAACAAAAA==

> <PUBCHEM_IUPAC_OPENEYE_NAME>
(7R,8S,9S,10R,13R,14S,17R)-7-hydroxy-17-[(1R)-6-hydroxy-1,5-dimethyl-hexyl]-10,13-dimethyl-1,2,6,7,8,9,11,12,14,15,16,17-dodecahydrocyclopenta[a]phenanthren-3-one

> <PUBCHEM_IUPAC_CAS_NAME>
(7R,8S,9S,10R,13R,14S,17R)-7-hydroxy-17-[(2R)-7-hydroxy-6-methylheptan-2-yl]-10,13-dimethyl-1,2,6,7,8,9,11,12,14,15,16,17-dodecahydrocyclopenta[a]phenanthren-3-one

> <PUBCHEM_IUPAC_NAME>
(7R,8S,9S,10R,13R,14S,17R)-7-hydroxy-17-[(2R)-7-hydroxy-6-methylheptan-2-yl]-10,13-dimethyl-1,2,6,7,8,9,11,12,14,15,16,17-dodecahydrocyclopenta[a]phenanthren-3-one

> <PUBCHEM_IUPAC_SYSTEMATIC_NAME>
(7R,8S,9S,10R,13R,14S,17R)-10,13-dimethyl-17-[(2R)-6-methyl-7-oxidanyl-heptan-2-yl]-7-oxidanyl-1,2,6,7,8,9,11,12,14,15,16,17-dodecahydrocyclopenta[a]phenanthren-3-one

> <PUBCHEM_IUPAC_TRADITIONAL_NAME>
(7R,8S,9S,10R,13R,14S,17R)-7-hydroxy-17-[(1R)-6-hydroxy-1,5-dimethyl-hexyl]-10,13-dimethyl-1,2,6,7,8,9,11,12,14,15,16,17-dodecahydrocyclopenta[a]phenanthren-3-one

> <PUBCHEM_IUPAC_INCHI>
InChI=1S/C27H44O3/c1-17(16-28)6-5-7-18(2)21-8-9-22-25-23(11-13-27(21,22)4)26(3)12-10-20(29)14-19(26)15-24(25)30/h14,17-18,21-25,28,30H,5-13,15-16H2,1-4H3/t17?,18-,21-,22+,23+,24-,25+,26+,27-/m1/s1

> <PUBCHEM_IUPAC_INCHIKEY>
KVJVJJWIEXCECB-GWUAJDSISA-N

> <PUBCHEM_XLOGP3_AA>
5.9

> <PUBCHEM_EXACT_MASS>
416.329045

> <PUBCHEM_MOLECULAR_FORMULA>
C27H44O3

> <PUBCHEM_MOLECULAR_WEIGHT>
416.63646

> <PUBCHEM_OPENEYE_CAN_SMILES>
CC(CCCC(C)C1CCC2C1(CCC3C2C(CC4=CC(=O)CCC34C)O)C)CO

> <PUBCHEM_OPENEYE_ISO_SMILES>
C[C@H](CCCC(C)CO)[C@H]1CC[C@@H]2[C@@]1(CC[C@H]3[C@H]2[C@@H](CC4=CC(=O)CC[C@]34C)O)C

> <PUBCHEM_CACTVS_TPSA>
57.5

> <PUBCHEM_MONOISOTOPIC_WEIGHT>
416.329045

> <PUBCHEM_TOTAL_CHARGE>
0

> <PUBCHEM_HEAVY_ATOM_COUNT>
30

> <PUBCHEM_ATOM_DEF_STEREO_COUNT>
8

> <PUBCHEM_ATOM_UDEF_STEREO_COUNT>
1

> <PUBCHEM_BOND_DEF_STEREO_COUNT>
0

> <PUBCHEM_BOND_UDEF_STEREO_COUNT>
0

> <PUBCHEM_ISOTOPIC_ATOM_COUNT>
0

> <PUBCHEM_COMPONENT_COUNT>
1

> <PUBCHEM_CACTVS_TAUTO_COUNT>
5

> <PUBCHEM_COORDINATE_TYPE>
1
5
255

> <PUBCHEM_BONDANNOTATIONS>
14  1  6
11  20  5
15  22  6
28  68  3
4  16  5
5  31  6
6  32  5
7  33  6
8  34  6

$$$$

