442243
  -OEChem-07051212573D

 39 41  0     1  0  0  0  0  0999 V2000
    2.4615   -2.4527    0.7890 O   0  0  0  0  0  0  0  0  0  0  0  0
    3.3628    1.0714    1.2046 O   0  0  0  0  0  0  0  0  0  0  0  0
   -2.9078    1.0454   -0.6366 O   0  0  0  0  0  0  0  0  0  0  0  0
   -4.6653   -0.4334   -0.7135 O   0  0  0  0  0  0  0  0  0  0  0  0
    1.1202   -0.5375    0.1785 C   0  0  2  0  0  0  0  0  0  0  0  0
    1.5601    0.7859   -0.4715 C   0  0  2  0  0  0  0  0  0  0  0  0
    2.2355   -1.5229   -0.2703 C   0  0  1  0  0  0  0  0  0  0  0  0
    3.0702    0.7920   -0.1611 C   0  0  2  0  0  0  0  0  0  0  0  0
   -0.3188   -0.9804   -0.1305 C   0  0  0  0  0  0  0  0  0  0  0  0
    3.5005   -0.6474   -0.4759 C   0  0  0  0  0  0  0  0  0  0  0  0
   -1.3576   -0.1866    0.6819 C   0  0  1  0  0  0  0  0  0  0  0  0
    0.7067    1.9836   -0.1195 C   0  0  0  0  0  0  0  0  0  0  0  0
   -1.7141    1.2053    0.1638 C   0  0  1  0  0  0  0  0  0  0  0  0
   -0.6898    1.9452   -0.6921 C   0  0  0  0  0  0  0  0  0  0  0  0
    1.9219   -2.3225   -1.5377 C   0  0  0  0  0  0  0  0  0  0  0  0
   -2.7014   -0.8333    0.6284 C   0  0  0  0  0  0  0  0  0  0  0  0
    1.1237    3.0724    0.5456 C   0  0  0  0  0  0  0  0  0  0  0  0
   -3.5709   -0.0947   -0.3016 C   0  0  0  0  0  0  0  0  0  0  0  0
   -3.1374   -1.8899    1.3187 C   0  0  0  0  0  0  0  0  0  0  0  0
    1.1877   -0.4293    1.2720 H   0  0  0  0  0  0  0  0  0  0  0  0
    1.4791    0.6754   -1.5646 H   0  0  0  0  0  0  0  0  0  0  0  0
    3.6080    1.5194   -0.7783 H   0  0  0  0  0  0  0  0  0  0  0  0
   -0.4086   -2.0401    0.1424 H   0  0  0  0  0  0  0  0  0  0  0  0
   -0.5291   -0.9142   -1.2052 H   0  0  0  0  0  0  0  0  0  0  0  0
    3.8244   -0.6906   -1.5229 H   0  0  0  0  0  0  0  0  0  0  0  0
    4.3358   -0.9753    0.1523 H   0  0  0  0  0  0  0  0  0  0  0  0
   -1.0194   -0.1098    1.7231 H   0  0  0  0  0  0  0  0  0  0  0  0
   -1.9924    1.8494    1.0100 H   0  0  0  0  0  0  0  0  0  0  0  0
   -1.0608    2.9666   -0.8593 H   0  0  0  0  0  0  0  0  0  0  0  0
   -0.6644    1.5191   -1.7044 H   0  0  0  0  0  0  0  0  0  0  0  0
    2.7817   -2.9414   -1.8200 H   0  0  0  0  0  0  0  0  0  0  0  0
    1.0929   -3.0197   -1.3765 H   0  0  0  0  0  0  0  0  0  0  0  0
    1.6762   -1.6716   -2.3825 H   0  0  0  0  0  0  0  0  0  0  0  0
    2.7535   -1.9562    1.5725 H   0  0  0  0  0  0  0  0  0  0  0  0
    4.3283    1.0280    1.3111 H   0  0  0  0  0  0  0  0  0  0  0  0
    2.1313    3.1793    0.9255 H   0  0  0  0  0  0  0  0  0  0  0  0
    0.4529    3.9075    0.7230 H   0  0  0  0  0  0  0  0  0  0  0  0
   -2.4817   -2.4053    2.0125 H   0  0  0  0  0  0  0  0  0  0  0  0
   -4.1493   -2.2659    1.2127 H   0  0  0  0  0  0  0  0  0  0  0  0
  1  7  1  0  0  0  0
  1 34  1  0  0  0  0
  2  8  1  0  0  0  0
  2 35  1  0  0  0  0
  3 13  1  0  0  0  0
  3 18  1  0  0  0  0
  4 18  2  0  0  0  0
  5  6  1  0  0  0  0
  5  7  1  0  0  0  0
  5  9  1  0  0  0  0
  5 20  1  0  0  0  0
  6  8  1  0  0  0  0
  6 12  1  0  0  0  0
  6 21  1  0  0  0  0
  7 10  1  0  0  0  0
  7 15  1  0  0  0  0
  8 10  1  0  0  0  0
  8 22  1  0  0  0  0
  9 11  1  0  0  0  0
  9 23  1  0  0  0  0
  9 24  1  0  0  0  0
 10 25  1  0  0  0  0
 10 26  1  0  0  0  0
 11 13  1  0  0  0  0
 11 16  1  0  0  0  0
 11 27  1  0  0  0  0
 12 14  1  0  0  0  0
 12 17  2  0  0  0  0
 13 14  1  0  0  0  0
 13 28  1  0  0  0  0
 14 29  1  0  0  0  0
 14 30  1  0  0  0  0
 15 31  1  0  0  0  0
 15 32  1  0  0  0  0
 15 33  1  0  0  0  0
 16 18  1  0  0  0  0
 16 19  2  0  0  0  0
 17 36  1  0  0  0  0
 17 37  1  0  0  0  0
 19 38  1  0  0  0  0
 19 39  1  0  0  0  0
M  END
> <PUBCHEM_COMPOUND_CID>
442243

> <PUBCHEM_CONFORMER_RMSD>
0.6

> <PUBCHEM_CONFORMER_DIVERSEORDER>
3
4
1
2

> <PUBCHEM_MMFF94_PARTIAL_CHARGES>
21
1 -0.68
11 0.14
12 -0.28
13 0.28
14 0.14
16 -0.12
17 -0.3
18 0.71
19 -0.3
2 -0.68
3 -0.43
34 0.4
35 0.4
36 0.15
37 0.15
38 0.15
39 0.15
4 -0.57
6 0.14
7 0.28
8 0.28

> <PUBCHEM_EFFECTIVE_ROTOR_COUNT>
1.2

> <PUBCHEM_PHARMACOPHORE_FEATURES>
8
1 1 acceptor
1 1 donor
1 2 acceptor
1 2 donor
1 4 acceptor
5 3 11 13 16 18 rings
5 5 6 7 8 10 rings
7 5 6 9 11 12 13 14 rings

> <PUBCHEM_HEAVY_ATOM_COUNT>
19

> <PUBCHEM_ATOM_DEF_STEREO_COUNT>
6

> <PUBCHEM_ATOM_UDEF_STEREO_COUNT>
0

> <PUBCHEM_BOND_DEF_STEREO_COUNT>
0

> <PUBCHEM_BOND_UDEF_STEREO_COUNT>
0

> <PUBCHEM_ISOTOPIC_ATOM_COUNT>
0

> <PUBCHEM_COMPONENT_COUNT>
1

> <PUBCHEM_CACTVS_TAUTO_COUNT>
1

> <PUBCHEM_CONFORMER_ID>
0006BF8300000003

> <PUBCHEM_MMFF94_ENERGY>
63.1618

> <PUBCHEM_FEATURE_SELFOVERLAP>
40.644

> <PUBCHEM_SHAPE_FINGERPRINT>
10967382 1 18411136917956671318
10980938 120 18335419058500239350
1100329 8 13873464078403506353
11132069 177 18337394833661255536
116883 192 17902224842936562588
12011746 2 18410291389562939892
12506688 2 18410851075072314048
12553582 1 18123736810512782802
12654215 9 18412262818127407524
13140716 1 17977662009253228320
13296908 3 18343292678446963243
14223421 5 18410007749637816728
14251717 144 18335704897031970933
14289901 80 17095241453511320139
15219456 202 18198622129962358849
15375358 24 18342463625288841763
15635459 17 18409726279009054815
16945 1 18263353716130540105
19049666 15 18343023319625651129
19591789 44 17331946236589650052
200 152 18040718060919787399
20201158 50 18341894078165492009
20645477 70 18336830775885892445
20905425 154 18340774865638747788
21267235 1 18339350946219748286
21285901 2 18130513028245463181
21501502 16 18194678396243395620
221490 88 18269546157033625203
22721475 48 18340761623933061317
23184049 29 18052256486255143498
2334 1 18338792415824234008
23419403 2 14391770002745815129
23557571 272 18192428787042379550
23559900 14 18272653497585340546
2748010 2 18338232777396106116
2871803 45 18341610438620255358
3060560 45 18040712554750907822
33824 294 18336832987387984548
34934 24 18411424990045535015
474 4 16010457642582487936
7364860 26 18334856061128474624
81228 2 17905597058052561520
8809292 202 18052531363919403430
9709674 26 18411698794505989295

> <PUBCHEM_SHAPE_MULTIPOLES>
367.53
6.49
2.81
1.07
3.87
0.61
-0.01
-1.99
0.08
-1.46
-0.11
0.01
-0.34
1.02

> <PUBCHEM_SHAPE_SELFOVERLAP>
785.6

> <PUBCHEM_SHAPE_VOLUME>
204.3

> <PUBCHEM_COORDINATE_TYPE>
2
5
10

$$$$

