133204
  -OEChem-07051213102D

 22 23  0     1  0  0  0  0  0999 V2000
    4.6650    0.7139    0.0000 O   0  0  0  0  0  0  0  0  0  0  0  0
    2.0000   -1.3078    0.0000 O   0  0  0  0  0  0  0  0  0  0  0  0
    7.7528    0.7709    0.0000 O   0  0  0  0  0  0  0  0  0  0  0  0
    3.7139   -0.5951    0.0000 N   0  0  0  0  0  0  0  0  0  0  0  0
    3.7139    0.4049    0.0000 C   0  0  2  0  0  0  0  0  0  0  0  0
    5.2528   -0.0951    0.0000 C   0  0  2  0  0  0  0  0  0  0  0  0
    4.6650   -0.9041    0.0000 C   0  0  0  0  0  0  0  0  0  0  0  0
    2.7056    0.4090    0.0000 C   0  0  0  0  0  0  0  0  0  0  0  0
    2.7056   -0.5993    0.0000 C   0  0  0  0  0  0  0  0  0  0  0  0
    6.2528   -0.0951    0.0000 C   0  0  0  0  0  0  0  0  0  0  0  0
    6.7528    0.7709    0.0000 C   0  0  0  0  0  0  0  0  0  0  0  0
    3.5827    1.2447    0.0000 H   0  0  0  0  0  0  0  0  0  0  0  0
    5.5342    0.4573    0.0000 H   0  0  0  0  0  0  0  0  0  0  0  0
    4.4128   -1.4705    0.0000 H   0  0  0  0  0  0  0  0  0  0  0  0
    5.2019   -1.2142    0.0000 H   0  0  0  0  0  0  0  0  0  0  0  0
    2.7074    1.0290    0.0000 H   0  0  0  0  0  0  0  0  0  0  0  0
    2.0856    0.4099    0.0000 H   0  0  0  0  0  0  0  0  0  0  0  0
    6.1451   -0.7057    0.0000 H   0  0  0  0  0  0  0  0  0  0  0  0
    6.8354   -0.3072    0.0000 H   0  0  0  0  0  0  0  0  0  0  0  0
    6.8604    1.3815    0.0000 H   0  0  0  0  0  0  0  0  0  0  0  0
    6.1702    0.9829    0.0000 H   0  0  0  0  0  0  0  0  0  0  0  0
    8.0628    1.3078    0.0000 H   0  0  0  0  0  0  0  0  0  0  0  0
  1  5  1  0  0  0  0
  1  6  1  0  0  0  0
  2  9  2  0  0  0  0
  3 11  1  0  0  0  0
  3 22  1  0  0  0  0
  4  5  1  0  0  0  0
  4  7  1  0  0  0  0
  4  9  1  0  0  0  0
  5  8  1  0  0  0  0
  5 12  1  1  0  0  0
  6  7  1  0  0  0  0
  6 10  1  1  0  0  0
  6 13  1  0  0  0  0
  7 14  1  0  0  0  0
  7 15  1  0  0  0  0
  8  9  1  0  0  0  0
  8 16  1  0  0  0  0
  8 17  1  0  0  0  0
 10 11  1  0  0  0  0
 10 18  1  0  0  0  0
 10 19  1  0  0  0  0
 11 20  1  0  0  0  0
 11 21  1  0  0  0  0
M  END
> <PUBCHEM_COMPOUND_CID>
133204

> <PUBCHEM_COMPOUND_CANONICALIZED>
1

> <PUBCHEM_CACTVS_COMPLEXITY>
183

> <PUBCHEM_CACTVS_HBOND_ACCEPTOR>
3

> <PUBCHEM_CACTVS_HBOND_DONOR>
1

> <PUBCHEM_CACTVS_ROTATABLE_BOND>
2

> <PUBCHEM_CACTVS_SUBSKEYS>
AAADccBiMAAAAAAAAAAAAAAAAABYAWAAAAAAAAAABYAAAAAAAAAAHgAACAAACBThgAYAAAMABgAIAAEQEAAAAAAAAAAAAAEIAAACEAwAgAAPQAAHJgCQAAAgAAAAAAAAAAAAAAAAAAAAAAAAAAAAAAAAAA==

> <PUBCHEM_IUPAC_OPENEYE_NAME>
(3S,5S)-3-(2-hydroxyethyl)-4-oxa-1-azabicyclo[3.2.0]heptan-7-one

> <PUBCHEM_IUPAC_CAS_NAME>
(3S,5S)-3-(2-hydroxyethyl)-4-oxa-1-azabicyclo[3.2.0]heptan-7-one

> <PUBCHEM_IUPAC_NAME>
(3S,5S)-3-(2-hydroxyethyl)-4-oxa-1-azabicyclo[3.2.0]heptan-7-one

> <PUBCHEM_IUPAC_SYSTEMATIC_NAME>
(3S,5S)-3-(2-hydroxyethyl)-4-oxa-1-azabicyclo[3.2.0]heptan-7-one

> <PUBCHEM_IUPAC_TRADITIONAL_NAME>
(3S,5S)-3-(2-hydroxyethyl)-4-oxa-1-azabicyclo[3.2.0]heptan-7-one

> <PUBCHEM_IUPAC_INCHI>
InChI=1S/C7H11NO3/c9-2-1-5-4-8-6(10)3-7(8)11-5/h5,7,9H,1-4H2/t5-,7-/m0/s1

> <PUBCHEM_IUPAC_INCHIKEY>
UEGDICIJUUEIOL-FSPLSTOPSA-N

> <PUBCHEM_XLOGP3_AA>
-1

> <PUBCHEM_EXACT_MASS>
157.073893

> <PUBCHEM_MOLECULAR_FORMULA>
C7H11NO3

> <PUBCHEM_MOLECULAR_WEIGHT>
157.16714

> <PUBCHEM_OPENEYE_CAN_SMILES>
C1C2N(C1=O)CC(O2)CCO

> <PUBCHEM_OPENEYE_ISO_SMILES>
C1[C@H]2N(C1=O)C[C@@H](O2)CCO

> <PUBCHEM_CACTVS_TPSA>
49.8

> <PUBCHEM_MONOISOTOPIC_WEIGHT>
157.073893

> <PUBCHEM_TOTAL_CHARGE>
0

> <PUBCHEM_HEAVY_ATOM_COUNT>
11

> <PUBCHEM_ATOM_DEF_STEREO_COUNT>
2

> <PUBCHEM_ATOM_UDEF_STEREO_COUNT>
0

> <PUBCHEM_BOND_DEF_STEREO_COUNT>
0

> <PUBCHEM_BOND_UDEF_STEREO_COUNT>
0

> <PUBCHEM_ISOTOPIC_ATOM_COUNT>
0

> <PUBCHEM_COMPONENT_COUNT>
1

> <PUBCHEM_CACTVS_TAUTO_COUNT>
2

> <PUBCHEM_COORDINATE_TYPE>
1
5
255

> <PUBCHEM_BONDANNOTATIONS>
5  12  5
6  10  5

$$$$

