128
  -OEChem-07051212483D

 19 19  0     1  0  0  0  0  0999 V2000
   -2.2453    1.9191    0.3156 O   0  0  0  0  0  0  0  0  0  0  0  0
    3.9533   -0.6741    0.2331 O   0  0  0  0  0  0  0  0  0  0  0  0
    2.9610    1.0921   -0.7941 O   0  0  0  0  0  0  0  0  0  0  0  0
   -1.2202   -1.4753    0.1001 N   0  0  0  0  0  0  0  0  0  0  0  0
   -2.9279   -0.1456   -0.5060 N   0  0  0  0  0  0  0  0  0  0  0  0
   -0.9228   -0.1100    0.6058 C   0  0  1  0  0  0  0  0  0  0  0  0
    0.3903    0.3838    0.0161 C   0  0  0  0  0  0  0  0  0  0  0  0
    1.5904   -0.4308    0.4836 C   0  0  0  0  0  0  0  0  0  0  0  0
   -2.0984    0.7207    0.1406 C   0  0  0  0  0  0  0  0  0  0  0  0
   -2.3612   -1.3634   -0.4906 C   0  0  0  0  0  0  0  0  0  0  0  0
    2.8810    0.0835   -0.1043 C   0  0  0  0  0  0  0  0  0  0  0  0
   -0.9033   -0.1198    1.7012 H   0  0  0  0  0  0  0  0  0  0  0  0
    0.3395    0.3646   -1.0812 H   0  0  0  0  0  0  0  0  0  0  0  0
    0.5351    1.4371    0.2901 H   0  0  0  0  0  0  0  0  0  0  0  0
    1.6723   -0.3842    1.5749 H   0  0  0  0  0  0  0  0  0  0  0  0
    1.4792   -1.4771    0.1790 H   0  0  0  0  0  0  0  0  0  0  0  0
   -3.8125    0.0955   -0.9371 H   0  0  0  0  0  0  0  0  0  0  0  0
   -2.9055   -2.1779   -0.9851 H   0  0  0  0  0  0  0  0  0  0  0  0
    4.7859   -0.3202   -0.1464 H   0  0  0  0  0  0  0  0  0  0  0  0
  1  9  2  0  0  0  0
  2 11  1  0  0  0  0
  2 19  1  0  0  0  0
  3 11  2  0  0  0  0
  4  6  1  0  0  0  0
  4 10  2  0  0  0  0
  5  9  1  0  0  0  0
  5 10  1  0  0  0  0
  5 17  1  0  0  0  0
  6  7  1  0  0  0  0
  6  9  1  0  0  0  0
  6 12  1  0  0  0  0
  7  8  1  0  0  0  0
  7 13  1  0  0  0  0
  7 14  1  0  0  0  0
  8 11  1  0  0  0  0
  8 15  1  0  0  0  0
  8 16  1  0  0  0  0
 10 18  1  0  0  0  0
M  END
> <PUBCHEM_COMPOUND_CID>
128

> <PUBCHEM_CONFORMER_RMSD>
0.6

> <PUBCHEM_CONFORMER_DIVERSEORDER>
1
17
18
2
13
16
19
12
7
11
14
9
10
5
15
8
6
4
3

> <PUBCHEM_MMFF94_PARTIAL_CHARGES>
13
1 -0.57
10 0.45
11 0.66
17 0.37
18 0.06
19 0.5
2 -0.65
3 -0.57
4 -0.7
5 -0.49
6 0.31
8 0.06
9 0.57

> <PUBCHEM_EFFECTIVE_ROTOR_COUNT>
3.4

> <PUBCHEM_PHARMACOPHORE_FEATURES>
6
1 1 acceptor
1 2 acceptor
1 3 acceptor
1 5 donor
3 2 3 11 anion
5 4 5 6 9 10 rings

> <PUBCHEM_HEAVY_ATOM_COUNT>
11

> <PUBCHEM_ATOM_DEF_STEREO_COUNT>
0

> <PUBCHEM_ATOM_UDEF_STEREO_COUNT>
1

> <PUBCHEM_BOND_DEF_STEREO_COUNT>
0

> <PUBCHEM_BOND_UDEF_STEREO_COUNT>
0

> <PUBCHEM_ISOTOPIC_ATOM_COUNT>
0

> <PUBCHEM_COMPONENT_COUNT>
1

> <PUBCHEM_CACTVS_TAUTO_COUNT>
3

> <PUBCHEM_CONFORMER_ID>
0000008000000001

> <PUBCHEM_MMFF94_ENERGY>
13.5388

> <PUBCHEM_FEATURE_SELFOVERLAP>
30.504

> <PUBCHEM_SHAPE_FINGERPRINT>
12162725 195 18413669102157761436
12716758 59 18261399957056136651
12897270 3 18336548213823558610
12932764 1 18114176402574855730
13024252 1 11671784862568297851
14144814 61 18343302587068039698
14325111 11 18410573985557613576
20201158 50 17749107798598165710
20279233 1 16515685554680030438
20645477 56 18261109720256835065
20653085 51 18340757260367419609
20871998 184 18114457860482856879
23402539 116 18260559939258355077
23552423 10 18271249313408619267
3248919 1 17988925539928863522
93112 12 18411135831720303182
9939556 21 18413386549207465460

> <PUBCHEM_SHAPE_MULTIPOLES>
198.8
5.8
1.42
0.74
4.53
0.2
-0.01
-0.09
-0.71
-0.96
-0.03
0.05
0.01
-0.53

> <PUBCHEM_SHAPE_SELFOVERLAP>
404.309

> <PUBCHEM_SHAPE_VOLUME>
116.6

> <PUBCHEM_COORDINATE_TYPE>
2
5
10

$$$$

