11927
  -OEChem-06261206173D

 20 21  0     0  0  0  0  0  0999 V2000
    1.2969    1.4916    0.0000 N   0  0  0  0  0  0  0  0  0  0  0  0
    0.4739   -0.7733    0.0000 C   0  0  0  0  0  0  0  0  0  0  0  0
    0.2686    0.6223   -0.0001 C   0  0  0  0  0  0  0  0  0  0  0  0
   -2.1325    0.2182   -0.0001 C   0  0  0  0  0  0  0  0  0  0  0  0
   -1.0420    1.0915   -0.0001 C   0  0  0  0  0  0  0  0  0  0  0  0
   -0.6228   -1.6519    0.0000 C   0  0  0  0  0  0  0  0  0  0  0  0
   -1.9231   -1.1553    0.0000 C   0  0  0  0  0  0  0  0  0  0  0  0
    1.7931   -1.2461    0.0000 C   0  0  0  0  0  0  0  0  0  0  0  0
   -3.5218    0.7615    0.0002 C   0  0  0  0  0  0  0  0  0  0  0  0
    2.8547   -0.3528    0.0001 C   0  0  0  0  0  0  0  0  0  0  0  0
    2.5549    0.9944    0.0000 C   0  0  0  0  0  0  0  0  0  0  0  0
   -1.2203    2.1661   -0.0019 H   0  0  0  0  0  0  0  0  0  0  0  0
   -0.4696   -2.7288   -0.0004 H   0  0  0  0  0  0  0  0  0  0  0  0
   -2.7597   -1.8484   -0.0018 H   0  0  0  0  0  0  0  0  0  0  0  0
    2.0006   -2.3138    0.0000 H   0  0  0  0  0  0  0  0  0  0  0  0
   -4.2285    0.0491    0.4395 H   0  0  0  0  0  0  0  0  0  0  0  0
   -3.5833    1.6803    0.5932 H   0  0  0  0  0  0  0  0  0  0  0  0
   -3.8396    0.9807   -1.0241 H   0  0  0  0  0  0  0  0  0  0  0  0
    3.8808   -0.7010    0.0001 H   0  0  0  0  0  0  0  0  0  0  0  0
    3.3438    1.7394    0.0001 H   0  0  0  0  0  0  0  0  0  0  0  0
  1  3  1  0  0  0  0
  1 11  2  0  0  0  0
  2  3  2  0  0  0  0
  2  6  1  0  0  0  0
  2  8  1  0  0  0  0
  3  5  1  0  0  0  0
  4  5  2  0  0  0  0
  4  7  1  0  0  0  0
  4  9  1  0  0  0  0
  5 12  1  0  0  0  0
  6  7  2  0  0  0  0
  6 13  1  0  0  0  0
  7 14  1  0  0  0  0
  8 10  2  0  0  0  0
  8 15  1  0  0  0  0
  9 16  1  0  0  0  0
  9 17  1  0  0  0  0
  9 18  1  0  0  0  0
 10 11  1  0  0  0  0
 10 19  1  0  0  0  0
 11 20  1  0  0  0  0
M  END
> <PUBCHEM_COMPOUND_CID>
11927

> <PUBCHEM_CONFORMER_RMSD>
0.4

> <PUBCHEM_CONFORMER_DIVERSEORDER>
1

> <PUBCHEM_MMFF94_PARTIAL_CHARGES>
16
1 -0.62
10 -0.15
11 0.16
12 0.15
13 0.15
14 0.15
15 0.15
19 0.15
20 0.15
3 0.31
4 -0.14
5 -0.15
6 -0.15
7 -0.15
8 -0.15
9 0.14

> <PUBCHEM_EFFECTIVE_ROTOR_COUNT>
0

> <PUBCHEM_PHARMACOPHORE_FEATURES>
3
1 1 acceptor
6 1 2 3 8 10 11 rings
6 2 3 4 5 6 7 rings

> <PUBCHEM_HEAVY_ATOM_COUNT>
11

> <PUBCHEM_ATOM_DEF_STEREO_COUNT>
0

> <PUBCHEM_ATOM_UDEF_STEREO_COUNT>
0

> <PUBCHEM_BOND_DEF_STEREO_COUNT>
0

> <PUBCHEM_BOND_UDEF_STEREO_COUNT>
0

> <PUBCHEM_ISOTOPIC_ATOM_COUNT>
0

> <PUBCHEM_COMPONENT_COUNT>
1

> <PUBCHEM_CACTVS_TAUTO_COUNT>
1

> <PUBCHEM_CONFORMER_ID>
00002E9700000001

> <PUBCHEM_MMFF94_ENERGY>
31.4522

> <PUBCHEM_FEATURE_SELFOVERLAP>
15.254

> <PUBCHEM_SHAPE_FINGERPRINT>
11471102 20 18339084899182036533
12524768 44 18409443725879443326
12932764 1 17346327002403116839
13380535 76 18410014333786050471
14325111 11 18410575072010428513
15775835 57 18413384332624688596
16945 1 18410855494509031654
17844478 74 17988915691621763521
193761 8 17834114143581619429
19973954 147 18339358548337852642
20201158 50 18408604794265197910
21040471 1 18338516335368625634
21501502 16 18339082575209116398
23235685 24 18409454699615700073
23402655 69 18335714883553828853
23463225 33 18341897445525522578
23552423 10 18199749154760197334
23559900 14 18334568041802883452
241688 4 17255393246232538378
2748010 2 18338515214297810935
369184 2 18411139112706143027
5084963 1 18187087307566493907
528886 8 18410016537056449907
53812653 166 18334582317303731256

> <PUBCHEM_SHAPE_MULTIPOLES>
221.39
4.47
1.65
0.61
1.07
0.2
0
-0.85
0
-0.1
0
0.01
0.01
0

> <PUBCHEM_SHAPE_SELFOVERLAP>
484.681

> <PUBCHEM_SHAPE_VOLUME>
120.2

> <PUBCHEM_COORDINATE_TYPE>
2
5
10

$$$$

