46173902
  -OEChem-07051213103D

 83 87  0     1  0  0  0  0  0999 V2000
    6.8779    1.1836    0.7165 O   0  0  0  0  0  0  0  0  0  0  0  0
   -6.1285   -2.0512    0.3095 O   0  0  0  0  0  0  0  0  0  0  0  0
    6.9641   -0.9277   -1.0408 O   0  0  0  0  0  0  0  0  0  0  0  0
    0.4541   -0.7768   -0.1858 C   0  0  2  0  0  0  0  0  0  0  0  0
    1.1443    0.6164    0.1054 C   0  0  1  0  0  0  0  0  0  0  0  0
    2.6769    0.7751   -0.3104 C   0  0  2  0  0  0  0  0  0  0  0  0
   -0.9803   -0.8486    0.5827 C   0  0  1  0  0  0  0  0  0  0  0  0
    3.4529   -0.4525    0.2982 C   0  0  1  0  0  0  0  0  0  0  0  0
    1.3930   -1.9172    0.2898 C   0  0  0  0  0  0  0  0  0  0  0  0
    2.8435   -1.7836   -0.1819 C   0  0  0  0  0  0  0  0  0  0  0  0
    5.0230   -0.3800    0.2395 C   0  0  2  0  0  0  0  0  0  0  0  0
    0.2241    1.7635   -0.3546 C   0  0  0  0  0  0  0  0  0  0  0  0
   -1.8552    0.3676    0.1760 C   0  0  0  0  0  0  0  0  0  0  0  0
    3.2468    2.0676    0.3557 C   0  0  0  0  0  0  0  0  0  0  0  0
   -1.6882   -2.2017    0.2656 C   0  0  0  0  0  0  0  0  0  0  0  0
   -1.1387    1.7015    0.3335 C   0  0  0  0  0  0  0  0  0  0  0  0
   -3.9176   -1.0823   -0.2228 C   0  0  1  0  0  0  0  0  0  0  0  0
    0.2178   -0.9731   -1.7157 C   0  0  0  0  0  0  0  0  0  0  0  0
   -3.1444    0.2514   -0.2426 C   0  0  0  0  0  0  0  0  0  0  0  0
    5.4755    0.9674    0.8741 C   0  0  2  0  0  0  0  0  0  0  0  0
    2.8560    0.9314   -1.8391 C   0  0  0  0  0  0  0  0  0  0  0  0
    4.7687    2.1890    0.2965 C   0  0  0  0  0  0  0  0  0  0  0  0
   -3.1719   -2.1727    0.5883 C   0  0  0  0  0  0  0  0  0  0  0  0
   -0.8346   -0.7959    2.1356 C   0  0  0  0  0  0  0  0  0  0  0  0
   -5.3056   -0.8932    0.4696 C   0  0  1  0  0  0  0  0  0  0  0  0
   -3.9793    1.4118   -0.7777 C   0  0  0  0  0  0  0  0  0  0  0  0
    5.6076   -0.5639   -1.1748 C   0  0  0  0  0  0  0  0  0  0  0  0
    5.6278   -1.5256    1.1012 C   0  0  0  0  0  0  0  0  0  0  0  0
   -5.3139    1.6158   -0.0300 C   0  0  0  0  0  0  0  0  0  0  0  0
   -6.1118    0.2995   -0.0513 C   0  0  0  0  0  0  0  0  0  0  0  0
   -4.0926   -1.5868   -1.6775 C   0  0  0  0  0  0  0  0  0  0  0  0
   -5.0573    2.0866    1.4150 C   0  0  0  0  0  0  0  0  0  0  0  0
   -6.1341    2.7047   -0.7477 C   0  0  0  0  0  0  0  0  0  0  0  0
    1.1851    0.7036    1.1986 H   0  0  0  0  0  0  0  0  0  0  0  0
    3.2323   -0.4170    1.3790 H   0  0  0  0  0  0  0  0  0  0  0  0
    1.0107   -2.8911   -0.0390 H   0  0  0  0  0  0  0  0  0  0  0  0
    1.4157   -1.9560    1.3841 H   0  0  0  0  0  0  0  0  0  0  0  0
    2.9029   -1.8931   -1.2680 H   0  0  0  0  0  0  0  0  0  0  0  0
    3.3924   -2.6328    0.2369 H   0  0  0  0  0  0  0  0  0  0  0  0
    0.6684    2.7343   -0.1141 H   0  0  0  0  0  0  0  0  0  0  0  0
    0.0778    1.7515   -1.4393 H   0  0  0  0  0  0  0  0  0  0  0  0
    2.9468    2.0997    1.4115 H   0  0  0  0  0  0  0  0  0  0  0  0
    2.8200    2.9614   -0.1139 H   0  0  0  0  0  0  0  0  0  0  0  0
   -1.2200   -3.0177    0.8305 H   0  0  0  0  0  0  0  0  0  0  0  0
   -1.5926   -2.4851   -0.7832 H   0  0  0  0  0  0  0  0  0  0  0  0
   -1.7153    2.5542   -0.0236 H   0  0  0  0  0  0  0  0  0  0  0  0
   -1.0047    1.8933    1.4058 H   0  0  0  0  0  0  0  0  0  0  0  0
    1.0983   -0.7711   -2.3171 H   0  0  0  0  0  0  0  0  0  0  0  0
   -0.0417   -2.0080   -1.9596 H   0  0  0  0  0  0  0  0  0  0  0  0
   -0.5837   -0.3368   -2.1017 H   0  0  0  0  0  0  0  0  0  0  0  0
    5.2785    0.9330    1.9539 H   0  0  0  0  0  0  0  0  0  0  0  0
    2.9694   -0.0226   -2.3557 H   0  0  0  0  0  0  0  0  0  0  0  0
    3.7447    1.5102   -2.1013 H   0  0  0  0  0  0  0  0  0  0  0  0
    2.0258    1.4708   -2.3014 H   0  0  0  0  0  0  0  0  0  0  0  0
    5.1142    2.3851   -0.7243 H   0  0  0  0  0  0  0  0  0  0  0  0
    5.0731    3.0802    0.8615 H   0  0  0  0  0  0  0  0  0  0  0  0
   -3.6023   -3.1619    0.3846 H   0  0  0  0  0  0  0  0  0  0  0  0
   -3.3038   -2.0139    1.6654 H   0  0  0  0  0  0  0  0  0  0  0  0
   -0.3999   -1.7179    2.5355 H   0  0  0  0  0  0  0  0  0  0  0  0
   -1.8085   -0.6716    2.6242 H   0  0  0  0  0  0  0  0  0  0  0  0
   -0.2161    0.0308    2.4907 H   0  0  0  0  0  0  0  0  0  0  0  0
   -5.1582   -0.7650    1.5493 H   0  0  0  0  0  0  0  0  0  0  0  0
   -4.1847    1.2101   -1.8378 H   0  0  0  0  0  0  0  0  0  0  0  0
   -3.4437    2.3617   -0.7918 H   0  0  0  0  0  0  0  0  0  0  0  0
    5.5577    0.3447   -1.7766 H   0  0  0  0  0  0  0  0  0  0  0  0
    5.1040   -1.3693   -1.7167 H   0  0  0  0  0  0  0  0  0  0  0  0
    6.6895   -1.3687    1.3243 H   0  0  0  0  0  0  0  0  0  0  0  0
    5.1190   -1.5915    2.0703 H   0  0  0  0  0  0  0  0  0  0  0  0
    5.5358   -2.5024    0.6141 H   0  0  0  0  0  0  0  0  0  0  0  0
   -6.4621    0.0836   -1.0697 H   0  0  0  0  0  0  0  0  0  0  0  0
   -7.0305    0.4032    0.5423 H   0  0  0  0  0  0  0  0  0  0  0  0
   -4.5109   -2.5994   -1.7031 H   0  0  0  0  0  0  0  0  0  0  0  0
   -3.1374   -1.6139   -2.2137 H   0  0  0  0  0  0  0  0  0  0  0  0
   -4.7656   -0.9499   -2.2600 H   0  0  0  0  0  0  0  0  0  0  0  0
    7.1071    1.9998    1.1930 H   0  0  0  0  0  0  0  0  0  0  0  0
   -4.4554    1.3748    1.9880 H   0  0  0  0  0  0  0  0  0  0  0  0
   -4.5232    3.0438    1.4247 H   0  0  0  0  0  0  0  0  0  0  0  0
   -6.0009    2.2286    1.9539 H   0  0  0  0  0  0  0  0  0  0  0  0
   -5.5986    3.6606   -0.7602 H   0  0  0  0  0  0  0  0  0  0  0  0
   -6.3404    2.4267   -1.7874 H   0  0  0  0  0  0  0  0  0  0  0  0
   -7.0966    2.8671   -0.2495 H   0  0  0  0  0  0  0  0  0  0  0  0
   -6.9459   -1.9054    0.8156 H   0  0  0  0  0  0  0  0  0  0  0  0
    7.3208   -1.0501   -1.9370 H   0  0  0  0  0  0  0  0  0  0  0  0
  1 20  1  0  0  0  0
  1 75  1  0  0  0  0
  2 25  1  0  0  0  0
  2 82  1  0  0  0  0
  3 27  1  0  0  0  0
  3 83  1  0  0  0  0
  4  5  1  0  0  0  0
  4  7  1  0  0  0  0
  4  9  1  0  0  0  0
  4 18  1  0  0  0  0
  5  6  1  0  0  0  0
  5 12  1  0  0  0  0
  5 34  1  0  0  0  0
  6  8  1  0  0  0  0
  6 14  1  0  0  0  0
  6 21  1  0  0  0  0
  7 13  1  0  0  0  0
  7 15  1  0  0  0  0
  7 24  1  0  0  0  0
  8 10  1  0  0  0  0
  8 11  1  0  0  0  0
  8 35  1  0  0  0  0
  9 10  1  0  0  0  0
  9 36  1  0  0  0  0
  9 37  1  0  0  0  0
 10 38  1  0  0  0  0
 10 39  1  0  0  0  0
 11 20  1  0  0  0  0
 11 27  1  0  0  0  0
 11 28  1  0  0  0  0
 12 16  1  0  0  0  0
 12 40  1  0  0  0  0
 12 41  1  0  0  0  0
 13 16  1  0  0  0  0
 13 19  2  0  0  0  0
 14 22  1  0  0  0  0
 14 42  1  0  0  0  0
 14 43  1  0  0  0  0
 15 23  1  0  0  0  0
 15 44  1  0  0  0  0
 15 45  1  0  0  0  0
 16 46  1  0  0  0  0
 16 47  1  0  0  0  0
 17 19  1  0  0  0  0
 17 23  1  0  0  0  0
 17 25  1  0  0  0  0
 17 31  1  0  0  0  0
 18 48  1  0  0  0  0
 18 49  1  0  0  0  0
 18 50  1  0  0  0  0
 19 26  1  0  0  0  0
 20 22  1  0  0  0  0
 20 51  1  0  0  0  0
 21 52  1  0  0  0  0
 21 53  1  0  0  0  0
 21 54  1  0  0  0  0
 22 55  1  0  0  0  0
 22 56  1  0  0  0  0
 23 57  1  0  0  0  0
 23 58  1  0  0  0  0
 24 59  1  0  0  0  0
 24 60  1  0  0  0  0
 24 61  1  0  0  0  0
 25 30  1  0  0  0  0
 25 62  1  0  0  0  0
 26 29  1  0  0  0  0
 26 63  1  0  0  0  0
 26 64  1  0  0  0  0
 27 65  1  0  0  0  0
 27 66  1  0  0  0  0
 28 67  1  0  0  0  0
 28 68  1  0  0  0  0
 28 69  1  0  0  0  0
 29 30  1  0  0  0  0
 29 32  1  0  0  0  0
 29 33  1  0  0  0  0
 30 70  1  0  0  0  0
 30 71  1  0  0  0  0
 31 72  1  0  0  0  0
 31 73  1  0  0  0  0
 31 74  1  0  0  0  0
 32 76  1  0  0  0  0
 32 77  1  0  0  0  0
 32 78  1  0  0  0  0
 33 79  1  0  0  0  0
 33 80  1  0  0  0  0
 33 81  1  0  0  0  0
M  END
> <PUBCHEM_COMPOUND_CID>
46173902

> <PUBCHEM_CONFORMER_RMSD>
0.8

> <PUBCHEM_CONFORMER_DIVERSEORDER>
1

> <PUBCHEM_MMFF94_PARTIAL_CHARGES>
15
1 -0.68
13 -0.28
16 0.14
17 0.14
19 -0.28
2 -0.68
20 0.28
25 0.28
26 0.14
27 0.28
3 -0.68
7 0.14
75 0.4
82 0.4
83 0.4

> <PUBCHEM_EFFECTIVE_ROTOR_COUNT>
3.8

> <PUBCHEM_PHARMACOPHORE_FEATURES>
12
1 1 acceptor
1 1 donor
1 2 acceptor
1 2 donor
1 3 acceptor
1 3 donor
3 29 32 33 hydrophobe
6 17 19 25 26 29 30 rings
6 4 5 6 8 9 10 rings
6 4 5 7 12 13 16 rings
6 6 8 11 14 20 22 rings
6 7 13 15 17 19 23 rings

> <PUBCHEM_HEAVY_ATOM_COUNT>
33

> <PUBCHEM_ATOM_DEF_STEREO_COUNT>
9

> <PUBCHEM_ATOM_UDEF_STEREO_COUNT>
0

> <PUBCHEM_BOND_DEF_STEREO_COUNT>
0

> <PUBCHEM_BOND_UDEF_STEREO_COUNT>
0

> <PUBCHEM_ISOTOPIC_ATOM_COUNT>
0

> <PUBCHEM_COMPONENT_COUNT>
1

> <PUBCHEM_CACTVS_TAUTO_COUNT>
1

> <PUBCHEM_CONFORMER_ID>
02C08ECE00000001

> <PUBCHEM_MMFF94_ENERGY>
148.7225

> <PUBCHEM_FEATURE_SELFOVERLAP>
60.963

> <PUBCHEM_SHAPE_FINGERPRINT>
10835480 77 18334019371830426192
10906281 52 18129928057783880234
11007060 377 18272930501727729145
11578080 2 17242753986604154504
12166972 35 18272084972569443788
12236239 1 18202846569051700027
12422481 6 17846216695828606117
12633257 1 16988847133698309308
12788726 201 17604712317004647073
13402501 40 18411139129986414360
13533116 47 17917435388697166866
13782708 43 17822858567671245863
13811026 1 18409173207506664536
13911987 19 16588306046931630208
14394314 77 18412544340143822745
144659 39 18040719164605044437
14790565 3 18412262874252054817
14856354 85 16128650830395128211
15021287 119 17203605986766657765
15131766 46 15623663724365698527
15183329 4 18272369784513722951
15196674 1 18411420596251682785
15238133 3 18201712960084814876
15788980 27 18261111859282098831
17349148 13 18131068229708655476
17980427 23 18272931587705764661
1813 80 16486978388495038638
18393751 57 15950229484201196497
18681886 176 18409169883549981298
20511986 3 18335997427275535539
20715895 44 18339083795138200913
21033648 29 18187941534245122000
21130935 74 18342179985702115690
21236236 1 18410295796568546433
21267235 1 18411974741770404915
21279426 13 18409448115420305492
23402539 116 18411422817082006335
23522609 53 17915433156089513220
23559900 14 18408890607512623928
23569914 2 17616589146998354881
23569943 247 17344645948320609410
24771293 8 18338244739761720956
2838139 119 18336835199317449013
3004659 81 18343862212943789508
32027 91 17170092979562815047
335352 9 18412263964609382252
3383291 50 18130505211300308083
34797466 226 17822285752399010854
350125 39 18341894125684646868
3680242 22 18200877386992570250
404807 14 17251728556956359382
4073 2 18131067079032038554
4144715 1 18341602737818402971
5104073 3 18341895194719813715
5283173 99 18411983576481235641
6086070 43 17531257123106899969
6328613 192 18130777941770511156
7226269 152 18334295405151943337

> <PUBCHEM_SHAPE_MULTIPOLES>
661.52
16.78
2.66
1.34
4.78
0.38
-0.12
3.24
0.16
-1.87
0.16
0.15
-0.14
0.26

> <PUBCHEM_SHAPE_SELFOVERLAP>
1401.586

> <PUBCHEM_SHAPE_VOLUME>
365.6

> <PUBCHEM_COORDINATE_TYPE>
2
5
10

$$$$

