16093504
  -OEChem-07051213033D

 53 54  0     1  0  0  0  0  0999 V2000
    5.6216   -0.4862    0.4329 O   0  0  0  0  0  0  0  0  0  0  0  0
    2.6736   -0.7193   -1.8592 O   0  0  0  0  0  0  0  0  0  0  0  0
   -0.7401    1.9176   -1.7361 O   0  0  0  0  0  0  0  0  0  0  0  0
   -0.2734   -1.0595   -1.6956 O   0  0  0  0  0  0  0  0  0  0  0  0
   -1.9719   -3.1240   -0.9905 O   0  0  0  0  0  0  0  0  0  0  0  0
   -1.4411    0.8232    1.7902 O   0  0  0  0  0  0  0  0  0  0  0  0
   -3.5198   -0.8602    2.4897 O   0  0  0  0  0  0  0  0  0  0  0  0
    2.8430   -0.1218    0.3746 N   0  0  0  0  0  0  0  0  0  0  0  0
   -1.1772    3.2737    0.0944 N   0  0  0  0  0  0  0  0  0  0  0  0
    3.1026    2.3060    0.6708 C   0  0  0  0  0  0  0  0  0  0  0  0
    3.7393    0.9974    0.1804 C   0  0  1  0  0  0  0  0  0  0  0  0
    1.7641    2.6040   -0.0163 C   0  0  0  0  0  0  0  0  0  0  0  0
    1.1726    3.9284    0.4774 C   0  0  0  0  0  0  0  0  0  0  0  0
    5.0569    0.7304    0.9087 C   0  0  0  0  0  0  0  0  0  0  0  0
   -0.1660    4.2585   -0.1764 C   0  0  0  0  0  0  0  0  0  0  0  0
    2.3820   -0.8935   -0.6789 C   0  0  0  0  0  0  0  0  0  0  0  0
    1.4470   -1.9896   -0.3165 C   0  0  0  0  0  0  0  0  0  0  0  0
   -1.3843    2.1667   -0.7206 C   0  0  0  0  0  0  0  0  0  0  0  0
   -2.4866    1.2556   -0.3186 C   0  0  0  0  0  0  0  0  0  0  0  0
    0.1546   -2.0315   -0.8397 C   0  0  0  0  0  0  0  0  0  0  0  0
    1.8777   -2.9864    0.5591 C   0  0  0  0  0  0  0  0  0  0  0  0
   -0.7071   -3.0704   -0.4872 C   0  0  0  0  0  0  0  0  0  0  0  0
   -2.4737    0.6190    0.9226 C   0  0  0  0  0  0  0  0  0  0  0  0
    1.0162   -4.0251    0.9115 C   0  0  0  0  0  0  0  0  0  0  0  0
   -3.5453    1.0415   -1.2013 C   0  0  0  0  0  0  0  0  0  0  0  0
   -0.2763   -4.0671    0.3884 C   0  0  0  0  0  0  0  0  0  0  0  0
   -3.5195   -0.2319    1.2810 C   0  0  0  0  0  0  0  0  0  0  0  0
   -4.5908    0.1906   -0.8430 C   0  0  0  0  0  0  0  0  0  0  0  0
   -4.5780   -0.4460    0.3981 C   0  0  0  0  0  0  0  0  0  0  0  0
    2.9400    2.2531    1.7553 H   0  0  0  0  0  0  0  0  0  0  0  0
    3.7975    3.1360    0.4920 H   0  0  0  0  0  0  0  0  0  0  0  0
    3.9542    1.0888   -0.8912 H   0  0  0  0  0  0  0  0  0  0  0  0
    1.9080    2.6431   -1.1023 H   0  0  0  0  0  0  0  0  0  0  0  0
    1.0759    1.7842    0.2024 H   0  0  0  0  0  0  0  0  0  0  0  0
    1.0408    3.8805    1.5657 H   0  0  0  0  0  0  0  0  0  0  0  0
    1.8772    4.7436    0.2740 H   0  0  0  0  0  0  0  0  0  0  0  0
    5.7721    1.5397    0.7291 H   0  0  0  0  0  0  0  0  0  0  0  0
    4.8990    0.6309    1.9883 H   0  0  0  0  0  0  0  0  0  0  0  0
   -0.0417    4.3601   -1.2603 H   0  0  0  0  0  0  0  0  0  0  0  0
   -0.5369    5.2144    0.2081 H   0  0  0  0  0  0  0  0  0  0  0  0
    2.5373   -0.3315    1.3208 H   0  0  0  0  0  0  0  0  0  0  0  0
   -1.7665    3.4084    0.9110 H   0  0  0  0  0  0  0  0  0  0  0  0
    6.4546   -0.6215    0.9160 H   0  0  0  0  0  0  0  0  0  0  0  0
    2.8835   -2.9701    0.9712 H   0  0  0  0  0  0  0  0  0  0  0  0
    1.3519   -4.8017    1.5924 H   0  0  0  0  0  0  0  0  0  0  0  0
   -3.5680    1.5326   -2.1706 H   0  0  0  0  0  0  0  0  0  0  0  0
   -0.9370   -4.8822    0.6715 H   0  0  0  0  0  0  0  0  0  0  0  0
   -5.4150    0.0238   -1.5303 H   0  0  0  0  0  0  0  0  0  0  0  0
   -5.3989   -1.1067    0.6640 H   0  0  0  0  0  0  0  0  0  0  0  0
   -1.1940   -1.2523   -1.9447 H   0  0  0  0  0  0  0  0  0  0  0  0
   -2.4229   -3.9076   -0.6319 H   0  0  0  0  0  0  0  0  0  0  0  0
   -0.7901    1.4338    1.4109 H   0  0  0  0  0  0  0  0  0  0  0  0
   -4.3199   -1.4084    2.5617 H   0  0  0  0  0  0  0  0  0  0  0  0
  1 14  1  0  0  0  0
  1 43  1  0  0  0  0
  2 16  2  0  0  0  0
  3 18  2  0  0  0  0
  4 20  1  0  0  0  0
  4 50  1  0  0  0  0
  5 22  1  0  0  0  0
  5 51  1  0  0  0  0
  6 23  1  0  0  0  0
  6 52  1  0  0  0  0
  7 27  1  0  0  0  0
  7 53  1  0  0  0  0
  8 11  1  0  0  0  0
  8 16  1  0  0  0  0
  8 41  1  0  0  0  0
  9 15  1  0  0  0  0
  9 18  1  0  0  0  0
  9 42  1  0  0  0  0
 10 11  1  0  0  0  0
 10 12  1  0  0  0  0
 10 30  1  0  0  0  0
 10 31  1  0  0  0  0
 11 14  1  0  0  0  0
 11 32  1  0  0  0  0
 12 13  1  0  0  0  0
 12 33  1  0  0  0  0
 12 34  1  0  0  0  0
 13 15  1  0  0  0  0
 13 35  1  0  0  0  0
 13 36  1  0  0  0  0
 14 37  1  0  0  0  0
 14 38  1  0  0  0  0
 15 39  1  0  0  0  0
 15 40  1  0  0  0  0
 16 17  1  0  0  0  0
 17 20  2  0  0  0  0
 17 21  1  0  0  0  0
 18 19  1  0  0  0  0
 19 23  2  0  0  0  0
 19 25  1  0  0  0  0
 20 22  1  0  0  0  0
 21 24  2  0  0  0  0
 21 44  1  0  0  0  0
 22 26  2  0  0  0  0
 23 27  1  0  0  0  0
 24 26  1  0  0  0  0
 24 45  1  0  0  0  0
 25 28  2  0  0  0  0
 25 46  1  0  0  0  0
 26 47  1  0  0  0  0
 27 29  2  0  0  0  0
 28 29  1  0  0  0  0
 28 48  1  0  0  0  0
 29 49  1  0  0  0  0
M  END
> <PUBCHEM_COMPOUND_CID>
16093504

> <PUBCHEM_CONFORMER_RMSD>
1.2

> <PUBCHEM_CONFORMER_DIVERSEORDER>
1
47
140
68
158
137
126
112
96
109
62
4
56
105
145
63
6
138
38
190
59
149
166
182
3
144
116
73
101
164
12
152
160
122
34
44
64
142
147
154
157
141
65
19
180
21
57
123
69
2
108
90
181
130
167
129
41
117
133
50
135
83
75
39
184
35
128
94
30
120
26
159
54
40
79
97
139
46
84
42
52
23
136
153
173
161
183
175
188
24
132
45
127
85
53
110
171
124
111
74
118
88
70
92
102
80
76
5
16
66
176
67
107
49
60
13
10
61
98
86
89
114
43
115
103
25
121
163
146
82
7
156
131
48
81
99
174
93
178
148
77
172
9
18
155
113
192
185
78
22
151
125
134
58
150
165
106
55
29
20
8
104
15
191
168
87
28
179
14
27
187
72
71
100
186
170
189
37
169
36
31
32
162
119
95
33
51
11
17
143
177
91

> <PUBCHEM_MMFF94_PARTIAL_CHARGES>
39
1 -0.68
11 0.3
14 0.28
15 0.3
16 0.54
17 0.09
18 0.54
19 0.09
2 -0.57
20 0.08
21 -0.15
22 0.08
23 0.08
24 -0.15
25 -0.15
26 -0.15
27 0.08
28 -0.15
29 -0.15
3 -0.57
4 -0.53
41 0.37
42 0.37
43 0.4
44 0.15
45 0.15
46 0.15
47 0.15
48 0.15
49 0.15
5 -0.53
50 0.45
51 0.45
52 0.45
53 0.45
6 -0.53
7 -0.53
8 -0.73
9 -0.73

> <PUBCHEM_EFFECTIVE_ROTOR_COUNT>
11

> <PUBCHEM_PHARMACOPHORE_FEATURES>
12
1 1 acceptor
1 1 donor
1 2 acceptor
1 3 acceptor
1 4 donor
1 5 donor
1 6 donor
1 7 donor
1 8 donor
1 9 donor
6 17 20 21 22 24 26 rings
6 19 23 25 27 28 29 rings

> <PUBCHEM_HEAVY_ATOM_COUNT>
29

> <PUBCHEM_ATOM_DEF_STEREO_COUNT>
1

> <PUBCHEM_ATOM_UDEF_STEREO_COUNT>
0

> <PUBCHEM_BOND_DEF_STEREO_COUNT>
0

> <PUBCHEM_BOND_UDEF_STEREO_COUNT>
0

> <PUBCHEM_ISOTOPIC_ATOM_COUNT>
0

> <PUBCHEM_COMPONENT_COUNT>
1

> <PUBCHEM_CACTVS_TAUTO_COUNT>
513

> <PUBCHEM_CONFORMER_ID>
00F5914000000001

> <PUBCHEM_MMFF94_ENERGY>
63.5042

> <PUBCHEM_FEATURE_SELFOVERLAP>
60.907

> <PUBCHEM_SHAPE_FINGERPRINT>
10366900 7 18126837429287699295
1100329 8 18265901263076051348
12422481 6 17835501745016478803
12633257 1 18335700477790392884
13122387 1 18410290332689735433
13140716 1 18266458698301896996
13402501 40 18413111658015167233
13583140 156 18131634456627490579
1361 2 18339093583875109601
13911987 19 18342732988284192292
14117953 113 18408886252220451261
16728300 4 17556893478397112634
17138139 8 17173798046639206031
19930381 70 18339369668409297009
20764821 26 18267592312181207876
21796203 349 17982415297158572600
22113638 7 18339083679169004032
23227448 37 18263928730678816015
23559900 14 17773025586854260471
35225 105 17630872816617439162
392239 28 18409445873616272843
463206 1 18263650558932980149
469060 322 18130517314554817775
5282274 181 18049144580248267961
5309563 4 18410855464787613321

> <PUBCHEM_SHAPE_MULTIPOLES>
545.76
7.99
5.69
1.5
2.24
0.69
-0.17
-1.34
-1.7
1.49
-0.26
-0.95
0.24
0.63

> <PUBCHEM_SHAPE_SELFOVERLAP>
1146.471

> <PUBCHEM_SHAPE_VOLUME>
304.5

> <PUBCHEM_COORDINATE_TYPE>
2
5
10

$$$$

