2015
  -OEChem-07051213153D

 24 26  0     0  0  0  0  0  0999 V2000
    0.0000    2.5172   -0.0021 O   0  0  0  0  0  0  0  0  0  0  0  0
    0.0000   -1.5326   -0.0019 N   0  0  0  0  0  0  0  0  0  0  0  0
   -1.2783    0.5344   -0.0007 C   0  0  0  0  0  0  0  0  0  0  0  0
    1.2783    0.5344   -0.0007 C   0  0  0  0  0  0  0  0  0  0  0  0
   -1.2343   -0.8698   -0.0012 C   0  0  0  0  0  0  0  0  0  0  0  0
    1.2341   -0.8697   -0.0013 C   0  0  0  0  0  0  0  0  0  0  0  0
    0.0000    1.2931   -0.0011 C   0  0  0  0  0  0  0  0  0  0  0  0
   -2.5014    1.2111    0.0009 C   0  0  0  0  0  0  0  0  0  0  0  0
    2.5013    1.2111    0.0008 C   0  0  0  0  0  0  0  0  0  0  0  0
   -2.4361   -1.5858   -0.0003 C   0  0  0  0  0  0  0  0  0  0  0  0
    2.4361   -1.5857   -0.0004 C   0  0  0  0  0  0  0  0  0  0  0  0
   -3.6904    0.4828    0.0023 C   0  0  0  0  0  0  0  0  0  0  0  0
    3.6905    0.4828    0.0025 C   0  0  0  0  0  0  0  0  0  0  0  0
   -3.6584   -0.9115    0.0017 C   0  0  0  0  0  0  0  0  0  0  0  0
    3.6586   -0.9116    0.0016 C   0  0  0  0  0  0  0  0  0  0  0  0
    0.0000   -2.5442   -0.0028 H   0  0  0  0  0  0  0  0  0  0  0  0
   -2.5475    2.2963    0.0014 H   0  0  0  0  0  0  0  0  0  0  0  0
    2.5474    2.2964    0.0013 H   0  0  0  0  0  0  0  0  0  0  0  0
   -2.4296   -2.6730   -0.0005 H   0  0  0  0  0  0  0  0  0  0  0  0
    2.4296   -2.6730   -0.0008 H   0  0  0  0  0  0  0  0  0  0  0  0
   -4.6442    1.0025    0.0037 H   0  0  0  0  0  0  0  0  0  0  0  0
    4.6442    1.0026    0.0041 H   0  0  0  0  0  0  0  0  0  0  0  0
   -4.5873   -1.4747    0.0027 H   0  0  0  0  0  0  0  0  0  0  0  0
    4.5875   -1.4748    0.0026 H   0  0  0  0  0  0  0  0  0  0  0  0
  1  7  2  0  0  0  0
  2  5  1  0  0  0  0
  2  6  1  0  0  0  0
  2 16  1  0  0  0  0
  3  5  1  0  0  0  0
  3  7  1  0  0  0  0
  3  8  2  0  0  0  0
  4  6  1  0  0  0  0
  4  7  1  0  0  0  0
  4  9  2  0  0  0  0
  5 10  2  0  0  0  0
  6 11  2  0  0  0  0
  8 12  1  0  0  0  0
  8 17  1  0  0  0  0
  9 13  1  0  0  0  0
  9 18  1  0  0  0  0
 10 14  1  0  0  0  0
 10 19  1  0  0  0  0
 11 15  1  0  0  0  0
 11 20  1  0  0  0  0
 12 14  2  0  0  0  0
 12 21  1  0  0  0  0
 13 15  2  0  0  0  0
 13 22  1  0  0  0  0
 14 23  1  0  0  0  0
 15 24  1  0  0  0  0
M  END
> <PUBCHEM_COMPOUND_CID>
2015

> <PUBCHEM_CONFORMER_RMSD>
0.4

> <PUBCHEM_CONFORMER_DIVERSEORDER>
1

> <PUBCHEM_MMFF94_PARTIAL_CHARGES>
24
1 -0.57
10 -0.15
11 -0.15
12 -0.15
13 -0.15
14 -0.15
15 -0.15
16 0.4
17 0.15
18 0.15
19 0.15
2 -0.6
20 0.15
21 0.15
22 0.15
23 0.15
24 0.15
3 0.09
4 0.09
5 0.1
6 0.1
7 0.4
8 -0.15
9 -0.15

> <PUBCHEM_EFFECTIVE_ROTOR_COUNT>
0

> <PUBCHEM_PHARMACOPHORE_FEATURES>
6
1 1 acceptor
1 2 cation
1 2 donor
6 2 3 4 5 6 7 rings
6 3 5 8 10 12 14 rings
6 4 6 9 11 13 15 rings

> <PUBCHEM_HEAVY_ATOM_COUNT>
15

> <PUBCHEM_ATOM_DEF_STEREO_COUNT>
0

> <PUBCHEM_ATOM_UDEF_STEREO_COUNT>
0

> <PUBCHEM_BOND_DEF_STEREO_COUNT>
0

> <PUBCHEM_BOND_UDEF_STEREO_COUNT>
0

> <PUBCHEM_ISOTOPIC_ATOM_COUNT>
0

> <PUBCHEM_COMPONENT_COUNT>
1

> <PUBCHEM_CACTVS_TAUTO_COUNT>
3

> <PUBCHEM_CONFORMER_ID>
000007DF00000001

> <PUBCHEM_MMFF94_ENERGY>
51.268

> <PUBCHEM_FEATURE_SELFOVERLAP>
30.492

> <PUBCHEM_SHAPE_FINGERPRINT>
10608611 8 18410859862469958496
10618630 7 18411699902491357636
10967382 1 18410856546813078854
11132069 177 18409736161691587296
11471102 20 18410860957717981846
11806522 49 18339083662215812887
12032990 46 18410851066376812871
12382932 28 18408603681794646440
13140716 1 18410855507378129234
13221675 6 18410856563934925762
13296908 3 18410855460133624939
13380535 76 18410575088958513927
14144814 61 18410573989483406819
14325111 11 18410856559650430016
15196674 1 18410575084663117895
15375462 189 18202282545403979859
15442244 35 18194402423135745482
15536298 74 18334295362106811266
16945 1 18410855464423226532
18186145 218 17917996091701962838
18522853 276 18408041801514896137
193761 8 17689999359079760559
200 152 18041007215614560639
20201158 50 18411699893669561267
20510252 161 18260548977927075625
20645477 70 18408889572256661639
21029758 11 18334864904967245033
21267235 1 18410565189058877155
21501502 16 18410572894235045698
221490 88 18269548334624248866
2334 1 18411136905040244294
23402539 116 18334023799566674830
23402655 69 18408609188174926061
23463225 33 18411981368783181636
23559900 14 18336269058873135718
2748010 2 18410013234231874014
3312278 4 18410853265405174417
335352 9 18050286165290954999
34934 24 18410302405779468426
5104073 3 18410856563934777346
528886 8 18410016537072293674
537710 114 18411412895396621508
53812653 166 18262241027711918288
69090 78 18334299768769897215
7364860 26 18191587441155795656
8809292 202 18272083881462965435
9709674 26 18410006628694109142

> <PUBCHEM_SHAPE_MULTIPOLES>
297.84
6.46
2
0.6
0
0.36
0
-0.96
0.01
0
0
0
-0.01
0

> <PUBCHEM_SHAPE_SELFOVERLAP>
669.894

> <PUBCHEM_SHAPE_VOLUME>
155

> <PUBCHEM_COORDINATE_TYPE>
2
5
10

$$$$

