439983
  -OEChem-07051212483D

 18 17  0     1  0  0  0  0  0999 V2000
    0.7302    1.6016    0.8783 O   0  0  0  0  0  0  0  0  0  0  0  0
   -2.1198    0.6129   -1.1254 O   0  0  0  0  0  0  0  0  0  0  0  0
    2.1023    0.8859   -0.7809 O   0  0  0  0  0  0  0  0  0  0  0  0
    1.7736   -1.7011    0.1077 N   0  0  0  0  0  0  0  0  0  0  0  0
    0.7122   -0.7384    0.3953 C   0  0  2  0  0  0  0  0  0  0  0  0
   -0.5146   -1.0753   -0.4589 C   0  0  0  0  0  0  0  0  0  0  0  0
   -1.6773   -0.1175   -0.2403 C   0  0  0  0  0  0  0  0  0  0  0  0
    1.2692    0.6405    0.0815 C   0  0  0  0  0  0  0  0  0  0  0  0
   -2.2757   -0.1085    1.1427 C   0  0  0  0  0  0  0  0  0  0  0  0
    0.4825   -0.7944    1.4645 H   0  0  0  0  0  0  0  0  0  0  0  0
   -0.8727   -2.0909   -0.2519 H   0  0  0  0  0  0  0  0  0  0  0  0
   -0.2622   -1.0351   -1.5268 H   0  0  0  0  0  0  0  0  0  0  0  0
    2.6080   -1.4715    0.6459 H   0  0  0  0  0  0  0  0  0  0  0  0
    2.0374   -1.6524   -0.8756 H   0  0  0  0  0  0  0  0  0  0  0  0
   -3.2285    0.4285    1.1233 H   0  0  0  0  0  0  0  0  0  0  0  0
   -1.6036    0.3909    1.8430 H   0  0  0  0  0  0  0  0  0  0  0  0
   -2.4678   -1.1337    1.4696 H   0  0  0  0  0  0  0  0  0  0  0  0
    1.0898    2.4907    0.6722 H   0  0  0  0  0  0  0  0  0  0  0  0
  1  8  1  0  0  0  0
  1 18  1  0  0  0  0
  2  7  2  0  0  0  0
  3  8  2  0  0  0  0
  4  5  1  0  0  0  0
  4 13  1  0  0  0  0
  4 14  1  0  0  0  0
  5  6  1  0  0  0  0
  5  8  1  0  0  0  0
  5 10  1  0  0  0  0
  6  7  1  0  0  0  0
  6 11  1  0  0  0  0
  6 12  1  0  0  0  0
  7  9  1  0  0  0  0
  9 15  1  0  0  0  0
  9 16  1  0  0  0  0
  9 17  1  0  0  0  0
M  END
> <PUBCHEM_COMPOUND_CID>
439983

> <PUBCHEM_CONFORMER_RMSD>
0.6

> <PUBCHEM_CONFORMER_DIVERSEORDER>
2
3
17
11
12
4
1
14
9
6
8
16
5
7
18
15
10
13

> <PUBCHEM_MMFF94_PARTIAL_CHARGES>
12
1 -0.65
13 0.36
14 0.36
18 0.5
2 -0.57
3 -0.57
4 -0.99
5 0.33
6 0.06
7 0.45
8 0.66
9 0.06

> <PUBCHEM_EFFECTIVE_ROTOR_COUNT>
3

> <PUBCHEM_PHARMACOPHORE_FEATURES>
6
1 1 acceptor
1 2 acceptor
1 3 acceptor
1 4 cation
1 4 donor
3 1 3 8 anion

> <PUBCHEM_HEAVY_ATOM_COUNT>
9

> <PUBCHEM_ATOM_DEF_STEREO_COUNT>
1

> <PUBCHEM_ATOM_UDEF_STEREO_COUNT>
0

> <PUBCHEM_BOND_DEF_STEREO_COUNT>
0

> <PUBCHEM_BOND_UDEF_STEREO_COUNT>
0

> <PUBCHEM_ISOTOPIC_ATOM_COUNT>
0

> <PUBCHEM_COMPONENT_COUNT>
1

> <PUBCHEM_CACTVS_TAUTO_COUNT>
3

> <PUBCHEM_CONFORMER_ID>
0006B6AF00000002

> <PUBCHEM_MMFF94_ENERGY>
8.3958

> <PUBCHEM_FEATURE_SELFOVERLAP>
30.505

> <PUBCHEM_SHAPE_FINGERPRINT>
10857977 72 17345463783186617299
12932741 1 17561084739191223375
137420 1 5900706442715849442
18185500 45 18114187461878369923
20096714 4 18261675857112536243
21040471 1 18268721510575324454
24536 1 17345771719156184127
29004967 10 18270682098753380090
5084963 1 18195809565800680527

> <PUBCHEM_SHAPE_MULTIPOLES>
162.63
3.04
1.45
1.03
0.73
0.13
0.02
-0.27
-0.08
-0.81
0.12
0.45
-0.18
0.02

> <PUBCHEM_SHAPE_SELFOVERLAP>
306.732

> <PUBCHEM_SHAPE_VOLUME>
100.6

> <PUBCHEM_COORDINATE_TYPE>
2
5
10

$$$$

