265237
  -OEChem-07051212562D

 72 77  0     1  0  0  0  0  0999 V2000
    3.7998   -3.1250    0.0000 O   0  0  0  0  0  0  0  0  0  0  0  0
    2.9176   -3.6592    0.0000 O   0  0  0  0  0  0  0  0  0  0  0  0
    2.9176    0.4100    0.0000 O   0  0  0  0  0  0  0  0  0  0  0  0
    9.0542    2.8286    0.0000 O   0  0  0  0  0  0  0  0  0  0  0  0
   10.3522    3.9753    0.0000 O   0  0  0  0  0  0  0  0  0  0  0  0
   11.9943    3.4246    0.0000 O   0  0  0  0  0  0  0  0  0  0  0  0
    5.5321   -1.1246    0.0000 C   0  0  2  0  0  0  0  0  0  0  0  0
    3.8000   -2.1246    0.0000 C   0  0  1  0  0  0  0  0  0  0  0  0
    4.6660   -0.6246    0.0000 C   0  0  1  0  0  0  0  0  0  0  0  0
    3.8000   -1.1246    0.0000 C   0  0  2  0  0  0  0  0  0  0  0  0
    6.4421   -0.6177    0.0000 C   0  0  1  0  0  0  0  0  0  0  0  0
    6.4501    0.4239    0.0000 C   0  0  1  0  0  0  0  0  0  0  0  0
    4.6660   -2.6246    0.0000 C   0  0  1  0  0  0  0  0  0  0  0  0
    5.5321   -2.1246    0.0000 C   0  0  0  0  0  0  0  0  0  0  0  0
    7.4381    0.7337    0.0000 C   0  0  2  0  0  0  0  0  0  0  0  0
    4.6500    0.4170    0.0000 C   0  0  0  0  0  0  0  0  0  0  0  0
    5.5480    0.9447    0.0000 C   0  0  0  0  0  0  0  0  0  0  0  0
    7.4252   -0.9427    0.0000 C   0  0  0  0  0  0  0  0  0  0  0  0
    8.0396   -0.1092    0.0000 C   0  0  0  0  0  0  0  0  0  0  0  0
    2.9061   -2.6592    0.0000 C   0  0  2  0  0  0  0  0  0  0  0  0
    3.8000   -0.1246    0.0000 C   0  0  0  0  0  0  0  0  0  0  0  0
    2.9061   -0.5899    0.0000 C   0  0  0  0  0  0  0  0  0  0  0  0
    6.4578    1.4239    0.0000 C   0  0  0  0  0  0  0  0  0  0  0  0
    7.7561    1.6818    0.0000 C   0  0  1  0  0  0  0  0  0  0  0  0
    2.0000   -2.1454    0.0000 C   0  0  0  0  0  0  0  0  0  0  0  0
    2.0000   -1.1037    0.0000 C   0  0  0  0  0  0  0  0  0  0  0  0
    8.7362    1.8805    0.0000 C   0  0  1  0  0  0  0  0  0  0  0  0
    7.0940    2.4312    0.0000 C   0  0  0  0  0  0  0  0  0  0  0  0
    9.3983    1.1310    0.0000 C   0  0  0  0  0  0  0  0  0  0  0  0
   10.3783    1.3297    0.0000 C   0  0  0  0  0  0  0  0  0  0  0  0
   10.0342    3.0272    0.0000 C   0  0  0  0  0  0  0  0  0  0  0  0
   10.6963    2.2778    0.0000 C   0  0  0  0  0  0  0  0  0  0  0  0
   11.0404    0.5803    0.0000 C   0  0  0  0  0  0  0  0  0  0  0  0
   11.6764    2.4765    0.0000 C   0  0  0  0  0  0  0  0  0  0  0  0
    6.2649   -1.5552    0.0000 H   0  0  0  0  0  0  0  0  0  0  0  0
    5.3989   -0.1939    0.0000 H   0  0  0  0  0  0  0  0  0  0  0  0
    6.5222   -1.4639    0.0000 H   0  0  0  0  0  0  0  0  0  0  0  0
    5.0911   -3.3606    0.0000 H   0  0  0  0  0  0  0  0  0  0  0  0
    5.7441   -2.7072    0.0000 H   0  0  0  0  0  0  0  0  0  0  0  0
    6.1426   -2.0169    0.0000 H   0  0  0  0  0  0  0  0  0  0  0  0
    8.2788    0.8591    0.0000 H   0  0  0  0  0  0  0  0  0  0  0  0
    4.4319    0.9974    0.0000 H   0  0  0  0  0  0  0  0  0  0  0  0
    4.0408    0.3015    0.0000 H   0  0  0  0  0  0  0  0  0  0  0  0
    5.9453    1.4207    0.0000 H   0  0  0  0  0  0  0  0  0  0  0  0
    5.1470    1.4176    0.0000 H   0  0  0  0  0  0  0  0  0  0  0  0
    7.1698   -1.5077    0.0000 H   0  0  0  0  0  0  0  0  0  0  0  0
    7.9602   -1.2561    0.0000 H   0  0  0  0  0  0  0  0  0  0  0  0
    8.4972   -0.5275    0.0000 H   0  0  0  0  0  0  0  0  0  0  0  0
    8.5036    0.3020    0.0000 H   0  0  0  0  0  0  0  0  0  0  0  0
    2.3721   -2.9744    0.0000 H   0  0  0  0  0  0  0  0  0  0  0  0
    4.4200   -0.1246    0.0000 H   0  0  0  0  0  0  0  0  0  0  0  0
    3.8000    0.4954    0.0000 H   0  0  0  0  0  0  0  0  0  0  0  0
    3.1800   -0.1246    0.0000 H   0  0  0  0  0  0  0  0  0  0  0  0
    7.0778    1.4191    0.0000 H   0  0  0  0  0  0  0  0  0  0  0  0
    6.4626    2.0438    0.0000 H   0  0  0  0  0  0  0  0  0  0  0  0
    5.8378    1.4286    0.0000 H   0  0  0  0  0  0  0  0  0  0  0  0
    7.9532    2.2696    0.0000 H   0  0  0  0  0  0  0  0  0  0  0  0
    1.4643   -2.4574    0.0000 H   0  0  0  0  0  0  0  0  0  0  0  0
    1.4643   -0.7917    0.0000 H   0  0  0  0  0  0  0  0  0  0  0  0
    8.1734    2.5175    0.0000 H   0  0  0  0  0  0  0  0  0  0  0  0
    7.5587    2.8417    0.0000 H   0  0  0  0  0  0  0  0  0  0  0  0
    6.6835    2.8959    0.0000 H   0  0  0  0  0  0  0  0  0  0  0  0
    6.6294    2.0207    0.0000 H   0  0  0  0  0  0  0  0  0  0  0  0
    2.3843   -3.9753    0.0000 H   0  0  0  0  0  0  0  0  0  0  0  0
    8.8694    0.8075    0.0000 H   0  0  0  0  0  0  0  0  0  0  0  0
    9.6251    0.5540    0.0000 H   0  0  0  0  0  0  0  0  0  0  0  0
   10.5758    0.1698    0.0000 H   0  0  0  0  0  0  0  0  0  0  0  0
   11.4509    0.1156    0.0000 H   0  0  0  0  0  0  0  0  0  0  0  0
   11.5051    0.9908    0.0000 H   0  0  0  0  0  0  0  0  0  0  0  0
   11.6922    1.8567    0.0000 H   0  0  0  0  0  0  0  0  0  0  0  0
   12.2895    2.3844    0.0000 H   0  0  0  0  0  0  0  0  0  0  0  0
   12.6020    3.5478    0.0000 H   0  0  0  0  0  0  0  0  0  0  0  0
  8  1  1  1  0  0  0
  1 13  1  0  0  0  0
 20  2  1  1  0  0  0
  2 64  1  0  0  0  0
  3 22  2  0  0  0  0
  4 27  1  0  0  0  0
  4 31  1  0  0  0  0
  5 31  2  0  0  0  0
  6 34  1  0  0  0  0
  6 72  1  0  0  0  0
  7  9  1  0  0  0  0
  7 11  1  0  0  0  0
  7 14  1  0  0  0  0
  7 35  1  1  0  0  0
  8 10  1  0  0  0  0
  8 13  1  0  0  0  0
  8 20  1  0  0  0  0
  9 10  1  0  0  0  0
  9 16  1  0  0  0  0
  9 36  1  6  0  0  0
 10 21  1  1  0  0  0
 10 22  1  0  0  0  0
 11 12  1  0  0  0  0
 11 18  1  0  0  0  0
 11 37  1  6  0  0  0
 12 15  1  0  0  0  0
 12 17  1  0  0  0  0
 12 23  1  1  0  0  0
 13 14  1  0  0  0  0
 13 38  1  6  0  0  0
 14 39  1  0  0  0  0
 14 40  1  0  0  0  0
 15 19  1  0  0  0  0
 15 24  1  0  0  0  0
 15 41  1  6  0  0  0
 16 17  1  0  0  0  0
 16 42  1  0  0  0  0
 16 43  1  0  0  0  0
 17 44  1  0  0  0  0
 17 45  1  0  0  0  0
 18 19  1  0  0  0  0
 18 46  1  0  0  0  0
 18 47  1  0  0  0  0
 19 48  1  0  0  0  0
 19 49  1  0  0  0  0
 20 25  1  0  0  0  0
 20 50  1  0  0  0  0
 21 51  1  0  0  0  0
 21 52  1  0  0  0  0
 21 53  1  0  0  0  0
 22 26  1  0  0  0  0
 23 54  1  0  0  0  0
 23 55  1  0  0  0  0
 23 56  1  0  0  0  0
 24 27  1  0  0  0  0
 24 28  1  6  0  0  0
 24 57  1  0  0  0  0
 25 26  2  0  0  0  0
 25 58  1  0  0  0  0
 26 59  1  0  0  0  0
 27 29  1  0  0  0  0
 27 60  1  1  0  0  0
 28 61  1  0  0  0  0
 28 62  1  0  0  0  0
 28 63  1  0  0  0  0
 29 30  1  0  0  0  0
 29 65  1  0  0  0  0
 29 66  1  0  0  0  0
 30 32  2  0  0  0  0
 30 33  1  0  0  0  0
 31 32  1  0  0  0  0
 32 34  1  0  0  0  0
 33 67  1  0  0  0  0
 33 68  1  0  0  0  0
 33 69  1  0  0  0  0
 34 70  1  0  0  0  0
 34 71  1  0  0  0  0
M  END
> <PUBCHEM_COMPOUND_CID>
265237

> <PUBCHEM_COMPOUND_CANONICALIZED>
1

> <PUBCHEM_CACTVS_COMPLEXITY>
999

> <PUBCHEM_CACTVS_HBOND_ACCEPTOR>
6

> <PUBCHEM_CACTVS_HBOND_DONOR>
2

> <PUBCHEM_CACTVS_ROTATABLE_BOND>
3

> <PUBCHEM_CACTVS_SUBSKEYS>
AAADcfB4OAAAAAAAAAAAAAAAEgAAAYAAAAAwYIEABIAAAGDAAAAAGgAACAAAD1SggAICCAAABgCIAqDSCAAAAAAgAAAICAEAAEgBFBYAIQACUAAF4AALMYOKyPCPgAAAAAAAAADAAAYAADAAAQAACAAAAA==

> <PUBCHEM_IUPAC_INCHI>
InChI=1S/C28H38O6/c1-14-11-21(33-25(32)17(14)13-29)15(2)18-5-6-19-16-12-24-28(34-24)23(31)8-7-22(30)27(28,4)20(16)9-10-26(18,19)3/h7-8,15-16,18-21,23-24,29,31H,5-6,9-13H2,1-4H3/t15-,16-,18+,19-,20-,21+,23-,24+,26+,27-,28+/m0/s1

> <PUBCHEM_IUPAC_INCHIKEY>
DBRXOUCRJQVYJQ-CKNDUULBSA-N

> <PUBCHEM_XLOGP3_AA>
3.8

> <PUBCHEM_EXACT_MASS>
470.266839

> <PUBCHEM_MOLECULAR_FORMULA>
C28H38O6

> <PUBCHEM_MOLECULAR_WEIGHT>
470.59772

> <PUBCHEM_OPENEYE_CAN_SMILES>
CC1=C(C(=O)OC(C1)C(C)C2CCC3C2(CCC4C3CC5C6(C4(C(=O)C=CC6O)C)O5)C)CO

> <PUBCHEM_OPENEYE_ISO_SMILES>
CC1=C(C(=O)O[C@H](C1)[C@@H](C)[C@H]2CC[C@@H]3[C@@]2(CC[C@H]4[C@H]3C[C@@H]5[C@]6([C@@]4(C(=O)C=C[C@@H]6O)C)O5)C)CO

> <PUBCHEM_CACTVS_TPSA>
96.4

> <PUBCHEM_MONOISOTOPIC_WEIGHT>
470.266839

> <PUBCHEM_TOTAL_CHARGE>
0

> <PUBCHEM_HEAVY_ATOM_COUNT>
34

> <PUBCHEM_ATOM_DEF_STEREO_COUNT>
11

> <PUBCHEM_ATOM_UDEF_STEREO_COUNT>
0

> <PUBCHEM_BOND_DEF_STEREO_COUNT>
0

> <PUBCHEM_BOND_UDEF_STEREO_COUNT>
0

> <PUBCHEM_ISOTOPIC_ATOM_COUNT>
0

> <PUBCHEM_COMPONENT_COUNT>
1

> <PUBCHEM_CACTVS_TAUTO_COUNT>
1

> <PUBCHEM_COORDINATE_TYPE>
1
5
255

> <PUBCHEM_BONDANNOTATIONS>
8  1  5
10  21  5
11  37  6
12  23  5
13  38  6
15  41  6
20  2  5
24  28  6
27  60  5
7  35  5
9  36  6

$$$$

