15903259
  -OEChem-07051213103D

 13 13  0     0  0  0  0  0  0999 V2000
   -1.6876   -1.3948    0.0001 O   0  0  0  0  0  0  0  0  0  0  0  0
   -1.8311    1.3086    0.0001 N   0  0  0  0  0  0  0  0  0  0  0  0
   -0.6730    0.7383   -0.0001 C   0  0  0  0  0  0  0  0  0  0  0  0
   -0.6387   -0.7692    0.0001 C   0  0  0  0  0  0  0  0  0  0  0  0
    0.6131    1.4649   -0.0003 C   0  0  0  0  0  0  0  0  0  0  0  0
    0.6811   -1.4325   -0.0005 C   0  0  0  0  0  0  0  0  0  0  0  0
    1.7512    0.7628    0.0002 C   0  0  0  0  0  0  0  0  0  0  0  0
    1.7850   -0.6782    0.0004 C   0  0  0  0  0  0  0  0  0  0  0  0
    0.6085    2.5479   -0.0005 H   0  0  0  0  0  0  0  0  0  0  0  0
    0.7222   -2.5145   -0.0007 H   0  0  0  0  0  0  0  0  0  0  0  0
    2.7059    1.2791    0.0002 H   0  0  0  0  0  0  0  0  0  0  0  0
    2.7628   -1.1494    0.0005 H   0  0  0  0  0  0  0  0  0  0  0  0
   -1.7295    2.3293    0.0000 H   0  0  0  0  0  0  0  0  0  0  0  0
  1  4  2  0  0  0  0
  2  3  2  0  0  0  0
  2 13  1  0  0  0  0
  3  4  1  0  0  0  0
  3  5  1  0  0  0  0
  4  6  1  0  0  0  0
  5  7  2  0  0  0  0
  5  9  1  0  0  0  0
  6  8  2  0  0  0  0
  6 10  1  0  0  0  0
  7  8  1  0  0  0  0
  7 11  1  0  0  0  0
  8 12  1  0  0  0  0
M  END
> <PUBCHEM_COMPOUND_CID>
15903259

> <PUBCHEM_CONFORMER_RMSD>
0.4

> <PUBCHEM_CONFORMER_DIVERSEORDER>
1

> <PUBCHEM_MMFF94_PARTIAL_CHARGES>
13
1 -0.57
10 0.15
11 0.15
12 0.15
13 0.4
2 -0.85
3 0.44
4 0.56
5 -0.14
6 -0.14
7 -0.15
8 -0.15
9 0.15

> <PUBCHEM_EFFECTIVE_ROTOR_COUNT>
0

> <PUBCHEM_PHARMACOPHORE_FEATURES>
4
1 1 acceptor
1 2 acceptor
1 2 donor
6 3 4 5 6 7 8 rings

> <PUBCHEM_HEAVY_ATOM_COUNT>
8

> <PUBCHEM_ATOM_DEF_STEREO_COUNT>
0

> <PUBCHEM_ATOM_UDEF_STEREO_COUNT>
0

> <PUBCHEM_BOND_DEF_STEREO_COUNT>
0

> <PUBCHEM_BOND_UDEF_STEREO_COUNT>
0

> <PUBCHEM_ISOTOPIC_ATOM_COUNT>
0

> <PUBCHEM_COMPONENT_COUNT>
1

> <PUBCHEM_CACTVS_TAUTO_COUNT>
1

> <PUBCHEM_CONFORMER_ID>
00F2AA1B00000001

> <PUBCHEM_MMFF94_ENERGY>
13.2476

> <PUBCHEM_FEATURE_SELFOVERLAP>
20.304

> <PUBCHEM_SHAPE_FINGERPRINT>
18185500 45 18340207513185670498
20096714 4 18338797947784283282
21040471 1 18266459991198017732
23552423 10 18272365373983340558
2748010 2 18410011031156257284
29004967 10 17910672060070917691

> <PUBCHEM_SHAPE_MULTIPOLES>
153.79
2.26
1.81
0.59
0.1
0.05
0
-0.08
0
0.22
0
-0.04
0
0

> <PUBCHEM_SHAPE_SELFOVERLAP>
318.473

> <PUBCHEM_SHAPE_VOLUME>
86.1

> <PUBCHEM_COORDINATE_TYPE>
2
5
10

$$$$

