440115
  -OEChem-07051212483D

 28 28  0     1  0  0  0  0  0999 V2000
   -1.5015   -1.1629   -0.2041 O   0  0  0  0  0  0  0  0  0  0  0  0
    0.4566    1.0973   -1.9402 O   0  0  0  0  0  0  0  0  0  0  0  0
   -1.6763    2.4555    0.3341 O   0  0  0  0  0  0  0  0  0  0  0  0
   -3.9990   -1.0664    0.9487 O   0  0  0  0  0  0  0  0  0  0  0  0
    0.3221   -2.4425   -0.6019 O   0  0  0  0  0  0  0  0  0  0  0  0
    3.0125    0.7557    1.5811 O   0  0  0  0  0  0  0  0  0  0  0  0
    2.0499   -0.3940   -0.2004 N   0  0  0  0  0  0  0  0  0  0  0  0
    0.1435    1.1190   -0.5428 C   0  0  1  0  0  0  0  0  0  0  0  0
   -1.3779    1.2653   -0.3919 C   0  0  1  0  0  0  0  0  0  0  0  0
   -1.9878    0.0758    0.3526 C   0  0  1  0  0  0  0  0  0  0  0  0
    0.6686   -0.1521    0.1285 C   0  0  1  0  0  0  0  0  0  0  0  0
   -0.1547   -1.3612   -0.2754 C   0  0  0  0  0  0  0  0  0  0  0  0
   -3.5095    0.0627    0.2486 C   0  0  0  0  0  0  0  0  0  0  0  0
    3.1087    0.0831    0.5579 C   0  0  0  0  0  0  0  0  0  0  0  0
    4.4448   -0.3354    0.0053 C   0  0  0  0  0  0  0  0  0  0  0  0
    0.6621    1.9933   -0.1326 H   0  0  0  0  0  0  0  0  0  0  0  0
   -1.8354    1.3655   -1.3843 H   0  0  0  0  0  0  0  0  0  0  0  0
    0.5955   -0.0593    1.2192 H   0  0  0  0  0  0  0  0  0  0  0  0
   -1.7284    0.0918    1.4198 H   0  0  0  0  0  0  0  0  0  0  0  0
   -3.8283   -0.0292   -0.7950 H   0  0  0  0  0  0  0  0  0  0  0  0
   -3.9547    0.9607    0.6858 H   0  0  0  0  0  0  0  0  0  0  0  0
    2.2532   -0.9299   -1.0398 H   0  0  0  0  0  0  0  0  0  0  0  0
    0.0256    0.3194   -2.3335 H   0  0  0  0  0  0  0  0  0  0  0  0
   -2.6281    2.6297    0.2457 H   0  0  0  0  0  0  0  0  0  0  0  0
   -4.9678   -1.0587    0.8647 H   0  0  0  0  0  0  0  0  0  0  0  0
    5.2426    0.2092    0.5176 H   0  0  0  0  0  0  0  0  0  0  0  0
    4.5841   -1.4087    0.1609 H   0  0  0  0  0  0  0  0  0  0  0  0
    4.4987   -0.1117   -1.0640 H   0  0  0  0  0  0  0  0  0  0  0  0
  1 10  1  0  0  0  0
  1 12  1  0  0  0  0
  2  8  1  0  0  0  0
  2 23  1  0  0  0  0
  3  9  1  0  0  0  0
  3 24  1  0  0  0  0
  4 13  1  0  0  0  0
  4 25  1  0  0  0  0
  5 12  2  0  0  0  0
  6 14  2  0  0  0  0
  7 11  1  0  0  0  0
  7 14  1  0  0  0  0
  7 22  1  0  0  0  0
  8  9  1  0  0  0  0
  8 11  1  0  0  0  0
  8 16  1  0  0  0  0
  9 10  1  0  0  0  0
  9 17  1  0  0  0  0
 10 13  1  0  0  0  0
 10 19  1  0  0  0  0
 11 12  1  0  0  0  0
 11 18  1  0  0  0  0
 13 20  1  0  0  0  0
 13 21  1  0  0  0  0
 14 15  1  0  0  0  0
 15 26  1  0  0  0  0
 15 27  1  0  0  0  0
 15 28  1  0  0  0  0
M  END
> <PUBCHEM_COMPOUND_CID>
440115

> <PUBCHEM_CONFORMER_RMSD>
0.6

> <PUBCHEM_CONFORMER_DIVERSEORDER>
1
11
9
8
12
2
4
10
6
5
13
3
7

> <PUBCHEM_MMFF94_PARTIAL_CHARGES>
19
1 -0.43
10 0.28
11 0.36
12 0.66
13 0.28
14 0.57
15 0.06
2 -0.68
22 0.37
23 0.4
24 0.4
25 0.4
3 -0.68
4 -0.68
5 -0.57
6 -0.57
7 -0.73
8 0.28
9 0.28

> <PUBCHEM_EFFECTIVE_ROTOR_COUNT>
4

> <PUBCHEM_PHARMACOPHORE_FEATURES>
10
1 2 acceptor
1 2 donor
1 3 acceptor
1 3 donor
1 4 acceptor
1 4 donor
1 5 acceptor
1 6 acceptor
1 7 donor
6 1 8 9 10 11 12 rings

> <PUBCHEM_HEAVY_ATOM_COUNT>
15

> <PUBCHEM_ATOM_DEF_STEREO_COUNT>
4

> <PUBCHEM_ATOM_UDEF_STEREO_COUNT>
0

> <PUBCHEM_BOND_DEF_STEREO_COUNT>
0

> <PUBCHEM_BOND_UDEF_STEREO_COUNT>
0

> <PUBCHEM_ISOTOPIC_ATOM_COUNT>
0

> <PUBCHEM_COMPONENT_COUNT>
1

> <PUBCHEM_CACTVS_TAUTO_COUNT>
2

> <PUBCHEM_CONFORMER_ID>
0006B73300000001

> <PUBCHEM_MMFF94_ENERGY>
35.4933

> <PUBCHEM_FEATURE_SELFOVERLAP>
50.748

> <PUBCHEM_SHAPE_FINGERPRINT>
11132069 177 18188219714311918643
12119455 92 16515687757655530756
12251169 10 18411706456885848944
12423570 1 9457538842385441471
13024252 1 14189299312898983020
13581323 91 18411702084482475986
14943859 89 6194840375690168949
14993402 34 18060135427475949614
15219456 202 18116430534529616830
15375462 478 18273213080052078847
16945 1 18410300198171533639
17804303 29 18408599271243047890
18186145 218 17240773890959070090
19010151 120 17131832075138976709
19422 9 17917428782926143152
20473742 2 15625653887086750758
20510252 161 18261392277781523816
20645477 56 18261122837899048080
20871998 184 18411703213737141157
21501502 16 18050291662902029459
22112679 90 18119525436481548783
23402539 116 18186811266103266463
23532345 42 18131355180779224624
2748010 2 18124306375137508503
3250762 1 17764028364539275631
43471831 8 18271528709822203610
53812654 25 18265891367851138071
81228 2 17683834032585433150

> <PUBCHEM_SHAPE_MULTIPOLES>
268.5
6.17
1.84
1.07
2.48
0.05
0.14
0.65
-2.24
-0.87
0.26
0.32
-0.27
0.37

> <PUBCHEM_SHAPE_SELFOVERLAP>
540.668

> <PUBCHEM_SHAPE_VOLUME>
155.9

> <PUBCHEM_COORDINATE_TYPE>
2
5
10

$$$$

