17396065
  -OEChem-06241222542D

 46 46  0     0  0  0  0  0  0999 V2000
    3.7320    0.0000    0.0000 S   0  0  0  0  0  0  0  0  0  0  0  0
    6.3301    2.5000    0.0000 O   0  0  0  0  0  0  0  0  0  0  0  0
    4.7320    0.0000    0.0000 O   0  0  0  0  0  0  0  0  0  0  0  0
    2.7320    0.0000    0.0000 O   0  0  0  0  0  0  0  0  0  0  0  0
    2.0000   -4.0000    0.0000 O   0  0  0  0  0  0  0  0  0  0  0  0
    5.4641    4.0000    0.0000 N   0  0  0  0  0  0  0  0  0  0  0  0
    3.7320    1.0000    0.0000 N   0  0  0  0  0  0  0  0  0  0  0  0
    3.7320   -4.0000    0.0000 N   0  0  0  0  0  0  0  0  0  0  0  0
    4.5981    2.5000    0.0000 C   0  0  0  0  0  0  0  0  0  0  0  0
    4.5981    1.5000    0.0000 C   0  0  0  0  0  0  0  0  0  0  0  0
    5.4641    3.0000    0.0000 C   0  0  0  0  0  0  0  0  0  0  0  0
    6.3301    4.5000    0.0000 C   0  0  0  0  0  0  0  0  0  0  0  0
    4.5981    4.5000    0.0000 C   0  0  0  0  0  0  0  0  0  0  0  0
    3.7320   -1.0000    0.0000 C   0  0  0  0  0  0  0  0  0  0  0  0
    6.3301    5.5000    0.0000 C   0  0  0  0  0  0  0  0  0  0  0  0
    4.5981    5.5000    0.0000 C   0  0  0  0  0  0  0  0  0  0  0  0
    2.8660   -1.5000    0.0000 C   0  0  0  0  0  0  0  0  0  0  0  0
    4.5981   -1.5000    0.0000 C   0  0  0  0  0  0  0  0  0  0  0  0
    3.7320   -3.0000    0.0000 C   0  0  0  0  0  0  0  0  0  0  0  0
    2.8660   -2.5000    0.0000 C   0  0  0  0  0  0  0  0  0  0  0  0
    4.5981   -2.5000    0.0000 C   0  0  0  0  0  0  0  0  0  0  0  0
    2.8660   -4.5000    0.0000 C   0  0  0  0  0  0  0  0  0  0  0  0
    2.8660   -5.5000    0.0000 C   0  0  0  0  0  0  0  0  0  0  0  0
    4.3860    3.0826    0.0000 H   0  0  0  0  0  0  0  0  0  0  0  0
    3.9875    2.3923    0.0000 H   0  0  0  0  0  0  0  0  0  0  0  0
    4.8101    0.9174    0.0000 H   0  0  0  0  0  0  0  0  0  0  0  0
    5.2087    1.6077    0.0000 H   0  0  0  0  0  0  0  0  0  0  0  0
    6.5422    3.9174    0.0000 H   0  0  0  0  0  0  0  0  0  0  0  0
    6.9407    4.6077    0.0000 H   0  0  0  0  0  0  0  0  0  0  0  0
    3.9875    4.6077    0.0000 H   0  0  0  0  0  0  0  0  0  0  0  0
    4.3860    3.9174    0.0000 H   0  0  0  0  0  0  0  0  0  0  0  0
    3.1951    1.3100    0.0000 H   0  0  0  0  0  0  0  0  0  0  0  0
    5.2181    5.5000    0.0000 H   0  0  0  0  0  0  0  0  0  0  0  0
    4.5981    6.1200    0.0000 H   0  0  0  0  0  0  0  0  0  0  0  0
    6.9501    5.5000    0.0000 H   0  0  0  0  0  0  0  0  0  0  0  0
    6.3301    6.1200    0.0000 H   0  0  0  0  0  0  0  0  0  0  0  0
    5.7101    5.5000    0.0000 H   0  0  0  0  0  0  0  0  0  0  0  0
    3.9781    5.5000    0.0000 H   0  0  0  0  0  0  0  0  0  0  0  0
    2.3291   -1.1900    0.0000 H   0  0  0  0  0  0  0  0  0  0  0  0
    5.1350   -1.1900    0.0000 H   0  0  0  0  0  0  0  0  0  0  0  0
    2.3291   -2.8100    0.0000 H   0  0  0  0  0  0  0  0  0  0  0  0
    5.1350   -2.8100    0.0000 H   0  0  0  0  0  0  0  0  0  0  0  0
    4.2690   -4.3100    0.0000 H   0  0  0  0  0  0  0  0  0  0  0  0
    2.2460   -5.5000    0.0000 H   0  0  0  0  0  0  0  0  0  0  0  0
    2.8660   -6.1200    0.0000 H   0  0  0  0  0  0  0  0  0  0  0  0
    3.4860   -5.5000    0.0000 H   0  0  0  0  0  0  0  0  0  0  0  0
  1  3  2  0  0  0  0
  1  4  2  0  0  0  0
  1  7  1  0  0  0  0
  1 14  1  0  0  0  0
  2 11  2  0  0  0  0
  5 22  2  0  0  0  0
  6 11  1  0  0  0  0
  6 12  1  0  0  0  0
  6 13  1  0  0  0  0
  7 10  1  0  0  0  0
  7 32  1  0  0  0  0
  8 19  1  0  0  0  0
  8 22  1  0  0  0  0
  8 43  1  0  0  0  0
  9 10  1  0  0  0  0
  9 11  1  0  0  0  0
  9 24  1  0  0  0  0
  9 25  1  0  0  0  0
 10 26  1  0  0  0  0
 10 27  1  0  0  0  0
 12 15  1  0  0  0  0
 12 28  1  0  0  0  0
 12 29  1  0  0  0  0
 13 16  1  0  0  0  0
 13 30  1  0  0  0  0
 13 31  1  0  0  0  0
 14 17  2  0  0  0  0
 14 18  1  0  0  0  0
 15 35  1  0  0  0  0
 15 36  1  0  0  0  0
 15 37  1  0  0  0  0
 16 33  1  0  0  0  0
 16 34  1  0  0  0  0
 16 38  1  0  0  0  0
 17 20  1  0  0  0  0
 17 39  1  0  0  0  0
 18 21  2  0  0  0  0
 18 40  1  0  0  0  0
 19 20  2  0  0  0  0
 19 21  1  0  0  0  0
 20 41  1  0  0  0  0
 21 42  1  0  0  0  0
 22 23  1  0  0  0  0
 23 44  1  0  0  0  0
 23 45  1  0  0  0  0
 23 46  1  0  0  0  0
M  END
> <PUBCHEM_COMPOUND_CID>
17396065

> <PUBCHEM_COMPOUND_CANONICALIZED>
1

> <PUBCHEM_CACTVS_COMPLEXITY>
489

> <PUBCHEM_CACTVS_HBOND_ACCEPTOR>
5

> <PUBCHEM_CACTVS_HBOND_DONOR>
2

> <PUBCHEM_CACTVS_ROTATABLE_BOND>
8

> <PUBCHEM_CACTVS_SUBSKEYS>
AAADceBzOABAAAAAAAAAAAAAAAAAAAAAAAAwAAAAAAAAAAABAAAAHgQQQAAACAjB0AQywYPAAAKIACVSUHDCABAhAgAIiJkIZIgIICrA0ZGEIAhglgDIyAcQAAAAAAQAAAAAAAAACAAAAAAAAAAAAAAAAA==

> <PUBCHEM_IUPAC_OPENEYE_NAME>
3-[(4-acetamidophenyl)sulfonylamino]-N,N-diethyl-propanamide

> <PUBCHEM_IUPAC_CAS_NAME>
3-[(4-acetamidophenyl)sulfonylamino]-N,N-diethylpropanamide

> <PUBCHEM_IUPAC_NAME>
3-[(4-acetamidophenyl)sulfonylamino]-N,N-diethylpropanamide

> <PUBCHEM_IUPAC_SYSTEMATIC_NAME>
3-[(4-acetamidophenyl)sulfonylamino]-N,N-diethyl-propanamide

> <PUBCHEM_IUPAC_TRADITIONAL_NAME>
3-[(4-acetamidophenyl)sulfonylamino]-N,N-diethyl-propionamide

> <PUBCHEM_IUPAC_INCHI>
InChI=1S/C15H23N3O4S/c1-4-18(5-2)15(20)10-11-16-23(21,22)14-8-6-13(7-9-14)17-12(3)19/h6-9,16H,4-5,10-11H2,1-3H3,(H,17,19)

> <PUBCHEM_IUPAC_INCHIKEY>
FRWOPZWKZZUIIZ-UHFFFAOYSA-N

> <PUBCHEM_XLOGP3_AA>
0.2

> <PUBCHEM_EXACT_MASS>
341.140927

> <PUBCHEM_MOLECULAR_FORMULA>
C15H23N3O4S

> <PUBCHEM_MOLECULAR_WEIGHT>
341.42582

> <PUBCHEM_OPENEYE_CAN_SMILES>
CCN(CC)C(=O)CCNS(=O)(=O)C1=CC=C(C=C1)NC(=O)C

> <PUBCHEM_OPENEYE_ISO_SMILES>
CCN(CC)C(=O)CCNS(=O)(=O)C1=CC=C(C=C1)NC(=O)C

> <PUBCHEM_CACTVS_TPSA>
104

> <PUBCHEM_MONOISOTOPIC_WEIGHT>
341.140927

> <PUBCHEM_TOTAL_CHARGE>
0

> <PUBCHEM_HEAVY_ATOM_COUNT>
23

> <PUBCHEM_ATOM_DEF_STEREO_COUNT>
0

> <PUBCHEM_ATOM_UDEF_STEREO_COUNT>
0

> <PUBCHEM_BOND_DEF_STEREO_COUNT>
0

> <PUBCHEM_BOND_UDEF_STEREO_COUNT>
0

> <PUBCHEM_ISOTOPIC_ATOM_COUNT>
0

> <PUBCHEM_COMPONENT_COUNT>
1

> <PUBCHEM_CACTVS_TAUTO_COUNT>
3

> <PUBCHEM_COORDINATE_TYPE>
1
5
255

> <PUBCHEM_BONDANNOTATIONS>
14  17  8
14  18  8
17  20  8
18  21  8
19  20  8
19  21  8

$$$$

