151276
  -OEChem-07051212503D

 22 22  0     0  0  0  0  0  0999 V2000
   -2.1842    1.2976   -0.5277 O   0  0  0  0  0  0  0  0  0  0  0  0
   -2.8183   -1.2060    0.5003 O   0  0  0  0  0  0  0  0  0  0  0  0
    2.9136    0.7686    1.3493 O   0  0  0  0  0  0  0  0  0  0  0  0
    1.0983   -0.3107   -0.5467 C   0  0  0  0  0  0  0  0  0  0  0  0
    0.0996    0.6490   -0.7115 C   0  0  0  0  0  0  0  0  0  0  0  0
    2.5067    0.0065   -0.9206 C   0  0  0  0  0  0  0  0  0  0  0  0
   -1.2174    0.3524   -0.3609 C   0  0  0  0  0  0  0  0  0  0  0  0
    0.7799   -1.5671   -0.0311 C   0  0  0  0  0  0  0  0  0  0  0  0
   -1.5358   -0.9040    0.1545 C   0  0  0  0  0  0  0  0  0  0  0  0
   -0.5371   -1.8638    0.3196 C   0  0  0  0  0  0  0  0  0  0  0  0
    3.3233    0.6021    0.2053 C   0  0  0  0  0  0  0  0  0  0  0  0
   -2.4286    2.1753    0.5696 C   0  0  0  0  0  0  0  0  0  0  0  0
    0.3424    1.6305   -1.1118 H   0  0  0  0  0  0  0  0  0  0  0  0
    3.0248   -0.8956   -1.2665 H   0  0  0  0  0  0  0  0  0  0  0  0
    2.5276    0.7162   -1.7561 H   0  0  0  0  0  0  0  0  0  0  0  0
    1.5493   -2.3227    0.1039 H   0  0  0  0  0  0  0  0  0  0  0  0
   -0.7712   -2.8463    0.7206 H   0  0  0  0  0  0  0  0  0  0  0  0
    4.3561    0.8814   -0.0660 H   0  0  0  0  0  0  0  0  0  0  0  0
   -1.5312    2.7576    0.8018 H   0  0  0  0  0  0  0  0  0  0  0  0
   -2.7490    1.6111    1.4510 H   0  0  0  0  0  0  0  0  0  0  0  0
   -3.2286    2.8644    0.2856 H   0  0  0  0  0  0  0  0  0  0  0  0
   -2.8491   -2.1175    0.8383 H   0  0  0  0  0  0  0  0  0  0  0  0
  1  7  1  0  0  0  0
  1 12  1  0  0  0  0
  2  9  1  0  0  0  0
  2 22  1  0  0  0  0
  3 11  2  0  0  0  0
  4  5  2  0  0  0  0
  4  6  1  0  0  0  0
  4  8  1  0  0  0  0
  5  7  1  0  0  0  0
  5 13  1  0  0  0  0
  6 11  1  0  0  0  0
  6 14  1  0  0  0  0
  6 15  1  0  0  0  0
  7  9  2  0  0  0  0
  8 10  2  0  0  0  0
  8 16  1  0  0  0  0
  9 10  1  0  0  0  0
 10 17  1  0  0  0  0
 11 18  1  0  0  0  0
 12 19  1  0  0  0  0
 12 20  1  0  0  0  0
 12 21  1  0  0  0  0
M  END
> <PUBCHEM_COMPOUND_CID>
151276

> <PUBCHEM_CONFORMER_RMSD>
0.6

> <PUBCHEM_CONFORMER_DIVERSEORDER>
1
7
10
8
3
9
11
5
2
4
6

> <PUBCHEM_MMFF94_PARTIAL_CHARGES>
17
1 -0.36
10 -0.15
11 0.45
12 0.28
13 0.15
16 0.15
17 0.15
18 0.06
2 -0.53
22 0.45
3 -0.57
4 -0.14
5 -0.15
6 0.2
7 0.08
8 -0.15
9 0.08

> <PUBCHEM_EFFECTIVE_ROTOR_COUNT>
3

> <PUBCHEM_PHARMACOPHORE_FEATURES>
4
1 1 acceptor
1 2 donor
1 3 acceptor
6 4 5 7 8 9 10 rings

> <PUBCHEM_HEAVY_ATOM_COUNT>
12

> <PUBCHEM_ATOM_DEF_STEREO_COUNT>
0

> <PUBCHEM_ATOM_UDEF_STEREO_COUNT>
0

> <PUBCHEM_BOND_DEF_STEREO_COUNT>
0

> <PUBCHEM_BOND_UDEF_STEREO_COUNT>
0

> <PUBCHEM_ISOTOPIC_ATOM_COUNT>
0

> <PUBCHEM_COMPONENT_COUNT>
1

> <PUBCHEM_CACTVS_TAUTO_COUNT>
10

> <PUBCHEM_CONFORMER_ID>
00024EEC00000001

> <PUBCHEM_MMFF94_ENERGY>
35.8542

> <PUBCHEM_FEATURE_SELFOVERLAP>
20.297

> <PUBCHEM_SHAPE_FINGERPRINT>
10857977 72 18341329981329254118
12423570 1 10446484663056196308
12932764 1 17822005389729224302
13380535 21 18196354025946428831
13380535 76 18342180024319338919
13764800 53 18337100250423609561
13839132 238 18334573577024048324
15219456 202 18259979401377011214
16945 1 18340478954971312183
20510252 161 18337384946493773864
20645464 45 18260830388837699798
20653085 51 17096080432449378797
21040471 1 18270953656486898630
21501502 16 18340768263989567014
21524375 3 18192432102540828293
23211744 41 18113894953241634246
23402539 116 18337121050992480631
23419403 2 16682084274037983007
2748010 2 18270389624391863191
369184 2 18040435451918944198
5084963 1 18263063479636771630
53812653 166 18336541719891126808
6333449 129 18409729573232867269
7364860 26 17974853079230598334
81228 2 18269545062049066715

> <PUBCHEM_SHAPE_MULTIPOLES>
229.35
4.57
1.95
0.94
1.77
0.01
-0.09
-1.85
-0.88
-1.39
-0.37
0.43
-0.19
0.3

> <PUBCHEM_SHAPE_SELFOVERLAP>
473.005

> <PUBCHEM_SHAPE_VOLUME>
131.7

> <PUBCHEM_COORDINATE_TYPE>
2
5
10

$$$$

