24892813
  -OEChem-07051213093D

 16 16  0     1  0  0  0  0  0999 V2000
    2.6728    0.5068   -0.3434 O   0  0  0  0  0  0  0  0  0  0  0  0
    1.6130   -0.8513    1.1493 O   0  0  0  0  0  0  0  0  0  0  0  0
   -1.7171   -1.1397   -0.1923 N   0  0  0  0  0  0  0  0  0  0  0  0
    0.3934    0.0903   -0.7086 C   0  0  2  0  0  0  0  0  0  0  0  0
   -0.2646    1.3190   -0.1902 C   0  0  0  0  0  0  0  0  0  0  0  0
   -0.5460   -1.0885   -0.7212 C   0  0  0  0  0  0  0  0  0  0  0  0
   -2.2680    0.0295    0.4952 C   0  0  0  0  0  0  0  0  0  0  0  0
   -1.4789    1.2886    0.3655 C   0  0  0  0  0  0  0  0  0  0  0  0
    1.5954   -0.1546    0.1456 C   0  0  0  0  0  0  0  0  0  0  0  0
    0.7102    0.2357   -1.7480 H   0  0  0  0  0  0  0  0  0  0  0  0
    0.2614    2.2665   -0.2670 H   0  0  0  0  0  0  0  0  0  0  0  0
   -0.1745   -1.9953   -1.2290 H   0  0  0  0  0  0  0  0  0  0  0  0
   -2.3874   -0.2101    1.5575 H   0  0  0  0  0  0  0  0  0  0  0  0
   -3.2711    0.2113    0.0929 H   0  0  0  0  0  0  0  0  0  0  0  0
   -1.9197    2.2079    0.7389 H   0  0  0  0  0  0  0  0  0  0  0  0
    3.4727    0.3601    0.2051 H   0  0  0  0  0  0  0  0  0  0  0  0
  1  9  1  0  0  0  0
  1 16  1  0  0  0  0
  2  9  2  0  0  0  0
  3  6  2  0  0  0  0
  3  7  1  0  0  0  0
  4  5  1  0  0  0  0
  4  6  1  0  0  0  0
  4  9  1  0  0  0  0
  4 10  1  0  0  0  0
  5  8  2  0  0  0  0
  5 11  1  0  0  0  0
  6 12  1  0  0  0  0
  7  8  1  0  0  0  0
  7 13  1  0  0  0  0
  7 14  1  0  0  0  0
  8 15  1  0  0  0  0
M  END
> <PUBCHEM_COMPOUND_CID>
24892813

> <PUBCHEM_CONFORMER_RMSD>
0.4

> <PUBCHEM_CONFORMER_DIVERSEORDER>
1
2
3
4

> <PUBCHEM_MMFF94_PARTIAL_CHARGES>
13
1 -0.65
11 0.15
12 0.06
15 0.15
16 0.5
2 -0.57
3 -0.7
4 0.26
5 -0.29
6 0.33
7 0.38
8 -0.29
9 0.66

> <PUBCHEM_EFFECTIVE_ROTOR_COUNT>
1.4

> <PUBCHEM_PHARMACOPHORE_FEATURES>
5
1 1 acceptor
1 2 acceptor
1 3 acceptor
3 1 2 9 anion
6 3 4 5 6 7 8 rings

> <PUBCHEM_HEAVY_ATOM_COUNT>
9

> <PUBCHEM_ATOM_DEF_STEREO_COUNT>
0

> <PUBCHEM_ATOM_UDEF_STEREO_COUNT>
1

> <PUBCHEM_BOND_DEF_STEREO_COUNT>
0

> <PUBCHEM_BOND_UDEF_STEREO_COUNT>
0

> <PUBCHEM_ISOTOPIC_ATOM_COUNT>
0

> <PUBCHEM_COMPONENT_COUNT>
1

> <PUBCHEM_CACTVS_TAUTO_COUNT>
1

> <PUBCHEM_CONFORMER_ID>
017BD58D00000001

> <PUBCHEM_MMFF94_ENERGY>
12.0546

> <PUBCHEM_FEATURE_SELFOVERLAP>
25.428

> <PUBCHEM_SHAPE_FINGERPRINT>
10857977 72 18260554376806143169
137420 1 13141484471229510781
16714656 1 18260822687613146004
18185500 45 18269839730969885023
20645464 45 17168159935389602090
21040471 1 18116710922726568661
23235685 24 18040991899233909017
23552423 10 18343015631623726366
29004967 10 16272206388131260052
369184 2 17632301197937850441
5084963 1 17677895814811484165

> <PUBCHEM_SHAPE_MULTIPOLES>
168.5
2.97
1.35
0.89
0.8
0.09
0.09
0.1
0.47
-0.47
-0.08
0.17
-0.13
-0.29

> <PUBCHEM_SHAPE_SELFOVERLAP>
342.487

> <PUBCHEM_SHAPE_VOLUME>
97

> <PUBCHEM_COORDINATE_TYPE>
2
5
10

$$$$

