51090866
  -OEChem-06241223003D

 43 45  0     0  0  0  0  0  0999 V2000
    0.7134    3.2138    0.0760 O   0  0  0  0  0  0  0  0  0  0  0  0
   -2.3675   -2.9828   -0.5441 N   0  0  0  0  0  0  0  0  0  0  0  0
   -1.1447   -1.4372    0.4001 N   0  0  0  0  0  0  0  0  0  0  0  0
   -3.0973   -1.8693   -0.7104 N   0  0  0  0  0  0  0  0  0  0  0  0
   -0.3293    1.1122   -0.0699 N   0  0  0  0  0  0  0  0  0  0  0  0
    4.4494    1.4309    0.4698 N   0  0  0  0  0  0  0  0  0  0  0  0
   -0.2222   -3.7640    0.4288 C   0  0  0  0  0  0  0  0  0  0  0  0
   -1.2084   -2.7174    0.1163 C   0  0  0  0  0  0  0  0  0  0  0  0
   -2.6676    0.4296   -0.0351 C   0  0  0  0  0  0  0  0  0  0  0  0
    0.5405   -3.5061    1.7513 C   0  0  0  0  0  0  0  0  0  0  0  0
    0.8029   -3.9937   -0.7083 C   0  0  0  0  0  0  0  0  0  0  0  0
   -2.3141   -0.9631   -0.1216 C   0  0  0  0  0  0  0  0  0  0  0  0
   -1.6912    1.4255   -0.0105 C   0  0  0  0  0  0  0  0  0  0  0  0
   -4.0177    0.7750    0.0247 C   0  0  0  0  0  0  0  0  0  0  0  0
   -2.0650    2.7667    0.0738 C   0  0  0  0  0  0  0  0  0  0  0  0
   -4.3914    2.1162    0.1090 C   0  0  0  0  0  0  0  0  0  0  0  0
   -3.4152    3.1121    0.1336 C   0  0  0  0  0  0  0  0  0  0  0  0
    0.7574    1.9924   -0.0249 C   0  0  0  0  0  0  0  0  0  0  0  0
    2.0968    1.3500   -0.0811 C   0  0  0  0  0  0  0  0  0  0  0  0
    2.2778    0.1210   -0.7057 C   0  0  0  0  0  0  0  0  0  0  0  0
    3.2047    1.9585    0.4863 C   0  0  0  0  0  0  0  0  0  0  0  0
    4.5866    0.2353   -0.1462 C   0  0  0  0  0  0  0  0  0  0  0  0
    3.5433   -0.4539   -0.7431 C   0  0  0  0  0  0  0  0  0  0  0  0
    5.9586   -0.3516   -0.1687 C   0  0  0  0  0  0  0  0  0  0  0  0
   -0.7612   -4.7119    0.5657 H   0  0  0  0  0  0  0  0  0  0  0  0
    1.4847   -4.8133   -0.4586 H   0  0  0  0  0  0  0  0  0  0  0  0
    0.2927   -4.2484   -1.6436 H   0  0  0  0  0  0  0  0  0  0  0  0
    1.3985   -3.0924   -0.8877 H   0  0  0  0  0  0  0  0  0  0  0  0
   -0.1606   -3.3886    2.5849 H   0  0  0  0  0  0  0  0  0  0  0  0
    1.2085   -4.3420    1.9837 H   0  0  0  0  0  0  0  0  0  0  0  0
    1.1431   -2.5930    1.6880 H   0  0  0  0  0  0  0  0  0  0  0  0
   -2.7188   -3.8632   -0.9019 H   0  0  0  0  0  0  0  0  0  0  0  0
   -4.8027    0.0225    0.0158 H   0  0  0  0  0  0  0  0  0  0  0  0
   -1.3812    3.6019    0.0918 H   0  0  0  0  0  0  0  0  0  0  0  0
   -0.1206    0.1209   -0.1069 H   0  0  0  0  0  0  0  0  0  0  0  0
   -5.4425    2.3854    0.1572 H   0  0  0  0  0  0  0  0  0  0  0  0
   -3.7080    4.1561    0.1982 H   0  0  0  0  0  0  0  0  0  0  0  0
    1.4701   -0.4050   -1.2052 H   0  0  0  0  0  0  0  0  0  0  0  0
    3.1336    2.9160    0.9931 H   0  0  0  0  0  0  0  0  0  0  0  0
    3.6987   -1.4088   -1.2339 H   0  0  0  0  0  0  0  0  0  0  0  0
    6.2987   -0.4847   -1.2005 H   0  0  0  0  0  0  0  0  0  0  0  0
    6.6744    0.3016    0.3412 H   0  0  0  0  0  0  0  0  0  0  0  0
    5.9661   -1.3215    0.3388 H   0  0  0  0  0  0  0  0  0  0  0  0
  1 18  2  0  0  0  0
  2  4  1  0  0  0  0
  2  8  1  0  0  0  0
  2 32  1  0  0  0  0
  3  8  2  0  0  0  0
  3 12  1  0  0  0  0
  4 12  2  0  0  0  0
  5 13  1  0  0  0  0
  5 18  1  0  0  0  0
  5 35  1  0  0  0  0
  6 21  1  0  0  0  0
  6 22  2  0  0  0  0
  7  8  1  0  0  0  0
  7 10  1  0  0  0  0
  7 11  1  0  0  0  0
  7 25  1  0  0  0  0
  9 12  1  0  0  0  0
  9 13  1  0  0  0  0
  9 14  2  0  0  0  0
 10 29  1  0  0  0  0
 10 30  1  0  0  0  0
 10 31  1  0  0  0  0
 11 26  1  0  0  0  0
 11 27  1  0  0  0  0
 11 28  1  0  0  0  0
 13 15  2  0  0  0  0
 14 16  1  0  0  0  0
 14 33  1  0  0  0  0
 15 17  1  0  0  0  0
 15 34  1  0  0  0  0
 16 17  2  0  0  0  0
 16 36  1  0  0  0  0
 17 37  1  0  0  0  0
 18 19  1  0  0  0  0
 19 20  1  0  0  0  0
 19 21  2  0  0  0  0
 20 23  2  0  0  0  0
 20 38  1  0  0  0  0
 21 39  1  0  0  0  0
 22 23  1  0  0  0  0
 22 24  1  0  0  0  0
 23 40  1  0  0  0  0
 24 41  1  0  0  0  0
 24 42  1  0  0  0  0
 24 43  1  0  0  0  0
M  END
> <PUBCHEM_COMPOUND_CID>
51090866

> <PUBCHEM_CONFORMER_RMSD>
0.8

> <PUBCHEM_CONFORMER_DIVERSEORDER>
1
29
33
36
12
16
34
32
15
31
4
19
23
9
35
3
39
5
27
28
40
21
6
38
13
25
26
8
17
20
22
37
11
18
30
24
7
2
14
10

> <PUBCHEM_MMFF94_PARTIAL_CHARGES>
31
1 -0.57
12 0.46
13 0.12
14 -0.15
15 -0.15
16 -0.15
17 -0.15
18 0.54
19 0.09
2 0.3
20 -0.15
21 0.16
22 0.17
23 -0.15
24 0.14
3 -0.57
32 0.27
33 0.15
34 0.15
35 0.37
36 0.15
37 0.15
38 0.15
39 0.15
4 -0.71
40 0.15
5 -0.55
6 -0.62
7 0.18
8 0.01
9 0.05

> <PUBCHEM_EFFECTIVE_ROTOR_COUNT>
5

> <PUBCHEM_PHARMACOPHORE_FEATURES>
10
1 1 acceptor
1 2 donor
1 5 donor
1 6 acceptor
3 2 3 8 cation
3 3 4 12 cation
3 7 10 11 hydrophobe
5 2 3 4 8 12 rings
6 6 19 20 21 22 23 rings
6 9 13 14 15 16 17 rings

> <PUBCHEM_HEAVY_ATOM_COUNT>
24

> <PUBCHEM_ATOM_DEF_STEREO_COUNT>
0

> <PUBCHEM_ATOM_UDEF_STEREO_COUNT>
0

> <PUBCHEM_BOND_DEF_STEREO_COUNT>
0

> <PUBCHEM_BOND_UDEF_STEREO_COUNT>
0

> <PUBCHEM_ISOTOPIC_ATOM_COUNT>
0

> <PUBCHEM_COMPONENT_COUNT>
1

> <PUBCHEM_CACTVS_TAUTO_COUNT>
166

> <PUBCHEM_CONFORMER_ID>
030B95B200000001

> <PUBCHEM_MMFF94_ENERGY>
61.7915

> <PUBCHEM_FEATURE_SELFOVERLAP>
53.492

> <PUBCHEM_SHAPE_FINGERPRINT>
10616163 171 18409446956011172710
10693767 8 17465121353337972047
10940486 97 18270954644952389140
11370993 70 18409168839556553540
12156800 1 16374714973849055655
12553582 1 17546717158689224591
12592029 89 18268140028254941201
12788726 201 18052825753836334834
13140716 1 18265324028726275713
13402501 40 18335133246007681550
13785724 45 17475204935162326683
138480 1 17401766822628291599
14022349 108 17978218693498535937
14251757 5 18196352755163552212
14659021 117 17973464117288392430
14725015 67 18265337205085046754
14790565 3 18266732657229180356
14866123 147 18410855447523348219
15006816 218 18193837269594855007
15042514 8 18339919295780211793
15420108 30 18115004382998904011
15664445 248 16961531176324604439
15927050 60 18335984289540503751
16120349 306 18269850838230190506
16719943 64 18412262861415002474
167882 2 17837217335158517069
17859628 97 18341611559358702353
19591789 44 18338795744708867929
19930381 70 17978227493437761965
20028762 73 18189330183330091007
20775438 99 16384277139235735055
21133410 171 17254616618105979174
23558518 356 18197214745924621813
23559900 14 18261115154092376752
23728640 28 18412260597539625443
3178227 256 18339061758500178561
3298306 158 18195527214698289901
338550 245 18271238434952933758
3882209 13 16963550485380277086
5265222 85 18341315739940614932
5309563 4 16826706294235846066
532947 4 18120934168469032071
5385378 56 18050277361357909369
9709674 26 18192430766848307548

> <PUBCHEM_SHAPE_MULTIPOLES>
463.13
8.9
5.3
0.86
7.61
4.92
-0.18
-5.59
0.52
-1.83
-0.68
0.25
0.62
-0.18

> <PUBCHEM_SHAPE_SELFOVERLAP>
1003.348

> <PUBCHEM_SHAPE_VOLUME>
254.6

> <PUBCHEM_COORDINATE_TYPE>
2
5
10

$$$$

