11954047
  -OEChem-07051213063D

 38 39  0     1  0  0  0  0  0999 V2000
    0.5469    0.3283   -0.4066 S   0  0  0  0  0  0  0  0  0  0  0  0
   -2.5099    2.7966    0.3312 O   0  0  0  0  0  0  0  0  0  0  0  0
    3.0757   -2.2844   -1.3544 O   0  0  0  0  0  0  0  0  0  0  0  0
    2.1469   -2.9013    0.6198 O   0  0  0  0  0  0  0  0  0  0  0  0
    5.1492    1.2719    0.9084 O   0  0  0  0  0  0  0  0  0  0  0  0
    3.7949    0.0842   -0.5669 N   0  0  0  0  0  0  0  0  0  0  0  0
   -0.6983    1.2152    0.6022 C   0  0  1  0  0  0  0  0  0  0  0  0
   -1.8968    1.6504   -0.2690 C   0  0  1  0  0  0  0  0  0  0  0  0
   -2.9726    0.5970   -0.3949 C   0  0  0  0  0  0  0  0  0  0  0  0
   -3.1352   -0.3727    0.6125 C   0  0  0  0  0  0  0  0  0  0  0  0
   -1.0933    0.3208    1.7469 C   0  0  0  0  0  0  0  0  0  0  0  0
    1.7982    0.1160    0.8770 C   0  0  0  0  0  0  0  0  0  0  0  0
   -2.2245   -0.3977    1.7603 C   0  0  0  0  0  0  0  0  0  0  0  0
    3.0357   -0.6549    0.4106 C   0  0  1  0  0  0  0  0  0  0  0  0
   -3.8532    0.6141   -1.4853 C   0  0  0  0  0  0  0  0  0  0  0  0
   -4.1735   -1.3069    0.5153 C   0  0  0  0  0  0  0  0  0  0  0  0
   -4.8784   -0.3266   -1.5779 C   0  0  0  0  0  0  0  0  0  0  0  0
   -5.0390   -1.2844   -0.5789 C   0  0  0  0  0  0  0  0  0  0  0  0
    2.6962   -2.0544   -0.0746 C   0  0  0  0  0  0  0  0  0  0  0  0
    4.7909    0.9882   -0.2317 C   0  0  0  0  0  0  0  0  0  0  0  0
    5.4402    1.6006   -1.4438 C   0  0  0  0  0  0  0  0  0  0  0  0
   -0.2212    2.1157    1.0077 H   0  0  0  0  0  0  0  0  0  0  0  0
   -1.5509    1.9670   -1.2609 H   0  0  0  0  0  0  0  0  0  0  0  0
   -0.4605    0.2973    2.6300 H   0  0  0  0  0  0  0  0  0  0  0  0
    2.0939    1.1037    1.2477 H   0  0  0  0  0  0  0  0  0  0  0  0
    1.3748   -0.4479    1.7123 H   0  0  0  0  0  0  0  0  0  0  0  0
   -2.4763   -1.0170    2.6143 H   0  0  0  0  0  0  0  0  0  0  0  0
    3.6963   -0.7978    1.2760 H   0  0  0  0  0  0  0  0  0  0  0  0
   -3.7477    1.3641   -2.2650 H   0  0  0  0  0  0  0  0  0  0  0  0
   -4.3163   -2.0621    1.2847 H   0  0  0  0  0  0  0  0  0  0  0  0
   -3.2818    3.0452   -0.2054 H   0  0  0  0  0  0  0  0  0  0  0  0
   -5.5560   -0.3087   -2.4266 H   0  0  0  0  0  0  0  0  0  0  0  0
   -5.8406   -2.0139   -0.6507 H   0  0  0  0  0  0  0  0  0  0  0  0
    3.5746   -0.0611   -1.5482 H   0  0  0  0  0  0  0  0  0  0  0  0
    6.0813    2.4320   -1.1380 H   0  0  0  0  0  0  0  0  0  0  0  0
    6.0466    0.8467   -1.9531 H   0  0  0  0  0  0  0  0  0  0  0  0
    4.6777    1.9801   -2.1300 H   0  0  0  0  0  0  0  0  0  0  0  0
    2.8535   -3.1945   -1.6450 H   0  0  0  0  0  0  0  0  0  0  0  0
  1  7  1  0  0  0  0
  1 12  1  0  0  0  0
  2  8  1  0  0  0  0
  2 31  1  0  0  0  0
  3 19  1  0  0  0  0
  3 38  1  0  0  0  0
  4 19  2  0  0  0  0
  5 20  2  0  0  0  0
  6 14  1  0  0  0  0
  6 20  1  0  0  0  0
  6 34  1  0  0  0  0
  7  8  1  0  0  0  0
  7 11  1  0  0  0  0
  7 22  1  0  0  0  0
  8  9  1  0  0  0  0
  8 23  1  0  0  0  0
  9 10  1  0  0  0  0
  9 15  2  0  0  0  0
 10 13  1  0  0  0  0
 10 16  2  0  0  0  0
 11 13  2  0  0  0  0
 11 24  1  0  0  0  0
 12 14  1  0  0  0  0
 12 25  1  0  0  0  0
 12 26  1  0  0  0  0
 13 27  1  0  0  0  0
 14 19  1  0  0  0  0
 14 28  1  0  0  0  0
 15 17  1  0  0  0  0
 15 29  1  0  0  0  0
 16 18  1  0  0  0  0
 16 30  1  0  0  0  0
 17 18  2  0  0  0  0
 17 32  1  0  0  0  0
 18 33  1  0  0  0  0
 20 21  1  0  0  0  0
 21 35  1  0  0  0  0
 21 36  1  0  0  0  0
 21 37  1  0  0  0  0
M  END
> <PUBCHEM_COMPOUND_CID>
11954047

> <PUBCHEM_CONFORMER_RMSD>
0.8

> <PUBCHEM_CONFORMER_DIVERSEORDER>
1
32
37
15
31
11
10
40
33
46
42
23
36
47
43
29
5
41
14
45
24
26
44
35
19
20
28
16
12
49
39
8
3
6
17
18
7
34
30
27
38
48
51
2
13
22
9
21
25
50
4

> <PUBCHEM_MMFF94_PARTIAL_CHARGES>
30
1 -0.46
10 0.03
11 -0.29
12 0.23
13 -0.18
14 0.36
15 -0.15
16 -0.15
17 -0.15
18 -0.15
19 0.66
2 -0.68
20 0.57
21 0.06
24 0.15
27 0.15
29 0.15
3 -0.65
30 0.15
31 0.4
32 0.15
33 0.15
34 0.37
38 0.5
4 -0.57
5 -0.57
6 -0.73
7 0.37
8 0.42
9 -0.14

> <PUBCHEM_EFFECTIVE_ROTOR_COUNT>
6.4

> <PUBCHEM_PHARMACOPHORE_FEATURES>
9
1 2 acceptor
1 2 donor
1 3 acceptor
1 4 acceptor
1 5 acceptor
1 6 donor
3 3 4 19 anion
6 7 8 9 10 11 13 rings
6 9 10 15 16 17 18 rings

> <PUBCHEM_HEAVY_ATOM_COUNT>
21

> <PUBCHEM_ATOM_DEF_STEREO_COUNT>
3

> <PUBCHEM_ATOM_UDEF_STEREO_COUNT>
0

> <PUBCHEM_BOND_DEF_STEREO_COUNT>
0

> <PUBCHEM_BOND_UDEF_STEREO_COUNT>
0

> <PUBCHEM_ISOTOPIC_ATOM_COUNT>
0

> <PUBCHEM_COMPONENT_COUNT>
1

> <PUBCHEM_CACTVS_TAUTO_COUNT>
2

> <PUBCHEM_CONFORMER_ID>
00B6677F00000001

> <PUBCHEM_MMFF94_ENERGY>
48.4813

> <PUBCHEM_FEATURE_SELFOVERLAP>
45.751

> <PUBCHEM_SHAPE_FINGERPRINT>
10366900 7 18336264557188240880
10928967 22 15430042109856645886
11045977 3 6555410933859944319
11552529 35 9438241360909007977
12553582 1 16443354177846330267
12670546 177 17989212525185221141
128620 24 18259983773505966744
13675066 3 12607399988415102224
13911987 19 18198328581764319412
14251758 9 11311783873281772712
14251764 30 15068609492592029748
14420673 8 7060115349416041908
14528608 73 18412824655969376340
14790565 3 17691410029016477181
14840074 17 18040994016984972431
15209289 33 14345792734171427037
15375358 24 17775284962958256242
15537594 2 17895198770768150031
17349148 13 17775563126620923548
1813 80 16877936101391178521
18222031 100 15213316213591744517
19489759 90 17561089089813772128
200 152 18335421248986567673
20511986 3 15912502194428921536
20645477 70 18337392746513352318
22393880 68 18265327481721596350
22950370 63 14996276994634695616
23402539 116 16630537206180264165
235170 7 18272092724805721055
23559900 14 18194978558649237346
23596394 208 18410578405005147098
312423 11 17968650652892351946
351380 3 16877944910637608343
5283173 99 17631745966077954157
6913067 236 18339375084400097632
7226269 152 12391525169435738150
9709674 26 18343013436768805178
9971528 1 13326582865073817400

> <PUBCHEM_SHAPE_MULTIPOLES>
407.56
12.06
2.3
1.51
6.68
0.65
-0.03
-0.8
4.44
1.3
0.17
-0.61
-0.01
-0.04

> <PUBCHEM_SHAPE_SELFOVERLAP>
838.912

> <PUBCHEM_SHAPE_VOLUME>
234.4

> <PUBCHEM_COORDINATE_TYPE>
2
5
10

$$$$

