23724584
  -OEChem-07051213082D

 78 81  0     1  0  0  0  0  0999 V2000
    5.6489   -4.1911    0.0000 O   0  0  0  0  0  0  0  0  0  0  0  0
   10.2963    0.5953    0.0000 O   0  0  0  0  0  0  0  0  0  0  0  0
    2.0000   -3.1742    0.0000 O   0  0  0  0  0  0  0  0  0  0  0  0
    9.2713    3.0344    0.0000 O   0  0  0  0  0  0  0  0  0  0  0  0
    7.3931   -0.1219    0.0000 C   0  0  1  0  0  0  0  0  0  0  0  0
    7.3931   -1.1219    0.0000 C   0  0  3  0  0  0  0  0  0  0  0  0
    6.5271   -1.6219    0.0000 C   0  0  1  0  0  0  0  0  0  0  0  0
    5.6610   -1.1219    0.0000 C   0  0  1  0  0  0  0  0  0  0  0  0
    8.3393    0.1828    0.0000 C   0  0  2  0  0  0  0  0  0  0  0  0
    4.7510   -1.6287    0.0000 C   0  0  2  0  0  0  0  0  0  0  0  0
    6.5271    0.3781    0.0000 C   0  0  0  0  0  0  0  0  0  0  0  0
    8.3393   -1.4266    0.0000 C   0  0  0  0  0  0  0  0  0  0  0  0
    5.6610   -0.1219    0.0000 C   0  0  0  0  0  0  0  0  0  0  0  0
    8.9229   -0.6219    0.0000 C   0  0  0  0  0  0  0  0  0  0  0  0
    4.7430   -2.6703    0.0000 C   0  0  1  0  0  0  0  0  0  0  0  0
    6.5431   -2.6634    0.0000 C   0  0  0  0  0  0  0  0  0  0  0  0
    8.6500    1.1334    0.0000 C   0  0  1  0  0  0  0  0  0  0  0  0
    7.3931    0.8781    0.0000 C   0  0  0  0  0  0  0  0  0  0  0  0
    3.8242   -1.0647    0.0000 C   0  0  0  0  0  0  0  0  0  0  0  0
    5.6451   -3.1912    0.0000 C   0  0  0  0  0  0  0  0  0  0  0  0
    4.7587   -0.6288    0.0000 C   0  0  0  0  0  0  0  0  0  0  0  0
    3.8076   -3.2201    0.0000 C   0  0  0  0  0  0  0  0  0  0  0  0
    9.6285    1.3396    0.0000 C   0  0  2  0  0  0  0  0  0  0  0  0
    2.8763   -1.5926    0.0000 C   0  0  0  0  0  0  0  0  0  0  0  0
    7.9821    1.8777    0.0000 C   0  0  0  0  0  0  0  0  0  0  0  0
    2.8680   -2.6776    0.0000 C   0  0  0  0  0  0  0  0  0  0  0  0
    9.9391    2.2901    0.0000 C   0  0  1  0  0  0  0  0  0  0  0  0
   10.9176    2.4963    0.0000 C   0  0  2  0  0  0  0  0  0  0  0  0
   11.2283    3.4468    0.0000 C   0  0  0  0  0  0  0  0  0  0  0  0
   11.5855    1.7520    0.0000 C   0  0  0  0  0  0  0  0  0  0  0  0
   12.2068    3.6531    0.0000 C   0  0  0  0  0  0  0  0  0  0  0  0
   10.5605    4.1911    0.0000 C   0  0  0  0  0  0  0  0  0  0  0  0
    7.4587   -1.7384    0.0000 H   0  0  0  0  0  0  0  0  0  0  0  0
    7.2664   -2.0412    0.0000 H   0  0  0  0  0  0  0  0  0  0  0  0
    6.3972   -0.6969    0.0000 H   0  0  0  0  0  0  0  0  0  0  0  0
    9.1790    0.3147    0.0000 H   0  0  0  0  0  0  0  0  0  0  0  0
    6.9256    0.8531    0.0000 H   0  0  0  0  0  0  0  0  0  0  0  0
    6.1285    0.8531    0.0000 H   0  0  0  0  0  0  0  0  0  0  0  0
    8.0883   -1.9935    0.0000 H   0  0  0  0  0  0  0  0  0  0  0  0
    8.8767   -1.7358    0.0000 H   0  0  0  0  0  0  0  0  0  0  0  0
    5.4490    0.4607    0.0000 H   0  0  0  0  0  0  0  0  0  0  0  0
    5.0504   -0.2296    0.0000 H   0  0  0  0  0  0  0  0  0  0  0  0
    9.3838   -1.0366    0.0000 H   0  0  0  0  0  0  0  0  0  0  0  0
    9.3838   -0.2072    0.0000 H   0  0  0  0  0  0  0  0  0  0  0  0
    4.7463   -3.5203    0.0000 H   0  0  0  0  0  0  0  0  0  0  0  0
    6.7612   -3.2438    0.0000 H   0  0  0  0  0  0  0  0  0  0  0  0
    7.1523   -2.5479    0.0000 H   0  0  0  0  0  0  0  0  0  0  0  0
    8.0433    1.0055    0.0000 H   0  0  0  0  0  0  0  0  0  0  0  0
    8.0131    0.8781    0.0000 H   0  0  0  0  0  0  0  0  0  0  0  0
    7.3931    1.4981    0.0000 H   0  0  0  0  0  0  0  0  0  0  0  0
    6.7731    0.8781    0.0000 H   0  0  0  0  0  0  0  0  0  0  0  0
    4.2324   -0.5980    0.0000 H   0  0  0  0  0  0  0  0  0  0  0  0
    3.4343   -0.5826    0.0000 H   0  0  0  0  0  0  0  0  0  0  0  0
    5.3787   -0.6335    0.0000 H   0  0  0  0  0  0  0  0  0  0  0  0
    4.7635   -0.0088    0.0000 H   0  0  0  0  0  0  0  0  0  0  0  0
    4.1388   -0.6240    0.0000 H   0  0  0  0  0  0  0  0  0  0  0  0
    3.4103   -3.6960    0.0000 H   0  0  0  0  0  0  0  0  0  0  0  0
    4.2085   -3.6930    0.0000 H   0  0  0  0  0  0  0  0  0  0  0  0
    9.4359    0.7503    0.0000 H   0  0  0  0  0  0  0  0  0  0  0  0
    2.6718   -1.0073    0.0000 H   0  0  0  0  0  0  0  0  0  0  0  0
    2.2647   -1.6940    0.0000 H   0  0  0  0  0  0  0  0  0  0  0  0
    8.4436    2.2917    0.0000 H   0  0  0  0  0  0  0  0  0  0  0  0
    7.5681    2.3391    0.0000 H   0  0  0  0  0  0  0  0  0  0  0  0
    7.5207    1.4636    0.0000 H   0  0  0  0  0  0  0  0  0  0  0  0
   10.1317    2.8794    0.0000 H   0  0  0  0  0  0  0  0  0  0  0  0
   10.7250    1.9070    0.0000 H   0  0  0  0  0  0  0  0  0  0  0  0
   10.9030    0.7231    0.0000 H   0  0  0  0  0  0  0  0  0  0  0  0
   11.4209    4.0362    0.0000 H   0  0  0  0  0  0  0  0  0  0  0  0
    9.4639    3.6237    0.0000 H   0  0  0  0  0  0  0  0  0  0  0  0
   11.1240    1.3380    0.0000 H   0  0  0  0  0  0  0  0  0  0  0  0
   11.9995    1.2906    0.0000 H   0  0  0  0  0  0  0  0  0  0  0  0
   12.0470    2.1661    0.0000 H   0  0  0  0  0  0  0  0  0  0  0  0
   11.0219    4.6052    0.0000 H   0  0  0  0  0  0  0  0  0  0  0  0
   10.1464    4.6526    0.0000 H   0  0  0  0  0  0  0  0  0  0  0  0
   10.0990    3.7771    0.0000 H   0  0  0  0  0  0  0  0  0  0  0  0
   12.3347    3.0464    0.0000 H   0  0  0  0  0  0  0  0  0  0  0  0
   12.8135    3.7809    0.0000 H   0  0  0  0  0  0  0  0  0  0  0  0
   12.0790    4.2597    0.0000 H   0  0  0  0  0  0  0  0  0  0  0  0
  1 20  2  0  0  0  0
 23  2  1  6  0  0  0
  2 67  1  0  0  0  0
  3 26  2  0  0  0  0
 27  4  1  6  0  0  0
  4 69  1  0  0  0  0
  5  6  1  0  0  0  0
  5  9  1  0  0  0  0
  5 11  1  0  0  0  0
  5 18  1  1  0  0  0
  6  7  1  0  0  0  0
  6 12  1  0  0  0  0
  6 33  1  0  0  0  0
  7  8  1  0  0  0  0
  7 16  1  0  0  0  0
  7 34  1  1  0  0  0
  8 10  1  0  0  0  0
  8 13  1  0  0  0  0
  8 35  1  6  0  0  0
  9 14  1  0  0  0  0
  9 17  1  0  0  0  0
  9 36  1  6  0  0  0
 10 15  1  0  0  0  0
 10 19  1  0  0  0  0
 10 21  1  1  0  0  0
 11 13  1  0  0  0  0
 11 37  1  0  0  0  0
 11 38  1  0  0  0  0
 12 14  1  0  0  0  0
 12 39  1  0  0  0  0
 12 40  1  0  0  0  0
 13 41  1  0  0  0  0
 13 42  1  0  0  0  0
 14 43  1  0  0  0  0
 14 44  1  0  0  0  0
 15 20  1  0  0  0  0
 15 22  1  0  0  0  0
 15 45  1  6  0  0  0
 16 20  1  0  0  0  0
 16 46  1  0  0  0  0
 16 47  1  0  0  0  0
 17 23  1  0  0  0  0
 17 25  1  6  0  0  0
 17 48  1  0  0  0  0
 18 49  1  0  0  0  0
 18 50  1  0  0  0  0
 18 51  1  0  0  0  0
 19 24  1  0  0  0  0
 19 52  1  0  0  0  0
 19 53  1  0  0  0  0
 21 54  1  0  0  0  0
 21 55  1  0  0  0  0
 21 56  1  0  0  0  0
 22 26  1  0  0  0  0
 22 57  1  0  0  0  0
 22 58  1  0  0  0  0
 23 27  1  0  0  0  0
 23 59  1  0  0  0  0
 24 26  1  0  0  0  0
 24 60  1  0  0  0  0
 24 61  1  0  0  0  0
 25 62  1  0  0  0  0
 25 63  1  0  0  0  0
 25 64  1  0  0  0  0
 27 28  1  0  0  0  0
 27 65  1  0  0  0  0
 28 29  1  0  0  0  0
 28 30  1  6  0  0  0
 28 66  1  0  0  0  0
 29 31  1  0  0  0  0
 29 32  1  0  0  0  0
 29 68  1  0  0  0  0
 30 70  1  0  0  0  0
 30 71  1  0  0  0  0
 30 72  1  0  0  0  0
 31 76  1  0  0  0  0
 31 77  1  0  0  0  0
 31 78  1  0  0  0  0
 32 73  1  0  0  0  0
 32 74  1  0  0  0  0
 32 75  1  0  0  0  0
M  END
> <PUBCHEM_COMPOUND_CID>
23724584

> <PUBCHEM_COMPOUND_CANONICALIZED>
1

> <PUBCHEM_CACTVS_COMPLEXITY>
746

> <PUBCHEM_CACTVS_HBOND_ACCEPTOR>
4

> <PUBCHEM_CACTVS_HBOND_DONOR>
2

> <PUBCHEM_CACTVS_ROTATABLE_BOND>
5

> <PUBCHEM_CACTVS_SUBSKEYS>
AAADcfB4OAAAAAAAAAAAAAAAAAAAAYAAAAAwYMAAAAAAAGDAAAAAGgAACAAADxSggAICAAAAAgAIAIAQAAAAAAAAAAAAAAEAAAABEBIAAAAAQAAEAAABAAGJyPCPgAAAAAAAAACAAAQAACAAAQAACAAAAA==

> <PUBCHEM_IUPAC_OPENEYE_NAME>
(5S,8S,9S,10R,13S,17R)-17-[(1S,2R,3R,4S)-2,3-dihydroxy-1,4,5-trimethyl-hexyl]-10,13-dimethyl-2,4,5,7,8,9,11,12,14,15,16,17-dodecahydro-1H-cyclopenta[a]phenanthrene-3,6-dione

> <PUBCHEM_IUPAC_CAS_NAME>
(5S,8S,9S,10R,13S,17R)-17-[(2S,3R,4R,5S)-3,4-dihydroxy-5,6-dimethylheptan-2-yl]-10,13-dimethyl-2,4,5,7,8,9,11,12,14,15,16,17-dodecahydro-1H-cyclopenta[a]phenanthrene-3,6-dione

> <PUBCHEM_IUPAC_NAME>
(5S,8S,9S,10R,13S,17R)-17-[(2S,3R,4R,5S)-3,4-dihydroxy-5,6-dimethylheptan-2-yl]-10,13-dimethyl-2,4,5,7,8,9,11,12,14,15,16,17-dodecahydro-1H-cyclopenta[a]phenanthrene-3,6-dione

> <PUBCHEM_IUPAC_SYSTEMATIC_NAME>
(5S,8S,9S,10R,13S,17R)-17-[(2S,3R,4R,5S)-5,6-dimethyl-3,4-bis(oxidanyl)heptan-2-yl]-10,13-dimethyl-2,4,5,7,8,9,11,12,14,15,16,17-dodecahydro-1H-cyclopenta[a]phenanthrene-3,6-dione

> <PUBCHEM_IUPAC_TRADITIONAL_NAME>
(5S,8S,9S,10R,13S,17R)-17-[(1S,2R,3R,4S)-2,3-dihydroxy-1,4,5-trimethyl-hexyl]-10,13-dimethyl-2,4,5,7,8,9,11,12,14,15,16,17-dodecahydro-1H-cyclopenta[a]phenanthrene-3,6-quinone

> <PUBCHEM_IUPAC_INCHI>
InChI=1S/C28H46O4/c1-15(2)16(3)25(31)26(32)17(4)20-7-8-21-19-14-24(30)23-13-18(29)9-11-28(23,6)22(19)10-12-27(20,21)5/h15-17,19-23,25-26,31-32H,7-14H2,1-6H3/t16-,17-,19-,20+,21?,22-,23+,25+,26+,27+,28+/m0/s1

> <PUBCHEM_IUPAC_INCHIKEY>
SVBMASFUJDIDJC-QPPSPHNCSA-N

> <PUBCHEM_XLOGP3_AA>
5.3

> <PUBCHEM_EXACT_MASS>
446.33961

> <PUBCHEM_MOLECULAR_FORMULA>
C28H46O4

> <PUBCHEM_MOLECULAR_WEIGHT>
446.66244

> <PUBCHEM_OPENEYE_CAN_SMILES>
CC(C)C(C)C(C(C(C)C1CCC2C1(CCC3C2CC(=O)C4C3(CCC(=O)C4)C)C)O)O

> <PUBCHEM_OPENEYE_ISO_SMILES>
C[C@@H]([C@H]1CCC2[C@@]1(CC[C@H]3[C@H]2CC(=O)[C@@H]4[C@@]3(CCC(=O)C4)C)C)[C@H]([C@@H]([C@@H](C)C(C)C)O)O

> <PUBCHEM_CACTVS_TPSA>
74.6

> <PUBCHEM_MONOISOTOPIC_WEIGHT>
446.33961

> <PUBCHEM_TOTAL_CHARGE>
0

> <PUBCHEM_HEAVY_ATOM_COUNT>
32

> <PUBCHEM_ATOM_DEF_STEREO_COUNT>
10

> <PUBCHEM_ATOM_UDEF_STEREO_COUNT>
1

> <PUBCHEM_BOND_DEF_STEREO_COUNT>
0

> <PUBCHEM_BOND_UDEF_STEREO_COUNT>
0

> <PUBCHEM_ISOTOPIC_ATOM_COUNT>
0

> <PUBCHEM_COMPONENT_COUNT>
1

> <PUBCHEM_CACTVS_TAUTO_COUNT>
9

> <PUBCHEM_COORDINATE_TYPE>
1
5
255

> <PUBCHEM_BONDANNOTATIONS>
10  21  5
15  45  6
17  25  6
23  2  6
28  30  6
27  4  6
5  18  5
6  12  3
7  34  5
8  35  6
9  36  6

$$$$

