443003
  -OEChem-07051213003D

 28 29  0     1  0  0  0  0  0999 V2000
   -1.8102   -2.0707    0.0168 O   0  0  0  0  0  0  0  0  0  0  0  0
   -2.4992    1.6200    0.7098 O   0  0  0  0  0  0  0  0  0  0  0  0
   -2.0732    0.4942   -1.2260 O   0  0  0  0  0  0  0  0  0  0  0  0
    1.0368    0.7705   -0.6827 N   0  0  2  0  0  0  0  0  0  0  0  0
    0.5356    0.8352    0.7063 C   0  0  1  0  0  0  0  0  0  0  0  0
    1.5932   -0.5914   -0.7675 C   0  0  1  0  0  0  0  0  0  0  0  0
   -0.7774    0.0146    0.7649 C   0  0  2  0  0  0  0  0  0  0  0  0
    1.6470    0.1752    1.5329 C   0  0  0  0  0  0  0  0  0  0  0  0
    2.3426   -0.7778    0.5565 C   0  0  0  0  0  0  0  0  0  0  0  0
    0.3884   -1.5458   -0.8909 C   0  0  0  0  0  0  0  0  0  0  0  0
   -0.5679   -1.4421    0.3081 C   0  0  2  0  0  0  0  0  0  0  0  0
    2.0215    1.8071   -0.9814 C   0  0  0  0  0  0  0  0  0  0  0  0
   -1.8371    0.7108   -0.0467 C   0  0  0  0  0  0  0  0  0  0  0  0
    0.3420    1.8644    1.0315 H   0  0  0  0  0  0  0  0  0  0  0  0
    2.2480   -0.7309   -1.6350 H   0  0  0  0  0  0  0  0  0  0  0  0
   -1.1481   -0.0256    1.7988 H   0  0  0  0  0  0  0  0  0  0  0  0
    1.2658   -0.3509    2.4142 H   0  0  0  0  0  0  0  0  0  0  0  0
    2.3650    0.9259    1.8842 H   0  0  0  0  0  0  0  0  0  0  0  0
    3.3944   -0.4866    0.4500 H   0  0  0  0  0  0  0  0  0  0  0  0
    2.3230   -1.8130    0.9124 H   0  0  0  0  0  0  0  0  0  0  0  0
   -0.1553   -1.3440   -1.8234 H   0  0  0  0  0  0  0  0  0  0  0  0
    0.7391   -2.5819   -0.9786 H   0  0  0  0  0  0  0  0  0  0  0  0
   -0.1324   -2.0016    1.1453 H   0  0  0  0  0  0  0  0  0  0  0  0
    2.3648    1.7103   -2.0172 H   0  0  0  0  0  0  0  0  0  0  0  0
    2.9014    1.7855   -0.3304 H   0  0  0  0  0  0  0  0  0  0  0  0
    1.5608    2.7973   -0.8952 H   0  0  0  0  0  0  0  0  0  0  0  0
   -1.6188   -2.9810   -0.2665 H   0  0  0  0  0  0  0  0  0  0  0  0
   -3.1939    2.0864    0.1977 H   0  0  0  0  0  0  0  0  0  0  0  0
  1 11  1  0  0  0  0
  1 27  1  0  0  0  0
  2 13  1  0  0  0  0
  2 28  1  0  0  0  0
  3 13  2  0  0  0  0
  4  5  1  0  0  0  0
  4  6  1  0  0  0  0
  4 12  1  0  0  0  0
  5  7  1  0  0  0  0
  5  8  1  0  0  0  0
  5 14  1  0  0  0  0
  6  9  1  0  0  0  0
  6 10  1  0  0  0  0
  6 15  1  0  0  0  0
  7 11  1  0  0  0  0
  7 13  1  0  0  0  0
  7 16  1  0  0  0  0
  8  9  1  0  0  0  0
  8 17  1  0  0  0  0
  8 18  1  0  0  0  0
  9 19  1  0  0  0  0
  9 20  1  0  0  0  0
 10 11  1  0  0  0  0
 10 21  1  0  0  0  0
 10 22  1  0  0  0  0
 11 23  1  0  0  0  0
 12 24  1  0  0  0  0
 12 25  1  0  0  0  0
 12 26  1  0  0  0  0
M  END
> <PUBCHEM_COMPOUND_CID>
443003

> <PUBCHEM_CONFORMER_RMSD>
0.6

> <PUBCHEM_CONFORMER_DIVERSEORDER>
3
1
2
4

> <PUBCHEM_MMFF94_PARTIAL_CHARGES>
12
1 -0.68
11 0.28
12 0.27
13 0.66
2 -0.65
27 0.4
28 0.5
3 -0.57
4 -0.81
5 0.27
6 0.27
7 0.06

> <PUBCHEM_EFFECTIVE_ROTOR_COUNT>
2.2

> <PUBCHEM_PHARMACOPHORE_FEATURES>
7
1 1 acceptor
1 1 donor
1 2 acceptor
1 3 acceptor
1 4 cation
3 2 3 13 anion
8 4 5 6 7 8 9 10 11 rings

> <PUBCHEM_HEAVY_ATOM_COUNT>
13

> <PUBCHEM_ATOM_DEF_STEREO_COUNT>
2

> <PUBCHEM_ATOM_UDEF_STEREO_COUNT>
2

> <PUBCHEM_BOND_DEF_STEREO_COUNT>
0

> <PUBCHEM_BOND_UDEF_STEREO_COUNT>
0

> <PUBCHEM_ISOTOPIC_ATOM_COUNT>
0

> <PUBCHEM_COMPONENT_COUNT>
1

> <PUBCHEM_CACTVS_TAUTO_COUNT>
1

> <PUBCHEM_CONFORMER_ID>
0006C27B00000003

> <PUBCHEM_MMFF94_ENERGY>
30.0513

> <PUBCHEM_FEATURE_SELFOVERLAP>
35.579

> <PUBCHEM_SHAPE_FINGERPRINT>
12423570 1 5024116991845351603
13024252 1 14758209839514330634
13380535 239 18194945362562027038
13571099 52 17024052490844291112
14993402 34 18271251641655427126
15557651 10 17272823602161757045
15775835 57 17703787033149986725
16945 1 18271250546343730034
20082192 1 18343867701405539601
20511035 2 18259990383302548686
20653085 51 17910922826474833660
207724 885 18200316648905075442
21040471 1 18334855056105809203
21501502 16 18339353068033598379
21922407 69 17273428170385154338
23235685 24 18337104691219144808
23419403 2 15236479491561754342
241688 4 17185294986336667098
2748010 2 18260545589382293582
353137 74 17767964233925108900
5084963 1 18341345447611904095
528886 8 18195510717707696188

> <PUBCHEM_SHAPE_MULTIPOLES>
244.94
3.11
1.89
1.26
0.66
0.22
0.08
-0.75
-0.02
0.34
-0.29
-0.36
-0.17
-0.32

> <PUBCHEM_SHAPE_SELFOVERLAP>
513.265

> <PUBCHEM_SHAPE_VOLUME>
139.4

> <PUBCHEM_COORDINATE_TYPE>
2
5
10

$$$$

