11953842
  -OEChem-07051212493D

 90 92  0     1  0  0  0  0  0999 V2000
    4.4175   -3.0825   -0.4144 P   0  0  0  0  0  0  0  0  0  0  0  0
   -7.1566    1.2110    0.6392 P   0  0  0  0  0  0  0  0  0  0  0  0
    1.4609   -1.0403    0.6185 O   0  0  0  0  0  0  0  0  0  0  0  0
   -0.0608   -1.9600    2.1546 O   0  0  0  0  0  0  0  0  0  0  0  0
   -2.0795   -0.9436    0.1180 O   0  0  0  0  0  0  0  0  0  0  0  0
   -2.4324    0.3777   -1.8140 O   0  0  0  0  0  0  0  0  0  0  0  0
    3.9739   -1.5636   -0.7256 O   0  0  0  0  0  0  0  0  0  0  0  0
    4.3511    0.2404    2.4317 O   0  0  0  0  0  0  0  0  0  0  0  0
    2.2308    0.5854   -1.7183 O   0  0  0  0  0  0  0  0  0  0  0  0
   -6.3108    0.2999   -0.3896 O   0  0  0  0  0  0  0  0  0  0  0  0
    0.0872   -3.5425   -1.9560 O   0  0  0  0  0  0  0  0  0  0  0  0
   -4.7868    2.7055   -0.2015 O   0  0  0  0  0  0  0  0  0  0  0  0
   -0.9405    2.6650   -2.0483 O   0  0  0  0  0  0  0  0  0  0  0  0
    3.8067   -3.8906   -1.6749 O   0  0  0  0  0  0  0  0  0  0  0  0
    6.0085   -3.0887   -0.7042 O   0  0  0  0  0  0  0  0  0  0  0  0
    4.0085   -3.6049    0.9317 O   0  0  0  0  0  0  0  0  0  0  0  0
   -8.5778    0.4422    0.7032 O   0  0  0  0  0  0  0  0  0  0  0  0
   -6.4934    0.8871    2.0781 O   0  0  0  0  0  0  0  0  0  0  0  0
   -7.2389    2.6667    0.2837 O   0  0  0  0  0  0  0  0  0  0  0  0
    2.5448    2.3573    1.4865 N   0  0  0  0  0  0  0  0  0  0  0  0
    5.1988    1.8084    0.0500 N   0  0  0  0  0  0  0  0  0  0  0  0
   -4.6564   -2.1438   -0.2225 N   0  0  0  0  0  0  0  0  0  0  0  0
    0.9427    3.8213    0.4569 N   0  0  0  0  0  0  0  0  0  0  0  0
    2.2949    4.5591    2.1368 N   0  0  0  0  0  0  0  0  0  0  0  0
    6.5482    3.6674   -0.1856 N   0  0  0  0  0  0  0  0  0  0  0  0
    5.6120    2.8266   -2.0861 N   0  0  0  0  0  0  0  0  0  0  0  0
   -0.7922   -1.5304   -0.0569 C   0  0  2  0  0  0  0  0  0  0  0  0
   -0.8839   -3.0315    0.1749 C   0  0  2  0  0  0  0  0  0  0  0  0
    2.2351   -0.0727    1.3268 C   0  0  2  0  0  0  0  0  0  0  0  0
    0.1107   -1.0453    1.0645 C   0  0  2  0  0  0  0  0  0  0  0  0
    2.1095    1.2723    0.5973 C   0  0  2  0  0  0  0  0  0  0  0  0
    3.6828   -0.5637    1.4632 C   0  0  1  0  0  0  0  0  0  0  0  0
   -0.7112   -3.1557    1.6924 C   0  0  2  0  0  0  0  0  0  0  0  0
    4.4556   -0.5330    0.1368 C   0  0  2  0  0  0  0  0  0  0  0  0
    2.9098    1.3412   -0.7118 C   0  0  1  0  0  0  0  0  0  0  0  0
    4.3453    0.8070   -0.6040 C   0  0  1  0  0  0  0  0  0  0  0  0
   -2.7784   -0.8245   -1.1198 C   0  0  2  0  0  0  0  0  0  0  0  0
   -4.3026   -0.9337   -0.9645 C   0  0  2  0  0  0  0  0  0  0  0  0
   -4.8853    0.3140   -0.2873 C   0  0  1  0  0  0  0  0  0  0  0  0
    0.2204   -3.7879   -0.5662 C   0  0  0  0  0  0  0  0  0  0  0  0
   -4.3832    1.5837   -0.9840 C   0  0  2  0  0  0  0  0  0  0  0  0
   -2.8579    1.5660   -1.1401 C   0  0  2  0  0  0  0  0  0  0  0  0
   -2.0367   -3.2817    2.4341 C   0  0  0  0  0  0  0  0  0  0  0  0
   -2.3512    2.7490   -1.9608 C   0  0  0  0  0  0  0  0  0  0  0  0
    1.9450    3.4927    1.3423 C   0  0  0  0  0  0  0  0  0  0  0  0
   -4.5203   -3.3218   -1.0644 C   0  0  0  0  0  0  0  0  0  0  0  0
    5.7360    2.6956   -0.7207 C   0  0  0  0  0  0  0  0  0  0  0  0
   -0.3768   -1.2460   -1.0312 H   0  0  0  0  0  0  0  0  0  0  0  0
   -1.8423   -3.4430   -0.1454 H   0  0  0  0  0  0  0  0  0  0  0  0
    1.8355    0.0391    2.3457 H   0  0  0  0  0  0  0  0  0  0  0  0
   -0.2097   -0.0548    1.4090 H   0  0  0  0  0  0  0  0  0  0  0  0
    1.0483    1.3765    0.3478 H   0  0  0  0  0  0  0  0  0  0  0  0
    3.6600   -1.5712    1.8754 H   0  0  0  0  0  0  0  0  0  0  0  0
   -0.0807   -4.0103    1.9623 H   0  0  0  0  0  0  0  0  0  0  0  0
    5.5176   -0.7224    0.3393 H   0  0  0  0  0  0  0  0  0  0  0  0
    2.9307    2.3722   -1.0839 H   0  0  0  0  0  0  0  0  0  0  0  0
    4.7062    0.5842   -1.6168 H   0  0  0  0  0  0  0  0  0  0  0  0
   -2.4577   -1.6308   -1.7899 H   0  0  0  0  0  0  0  0  0  0  0  0
   -4.7585   -0.9735   -1.9650 H   0  0  0  0  0  0  0  0  0  0  0  0
   -4.5910    0.3258    0.7689 H   0  0  0  0  0  0  0  0  0  0  0  0
    0.1262   -4.8651   -0.3928 H   0  0  0  0  0  0  0  0  0  0  0  0
    1.2195   -3.4760   -0.2498 H   0  0  0  0  0  0  0  0  0  0  0  0
   -4.8679    1.6771   -1.9635 H   0  0  0  0  0  0  0  0  0  0  0  0
   -2.3661    1.6052   -0.1589 H   0  0  0  0  0  0  0  0  0  0  0  0
   -1.8595   -3.3535    3.5129 H   0  0  0  0  0  0  0  0  0  0  0  0
   -2.5876   -4.1707    2.1127 H   0  0  0  0  0  0  0  0  0  0  0  0
   -2.6685   -2.4006    2.2837 H   0  0  0  0  0  0  0  0  0  0  0  0
    3.8691    0.1566    3.2720 H   0  0  0  0  0  0  0  0  0  0  0  0
   -5.6233   -2.0790    0.0955 H   0  0  0  0  0  0  0  0  0  0  0  0
    1.3438    0.9688   -1.8270 H   0  0  0  0  0  0  0  0  0  0  0  0
   -2.7521    2.7178   -2.9793 H   0  0  0  0  0  0  0  0  0  0  0  0
   -2.6190    3.7021   -1.4947 H   0  0  0  0  0  0  0  0  0  0  0  0
    0.7958   -4.0361   -2.4028 H   0  0  0  0  0  0  0  0  0  0  0  0
   -4.3406    2.6463    0.6604 H   0  0  0  0  0  0  0  0  0  0  0  0
   -3.5237   -3.4556   -1.4878 H   0  0  0  0  0  0  0  0  0  0  0  0
   -5.2432   -3.3023   -1.8874 H   0  0  0  0  0  0  0  0  0  0  0  0
   -4.7340   -4.2129   -0.4651 H   0  0  0  0  0  0  0  0  0  0  0  0
   -0.6390    3.4271   -2.5715 H   0  0  0  0  0  0  0  0  0  0  0  0
    0.5469    4.7556    0.4519 H   0  0  0  0  0  0  0  0  0  0  0  0
    0.5818    3.1833   -0.2419 H   0  0  0  0  0  0  0  0  0  0  0  0
    1.8410    5.4612    2.0443 H   0  0  0  0  0  0  0  0  0  0  0  0
    3.0211    4.4722    2.8394 H   0  0  0  0  0  0  0  0  0  0  0  0
    3.8547   -4.8703   -1.6790 H   0  0  0  0  0  0  0  0  0  0  0  0
    6.5200   -3.9065   -0.5260 H   0  0  0  0  0  0  0  0  0  0  0  0
    6.9817    4.3761   -0.7672 H   0  0  0  0  0  0  0  0  0  0  0  0
    6.7356    3.7028    0.8105 H   0  0  0  0  0  0  0  0  0  0  0  0
    5.0184    2.2326   -2.6520 H   0  0  0  0  0  0  0  0  0  0  0  0
    6.0971    3.5697   -2.5779 H   0  0  0  0  0  0  0  0  0  0  0  0
   -9.3171    0.8522    1.2007 H   0  0  0  0  0  0  0  0  0  0  0  0
   -6.8082    1.3778    2.8669 H   0  0  0  0  0  0  0  0  0  0  0  0
  1  7  1  0  0  0  0
  1 14  1  0  0  0  0
  1 15  1  0  0  0  0
  1 16  2  0  0  0  0
  2 10  1  0  0  0  0
  2 17  1  0  0  0  0
  2 18  1  0  0  0  0
  2 19  2  0  0  0  0
  3 29  1  0  0  0  0
  3 30  1  0  0  0  0
  4 30  1  0  0  0  0
  4 33  1  0  0  0  0
  5 27  1  0  0  0  0
  5 37  1  0  0  0  0
  6 37  1  0  0  0  0
  6 42  1  0  0  0  0
  7 34  1  0  0  0  0
  8 32  1  0  0  0  0
  8 68  1  0  0  0  0
  9 35  1  0  0  0  0
  9 70  1  0  0  0  0
 10 39  1  0  0  0  0
 11 40  1  0  0  0  0
 11 73  1  0  0  0  0
 12 41  1  0  0  0  0
 12 74  1  0  0  0  0
 13 44  1  0  0  0  0
 13 78  1  0  0  0  0
 14 83  1  0  0  0  0
 15 84  1  0  0  0  0
 17 89  1  0  0  0  0
 18 90  1  0  0  0  0
 20 31  1  0  0  0  0
 20 45  2  0  0  0  0
 21 36  1  0  0  0  0
 21 47  2  0  0  0  0
 22 38  1  0  0  0  0
 22 46  1  0  0  0  0
 22 69  1  0  0  0  0
 23 45  1  0  0  0  0
 23 79  1  0  0  0  0
 23 80  1  0  0  0  0
 24 45  1  0  0  0  0
 24 81  1  0  0  0  0
 24 82  1  0  0  0  0
 25 47  1  0  0  0  0
 25 85  1  0  0  0  0
 25 86  1  0  0  0  0
 26 47  1  0  0  0  0
 26 87  1  0  0  0  0
 26 88  1  0  0  0  0
 27 28  1  0  0  0  0
 27 30  1  0  0  0  0
 27 48  1  0  0  0  0
 28 33  1  0  0  0  0
 28 40  1  0  0  0  0
 28 49  1  0  0  0  0
 29 31  1  0  0  0  0
 29 32  1  0  0  0  0
 29 50  1  0  0  0  0
 30 51  1  0  0  0  0
 31 35  1  0  0  0  0
 31 52  1  0  0  0  0
 32 34  1  0  0  0  0
 32 53  1  0  0  0  0
 33 43  1  0  0  0  0
 33 54  1  0  0  0  0
 34 36  1  0  0  0  0
 34 55  1  0  0  0  0
 35 36  1  0  0  0  0
 35 56  1  0  0  0  0
 36 57  1  0  0  0  0
 37 38  1  0  0  0  0
 37 58  1  0  0  0  0
 38 39  1  0  0  0  0
 38 59  1  0  0  0  0
 39 41  1  0  0  0  0
 39 60  1  0  0  0  0
 40 61  1  0  0  0  0
 40 62  1  0  0  0  0
 41 42  1  0  0  0  0
 41 63  1  0  0  0  0
 42 44  1  0  0  0  0
 42 64  1  0  0  0  0
 43 65  1  0  0  0  0
 43 66  1  0  0  0  0
 43 67  1  0  0  0  0
 44 71  1  0  0  0  0
 44 72  1  0  0  0  0
 46 75  1  0  0  0  0
 46 76  1  0  0  0  0
 46 77  1  0  0  0  0
M  END
> <PUBCHEM_COMPOUND_CID>
11953842

> <PUBCHEM_CONFORMER_RMSD>
1.4

> <PUBCHEM_CONFORMER_DIVERSEORDER>
1
25
11
24
13
14
19
8
10
18
12
21
26
27
16
5
23
4
6
7
9
2
20
17
22
3
15

> <PUBCHEM_MMFF94_PARTIAL_CHARGES>
63
1 1.51
10 -0.55
11 -0.68
12 -0.68
13 -0.68
14 -0.77
15 -0.77
16 -0.7
17 -0.77
18 -0.77
19 -0.7
2 1.51
20 -0.7
21 -0.7
22 -0.9
23 -0.85
24 -0.85
25 -0.85
26 -0.85
27 0.28
29 0.28
3 -0.56
30 0.56
31 0.25
32 0.28
33 0.28
34 0.28
35 0.28
36 0.25
37 0.56
38 0.27
39 0.28
4 -0.56
40 0.28
41 0.28
42 0.28
44 0.28
45 0.55
46 0.27
47 0.55
5 -0.56
6 -0.56
68 0.4
69 0.36
7 -0.55
70 0.4
73 0.4
74 0.4
78 0.4
79 0.4
8 -0.68
80 0.4
81 0.4
82 0.4
83 0.5
84 0.5
85 0.4
86 0.4
87 0.4
88 0.4
89 0.5
9 -0.68
90 0.5

> <PUBCHEM_EFFECTIVE_ROTOR_COUNT>
16.4

> <PUBCHEM_PHARMACOPHORE_FEATURES>
33
1 11 acceptor
1 11 donor
1 12 acceptor
1 12 donor
1 13 acceptor
1 13 donor
1 14 acceptor
1 15 acceptor
1 16 acceptor
1 17 acceptor
1 18 acceptor
1 19 acceptor
1 22 cation
1 22 donor
1 23 donor
1 24 donor
1 25 donor
1 26 donor
1 3 acceptor
1 4 acceptor
1 5 acceptor
1 6 acceptor
1 8 acceptor
1 8 donor
1 9 acceptor
1 9 donor
4 1 14 15 16 anion
4 2 17 18 19 anion
4 20 23 24 45 cation
4 21 25 26 47 cation
5 4 27 28 30 33 rings
6 29 31 32 34 35 36 rings
6 6 37 38 39 41 42 rings

> <PUBCHEM_HEAVY_ATOM_COUNT>
47

> <PUBCHEM_ATOM_DEF_STEREO_COUNT>
15

> <PUBCHEM_ATOM_UDEF_STEREO_COUNT>
0

> <PUBCHEM_BOND_DEF_STEREO_COUNT>
0

> <PUBCHEM_BOND_UDEF_STEREO_COUNT>
0

> <PUBCHEM_ISOTOPIC_ATOM_COUNT>
0

> <PUBCHEM_COMPONENT_COUNT>
1

> <PUBCHEM_CACTVS_TAUTO_COUNT>
4

> <PUBCHEM_CONFORMER_ID>
00B666B200000001

> <PUBCHEM_MMFF94_ENERGY>
78.4822

> <PUBCHEM_FEATURE_SELFOVERLAP>
167.75

> <PUBCHEM_SHAPE_FINGERPRINT>
10675989 125 18341048605775348322
11513181 2 18263366893338228711
11578080 2 18270389500344343774
13383665 225 17630021803292072662
13560911 43 18199471150618416850
14068700 675 18192433185716910786
14747281 78 18264468711289602454
15183329 4 16153429480536779595
15975801 100 17344350205588849038
16112460 7 18409725166787034073
19319366 153 17703523124842679352
508180 173 18188203196300566456
5776283 40 18271792567539034934
6523845 18 17346033488644333119

> <PUBCHEM_SHAPE_MULTIPOLES>
840.29
16.58
6
2.08
16.67
0.66
0.44
-8.94
-0.24
-4.83
0.05
-0.33
-0.06
0.62

> <PUBCHEM_SHAPE_SELFOVERLAP>
1703.345

> <PUBCHEM_SHAPE_VOLUME>
490.9

> <PUBCHEM_COORDINATE_TYPE>
2
5
10

$$$$

