110685
  -OEChem-07051213102D

 29 29  0     1  0  0  0  0  0999 V2000
    2.5000    1.5306    0.0000 O   0  0  0  0  0  0  0  0  0  0  0  0
    4.8660    0.1645    0.0000 C   0  0  0  0  0  0  0  0  0  0  0  0
    4.0000    0.6645    0.0000 C   0  0  3  0  0  0  0  0  0  0  0  0
    4.0000   -0.3355    0.0000 C   0  0  3  0  0  0  0  0  0  0  0  0
    5.3660   -0.7015    0.0000 C   0  0  0  0  0  0  0  0  0  0  0  0
    5.3660    1.0306    0.0000 C   0  0  0  0  0  0  0  0  0  0  0  0
    3.5000    1.5306    0.0000 C   0  0  0  0  0  0  0  0  0  0  0  0
    3.5000   -1.2015    0.0000 C   0  0  0  0  0  0  0  0  0  0  0  0
    2.5000   -1.2015    0.0000 C   0  0  0  0  0  0  0  0  0  0  0  0
    2.0000   -2.0675    0.0000 C   0  0  0  0  0  0  0  0  0  0  0  0
    2.0000   -0.3355    0.0000 C   0  0  0  0  0  0  0  0  0  0  0  0
    3.4011    0.5041    0.0000 H   0  0  0  0  0  0  0  0  0  0  0  0
    3.4011   -0.1750    0.0000 H   0  0  0  0  0  0  0  0  0  0  0  0
    4.8291   -1.0115    0.0000 H   0  0  0  0  0  0  0  0  0  0  0  0
    5.6760   -1.2384    0.0000 H   0  0  0  0  0  0  0  0  0  0  0  0
    5.9030    0.7206    0.0000 H   0  0  0  0  0  0  0  0  0  0  0  0
    5.6760    1.5675    0.0000 H   0  0  0  0  0  0  0  0  0  0  0  0
    4.8291    1.3406    0.0000 H   0  0  0  0  0  0  0  0  0  0  0  0
    5.9030   -0.3915    0.0000 H   0  0  0  0  0  0  0  0  0  0  0  0
    4.0826    1.7426    0.0000 H   0  0  0  0  0  0  0  0  0  0  0  0
    3.3923    2.1412    0.0000 H   0  0  0  0  0  0  0  0  0  0  0  0
    3.8100   -1.7384    0.0000 H   0  0  0  0  0  0  0  0  0  0  0  0
    2.1900    2.0675    0.0000 H   0  0  0  0  0  0  0  0  0  0  0  0
    2.5369   -0.0255    0.0000 H   0  0  0  0  0  0  0  0  0  0  0  0
    1.4631   -1.7575    0.0000 H   0  0  0  0  0  0  0  0  0  0  0  0
    1.6900   -2.6044    0.0000 H   0  0  0  0  0  0  0  0  0  0  0  0
    2.5369   -2.3775    0.0000 H   0  0  0  0  0  0  0  0  0  0  0  0
    1.6900    0.2015    0.0000 H   0  0  0  0  0  0  0  0  0  0  0  0
    1.4631   -0.6455    0.0000 H   0  0  0  0  0  0  0  0  0  0  0  0
  1  7  1  0  0  0  0
  1 23  1  0  0  0  0
  2  3  1  0  0  0  0
  2  4  1  0  0  0  0
  2  5  1  0  0  0  0
  2  6  1  0  0  0  0
  3  4  1  0  0  0  0
  3  7  1  0  0  0  0
  3 12  1  0  0  0  0
  4  8  1  0  0  0  0
  4 13  1  0  0  0  0
  5 14  1  0  0  0  0
  5 15  1  0  0  0  0
  5 19  1  0  0  0  0
  6 16  1  0  0  0  0
  6 17  1  0  0  0  0
  6 18  1  0  0  0  0
  7 20  1  0  0  0  0
  7 21  1  0  0  0  0
  8  9  2  0  0  0  0
  8 22  1  0  0  0  0
  9 10  1  0  0  0  0
  9 11  1  0  0  0  0
 10 25  1  0  0  0  0
 10 26  1  0  0  0  0
 10 27  1  0  0  0  0
 11 24  1  0  0  0  0
 11 28  1  0  0  0  0
 11 29  1  0  0  0  0
M  END
> <PUBCHEM_COMPOUND_CID>
110685

> <PUBCHEM_COMPOUND_CANONICALIZED>
1

> <PUBCHEM_CACTVS_COMPLEXITY>
175

> <PUBCHEM_CACTVS_HBOND_ACCEPTOR>
1

> <PUBCHEM_CACTVS_HBOND_DONOR>
1

> <PUBCHEM_CACTVS_ROTATABLE_BOND>
2

> <PUBCHEM_CACTVS_SUBSKEYS>
AAADceBwIAAAAAAAAAAAAAAAGAAAAAAAAAAAAAAAAAAAAAAAAAAAGgAACAAADwCggAICAAAAAgCAAiBCAAAAAAAgAAAACAAAAAgAEAIAAQAAQAAEgAAIAAKAAAAPgAAAAAAAAAAAAAAAAAAAAAAAAAAAAA==

> <PUBCHEM_IUPAC_OPENEYE_NAME>
[2,2-dimethyl-3-(2-methylprop-1-enyl)cyclopropyl]methanol

> <PUBCHEM_IUPAC_CAS_NAME>
[2,2-dimethyl-3-(2-methylprop-1-enyl)cyclopropyl]methanol

> <PUBCHEM_IUPAC_NAME>
[2,2-dimethyl-3-(2-methylprop-1-enyl)cyclopropyl]methanol

> <PUBCHEM_IUPAC_SYSTEMATIC_NAME>
[2,2-dimethyl-3-(2-methylprop-1-enyl)cyclopropyl]methanol

> <PUBCHEM_IUPAC_TRADITIONAL_NAME>
[2,2-dimethyl-3-(2-methylprop-1-enyl)cyclopropyl]methanol

> <PUBCHEM_IUPAC_INCHI>
InChI=1S/C10H18O/c1-7(2)5-8-9(6-11)10(8,3)4/h5,8-9,11H,6H2,1-4H3

> <PUBCHEM_IUPAC_INCHIKEY>
HIPIENNKVJCMAP-UHFFFAOYSA-N

> <PUBCHEM_XLOGP3_AA>
2.5

> <PUBCHEM_EXACT_MASS>
154.135765

> <PUBCHEM_MOLECULAR_FORMULA>
C10H18O

> <PUBCHEM_MOLECULAR_WEIGHT>
154.24932

> <PUBCHEM_OPENEYE_CAN_SMILES>
CC(=CC1C(C1(C)C)CO)C

> <PUBCHEM_OPENEYE_ISO_SMILES>
CC(=CC1C(C1(C)C)CO)C

> <PUBCHEM_CACTVS_TPSA>
20.2

> <PUBCHEM_MONOISOTOPIC_WEIGHT>
154.135765

> <PUBCHEM_TOTAL_CHARGE>
0

> <PUBCHEM_HEAVY_ATOM_COUNT>
11

> <PUBCHEM_ATOM_DEF_STEREO_COUNT>
0

> <PUBCHEM_ATOM_UDEF_STEREO_COUNT>
2

> <PUBCHEM_BOND_DEF_STEREO_COUNT>
0

> <PUBCHEM_BOND_UDEF_STEREO_COUNT>
0

> <PUBCHEM_ISOTOPIC_ATOM_COUNT>
0

> <PUBCHEM_COMPONENT_COUNT>
1

> <PUBCHEM_CACTVS_TAUTO_COUNT>
1

> <PUBCHEM_COORDINATE_TYPE>
1
5
255

> <PUBCHEM_BONDANNOTATIONS>
3  7  3
4  8  3

$$$$

