255266
  -OEChem-07051213063D

 43 45  0     0  0  0  0  0  0999 V2000
   -6.8743   -0.3299   -0.3740 F   0  0  0  0  0  0  0  0  0  0  0  0
    0.6221    1.5150    0.7307 O   0  0  0  0  0  0  0  0  0  0  0  0
    5.0328   -0.1818    0.6307 O   0  0  0  0  0  0  0  0  0  0  0  0
    5.1386    0.3149   -1.6545 O   0  0  0  0  0  0  0  0  0  0  0  0
   -0.7007    1.4800    0.1461 C   0  0  0  0  0  0  0  0  0  0  0  0
   -1.3072    0.0745    0.1023 C   0  0  0  0  0  0  0  0  0  0  0  0
   -0.5412   -1.0385    0.1402 C   0  0  0  0  0  0  0  0  0  0  0  0
    0.9222   -0.8407    0.2282 C   0  0  0  0  0  0  0  0  0  0  0  0
   -1.5057    2.4538    1.0272 C   0  0  0  0  0  0  0  0  0  0  0  0
   -0.5810    2.0786   -1.2671 C   0  0  0  0  0  0  0  0  0  0  0  0
    1.4248    0.4301    0.5238 C   0  0  0  0  0  0  0  0  0  0  0  0
   -2.7770   -0.0312   -0.0239 C   0  0  0  0  0  0  0  0  0  0  0  0
   -1.0579   -2.4541    0.0788 C   0  0  0  0  0  0  0  0  0  0  0  0
    1.8449   -1.8865    0.0576 C   0  0  0  0  0  0  0  0  0  0  0  0
    2.7984    0.6509    0.6721 C   0  0  0  0  0  0  0  0  0  0  0  0
   -3.5646   -0.1094    1.1207 C   0  0  0  0  0  0  0  0  0  0  0  0
   -3.3631   -0.0528   -1.2861 C   0  0  0  0  0  0  0  0  0  0  0  0
    3.6961   -0.3972    0.4983 C   0  0  0  0  0  0  0  0  0  0  0  0
    3.2193   -1.6657    0.1874 C   0  0  0  0  0  0  0  0  0  0  0  0
   -4.9507   -0.2101    1.0023 C   0  0  0  0  0  0  0  0  0  0  0  0
   -4.7492   -0.1534   -1.4046 C   0  0  0  0  0  0  0  0  0  0  0  0
   -5.5432   -0.2320   -0.2603 C   0  0  0  0  0  0  0  0  0  0  0  0
    5.6765    0.1858   -0.5627 C   0  0  0  0  0  0  0  0  0  0  0  0
    7.1401    0.3997   -0.3130 C   0  0  0  0  0  0  0  0  0  0  0  0
   -2.5077    2.6505    0.6323 H   0  0  0  0  0  0  0  0  0  0  0  0
   -1.5975    2.0716    2.0507 H   0  0  0  0  0  0  0  0  0  0  0  0
   -0.9884    3.4178    1.1100 H   0  0  0  0  0  0  0  0  0  0  0  0
   -0.0088    1.4198   -1.9310 H   0  0  0  0  0  0  0  0  0  0  0  0
   -1.5595    2.2565   -1.7245 H   0  0  0  0  0  0  0  0  0  0  0  0
   -0.0403    3.0321   -1.2405 H   0  0  0  0  0  0  0  0  0  0  0  0
   -0.7437   -2.9380   -0.8523 H   0  0  0  0  0  0  0  0  0  0  0  0
   -2.1480   -2.5248    0.1191 H   0  0  0  0  0  0  0  0  0  0  0  0
   -0.6815   -3.0377    0.9265 H   0  0  0  0  0  0  0  0  0  0  0  0
    1.5193   -2.8962   -0.1789 H   0  0  0  0  0  0  0  0  0  0  0  0
    3.1661    1.6445    0.9179 H   0  0  0  0  0  0  0  0  0  0  0  0
   -3.1176   -0.0974    2.1116 H   0  0  0  0  0  0  0  0  0  0  0  0
   -2.7582    0.0019   -2.1876 H   0  0  0  0  0  0  0  0  0  0  0  0
    3.9096   -2.4937    0.0494 H   0  0  0  0  0  0  0  0  0  0  0  0
   -5.5690   -0.2726    1.8929 H   0  0  0  0  0  0  0  0  0  0  0  0
   -5.2106   -0.1721   -2.3875 H   0  0  0  0  0  0  0  0  0  0  0  0
    7.2764    1.2010    0.4172 H   0  0  0  0  0  0  0  0  0  0  0  0
    7.6288    0.6911   -1.2471 H   0  0  0  0  0  0  0  0  0  0  0  0
    7.5928   -0.5285    0.0440 H   0  0  0  0  0  0  0  0  0  0  0  0
  1 22  1  0  0  0  0
  2  5  1  0  0  0  0
  2 11  1  0  0  0  0
  3 18  1  0  0  0  0
  3 23  1  0  0  0  0
  4 23  2  0  0  0  0
  5  6  1  0  0  0  0
  5  9  1  0  0  0  0
  5 10  1  0  0  0  0
  6  7  2  0  0  0  0
  6 12  1  0  0  0  0
  7  8  1  0  0  0  0
  7 13  1  0  0  0  0
  8 11  2  0  0  0  0
  8 14  1  0  0  0  0
  9 25  1  0  0  0  0
  9 26  1  0  0  0  0
  9 27  1  0  0  0  0
 10 28  1  0  0  0  0
 10 29  1  0  0  0  0
 10 30  1  0  0  0  0
 11 15  1  0  0  0  0
 12 16  2  0  0  0  0
 12 17  1  0  0  0  0
 13 31  1  0  0  0  0
 13 32  1  0  0  0  0
 13 33  1  0  0  0  0
 14 19  2  0  0  0  0
 14 34  1  0  0  0  0
 15 18  2  0  0  0  0
 15 35  1  0  0  0  0
 16 20  1  0  0  0  0
 16 36  1  0  0  0  0
 17 21  2  0  0  0  0
 17 37  1  0  0  0  0
 18 19  1  0  0  0  0
 19 38  1  0  0  0  0
 20 22  2  0  0  0  0
 20 39  1  0  0  0  0
 21 22  1  0  0  0  0
 21 40  1  0  0  0  0
 23 24  1  0  0  0  0
 24 41  1  0  0  0  0
 24 42  1  0  0  0  0
 24 43  1  0  0  0  0
M  END
> <PUBCHEM_COMPOUND_CID>
255266

> <PUBCHEM_CONFORMER_RMSD>
0.6

> <PUBCHEM_CONFORMER_DIVERSEORDER>
1
7
4
8
3
2
5
6

> <PUBCHEM_MMFF94_PARTIAL_CHARGES>
29
1 -0.19
11 0.08
12 0.03
13 0.14
14 -0.15
15 -0.15
16 -0.15
17 -0.15
18 0.08
19 -0.15
2 -0.36
20 -0.15
21 -0.15
22 0.19
23 0.66
24 0.06
3 -0.23
34 0.15
35 0.15
36 0.15
37 0.15
38 0.15
39 0.15
4 -0.57
40 0.15
5 0.42
6 -0.17
7 -0.17
8 0.03

> <PUBCHEM_EFFECTIVE_ROTOR_COUNT>
3.4

> <PUBCHEM_PHARMACOPHORE_FEATURES>
6
1 2 acceptor
1 4 acceptor
3 5 9 10 hydrophobe
6 12 16 17 20 21 22 rings
6 2 5 6 7 8 11 rings
6 8 11 14 15 18 19 rings

> <PUBCHEM_HEAVY_ATOM_COUNT>
24

> <PUBCHEM_ATOM_DEF_STEREO_COUNT>
0

> <PUBCHEM_ATOM_UDEF_STEREO_COUNT>
0

> <PUBCHEM_BOND_DEF_STEREO_COUNT>
0

> <PUBCHEM_BOND_UDEF_STEREO_COUNT>
0

> <PUBCHEM_ISOTOPIC_ATOM_COUNT>
0

> <PUBCHEM_COMPONENT_COUNT>
1

> <PUBCHEM_CACTVS_TAUTO_COUNT>
1

> <PUBCHEM_CONFORMER_ID>
0003E52200000001

> <PUBCHEM_MMFF94_ENERGY>
84.8872

> <PUBCHEM_FEATURE_SELFOVERLAP>
30.475

> <PUBCHEM_SHAPE_FINGERPRINT>
10 15 18060146397650962608
10366900 7 18334859419998421194
10670039 82 18271512213680494916
10906281 52 18337655490820901155
11796584 16 14056998317397750300
11963148 33 18341057332643466074
12011746 2 18408323280565008419
12236239 1 17530969064683503491
12390115 104 17969488489079207168
12516196 113 18114185224295510345
12553582 1 18261403246911420952
12788726 201 18334861670313370976
13140716 1 18265620870705412738
13288520 33 16226048881855597339
13533116 47 13686033016035854672
13540713 5 18121216751721443746
13583140 156 16773792584663495672
13862211 1 18335427871583538562
13911987 19 18341903995477366975
13914758 101 15769504222300350028
14123256 10 18411138039423151044
14347332 77 17969777682628924726
14617045 38 18408603660362365102
14790565 3 18337383945761404977
14840074 17 18333449837369679021
15048467 5 15482675680054654007
15196674 1 18265335182107256554
15537594 2 18260553324492157351
15849732 13 17894633639403436677
16728300 4 6770769978543144460
16945 1 18335706022244798345
17357779 13 18270134499466690469
17980427 23 17632002156840682285
1813 80 18335411392100122141
19489759 90 14620794907335591220
200 152 18334866038722300401
21033648 29 18199770118817679701
21236236 1 18336264656025528257
21267235 1 18114180801154233491
21641784 216 18271794774588274884
221357 26 17967812760982049744
23402539 116 18187651309992611425
23522609 53 17897136148953468064
23536379 177 15769781268537816832
23559900 14 18189906322553130536
23569914 152 16962398699135174381
23569914 2 15262884259023686340
23569943 247 17460578458469397174
25147074 1 18265333004933319210
283562 15 18337390560311571993
312423 11 18195244640589967402
335352 9 18408605829309904014
34797466 226 16773792610597024383
350125 39 18409166644802365968
3545911 37 18343863312566316930
4325135 7 18408040723847298676
4340502 62 16343702149018319930
5104073 3 18192720153381404394
5283173 99 16845301578355447597
5486654 2 18410573980878024602

> <PUBCHEM_SHAPE_MULTIPOLES>
469.03
13.98
1.9
1.16
6.8
0.13
-0.25
-0.55
-2.9
0.01
0.16
-0.48
0.3
-0.3

> <PUBCHEM_SHAPE_SELFOVERLAP>
1022.754

> <PUBCHEM_SHAPE_VOLUME>
258.1

> <PUBCHEM_COORDINATE_TYPE>
2
5
10

$$$$

