139728
  -OEChem-07051213053D

 32 33  0     0  0  0  0  0  0999 V2000
    5.1821   -0.2477   -0.3034 O   0  0  0  0  0  0  0  0  0  0  0  0
   -0.3672   -0.1196    0.7066 C   0  0  0  0  0  0  0  0  0  0  0  0
   -1.2160   -0.0246   -0.5767 C   0  0  0  0  0  0  0  0  0  0  0  0
    1.1173   -0.1537    0.4362 C   0  0  0  0  0  0  0  0  0  0  0  0
   -2.6859    0.0317   -0.3304 C   0  0  0  0  0  0  0  0  0  0  0  0
    1.7461   -1.3747    0.2514 C   0  0  0  0  0  0  0  0  0  0  0  0
    1.8246    1.0367    0.3778 C   0  0  0  0  0  0  0  0  0  0  0  0
   -3.4282   -1.1477   -0.2674 C   0  0  0  0  0  0  0  0  0  0  0  0
   -3.3184    1.2636   -0.1623 C   0  0  0  0  0  0  0  0  0  0  0  0
    3.1181   -1.4062    0.0018 C   0  0  0  0  0  0  0  0  0  0  0  0
    3.1966    1.0052    0.1280 C   0  0  0  0  0  0  0  0  0  0  0  0
    3.8434   -0.2163   -0.0601 C   0  0  0  0  0  0  0  0  0  0  0  0
   -4.8029   -1.0952   -0.0369 C   0  0  0  0  0  0  0  0  0  0  0  0
   -4.6931    1.3160    0.0684 C   0  0  0  0  0  0  0  0  0  0  0  0
   -5.4353    0.1366    0.1311 C   0  0  0  0  0  0  0  0  0  0  0  0
    5.9188    0.9959   -0.3642 C   0  0  0  0  0  0  0  0  0  0  0  0
   -0.6539   -1.0131    1.2775 H   0  0  0  0  0  0  0  0  0  0  0  0
   -0.5957    0.7271    1.3681 H   0  0  0  0  0  0  0  0  0  0  0  0
   -0.9888   -0.8775   -1.2311 H   0  0  0  0  0  0  0  0  0  0  0  0
   -0.9112    0.8589   -1.1543 H   0  0  0  0  0  0  0  0  0  0  0  0
    1.1892   -2.3062    0.2956 H   0  0  0  0  0  0  0  0  0  0  0  0
    1.3282    1.9923    0.5210 H   0  0  0  0  0  0  0  0  0  0  0  0
   -2.9467   -2.1137   -0.3944 H   0  0  0  0  0  0  0  0  0  0  0  0
   -2.7508    2.1895   -0.2068 H   0  0  0  0  0  0  0  0  0  0  0  0
    3.6164   -2.3608   -0.1443 H   0  0  0  0  0  0  0  0  0  0  0  0
    3.7085    1.9611    0.0907 H   0  0  0  0  0  0  0  0  0  0  0  0
   -5.3808   -2.0134    0.0126 H   0  0  0  0  0  0  0  0  0  0  0  0
   -5.1856    2.2750    0.1999 H   0  0  0  0  0  0  0  0  0  0  0  0
   -6.5056    0.1774    0.3110 H   0  0  0  0  0  0  0  0  0  0  0  0
    5.5583    1.6206   -1.1873 H   0  0  0  0  0  0  0  0  0  0  0  0
    6.9635    0.7422   -0.5675 H   0  0  0  0  0  0  0  0  0  0  0  0
    5.8804    1.5172    0.5974 H   0  0  0  0  0  0  0  0  0  0  0  0
  1 12  1  0  0  0  0
  1 16  1  0  0  0  0
  2  3  1  0  0  0  0
  2  4  1  0  0  0  0
  2 17  1  0  0  0  0
  2 18  1  0  0  0  0
  3  5  1  0  0  0  0
  3 19  1  0  0  0  0
  3 20  1  0  0  0  0
  4  6  2  0  0  0  0
  4  7  1  0  0  0  0
  5  8  2  0  0  0  0
  5  9  1  0  0  0  0
  6 10  1  0  0  0  0
  6 21  1  0  0  0  0
  7 11  2  0  0  0  0
  7 22  1  0  0  0  0
  8 13  1  0  0  0  0
  8 23  1  0  0  0  0
  9 14  2  0  0  0  0
  9 24  1  0  0  0  0
 10 12  2  0  0  0  0
 10 25  1  0  0  0  0
 11 12  1  0  0  0  0
 11 26  1  0  0  0  0
 13 15  2  0  0  0  0
 13 27  1  0  0  0  0
 14 15  1  0  0  0  0
 14 28  1  0  0  0  0
 15 29  1  0  0  0  0
 16 30  1  0  0  0  0
 16 31  1  0  0  0  0
 16 32  1  0  0  0  0
M  END
> <PUBCHEM_COMPOUND_CID>
139728

> <PUBCHEM_CONFORMER_RMSD>
0.6

> <PUBCHEM_CONFORMER_DIVERSEORDER>
1
6
3
5
9
4
11
8
7
10
2

> <PUBCHEM_MMFF94_PARTIAL_CHARGES>
25
1 -0.36
10 -0.15
11 -0.15
12 0.08
13 -0.15
14 -0.15
15 -0.15
16 0.28
2 0.14
21 0.15
22 0.15
23 0.15
24 0.15
25 0.15
26 0.15
27 0.15
28 0.15
29 0.15
3 0.14
4 -0.14
5 -0.14
6 -0.15
7 -0.15
8 -0.15
9 -0.15

> <PUBCHEM_EFFECTIVE_ROTOR_COUNT>
4

> <PUBCHEM_PHARMACOPHORE_FEATURES>
3
1 1 acceptor
6 4 6 7 10 11 12 rings
6 5 8 9 13 14 15 rings

> <PUBCHEM_HEAVY_ATOM_COUNT>
16

> <PUBCHEM_ATOM_DEF_STEREO_COUNT>
0

> <PUBCHEM_ATOM_UDEF_STEREO_COUNT>
0

> <PUBCHEM_BOND_DEF_STEREO_COUNT>
0

> <PUBCHEM_BOND_UDEF_STEREO_COUNT>
0

> <PUBCHEM_ISOTOPIC_ATOM_COUNT>
0

> <PUBCHEM_COMPONENT_COUNT>
1

> <PUBCHEM_CACTVS_TAUTO_COUNT>
1

> <PUBCHEM_CONFORMER_ID>
000221D000000001

> <PUBCHEM_MMFF94_ENERGY>
49.8002

> <PUBCHEM_FEATURE_SELFOVERLAP>
15.223

> <PUBCHEM_SHAPE_FINGERPRINT>
11287383 113 18342455924370275642
12107183 9 17617659195159562129
12236239 1 18040714779364319688
12815109 37 7565345331539589228
13167823 11 18409732867726328503
13760787 19 18334298673373973079
13897977 58 18411136948665196029
14123238 8 18344146994522942159
14251718 22 18411417297690341191
14251764 18 18113898269720952851
14341114 176 18410568513711269183
15048467 5 18412262852297391173
15196674 1 18410857693527213838
15242433 33 18334858337455834359
15788980 27 16660366978116747821
17834072 33 18408604746951797500
17844677 252 18334288752062959345
18186145 218 18202010944762680643
200 152 18186519903768936027
20645477 70 18335700611045493318
21267235 1 18410005508271523579
2297311 6 18187076257143356749
23402539 116 17846503633797741636
23402655 69 18408042931017402826
23536379 177 18410574007069386424
23557571 272 18410290345712067037
23559900 14 18336554824269052225
2916195 48 17846219942824056788
300161 21 18272658964962371527
3004659 81 18339639049227938502
3545911 37 18409730664481698857
4047638 21 17561080311438357930
4214541 1 18408887356369677385
42788 4 18411136935342255804
4990 188 18260261958479680622
5104073 3 18411140263894574795
542803 24 18131632287589598277
77779 3 18410013247554606179

> <PUBCHEM_SHAPE_MULTIPOLES>
323.4
13.51
1.43
0.72
1.43
0.06
-0.02
-1.92
1.28
-0.14
-0.01
0.01
-0.01
-0.16

> <PUBCHEM_SHAPE_SELFOVERLAP>
682.354

> <PUBCHEM_SHAPE_VOLUME>
182.1

> <PUBCHEM_COORDINATE_TYPE>
2
5
10

$$$$

