62344
  -OEChem-07051213133D

 39 41  0     0  0  0  0  0  0999 V2000
    0.0010    0.8454    0.0306 N   0  0  0  0  0  0  0  0  0  0  0  0
   -4.8015    0.9526    0.0463 N   0  0  0  0  0  0  0  0  0  0  0  0
    4.8040    0.9388    0.0231 N   0  0  0  0  0  0  0  0  0  0  0  0
   -1.2168   -1.2285   -0.0423 C   0  0  0  0  0  0  0  0  0  0  0  0
    1.2126   -1.2319   -0.0481 C   0  0  0  0  0  0  0  0  0  0  0  0
   -1.1671    0.1748    0.0088 C   0  0  0  0  0  0  0  0  0  0  0  0
    1.1672    0.1715    0.0033 C   0  0  0  0  0  0  0  0  0  0  0  0
   -0.0031   -1.9229   -0.0706 C   0  0  0  0  0  0  0  0  0  0  0  0
   -3.6025    0.2105    0.0161 C   0  0  0  0  0  0  0  0  0  0  0  0
    3.6026    0.2005   -0.0014 C   0  0  0  0  0  0  0  0  0  0  0  0
   -2.3721    0.8720    0.0371 C   0  0  0  0  0  0  0  0  0  0  0  0
    2.3742    0.8653    0.0258 C   0  0  0  0  0  0  0  0  0  0  0  0
   -2.4531   -1.8972   -0.0637 C   0  0  0  0  0  0  0  0  0  0  0  0
    2.4470   -1.9041   -0.0755 C   0  0  0  0  0  0  0  0  0  0  0  0
   -3.6434   -1.1769   -0.0345 C   0  0  0  0  0  0  0  0  0  0  0  0
    3.6395   -1.1871   -0.0521 C   0  0  0  0  0  0  0  0  0  0  0  0
   -6.0835    0.2768    0.0249 C   0  0  0  0  0  0  0  0  0  0  0  0
   -4.7673    2.4001    0.1131 C   0  0  0  0  0  0  0  0  0  0  0  0
    5.9975    0.3788    0.6255 C   0  0  0  0  0  0  0  0  0  0  0  0
    4.8647    2.2616   -0.5663 C   0  0  0  0  0  0  0  0  0  0  0  0
   -0.0047   -3.0115   -0.1104 H   0  0  0  0  0  0  0  0  0  0  0  0
   -2.3112    1.9572    0.0763 H   0  0  0  0  0  0  0  0  0  0  0  0
    2.3357    1.9520    0.0786 H   0  0  0  0  0  0  0  0  0  0  0  0
   -2.4938   -2.9836   -0.1032 H   0  0  0  0  0  0  0  0  0  0  0  0
    2.4849   -2.9904   -0.1178 H   0  0  0  0  0  0  0  0  0  0  0  0
   -4.5698   -1.7416   -0.0525 H   0  0  0  0  0  0  0  0  0  0  0  0
    4.5741   -1.7390   -0.0864 H   0  0  0  0  0  0  0  0  0  0  0  0
   -6.2047   -0.3137   -0.8901 H   0  0  0  0  0  0  0  0  0  0  0  0
   -6.9167    0.9881    0.0481 H   0  0  0  0  0  0  0  0  0  0  0  0
   -6.2034   -0.3722    0.8995 H   0  0  0  0  0  0  0  0  0  0  0  0
   -4.2685    2.8257   -0.7649 H   0  0  0  0  0  0  0  0  0  0  0  0
   -4.2655    2.7432    1.0248 H   0  0  0  0  0  0  0  0  0  0  0  0
   -5.7759    2.8279    0.1343 H   0  0  0  0  0  0  0  0  0  0  0  0
    6.7227    1.1638    0.8683 H   0  0  0  0  0  0  0  0  0  0  0  0
    5.7686   -0.1389    1.5640 H   0  0  0  0  0  0  0  0  0  0  0  0
    6.4868   -0.3208   -0.0603 H   0  0  0  0  0  0  0  0  0  0  0  0
    4.3271    2.3012   -1.5205 H   0  0  0  0  0  0  0  0  0  0  0  0
    4.4443    3.0093    0.1143 H   0  0  0  0  0  0  0  0  0  0  0  0
    5.8999    2.5532   -0.7763 H   0  0  0  0  0  0  0  0  0  0  0  0
  1  6  2  0  0  0  0
  1  7  1  0  0  0  0
  2  9  1  0  0  0  0
  2 17  1  0  0  0  0
  2 18  1  0  0  0  0
  3 10  1  0  0  0  0
  3 19  1  0  0  0  0
  3 20  1  0  0  0  0
  4  6  1  0  0  0  0
  4  8  2  0  0  0  0
  4 13  1  0  0  0  0
  5  7  2  0  0  0  0
  5  8  1  0  0  0  0
  5 14  1  0  0  0  0
  6 11  1  0  0  0  0
  7 12  1  0  0  0  0
  8 21  1  0  0  0  0
  9 11  2  0  0  0  0
  9 15  1  0  0  0  0
 10 12  2  0  0  0  0
 10 16  1  0  0  0  0
 11 22  1  0  0  0  0
 12 23  1  0  0  0  0
 13 15  2  0  0  0  0
 13 24  1  0  0  0  0
 14 16  2  0  0  0  0
 14 25  1  0  0  0  0
 15 26  1  0  0  0  0
 16 27  1  0  0  0  0
 17 28  1  0  0  0  0
 17 29  1  0  0  0  0
 17 30  1  0  0  0  0
 18 31  1  0  0  0  0
 18 32  1  0  0  0  0
 18 33  1  0  0  0  0
 19 34  1  0  0  0  0
 19 35  1  0  0  0  0
 19 36  1  0  0  0  0
 20 37  1  0  0  0  0
 20 38  1  0  0  0  0
 20 39  1  0  0  0  0
M  END
> <PUBCHEM_COMPOUND_CID>
62344

> <PUBCHEM_CONFORMER_RMSD>
0.6

> <PUBCHEM_CONFORMER_DIVERSEORDER>
1
2

> <PUBCHEM_MMFF94_PARTIAL_CHARGES>
25
1 -0.62
10 0.1
11 -0.15
12 -0.15
13 -0.15
14 -0.15
15 -0.15
16 -0.15
17 0.37
18 0.37
19 0.37
2 -0.84
20 0.37
21 0.15
22 0.15
23 0.15
24 0.15
25 0.15
26 0.15
27 0.15
3 -0.84
6 0.31
7 0.31
8 -0.15
9 0.1

> <PUBCHEM_EFFECTIVE_ROTOR_COUNT>
2

> <PUBCHEM_PHARMACOPHORE_FEATURES>
6
1 1 acceptor
1 2 cation
1 3 cation
6 1 4 5 6 7 8 rings
6 4 6 9 11 13 15 rings
6 5 7 10 12 14 16 rings

> <PUBCHEM_HEAVY_ATOM_COUNT>
20

> <PUBCHEM_ATOM_DEF_STEREO_COUNT>
0

> <PUBCHEM_ATOM_UDEF_STEREO_COUNT>
0

> <PUBCHEM_BOND_DEF_STEREO_COUNT>
0

> <PUBCHEM_BOND_UDEF_STEREO_COUNT>
0

> <PUBCHEM_ISOTOPIC_ATOM_COUNT>
0

> <PUBCHEM_COMPONENT_COUNT>
1

> <PUBCHEM_CACTVS_TAUTO_COUNT>
1

> <PUBCHEM_CONFORMER_ID>
0000F38800000001

> <PUBCHEM_MMFF94_ENERGY>
91.0949

> <PUBCHEM_FEATURE_SELFOVERLAP>
30.507

> <PUBCHEM_SHAPE_FINGERPRINT>
10 15 18130782331042341305
10014705 185 18412263934940087285
10411042 1 17473825507488562887
11089746 13 17531256041096835944
12107183 9 17762056944659506489
12236239 1 18060140907959675112
12390115 104 18262782021755612041
12596602 18 17203609246562393921
12788726 201 17459184239127901337
13785724 45 17690847078741380858
14528608 73 18335138670076505660
14790565 3 18410851053544983332
15048467 5 18409449184767045689
15188451 53 15625646212750261523
15196674 1 18410292514496477823
15375358 24 18411134740398066490
15536298 74 18335136514377761590
1601671 61 18410293605834863420
200 152 17821451261775746151
20281389 69 18343586239308826336
20645477 56 18412546505233834569
20645477 70 18187362198385259534
21150785 3 15719400507634461053
21267235 1 18337664321142150046
21304253 335 18343294881559438812
21421861 104 17844822562656404154
21452121 103 18410577331453487130
23402539 116 18261399918374972710
23402655 69 18260551134000437079
23559900 14 18261956349222685830
245318 6 17055819357799529972
25147074 1 18337973232396529214
2838139 119 18333740108397603124
2916195 48 18042131977191754048
293599 30 18407759239679331378
296302 2 18408319990873475127
300161 21 18335708247016667409
3004659 81 18410853304877758846
335352 9 18410855469630830302
34797466 226 17458337511810409485
34934 24 18409171012641427542
350125 39 18337669703442527585
3545911 37 18408884040079820984
4073 2 18059850628653929794
4214541 1 18410292501600734097
4340502 62 17132113550010206003
474 4 17988920037870210796
495365 180 17240779362620947786
5104073 3 18342173396973941755
633830 44 18411984688698560366
77779 3 18410854364948697439
9709674 26 18409724049863434622

> <PUBCHEM_SHAPE_MULTIPOLES>
396.65
12.84
2.23
0.64
0.14
0.17
0
6.78
-0.66
0.11
0.16
-0.2
0.03
-0.32

> <PUBCHEM_SHAPE_SELFOVERLAP>
869.383

> <PUBCHEM_SHAPE_VOLUME>
216.3

> <PUBCHEM_COORDINATE_TYPE>
2
5
10

$$$$

