17395653
  -OEChem-06241222512D

 45 48  0     0  0  0  0  0  0999 V2000
    2.0000    2.2874    0.0000 F   0  0  0  0  0  0  0  0  0  0  0  0
    7.6279   -3.0427    0.0000 O   0  0  0  0  0  0  0  0  0  0  0  0
    5.5443    0.4827    0.0000 O   0  0  0  0  0  0  0  0  0  0  0  0
    7.6279    2.1535    0.0000 O   0  0  0  0  0  0  0  0  0  0  0  0
    8.6279   -1.3106    0.0000 N   0  0  0  0  0  0  0  0  0  0  0  0
    7.6279    0.4214    0.0000 N   0  0  0  0  0  0  0  0  0  0  0  0
    7.6279   -1.3106    0.0000 C   0  0  0  0  0  0  0  0  0  0  0  0
    9.1279   -2.1767    0.0000 C   0  0  0  0  0  0  0  0  0  0  0  0
    9.1279   -0.4446    0.0000 C   0  0  0  0  0  0  0  0  0  0  0  0
    7.1279   -2.1767    0.0000 C   0  0  0  0  0  0  0  0  0  0  0  0
    8.6279   -3.0427    0.0000 C   0  0  0  0  0  0  0  0  0  0  0  0
    8.6279    0.4214    0.0000 C   0  0  0  0  0  0  0  0  0  0  0  0
   10.1279   -0.4446    0.0000 C   0  0  0  0  0  0  0  0  0  0  0  0
    5.5443    2.0922    0.0000 C   0  0  0  0  0  0  0  0  0  0  0  0
    6.1279    1.2874    0.0000 C   0  0  0  0  0  0  0  0  0  0  0  0
    9.1279    1.2874    0.0000 C   0  0  0  0  0  0  0  0  0  0  0  0
    4.5981    1.7874    0.0000 C   0  0  0  0  0  0  0  0  0  0  0  0
    7.1279    1.2874    0.0000 C   0  0  0  0  0  0  0  0  0  0  0  0
    4.5981    0.7874    0.0000 C   0  0  0  0  0  0  0  0  0  0  0  0
   10.6279    0.4214    0.0000 C   0  0  0  0  0  0  0  0  0  0  0  0
   10.1279    1.2874    0.0000 C   0  0  0  0  0  0  0  0  0  0  0  0
    5.8550    3.0427    0.0000 C   0  0  0  0  0  0  0  0  0  0  0  0
    3.7320    2.2874    0.0000 C   0  0  0  0  0  0  0  0  0  0  0  0
    3.7320    0.2874    0.0000 C   0  0  0  0  0  0  0  0  0  0  0  0
    2.8660    1.7874    0.0000 C   0  0  0  0  0  0  0  0  0  0  0  0
    2.8660    0.7874    0.0000 C   0  0  0  0  0  0  0  0  0  0  0  0
    7.7356   -0.7001    0.0000 H   0  0  0  0  0  0  0  0  0  0  0  0
    7.0453   -1.0986    0.0000 H   0  0  0  0  0  0  0  0  0  0  0  0
    9.6028   -2.5752    0.0000 H   0  0  0  0  0  0  0  0  0  0  0  0
    9.6028   -1.7781    0.0000 H   0  0  0  0  0  0  0  0  0  0  0  0
    6.6530   -1.7781    0.0000 H   0  0  0  0  0  0  0  0  0  0  0  0
    6.6530   -2.5752    0.0000 H   0  0  0  0  0  0  0  0  0  0  0  0
    8.5202   -3.6533    0.0000 H   0  0  0  0  0  0  0  0  0  0  0  0
    9.2105   -3.2547    0.0000 H   0  0  0  0  0  0  0  0  0  0  0  0
   10.4379   -0.9815    0.0000 H   0  0  0  0  0  0  0  0  0  0  0  0
    7.3179   -0.1155    0.0000 H   0  0  0  0  0  0  0  0  0  0  0  0
    8.8179    1.8244    0.0000 H   0  0  0  0  0  0  0  0  0  0  0  0
   11.2479    0.4214    0.0000 H   0  0  0  0  0  0  0  0  0  0  0  0
   10.4379    1.8244    0.0000 H   0  0  0  0  0  0  0  0  0  0  0  0
    6.4443    2.8501    0.0000 H   0  0  0  0  0  0  0  0  0  0  0  0
    6.0476    3.6320    0.0000 H   0  0  0  0  0  0  0  0  0  0  0  0
    5.2656    3.2353    0.0000 H   0  0  0  0  0  0  0  0  0  0  0  0
    3.7320    2.9074    0.0000 H   0  0  0  0  0  0  0  0  0  0  0  0
    3.7320   -0.3326    0.0000 H   0  0  0  0  0  0  0  0  0  0  0  0
    2.3291    0.4774    0.0000 H   0  0  0  0  0  0  0  0  0  0  0  0
  1 25  1  0  0  0  0
  2 10  1  0  0  0  0
  2 11  1  0  0  0  0
  3 15  1  0  0  0  0
  3 19  1  0  0  0  0
  4 18  2  0  0  0  0
  5  7  1  0  0  0  0
  5  8  1  0  0  0  0
  5  9  1  0  0  0  0
  6 12  1  0  0  0  0
  6 18  1  0  0  0  0
  6 36  1  0  0  0  0
  7 10  1  0  0  0  0
  7 27  1  0  0  0  0
  7 28  1  0  0  0  0
  8 11  1  0  0  0  0
  8 29  1  0  0  0  0
  8 30  1  0  0  0  0
  9 12  1  0  0  0  0
  9 13  2  0  0  0  0
 10 31  1  0  0  0  0
 10 32  1  0  0  0  0
 11 33  1  0  0  0  0
 11 34  1  0  0  0  0
 12 16  2  0  0  0  0
 13 20  1  0  0  0  0
 13 35  1  0  0  0  0
 14 15  2  0  0  0  0
 14 17  1  0  0  0  0
 14 22  1  0  0  0  0
 15 18  1  0  0  0  0
 16 21  1  0  0  0  0
 16 37  1  0  0  0  0
 17 19  2  0  0  0  0
 17 23  1  0  0  0  0
 19 24  1  0  0  0  0
 20 21  2  0  0  0  0
 20 38  1  0  0  0  0
 21 39  1  0  0  0  0
 22 40  1  0  0  0  0
 22 41  1  0  0  0  0
 22 42  1  0  0  0  0
 23 25  2  0  0  0  0
 23 43  1  0  0  0  0
 24 26  2  0  0  0  0
 24 44  1  0  0  0  0
 25 26  1  0  0  0  0
 26 45  1  0  0  0  0
M  END
> <PUBCHEM_COMPOUND_CID>
17395653

> <PUBCHEM_COMPOUND_CANONICALIZED>
1

> <PUBCHEM_CACTVS_COMPLEXITY>
499

> <PUBCHEM_CACTVS_HBOND_ACCEPTOR>
5

> <PUBCHEM_CACTVS_HBOND_DONOR>
1

> <PUBCHEM_CACTVS_ROTATABLE_BOND>
3

> <PUBCHEM_CACTVS_SUBSKEYS>
AAADceB7MQAAAAAAAAAAAAAAAAAAASAAAAA8YIAAAAAAAEgB9AAAHwAQAAAADAzhmA4yxsPABECIAqVSUAKCCAAlIgAIiAHOfMgOZjLEtb+XOSjk1BHY6YeY3+LugAAAAAAIACAAAAAAABAAQAAAAAAAAA==

> <PUBCHEM_IUPAC_OPENEYE_NAME>
5-fluoro-3-methyl-N-(2-morpholinophenyl)benzofuran-2-carboxamide

> <PUBCHEM_IUPAC_CAS_NAME>
5-fluoro-3-methyl-N-[2-(4-morpholinyl)phenyl]-2-benzofurancarboxamide

> <PUBCHEM_IUPAC_NAME>
5-fluoro-3-methyl-N-(2-morpholin-4-ylphenyl)-1-benzofuran-2-carboxamide

> <PUBCHEM_IUPAC_SYSTEMATIC_NAME>
5-fluoranyl-3-methyl-N-(2-morpholin-4-ylphenyl)-1-benzofuran-2-carboxamide

> <PUBCHEM_IUPAC_TRADITIONAL_NAME>
5-fluoro-3-methyl-N-(2-morpholinophenyl)coumarilamide

> <PUBCHEM_IUPAC_INCHI>
InChI=1S/C20H19FN2O3/c1-13-15-12-14(21)6-7-18(15)26-19(13)20(24)22-16-4-2-3-5-17(16)23-8-10-25-11-9-23/h2-7,12H,8-11H2,1H3,(H,22,24)

> <PUBCHEM_IUPAC_INCHIKEY>
NGCSJFYCNITGMC-UHFFFAOYSA-N

> <PUBCHEM_XLOGP3_AA>
3.7

> <PUBCHEM_EXACT_MASS>
354.137971

> <PUBCHEM_MOLECULAR_FORMULA>
C20H19FN2O3

> <PUBCHEM_MOLECULAR_WEIGHT>
354.374863

> <PUBCHEM_OPENEYE_CAN_SMILES>
CC1=C(OC2=C1C=C(C=C2)F)C(=O)NC3=CC=CC=C3N4CCOCC4

> <PUBCHEM_OPENEYE_ISO_SMILES>
CC1=C(OC2=C1C=C(C=C2)F)C(=O)NC3=CC=CC=C3N4CCOCC4

> <PUBCHEM_CACTVS_TPSA>
54.7

> <PUBCHEM_MONOISOTOPIC_WEIGHT>
354.137971

> <PUBCHEM_TOTAL_CHARGE>
0

> <PUBCHEM_HEAVY_ATOM_COUNT>
26

> <PUBCHEM_ATOM_DEF_STEREO_COUNT>
0

> <PUBCHEM_ATOM_UDEF_STEREO_COUNT>
0

> <PUBCHEM_BOND_DEF_STEREO_COUNT>
0

> <PUBCHEM_BOND_UDEF_STEREO_COUNT>
0

> <PUBCHEM_ISOTOPIC_ATOM_COUNT>
0

> <PUBCHEM_COMPONENT_COUNT>
1

> <PUBCHEM_CACTVS_TAUTO_COUNT>
2

> <PUBCHEM_COORDINATE_TYPE>
1
5
255

> <PUBCHEM_BONDANNOTATIONS>
12  16  8
13  20  8
14  15  8
14  17  8
16  21  8
17  19  8
17  23  8
19  24  8
20  21  8
23  25  8
24  26  8
25  26  8
3  15  8
3  19  8
9  12  8
9  13  8

$$$$

