17395464
  -OEChem-06241222502D

 38 40  0     1  0  0  0  0  0999 V2000
   10.1667   -0.3776    0.0000 S   0  0  0  0  0  0  0  0  0  0  0  0
    2.0000    0.9884    0.0000 F   0  0  0  0  0  0  0  0  0  0  0  0
   11.1667   -0.3776    0.0000 O   0  0  0  0  0  0  0  0  0  0  0  0
   10.4758    0.5734    0.0000 O   0  0  0  0  0  0  0  0  0  0  0  0
    5.5443   -0.8163    0.0000 O   0  0  0  0  0  0  0  0  0  0  0  0
    7.6279    0.8544    0.0000 O   0  0  0  0  0  0  0  0  0  0  0  0
    7.6279   -0.8776    0.0000 N   0  0  0  0  0  0  0  0  0  0  0  0
    8.6279   -0.8776    0.0000 C   0  0  3  0  0  0  0  0  0  0  0  0
    9.2157   -0.0686    0.0000 C   0  0  0  0  0  0  0  0  0  0  0  0
    9.2157   -1.6866    0.0000 C   0  0  0  0  0  0  0  0  0  0  0  0
   10.1667   -1.3776    0.0000 C   0  0  0  0  0  0  0  0  0  0  0  0
    7.1279   -0.0116    0.0000 C   0  0  0  0  0  0  0  0  0  0  0  0
    7.1279   -1.7436    0.0000 C   0  0  0  0  0  0  0  0  0  0  0  0
    6.1279   -0.0116    0.0000 C   0  0  0  0  0  0  0  0  0  0  0  0
    5.5443    0.7931    0.0000 C   0  0  0  0  0  0  0  0  0  0  0  0
    4.5981    0.4884    0.0000 C   0  0  0  0  0  0  0  0  0  0  0  0
    4.5981   -0.5116    0.0000 C   0  0  0  0  0  0  0  0  0  0  0  0
    5.8550    1.7436    0.0000 C   0  0  0  0  0  0  0  0  0  0  0  0
    3.7320    0.9884    0.0000 C   0  0  0  0  0  0  0  0  0  0  0  0
    3.7320   -1.0116    0.0000 C   0  0  0  0  0  0  0  0  0  0  0  0
    2.8660    0.4884    0.0000 C   0  0  0  0  0  0  0  0  0  0  0  0
    2.8660   -0.5116    0.0000 C   0  0  0  0  0  0  0  0  0  0  0  0
    8.3464   -0.3252    0.0000 H   0  0  0  0  0  0  0  0  0  0  0  0
    9.4679    0.4978    0.0000 H   0  0  0  0  0  0  0  0  0  0  0  0
    8.6788    0.2414    0.0000 H   0  0  0  0  0  0  0  0  0  0  0  0
    8.6788   -1.9966    0.0000 H   0  0  0  0  0  0  0  0  0  0  0  0
    9.4679   -2.2530    0.0000 H   0  0  0  0  0  0  0  0  0  0  0  0
   10.2957   -1.9841    0.0000 H   0  0  0  0  0  0  0  0  0  0  0  0
   10.7834   -1.3128    0.0000 H   0  0  0  0  0  0  0  0  0  0  0  0
    6.5910   -1.4336    0.0000 H   0  0  0  0  0  0  0  0  0  0  0  0
    6.8179   -2.2806    0.0000 H   0  0  0  0  0  0  0  0  0  0  0  0
    7.6648   -2.0537    0.0000 H   0  0  0  0  0  0  0  0  0  0  0  0
    6.4443    1.5510    0.0000 H   0  0  0  0  0  0  0  0  0  0  0  0
    6.0476    2.3330    0.0000 H   0  0  0  0  0  0  0  0  0  0  0  0
    5.2656    1.9363    0.0000 H   0  0  0  0  0  0  0  0  0  0  0  0
    3.7320    1.6084    0.0000 H   0  0  0  0  0  0  0  0  0  0  0  0
    3.7320   -1.6316    0.0000 H   0  0  0  0  0  0  0  0  0  0  0  0
    2.3291   -0.8216    0.0000 H   0  0  0  0  0  0  0  0  0  0  0  0
  1  3  2  0  0  0  0
  1  4  2  0  0  0  0
  1  9  1  0  0  0  0
  1 11  1  0  0  0  0
  2 21  1  0  0  0  0
  5 14  1  0  0  0  0
  5 17  1  0  0  0  0
  6 12  2  0  0  0  0
  7  8  1  0  0  0  0
  7 12  1  0  0  0  0
  7 13  1  0  0  0  0
  8  9  1  0  0  0  0
  8 10  1  0  0  0  0
  8 23  1  0  0  0  0
  9 24  1  0  0  0  0
  9 25  1  0  0  0  0
 10 11  1  0  0  0  0
 10 26  1  0  0  0  0
 10 27  1  0  0  0  0
 11 28  1  0  0  0  0
 11 29  1  0  0  0  0
 12 14  1  0  0  0  0
 13 30  1  0  0  0  0
 13 31  1  0  0  0  0
 13 32  1  0  0  0  0
 14 15  2  0  0  0  0
 15 16  1  0  0  0  0
 15 18  1  0  0  0  0
 16 17  2  0  0  0  0
 16 19  1  0  0  0  0
 17 20  1  0  0  0  0
 18 33  1  0  0  0  0
 18 34  1  0  0  0  0
 18 35  1  0  0  0  0
 19 21  2  0  0  0  0
 19 36  1  0  0  0  0
 20 22  2  0  0  0  0
 20 37  1  0  0  0  0
 21 22  1  0  0  0  0
 22 38  1  0  0  0  0
M  END
> <PUBCHEM_COMPOUND_CID>
17395464

> <PUBCHEM_COMPOUND_CANONICALIZED>
1

> <PUBCHEM_CACTVS_COMPLEXITY>
546

> <PUBCHEM_CACTVS_HBOND_ACCEPTOR>
5

> <PUBCHEM_CACTVS_HBOND_DONOR>
0

> <PUBCHEM_CACTVS_ROTATABLE_BOND>
2

> <PUBCHEM_CACTVS_SUBSKEYS>
AAADceByOQBAAAAAAAAAAAAAAAAAASJAAAAwAAAAAAAAAEgB8AAAHwQAAAAADCzF2AyyBsMABEqIAqFSEHLCCAAkIBAIiAHODMgOJjKktT+HOSjkxhG4qYeY3+LugAAAAAAIAAAAAAAAABAAAAAAAAAAAA==

> <PUBCHEM_IUPAC_OPENEYE_NAME>
N-(1,1-dioxothiolan-3-yl)-5-fluoro-N,3-dimethyl-benzofuran-2-carboxamide

> <PUBCHEM_IUPAC_CAS_NAME>
N-(1,1-dioxo-3-thiolanyl)-5-fluoro-N,3-dimethyl-2-benzofurancarboxamide

> <PUBCHEM_IUPAC_NAME>
N-(1,1-dioxothiolan-3-yl)-5-fluoro-N,3-dimethyl-1-benzofuran-2-carboxamide

> <PUBCHEM_IUPAC_SYSTEMATIC_NAME>
N-[1,1-bis(oxidanylidene)thiolan-3-yl]-5-fluoranyl-N,3-dimethyl-1-benzofuran-2-carboxamide

> <PUBCHEM_IUPAC_TRADITIONAL_NAME>
N-(1,1-diketothiolan-3-yl)-5-fluoro-N,3-dimethyl-coumarilamide

> <PUBCHEM_IUPAC_INCHI>
InChI=1S/C15H16FNO4S/c1-9-12-7-10(16)3-4-13(12)21-14(9)15(18)17(2)11-5-6-22(19,20)8-11/h3-4,7,11H,5-6,8H2,1-2H3

> <PUBCHEM_IUPAC_INCHIKEY>
KDGWVUNKZUQQHJ-UHFFFAOYSA-N

> <PUBCHEM_XLOGP3_AA>
2.2

> <PUBCHEM_EXACT_MASS>
325.078407

> <PUBCHEM_MOLECULAR_FORMULA>
C15H16FNO4S

> <PUBCHEM_MOLECULAR_WEIGHT>
325.355243

> <PUBCHEM_OPENEYE_CAN_SMILES>
CC1=C(OC2=C1C=C(C=C2)F)C(=O)N(C)C3CCS(=O)(=O)C3

> <PUBCHEM_OPENEYE_ISO_SMILES>
CC1=C(OC2=C1C=C(C=C2)F)C(=O)N(C)C3CCS(=O)(=O)C3

> <PUBCHEM_CACTVS_TPSA>
76

> <PUBCHEM_MONOISOTOPIC_WEIGHT>
325.078407

> <PUBCHEM_TOTAL_CHARGE>
0

> <PUBCHEM_HEAVY_ATOM_COUNT>
22

> <PUBCHEM_ATOM_DEF_STEREO_COUNT>
0

> <PUBCHEM_ATOM_UDEF_STEREO_COUNT>
1

> <PUBCHEM_BOND_DEF_STEREO_COUNT>
0

> <PUBCHEM_BOND_UDEF_STEREO_COUNT>
0

> <PUBCHEM_ISOTOPIC_ATOM_COUNT>
0

> <PUBCHEM_COMPONENT_COUNT>
1

> <PUBCHEM_CACTVS_TAUTO_COUNT>
1

> <PUBCHEM_COORDINATE_TYPE>
1
5
255

> <PUBCHEM_BONDANNOTATIONS>
14  15  8
15  16  8
16  17  8
16  19  8
17  20  8
19  21  8
20  22  8
21  22  8
5  14  8
5  17  8
8  7  3

$$$$

