586273
  -OEChem-06241222462D

 53 56  0     1  0  0  0  0  0999 V2000
    7.2544   -1.3284    0.0000 O   0  0  0  0  0  0  0  0  0  0  0  0
    9.0270    0.6192    0.0000 O   0  0  0  0  0  0  0  0  0  0  0  0
    2.0000   -1.3556    0.0000 O   0  0  0  0  0  0  0  0  0  0  0  0
    8.9759   -1.3611    0.0000 O   0  0  0  0  0  0  0  0  0  0  0  0
    5.5301    0.6686    0.0000 C   0  0  3  0  0  0  0  0  0  0  0  0
    6.3961    0.1686    0.0000 C   0  0  3  0  0  0  0  0  0  0  0  0
    4.6641    0.1686    0.0000 C   0  0  3  0  0  0  0  0  0  0  0  0
    4.6641   -0.8314    0.0000 C   0  0  3  0  0  0  0  0  0  0  0  0
    6.3961   -0.8314    0.0000 C   0  0  3  0  0  0  0  0  0  0  0  0
    5.5301   -1.3314    0.0000 C   0  0  0  0  0  0  0  0  0  0  0  0
    3.7702   -1.3661    0.0000 C   0  0  0  0  0  0  0  0  0  0  0  0
    5.5141    1.7101    0.0000 C   0  0  0  0  0  0  0  0  0  0  0  0
    7.3062    0.6754    0.0000 C   0  0  0  0  0  0  0  0  0  0  0  0
    6.3961    1.1686    0.0000 C   0  0  0  0  0  0  0  0  0  0  0  0
    4.6641    1.1686    0.0000 C   0  0  0  0  0  0  0  0  0  0  0  0
    3.7702    0.7032    0.0000 C   0  0  0  0  0  0  0  0  0  0  0  0
    6.4121    2.2378    0.0000 C   0  0  0  0  0  0  0  0  0  0  0  0
    7.3142    1.7170    0.0000 C   0  0  0  0  0  0  0  0  0  0  0  0
    8.1455    0.1472    0.0000 C   0  0  3  0  0  0  0  0  0  0  0  0
    2.8641   -0.8522    0.0000 C   0  0  0  0  0  0  0  0  0  0  0  0
    3.2802   -2.2378    0.0000 C   0  0  0  0  0  0  0  0  0  0  0  0
    4.2801   -2.2263    0.0000 C   0  0  0  0  0  0  0  0  0  0  0  0
    2.8641    0.1894    0.0000 C   0  0  0  0  0  0  0  0  0  0  0  0
    8.1198   -0.8442    0.0000 C   0  0  0  0  0  0  0  0  0  0  0  0
    8.1821    2.2137    0.0000 C   0  0  0  0  0  0  0  0  0  0  0  0
    6.0647    0.9827    0.0000 H   0  0  0  0  0  0  0  0  0  0  0  0
    4.6689   -1.4514    0.0000 H   0  0  0  0  0  0  0  0  0  0  0  0
    6.3958   -1.4514    0.0000 H   0  0  0  0  0  0  0  0  0  0  0  0
    5.1316   -1.8064    0.0000 H   0  0  0  0  0  0  0  0  0  0  0  0
    5.9286   -1.8064    0.0000 H   0  0  0  0  0  0  0  0  0  0  0  0
    5.2960    2.2905    0.0000 H   0  0  0  0  0  0  0  0  0  0  0  0
    4.9049    1.5946    0.0000 H   0  0  0  0  0  0  0  0  0  0  0  0
    7.0162    1.1686    0.0000 H   0  0  0  0  0  0  0  0  0  0  0  0
    6.3961    1.7886    0.0000 H   0  0  0  0  0  0  0  0  0  0  0  0
    5.7762    1.1686    0.0000 H   0  0  0  0  0  0  0  0  0  0  0  0
    5.2841    1.1686    0.0000 H   0  0  0  0  0  0  0  0  0  0  0  0
    4.6641    1.7886    0.0000 H   0  0  0  0  0  0  0  0  0  0  0  0
    4.0441    1.1686    0.0000 H   0  0  0  0  0  0  0  0  0  0  0  0
    3.7773    1.3232    0.0000 H   0  0  0  0  0  0  0  0  0  0  0  0
    6.8094    2.7138    0.0000 H   0  0  0  0  0  0  0  0  0  0  0  0
    6.0111    2.7107    0.0000 H   0  0  0  0  0  0  0  0  0  0  0  0
    8.1672    0.7668    0.0000 H   0  0  0  0  0  0  0  0  0  0  0  0
    3.7468   -2.5425    0.0000 H   0  0  0  0  0  0  0  0  0  0  0  0
    4.5963   -2.7596    0.0000 H   0  0  0  0  0  0  0  0  0  0  0  0
    4.8134   -1.9101    0.0000 H   0  0  0  0  0  0  0  0  0  0  0  0
    2.7397   -1.9341    0.0000 H   0  0  0  0  0  0  0  0  0  0  0  0
    2.9764   -2.7783    0.0000 H   0  0  0  0  0  0  0  0  0  0  0  0
    3.8207   -2.5416    0.0000 H   0  0  0  0  0  0  0  0  0  0  0  0
    2.3284    0.5015    0.0000 H   0  0  0  0  0  0  0  0  0  0  0  0
    8.4901    1.6756    0.0000 H   0  0  0  0  0  0  0  0  0  0  0  0
    8.7203    2.5216    0.0000 H   0  0  0  0  0  0  0  0  0  0  0  0
    7.8742    2.7518    0.0000 H   0  0  0  0  0  0  0  0  0  0  0  0
    9.5538    0.2922    0.0000 H   0  0  0  0  0  0  0  0  0  0  0  0
  1  9  1  0  0  0  0
  1 24  1  0  0  0  0
  2 19  1  0  0  0  0
  2 53  1  0  0  0  0
  3 20  2  0  0  0  0
  4 24  2  0  0  0  0
  5  6  1  0  0  0  0
  5  7  1  0  0  0  0
  5 12  1  0  0  0  0
  5 26  1  0  0  0  0
  6  9  1  0  0  0  0
  6 13  1  0  0  0  0
  6 14  1  0  0  0  0
  7  8  1  0  0  0  0
  7 15  1  0  0  0  0
  7 16  1  0  0  0  0
  8 10  1  0  0  0  0
  8 11  1  0  0  0  0
  8 27  1  0  0  0  0
  9 10  1  0  0  0  0
  9 28  1  0  0  0  0
 10 29  1  0  0  0  0
 10 30  1  0  0  0  0
 11 20  1  0  0  0  0
 11 21  1  0  0  0  0
 11 22  1  0  0  0  0
 12 17  1  0  0  0  0
 12 31  1  0  0  0  0
 12 32  1  0  0  0  0
 13 18  2  0  0  0  0
 13 19  1  0  0  0  0
 14 33  1  0  0  0  0
 14 34  1  0  0  0  0
 14 35  1  0  0  0  0
 15 36  1  0  0  0  0
 15 37  1  0  0  0  0
 15 38  1  0  0  0  0
 16 23  2  0  0  0  0
 16 39  1  0  0  0  0
 17 18  1  0  0  0  0
 17 40  1  0  0  0  0
 17 41  1  0  0  0  0
 18 25  1  0  0  0  0
 19 24  1  0  0  0  0
 19 42  1  0  0  0  0
 20 23  1  0  0  0  0
 21 46  1  0  0  0  0
 21 47  1  0  0  0  0
 21 48  1  0  0  0  0
 22 43  1  0  0  0  0
 22 44  1  0  0  0  0
 22 45  1  0  0  0  0
 23 49  1  0  0  0  0
 25 50  1  0  0  0  0
 25 51  1  0  0  0  0
 25 52  1  0  0  0  0
M  END
> <PUBCHEM_COMPOUND_CID>
586273

> <PUBCHEM_COMPOUND_CANONICALIZED>
1

> <PUBCHEM_CACTVS_COMPLEXITY>
730

> <PUBCHEM_CACTVS_HBOND_ACCEPTOR>
4

> <PUBCHEM_CACTVS_HBOND_DONOR>
1

> <PUBCHEM_CACTVS_ROTATABLE_BOND>
0

> <PUBCHEM_CACTVS_SUBSKEYS>
AAADceB4OAAAAAAAAAAAAAAAAAAAAAAAAAA0QIEAAAAAAACQAAAAGgAACAAADxSggAICCAAABgCIAqDSCAIAAAAgAAAICAFAAEgBFBIAAAACUAAEwAALEYPIzPDPgAAAAAAAAADAAAYAADAAAAAAAAAAAA==

> <PUBCHEM_IUPAC_INCHI>
InChI=1S/C21H28O4/c1-11-6-7-12-20(4)9-8-14(22)19(2,3)13(20)10-15-21(12,5)16(11)17(23)18(24)25-15/h8-9,12-13,15,17,23H,6-7,10H2,1-5H3

> <PUBCHEM_IUPAC_INCHIKEY>
XQOSNJUURCKQGN-UHFFFAOYSA-N

> <PUBCHEM_XLOGP3_AA>
3

> <PUBCHEM_EXACT_MASS>
344.198759

> <PUBCHEM_MOLECULAR_FORMULA>
C21H28O4

> <PUBCHEM_MOLECULAR_WEIGHT>
344.44462

> <PUBCHEM_OPENEYE_CAN_SMILES>
CC1=C2C(C(=O)OC3C2(C(CC1)C4(C=CC(=O)C(C4C3)(C)C)C)C)O

> <PUBCHEM_OPENEYE_ISO_SMILES>
CC1=C2C(C(=O)OC3C2(C(CC1)C4(C=CC(=O)C(C4C3)(C)C)C)C)O

> <PUBCHEM_CACTVS_TPSA>
63.6

> <PUBCHEM_MONOISOTOPIC_WEIGHT>
344.198759

> <PUBCHEM_TOTAL_CHARGE>
0

> <PUBCHEM_HEAVY_ATOM_COUNT>
25

> <PUBCHEM_ATOM_DEF_STEREO_COUNT>
0

> <PUBCHEM_ATOM_UDEF_STEREO_COUNT>
6

> <PUBCHEM_BOND_DEF_STEREO_COUNT>
0

> <PUBCHEM_BOND_UDEF_STEREO_COUNT>
0

> <PUBCHEM_ISOTOPIC_ATOM_COUNT>
0

> <PUBCHEM_COMPONENT_COUNT>
1

> <PUBCHEM_CACTVS_TAUTO_COUNT>
11

> <PUBCHEM_COORDINATE_TYPE>
1
5
255

> <PUBCHEM_BONDANNOTATIONS>
19  2  3
5  12  3
6  14  3
7  15  3
8  10  3
9  10  3

$$$$

