7422
  -OEChem-06261202053D

 17 17  0     0  0  0  0  0  0999 V2000
    2.8679    0.5972    0.0000 O   0  5  0  0  0  0  0  0  0  0  0  0
    2.2769   -1.5170    0.0002 O   0  0  0  0  0  0  0  0  0  0  0  0
    1.9868   -0.2963   -0.0001 N   0  3  0  0  0  0  0  0  0  0  0  0
   -1.7212   -0.5133    0.0000 C   0  0  0  0  0  0  0  0  0  0  0  0
   -0.3779   -0.8893   -0.0001 C   0  0  0  0  0  0  0  0  0  0  0  0
    0.6193    0.0860   -0.0001 C   0  0  0  0  0  0  0  0  0  0  0  0
   -2.0673    0.8379    0.0000 C   0  0  0  0  0  0  0  0  0  0  0  0
    0.2733    1.4373    0.0000 C   0  0  0  0  0  0  0  0  0  0  0  0
   -1.0700    1.8132    0.0001 C   0  0  0  0  0  0  0  0  0  0  0  0
   -2.7878   -1.5557    0.0000 C   0  0  0  0  0  0  0  0  0  0  0  0
   -0.1335   -1.9492    0.0018 H   0  0  0  0  0  0  0  0  0  0  0  0
   -3.1099    1.1443    0.0020 H   0  0  0  0  0  0  0  0  0  0  0  0
    1.0229    2.2245    0.0002 H   0  0  0  0  0  0  0  0  0  0  0  0
   -1.3398    2.8653    0.0007 H   0  0  0  0  0  0  0  0  0  0  0  0
   -2.4951   -2.4152   -0.6127 H   0  0  0  0  0  0  0  0  0  0  0  0
   -2.9778   -1.8986    1.0219 H   0  0  0  0  0  0  0  0  0  0  0  0
   -3.7240   -1.1692   -0.4170 H   0  0  0  0  0  0  0  0  0  0  0  0
  1  3  1  0  0  0  0
  2  3  2  0  0  0  0
  3  6  1  0  0  0  0
  4  5  2  0  0  0  0
  4  7  1  0  0  0  0
  4 10  1  0  0  0  0
  5  6  1  0  0  0  0
  5 11  1  0  0  0  0
  6  8  2  0  0  0  0
  7  9  2  0  0  0  0
  7 12  1  0  0  0  0
  8  9  1  0  0  0  0
  8 13  1  0  0  0  0
  9 14  1  0  0  0  0
 10 15  1  0  0  0  0
 10 16  1  0  0  0  0
 10 17  1  0  0  0  0
M  CHG  2   1  -1   3   1
M  END
> <PUBCHEM_COMPOUND_CID>
7422

> <PUBCHEM_CONFORMER_RMSD>
0.4

> <PUBCHEM_CONFORMER_DIVERSEORDER>
1

> <PUBCHEM_MMFF94_PARTIAL_CHARGES>
14
1 -0.52
10 0.14
11 0.15
12 0.15
13 0.15
14 0.15
2 -0.52
3 0.91
4 -0.14
5 -0.15
6 0.13
7 -0.15
8 -0.15
9 -0.15

> <PUBCHEM_EFFECTIVE_ROTOR_COUNT>
1

> <PUBCHEM_PHARMACOPHORE_FEATURES>
4
1 1 acceptor
1 1 anion
1 2 acceptor
6 4 5 6 7 8 9 rings

> <PUBCHEM_HEAVY_ATOM_COUNT>
10

> <PUBCHEM_ATOM_DEF_STEREO_COUNT>
0

> <PUBCHEM_ATOM_UDEF_STEREO_COUNT>
0

> <PUBCHEM_BOND_DEF_STEREO_COUNT>
0

> <PUBCHEM_BOND_UDEF_STEREO_COUNT>
0

> <PUBCHEM_ISOTOPIC_ATOM_COUNT>
0

> <PUBCHEM_COMPONENT_COUNT>
1

> <PUBCHEM_CACTVS_TAUTO_COUNT>
1

> <PUBCHEM_CONFORMER_ID>
00001CFE00000001

> <PUBCHEM_MMFF94_ENERGY>
28.0054

> <PUBCHEM_FEATURE_SELFOVERLAP>
20.379

> <PUBCHEM_SHAPE_FINGERPRINT>
10857977 72 18336840692474859400
12897270 3 18410573981104416812
14128692 85 18265609892695137709
16945 1 18338797793160348261
193761 8 14663861012685266148
19973954 147 18337670918506939028
20871998 184 18187364337463251367
20871998 22 18263629706729653343
21040471 1 17978229683750055909
23552423 10 18272929461870954182
241688 4 18412266116730992793
2748010 2 18409731789341000991
29004967 10 18339078190036873346
369184 2 18339081591656272385

> <PUBCHEM_SHAPE_MULTIPOLES>
189.08
3.74
1.84
0.59
1.05
0.25
0
-1.35
0
-0.49
0
-0.07
0.02
0

> <PUBCHEM_SHAPE_SELFOVERLAP>
393.342

> <PUBCHEM_SHAPE_VOLUME>
109

> <PUBCHEM_COORDINATE_TYPE>
2
5
10

$$$$

