5281439
  -OEChem-07051212572D

 52 53  0     1  0  0  0  0  0999 V2000
    8.4701    1.1671    0.0000 O   0  0  0  0  0  0  0  0  0  0  0  0
    5.1350    1.0000    0.0000 O   0  0  0  0  0  0  0  0  0  0  0  0
    9.4651   -2.5000    0.0000 O   0  0  0  0  0  0  0  0  0  0  0  0
    8.5650    2.9409    0.0000 O   0  0  0  0  0  0  0  0  0  0  0  0
    4.2690   -0.5000    0.0000 O   0  0  0  0  0  0  0  0  0  0  0  0
    2.5369    2.5000    0.0000 O   0  0  0  0  0  0  0  0  0  0  0  0
    6.8671    1.0000    0.0000 C   0  0  2  0  0  0  0  0  0  0  0  0
    6.0010    0.5000    0.0000 C   0  0  1  0  0  0  0  0  0  0  0  0
    7.7331    0.5000    0.0000 C   0  0  1  0  0  0  0  0  0  0  0  0
    6.0010   -0.5000    0.0000 C   0  0  0  0  0  0  0  0  0  0  0  0
    7.0763    1.9718    0.0000 C   0  0  0  0  0  0  0  0  0  0  0  0
    7.7331   -0.5000    0.0000 C   0  0  0  0  0  0  0  0  0  0  0  0
    6.8671   -1.0000    0.0000 C   0  0  0  0  0  0  0  0  0  0  0  0
    8.0650    2.0749    0.0000 C   0  0  0  0  0  0  0  0  0  0  0  0
    8.5991   -1.0000    0.0000 C   0  0  0  0  0  0  0  0  0  0  0  0
    8.5991   -2.0000    0.0000 C   0  0  1  0  0  0  0  0  0  0  0  0
    7.7331   -2.5000    0.0000 C   0  0  0  0  0  0  0  0  0  0  0  0
    6.8671   -2.0000    0.0000 C   0  0  0  0  0  0  0  0  0  0  0  0
    6.4084    2.7161    0.0000 C   0  0  0  0  0  0  0  0  0  0  0  0
    8.0544   -0.0037    0.0000 C   0  0  0  0  0  0  0  0  0  0  0  0
    9.4651   -0.5000    0.0000 C   0  0  0  0  0  0  0  0  0  0  0  0
    4.2690    0.5000    0.0000 C   0  0  0  0  0  0  0  0  0  0  0  0
    3.4030    1.0000    0.0000 C   0  0  0  0  0  0  0  0  0  0  0  0
    3.4030    2.0000    0.0000 C   0  0  0  0  0  0  0  0  0  0  0  0
    2.5369    0.5000    0.0000 C   0  0  0  0  0  0  0  0  0  0  0  0
    2.5369   -0.5000    0.0000 C   0  0  0  0  0  0  0  0  0  0  0  0
    6.1800    1.5005    0.0000 H   0  0  0  0  0  0  0  0  0  0  0  0
    5.4641    0.1900    0.0000 H   0  0  0  0  0  0  0  0  0  0  0  0
    8.5100    0.1553    0.0000 H   0  0  0  0  0  0  0  0  0  0  0  0
    5.3905   -0.3923    0.0000 H   0  0  0  0  0  0  0  0  0  0  0  0
    5.7890   -1.0826    0.0000 H   0  0  0  0  0  0  0  0  0  0  0  0
    7.5210   -1.0826    0.0000 H   0  0  0  0  0  0  0  0  0  0  0  0
    8.5991   -2.6200    0.0000 H   0  0  0  0  0  0  0  0  0  0  0  0
    7.3346   -2.9750    0.0000 H   0  0  0  0  0  0  0  0  0  0  0  0
    8.1316   -2.9750    0.0000 H   0  0  0  0  0  0  0  0  0  0  0  0
    6.3301   -2.3100    0.0000 H   0  0  0  0  0  0  0  0  0  0  0  0
    6.6010    3.3054    0.0000 H   0  0  0  0  0  0  0  0  0  0  0  0
    5.8018    2.5883    0.0000 H   0  0  0  0  0  0  0  0  0  0  0  0
    8.4530   -0.4786    0.0000 H   0  0  0  0  0  0  0  0  0  0  0  0
    8.5294    0.3948    0.0000 H   0  0  0  0  0  0  0  0  0  0  0  0
    7.6559    0.4713    0.0000 H   0  0  0  0  0  0  0  0  0  0  0  0
    9.7751   -1.0369    0.0000 H   0  0  0  0  0  0  0  0  0  0  0  0
   10.0021   -0.1900    0.0000 H   0  0  0  0  0  0  0  0  0  0  0  0
    9.1551    0.0369    0.0000 H   0  0  0  0  0  0  0  0  0  0  0  0
    9.4651   -3.1200    0.0000 H   0  0  0  0  0  0  0  0  0  0  0  0
    4.0135    1.8923    0.0000 H   0  0  0  0  0  0  0  0  0  0  0  0
    3.6150    2.5826    0.0000 H   0  0  0  0  0  0  0  0  0  0  0  0
    2.0000    0.8100    0.0000 H   0  0  0  0  0  0  0  0  0  0  0  0
    1.9169   -0.5000    0.0000 H   0  0  0  0  0  0  0  0  0  0  0  0
    2.5369   -1.1200    0.0000 H   0  0  0  0  0  0  0  0  0  0  0  0
    3.1569   -0.5000    0.0000 H   0  0  0  0  0  0  0  0  0  0  0  0
    2.5369    3.1200    0.0000 H   0  0  0  0  0  0  0  0  0  0  0  0
  1  9  1  0  0  0  0
  1 14  1  0  0  0  0
  8  2  1  1  0  0  0
  2 22  1  0  0  0  0
 16  3  1  6  0  0  0
  3 45  1  0  0  0  0
  4 14  2  0  0  0  0
  5 22  2  0  0  0  0
  6 24  1  0  0  0  0
  6 52  1  0  0  0  0
  7  8  1  0  0  0  0
  7  9  1  0  0  0  0
  7 11  1  0  0  0  0
  7 27  1  6  0  0  0
  8 10  1  0  0  0  0
  8 28  1  0  0  0  0
  9 12  1  0  0  0  0
  9 29  1  1  0  0  0
 10 13  1  0  0  0  0
 10 30  1  0  0  0  0
 10 31  1  0  0  0  0
 11 14  1  0  0  0  0
 11 19  2  0  0  0  0
 12 15  2  0  0  0  0
 12 32  1  0  0  0  0
 13 18  2  0  0  0  0
 13 20  1  0  0  0  0
 15 16  1  0  0  0  0
 15 21  1  0  0  0  0
 16 17  1  0  0  0  0
 16 33  1  0  0  0  0
 17 18  1  0  0  0  0
 17 34  1  0  0  0  0
 17 35  1  0  0  0  0
 18 36  1  0  0  0  0
 19 37  1  0  0  0  0
 19 38  1  0  0  0  0
 20 39  1  0  0  0  0
 20 40  1  0  0  0  0
 20 41  1  0  0  0  0
 21 42  1  0  0  0  0
 21 43  1  0  0  0  0
 21 44  1  0  0  0  0
 22 23  1  0  0  0  0
 23 24  1  0  0  0  0
 23 25  2  0  0  0  0
 24 46  1  0  0  0  0
 24 47  1  0  0  0  0
 25 26  1  0  0  0  0
 25 48  1  0  0  0  0
 26 49  1  0  0  0  0
 26 50  1  0  0  0  0
 26 51  1  0  0  0  0
M  END
> <PUBCHEM_COMPOUND_CID>
5281439

> <PUBCHEM_COMPOUND_CANONICALIZED>
1

> <PUBCHEM_CACTVS_COMPLEXITY>
684

> <PUBCHEM_CACTVS_HBOND_ACCEPTOR>
6

> <PUBCHEM_CACTVS_HBOND_DONOR>
2

> <PUBCHEM_CACTVS_ROTATABLE_BOND>
4

> <PUBCHEM_CACTVS_SUBSKEYS>
AAADceB4OAAAAAAAAAAAAAAAAAAAASAAAAAAAAAAAAAAAACAAAAAGgAACAAADRSggAICCAAABgCIAiDSCAAAAAAgAAAACAEAAEgAFBYAIQACUAAF4AAIMYPKyCCOAAAAAAAAAAAAAAAAAAAAAAAAAAAAAA==

> <PUBCHEM_IUPAC_OPENEYE_NAME>
[(3aR,4R,6E,9R,10E,11aR)-9-hydroxy-6,10-dimethyl-3-methylene-2-oxo-3a,4,5,8,9,11a-hexahydrocyclodeca[b]furan-4-yl] (Z)-2-(hydroxymethyl)but-2-enoate

> <PUBCHEM_IUPAC_CAS_NAME>
(Z)-2-(hydroxymethyl)-2-butenoic acid [(3aR,4R,6E,9R,10E,11aR)-9-hydroxy-6,10-dimethyl-3-methylene-2-oxo-3a,4,5,8,9,11a-hexahydrocyclodeca[b]furan-4-yl] ester

> <PUBCHEM_IUPAC_NAME>
[(3aR,4R,6E,9R,10E,11aR)-9-hydroxy-6,10-dimethyl-3-methylidene-2-oxo-3a,4,5,8,9,11a-hexahydrocyclodeca[b]furan-4-yl] (Z)-2-(hydroxymethyl)but-2-enoate

> <PUBCHEM_IUPAC_SYSTEMATIC_NAME>
[(3aR,4R,6E,9R,10E,11aR)-6,10-dimethyl-3-methylidene-9-oxidanyl-2-oxidanylidene-3a,4,5,8,9,11a-hexahydrocyclodeca[b]furan-4-yl] (Z)-2-(hydroxymethyl)but-2-enoate

> <PUBCHEM_IUPAC_TRADITIONAL_NAME>
(Z)-2-methylolbut-2-enoic acid [(3aR,4R,6E,9R,10E,11aR)-9-hydroxy-2-keto-6,10-dimethyl-3-methylene-3a,4,5,8,9,11a-hexahydrocyclodeca[b]furan-4-yl] ester

> <PUBCHEM_IUPAC_INCHI>
InChI=1S/C20H26O6/c1-5-14(10-21)20(24)26-16-8-11(2)6-7-15(22)12(3)9-17-18(16)13(4)19(23)25-17/h5-6,9,15-18,21-22H,4,7-8,10H2,1-3H3/b11-6+,12-9+,14-5-/t15-,16-,17-,18-/m1/s1

> <PUBCHEM_IUPAC_INCHIKEY>
WQBVXCQSQYBGGT-OPDDCXCPSA-N

> <PUBCHEM_XLOGP3_AA>
1.3

> <PUBCHEM_EXACT_MASS>
362.172939

> <PUBCHEM_MOLECULAR_FORMULA>
C20H26O6

> <PUBCHEM_MOLECULAR_WEIGHT>
362.41684

> <PUBCHEM_OPENEYE_CAN_SMILES>
CC=C(CO)C(=O)OC1CC(=CCC(C(=CC2C1C(=C)C(=O)O2)C)O)C

> <PUBCHEM_OPENEYE_ISO_SMILES>
C/C=C(/CO)\C(=O)O[C@@H]1C/C(=C/C[C@H](/C(=C/[C@@H]2[C@@H]1C(=C)C(=O)O2)/C)O)/C

> <PUBCHEM_CACTVS_TPSA>
93.1

> <PUBCHEM_MONOISOTOPIC_WEIGHT>
362.172939

> <PUBCHEM_TOTAL_CHARGE>
0

> <PUBCHEM_HEAVY_ATOM_COUNT>
26

> <PUBCHEM_ATOM_DEF_STEREO_COUNT>
4

> <PUBCHEM_ATOM_UDEF_STEREO_COUNT>
0

> <PUBCHEM_BOND_DEF_STEREO_COUNT>
3

> <PUBCHEM_BOND_UDEF_STEREO_COUNT>
0

> <PUBCHEM_ISOTOPIC_ATOM_COUNT>
0

> <PUBCHEM_COMPONENT_COUNT>
1

> <PUBCHEM_CACTVS_TAUTO_COUNT>
1

> <PUBCHEM_COORDINATE_TYPE>
1
5
255

> <PUBCHEM_BONDANNOTATIONS>
8  2  5
16  3  6
7  27  6
9  29  5

$$$$

