442376
  -OEChem-07051212582D

 39 42  0     1  0  0  0  0  0999 V2000
    5.2270   -1.9766    0.0000 O   0  0  0  0  0  0  0  0  0  0  0  0
    2.6718   -2.9888    0.0000 O   0  0  0  0  0  0  0  0  0  0  0  0
    6.1456    2.5371    0.0000 O   0  0  0  0  0  0  0  0  0  0  0  0
    4.7444    3.5552    0.0000 O   0  0  0  0  0  0  0  0  0  0  0  0
    4.5633   -1.2360    0.0000 C   0  0  1  0  0  0  0  0  0  0  0  0
    3.7543   -0.6482    0.0000 C   0  0  2  0  0  0  0  0  0  0  0  0
    4.0633    0.3028    0.0000 C   0  0  1  0  0  0  0  0  0  0  0  0
    4.2537   -2.1806    0.0000 C   0  0  1  0  0  0  0  0  0  0  0  0
    5.0633    0.3028    0.0000 C   0  0  1  0  0  0  0  0  0  0  0  0
    5.3723   -0.6482    0.0000 C   0  0  0  0  0  0  0  0  0  0  0  0
    3.2596   -2.1798    0.0000 C   0  0  1  0  0  0  0  0  0  0  0  0
    2.9516   -1.2346    0.0000 C   0  0  0  0  0  0  0  0  0  0  0  0
    3.7586    1.2490    0.0000 C   0  0  0  0  0  0  0  0  0  0  0  0
    5.3680    1.2490    0.0000 C   0  0  0  0  0  0  0  0  0  0  0  0
    4.5633    1.8326    0.0000 C   0  0  1  0  0  0  0  0  0  0  0  0
    2.9453   -0.0605    0.0000 C   0  0  0  0  0  0  0  0  0  0  0  0
    3.9755    2.6417    0.0000 C   0  0  0  0  0  0  0  0  0  0  0  0
    2.0000   -0.9273    0.0000 C   0  0  0  0  0  0  0  0  0  0  0  0
    5.1511    2.6417    0.0000 C   0  0  0  0  0  0  0  0  0  0  0  0
    3.2133    0.3039    0.0000 H   0  0  0  0  0  0  0  0  0  0  0  0
    4.3410   -3.0262    0.0000 H   0  0  0  0  0  0  0  0  0  0  0  0
    5.9133    0.3039    0.0000 H   0  0  0  0  0  0  0  0  0  0  0  0
    5.6823   -1.1852    0.0000 H   0  0  0  0  0  0  0  0  0  0  0  0
    5.9387   -0.3961    0.0000 H   0  0  0  0  0  0  0  0  0  0  0  0
    3.5408   -2.7323    0.0000 H   0  0  0  0  0  0  0  0  0  0  0  0
    3.4494    1.7864    0.0000 H   0  0  0  0  0  0  0  0  0  0  0  0
    3.1917    0.9980    0.0000 H   0  0  0  0  0  0  0  0  0  0  0  0
    5.9350    0.9980    0.0000 H   0  0  0  0  0  0  0  0  0  0  0  0
    5.6773    1.7864    0.0000 H   0  0  0  0  0  0  0  0  0  0  0  0
    3.3097    0.4411    0.0000 H   0  0  0  0  0  0  0  0  0  0  0  0
    2.4437    0.3040    0.0000 H   0  0  0  0  0  0  0  0  0  0  0  0
    2.5808   -0.5620    0.0000 H   0  0  0  0  0  0  0  0  0  0  0  0
    4.4771    3.0061    0.0000 H   0  0  0  0  0  0  0  0  0  0  0  0
    3.6111    3.1432    0.0000 H   0  0  0  0  0  0  0  0  0  0  0  0
    3.4739    2.2772    0.0000 H   0  0  0  0  0  0  0  0  0  0  0  0
    1.8700   -0.3210    0.0000 H   0  0  0  0  0  0  0  0  0  0  0  0
    1.5400   -1.3429    0.0000 H   0  0  0  0  0  0  0  0  0  0  0  0
    2.9240   -3.5552    0.0000 H   0  0  0  0  0  0  0  0  0  0  0  0
    6.5100    3.0387    0.0000 H   0  0  0  0  0  0  0  0  0  0  0  0
  5  1  1  6  0  0  0
  1  8  1  0  0  0  0
 11  2  1  6  0  0  0
  2 38  1  0  0  0  0
  3 19  1  0  0  0  0
  3 39  1  0  0  0  0
  4 19  2  0  0  0  0
  5  6  1  0  0  0  0
  5  8  1  0  0  0  0
  5 10  1  0  0  0  0
  6  7  1  0  0  0  0
  6 12  1  0  0  0  0
  6 16  1  6  0  0  0
  7  9  1  0  0  0  0
  7 13  1  0  0  0  0
  7 20  1  1  0  0  0
  8 11  1  0  0  0  0
  8 21  1  1  0  0  0
  9 10  1  0  0  0  0
  9 14  1  0  0  0  0
  9 22  1  1  0  0  0
 10 23  1  0  0  0  0
 10 24  1  0  0  0  0
 11 12  1  0  0  0  0
 11 25  1  0  0  0  0
 12 18  2  0  0  0  0
 13 15  1  0  0  0  0
 13 26  1  0  0  0  0
 13 27  1  0  0  0  0
 14 15  1  0  0  0  0
 14 28  1  0  0  0  0
 14 29  1  0  0  0  0
 15 17  1  6  0  0  0
 15 19  1  0  0  0  0
 16 30  1  0  0  0  0
 16 31  1  0  0  0  0
 16 32  1  0  0  0  0
 17 33  1  0  0  0  0
 17 34  1  0  0  0  0
 17 35  1  0  0  0  0
 18 36  1  0  0  0  0
 18 37  1  0  0  0  0
M  END
> <PUBCHEM_COMPOUND_CID>
442376

> <PUBCHEM_COMPOUND_CANONICALIZED>
1

> <PUBCHEM_CACTVS_COMPLEXITY>
514

> <PUBCHEM_CACTVS_HBOND_ACCEPTOR>
4

> <PUBCHEM_CACTVS_HBOND_DONOR>
2

> <PUBCHEM_CACTVS_ROTATABLE_BOND>
1

> <PUBCHEM_CACTVS_SUBSKEYS>
AAADceBwOAAAAAAAAAAAAAAAEgAAAYMGAAAkAAAAAAAYMEgAAAAAGgAACAAAD1SggAICCAAABgCIAgDSCAAAAAAgAAAAAAEAAAgBFBIAAQACQAAFwAADEAHI6PCPgAAAAAAAAAAAAAAAAAAAAYQADCAAAA==

> <PUBCHEM_IUPAC_INCHI>
InChI=1S/C15H20O4/c1-7-10(16)11-15(19-11)5-8-4-13(2,12(17)18)6-9(8)14(7,15)3/h8-11,16H,1,4-6H2,2-3H3,(H,17,18)/t8-,9-,10-,11-,13+,14+,15-/m1/s1

> <PUBCHEM_IUPAC_INCHIKEY>
IZLOHISHEUGGDJ-BLYYJXBTSA-N

> <PUBCHEM_XLOGP3_AA>
0.8

> <PUBCHEM_EXACT_MASS>
264.136159

> <PUBCHEM_MOLECULAR_FORMULA>
C15H20O4

> <PUBCHEM_MOLECULAR_WEIGHT>
264.3169

> <PUBCHEM_OPENEYE_CAN_SMILES>
CC1(CC2CC34C(O3)C(C(=C)C4(C2C1)C)O)C(=O)O

> <PUBCHEM_OPENEYE_ISO_SMILES>
C[C@@]1(C[C@@H]2C[C@]34[C@H](O3)[C@@H](C(=C)[C@]4([C@@H]2C1)C)O)C(=O)O

> <PUBCHEM_CACTVS_TPSA>
70.1

> <PUBCHEM_MONOISOTOPIC_WEIGHT>
264.136159

> <PUBCHEM_TOTAL_CHARGE>
0

> <PUBCHEM_HEAVY_ATOM_COUNT>
19

> <PUBCHEM_ATOM_DEF_STEREO_COUNT>
7

> <PUBCHEM_ATOM_UDEF_STEREO_COUNT>
0

> <PUBCHEM_BOND_DEF_STEREO_COUNT>
0

> <PUBCHEM_BOND_UDEF_STEREO_COUNT>
0

> <PUBCHEM_ISOTOPIC_ATOM_COUNT>
0

> <PUBCHEM_COMPONENT_COUNT>
1

> <PUBCHEM_CACTVS_TAUTO_COUNT>
1

> <PUBCHEM_COORDINATE_TYPE>
1
5
255

> <PUBCHEM_BONDANNOTATIONS>
5  1  6
15  17  6
11  2  6
6  16  6
7  20  5
8  21  5
9  22  5

$$$$

