68736
  -OEChem-07051213042D

 28 28  0     1  0  0  0  0  0999 V2000
    6.0010    1.6900    0.0000 P   0  0  0  0  0  0  0  0  0  0  0  0
    6.8671    2.1900    0.0000 O   0  0  0  0  0  0  0  0  0  0  0  0
    5.5010    2.5560    0.0000 O   0  0  0  0  0  0  0  0  0  0  0  0
    6.5010    0.8240    0.0000 O   0  0  0  0  0  0  0  0  0  0  0  0
    2.5369   -1.3100    0.0000 O   0  0  0  0  0  0  0  0  0  0  0  0
    3.4030   -2.8100    0.0000 O   0  0  0  0  0  0  0  0  0  0  0  0
    5.1350   -1.8100    0.0000 N   0  0  0  0  0  0  0  0  0  0  0  0
    5.1350    0.1900    0.0000 C   0  0  1  0  0  0  0  0  0  0  0  0
    4.2690   -0.3100    0.0000 C   0  0  0  0  0  0  0  0  0  0  0  0
    6.0010   -0.3100    0.0000 C   0  0  0  0  0  0  0  0  0  0  0  0
    4.2690   -1.3100    0.0000 C   0  0  1  0  0  0  0  0  0  0  0  0
    5.1350    1.1900    0.0000 C   0  0  0  0  0  0  0  0  0  0  0  0
    6.0010   -1.3100    0.0000 C   0  0  0  0  0  0  0  0  0  0  0  0
    3.4030   -1.8100    0.0000 C   0  0  0  0  0  0  0  0  0  0  0  0
    5.6720    0.5000    0.0000 H   0  0  0  0  0  0  0  0  0  0  0  0
    4.0569    0.2726    0.0000 H   0  0  0  0  0  0  0  0  0  0  0  0
    3.6584   -0.4177    0.0000 H   0  0  0  0  0  0  0  0  0  0  0  0
    6.6116   -0.4177    0.0000 H   0  0  0  0  0  0  0  0  0  0  0  0
    6.2131    0.2726    0.0000 H   0  0  0  0  0  0  0  0  0  0  0  0
    4.2690   -1.9300    0.0000 H   0  0  0  0  0  0  0  0  0  0  0  0
    4.9230    1.7726    0.0000 H   0  0  0  0  0  0  0  0  0  0  0  0
    4.5244    1.0823    0.0000 H   0  0  0  0  0  0  0  0  0  0  0  0
    6.2131   -1.8926    0.0000 H   0  0  0  0  0  0  0  0  0  0  0  0
    6.6116   -1.2023    0.0000 H   0  0  0  0  0  0  0  0  0  0  0  0
    5.1350   -2.4300    0.0000 H   0  0  0  0  0  0  0  0  0  0  0  0
    6.8671    2.8100    0.0000 H   0  0  0  0  0  0  0  0  0  0  0  0
    4.8810    2.5560    0.0000 H   0  0  0  0  0  0  0  0  0  0  0  0
    2.0000   -1.6200    0.0000 H   0  0  0  0  0  0  0  0  0  0  0  0
  1  2  1  0  0  0  0
  1  3  1  0  0  0  0
  1  4  2  0  0  0  0
  1 12  1  0  0  0  0
  2 26  1  0  0  0  0
  3 27  1  0  0  0  0
  5 14  1  0  0  0  0
  5 28  1  0  0  0  0
  6 14  2  0  0  0  0
  7 11  1  0  0  0  0
  7 13  1  0  0  0  0
  7 25  1  0  0  0  0
  8  9  1  0  0  0  0
  8 10  1  0  0  0  0
  8 12  1  6  0  0  0
  8 15  1  0  0  0  0
  9 11  1  0  0  0  0
  9 16  1  0  0  0  0
  9 17  1  0  0  0  0
 10 13  1  0  0  0  0
 10 18  1  0  0  0  0
 10 19  1  0  0  0  0
 11 14  1  6  0  0  0
 11 20  1  0  0  0  0
 12 21  1  0  0  0  0
 12 22  1  0  0  0  0
 13 23  1  0  0  0  0
 13 24  1  0  0  0  0
M  END
> <PUBCHEM_COMPOUND_CID>
68736

> <PUBCHEM_COMPOUND_CANONICALIZED>
1

> <PUBCHEM_CACTVS_COMPLEXITY>
263

> <PUBCHEM_CACTVS_HBOND_ACCEPTOR>
6

> <PUBCHEM_CACTVS_HBOND_DONOR>
4

> <PUBCHEM_CACTVS_ROTATABLE_BOND>
3

> <PUBCHEM_CACTVS_SUBSKEYS>
AAADccBiOAIAAAAAAAAAAAAAAAAAAAAAAAAsAAAAAAAAAAAAAAAAHggQCCAADSjJgAQACALAAhAIQACQCIAAAAAAAAAAAIGIAAACABIAgCAEQAAEEACQAAGYSAAOAAAAAAAAAAAAAAAAAAAAAAAAAAAAAA==

> <PUBCHEM_IUPAC_OPENEYE_NAME>
(2S,4R)-4-(phosphonomethyl)piperidine-2-carboxylic acid

> <PUBCHEM_IUPAC_CAS_NAME>
(2S,4R)-4-(phosphonomethyl)-2-piperidinecarboxylic acid

> <PUBCHEM_IUPAC_NAME>
(2S,4R)-4-(phosphonomethyl)piperidine-2-carboxylic acid

> <PUBCHEM_IUPAC_SYSTEMATIC_NAME>
(2S,4R)-4-(phosphonomethyl)piperidine-2-carboxylic acid

> <PUBCHEM_IUPAC_TRADITIONAL_NAME>
(2S,4R)-4-(phosphonomethyl)pipecolinic acid

> <PUBCHEM_IUPAC_INCHI>
InChI=1S/C7H14NO5P/c9-7(10)6-3-5(1-2-8-6)4-14(11,12)13/h5-6,8H,1-4H2,(H,9,10)(H2,11,12,13)/t5-,6+/m1/s1

> <PUBCHEM_IUPAC_INCHIKEY>
LPMRCCNDNGONCD-RITPCOANSA-N

> <PUBCHEM_XLOGP3_AA>
-3.9

> <PUBCHEM_EXACT_MASS>
223.060959

> <PUBCHEM_MOLECULAR_FORMULA>
C7H14NO5P

> <PUBCHEM_MOLECULAR_WEIGHT>
223.163522

> <PUBCHEM_OPENEYE_CAN_SMILES>
C1CNC(CC1CP(=O)(O)O)C(=O)O

> <PUBCHEM_OPENEYE_ISO_SMILES>
C1CN[C@@H](C[C@@H]1CP(=O)(O)O)C(=O)O

> <PUBCHEM_CACTVS_TPSA>
107

> <PUBCHEM_MONOISOTOPIC_WEIGHT>
223.060959

> <PUBCHEM_TOTAL_CHARGE>
0

> <PUBCHEM_HEAVY_ATOM_COUNT>
14

> <PUBCHEM_ATOM_DEF_STEREO_COUNT>
2

> <PUBCHEM_ATOM_UDEF_STEREO_COUNT>
0

> <PUBCHEM_BOND_DEF_STEREO_COUNT>
0

> <PUBCHEM_BOND_UDEF_STEREO_COUNT>
0

> <PUBCHEM_ISOTOPIC_ATOM_COUNT>
0

> <PUBCHEM_COMPONENT_COUNT>
1

> <PUBCHEM_CACTVS_TAUTO_COUNT>
1

> <PUBCHEM_COORDINATE_TYPE>
1
5
255

> <PUBCHEM_BONDANNOTATIONS>
11  14  6
8  12  6

$$$$

