441248
  -OEChem-07051212533D

 51 52  0     1  0  0  0  0  0999 V2000
    0.2251    0.5290    0.5208 O   0  0  0  0  0  0  0  0  0  0  0  0
   -3.4806   -1.3024    0.1067 O   0  0  0  0  0  0  0  0  0  0  0  0
    2.0331   -0.9080    0.1817 O   0  0  0  0  0  0  0  0  0  0  0  0
   -1.1096   -1.5316    1.7586 O   0  0  0  0  0  0  0  0  0  0  0  0
    1.7713    2.6799   -0.5046 O   0  0  0  0  0  0  0  0  0  0  0  0
    4.6190    2.3047   -0.1641 O   0  0  0  0  0  0  0  0  0  0  0  0
   -3.3969    0.0890   -1.8029 O   0  0  0  0  0  0  0  0  0  0  0  0
    4.5832   -0.1184    1.1981 O   0  0  0  0  0  0  0  0  0  0  0  0
   -3.8364   -3.9775   -0.3226 O   0  0  0  0  0  0  0  0  0  0  0  0
    2.7109   -3.5067   -0.3903 O   0  0  0  0  0  0  0  0  0  0  0  0
   -3.3271    3.1425    1.3392 O   0  0  0  0  0  0  0  0  0  0  0  0
   -2.0587    2.1001   -0.3115 N   0  0  0  0  0  0  0  0  0  0  0  0
   -0.8964   -0.0605   -0.1329 C   0  0  2  0  0  0  0  0  0  0  0  0
   -2.1600    0.7469    0.1854 C   0  0  2  0  0  0  0  0  0  0  0  0
   -1.0589   -1.5130    0.3300 C   0  0  2  0  0  0  0  0  0  0  0  0
    1.4279    0.3205   -0.2189 C   0  0  2  0  0  0  0  0  0  0  0  0
   -2.3485   -2.1102   -0.2479 C   0  0  1  0  0  0  0  0  0  0  0  0
    2.3582    1.5046    0.0541 C   0  0  1  0  0  0  0  0  0  0  0  0
    3.7281    1.2747   -0.5833 C   0  0  2  0  0  0  0  0  0  0  0  0
   -3.4027    0.0420   -0.3768 C   0  0  2  0  0  0  0  0  0  0  0  0
    4.2893   -0.0951   -0.2001 C   0  0  2  0  0  0  0  0  0  0  0  0
    3.2566   -1.1840   -0.5116 C   0  0  1  0  0  0  0  0  0  0  0  0
   -2.6269   -3.5218    0.2562 C   0  0  0  0  0  0  0  0  0  0  0  0
    3.7241   -2.5680   -0.0767 C   0  0  0  0  0  0  0  0  0  0  0  0
   -2.6542    3.1838    0.3125 C   0  0  0  0  0  0  0  0  0  0  0  0
   -2.3698    4.4794   -0.3990 C   0  0  0  0  0  0  0  0  0  0  0  0
   -0.7450   -0.0485   -1.2190 H   0  0  0  0  0  0  0  0  0  0  0  0
   -2.2601    0.8076    1.2774 H   0  0  0  0  0  0  0  0  0  0  0  0
   -0.1945   -2.1126    0.0276 H   0  0  0  0  0  0  0  0  0  0  0  0
    1.2198    0.2897   -1.2971 H   0  0  0  0  0  0  0  0  0  0  0  0
   -2.2896   -2.1461   -1.3433 H   0  0  0  0  0  0  0  0  0  0  0  0
    2.4610    1.6860    1.1307 H   0  0  0  0  0  0  0  0  0  0  0  0
    3.6479    1.3472   -1.6752 H   0  0  0  0  0  0  0  0  0  0  0  0
   -4.3104    0.5572   -0.0465 H   0  0  0  0  0  0  0  0  0  0  0  0
    5.2323   -0.2781   -0.7260 H   0  0  0  0  0  0  0  0  0  0  0  0
    3.0364   -1.2058   -1.5871 H   0  0  0  0  0  0  0  0  0  0  0  0
   -1.5644    2.2497   -1.1866 H   0  0  0  0  0  0  0  0  0  0  0  0
   -2.7663   -3.5391    1.3416 H   0  0  0  0  0  0  0  0  0  0  0  0
   -1.8176   -4.2056   -0.0177 H   0  0  0  0  0  0  0  0  0  0  0  0
    4.6509   -2.8600   -0.5800 H   0  0  0  0  0  0  0  0  0  0  0  0
    3.8790   -2.6188    1.0054 H   0  0  0  0  0  0  0  0  0  0  0  0
   -0.9734   -2.4498    2.0470 H   0  0  0  0  0  0  0  0  0  0  0  0
    0.8897    2.7826   -0.1067 H   0  0  0  0  0  0  0  0  0  0  0  0
    4.2167    3.1556   -0.4091 H   0  0  0  0  0  0  0  0  0  0  0  0
   -2.4882    0.1563   -2.1319 H   0  0  0  0  0  0  0  0  0  0  0  0
    3.7432   -0.1083    1.6872 H   0  0  0  0  0  0  0  0  0  0  0  0
   -3.9914   -4.8787    0.0081 H   0  0  0  0  0  0  0  0  0  0  0  0
    2.5834   -3.4931   -1.3542 H   0  0  0  0  0  0  0  0  0  0  0  0
   -2.6675    4.4032   -1.4487 H   0  0  0  0  0  0  0  0  0  0  0  0
   -1.3014    4.7048   -0.3379 H   0  0  0  0  0  0  0  0  0  0  0  0
   -2.9345    5.2901    0.0695 H   0  0  0  0  0  0  0  0  0  0  0  0
  1 13  1  0  0  0  0
  1 16  1  0  0  0  0
  2 17  1  0  0  0  0
  2 20  1  0  0  0  0
  3 16  1  0  0  0  0
  3 22  1  0  0  0  0
  4 15  1  0  0  0  0
  4 42  1  0  0  0  0
  5 18  1  0  0  0  0
  5 43  1  0  0  0  0
  6 19  1  0  0  0  0
  6 44  1  0  0  0  0
  7 20  1  0  0  0  0
  7 45  1  0  0  0  0
  8 21  1  0  0  0  0
  8 46  1  0  0  0  0
  9 23  1  0  0  0  0
  9 47  1  0  0  0  0
 10 24  1  0  0  0  0
 10 48  1  0  0  0  0
 11 25  2  0  0  0  0
 12 14  1  0  0  0  0
 12 25  1  0  0  0  0
 12 37  1  0  0  0  0
 13 14  1  0  0  0  0
 13 15  1  0  0  0  0
 13 27  1  0  0  0  0
 14 20  1  0  0  0  0
 14 28  1  0  0  0  0
 15 17  1  0  0  0  0
 15 29  1  0  0  0  0
 16 18  1  0  0  0  0
 16 30  1  0  0  0  0
 17 23  1  0  0  0  0
 17 31  1  0  0  0  0
 18 19  1  0  0  0  0
 18 32  1  0  0  0  0
 19 21  1  0  0  0  0
 19 33  1  0  0  0  0
 20 34  1  0  0  0  0
 21 22  1  0  0  0  0
 21 35  1  0  0  0  0
 22 24  1  0  0  0  0
 22 36  1  0  0  0  0
 23 38  1  0  0  0  0
 23 39  1  0  0  0  0
 24 40  1  0  0  0  0
 24 41  1  0  0  0  0
 25 26  1  0  0  0  0
 26 49  1  0  0  0  0
 26 50  1  0  0  0  0
 26 51  1  0  0  0  0
M  END
> <PUBCHEM_COMPOUND_CID>
441248

> <PUBCHEM_CONFORMER_RMSD>
1

> <PUBCHEM_CONFORMER_DIVERSEORDER>
2
51
39
50
18
44
26
42
34
47
10
33
9
32
13
14
4
19
11
23
41
27
35
1
20
12
40
16
29
25
28
37
22
36
3
31
30
6
49
15
21
8
43
48
17
24
46
7
38
45
5

> <PUBCHEM_MMFF94_PARTIAL_CHARGES>
34
1 -0.56
10 -0.68
11 -0.57
12 -0.73
13 0.28
14 0.3
15 0.28
16 0.56
17 0.28
18 0.28
19 0.28
2 -0.56
20 0.56
21 0.28
22 0.28
23 0.28
24 0.28
25 0.57
26 0.06
3 -0.56
37 0.37
4 -0.68
42 0.4
43 0.4
44 0.4
45 0.4
46 0.4
47 0.4
48 0.4
5 -0.68
6 -0.68
7 -0.68
8 -0.68
9 -0.68

> <PUBCHEM_EFFECTIVE_ROTOR_COUNT>
8.4

> <PUBCHEM_PHARMACOPHORE_FEATURES>
21
1 1 acceptor
1 10 acceptor
1 10 donor
1 11 acceptor
1 12 donor
1 2 acceptor
1 3 acceptor
1 4 acceptor
1 4 donor
1 5 acceptor
1 5 donor
1 6 acceptor
1 6 donor
1 7 acceptor
1 7 donor
1 8 acceptor
1 8 donor
1 9 acceptor
1 9 donor
6 2 13 14 15 17 20 rings
6 3 16 18 19 21 22 rings

> <PUBCHEM_HEAVY_ATOM_COUNT>
26

> <PUBCHEM_ATOM_DEF_STEREO_COUNT>
9

> <PUBCHEM_ATOM_UDEF_STEREO_COUNT>
1

> <PUBCHEM_BOND_DEF_STEREO_COUNT>
0

> <PUBCHEM_BOND_UDEF_STEREO_COUNT>
0

> <PUBCHEM_ISOTOPIC_ATOM_COUNT>
0

> <PUBCHEM_COMPONENT_COUNT>
1

> <PUBCHEM_CACTVS_TAUTO_COUNT>
2

> <PUBCHEM_CONFORMER_ID>
0006BBA000000002

> <PUBCHEM_MMFF94_ENERGY>
68.1417

> <PUBCHEM_FEATURE_SELFOVERLAP>
106.687

> <PUBCHEM_SHAPE_FINGERPRINT>
10366900 7 18187934915262908696
10616163 171 18409445865105674054
1100329 8 17978510067973703234
11045515 52 18126851482805514773
11578080 2 17459207260136718760
12173636 292 18339080509667392461
12633257 1 18201163273238316392
12788726 201 18342742884104730299
13140716 1 18266743472003460251
13583140 156 17749687237295026840
138480 1 16321467060641180213
13911987 19 17550375246754917884
14178342 30 18411149034676741522
14251751 93 18197216073402098641
14790565 3 17545874293064998756
14955137 171 17259615375579274187
15442244 35 18267021833350472628
17492 89 18411699855379566986
19591789 44 17258493873592023444
19930381 70 17906171746225520617
20286276 3 18337099146954689334
20775438 99 17759006625117649125
21796203 349 17262969499844656066
22393880 68 18336535063393360590
23557571 272 18266454313361944591
23558518 356 18343013406592978305
23559900 14 18410300185845859400
335352 9 17906451383198614278
3380486 145 18197203760205426427
350125 39 18266453407551476641
463206 1 17834957468874465239
5104073 3 18338800001047793930
5309563 4 17905322931844275311
532947 4 17327455230064627039
7164475 11 18411135805597103918
7399639 24 17971767575004551728
81228 2 18201996582408211529
9709674 26 18336262431327310486

> <PUBCHEM_SHAPE_MULTIPOLES>
465.52
8.88
5.21
0.96
6.37
0.4
0.09
-0.06
-0.41
-4.89
-0.08
-0.4
0.04
-0.37

> <PUBCHEM_SHAPE_SELFOVERLAP>
950.842

> <PUBCHEM_SHAPE_VOLUME>
262.4

> <PUBCHEM_COORDINATE_TYPE>
2
5
10

$$$$

