439559
  -OEChem-07051212463D

 45 46  0     1  0  0  0  0  0999 V2000
   -1.7862   -0.3930    0.8562 O   0  0  0  0  0  0  0  0  0  0  0  0
    0.5810   -1.4384   -0.1828 O   0  0  0  0  0  0  0  0  0  0  0  0
    1.9080   -0.0185   -1.5404 O   0  0  0  0  0  0  0  0  0  0  0  0
   -4.1113   -1.9944   -0.5767 O   0  0  0  0  0  0  0  0  0  0  0  0
   -2.7694    1.1954   -1.5182 O   0  0  0  0  0  0  0  0  0  0  0  0
   -3.9803   -0.1236    1.6498 O   0  0  0  0  0  0  0  0  0  0  0  0
    2.8913   -2.7788    0.6778 O   0  0  0  0  0  0  0  0  0  0  0  0
    4.5364   -0.5812    1.5941 O   0  0  0  0  0  0  0  0  0  0  0  0
    3.2267    1.9560    1.2792 O   0  0  0  0  0  0  0  0  0  0  0  0
   -2.1998    1.7798    2.5998 O   0  0  0  0  0  0  0  0  0  0  0  0
    0.8619    2.3991   -2.2570 O   0  0  0  0  0  0  0  0  0  0  0  0
   -1.8135   -1.3661   -0.2055 C   0  0  1  0  0  0  0  0  0  0  0  0
   -3.0818   -1.1129   -1.0185 C   0  0  2  0  0  0  0  0  0  0  0  0
   -3.4643    0.3090   -0.6512 C   0  0  1  0  0  0  0  0  0  0  0  0
   -2.9711    0.4177    0.7933 C   0  0  2  0  0  0  0  0  0  0  0  0
    1.8061   -1.2910   -0.8982 C   0  0  1  0  0  0  0  0  0  0  0  0
    3.0329   -1.5474   -0.0214 C   0  0  1  0  0  0  0  0  0  0  0  0
    3.2547   -0.4179    0.9826 C   0  0  2  0  0  0  0  0  0  0  0  0
   -0.5390   -1.1950   -1.0200 C   0  0  0  0  0  0  0  0  0  0  0  0
    3.2285    0.9404    0.2788 C   0  0  1  0  0  0  0  0  0  0  0  0
    1.9920    1.0757   -0.6202 C   0  0  1  0  0  0  0  0  0  0  0  0
   -2.6283    1.8299    1.2500 C   0  0  0  0  0  0  0  0  0  0  0  0
    2.0253    2.3554   -1.4516 C   0  0  0  0  0  0  0  0  0  0  0  0
   -1.8173   -2.3533    0.2707 H   0  0  0  0  0  0  0  0  0  0  0  0
   -2.9414   -1.2704   -2.0927 H   0  0  0  0  0  0  0  0  0  0  0  0
   -4.5394    0.5016   -0.7363 H   0  0  0  0  0  0  0  0  0  0  0  0
    1.8044   -2.0525   -1.6883 H   0  0  0  0  0  0  0  0  0  0  0  0
    3.9241   -1.6340   -0.6553 H   0  0  0  0  0  0  0  0  0  0  0  0
    2.5129   -0.4628    1.7895 H   0  0  0  0  0  0  0  0  0  0  0  0
   -0.4944   -0.1761   -1.4167 H   0  0  0  0  0  0  0  0  0  0  0  0
   -0.5336   -1.9036   -1.8564 H   0  0  0  0  0  0  0  0  0  0  0  0
    4.1410    1.0629   -0.3187 H   0  0  0  0  0  0  0  0  0  0  0  0
    1.0790    1.0989   -0.0106 H   0  0  0  0  0  0  0  0  0  0  0  0
   -3.4973    2.4929    1.1937 H   0  0  0  0  0  0  0  0  0  0  0  0
   -1.8084    2.2573    0.6650 H   0  0  0  0  0  0  0  0  0  0  0  0
    2.8943    2.3779   -2.1175 H   0  0  0  0  0  0  0  0  0  0  0  0
    2.0433    3.2469   -0.8182 H   0  0  0  0  0  0  0  0  0  0  0  0
   -3.8251   -2.9010   -0.7816 H   0  0  0  0  0  0  0  0  0  0  0  0
   -3.1007    1.0430   -2.4196 H   0  0  0  0  0  0  0  0  0  0  0  0
   -4.4571   -0.8252    1.1767 H   0  0  0  0  0  0  0  0  0  0  0  0
    2.0757   -2.7280    1.2052 H   0  0  0  0  0  0  0  0  0  0  0  0
    4.6021    0.0636    2.3183 H   0  0  0  0  0  0  0  0  0  0  0  0
    4.0890    1.9324    1.7269 H   0  0  0  0  0  0  0  0  0  0  0  0
   -2.9231    1.3947    3.1234 H   0  0  0  0  0  0  0  0  0  0  0  0
    0.8582    1.6010   -2.8128 H   0  0  0  0  0  0  0  0  0  0  0  0
  1 12  1  0  0  0  0
  1 15  1  0  0  0  0
  2 16  1  0  0  0  0
  2 19  1  0  0  0  0
  3 16  1  0  0  0  0
  3 21  1  0  0  0  0
  4 13  1  0  0  0  0
  4 38  1  0  0  0  0
  5 14  1  0  0  0  0
  5 39  1  0  0  0  0
  6 15  1  0  0  0  0
  6 40  1  0  0  0  0
  7 17  1  0  0  0  0
  7 41  1  0  0  0  0
  8 18  1  0  0  0  0
  8 42  1  0  0  0  0
  9 20  1  0  0  0  0
  9 43  1  0  0  0  0
 10 22  1  0  0  0  0
 10 44  1  0  0  0  0
 11 23  1  0  0  0  0
 11 45  1  0  0  0  0
 12 13  1  0  0  0  0
 12 19  1  0  0  0  0
 12 24  1  0  0  0  0
 13 14  1  0  0  0  0
 13 25  1  0  0  0  0
 14 15  1  0  0  0  0
 14 26  1  0  0  0  0
 15 22  1  0  0  0  0
 16 17  1  0  0  0  0
 16 27  1  0  0  0  0
 17 18  1  0  0  0  0
 17 28  1  0  0  0  0
 18 20  1  0  0  0  0
 18 29  1  0  0  0  0
 19 30  1  0  0  0  0
 19 31  1  0  0  0  0
 20 21  1  0  0  0  0
 20 32  1  0  0  0  0
 21 23  1  0  0  0  0
 21 33  1  0  0  0  0
 22 34  1  0  0  0  0
 22 35  1  0  0  0  0
 23 36  1  0  0  0  0
 23 37  1  0  0  0  0
M  END
> <PUBCHEM_COMPOUND_CID>
439559

> <PUBCHEM_CONFORMER_RMSD>
0.8

> <PUBCHEM_CONFORMER_DIVERSEORDER>
1
35
2
42
30
64
28
65
9
33
22
40
62
34
68
7
61
27
10
56
25
63
58
8
3
37
41
23
66
13
57
49
50
51
4
6
29
47
45
17
21
32
12
46
5
59
18
43
52
38
67
44
60
36
24
54
26
15
11
31
20
16
39
19
14
48
53
55

> <PUBCHEM_MMFF94_PARTIAL_CHARGES>
31
1 -0.56
10 -0.68
11 -0.68
12 0.28
13 0.28
14 0.28
15 0.56
16 0.56
17 0.28
18 0.28
19 0.28
2 -0.56
20 0.28
21 0.28
22 0.28
23 0.28
3 -0.56
38 0.4
39 0.4
4 -0.68
40 0.4
41 0.4
42 0.4
43 0.4
44 0.4
45 0.4
5 -0.68
6 -0.68
7 -0.68
8 -0.68
9 -0.68

> <PUBCHEM_EFFECTIVE_ROTOR_COUNT>
7.2

> <PUBCHEM_PHARMACOPHORE_FEATURES>
21
1 1 acceptor
1 10 acceptor
1 10 donor
1 11 acceptor
1 11 donor
1 2 acceptor
1 3 acceptor
1 4 acceptor
1 4 donor
1 5 acceptor
1 5 donor
1 6 acceptor
1 6 donor
1 7 acceptor
1 7 donor
1 8 acceptor
1 8 donor
1 9 acceptor
1 9 donor
5 1 12 13 14 15 rings
6 3 16 17 18 20 21 rings

> <PUBCHEM_HEAVY_ATOM_COUNT>
23

> <PUBCHEM_ATOM_DEF_STEREO_COUNT>
8

> <PUBCHEM_ATOM_UDEF_STEREO_COUNT>
1

> <PUBCHEM_BOND_DEF_STEREO_COUNT>
0

> <PUBCHEM_BOND_UDEF_STEREO_COUNT>
0

> <PUBCHEM_ISOTOPIC_ATOM_COUNT>
0

> <PUBCHEM_COMPONENT_COUNT>
1

> <PUBCHEM_CACTVS_TAUTO_COUNT>
1

> <PUBCHEM_CONFORMER_ID>
0006B50700000001

> <PUBCHEM_MMFF94_ENERGY>
65.65

> <PUBCHEM_FEATURE_SELFOVERLAP>
106.684

> <PUBCHEM_SHAPE_FINGERPRINT>
10382601 240 18130208382020780676
10498660 4 17749382642382780721
10646746 165 17530962510025398130
11244481 83 15554154862246534468
11640471 11 18261670363960115228
12166972 35 18339092492478520149
12173636 292 17676758868955690087
12363563 72 17275393109423057292
12507557 5 18341621420593181215
12633257 1 17704072858828257032
128620 24 15285643161855233111
13224815 77 18040429975782874671
13965767 371 18047748492491042712
14790565 3 17914896431918596796
17349148 13 18339090284712621975
17492 89 18187366549319557903
18186145 218 18261387883840244678
18981168 100 17096625730076371863
192875 21 18200605700188181317
20715895 44 18192158303267196941
20739085 24 18201449047783278076
21864079 5 17822280318948929041
22749437 52 18333734623766343173
23557571 272 17241034406263410751
2838139 119 15575861395670315770
312423 11 18335968801471956303
3323516 105 7925627868806531494
3472631 163 16588026848598797449
3797600 57 17763429873741899483
4409770 3 17045139157065860470
474 4 18271525273826760862
539174 4 18337935883571569037
6786 2 15618280502350764108
7097593 13 18192145112636835539
7615 1 18335974324783619863

> <PUBCHEM_SHAPE_MULTIPOLES>
408.77
8.04
2.6
1.92
0.85
0.31
-0.17
-0.78
-2.56
-0.88
0.24
0.22
1.21
-1.47

> <PUBCHEM_SHAPE_SELFOVERLAP>
840.119

> <PUBCHEM_SHAPE_VOLUME>
232.5

> <PUBCHEM_COORDINATE_TYPE>
2
5
10

$$$$

