442551
  -OEChem-07051212583D

 28 29  0     1  0  0  0  0  0999 V2000
   -2.1841    2.8961    0.6285 O   0  0  0  0  0  0  0  0  0  0  0  0
    3.3793    0.1548    0.3511 O   0  0  0  0  0  0  0  0  0  0  0  0
    2.1265    1.5536   -0.9804 O   0  0  0  0  0  0  0  0  0  0  0  0
   -2.8171    0.6928    0.5452 N   0  0  0  0  0  0  0  0  0  0  0  0
    0.5639   -2.7354    0.3340 N   0  0  0  0  0  0  0  0  0  0  0  0
   -2.6169   -0.6764    0.0794 C   0  0  2  0  0  0  0  0  0  0  0  0
   -1.1629   -1.0513    0.1225 C   0  0  0  0  0  0  0  0  0  0  0  0
   -0.1899   -0.0645   -0.0667 C   0  0  0  0  0  0  0  0  0  0  0  0
   -0.6167    1.3540   -0.3248 C   0  0  0  0  0  0  0  0  0  0  0  0
   -1.9298    1.7280    0.3332 C   0  0  0  0  0  0  0  0  0  0  0  0
   -3.1973   -0.8568   -1.3217 C   0  0  0  0  0  0  0  0  0  0  0  0
    1.1572   -0.4251   -0.0691 C   0  0  0  0  0  0  0  0  0  0  0  0
   -0.7341   -2.3589    0.3161 C   0  0  0  0  0  0  0  0  0  0  0  0
    1.4763   -1.7578    0.1390 C   0  0  0  0  0  0  0  0  0  0  0  0
    2.2327    0.5295   -0.2936 C   0  0  0  0  0  0  0  0  0  0  0  0
    4.5128    1.0174    0.2072 C   0  0  0  0  0  0  0  0  0  0  0  0
   -3.1733   -1.3071    0.7832 H   0  0  0  0  0  0  0  0  0  0  0  0
    0.1069    2.0568    0.1014 H   0  0  0  0  0  0  0  0  0  0  0  0
   -0.7051    1.5299   -1.4021 H   0  0  0  0  0  0  0  0  0  0  0  0
   -3.7080    0.9174    0.9777 H   0  0  0  0  0  0  0  0  0  0  0  0
   -2.6916   -0.2193   -2.0560 H   0  0  0  0  0  0  0  0  0  0  0  0
   -3.1023   -1.8945   -1.6594 H   0  0  0  0  0  0  0  0  0  0  0  0
   -4.2604   -0.5923   -1.3357 H   0  0  0  0  0  0  0  0  0  0  0  0
   -1.4440   -3.1669    0.4630 H   0  0  0  0  0  0  0  0  0  0  0  0
    2.5007   -2.1177    0.1396 H   0  0  0  0  0  0  0  0  0  0  0  0
    4.8038    1.0848   -0.8453 H   0  0  0  0  0  0  0  0  0  0  0  0
    5.3421    0.5878    0.7755 H   0  0  0  0  0  0  0  0  0  0  0  0
    4.2855    2.0089    0.6097 H   0  0  0  0  0  0  0  0  0  0  0  0
  1 10  2  0  0  0  0
  2 15  1  0  0  0  0
  2 16  1  0  0  0  0
  3 15  2  0  0  0  0
  4  6  1  0  0  0  0
  4 10  1  0  0  0  0
  4 20  1  0  0  0  0
  5 13  1  0  0  0  0
  5 14  2  0  0  0  0
  6  7  1  0  0  0  0
  6 11  1  0  0  0  0
  6 17  1  0  0  0  0
  7  8  1  0  0  0  0
  7 13  2  0  0  0  0
  8  9  1  0  0  0  0
  8 12  2  0  0  0  0
  9 10  1  0  0  0  0
  9 18  1  0  0  0  0
  9 19  1  0  0  0  0
 11 21  1  0  0  0  0
 11 22  1  0  0  0  0
 11 23  1  0  0  0  0
 12 14  1  0  0  0  0
 12 15  1  0  0  0  0
 13 24  1  0  0  0  0
 14 25  1  0  0  0  0
 16 26  1  0  0  0  0
 16 27  1  0  0  0  0
 16 28  1  0  0  0  0
M  END
> <PUBCHEM_COMPOUND_CID>
442551

> <PUBCHEM_CONFORMER_RMSD>
0.6

> <PUBCHEM_CONFORMER_DIVERSEORDER>
1
4
6
3
5
2

> <PUBCHEM_MMFF94_PARTIAL_CHARGES>
18
1 -0.57
10 0.57
12 0.09
13 0.16
14 0.16
15 0.63
16 0.28
2 -0.43
20 0.37
24 0.15
25 0.15
3 -0.57
4 -0.73
5 -0.62
6 0.44
7 -0.14
8 -0.14
9 0.2

> <PUBCHEM_EFFECTIVE_ROTOR_COUNT>
2.6

> <PUBCHEM_PHARMACOPHORE_FEATURES>
6
1 1 acceptor
1 3 acceptor
1 4 donor
1 5 acceptor
6 4 6 7 8 9 10 rings
6 5 7 8 12 13 14 rings

> <PUBCHEM_HEAVY_ATOM_COUNT>
16

> <PUBCHEM_ATOM_DEF_STEREO_COUNT>
1

> <PUBCHEM_ATOM_UDEF_STEREO_COUNT>
0

> <PUBCHEM_BOND_DEF_STEREO_COUNT>
0

> <PUBCHEM_BOND_UDEF_STEREO_COUNT>
0

> <PUBCHEM_ISOTOPIC_ATOM_COUNT>
0

> <PUBCHEM_COMPONENT_COUNT>
1

> <PUBCHEM_CACTVS_TAUTO_COUNT>
2

> <PUBCHEM_CONFORMER_ID>
0006C0B700000001

> <PUBCHEM_MMFF94_ENERGY>
48.1108

> <PUBCHEM_FEATURE_SELFOVERLAP>
30.47

> <PUBCHEM_SHAPE_FINGERPRINT>
10967382 1 18267864058851121675
12346645 44 18410855481919529042
13140716 1 18051968126050095346
13380535 76 18412265012882400726
13380536 55 18193562383446038599
14614273 12 18201164342337098381
14617773 55 18188786070701991263
15042514 8 18196649592922431938
15490181 8 18342443846838109542
15536298 74 18262518212301260062
15775835 57 18259980513425277273
16945 1 18339070506324660350
193761 8 18195245748422315771
200 152 18337123275901266239
20510252 161 18334008367886421416
20525323 117 18409169926098779389
20671657 1 17904474456590710388
21501502 16 18265340683949981994
21524375 3 18408323280892257378
2334 1 18340485680953141238
23388829 49 18411987965969031909
23402539 116 18262808354126251039
23419403 2 16540816082649646715
23552423 10 18268430316283048615
23559900 14 18263924333719130996
2748010 2 18197771317893533887
305870 269 18269272524909556354
3071541 12 18049437338399535642
34934 24 18334580166052512925
352729 6 18197772215816388398
353137 74 18412834581343138223
43471831 8 18342177790831207322
54173680 148 18052816953675581562
5939293 188 16825870175682624881
6992083 37 18060417976432114500
7364860 26 18118682368645167406
7832392 63 18049159170199112961

> <PUBCHEM_SHAPE_MULTIPOLES>
301.7
5.57
2.7
0.83
4.57
0.09
0.17
-2.03
0.28
-0.98
-0.5
-0.34
-0.06
-0.65

> <PUBCHEM_SHAPE_SELFOVERLAP>
645.242

> <PUBCHEM_SHAPE_VOLUME>
165.8

> <PUBCHEM_COORDINATE_TYPE>
2
5
10

$$$$

