583027
  -OEChem-06241222442D

 24 25  0     1  0  0  0  0  0999 V2000
    2.5878    1.8649    0.0000 S   0  0  3  0  0  0  0  0  0  0  0  0
    2.0000    2.6739    0.0000 O   0  0  0  0  0  0  0  0  0  0  0  0
    3.0878    0.3261    0.0000 C   0  0  3  0  0  0  0  0  0  0  0  0
    3.8968    0.9139    0.0000 C   0  0  0  0  0  0  0  0  0  0  0  0
    2.2788    0.9139    0.0000 C   0  0  0  0  0  0  0  0  0  0  0  0
    3.5878    1.8649    0.0000 C   0  0  0  0  0  0  0  0  0  0  0  0
    3.0878   -0.6739    0.0000 C   0  0  0  0  0  0  0  0  0  0  0  0
    2.2218   -1.1739    0.0000 C   0  0  0  0  0  0  0  0  0  0  0  0
    3.9538   -1.1739    0.0000 C   0  0  0  0  0  0  0  0  0  0  0  0
    2.2218   -2.1739    0.0000 C   0  0  0  0  0  0  0  0  0  0  0  0
    3.9538   -2.1739    0.0000 C   0  0  0  0  0  0  0  0  0  0  0  0
    3.0878   -2.6739    0.0000 C   0  0  0  0  0  0  0  0  0  0  0  0
    3.8451   -0.0598    0.0000 H   0  0  0  0  0  0  0  0  0  0  0  0
    4.2068    0.3769    0.0000 H   0  0  0  0  0  0  0  0  0  0  0  0
    4.4632    1.1660    0.0000 H   0  0  0  0  0  0  0  0  0  0  0  0
    1.7124    1.1660    0.0000 H   0  0  0  0  0  0  0  0  0  0  0  0
    1.9688    0.3769    0.0000 H   0  0  0  0  0  0  0  0  0  0  0  0
    4.1942    1.9938    0.0000 H   0  0  0  0  0  0  0  0  0  0  0  0
    3.5230    2.4815    0.0000 H   0  0  0  0  0  0  0  0  0  0  0  0
    1.6848   -0.8639    0.0000 H   0  0  0  0  0  0  0  0  0  0  0  0
    4.4908   -0.8639    0.0000 H   0  0  0  0  0  0  0  0  0  0  0  0
    1.6848   -2.4839    0.0000 H   0  0  0  0  0  0  0  0  0  0  0  0
    4.4908   -2.4839    0.0000 H   0  0  0  0  0  0  0  0  0  0  0  0
    3.0878   -3.2939    0.0000 H   0  0  0  0  0  0  0  0  0  0  0  0
  1  2  2  0  0  0  0
  1  5  1  0  0  0  0
  1  6  1  0  0  0  0
  3  4  1  0  0  0  0
  3  5  1  0  0  0  0
  3  7  1  0  0  0  0
  3 13  1  0  0  0  0
  4  6  1  0  0  0  0
  4 14  1  0  0  0  0
  4 15  1  0  0  0  0
  5 16  1  0  0  0  0
  5 17  1  0  0  0  0
  6 18  1  0  0  0  0
  6 19  1  0  0  0  0
  7  8  2  0  0  0  0
  7  9  1  0  0  0  0
  8 10  1  0  0  0  0
  8 20  1  0  0  0  0
  9 11  2  0  0  0  0
  9 21  1  0  0  0  0
 10 12  2  0  0  0  0
 10 22  1  0  0  0  0
 11 12  1  0  0  0  0
 11 23  1  0  0  0  0
 12 24  1  0  0  0  0
M  END
> <PUBCHEM_COMPOUND_CID>
583027

> <PUBCHEM_COMPOUND_CANONICALIZED>
1

> <PUBCHEM_CACTVS_COMPLEXITY>
173

> <PUBCHEM_CACTVS_HBOND_ACCEPTOR>
2

> <PUBCHEM_CACTVS_HBOND_DONOR>
0

> <PUBCHEM_CACTVS_ROTATABLE_BOND>
1

> <PUBCHEM_CACTVS_SUBSKEYS>
AAADccBwIABAAAAAAAAAAAAAAAAAASAAAAAwAAAAAAAAAAABAAAAGAQAAAAADQCEWACwAIAAAAqAAiBCAEBCAAAgABAIiAAAAIgIICKgERCAIAAggAAoiAcAgMAOgAAAAAAAAAAAAAAAAAAAAAAAAAAAAA==

> <PUBCHEM_IUPAC_OPENEYE_NAME>
3-phenylthiolane 1-oxide

> <PUBCHEM_IUPAC_CAS_NAME>
3-phenylthiolane 1-oxide

> <PUBCHEM_IUPAC_NAME>
3-phenylthiolane 1-oxide

> <PUBCHEM_IUPAC_SYSTEMATIC_NAME>
3-phenylthiolane 1-oxide

> <PUBCHEM_IUPAC_TRADITIONAL_NAME>
3-phenylthiolane 1-oxide

> <PUBCHEM_IUPAC_INCHI>
InChI=1S/C10H12OS/c11-12-7-6-10(8-12)9-4-2-1-3-5-9/h1-5,10H,6-8H2

> <PUBCHEM_IUPAC_INCHIKEY>
BJEDAGITLDRWJW-UHFFFAOYSA-N

> <PUBCHEM_XLOGP3_AA>
1.1

> <PUBCHEM_EXACT_MASS>
180.060886

> <PUBCHEM_MOLECULAR_FORMULA>
C10H12OS

> <PUBCHEM_MOLECULAR_WEIGHT>
180.26668

> <PUBCHEM_OPENEYE_CAN_SMILES>
C1CS(=O)CC1C2=CC=CC=C2

> <PUBCHEM_OPENEYE_ISO_SMILES>
C1CS(=O)CC1C2=CC=CC=C2

> <PUBCHEM_CACTVS_TPSA>
36.3

> <PUBCHEM_MONOISOTOPIC_WEIGHT>
180.060886

> <PUBCHEM_TOTAL_CHARGE>
0

> <PUBCHEM_HEAVY_ATOM_COUNT>
12

> <PUBCHEM_ATOM_DEF_STEREO_COUNT>
0

> <PUBCHEM_ATOM_UDEF_STEREO_COUNT>
2

> <PUBCHEM_BOND_DEF_STEREO_COUNT>
0

> <PUBCHEM_BOND_UDEF_STEREO_COUNT>
0

> <PUBCHEM_ISOTOPIC_ATOM_COUNT>
0

> <PUBCHEM_COMPONENT_COUNT>
1

> <PUBCHEM_CACTVS_TAUTO_COUNT>
1

> <PUBCHEM_COORDINATE_TYPE>
1
5
255

> <PUBCHEM_BONDANNOTATIONS>
1  6  3
10  12  8
11  12  8
3  13  3
7  8  8
7  9  8
8  10  8
9  11  8

$$$$

