17395589
  -OEChem-06241222513D

 55 56  0     0  0  0  0  0  0999 V2000
    1.5334   -0.9312   -1.8316 S   0  0  0  0  0  0  0  0  0  0  0  0
    4.3445    0.2183   -1.6157 S   0  0  0  0  0  0  0  0  0  0  0  0
    0.2726    0.3785    1.8842 O   0  0  0  0  0  0  0  0  0  0  0  0
    2.7474    2.7698   -0.8255 O   0  0  0  0  0  0  0  0  0  0  0  0
   -0.1495   -2.5991   -0.5989 N   0  0  0  0  0  0  0  0  0  0  0  0
   -0.5776    2.1800    0.6392 N   0  0  0  0  0  0  0  0  0  0  0  0
    2.0151   -2.2496    0.3119 N   0  0  0  0  0  0  0  0  0  0  0  0
    2.7486    1.8531    1.3103 N   0  0  0  0  0  0  0  0  0  0  0  0
    3.1664   -1.5273    0.0511 N   0  0  0  0  0  0  0  0  0  0  0  0
   -0.6129   -3.5389    0.4064 C   0  0  0  0  0  0  0  0  0  0  0  0
   -0.5778   -2.8541    1.7757 C   0  0  0  0  0  0  0  0  0  0  0  0
    0.3144   -4.7563    0.3974 C   0  0  0  0  0  0  0  0  0  0  0  0
   -2.0453   -3.9597    0.0657 C   0  0  0  0  0  0  0  0  0  0  0  0
   -1.7945    1.6695    0.1279 C   0  0  0  0  0  0  0  0  0  0  0  0
    1.0854   -2.0300   -0.5930 C   0  0  0  0  0  0  0  0  0  0  0  0
   -2.7939    1.2423    1.0020 C   0  0  0  0  0  0  0  0  0  0  0  0
   -1.9945    1.5942   -1.2505 C   0  0  0  0  0  0  0  0  0  0  0  0
   -4.1934    0.6640   -0.8807 C   0  0  0  0  0  0  0  0  0  0  0  0
   -3.9933    0.7396    0.4978 C   0  0  0  0  0  0  0  0  0  0  0  0
   -3.1939    1.0914   -1.7547 C   0  0  0  0  0  0  0  0  0  0  0  0
   -2.6081    1.3088    2.4836 C   0  0  0  0  0  0  0  0  0  0  0  0
   -0.9427    2.0458   -2.2114 C   0  0  0  0  0  0  0  0  0  0  0  0
   -5.4747    0.1248   -1.4210 C   0  0  0  0  0  0  0  0  0  0  0  0
    0.3416    1.5253    1.4546 C   0  0  0  0  0  0  0  0  0  0  0  0
    1.5108    2.4403    1.7706 C   0  0  0  0  0  0  0  0  0  0  0  0
    3.0485   -0.7985   -1.0383 C   0  0  0  0  0  0  0  0  0  0  0  0
    4.5590    1.3295   -0.1998 C   0  0  0  0  0  0  0  0  0  0  0  0
    3.2646    2.0694    0.0431 C   0  0  0  0  0  0  0  0  0  0  0  0
   -1.0165   -3.5059    2.5407 H   0  0  0  0  0  0  0  0  0  0  0  0
   -1.1616   -1.9266    1.7660 H   0  0  0  0  0  0  0  0  0  0  0  0
    0.4309   -2.6091    2.1193 H   0  0  0  0  0  0  0  0  0  0  0  0
   -0.0850   -5.5474    1.0433 H   0  0  0  0  0  0  0  0  0  0  0  0
    0.4113   -5.1749   -0.6115 H   0  0  0  0  0  0  0  0  0  0  0  0
    1.3225   -4.5401    0.7628 H   0  0  0  0  0  0  0  0  0  0  0  0
   -2.4377   -4.6705    0.8013 H   0  0  0  0  0  0  0  0  0  0  0  0
   -2.0945   -4.4356   -0.9207 H   0  0  0  0  0  0  0  0  0  0  0  0
   -2.7179   -3.0940    0.0429 H   0  0  0  0  0  0  0  0  0  0  0  0
   -0.7992   -2.3582   -1.3431 H   0  0  0  0  0  0  0  0  0  0  0  0
   -4.7723    0.4006    1.1767 H   0  0  0  0  0  0  0  0  0  0  0  0
   -3.3530    1.0311   -2.8289 H   0  0  0  0  0  0  0  0  0  0  0  0
   -0.1954    2.9506    0.0948 H   0  0  0  0  0  0  0  0  0  0  0  0
   -2.0608    2.2050    2.7924 H   0  0  0  0  0  0  0  0  0  0  0  0
   -3.5778    1.3628    2.9928 H   0  0  0  0  0  0  0  0  0  0  0  0
   -2.0955    0.4149    2.8494 H   0  0  0  0  0  0  0  0  0  0  0  0
   -0.9790    3.1347   -2.3199 H   0  0  0  0  0  0  0  0  0  0  0  0
    0.0596    1.7579   -1.8837 H   0  0  0  0  0  0  0  0  0  0  0  0
   -1.0878    1.5999   -3.2017 H   0  0  0  0  0  0  0  0  0  0  0  0
   -5.3938   -0.9566   -1.5693 H   0  0  0  0  0  0  0  0  0  0  0  0
   -6.3071    0.3239   -0.7374 H   0  0  0  0  0  0  0  0  0  0  0  0
   -5.7282    0.5928   -2.3783 H   0  0  0  0  0  0  0  0  0  0  0  0
    1.3957    3.4357    1.3308 H   0  0  0  0  0  0  0  0  0  0  0  0
    1.5742    2.5516    2.8576 H   0  0  0  0  0  0  0  0  0  0  0  0
    3.2402    1.2386    1.9523 H   0  0  0  0  0  0  0  0  0  0  0  0
    5.3379    2.0634   -0.4279 H   0  0  0  0  0  0  0  0  0  0  0  0
    4.8808    0.7578    0.6755 H   0  0  0  0  0  0  0  0  0  0  0  0
  1 15  1  0  0  0  0
  1 26  1  0  0  0  0
  2 26  1  0  0  0  0
  2 27  1  0  0  0  0
  3 24  2  0  0  0  0
  4 28  2  0  0  0  0
  5 10  1  0  0  0  0
  5 15  1  0  0  0  0
  5 38  1  0  0  0  0
  6 14  1  0  0  0  0
  6 24  1  0  0  0  0
  6 41  1  0  0  0  0
  7  9  1  0  0  0  0
  7 15  2  0  0  0  0
  8 25  1  0  0  0  0
  8 28  1  0  0  0  0
  8 53  1  0  0  0  0
  9 26  2  0  0  0  0
 10 11  1  0  0  0  0
 10 12  1  0  0  0  0
 10 13  1  0  0  0  0
 11 29  1  0  0  0  0
 11 30  1  0  0  0  0
 11 31  1  0  0  0  0
 12 32  1  0  0  0  0
 12 33  1  0  0  0  0
 12 34  1  0  0  0  0
 13 35  1  0  0  0  0
 13 36  1  0  0  0  0
 13 37  1  0  0  0  0
 14 16  2  0  0  0  0
 14 17  1  0  0  0  0
 16 19  1  0  0  0  0
 16 21  1  0  0  0  0
 17 20  2  0  0  0  0
 17 22  1  0  0  0  0
 18 19  2  0  0  0  0
 18 20  1  0  0  0  0
 18 23  1  0  0  0  0
 19 39  1  0  0  0  0
 20 40  1  0  0  0  0
 21 42  1  0  0  0  0
 21 43  1  0  0  0  0
 21 44  1  0  0  0  0
 22 45  1  0  0  0  0
 22 46  1  0  0  0  0
 22 47  1  0  0  0  0
 23 48  1  0  0  0  0
 23 49  1  0  0  0  0
 23 50  1  0  0  0  0
 24 25  1  0  0  0  0
 25 51  1  0  0  0  0
 25 52  1  0  0  0  0
 27 28  1  0  0  0  0
 27 54  1  0  0  0  0
 27 55  1  0  0  0  0
M  END
> <PUBCHEM_COMPOUND_CID>
17395589

> <PUBCHEM_CONFORMER_RMSD>
1.2

> <PUBCHEM_CONFORMER_DIVERSEORDER>
1
15
8
47
26
65
52
14
36
40
18
3
55
5
39
43
34
49
64
45
38
53
12
48
46
9
25
28
17
44
60
51
29
13
61
63
58
4
2
54
32
62
21
10
35
42
59
57
50
56
27
16
37
31
7
24
20
22
23
41
30
6
19
33
11

> <PUBCHEM_MMFF94_PARTIAL_CHARGES>
30
1 -0.08
10 0.37
14 0.12
15 0.46
16 -0.14
17 -0.14
18 -0.14
19 -0.15
2 -0.29
20 -0.15
21 0.14
22 0.14
23 0.14
24 0.57
25 0.36
26 0.43
27 0.29
28 0.57
3 -0.57
38 0.4
39 0.15
4 -0.57
40 0.15
41 0.37
5 -0.85
53 0.37
6 -0.55
7 -0.34
8 -0.73
9 -0.34

> <PUBCHEM_EFFECTIVE_ROTOR_COUNT>
10

> <PUBCHEM_PHARMACOPHORE_FEATURES>
10
1 3 acceptor
1 4 acceptor
1 5 donor
1 6 donor
1 8 donor
1 9 acceptor
3 5 7 15 cation
4 10 11 12 13 hydrophobe
5 1 7 9 15 26 rings
6 14 16 17 18 19 20 rings

> <PUBCHEM_HEAVY_ATOM_COUNT>
28

> <PUBCHEM_ATOM_DEF_STEREO_COUNT>
0

> <PUBCHEM_ATOM_UDEF_STEREO_COUNT>
0

> <PUBCHEM_BOND_DEF_STEREO_COUNT>
0

> <PUBCHEM_BOND_UDEF_STEREO_COUNT>
0

> <PUBCHEM_ISOTOPIC_ATOM_COUNT>
0

> <PUBCHEM_COMPONENT_COUNT>
1

> <PUBCHEM_CACTVS_TAUTO_COUNT>
8

> <PUBCHEM_CONFORMER_ID>
01096F8500000001

> <PUBCHEM_MMFF94_ENERGY>
76.2885

> <PUBCHEM_FEATURE_SELFOVERLAP>
50.743

> <PUBCHEM_SHAPE_FINGERPRINT>
10064457 181 18264749043942304860
10119406 146 17900796526990610126
108634 29 18260818277314885550
11014199 57 17112130201491698639
11370993 70 18343584057391191108
12156800 1 17834148292866915387
12422481 6 17837738207269633619
13402501 40 18191580861576998043
1361 2 18271531905610077565
13617811 41 18200888296922113813
14251764 3 18060134362229387396
14787075 74 18187363242141030989
17138139 8 17825130128839911471
17492 54 18411693309637456684
19930381 70 18197497535324693013
20764821 26 18409728417950325603
20775438 99 17896906294750851287
238 59 18269840968025870529
3052486 1 17985834730764533095
35225 105 18055940730360068602
469060 322 17772447046459834763
484989 97 18339070497766952479
6669772 16 18264511549662561066

> <PUBCHEM_SHAPE_MULTIPOLES>
547.28
7.86
4.99
2.18
1.54
6.98
0.22
-4.09
-3.24
-0.59
1.28
0.77
-1.05
0.66

> <PUBCHEM_SHAPE_SELFOVERLAP>
1105.078

> <PUBCHEM_SHAPE_VOLUME>
324.1

> <PUBCHEM_COORDINATE_TYPE>
2
5
10

$$$$

