441472
  -OEChem-07051212553D

 37 38  0     1  0  0  0  0  0999 V2000
   -3.4784   -1.5259   -0.6116 O   0  0  0  0  0  0  0  0  0  0  0  0
   -0.6672    0.4882   -0.7553 O   0  0  0  0  0  0  0  0  0  0  0  0
    1.1529   -0.8304   -0.1288 O   0  0  0  0  0  0  0  0  0  0  0  0
    1.0596    2.7169   -0.9990 O   0  0  0  0  0  0  0  0  0  0  0  0
    3.4132    2.4820    0.7577 O   0  0  0  0  0  0  0  0  0  0  0  0
    4.7001   -0.0799    0.3883 O   0  0  0  0  0  0  0  0  0  0  0  0
   -4.7000    1.7279    0.5460 O   0  0  0  0  0  0  0  0  0  0  0  0
    2.1395   -3.3947   -0.2125 O   0  0  0  0  0  0  0  0  0  0  0  0
   -2.1561   -0.3536    2.3134 N   0  0  0  0  0  0  0  0  0  0  0  0
   -2.8222   -0.4264   -1.2285 C   0  0  1  0  0  0  0  0  0  0  0  0
   -3.4834   -0.2775    0.0927 C   0  0  1  0  0  0  0  0  0  0  0  0
    1.3796    1.5867   -0.1881 C   0  0  1  0  0  0  0  0  0  0  0  0
    0.7514    0.3471   -0.8250 C   0  0  2  0  0  0  0  0  0  0  0  0
    2.8986    1.4498   -0.0851 C   0  0  2  0  0  0  0  0  0  0  0  0
    3.2931    0.1032    0.5219 C   0  0  1  0  0  0  0  0  0  0  0  0
   -1.3255   -0.6298   -1.3300 C   0  0  0  0  0  0  0  0  0  0  0  0
    2.5645   -1.0440   -0.1820 C   0  0  1  0  0  0  0  0  0  0  0  0
   -4.8204    0.3668    0.1261 C   0  0  0  0  0  0  0  0  0  0  0  0
    2.8517   -2.3871    0.4818 C   0  0  0  0  0  0  0  0  0  0  0  0
   -2.7510   -0.3194    1.3181 C   0  0  0  0  0  0  0  0  0  0  0  0
   -3.2604    0.0265   -2.1067 H   0  0  0  0  0  0  0  0  0  0  0  0
    0.9468    1.7740    0.8019 H   0  0  0  0  0  0  0  0  0  0  0  0
    1.0351    0.2708   -1.8837 H   0  0  0  0  0  0  0  0  0  0  0  0
    3.3662    1.5903   -1.0675 H   0  0  0  0  0  0  0  0  0  0  0  0
    3.0631    0.1056    1.5944 H   0  0  0  0  0  0  0  0  0  0  0  0
   -1.0522   -0.7198   -2.3877 H   0  0  0  0  0  0  0  0  0  0  0  0
   -1.0368   -1.5563   -0.8197 H   0  0  0  0  0  0  0  0  0  0  0  0
    2.8662   -1.1152   -1.2359 H   0  0  0  0  0  0  0  0  0  0  0  0
   -5.4786   -0.1426    0.8383 H   0  0  0  0  0  0  0  0  0  0  0  0
   -5.3230    0.3571   -0.8477 H   0  0  0  0  0  0  0  0  0  0  0  0
    2.5162   -2.3989    1.5242 H   0  0  0  0  0  0  0  0  0  0  0  0
    3.9166   -2.6345    0.4513 H   0  0  0  0  0  0  0  0  0  0  0  0
    1.4365    2.5701   -1.8833 H   0  0  0  0  0  0  0  0  0  0  0  0
    4.3764    2.3592    0.8133 H   0  0  0  0  0  0  0  0  0  0  0  0
    4.9129   -0.0907   -0.5606 H   0  0  0  0  0  0  0  0  0  0  0  0
   -4.1590    2.1884   -0.1183 H   0  0  0  0  0  0  0  0  0  0  0  0
    1.1956   -3.1619   -0.1824 H   0  0  0  0  0  0  0  0  0  0  0  0
  1 10  1  0  0  0  0
  1 11  1  0  0  0  0
  2 13  1  0  0  0  0
  2 16  1  0  0  0  0
  3 13  1  0  0  0  0
  3 17  1  0  0  0  0
  4 12  1  0  0  0  0
  4 33  1  0  0  0  0
  5 14  1  0  0  0  0
  5 34  1  0  0  0  0
  6 15  1  0  0  0  0
  6 35  1  0  0  0  0
  7 18  1  0  0  0  0
  7 36  1  0  0  0  0
  8 19  1  0  0  0  0
  8 37  1  0  0  0  0
  9 20  3  0  0  0  0
 10 11  1  0  0  0  0
 10 16  1  0  0  0  0
 10 21  1  0  0  0  0
 11 18  1  0  0  0  0
 11 20  1  0  0  0  0
 12 13  1  0  0  0  0
 12 14  1  0  0  0  0
 12 22  1  0  0  0  0
 13 23  1  0  0  0  0
 14 15  1  0  0  0  0
 14 24  1  0  0  0  0
 15 17  1  0  0  0  0
 15 25  1  0  0  0  0
 16 26  1  0  0  0  0
 16 27  1  0  0  0  0
 17 19  1  0  0  0  0
 17 28  1  0  0  0  0
 18 29  1  0  0  0  0
 18 30  1  0  0  0  0
 19 31  1  0  0  0  0
 19 32  1  0  0  0  0
M  END
> <PUBCHEM_COMPOUND_CID>
441472

> <PUBCHEM_CONFORMER_RMSD>
0.8

> <PUBCHEM_CONFORMER_DIVERSEORDER>
2
56
118
148
169
136
104
8
121
171
49
133
99
37
122
151
3
68
70
130
116
131
85
153
44
174
11
154
173
78
4
87
159
128
89
162
67
92
124
129
91
172
146
167
101
175
29
40
88
97
64
170
45
132
152
5
83
50
115
157
65
86
137
155
145
125
141
150
47
158
20
19
46
164
108
119
149
81
77
38
57
13
28
166
93
126
127
1
106
79
14
94
90
60
55
96
26
15
52
139
16
135
12
100
114
161
24
54
43
74
18
7
30
59
147
33
123
17
117
120
69
109
58
61
165
73
138
84
51
144
168
113
107
134
163
42
36
41
66
72
53
142
143
63
103
140
6
105
80
34
22
9
25
160
76
71
112
31
102
23
156
10
48
35
32
111
27
98
62
82
21
110
75
39
95

> <PUBCHEM_MMFF94_PARTIAL_CHARGES>
26
1 -0.3
10 -0.05
11 0.16
12 0.28
13 0.56
14 0.28
15 0.28
16 0.38
17 0.28
18 0.38
19 0.28
2 -0.56
20 0.45
21 0.1
3 -0.56
33 0.4
34 0.4
35 0.4
36 0.4
37 0.4
4 -0.68
5 -0.68
6 -0.68
7 -0.68
8 -0.68
9 -0.56

> <PUBCHEM_EFFECTIVE_ROTOR_COUNT>
6.8

> <PUBCHEM_PHARMACOPHORE_FEATURES>
15
1 1 acceptor
1 2 acceptor
1 3 acceptor
1 4 acceptor
1 4 donor
1 5 acceptor
1 5 donor
1 6 acceptor
1 6 donor
1 7 acceptor
1 7 donor
1 8 acceptor
1 8 donor
1 9 acceptor
6 3 12 13 14 15 17 rings

> <PUBCHEM_HEAVY_ATOM_COUNT>
20

> <PUBCHEM_ATOM_DEF_STEREO_COUNT>
5

> <PUBCHEM_ATOM_UDEF_STEREO_COUNT>
2

> <PUBCHEM_BOND_DEF_STEREO_COUNT>
0

> <PUBCHEM_BOND_UDEF_STEREO_COUNT>
0

> <PUBCHEM_ISOTOPIC_ATOM_COUNT>
0

> <PUBCHEM_COMPONENT_COUNT>
1

> <PUBCHEM_CACTVS_TAUTO_COUNT>
1

> <PUBCHEM_CONFORMER_ID>
0006BC8000000002

> <PUBCHEM_MMFF94_ENERGY>
44.868

> <PUBCHEM_FEATURE_SELFOVERLAP>
76.177

> <PUBCHEM_SHAPE_FINGERPRINT>
10366900 7 17988925543828315383
10498660 4 15719393902164514593
11089746 13 17676498241075371084
11370993 70 18340205181076873795
11471102 22 18342178868973025798
11578080 2 17389708242552375241
11640471 11 17821721719855374531
12107183 9 17902509625565631507
12236239 1 17822013098868427190
12553582 1 18194411206423455062
12596602 18 17531257119086193490
12633257 1 17274269339714758545
12892183 10 18411974737907538525
13140716 1 18267878181452800770
13533116 47 18411136940217881095
13583140 156 18261669282113633987
13965767 371 17461409659146998409
14178342 30 18193290593383547838
14386348 63 17561080323627272019
14790565 3 18125997166440048380
14844126 61 17044315614151411298
15375358 24 17703800192929703543
15527383 91 18411982498475709500
15635459 17 18059859480017082554
19049666 15 17773891954640029487
20157964 124 18335143137649621653
20233049 118 16950285096116702200
20645477 70 18271545137992612966
20715895 44 17681547362560149649
20739085 24 18343584015085667892
21065199 12 18341610408871930281
21427221 339 17750779137866273154
21503847 285 18260825995165348708
2255824 54 18341328873523182220
23048698 100 18113615668692683635
23557571 272 14129348343237860143
341906 21 16443067218254366281
474 4 18265618684503962904
633830 44 18188491251230484420
7097593 13 18408606980662014719
81228 2 17702105969949821508
8272917 22 18409445912012489838

> <PUBCHEM_SHAPE_MULTIPOLES>
359.66
8.95
2.57
1.29
4.84
0.45
0.39
-0.78
1.91
-2.87
-0.12
1
0.06
-0.28

> <PUBCHEM_SHAPE_SELFOVERLAP>
733.407

> <PUBCHEM_SHAPE_VOLUME>
204.6

> <PUBCHEM_COORDINATE_TYPE>
2
5
10

$$$$

