586316
  -OEChem-06241222463D

 17 17  0     0  0  0  0  0  0999 V2000
    3.0013   -1.4378    0.0003 O   0  0  0  0  0  0  0  0  0  0  0  0
   -3.9739   -0.4987    0.0008 O   0  0  0  0  0  0  0  0  0  0  0  0
   -2.7960    0.2530    0.0003 N   0  0  0  0  0  0  0  0  0  0  0  0
   -0.3960   -0.0801   -0.0006 C   0  0  0  0  0  0  0  0  0  0  0  0
    0.6557   -0.9964   -0.0003 C   0  0  0  0  0  0  0  0  0  0  0  0
   -0.1282    1.2889   -0.0004 C   0  0  0  0  0  0  0  0  0  0  0  0
    1.9750   -0.5439    0.0002 C   0  0  0  0  0  0  0  0  0  0  0  0
    1.1911    1.7415    0.0002 C   0  0  0  0  0  0  0  0  0  0  0  0
    2.2428    0.8250    0.0004 C   0  0  0  0  0  0  0  0  0  0  0  0
   -1.7718   -0.5516   -0.0008 C   0  0  0  0  0  0  0  0  0  0  0  0
    0.4565   -2.0655   -0.0004 H   0  0  0  0  0  0  0  0  0  0  0  0
   -0.9271    2.0256   -0.0006 H   0  0  0  0  0  0  0  0  0  0  0  0
    1.3999    2.8073    0.0004 H   0  0  0  0  0  0  0  0  0  0  0  0
    3.2661    1.1906    0.0007 H   0  0  0  0  0  0  0  0  0  0  0  0
   -1.9280   -1.6462   -0.0012 H   0  0  0  0  0  0  0  0  0  0  0  0
    3.8433   -0.9509    0.0006 H   0  0  0  0  0  0  0  0  0  0  0  0
   -4.6507    0.1991    0.0016 H   0  0  0  0  0  0  0  0  0  0  0  0
  1  7  1  0  0  0  0
  1 16  1  0  0  0  0
  2  3  1  0  0  0  0
  2 17  1  0  0  0  0
  3 10  2  0  0  0  0
  4  5  2  0  0  0  0
  4  6  1  0  0  0  0
  4 10  1  0  0  0  0
  5  7  1  0  0  0  0
  5 11  1  0  0  0  0
  6  8  2  0  0  0  0
  6 12  1  0  0  0  0
  7  9  2  0  0  0  0
  8  9  1  0  0  0  0
  8 13  1  0  0  0  0
  9 14  1  0  0  0  0
 10 15  1  0  0  0  0
M  END
> <PUBCHEM_COMPOUND_CID>
586316

> <PUBCHEM_CONFORMER_RMSD>
0.4

> <PUBCHEM_CONFORMER_DIVERSEORDER>
1

> <PUBCHEM_MMFF94_PARTIAL_CHARGES>
17
1 -0.53
10 0.3
11 0.15
12 0.15
13 0.15
14 0.15
15 0.06
16 0.45
17 0.4
2 -0.34
3 -0.51
4 0.09
5 -0.15
6 -0.15
7 0.08
8 -0.15
9 -0.15

> <PUBCHEM_EFFECTIVE_ROTOR_COUNT>
1

> <PUBCHEM_PHARMACOPHORE_FEATURES>
4
1 1 donor
1 2 anion
1 3 acceptor
6 4 5 6 7 8 9 rings

> <PUBCHEM_HEAVY_ATOM_COUNT>
10

> <PUBCHEM_ATOM_DEF_STEREO_COUNT>
0

> <PUBCHEM_ATOM_UDEF_STEREO_COUNT>
0

> <PUBCHEM_BOND_DEF_STEREO_COUNT>
0

> <PUBCHEM_BOND_UDEF_STEREO_COUNT>
1

> <PUBCHEM_ISOTOPIC_ATOM_COUNT>
0

> <PUBCHEM_COMPONENT_COUNT>
1

> <PUBCHEM_CACTVS_TAUTO_COUNT>
18

> <PUBCHEM_CONFORMER_ID>
0008F24C00000001

> <PUBCHEM_MMFF94_ENERGY>
21.9374

> <PUBCHEM_FEATURE_SELFOVERLAP>
20.297

> <PUBCHEM_SHAPE_FINGERPRINT>
10219947 1 18261109681749568887
12032990 46 18410851109363578022
12932764 1 17604152523820344033
14325111 11 18410573942697637345
161256 15 18412831295677572916
16945 1 18338517430691034500
20201158 50 18342738528712719915
20645477 70 18410298008371683343
20871998 22 18189329255047397318
21040471 1 17978510828235850340
23402655 69 18408612448582657029
23552333 60 18333447629904318072
23552423 10 18272647986978490148
2748010 2 17763175839686003556
29004967 10 18341892970016502496

> <PUBCHEM_SHAPE_MULTIPOLES>
189.08
4.69
1.53
0.59
4.19
0.31
0
-1.26
0
-1.01
0
-0.04
0.02
0

> <PUBCHEM_SHAPE_SELFOVERLAP>
392.008

> <PUBCHEM_SHAPE_VOLUME>
108.3

> <PUBCHEM_COORDINATE_TYPE>
2
5
10

$$$$

