11404
  -OEChem-06261205383D

 33 33  0     1  0  0  0  0  0999 V2000
    4.1746    2.0048   -0.0173 F   0  0  0  0  0  0  0  0  0  0  0  0
    0.0199   -0.3754   -1.9572 O   0  0  0  0  0  0  0  0  0  0  0  0
   -2.1548    0.1981   -0.1596 N   0  0  0  0  0  0  0  0  0  0  0  0
   -0.7591    0.3292    0.2338 C   0  0  0  0  0  0  0  0  0  0  0  0
    0.1247   -0.6414   -0.5591 C   0  0  2  0  0  0  0  0  0  0  0  0
   -3.0002    1.1002    0.6135 C   0  0  0  0  0  0  0  0  0  0  0  0
   -4.4621    0.9439    0.1982 C   0  0  0  0  0  0  0  0  0  0  0  0
   -4.9466   -0.4909    0.4106 C   0  0  0  0  0  0  0  0  0  0  0  0
    1.5793   -0.5173   -0.1618 C   0  0  0  0  0  0  0  0  0  0  0  0
   -6.4110   -0.6464    0.0329 C   0  0  0  0  0  0  0  0  0  0  0  0
    2.2089    0.7098   -0.2790 C   0  0  0  0  0  0  0  0  0  0  0  0
    2.2484   -1.6328    0.3112 C   0  0  0  0  0  0  0  0  0  0  0  0
    3.5497    0.8248    0.0884 C   0  0  0  0  0  0  0  0  0  0  0  0
    3.5889   -1.5177    0.6785 C   0  0  0  0  0  0  0  0  0  0  0  0
    4.2396   -0.2890    0.5672 C   0  0  0  0  0  0  0  0  0  0  0  0
   -0.4499    1.3656    0.0530 H   0  0  0  0  0  0  0  0  0  0  0  0
   -0.6463    0.1267    1.3064 H   0  0  0  0  0  0  0  0  0  0  0  0
   -0.2203   -1.6707   -0.3975 H   0  0  0  0  0  0  0  0  0  0  0  0
   -2.6978    2.1419    0.4526 H   0  0  0  0  0  0  0  0  0  0  0  0
   -2.9061    0.8860    1.6850 H   0  0  0  0  0  0  0  0  0  0  0  0
   -4.5858    1.2273   -0.8546 H   0  0  0  0  0  0  0  0  0  0  0  0
   -5.0759    1.6339    0.7896 H   0  0  0  0  0  0  0  0  0  0  0  0
   -2.2579    0.4060   -1.1520 H   0  0  0  0  0  0  0  0  0  0  0  0
   -4.8161   -0.7767    1.4610 H   0  0  0  0  0  0  0  0  0  0  0  0
   -4.3622   -1.1945   -0.1927 H   0  0  0  0  0  0  0  0  0  0  0  0
   -6.7373   -1.6784    0.1954 H   0  0  0  0  0  0  0  0  0  0  0  0
   -7.0443    0.0092    0.6392 H   0  0  0  0  0  0  0  0  0  0  0  0
   -6.5722   -0.4010   -1.0217 H   0  0  0  0  0  0  0  0  0  0  0  0
    1.6942    1.5851   -0.6627 H   0  0  0  0  0  0  0  0  0  0  0  0
    1.7527   -2.5948    0.4028 H   0  0  0  0  0  0  0  0  0  0  0  0
   -0.8783   -0.6207   -2.2359 H   0  0  0  0  0  0  0  0  0  0  0  0
    4.1263   -2.3847    1.0513 H   0  0  0  0  0  0  0  0  0  0  0  0
    5.2833   -0.1991    0.8534 H   0  0  0  0  0  0  0  0  0  0  0  0
  1 13  1  0  0  0  0
  2  5  1  0  0  0  0
  2 31  1  0  0  0  0
  3  4  1  0  0  0  0
  3  6  1  0  0  0  0
  3 23  1  0  0  0  0
  4  5  1  0  0  0  0
  4 16  1  0  0  0  0
  4 17  1  0  0  0  0
  5  9  1  0  0  0  0
  5 18  1  0  0  0  0
  6  7  1  0  0  0  0
  6 19  1  0  0  0  0
  6 20  1  0  0  0  0
  7  8  1  0  0  0  0
  7 21  1  0  0  0  0
  7 22  1  0  0  0  0
  8 10  1  0  0  0  0
  8 24  1  0  0  0  0
  8 25  1  0  0  0  0
  9 11  2  0  0  0  0
  9 12  1  0  0  0  0
 10 26  1  0  0  0  0
 10 27  1  0  0  0  0
 10 28  1  0  0  0  0
 11 13  1  0  0  0  0
 11 29  1  0  0  0  0
 12 14  2  0  0  0  0
 12 30  1  0  0  0  0
 13 15  2  0  0  0  0
 14 15  1  0  0  0  0
 14 32  1  0  0  0  0
 15 33  1  0  0  0  0
M  END
> <PUBCHEM_COMPOUND_CID>
11404

> <PUBCHEM_CONFORMER_RMSD>
0.6

> <PUBCHEM_CONFORMER_DIVERSEORDER>
8
62
231
241
168
150
95
140
219
112
131
260
120
51
107
134
11
108
265
129
91
61
117
132
261
166
211
148
180
40
9
266
222
119
136
13
218
127
24
93
197
28
223
49
60
17
29
226
19
209
104
101
190
189
73
130
2
254
3
186
243
41
204
154
111
126
27
46
25
143
249
248
99
161
63
194
103
89
242
36
64
263
274
7
83
100
110
157
50
169
52
183
32
56
253
37
268
258
192
77
20
105
239
272
234
43
207
262
201
216
6
67
53
167
65
4
141
229
116
84
146
225
26
245
1
205
247
257
156
138
76
74
271
147
221
38
185
5
115
165
149
97
200
88
66
196
214
240
135
57
80
173
78
164
21
224
237
16
45
12
236
15
178
90
246
230
42
162
191
259
212
144
139
85
193
267
123
22
155
72
172
270
142
137
98
133
195
152
33
206
255
215
10
199
228
252
122
145
69
269
174
14
202
86
227
96
256
128
79
121
39
251
55
188
70
118
250
113
175
47
171
187
264
232
106
109
235
94
244
213
179
177
124
102
18
158
210
71
220
233
87
184
114
203
59
273
44
159
125
23
198
54
176
153
182
238
58
68
81
217
181
208
170
92
31
151
163
35
82
160
48
30
75
34

> <PUBCHEM_MMFF94_PARTIAL_CHARGES>
18
1 -0.19
11 -0.15
12 -0.15
13 0.19
14 -0.15
15 -0.15
2 -0.68
23 0.36
29 0.15
3 -0.9
30 0.15
31 0.4
32 0.15
33 0.15
4 0.27
5 0.42
6 0.27
9 -0.14

> <PUBCHEM_EFFECTIVE_ROTOR_COUNT>
6

> <PUBCHEM_PHARMACOPHORE_FEATURES>
6
1 10 hydrophobe
1 2 acceptor
1 2 donor
1 3 cation
1 3 donor
6 9 11 12 13 14 15 rings

> <PUBCHEM_HEAVY_ATOM_COUNT>
15

> <PUBCHEM_ATOM_DEF_STEREO_COUNT>
0

> <PUBCHEM_ATOM_UDEF_STEREO_COUNT>
1

> <PUBCHEM_BOND_DEF_STEREO_COUNT>
0

> <PUBCHEM_BOND_UDEF_STEREO_COUNT>
0

> <PUBCHEM_ISOTOPIC_ATOM_COUNT>
0

> <PUBCHEM_COMPONENT_COUNT>
1

> <PUBCHEM_CACTVS_TAUTO_COUNT>
1

> <PUBCHEM_CONFORMER_ID>
00002C8C00000008

> <PUBCHEM_MMFF94_ENERGY>
18.7268

> <PUBCHEM_FEATURE_SELFOVERLAP>
30.448

> <PUBCHEM_SHAPE_FINGERPRINT>
10354089 29 18408605864265741272
10366900 7 17917417761686815728
10912923 1 18260826021119665281
12107183 9 17618504723975430065
124424 183 13326848938239866581
12916748 109 15936407849059208170
13167823 11 18411703218464956371
13533116 47 18273216434363911531
14123238 8 18113336410404362035
14252887 29 17060337452682053624
14366163 111 7204770384668040167
14848160 23 17847062177774275779
15342168 16 17986669269323827020
15848700 24 15913325814352887831
17834072 33 18411139125881169291
17834072 8 11024109858624756051
18222031 100 16343699949815598847
20369508 70 13614514138938294230
20645477 70 18341613767025120610
22224240 67 17703793575039241384
23402539 116 18341618144298051485
31174 14 17988933309783197126
32948 21 10807937059489618191
4047638 21 14273461379229275030
42 15 18201718500381454291
474229 33 18186239520368436039
4990 188 5833987247934034861
5104073 3 18339920510971296105
5374978 207 18411700993365656225
69090 78 18131350817214037843
7495541 125 18041002808756549643
9971528 1 17203887483228234559

> <PUBCHEM_SHAPE_MULTIPOLES>
290.57
12.34
1.48
0.93
16.65
0.12
0.34
-0.4
-2.36
-1.3
-0.17
-0.08
-0.11
-0.45

> <PUBCHEM_SHAPE_SELFOVERLAP>
579.28

> <PUBCHEM_SHAPE_VOLUME>
173

> <PUBCHEM_COORDINATE_TYPE>
2
5
10

$$$$

