39985
  -OEChem-07051213003D

 36 37  0     1  0  0  0  0  0999 V2000
   -4.0296   -1.0837   -2.3832 Cl  0  0  0  0  0  0  0  0  0  0  0  0
   -5.5099    3.1065    0.6610 Cl  0  0  0  0  0  0  0  0  0  0  0  0
    3.2389   -1.1054    0.1478 O   0  0  0  0  0  0  0  0  0  0  0  0
   -2.2351   -1.7166   -0.0570 O   0  0  0  0  0  0  0  0  0  0  0  0
    4.9459    2.0391    0.0424 O   0  0  0  0  0  0  0  0  0  0  0  0
    4.7391    0.3617   -1.5267 O   0  0  0  0  0  0  0  0  0  0  0  0
    3.7289    0.1204    0.6684 C   0  0  1  0  0  0  0  0  0  0  0  0
    1.8767   -1.2576    0.0972 C   0  0  0  0  0  0  0  0  0  0  0  0
   -0.8835   -1.5647   -0.0055 C   0  0  0  0  0  0  0  0  0  0  0  0
    4.5890   -0.1915    1.8804 C   0  0  0  0  0  0  0  0  0  0  0  0
    1.1141   -0.3702   -0.6526 C   0  0  0  0  0  0  0  0  0  0  0  0
    1.2749   -2.2971    0.7961 C   0  0  0  0  0  0  0  0  0  0  0  0
   -0.2712   -0.5244   -0.7039 C   0  0  0  0  0  0  0  0  0  0  0  0
   -0.1106   -2.4512    0.7445 C   0  0  0  0  0  0  0  0  0  0  0  0
    4.5285    0.8208   -0.4116 C   0  0  0  0  0  0  0  0  0  0  0  0
   -3.0163   -0.5828    0.0912 C   0  0  0  0  0  0  0  0  0  0  0  0
   -3.8823   -0.1909   -0.9147 C   0  0  0  0  0  0  0  0  0  0  0  0
   -2.9016    0.1359    1.2691 C   0  0  0  0  0  0  0  0  0  0  0  0
   -4.6576    0.9552   -0.7380 C   0  0  0  0  0  0  0  0  0  0  0  0
   -3.6768    1.2818    1.4458 C   0  0  0  0  0  0  0  0  0  0  0  0
   -4.5549    1.6915    0.4423 C   0  0  0  0  0  0  0  0  0  0  0  0
    5.6932    2.8233   -0.8930 C   0  0  0  0  0  0  0  0  0  0  0  0
    2.9112    0.7887    0.9694 H   0  0  0  0  0  0  0  0  0  0  0  0
    4.9806    0.7186    2.3453 H   0  0  0  0  0  0  0  0  0  0  0  0
    4.0130   -0.7448    2.6299 H   0  0  0  0  0  0  0  0  0  0  0  0
    5.4406   -0.8233    1.6029 H   0  0  0  0  0  0  0  0  0  0  0  0
    1.5794    0.4360   -1.2123 H   0  0  0  0  0  0  0  0  0  0  0  0
    1.8735   -2.9888    1.3818 H   0  0  0  0  0  0  0  0  0  0  0  0
   -0.8449    0.1688   -1.3129 H   0  0  0  0  0  0  0  0  0  0  0  0
   -0.5821   -3.2634    1.2909 H   0  0  0  0  0  0  0  0  0  0  0  0
   -2.2310   -0.1774    2.0640 H   0  0  0  0  0  0  0  0  0  0  0  0
   -5.3428    1.2758   -1.5200 H   0  0  0  0  0  0  0  0  0  0  0  0
   -3.5880    1.8445    2.3715 H   0  0  0  0  0  0  0  0  0  0  0  0
    5.0834    3.0441   -1.7743 H   0  0  0  0  0  0  0  0  0  0  0  0
    6.6106    2.2996   -1.1783 H   0  0  0  0  0  0  0  0  0  0  0  0
    5.9631    3.7651   -0.4080 H   0  0  0  0  0  0  0  0  0  0  0  0
  1 17  1  0  0  0  0
  2 21  1  0  0  0  0
  3  7  1  0  0  0  0
  3  8  1  0  0  0  0
  4  9  1  0  0  0  0
  4 16  1  0  0  0  0
  5 15  1  0  0  0  0
  5 22  1  0  0  0  0
  6 15  2  0  0  0  0
  7 10  1  0  0  0  0
  7 15  1  0  0  0  0
  7 23  1  0  0  0  0
  8 11  2  0  0  0  0
  8 12  1  0  0  0  0
  9 13  2  0  0  0  0
  9 14  1  0  0  0  0
 10 24  1  0  0  0  0
 10 25  1  0  0  0  0
 10 26  1  0  0  0  0
 11 13  1  0  0  0  0
 11 27  1  0  0  0  0
 12 14  2  0  0  0  0
 12 28  1  0  0  0  0
 13 29  1  0  0  0  0
 14 30  1  0  0  0  0
 16 17  2  0  0  0  0
 16 18  1  0  0  0  0
 17 19  1  0  0  0  0
 18 20  2  0  0  0  0
 18 31  1  0  0  0  0
 19 21  2  0  0  0  0
 19 32  1  0  0  0  0
 20 21  1  0  0  0  0
 20 33  1  0  0  0  0
 22 34  1  0  0  0  0
 22 35  1  0  0  0  0
 22 36  1  0  0  0  0
M  END
> <PUBCHEM_COMPOUND_CID>
39985

> <PUBCHEM_CONFORMER_RMSD>
0.8

> <PUBCHEM_CONFORMER_DIVERSEORDER>
1
115
167
168
103
109
143
7
185
148
169
188
63
152
154
111
119
190
35
165
144
53
69
120
156
48
140
56
46
193
71
192
17
180
99
182
122
184
44
10
74
76
38
189
164
96
82
125
23
158
135
146
40
49
116
159
39
157
177
187
57
127
21
153
172
50
166
129
149
155
170
59
60
162
110
94
181
163
108
173
147
70
43
22
66
175
54
134
174
100
20
28
62
145
83
98
15
118
72
178
161
73
112
160
130
13
102
61
183
2
45
136
101
41
75
138
133
106
9
18
47
12
142
64
114
117
25
31
11
30
19
34
97
126
65
171
88
139
4
124
131
24
77
37
176
95
90
137
32
150
86
42
87
81
29
26
151
14
179
27
3
107
84
8
128
105
52
191
58
121
104
186
16
123
33
113
132
5
68
85
51
36
6
93
91
141
78
89
92
80
55
79
67

> <PUBCHEM_MMFF94_PARTIAL_CHARGES>
28
1 -0.18
11 -0.15
12 -0.15
13 -0.15
14 -0.15
15 0.66
16 0.08
17 0.18
18 -0.15
19 -0.15
2 -0.18
20 -0.15
21 0.18
22 0.28
27 0.15
28 0.15
29 0.15
3 -0.36
30 0.15
31 0.15
32 0.15
33 0.15
4 -0.17
5 -0.43
6 -0.57
7 0.34
8 0.08
9 0.08

> <PUBCHEM_EFFECTIVE_ROTOR_COUNT>
6

> <PUBCHEM_PHARMACOPHORE_FEATURES>
5
1 3 acceptor
1 4 acceptor
1 6 acceptor
6 16 17 18 19 20 21 rings
6 8 9 11 12 13 14 rings

> <PUBCHEM_HEAVY_ATOM_COUNT>
22

> <PUBCHEM_ATOM_DEF_STEREO_COUNT>
0

> <PUBCHEM_ATOM_UDEF_STEREO_COUNT>
1

> <PUBCHEM_BOND_DEF_STEREO_COUNT>
0

> <PUBCHEM_BOND_UDEF_STEREO_COUNT>
0

> <PUBCHEM_ISOTOPIC_ATOM_COUNT>
0

> <PUBCHEM_COMPONENT_COUNT>
1

> <PUBCHEM_CACTVS_TAUTO_COUNT>
1

> <PUBCHEM_CONFORMER_ID>
00009C3100000001

> <PUBCHEM_MMFF94_ENERGY>
68.6432

> <PUBCHEM_FEATURE_SELFOVERLAP>
25.379

> <PUBCHEM_SHAPE_FINGERPRINT>
10319926 262 14476967834335045791
10498660 4 17458631154703425779
10670039 82 18335974346606973188
10928967 22 8358264756371475300
11089746 13 18335709325770831474
11543360 7 16805609144141869694
12390115 104 18200018552584426686
12422481 6 16845575348028785308
12596602 18 17632576046112567393
12892183 10 14620796019721779187
13103583 49 11311782816530226047
13383661 66 6335807731413579525
13583140 156 15626231194984116511
13675066 3 15482676805078044930
1420 369 9583517607646511224
14251764 38 17970362428850666920
14251764 75 18045207491725323585
14420673 8 12606299484280590641
14576447 43 8646476436767502410
14739800 52 17896909670890220498
14790565 3 18341888555065000532
14848178 5 9295290491396193072
14848178 96 18410293618629847896
15163728 17 17822558491079925839
15238133 3 18335709334566748424
15342168 16 18340484577589748759
15342816 4 9439402458631718850
16994733 274 17274003370761776021
17780758 139 12319466475822722823
17959699 21 18261675973282329825
1813 80 9295285079484491859
193927 3 7853852784690014047
19784866 240 9150879573874484073
19784866 34 18341610434188280859
20281475 54 9367350344655626842
204376 136 18272933825452595787
20739085 24 17703783760854308206
22950370 63 8935001494566912410
23503958 8 11959721699201120765
235170 7 15574713586375984136
23559900 14 17024310944712659367
255183 451 16666305261138004135
268830 7 18200603595543572515
270888 7 18337668715347381137
2748736 6 18268155266994722372
283562 15 18056479448377960739
2838139 119 18187932738057309712
312425 83 17749658692514908950
341906 21 18187090541935350394
3472631 163 18115589395766593421
34797466 226 16009043739058363737
4259306 186 6771864077978675322
44062 13 7348622763821706923
474 4 18412546530555388611
5104073 3 17846781789060353130
5924683 9 15841544133852380635
6034566 193 17987224548027352916
633830 44 18410855503173417214
636775 72 18049158870576009944
76465 3 8862948260216091586
7808743 9 18340765932280910656
7970288 3 8934708981656736813

> <PUBCHEM_SHAPE_MULTIPOLES>
433.01
13.84
2.89
1.59
6.63
1.37
-0.31
12.78
-1.34
-0.17
0.23
-0.43
-0.11
-2.68

> <PUBCHEM_SHAPE_SELFOVERLAP>
901.443

> <PUBCHEM_SHAPE_VOLUME>
248.3

> <PUBCHEM_COORDINATE_TYPE>
2
5
10

$$$$

