441070
  -OEChem-07051212513D

 40 41  0     1  0  0  0  0  0999 V2000
    0.0008   -0.0080    1.4882 O   0  0  0  0  0  0  0  0  0  0  0  0
    3.7060   -0.5264   -0.6333 N   0  0  1  0  0  0  0  0  0  0  0  0
   -3.7041    0.5308   -0.6327 N   0  0  1  0  0  0  0  0  0  0  0  0
    2.5228   -0.1912    0.1713 C   0  0  1  0  0  0  0  0  0  0  0  0
   -2.5228    0.1896    0.1721 C   0  0  1  0  0  0  0  0  0  0  0  0
    2.7316    1.2938    0.4759 C   0  0  0  0  0  0  0  0  0  0  0  0
   -2.7374   -1.2952    0.4738 C   0  0  0  0  0  0  0  0  0  0  0  0
    1.2071   -0.4396   -0.5555 C   0  0  0  0  0  0  0  0  0  0  0  0
   -1.2056    0.4345   -0.5531 C   0  0  0  0  0  0  0  0  0  0  0  0
    4.2366    1.5178    0.3757 C   0  0  0  0  0  0  0  0  0  0  0  0
   -4.2432   -1.5134    0.3719 C   0  0  0  0  0  0  0  0  0  0  0  0
    4.8189    0.1575    0.0299 C   0  0  0  0  0  0  0  0  0  0  0  0
   -4.8201   -0.1503    0.0281 C   0  0  0  0  0  0  0  0  0  0  0  0
    0.0021   -0.0052    0.2582 C   0  0  0  0  0  0  0  0  0  0  0  0
    3.9464   -1.9607   -0.7368 C   0  0  0  0  0  0  0  0  0  0  0  0
   -3.9391    1.9661   -0.7337 C   0  0  0  0  0  0  0  0  0  0  0  0
    2.5384   -0.7453    1.1209 H   0  0  0  0  0  0  0  0  0  0  0  0
   -2.5368    0.7419    1.1228 H   0  0  0  0  0  0  0  0  0  0  0  0
    2.3651    1.5508    1.4757 H   0  0  0  0  0  0  0  0  0  0  0  0
    2.2193    1.9439   -0.2437 H   0  0  0  0  0  0  0  0  0  0  0  0
   -2.3728   -1.5553    1.4735 H   0  0  0  0  0  0  0  0  0  0  0  0
   -2.2268   -1.9459   -0.2465 H   0  0  0  0  0  0  0  0  0  0  0  0
    1.2004    0.1094   -1.5054 H   0  0  0  0  0  0  0  0  0  0  0  0
    1.0722   -1.5022   -0.7847 H   0  0  0  0  0  0  0  0  0  0  0  0
   -1.2008   -0.1125   -1.5042 H   0  0  0  0  0  0  0  0  0  0  0  0
   -1.0673    1.4971   -0.7804 H   0  0  0  0  0  0  0  0  0  0  0  0
    4.4504    2.2437   -0.4175 H   0  0  0  0  0  0  0  0  0  0  0  0
    4.6529    1.9090    1.3095 H   0  0  0  0  0  0  0  0  0  0  0  0
   -4.4589   -2.2371   -0.4229 H   0  0  0  0  0  0  0  0  0  0  0  0
   -4.6617   -1.9048    1.3047 H   0  0  0  0  0  0  0  0  0  0  0  0
    5.6935    0.2486   -0.6220 H   0  0  0  0  0  0  0  0  0  0  0  0
    5.1219   -0.3591    0.9499 H   0  0  0  0  0  0  0  0  0  0  0  0
   -5.6944   -0.2370   -0.6247 H   0  0  0  0  0  0  0  0  0  0  0  0
   -5.1220    0.3657    0.9489 H   0  0  0  0  0  0  0  0  0  0  0  0
    4.8643   -2.1518   -1.3039 H   0  0  0  0  0  0  0  0  0  0  0  0
    3.1359   -2.4551   -1.2816 H   0  0  0  0  0  0  0  0  0  0  0  0
    4.0449   -2.4399    0.2438 H   0  0  0  0  0  0  0  0  0  0  0  0
   -4.8559    2.1615   -1.3012 H   0  0  0  0  0  0  0  0  0  0  0  0
   -3.1264    2.4585   -1.2771 H   0  0  0  0  0  0  0  0  0  0  0  0
   -4.0365    2.4439    0.2477 H   0  0  0  0  0  0  0  0  0  0  0  0
  1 14  2  0  0  0  0
  2  4  1  0  0  0  0
  2 12  1  0  0  0  0
  2 15  1  0  0  0  0
  3  5  1  0  0  0  0
  3 13  1  0  0  0  0
  3 16  1  0  0  0  0
  4  6  1  0  0  0  0
  4  8  1  0  0  0  0
  4 17  1  0  0  0  0
  5  7  1  0  0  0  0
  5  9  1  0  0  0  0
  5 18  1  0  0  0  0
  6 10  1  0  0  0  0
  6 19  1  0  0  0  0
  6 20  1  0  0  0  0
  7 11  1  0  0  0  0
  7 21  1  0  0  0  0
  7 22  1  0  0  0  0
  8 14  1  0  0  0  0
  8 23  1  0  0  0  0
  8 24  1  0  0  0  0
  9 14  1  0  0  0  0
  9 25  1  0  0  0  0
  9 26  1  0  0  0  0
 10 12  1  0  0  0  0
 10 27  1  0  0  0  0
 10 28  1  0  0  0  0
 11 13  1  0  0  0  0
 11 29  1  0  0  0  0
 11 30  1  0  0  0  0
 12 31  1  0  0  0  0
 12 32  1  0  0  0  0
 13 33  1  0  0  0  0
 13 34  1  0  0  0  0
 15 35  1  0  0  0  0
 15 36  1  0  0  0  0
 15 37  1  0  0  0  0
 16 38  1  0  0  0  0
 16 39  1  0  0  0  0
 16 40  1  0  0  0  0
M  END
> <PUBCHEM_COMPOUND_CID>
441070

> <PUBCHEM_CONFORMER_RMSD>
0.8

> <PUBCHEM_CONFORMER_DIVERSEORDER>
1
98
49
25
40
150
75
3
130
14
107
92
48
205
99
5
60
190
46
56
85
108
70
151
154
61
178
172
87
12
109
33
103
83
115
164
97
37
53
96
145
206
64
141
6
200
73
201
18
94
187
88
29
21
138
50
42
193
8
158
66
131
213
38
62
137
169
86
198
31
113
24
202
34
124
120
58
121
76
126
152
210
179
54
26
59
175
176
74
72
41
149
82
13
11
155
207
188
195
211
17
163
105
4
91
15
79
196
170
28
116
89
203
146
128
69
142
136
51
162
125
114
129
117
153
182
161
139
7
10
106
27
67
63
192
2
160
216
159
32
209
77
189
110
140
36
134
127
30
180
133
100
55
104
157
68
183
52
166
65
119
95
177
184
45
19
9
168
167
204
144
35
122
118
191
214
173
194
102
156
186
111
199
148
78
71
22
112
197
208
93
20
147
39
215
135
212
123
174
47
185
84
16
81
181
90
132
143
165
43
171
23
57
80
101
44

> <PUBCHEM_MMFF94_PARTIAL_CHARGES>
12
1 -0.57
12 0.27
13 0.27
14 0.45
15 0.27
16 0.27
2 -0.81
3 -0.81
4 0.27
5 0.27
8 0.06
9 0.06

> <PUBCHEM_EFFECTIVE_ROTOR_COUNT>
6

> <PUBCHEM_PHARMACOPHORE_FEATURES>
5
1 1 acceptor
1 2 cation
1 3 cation
5 2 4 6 10 12 rings
5 3 5 7 11 13 rings

> <PUBCHEM_HEAVY_ATOM_COUNT>
16

> <PUBCHEM_ATOM_DEF_STEREO_COUNT>
0

> <PUBCHEM_ATOM_UDEF_STEREO_COUNT>
2

> <PUBCHEM_BOND_DEF_STEREO_COUNT>
0

> <PUBCHEM_BOND_UDEF_STEREO_COUNT>
0

> <PUBCHEM_ISOTOPIC_ATOM_COUNT>
0

> <PUBCHEM_COMPONENT_COUNT>
1

> <PUBCHEM_CACTVS_TAUTO_COUNT>
2

> <PUBCHEM_CONFORMER_ID>
0006BAEE00000001

> <PUBCHEM_MMFF94_ENERGY>
21.9199

> <PUBCHEM_FEATURE_SELFOVERLAP>
25.371

> <PUBCHEM_SHAPE_FINGERPRINT>
10014705 185 18131637798607840717
10680689 15 18202277005333816217
11287383 113 18410573950902508704
11405975 8 18338797926219776321
11471102 20 18114181930561781812
11615757 297 17458059339668479905
12616999 72 18409159988272372404
12916748 109 18060415811683928305
13167823 11 18272092703389166346
13675066 3 18410573967976856868
13760787 5 16805322193070923700
14123238 8 18410573955086680118
14573314 32 18413388756403963492
15242439 84 18411418440151635644
15961568 22 17631450073381808788
17834072 33 17822295634928900431
17834074 16 18409446977196196438
17844677 252 18410285921737541717
18186145 218 18341330071486592256
19026448 4 18410573989446418479
1986462 14 18272932734831030831
200 152 17531246183756306498
20279233 1 18411976949188253858
20281475 54 17095246912451637687
20645477 56 18272369832549875005
20645477 70 18040712602074766606
21065198 57 18410856576819658926
21065201 7 18059859479884823938
22485316 2 18333732403257812119
23402539 116 17917718988948932806
23402655 69 18259703402457235484
23557571 272 18343300366327653349
23559900 14 18337392742292010514
26918003 58 18260267447432119066
3268164 11 17632306661595174407
32948 21 18270960275326744948
3545911 37 18335419041457630500
4214541 1 18412263956293786365
4990 188 18343301487577640762
5104073 3 18410575114727850874
522135 26 18113054939627673062
5281201 14 18410852170378703980
542803 24 17894627054638355353
573450 72 17775017794496483857
633830 44 17275099531228337662
77779 3 18410292514485551557
90127 26 18201430393801412288
9709674 26 18341326704201122771

> <PUBCHEM_SHAPE_MULTIPOLES>
313.44
11.43
1.69
0.91
0.01
0.01
-0.08
0.01
0.79
0
0.2
0
0
1.44

> <PUBCHEM_SHAPE_SELFOVERLAP>
628.357

> <PUBCHEM_SHAPE_VOLUME>
188.4

> <PUBCHEM_COORDINATE_TYPE>
2
5
10

$$$$

