11542
  -OEChem-06261205483D

 23 22  0     0  0  0  0  0  0999 V2000
    0.9202    0.0238   -0.0002 C   0  0  0  0  0  0  0  0  0  0  0  0
   -0.5190    0.6026    0.0503 C   0  0  0  0  0  0  0  0  0  0  0  0
   -1.6529   -0.4273    0.0052 C   0  0  0  0  0  0  0  0  0  0  0  0
    1.2033   -0.8714    1.2174 C   0  0  0  0  0  0  0  0  0  0  0  0
    1.1500   -0.7849   -1.2876 C   0  0  0  0  0  0  0  0  0  0  0  0
    1.9128    1.2031    0.0194 C   0  0  0  0  0  0  0  0  0  0  0  0
   -3.0143    0.2540   -0.0046 C   0  0  0  0  0  0  0  0  0  0  0  0
   -0.6311    1.2054    0.9617 H   0  0  0  0  0  0  0  0  0  0  0  0
   -0.6491    1.2972   -0.7909 H   0  0  0  0  0  0  0  0  0  0  0  0
   -1.5989   -1.0922    0.8734 H   0  0  0  0  0  0  0  0  0  0  0  0
   -1.5741   -1.0489   -0.8922 H   0  0  0  0  0  0  0  0  0  0  0  0
    1.0125   -0.3358    2.1541 H   0  0  0  0  0  0  0  0  0  0  0  0
    0.5807   -1.7719    1.2116 H   0  0  0  0  0  0  0  0  0  0  0  0
    2.2486   -1.2008    1.2298 H   0  0  0  0  0  0  0  0  0  0  0  0
    2.1988   -1.0911   -1.3775 H   0  0  0  0  0  0  0  0  0  0  0  0
    0.9000   -0.1937   -2.1755 H   0  0  0  0  0  0  0  0  0  0  0  0
    0.5468   -1.6982   -1.3084 H   0  0  0  0  0  0  0  0  0  0  0  0
    1.7935    1.8056    0.9270 H   0  0  0  0  0  0  0  0  0  0  0  0
    2.9501    0.8509   -0.0112 H   0  0  0  0  0  0  0  0  0  0  0  0
    1.7609    1.8628   -0.8423 H   0  0  0  0  0  0  0  0  0  0  0  0
   -3.1240    0.9002   -0.8814 H   0  0  0  0  0  0  0  0  0  0  0  0
   -3.8122   -0.4948   -0.0330 H   0  0  0  0  0  0  0  0  0  0  0  0
   -3.1537    0.8648    0.8932 H   0  0  0  0  0  0  0  0  0  0  0  0
  1  2  1  0  0  0  0
  1  4  1  0  0  0  0
  1  5  1  0  0  0  0
  1  6  1  0  0  0  0
  2  3  1  0  0  0  0
  2  8  1  0  0  0  0
  2  9  1  0  0  0  0
  3  7  1  0  0  0  0
  3 10  1  0  0  0  0
  3 11  1  0  0  0  0
  4 12  1  0  0  0  0
  4 13  1  0  0  0  0
  4 14  1  0  0  0  0
  5 15  1  0  0  0  0
  5 16  1  0  0  0  0
  5 17  1  0  0  0  0
  6 18  1  0  0  0  0
  6 19  1  0  0  0  0
  6 20  1  0  0  0  0
  7 21  1  0  0  0  0
  7 22  1  0  0  0  0
  7 23  1  0  0  0  0
M  END
> <PUBCHEM_COMPOUND_CID>
11542

> <PUBCHEM_CONFORMER_RMSD>
0.4

> <PUBCHEM_CONFORMER_DIVERSEORDER>
1
2

> <PUBCHEM_MMFF94_PARTIAL_CHARGES>
0

> <PUBCHEM_EFFECTIVE_ROTOR_COUNT>
2

> <PUBCHEM_PHARMACOPHORE_FEATURES>
2
1 7 hydrophobe
4 1 4 5 6 hydrophobe

> <PUBCHEM_HEAVY_ATOM_COUNT>
7

> <PUBCHEM_ATOM_DEF_STEREO_COUNT>
0

> <PUBCHEM_ATOM_UDEF_STEREO_COUNT>
0

> <PUBCHEM_BOND_DEF_STEREO_COUNT>
0

> <PUBCHEM_BOND_UDEF_STEREO_COUNT>
0

> <PUBCHEM_ISOTOPIC_ATOM_COUNT>
0

> <PUBCHEM_COMPONENT_COUNT>
1

> <PUBCHEM_CACTVS_TAUTO_COUNT>
1

> <PUBCHEM_CONFORMER_ID>
00002D1600000001

> <PUBCHEM_MMFF94_ENERGY>
10.1439

> <PUBCHEM_FEATURE_SELFOVERLAP>
10.149

> <PUBCHEM_SHAPE_FINGERPRINT>
12932764 1 18131347536127671893
14390081 3 18341332215034267701
21040471 1 17346025671808466714
23552333 60 18411701014761494993
23552449 11 18271254914077621827
24536 1 18040720315545600089
29004967 10 17894623751560532827
3248919 1 18040158435471467697
5460574 1 9295294941182596305
5943 1 10715166702108997006

> <PUBCHEM_SHAPE_MULTIPOLES>
144.06
3.38
1.11
1.07
3
0.11
0.05
0.49
-0.02
-0.53
-0.03
-0.53
-0.37
-0.01

> <PUBCHEM_SHAPE_SELFOVERLAP>
253.121

> <PUBCHEM_SHAPE_VOLUME>
98.2

> <PUBCHEM_COORDINATE_TYPE>
2
5
10

$$$$

