440026
  -OEChem-07051212483D

 51 52  0     1  0  0  0  0  0999 V2000
   -3.6841    0.8817    0.8455 P   0  0  1  0  0  0  0  0  0  0  0  0
   -3.4951   -1.8840   -0.1407 P   0  0  1  0  0  0  0  0  0  0  0  0
    0.9485    2.6590    0.5951 O   0  0  0  0  0  0  0  0  0  0  0  0
   -0.0404    3.4207   -2.1309 O   0  0  0  0  0  0  0  0  0  0  0  0
    1.1425    1.0047   -2.5806 O   0  0  0  0  0  0  0  0  0  0  0  0
   -2.6493    2.1025    0.6045 O   0  0  0  0  0  0  0  0  0  0  0  0
    4.1437    0.7820   -1.1600 O   0  0  0  0  0  0  0  0  0  0  0  0
   -2.9382   -0.4111    0.2244 O   0  0  0  0  0  0  0  0  0  0  0  0
   -3.6260    0.6128    2.4397 O   0  0  0  0  0  0  0  0  0  0  0  0
   -5.0662    1.1128    0.3064 O   0  0  0  0  0  0  0  0  0  0  0  0
   -2.3056   -2.5102   -1.0406 O   0  0  0  0  0  0  0  0  0  0  0  0
   -3.3774   -2.6759    1.2649 O   0  0  0  0  0  0  0  0  0  0  0  0
   -4.8601   -1.8987   -0.7641 O   0  0  0  0  0  0  0  0  0  0  0  0
    2.4045    0.8460    0.3555 N   0  0  0  0  0  0  0  0  0  0  0  0
    4.3063   -0.6156    0.6211 N   0  0  0  0  0  0  0  0  0  0  0  0
    4.4660   -2.0464    2.4474 N   0  0  0  0  0  0  0  0  0  0  0  0
    1.3636   -2.6800   -1.1557 N   0  0  0  0  0  0  0  0  0  0  0  0
   -0.4389    2.3330   -1.2970 C   0  0  1  0  0  0  0  0  0  0  0  0
    0.6280    1.2588   -1.2895 C   0  0  2  0  0  0  0  0  0  0  0  0
   -0.4157    2.8159    0.1468 C   0  0  1  0  0  0  0  0  0  0  0  0
    1.6662    1.8522   -0.3530 C   0  0  1  0  0  0  0  0  0  0  0  0
   -1.3144    2.0020    1.0683 C   0  0  0  0  0  0  0  0  0  0  0  0
    1.8788    0.3408    1.5348 C   0  0  0  0  0  0  0  0  0  0  0  0
    3.6492    0.3558   -0.1148 C   0  0  0  0  0  0  0  0  0  0  0  0
    2.4944   -0.5940    2.2561 C   0  0  0  0  0  0  0  0  0  0  0  0
    3.7967   -1.0810    1.7313 C   0  0  0  0  0  0  0  0  0  0  0  0
   -0.9923   -2.5263   -0.5091 C   0  0  0  0  0  0  0  0  0  0  0  0
   -0.0036   -2.6760   -1.6545 C   0  0  0  0  0  0  0  0  0  0  0  0
    2.3187   -2.7813   -2.2515 C   0  0  0  0  0  0  0  0  0  0  0  0
   -1.4065    1.9746   -1.6587 H   0  0  0  0  0  0  0  0  0  0  0  0
    0.2097    0.3287   -0.8925 H   0  0  0  0  0  0  0  0  0  0  0  0
   -0.6780    3.8776    0.2182 H   0  0  0  0  0  0  0  0  0  0  0  0
    2.3646    2.5018   -0.8941 H   0  0  0  0  0  0  0  0  0  0  0  0
   -1.2602    2.3844    2.0930 H   0  0  0  0  0  0  0  0  0  0  0  0
   -1.0140    0.9524    1.0999 H   0  0  0  0  0  0  0  0  0  0  0  0
   -0.7383    4.0962   -2.0809 H   0  0  0  0  0  0  0  0  0  0  0  0
    1.8914    0.3930   -2.4806 H   0  0  0  0  0  0  0  0  0  0  0  0
    0.9346    0.7219    1.8908 H   0  0  0  0  0  0  0  0  0  0  0  0
    2.0912   -0.9913    3.1779 H   0  0  0  0  0  0  0  0  0  0  0  0
   -4.2704   -0.0097    2.8390 H   0  0  0  0  0  0  0  0  0  0  0  0
    4.0965   -2.4276    3.3121 H   0  0  0  0  0  0  0  0  0  0  0  0
    5.3576   -2.4082    2.1264 H   0  0  0  0  0  0  0  0  0  0  0  0
   -0.7920   -1.6082    0.0517 H   0  0  0  0  0  0  0  0  0  0  0  0
   -0.9094   -3.3734    0.1804 H   0  0  0  0  0  0  0  0  0  0  0  0
   -0.2227   -3.6009   -2.2029 H   0  0  0  0  0  0  0  0  0  0  0  0
   -0.1551   -1.8510   -2.3617 H   0  0  0  0  0  0  0  0  0  0  0  0
   -2.5344   -2.6465    1.7652 H   0  0  0  0  0  0  0  0  0  0  0  0
    1.4951   -3.4633   -0.5165 H   0  0  0  0  0  0  0  0  0  0  0  0
    2.2237   -1.9376   -2.9422 H   0  0  0  0  0  0  0  0  0  0  0  0
    2.1926   -3.7157   -2.8080 H   0  0  0  0  0  0  0  0  0  0  0  0
    3.3363   -2.7632   -1.8491 H   0  0  0  0  0  0  0  0  0  0  0  0
  1  6  1  0  0  0  0
  1  8  1  0  0  0  0
  1  9  1  0  0  0  0
  1 10  2  0  0  0  0
  2  8  1  0  0  0  0
  2 11  1  0  0  0  0
  2 12  1  0  0  0  0
  2 13  2  0  0  0  0
  3 20  1  0  0  0  0
  3 21  1  0  0  0  0
  4 18  1  0  0  0  0
  4 36  1  0  0  0  0
  5 19  1  0  0  0  0
  5 37  1  0  0  0  0
  6 22  1  0  0  0  0
  7 24  2  0  0  0  0
  9 40  1  0  0  0  0
 11 27  1  0  0  0  0
 12 47  1  0  0  0  0
 14 21  1  0  0  0  0
 14 23  1  0  0  0  0
 14 24  1  0  0  0  0
 15 24  1  0  0  0  0
 15 26  2  0  0  0  0
 16 26  1  0  0  0  0
 16 41  1  0  0  0  0
 16 42  1  0  0  0  0
 17 28  1  0  0  0  0
 17 29  1  0  0  0  0
 17 48  1  0  0  0  0
 18 19  1  0  0  0  0
 18 20  1  0  0  0  0
 18 30  1  0  0  0  0
 19 21  1  0  0  0  0
 19 31  1  0  0  0  0
 20 22  1  0  0  0  0
 20 32  1  0  0  0  0
 21 33  1  0  0  0  0
 22 34  1  0  0  0  0
 22 35  1  0  0  0  0
 23 25  2  0  0  0  0
 23 38  1  0  0  0  0
 25 26  1  0  0  0  0
 25 39  1  0  0  0  0
 27 28  1  0  0  0  0
 27 43  1  0  0  0  0
 27 44  1  0  0  0  0
 28 45  1  0  0  0  0
 28 46  1  0  0  0  0
 29 49  1  0  0  0  0
 29 50  1  0  0  0  0
 29 51  1  0  0  0  0
M  END
> <PUBCHEM_COMPOUND_CID>
440026

> <PUBCHEM_CONFORMER_RMSD>
1

> <PUBCHEM_CONFORMER_DIVERSEORDER>
1
51
38
167
178
181
146
162
28
36
184
67
150
62
122
47
125
88
8
136
58
140
188
126
69
115
151
45
37
189
149
127
124
161
138
68
4
186
108
139
169
156
120
143
105
104
119
142
83
182
93
137
113
20
152
32
157
54
100
77
179
61
94
131
99
164
29
114
86
78
185
7
55
98
81
180
16
49
190
160
187
111
18
96
33
35
59
112
66
132
183
85
171
168
26
172
39
40
177
97
155
158
84
170
34
22
87
71
5
110
103
70
17
27
153
76
13
91
52
109
101
90
121
118
42
60
102
133
43
64
166
79
141
144
106
9
165
41
92
65
130
23
128
117
116
107
50
174
135
63
2
75
147
173
145
134
53
82
46
31
148
176
21
24
15
175
80
159
56
74
12
95
48
163
72
129
30
10
123
11
154
14
19
25
3
73
57
6
89
44

> <PUBCHEM_MMFF94_PARTIAL_CHARGES>
38
1 1.51
10 -0.7
11 -0.55
12 -0.77
13 -0.7
14 -0.47
15 -0.66
16 -0.85
17 -0.9
18 0.28
19 0.28
2 1.51
20 0.28
21 0.58
22 0.28
23 -0.04
24 0.84
25 -0.14
26 0.49
27 0.28
28 0.27
29 0.27
3 -0.56
36 0.4
37 0.4
38 0.15
39 0.15
4 -0.68
40 0.5
41 0.4
42 0.4
47 0.5
48 0.36
5 -0.68
6 -0.55
7 -0.57
8 -0.54
9 -0.77

> <PUBCHEM_EFFECTIVE_ROTOR_COUNT>
11

> <PUBCHEM_PHARMACOPHORE_FEATURES>
16
1 10 acceptor
1 12 acceptor
1 13 acceptor
1 15 donor
1 16 donor
1 17 cation
1 17 donor
1 3 acceptor
1 4 acceptor
1 4 donor
1 5 acceptor
1 5 donor
1 7 acceptor
1 9 acceptor
5 3 18 19 20 21 rings
6 14 15 23 24 25 26 rings

> <PUBCHEM_HEAVY_ATOM_COUNT>
29

> <PUBCHEM_ATOM_DEF_STEREO_COUNT>
4

> <PUBCHEM_ATOM_UDEF_STEREO_COUNT>
0

> <PUBCHEM_BOND_DEF_STEREO_COUNT>
0

> <PUBCHEM_BOND_UDEF_STEREO_COUNT>
0

> <PUBCHEM_ISOTOPIC_ATOM_COUNT>
0

> <PUBCHEM_COMPONENT_COUNT>
1

> <PUBCHEM_CACTVS_TAUTO_COUNT>
3

> <PUBCHEM_CONFORMER_ID>
0006B6DA00000001

> <PUBCHEM_MMFF94_ENERGY>
27.5376

> <PUBCHEM_FEATURE_SELFOVERLAP>
81.27

> <PUBCHEM_SHAPE_FINGERPRINT>
10675989 125 15450045091637494639
12422481 6 18189906481641175602
12633257 1 18113899385579409745
13402501 40 17899412270908240334
14081887 123 17967813889993777209
14251764 3 16081087047940242835
15403338 16 17988662791057965435
15537594 2 18201424879026552704
17093844 170 18189047749979255918
17349148 13 18335987467879554247
19319366 153 16973927619813203375
20764821 26 18264765652269609007
238 59 7779579799608835782
238918 7 17969798542831731814
3052486 1 18263347149288867462
35225 105 17677634066651258112
484985 159 17054748751164408098
7064713 232 18187085104501453089

> <PUBCHEM_SHAPE_MULTIPOLES>
520.02
8.34
4.19
2.39
2.75
0.77
0.09
3.32
4.06
1.45
-1.91
-1.72
0.36
-0.97

> <PUBCHEM_SHAPE_SELFOVERLAP>
1034.915

> <PUBCHEM_SHAPE_VOLUME>
310

> <PUBCHEM_COORDINATE_TYPE>
2
5
10

$$$$

