3849
  -OEChem-06251223432D

101103  0     1  0  0  0  0  0999 V2000
    9.4651   -1.2500    0.0000 O   0  0  0  0  0  0  0  0  0  0  0  0
    6.8671    1.2500    0.0000 O   0  0  0  0  0  0  0  0  0  0  0  0
   11.1972   -3.2500    0.0000 O   0  0  0  0  0  0  0  0  0  0  0  0
    6.0010    1.7500    0.0000 O   0  0  0  0  0  0  0  0  0  0  0  0
   10.3312   -1.7500    0.0000 O   0  0  0  0  0  0  0  0  0  0  0  0
    3.4030    4.2500    0.0000 O   0  0  0  0  0  0  0  0  0  0  0  0
    6.0010   -0.2500    0.0000 N   0  0  0  0  0  0  0  0  0  0  0  0
    9.4651   -3.2500    0.0000 N   0  0  0  0  0  0  0  0  0  0  0  0
    4.2690    1.7500    0.0000 N   0  0  0  0  0  0  0  0  0  0  0  0
    2.5369    2.7500    0.0000 N   0  0  0  0  0  0  0  0  0  0  0  0
    7.7331   -0.2500    0.0000 C   0  0  3  0  0  0  0  0  0  0  0  0
    7.7331   -1.2500    0.0000 C   0  0  0  0  0  0  0  0  0  0  0  0
    8.5991   -1.7500    0.0000 C   0  0  3  0  0  0  0  0  0  0  0  0
    8.5991   -2.7500    0.0000 C   0  0  3  0  0  0  0  0  0  0  0  0
    8.5991    0.2500    0.0000 C   0  0  0  0  0  0  0  0  0  0  0  0
    7.7331   -3.2500    0.0000 C   0  0  0  0  0  0  0  0  0  0  0  0
    6.8671    0.2500    0.0000 C   0  0  0  0  0  0  0  0  0  0  0  0
    5.1350    0.2500    0.0000 C   0  0  3  0  0  0  0  0  0  0  0  0
    4.2690   -0.2500    0.0000 C   0  0  0  0  0  0  0  0  0  0  0  0
    4.2690   -1.2500    0.0000 C   0  0  0  0  0  0  0  0  0  0  0  0
    8.5991    1.2500    0.0000 C   0  0  0  0  0  0  0  0  0  0  0  0
    7.7331   -4.2500    0.0000 C   0  0  0  0  0  0  0  0  0  0  0  0
    5.1350    1.2500    0.0000 C   0  0  0  0  0  0  0  0  0  0  0  0
    3.4030   -1.7500    0.0000 C   0  0  0  0  0  0  0  0  0  0  0  0
    5.1350   -1.7500    0.0000 C   0  0  0  0  0  0  0  0  0  0  0  0
   10.3312   -2.7500    0.0000 C   0  0  0  0  0  0  0  0  0  0  0  0
    7.7331    1.7500    0.0000 C   0  0  0  0  0  0  0  0  0  0  0  0
    9.4651    1.7500    0.0000 C   0  0  0  0  0  0  0  0  0  0  0  0
    4.2690    2.7500    0.0000 C   0  0  3  0  0  0  0  0  0  0  0  0
    6.8671   -4.7500    0.0000 C   0  0  0  0  0  0  0  0  0  0  0  0
    8.5991   -4.7500    0.0000 C   0  0  0  0  0  0  0  0  0  0  0  0
   12.0632   -2.7500    0.0000 C   0  0  0  0  0  0  0  0  0  0  0  0
    5.1350    3.2500    0.0000 C   0  0  0  0  0  0  0  0  0  0  0  0
    7.7331    2.7500    0.0000 C   0  0  0  0  0  0  0  0  0  0  0  0
    9.4651    2.7500    0.0000 C   0  0  0  0  0  0  0  0  0  0  0  0
    6.8671   -5.7500    0.0000 C   0  0  0  0  0  0  0  0  0  0  0  0
    8.5991   -5.7500    0.0000 C   0  0  0  0  0  0  0  0  0  0  0  0
    8.5991    3.2500    0.0000 C   0  0  0  0  0  0  0  0  0  0  0  0
    3.4030    3.2500    0.0000 C   0  0  0  0  0  0  0  0  0  0  0  0
    7.7331   -6.2500    0.0000 C   0  0  0  0  0  0  0  0  0  0  0  0
    5.1350    4.2500    0.0000 C   0  0  0  0  0  0  0  0  0  0  0  0
   12.9292   -2.2500    0.0000 C   0  0  0  0  0  0  0  0  0  0  0  0
   12.5632   -3.6160    0.0000 C   0  0  0  0  0  0  0  0  0  0  0  0
   11.5632   -1.8840    0.0000 C   0  0  0  0  0  0  0  0  0  0  0  0
    4.2690    4.7500    0.0000 C   0  0  0  0  0  0  0  0  0  0  0  0
    6.0010    4.7500    0.0000 C   0  0  0  0  0  0  0  0  0  0  0  0
    4.2690    5.7500    0.0000 C   0  0  0  0  0  0  0  0  0  0  0  0
    6.0010    5.7500    0.0000 C   0  0  0  0  0  0  0  0  0  0  0  0
    5.1350    6.2500    0.0000 C   0  0  0  0  0  0  0  0  0  0  0  0
    7.7331    0.3700    0.0000 H   0  0  0  0  0  0  0  0  0  0  0  0
    7.1225   -1.1423    0.0000 H   0  0  0  0  0  0  0  0  0  0  0  0
    7.5210   -1.8326    0.0000 H   0  0  0  0  0  0  0  0  0  0  0  0
    8.5991   -1.1300    0.0000 H   0  0  0  0  0  0  0  0  0  0  0  0
    8.5991   -3.3700    0.0000 H   0  0  0  0  0  0  0  0  0  0  0  0
    8.8112   -0.3326    0.0000 H   0  0  0  0  0  0  0  0  0  0  0  0
    9.2097    0.3577    0.0000 H   0  0  0  0  0  0  0  0  0  0  0  0
    7.5210   -2.6674    0.0000 H   0  0  0  0  0  0  0  0  0  0  0  0
    7.1225   -3.3577    0.0000 H   0  0  0  0  0  0  0  0  0  0  0  0
    5.1350   -0.3700    0.0000 H   0  0  0  0  0  0  0  0  0  0  0  0
    4.0569    0.3326    0.0000 H   0  0  0  0  0  0  0  0  0  0  0  0
    3.6584   -0.3577    0.0000 H   0  0  0  0  0  0  0  0  0  0  0  0
    6.0010   -0.8700    0.0000 H   0  0  0  0  0  0  0  0  0  0  0  0
    4.2690   -1.8700    0.0000 H   0  0  0  0  0  0  0  0  0  0  0  0
    9.4651   -3.8700    0.0000 H   0  0  0  0  0  0  0  0  0  0  0  0
    9.4651   -0.6300    0.0000 H   0  0  0  0  0  0  0  0  0  0  0  0
    4.8250   -2.2869    0.0000 H   0  0  0  0  0  0  0  0  0  0  0  0
    5.6720   -2.0600    0.0000 H   0  0  0  0  0  0  0  0  0  0  0  0
    5.4450   -1.2131    0.0000 H   0  0  0  0  0  0  0  0  0  0  0  0
    3.0930   -1.2131    0.0000 H   0  0  0  0  0  0  0  0  0  0  0  0
    2.8660   -2.0600    0.0000 H   0  0  0  0  0  0  0  0  0  0  0  0
    3.7130   -2.2869    0.0000 H   0  0  0  0  0  0  0  0  0  0  0  0
    7.1962    1.4400    0.0000 H   0  0  0  0  0  0  0  0  0  0  0  0
   10.0021    1.4400    0.0000 H   0  0  0  0  0  0  0  0  0  0  0  0
    3.7320    1.4400    0.0000 H   0  0  0  0  0  0  0  0  0  0  0  0
    4.8059    2.4400    0.0000 H   0  0  0  0  0  0  0  0  0  0  0  0
    6.3301   -4.4400    0.0000 H   0  0  0  0  0  0  0  0  0  0  0  0
    9.1360   -4.4400    0.0000 H   0  0  0  0  0  0  0  0  0  0  0  0
    5.3471    2.6674    0.0000 H   0  0  0  0  0  0  0  0  0  0  0  0
    5.7456    3.3577    0.0000 H   0  0  0  0  0  0  0  0  0  0  0  0
    7.1962    3.0600    0.0000 H   0  0  0  0  0  0  0  0  0  0  0  0
   10.0021    3.0600    0.0000 H   0  0  0  0  0  0  0  0  0  0  0  0
    6.3301   -6.0600    0.0000 H   0  0  0  0  0  0  0  0  0  0  0  0
    9.1360   -6.0600    0.0000 H   0  0  0  0  0  0  0  0  0  0  0  0
    8.5991    3.8700    0.0000 H   0  0  0  0  0  0  0  0  0  0  0  0
    7.7331   -6.8700    0.0000 H   0  0  0  0  0  0  0  0  0  0  0  0
   13.2392   -2.7869    0.0000 H   0  0  0  0  0  0  0  0  0  0  0  0
   13.4662   -1.9400    0.0000 H   0  0  0  0  0  0  0  0  0  0  0  0
   12.6192   -1.7131    0.0000 H   0  0  0  0  0  0  0  0  0  0  0  0
   12.0263   -3.9260    0.0000 H   0  0  0  0  0  0  0  0  0  0  0  0
   12.8732   -4.1530    0.0000 H   0  0  0  0  0  0  0  0  0  0  0  0
   13.1002   -3.3060    0.0000 H   0  0  0  0  0  0  0  0  0  0  0  0
   12.1002   -1.5740    0.0000 H   0  0  0  0  0  0  0  0  0  0  0  0
   11.2532   -1.3470    0.0000 H   0  0  0  0  0  0  0  0  0  0  0  0
   11.0263   -2.1940    0.0000 H   0  0  0  0  0  0  0  0  0  0  0  0
    3.7320    4.4400    0.0000 H   0  0  0  0  0  0  0  0  0  0  0  0
    6.5380    4.4400    0.0000 H   0  0  0  0  0  0  0  0  0  0  0  0
    2.0000    3.0600    0.0000 H   0  0  0  0  0  0  0  0  0  0  0  0
    2.5369    2.1300    0.0000 H   0  0  0  0  0  0  0  0  0  0  0  0
    3.7320    6.0600    0.0000 H   0  0  0  0  0  0  0  0  0  0  0  0
    6.5380    6.0600    0.0000 H   0  0  0  0  0  0  0  0  0  0  0  0
    5.1350    6.8700    0.0000 H   0  0  0  0  0  0  0  0  0  0  0  0
  1 13  1  0  0  0  0
  1 65  1  0  0  0  0
  2 17  2  0  0  0  0
  3 26  1  0  0  0  0
  3 32  1  0  0  0  0
  4 23  2  0  0  0  0
  5 26  2  0  0  0  0
  6 39  2  0  0  0  0
  7 17  1  0  0  0  0
  7 18  1  0  0  0  0
  7 62  1  0  0  0  0
  8 14  1  0  0  0  0
  8 26  1  0  0  0  0
  8 64  1  0  0  0  0
  9 23  1  0  0  0  0
  9 29  1  0  0  0  0
  9 74  1  0  0  0  0
 10 39  1  0  0  0  0
 10 97  1  0  0  0  0
 10 98  1  0  0  0  0
 11 12  1  0  0  0  0
 11 15  1  0  0  0  0
 11 17  1  0  0  0  0
 11 50  1  0  0  0  0
 12 13  1  0  0  0  0
 12 51  1  0  0  0  0
 12 52  1  0  0  0  0
 13 14  1  0  0  0  0
 13 53  1  0  0  0  0
 14 16  1  0  0  0  0
 14 54  1  0  0  0  0
 15 21  1  0  0  0  0
 15 55  1  0  0  0  0
 15 56  1  0  0  0  0
 16 22  1  0  0  0  0
 16 57  1  0  0  0  0
 16 58  1  0  0  0  0
 18 19  1  0  0  0  0
 18 23  1  0  0  0  0
 18 59  1  0  0  0  0
 19 20  1  0  0  0  0
 19 60  1  0  0  0  0
 19 61  1  0  0  0  0
 20 24  1  0  0  0  0
 20 25  1  0  0  0  0
 20 63  1  0  0  0  0
 21 27  2  0  0  0  0
 21 28  1  0  0  0  0
 22 30  2  0  0  0  0
 22 31  1  0  0  0  0
 24 69  1  0  0  0  0
 24 70  1  0  0  0  0
 24 71  1  0  0  0  0
 25 66  1  0  0  0  0
 25 67  1  0  0  0  0
 25 68  1  0  0  0  0
 27 34  1  0  0  0  0
 27 72  1  0  0  0  0
 28 35  2  0  0  0  0
 28 73  1  0  0  0  0
 29 33  1  0  0  0  0
 29 39  1  0  0  0  0
 29 75  1  0  0  0  0
 30 36  1  0  0  0  0
 30 76  1  0  0  0  0
 31 37  2  0  0  0  0
 31 77  1  0  0  0  0
 32 42  1  0  0  0  0
 32 43  1  0  0  0  0
 32 44  1  0  0  0  0
 33 41  1  0  0  0  0
 33 78  1  0  0  0  0
 33 79  1  0  0  0  0
 34 38  2  0  0  0  0
 34 80  1  0  0  0  0
 35 38  1  0  0  0  0
 35 81  1  0  0  0  0
 36 40  2  0  0  0  0
 36 82  1  0  0  0  0
 37 40  1  0  0  0  0
 37 83  1  0  0  0  0
 38 84  1  0  0  0  0
 40 85  1  0  0  0  0
 41 45  2  0  0  0  0
 41 46  1  0  0  0  0
 42 86  1  0  0  0  0
 42 87  1  0  0  0  0
 42 88  1  0  0  0  0
 43 89  1  0  0  0  0
 43 90  1  0  0  0  0
 43 91  1  0  0  0  0
 44 92  1  0  0  0  0
 44 93  1  0  0  0  0
 44 94  1  0  0  0  0
 45 47  1  0  0  0  0
 45 95  1  0  0  0  0
 46 48  2  0  0  0  0
 46 96  1  0  0  0  0
 47 49  2  0  0  0  0
 47 99  1  0  0  0  0
 48 49  1  0  0  0  0
 48100  1  0  0  0  0
 49101  1  0  0  0  0
M  END
> <PUBCHEM_COMPOUND_CID>
3849

> <PUBCHEM_COMPOUND_CANONICALIZED>
1

> <PUBCHEM_CACTVS_COMPLEXITY>
1030

> <PUBCHEM_CACTVS_HBOND_ACCEPTOR>
6

> <PUBCHEM_CACTVS_HBOND_DONOR>
5

> <PUBCHEM_CACTVS_ROTATABLE_BOND>
19

> <PUBCHEM_CACTVS_SUBSKEYS>
AAADcfB/uAAAAAAAAAAAAAAAAAAAAAAAAAAwYMAAAAAAAAABUAAAHgAQCAAADXzhmAYyCILABgCIAiFSGAACAAAgAAAIiIGIAIkKcDKAkTGcYAAklgCYiAe6yfCeAAAAAAAAAAAAAAAAAAAAAAAAAAAAAA==

> <PUBCHEM_IUPAC_OPENEYE_NAME>
tert-butyl N-[5-[[1-[(2-amino-1-benzyl-2-oxo-ethyl)carbamoyl]-3-methyl-butyl]amino]-1,4-dibenzyl-2-hydroxy-5-oxo-pentyl]carbamate

> <PUBCHEM_IUPAC_CAS_NAME>
N-[6-[[1-[(1-amino-1-oxo-3-phenylpropan-2-yl)amino]-4-methyl-1-oxopentan-2-yl]amino]-3-hydroxy-6-oxo-1-phenyl-5-(phenylmethyl)hexan-2-yl]carbamic acid tert-butyl ester

> <PUBCHEM_IUPAC_NAME>
tert-butyl N-[6-[[1-[(1-amino-1-oxo-3-phenylpropan-2-yl)amino]-4-methyl-1-oxopentan-2-yl]amino]-5-benzyl-3-hydroxy-6-oxo-1-phenylhexan-2-yl]carbamate

> <PUBCHEM_IUPAC_SYSTEMATIC_NAME>
tert-butyl N-[6-[[1-[(1-azanyl-1-oxidanylidene-3-phenyl-propan-2-yl)amino]-4-methyl-1-oxidanylidene-pentan-2-yl]amino]-3-oxidanyl-6-oxidanylidene-1-phenyl-5-(phenylmethyl)hexan-2-yl]carbamate

> <PUBCHEM_IUPAC_TRADITIONAL_NAME>
N-[5-[[1-[(2-amino-1-benzyl-2-keto-ethyl)carbamoyl]-3-methyl-butyl]amino]-1,4-dibenzyl-2-hydroxy-5-keto-pentyl]carbamic acid tert-butyl ester

> <PUBCHEM_IUPAC_INCHI>
InChI=1S/C39H52N4O6/c1-26(2)21-33(37(47)41-32(35(40)45)24-29-19-13-8-14-20-29)42-36(46)30(22-27-15-9-6-10-16-27)25-34(44)31(23-28-17-11-7-12-18-28)43-38(48)49-39(3,4)5/h6-20,26,30-34,44H,21-25H2,1-5H3,(H2,40,45)(H,41,47)(H,42,46)(H,43,48)

> <PUBCHEM_IUPAC_INCHIKEY>
MURCDOXDAHPNRQ-UHFFFAOYSA-N

> <PUBCHEM_XLOGP3_AA>
5.9

> <PUBCHEM_EXACT_MASS>
672.388685

> <PUBCHEM_MOLECULAR_FORMULA>
C39H52N4O6

> <PUBCHEM_MOLECULAR_WEIGHT>
672.85338

> <PUBCHEM_OPENEYE_CAN_SMILES>
CC(C)CC(C(=O)NC(CC1=CC=CC=C1)C(=O)N)NC(=O)C(CC2=CC=CC=C2)CC(C(CC3=CC=CC=C3)NC(=O)OC(C)(C)C)O

> <PUBCHEM_OPENEYE_ISO_SMILES>
CC(C)CC(C(=O)NC(CC1=CC=CC=C1)C(=O)N)NC(=O)C(CC2=CC=CC=C2)CC(C(CC3=CC=CC=C3)NC(=O)OC(C)(C)C)O

> <PUBCHEM_CACTVS_TPSA>
160

> <PUBCHEM_MONOISOTOPIC_WEIGHT>
672.388685

> <PUBCHEM_TOTAL_CHARGE>
0

> <PUBCHEM_HEAVY_ATOM_COUNT>
49

> <PUBCHEM_ATOM_DEF_STEREO_COUNT>
0

> <PUBCHEM_ATOM_UDEF_STEREO_COUNT>
5

> <PUBCHEM_BOND_DEF_STEREO_COUNT>
0

> <PUBCHEM_BOND_UDEF_STEREO_COUNT>
0

> <PUBCHEM_ISOTOPIC_ATOM_COUNT>
0

> <PUBCHEM_COMPONENT_COUNT>
1

> <PUBCHEM_CACTVS_TAUTO_COUNT>
24

> <PUBCHEM_COORDINATE_TYPE>
1
5
255

> <PUBCHEM_BONDANNOTATIONS>
13  1  3
11  15  3
14  16  3
18  19  3
21  27  8
21  28  8
22  30  8
22  31  8
27  34  8
28  35  8
29  33  3
30  36  8
31  37  8
34  38  8
35  38  8
36  40  8
37  40  8
41  45  8
41  46  8
45  47  8
46  48  8
47  49  8
48  49  8

$$$$

