193876
  -OEChem-07051212582D

 67 70  0     1  0  0  0  0  0999 V2000
   12.1292    0.1790    0.0000 O   0  0  0  0  0  0  0  0  0  0  0  0
   10.3972    0.1723    0.0000 O   0  0  0  0  0  0  0  0  0  0  0  0
   12.1408   -2.8210    0.0000 O   0  0  0  0  0  0  0  0  0  0  0  0
   13.8690   -1.8143    0.0000 O   0  0  0  0  0  0  0  0  0  0  0  0
   10.4049   -1.8277    0.0000 O   0  0  0  0  0  0  0  0  0  0  0  0
    6.8671    0.1481    0.0000 O   0  0  0  0  0  0  0  0  0  0  0  0
   13.8574    1.1856    0.0000 O   0  0  0  0  0  0  0  0  0  0  0  0
    5.1350   -1.8518    0.0000 O   0  0  0  0  0  0  0  0  0  0  0  0
    8.6155   -2.8864    0.0000 O   0  0  0  0  0  0  0  0  0  0  0  0
    6.8671   -2.8519    0.0000 O   0  0  0  0  0  0  0  0  0  0  0  0
    2.5369    1.6482    0.0000 O   0  0  0  0  0  0  0  0  0  0  0  0
   12.1369   -1.8210    0.0000 C   0  0  1  0  0  0  0  0  0  0  0  0
   13.0010   -1.3177    0.0000 C   0  0  1  0  0  0  0  0  0  0  0  0
   11.2690   -1.3244    0.0000 C   0  0  2  0  0  0  0  0  0  0  0  0
   12.9972   -0.3177    0.0000 C   0  0  1  0  0  0  0  0  0  0  0  0
   11.2651   -0.3244    0.0000 C   0  0  1  0  0  0  0  0  0  0  0  0
   13.8613    0.1856    0.0000 C   0  0  0  0  0  0  0  0  0  0  0  0
    9.5331   -0.3310    0.0000 C   0  0  0  0  0  0  0  0  0  0  0  0
    8.6270    0.1828    0.0000 C   0  0  0  0  0  0  0  0  0  0  0  0
    7.7331   -0.3519    0.0000 C   0  0  0  0  0  0  0  0  0  0  0  0
    6.0010   -0.3519    0.0000 C   0  0  1  0  0  0  0  0  0  0  0  0
    7.7331   -1.3518    0.0000 C   0  0  0  0  0  0  0  0  0  0  0  0
    6.0010   -1.3518    0.0000 C   0  0  2  0  0  0  0  0  0  0  0  0
    6.8671   -1.8518    0.0000 C   0  0  0  0  0  0  0  0  0  0  0  0
    9.5331   -1.3727    0.0000 C   0  0  0  0  0  0  0  0  0  0  0  0
    8.6155    1.1827    0.0000 C   0  0  0  0  0  0  0  0  0  0  0  0
    8.6270   -1.8865    0.0000 C   0  0  0  0  0  0  0  0  0  0  0  0
    5.1350    0.1481    0.0000 C   0  0  0  0  0  0  0  0  0  0  0  0
    9.4756    1.6927    0.0000 C   0  0  0  0  0  0  0  0  0  0  0  0
    5.1350    1.1482    0.0000 C   0  0  0  0  0  0  0  0  0  0  0  0
    4.2690   -0.3519    0.0000 C   0  0  0  0  0  0  0  0  0  0  0  0
    9.4641    2.6927    0.0000 C   0  0  0  0  0  0  0  0  0  0  0  0
    4.2690    1.6482    0.0000 C   0  0  0  0  0  0  0  0  0  0  0  0
    3.4030    0.1481    0.0000 C   0  0  0  0  0  0  0  0  0  0  0  0
    3.4030    1.1482    0.0000 C   0  0  0  0  0  0  0  0  0  0  0  0
   10.3243    3.2026    0.0000 C   0  0  0  0  0  0  0  0  0  0  0  0
    8.5923    3.1826    0.0000 C   0  0  0  0  0  0  0  0  0  0  0  0
   11.6012   -2.1331    0.0000 H   0  0  0  0  0  0  0  0  0  0  0  0
   13.0034   -1.9377    0.0000 H   0  0  0  0  0  0  0  0  0  0  0  0
   11.2714   -1.9444    0.0000 H   0  0  0  0  0  0  0  0  0  0  0  0
   12.9948    0.3023    0.0000 H   0  0  0  0  0  0  0  0  0  0  0  0
   10.7294   -0.6364    0.0000 H   0  0  0  0  0  0  0  0  0  0  0  0
   14.0756   -0.3961    0.0000 H   0  0  0  0  0  0  0  0  0  0  0  0
   14.4714    0.2957    0.0000 H   0  0  0  0  0  0  0  0  0  0  0  0
   12.6789   -3.1289    0.0000 H   0  0  0  0  0  0  0  0  0  0  0  0
    5.4641   -0.6619    0.0000 H   0  0  0  0  0  0  0  0  0  0  0  0
   14.4047   -1.5023    0.0000 H   0  0  0  0  0  0  0  0  0  0  0  0
   10.4073   -2.4477    0.0000 H   0  0  0  0  0  0  0  0  0  0  0  0
    5.4641   -1.0418    0.0000 H   0  0  0  0  0  0  0  0  0  0  0  0
   10.0688   -1.6847    0.0000 H   0  0  0  0  0  0  0  0  0  0  0  0
    8.3967    1.7629    0.0000 H   0  0  0  0  0  0  0  0  0  0  0  0
    8.0062    1.0680    0.0000 H   0  0  0  0  0  0  0  0  0  0  0  0
   14.3931    1.4977    0.0000 H   0  0  0  0  0  0  0  0  0  0  0  0
   10.0161    1.3889    0.0000 H   0  0  0  0  0  0  0  0  0  0  0  0
    5.6720    1.4582    0.0000 H   0  0  0  0  0  0  0  0  0  0  0  0
    4.2690   -0.9719    0.0000 H   0  0  0  0  0  0  0  0  0  0  0  0
    5.1350   -2.4718    0.0000 H   0  0  0  0  0  0  0  0  0  0  0  0
    9.1488   -3.2026    0.0000 H   0  0  0  0  0  0  0  0  0  0  0  0
    4.2690    2.2682    0.0000 H   0  0  0  0  0  0  0  0  0  0  0  0
    2.8660   -0.1619    0.0000 H   0  0  0  0  0  0  0  0  0  0  0  0
   10.6405    2.6693    0.0000 H   0  0  0  0  0  0  0  0  0  0  0  0
   10.8576    3.5188    0.0000 H   0  0  0  0  0  0  0  0  0  0  0  0
   10.0081    3.7360    0.0000 H   0  0  0  0  0  0  0  0  0  0  0  0
    8.8961    3.7231    0.0000 H   0  0  0  0  0  0  0  0  0  0  0  0
    8.0519    3.4864    0.0000 H   0  0  0  0  0  0  0  0  0  0  0  0
    8.2886    2.6421    0.0000 H   0  0  0  0  0  0  0  0  0  0  0  0
    2.0000    1.3382    0.0000 H   0  0  0  0  0  0  0  0  0  0  0  0
  1 15  1  0  0  0  0
  1 16  1  0  0  0  0
 16  2  1  6  0  0  0
  2 18  1  0  0  0  0
 12  3  1  6  0  0  0
  3 45  1  0  0  0  0
 13  4  1  1  0  0  0
  4 47  1  0  0  0  0
 14  5  1  1  0  0  0
  5 48  1  0  0  0  0
  6 20  1  0  0  0  0
  6 21  1  0  0  0  0
  7 17  1  0  0  0  0
  7 53  1  0  0  0  0
 23  8  1  6  0  0  0
  8 57  1  0  0  0  0
  9 27  1  0  0  0  0
  9 58  1  0  0  0  0
 10 24  2  0  0  0  0
 11 35  1  0  0  0  0
 11 67  1  0  0  0  0
 12 13  1  0  0  0  0
 12 14  1  0  0  0  0
 12 38  1  0  0  0  0
 13 15  1  0  0  0  0
 13 39  1  0  0  0  0
 14 16  1  0  0  0  0
 14 40  1  0  0  0  0
 15 17  1  6  0  0  0
 15 41  1  0  0  0  0
 16 42  1  0  0  0  0
 17 43  1  0  0  0  0
 17 44  1  0  0  0  0
 18 19  2  0  0  0  0
 18 25  1  0  0  0  0
 19 20  1  0  0  0  0
 19 26  1  0  0  0  0
 20 22  2  0  0  0  0
 21 23  1  0  0  0  0
 21 28  1  1  0  0  0
 21 46  1  0  0  0  0
 22 24  1  0  0  0  0
 22 27  1  0  0  0  0
 23 24  1  0  0  0  0
 23 49  1  0  0  0  0
 25 27  2  0  0  0  0
 25 50  1  0  0  0  0
 26 29  1  0  0  0  0
 26 51  1  0  0  0  0
 26 52  1  0  0  0  0
 28 30  2  0  0  0  0
 28 31  1  0  0  0  0
 29 32  2  0  0  0  0
 29 54  1  0  0  0  0
 30 33  1  0  0  0  0
 30 55  1  0  0  0  0
 31 34  2  0  0  0  0
 31 56  1  0  0  0  0
 32 36  1  0  0  0  0
 32 37  1  0  0  0  0
 33 35  2  0  0  0  0
 33 59  1  0  0  0  0
 34 35  1  0  0  0  0
 34 60  1  0  0  0  0
 36 61  1  0  0  0  0
 36 62  1  0  0  0  0
 36 63  1  0  0  0  0
 37 64  1  0  0  0  0
 37 65  1  0  0  0  0
 37 66  1  0  0  0  0
M  END
> <PUBCHEM_COMPOUND_CID>
193876

> <PUBCHEM_COMPOUND_CANONICALIZED>
1

> <PUBCHEM_CACTVS_COMPLEXITY>
808

> <PUBCHEM_CACTVS_HBOND_ACCEPTOR>
11

> <PUBCHEM_CACTVS_HBOND_DONOR>
7

> <PUBCHEM_CACTVS_ROTATABLE_BOND>
6

> <PUBCHEM_CACTVS_SUBSKEYS>
AAADceB4PAAAAAAAAAAAAAAAAAAAAAAAAAA0aIEAAAAAAACRQAAAGgAACAAADBSwmAMyDoAABgCIAqBSAAICCAAkIAAIiAFGCMgdNzaGNRqieWCl4BUPuQfI7PzOIAACCAAIAABAAAQQABAAAAAAAAAAAA==

> <PUBCHEM_IUPAC_OPENEYE_NAME>
(2R,3R)-3,5-dihydroxy-2-(4-hydroxyphenyl)-8-(3-methylbut-2-enyl)-7-[(2S,3R,4S,5S,6R)-3,4,5-trihydroxy-6-(hydroxymethyl)tetrahydropyran-2-yl]oxy-chroman-4-one

> <PUBCHEM_IUPAC_CAS_NAME>
(2R,3R)-3,5-dihydroxy-2-(4-hydroxyphenyl)-8-(3-methylbut-2-enyl)-7-[[(2S,3R,4S,5S,6R)-3,4,5-trihydroxy-6-(hydroxymethyl)-2-oxanyl]oxy]-3,4-dihydro-2H-1-benzopyran-4-one

> <PUBCHEM_IUPAC_NAME>
(2R,3R)-3,5-dihydroxy-2-(4-hydroxyphenyl)-8-(3-methylbut-2-enyl)-7-[(2S,3R,4S,5S,6R)-3,4,5-trihydroxy-6-(hydroxymethyl)oxan-2-yl]oxy-2,3-dihydrochromen-4-one

> <PUBCHEM_IUPAC_SYSTEMATIC_NAME>
(2R,3R)-7-[(2S,3R,4S,5S,6R)-6-(hydroxymethyl)-3,4,5-tris(oxidanyl)oxan-2-yl]oxy-2-(4-hydroxyphenyl)-8-(3-methylbut-2-enyl)-3,5-bis(oxidanyl)-2,3-dihydrochromen-4-one

> <PUBCHEM_IUPAC_TRADITIONAL_NAME>
(2R,3R)-3,5-dihydroxy-2-(4-hydroxyphenyl)-8-(3-methylbut-2-enyl)-7-[(2S,3R,4S,5S,6R)-3,4,5-trihydroxy-6-methylol-tetrahydropyran-2-yl]oxy-chroman-4-one

> <PUBCHEM_IUPAC_INCHI>
InChI=1S/C26H30O11/c1-11(2)3-8-14-16(35-26-23(34)21(32)19(30)17(10-27)36-26)9-15(29)18-20(31)22(33)24(37-25(14)18)12-4-6-13(28)7-5-12/h3-7,9,17,19,21-24,26-30,32-34H,8,10H2,1-2H3/t17-,19-,21+,22+,23-,24-,26-/m1/s1

> <PUBCHEM_IUPAC_INCHIKEY>
GRDZTDZJQRPNCN-YIANMRPHSA-N

> <PUBCHEM_XLOGP3_AA>
2

> <PUBCHEM_EXACT_MASS>
518.178812

> <PUBCHEM_MOLECULAR_FORMULA>
C26H30O11

> <PUBCHEM_MOLECULAR_WEIGHT>
518.5098

> <PUBCHEM_OPENEYE_CAN_SMILES>
CC(=CCC1=C(C=C(C2=C1OC(C(C2=O)O)C3=CC=C(C=C3)O)O)OC4C(C(C(C(O4)CO)O)O)O)C

> <PUBCHEM_OPENEYE_ISO_SMILES>
CC(=CCC1=C(C=C(C2=C1O[C@@H]([C@H](C2=O)O)C3=CC=C(C=C3)O)O)O[C@H]4[C@@H]([C@H]([C@@H]([C@H](O4)CO)O)O)O)C

> <PUBCHEM_CACTVS_TPSA>
186

> <PUBCHEM_MONOISOTOPIC_WEIGHT>
518.178812

> <PUBCHEM_TOTAL_CHARGE>
0

> <PUBCHEM_HEAVY_ATOM_COUNT>
37

> <PUBCHEM_ATOM_DEF_STEREO_COUNT>
7

> <PUBCHEM_ATOM_UDEF_STEREO_COUNT>
0

> <PUBCHEM_BOND_DEF_STEREO_COUNT>
0

> <PUBCHEM_BOND_UDEF_STEREO_COUNT>
0

> <PUBCHEM_ISOTOPIC_ATOM_COUNT>
0

> <PUBCHEM_COMPONENT_COUNT>
1

> <PUBCHEM_CACTVS_TAUTO_COUNT>
150

> <PUBCHEM_COORDINATE_TYPE>
1
5
255

> <PUBCHEM_BONDANNOTATIONS>
15  17  6
18  19  8
18  25  8
19  20  8
16  2  6
20  22  8
21  28  5
22  27  8
25  27  8
28  30  8
28  31  8
12  3  6
30  33  8
31  34  8
33  35  8
34  35  8
13  4  5
14  5  5
23  8  6

$$$$

