13983
  -OEChem-06241222412D

 54 57  0     0  0  0  0  0  0999 V2000
    6.3301   -3.2327    0.0000 S   0  0  0  0  0  0  0  0  0  0  0  0
    9.8564   -0.2085    0.0000 O   0  0  0  0  0  0  0  0  0  0  0  0
    4.5981    1.7673    0.0000 N   0  0  0  0  0  0  0  0  0  0  0  0
    2.8660    2.7673    0.0000 N   0  0  0  0  0  0  0  0  0  0  0  0
    6.3301   -1.2327    0.0000 N   0  0  0  0  0  0  0  0  0  0  0  0
    4.5981    2.7673    0.0000 C   0  0  0  0  0  0  0  0  0  0  0  0
    3.7320    1.2673    0.0000 C   0  0  0  0  0  0  0  0  0  0  0  0
    5.4641    1.2673    0.0000 C   0  0  0  0  0  0  0  0  0  0  0  0
    3.7320    3.2673    0.0000 C   0  0  0  0  0  0  0  0  0  0  0  0
    2.8660    1.7673    0.0000 C   0  0  0  0  0  0  0  0  0  0  0  0
    5.4641    0.2673    0.0000 C   0  0  0  0  0  0  0  0  0  0  0  0
    6.3301   -0.2327    0.0000 C   0  0  0  0  0  0  0  0  0  0  0  0
    2.0000    3.2673    0.0000 C   0  0  0  0  0  0  0  0  0  0  0  0
    7.1962   -1.7327    0.0000 C   0  0  0  0  0  0  0  0  0  0  0  0
    5.4641   -1.7327    0.0000 C   0  0  0  0  0  0  0  0  0  0  0  0
    7.1962   -2.7327    0.0000 C   0  0  0  0  0  0  0  0  0  0  0  0
    5.4641   -2.7327    0.0000 C   0  0  0  0  0  0  0  0  0  0  0  0
    8.0901   -1.1980    0.0000 C   0  0  0  0  0  0  0  0  0  0  0  0
    4.5702   -1.1980    0.0000 C   0  0  0  0  0  0  0  0  0  0  0  0
    8.0901   -3.2673    0.0000 C   0  0  0  0  0  0  0  0  0  0  0  0
    8.9962   -1.7118    0.0000 C   0  0  0  0  0  0  0  0  0  0  0  0
    4.5702   -3.2673    0.0000 C   0  0  0  0  0  0  0  0  0  0  0  0
    8.9962   -2.7535    0.0000 C   0  0  0  0  0  0  0  0  0  0  0  0
    3.6641   -1.7118    0.0000 C   0  0  0  0  0  0  0  0  0  0  0  0
    3.6641   -2.7535    0.0000 C   0  0  0  0  0  0  0  0  0  0  0  0
    9.8602   -1.2085    0.0000 C   0  0  0  0  0  0  0  0  0  0  0  0
   10.7282   -1.7052    0.0000 C   0  0  0  0  0  0  0  0  0  0  0  0
    5.2087    2.6597    0.0000 H   0  0  0  0  0  0  0  0  0  0  0  0
    4.8101    3.3499    0.0000 H   0  0  0  0  0  0  0  0  0  0  0  0
    3.3335    0.7924    0.0000 H   0  0  0  0  0  0  0  0  0  0  0  0
    4.1306    0.7924    0.0000 H   0  0  0  0  0  0  0  0  0  0  0  0
    6.0747    1.1597    0.0000 H   0  0  0  0  0  0  0  0  0  0  0  0
    5.6762    1.8499    0.0000 H   0  0  0  0  0  0  0  0  0  0  0  0
    4.1306    3.7423    0.0000 H   0  0  0  0  0  0  0  0  0  0  0  0
    3.3335    3.7423    0.0000 H   0  0  0  0  0  0  0  0  0  0  0  0
    2.2554    1.8750    0.0000 H   0  0  0  0  0  0  0  0  0  0  0  0
    2.6540    1.1847    0.0000 H   0  0  0  0  0  0  0  0  0  0  0  0
    4.8535    0.3750    0.0000 H   0  0  0  0  0  0  0  0  0  0  0  0
    5.2520   -0.3153    0.0000 H   0  0  0  0  0  0  0  0  0  0  0  0
    6.9407   -0.3403    0.0000 H   0  0  0  0  0  0  0  0  0  0  0  0
    6.5422    0.3499    0.0000 H   0  0  0  0  0  0  0  0  0  0  0  0
    2.3100    3.8043    0.0000 H   0  0  0  0  0  0  0  0  0  0  0  0
    1.4631    3.5773    0.0000 H   0  0  0  0  0  0  0  0  0  0  0  0
    1.6900    2.7304    0.0000 H   0  0  0  0  0  0  0  0  0  0  0  0
    8.0829   -0.5780    0.0000 H   0  0  0  0  0  0  0  0  0  0  0  0
    4.5773   -0.5780    0.0000 H   0  0  0  0  0  0  0  0  0  0  0  0
    8.0829   -3.8873    0.0000 H   0  0  0  0  0  0  0  0  0  0  0  0
    4.5773   -3.8873    0.0000 H   0  0  0  0  0  0  0  0  0  0  0  0
    9.5319   -3.0656    0.0000 H   0  0  0  0  0  0  0  0  0  0  0  0
    3.1284   -1.3998    0.0000 H   0  0  0  0  0  0  0  0  0  0  0  0
    3.1284   -3.0656    0.0000 H   0  0  0  0  0  0  0  0  0  0  0  0
   10.4203   -2.2433    0.0000 H   0  0  0  0  0  0  0  0  0  0  0  0
   11.2663   -2.0131    0.0000 H   0  0  0  0  0  0  0  0  0  0  0  0
   11.0361   -1.1670    0.0000 H   0  0  0  0  0  0  0  0  0  0  0  0
  1 16  1  0  0  0  0
  1 17  1  0  0  0  0
  2 26  2  0  0  0  0
  3  6  1  0  0  0  0
  3  7  1  0  0  0  0
  3  8  1  0  0  0  0
  4  9  1  0  0  0  0
  4 10  1  0  0  0  0
  4 13  1  0  0  0  0
  5 12  1  0  0  0  0
  5 14  1  0  0  0  0
  5 15  1  0  0  0  0
  6  9  1  0  0  0  0
  6 28  1  0  0  0  0
  6 29  1  0  0  0  0
  7 10  1  0  0  0  0
  7 30  1  0  0  0  0
  7 31  1  0  0  0  0
  8 11  1  0  0  0  0
  8 32  1  0  0  0  0
  8 33  1  0  0  0  0
  9 34  1  0  0  0  0
  9 35  1  0  0  0  0
 10 36  1  0  0  0  0
 10 37  1  0  0  0  0
 11 12  1  0  0  0  0
 11 38  1  0  0  0  0
 11 39  1  0  0  0  0
 12 40  1  0  0  0  0
 12 41  1  0  0  0  0
 13 42  1  0  0  0  0
 13 43  1  0  0  0  0
 13 44  1  0  0  0  0
 14 16  2  0  0  0  0
 14 18  1  0  0  0  0
 15 17  1  0  0  0  0
 15 19  2  0  0  0  0
 16 20  1  0  0  0  0
 17 22  2  0  0  0  0
 18 21  2  0  0  0  0
 18 45  1  0  0  0  0
 19 24  1  0  0  0  0
 19 46  1  0  0  0  0
 20 23  2  0  0  0  0
 20 47  1  0  0  0  0
 21 23  1  0  0  0  0
 21 26  1  0  0  0  0
 22 25  1  0  0  0  0
 22 48  1  0  0  0  0
 23 49  1  0  0  0  0
 24 25  2  0  0  0  0
 24 50  1  0  0  0  0
 25 51  1  0  0  0  0
 26 27  1  0  0  0  0
 27 52  1  0  0  0  0
 27 53  1  0  0  0  0
 27 54  1  0  0  0  0
M  END
> <PUBCHEM_COMPOUND_CID>
13983

> <PUBCHEM_COMPOUND_CANONICALIZED>
1

> <PUBCHEM_CACTVS_COMPLEXITY>
508

> <PUBCHEM_CACTVS_HBOND_ACCEPTOR>
5

> <PUBCHEM_CACTVS_HBOND_DONOR>
0

> <PUBCHEM_CACTVS_ROTATABLE_BOND>
5

> <PUBCHEM_CACTVS_SUBSKEYS>
AAADceB7IABAAAAAAAAAAAAAAAAAAAAAAAA8eIEAAAAAAACxQAAAHgQAAAAADAzB2AQywYMAAAiIAqRSQACCAAAlChAIiB0IZMgIYHLg1ZGUIQhggADoyYcciICOEAAAQAAAAQAgAACAAAACAAAAAAAAAA==

> <PUBCHEM_IUPAC_OPENEYE_NAME>
1-[10-[3-(4-methylpiperazin-1-yl)propyl]phenothiazin-2-yl]ethanone

> <PUBCHEM_IUPAC_CAS_NAME>
1-[10-[3-(4-methyl-1-piperazinyl)propyl]-2-phenothiazinyl]ethanone

> <PUBCHEM_IUPAC_NAME>
1-[10-[3-(4-methylpiperazin-1-yl)propyl]phenothiazin-2-yl]ethanone

> <PUBCHEM_IUPAC_SYSTEMATIC_NAME>
1-[10-[3-(4-methylpiperazin-1-yl)propyl]phenothiazin-2-yl]ethanone

> <PUBCHEM_IUPAC_TRADITIONAL_NAME>
1-[10-[3-(4-methylpiperazino)propyl]phenothiazin-2-yl]ethanone

> <PUBCHEM_IUPAC_INCHI>
InChI=1S/C22H27N3OS/c1-17(26)18-8-9-22-20(16-18)25(19-6-3-4-7-21(19)27-22)11-5-10-24-14-12-23(2)13-15-24/h3-4,6-9,16H,5,10-15H2,1-2H3

> <PUBCHEM_IUPAC_INCHIKEY>
WKCTYFQBCFYMAR-UHFFFAOYSA-N

> <PUBCHEM_XLOGP3>
3.3

> <PUBCHEM_EXACT_MASS>
381.187483

> <PUBCHEM_MOLECULAR_FORMULA>
C22H27N3OS

> <PUBCHEM_MOLECULAR_WEIGHT>
381.53428

> <PUBCHEM_OPENEYE_CAN_SMILES>
CC(=O)C1=CC2=C(C=C1)SC3=CC=CC=C3N2CCCN4CCN(CC4)C

> <PUBCHEM_OPENEYE_ISO_SMILES>
CC(=O)C1=CC2=C(C=C1)SC3=CC=CC=C3N2CCCN4CCN(CC4)C

> <PUBCHEM_CACTVS_TPSA>
52.1

> <PUBCHEM_MONOISOTOPIC_WEIGHT>
381.187483

> <PUBCHEM_TOTAL_CHARGE>
0

> <PUBCHEM_HEAVY_ATOM_COUNT>
27

> <PUBCHEM_ATOM_DEF_STEREO_COUNT>
0

> <PUBCHEM_ATOM_UDEF_STEREO_COUNT>
0

> <PUBCHEM_BOND_DEF_STEREO_COUNT>
0

> <PUBCHEM_BOND_UDEF_STEREO_COUNT>
0

> <PUBCHEM_ISOTOPIC_ATOM_COUNT>
0

> <PUBCHEM_COMPONENT_COUNT>
1

> <PUBCHEM_CACTVS_TAUTO_COUNT>
2

> <PUBCHEM_COORDINATE_TYPE>
1
5
255

> <PUBCHEM_BONDANNOTATIONS>
14  16  8
14  18  8
15  17  8
15  19  8
16  20  8
17  22  8
18  21  8
19  24  8
20  23  8
21  23  8
22  25  8
24  25  8

$$$$

