439713
  -OEChem-07051212473D

 17 17  0     1  0  0  0  0  0999 V2000
    0.0271   -2.0988    0.2490 O   0  0  0  0  0  0  0  0  0  0  0  0
   -3.4261    0.9192    0.1683 O   0  0  0  0  0  0  0  0  0  0  0  0
    2.7700   -0.4034   -0.9315 O   0  0  0  0  0  0  0  0  0  0  0  0
   -1.1876    1.0661   -0.4959 N   0  0  0  0  0  0  0  0  0  0  0  0
    1.0612    0.6472    0.2503 N   0  0  0  0  0  0  0  0  0  0  0  0
   -1.9376   -0.8621    0.3279 N   0  0  0  0  0  0  0  0  0  0  0  0
    3.2648    0.8675    0.9152 N   0  0  0  0  0  0  0  0  0  0  0  0
   -0.0391    0.2035   -0.5451 C   0  0  1  0  0  0  0  0  0  0  0  0
   -0.6091   -1.0744    0.0454 C   0  0  0  0  0  0  0  0  0  0  0  0
   -2.3167    0.4259    0.0192 C   0  0  0  0  0  0  0  0  0  0  0  0
    2.3932    0.3093   -0.0027 C   0  0  0  0  0  0  0  0  0  0  0  0
    0.2518    0.0412   -1.5871 H   0  0  0  0  0  0  0  0  0  0  0  0
   -1.1855    2.0302   -0.8130 H   0  0  0  0  0  0  0  0  0  0  0  0
    0.8594    1.2189    1.0646 H   0  0  0  0  0  0  0  0  0  0  0  0
   -2.5547   -1.5579    0.7308 H   0  0  0  0  0  0  0  0  0  0  0  0
    2.9347    1.4533    1.6748 H   0  0  0  0  0  0  0  0  0  0  0  0
    4.2647    0.7071    0.8554 H   0  0  0  0  0  0  0  0  0  0  0  0
  1  9  2  0  0  0  0
  2 10  2  0  0  0  0
  3 11  2  0  0  0  0
  4  8  1  0  0  0  0
  4 10  1  0  0  0  0
  4 13  1  0  0  0  0
  5  8  1  0  0  0  0
  5 11  1  0  0  0  0
  5 14  1  0  0  0  0
  6  9  1  0  0  0  0
  6 10  1  0  0  0  0
  6 15  1  0  0  0  0
  7 11  1  0  0  0  0
  7 16  1  0  0  0  0
  7 17  1  0  0  0  0
  8  9  1  0  0  0  0
  8 12  1  0  0  0  0
M  END
> <PUBCHEM_COMPOUND_CID>
439713

> <PUBCHEM_CONFORMER_RMSD>
0.6

> <PUBCHEM_CONFORMER_DIVERSEORDER>
1
3
2

> <PUBCHEM_MMFF94_PARTIAL_CHARGES>
16
1 -0.57
10 0.69
11 0.69
13 0.37
14 0.37
15 0.37
16 0.37
17 0.37
2 -0.57
3 -0.57
4 -0.73
5 -0.73
6 -0.49
7 -0.8
8 0.66
9 0.57

> <PUBCHEM_EFFECTIVE_ROTOR_COUNT>
2.6

> <PUBCHEM_PHARMACOPHORE_FEATURES>
8
1 1 acceptor
1 2 acceptor
1 3 acceptor
1 4 donor
1 5 donor
1 6 donor
1 7 donor
5 4 6 8 9 10 rings

> <PUBCHEM_HEAVY_ATOM_COUNT>
11

> <PUBCHEM_ATOM_DEF_STEREO_COUNT>
1

> <PUBCHEM_ATOM_UDEF_STEREO_COUNT>
0

> <PUBCHEM_BOND_DEF_STEREO_COUNT>
0

> <PUBCHEM_BOND_UDEF_STEREO_COUNT>
0

> <PUBCHEM_ISOTOPIC_ATOM_COUNT>
0

> <PUBCHEM_COMPONENT_COUNT>
1

> <PUBCHEM_CACTVS_TAUTO_COUNT>
15

> <PUBCHEM_CONFORMER_ID>
0006B5A100000001

> <PUBCHEM_MMFF94_ENERGY>
18.9302

> <PUBCHEM_FEATURE_SELFOVERLAP>
40.745

> <PUBCHEM_SHAPE_FINGERPRINT>
10857977 72 18201995495754735001
14325111 11 18409448085323814269
14390081 3 18333733541518948161
15775835 57 18272092699252012960
16945 1 17917713504386484989
20201158 50 18040989683336687726
20645464 45 18261680285571926144
20653085 51 16443889665673496113
20871998 184 18118959187687574719
21040471 1 18413668006577227495
23235685 24 18343022215792578389
23552423 10 17628914534704907092
369184 2 17167859733922834070
5084963 1 18333724706612867285

> <PUBCHEM_SHAPE_MULTIPOLES>
188.84
4.72
1.39
0.76
1.06
0.67
0.03
-1.65
-0.54
-0.31
-0.12
0.37
-0.04
0.35

> <PUBCHEM_SHAPE_SELFOVERLAP>
388.633

> <PUBCHEM_SHAPE_VOLUME>
108.4

> <PUBCHEM_COORDINATE_TYPE>
2
5
10

$$$$

