123865
  -OEChem-07051213102D

 74 76  0     1  0  0  0  0  0999 V2000
    7.7331    0.1545    0.0000 O   0  0  0  0  0  0  0  0  0  0  0  0
    6.0010   -2.8455    0.0000 O   0  0  0  0  0  0  0  0  0  0  0  0
    9.2331    1.0205    0.0000 O   0  0  0  0  0  0  0  0  0  0  0  0
    6.0010   -0.8455    0.0000 O   0  0  0  0  0  0  0  0  0  0  0  0
    5.1350   -1.3455    0.0000 O   0  0  0  0  0  0  0  0  0  0  0  0
    4.2690   -3.8455    0.0000 O   0  0  0  0  0  0  0  0  0  0  0  0
    2.9030   -0.4795    0.0000 O   0  0  0  0  0  0  0  0  0  0  0  0
    7.7331    3.6186    0.0000 O   0  0  0  0  0  0  0  0  0  0  0  0
    9.7331    3.6186    0.0000 O   0  0  0  0  0  0  0  0  0  0  0  0
   11.2331    2.7526    0.0000 O   0  0  0  0  0  0  0  0  0  0  0  0
    9.5991   -1.3455    0.0000 N   0  0  0  0  0  0  0  0  0  0  0  0
    7.7331   -3.8455    0.0000 N   0  0  0  0  0  0  0  0  0  0  0  0
    2.5369   -2.8455    0.0000 N   0  0  0  0  0  0  0  0  0  0  0  0
    6.7331    1.8865    0.0000 N   0  0  0  0  0  0  0  0  0  0  0  0
    7.7331   -0.8455    0.0000 C   0  0  1  0  0  0  0  0  0  0  0  0
    6.8671   -2.3455    0.0000 C   0  0  2  0  0  0  0  0  0  0  0  0
    6.8671   -1.3455    0.0000 C   0  0  1  0  0  0  0  0  0  0  0  0
    8.5991   -1.3455    0.0000 C   0  0  2  0  0  0  0  0  0  0  0  0
    7.7331   -2.8455    0.0000 C   0  0  1  0  0  0  0  0  0  0  0  0
    8.5991   -2.3455    0.0000 C   0  0  0  0  0  0  0  0  0  0  0  0
    8.2331    1.0205    0.0000 C   0  0  1  0  0  0  0  0  0  0  0  0
    5.1350   -2.3455    0.0000 C   0  0  1  0  0  0  0  0  0  0  0  0
    3.4030   -2.3455    0.0000 C   0  0  2  0  0  0  0  0  0  0  0  0
    4.2690   -2.8455    0.0000 C   0  0  1  0  0  0  0  0  0  0  0  0
    7.7331    1.8865    0.0000 C   0  0  1  0  0  0  0  0  0  0  0  0
    3.4030   -1.3455    0.0000 C   0  0  2  0  0  0  0  0  0  0  0  0
    8.2331    2.7526    0.0000 C   0  0  2  0  0  0  0  0  0  0  0  0
    9.7331    1.8865    0.0000 C   0  0  1  0  0  0  0  0  0  0  0  0
    9.2331    2.7526    0.0000 C   0  0  1  0  0  0  0  0  0  0  0  0
    4.2690   -0.8455    0.0000 C   0  0  0  0  0  0  0  0  0  0  0  0
   10.7331    1.8865    0.0000 C   0  0  1  0  0  0  0  0  0  0  0  0
    2.4030   -1.3455    0.0000 C   0  0  0  0  0  0  0  0  0  0  0  0
   11.2331    1.0205    0.0000 C   0  0  0  0  0  0  0  0  0  0  0  0
    2.5369   -3.8455    0.0000 C   0  0  0  0  0  0  0  0  0  0  0  0
    8.2700   -0.5355    0.0000 H   0  0  0  0  0  0  0  0  0  0  0  0
    6.3301   -2.0355    0.0000 H   0  0  0  0  0  0  0  0  0  0  0  0
    6.3301   -1.6555    0.0000 H   0  0  0  0  0  0  0  0  0  0  0  0
    8.7596   -0.7466    0.0000 H   0  0  0  0  0  0  0  0  0  0  0  0
    8.2700   -3.1555    0.0000 H   0  0  0  0  0  0  0  0  0  0  0  0
    8.8112   -2.9281    0.0000 H   0  0  0  0  0  0  0  0  0  0  0  0
    9.2097   -2.2379    0.0000 H   0  0  0  0  0  0  0  0  0  0  0  0
    7.6131    1.0205    0.0000 H   0  0  0  0  0  0  0  0  0  0  0  0
    5.1350   -2.9655    0.0000 H   0  0  0  0  0  0  0  0  0  0  0  0
    3.4030   -2.9655    0.0000 H   0  0  0  0  0  0  0  0  0  0  0  0
    4.8059   -3.1555    0.0000 H   0  0  0  0  0  0  0  0  0  0  0  0
    7.4231    1.3496    0.0000 H   0  0  0  0  0  0  0  0  0  0  0  0
    8.5431    3.2895    0.0000 H   0  0  0  0  0  0  0  0  0  0  0  0
   10.1581    1.1504    0.0000 H   0  0  0  0  0  0  0  0  0  0  0  0
    9.8531    2.7526    0.0000 H   0  0  0  0  0  0  0  0  0  0  0  0
    4.6675   -0.3706    0.0000 H   0  0  0  0  0  0  0  0  0  0  0  0
    3.8705   -0.3706    0.0000 H   0  0  0  0  0  0  0  0  0  0  0  0
    9.9091   -1.8824    0.0000 H   0  0  0  0  0  0  0  0  0  0  0  0
    9.9091   -0.8086    0.0000 H   0  0  0  0  0  0  0  0  0  0  0  0
    8.2700   -4.1555    0.0000 H   0  0  0  0  0  0  0  0  0  0  0  0
    7.1962   -4.1555    0.0000 H   0  0  0  0  0  0  0  0  0  0  0  0
    6.0010   -0.2255    0.0000 H   0  0  0  0  0  0  0  0  0  0  0  0
   11.3531    1.8865    0.0000 H   0  0  0  0  0  0  0  0  0  0  0  0
    2.4030   -0.7255    0.0000 H   0  0  0  0  0  0  0  0  0  0  0  0
    1.7830   -1.3455    0.0000 H   0  0  0  0  0  0  0  0  0  0  0  0
    2.4030   -1.9655    0.0000 H   0  0  0  0  0  0  0  0  0  0  0  0
    2.0000   -2.5355    0.0000 H   0  0  0  0  0  0  0  0  0  0  0  0
    6.4231    2.4235    0.0000 H   0  0  0  0  0  0  0  0  0  0  0  0
    6.4231    1.3496    0.0000 H   0  0  0  0  0  0  0  0  0  0  0  0
    4.8059   -4.1555    0.0000 H   0  0  0  0  0  0  0  0  0  0  0  0
    3.2130    0.0574    0.0000 H   0  0  0  0  0  0  0  0  0  0  0  0
    8.0431    4.1555    0.0000 H   0  0  0  0  0  0  0  0  0  0  0  0
    9.4231    4.1555    0.0000 H   0  0  0  0  0  0  0  0  0  0  0  0
   10.6962    0.7105    0.0000 H   0  0  0  0  0  0  0  0  0  0  0  0
   11.5431    0.4836    0.0000 H   0  0  0  0  0  0  0  0  0  0  0  0
   11.7700    1.3305    0.0000 H   0  0  0  0  0  0  0  0  0  0  0  0
    1.9169   -3.8455    0.0000 H   0  0  0  0  0  0  0  0  0  0  0  0
    2.5369   -4.4655    0.0000 H   0  0  0  0  0  0  0  0  0  0  0  0
    3.1569   -3.8455    0.0000 H   0  0  0  0  0  0  0  0  0  0  0  0
   11.8531    2.7526    0.0000 H   0  0  0  0  0  0  0  0  0  0  0  0
 15  1  1  6  0  0  0
 21  1  1  6  0  0  0
 16  2  1  6  0  0  0
 22  2  1  6  0  0  0
  3 21  1  0  0  0  0
  3 28  1  0  0  0  0
 17  4  1  1  0  0  0
  4 56  1  0  0  0  0
  5 22  1  0  0  0  0
  5 30  1  0  0  0  0
 24  6  1  6  0  0  0
  6 64  1  0  0  0  0
 26  7  1  1  0  0  0
  7 65  1  0  0  0  0
 27  8  1  1  0  0  0
  8 66  1  0  0  0  0
 29  9  1  6  0  0  0
  9 67  1  0  0  0  0
 31 10  1  6  0  0  0
 10 74  1  0  0  0  0
 18 11  1  1  0  0  0
 11 52  1  0  0  0  0
 11 53  1  0  0  0  0
 19 12  1  1  0  0  0
 12 54  1  0  0  0  0
 12 55  1  0  0  0  0
 23 13  1  1  0  0  0
 13 34  1  0  0  0  0
 13 61  1  0  0  0  0
 25 14  1  6  0  0  0
 14 62  1  0  0  0  0
 14 63  1  0  0  0  0
 15 17  1  0  0  0  0
 15 18  1  0  0  0  0
 15 35  1  0  0  0  0
 16 17  1  0  0  0  0
 16 19  1  0  0  0  0
 16 36  1  0  0  0  0
 17 37  1  0  0  0  0
 18 20  1  0  0  0  0
 18 38  1  0  0  0  0
 19 20  1  0  0  0  0
 19 39  1  0  0  0  0
 20 40  1  0  0  0  0
 20 41  1  0  0  0  0
 21 25  1  0  0  0  0
 21 42  1  0  0  0  0
 22 24  1  0  0  0  0
 22 43  1  0  0  0  0
 23 24  1  0  0  0  0
 23 26  1  0  0  0  0
 23 44  1  0  0  0  0
 24 45  1  0  0  0  0
 25 27  1  0  0  0  0
 25 46  1  0  0  0  0
 26 30  1  0  0  0  0
 26 32  1  0  0  0  0
 27 29  1  0  0  0  0
 27 47  1  0  0  0  0
 28 29  1  0  0  0  0
 28 31  1  0  0  0  0
 28 48  1  6  0  0  0
 29 49  1  0  0  0  0
 30 50  1  0  0  0  0
 30 51  1  0  0  0  0
 31 33  1  0  0  0  0
 31 57  1  0  0  0  0
 32 58  1  0  0  0  0
 32 59  1  0  0  0  0
 32 60  1  0  0  0  0
 33 68  1  0  0  0  0
 33 69  1  0  0  0  0
 33 70  1  0  0  0  0
 34 71  1  0  0  0  0
 34 72  1  0  0  0  0
 34 73  1  0  0  0  0
M  END
> <PUBCHEM_COMPOUND_CID>
123865

> <PUBCHEM_COMPOUND_CANONICALIZED>
1

> <PUBCHEM_CACTVS_COMPLEXITY>
681

> <PUBCHEM_CACTVS_HBOND_ACCEPTOR>
14

> <PUBCHEM_CACTVS_HBOND_DONOR>
10

> <PUBCHEM_CACTVS_ROTATABLE_BOND>
6

> <PUBCHEM_CACTVS_SUBSKEYS>
AAADcfB7vAAAAAAAAAAAAAAAAAAAAAAAAAA0SIAAAAAAAAAAAAAAHgAQCAAADHzxgAcCCALABgAAAAAAAAAAAAAAAAAAAIAIAAATEAIAwAAnQAAHEAAXAAHw8C0MAAAAAAAAAAAAgAAUCACgAAAAAAAAAA==

> <PUBCHEM_IUPAC_OPENEYE_NAME>
(2R,3R,4R,5R)-2-[(1S,2S,3R,4S,6R)-4,6-diamino-3-[(2S,3R,4R,5S,6R)-3-amino-4,5-dihydroxy-6-[(1R)-1-hydroxyethyl]tetrahydropyran-2-yl]oxy-2-hydroxy-cyclohexoxy]-5-methyl-4-(methylamino)tetrahydropyran-3,5-diol

> <PUBCHEM_IUPAC_CAS_NAME>
(2R,3R,4R,5R)-2-[(1S,2S,3R,4S,6R)-4,6-diamino-3-[[(2S,3R,4R,5S,6R)-3-amino-4,5-dihydroxy-6-[(1R)-1-hydroxyethyl]-2-oxanyl]oxy]-2-hydroxycyclohexyl]oxy-5-methyl-4-(methylamino)oxane-3,5-diol

> <PUBCHEM_IUPAC_NAME>
(2R,3R,4R,5R)-2-[(1S,2S,3R,4S,6R)-4,6-diamino-3-[(2S,3R,4R,5S,6R)-3-amino-4,5-dihydroxy-6-[(1R)-1-hydroxyethyl]oxan-2-yl]oxy-2-hydroxycyclohexyl]oxy-5-methyl-4-(methylamino)oxane-3,5-diol

> <PUBCHEM_IUPAC_SYSTEMATIC_NAME>
(2R,3R,4R,5R)-2-[(1S,2S,3R,4S,6R)-4,6-bis(azanyl)-3-[(2S,3R,4R,5S,6R)-3-azanyl-4,5-bis(oxidanyl)-6-[(1R)-1-oxidanylethyl]oxan-2-yl]oxy-2-oxidanyl-cyclohexyl]oxy-5-methyl-4-(methylamino)oxane-3,5-diol

> <PUBCHEM_IUPAC_TRADITIONAL_NAME>
(2R,3R,4R,5R)-2-[(1S,2S,3R,4S,6R)-4,6-diamino-3-[(2S,3R,4R,5S,6R)-3-amino-4,5-dihydroxy-6-[(1R)-1-hydroxyethyl]tetrahydropyran-2-yl]oxy-2-hydroxy-cyclohexoxy]-5-methyl-4-(methylamino)tetrahydropyran-3,5-diol

> <PUBCHEM_IUPAC_INCHI>
InChI=1S/C20H40N4O10/c1-6(25)14-11(27)10(26)9(23)18(32-14)33-15-7(21)4-8(22)16(12(15)28)34-19-13(29)17(24-3)20(2,30)5-31-19/h6-19,24-30H,4-5,21-23H2,1-3H3/t6-,7+,8-,9-,10-,11+,12+,13-,14-,15-,16+,17-,18-,19-,20+/m1/s1

> <PUBCHEM_IUPAC_INCHIKEY>
BRZYSWJRSDMWLG-DJWUNRQOSA-N

> <PUBCHEM_XLOGP3_AA>
-5.8

> <PUBCHEM_EXACT_MASS>
496.274443

> <PUBCHEM_MOLECULAR_FORMULA>
C20H40N4O10

> <PUBCHEM_MOLECULAR_WEIGHT>
496.5524

> <PUBCHEM_OPENEYE_CAN_SMILES>
CC(C1C(C(C(C(O1)OC2C(CC(C(C2O)OC3C(C(C(CO3)(C)O)NC)O)N)N)N)O)O)O

> <PUBCHEM_OPENEYE_ISO_SMILES>
C[C@H]([C@@H]1[C@H]([C@@H]([C@H]([C@H](O1)O[C@@H]2[C@H](C[C@H]([C@@H]([C@H]2O)O[C@@H]3[C@@H]([C@H]([C@@](CO3)(C)O)NC)O)N)N)N)O)O)O

> <PUBCHEM_CACTVS_TPSA>
248

> <PUBCHEM_MONOISOTOPIC_WEIGHT>
496.274443

> <PUBCHEM_TOTAL_CHARGE>
0

> <PUBCHEM_HEAVY_ATOM_COUNT>
34

> <PUBCHEM_ATOM_DEF_STEREO_COUNT>
15

> <PUBCHEM_ATOM_UDEF_STEREO_COUNT>
0

> <PUBCHEM_BOND_DEF_STEREO_COUNT>
0

> <PUBCHEM_BOND_UDEF_STEREO_COUNT>
0

> <PUBCHEM_ISOTOPIC_ATOM_COUNT>
0

> <PUBCHEM_COMPONENT_COUNT>
1

> <PUBCHEM_CACTVS_TAUTO_COUNT>
1

> <PUBCHEM_COORDINATE_TYPE>
1
5
255

> <PUBCHEM_BONDANNOTATIONS>
15  1  6
21  1  6
31  10  6
18  11  5
19  12  5
23  13  5
25  14  6
16  2  6
22  2  6
28  48  6
17  4  5
24  6  6
26  7  5
27  8  5
29  9  6

$$$$

