163893
  -OEChem-07051213133D

 39 41  0     1  0  0  0  0  0999 V2000
   -3.1727   -1.0103    2.3248 Cl  0  0  0  0  0  0  0  0  0  0  0  0
   -5.4774   -0.6498   -2.5259 Cl  0  0  0  0  0  0  0  0  0  0  0  0
    4.8993    0.8689    0.0726 F   0  0  0  0  0  0  0  0  0  0  0  0
    5.1729    0.3938   -2.0388 F   0  0  0  0  0  0  0  0  0  0  0  0
    5.6168   -1.1057   -0.5124 F   0  0  0  0  0  0  0  0  0  0  0  0
    0.6922   -0.5682   -0.0033 O   0  0  0  0  0  0  0  0  0  0  0  0
    2.9715   -1.0978    0.3577 O   0  0  0  0  0  0  0  0  0  0  0  0
   -0.5290    1.7981    1.0335 N   0  0  0  0  0  0  0  0  0  0  0  0
   -1.7119    2.3469    0.7547 N   0  0  0  0  0  0  0  0  0  0  0  0
    0.0292    3.5930   -0.0508 N   0  0  0  0  0  0  0  0  0  0  0  0
   -0.4751   -0.6778    0.8456 C   0  0  1  0  0  0  0  0  0  0  0  0
   -0.2812   -1.9870    1.6276 C   0  0  0  0  0  0  0  0  0  0  0  0
    1.2185   -2.1254    1.7003 C   0  0  0  0  0  0  0  0  0  0  0  0
    1.6404   -1.5854    0.3494 C   0  0  1  0  0  0  0  0  0  0  0  0
   -0.4570    0.5457    1.7740 C   0  0  0  0  0  0  0  0  0  0  0  0
   -1.7567   -0.6748    0.0215 C   0  0  0  0  0  0  0  0  0  0  0  0
   -3.0085   -0.8201    0.6173 C   0  0  0  0  0  0  0  0  0  0  0  0
   -1.6532   -0.5219   -1.3605 C   0  0  0  0  0  0  0  0  0  0  0  0
    3.3488   -0.5961   -0.9163 C   0  0  0  0  0  0  0  0  0  0  0  0
   -4.1596   -0.8124   -0.1705 C   0  0  0  0  0  0  0  0  0  0  0  0
   -2.8043   -0.5143   -2.1481 C   0  0  0  0  0  0  0  0  0  0  0  0
    0.5014    2.5308    0.5594 C   0  0  0  0  0  0  0  0  0  0  0  0
   -4.0576   -0.6596   -1.5532 C   0  0  0  0  0  0  0  0  0  0  0  0
    4.7728   -0.1085   -0.8515 C   0  0  0  0  0  0  0  0  0  0  0  0
   -1.3198    3.4379    0.0931 C   0  0  0  0  0  0  0  0  0  0  0  0
   -0.6917   -2.8418    1.0742 H   0  0  0  0  0  0  0  0  0  0  0  0
   -0.7127   -1.9956    2.6312 H   0  0  0  0  0  0  0  0  0  0  0  0
    1.6326   -1.5132    2.5099 H   0  0  0  0  0  0  0  0  0  0  0  0
    1.5559   -3.1528    1.8655 H   0  0  0  0  0  0  0  0  0  0  0  0
    1.5550   -2.3843   -0.3991 H   0  0  0  0  0  0  0  0  0  0  0  0
    0.4997    0.5914    2.3118 H   0  0  0  0  0  0  0  0  0  0  0  0
   -1.2266    0.5887    2.5445 H   0  0  0  0  0  0  0  0  0  0  0  0
   -0.6994   -0.4027   -1.8651 H   0  0  0  0  0  0  0  0  0  0  0  0
    2.6998    0.2374   -1.2057 H   0  0  0  0  0  0  0  0  0  0  0  0
    3.2654   -1.3882   -1.6687 H   0  0  0  0  0  0  0  0  0  0  0  0
   -5.1379   -0.9251    0.2921 H   0  0  0  0  0  0  0  0  0  0  0  0
   -2.7102   -0.3934   -3.2242 H   0  0  0  0  0  0  0  0  0  0  0  0
    1.5429    2.2651    0.6748 H   0  0  0  0  0  0  0  0  0  0  0  0
   -2.0400    4.1416   -0.2968 H   0  0  0  0  0  0  0  0  0  0  0  0
  1 17  1  0  0  0  0
  2 23  1  0  0  0  0
  3 24  1  0  0  0  0
  4 24  1  0  0  0  0
  5 24  1  0  0  0  0
  6 11  1  0  0  0  0
  6 14  1  0  0  0  0
  7 14  1  0  0  0  0
  7 19  1  0  0  0  0
  8  9  1  0  0  0  0
  8 15  1  0  0  0  0
  8 22  1  0  0  0  0
  9 25  2  0  0  0  0
 10 22  2  0  0  0  0
 10 25  1  0  0  0  0
 11 12  1  0  0  0  0
 11 15  1  0  0  0  0
 11 16  1  0  0  0  0
 12 13  1  0  0  0  0
 12 26  1  0  0  0  0
 12 27  1  0  0  0  0
 13 14  1  0  0  0  0
 13 28  1  0  0  0  0
 13 29  1  0  0  0  0
 14 30  1  0  0  0  0
 15 31  1  0  0  0  0
 15 32  1  0  0  0  0
 16 17  2  0  0  0  0
 16 18  1  0  0  0  0
 17 20  1  0  0  0  0
 18 21  2  0  0  0  0
 18 33  1  0  0  0  0
 19 24  1  0  0  0  0
 19 34  1  0  0  0  0
 19 35  1  0  0  0  0
 20 23  2  0  0  0  0
 20 36  1  0  0  0  0
 21 23  1  0  0  0  0
 21 37  1  0  0  0  0
 22 38  1  0  0  0  0
 25 39  1  0  0  0  0
M  END
> <PUBCHEM_COMPOUND_CID>
163893

> <PUBCHEM_CONFORMER_RMSD>
0.8

> <PUBCHEM_CONFORMER_DIVERSEORDER>
1
26
25
14
24
20
7
19
21
22
33
12
23
27
9
31
11
13
8
18
32
30
16
10
4
17
29
3
15
5
2
28
6

> <PUBCHEM_MMFF94_PARTIAL_CHARGES>
28
1 -0.18
10 -0.57
11 0.42
14 0.56
15 0.26
16 -0.14
17 0.18
18 -0.15
19 0.28
2 -0.18
20 -0.15
21 -0.15
22 0.04
23 0.18
24 1.02
25 0.37
3 -0.34
33 0.15
36 0.15
37 0.15
38 0.15
39 0.15
4 -0.34
5 -0.34
6 -0.56
7 -0.56
8 0.31
9 -0.71

> <PUBCHEM_EFFECTIVE_ROTOR_COUNT>
7

> <PUBCHEM_PHARMACOPHORE_FEATURES>
7
1 6 acceptor
1 7 acceptor
3 8 10 22 cation
3 9 10 25 cation
5 6 11 12 13 14 rings
5 8 9 10 22 25 rings
6 16 17 18 20 21 23 rings

> <PUBCHEM_HEAVY_ATOM_COUNT>
25

> <PUBCHEM_ATOM_DEF_STEREO_COUNT>
2

> <PUBCHEM_ATOM_UDEF_STEREO_COUNT>
0

> <PUBCHEM_BOND_DEF_STEREO_COUNT>
0

> <PUBCHEM_BOND_UDEF_STEREO_COUNT>
0

> <PUBCHEM_ISOTOPIC_ATOM_COUNT>
0

> <PUBCHEM_COMPONENT_COUNT>
1

> <PUBCHEM_CACTVS_TAUTO_COUNT>
1

> <PUBCHEM_CONFORMER_ID>
0002803500000001

> <PUBCHEM_MMFF94_ENERGY>
56.8632

> <PUBCHEM_FEATURE_SELFOVERLAP>
38.323

> <PUBCHEM_SHAPE_FINGERPRINT>
10165383 225 17561080315923365611
10670039 82 18127384888137823972
10871710 139 18338785823102662872
11961588 58 16128112074303799383
12293681 160 18273221914773348971
12403814 3 17822280327401810706
12553582 1 18335990817637787427
12597179 24 6770215845962240643
12788726 201 18193565686360668689
13149001 5 18195531385048471019
13911987 19 18271800186252023830
14142880 1 17774144829297835485
14790565 3 17759237788563110841
14840074 17 17896024478141005300
14863182 85 14861797720042774254
14910302 57 16733808930893838548
14955137 171 17677593303544173555
15849732 13 17677033712666445891
17357779 13 18408322164137587072
1813 80 17895209782852994599
192875 21 18343024406800697810
2132832 1 17841735181118412890
21330990 113 16226039028752500591
21421566 26 17967538990432785365
22620623 9 17677059065273045669
23175994 123 18341039727613379337
23352939 185 17967538943330595593
23402539 116 18334006211902580690
23419403 2 17842822353241519001
23558518 356 17767411544918070883
238 59 17547888186139232455
2838139 119 16128391366751399950
394222 165 16701195207778644890
427121 178 11959454582073337741
4340502 62 11311498082469578581
465052 167 5833422176556932895
7164475 11 18193004939598856486

> <PUBCHEM_SHAPE_MULTIPOLES>
469.72
9.41
2.93
2.23
8.21
3.72
-0.4
-2.9
-7.87
0.17
1.35
-1.91
-0.69
-0.36

> <PUBCHEM_SHAPE_SELFOVERLAP>
992.97

> <PUBCHEM_SHAPE_VOLUME>
267.7

> <PUBCHEM_COORDINATE_TYPE>
2
5
10

$$$$

