13555
  -OEChem-06241222393D

 16 15  0     0  0  0  0  0  0999 V2000
    0.9799    0.0340    0.0001 C   0  0  0  0  0  0  0  0  0  0  0  0
    2.1198    1.0203   -0.0005 C   0  0  0  0  0  0  0  0  0  0  0  0
    1.4176   -1.4051    0.0002 C   0  0  0  0  0  0  0  0  0  0  0  0
   -0.2934    0.4742    0.0010 C   0  0  0  0  0  0  0  0  0  0  0  0
   -1.4974   -0.3268   -0.0009 C   0  0  0  0  0  0  0  0  0  0  0  0
   -2.7264    0.2034    0.0002 C   0  0  0  0  0  0  0  0  0  0  0  0
    2.7437    0.8785    0.8882 H   0  0  0  0  0  0  0  0  0  0  0  0
    2.7430    0.8782   -0.8896 H   0  0  0  0  0  0  0  0  0  0  0  0
    1.7744    2.0596   -0.0006 H   0  0  0  0  0  0  0  0  0  0  0  0
    0.5910   -2.1182    0.0033 H   0  0  0  0  0  0  0  0  0  0  0  0
    2.0229   -1.6124   -0.8887 H   0  0  0  0  0  0  0  0  0  0  0  0
    2.0276   -1.6108    0.8863 H   0  0  0  0  0  0  0  0  0  0  0  0
   -0.4603    1.5510    0.0017 H   0  0  0  0  0  0  0  0  0  0  0  0
   -1.4127   -1.4077   -0.0036 H   0  0  0  0  0  0  0  0  0  0  0  0
   -3.5993   -0.4410   -0.0015 H   0  0  0  0  0  0  0  0  0  0  0  0
   -2.8923    1.2756    0.0026 H   0  0  0  0  0  0  0  0  0  0  0  0
  1  2  1  0  0  0  0
  1  3  1  0  0  0  0
  1  4  2  0  0  0  0
  2  7  1  0  0  0  0
  2  8  1  0  0  0  0
  2  9  1  0  0  0  0
  3 10  1  0  0  0  0
  3 11  1  0  0  0  0
  3 12  1  0  0  0  0
  4  5  1  0  0  0  0
  4 13  1  0  0  0  0
  5  6  2  0  0  0  0
  5 14  1  0  0  0  0
  6 15  1  0  0  0  0
  6 16  1  0  0  0  0
M  END
> <PUBCHEM_COMPOUND_CID>
13555

> <PUBCHEM_CONFORMER_RMSD>
0.4

> <PUBCHEM_CONFORMER_DIVERSEORDER>
1
2

> <PUBCHEM_MMFF94_PARTIAL_CHARGES>
10
1 -0.28
13 0.15
14 0.15
15 0.15
16 0.15
2 0.14
3 0.14
4 -0.15
5 -0.15
6 -0.3

> <PUBCHEM_EFFECTIVE_ROTOR_COUNT>
1

> <PUBCHEM_PHARMACOPHORE_FEATURES>
2
1 6 hydrophobe
3 1 2 3 hydrophobe

> <PUBCHEM_HEAVY_ATOM_COUNT>
6

> <PUBCHEM_ATOM_DEF_STEREO_COUNT>
0

> <PUBCHEM_ATOM_UDEF_STEREO_COUNT>
0

> <PUBCHEM_BOND_DEF_STEREO_COUNT>
0

> <PUBCHEM_BOND_UDEF_STEREO_COUNT>
0

> <PUBCHEM_ISOTOPIC_ATOM_COUNT>
0

> <PUBCHEM_COMPONENT_COUNT>
1

> <PUBCHEM_CACTVS_TAUTO_COUNT>
1

> <PUBCHEM_CONFORMER_ID>
000034F300000001

> <PUBCHEM_MMFF94_ENERGY>
5.616

> <PUBCHEM_FEATURE_SELFOVERLAP>
10.149

> <PUBCHEM_SHAPE_FINGERPRINT>
139733 1 9294987073178236035
14390081 3 18260549983128796625
20096714 4 18335421205904915336
21040471 1 18266459798114198596
23552333 60 18261108616481498874
23552449 11 18200042861772229146
24536 1 18340218469605012121
29004967 10 18273491269273313161
5460574 1 9223238446524420833

> <PUBCHEM_SHAPE_MULTIPOLES>
123.48
3.49
1.18
0.62
1.72
0.27
0
-0.44
0
-0.78
0
0
0
0

> <PUBCHEM_SHAPE_SELFOVERLAP>
220.535

> <PUBCHEM_SHAPE_VOLUME>
81.5

> <PUBCHEM_COORDINATE_TYPE>
2
5
10

$$$$

