5280793
  -OEChem-07051212503D

 73 75  0     1  0  0  0  0  0999 V2000
   -7.4382    0.1154   -1.3372 O   0  0  0  0  0  0  0  0  0  0  0  0
    0.7927    1.4100    0.1344 C   0  0  2  0  0  0  0  0  0  0  0  0
    2.0629    0.7278   -0.4350 C   0  0  2  0  0  0  0  0  0  0  0  0
   -0.2912    0.6030   -0.6229 C   0  0  1  0  0  0  0  0  0  0  0  0
    1.7055   -0.7731   -0.4594 C   0  0  0  0  0  0  0  0  0  0  0  0
    0.1698   -0.8505   -0.4766 C   0  0  0  0  0  0  0  0  0  0  0  0
    0.6743    2.9111   -0.2214 C   0  0  0  0  0  0  0  0  0  0  0  0
    3.3702    1.0137    0.2900 C   0  0  2  0  0  0  0  0  0  0  0  0
   -1.6831    1.0174   -0.2229 C   0  0  0  0  0  0  0  0  0  0  0  0
    0.7070    1.2457    1.6742 C   0  0  0  0  0  0  0  0  0  0  0  0
   -0.7369    3.3269   -0.6805 C   0  0  0  0  0  0  0  0  0  0  0  0
   -1.8722    2.5108   -0.0483 C   0  0  0  0  0  0  0  0  0  0  0  0
    3.6805    2.5125    0.2827 C   0  0  0  0  0  0  0  0  0  0  0  0
    4.5039    0.2493   -0.3498 C   0  0  0  0  0  0  0  0  0  0  0  0
   -2.7017    0.1652   -0.0372 C   0  0  0  0  0  0  0  0  0  0  0  0
    5.2432   -0.6673    0.2938 C   0  0  0  0  0  0  0  0  0  0  0  0
   -4.0287    0.5885    0.3347 C   0  0  0  0  0  0  0  0  0  0  0  0
    6.3706   -1.4432   -0.3516 C   0  0  1  0  0  0  0  0  0  0  0  0
   -5.0489   -0.2642    0.5208 C   0  0  0  0  0  0  0  0  0  0  0  0
    7.7246   -1.1765    0.3659 C   0  0  0  0  0  0  0  0  0  0  0  0
   -6.4393    0.2193    0.8683 C   0  0  0  0  0  0  0  0  0  0  0  0
    5.9882   -2.9280   -0.3500 C   0  0  0  0  0  0  0  0  0  0  0  0
   -4.9121   -1.7087    0.3635 C   0  0  0  0  0  0  0  0  0  0  0  0
   -7.5217   -0.4125   -0.0149 C   0  0  2  0  0  0  0  0  0  0  0  0
   -5.9720   -2.3622   -0.4887 C   0  0  0  0  0  0  0  0  0  0  0  0
   -7.3830   -1.9351   -0.0735 C   0  0  0  0  0  0  0  0  0  0  0  0
    8.1062    0.3086    0.3496 C   0  0  0  0  0  0  0  0  0  0  0  0
    8.8688   -1.9847   -0.2635 C   0  0  0  0  0  0  0  0  0  0  0  0
   -3.9393   -2.4195    0.9554 C   0  0  0  0  0  0  0  0  0  0  0  0
    2.1745    1.0415   -1.4856 H   0  0  0  0  0  0  0  0  0  0  0  0
   -0.2101    0.8381   -1.6972 H   0  0  0  0  0  0  0  0  0  0  0  0
    2.0853   -1.3052    0.4205 H   0  0  0  0  0  0  0  0  0  0  0  0
    2.1282   -1.2601   -1.3454 H   0  0  0  0  0  0  0  0  0  0  0  0
   -0.1876   -1.4734   -1.3037 H   0  0  0  0  0  0  0  0  0  0  0  0
   -0.1904   -1.3029    0.4548 H   0  0  0  0  0  0  0  0  0  0  0  0
    1.3631    3.1858   -1.0278 H   0  0  0  0  0  0  0  0  0  0  0  0
    0.9400    3.5347    0.6402 H   0  0  0  0  0  0  0  0  0  0  0  0
    3.2948    0.6964    1.3377 H   0  0  0  0  0  0  0  0  0  0  0  0
    1.4757    1.8328    2.1869 H   0  0  0  0  0  0  0  0  0  0  0  0
   -0.2536    1.5867    2.0708 H   0  0  0  0  0  0  0  0  0  0  0  0
    0.8314    0.2054    1.9908 H   0  0  0  0  0  0  0  0  0  0  0  0
   -0.7937    3.2195   -1.7723 H   0  0  0  0  0  0  0  0  0  0  0  0
   -0.8867    4.3936   -0.4751 H   0  0  0  0  0  0  0  0  0  0  0  0
   -2.7978    2.8506   -0.5271 H   0  0  0  0  0  0  0  0  0  0  0  0
   -1.9351    2.7546    1.0186 H   0  0  0  0  0  0  0  0  0  0  0  0
    3.6153    2.9416   -0.7227 H   0  0  0  0  0  0  0  0  0  0  0  0
    4.7045    2.6889    0.6359 H   0  0  0  0  0  0  0  0  0  0  0  0
    3.0360    3.0735    0.9611 H   0  0  0  0  0  0  0  0  0  0  0  0
    4.7174    0.4656   -1.3943 H   0  0  0  0  0  0  0  0  0  0  0  0
   -2.5017   -0.8742   -0.2577 H   0  0  0  0  0  0  0  0  0  0  0  0
    5.0316   -0.8851    1.3383 H   0  0  0  0  0  0  0  0  0  0  0  0
   -4.2258    1.6448    0.4837 H   0  0  0  0  0  0  0  0  0  0  0  0
    6.4699   -1.1312   -1.4004 H   0  0  0  0  0  0  0  0  0  0  0  0
    7.6390   -1.4856    1.4165 H   0  0  0  0  0  0  0  0  0  0  0  0
   -6.6391   -0.0318    1.9180 H   0  0  0  0  0  0  0  0  0  0  0  0
   -6.4984    1.3113    0.7793 H   0  0  0  0  0  0  0  0  0  0  0  0
    6.6748   -3.5161   -0.9667 H   0  0  0  0  0  0  0  0  0  0  0  0
    4.9838   -3.0771   -0.7637 H   0  0  0  0  0  0  0  0  0  0  0  0
    5.9987   -3.3433    0.6640 H   0  0  0  0  0  0  0  0  0  0  0  0
   -8.5120   -0.1487    0.3713 H   0  0  0  0  0  0  0  0  0  0  0  0
   -5.7952   -2.1027   -1.5402 H   0  0  0  0  0  0  0  0  0  0  0  0
   -5.9058   -3.4557   -0.4289 H   0  0  0  0  0  0  0  0  0  0  0  0
   -8.1002   -2.3485   -0.7923 H   0  0  0  0  0  0  0  0  0  0  0  0
   -7.6181   -2.3606    0.9102 H   0  0  0  0  0  0  0  0  0  0  0  0
    9.0797    0.4658    0.8269 H   0  0  0  0  0  0  0  0  0  0  0  0
    8.1678    0.6895   -0.6755 H   0  0  0  0  0  0  0  0  0  0  0  0
    7.3793    0.9171    0.8967 H   0  0  0  0  0  0  0  0  0  0  0  0
    8.9509   -1.7852   -1.3373 H   0  0  0  0  0  0  0  0  0  0  0  0
    9.8274   -1.7295    0.2016 H   0  0  0  0  0  0  0  0  0  0  0  0
    8.7242   -3.0599   -0.1221 H   0  0  0  0  0  0  0  0  0  0  0  0
   -3.8767   -3.4948    0.8188 H   0  0  0  0  0  0  0  0  0  0  0  0
   -3.2088   -1.9772    1.6251 H   0  0  0  0  0  0  0  0  0  0  0  0
   -6.5317   -0.0003   -1.6663 H   0  0  0  0  0  0  0  0  0  0  0  0
  1 24  1  0  0  0  0
  1 73  1  0  0  0  0
  2  3  1  0  0  0  0
  2  4  1  0  0  0  0
  2  7  1  0  0  0  0
  2 10  1  0  0  0  0
  3  5  1  0  0  0  0
  3  8  1  0  0  0  0
  3 30  1  0  0  0  0
  4  6  1  0  0  0  0
  4  9  1  0  0  0  0
  4 31  1  0  0  0  0
  5  6  1  0  0  0  0
  5 32  1  0  0  0  0
  5 33  1  0  0  0  0
  6 34  1  0  0  0  0
  6 35  1  0  0  0  0
  7 11  1  0  0  0  0
  7 36  1  0  0  0  0
  7 37  1  0  0  0  0
  8 13  1  0  0  0  0
  8 14  1  0  0  0  0
  8 38  1  0  0  0  0
  9 12  1  0  0  0  0
  9 15  2  0  0  0  0
 10 39  1  0  0  0  0
 10 40  1  0  0  0  0
 10 41  1  0  0  0  0
 11 12  1  0  0  0  0
 11 42  1  0  0  0  0
 11 43  1  0  0  0  0
 12 44  1  0  0  0  0
 12 45  1  0  0  0  0
 13 46  1  0  0  0  0
 13 47  1  0  0  0  0
 13 48  1  0  0  0  0
 14 16  2  0  0  0  0
 14 49  1  0  0  0  0
 15 17  1  0  0  0  0
 15 50  1  0  0  0  0
 16 18  1  0  0  0  0
 16 51  1  0  0  0  0
 17 19  2  0  0  0  0
 17 52  1  0  0  0  0
 18 20  1  0  0  0  0
 18 22  1  0  0  0  0
 18 53  1  0  0  0  0
 19 21  1  0  0  0  0
 19 23  1  0  0  0  0
 20 27  1  0  0  0  0
 20 28  1  0  0  0  0
 20 54  1  0  0  0  0
 21 24  1  0  0  0  0
 21 55  1  0  0  0  0
 21 56  1  0  0  0  0
 22 57  1  0  0  0  0
 22 58  1  0  0  0  0
 22 59  1  0  0  0  0
 23 25  1  0  0  0  0
 23 29  2  0  0  0  0
 24 26  1  0  0  0  0
 24 60  1  0  0  0  0
 25 26  1  0  0  0  0
 25 61  1  0  0  0  0
 25 62  1  0  0  0  0
 26 63  1  0  0  0  0
 26 64  1  0  0  0  0
 27 65  1  0  0  0  0
 27 66  1  0  0  0  0
 27 67  1  0  0  0  0
 28 68  1  0  0  0  0
 28 69  1  0  0  0  0
 28 70  1  0  0  0  0
 29 71  1  0  0  0  0
 29 72  1  0  0  0  0
M  END
> <PUBCHEM_COMPOUND_CID>
5280793

> <PUBCHEM_CONFORMER_RMSD>
0.8

> <PUBCHEM_CONFORMER_DIVERSEORDER>
1
12
11
18
10
7
16
20
15
17
14
19
3
8
9
4
5
13
2
6

> <PUBCHEM_MMFF94_PARTIAL_CHARGES>
23
1 -0.68
12 0.14
14 -0.29
15 -0.15
16 -0.29
17 -0.15
18 0.14
19 -0.14
21 0.14
23 -0.14
24 0.28
25 0.14
29 -0.3
4 0.14
49 0.15
50 0.15
51 0.15
52 0.15
71 0.15
72 0.15
73 0.4
8 0.14
9 -0.28

> <PUBCHEM_EFFECTIVE_ROTOR_COUNT>
7

> <PUBCHEM_PHARMACOPHORE_FEATURES>
8
1 1 acceptor
1 1 donor
1 13 hydrophobe
1 22 hydrophobe
3 20 27 28 hydrophobe
5 2 3 4 5 6 rings
6 19 21 23 24 25 26 rings
6 2 4 7 9 11 12 rings

> <PUBCHEM_HEAVY_ATOM_COUNT>
29

> <PUBCHEM_ATOM_DEF_STEREO_COUNT>
6

> <PUBCHEM_ATOM_UDEF_STEREO_COUNT>
0

> <PUBCHEM_BOND_DEF_STEREO_COUNT>
3

> <PUBCHEM_BOND_UDEF_STEREO_COUNT>
0

> <PUBCHEM_ISOTOPIC_ATOM_COUNT>
0

> <PUBCHEM_COMPONENT_COUNT>
1

> <PUBCHEM_CACTVS_TAUTO_COUNT>
1

> <PUBCHEM_CONFORMER_ID>
0050941900000001

> <PUBCHEM_MMFF94_ENERGY>
82.0083

> <PUBCHEM_FEATURE_SELFOVERLAP>
40.663

> <PUBCHEM_SHAPE_FINGERPRINT>
10 15 16225768497563268322
10391435 84 18271529702275822522
10411042 1 18411699880837952660
10674148 151 17917712413882004345
11135926 11 18341614850042713999
11456790 92 17822276965529154459
11963148 33 18411706508284136022
12013929 27 17980494369632325095
12166972 35 17775562026993342884
12522641 126 18200586979022382996
12539745 222 17894908585265427960
12539765 74 11312060975866226056
12643181 29 18131069312157063251
12760667 363 18411698794458399545
13248334 5 18051973623804718556
13540713 4 15866018334910947468
13540713 5 15193622972380312452
13631057 29 18341331193063802864
13673619 4 18334013904389572088
13685833 64 18409729582619282816
13782708 43 18187364332930692597
13811026 1 18411983520466890602
13862211 1 18410571773380502349
13885169 127 18411701019320316381
14251764 18 17894631439963403820
14294032 229 16342311353331385917
14556957 393 15625649626474295918
14675019 173 18131633365727026477
15131766 46 16083930291143274384
15183329 4 17918277545145984211
15198563 99 16988853812393723885
15352257 5 18411980265198678330
15510800 12 18186794829216212326
16087824 20 18269837670451843189
18335252 98 18408322203557008082
18603816 31 17822020779066817623
18608769 82 18409451384708413522
18643901 69 18202562903657583911
20028762 73 18333448733574406246
21033650 10 16773239608331465733
21130935 74 18262798454843818723
21150785 3 13542462064107427754
21267235 1 18410291432808057140
21304304 249 18410291389357555823
21424621 283 8430320134163612917
21585482 111 8430055147783506611
21792934 111 18334866008215041456
23522609 53 18122870275223639732
23559900 14 18266181630985395481
255183 451 18341608231661687076
3004659 81 17989490701431804569
3383291 50 18342739615899096338
3627633 1 18339923834965817948
3633792 109 16845851300305183268
4340502 62 14490467595262269388
465052 167 18334572434916175572
5104073 3 18187931737593823808
5718773 13 18410855455912582126
5937810 71 12751250233091810191
6081469 158 18343022194839884245
6138700 20 18413670206233726235
636775 72 9511164241182311622
636775 8 18336256947477097574
9896288 288 17751070525532784792

> <PUBCHEM_SHAPE_MULTIPOLES>
590.94
24.48
3.24
0.93
12.02
0.78
0.13
-20.68
-0.07
0.8
-0.25
-0.48
0.08
0.64

> <PUBCHEM_SHAPE_SELFOVERLAP>
1213.483

> <PUBCHEM_SHAPE_VOLUME>
341.1

> <PUBCHEM_COORDINATE_TYPE>
2
5
10

$$$$

