656755
  -OEChem-07051213043D

 50 54  0     1  0  0  0  0  0999 V2000
   -1.0064    2.9626   -0.4681 F   0  0  0  0  0  0  0  0  0  0  0  0
    0.1271   -1.8304   -3.0883 O   0  0  0  0  0  0  0  0  0  0  0  0
   -1.0698   -2.5293   -1.2224 N   0  0  0  0  0  0  0  0  0  0  0  0
   -0.5712    0.4455   -0.9246 N   0  0  0  0  0  0  0  0  0  0  0  0
    3.3786    2.4660    0.3446 N   0  0  0  0  0  0  0  0  0  0  0  0
    0.4519   -0.5752   -1.0720 C   0  0  2  0  0  0  0  0  0  0  0  0
    1.6404    0.0627   -1.7852 C   0  0  0  0  0  0  0  0  0  0  0  0
    2.5237    0.8259   -0.8482 C   0  0  0  0  0  0  0  0  0  0  0  0
   -0.1805   -1.6830   -1.9023 C   0  0  0  0  0  0  0  0  0  0  0  0
    3.6296    0.3037   -0.1442 C   0  0  0  0  0  0  0  0  0  0  0  0
   -1.5160   -2.3156    0.1270 C   0  0  0  0  0  0  0  0  0  0  0  0
   -1.6897   -1.0336    0.6863 C   0  0  0  0  0  0  0  0  0  0  0  0
   -1.5506    0.2143   -0.1183 C   0  0  0  0  0  0  0  0  0  0  0  0
    4.1553    1.3594    0.6040 C   0  0  0  0  0  0  0  0  0  0  0  0
    2.3827    2.1473   -0.5393 C   0  0  0  0  0  0  0  0  0  0  0  0
   -2.6037    1.2651   -0.0099 C   0  0  0  0  0  0  0  0  0  0  0  0
    4.2465   -0.9602   -0.0601 C   0  0  0  0  0  0  0  0  0  0  0  0
   -1.5157   -3.7442   -1.9059 C   0  0  0  0  0  0  0  0  0  0  0  0
   -1.8140   -3.4266    0.9410 C   0  0  0  0  0  0  0  0  0  0  0  0
   -2.0707   -0.8865    2.0324 C   0  0  0  0  0  0  0  0  0  0  0  0
    5.2715    1.2135    1.4353 C   0  0  0  0  0  0  0  0  0  0  0  0
    5.3638   -1.1210    0.7674 C   0  0  0  0  0  0  0  0  0  0  0  0
   -2.2117   -3.2730    2.2717 C   0  0  0  0  0  0  0  0  0  0  0  0
   -2.3281   -2.0037    2.8207 C   0  0  0  0  0  0  0  0  0  0  0  0
    5.8668   -0.0495    1.5027 C   0  0  0  0  0  0  0  0  0  0  0  0
   -2.2682    2.6010   -0.1940 C   0  0  0  0  0  0  0  0  0  0  0  0
   -3.9126    0.8940    0.2741 C   0  0  0  0  0  0  0  0  0  0  0  0
   -3.2561    3.5805   -0.0925 C   0  0  0  0  0  0  0  0  0  0  0  0
   -4.9005    1.8736    0.3758 C   0  0  0  0  0  0  0  0  0  0  0  0
   -4.5723    3.2167    0.1925 C   0  0  0  0  0  0  0  0  0  0  0  0
    0.7947   -0.9818   -0.1117 H   0  0  0  0  0  0  0  0  0  0  0  0
    1.3021    0.7257   -2.5934 H   0  0  0  0  0  0  0  0  0  0  0  0
    2.2493   -0.7106   -2.2722 H   0  0  0  0  0  0  0  0  0  0  0  0
    1.6732    2.8967   -0.8611 H   0  0  0  0  0  0  0  0  0  0  0  0
    3.5233    3.3811    0.7486 H   0  0  0  0  0  0  0  0  0  0  0  0
    3.8665   -1.8067   -0.6248 H   0  0  0  0  0  0  0  0  0  0  0  0
   -1.4128   -3.6441   -2.9905 H   0  0  0  0  0  0  0  0  0  0  0  0
   -2.5703   -3.9389   -1.6862 H   0  0  0  0  0  0  0  0  0  0  0  0
   -0.8915   -4.5838   -1.5847 H   0  0  0  0  0  0  0  0  0  0  0  0
   -1.7079   -4.4433    0.5708 H   0  0  0  0  0  0  0  0  0  0  0  0
   -2.1715    0.0972    2.4851 H   0  0  0  0  0  0  0  0  0  0  0  0
    5.6636    2.0471    2.0082 H   0  0  0  0  0  0  0  0  0  0  0  0
    5.8433   -2.0938    0.8366 H   0  0  0  0  0  0  0  0  0  0  0  0
   -2.4173   -4.1494    2.8796 H   0  0  0  0  0  0  0  0  0  0  0  0
   -2.6256   -1.8824    3.8578 H   0  0  0  0  0  0  0  0  0  0  0  0
    6.7355   -0.1968    2.1393 H   0  0  0  0  0  0  0  0  0  0  0  0
   -4.2118   -0.1437    0.3884 H   0  0  0  0  0  0  0  0  0  0  0  0
   -3.0004    4.6262   -0.2356 H   0  0  0  0  0  0  0  0  0  0  0  0
   -5.9269    1.5900    0.5897 H   0  0  0  0  0  0  0  0  0  0  0  0
   -5.3418    3.9792    0.2697 H   0  0  0  0  0  0  0  0  0  0  0  0
  1 26  1  0  0  0  0
  2  9  2  0  0  0  0
  3  9  1  0  0  0  0
  3 11  1  0  0  0  0
  3 18  1  0  0  0  0
  4  6  1  0  0  0  0
  4 13  2  0  0  0  0
  5 14  1  0  0  0  0
  5 15  1  0  0  0  0
  5 35  1  0  0  0  0
  6  7  1  0  0  0  0
  6  9  1  0  0  0  0
  6 31  1  0  0  0  0
  7  8  1  0  0  0  0
  7 32  1  0  0  0  0
  7 33  1  0  0  0  0
  8 10  1  0  0  0  0
  8 15  2  0  0  0  0
 10 14  1  0  0  0  0
 10 17  2  0  0  0  0
 11 12  1  0  0  0  0
 11 19  2  0  0  0  0
 12 13  1  0  0  0  0
 12 20  2  0  0  0  0
 13 16  1  0  0  0  0
 14 21  2  0  0  0  0
 15 34  1  0  0  0  0
 16 26  1  0  0  0  0
 16 27  2  0  0  0  0
 17 22  1  0  0  0  0
 17 36  1  0  0  0  0
 18 37  1  0  0  0  0
 18 38  1  0  0  0  0
 18 39  1  0  0  0  0
 19 23  1  0  0  0  0
 19 40  1  0  0  0  0
 20 24  1  0  0  0  0
 20 41  1  0  0  0  0
 21 25  1  0  0  0  0
 21 42  1  0  0  0  0
 22 25  2  0  0  0  0
 22 43  1  0  0  0  0
 23 24  2  0  0  0  0
 23 44  1  0  0  0  0
 24 45  1  0  0  0  0
 25 46  1  0  0  0  0
 26 28  2  0  0  0  0
 27 29  1  0  0  0  0
 27 47  1  0  0  0  0
 28 30  1  0  0  0  0
 28 48  1  0  0  0  0
 29 30  2  0  0  0  0
 29 49  1  0  0  0  0
 30 50  1  0  0  0  0
M  END
> <PUBCHEM_COMPOUND_CID>
656755

> <PUBCHEM_CONFORMER_RMSD>
0.8

> <PUBCHEM_CONFORMER_DIVERSEORDER>
1
44
24
34
6
20
29
26
54
16
9
37
35
14
47
53
19
50
32
18
23
10
36
8
40
15
25
49
13
55
2
52
41
48
21
28
5
33
17
31
12
22
3
45
27
38
39
51
7
30
46
11
43
4
42

> <PUBCHEM_MMFF94_PARTIAL_CHARGES>
43
1 -0.19
11 0.12
12 0.09
13 0.28
14 -0.15
15 -0.3
16 0.09
17 -0.15
18 0.3
19 -0.15
2 -0.57
20 -0.15
21 -0.15
22 -0.15
23 -0.15
24 -0.15
25 -0.15
26 0.19
27 -0.15
28 -0.15
29 -0.15
3 -0.48
30 -0.15
34 0.15
35 0.27
36 0.15
4 -0.7
40 0.15
41 0.15
42 0.15
43 0.15
44 0.15
45 0.15
46 0.15
47 0.15
48 0.15
49 0.15
5 0.03
50 0.15
6 0.31
7 0.18
8 -0.18
9 0.57

> <PUBCHEM_EFFECTIVE_ROTOR_COUNT>
3.4

> <PUBCHEM_PHARMACOPHORE_FEATURES>
9
1 2 acceptor
1 4 acceptor
1 5 cation
1 5 donor
5 5 8 10 14 15 rings
6 10 14 17 21 22 25 rings
6 11 12 19 20 23 24 rings
6 16 26 27 28 29 30 rings
7 3 4 6 9 11 12 13 rings

> <PUBCHEM_HEAVY_ATOM_COUNT>
30

> <PUBCHEM_ATOM_DEF_STEREO_COUNT>
1

> <PUBCHEM_ATOM_UDEF_STEREO_COUNT>
0

> <PUBCHEM_BOND_DEF_STEREO_COUNT>
0

> <PUBCHEM_BOND_UDEF_STEREO_COUNT>
0

> <PUBCHEM_ISOTOPIC_ATOM_COUNT>
0

> <PUBCHEM_COMPONENT_COUNT>
1

> <PUBCHEM_CACTVS_TAUTO_COUNT>
1

> <PUBCHEM_CONFORMER_ID>
000A057300000001

> <PUBCHEM_MMFF94_ENERGY>
101.5117

> <PUBCHEM_FEATURE_SELFOVERLAP>
45.773

> <PUBCHEM_SHAPE_FINGERPRINT>
10074138 170 18343300328084119179
10692045 39 18119532282733512010
10764073 3 14760435272455519085
11387372 6 17845939653696378250
11421498 54 17052703333050034644
11445158 3 5937125631357552599
11582403 64 18263088875931568623
11720765 8 17177462684682629103
12422481 6 18121748739582929531
12633257 1 17632295692174937776
12788726 201 17627481892576438579
13004483 165 17973734571147160159
131258 38 15692611847569172697
133893 2 16372673275414231094
13583140 156 18261675853445316992
13692114 37 18339070588889212819
13947920 24 7853564704391166930
13965767 371 17608337217646247282
14725015 67 17693379253993008362
15274700 34 18334013865772367759
15444296 121 18271515507778505124
16728300 4 17556034806690914992
16994733 274 16733264681360477801
17974551 9 18341898489397540240
19304152 47 17759540871747070208
20197701 30 18268436900462671133
20554085 129 17843108466893899693
21033648 29 18187077390904258452
21304304 249 18201996676960743477
23559900 14 18195223723814023046
23598288 3 18268422447776037230
238918 7 18265608973530204821
3383291 50 18343585135850411227
3493558 16 16236194375971447626
3552219 110 15942048103307711462
376196 1 18118971531697838021
3886686 26 18058446684842994122
469060 322 17325222736049868224
484985 159 17703521995124459786
4938544 92 18261966159122798648
5309563 4 17333639480116568426
5486654 36 18060143116042493906
90316 7 18050266091009835215
9981440 41 18261392299435298947

> <PUBCHEM_SHAPE_MULTIPOLES>
589.3
10.22
4.63
2.19
12.78
0.79
0.19
-6.43
-5.31
-5.94
-0.09
-0.29
2.42
0.93

> <PUBCHEM_SHAPE_SELFOVERLAP>
1323.58

> <PUBCHEM_SHAPE_VOLUME>
311.6

> <PUBCHEM_COORDINATE_TYPE>
2
5
10

$$$$

