441732
  -OEChem-07051212552D

 92 98  0     1  0  0  0  0  0999 V2000
    6.7390   -1.9617    0.0000 O   0  0  0  0  0  0  0  0  0  0  0  0
    4.9163    1.8001    0.0000 O   0  0  0  0  0  0  0  0  0  0  0  0
    8.6327    1.5486    0.0000 O   0  0  0  0  0  0  0  0  0  0  0  0
    7.0415    3.1120    0.0000 O   0  0  0  0  0  0  0  0  0  0  0  0
    3.1654   -0.4700    0.0000 O   0  0  0  0  0  0  0  0  0  0  0  0
    9.0340    2.2581    0.0000 O   0  0  0  0  0  0  0  0  0  0  0  0
    4.0503   -2.4350    0.0000 O   0  0  0  0  0  0  0  0  0  0  0  0
    8.7880   -0.1765    0.0000 O   0  0  0  0  0  0  0  0  0  0  0  0
   12.3515   -0.7253    0.0000 O   0  0  0  0  0  0  0  0  0  0  0  0
   13.1922    1.0894    0.0000 O   0  0  0  0  0  0  0  0  0  0  0  0
    3.7210   -0.0289    0.0000 N   0  0  3  0  0  0  0  0  0  0  0  0
    5.6676    0.3663    0.0000 C   0  0  2  0  0  0  0  0  0  0  0  0
    5.6676   -0.5013    0.0000 C   0  0  1  0  0  0  0  0  0  0  0  0
    4.6656    0.2603    0.0000 C   0  0  3  0  0  0  0  0  0  0  0  0
    6.3459    0.9073    0.0000 C   0  0  1  0  0  0  0  0  0  0  0  0
    7.1918   -0.8491    0.0000 C   0  0  2  0  0  0  0  0  0  0  0  0
    4.9163   -0.9350    0.0000 C   0  0  2  0  0  0  0  0  0  0  0  0
    6.3459   -1.0422    0.0000 C   0  0  2  0  0  0  0  0  0  0  0  0
    7.1918    0.7142    0.0000 C   0  0  1  0  0  0  0  0  0  0  0  0
    4.9163    0.8001    0.0000 C   0  0  2  0  0  0  0  0  0  0  0  0
    7.5682   -0.0675    0.0000 C   0  0  0  0  0  0  0  0  0  0  0  0
    6.2682    1.7713    0.0000 C   0  0  0  0  0  0  0  0  0  0  0  0
    7.0659    2.1123    0.0000 C   0  0  2  0  0  0  0  0  0  0  0  0
    3.7210   -0.7808    0.0000 C   0  0  0  0  0  0  0  0  0  0  0  0
    7.6367    1.4590    0.0000 C   0  0  2  0  0  0  0  0  0  0  0  0
    4.1649   -0.5013    0.0000 C   0  0  1  0  0  0  0  0  0  0  0  0
    4.1649    0.3663    0.0000 C   0  0  0  0  0  0  0  0  0  0  0  0
    8.2131    1.6870    0.0000 C   0  0  2  0  0  0  0  0  0  0  0  0
    4.9163   -1.9350    0.0000 C   0  0  0  0  0  0  0  0  0  0  0  0
    8.2131    0.2025    0.0000 C   0  0  0  0  0  0  0  0  0  0  0  0
    2.9170    0.5658    0.0000 C   0  0  0  0  0  0  0  0  0  0  0  0
    2.0000    0.1669    0.0000 C   0  0  0  0  0  0  0  0  0  0  0  0
    6.1391   -2.7618    0.0000 C   0  0  0  0  0  0  0  0  0  0  0  0
    4.0502    2.3001    0.0000 C   0  0  0  0  0  0  0  0  0  0  0  0
    9.2083    0.7309    0.0000 C   0  0  0  0  0  0  0  0  0  0  0  0
    8.9498    3.2545    0.0000 C   0  0  0  0  0  0  0  0  0  0  0  0
    4.0503   -3.4350    0.0000 C   0  0  0  0  0  0  0  0  0  0  0  0
   10.2043    0.8205    0.0000 C   0  0  0  0  0  0  0  0  0  0  0  0
   10.7799    0.0028    0.0000 C   0  0  0  0  0  0  0  0  0  0  0  0
   10.6247    1.7279    0.0000 C   0  0  0  0  0  0  0  0  0  0  0  0
   11.7759    0.0924    0.0000 C   0  0  0  0  0  0  0  0  0  0  0  0
   11.6206    1.8175    0.0000 C   0  0  0  0  0  0  0  0  0  0  0  0
   12.1962    0.9998    0.0000 C   0  0  0  0  0  0  0  0  0  0  0  0
   13.3475   -0.6356    0.0000 C   0  0  0  0  0  0  0  0  0  0  0  0
   13.6126    1.9968    0.0000 C   0  0  0  0  0  0  0  0  0  0  0  0
    5.6041   -1.3489    0.0000 H   0  0  0  0  0  0  0  0  0  0  0  0
    4.4957    1.0931    0.0000 H   0  0  0  0  0  0  0  0  0  0  0  0
    5.5643    1.2413    0.0000 H   0  0  0  0  0  0  0  0  0  0  0  0
    7.7217   -1.5137    0.0000 H   0  0  0  0  0  0  0  0  0  0  0  0
    6.1455   -1.6289    0.0000 H   0  0  0  0  0  0  0  0  0  0  0  0
    8.0409    0.6761    0.0000 H   0  0  0  0  0  0  0  0  0  0  0  0
    5.4532    1.1101    0.0000 H   0  0  0  0  0  0  0  0  0  0  0  0
    6.0854    2.3638    0.0000 H   0  0  0  0  0  0  0  0  0  0  0  0
    5.6598    1.6515    0.0000 H   0  0  0  0  0  0  0  0  0  0  0  0
    3.1015   -0.7543    0.0000 H   0  0  0  0  0  0  0  0  0  0  0  0
    3.6680   -1.3985    0.0000 H   0  0  0  0  0  0  0  0  0  0  0  0
    7.8676    2.0344    0.0000 H   0  0  0  0  0  0  0  0  0  0  0  0
    3.9952   -1.0976    0.0000 H   0  0  0  0  0  0  0  0  0  0  0  0
    3.9529    0.9489    0.0000 H   0  0  0  0  0  0  0  0  0  0  0  0
    3.5544    0.2587    0.0000 H   0  0  0  0  0  0  0  0  0  0  0  0
    8.1349    2.3020    0.0000 H   0  0  0  0  0  0  0  0  0  0  0  0
    5.1283   -2.5176    0.0000 H   0  0  0  0  0  0  0  0  0  0  0  0
    5.5269   -1.8274    0.0000 H   0  0  0  0  0  0  0  0  0  0  0  0
    8.7292   -0.1410    0.0000 H   0  0  0  0  0  0  0  0  0  0  0  0
    3.3666    0.9926    0.0000 H   0  0  0  0  0  0  0  0  0  0  0  0
    2.5747    1.0827    0.0000 H   0  0  0  0  0  0  0  0  0  0  0  0
    7.5707    3.4350    0.0000 H   0  0  0  0  0  0  0  0  0  0  0  0
    2.8388   -0.9970    0.0000 H   0  0  0  0  0  0  0  0  0  0  0  0
    1.7527    0.7354    0.0000 H   0  0  0  0  0  0  0  0  0  0  0  0
    1.4315   -0.0805    0.0000 H   0  0  0  0  0  0  0  0  0  0  0  0
    2.2473   -0.4017    0.0000 H   0  0  0  0  0  0  0  0  0  0  0  0
    5.6430   -2.3899    0.0000 H   0  0  0  0  0  0  0  0  0  0  0  0
    5.7672   -3.2579    0.0000 H   0  0  0  0  0  0  0  0  0  0  0  0
    6.6352   -3.1337    0.0000 H   0  0  0  0  0  0  0  0  0  0  0  0
    4.3602    2.8370    0.0000 H   0  0  0  0  0  0  0  0  0  0  0  0
    3.5133    2.6101    0.0000 H   0  0  0  0  0  0  0  0  0  0  0  0
    3.7402    1.7632    0.0000 H   0  0  0  0  0  0  0  0  0  0  0  0
    9.5676    3.3067    0.0000 H   0  0  0  0  0  0  0  0  0  0  0  0
    8.8976    3.8723    0.0000 H   0  0  0  0  0  0  0  0  0  0  0  0
    8.3320    3.2024    0.0000 H   0  0  0  0  0  0  0  0  0  0  0  0
    3.4303   -3.4350    0.0000 H   0  0  0  0  0  0  0  0  0  0  0  0
    4.0503   -4.0550    0.0000 H   0  0  0  0  0  0  0  0  0  0  0  0
    4.6703   -3.4350    0.0000 H   0  0  0  0  0  0  0  0  0  0  0  0
   10.5193   -0.5598    0.0000 H   0  0  0  0  0  0  0  0  0  0  0  0
   10.2678    2.2349    0.0000 H   0  0  0  0  0  0  0  0  0  0  0  0
   11.8813    2.3801    0.0000 H   0  0  0  0  0  0  0  0  0  0  0  0
   13.4031   -1.2531    0.0000 H   0  0  0  0  0  0  0  0  0  0  0  0
   13.9650   -0.5801    0.0000 H   0  0  0  0  0  0  0  0  0  0  0  0
   13.2919   -0.0181    0.0000 H   0  0  0  0  0  0  0  0  0  0  0  0
   14.1751    1.7362    0.0000 H   0  0  0  0  0  0  0  0  0  0  0  0
   13.8732    2.5594    0.0000 H   0  0  0  0  0  0  0  0  0  0  0  0
   13.0500    2.2574    0.0000 H   0  0  0  0  0  0  0  0  0  0  0  0
 18  1  1  6  0  0  0
  1 33  1  0  0  0  0
 20  2  1  6  0  0  0
  2 34  1  0  0  0  0
 25  3  1  6  0  0  0
  3 35  1  0  0  0  0
 23  4  1  1  0  0  0
  4 67  1  0  0  0  0
 26  5  1  6  0  0  0
  5 68  1  0  0  0  0
 28  6  1  1  0  0  0
  6 36  1  0  0  0  0
  7 29  1  0  0  0  0
  7 37  1  0  0  0  0
  8 35  2  0  0  0  0
  9 41  1  0  0  0  0
  9 44  1  0  0  0  0
 10 43  1  0  0  0  0
 10 45  1  0  0  0  0
 11 14  1  0  0  0  0
 11 24  1  0  0  0  0
 11 31  1  0  0  0  0
 12 13  1  0  0  0  0
 12 14  1  0  0  0  0
 12 15  1  0  0  0  0
 12 20  1  1  0  0  0
 13 17  1  0  0  0  0
 13 18  1  0  0  0  0
 13 46  1  1  0  0  0
 14 16  1  0  0  0  0
 14 47  1  0  0  0  0
 15 19  1  0  0  0  0
 15 22  1  0  0  0  0
 15 48  1  1  0  0  0
 16 18  1  0  0  0  0
 16 21  1  0  0  0  0
 16 49  1  6  0  0  0
 17 24  1  0  0  0  0
 17 26  1  0  0  0  0
 17 29  1  1  0  0  0
 18 50  1  0  0  0  0
 19 21  1  0  0  0  0
 19 25  1  0  0  0  0
 19 51  1  1  0  0  0
 20 27  1  0  0  0  0
 20 52  1  0  0  0  0
 21 30  2  0  0  0  0
 22 23  1  0  0  0  0
 22 53  1  0  0  0  0
 22 54  1  0  0  0  0
 23 25  1  0  0  0  0
 23 28  1  0  0  0  0
 24 55  1  0  0  0  0
 24 56  1  0  0  0  0
 25 57  1  0  0  0  0
 26 27  1  0  0  0  0
 26 58  1  0  0  0  0
 27 59  1  0  0  0  0
 27 60  1  0  0  0  0
 28 30  1  0  0  0  0
 28 61  1  0  0  0  0
 29 62  1  0  0  0  0
 29 63  1  0  0  0  0
 30 64  1  0  0  0  0
 31 32  1  0  0  0  0
 31 65  1  0  0  0  0
 31 66  1  0  0  0  0
 32 69  1  0  0  0  0
 32 70  1  0  0  0  0
 32 71  1  0  0  0  0
 33 72  1  0  0  0  0
 33 73  1  0  0  0  0
 33 74  1  0  0  0  0
 34 75  1  0  0  0  0
 34 76  1  0  0  0  0
 34 77  1  0  0  0  0
 35 38  1  0  0  0  0
 36 78  1  0  0  0  0
 36 79  1  0  0  0  0
 36 80  1  0  0  0  0
 37 81  1  0  0  0  0
 37 82  1  0  0  0  0
 37 83  1  0  0  0  0
 38 39  2  0  0  0  0
 38 40  1  0  0  0  0
 39 41  1  0  0  0  0
 39 84  1  0  0  0  0
 40 42  2  0  0  0  0
 40 85  1  0  0  0  0
 41 43  2  0  0  0  0
 42 43  1  0  0  0  0
 42 86  1  0  0  0  0
 44 87  1  0  0  0  0
 44 88  1  0  0  0  0
 44 89  1  0  0  0  0
 45 90  1  0  0  0  0
 45 91  1  0  0  0  0
 45 92  1  0  0  0  0
M  END
> <PUBCHEM_COMPOUND_CID>
441732

> <PUBCHEM_COMPOUND_CANONICALIZED>
1

> <PUBCHEM_CACTVS_COMPLEXITY>
1180

> <PUBCHEM_CACTVS_HBOND_ACCEPTOR>
11

> <PUBCHEM_CACTVS_HBOND_DONOR>
2

> <PUBCHEM_CACTVS_ROTATABLE_BOND>
11

> <PUBCHEM_CACTVS_SUBSKEYS>
AAADcfB+PAAAAAAAAAAAAAAAAAAAAYMAAAA8YMECB4gWAEABAAAAHgAACAAAD3zhmAYyDoMABgCIAiDSCAACCAAkIAAIiAEOiMgNNjKEtRqGcSInwBGLqYf6/P/PoAABAAAAQADQAAaQADSAAaEADSAAAA==

> <PUBCHEM_IUPAC_INCHI>
InChI=1S/C34H47NO10/c1-8-35-15-32(16-39-2)22(36)13-24(43-6)34-19-14-33(38)23(42-5)12-18(26(29(34)35)27(44-7)28(32)34)25(19)30(33)45-31(37)17-9-10-20(40-3)21(11-17)41-4/h9-12,19,22-30,36,38H,8,13-16H2,1-7H3/t19-,22-,23+,24+,25-,26+,27+,28-,29?,30-,32+,33+,34+/m1/s1

> <PUBCHEM_IUPAC_INCHIKEY>
AWCSAXLOUNZFKK-TUCMIPCLSA-N

> <PUBCHEM_XLOGP3_AA>
0.8

> <PUBCHEM_EXACT_MASS>
629.319997

> <PUBCHEM_MOLECULAR_FORMULA>
C34H47NO10

> <PUBCHEM_MOLECULAR_WEIGHT>
629.73768

> <PUBCHEM_OPENEYE_CAN_SMILES>
CCN1CC2(C(CC(C34C2C(C(C31)C5=CC(C6(CC4C5C6OC(=O)C7=CC(=C(C=C7)OC)OC)O)OC)OC)OC)O)COC

> <PUBCHEM_OPENEYE_ISO_SMILES>
CCN1C[C@@]2([C@@H](C[C@@H]([C@@]34[C@@H]2[C@H]([C@@H](C31)C5=C[C@@H]([C@]6(C[C@@H]4[C@@H]5[C@H]6OC(=O)C7=CC(=C(C=C7)OC)OC)O)OC)OC)OC)O)COC

> <PUBCHEM_CACTVS_TPSA>
125

> <PUBCHEM_MONOISOTOPIC_WEIGHT>
629.319997

> <PUBCHEM_TOTAL_CHARGE>
0

> <PUBCHEM_HEAVY_ATOM_COUNT>
45

> <PUBCHEM_ATOM_DEF_STEREO_COUNT>
12

> <PUBCHEM_ATOM_UDEF_STEREO_COUNT>
1

> <PUBCHEM_BOND_DEF_STEREO_COUNT>
0

> <PUBCHEM_BOND_UDEF_STEREO_COUNT>
0

> <PUBCHEM_ISOTOPIC_ATOM_COUNT>
0

> <PUBCHEM_COMPONENT_COUNT>
1

> <PUBCHEM_CACTVS_TAUTO_COUNT>
1

> <PUBCHEM_COORDINATE_TYPE>
1
5
255

> <PUBCHEM_BONDANNOTATIONS>
18  1  6
12  20  5
13  46  5
14  47  3
15  48  5
16  49  6
17  29  5
19  51  5
20  2  6
25  3  6
38  39  8
38  40  8
39  41  8
23  4  5
40  42  8
41  43  8
42  43  8
26  5  6
28  6  5

$$$$

