17396038
  -OEChem-06241222543D

 54 58  0     1  0  0  0  0  0999 V2000
    0.5480    2.8883   -1.6836 S   0  0  0  0  0  0  0  0  0  0  0  0
    6.2564   -3.9572    0.5750 F   0  0  0  0  0  0  0  0  0  0  0  0
    2.0638    2.8103    1.2505 O   0  0  0  0  0  0  0  0  0  0  0  0
   -6.4609   -0.9820   -0.4937 O   0  0  0  0  0  0  0  0  0  0  0  0
   -1.0900    2.1612    0.7423 O   0  0  0  0  0  0  0  0  0  0  0  0
   -5.7362   -3.4364    2.0578 O   0  0  0  0  0  0  0  0  0  0  0  0
    2.1823    0.7518   -1.0499 N   0  0  0  0  0  0  0  0  0  0  0  0
    1.0560   -0.9798   -1.7714 N   0  0  0  0  0  0  0  0  0  0  0  0
    0.3229    0.1590   -2.0392 N   0  0  0  0  0  0  0  0  0  0  0  0
   -4.4195   -1.6981    1.3281 N   0  0  0  0  0  0  0  0  0  0  0  0
    3.0162    1.7552    1.0349 C   0  0  2  0  0  0  0  0  0  0  0  0
    4.2766    2.1649    1.7768 C   0  0  0  0  0  0  0  0  0  0  0  0
    3.7023    2.9004    2.9615 C   0  0  0  0  0  0  0  0  0  0  0  0
    3.2292    1.5498   -0.4522 C   0  0  0  0  0  0  0  0  0  0  0  0
    2.5249    3.6219    2.3409 C   0  0  0  0  0  0  0  0  0  0  0  0
    2.1667   -0.6039   -1.1787 C   0  0  0  0  0  0  0  0  0  0  0  0
    1.0143    1.1860   -1.5993 C   0  0  0  0  0  0  0  0  0  0  0  0
    3.2255   -1.4726   -0.7246 C   0  0  0  0  0  0  0  0  0  0  0  0
   -1.2548    2.7237   -1.6051 C   0  0  0  0  0  0  0  0  0  0  0  0
    3.1967   -1.9892    0.5708 C   0  0  0  0  0  0  0  0  0  0  0  0
    4.2784   -1.7952   -1.5809 C   0  0  0  0  0  0  0  0  0  0  0  0
   -1.7387    2.0393   -0.3173 C   0  0  0  0  0  0  0  0  0  0  0  0
   -2.9623    1.2540   -0.3406 C   0  0  0  0  0  0  0  0  0  0  0  0
   -4.2857   -0.5831    0.4943 C   0  0  0  0  0  0  0  0  0  0  0  0
   -3.1065    0.1643    0.5183 C   0  0  0  0  0  0  0  0  0  0  0  0
    4.2206   -2.8285    1.0098 C   0  0  0  0  0  0  0  0  0  0  0  0
    5.3024   -2.6345   -1.1418 C   0  0  0  0  0  0  0  0  0  0  0  0
   -5.3121   -0.2496   -0.3878 C   0  0  0  0  0  0  0  0  0  0  0  0
   -3.9872    1.5867   -1.2271 C   0  0  0  0  0  0  0  0  0  0  0  0
    5.2734   -3.1511    0.1536 C   0  0  0  0  0  0  0  0  0  0  0  0
   -5.1597    0.8310   -1.2569 C   0  0  0  0  0  0  0  0  0  0  0  0
   -6.7497   -1.7744    0.6422 C   0  0  0  0  0  0  0  0  0  0  0  0
   -5.5935   -2.4122    1.3932 C   0  0  0  0  0  0  0  0  0  0  0  0
    2.5984    0.8566    1.5052 H   0  0  0  0  0  0  0  0  0  0  0  0
    4.8804    2.8536    1.1733 H   0  0  0  0  0  0  0  0  0  0  0  0
    4.9024    1.3125    2.0552 H   0  0  0  0  0  0  0  0  0  0  0  0
    3.3485    2.1812    3.7096 H   0  0  0  0  0  0  0  0  0  0  0  0
    4.4108    3.5773    3.4458 H   0  0  0  0  0  0  0  0  0  0  0  0
    3.2841    2.5038   -0.9876 H   0  0  0  0  0  0  0  0  0  0  0  0
    4.1792    1.0372   -0.6384 H   0  0  0  0  0  0  0  0  0  0  0  0
    1.7089    3.7827    3.0510 H   0  0  0  0  0  0  0  0  0  0  0  0
    2.8261    4.5910    1.9292 H   0  0  0  0  0  0  0  0  0  0  0  0
   -1.6979    3.7235   -1.6443 H   0  0  0  0  0  0  0  0  0  0  0  0
   -1.5825    2.1601   -2.4839 H   0  0  0  0  0  0  0  0  0  0  0  0
    2.3822   -1.7489    1.2499 H   0  0  0  0  0  0  0  0  0  0  0  0
    4.3155   -1.4001   -2.5933 H   0  0  0  0  0  0  0  0  0  0  0  0
   -2.3055   -0.1108    1.2006 H   0  0  0  0  0  0  0  0  0  0  0  0
    4.1984   -3.2311    2.0182 H   0  0  0  0  0  0  0  0  0  0  0  0
    6.1223   -2.8859   -1.8080 H   0  0  0  0  0  0  0  0  0  0  0  0
   -3.9048    2.4354   -1.9004 H   0  0  0  0  0  0  0  0  0  0  0  0
   -5.9491    1.0917   -1.9565 H   0  0  0  0  0  0  0  0  0  0  0  0
   -3.6225   -1.9937    1.8839 H   0  0  0  0  0  0  0  0  0  0  0  0
   -7.3167   -1.1647    1.3564 H   0  0  0  0  0  0  0  0  0  0  0  0
   -7.4091   -2.5832    0.3081 H   0  0  0  0  0  0  0  0  0  0  0  0
  1 17  1  0  0  0  0
  1 19  1  0  0  0  0
  2 30  1  0  0  0  0
  3 11  1  0  0  0  0
  3 15  1  0  0  0  0
  4 28  1  0  0  0  0
  4 32  1  0  0  0  0
  5 22  2  0  0  0  0
  6 33  2  0  0  0  0
  7 14  1  0  0  0  0
  7 16  1  0  0  0  0
  7 17  1  0  0  0  0
  8  9  1  0  0  0  0
  8 16  2  0  0  0  0
  9 17  2  0  0  0  0
 10 24  1  0  0  0  0
 10 33  1  0  0  0  0
 10 52  1  0  0  0  0
 11 12  1  0  0  0  0
 11 14  1  0  0  0  0
 11 34  1  0  0  0  0
 12 13  1  0  0  0  0
 12 35  1  0  0  0  0
 12 36  1  0  0  0  0
 13 15  1  0  0  0  0
 13 37  1  0  0  0  0
 13 38  1  0  0  0  0
 14 39  1  0  0  0  0
 14 40  1  0  0  0  0
 15 41  1  0  0  0  0
 15 42  1  0  0  0  0
 16 18  1  0  0  0  0
 18 20  2  0  0  0  0
 18 21  1  0  0  0  0
 19 22  1  0  0  0  0
 19 43  1  0  0  0  0
 19 44  1  0  0  0  0
 20 26  1  0  0  0  0
 20 45  1  0  0  0  0
 21 27  2  0  0  0  0
 21 46  1  0  0  0  0
 22 23  1  0  0  0  0
 23 25  2  0  0  0  0
 23 29  1  0  0  0  0
 24 25  1  0  0  0  0
 24 28  2  0  0  0  0
 25 47  1  0  0  0  0
 26 30  2  0  0  0  0
 26 48  1  0  0  0  0
 27 30  1  0  0  0  0
 27 49  1  0  0  0  0
 28 31  1  0  0  0  0
 29 31  2  0  0  0  0
 29 50  1  0  0  0  0
 31 51  1  0  0  0  0
 32 33  1  0  0  0  0
 32 53  1  0  0  0  0
 32 54  1  0  0  0  0
M  END
> <PUBCHEM_COMPOUND_CID>
17396038

> <PUBCHEM_CONFORMER_RMSD>
1.2

> <PUBCHEM_CONFORMER_DIVERSEORDER>
1
163
180
100
54
93
44
11
18
177
190
169
159
102
117
84
185
140
184
34
116
147
144
86
113
47
27
76
15
30
164
124
151
160
45
29
152
138
8
156
5
131
74
35
105
146
141
189
114
9
65
60
123
75
58
165
133
178
16
88
107
31
79
96
188
23
7
37
6
94
67
80
87
49
173
150
142
134
77
85
157
68
71
89
186
2
91
83
127
174
69
70
99
110
148
59
61
176
139
56
168
129
40
109
154
132
57
145
82
187
126
21
103
155
20
106
26
17
42
78
39
28
136
4
53
32
104
108
92
52
120
161
171
137
22
182
153
72
97
66
128
19
14
55
166
12
24
122
48
38
41
112
175
167
149
183
121
62
101
158
170
181
172
90
118
33
3
162
73
135
13
98
81
64
51
125
95
111
119
43
10
130
36
115
63
179
143
50
25
46

> <PUBCHEM_MMFF94_PARTIAL_CHARGES>
39
1 -0.29
10 -0.55
11 0.28
14 0.26
15 0.28
16 0.13
17 0.24
18 0.05
19 0.29
2 -0.19
20 -0.15
21 -0.15
22 0.42
23 0.09
24 0.12
25 -0.15
26 -0.15
27 -0.15
28 0.08
29 -0.15
3 -0.56
30 0.19
31 -0.15
32 0.34
33 0.57
4 -0.36
45 0.15
46 0.15
47 0.15
48 0.15
49 0.15
5 -0.57
50 0.15
51 0.15
52 0.37
6 -0.57
7 0.05
8 -0.34
9 -0.34

> <PUBCHEM_EFFECTIVE_ROTOR_COUNT>
8.6

> <PUBCHEM_PHARMACOPHORE_FEATURES>
12
1 10 donor
1 3 acceptor
1 4 acceptor
1 5 acceptor
1 6 acceptor
3 7 8 16 cation
3 7 9 17 cation
5 3 11 12 13 15 rings
5 7 8 9 16 17 rings
6 18 20 21 26 27 30 rings
6 23 24 25 28 29 31 rings
6 4 10 24 28 32 33 rings

> <PUBCHEM_HEAVY_ATOM_COUNT>
33

> <PUBCHEM_ATOM_DEF_STEREO_COUNT>
0

> <PUBCHEM_ATOM_UDEF_STEREO_COUNT>
1

> <PUBCHEM_BOND_DEF_STEREO_COUNT>
0

> <PUBCHEM_BOND_UDEF_STEREO_COUNT>
0

> <PUBCHEM_ISOTOPIC_ATOM_COUNT>
0

> <PUBCHEM_COMPONENT_COUNT>
1

> <PUBCHEM_CACTVS_TAUTO_COUNT>
4

> <PUBCHEM_CONFORMER_ID>
0109714600000001

> <PUBCHEM_MMFF94_ENERGY>
83.2085

> <PUBCHEM_FEATURE_SELFOVERLAP>
63.428

> <PUBCHEM_SHAPE_FINGERPRINT>
10169797 241 18334847299690739774
12166972 35 17632282485272056567
12758862 65 18334290989572479178
13782708 43 18411138077640305806
13947930 73 18338249227290349922
14341114 328 15864063235801199877
14725015 67 18342737459988757519
14910302 57 18131639989167495973
14950920 106 18113327622811681955
14955137 171 17823986838984916540
15448158 91 18334574680746943311
17492 89 18201429247588385383
17909252 39 18341608243628704202
19315092 285 18186239532820464347
19841028 212 18188782639567240647
21033650 10 16845292808512471821
23559900 14 18272090521725128301
23572383 38 18271534113370453479
244849 19 18267891490982036261
3044373 233 18265037068880903339
392239 28 17604717638216132713
437795 51 18333452028852928532
5104073 3 18187357753711169641
513532 50 17346598530826537080
613672 6 18058742303800514197
6371380 46 18122067774028225957
6823239 73 18131073752973411680

> <PUBCHEM_SHAPE_MULTIPOLES>
632.3
15.81
4.98
2.32
16.63
0.83
0.76
16.47
4.74
-5.85
2.4
-1.27
-1.37
5.29

> <PUBCHEM_SHAPE_SELFOVERLAP>
1371.817

> <PUBCHEM_SHAPE_VOLUME>
350.3

> <PUBCHEM_COORDINATE_TYPE>
2
5
10

$$$$

