3833
  -OEChem-06251223422D

117119  0     1  0  0  0  0  0999 V2000
    5.1350   -6.7205    0.0000 O   0  0  0  0  0  0  0  0  0  0  0  0
    2.5369   -8.2205    0.0000 O   0  0  0  0  0  0  0  0  0  0  0  0
    3.7690   -5.3544    0.0000 O   0  0  0  0  0  0  0  0  0  0  0  0
    2.5369   -6.2205    0.0000 O   0  0  0  0  0  0  0  0  0  0  0  0
   11.8623   -0.1108    0.0000 O   0  0  0  0  0  0  0  0  0  0  0  0
    6.2690   -6.2205    0.0000 O   0  0  0  0  0  0  0  0  0  0  0  0
   13.9326   -1.6629    0.0000 O   0  0  0  0  0  0  0  0  0  0  0  0
   14.3850    0.4651    0.0000 O   0  0  0  0  0  0  0  0  0  0  0  0
   10.2690   -1.0243    0.0000 O   0  0  0  0  0  0  0  0  0  0  0  0
   13.7008    6.7065    0.0000 O   0  0  0  0  0  0  0  0  0  0  0  0
   14.4053    8.2888    0.0000 O   0  0  0  0  0  0  0  0  0  0  0  0
   16.4414    5.4863    0.0000 O   0  0  0  0  0  0  0  0  0  0  0  0
    6.2690   -4.4884    0.0000 N   0  0  0  0  0  0  0  0  0  0  0  0
   16.1278    8.4699    0.0000 N   0  0  0  0  0  0  0  0  0  0  0  0
    4.2690   -8.2205    0.0000 C   0  0  0  0  0  0  0  0  0  0  0  0
    3.4030   -7.7205    0.0000 C   0  0  3  0  0  0  0  0  0  0  0  0
    4.2690   -6.2205    0.0000 C   0  0  3  0  0  0  0  0  0  0  0  0
    3.4030   -6.7205    0.0000 C   0  0  3  0  0  0  0  0  0  0  0  0
    5.1350   -7.7205    0.0000 C   0  0  3  0  0  0  0  0  0  0  0  0
    4.7690   -5.3544    0.0000 C   0  0  3  0  0  0  0  0  0  0  0  0
    4.7690   -9.0865    0.0000 C   0  0  0  0  0  0  0  0  0  0  0  0
    3.7690   -9.0865    0.0000 C   0  0  0  0  0  0  0  0  0  0  0  0
    4.2690   -4.4884    0.0000 C   0  0  0  0  0  0  0  0  0  0  0  0
    6.0010   -8.2205    0.0000 C   0  0  0  0  0  0  0  0  0  0  0  0
    5.7690   -5.3544    0.0000 C   0  0  0  0  0  0  0  0  0  0  0  0
   12.2690   -1.0243    0.0000 C   0  0  3  0  0  0  0  0  0  0  0  0
   13.2635   -0.9198    0.0000 C   0  0  3  0  0  0  0  0  0  0  0  0
   11.7690   -1.8903    0.0000 C   0  0  3  0  0  0  0  0  0  0  0  0
   13.4714    0.0584    0.0000 C   0  0  3  0  0  0  0  0  0  0  0  0
    4.7690   -3.6224    0.0000 C   0  0  0  0  0  0  0  0  0  0  0  0
   12.6054    0.5584    0.0000 C   0  0  3  0  0  0  0  0  0  0  0  0
    6.8671   -7.7205    0.0000 C   0  0  0  0  0  0  0  0  0  0  0  0
   10.7690   -1.8903    0.0000 C   0  0  3  0  0  0  0  0  0  0  0  0
   12.2690   -2.7564    0.0000 C   0  0  0  0  0  0  0  0  0  0  0  0
    7.2690   -4.4884    0.0000 C   0  0  0  0  0  0  0  0  0  0  0  0
   10.2690   -2.7564    0.0000 C   0  0  0  0  0  0  0  0  0  0  0  0
   12.5009    1.5529    0.0000 C   0  0  0  0  0  0  0  0  0  0  0  0
    7.7331   -8.2205    0.0000 C   0  0  0  0  0  0  0  0  0  0  0  0
    7.7690   -3.6224    0.0000 C   0  0  0  0  0  0  0  0  0  0  0  0
    9.2690   -2.7564    0.0000 C   0  0  0  0  0  0  0  0  0  0  0  0
   10.7690   -3.6224    0.0000 C   0  0  0  0  0  0  0  0  0  0  0  0
   13.3099    2.1407    0.0000 C   0  0  0  0  0  0  0  0  0  0  0  0
    8.7690   -3.6224    0.0000 C   0  0  0  0  0  0  0  0  0  0  0  0
    8.5991   -7.7205    0.0000 C   0  0  0  0  0  0  0  0  0  0  0  0
    9.2690   -1.0243    0.0000 C   0  0  0  0  0  0  0  0  0  0  0  0
   13.2054    3.1352    0.0000 C   0  0  0  0  0  0  0  0  0  0  0  0
    9.4651   -8.2205    0.0000 C   0  0  0  0  0  0  0  0  0  0  0  0
   14.0144    3.7230    0.0000 C   0  0  0  0  0  0  0  0  0  0  0  0
   13.9098    4.7175    0.0000 C   0  0  0  0  0  0  0  0  0  0  0  0
   14.7189    5.3053    0.0000 C   0  0  0  0  0  0  0  0  0  0  0  0
   15.6324    4.8985    0.0000 C   0  0  0  0  0  0  0  0  0  0  0  0
   14.6143    6.2998    0.0000 C   0  0  0  0  0  0  0  0  0  0  0  0
   15.4233    6.8876    0.0000 C   0  0  0  0  0  0  0  0  0  0  0  0
   15.3188    7.8821    0.0000 C   0  0  0  0  0  0  0  0  0  0  0  0
   16.3369    6.4808    0.0000 C   0  0  0  0  0  0  0  0  0  0  0  0
   17.1459    7.0686    0.0000 C   0  0  0  0  0  0  0  0  0  0  0  0
   17.0414    8.0632    0.0000 C   0  0  0  0  0  0  0  0  0  0  0  0
    3.4030   -8.5705    0.0000 H   0  0  0  0  0  0  0  0  0  0  0  0
    3.4030   -5.8705    0.0000 H   0  0  0  0  0  0  0  0  0  0  0  0
    5.8711   -7.2955    0.0000 H   0  0  0  0  0  0  0  0  0  0  0  0
    3.9190   -5.3544    0.0000 H   0  0  0  0  0  0  0  0  0  0  0  0
    4.2320   -9.3965    0.0000 H   0  0  0  0  0  0  0  0  0  0  0  0
    5.0790   -9.6234    0.0000 H   0  0  0  0  0  0  0  0  0  0  0  0
    5.3059   -8.7765    0.0000 H   0  0  0  0  0  0  0  0  0  0  0  0
    3.2320   -8.7765    0.0000 H   0  0  0  0  0  0  0  0  0  0  0  0
    3.4590   -9.6234    0.0000 H   0  0  0  0  0  0  0  0  0  0  0  0
    4.3059   -9.3965    0.0000 H   0  0  0  0  0  0  0  0  0  0  0  0
    3.7940   -4.0899    0.0000 H   0  0  0  0  0  0  0  0  0  0  0  0
    3.7940   -4.8870    0.0000 H   0  0  0  0  0  0  0  0  0  0  0  0
    6.0010   -8.8405    0.0000 H   0  0  0  0  0  0  0  0  0  0  0  0
    2.5369   -8.8405    0.0000 H   0  0  0  0  0  0  0  0  0  0  0  0
    3.1490   -5.3544    0.0000 H   0  0  0  0  0  0  0  0  0  0  0  0
    2.0000   -6.5305    0.0000 H   0  0  0  0  0  0  0  0  0  0  0  0
   11.4202   -0.9798    0.0000 H   0  0  0  0  0  0  0  0  0  0  0  0
   14.0845   -0.6998    0.0000 H   0  0  0  0  0  0  0  0  0  0  0  0
   12.6190   -1.8903    0.0000 H   0  0  0  0  0  0  0  0  0  0  0  0
   13.5159    0.9072    0.0000 H   0  0  0  0  0  0  0  0  0  0  0  0
    5.3059   -3.9324    0.0000 H   0  0  0  0  0  0  0  0  0  0  0  0
    5.0790   -3.0855    0.0000 H   0  0  0  0  0  0  0  0  0  0  0  0
    4.2320   -3.3124    0.0000 H   0  0  0  0  0  0  0  0  0  0  0  0
   11.8119    0.8630    0.0000 H   0  0  0  0  0  0  0  0  0  0  0  0
    6.8671   -7.1005    0.0000 H   0  0  0  0  0  0  0  0  0  0  0  0
   11.1940   -1.1542    0.0000 H   0  0  0  0  0  0  0  0  0  0  0  0
    5.9590   -3.9515    0.0000 H   0  0  0  0  0  0  0  0  0  0  0  0
   11.7321   -3.0664    0.0000 H   0  0  0  0  0  0  0  0  0  0  0  0
   12.5790   -3.2933    0.0000 H   0  0  0  0  0  0  0  0  0  0  0  0
   12.8059   -2.4464    0.0000 H   0  0  0  0  0  0  0  0  0  0  0  0
    7.1613   -5.0990    0.0000 H   0  0  0  0  0  0  0  0  0  0  0  0
    7.8516   -4.7005    0.0000 H   0  0  0  0  0  0  0  0  0  0  0  0
   11.9345    1.8051    0.0000 H   0  0  0  0  0  0  0  0  0  0  0  0
   14.5391   -1.5340    0.0000 H   0  0  0  0  0  0  0  0  0  0  0  0
    7.7331   -8.8405    0.0000 H   0  0  0  0  0  0  0  0  0  0  0  0
   14.8866    0.1007    0.0000 H   0  0  0  0  0  0  0  0  0  0  0  0
    8.9590   -2.2194    0.0000 H   0  0  0  0  0  0  0  0  0  0  0  0
    7.4590   -3.0855    0.0000 H   0  0  0  0  0  0  0  0  0  0  0  0
   10.2321   -3.9324    0.0000 H   0  0  0  0  0  0  0  0  0  0  0  0
   11.0790   -4.1593    0.0000 H   0  0  0  0  0  0  0  0  0  0  0  0
   11.3059   -3.3124    0.0000 H   0  0  0  0  0  0  0  0  0  0  0  0
   13.8763    1.8885    0.0000 H   0  0  0  0  0  0  0  0  0  0  0  0
    9.0790   -4.1593    0.0000 H   0  0  0  0  0  0  0  0  0  0  0  0
    8.5991   -7.1005    0.0000 H   0  0  0  0  0  0  0  0  0  0  0  0
    9.2690   -0.4043    0.0000 H   0  0  0  0  0  0  0  0  0  0  0  0
    8.6490   -1.0243    0.0000 H   0  0  0  0  0  0  0  0  0  0  0  0
    9.2690   -1.6443    0.0000 H   0  0  0  0  0  0  0  0  0  0  0  0
   12.6390    3.3874    0.0000 H   0  0  0  0  0  0  0  0  0  0  0  0
    9.1551   -8.7574    0.0000 H   0  0  0  0  0  0  0  0  0  0  0  0
   10.0021   -8.5305    0.0000 H   0  0  0  0  0  0  0  0  0  0  0  0
    9.7751   -7.6835    0.0000 H   0  0  0  0  0  0  0  0  0  0  0  0
   14.5808    3.4708    0.0000 H   0  0  0  0  0  0  0  0  0  0  0  0
   13.3434    4.9697    0.0000 H   0  0  0  0  0  0  0  0  0  0  0  0
   15.3802    4.3321    0.0000 H   0  0  0  0  0  0  0  0  0  0  0  0
   16.1988    4.6464    0.0000 H   0  0  0  0  0  0  0  0  0  0  0  0
   15.8846    5.4649    0.0000 H   0  0  0  0  0  0  0  0  0  0  0  0
   16.0630    9.0865    0.0000 H   0  0  0  0  0  0  0  0  0  0  0  0
   17.7123    6.8165    0.0000 H   0  0  0  0  0  0  0  0  0  0  0  0
   17.5430    8.4276    0.0000 H   0  0  0  0  0  0  0  0  0  0  0  0
   14.3405    8.9054    0.0000 H   0  0  0  0  0  0  0  0  0  0  0  0
  1 17  1  0  0  0  0
  1 19  1  0  0  0  0
  2 16  1  0  0  0  0
  2 71  1  0  0  0  0
  3 17  1  0  0  0  0
  3 72  1  0  0  0  0
  4 18  1  0  0  0  0
  4 73  1  0  0  0  0
  5 26  1  0  0  0  0
  5 31  1  0  0  0  0
  6 25  2  0  0  0  0
  7 27  1  0  0  0  0
  7 91  1  0  0  0  0
  8 29  1  0  0  0  0
  8 93  1  0  0  0  0
  9 33  1  0  0  0  0
  9 45  1  0  0  0  0
 10 52  2  0  0  0  0
 11 54  1  0  0  0  0
 11117  1  0  0  0  0
 12 55  2  0  0  0  0
 13 25  1  0  0  0  0
 13 35  1  0  0  0  0
 13 84  1  0  0  0  0
 14 54  1  0  0  0  0
 14 57  1  0  0  0  0
 14114  1  0  0  0  0
 15 16  1  0  0  0  0
 15 19  1  0  0  0  0
 15 21  1  0  0  0  0
 15 22  1  0  0  0  0
 16 18  1  0  0  0  0
 16 58  1  0  0  0  0
 17 18  1  0  0  0  0
 17 20  1  0  0  0  0
 18 59  1  0  0  0  0
 19 24  1  0  0  0  0
 19 60  1  0  0  0  0
 20 23  1  0  0  0  0
 20 25  1  0  0  0  0
 20 61  1  0  0  0  0
 21 62  1  0  0  0  0
 21 63  1  0  0  0  0
 21 64  1  0  0  0  0
 22 65  1  0  0  0  0
 22 66  1  0  0  0  0
 22 67  1  0  0  0  0
 23 30  1  0  0  0  0
 23 68  1  0  0  0  0
 23 69  1  0  0  0  0
 24 32  2  3  0  0  0
 24 70  1  0  0  0  0
 26 27  1  0  0  0  0
 26 28  1  0  0  0  0
 26 74  1  0  0  0  0
 27 29  1  0  0  0  0
 27 75  1  0  0  0  0
 28 33  1  0  0  0  0
 28 34  1  0  0  0  0
 28 76  1  0  0  0  0
 29 31  1  0  0  0  0
 29 77  1  0  0  0  0
 30 78  1  0  0  0  0
 30 79  1  0  0  0  0
 30 80  1  0  0  0  0
 31 37  1  0  0  0  0
 31 81  1  0  0  0  0
 32 38  1  0  0  0  0
 32 82  1  0  0  0  0
 33 36  1  0  0  0  0
 33 83  1  0  0  0  0
 34 85  1  0  0  0  0
 34 86  1  0  0  0  0
 34 87  1  0  0  0  0
 35 39  1  0  0  0  0
 35 88  1  0  0  0  0
 35 89  1  0  0  0  0
 36 40  2  3  0  0  0
 36 41  1  0  0  0  0
 37 42  2  3  0  0  0
 37 90  1  0  0  0  0
 38 44  2  3  0  0  0
 38 92  1  0  0  0  0
 39 43  2  3  0  0  0
 39 95  1  0  0  0  0
 40 43  1  0  0  0  0
 40 94  1  0  0  0  0
 41 96  1  0  0  0  0
 41 97  1  0  0  0  0
 41 98  1  0  0  0  0
 42 46  1  0  0  0  0
 42 99  1  0  0  0  0
 43100  1  0  0  0  0
 44 47  1  0  0  0  0
 44101  1  0  0  0  0
 45102  1  0  0  0  0
 45103  1  0  0  0  0
 45104  1  0  0  0  0
 46 48  2  3  0  0  0
 46105  1  0  0  0  0
 47106  1  0  0  0  0
 47107  1  0  0  0  0
 47108  1  0  0  0  0
 48 49  1  0  0  0  0
 48109  1  0  0  0  0
 49 50  2  3  0  0  0
 49110  1  0  0  0  0
 50 51  1  0  0  0  0
 50 52  1  0  0  0  0
 51111  1  0  0  0  0
 51112  1  0  0  0  0
 51113  1  0  0  0  0
 52 53  1  0  0  0  0
 53 54  2  0  0  0  0
 53 55  1  0  0  0  0
 55 56  1  0  0  0  0
 56 57  2  0  0  0  0
 56115  1  0  0  0  0
 57116  1  0  0  0  0
M  END
> <PUBCHEM_COMPOUND_CID>
3833

> <PUBCHEM_COMPOUND_CANONICALIZED>
1

> <PUBCHEM_CACTVS_COMPLEXITY>
1720

> <PUBCHEM_CACTVS_HBOND_ACCEPTOR>
13

> <PUBCHEM_CACTVS_HBOND_DONOR>
8

> <PUBCHEM_CACTVS_ROTATABLE_BOND>
17

> <PUBCHEM_CACTVS_SUBSKEYS>
AAADcfB/PAAAAAAAAAAAAAAAAAAAASAAAAAkQAAAAAAAAAAAAAAAHgAQCAAADxThgAYCCALABgCIAqFWUACAAAAgIgAICIEIAEkZFBYIoQAGUAAH9gCPocP6/P7PAAAAAAAAAAAAAAAAAAAAAAAAAAAAAA==

> <PUBCHEM_IUPAC_OPENEYE_NAME>
N-[7-[3,4-dihydroxy-5-[7-(2-hydroxy-4-oxo-1H-pyridin-3-yl)-6-methyl-7-oxo-hepta-1,3,5-trienyl]tetrahydrofuran-2-yl]-6-methoxy-5-methyl-octa-2,4-dienyl]-2-(2,3,4-trihydroxy-5,5-dimethyl-6-penta-1,3-dienyl-tetrahydropyran-2-yl)butanamide

> <PUBCHEM_IUPAC_CAS_NAME>
N-[7-[3,4-dihydroxy-5-[7-(2-hydroxy-4-oxo-1H-pyridin-3-yl)-6-methyl-7-oxohepta-1,3,5-trienyl]-2-oxolanyl]-6-methoxy-5-methylocta-2,4-dienyl]-2-(2,3,4-trihydroxy-5,5-dimethyl-6-penta-1,3-dienyl-2-oxanyl)butanamide

> <PUBCHEM_IUPAC_NAME>
N-[7-[3,4-dihydroxy-5-[7-(2-hydroxy-4-oxo-1H-pyridin-3-yl)-6-methyl-7-oxohepta-1,3,5-trienyl]oxolan-2-yl]-6-methoxy-5-methylocta-2,4-dienyl]-2-(2,3,4-trihydroxy-5,5-dimethyl-6-penta-1,3-dienyloxan-2-yl)butanamide

> <PUBCHEM_IUPAC_SYSTEMATIC_NAME>
2-[5,5-dimethyl-2,3,4-tris(oxidanyl)-6-penta-1,3-dienyl-oxan-2-yl]-N-[6-methoxy-5-methyl-7-[5-[6-methyl-7-oxidanylidene-7-(2-oxidanyl-4-oxidanylidene-1H-pyridin-3-yl)hepta-1,3,5-trienyl]-3,4-bis(oxidanyl)oxolan-2-yl]octa-2,4-dienyl]butanamide

> <PUBCHEM_IUPAC_TRADITIONAL_NAME>
N-[7-[3,4-dihydroxy-5-[7-(2-hydroxy-4-keto-1H-pyridin-3-yl)-7-keto-6-methyl-hepta-1,3,5-trienyl]tetrahydrofuran-2-yl]-6-methoxy-5-methyl-octa-2,4-dienyl]-2-(2,3,4-trihydroxy-5,5-dimethyl-6-penta-1,3-dienyl-tetrahydropyran-2-yl)butyramide

> <PUBCHEM_IUPAC_INCHI>
InChI=1S/C43H60N2O12/c1-9-11-13-21-31-42(6,7)38(50)39(51)43(54,57-31)28(10-2)40(52)44-23-17-16-19-26(4)36(55-8)27(5)37-35(49)34(48)30(56-37)20-15-12-14-18-25(3)33(47)32-29(46)22-24-45-41(32)53/h9,11-22,24,27-28,30-31,34-39,48-51,54H,10,23H2,1-8H3,(H,44,52)(H2,45,46,53)

> <PUBCHEM_IUPAC_INCHIKEY>
HMSYAPGFKGSXAJ-UHFFFAOYSA-N

> <PUBCHEM_XLOGP3_AA>
4.3

> <PUBCHEM_EXACT_MASS>
796.414625

> <PUBCHEM_MOLECULAR_FORMULA>
C43H60N2O12

> <PUBCHEM_MOLECULAR_WEIGHT>
796.9427

> <PUBCHEM_OPENEYE_CAN_SMILES>
CCC(C(=O)NCC=CC=C(C)C(C(C)C1C(C(C(O1)C=CC=CC=C(C)C(=O)C2=C(NC=CC2=O)O)O)O)OC)C3(C(C(C(C(O3)C=CC=CC)(C)C)O)O)O

> <PUBCHEM_OPENEYE_ISO_SMILES>
CCC(C(=O)NCC=CC=C(C)C(C(C)C1C(C(C(O1)C=CC=CC=C(C)C(=O)C2=C(NC=CC2=O)O)O)O)OC)C3(C(C(C(C(O3)C=CC=CC)(C)C)O)O)O

> <PUBCHEM_CACTVS_TPSA>
224

> <PUBCHEM_MONOISOTOPIC_WEIGHT>
796.414625

> <PUBCHEM_TOTAL_CHARGE>
0

> <PUBCHEM_HEAVY_ATOM_COUNT>
57

> <PUBCHEM_ATOM_DEF_STEREO_COUNT>
0

> <PUBCHEM_ATOM_UDEF_STEREO_COUNT>
11

> <PUBCHEM_BOND_DEF_STEREO_COUNT>
0

> <PUBCHEM_BOND_UDEF_STEREO_COUNT>
7

> <PUBCHEM_ISOTOPIC_ATOM_COUNT>
0

> <PUBCHEM_COMPONENT_COUNT>
1

> <PUBCHEM_CACTVS_TAUTO_COUNT>
26

> <PUBCHEM_COORDINATE_TYPE>
1
5
255

> <PUBCHEM_BONDANNOTATIONS>
14  54  8
14  57  8
16  58  3
18  59  3
19  60  3
20  61  3
24  32  1
26  74  3
27  75  3
28  76  3
29  77  3
17  3  3
31  81  3
33  83  3
36  40  1
37  42  1
38  44  1
39  43  1
46  48  1
49  50  1
53  54  8
53  55  8
55  56  8
56  57  8

$$$$

