440206
  -OEChem-07051212493D

 23 22  0     1  0  0  0  0  0999 V2000
    0.9837   -0.4625    1.6891 O   0  0  0  0  0  0  0  0  0  0  0  0
    3.4126    0.5751   -1.5727 O   0  0  0  0  0  0  0  0  0  0  0  0
   -1.4528    1.0501    1.1283 O   0  0  0  0  0  0  0  0  0  0  0  0
    3.2183    1.0150    0.6477 O   0  0  0  0  0  0  0  0  0  0  0  0
   -3.7131    1.1975   -0.0882 O   0  0  0  0  0  0  0  0  0  0  0  0
   -3.2699   -0.7472   -1.2063 O   0  0  0  0  0  0  0  0  0  0  0  0
    0.7513   -0.7855    0.3168 C   0  0  1  0  0  0  0  0  0  0  0  0
   -0.7562   -1.0563    0.1161 C   0  0  0  0  0  0  0  0  0  0  0  0
    1.2454    0.3585   -0.5888 C   0  0  0  0  0  0  0  0  0  0  0  0
    1.5155   -2.0876    0.0376 C   0  0  0  0  0  0  0  0  0  0  0  0
   -1.6707    0.1319    0.3523 C   0  0  0  0  0  0  0  0  0  0  0  0
    2.7121    0.6850   -0.4171 C   0  0  0  0  0  0  0  0  0  0  0  0
   -2.9762    0.1259   -0.4147 C   0  0  0  0  0  0  0  0  0  0  0  0
   -0.9074   -1.4140   -0.9091 H   0  0  0  0  0  0  0  0  0  0  0  0
   -1.0952   -1.8404    0.8045 H   0  0  0  0  0  0  0  0  0  0  0  0
    1.0547    0.1111   -1.6404 H   0  0  0  0  0  0  0  0  0  0  0  0
    0.7128    1.2938   -0.3816 H   0  0  0  0  0  0  0  0  0  0  0  0
    1.1489   -2.8989    0.6774 H   0  0  0  0  0  0  0  0  0  0  0  0
    2.5814   -1.9808    0.2676 H   0  0  0  0  0  0  0  0  0  0  0  0
    1.4144   -2.3985   -1.0073 H   0  0  0  0  0  0  0  0  0  0  0  0
    0.5528    0.3891    1.8742 H   0  0  0  0  0  0  0  0  0  0  0  0
    4.3617    0.7893   -1.4475 H   0  0  0  0  0  0  0  0  0  0  0  0
   -4.5666    1.2223   -0.5710 H   0  0  0  0  0  0  0  0  0  0  0  0
  1  7  1  0  0  0  0
  1 21  1  0  0  0  0
  2 12  1  0  0  0  0
  2 22  1  0  0  0  0
  3 11  2  0  0  0  0
  4 12  2  0  0  0  0
  5 13  1  0  0  0  0
  5 23  1  0  0  0  0
  6 13  2  0  0  0  0
  7  8  1  0  0  0  0
  7  9  1  0  0  0  0
  7 10  1  0  0  0  0
  8 11  1  0  0  0  0
  8 14  1  0  0  0  0
  8 15  1  0  0  0  0
  9 12  1  0  0  0  0
  9 16  1  0  0  0  0
  9 17  1  0  0  0  0
 10 18  1  0  0  0  0
 10 19  1  0  0  0  0
 10 20  1  0  0  0  0
 11 13  1  0  0  0  0
M  END
> <PUBCHEM_COMPOUND_CID>
440206

> <PUBCHEM_CONFORMER_RMSD>
0.6

> <PUBCHEM_CONFORMER_DIVERSEORDER>
1
44
67
10
43
68
75
56
57
71
83
73
84
86
52
27
72
79
8
39
49
69
16
81
82
59
48
15
74
30
80
2
29
26
22
61
64
89
13
19
6
11
23
25
14
51
7
17
65
87
58
77
60
24
35
21
18
85
37
78
70
47
9
63
41
88
62
32
38
34
42
53
66
36
45
3
4
31
33
28
40
50
55
76
54
46
20
5
12

> <PUBCHEM_MMFF94_PARTIAL_CHARGES>
15
1 -0.68
11 0.51
12 0.66
13 0.72
2 -0.65
21 0.4
22 0.5
23 0.5
3 -0.57
4 -0.57
5 -0.65
6 -0.57
7 0.28
8 0.06
9 0.06

> <PUBCHEM_EFFECTIVE_ROTOR_COUNT>
5

> <PUBCHEM_PHARMACOPHORE_FEATURES>
9
1 1 acceptor
1 1 donor
1 2 acceptor
1 3 acceptor
1 4 acceptor
1 5 acceptor
1 6 acceptor
3 2 4 12 anion
3 5 6 13 anion

> <PUBCHEM_HEAVY_ATOM_COUNT>
13

> <PUBCHEM_ATOM_DEF_STEREO_COUNT>
0

> <PUBCHEM_ATOM_UDEF_STEREO_COUNT>
1

> <PUBCHEM_BOND_DEF_STEREO_COUNT>
0

> <PUBCHEM_BOND_UDEF_STEREO_COUNT>
0

> <PUBCHEM_ISOTOPIC_ATOM_COUNT>
0

> <PUBCHEM_COMPONENT_COUNT>
1

> <PUBCHEM_CACTVS_TAUTO_COUNT>
2

> <PUBCHEM_CONFORMER_ID>
0006B78E00000001

> <PUBCHEM_MMFF94_ENERGY>
22.7407

> <PUBCHEM_FEATURE_SELFOVERLAP>
45.8

> <PUBCHEM_SHAPE_FINGERPRINT>
12251169 10 12823286871313536150
124424 183 15841565054073582916
12897270 3 17676485047004019813
12932764 1 17676497150654526027
13581323 91 13110956513994643001
13705890 14 15936405628893412332
14897335 6 18412831269786404258
15775835 57 18272086097665908213
16945 1 18339634560163648672
170605 34 17917709101950151946
17834069 15 13326586145653540185
18186145 218 17967801730999403880
20281407 28 6483361010047797733
20361792 2 6555413089337181256
20645464 45 15698281122879765753
20653085 51 18127957642720781540
20711983 138 13912320205249240895
20711985 344 15647886188526194771
20871999 31 17313678053353187957
21028194 46 18059284358278857274
21524375 3 17988927712997822202
228727 97 18040708169346373833
230 275 17131835403638215999
23402539 116 17968106300205377060
23552423 10 18192156103853499003
23557571 272 16081938186099398922
3248919 1 18270975621424520819
528716 315 18113615664729999935
7364860 26 18262803002855690034
8030462 33 18187362168436110459

> <PUBCHEM_SHAPE_MULTIPOLES>
232.32
5.83
1.46
1.19
1.78
0.59
0.07
-2.33
-1.66
-0.52
0.01
-0.28
-0.08
-0.47

> <PUBCHEM_SHAPE_SELFOVERLAP>
456.597

> <PUBCHEM_SHAPE_VOLUME>
137.9

> <PUBCHEM_COORDINATE_TYPE>
2
5
10

$$$$

