9915
  -OEChem-06261204113D

 52 55  0     1  0  0  0  0  0999 V2000
   -5.6759    0.3202   -0.4953 F   0  0  0  0  0  0  0  0  0  0  0  0
    4.8634    1.2923   -0.7529 O   0  0  0  0  0  0  0  0  0  0  0  0
   -0.0338    0.3908    0.4944 C   0  0  2  0  0  0  0  0  0  0  0  0
    0.6571   -1.0037    0.5695 C   0  0  2  0  0  0  0  0  0  0  0  0
    2.1972   -0.9331    0.4379 C   0  0  1  0  0  0  0  0  0  0  0  0
   -1.6069    0.2717    0.5893 C   0  0  2  0  0  0  0  0  0  0  0  0
    2.7630    0.0049   -0.6525 C   0  0  1  0  0  0  0  0  0  0  0  0
   -2.1301   -0.7520   -0.4615 C   0  0  1  0  0  0  0  0  0  0  0  0
    0.4833    1.1826   -0.7247 C   0  0  0  0  0  0  0  0  0  0  0  0
    2.0046    1.3466   -0.6952 C   0  0  0  0  0  0  0  0  0  0  0  0
    0.0555   -2.0070   -0.4320 C   0  0  0  0  0  0  0  0  0  0  0  0
    2.8582   -0.4357    1.7444 C   0  0  0  0  0  0  0  0  0  0  0  0
    4.2237    0.1705   -0.1719 C   0  0  2  0  0  0  0  0  0  0  0  0
   -1.4618   -2.1224   -0.3192 C   0  0  0  0  0  0  0  0  0  0  0  0
   -2.3153    1.6329    0.3252 C   0  0  0  0  0  0  0  0  0  0  0  0
    4.1325    0.3017    1.3431 C   0  0  0  0  0  0  0  0  0  0  0  0
   -3.6609   -0.8796   -0.4473 C   0  0  0  0  0  0  0  0  0  0  0  0
   -1.9572   -0.1642    2.0432 C   0  0  0  0  0  0  0  0  0  0  0  0
    2.7795   -0.6222   -2.0568 C   0  0  0  0  0  0  0  0  0  0  0  0
   -3.8428    1.5335    0.3186 C   0  0  0  0  0  0  0  0  0  0  0  0
   -4.3331    0.4721   -0.6563 C   0  0  2  0  0  0  0  0  0  0  0  0
    0.2857    0.9657    1.3753 H   0  0  0  0  0  0  0  0  0  0  0  0
    0.4610   -1.4236    1.5647 H   0  0  0  0  0  0  0  0  0  0  0  0
    2.5795   -1.9500    0.2657 H   0  0  0  0  0  0  0  0  0  0  0  0
   -1.8650   -0.3732   -1.4594 H   0  0  0  0  0  0  0  0  0  0  0  0
    0.0640    2.1939   -0.7246 H   0  0  0  0  0  0  0  0  0  0  0  0
    0.1701    0.7123   -1.6619 H   0  0  0  0  0  0  0  0  0  0  0  0
    2.3170    1.9304   -1.5704 H   0  0  0  0  0  0  0  0  0  0  0  0
    2.2594    1.9609    0.1777 H   0  0  0  0  0  0  0  0  0  0  0  0
    0.4968   -2.9982   -0.2706 H   0  0  0  0  0  0  0  0  0  0  0  0
    0.2957   -1.7265   -1.4594 H   0  0  0  0  0  0  0  0  0  0  0  0
    3.0838   -1.2821    2.4030 H   0  0  0  0  0  0  0  0  0  0  0  0
    2.2095    0.2408    2.3107 H   0  0  0  0  0  0  0  0  0  0  0  0
    4.8168   -0.7215   -0.4127 H   0  0  0  0  0  0  0  0  0  0  0  0
   -1.8229   -2.7940   -1.1081 H   0  0  0  0  0  0  0  0  0  0  0  0
   -1.7321   -2.5949    0.6318 H   0  0  0  0  0  0  0  0  0  0  0  0
   -2.0264    2.0253   -0.6564 H   0  0  0  0  0  0  0  0  0  0  0  0
   -2.0005    2.3754    1.0684 H   0  0  0  0  0  0  0  0  0  0  0  0
    4.0883    1.3519    1.6547 H   0  0  0  0  0  0  0  0  0  0  0  0
    5.0156   -0.1289    1.8278 H   0  0  0  0  0  0  0  0  0  0  0  0
   -3.9897   -1.5607   -1.2423 H   0  0  0  0  0  0  0  0  0  0  0  0
   -4.0154   -1.3326    0.4858 H   0  0  0  0  0  0  0  0  0  0  0  0
   -1.6019    0.5826    2.7631 H   0  0  0  0  0  0  0  0  0  0  0  0
   -3.0320   -0.2768    2.2063 H   0  0  0  0  0  0  0  0  0  0  0  0
   -1.5058   -1.1192    2.3219 H   0  0  0  0  0  0  0  0  0  0  0  0
    3.2116   -1.6288   -2.0376 H   0  0  0  0  0  0  0  0  0  0  0  0
    1.7830   -0.6977   -2.4957 H   0  0  0  0  0  0  0  0  0  0  0  0
    3.3776   -0.0220   -2.7515 H   0  0  0  0  0  0  0  0  0  0  0  0
   -4.2296    1.3266    1.3224 H   0  0  0  0  0  0  0  0  0  0  0  0
   -4.2733    2.5029    0.0397 H   0  0  0  0  0  0  0  0  0  0  0  0
   -4.1672    0.8113   -1.6852 H   0  0  0  0  0  0  0  0  0  0  0  0
    4.9282    1.1370   -1.7097 H   0  0  0  0  0  0  0  0  0  0  0  0
  1 21  1  0  0  0  0
  2 13  1  0  0  0  0
  2 52  1  0  0  0  0
  3  4  1  0  0  0  0
  3  6  1  0  0  0  0
  3  9  1  0  0  0  0
  3 22  1  0  0  0  0
  4  5  1  0  0  0  0
  4 11  1  0  0  0  0
  4 23  1  0  0  0  0
  5  7  1  0  0  0  0
  5 12  1  0  0  0  0
  5 24  1  0  0  0  0
  6  8  1  0  0  0  0
  6 15  1  0  0  0  0
  6 18  1  0  0  0  0
  7 10  1  0  0  0  0
  7 13  1  0  0  0  0
  7 19  1  0  0  0  0
  8 14  1  0  0  0  0
  8 17  1  0  0  0  0
  8 25  1  0  0  0  0
  9 10  1  0  0  0  0
  9 26  1  0  0  0  0
  9 27  1  0  0  0  0
 10 28  1  0  0  0  0
 10 29  1  0  0  0  0
 11 14  1  0  0  0  0
 11 30  1  0  0  0  0
 11 31  1  0  0  0  0
 12 16  1  0  0  0  0
 12 32  1  0  0  0  0
 12 33  1  0  0  0  0
 13 16  1  0  0  0  0
 13 34  1  0  0  0  0
 14 35  1  0  0  0  0
 14 36  1  0  0  0  0
 15 20  1  0  0  0  0
 15 37  1  0  0  0  0
 15 38  1  0  0  0  0
 16 39  1  0  0  0  0
 16 40  1  0  0  0  0
 17 21  1  0  0  0  0
 17 41  1  0  0  0  0
 17 42  1  0  0  0  0
 18 43  1  0  0  0  0
 18 44  1  0  0  0  0
 18 45  1  0  0  0  0
 19 46  1  0  0  0  0
 19 47  1  0  0  0  0
 19 48  1  0  0  0  0
 20 21  1  0  0  0  0
 20 49  1  0  0  0  0
 20 50  1  0  0  0  0
 21 51  1  0  0  0  0
M  END
> <PUBCHEM_COMPOUND_CID>
9915

> <PUBCHEM_CONFORMER_RMSD>
0.6

> <PUBCHEM_CONFORMER_DIVERSEORDER>
2
29
48
51
42
50
35
11
7
30
52
15
32
41
14
13
23
25
5
10
46
53
3
47
8
6
17
22
33
18
16
27
12
19
44
1
31
26
28
43
21
34
20
9
45
40
39
4
37
36
38
49
54
24

> <PUBCHEM_MMFF94_PARTIAL_CHARGES>
5
1 -0.34
13 0.28
2 -0.68
21 0.34
52 0.4

> <PUBCHEM_EFFECTIVE_ROTOR_COUNT>
2.2

> <PUBCHEM_PHARMACOPHORE_FEATURES>
6
1 2 acceptor
1 2 donor
5 5 7 12 13 16 rings
6 3 4 5 7 9 10 rings
6 3 4 6 8 11 14 rings
6 6 8 15 17 20 21 rings

> <PUBCHEM_HEAVY_ATOM_COUNT>
21

> <PUBCHEM_ATOM_DEF_STEREO_COUNT>
3

> <PUBCHEM_ATOM_UDEF_STEREO_COUNT>
5

> <PUBCHEM_BOND_DEF_STEREO_COUNT>
0

> <PUBCHEM_BOND_UDEF_STEREO_COUNT>
0

> <PUBCHEM_ISOTOPIC_ATOM_COUNT>
0

> <PUBCHEM_COMPONENT_COUNT>
1

> <PUBCHEM_CACTVS_TAUTO_COUNT>
1

> <PUBCHEM_CONFORMER_ID>
000026BB00000002

> <PUBCHEM_MMFF94_ENERGY>
73.7827

> <PUBCHEM_FEATURE_SELFOVERLAP>
30.671

> <PUBCHEM_SHAPE_FINGERPRINT>
10062212 137 18272097071692451755
10366900 7 16950276291744962034
10498660 4 18260830440029446617
10646746 165 18187369847753304656
10863032 1 17167856504344953870
11132069 177 18408324397267035333
11370993 70 17967253096082511142
11578080 2 17699607729540176300
11640471 11 18059568053880319166
12011746 2 17312820455526360452
12236239 1 18130793355890918019
12403814 3 17775575251561176029
12592029 89 18342455971894880723
12670545 2 18272373074458574421
12670546 56 16917076597883768509
128620 24 17748829622303927345
12916748 109 18409443700652750565
13134695 92 17203619189664638316
13224815 77 18341885290514711601
13533116 47 17095798927429042127
13538477 17 18201159854059493498
13583140 156 17346310462848245585
14289901 80 15936410052382802866
14739800 52 18191886543617449144
15238133 3 17203325658472063324
15375358 24 17822015289359789934
15775835 57 18202001014777219358
1601671 61 18341614840682282348
16752209 62 18338229470266286149
16945 1 18340193137840603034
17349148 13 18408891741114548743
17980427 23 18044962098625973428
1813 80 6699814219319233904
18186145 218 17749379412255955810
19862831 5 17749106720729951971
200 152 18412547591876248321
20645476 183 18342741771587400439
20715895 44 17911816970136574109
23175994 123 15554454049599671630
23227448 37 17824278002743533136
23402539 116 18188219722917677783
23419403 2 16457489331671051710
23503953 91 15482666840975126516
23557571 272 17749673956982224343
23559900 14 17894629254051910014
2838139 119 17201944694023084133
296302 2 18411983554768573924
3472631 163 18340205198356807340
34934 24 17988925539950209196
4028521 119 17822012016599887691
4409770 3 15750081679417689422
474 4 17775282755118264616
633830 44 17560510717265618382
69090 78 17603589620779260479
7495541 125 17274814719515783649
74978 22 18200027339728551732
8272917 22 17346323751197549610
9709674 26 18040148496316161350

> <PUBCHEM_SHAPE_MULTIPOLES>
419.03
9.01
1.71
1.48
2.24
0.36
0.3
-2.56
-1.11
0.64
-0.24
-0.99
0.07
-0.28

> <PUBCHEM_SHAPE_SELFOVERLAP>
888.537

> <PUBCHEM_SHAPE_VOLUME>
233.9

> <PUBCHEM_COORDINATE_TYPE>
2
5
10

$$$$

