3000226
  -OEChem-07051212523D

 85 88  0     1  0  0  0  0  0999 V2000
   -1.2813    1.9280   -1.3486 O   0  0  0  0  0  0  0  0  0  0  0  0
    2.5983   -3.0258    0.2260 O   0  0  0  0  0  0  0  0  0  0  0  0
   -6.2671    1.4292   -1.7484 O   0  0  0  0  0  0  0  0  0  0  0  0
    5.0934   -0.9052   -1.5051 O   0  0  0  0  0  0  0  0  0  0  0  0
    5.0105   -1.4881    0.6869 O   0  0  0  0  0  0  0  0  0  0  0  0
    1.8775   -4.9816   -0.7702 O   0  0  0  0  0  0  0  0  0  0  0  0
   -1.7251   -0.9013   -0.1012 C   0  0  1  0  0  0  0  0  0  0  0  0
   -2.0082    0.5248    0.5269 C   0  0  2  0  0  0  0  0  0  0  0  0
   -0.1844   -1.2595    0.1400 C   0  0  2  0  0  0  0  0  0  0  0  0
   -3.5590    0.9120    0.6851 C   0  0  2  0  0  0  0  0  0  0  0  0
   -4.5174   -0.1860    0.1094 C   0  0  1  0  0  0  0  0  0  0  0  0
    0.7026   -0.1379   -0.4719 C   0  0  1  0  0  0  0  0  0  0  0  0
   -2.6500   -1.8998    0.6475 C   0  0  0  0  0  0  0  0  0  0  0  0
   -1.0342    1.6265    0.0201 C   0  0  1  0  0  0  0  0  0  0  0  0
   -4.1522   -1.6063    0.5624 C   0  0  0  0  0  0  0  0  0  0  0  0
    0.4488    1.2196    0.1811 C   0  0  0  0  0  0  0  0  0  0  0  0
    0.3663   -2.5016   -0.6167 C   0  0  0  0  0  0  0  0  0  0  0  0
   -3.9357    2.2585    0.0093 C   0  0  0  0  0  0  0  0  0  0  0  0
   -6.0263    0.1565    0.3092 C   0  0  1  0  0  0  0  0  0  0  0  0
   -2.0549   -0.9485   -1.6238 C   0  0  0  0  0  0  0  0  0  0  0  0
    2.0670   -0.7763   -0.4835 C   0  0  0  0  0  0  0  0  0  0  0  0
    1.8893   -2.2601   -0.7359 C   0  0  1  0  0  0  0  0  0  0  0  0
    0.1368   -1.4868    1.6579 C   0  0  0  0  0  0  0  0  0  0  0  0
   -3.7931    1.0713    2.2220 C   0  0  0  0  0  0  0  0  0  0  0  0
   -5.4169    2.6342    0.1504 C   0  0  0  0  0  0  0  0  0  0  0  0
   -6.3547    1.5261   -0.3253 C   0  0  1  0  0  0  0  0  0  0  0  0
   -6.9526   -0.9239   -0.2697 C   0  0  0  0  0  0  0  0  0  0  0  0
    3.2355   -0.1711   -0.2411 C   0  0  0  0  0  0  0  0  0  0  0  0
    3.3158    1.2913    0.1374 C   0  0  0  0  0  0  0  0  0  0  0  0
    4.5171   -0.9281   -0.2815 C   0  0  0  0  0  0  0  0  0  0  0  0
    2.5072   -4.3845    0.0924 C   0  0  0  0  0  0  0  0  0  0  0  0
    4.7410    1.7702    0.4452 C   0  0  0  0  0  0  0  0  0  0  0  0
    3.3013   -5.0587    1.1699 C   0  0  0  0  0  0  0  0  0  0  0  0
    4.7832    3.2029    0.9018 C   0  0  0  0  0  0  0  0  0  0  0  0
    5.0188    4.3020    0.1605 C   0  0  0  0  0  0  0  0  0  0  0  0
    5.0377    5.6636    0.8031 C   0  0  0  0  0  0  0  0  0  0  0  0
    5.2651    4.3144   -1.3217 C   0  0  0  0  0  0  0  0  0  0  0  0
   -1.6849    0.4194    1.5684 H   0  0  0  0  0  0  0  0  0  0  0  0
   -4.3941   -0.1962   -0.9748 H   0  0  0  0  0  0  0  0  0  0  0  0
    0.4742   -0.0063   -1.5370 H   0  0  0  0  0  0  0  0  0  0  0  0
   -2.4037   -1.9013    1.7157 H   0  0  0  0  0  0  0  0  0  0  0  0
   -2.4632   -2.9248    0.3028 H   0  0  0  0  0  0  0  0  0  0  0  0
   -1.1924    2.5461    0.5947 H   0  0  0  0  0  0  0  0  0  0  0  0
   -4.5938   -2.3259   -0.1389 H   0  0  0  0  0  0  0  0  0  0  0  0
   -4.6083   -1.8224    1.5368 H   0  0  0  0  0  0  0  0  0  0  0  0
    0.6894    1.2054    1.2487 H   0  0  0  0  0  0  0  0  0  0  0  0
    1.0153    2.0112   -0.3099 H   0  0  0  0  0  0  0  0  0  0  0  0
   -0.0469   -2.5709   -1.6279 H   0  0  0  0  0  0  0  0  0  0  0  0
    0.0876   -3.4221   -0.0954 H   0  0  0  0  0  0  0  0  0  0  0  0
   -3.6918    2.2187   -1.0576 H   0  0  0  0  0  0  0  0  0  0  0  0
   -3.3472    3.0790    0.4357 H   0  0  0  0  0  0  0  0  0  0  0  0
   -6.2462    0.2114    1.3815 H   0  0  0  0  0  0  0  0  0  0  0  0
   -2.5151   -1.9038   -1.9006 H   0  0  0  0  0  0  0  0  0  0  0  0
   -2.7217   -0.1475   -1.9454 H   0  0  0  0  0  0  0  0  0  0  0  0
   -1.1828   -0.8380   -2.2703 H   0  0  0  0  0  0  0  0  0  0  0  0
    2.2388   -2.5136   -1.7448 H   0  0  0  0  0  0  0  0  0  0  0  0
    1.2098   -1.5688    1.8575 H   0  0  0  0  0  0  0  0  0  0  0  0
   -0.2162   -0.6827    2.3052 H   0  0  0  0  0  0  0  0  0  0  0  0
   -0.3081   -2.4213    2.0169 H   0  0  0  0  0  0  0  0  0  0  0  0
   -3.5730    0.1415    2.7583 H   0  0  0  0  0  0  0  0  0  0  0  0
   -3.1404    1.8524    2.6306 H   0  0  0  0  0  0  0  0  0  0  0  0
   -4.8155    1.3501    2.4848 H   0  0  0  0  0  0  0  0  0  0  0  0
   -5.6444    2.8914    1.1903 H   0  0  0  0  0  0  0  0  0  0  0  0
   -5.5946    3.5411   -0.4411 H   0  0  0  0  0  0  0  0  0  0  0  0
   -7.3885    1.8047   -0.0917 H   0  0  0  0  0  0  0  0  0  0  0  0
   -6.7137   -1.1448   -1.3152 H   0  0  0  0  0  0  0  0  0  0  0  0
   -6.8755   -1.8554    0.2999 H   0  0  0  0  0  0  0  0  0  0  0  0
   -7.9991   -0.6037   -0.2203 H   0  0  0  0  0  0  0  0  0  0  0  0
   -0.6946    2.6607   -1.6017 H   0  0  0  0  0  0  0  0  0  0  0  0
   -5.3418    1.3039   -2.0104 H   0  0  0  0  0  0  0  0  0  0  0  0
    2.9553    1.9005   -0.6979 H   0  0  0  0  0  0  0  0  0  0  0  0
    2.7414    1.4758    1.0479 H   0  0  0  0  0  0  0  0  0  0  0  0
    5.3929    1.6338   -0.4248 H   0  0  0  0  0  0  0  0  0  0  0  0
    5.1815    1.1682    1.2505 H   0  0  0  0  0  0  0  0  0  0  0  0
    2.9043   -4.7817    2.1497 H   0  0  0  0  0  0  0  0  0  0  0  0
    4.3534   -4.7751    1.0862 H   0  0  0  0  0  0  0  0  0  0  0  0
    3.2217   -6.1434    1.0549 H   0  0  0  0  0  0  0  0  0  0  0  0
    5.9424   -1.3963   -1.5204 H   0  0  0  0  0  0  0  0  0  0  0  0
    4.5971    3.3343    1.9671 H   0  0  0  0  0  0  0  0  0  0  0  0
    4.8593    5.6190    1.8827 H   0  0  0  0  0  0  0  0  0  0  0  0
    4.2625    6.3008    0.3648 H   0  0  0  0  0  0  0  0  0  0  0  0
    6.0104    6.1417    0.6475 H   0  0  0  0  0  0  0  0  0  0  0  0
    5.1527    3.3305   -1.7839 H   0  0  0  0  0  0  0  0  0  0  0  0
    6.2787    4.6706   -1.5328 H   0  0  0  0  0  0  0  0  0  0  0  0
    4.5534    4.9838   -1.8165 H   0  0  0  0  0  0  0  0  0  0  0  0
  1 14  1  0  0  0  0
  1 69  1  0  0  0  0
  2 22  1  0  0  0  0
  2 31  1  0  0  0  0
  3 26  1  0  0  0  0
  3 70  1  0  0  0  0
  4 30  1  0  0  0  0
  4 78  1  0  0  0  0
  5 30  2  0  0  0  0
  6 31  2  0  0  0  0
  7  8  1  0  0  0  0
  7  9  1  0  0  0  0
  7 13  1  0  0  0  0
  7 20  1  0  0  0  0
  8 10  1  0  0  0  0
  8 14  1  0  0  0  0
  8 38  1  0  0  0  0
  9 12  1  0  0  0  0
  9 17  1  0  0  0  0
  9 23  1  0  0  0  0
 10 11  1  0  0  0  0
 10 18  1  0  0  0  0
 10 24  1  0  0  0  0
 11 15  1  0  0  0  0
 11 19  1  0  0  0  0
 11 39  1  0  0  0  0
 12 16  1  0  0  0  0
 12 21  1  0  0  0  0
 12 40  1  0  0  0  0
 13 15  1  0  0  0  0
 13 41  1  0  0  0  0
 13 42  1  0  0  0  0
 14 16  1  0  0  0  0
 14 43  1  0  0  0  0
 15 44  1  0  0  0  0
 15 45  1  0  0  0  0
 16 46  1  0  0  0  0
 16 47  1  0  0  0  0
 17 22  1  0  0  0  0
 17 48  1  0  0  0  0
 17 49  1  0  0  0  0
 18 25  1  0  0  0  0
 18 50  1  0  0  0  0
 18 51  1  0  0  0  0
 19 26  1  0  0  0  0
 19 27  1  0  0  0  0
 19 52  1  0  0  0  0
 20 53  1  0  0  0  0
 20 54  1  0  0  0  0
 20 55  1  0  0  0  0
 21 22  1  0  0  0  0
 21 28  2  0  0  0  0
 22 56  1  0  0  0  0
 23 57  1  0  0  0  0
 23 58  1  0  0  0  0
 23 59  1  0  0  0  0
 24 60  1  0  0  0  0
 24 61  1  0  0  0  0
 24 62  1  0  0  0  0
 25 26  1  0  0  0  0
 25 63  1  0  0  0  0
 25 64  1  0  0  0  0
 26 65  1  0  0  0  0
 27 66  1  0  0  0  0
 27 67  1  0  0  0  0
 27 68  1  0  0  0  0
 28 29  1  0  0  0  0
 28 30  1  0  0  0  0
 29 32  1  0  0  0  0
 29 71  1  0  0  0  0
 29 72  1  0  0  0  0
 31 33  1  0  0  0  0
 32 34  1  0  0  0  0
 32 73  1  0  0  0  0
 32 74  1  0  0  0  0
 33 75  1  0  0  0  0
 33 76  1  0  0  0  0
 33 77  1  0  0  0  0
 34 35  2  0  0  0  0
 34 79  1  0  0  0  0
 35 36  1  0  0  0  0
 35 37  1  0  0  0  0
 36 80  1  0  0  0  0
 36 81  1  0  0  0  0
 36 82  1  0  0  0  0
 37 83  1  0  0  0  0
 37 84  1  0  0  0  0
 37 85  1  0  0  0  0
M  END
> <PUBCHEM_COMPOUND_CID>
3000226

> <PUBCHEM_CONFORMER_RMSD>
1

> <PUBCHEM_CONFORMER_DIVERSEORDER>
1
3
5
2
4

> <PUBCHEM_MMFF94_PARTIAL_CHARGES>
25
1 -0.68
12 0.14
14 0.28
2 -0.43
21 -0.28
22 0.42
26 0.28
28 -0.12
29 0.14
3 -0.68
30 0.71
31 0.66
32 0.14
33 0.06
34 -0.29
35 -0.28
36 0.14
37 0.14
4 -0.65
5 -0.57
6 -0.57
69 0.4
70 0.4
78 0.5
79 0.15

> <PUBCHEM_EFFECTIVE_ROTOR_COUNT>
8

> <PUBCHEM_PHARMACOPHORE_FEATURES>
14
1 1 acceptor
1 1 donor
1 3 acceptor
1 3 donor
1 4 acceptor
1 5 acceptor
1 6 acceptor
3 35 36 37 hydrophobe
3 4 5 30 anion
4 28 29 32 34 hydrophobe
5 9 12 17 21 22 rings
6 10 11 18 19 25 26 rings
6 7 8 10 11 13 15 rings
6 7 8 9 12 14 16 rings

> <PUBCHEM_HEAVY_ATOM_COUNT>
37

> <PUBCHEM_ATOM_DEF_STEREO_COUNT>
10

> <PUBCHEM_ATOM_UDEF_STEREO_COUNT>
0

> <PUBCHEM_BOND_DEF_STEREO_COUNT>
1

> <PUBCHEM_BOND_UDEF_STEREO_COUNT>
0

> <PUBCHEM_ISOTOPIC_ATOM_COUNT>
0

> <PUBCHEM_COMPONENT_COUNT>
1

> <PUBCHEM_CACTVS_TAUTO_COUNT>
1

> <PUBCHEM_CONFORMER_ID>
002DC7A200000001

> <PUBCHEM_MMFF94_ENERGY>
156.1458

> <PUBCHEM_FEATURE_SELFOVERLAP>
71.179

> <PUBCHEM_SHAPE_FINGERPRINT>
10439779 11 18120938575433194696
10675989 125 18335697248186334088
11062273 19 18193548103097518238
12422481 6 17703515389385786708
131258 43 17026832177322554118
13140716 1 18339641140718762538
1361 2 18339077082194325824
13757389 114 17762045550454291276
14068700 686 18339356358242349867
14790565 3 18337105658035348184
14849402 71 18411136961745458786
15324884 4 17982417474949577722
15400415 2 18194120712131765992
15890870 6 18265332816172003480
15927050 60 18119810206252407582
18393751 57 18125157134838330106
19319366 153 18261397715320526252
21033648 29 17846498158648525037
21859007 373 17272300321043175383
22311459 1 18338233877493536534
23559900 14 18266177416636307178
23569914 2 17484006753713505893
34797466 226 17895183399069277637
350125 39 18411416199107342796
376196 1 18342457011203048506
4058900 60 18338226064821217040
4073 2 18130212848618210347
5104073 3 18412820270274725384
5109719 28 18338227155574332785
5219985 13 18265333898434605692
5265222 85 17688306790116598040
563151 97 18265905652802017295
5776283 40 18339907248702966980
6036956 94 17188976718171600468
6058803 2 18186803616930399543
6086070 43 18048599514559941636
6695519 79 18121191230656961154
6697151 62 17838361892013085399
9849439 229 18266742368735363892
9981440 41 18197491823054911746

> <PUBCHEM_SHAPE_MULTIPOLES>
726.23
15.3
6.42
1.29
9.25
0.86
0.06
-13.97
-0.73
-13.68
0.7
0.28
-0.11
0.32

> <PUBCHEM_SHAPE_SELFOVERLAP>
1519.186

> <PUBCHEM_SHAPE_VOLUME>
408

> <PUBCHEM_COORDINATE_TYPE>
2
5
10

$$$$

