15565
  -OEChem-07051213143D

 29 32  0     0  0  0  0  0  0999 V2000
    0.6267   -0.1468    0.0005 C   0  0  0  0  0  0  0  0  0  0  0  0
   -0.0465    1.0669    0.0007 C   0  0  0  0  0  0  0  0  0  0  0  0
   -0.2775   -1.1999    0.0004 C   0  0  0  0  0  0  0  0  0  0  0  0
   -1.4751    0.7833    0.0006 C   0  0  0  0  0  0  0  0  0  0  0  0
   -1.6194   -0.6342    0.0002 C   0  0  0  0  0  0  0  0  0  0  0  0
    2.0127   -0.2879    0.0001 C   0  0  0  0  0  0  0  0  0  0  0  0
    2.7517    0.9113   -0.0001 C   0  0  0  0  0  0  0  0  0  0  0  0
    0.6827    2.2412    0.0003 C   0  0  0  0  0  0  0  0  0  0  0  0
    0.2001   -2.4970    0.0003 C   0  0  0  0  0  0  0  0  0  0  0  0
    2.4947   -1.6114   -0.0002 C   0  0  0  0  0  0  0  0  0  0  0  0
    2.0865    2.1566    0.0000 C   0  0  0  0  0  0  0  0  0  0  0  0
   -2.5791    1.6143    0.0003 C   0  0  0  0  0  0  0  0  0  0  0  0
   -2.8680   -1.2260   -0.0004 C   0  0  0  0  0  0  0  0  0  0  0  0
    1.5921   -2.6969    0.0000 C   0  0  0  0  0  0  0  0  0  0  0  0
    4.2459    0.8964   -0.0012 C   0  0  0  0  0  0  0  0  0  0  0  0
   -3.8424    1.0157   -0.0006 C   0  0  0  0  0  0  0  0  0  0  0  0
   -3.9849   -0.3856   -0.0009 C   0  0  0  0  0  0  0  0  0  0  0  0
    0.1959    3.2108    0.0001 H   0  0  0  0  0  0  0  0  0  0  0  0
   -0.4718   -3.3489    0.0003 H   0  0  0  0  0  0  0  0  0  0  0  0
    3.5615   -1.8186   -0.0005 H   0  0  0  0  0  0  0  0  0  0  0  0
    2.6591    3.0819   -0.0005 H   0  0  0  0  0  0  0  0  0  0  0  0
   -2.4815    2.6941    0.0004 H   0  0  0  0  0  0  0  0  0  0  0  0
   -2.9897   -2.3034   -0.0007 H   0  0  0  0  0  0  0  0  0  0  0  0
    1.9835   -3.7115   -0.0002 H   0  0  0  0  0  0  0  0  0  0  0  0
    4.6232    0.3863    0.8912 H   0  0  0  0  0  0  0  0  0  0  0  0
    4.6643    1.9086   -0.0001 H   0  0  0  0  0  0  0  0  0  0  0  0
    4.6218    0.3885   -0.8953 H   0  0  0  0  0  0  0  0  0  0  0  0
   -4.7317    1.6410   -0.0011 H   0  0  0  0  0  0  0  0  0  0  0  0
   -4.9819   -0.8190   -0.0015 H   0  0  0  0  0  0  0  0  0  0  0  0
  1  2  2  0  0  0  0
  1  3  1  0  0  0  0
  1  6  1  0  0  0  0
  2  4  1  0  0  0  0
  2  8  1  0  0  0  0
  3  5  1  0  0  0  0
  3  9  2  0  0  0  0
  4  5  1  0  0  0  0
  4 12  2  0  0  0  0
  5 13  2  0  0  0  0
  6  7  2  0  0  0  0
  6 10  1  0  0  0  0
  7 11  1  0  0  0  0
  7 15  1  0  0  0  0
  8 11  2  0  0  0  0
  8 18  1  0  0  0  0
  9 14  1  0  0  0  0
  9 19  1  0  0  0  0
 10 14  2  0  0  0  0
 10 20  1  0  0  0  0
 11 21  1  0  0  0  0
 12 16  1  0  0  0  0
 12 22  1  0  0  0  0
 13 17  1  0  0  0  0
 13 23  1  0  0  0  0
 14 24  1  0  0  0  0
 15 25  1  0  0  0  0
 15 26  1  0  0  0  0
 15 27  1  0  0  0  0
 16 17  2  0  0  0  0
 16 28  1  0  0  0  0
 17 29  1  0  0  0  0
M  END
> <PUBCHEM_COMPOUND_CID>
15565

> <PUBCHEM_CONFORMER_RMSD>
0.4

> <PUBCHEM_CONFORMER_DIVERSEORDER>
1

> <PUBCHEM_MMFF94_PARTIAL_CHARGES>
20
10 -0.15
11 -0.15
12 -0.15
13 -0.15
14 -0.15
15 0.14
16 -0.15
17 -0.15
18 0.15
19 0.15
20 0.15
21 0.15
22 0.15
23 0.15
24 0.15
28 0.15
29 0.15
7 -0.14
8 -0.15
9 -0.15

> <PUBCHEM_EFFECTIVE_ROTOR_COUNT>
0

> <PUBCHEM_PHARMACOPHORE_FEATURES>
4
5 1 2 3 4 5 rings
6 1 2 6 7 8 11 rings
6 1 3 6 9 10 14 rings
6 4 5 12 13 16 17 rings

> <PUBCHEM_HEAVY_ATOM_COUNT>
17

> <PUBCHEM_ATOM_DEF_STEREO_COUNT>
0

> <PUBCHEM_ATOM_UDEF_STEREO_COUNT>
0

> <PUBCHEM_BOND_DEF_STEREO_COUNT>
0

> <PUBCHEM_BOND_UDEF_STEREO_COUNT>
0

> <PUBCHEM_ISOTOPIC_ATOM_COUNT>
0

> <PUBCHEM_COMPONENT_COUNT>
1

> <PUBCHEM_CACTVS_TAUTO_COUNT>
1

> <PUBCHEM_CONFORMER_ID>
00003CCD00000001

> <PUBCHEM_MMFF94_ENERGY>
73.6023

> <PUBCHEM_FEATURE_SELFOVERLAP>
20.603

> <PUBCHEM_SHAPE_FINGERPRINT>
10411042 1 17545883093305516015
10608611 8 18341053020706179893
10616163 171 18338233761197233599
10967382 1 18410855468733920647
10980938 120 18411136960879957498
11132069 177 18411705382648250192
11471102 20 18410860988062340765
11578080 2 16914829286495479230
11680986 33 18411973680691878386
12553582 1 17762335116812257739
12592029 89 18412259515012675226
13140716 1 17906732501239560059
13380535 76 18341050731129895530
138480 1 18122626317059741154
13897977 150 18411703192478569333
14790565 3 18339913819365489980
15196674 1 18410575106137928391
15219456 202 18341612654934032751
15309172 13 18338226068720499865
15442244 35 18120935263712183145
15536298 74 18333731355475520550
16945 1 18266459810698465607
18186145 218 18261383464381784637
193761 8 17978229688234927268
19591789 44 18266455399878069262
200 152 18114752551374338285
20510252 161 17974001743729482497
20645476 183 17699272275440252604
20645477 70 18335988678923129935
20905425 154 18263923409377762780
21267235 1 18337663221704290831
21501502 16 18338237167105896547
21524375 3 18341051817893732378
221490 88 18340477954418291275
2334 1 18410575106217186082
23366157 5 17987512770661786538
23402539 116 18261401005508178716
23419403 2 17485391163432683374
23463225 33 18340490061835581450
23559900 14 18120944064411824658
238 59 17910436962383204621
25 1 18412827983988392045
2748010 2 18410855503215121366
335352 9 18050287273608892629
34934 24 18336553788891620933
350125 39 18123745348986654545
352729 6 18123183498529030186
43471831 8 18412830191928935242
5104073 3 18411417358394838777
528886 8 18410297990700839840
53812653 166 18335423447951794512
54173680 148 17835801898251986522
6138700 20 18338510954719265342
7364860 26 18336264647266541502
7832392 63 18264488575692577089
81228 2 17184481914493865707
8272917 22 18336540607890054239
9709674 26 18411415116285363379

> <PUBCHEM_SHAPE_MULTIPOLES>
349.85
6.15
2.76
0.62
1.97
0.8
0
-1.46
0
-1.22
0
0
0
0

> <PUBCHEM_SHAPE_SELFOVERLAP>
812.993

> <PUBCHEM_SHAPE_VOLUME>
168.9

> <PUBCHEM_COORDINATE_TYPE>
2
5
10

$$$$

