91587
  -OEChem-07051213122D

 24 25  0     0  0  0  0  0  0999 V2000
    4.6783    1.4857    0.0000 S   0  0  0  0  0  0  0  0  0  0  0  0
    4.9889   -1.0743    0.0000 O   0  0  0  0  0  0  0  0  0  0  0  0
    5.4883    2.0721    0.0000 O   0  0  0  0  0  0  0  0  0  0  0  0
    4.3709    2.4373    0.0000 O   0  0  0  0  0  0  0  0  0  0  0  0
    5.2619    0.6809    0.0000 N   0  0  0  0  0  0  0  0  0  0  0  0
    3.7320    1.1809    0.0000 C   0  0  0  0  0  0  0  0  0  0  0  0
    3.7320    0.1809    0.0000 C   0  0  0  0  0  0  0  0  0  0  0  0
    4.6783   -0.1238    0.0000 C   0  0  0  0  0  0  0  0  0  0  0  0
    2.8660    1.6809    0.0000 C   0  0  0  0  0  0  0  0  0  0  0  0
    2.8660   -0.3191    0.0000 C   0  0  0  0  0  0  0  0  0  0  0  0
    2.0000    1.1809    0.0000 C   0  0  0  0  0  0  0  0  0  0  0  0
    2.0000    0.1809    0.0000 C   0  0  0  0  0  0  0  0  0  0  0  0
    5.9674   -1.2805    0.0000 C   0  0  0  0  0  0  0  0  0  0  0  0
    6.2781   -2.2311    0.0000 C   0  0  0  0  0  0  0  0  0  0  0  0
    7.2566   -2.4373    0.0000 C   0  0  0  0  0  0  0  0  0  0  0  0
    2.8660    2.3009    0.0000 H   0  0  0  0  0  0  0  0  0  0  0  0
    2.8660   -0.9391    0.0000 H   0  0  0  0  0  0  0  0  0  0  0  0
    1.4631    1.4909    0.0000 H   0  0  0  0  0  0  0  0  0  0  0  0
    1.4631   -0.1291    0.0000 H   0  0  0  0  0  0  0  0  0  0  0  0
    6.5812   -1.1932    0.0000 H   0  0  0  0  0  0  0  0  0  0  0  0
    5.9880   -0.6609    0.0000 H   0  0  0  0  0  0  0  0  0  0  0  0
    5.8640   -2.6925    0.0000 H   0  0  0  0  0  0  0  0  0  0  0  0
    7.4492   -3.0266    0.0000 H   0  0  0  0  0  0  0  0  0  0  0  0
    7.6707   -1.9758    0.0000 H   0  0  0  0  0  0  0  0  0  0  0  0
  1  3  2  0  0  0  0
  1  4  2  0  0  0  0
  1  5  1  0  0  0  0
  1  6  1  0  0  0  0
  2  8  1  0  0  0  0
  2 13  1  0  0  0  0
  5  8  2  0  0  0  0
  6  7  1  0  0  0  0
  6  9  2  0  0  0  0
  7  8  1  0  0  0  0
  7 10  2  0  0  0  0
  9 11  1  0  0  0  0
  9 16  1  0  0  0  0
 10 12  1  0  0  0  0
 10 17  1  0  0  0  0
 11 12  2  0  0  0  0
 11 18  1  0  0  0  0
 12 19  1  0  0  0  0
 13 14  1  0  0  0  0
 13 20  1  0  0  0  0
 13 21  1  0  0  0  0
 14 15  2  0  0  0  0
 14 22  1  0  0  0  0
 15 23  1  0  0  0  0
 15 24  1  0  0  0  0
M  END
> <PUBCHEM_COMPOUND_CID>
91587

> <PUBCHEM_COMPOUND_CANONICALIZED>
1

> <PUBCHEM_CACTVS_COMPLEXITY>
380

> <PUBCHEM_CACTVS_HBOND_ACCEPTOR>
4

> <PUBCHEM_CACTVS_HBOND_DONOR>
0

> <PUBCHEM_CACTVS_ROTATABLE_BOND>
3

> <PUBCHEM_CACTVS_SUBSKEYS>
AAADccByMABAAAAAAAAAAAAAAAAAAQAAAAAwAAAAAAAAAEABAAAAHgQAQAAADACh2AIwAYAABAKgAiBiAHBCABAgAAAIiBggCJgIJqKAMRiCMAAkwAEIqAeAwCAOAAAAAAAEAAAAAAAAAAgAAAAAAAAAAA==

> <PUBCHEM_IUPAC_OPENEYE_NAME>
3-allyloxy-1,2-benzothiazole 1,1-dioxide

> <PUBCHEM_IUPAC_CAS_NAME>
3-prop-2-enoxy-1,2-benzothiazole 1,1-dioxide

> <PUBCHEM_IUPAC_NAME>
3-prop-2-enoxy-1,2-benzothiazole 1,1-dioxide

> <PUBCHEM_IUPAC_SYSTEMATIC_NAME>
3-prop-2-enoxy-1,2-benzothiazole 1,1-dioxide

> <PUBCHEM_IUPAC_TRADITIONAL_NAME>
3-allyloxy-1,2-benzothiazole 1,1-dioxide

> <PUBCHEM_IUPAC_INCHI>
InChI=1S/C10H9NO3S/c1-2-7-14-10-8-5-3-4-6-9(8)15(12,13)11-10/h2-6H,1,7H2

> <PUBCHEM_IUPAC_INCHIKEY>
WHHIPMZEDGBUCC-UHFFFAOYSA-N

> <PUBCHEM_XLOGP3>
1.4

> <PUBCHEM_EXACT_MASS>
223.030314

> <PUBCHEM_MOLECULAR_FORMULA>
C10H9NO3S

> <PUBCHEM_MOLECULAR_WEIGHT>
223.24836

> <PUBCHEM_OPENEYE_CAN_SMILES>
C=CCOC1=NS(=O)(=O)C2=CC=CC=C21

> <PUBCHEM_OPENEYE_ISO_SMILES>
C=CCOC1=NS(=O)(=O)C2=CC=CC=C21

> <PUBCHEM_CACTVS_TPSA>
64.1

> <PUBCHEM_MONOISOTOPIC_WEIGHT>
223.030314

> <PUBCHEM_TOTAL_CHARGE>
0

> <PUBCHEM_HEAVY_ATOM_COUNT>
15

> <PUBCHEM_ATOM_DEF_STEREO_COUNT>
0

> <PUBCHEM_ATOM_UDEF_STEREO_COUNT>
0

> <PUBCHEM_BOND_DEF_STEREO_COUNT>
0

> <PUBCHEM_BOND_UDEF_STEREO_COUNT>
0

> <PUBCHEM_ISOTOPIC_ATOM_COUNT>
0

> <PUBCHEM_COMPONENT_COUNT>
1

> <PUBCHEM_CACTVS_TAUTO_COUNT>
1

> <PUBCHEM_COORDINATE_TYPE>
1
5
255

> <PUBCHEM_BONDANNOTATIONS>
10  12  8
11  12  8
6  7  8
6  9  8
7  10  8
9  11  8

$$$$

