443710
  -OEChem-07051213033D

 30 30  0     1  0  0  0  0  0999 V2000
   -3.7171   -0.2109    0.0277 P   0  0  0  0  0  0  0  0  0  0  0  0
    0.4665   -1.0001   -0.1858 O   0  0  0  0  0  0  0  0  0  0  0  0
    0.8876    2.5919    0.3701 O   0  0  0  0  0  0  0  0  0  0  0  0
    4.0799   -1.0291    0.3655 O   0  0  0  0  0  0  0  0  0  0  0  0
    1.9405   -2.8093   -0.1993 O   0  0  0  0  0  0  0  0  0  0  0  0
   -2.1385   -0.3410    0.3659 O   0  0  0  0  0  0  0  0  0  0  0  0
   -3.7541   -0.0762   -1.5834 O   0  0  0  0  0  0  0  0  0  0  0  0
   -4.0742    1.2828    0.5340 O   0  0  0  0  0  0  0  0  0  0  0  0
   -4.5791   -1.2974    0.6009 O   0  0  0  0  0  0  0  0  0  0  0  0
    3.5884    1.7677   -0.4831 N   0  0  0  0  0  0  0  0  0  0  0  0
    2.6105    0.8937    0.1751 C   0  0  1  0  0  0  0  0  0  0  0  0
    1.1847    1.3220   -0.2040 C   0  0  1  0  0  0  0  0  0  0  0  0
    0.1615    0.3027    0.3134 C   0  0  1  0  0  0  0  0  0  0  0  0
    2.8658   -0.5666   -0.2237 C   0  0  2  0  0  0  0  0  0  0  0  0
    1.7332   -1.4746    0.2644 C   0  0  1  0  0  0  0  0  0  0  0  0
   -1.2556    0.6445   -0.1376 C   0  0  0  0  0  0  0  0  0  0  0  0
    2.7639    1.0120    1.2553 H   0  0  0  0  0  0  0  0  0  0  0  0
    1.0988    1.4095   -1.2947 H   0  0  0  0  0  0  0  0  0  0  0  0
    0.1663    0.2644    1.4114 H   0  0  0  0  0  0  0  0  0  0  0  0
    2.9649   -0.6569   -1.3132 H   0  0  0  0  0  0  0  0  0  0  0  0
    1.7369   -1.5213    1.3615 H   0  0  0  0  0  0  0  0  0  0  0  0
   -1.3138    0.6396   -1.2312 H   0  0  0  0  0  0  0  0  0  0  0  0
   -1.5551    1.6293    0.2330 H   0  0  0  0  0  0  0  0  0  0  0  0
    3.3812    2.7395   -0.2547 H   0  0  0  0  0  0  0  0  0  0  0  0
    3.4931    1.6913   -1.4953 H   0  0  0  0  0  0  0  0  0  0  0  0
    0.9673    2.5109    1.3358 H   0  0  0  0  0  0  0  0  0  0  0  0
    4.1976   -1.9575    0.1006 H   0  0  0  0  0  0  0  0  0  0  0  0
    1.4883   -3.4022    0.4246 H   0  0  0  0  0  0  0  0  0  0  0  0
   -4.6231   -0.0534   -2.0378 H   0  0  0  0  0  0  0  0  0  0  0  0
   -5.0098    1.5770    0.5217 H   0  0  0  0  0  0  0  0  0  0  0  0
  1  6  1  0  0  0  0
  1  7  1  0  0  0  0
  1  8  1  0  0  0  0
  1  9  2  0  0  0  0
  2 13  1  0  0  0  0
  2 15  1  0  0  0  0
  3 12  1  0  0  0  0
  3 26  1  0  0  0  0
  4 14  1  0  0  0  0
  4 27  1  0  0  0  0
  5 15  1  0  0  0  0
  5 28  1  0  0  0  0
  6 16  1  0  0  0  0
  7 29  1  0  0  0  0
  8 30  1  0  0  0  0
 10 11  1  0  0  0  0
 10 24  1  0  0  0  0
 10 25  1  0  0  0  0
 11 12  1  0  0  0  0
 11 14  1  0  0  0  0
 11 17  1  0  0  0  0
 12 13  1  0  0  0  0
 12 18  1  0  0  0  0
 13 16  1  0  0  0  0
 13 19  1  0  0  0  0
 14 15  1  0  0  0  0
 14 20  1  0  0  0  0
 15 21  1  0  0  0  0
 16 22  1  0  0  0  0
 16 23  1  0  0  0  0
M  END
> <PUBCHEM_COMPOUND_CID>
443710

> <PUBCHEM_CONFORMER_RMSD>
0.6

> <PUBCHEM_CONFORMER_DIVERSEORDER>
1
58
7
26
64
8
33
20
22
34
63
46
61
38
13
36
17
57
54
6
55
42
25
65
4
19
43
18
24
37
62
49
35
59
60
29
52
21
41
3
40
15
16
47
5
44
39
12
30
48
32
27
10
56
2
45
31
11
14
50
53
23
51
28
9

> <PUBCHEM_MMFF94_PARTIAL_CHARGES>
23
1 1.51
10 -0.99
11 0.27
12 0.28
13 0.28
14 0.28
15 0.56
16 0.28
2 -0.56
24 0.36
25 0.36
26 0.4
27 0.4
28 0.4
29 0.5
3 -0.68
30 0.5
4 -0.68
5 -0.68
6 -0.55
7 -0.77
8 -0.77
9 -0.7

> <PUBCHEM_EFFECTIVE_ROTOR_COUNT>
4.2

> <PUBCHEM_PHARMACOPHORE_FEATURES>
14
1 10 cation
1 10 donor
1 2 acceptor
1 3 acceptor
1 3 donor
1 4 acceptor
1 4 donor
1 5 acceptor
1 5 donor
1 7 acceptor
1 8 acceptor
1 9 acceptor
4 1 7 8 9 anion
6 2 11 12 13 14 15 rings

> <PUBCHEM_HEAVY_ATOM_COUNT>
16

> <PUBCHEM_ATOM_DEF_STEREO_COUNT>
4

> <PUBCHEM_ATOM_UDEF_STEREO_COUNT>
1

> <PUBCHEM_BOND_DEF_STEREO_COUNT>
0

> <PUBCHEM_BOND_UDEF_STEREO_COUNT>
0

> <PUBCHEM_ISOTOPIC_ATOM_COUNT>
0

> <PUBCHEM_COMPONENT_COUNT>
1

> <PUBCHEM_CACTVS_TAUTO_COUNT>
1

> <PUBCHEM_CONFORMER_ID>
0006C53E00000001

> <PUBCHEM_MMFF94_ENERGY>
-4.0908

> <PUBCHEM_FEATURE_SELFOVERLAP>
71.13

> <PUBCHEM_SHAPE_FINGERPRINT>
10980938 120 18410013230074089120
11471102 20 18411422795322502100
116883 192 17902509629301474788
12032990 46 18410570729861808770
12616999 72 18201148867622541756
12932764 1 17458350715162051177
14144814 61 18408884044791578305
14251717 144 18410015429018340390
14252887 29 17894624894296413110
15219456 202 18202005412881765757
15375462 189 18113339708654584139
15442244 35 18120087544552873145
15501101 241 18272650155657601444
17834074 16 18341609274890073795
18186145 218 17918275380819628379
200 152 18187655708323991709
20201158 50 18343018925647345082
20281475 54 18412544336106454115
20645477 70 18413670218601559338
20871998 22 18118117198399311038
221490 88 18341604876374298219
2255824 54 18337107852394449332
23402539 116 18262243321356303374
23402655 69 18408324393352168717
23598291 2 18113626655345621525
2748010 2 17760373592932575726
5104073 3 18411697686393975705
53428517 54 18411981368640769795
581208 293 18409453574466039904
81539 233 18201440238235466406

> <PUBCHEM_SHAPE_MULTIPOLES>
281.19
8.08
2.2
0.79
7.18
0.17
-0.18
0.91
-0.04
-1.77
0.09
0.55
-0.02
-0.1

> <PUBCHEM_SHAPE_SELFOVERLAP>
545.9

> <PUBCHEM_SHAPE_VOLUME>
170.6

> <PUBCHEM_COORDINATE_TYPE>
2
5
10

$$$$

