6028
  -OEChem-06261201033D

 13 13  0     0  0  0  0  0  0999 V2000
    0.1472   -2.8696    0.0005 Cl  0  0  0  0  0  0  0  0  0  0  0  0
    2.7845   -1.0970    0.0005 Cl  0  0  0  0  0  0  0  0  0  0  0  0
   -2.8397    1.6403    0.0004 Cl  0  0  0  0  0  0  0  0  0  0  0  0
    2.4924    2.0828   -0.0009 Cl  0  0  0  0  0  0  0  0  0  0  0  0
   -2.3280   -1.2929   -0.0012 O   0  0  0  0  0  0  0  0  0  0  0  0
   -1.1950   -0.5299    0.0001 C   0  0  0  0  0  0  0  0  0  0  0  0
    0.0619   -1.1348   -0.0002 C   0  0  0  0  0  0  0  0  0  0  0  0
   -1.2997    0.8610    0.0004 C   0  0  0  0  0  0  0  0  0  0  0  0
    1.2141   -0.3489   -0.0003 C   0  0  0  0  0  0  0  0  0  0  0  0
    1.1096    1.0420    0.0003 C   0  0  0  0  0  0  0  0  0  0  0  0
   -0.1473    1.6470    0.0005 C   0  0  0  0  0  0  0  0  0  0  0  0
   -0.2314    2.7319    0.0007 H   0  0  0  0  0  0  0  0  0  0  0  0
   -2.0680   -2.2302   -0.0017 H   0  0  0  0  0  0  0  0  0  0  0  0
  1  7  1  0  0  0  0
  2  9  1  0  0  0  0
  3  8  1  0  0  0  0
  4 10  1  0  0  0  0
  5  6  1  0  0  0  0
  5 13  1  0  0  0  0
  6  7  2  0  0  0  0
  6  8  1  0  0  0  0
  7  9  1  0  0  0  0
  8 11  2  0  0  0  0
  9 10  2  0  0  0  0
 10 11  1  0  0  0  0
 11 12  1  0  0  0  0
M  END
> <PUBCHEM_COMPOUND_CID>
6028

> <PUBCHEM_CONFORMER_RMSD>
0.4

> <PUBCHEM_CONFORMER_DIVERSEORDER>
1

> <PUBCHEM_MMFF94_PARTIAL_CHARGES>
13
1 -0.18
10 0.18
11 -0.15
12 0.15
13 0.45
2 -0.18
3 -0.18
4 -0.18
5 -0.53
6 0.08
7 0.18
8 0.18
9 0.18

> <PUBCHEM_EFFECTIVE_ROTOR_COUNT>
0

> <PUBCHEM_PHARMACOPHORE_FEATURES>
2
1 5 donor
6 6 7 8 9 10 11 rings

> <PUBCHEM_HEAVY_ATOM_COUNT>
11

> <PUBCHEM_ATOM_DEF_STEREO_COUNT>
0

> <PUBCHEM_ATOM_UDEF_STEREO_COUNT>
0

> <PUBCHEM_BOND_DEF_STEREO_COUNT>
0

> <PUBCHEM_BOND_UDEF_STEREO_COUNT>
0

> <PUBCHEM_ISOTOPIC_ATOM_COUNT>
0

> <PUBCHEM_COMPONENT_COUNT>
1

> <PUBCHEM_CACTVS_TAUTO_COUNT>
3

> <PUBCHEM_CONFORMER_ID>
0000178C00000001

> <PUBCHEM_MMFF94_ENERGY>
23.707

> <PUBCHEM_FEATURE_SELFOVERLAP>
10.148

> <PUBCHEM_SHAPE_FINGERPRINT>
10967382 1 18122344845960928612
12423570 1 14527304928506616686
12524768 44 17757553332073763799
13140716 1 18410574010942614225
16945 1 18194682794015613125
193761 8 18338516331121183078
20588541 1 18124309668986969119
21040471 1 18338797797497669472
21501502 16 18410293588232858180
2334 1 18338517443380744581
23526114 1 18411136930973740908
23552423 10 18342738503100853252
23559900 14 18262511628833963422
241688 4 17041197411715944553
2748010 2 18411980243354199997
5084963 1 18186239519687765522
528886 8 18266182901303626290
53812653 166 18191593153488166552
66348 1 18411698755619220362

> <PUBCHEM_SHAPE_MULTIPOLES>
227.98
3.68
2.9
0.62
0.65
0.81
0
-1.14
0
-0.8
0
-0.03
-0.01
0

> <PUBCHEM_SHAPE_SELFOVERLAP>
443.267

> <PUBCHEM_SHAPE_VOLUME>
141.7

> <PUBCHEM_COORDINATE_TYPE>
2
5
10

$$$$

