160887
  -OEChem-07051213032D

 38 41  0     1  0  0  0  0  0999 V2000
    4.3367   -4.1042    0.0000 O   0  0  0  0  0  0  0  0  0  0  0  0
    5.6083   -1.0889    0.0000 O   0  0  0  0  0  0  0  0  0  0  0  0
    5.5161   -0.0434    0.0000 O   0  0  0  0  0  0  0  0  0  0  0  0
    2.0520    1.9566    0.0000 O   0  0  0  0  0  0  0  0  0  0  0  0
    2.8963    3.4881    0.0000 O   0  0  0  0  0  0  0  0  0  0  0  0
    3.8334   -3.2401    0.0000 C   0  0  3  0  0  0  0  0  0  0  0  0
    2.8937   -2.6976    0.0000 C   0  0  0  0  0  0  0  0  0  0  0  0
    4.7688   -2.6904    0.0000 C   0  0  0  0  0  0  0  0  0  0  0  0
    2.9021   -1.6126    0.0000 C   0  0  0  0  0  0  0  0  0  0  0  0
    3.8001   -1.0849    0.0000 C   0  0  0  0  0  0  0  0  0  0  0  0
    4.7520   -1.6055    0.0000 C   0  0  0  0  0  0  0  0  0  0  0  0
    3.7841   -0.0434    0.0000 C   0  0  0  0  0  0  0  0  0  0  0  0
    3.3367   -4.1080    0.0000 C   0  0  0  0  0  0  0  0  0  0  0  0
    2.9180    0.4566    0.0000 C   0  0  0  0  0  0  0  0  0  0  0  0
    2.0000   -1.0918    0.0000 C   0  0  0  0  0  0  0  0  0  0  0  0
    2.0080   -0.0502    0.0000 C   0  0  0  0  0  0  0  0  0  0  0  0
    4.6501    0.4566    0.0000 C   0  0  0  0  0  0  0  0  0  0  0  0
    2.9180    1.4566    0.0000 C   0  0  0  0  0  0  0  0  0  0  0  0
    4.6501    1.4566    0.0000 C   0  0  0  0  0  0  0  0  0  0  0  0
    3.7841    1.9566    0.0000 C   0  0  0  0  0  0  0  0  0  0  0  0
    3.7680    2.9981    0.0000 C   0  0  0  0  0  0  0  0  0  0  0  0
    5.5601    1.9635    0.0000 C   0  0  0  0  0  0  0  0  0  0  0  0
    4.6660    3.5259    0.0000 C   0  0  0  0  0  0  0  0  0  0  0  0
    5.5681    3.0051    0.0000 C   0  0  0  0  0  0  0  0  0  0  0  0
    2.2837   -2.5868    0.0000 H   0  0  0  0  0  0  0  0  0  0  0  0
    2.6802   -3.2797    0.0000 H   0  0  0  0  0  0  0  0  0  0  0  0
    4.9868   -3.2708    0.0000 H   0  0  0  0  0  0  0  0  0  0  0  0
    5.3779   -2.5749    0.0000 H   0  0  0  0  0  0  0  0  0  0  0  0
    2.7986   -3.8001    0.0000 H   0  0  0  0  0  0  0  0  0  0  0  0
    3.0288   -4.6462    0.0000 H   0  0  0  0  0  0  0  0  0  0  0  0
    3.8748   -4.4160    0.0000 H   0  0  0  0  0  0  0  0  0  0  0  0
    1.4619   -1.3998    0.0000 H   0  0  0  0  0  0  0  0  0  0  0  0
    1.4747    0.2660    0.0000 H   0  0  0  0  0  0  0  0  0  0  0  0
    4.9567   -4.1018    0.0000 H   0  0  0  0  0  0  0  0  0  0  0  0
    6.0934    1.6473    0.0000 H   0  0  0  0  0  0  0  0  0  0  0  0
    4.6636    4.1459    0.0000 H   0  0  0  0  0  0  0  0  0  0  0  0
    6.1062    3.3130    0.0000 H   0  0  0  0  0  0  0  0  0  0  0  0
    2.8891    4.1080    0.0000 H   0  0  0  0  0  0  0  0  0  0  0  0
  1  6  1  0  0  0  0
  1 34  1  0  0  0  0
  2 11  2  0  0  0  0
  3 17  2  0  0  0  0
  4 18  2  0  0  0  0
  5 21  1  0  0  0  0
  5 38  1  0  0  0  0
  6  7  1  0  0  0  0
  6  8  1  0  0  0  0
  6 13  1  0  0  0  0
  7  9  1  0  0  0  0
  7 25  1  0  0  0  0
  7 26  1  0  0  0  0
  8 11  1  0  0  0  0
  8 27  1  0  0  0  0
  8 28  1  0  0  0  0
  9 10  2  0  0  0  0
  9 15  1  0  0  0  0
 10 11  1  0  0  0  0
 10 12  1  0  0  0  0
 12 14  2  0  0  0  0
 12 17  1  0  0  0  0
 13 29  1  0  0  0  0
 13 30  1  0  0  0  0
 13 31  1  0  0  0  0
 14 16  1  0  0  0  0
 14 18  1  0  0  0  0
 15 16  2  0  0  0  0
 15 32  1  0  0  0  0
 16 33  1  0  0  0  0
 17 19  1  0  0  0  0
 18 20  1  0  0  0  0
 19 20  2  0  0  0  0
 19 22  1  0  0  0  0
 20 21  1  0  0  0  0
 21 23  2  0  0  0  0
 22 24  2  0  0  0  0
 22 35  1  0  0  0  0
 23 24  1  0  0  0  0
 23 36  1  0  0  0  0
 24 37  1  0  0  0  0
M  END
> <PUBCHEM_COMPOUND_CID>
160887

> <PUBCHEM_COMPOUND_CANONICALIZED>
1

> <PUBCHEM_CACTVS_COMPLEXITY>
599

> <PUBCHEM_CACTVS_HBOND_ACCEPTOR>
5

> <PUBCHEM_CACTVS_HBOND_DONOR>
2

> <PUBCHEM_CACTVS_ROTATABLE_BOND>
0

> <PUBCHEM_CACTVS_SUBSKEYS>
AAADccB4OAAAAAAAAAAAAAAAAAAAAAAAAAAwYMGAAAAAAADBQAAAGgAACAAADESAmAAyBoAAAgCIAqBSAAACAAAkIAAIiAEGCMgIJjaCFRKAcUAk4BEImYeLzvDuwAADAAAYAADAAAYAADAAAAAAAAAAAA==

> <PUBCHEM_IUPAC_OPENEYE_NAME>
3,8-dihydroxy-3-methyl-2,4-dihydrobenzo[a]anthracene-1,7,12-trione

> <PUBCHEM_IUPAC_CAS_NAME>
3,8-dihydroxy-3-methyl-2,4-dihydrobenzo[a]anthracene-1,7,12-trione

> <PUBCHEM_IUPAC_NAME>
3,8-dihydroxy-3-methyl-2,4-dihydrobenzo[a]anthracene-1,7,12-trione

> <PUBCHEM_IUPAC_SYSTEMATIC_NAME>
3-methyl-3,8-bis(oxidanyl)-2,4-dihydrobenzo[a]anthracene-1,7,12-trione

> <PUBCHEM_IUPAC_TRADITIONAL_NAME>
3,8-dihydroxy-3-methyl-2,4-dihydrobenz[a]anthracene-1,7,12-trione

> <PUBCHEM_IUPAC_INCHI>
InChI=1S/C19H14O5/c1-19(24)7-9-5-6-11-16(14(9)13(21)8-19)18(23)10-3-2-4-12(20)15(10)17(11)22/h2-6,20,24H,7-8H2,1H3

> <PUBCHEM_IUPAC_INCHIKEY>
UGEKKXLEYACFTD-UHFFFAOYSA-N

> <PUBCHEM_XLOGP3_AA>
2.4

> <PUBCHEM_EXACT_MASS>
322.084124

> <PUBCHEM_MOLECULAR_FORMULA>
C19H14O5

> <PUBCHEM_MOLECULAR_WEIGHT>
322.31146

> <PUBCHEM_OPENEYE_CAN_SMILES>
CC1(CC2=C(C(=O)C1)C3=C(C=C2)C(=O)C4=C(C3=O)C=CC=C4O)O

> <PUBCHEM_OPENEYE_ISO_SMILES>
CC1(CC2=C(C(=O)C1)C3=C(C=C2)C(=O)C4=C(C3=O)C=CC=C4O)O

> <PUBCHEM_CACTVS_TPSA>
91.7

> <PUBCHEM_MONOISOTOPIC_WEIGHT>
322.084124

> <PUBCHEM_TOTAL_CHARGE>
0

> <PUBCHEM_HEAVY_ATOM_COUNT>
24

> <PUBCHEM_ATOM_DEF_STEREO_COUNT>
0

> <PUBCHEM_ATOM_UDEF_STEREO_COUNT>
1

> <PUBCHEM_BOND_DEF_STEREO_COUNT>
0

> <PUBCHEM_BOND_UDEF_STEREO_COUNT>
0

> <PUBCHEM_ISOTOPIC_ATOM_COUNT>
0

> <PUBCHEM_COMPONENT_COUNT>
1

> <PUBCHEM_CACTVS_TAUTO_COUNT>
53

> <PUBCHEM_COORDINATE_TYPE>
1
5
255

> <PUBCHEM_BONDANNOTATIONS>
6  1  3
10  12  8
12  14  8
14  16  8
15  16  8
19  20  8
19  22  8
20  21  8
21  23  8
22  24  8
23  24  8
9  10  8
9  15  8

$$$$

