221071
  -OEChem-07051212463D

 36 38  0     1  0  0  0  0  0999 V2000
   -1.5283    1.3238    0.5617 O   0  0  0  0  0  0  0  0  0  0  0  0
   -3.7401    1.8734    0.2606 O   0  0  0  0  0  0  0  0  0  0  0  0
    3.5746    2.0131   -0.5913 O   0  0  0  0  0  0  0  0  0  0  0  0
   -1.5437   -0.7623   -0.3865 C   0  0  1  0  0  0  0  0  0  0  0  0
   -0.8104    0.0905    0.6305 C   0  0  1  0  0  0  0  0  0  0  0  0
    1.2652   -1.3340    0.3187 C   0  0  2  0  0  0  0  0  0  0  0  0
   -1.1050   -2.2125   -0.2972 C   0  0  0  0  0  0  0  0  0  0  0  0
    0.6774    0.0974    0.3089 C   0  0  0  0  0  0  0  0  0  0  0  0
    0.4062   -2.2909   -0.5632 C   0  0  0  0  0  0  0  0  0  0  0  0
   -2.9859   -0.4319   -0.0494 C   0  0  1  0  0  0  0  0  0  0  0  0
   -2.8429    1.0453    0.2608 C   0  0  0  0  0  0  0  0  0  0  0  0
    1.3279   -1.8673    1.7683 C   0  0  0  0  0  0  0  0  0  0  0  0
    2.6797   -1.3830   -0.2092 C   0  0  0  0  0  0  0  0  0  0  0  0
    1.4122    1.1953    0.0194 C   0  0  0  0  0  0  0  0  0  0  0  0
   -3.9446   -0.6988   -1.1945 C   0  0  0  0  0  0  0  0  0  0  0  0
    3.4080   -0.3113   -0.5206 C   0  0  0  0  0  0  0  0  0  0  0  0
    2.8515    1.0449   -0.3710 C   0  0  0  0  0  0  0  0  0  0  0  0
    0.8981    2.6083    0.0538 C   0  0  0  0  0  0  0  0  0  0  0  0
   -1.3280   -0.3902   -1.4012 H   0  0  0  0  0  0  0  0  0  0  0  0
   -0.9437   -0.2790    1.6554 H   0  0  0  0  0  0  0  0  0  0  0  0
   -1.6390   -2.8195   -1.0368 H   0  0  0  0  0  0  0  0  0  0  0  0
   -1.3397   -2.6315    0.6879 H   0  0  0  0  0  0  0  0  0  0  0  0
    0.7328   -3.3307   -0.4286 H   0  0  0  0  0  0  0  0  0  0  0  0
    0.5736   -2.0553   -1.6244 H   0  0  0  0  0  0  0  0  0  0  0  0
   -3.3159   -0.9447    0.8615 H   0  0  0  0  0  0  0  0  0  0  0  0
    1.8061   -2.8541    1.8100 H   0  0  0  0  0  0  0  0  0  0  0  0
    1.9065   -1.1958    2.4150 H   0  0  0  0  0  0  0  0  0  0  0  0
    0.3375   -1.9805    2.2198 H   0  0  0  0  0  0  0  0  0  0  0  0
    3.1415   -2.3622   -0.3221 H   0  0  0  0  0  0  0  0  0  0  0  0
   -3.6734   -0.1270   -2.0888 H   0  0  0  0  0  0  0  0  0  0  0  0
   -3.9572   -1.7613   -1.4564 H   0  0  0  0  0  0  0  0  0  0  0  0
   -4.9633   -0.4052   -0.9192 H   0  0  0  0  0  0  0  0  0  0  0  0
    4.4274   -0.4091   -0.8762 H   0  0  0  0  0  0  0  0  0  0  0  0
    1.6981    3.3519   -0.0135 H   0  0  0  0  0  0  0  0  0  0  0  0
    0.3825    2.8153    0.9971 H   0  0  0  0  0  0  0  0  0  0  0  0
    0.2191    2.7890   -0.7856 H   0  0  0  0  0  0  0  0  0  0  0  0
  1  5  1  0  0  0  0
  1 11  1  0  0  0  0
  2 11  2  0  0  0  0
  3 17  2  0  0  0  0
  4  5  1  0  0  0  0
  4  7  1  0  0  0  0
  4 10  1  0  0  0  0
  4 19  1  0  0  0  0
  5  8  1  0  0  0  0
  5 20  1  0  0  0  0
  6  8  1  0  0  0  0
  6  9  1  0  0  0  0
  6 12  1  0  0  0  0
  6 13  1  0  0  0  0
  7  9  1  0  0  0  0
  7 21  1  0  0  0  0
  7 22  1  0  0  0  0
  8 14  2  0  0  0  0
  9 23  1  0  0  0  0
  9 24  1  0  0  0  0
 10 11  1  0  0  0  0
 10 15  1  0  0  0  0
 10 25  1  0  0  0  0
 12 26  1  0  0  0  0
 12 27  1  0  0  0  0
 12 28  1  0  0  0  0
 13 16  2  0  0  0  0
 13 29  1  0  0  0  0
 14 17  1  0  0  0  0
 14 18  1  0  0  0  0
 15 30  1  0  0  0  0
 15 31  1  0  0  0  0
 15 32  1  0  0  0  0
 16 17  1  0  0  0  0
 16 33  1  0  0  0  0
 18 34  1  0  0  0  0
 18 35  1  0  0  0  0
 18 36  1  0  0  0  0
M  END
> <PUBCHEM_COMPOUND_CID>
221071

> <PUBCHEM_CONFORMER_RMSD>
0.6

> <PUBCHEM_CONFORMER_DIVERSEORDER>
1

> <PUBCHEM_MMFF94_PARTIAL_CHARGES>
15
1 -0.43
10 0.06
11 0.66
13 -0.29
14 -0.12
16 -0.14
17 0.54
18 0.14
2 -0.57
29 0.15
3 -0.57
33 0.15
5 0.42
6 0.28
8 -0.28

> <PUBCHEM_EFFECTIVE_ROTOR_COUNT>
0.8

> <PUBCHEM_PHARMACOPHORE_FEATURES>
5
1 2 acceptor
1 3 acceptor
5 1 4 5 10 11 rings
6 4 5 6 7 8 9 rings
6 6 8 13 14 16 17 rings

> <PUBCHEM_HEAVY_ATOM_COUNT>
18

> <PUBCHEM_ATOM_DEF_STEREO_COUNT>
4

> <PUBCHEM_ATOM_UDEF_STEREO_COUNT>
0

> <PUBCHEM_BOND_DEF_STEREO_COUNT>
0

> <PUBCHEM_BOND_UDEF_STEREO_COUNT>
0

> <PUBCHEM_ISOTOPIC_ATOM_COUNT>
0

> <PUBCHEM_COMPONENT_COUNT>
1

> <PUBCHEM_CACTVS_TAUTO_COUNT>
2

> <PUBCHEM_CONFORMER_ID>
00035F8F00000001

> <PUBCHEM_MMFF94_ENERGY>
41.9085

> <PUBCHEM_FEATURE_SELFOVERLAP>
25.476

> <PUBCHEM_SHAPE_FINGERPRINT>
10062212 137 18262525900181885079
10756046 5 18334292071750445223
10863032 1 18341327803912885782
10948715 1 18340763763100821446
10967382 1 18409445847703881820
10980938 120 18413108393929335752
12491281 212 18339916013924096026
12644460 14 18196920287788997801
13009979 54 17897445222909870714
13140716 1 18337673138730575544
13221675 6 18336265652378585511
13583140 156 17131559344720799953
14289901 80 15985099725980340635
14787075 74 17697310716589746571
14993402 34 18408886264931143134
15196674 1 18408882949173984636
15536298 74 18261109682071185812
15775835 57 18341324539574067692
16752209 62 17822870744388437055
16945 1 18191303767361148426
18186145 218 17989201564365397566
19765921 60 18130228138516563546
21267235 1 18336817654286426007
21501502 16 18410016576185896103
21524375 3 18270965635393182574
22094290 62 18411980286578120970
22112679 90 18265634236459294122
231179 274 17775298156870929951
2334 1 18409166618889585009
23402539 116 18188496877700795854
23419403 2 6932047937121209857
23463225 33 18338236097321605146
23558518 356 17909549458783484256
23559900 14 18187918427838514484
25 1 18272364270081663438
2748010 2 18337378358309249706
298252 57 18335417911960710306
3060560 45 18190742122877403431
335352 9 18193272124891955910
34934 24 18338519758536980784
353137 74 18337955571622246803
474 4 17988921120138789500
528886 8 18335701693155283538
5939293 188 18337113478885977096
7364860 26 18187653448786390624
7832392 63 18408322185585776806
90525 40 18187643630533311079
9709674 26 18260821571138258470
9981440 41 17619636783240382608

> <PUBCHEM_SHAPE_MULTIPOLES>
352.82
5.93
2.68
0.99
2.39
0.36
-0.21
1.75
1.51
-0.68
-0.07
-0.02
-0.38
-0.85

> <PUBCHEM_SHAPE_SELFOVERLAP>
763.216

> <PUBCHEM_SHAPE_VOLUME>
193.5

> <PUBCHEM_COORDINATE_TYPE>
2
5
10

$$$$

