17396096
  -OEChem-06241222542D

 47 49  0     0  0  0  0  0  0999 V2000
    8.9282   -1.9998    0.0000 O   0  0  0  0  0  0  0  0  0  0  0  0
    4.5981    0.5002    0.0000 O   0  0  0  0  0  0  0  0  0  0  0  0
   12.4725    0.8050    0.0000 N   0  0  0  0  0  0  0  0  0  0  0  0
   13.0561    0.0002    0.0000 N   0  0  0  0  0  0  0  0  0  0  0  0
   10.6603    1.0002    0.0000 N   0  0  0  0  0  0  0  0  0  0  0  0
    8.0622   -0.4998    0.0000 N   0  0  0  0  0  0  0  0  0  0  0  0
    3.7320   -0.9998    0.0000 N   0  0  0  0  0  0  0  0  0  0  0  0
   12.7832    1.7555    0.0000 C   0  0  0  0  0  0  0  0  0  0  0  0
   11.5263    0.5002    0.0000 C   0  0  0  0  0  0  0  0  0  0  0  0
   11.5263   -0.4998    0.0000 C   0  0  0  0  0  0  0  0  0  0  0  0
   13.7617    1.9617    0.0000 C   0  0  0  0  0  0  0  0  0  0  0  0
   12.1153    2.4998    0.0000 C   0  0  0  0  0  0  0  0  0  0  0  0
   12.4725   -0.8045    0.0000 C   0  0  0  0  0  0  0  0  0  0  0  0
   10.6603   -0.9998    0.0000 C   0  0  0  0  0  0  0  0  0  0  0  0
    9.7942   -0.4998    0.0000 C   0  0  0  0  0  0  0  0  0  0  0  0
    9.7942    0.5002    0.0000 C   0  0  0  0  0  0  0  0  0  0  0  0
    8.9282   -0.9998    0.0000 C   0  0  0  0  0  0  0  0  0  0  0  0
    7.1962   -0.9998    0.0000 C   0  0  0  0  0  0  0  0  0  0  0  0
    5.4641   -0.9998    0.0000 C   0  0  0  0  0  0  0  0  0  0  0  0
    6.3301   -0.4998    0.0000 C   0  0  0  0  0  0  0  0  0  0  0  0
    7.1962   -1.9998    0.0000 C   0  0  0  0  0  0  0  0  0  0  0  0
    5.4641   -1.9998    0.0000 C   0  0  0  0  0  0  0  0  0  0  0  0
    6.3301   -2.4998    0.0000 C   0  0  0  0  0  0  0  0  0  0  0  0
    4.5981   -0.4998    0.0000 C   0  0  0  0  0  0  0  0  0  0  0  0
    2.8660   -0.4998    0.0000 C   0  0  0  0  0  0  0  0  0  0  0  0
    2.0000   -0.9998    0.0000 C   0  0  0  0  0  0  0  0  0  0  0  0
   12.1765    1.6276    0.0000 H   0  0  0  0  0  0  0  0  0  0  0  0
   13.8895    1.3550    0.0000 H   0  0  0  0  0  0  0  0  0  0  0  0
   14.3683    2.0896    0.0000 H   0  0  0  0  0  0  0  0  0  0  0  0
   13.6338    2.5684    0.0000 H   0  0  0  0  0  0  0  0  0  0  0  0
   12.5768    2.9138    0.0000 H   0  0  0  0  0  0  0  0  0  0  0  0
   11.7013    2.9612    0.0000 H   0  0  0  0  0  0  0  0  0  0  0  0
   11.6539    2.0857    0.0000 H   0  0  0  0  0  0  0  0  0  0  0  0
   12.6651   -1.3938    0.0000 H   0  0  0  0  0  0  0  0  0  0  0  0
   10.6603   -1.6198    0.0000 H   0  0  0  0  0  0  0  0  0  0  0  0
    9.2573    0.8102    0.0000 H   0  0  0  0  0  0  0  0  0  0  0  0
    8.0622    0.1202    0.0000 H   0  0  0  0  0  0  0  0  0  0  0  0
    6.3301    0.1202    0.0000 H   0  0  0  0  0  0  0  0  0  0  0  0
    7.7331   -2.3098    0.0000 H   0  0  0  0  0  0  0  0  0  0  0  0
    4.9272   -2.3098    0.0000 H   0  0  0  0  0  0  0  0  0  0  0  0
    6.3301   -3.1198    0.0000 H   0  0  0  0  0  0  0  0  0  0  0  0
    3.7320   -1.6198    0.0000 H   0  0  0  0  0  0  0  0  0  0  0  0
    3.2646   -0.0248    0.0000 H   0  0  0  0  0  0  0  0  0  0  0  0
    2.4675   -0.0248    0.0000 H   0  0  0  0  0  0  0  0  0  0  0  0
    1.6900   -0.4628    0.0000 H   0  0  0  0  0  0  0  0  0  0  0  0
    1.4631   -1.3098    0.0000 H   0  0  0  0  0  0  0  0  0  0  0  0
    2.3100   -1.5367    0.0000 H   0  0  0  0  0  0  0  0  0  0  0  0
  1 17  2  0  0  0  0
  2 24  2  0  0  0  0
  3  4  1  0  0  0  0
  3  8  1  0  0  0  0
  3  9  1  0  0  0  0
  4 13  2  0  0  0  0
  5  9  2  0  0  0  0
  5 16  1  0  0  0  0
  6 17  1  0  0  0  0
  6 18  1  0  0  0  0
  6 37  1  0  0  0  0
  7 24  1  0  0  0  0
  7 25  1  0  0  0  0
  7 42  1  0  0  0  0
  8 11  1  0  0  0  0
  8 12  1  0  0  0  0
  8 27  1  0  0  0  0
  9 10  1  0  0  0  0
 10 13  1  0  0  0  0
 10 14  2  0  0  0  0
 11 28  1  0  0  0  0
 11 29  1  0  0  0  0
 11 30  1  0  0  0  0
 12 31  1  0  0  0  0
 12 32  1  0  0  0  0
 12 33  1  0  0  0  0
 13 34  1  0  0  0  0
 14 15  1  0  0  0  0
 14 35  1  0  0  0  0
 15 16  2  0  0  0  0
 15 17  1  0  0  0  0
 16 36  1  0  0  0  0
 18 20  1  0  0  0  0
 18 21  2  0  0  0  0
 19 20  2  0  0  0  0
 19 22  1  0  0  0  0
 19 24  1  0  0  0  0
 20 38  1  0  0  0  0
 21 23  1  0  0  0  0
 21 39  1  0  0  0  0
 22 23  2  0  0  0  0
 22 40  1  0  0  0  0
 23 41  1  0  0  0  0
 25 26  1  0  0  0  0
 25 43  1  0  0  0  0
 25 44  1  0  0  0  0
 26 45  1  0  0  0  0
 26 46  1  0  0  0  0
 26 47  1  0  0  0  0
M  END
> <PUBCHEM_COMPOUND_CID>
17396096

> <PUBCHEM_COMPOUND_CANONICALIZED>
1

> <PUBCHEM_CACTVS_COMPLEXITY>
512

> <PUBCHEM_CACTVS_HBOND_ACCEPTOR>
4

> <PUBCHEM_CACTVS_HBOND_DONOR>
2

> <PUBCHEM_CACTVS_ROTATABLE_BOND>
5

> <PUBCHEM_CACTVS_SUBSKEYS>
AAADceB7sAAAAAAAAAAAAAAAAAAAAWAAAAA8QAAAAAAAAFgB/AAAHgAYAAAADCjBmwQ/8N7IEACqAjd3dACShCs1gqAd2KEoZNiIKPrA3dGEpYhongLIyecciQCOAAAAQAAAAAAAAACAAAAAAAAAAAAAAA==

> <PUBCHEM_IUPAC_OPENEYE_NAME>
N-[3-(ethylcarbamoyl)phenyl]-1-isopropyl-pyrazolo[3,4-b]pyridine-5-carboxamide

> <PUBCHEM_IUPAC_CAS_NAME>
N-[3-(ethylcarbamoyl)phenyl]-1-propan-2-yl-5-pyrazolo[3,4-b]pyridinecarboxamide

> <PUBCHEM_IUPAC_NAME>
N-[3-(ethylcarbamoyl)phenyl]-1-propan-2-ylpyrazolo[3,4-b]pyridine-5-carboxamide

> <PUBCHEM_IUPAC_SYSTEMATIC_NAME>
N-[3-(ethylcarbamoyl)phenyl]-1-propan-2-yl-pyrazolo[3,4-b]pyridine-5-carboxamide

> <PUBCHEM_IUPAC_TRADITIONAL_NAME>
N-[3-(ethylcarbamoyl)phenyl]-1-isopropyl-pyrazolo[3,4-b]pyridine-5-carboxamide

> <PUBCHEM_IUPAC_INCHI>
InChI=1S/C19H21N5O2/c1-4-20-18(25)13-6-5-7-16(9-13)23-19(26)15-8-14-11-22-24(12(2)3)17(14)21-10-15/h5-12H,4H2,1-3H3,(H,20,25)(H,23,26)

> <PUBCHEM_IUPAC_INCHIKEY>
IZVOXUZVMDFQFX-UHFFFAOYSA-N

> <PUBCHEM_XLOGP3_AA>
2

> <PUBCHEM_EXACT_MASS>
351.169525

> <PUBCHEM_MOLECULAR_FORMULA>
C19H21N5O2

> <PUBCHEM_MOLECULAR_WEIGHT>
351.40234

> <PUBCHEM_OPENEYE_CAN_SMILES>
CCNC(=O)C1=CC(=CC=C1)NC(=O)C2=CN=C3C(=C2)C=NN3C(C)C

> <PUBCHEM_OPENEYE_ISO_SMILES>
CCNC(=O)C1=CC(=CC=C1)NC(=O)C2=CN=C3C(=C2)C=NN3C(C)C

> <PUBCHEM_CACTVS_TPSA>
88.9

> <PUBCHEM_MONOISOTOPIC_WEIGHT>
351.169525

> <PUBCHEM_TOTAL_CHARGE>
0

> <PUBCHEM_HEAVY_ATOM_COUNT>
26

> <PUBCHEM_ATOM_DEF_STEREO_COUNT>
0

> <PUBCHEM_ATOM_UDEF_STEREO_COUNT>
0

> <PUBCHEM_BOND_DEF_STEREO_COUNT>
0

> <PUBCHEM_BOND_UDEF_STEREO_COUNT>
0

> <PUBCHEM_ISOTOPIC_ATOM_COUNT>
0

> <PUBCHEM_COMPONENT_COUNT>
1

> <PUBCHEM_CACTVS_TAUTO_COUNT>
4

> <PUBCHEM_COORDINATE_TYPE>
1
5
255

> <PUBCHEM_BONDANNOTATIONS>
10  13  8
10  14  8
14  15  8
15  16  8
18  20  8
18  21  8
19  20  8
19  22  8
21  23  8
22  23  8
3  4  8
3  9  8
4  13  8
5  16  8
5  9  8
9  10  8

$$$$

