39040
  -OEChem-07051213122D

 20 22  0     0  0  0  0  0  0999 V2000
    5.0274    0.8494    0.0000 S   0  0  0  0  0  0  0  0  0  0  0  0
    4.5274   -0.6895    0.0000 N   0  0  0  0  0  0  0  0  0  0  0  0
    6.1391   -0.6881    0.0000 N   0  0  0  0  0  0  0  0  0  0  0  0
    5.8311   -1.6332    0.0000 N   0  0  0  0  0  0  0  0  0  0  0  0
    3.7183   -0.1017    0.0000 C   0  0  0  0  0  0  0  0  0  0  0  0
    4.0274    0.8494    0.0000 C   0  0  0  0  0  0  0  0  0  0  0  0
    2.7029   -0.3339    0.0000 C   0  0  0  0  0  0  0  0  0  0  0  0
    5.3364   -0.1017    0.0000 C   0  0  0  0  0  0  0  0  0  0  0  0
    3.3424    1.6341    0.0000 C   0  0  0  0  0  0  0  0  0  0  0  0
    2.0000    0.4347    0.0000 C   0  0  0  0  0  0  0  0  0  0  0  0
    4.8370   -1.6341    0.0000 C   0  0  0  0  0  0  0  0  0  0  0  0
    2.4049   -1.2885    0.0000 C   0  0  0  0  0  0  0  0  0  0  0  0
    2.3219    1.4254    0.0000 C   0  0  0  0  0  0  0  0  0  0  0  0
    3.5408    2.2215    0.0000 H   0  0  0  0  0  0  0  0  0  0  0  0
    1.3940    0.3035    0.0000 H   0  0  0  0  0  0  0  0  0  0  0  0
    4.4734   -2.1363    0.0000 H   0  0  0  0  0  0  0  0  0  0  0  0
    1.8131   -1.1038    0.0000 H   0  0  0  0  0  0  0  0  0  0  0  0
    2.2202   -1.8803    0.0000 H   0  0  0  0  0  0  0  0  0  0  0  0
    2.9968   -1.4733    0.0000 H   0  0  0  0  0  0  0  0  0  0  0  0
    1.9088    1.8877    0.0000 H   0  0  0  0  0  0  0  0  0  0  0  0
  1  6  1  0  0  0  0
  1  8  1  0  0  0  0
  2  5  1  0  0  0  0
  2  8  1  0  0  0  0
  2 11  1  0  0  0  0
  3  4  1  0  0  0  0
  3  8  2  0  0  0  0
  4 11  2  0  0  0  0
  5  6  1  0  0  0  0
  5  7  2  0  0  0  0
  6  9  2  0  0  0  0
  7 10  1  0  0  0  0
  7 12  1  0  0  0  0
  9 13  1  0  0  0  0
  9 14  1  0  0  0  0
 10 13  2  0  0  0  0
 10 15  1  0  0  0  0
 11 16  1  0  0  0  0
 12 17  1  0  0  0  0
 12 18  1  0  0  0  0
 12 19  1  0  0  0  0
 13 20  1  0  0  0  0
M  END
> <PUBCHEM_COMPOUND_CID>
39040

> <PUBCHEM_COMPOUND_CANONICALIZED>
1

> <PUBCHEM_CACTVS_COMPLEXITY>
211

> <PUBCHEM_CACTVS_HBOND_ACCEPTOR>
3

> <PUBCHEM_CACTVS_HBOND_DONOR>
0

> <PUBCHEM_CACTVS_ROTATABLE_BOND>
0

> <PUBCHEM_CACTVS_SUBSKEYS>
AAADcYBzAABAAAAAAAAAAAAAAAAAAWLAAAAwAAAAAAAWAFgB8AAAHAQIAAAADAiBXgQ30bcMGAimAyRjZACT8KtxiLhN2DwoRJiIKKLgmZGEIAhggAJIyCcQgAAOAAAAgAACAQAAAAEAAAQCAAAAAAAAAA==

> <PUBCHEM_IUPAC_OPENEYE_NAME>
8-methyl-[1,2,4]triazolo[3,4-b][1,3]benzothiazole

> <PUBCHEM_IUPAC_CAS_NAME>
8-methyl-[1,2,4]triazolo[3,4-b][1,3]benzothiazole

> <PUBCHEM_IUPAC_NAME>
8-methyl-[1,2,4]triazolo[3,4-b][1,3]benzothiazole

> <PUBCHEM_IUPAC_SYSTEMATIC_NAME>
8-methyl-[1,2,4]triazolo[3,4-b][1,3]benzothiazole

> <PUBCHEM_IUPAC_TRADITIONAL_NAME>
8-methyl-[1,2,4]triazolo[3,4-b][1,3]benzothiazole

> <PUBCHEM_IUPAC_INCHI>
InChI=1S/C9H7N3S/c1-6-3-2-4-7-8(6)12-5-10-11-9(12)13-7/h2-5H,1H3

> <PUBCHEM_IUPAC_INCHIKEY>
DQJCHOQLCLEDLL-UHFFFAOYSA-N

> <PUBCHEM_XLOGP3>
1.7

> <PUBCHEM_EXACT_MASS>
189.036068

> <PUBCHEM_MOLECULAR_FORMULA>
C9H7N3S

> <PUBCHEM_MOLECULAR_WEIGHT>
189.23698

> <PUBCHEM_OPENEYE_CAN_SMILES>
CC1=C2C(=CC=C1)SC3=NN=CN23

> <PUBCHEM_OPENEYE_ISO_SMILES>
CC1=C2C(=CC=C1)SC3=NN=CN23

> <PUBCHEM_CACTVS_TPSA>
58.4

> <PUBCHEM_MONOISOTOPIC_WEIGHT>
189.036068

> <PUBCHEM_TOTAL_CHARGE>
0

> <PUBCHEM_HEAVY_ATOM_COUNT>
13

> <PUBCHEM_ATOM_DEF_STEREO_COUNT>
0

> <PUBCHEM_ATOM_UDEF_STEREO_COUNT>
0

> <PUBCHEM_BOND_DEF_STEREO_COUNT>
0

> <PUBCHEM_BOND_UDEF_STEREO_COUNT>
0

> <PUBCHEM_ISOTOPIC_ATOM_COUNT>
0

> <PUBCHEM_COMPONENT_COUNT>
1

> <PUBCHEM_CACTVS_TAUTO_COUNT>
1

> <PUBCHEM_COORDINATE_TYPE>
1
5
255

> <PUBCHEM_BONDANNOTATIONS>
1  6  8
1  8  8
10  13  8
2  11  8
2  5  8
2  8  8
3  4  8
3  8  8
4  11  8
5  6  8
5  7  8
6  9  8
7  10  8
9  13  8

$$$$

