38
  -OEChem-07051212453D

 20 19  0     0  0  0  0  0  0999 V2000
   -1.4882   -0.3836   -1.9013 O   0  0  0  0  0  0  0  0  0  0  0  0
    0.5976    1.7797   -0.1673 O   0  0  0  0  0  0  0  0  0  0  0  0
    2.6763    0.4066   -0.3091 O   0  0  0  0  0  0  0  0  0  0  0  0
    1.5008   -1.5052    0.1758 O   0  0  0  0  0  0  0  0  0  0  0  0
   -0.9668   -0.0036    0.4527 C   0  0  0  0  0  0  0  0  0  0  0  0
   -1.3848   -1.0194   -0.6321 C   0  0  0  0  0  0  0  0  0  0  0  0
   -1.9961    1.1352    0.4852 C   0  0  0  0  0  0  0  0  0  0  0  0
   -0.9173   -0.6992    1.8220 C   0  0  0  0  0  0  0  0  0  0  0  0
    0.3902    0.5961    0.0686 C   0  0  0  0  0  0  0  0  0  0  0  0
    1.5884   -0.3065    0.0056 C   0  0  0  0  0  0  0  0  0  0  0  0
   -2.3673   -1.4435   -0.3929 H   0  0  0  0  0  0  0  0  0  0  0  0
   -0.6853   -1.8536   -0.7280 H   0  0  0  0  0  0  0  0  0  0  0  0
   -3.0030    0.7535    0.6888 H   0  0  0  0  0  0  0  0  0  0  0  0
   -2.0350    1.6888   -0.4599 H   0  0  0  0  0  0  0  0  0  0  0  0
   -1.7530    1.8599    1.2715 H   0  0  0  0  0  0  0  0  0  0  0  0
   -1.9225   -0.9824    2.1544 H   0  0  0  0  0  0  0  0  0  0  0  0
   -0.3155   -1.6125    1.8074 H   0  0  0  0  0  0  0  0  0  0  0  0
   -0.4868   -0.0355    2.5803 H   0  0  0  0  0  0  0  0  0  0  0  0
   -1.7726   -1.0616   -2.5378 H   0  0  0  0  0  0  0  0  0  0  0  0
    3.4789   -0.1525   -0.3837 H   0  0  0  0  0  0  0  0  0  0  0  0
  1  6  1  0  0  0  0
  1 19  1  0  0  0  0
  2  9  2  0  0  0  0
  3 10  1  0  0  0  0
  3 20  1  0  0  0  0
  4 10  2  0  0  0  0
  5  6  1  0  0  0  0
  5  7  1  0  0  0  0
  5  8  1  0  0  0  0
  5  9  1  0  0  0  0
  6 11  1  0  0  0  0
  6 12  1  0  0  0  0
  7 13  1  0  0  0  0
  7 14  1  0  0  0  0
  7 15  1  0  0  0  0
  8 16  1  0  0  0  0
  8 17  1  0  0  0  0
  8 18  1  0  0  0  0
  9 10  1  0  0  0  0
M  END
> <PUBCHEM_COMPOUND_CID>
38

> <PUBCHEM_CONFORMER_RMSD>
0.6

> <PUBCHEM_CONFORMER_DIVERSEORDER>
1
9
2
10
3
6
7
4
8
5

> <PUBCHEM_MMFF94_PARTIAL_CHARGES>
10
1 -0.68
10 0.72
19 0.4
2 -0.57
20 0.5
3 -0.65
4 -0.57
5 0.06
6 0.28
9 0.51

> <PUBCHEM_EFFECTIVE_ROTOR_COUNT>
3

> <PUBCHEM_PHARMACOPHORE_FEATURES>
7
1 1 acceptor
1 1 donor
1 2 acceptor
1 3 acceptor
1 4 acceptor
3 3 4 10 anion
3 5 7 8 hydrophobe

> <PUBCHEM_HEAVY_ATOM_COUNT>
10

> <PUBCHEM_ATOM_DEF_STEREO_COUNT>
0

> <PUBCHEM_ATOM_UDEF_STEREO_COUNT>
0

> <PUBCHEM_BOND_DEF_STEREO_COUNT>
0

> <PUBCHEM_BOND_UDEF_STEREO_COUNT>
0

> <PUBCHEM_ISOTOPIC_ATOM_COUNT>
0

> <PUBCHEM_COMPONENT_COUNT>
1

> <PUBCHEM_CACTVS_TAUTO_COUNT>
1

> <PUBCHEM_CONFORMER_ID>
0000002600000001

> <PUBCHEM_MMFF94_ENERGY>
23.7599

> <PUBCHEM_FEATURE_SELFOVERLAP>
35.592

> <PUBCHEM_SHAPE_FINGERPRINT>
12423570 1 10051745579322554867
13024252 1 17917701418248332704
137420 1 5641981057452788339
14128692 85 17460609021239240830
16945 1 18409722993501355297
18185500 45 18187087217403933094
21040471 1 17169547617520944977
23552333 60 17606403150917994979
24536 1 18130786703013047840
29004967 10 18271789225421163680
369184 2 16200431342991234360
5084963 1 17823682097410831186

> <PUBCHEM_SHAPE_MULTIPOLES>
182.32
2.7
1.41
1.34
1.24
0.22
-0.11
0.14
-0.18
0.03
0.05
-0.86
-0.41
-0.21

> <PUBCHEM_SHAPE_SELFOVERLAP>
355.029

> <PUBCHEM_SHAPE_VOLUME>
109.9

> <PUBCHEM_COORDINATE_TYPE>
2
5
10

$$$$

