443740
  -OEChem-07051213033D

 60 65  0     1  0  0  0  0  0999 V2000
   -1.2408    4.9665   -1.0157 O   0  0  0  0  0  0  0  0  0  0  0  0
    0.1726    0.1977    3.1832 O   0  0  0  0  0  0  0  0  0  0  0  0
    0.4832   -2.9373    0.0939 O   0  0  0  0  0  0  0  0  0  0  0  0
   -5.5115   -1.6834   -0.9402 O   0  0  0  0  0  0  0  0  0  0  0  0
   -4.4527   -3.8237   -0.6257 O   0  0  0  0  0  0  0  0  0  0  0  0
    8.4511   -0.6550   -0.1488 O   0  0  0  0  0  0  0  0  0  0  0  0
   -1.5990    1.4367    2.2632 N   0  0  0  0  0  0  0  0  0  0  0  0
    0.6566   -0.6621    0.4970 N   0  0  0  0  0  0  0  0  0  0  0  0
   -1.3159    0.8531   -0.0129 C   0  0  1  0  0  0  0  0  0  0  0  0
   -2.0311    1.8648    0.9407 C   0  0  2  0  0  0  0  0  0  0  0  0
   -0.0075    0.5980    0.7743 C   0  0  1  0  0  0  0  0  0  0  0  0
   -1.6263    3.3181    0.6657 C   0  0  0  0  0  0  0  0  0  0  0  0
   -2.1194   -0.4400   -0.1664 C   0  0  0  0  0  0  0  0  0  0  0  0
   -0.4338    0.6734    2.2353 C   0  0  0  0  0  0  0  0  0  0  0  0
   -1.0067    1.4244   -1.3824 C   0  0  0  0  0  0  0  0  0  0  0  0
   -1.8541    3.6983   -0.7967 C   0  0  2  0  0  0  0  0  0  0  0  0
   -1.5021   -1.7058   -0.0232 C   0  0  0  0  0  0  0  0  0  0  0  0
   -1.2750    2.6880   -1.7401 C   0  0  0  0  0  0  0  0  0  0  0  0
   -0.0400   -1.8296    0.2026 C   0  0  0  0  0  0  0  0  0  0  0  0
    2.1069   -0.6922    0.6469 C   0  0  0  0  0  0  0  0  0  0  0  0
   -2.3241    1.8044    3.4621 C   0  0  0  0  0  0  0  0  0  0  0  0
   -3.4884   -0.3886   -0.5060 C   0  0  0  0  0  0  0  0  0  0  0  0
   -2.2467   -2.8917   -0.1579 C   0  0  0  0  0  0  0  0  0  0  0  0
   -4.1911   -1.5690   -0.6318 C   0  0  0  0  0  0  0  0  0  0  0  0
    2.8374   -0.4450   -0.6707 C   0  0  0  0  0  0  0  0  0  0  0  0
   -3.5882   -2.7870   -0.4547 C   0  0  0  0  0  0  0  0  0  0  0  0
   -1.4521    5.4208   -2.3438 C   0  0  0  0  0  0  0  0  0  0  0  0
    4.3388   -0.5013   -0.5310 C   0  0  0  0  0  0  0  0  0  0  0  0
   -5.6726   -3.1164   -0.9280 C   0  0  0  0  0  0  0  0  0  0  0  0
    5.0375    0.6580   -0.2334 C   0  0  0  0  0  0  0  0  0  0  0  0
    4.9923   -1.7115   -0.7028 C   0  0  0  0  0  0  0  0  0  0  0  0
    6.4254    0.6060   -0.1045 C   0  0  0  0  0  0  0  0  0  0  0  0
    6.3803   -1.7637   -0.5738 C   0  0  0  0  0  0  0  0  0  0  0  0
    7.0969   -0.6048   -0.2745 C   0  0  0  0  0  0  0  0  0  0  0  0
   -3.1227    1.7925    0.9042 H   0  0  0  0  0  0  0  0  0  0  0  0
    0.7066    1.4164    0.6053 H   0  0  0  0  0  0  0  0  0  0  0  0
   -0.5745    3.4884    0.9363 H   0  0  0  0  0  0  0  0  0  0  0  0
   -2.1915    4.0007    1.3137 H   0  0  0  0  0  0  0  0  0  0  0  0
   -0.5765    0.7563   -2.1257 H   0  0  0  0  0  0  0  0  0  0  0  0
   -2.9327    3.7884   -0.9800 H   0  0  0  0  0  0  0  0  0  0  0  0
   -1.0830    2.9460   -2.7762 H   0  0  0  0  0  0  0  0  0  0  0  0
    2.3942   -1.6754    1.0402 H   0  0  0  0  0  0  0  0  0  0  0  0
    2.4059    0.0410    1.4059 H   0  0  0  0  0  0  0  0  0  0  0  0
   -1.8482    1.3670    4.3435 H   0  0  0  0  0  0  0  0  0  0  0  0
   -3.3496    1.4347    3.3811 H   0  0  0  0  0  0  0  0  0  0  0  0
   -2.3292    2.8931    3.5563 H   0  0  0  0  0  0  0  0  0  0  0  0
   -3.9945    0.5562   -0.6765 H   0  0  0  0  0  0  0  0  0  0  0  0
   -1.7948   -3.8720   -0.0469 H   0  0  0  0  0  0  0  0  0  0  0  0
    2.5135   -1.1774   -1.4223 H   0  0  0  0  0  0  0  0  0  0  0  0
    2.5447    0.5302   -1.0823 H   0  0  0  0  0  0  0  0  0  0  0  0
   -2.4604    5.1988   -2.7091 H   0  0  0  0  0  0  0  0  0  0  0  0
   -0.6901    5.0250   -3.0213 H   0  0  0  0  0  0  0  0  0  0  0  0
   -1.3334    6.5090   -2.3408 H   0  0  0  0  0  0  0  0  0  0  0  0
   -6.0299   -3.4379   -1.9131 H   0  0  0  0  0  0  0  0  0  0  0  0
   -6.4264   -3.3790   -0.1768 H   0  0  0  0  0  0  0  0  0  0  0  0
    4.5229    1.6048   -0.0971 H   0  0  0  0  0  0  0  0  0  0  0  0
    4.4423   -2.6192   -0.9338 H   0  0  0  0  0  0  0  0  0  0  0  0
    6.9719    1.5157    0.1293 H   0  0  0  0  0  0  0  0  0  0  0  0
    6.8976   -2.7099   -0.7070 H   0  0  0  0  0  0  0  0  0  0  0  0
    8.7815    0.2359    0.0590 H   0  0  0  0  0  0  0  0  0  0  0  0
  1 16  1  0  0  0  0
  1 27  1  0  0  0  0
  2 14  2  0  0  0  0
  3 19  2  0  0  0  0
  4 24  1  0  0  0  0
  4 29  1  0  0  0  0
  5 26  1  0  0  0  0
  5 29  1  0  0  0  0
  6 34  1  0  0  0  0
  6 60  1  0  0  0  0
  7 10  1  0  0  0  0
  7 14  1  0  0  0  0
  7 21  1  0  0  0  0
  8 11  1  0  0  0  0
  8 19  1  0  0  0  0
  8 20  1  0  0  0  0
  9 10  1  0  0  0  0
  9 11  1  0  0  0  0
  9 13  1  0  0  0  0
  9 15  1  0  0  0  0
 10 12  1  0  0  0  0
 10 35  1  0  0  0  0
 11 14  1  0  0  0  0
 11 36  1  0  0  0  0
 12 16  1  0  0  0  0
 12 37  1  0  0  0  0
 12 38  1  0  0  0  0
 13 17  1  0  0  0  0
 13 22  2  0  0  0  0
 15 18  2  0  0  0  0
 15 39  1  0  0  0  0
 16 18  1  0  0  0  0
 16 40  1  0  0  0  0
 17 19  1  0  0  0  0
 17 23  2  0  0  0  0
 18 41  1  0  0  0  0
 20 25  1  0  0  0  0
 20 42  1  0  0  0  0
 20 43  1  0  0  0  0
 21 44  1  0  0  0  0
 21 45  1  0  0  0  0
 21 46  1  0  0  0  0
 22 24  1  0  0  0  0
 22 47  1  0  0  0  0
 23 26  1  0  0  0  0
 23 48  1  0  0  0  0
 24 26  2  0  0  0  0
 25 28  1  0  0  0  0
 25 49  1  0  0  0  0
 25 50  1  0  0  0  0
 27 51  1  0  0  0  0
 27 52  1  0  0  0  0
 27 53  1  0  0  0  0
 28 30  2  0  0  0  0
 28 31  1  0  0  0  0
 29 54  1  0  0  0  0
 29 55  1  0  0  0  0
 30 32  1  0  0  0  0
 30 56  1  0  0  0  0
 31 33  2  0  0  0  0
 31 57  1  0  0  0  0
 32 34  2  0  0  0  0
 32 58  1  0  0  0  0
 33 34  1  0  0  0  0
 33 59  1  0  0  0  0
M  END
> <PUBCHEM_COMPOUND_CID>
443740

> <PUBCHEM_CONFORMER_RMSD>
0.8

> <PUBCHEM_CONFORMER_DIVERSEORDER>
1
6
13
15
4
2
3
14
8
12
7
11
10
9
5

> <PUBCHEM_MMFF94_PARTIAL_CHARGES>
42
1 -0.56
10 0.3
11 0.36
13 -0.14
14 0.57
15 -0.29
16 0.42
17 0.09
18 -0.29
19 0.54
2 -0.57
20 0.3
21 0.3
22 -0.15
23 -0.15
24 0.08
25 0.14
26 0.08
27 0.28
28 -0.14
29 0.56
3 -0.57
30 -0.15
31 -0.15
32 -0.15
33 -0.15
34 0.08
39 0.15
4 -0.36
41 0.15
47 0.15
48 0.15
5 -0.36
56 0.15
57 0.15
58 0.15
59 0.15
6 -0.53
60 0.45
7 -0.66
8 -0.66
9 0.28

> <PUBCHEM_EFFECTIVE_ROTOR_COUNT>
5.4

> <PUBCHEM_PHARMACOPHORE_FEATURES>
12
1 1 acceptor
1 2 acceptor
1 3 acceptor
1 4 acceptor
1 5 acceptor
1 6 donor
5 4 5 24 26 29 rings
5 7 9 10 11 14 rings
6 13 17 22 23 24 26 rings
6 28 30 31 32 33 34 rings
6 8 9 11 13 17 19 rings
6 9 10 12 15 16 18 rings

> <PUBCHEM_HEAVY_ATOM_COUNT>
34

> <PUBCHEM_ATOM_DEF_STEREO_COUNT>
4

> <PUBCHEM_ATOM_UDEF_STEREO_COUNT>
0

> <PUBCHEM_BOND_DEF_STEREO_COUNT>
0

> <PUBCHEM_BOND_UDEF_STEREO_COUNT>
0

> <PUBCHEM_ISOTOPIC_ATOM_COUNT>
0

> <PUBCHEM_COMPONENT_COUNT>
1

> <PUBCHEM_CACTVS_TAUTO_COUNT>
4

> <PUBCHEM_CONFORMER_ID>
0006C55C00000001

> <PUBCHEM_MMFF94_ENERGY>
97.3334

> <PUBCHEM_FEATURE_SELFOVERLAP>
61.43

> <PUBCHEM_SHAPE_FINGERPRINT>
10165383 225 18117834628121953537
11101153 10 18270953541430585004
11443803 9 17699304457266951333
11488393 25 17407103367012544947
11582403 64 16481072048375451509
12082328 90 17458335378519457734
12788726 201 18130518503848873075
13560911 43 18271251521971440472
13631057 29 18259985964045282986
13726171 33 17200534076539696213
14068700 675 18188487969384521486
14118638 360 18333729131563923118
14294032 229 18268430316135790753
14347332 77 18411426128745073206
14508225 48 18338522936897007229
14856354 85 14923941198411757510
14955137 171 18200017436188238091
15198563 99 18341619226144865237
15324884 4 17901140475980591943
15439362 3 17693660321222353813
15878777 1 15079079329995796825
16087824 20 18340490075955269525
17686467 74 18336266722722013952
19958102 18 18335415820517729910
21033648 144 18116429431434899118
21641784 216 18339345397343230310
21927370 108 18269818866172248963
23559900 14 18117567227451748146
24771750 20 16977017260256540725
255183 313 18191846020268513233
283562 15 18335137609135830571
3552219 110 18115573860194423544
4046055 25 18336830779711744951
404807 14 18410289190455885696
4353968 344 18339931506589110174
469060 322 18412255138446216696
497634 4 18187076274344279456
5080951 261 17969521444721757286
5219985 9 18188491264078702847
531348 171 18126847325451479218
6677587 24 16262114220314801917

> <PUBCHEM_SHAPE_MULTIPOLES>
654.53
13.59
5.41
2.07
33.57
5.89
2.03
-11.27
-4.34
-8.69
-3.48
-1.92
2.21
-0.64

> <PUBCHEM_SHAPE_SELFOVERLAP>
1459.515

> <PUBCHEM_SHAPE_VOLUME>
346

> <PUBCHEM_COORDINATE_TYPE>
2
5
10

$$$$

