443729
  -OEChem-07051213032D

 59 62  0     1  0  0  0  0  0999 V2000
    7.4063    1.6115    0.0000 O   0  0  0  0  0  0  0  0  0  0  0  0
    7.3623    3.6183    0.0000 O   0  0  0  0  0  0  0  0  0  0  0  0
    8.2823    0.0732    0.0000 O   0  0  0  0  0  0  0  0  0  0  0  0
    3.7738   -1.5186    0.0000 O   0  0  0  0  0  0  0  0  0  0  0  0
    5.5771   -2.5784    0.0000 O   0  0  0  0  0  0  0  0  0  0  0  0
    6.4963    5.1183    0.0000 O   0  0  0  0  0  0  0  0  0  0  0  0
    4.6224   -3.0285    0.0000 O   0  0  0  0  0  0  0  0  0  0  0  0
    2.0072   -4.4984    0.0000 O   0  0  0  0  0  0  0  0  0  0  0  0
    3.8180    1.8136    0.0000 N   0  0  3  0  0  0  0  0  0  0  0  0
    4.7642    2.1183    0.0000 C   0  0  1  0  0  0  0  0  0  0  0  0
    5.6303    1.6183    0.0000 C   0  0  1  0  0  0  0  0  0  0  0  0
    6.4963    2.1183    0.0000 C   0  0  1  0  0  0  0  0  0  0  0  0
    4.7642    3.1183    0.0000 C   0  0  0  0  0  0  0  0  0  0  0  0
    6.4963    3.1183    0.0000 C   0  0  2  0  0  0  0  0  0  0  0  0
    3.8180    3.4231    0.0000 C   0  0  0  0  0  0  0  0  0  0  0  0
    3.2344    2.6183    0.0000 C   0  0  0  0  0  0  0  0  0  0  0  0
    5.6142    0.5768    0.0000 C   0  0  0  0  0  0  0  0  0  0  0  0
    5.6303    3.6183    0.0000 C   0  0  0  0  0  0  0  0  0  0  0  0
    6.5122    0.0491    0.0000 C   0  0  0  0  0  0  0  0  0  0  0  0
    3.5074    0.8631    0.0000 C   0  0  0  0  0  0  0  0  0  0  0  0
    7.4143    0.5699    0.0000 C   0  0  0  0  0  0  0  0  0  0  0  0
    4.6623    0.0562    0.0000 C   0  0  0  0  0  0  0  0  0  0  0  0
    6.5206   -1.0359    0.0000 C   0  0  0  0  0  0  0  0  0  0  0  0
    4.6455   -1.0287    0.0000 C   0  0  0  0  0  0  0  0  0  0  0  0
    5.5810   -1.5784    0.0000 C   0  0  0  0  0  0  0  0  0  0  0  0
    7.3623    4.6183    0.0000 C   0  0  0  0  0  0  0  0  0  0  0  0
    8.2283    5.1183    0.0000 C   0  0  0  0  0  0  0  0  0  0  0  0
    3.7622   -2.5185    0.0000 C   0  0  0  0  0  0  0  0  0  0  0  0
    6.4412   -3.0817    0.0000 C   0  0  0  0  0  0  0  0  0  0  0  0
    2.8905   -3.0085    0.0000 C   0  0  0  0  0  0  0  0  0  0  0  0
    2.8789   -4.0084    0.0000 C   0  0  3  0  0  0  0  0  0  0  0  0
    3.7391   -4.5184    0.0000 C   0  0  0  0  0  0  0  0  0  0  0  0
    4.6743    1.2731    0.0000 H   0  0  0  0  0  0  0  0  0  0  0  0
    4.8909    1.1990    0.0000 H   0  0  0  0  0  0  0  0  0  0  0  0
    7.2291    2.5490    0.0000 H   0  0  0  0  0  0  0  0  0  0  0  0
    6.4963    3.7383    0.0000 H   0  0  0  0  0  0  0  0  0  0  0  0
    4.0690    3.9900    0.0000 H   0  0  0  0  0  0  0  0  0  0  0  0
    3.2806    3.7323    0.0000 H   0  0  0  0  0  0  0  0  0  0  0  0
    2.7735    3.0331    0.0000 H   0  0  0  0  0  0  0  0  0  0  0  0
    2.7735    2.2036    0.0000 H   0  0  0  0  0  0  0  0  0  0  0  0
    5.6303    4.2383    0.0000 H   0  0  0  0  0  0  0  0  0  0  0  0
    2.9180    1.0557    0.0000 H   0  0  0  0  0  0  0  0  0  0  0  0
    3.3147    0.2738    0.0000 H   0  0  0  0  0  0  0  0  0  0  0  0
    4.0967    0.6705    0.0000 H   0  0  0  0  0  0  0  0  0  0  0  0
    4.1314    0.3765    0.0000 H   0  0  0  0  0  0  0  0  0  0  0  0
    7.0587   -1.3438    0.0000 H   0  0  0  0  0  0  0  0  0  0  0  0
    8.5383    4.5814    0.0000 H   0  0  0  0  0  0  0  0  0  0  0  0
    8.7653    5.4283    0.0000 H   0  0  0  0  0  0  0  0  0  0  0  0
    7.9183    5.6553    0.0000 H   0  0  0  0  0  0  0  0  0  0  0  0
    6.1291   -3.6174    0.0000 H   0  0  0  0  0  0  0  0  0  0  0  0
    6.9769   -3.3938    0.0000 H   0  0  0  0  0  0  0  0  0  0  0  0
    6.7533   -2.5460    0.0000 H   0  0  0  0  0  0  0  0  0  0  0  0
    2.6852   -2.4235    0.0000 H   0  0  0  0  0  0  0  0  0  0  0  0
    2.2787   -3.1091    0.0000 H   0  0  0  0  0  0  0  0  0  0  0  0
    2.3456   -3.6922    0.0000 H   0  0  0  0  0  0  0  0  0  0  0  0
    3.4229   -5.0517    0.0000 H   0  0  0  0  0  0  0  0  0  0  0  0
    4.2724   -4.8346    0.0000 H   0  0  0  0  0  0  0  0  0  0  0  0
    4.0553   -3.9851    0.0000 H   0  0  0  0  0  0  0  0  0  0  0  0
    2.0000   -5.1183    0.0000 H   0  0  0  0  0  0  0  0  0  0  0  0
  1 12  1  0  0  0  0
  1 21  1  0  0  0  0
 14  2  1  6  0  0  0
  2 26  1  0  0  0  0
  3 21  2  0  0  0  0
  4 24  1  0  0  0  0
  4 28  1  0  0  0  0
  5 25  1  0  0  0  0
  5 29  1  0  0  0  0
  6 26  2  0  0  0  0
  7 28  2  0  0  0  0
  8 31  1  0  0  0  0
  8 59  1  0  0  0  0
  9 10  1  0  0  0  0
  9 16  1  0  0  0  0
  9 20  1  0  0  0  0
 10 11  1  0  0  0  0
 10 13  1  0  0  0  0
 10 33  1  1  0  0  0
 11 12  1  0  0  0  0
 11 17  1  0  0  0  0
 11 34  1  6  0  0  0
 12 14  1  0  0  0  0
 12 35  1  6  0  0  0
 13 15  1  0  0  0  0
 13 18  2  0  0  0  0
 14 18  1  0  0  0  0
 14 36  1  0  0  0  0
 15 16  1  0  0  0  0
 15 37  1  0  0  0  0
 15 38  1  0  0  0  0
 16 39  1  0  0  0  0
 16 40  1  0  0  0  0
 17 19  1  0  0  0  0
 17 22  2  0  0  0  0
 18 41  1  0  0  0  0
 19 21  1  0  0  0  0
 19 23  2  0  0  0  0
 20 42  1  0  0  0  0
 20 43  1  0  0  0  0
 20 44  1  0  0  0  0
 22 24  1  0  0  0  0
 22 45  1  0  0  0  0
 23 25  1  0  0  0  0
 23 46  1  0  0  0  0
 24 25  2  0  0  0  0
 26 27  1  0  0  0  0
 27 47  1  0  0  0  0
 27 48  1  0  0  0  0
 27 49  1  0  0  0  0
 28 30  1  0  0  0  0
 29 50  1  0  0  0  0
 29 51  1  0  0  0  0
 29 52  1  0  0  0  0
 30 31  1  0  0  0  0
 30 53  1  0  0  0  0
 30 54  1  0  0  0  0
 31 32  1  0  0  0  0
 31 55  1  0  0  0  0
 32 56  1  0  0  0  0
 32 57  1  0  0  0  0
 32 58  1  0  0  0  0
M  END
> <PUBCHEM_COMPOUND_CID>
443729

> <PUBCHEM_COMPOUND_CANONICALIZED>
1

> <PUBCHEM_CACTVS_COMPLEXITY>
797

> <PUBCHEM_CACTVS_HBOND_ACCEPTOR>
9

> <PUBCHEM_CACTVS_HBOND_DONOR>
1

> <PUBCHEM_CACTVS_ROTATABLE_BOND>
7

> <PUBCHEM_CACTVS_SUBSKEYS>
AAADceB6PAAAAAAAAAAAAAAAAAAAAWAAAAA0QIAAAAAAAECRAAAAHgAACAAADTzhmAYyDoMABgCIAiDSCACCCAAkIAAAiAEOiMgNNjaEtRuGeyKn4BGKqYf6/f/eoAABAAAQQABAAAIAACCAAAAAAAAAAA==

> <PUBCHEM_IUPAC_OPENEYE_NAME>
[(5S,5aS,11bS,11cS)-5-acetoxy-9-methoxy-1-methyl-7-oxo-2,3,5,5a,11b,11c-hexahydroisochromeno[3,4-g]indol-10-yl] 3-hydroxybutanoate

> <PUBCHEM_IUPAC_CAS_NAME>
3-hydroxybutanoic acid [(5S,5aS,11bS,11cS)-5-acetyloxy-9-methoxy-1-methyl-7-oxo-2,3,5,5a,11b,11c-hexahydro[2]benzopyrano[3,4-g]indol-10-yl] ester

> <PUBCHEM_IUPAC_NAME>
[(5S,5aS,11bS,11cS)-5-acetyloxy-9-methoxy-1-methyl-7-oxo-2,3,5,5a,11b,11c-hexahydroisochromeno[3,4-g]indol-10-yl] 3-hydroxybutanoate

> <PUBCHEM_IUPAC_SYSTEMATIC_NAME>
[(5S,5aS,11bS,11cS)-5-acetyloxy-9-methoxy-1-methyl-7-oxidanylidene-2,3,5,5a,11b,11c-hexahydroisochromeno[3,4-g]indol-10-yl] 3-oxidanylbutanoate

> <PUBCHEM_IUPAC_TRADITIONAL_NAME>
3-hydroxybutyric acid [(5S,5aS,11bS,11cS)-5-acetoxy-7-keto-9-methoxy-1-methyl-2,3,5,5a,11b,11c-hexahydroisochromen[3,4-g]indol-10-yl] ester

> <PUBCHEM_IUPAC_INCHI>
InChI=1S/C23H27NO8/c1-11(25)7-19(27)31-17-9-14-15(10-16(17)29-4)23(28)32-22-18(30-12(2)26)8-13-5-6-24(3)21(13)20(14)22/h8-11,18,20-22,25H,5-7H2,1-4H3/t11?,18-,20-,21+,22+/m0/s1

> <PUBCHEM_IUPAC_INCHIKEY>
FBWQZJWDTGIERI-MIYFKOFASA-N

> <PUBCHEM_XLOGP3_AA>
0.9

> <PUBCHEM_EXACT_MASS>
445.173667

> <PUBCHEM_MOLECULAR_FORMULA>
C23H27NO8

> <PUBCHEM_MOLECULAR_WEIGHT>
445.46238

> <PUBCHEM_OPENEYE_CAN_SMILES>
CC(CC(=O)OC1=C(C=C2C(=C1)C3C(C(C=C4C3N(CC4)C)OC(=O)C)OC2=O)OC)O

> <PUBCHEM_OPENEYE_ISO_SMILES>
CC(CC(=O)OC1=C(C=C2C(=C1)[C@@H]3[C@@H]([C@H](C=C4[C@H]3N(CC4)C)OC(=O)C)OC2=O)OC)O

> <PUBCHEM_CACTVS_TPSA>
112

> <PUBCHEM_MONOISOTOPIC_WEIGHT>
445.173667

> <PUBCHEM_TOTAL_CHARGE>
0

> <PUBCHEM_HEAVY_ATOM_COUNT>
32

> <PUBCHEM_ATOM_DEF_STEREO_COUNT>
4

> <PUBCHEM_ATOM_UDEF_STEREO_COUNT>
1

> <PUBCHEM_BOND_DEF_STEREO_COUNT>
0

> <PUBCHEM_BOND_UDEF_STEREO_COUNT>
0

> <PUBCHEM_ISOTOPIC_ATOM_COUNT>
0

> <PUBCHEM_COMPONENT_COUNT>
1

> <PUBCHEM_CACTVS_TAUTO_COUNT>
1

> <PUBCHEM_COORDINATE_TYPE>
1
5
255

> <PUBCHEM_BONDANNOTATIONS>
10  33  5
11  34  6
12  35  6
17  19  8
17  22  8
19  23  8
14  2  6
22  24  8
23  25  8
24  25  8
31  8  3

$$$$

