11988266
  -OEChem-07051212492D

 28 28  0     1  0  0  0  0  0999 V2000
    7.1057    1.2220    0.0000 S   0  0  0  0  0  0  0  0  0  0  0  0
    3.1697    1.2220    0.0000 P   0  0  0  0  0  0  0  0  0  0  0  0
    5.1377    0.5226    0.0000 O   0  0  0  0  0  0  0  0  0  0  0  0
    3.3776    0.2438    0.0000 O   0  0  0  0  0  0  0  0  0  0  0  0
    6.2255   -1.8253    0.0000 O   0  0  0  0  0  0  0  0  0  0  0  0
    4.0499   -1.8253    0.0000 O   0  0  0  0  0  0  0  0  0  0  0  0
    2.9618    2.2001    0.0000 O   0  0  0  0  0  0  0  0  0  0  0  0
    2.1916    1.0140    0.0000 O   0  0  0  0  0  0  0  0  0  0  0  0
    4.1479    1.4299    0.0000 O   0  0  0  0  0  0  0  0  0  0  0  0
    5.6377   -1.0163    0.0000 C   0  0  2  0  0  0  0  0  0  0  0  0
    5.9467   -0.0652    0.0000 C   0  0  1  0  0  0  0  0  0  0  0  0
    4.6377   -1.0163    0.0000 C   0  0  2  0  0  0  0  0  0  0  0  0
    4.3287   -0.0652    0.0000 C   0  0  2  0  0  0  0  0  0  0  0  0
    6.8978    0.2438    0.0000 C   0  0  0  0  0  0  0  0  0  0  0  0
    8.0568    1.5310    0.0000 C   0  0  0  0  0  0  0  0  0  0  0  0
    6.2501   -0.9193    0.0000 H   0  0  0  0  0  0  0  0  0  0  0  0
    6.0437    0.5472    0.0000 H   0  0  0  0  0  0  0  0  0  0  0  0
    4.9192   -1.5687    0.0000 H   0  0  0  0  0  0  0  0  0  0  0  0
    3.8903   -0.5036    0.0000 H   0  0  0  0  0  0  0  0  0  0  0  0
    6.9841   -0.3702    0.0000 H   0  0  0  0  0  0  0  0  0  0  0  0
    7.5174    0.2222    0.0000 H   0  0  0  0  0  0  0  0  0  0  0  0
    6.8421   -1.7605    0.0000 H   0  0  0  0  0  0  0  0  0  0  0  0
    4.3021   -2.3917    0.0000 H   0  0  0  0  0  0  0  0  0  0  0  0
    8.2484    0.9413    0.0000 H   0  0  0  0  0  0  0  0  0  0  0  0
    8.6464    1.7226    0.0000 H   0  0  0  0  0  0  0  0  0  0  0  0
    7.8652    2.1206    0.0000 H   0  0  0  0  0  0  0  0  0  0  0  0
    2.3722    2.3917    0.0000 H   0  0  0  0  0  0  0  0  0  0  0  0
    2.0000    0.4244    0.0000 H   0  0  0  0  0  0  0  0  0  0  0  0
  1 14  1  0  0  0  0
  1 15  1  0  0  0  0
  2  4  1  0  0  0  0
  2  7  1  0  0  0  0
  2  8  1  0  0  0  0
  2  9  2  0  0  0  0
  3 11  1  0  0  0  0
  3 13  1  0  0  0  0
 13  4  1  1  0  0  0
 10  5  1  1  0  0  0
  5 22  1  0  0  0  0
 12  6  1  1  0  0  0
  6 23  1  0  0  0  0
  7 27  1  0  0  0  0
  8 28  1  0  0  0  0
 10 11  1  0  0  0  0
 10 12  1  0  0  0  0
 10 16  1  0  0  0  0
 11 14  1  6  0  0  0
 11 17  1  0  0  0  0
 12 13  1  0  0  0  0
 12 18  1  0  0  0  0
 13 19  1  0  0  0  0
 14 20  1  0  0  0  0
 14 21  1  0  0  0  0
 15 24  1  0  0  0  0
 15 25  1  0  0  0  0
 15 26  1  0  0  0  0
M  END
> <PUBCHEM_COMPOUND_CID>
11988266

> <PUBCHEM_COMPOUND_CANONICALIZED>
1

> <PUBCHEM_CACTVS_COMPLEXITY>
256

> <PUBCHEM_CACTVS_HBOND_ACCEPTOR>
8

> <PUBCHEM_CACTVS_HBOND_DONOR>
4

> <PUBCHEM_CACTVS_ROTATABLE_BOND>
4

> <PUBCHEM_CACTVS_SUBSKEYS>
AAADccBgOAJAAAAAAAAAAAAAAAAAASAAAAAAAAAAAAAAAAAAAAAAGgQACCAACBS0wAOCCAAABxgAQAAAAIAAAAAAABAAAAAAAAAREAIgAAACQAAFAAAHAADAAAAAAAAAAAAAAAAAAAAAAAAAAAAAAAAAAA==

> <PUBCHEM_IUPAC_OPENEYE_NAME>
[(2R,3R,4S,5S)-3,4-dihydroxy-5-(methylsulfanylmethyl)tetrahydrofuran-2-yl] dihydrogen phosphate

> <PUBCHEM_IUPAC_CAS_NAME>
[(2R,3R,4S,5S)-3,4-dihydroxy-5-[(methylthio)methyl]-2-oxolanyl] dihydrogen phosphate

> <PUBCHEM_IUPAC_NAME>
[(2R,3R,4S,5S)-3,4-dihydroxy-5-(methylsulfanylmethyl)oxolan-2-yl] dihydrogen phosphate

> <PUBCHEM_IUPAC_SYSTEMATIC_NAME>
[(2R,3R,4S,5S)-5-(methylsulfanylmethyl)-3,4-bis(oxidanyl)oxolan-2-yl] dihydrogen phosphate

> <PUBCHEM_IUPAC_TRADITIONAL_NAME>
[(2R,3R,4S,5S)-3,4-dihydroxy-5-[(methylthio)methyl]tetrahydrofuran-2-yl] dihydrogen phosphate

> <PUBCHEM_IUPAC_INCHI>
InChI=1S/C6H13O7PS/c1-15-2-3-4(7)5(8)6(12-3)13-14(9,10)11/h3-8H,2H2,1H3,(H2,9,10,11)/t3-,4-,5-,6-/m1/s1

> <PUBCHEM_IUPAC_INCHIKEY>
JTFITTQBRJDSTL-KVTDHHQDSA-N

> <PUBCHEM_XLOGP3_AA>
-2.3

> <PUBCHEM_EXACT_MASS>
260.01196

> <PUBCHEM_MOLECULAR_FORMULA>
C6H13O7PS

> <PUBCHEM_MOLECULAR_WEIGHT>
260.201982

> <PUBCHEM_OPENEYE_CAN_SMILES>
CSCC1C(C(C(O1)OP(=O)(O)O)O)O

> <PUBCHEM_OPENEYE_ISO_SMILES>
CSC[C@@H]1[C@H]([C@H]([C@H](O1)OP(=O)(O)O)O)O

> <PUBCHEM_CACTVS_TPSA>
142

> <PUBCHEM_MONOISOTOPIC_WEIGHT>
260.01196

> <PUBCHEM_TOTAL_CHARGE>
0

> <PUBCHEM_HEAVY_ATOM_COUNT>
15

> <PUBCHEM_ATOM_DEF_STEREO_COUNT>
4

> <PUBCHEM_ATOM_UDEF_STEREO_COUNT>
0

> <PUBCHEM_BOND_DEF_STEREO_COUNT>
0

> <PUBCHEM_BOND_UDEF_STEREO_COUNT>
0

> <PUBCHEM_ISOTOPIC_ATOM_COUNT>
0

> <PUBCHEM_COMPONENT_COUNT>
1

> <PUBCHEM_CACTVS_TAUTO_COUNT>
1

> <PUBCHEM_COORDINATE_TYPE>
1
5
255

> <PUBCHEM_BONDANNOTATIONS>
11  14  6
13  4  5
10  5  5
12  6  5

$$$$

