17396455
  -OEChem-06241222562D

 39 40  0     0  0  0  0  0  0999 V2000
    2.8660   -3.2500    0.0000 O   0  0  0  0  0  0  0  0  0  0  0  0
    4.5981    1.7500    0.0000 O   0  0  0  0  0  0  0  0  0  0  0  0
    4.5981   -3.2500    0.0000 O   0  0  0  0  0  0  0  0  0  0  0  0
    6.3301    1.7500    0.0000 N   0  0  0  0  0  0  0  0  0  0  0  0
    3.7320   -1.7500    0.0000 N   0  0  0  0  0  0  0  0  0  0  0  0
    5.4641    3.2500    0.0000 N   0  0  0  0  0  0  0  0  0  0  0  0
    5.4641    0.2500    0.0000 C   0  0  0  0  0  0  0  0  0  0  0  0
    4.5981   -1.2500    0.0000 C   0  0  0  0  0  0  0  0  0  0  0  0
    4.5981   -0.2500    0.0000 C   0  0  0  0  0  0  0  0  0  0  0  0
    6.3301   -0.2500    0.0000 C   0  0  0  0  0  0  0  0  0  0  0  0
    5.4641    1.2500    0.0000 C   0  0  0  0  0  0  0  0  0  0  0  0
    5.4641   -1.7500    0.0000 C   0  0  0  0  0  0  0  0  0  0  0  0
    6.3301    2.7500    0.0000 C   0  0  0  0  0  0  0  0  0  0  0  0
    6.3301   -1.2500    0.0000 C   0  0  0  0  0  0  0  0  0  0  0  0
    5.4641    4.2500    0.0000 C   0  0  0  0  0  0  0  0  0  0  0  0
    7.1962    3.2500    0.0000 C   0  0  0  0  0  0  0  0  0  0  0  0
    6.3301    4.7500    0.0000 C   0  0  0  0  0  0  0  0  0  0  0  0
    7.1962    4.2500    0.0000 C   0  0  0  0  0  0  0  0  0  0  0  0
    3.7320   -2.7500    0.0000 C   0  0  0  0  0  0  0  0  0  0  0  0
    4.5981    4.7500    0.0000 C   0  0  0  0  0  0  0  0  0  0  0  0
    2.8660   -4.2500    0.0000 C   0  0  0  0  0  0  0  0  0  0  0  0
    2.0000   -4.7500    0.0000 C   0  0  0  0  0  0  0  0  0  0  0  0
    4.0611    0.0600    0.0000 H   0  0  0  0  0  0  0  0  0  0  0  0
    6.8671    0.0600    0.0000 H   0  0  0  0  0  0  0  0  0  0  0  0
    5.4641   -2.3700    0.0000 H   0  0  0  0  0  0  0  0  0  0  0  0
    6.8671   -1.5600    0.0000 H   0  0  0  0  0  0  0  0  0  0  0  0
    6.8671    1.4400    0.0000 H   0  0  0  0  0  0  0  0  0  0  0  0
    3.1951   -1.4400    0.0000 H   0  0  0  0  0  0  0  0  0  0  0  0
    7.7331    2.9400    0.0000 H   0  0  0  0  0  0  0  0  0  0  0  0
    6.3301    5.3700    0.0000 H   0  0  0  0  0  0  0  0  0  0  0  0
    7.7331    4.5600    0.0000 H   0  0  0  0  0  0  0  0  0  0  0  0
    4.9081    5.2869    0.0000 H   0  0  0  0  0  0  0  0  0  0  0  0
    4.0611    5.0600    0.0000 H   0  0  0  0  0  0  0  0  0  0  0  0
    4.2881    4.2131    0.0000 H   0  0  0  0  0  0  0  0  0  0  0  0
    3.0781   -4.8326    0.0000 H   0  0  0  0  0  0  0  0  0  0  0  0
    3.4766   -4.1423    0.0000 H   0  0  0  0  0  0  0  0  0  0  0  0
    1.6900   -4.2131    0.0000 H   0  0  0  0  0  0  0  0  0  0  0  0
    1.4631   -5.0600    0.0000 H   0  0  0  0  0  0  0  0  0  0  0  0
    2.3100   -5.2869    0.0000 H   0  0  0  0  0  0  0  0  0  0  0  0
  1 19  1  0  0  0  0
  1 21  1  0  0  0  0
  2 11  2  0  0  0  0
  3 19  2  0  0  0  0
  4 11  1  0  0  0  0
  4 13  1  0  0  0  0
  4 27  1  0  0  0  0
  5  8  1  0  0  0  0
  5 19  1  0  0  0  0
  5 28  1  0  0  0  0
  6 13  1  0  0  0  0
  6 15  2  0  0  0  0
  7  9  2  0  0  0  0
  7 10  1  0  0  0  0
  7 11  1  0  0  0  0
  8  9  1  0  0  0  0
  8 12  2  0  0  0  0
  9 23  1  0  0  0  0
 10 14  2  0  0  0  0
 10 24  1  0  0  0  0
 12 14  1  0  0  0  0
 12 25  1  0  0  0  0
 13 16  2  0  0  0  0
 14 26  1  0  0  0  0
 15 17  1  0  0  0  0
 15 20  1  0  0  0  0
 16 18  1  0  0  0  0
 16 29  1  0  0  0  0
 17 18  2  0  0  0  0
 17 30  1  0  0  0  0
 18 31  1  0  0  0  0
 20 32  1  0  0  0  0
 20 33  1  0  0  0  0
 20 34  1  0  0  0  0
 21 22  1  0  0  0  0
 21 35  1  0  0  0  0
 21 36  1  0  0  0  0
 22 37  1  0  0  0  0
 22 38  1  0  0  0  0
 22 39  1  0  0  0  0
M  END
> <PUBCHEM_COMPOUND_CID>
17396455

> <PUBCHEM_COMPOUND_CANONICALIZED>
1

> <PUBCHEM_CACTVS_COMPLEXITY>
389

> <PUBCHEM_CACTVS_HBOND_ACCEPTOR>
4

> <PUBCHEM_CACTVS_HBOND_DONOR>
2

> <PUBCHEM_CACTVS_ROTATABLE_BOND>
5

> <PUBCHEM_CACTVS_SUBSKEYS>
AAADceB7MAAAAAAAAAAAAAAAAAAAAAAAAAA8QAAAAAAAAAABwAAAHgAQAAAADAihngIz+JLIFACoAydyfACCgCklAiAJmCEwZNmIIPLAnZGMIQholQLIyacciACOAAAAQAAAAAAAAACAAAAAAAAAAAAAAA==

> <PUBCHEM_IUPAC_OPENEYE_NAME>
ethyl N-[3-[(6-methyl-2-pyridyl)carbamoyl]phenyl]carbamate

> <PUBCHEM_IUPAC_CAS_NAME>
N-[3-[[(6-methyl-2-pyridinyl)amino]-oxomethyl]phenyl]carbamic acid ethyl ester

> <PUBCHEM_IUPAC_NAME>
ethyl N-[3-[(6-methylpyridin-2-yl)carbamoyl]phenyl]carbamate

> <PUBCHEM_IUPAC_SYSTEMATIC_NAME>
ethyl N-[3-[(6-methylpyridin-2-yl)carbamoyl]phenyl]carbamate

> <PUBCHEM_IUPAC_TRADITIONAL_NAME>
N-[3-[(6-methyl-2-pyridyl)carbamoyl]phenyl]carbamic acid ethyl ester

> <PUBCHEM_IUPAC_INCHI>
InChI=1S/C16H17N3O3/c1-3-22-16(21)18-13-8-5-7-12(10-13)15(20)19-14-9-4-6-11(2)17-14/h4-10H,3H2,1-2H3,(H,18,21)(H,17,19,20)

> <PUBCHEM_IUPAC_INCHIKEY>
YZTUNCSKFQBELC-UHFFFAOYSA-N

> <PUBCHEM_XLOGP3_AA>
2.4

> <PUBCHEM_EXACT_MASS>
299.126991

> <PUBCHEM_MOLECULAR_FORMULA>
C16H17N3O3

> <PUBCHEM_MOLECULAR_WEIGHT>
299.32448

> <PUBCHEM_OPENEYE_CAN_SMILES>
CCOC(=O)NC1=CC=CC(=C1)C(=O)NC2=CC=CC(=N2)C

> <PUBCHEM_OPENEYE_ISO_SMILES>
CCOC(=O)NC1=CC=CC(=C1)C(=O)NC2=CC=CC(=N2)C

> <PUBCHEM_CACTVS_TPSA>
80.3

> <PUBCHEM_MONOISOTOPIC_WEIGHT>
299.126991

> <PUBCHEM_TOTAL_CHARGE>
0

> <PUBCHEM_HEAVY_ATOM_COUNT>
22

> <PUBCHEM_ATOM_DEF_STEREO_COUNT>
0

> <PUBCHEM_ATOM_UDEF_STEREO_COUNT>
0

> <PUBCHEM_BOND_DEF_STEREO_COUNT>
0

> <PUBCHEM_BOND_UDEF_STEREO_COUNT>
0

> <PUBCHEM_ISOTOPIC_ATOM_COUNT>
0

> <PUBCHEM_COMPONENT_COUNT>
1

> <PUBCHEM_CACTVS_TAUTO_COUNT>
16

> <PUBCHEM_COORDINATE_TYPE>
1
5
255

> <PUBCHEM_BONDANNOTATIONS>
10  14  8
12  14  8
13  16  8
15  17  8
16  18  8
17  18  8
6  13  8
6  15  8
7  10  8
7  9  8
8  12  8
8  9  8

$$$$

