11413
  -OEChem-06261205382D

  8  5  0     0  0  0  0  0  0999 V2000
    2.0000   -0.2500    0.0000 K   0  3  0  0  0  0  0  0  0  0  0  0
    6.3301    0.2500    0.0000 K   0  3  0  0  0  0  0  0  0  0  0  0
    2.8660    0.2500    0.0000 O   0  5  0  0  0  0  0  0  0  0  0  0
    5.4641   -0.2500    0.0000 O   0  5  0  0  0  0  0  0  0  0  0  0
    3.7320   -1.2500    0.0000 O   0  0  0  0  0  0  0  0  0  0  0  0
    4.5981    1.2500    0.0000 O   0  0  0  0  0  0  0  0  0  0  0  0
    3.7320   -0.2500    0.0000 C   0  0  0  0  0  0  0  0  0  0  0  0
    4.5981    0.2500    0.0000 C   0  0  0  0  0  0  0  0  0  0  0  0
  3  7  1  0  0  0  0
  4  8  1  0  0  0  0
  5  7  2  0  0  0  0
  6  8  2  0  0  0  0
  7  8  1  0  0  0  0
M  CHG  4   1   1   2   1   3  -1   4  -1
M  END
> <PUBCHEM_COMPOUND_CID>
11413

> <PUBCHEM_COMPOUND_CANONICALIZED>
1

> <PUBCHEM_CACTVS_COMPLEXITY>
60.5

> <PUBCHEM_CACTVS_HBOND_ACCEPTOR>
4

> <PUBCHEM_CACTVS_HBOND_DONOR>
0

> <PUBCHEM_CACTVS_ROTATABLE_BOND>
0

> <PUBCHEM_CACTVS_SUBSKEYS>
AAADcQBAOAAAYAAAAAAAAAAAAAAAAAAAAAAAAAAAAAAAAAAAAAAACgAAAAAAAAAAgAAACAAAAAAIAACQCAIAAAAAAAAAAABAAAABAAAAAAAAAAAAAAAAAAAAAAAAAAAAAAAAAAAAAAAAAAAAAAAAAAAAAA==

> <PUBCHEM_IUPAC_OPENEYE_NAME>
dipotassium oxalate

> <PUBCHEM_IUPAC_CAS_NAME>
dipotassium oxalate

> <PUBCHEM_IUPAC_NAME>
dipotassium oxalate

> <PUBCHEM_IUPAC_SYSTEMATIC_NAME>
dipotassium ethanedioate

> <PUBCHEM_IUPAC_TRADITIONAL_NAME>
dipotassium oxalate

> <PUBCHEM_IUPAC_INCHI>
InChI=1S/C2H2O4.2K/c3-1(4)2(5)6;;/h(H,3,4)(H,5,6);;/q;2*+1/p-2

> <PUBCHEM_IUPAC_INCHIKEY>
IRXRGVFLQOSHOH-UHFFFAOYSA-L

> <PUBCHEM_EXACT_MASS>
165.907072

> <PUBCHEM_MOLECULAR_FORMULA>
C2K2O4

> <PUBCHEM_MOLECULAR_WEIGHT>
166.2156

> <PUBCHEM_OPENEYE_CAN_SMILES>
C(=O)(C(=O)[O-])[O-].[K+].[K+]

> <PUBCHEM_OPENEYE_ISO_SMILES>
C(=O)(C(=O)[O-])[O-].[K+].[K+]

> <PUBCHEM_CACTVS_TPSA>
80.3

> <PUBCHEM_MONOISOTOPIC_WEIGHT>
165.907072

> <PUBCHEM_TOTAL_CHARGE>
0

> <PUBCHEM_HEAVY_ATOM_COUNT>
8

> <PUBCHEM_ATOM_DEF_STEREO_COUNT>
0

> <PUBCHEM_ATOM_UDEF_STEREO_COUNT>
0

> <PUBCHEM_BOND_DEF_STEREO_COUNT>
0

> <PUBCHEM_BOND_UDEF_STEREO_COUNT>
0

> <PUBCHEM_ISOTOPIC_ATOM_COUNT>
0

> <PUBCHEM_COMPONENT_COUNT>
3

> <PUBCHEM_CACTVS_TAUTO_COUNT>
1

> <PUBCHEM_COORDINATE_TYPE>
1
5
255

$$$$

