583022
  -OEChem-06241222443D

 15 15  0     0  0  0  0  0  0999 V2000
   -0.7084   -1.2467    1.4843 F   0  0  0  0  0  0  0  0  0  0  0  0
   -1.5941   -1.7279   -0.4498 F   0  0  0  0  0  0  0  0  0  0  0  0
    1.3261   -1.9688   -0.2378 F   0  0  0  0  0  0  0  0  0  0  0  0
    0.5445   -0.6093   -1.7482 F   0  0  0  0  0  0  0  0  0  0  0  0
   -1.4447    0.8398   -1.2492 F   0  0  0  0  0  0  0  0  0  0  0  0
   -2.2647    0.8771    0.7670 F   0  0  0  0  0  0  0  0  0  0  0  0
    1.6813   -0.0214    1.5078 F   0  0  0  0  0  0  0  0  0  0  0  0
    2.2671    0.8815   -0.3812 F   0  0  0  0  0  0  0  0  0  0  0  0
    0.2127    2.4438   -0.2804 F   0  0  0  0  0  0  0  0  0  0  0  0
   -0.7653   -0.8867    0.1826 C   0  0  0  0  0  0  0  0  0  0  0  0
    0.6224   -0.8431   -0.4165 C   0  0  0  0  0  0  0  0  0  0  0  0
   -1.1740    0.5655    0.0519 C   0  0  0  0  0  0  0  0  0  0  0  0
    1.2267    0.3572    0.2842 C   0  0  0  0  0  0  0  0  0  0  0  0
    0.0705    1.3389    0.4852 C   0  0  0  0  0  0  0  0  0  0  0  0
   -0.0042    1.6493    1.5322 H   0  0  0  0  0  0  0  0  0  0  0  0
  1 10  1  0  0  0  0
  2 10  1  0  0  0  0
  3 11  1  0  0  0  0
  4 11  1  0  0  0  0
  5 12  1  0  0  0  0
  6 12  1  0  0  0  0
  7 13  1  0  0  0  0
  8 13  1  0  0  0  0
  9 14  1  0  0  0  0
 10 11  1  0  0  0  0
 10 12  1  0  0  0  0
 11 13  1  0  0  0  0
 12 14  1  0  0  0  0
 13 14  1  0  0  0  0
 14 15  1  0  0  0  0
M  END
> <PUBCHEM_COMPOUND_CID>
583022

> <PUBCHEM_CONFORMER_RMSD>
0.4

> <PUBCHEM_CONFORMER_DIVERSEORDER>
2
1

> <PUBCHEM_MMFF94_PARTIAL_CHARGES>
14
1 -0.34
10 0.68
11 0.68
12 0.68
13 0.68
14 0.34
2 -0.34
3 -0.34
4 -0.34
5 -0.34
6 -0.34
7 -0.34
8 -0.34
9 -0.34

> <PUBCHEM_EFFECTIVE_ROTOR_COUNT>
1

> <PUBCHEM_PHARMACOPHORE_FEATURES>
1
5 10 11 12 13 14 rings

> <PUBCHEM_HEAVY_ATOM_COUNT>
14

> <PUBCHEM_ATOM_DEF_STEREO_COUNT>
0

> <PUBCHEM_ATOM_UDEF_STEREO_COUNT>
0

> <PUBCHEM_BOND_DEF_STEREO_COUNT>
0

> <PUBCHEM_BOND_UDEF_STEREO_COUNT>
0

> <PUBCHEM_ISOTOPIC_ATOM_COUNT>
0

> <PUBCHEM_COMPONENT_COUNT>
1

> <PUBCHEM_CACTVS_TAUTO_COUNT>
1

> <PUBCHEM_CONFORMER_ID>
0008E56E00000002

> <PUBCHEM_MMFF94_ENERGY>
31.2854

> <PUBCHEM_FEATURE_SELFOVERLAP>
5.074

> <PUBCHEM_SHAPE_FINGERPRINT>
12423570 1 7011190771103078979
13024252 1 16984663620824668344
137420 1 14093544576155244542
16945 1 18334870423504257353
21040471 1 18261957443795410921
21922407 69 16127518268529363131
241688 4 18120653797214643889
2748010 2 18335696165300336495
5084963 1 17826814812112425048
528886 8 18261383451634071728

> <PUBCHEM_SHAPE_MULTIPOLES>
222.65
2.1
1.9
1.19
0
0.15
0.01
0.16
-0.15
0.03
0.14
-0.04
-0.16
0.07

> <PUBCHEM_SHAPE_SELFOVERLAP>
491.21

> <PUBCHEM_SHAPE_VOLUME>
119.8

> <PUBCHEM_COORDINATE_TYPE>
2
5
10

$$$$

