12873
  -OEChem-06261207293D

 29 30  0     0  0  0  0  0  0999 V2000
   -0.3765   -0.1944   -0.5301 N   0  0  0  0  0  0  0  0  0  0  0  0
    0.2303   -0.1280    0.5647 N   0  0  0  0  0  0  0  0  0  0  0  0
    5.7444    0.2432   -0.3280 N   0  0  0  0  0  0  0  0  0  0  0  0
   -3.9007    0.7784   -0.0016 C   0  0  0  0  0  0  0  0  0  0  0  0
   -1.7541   -0.2871   -0.3081 C   0  0  0  0  0  0  0  0  0  0  0  0
   -2.5267    0.8712   -0.2232 C   0  0  0  0  0  0  0  0  0  0  0  0
   -4.5022   -0.4728    0.1349 C   0  0  0  0  0  0  0  0  0  0  0  0
    1.6148   -0.0351    0.3420 C   0  0  0  0  0  0  0  0  0  0  0  0
   -2.3557   -1.5382   -0.1715 C   0  0  0  0  0  0  0  0  0  0  0  0
   -3.7298   -1.6310    0.0499 C   0  0  0  0  0  0  0  0  0  0  0  0
   -4.7270    2.0165    0.0891 C   0  0  0  0  0  0  0  0  0  0  0  0
    4.3558    0.1494   -0.1015 C   0  0  0  0  0  0  0  0  0  0  0  0
    2.2096    1.2154    0.2067 C   0  0  0  0  0  0  0  0  0  0  0  0
    2.3801   -1.1940    0.2572 C   0  0  0  0  0  0  0  0  0  0  0  0
    3.5836    1.3079   -0.0157 C   0  0  0  0  0  0  0  0  0  0  0  0
    3.7541   -1.1014    0.0350 C   0  0  0  0  0  0  0  0  0  0  0  0
   -2.0558    1.8455   -0.3326 H   0  0  0  0  0  0  0  0  0  0  0  0
   -5.5720   -0.5584    0.3059 H   0  0  0  0  0  0  0  0  0  0  0  0
   -1.7625   -2.4465   -0.2370 H   0  0  0  0  0  0  0  0  0  0  0  0
   -4.1982   -2.6052    0.1555 H   0  0  0  0  0  0  0  0  0  0  0  0
   -4.1517    2.8438    0.5185 H   0  0  0  0  0  0  0  0  0  0  0  0
   -5.0748    2.3097   -0.9063 H   0  0  0  0  0  0  0  0  0  0  0  0
   -5.5991    1.8645    0.7343 H   0  0  0  0  0  0  0  0  0  0  0  0
    1.6154    2.1229    0.2727 H   0  0  0  0  0  0  0  0  0  0  0  0
    1.9193   -2.1726    0.3628 H   0  0  0  0  0  0  0  0  0  0  0  0
    4.0407    2.2886   -0.1206 H   0  0  0  0  0  0  0  0  0  0  0  0
    4.3449   -2.0115   -0.0301 H   0  0  0  0  0  0  0  0  0  0  0  0
    6.3054   -0.5961   -0.3876 H   0  0  0  0  0  0  0  0  0  0  0  0
    6.1816    1.1501   -0.4244 H   0  0  0  0  0  0  0  0  0  0  0  0
  1  2  2  0  0  0  0
  1  5  1  0  0  0  0
  2  8  1  0  0  0  0
  3 12  1  0  0  0  0
  3 28  1  0  0  0  0
  3 29  1  0  0  0  0
  4  6  2  0  0  0  0
  4  7  1  0  0  0  0
  4 11  1  0  0  0  0
  5  6  1  0  0  0  0
  5  9  2  0  0  0  0
  6 17  1  0  0  0  0
  7 10  2  0  0  0  0
  7 18  1  0  0  0  0
  8 13  2  0  0  0  0
  8 14  1  0  0  0  0
  9 10  1  0  0  0  0
  9 19  1  0  0  0  0
 10 20  1  0  0  0  0
 11 21  1  0  0  0  0
 11 22  1  0  0  0  0
 11 23  1  0  0  0  0
 12 15  2  0  0  0  0
 12 16  1  0  0  0  0
 13 15  1  0  0  0  0
 13 24  1  0  0  0  0
 14 16  2  0  0  0  0
 14 25  1  0  0  0  0
 15 26  1  0  0  0  0
 16 27  1  0  0  0  0
M  END
> <PUBCHEM_COMPOUND_CID>
12873

> <PUBCHEM_CONFORMER_RMSD>
0.6

> <PUBCHEM_CONFORMER_DIVERSEORDER>
1
3
2

> <PUBCHEM_MMFF94_PARTIAL_CHARGES>
26
1 -0.18
10 -0.15
11 0.14
12 0.1
13 -0.15
14 -0.15
15 -0.15
16 -0.15
17 0.15
18 0.15
19 0.15
2 -0.18
20 0.15
24 0.15
25 0.15
26 0.15
27 0.15
28 0.4
29 0.4
3 -0.9
4 -0.14
5 0.18
6 -0.15
7 -0.15
8 0.18
9 -0.15

> <PUBCHEM_EFFECTIVE_ROTOR_COUNT>
2

> <PUBCHEM_PHARMACOPHORE_FEATURES>
4
1 3 cation
1 3 donor
6 4 5 6 7 9 10 rings
6 8 12 13 14 15 16 rings

> <PUBCHEM_HEAVY_ATOM_COUNT>
16

> <PUBCHEM_ATOM_DEF_STEREO_COUNT>
0

> <PUBCHEM_ATOM_UDEF_STEREO_COUNT>
0

> <PUBCHEM_BOND_DEF_STEREO_COUNT>
0

> <PUBCHEM_BOND_UDEF_STEREO_COUNT>
0

> <PUBCHEM_ISOTOPIC_ATOM_COUNT>
0

> <PUBCHEM_COMPONENT_COUNT>
1

> <PUBCHEM_CACTVS_TAUTO_COUNT>
2

> <PUBCHEM_CONFORMER_ID>
0000324900000001

> <PUBCHEM_MMFF94_ENERGY>
53.3218

> <PUBCHEM_FEATURE_SELFOVERLAP>
20.297

> <PUBCHEM_SHAPE_FINGERPRINT>
10014705 185 18202570596613956437
10616163 171 18337673014314524615
10680689 15 18408882902330439899
10912923 1 17846503616839418706
11405975 8 18412267254554259570
12107183 9 17835525199273271091
12500047 106 18335144184946570639
13167823 11 18411984645706520146
13675066 3 17894917308449136634
13760787 19 18410576197065208179
14251764 75 16595037519807058209
15196674 1 18410856568240273682
15239154 128 18411136926620764209
15242433 33 18410855486183055550
17834072 33 18410012104739929654
17844677 252 18337382755986807593
18186145 218 18060146443956339218
200 152 18186239515397969090
20645477 56 18412262870099661621
20645477 70 18114178691988181758
21065198 57 18410012126193699499
21267235 1 18339635659960359803
21709351 56 18411705357194925492
23402539 116 18408890633007705316
23402655 69 18410856568635925588
23557571 272 18335413556499615661
23559900 14 18188772880704827790
2916195 48 18188219676380270184
300161 21 18412553123287729872
3004659 81 18340483478516373758
3545911 37 18409728469479136473
42 15 18413388734987227006
4214541 1 18410293614271576841
474 4 17488740052333157036
4990 188 18261104171739012526
5104073 3 18412830187348820258
542803 24 17632574950816479628
543358 83 18338795727655670938
633830 44 17989488506877673954
77779 3 18411136922225264803
9709674 26 18410288095044117815

> <PUBCHEM_SHAPE_MULTIPOLES>
314.33
11.79
1.69
0.66
3.59
0.13
0.01
1.96
-0.35
-1.4
0.04
0.01
-0.01
-0.1

> <PUBCHEM_SHAPE_SELFOVERLAP>
674.197

> <PUBCHEM_SHAPE_VOLUME>
174.5

> <PUBCHEM_COORDINATE_TYPE>
2
5
10

$$$$

