443780
  -OEChem-07051213033D

 24 25  0     0  0  0  0  0  0999 V2000
    2.3413   -1.7677    0.0019 O   0  0  0  0  0  0  0  0  0  0  0  0
   -1.9133   -0.9453    0.0000 N   0  0  0  0  0  0  0  0  0  0  0  0
    0.3926   -0.3432    0.0000 C   0  0  0  0  0  0  0  0  0  0  0  0
   -0.0527    1.0693    0.0002 C   0  0  0  0  0  0  0  0  0  0  0  0
   -0.5673   -1.3053   -0.0003 C   0  0  0  0  0  0  0  0  0  0  0  0
   -2.3612    0.3660    0.0004 C   0  0  0  0  0  0  0  0  0  0  0  0
   -1.4815    1.3877    0.0004 C   0  0  0  0  0  0  0  0  0  0  0  0
    1.8658   -0.6385    0.0005 C   0  0  0  0  0  0  0  0  0  0  0  0
    0.8621    2.0546   -0.0003 C   0  0  0  0  0  0  0  0  0  0  0  0
   -0.2935   -2.7844   -0.0017 C   0  0  0  0  0  0  0  0  0  0  0  0
   -3.8429    0.5856    0.0003 C   0  0  0  0  0  0  0  0  0  0  0  0
    2.7732    0.5396   -0.0005 C   0  0  0  0  0  0  0  0  0  0  0  0
    2.2774    1.7816   -0.0009 C   0  0  0  0  0  0  0  0  0  0  0  0
   -1.8038    2.4233    0.0005 H   0  0  0  0  0  0  0  0  0  0  0  0
   -2.6084   -1.6823   -0.0005 H   0  0  0  0  0  0  0  0  0  0  0  0
    0.5715    3.1013   -0.0003 H   0  0  0  0  0  0  0  0  0  0  0  0
   -1.2203   -3.3689   -0.0057 H   0  0  0  0  0  0  0  0  0  0  0  0
    0.2629   -3.0778    0.8943 H   0  0  0  0  0  0  0  0  0  0  0  0
    0.2686   -3.0754   -0.8949 H   0  0  0  0  0  0  0  0  0  0  0  0
   -4.1009    1.6499    0.0003 H   0  0  0  0  0  0  0  0  0  0  0  0
   -4.2951    0.1322    0.8885 H   0  0  0  0  0  0  0  0  0  0  0  0
   -4.2950    0.1322   -0.8881 H   0  0  0  0  0  0  0  0  0  0  0  0
    3.8419    0.3583   -0.0007 H   0  0  0  0  0  0  0  0  0  0  0  0
    2.9480    2.6349   -0.0016 H   0  0  0  0  0  0  0  0  0  0  0  0
  1  8  2  0  0  0  0
  2  5  1  0  0  0  0
  2  6  1  0  0  0  0
  2 15  1  0  0  0  0
  3  4  1  0  0  0  0
  3  5  2  0  0  0  0
  3  8  1  0  0  0  0
  4  7  1  0  0  0  0
  4  9  2  0  0  0  0
  5 10  1  0  0  0  0
  6  7  2  0  0  0  0
  6 11  1  0  0  0  0
  7 14  1  0  0  0  0
  8 12  1  0  0  0  0
  9 13  1  0  0  0  0
  9 16  1  0  0  0  0
 10 17  1  0  0  0  0
 10 18  1  0  0  0  0
 10 19  1  0  0  0  0
 11 20  1  0  0  0  0
 11 21  1  0  0  0  0
 11 22  1  0  0  0  0
 12 13  2  0  0  0  0
 12 23  1  0  0  0  0
 13 24  1  0  0  0  0
M  END
> <PUBCHEM_COMPOUND_CID>
443780

> <PUBCHEM_CONFORMER_RMSD>
0.4

> <PUBCHEM_CONFORMER_DIVERSEORDER>
1

> <PUBCHEM_MMFF94_PARTIAL_CHARGES>
17
1 -0.57
10 0.14
11 0.14
12 -0.14
13 -0.15
14 0.15
15 0.4
16 0.15
2 -0.6
23 0.15
24 0.15
3 0.01
5 -0.04
6 -0.04
7 -0.15
8 0.54
9 -0.15

> <PUBCHEM_EFFECTIVE_ROTOR_COUNT>
0

> <PUBCHEM_PHARMACOPHORE_FEATURES>
5
1 1 acceptor
1 2 cation
1 2 donor
6 2 3 4 5 6 7 rings
6 3 4 8 9 12 13 rings

> <PUBCHEM_HEAVY_ATOM_COUNT>
13

> <PUBCHEM_ATOM_DEF_STEREO_COUNT>
0

> <PUBCHEM_ATOM_UDEF_STEREO_COUNT>
0

> <PUBCHEM_BOND_DEF_STEREO_COUNT>
0

> <PUBCHEM_BOND_UDEF_STEREO_COUNT>
0

> <PUBCHEM_ISOTOPIC_ATOM_COUNT>
0

> <PUBCHEM_COMPONENT_COUNT>
1

> <PUBCHEM_CACTVS_TAUTO_COUNT>
5

> <PUBCHEM_CONFORMER_ID>
0006C58400000001

> <PUBCHEM_MMFF94_ENERGY>
38.2553

> <PUBCHEM_FEATURE_SELFOVERLAP>
25.396

> <PUBCHEM_SHAPE_FINGERPRINT>
10967382 1 18410856572535247461
11471102 20 18339084895040192957
12382932 28 18336831875097021768
12423570 1 16836824537147406772
12524768 44 18412262830827550086
13380535 21 18268135483604314180
13380535 76 18337395937404657430
13897977 150 18411139108674958813
14251717 144 18410018758124195701
14325111 11 18410573968335903617
15775835 57 18341045242135349941
16945 1 18338516313915102532
18186145 218 18335135419013265173
193761 8 18122626041764758534
20511035 2 18116999875362654540
20588541 1 18410853231288321380
20645476 183 17916005898409412006
20645477 70 18338524144341882591
21501502 16 18267027150192898502
2334 1 18410573968019093703
23402655 69 18335712654450049397
23463225 33 18268712877585577506
23552423 10 18198341749769720476
23559900 14 18190168011480918660
241688 4 17257367977621380835
2748010 2 18411980286309017797
2897 32 18411699876584507732
5084963 1 18114466772165072777
528886 8 18410297994874507321
53812653 166 18334861571750883208
66348 1 18411134766309918296
7364860 26 18333732433781220204

> <PUBCHEM_SHAPE_MULTIPOLES>
256.68
4.36
2.53
0.6
2.05
1.16
0
-1.21
0
-0.6
0
0
-0.02
0

> <PUBCHEM_SHAPE_SELFOVERLAP>
552.045

> <PUBCHEM_SHAPE_VOLUME>
140.5

> <PUBCHEM_COORDINATE_TYPE>
2
5
10

$$$$

