656747
  -OEChem-07051213042D

 70 74  0     1  0  0  0  0  0999 V2000
   11.6549    3.0422    0.0000 Cl  0  0  0  0  0  0  0  0  0  0  0  0
    3.7158   -2.4222    0.0000 O   0  0  0  0  0  0  0  0  0  0  0  0
    9.6979    2.6297    0.0000 O   0  0  0  0  0  0  0  0  0  0  0  0
    2.0116    0.6894    0.0000 O   0  0  0  0  0  0  0  0  0  0  0  0
    3.7319   -0.3306    0.0000 N   0  0  0  0  0  0  0  0  0  0  0  0
    7.3768   -0.3698    0.0000 C   0  0  3  0  0  0  0  0  0  0  0  0
    8.2429   -0.8698    0.0000 C   0  0  3  0  0  0  0  0  0  0  0  0
    6.4668   -0.8767    0.0000 C   0  0  2  0  0  0  0  0  0  0  0  0
    9.1089   -0.3698    0.0000 C   0  0  3  0  0  0  0  0  0  0  0  0
    9.1089    0.6302    0.0000 C   0  0  2  0  0  0  0  0  0  0  0  0
    6.4588   -1.9183    0.0000 C   0  0  1  0  0  0  0  0  0  0  0  0
    7.3768    0.6302    0.0000 C   0  0  0  0  0  0  0  0  0  0  0  0
    8.2429    1.1302    0.0000 C   0  0  0  0  0  0  0  0  0  0  0  0
    8.2589   -1.9113    0.0000 C   0  0  0  0  0  0  0  0  0  0  0  0
   10.0551    0.9349    0.0000 C   0  0  3  0  0  0  0  0  0  0  0  0
   10.0551   -0.6746    0.0000 C   0  0  0  0  0  0  0  0  0  0  0  0
    7.3609   -2.4391    0.0000 C   0  0  0  0  0  0  0  0  0  0  0  0
    5.5400   -0.3126    0.0000 C   0  0  0  0  0  0  0  0  0  0  0  0
   10.6387    0.1302    0.0000 C   0  0  0  0  0  0  0  0  0  0  0  0
    5.5234   -2.4680    0.0000 C   0  0  0  0  0  0  0  0  0  0  0  0
    4.5921   -0.8405    0.0000 C   0  0  1  0  0  0  0  0  0  0  0  0
    6.4746    0.1233    0.0000 C   0  0  0  0  0  0  0  0  0  0  0  0
    9.1089    1.6302    0.0000 C   0  0  0  0  0  0  0  0  0  0  0  0
    4.5838   -1.9255    0.0000 C   0  0  1  0  0  0  0  0  0  0  0  0
   10.3658    1.8854    0.0000 C   0  0  0  0  0  0  0  0  0  0  0  0
    2.8602   -0.8205    0.0000 C   0  0  0  0  0  0  0  0  0  0  0  0
    3.7435    0.6694    0.0000 C   0  0  0  0  0  0  0  0  0  0  0  0
   11.3443    2.0916    0.0000 C   0  0  0  0  0  0  0  0  0  0  0  0
    2.0000   -0.3105    0.0000 C   0  0  0  0  0  0  0  0  0  0  0  0
    2.8833    1.1793    0.0000 C   0  0  0  0  0  0  0  0  0  0  0  0
    8.1130    0.0552    0.0000 H   0  0  0  0  0  0  0  0  0  0  0  0
    8.9822   -1.2892    0.0000 H   0  0  0  0  0  0  0  0  0  0  0  0
    9.1988   -1.2151    0.0000 H   0  0  0  0  0  0  0  0  0  0  0  0
    6.4621   -2.7683    0.0000 H   0  0  0  0  0  0  0  0  0  0  0  0
    7.1648    1.2128    0.0000 H   0  0  0  0  0  0  0  0  0  0  0  0
    6.7663    0.5225    0.0000 H   0  0  0  0  0  0  0  0  0  0  0  0
    8.6414    1.6051    0.0000 H   0  0  0  0  0  0  0  0  0  0  0  0
    7.8443    1.6051    0.0000 H   0  0  0  0  0  0  0  0  0  0  0  0
    8.4770   -2.4917    0.0000 H   0  0  0  0  0  0  0  0  0  0  0  0
    8.8681   -1.7958    0.0000 H   0  0  0  0  0  0  0  0  0  0  0  0
   10.8948    1.0668    0.0000 H   0  0  0  0  0  0  0  0  0  0  0  0
    9.8041   -1.2415    0.0000 H   0  0  0  0  0  0  0  0  0  0  0  0
   10.5925   -0.9838    0.0000 H   0  0  0  0  0  0  0  0  0  0  0  0
    6.9636   -2.9151    0.0000 H   0  0  0  0  0  0  0  0  0  0  0  0
    7.7619   -2.9120    0.0000 H   0  0  0  0  0  0  0  0  0  0  0  0
    5.9482    0.1541    0.0000 H   0  0  0  0  0  0  0  0  0  0  0  0
    5.1501    0.1694    0.0000 H   0  0  0  0  0  0  0  0  0  0  0  0
   11.0996   -0.2846    0.0000 H   0  0  0  0  0  0  0  0  0  0  0  0
   11.0996    0.5449    0.0000 H   0  0  0  0  0  0  0  0  0  0  0  0
    5.1261   -2.9440    0.0000 H   0  0  0  0  0  0  0  0  0  0  0  0
    5.9243   -2.9409    0.0000 H   0  0  0  0  0  0  0  0  0  0  0  0
    4.0522   -1.1454    0.0000 H   0  0  0  0  0  0  0  0  0  0  0  0
    7.0945    0.1185    0.0000 H   0  0  0  0  0  0  0  0  0  0  0  0
    6.4793    0.7433    0.0000 H   0  0  0  0  0  0  0  0  0  0  0  0
    5.8546    0.1281    0.0000 H   0  0  0  0  0  0  0  0  0  0  0  0
    9.7289    1.6302    0.0000 H   0  0  0  0  0  0  0  0  0  0  0  0
    9.1089    2.2502    0.0000 H   0  0  0  0  0  0  0  0  0  0  0  0
    8.4889    1.6302    0.0000 H   0  0  0  0  0  0  0  0  0  0  0  0
    4.5826   -2.5455    0.0000 H   0  0  0  0  0  0  0  0  0  0  0  0
    3.7134   -3.0422    0.0000 H   0  0  0  0  0  0  0  0  0  0  0  0
    2.4562   -1.2908    0.0000 H   0  0  0  0  0  0  0  0  0  0  0  0
    3.2532   -1.3000    0.0000 H   0  0  0  0  0  0  0  0  0  0  0  0
    4.3528    0.5547    0.0000 H   0  0  0  0  0  0  0  0  0  0  0  0
    3.9623    1.2495    0.0000 H   0  0  0  0  0  0  0  0  0  0  0  0
   11.3648    1.4720    0.0000 H   0  0  0  0  0  0  0  0  0  0  0  0
   11.9581    2.0043    0.0000 H   0  0  0  0  0  0  0  0  0  0  0  0
    1.3907   -0.1958    0.0000 H   0  0  0  0  0  0  0  0  0  0  0  0
    1.7812   -0.8907    0.0000 H   0  0  0  0  0  0  0  0  0  0  0  0
    3.2873    1.6497    0.0000 H   0  0  0  0  0  0  0  0  0  0  0  0
    2.4903    1.6589    0.0000 H   0  0  0  0  0  0  0  0  0  0  0  0
  1 28  1  0  0  0  0
 24  2  1  6  0  0  0
  2 60  1  0  0  0  0
  3 25  2  0  0  0  0
  4 29  1  0  0  0  0
  4 30  1  0  0  0  0
 21  5  1  1  0  0  0
  5 26  1  0  0  0  0
  5 27  1  0  0  0  0
  6  7  1  0  0  0  0
  6  8  1  0  0  0  0
  6 12  1  0  0  0  0
  6 31  1  0  0  0  0
  7  9  1  0  0  0  0
  7 14  1  0  0  0  0
  7 32  1  0  0  0  0
  8 11  1  0  0  0  0
  8 18  1  0  0  0  0
  8 22  1  1  0  0  0
  9 10  1  0  0  0  0
  9 16  1  0  0  0  0
  9 33  1  0  0  0  0
 10 13  1  0  0  0  0
 10 15  1  0  0  0  0
 10 23  1  1  0  0  0
 11 17  1  0  0  0  0
 11 20  1  0  0  0  0
 11 34  1  6  0  0  0
 12 13  1  0  0  0  0
 12 35  1  0  0  0  0
 12 36  1  0  0  0  0
 13 37  1  0  0  0  0
 13 38  1  0  0  0  0
 14 17  1  0  0  0  0
 14 39  1  0  0  0  0
 14 40  1  0  0  0  0
 15 19  1  0  0  0  0
 15 25  1  0  0  0  0
 15 41  1  0  0  0  0
 16 19  1  0  0  0  0
 16 42  1  0  0  0  0
 16 43  1  0  0  0  0
 17 44  1  0  0  0  0
 17 45  1  0  0  0  0
 18 21  1  0  0  0  0
 18 46  1  0  0  0  0
 18 47  1  0  0  0  0
 19 48  1  0  0  0  0
 19 49  1  0  0  0  0
 20 24  1  0  0  0  0
 20 50  1  0  0  0  0
 20 51  1  0  0  0  0
 21 24  1  0  0  0  0
 21 52  1  0  0  0  0
 22 53  1  0  0  0  0
 22 54  1  0  0  0  0
 22 55  1  0  0  0  0
 23 56  1  0  0  0  0
 23 57  1  0  0  0  0
 23 58  1  0  0  0  0
 24 59  1  0  0  0  0
 25 28  1  0  0  0  0
 26 29  1  0  0  0  0
 26 61  1  0  0  0  0
 26 62  1  0  0  0  0
 27 30  1  0  0  0  0
 27 63  1  0  0  0  0
 27 64  1  0  0  0  0
 28 65  1  0  0  0  0
 28 66  1  0  0  0  0
 29 67  1  0  0  0  0
 29 68  1  0  0  0  0
 30 69  1  0  0  0  0
 30 70  1  0  0  0  0
M  END
> <PUBCHEM_COMPOUND_CID>
656747

> <PUBCHEM_COMPOUND_CANONICALIZED>
1

> <PUBCHEM_CACTVS_COMPLEXITY>
667

> <PUBCHEM_CACTVS_HBOND_ACCEPTOR>
4

> <PUBCHEM_CACTVS_HBOND_DONOR>
1

> <PUBCHEM_CACTVS_ROTATABLE_BOND>
3

> <PUBCHEM_CACTVS_SUBSKEYS>
AAADcfB6MAAEAAAAAAAAAAAAAAAAAYAAAAA8YMEAAAAAAGDAAAAAHgIACAAADz/hgEYCAAMABgAIAIAQAAAAAAAAAAAAAAEIAgBCEBIBgAAHQAAEAACQAAGYyPCPgAAAAAAAAADQAAaAACAgAQAACAAAAA==

> <PUBCHEM_IUPAC_OPENEYE_NAME>
2-chloro-1-[(2S,3S,5S,10S,13S)-3-hydroxy-10,13-dimethyl-2-morpholino-2,3,4,5,6,7,8,9,11,12,14,15,16,17-tetradecahydro-1H-cyclopenta[a]phenanthren-17-yl]ethanone

> <PUBCHEM_IUPAC_CAS_NAME>
2-chloro-1-[(2S,3S,5S,10S,13S)-3-hydroxy-10,13-dimethyl-2-(4-morpholinyl)-2,3,4,5,6,7,8,9,11,12,14,15,16,17-tetradecahydro-1H-cyclopenta[a]phenanthren-17-yl]ethanone

> <PUBCHEM_IUPAC_NAME>
2-chloro-1-[(2S,3S,5S,10S,13S)-3-hydroxy-10,13-dimethyl-2-morpholin-4-yl-2,3,4,5,6,7,8,9,11,12,14,15,16,17-tetradecahydro-1H-cyclopenta[a]phenanthren-17-yl]ethanone

> <PUBCHEM_IUPAC_SYSTEMATIC_NAME>
2-chloranyl-1-[(2S,3S,5S,10S,13S)-10,13-dimethyl-2-morpholin-4-yl-3-oxidanyl-2,3,4,5,6,7,8,9,11,12,14,15,16,17-tetradecahydro-1H-cyclopenta[a]phenanthren-17-yl]ethanone

> <PUBCHEM_IUPAC_TRADITIONAL_NAME>
2-chloro-1-[(2S,3S,5S,10S,13S)-3-hydroxy-10,13-dimethyl-2-morpholino-2,3,4,5,6,7,8,9,11,12,14,15,16,17-tetradecahydro-1H-cyclopenta[a]phenanthren-17-yl]ethanone

> <PUBCHEM_IUPAC_INCHI>
InChI=1S/C25H40ClNO3/c1-24-8-7-19-17(18(24)5-6-20(24)23(29)15-26)4-3-16-13-22(28)21(14-25(16,19)2)27-9-11-30-12-10-27/h16-22,28H,3-15H2,1-2H3/t16-,17?,18?,19?,20?,21-,22-,24-,25-/m0/s1

> <PUBCHEM_IUPAC_INCHIKEY>
NZFNABGZEQPYBX-NZVKSUHHSA-N

> <PUBCHEM_XLOGP3_AA>
4.9

> <PUBCHEM_EXACT_MASS>
437.269672

> <PUBCHEM_MOLECULAR_FORMULA>
C25H40ClNO3

> <PUBCHEM_MOLECULAR_WEIGHT>
438.043

> <PUBCHEM_OPENEYE_CAN_SMILES>
CC12CCC3C(C1CCC2C(=O)CCl)CCC4C3(CC(C(C4)O)N5CCOCC5)C

> <PUBCHEM_OPENEYE_ISO_SMILES>
C[C@]12CCC3C(C1CCC2C(=O)CCl)CC[C@@H]4[C@@]3(C[C@@H]([C@H](C4)O)N5CCOCC5)C

> <PUBCHEM_CACTVS_TPSA>
49.8

> <PUBCHEM_MONOISOTOPIC_WEIGHT>
437.269672

> <PUBCHEM_TOTAL_CHARGE>
0

> <PUBCHEM_HEAVY_ATOM_COUNT>
30

> <PUBCHEM_ATOM_DEF_STEREO_COUNT>
5

> <PUBCHEM_ATOM_UDEF_STEREO_COUNT>
4

> <PUBCHEM_BOND_DEF_STEREO_COUNT>
0

> <PUBCHEM_BOND_UDEF_STEREO_COUNT>
0

> <PUBCHEM_ISOTOPIC_ATOM_COUNT>
0

> <PUBCHEM_COMPONENT_COUNT>
1

> <PUBCHEM_CACTVS_TAUTO_COUNT>
3

> <PUBCHEM_COORDINATE_TYPE>
1
5
255

> <PUBCHEM_BONDANNOTATIONS>
10  23  5
11  34  6
15  41  3
24  2  6
21  5  5
6  31  3
7  32  3
8  22  5
9  33  3

$$$$

