442363
  -OEChem-07051212573D

 43 45  0     1  0  0  0  0  0999 V2000
   -0.3172    1.0362    0.3701 O   0  0  0  0  0  0  0  0  0  0  0  0
   -3.7174   -0.4823    0.2836 O   0  0  0  0  0  0  0  0  0  0  0  0
    0.2804   -0.0006   -0.4121 C   0  0  2  0  0  0  0  0  0  0  0  0
   -0.0551   -1.3502    0.2875 C   0  0  2  0  0  0  0  0  0  0  0  0
    1.8124   -0.0148   -0.5633 C   0  0  2  0  0  0  0  0  0  0  0  0
   -1.7273    0.9613    0.0253 C   0  0  1  0  0  0  0  0  0  0  0  0
   -0.3882    0.1934   -1.7985 C   0  0  0  0  0  0  0  0  0  0  0  0
    0.8671   -2.3116   -0.4635 C   0  0  0  0  0  0  0  0  0  0  0  0
   -1.5642   -1.6090    0.1739 C   0  0  0  0  0  0  0  0  0  0  0  0
    2.1830   -1.5194   -0.5962 C   0  0  0  0  0  0  0  0  0  0  0  0
   -1.6892    0.9245   -1.5004 C   0  0  0  0  0  0  0  0  0  0  0  0
   -2.3400   -0.3466    0.6132 C   0  0  2  0  0  0  0  0  0  0  0  0
    2.5744    0.7834    0.4892 C   0  0  0  0  0  0  0  0  0  0  0  0
    0.3090   -1.3915    1.7979 C   0  0  0  0  0  0  0  0  0  0  0  0
   -2.4387    2.2012    0.5529 C   0  0  0  0  0  0  0  0  0  0  0  0
    4.0809    0.6808    0.2570 C   0  0  0  0  0  0  0  0  0  0  0  0
    2.1301    2.2451    0.4834 C   0  0  0  0  0  0  0  0  0  0  0  0
    2.0945    0.4013   -1.5403 H   0  0  0  0  0  0  0  0  0  0  0  0
   -0.5475   -0.7387   -2.3475 H   0  0  0  0  0  0  0  0  0  0  0  0
    0.2144    0.8382   -2.4499 H   0  0  0  0  0  0  0  0  0  0  0  0
    0.4762   -2.5518   -1.4586 H   0  0  0  0  0  0  0  0  0  0  0  0
    1.0193   -3.2602    0.0621 H   0  0  0  0  0  0  0  0  0  0  0  0
   -1.8770   -2.4671    0.7823 H   0  0  0  0  0  0  0  0  0  0  0  0
   -1.8457   -1.8863   -0.8495 H   0  0  0  0  0  0  0  0  0  0  0  0
    2.8477   -1.8002    0.2271 H   0  0  0  0  0  0  0  0  0  0  0  0
    2.6946   -1.7832   -1.5283 H   0  0  0  0  0  0  0  0  0  0  0  0
   -1.6213    1.9391   -1.9130 H   0  0  0  0  0  0  0  0  0  0  0  0
   -2.5581    0.4501   -1.9639 H   0  0  0  0  0  0  0  0  0  0  0  0
   -2.2904   -0.2853    1.7069 H   0  0  0  0  0  0  0  0  0  0  0  0
    2.3858    0.3927    1.4933 H   0  0  0  0  0  0  0  0  0  0  0  0
    1.3858   -1.4199    1.9797 H   0  0  0  0  0  0  0  0  0  0  0  0
   -0.0926   -0.5358    2.3488 H   0  0  0  0  0  0  0  0  0  0  0  0
   -0.0933   -2.3001    2.2622 H   0  0  0  0  0  0  0  0  0  0  0  0
   -2.4012    2.2310    1.6475 H   0  0  0  0  0  0  0  0  0  0  0  0
   -1.9424    3.1144    0.2049 H   0  0  0  0  0  0  0  0  0  0  0  0
   -3.4863    2.2341    0.2382 H   0  0  0  0  0  0  0  0  0  0  0  0
    4.3544    1.0493   -0.7378 H   0  0  0  0  0  0  0  0  0  0  0  0
    4.6264    1.2811    0.9940 H   0  0  0  0  0  0  0  0  0  0  0  0
    4.4506   -0.3437    0.3519 H   0  0  0  0  0  0  0  0  0  0  0  0
    1.8687    2.5969   -0.5202 H   0  0  0  0  0  0  0  0  0  0  0  0
    2.9318    2.8960    0.8526 H   0  0  0  0  0  0  0  0  0  0  0  0
    1.2891    2.4253    1.1576 H   0  0  0  0  0  0  0  0  0  0  0  0
   -3.7877   -0.7047   -0.6594 H   0  0  0  0  0  0  0  0  0  0  0  0
  1  3  1  0  0  0  0
  1  6  1  0  0  0  0
  2 12  1  0  0  0  0
  2 43  1  0  0  0  0
  3  4  1  0  0  0  0
  3  5  1  0  0  0  0
  3  7  1  0  0  0  0
  4  8  1  0  0  0  0
  4  9  1  0  0  0  0
  4 14  1  0  0  0  0
  5 10  1  0  0  0  0
  5 13  1  0  0  0  0
  5 18  1  0  0  0  0
  6 11  1  0  0  0  0
  6 12  1  0  0  0  0
  6 15  1  0  0  0  0
  7 11  1  0  0  0  0
  7 19  1  0  0  0  0
  7 20  1  0  0  0  0
  8 10  1  0  0  0  0
  8 21  1  0  0  0  0
  8 22  1  0  0  0  0
  9 12  1  0  0  0  0
  9 23  1  0  0  0  0
  9 24  1  0  0  0  0
 10 25  1  0  0  0  0
 10 26  1  0  0  0  0
 11 27  1  0  0  0  0
 11 28  1  0  0  0  0
 12 29  1  0  0  0  0
 13 16  1  0  0  0  0
 13 17  1  0  0  0  0
 13 30  1  0  0  0  0
 14 31  1  0  0  0  0
 14 32  1  0  0  0  0
 14 33  1  0  0  0  0
 15 34  1  0  0  0  0
 15 35  1  0  0  0  0
 15 36  1  0  0  0  0
 16 37  1  0  0  0  0
 16 38  1  0  0  0  0
 16 39  1  0  0  0  0
 17 40  1  0  0  0  0
 17 41  1  0  0  0  0
 17 42  1  0  0  0  0
M  END
> <PUBCHEM_COMPOUND_CID>
442363

> <PUBCHEM_CONFORMER_RMSD>
0.6

> <PUBCHEM_CONFORMER_DIVERSEORDER>
1

> <PUBCHEM_MMFF94_PARTIAL_CHARGES>
6
1 -0.56
12 0.28
2 -0.68
3 0.28
43 0.4
6 0.28

> <PUBCHEM_EFFECTIVE_ROTOR_COUNT>
2.6

> <PUBCHEM_PHARMACOPHORE_FEATURES>
6
1 1 acceptor
1 2 acceptor
1 2 donor
3 13 16 17 hydrophobe
5 3 4 5 8 10 rings
8 1 3 4 6 7 9 11 12 rings

> <PUBCHEM_HEAVY_ATOM_COUNT>
17

> <PUBCHEM_ATOM_DEF_STEREO_COUNT>
5

> <PUBCHEM_ATOM_UDEF_STEREO_COUNT>
0

> <PUBCHEM_BOND_DEF_STEREO_COUNT>
0

> <PUBCHEM_BOND_UDEF_STEREO_COUNT>
0

> <PUBCHEM_ISOTOPIC_ATOM_COUNT>
0

> <PUBCHEM_COMPONENT_COUNT>
1

> <PUBCHEM_CACTVS_TAUTO_COUNT>
1

> <PUBCHEM_CONFORMER_ID>
0006BFFB00000001

> <PUBCHEM_MMFF94_ENERGY>
81.76

> <PUBCHEM_FEATURE_SELFOVERLAP>
30.514

> <PUBCHEM_SHAPE_FINGERPRINT>
10863032 1 18188203333369909659
10948715 1 18260265226606836385
10967382 1 18336261262737139360
11132069 177 18268151963441295384
11680611 10 16054312788689358795
12011746 2 18341046333262622236
12423570 1 16037109670968743702
12491281 212 18336250336340325586
12808571 1 17967813885556404433
13024252 1 12535087311573252742
13027679 85 17476352181045353254
13140716 1 18051404076674833979
13172582 1 17775001224338536823
13581323 91 17989211412962680072
144361 1 17844219965247839095
14614273 12 17988934391698289535
14648413 74 18046342199965569407
14787075 74 18196089933134673747
14817 1 14531376909595630183
15219456 202 18409164450121037038
15775835 57 17988649609596793368
15852999 172 17987541314576332895
15881359 60 17701556016630338551
16945 1 18338502058987160495
18981168 100 18188508971859157633
20525323 117 18410860953555000175
20645476 183 14418123002935174061
21501502 16 18338515356037162291
21524375 3 18341898476380730234
22344851 341 18129099094366840074
23388829 49 16826431411980693606
23402539 116 18339653226234240783
23419403 2 14182034985534888399
25 1 18265331883968187420
2748010 2 18270954781942435911
3286 77 18340484568709865358
5084963 1 17917138498380930998
5255222 1 17699566162635071487
528886 8 18114186298090010218
7364860 26 18191302878139628174
7832392 63 17973439098676592873
81228 2 17915447320606441610

> <PUBCHEM_SHAPE_MULTIPOLES>
338.11
4.66
2.3
1.29
1.24
0.04
-0.18
1.61
0.65
0.2
0.34
-0.21
-0.1
0.41

> <PUBCHEM_SHAPE_SELFOVERLAP>
718.887

> <PUBCHEM_SHAPE_VOLUME>
192.6

> <PUBCHEM_COORDINATE_TYPE>
2
5
10

$$$$

