443736
  -OEChem-07051213032D

 20 20  0     1  0  0  0  0  0999 V2000
    5.3272    0.8709    0.0000 O   0  0  0  0  0  0  0  0  0  0  0  0
    6.0961    1.7844    0.0000 O   0  0  0  0  0  0  0  0  0  0  0  0
    7.4973    0.7663    0.0000 O   0  0  0  0  0  0  0  0  0  0  0  0
    7.0028   -2.2860    0.0000 O   0  0  0  0  0  0  0  0  0  0  0  0
    3.6197   -1.8642    0.0000 O   0  0  0  0  0  0  0  0  0  0  0  0
    6.7240   -0.5259    0.0000 N   0  0  0  0  0  0  0  0  0  0  0  0
    5.4150   -1.4770    0.0000 N   0  0  0  0  0  0  0  0  0  0  0  0
    4.1550   -0.2169    0.0000 N   0  0  0  0  0  0  0  0  0  0  0  0
    2.4608   -0.5770    0.0000 N   0  0  0  0  0  0  0  0  0  0  0  0
    5.9150    0.0619    0.0000 C   0  0  3  0  0  0  0  0  0  0  0  0
    5.1060   -0.5259    0.0000 C   0  0  0  0  0  0  0  0  0  0  0  0
    6.5028    0.8709    0.0000 C   0  0  0  0  0  0  0  0  0  0  0  0
    6.4150   -1.4770    0.0000 C   0  0  0  0  0  0  0  0  0  0  0  0
    3.4118   -0.8860    0.0000 C   0  0  0  0  0  0  0  0  0  0  0  0
    7.3137   -0.3343    0.0000 H   0  0  0  0  0  0  0  0  0  0  0  0
    4.0260    0.3895    0.0000 H   0  0  0  0  0  0  0  0  0  0  0  0
    4.7106    0.8061    0.0000 H   0  0  0  0  0  0  0  0  0  0  0  0
    6.4605    2.2860    0.0000 H   0  0  0  0  0  0  0  0  0  0  0  0
    2.0000   -0.9919    0.0000 H   0  0  0  0  0  0  0  0  0  0  0  0
    2.3318    0.0294    0.0000 H   0  0  0  0  0  0  0  0  0  0  0  0
  1 10  1  0  0  0  0
  1 17  1  0  0  0  0
  2 12  1  0  0  0  0
  2 18  1  0  0  0  0
  3 12  2  0  0  0  0
  4 13  2  0  0  0  0
  5 14  2  0  0  0  0
  6 10  1  0  0  0  0
  6 13  1  0  0  0  0
  6 15  1  0  0  0  0
  7 11  2  0  0  0  0
  7 13  1  0  0  0  0
  8 11  1  0  0  0  0
  8 14  1  0  0  0  0
  8 16  1  0  0  0  0
  9 14  1  0  0  0  0
  9 19  1  0  0  0  0
  9 20  1  0  0  0  0
 10 11  1  0  0  0  0
 10 12  1  0  0  0  0
M  END
> <PUBCHEM_COMPOUND_CID>
443736

> <PUBCHEM_COMPOUND_CANONICALIZED>
1

> <PUBCHEM_CACTVS_COMPLEXITY>
350

> <PUBCHEM_CACTVS_HBOND_ACCEPTOR>
5

> <PUBCHEM_CACTVS_HBOND_DONOR>
5

> <PUBCHEM_CACTVS_ROTATABLE_BOND>
2

> <PUBCHEM_CACTVS_SUBSKEYS>
AAADcYBjuAAAAAAAAAAAAAAAAAAAAQAAAAAAAAAAAAAAAAAAAAAADgAQCAAACAwBgAABCALAAgAoAAKwPAYAAAEAAAABAAHgAAGDQAgAACAUQAACBAIRAAAAAAAAAAAAAAAAAAAAAAAAAAAAAAAAAAAAAA==

> <PUBCHEM_IUPAC_OPENEYE_NAME>
5-hydroxy-2-oxo-4-ureido-1H-imidazole-5-carboxylic acid

> <PUBCHEM_IUPAC_CAS_NAME>
4-(carbamoylamino)-5-hydroxy-2-oxo-1H-imidazole-5-carboxylic acid

> <PUBCHEM_IUPAC_NAME>
4-(carbamoylamino)-5-hydroxy-2-oxo-1H-imidazole-5-carboxylic acid

> <PUBCHEM_IUPAC_SYSTEMATIC_NAME>
4-(aminocarbonylamino)-5-oxidanyl-2-oxidanylidene-1H-imidazole-5-carboxylic acid

> <PUBCHEM_IUPAC_TRADITIONAL_NAME>
4-hydroxy-2-keto-5-ureido-3-imidazoline-4-carboxylic acid

> <PUBCHEM_IUPAC_INCHI>
InChI=1S/C5H6N4O5/c6-3(12)7-1-5(14,2(10)11)9-4(13)8-1/h14H,(H,10,11)(H4,6,7,8,9,12,13)

> <PUBCHEM_IUPAC_INCHIKEY>
WHKYNCPIXMNTRQ-UHFFFAOYSA-N

> <PUBCHEM_XLOGP3_AA>
-2.2

> <PUBCHEM_EXACT_MASS>
202.033819

> <PUBCHEM_MOLECULAR_FORMULA>
C5H6N4O5

> <PUBCHEM_MOLECULAR_WEIGHT>
202.12494

> <PUBCHEM_OPENEYE_CAN_SMILES>
C1(=NC(=O)NC1(C(=O)O)O)NC(=O)N

> <PUBCHEM_OPENEYE_ISO_SMILES>
C1(=NC(=O)NC1(C(=O)O)O)NC(=O)N

> <PUBCHEM_CACTVS_TPSA>
154

> <PUBCHEM_MONOISOTOPIC_WEIGHT>
202.033819

> <PUBCHEM_TOTAL_CHARGE>
0

> <PUBCHEM_HEAVY_ATOM_COUNT>
14

> <PUBCHEM_ATOM_DEF_STEREO_COUNT>
0

> <PUBCHEM_ATOM_UDEF_STEREO_COUNT>
1

> <PUBCHEM_BOND_DEF_STEREO_COUNT>
0

> <PUBCHEM_BOND_UDEF_STEREO_COUNT>
0

> <PUBCHEM_ISOTOPIC_ATOM_COUNT>
0

> <PUBCHEM_COMPONENT_COUNT>
1

> <PUBCHEM_CACTVS_TAUTO_COUNT>
12

> <PUBCHEM_COORDINATE_TYPE>
1
5
255

> <PUBCHEM_BONDANNOTATIONS>
10  12  3

$$$$

