13318
  -OEChem-06261208533D

 44 46  0     1  0  0  0  0  0999 V2000
   -2.1962   -1.7363    1.7198 S   0  0  0  0  0  0  0  0  0  0  0  0
   -4.0453    3.0426   -1.2839 F   0  0  0  0  0  0  0  0  0  0  0  0
    4.3472    2.1149    0.0175 N   0  0  0  0  0  0  0  0  0  0  0  0
   -0.2254    0.1993   -0.4374 C   0  0  1  0  0  0  0  0  0  0  0  0
    0.6942    1.1154    0.3880 C   0  0  0  0  0  0  0  0  0  0  0  0
    0.2791   -1.2332   -0.5021 C   0  0  0  0  0  0  0  0  0  0  0  0
    2.1010    1.1293   -0.1942 C   0  0  0  0  0  0  0  0  0  0  0  0
   -1.7016    0.4475   -0.1273 C   0  0  0  0  0  0  0  0  0  0  0  0
    0.2523   -2.1111    0.5933 C   0  0  0  0  0  0  0  0  0  0  0  0
    3.0225    2.0723    0.5721 C   0  0  0  0  0  0  0  0  0  0  0  0
   -2.5489   -0.2765    0.7370 C   0  0  0  0  0  0  0  0  0  0  0  0
   -0.3996   -1.7267    1.8848 C   0  0  0  0  0  0  0  0  0  0  0  0
    0.8513   -1.6871   -1.7091 C   0  0  0  0  0  0  0  0  0  0  0  0
   -2.2520    1.5778   -0.7909 C   0  0  0  0  0  0  0  0  0  0  0  0
    0.7876   -3.4067    0.4614 C   0  0  0  0  0  0  0  0  0  0  0  0
   -3.8964    0.1378    0.8754 C   0  0  0  0  0  0  0  0  0  0  0  0
    1.3794   -2.9728   -1.8273 C   0  0  0  0  0  0  0  0  0  0  0  0
   -3.5790    1.9720   -0.6331 C   0  0  0  0  0  0  0  0  0  0  0  0
    1.3494   -3.8336   -0.7393 C   0  0  0  0  0  0  0  0  0  0  0  0
   -4.4059    1.2460    0.2023 C   0  0  0  0  0  0  0  0  0  0  0  0
    5.0078    0.8027    0.1038 C   0  0  0  0  0  0  0  0  0  0  0  0
    5.1784    3.1266    0.6892 C   0  0  0  0  0  0  0  0  0  0  0  0
   -0.1244    0.5578   -1.4746 H   0  0  0  0  0  0  0  0  0  0  0  0
    0.3038    2.1417    0.3716 H   0  0  0  0  0  0  0  0  0  0  0  0
    0.7356    0.8378    1.4427 H   0  0  0  0  0  0  0  0  0  0  0  0
    2.5026    0.1135   -0.1488 H   0  0  0  0  0  0  0  0  0  0  0  0
    2.0678    1.4267   -1.2500 H   0  0  0  0  0  0  0  0  0  0  0  0
    3.0436    1.7848    1.6321 H   0  0  0  0  0  0  0  0  0  0  0  0
    2.5782    3.0757    0.5325 H   0  0  0  0  0  0  0  0  0  0  0  0
   -0.1489   -2.4617    2.6591 H   0  0  0  0  0  0  0  0  0  0  0  0
   -0.0488   -0.7765    2.2838 H   0  0  0  0  0  0  0  0  0  0  0  0
    0.8991   -1.0319   -2.5765 H   0  0  0  0  0  0  0  0  0  0  0  0
   -1.6281    2.1756   -1.4546 H   0  0  0  0  0  0  0  0  0  0  0  0
    0.7601   -4.0993    1.2998 H   0  0  0  0  0  0  0  0  0  0  0  0
   -4.5812   -0.4060    1.5263 H   0  0  0  0  0  0  0  0  0  0  0  0
    1.8154   -3.2967   -2.7676 H   0  0  0  0  0  0  0  0  0  0  0  0
    1.7573   -4.8362   -0.8241 H   0  0  0  0  0  0  0  0  0  0  0  0
   -5.4432    1.5367    0.3359 H   0  0  0  0  0  0  0  0  0  0  0  0
    4.5531    0.0742   -0.5742 H   0  0  0  0  0  0  0  0  0  0  0  0
    4.9997    0.4005    1.1232 H   0  0  0  0  0  0  0  0  0  0  0  0
    6.0530    0.8807   -0.2190 H   0  0  0  0  0  0  0  0  0  0  0  0
    6.1641    3.1916    0.2153 H   0  0  0  0  0  0  0  0  0  0  0  0
    5.3166    2.9034    1.7533 H   0  0  0  0  0  0  0  0  0  0  0  0
    4.7216    4.1185    0.5992 H   0  0  0  0  0  0  0  0  0  0  0  0
  1 11  1  0  0  0  0
  1 12  1  0  0  0  0
  2 18  1  0  0  0  0
  3 10  1  0  0  0  0
  3 21  1  0  0  0  0
  3 22  1  0  0  0  0
  4  5  1  0  0  0  0
  4  6  1  0  0  0  0
  4  8  1  0  0  0  0
  4 23  1  0  0  0  0
  5  7  1  0  0  0  0
  5 24  1  0  0  0  0
  5 25  1  0  0  0  0
  6  9  1  0  0  0  0
  6 13  2  0  0  0  0
  7 10  1  0  0  0  0
  7 26  1  0  0  0  0
  7 27  1  0  0  0  0
  8 11  2  0  0  0  0
  8 14  1  0  0  0  0
  9 12  1  0  0  0  0
  9 15  2  0  0  0  0
 10 28  1  0  0  0  0
 10 29  1  0  0  0  0
 11 16  1  0  0  0  0
 12 30  1  0  0  0  0
 12 31  1  0  0  0  0
 13 17  1  0  0  0  0
 13 32  1  0  0  0  0
 14 18  2  0  0  0  0
 14 33  1  0  0  0  0
 15 19  1  0  0  0  0
 15 34  1  0  0  0  0
 16 20  2  0  0  0  0
 16 35  1  0  0  0  0
 17 19  2  0  0  0  0
 17 36  1  0  0  0  0
 18 20  1  0  0  0  0
 19 37  1  0  0  0  0
 20 38  1  0  0  0  0
 21 39  1  0  0  0  0
 21 40  1  0  0  0  0
 21 41  1  0  0  0  0
 22 42  1  0  0  0  0
 22 43  1  0  0  0  0
 22 44  1  0  0  0  0
M  END
> <PUBCHEM_COMPOUND_CID>
13318

> <PUBCHEM_CONFORMER_RMSD>
0.8

> <PUBCHEM_CONFORMER_DIVERSEORDER>
4
1
11
15
13
16
10
17
2
12
18
3
9
7
5
14
8
6

> <PUBCHEM_MMFF94_PARTIAL_CHARGES>
27
1 -0.33
10 0.27
11 0.1
12 0.37
13 -0.15
14 -0.15
15 -0.15
16 -0.15
17 -0.15
18 0.19
19 -0.15
2 -0.19
20 -0.15
21 0.27
22 0.27
3 -0.81
32 0.15
33 0.15
34 0.15
35 0.15
36 0.15
37 0.15
38 0.15
4 0.29
6 -0.14
8 -0.14
9 -0.14

> <PUBCHEM_EFFECTIVE_ROTOR_COUNT>
4.6

> <PUBCHEM_PHARMACOPHORE_FEATURES>
4
1 3 cation
6 6 9 13 15 17 19 rings
6 8 11 14 16 18 20 rings
7 1 4 6 8 9 11 12 rings

> <PUBCHEM_HEAVY_ATOM_COUNT>
22

> <PUBCHEM_ATOM_DEF_STEREO_COUNT>
0

> <PUBCHEM_ATOM_UDEF_STEREO_COUNT>
1

> <PUBCHEM_BOND_DEF_STEREO_COUNT>
0

> <PUBCHEM_BOND_UDEF_STEREO_COUNT>
0

> <PUBCHEM_ISOTOPIC_ATOM_COUNT>
0

> <PUBCHEM_COMPONENT_COUNT>
1

> <PUBCHEM_CACTVS_TAUTO_COUNT>
1

> <PUBCHEM_CONFORMER_ID>
0000340600000004

> <PUBCHEM_MMFF94_ENERGY>
69.046

> <PUBCHEM_FEATURE_SELFOVERLAP>
20.309

> <PUBCHEM_SHAPE_FINGERPRINT>
10764073 3 17558006192707032346
107951 10 18131346376544862490
12592029 89 18334293193095839258
12707595 3 17905603659839418687
12788726 201 17759827861287129874
13004483 165 17109322598523434906
13540713 4 18129373973202205033
13681431 1 17754737452798687094
15042514 8 17836360450000784322
15230672 131 18341888577515127142
15664445 248 17539401450652701455
16945 1 16624870546979876699
17980427 26 17841172231259677159
1813 80 16664570599974846966
18915476 22 18188479280956007275
20600515 1 16905824419592692846
21033648 29 18188781530801091768
21120745 212 17113807493457513940
21524375 3 18335702672149143173
21731228 192 18338232652900161104
22182313 1 17987785432697642449
23419403 2 17975091540109800398
23559900 14 17979918533547367131
23598288 3 17838892638718049972
23728640 28 18120942702943764458
2748010 2 17984388955137886891
3298306 158 18409725179998320734
3411729 13 18339928241495859113
5265222 85 18196637516360138572
532947 4 18335134349846080918
6138700 20 18264202694712664134
633830 44 17459446962256395200
7364860 26 18265331896657832455
81228 2 17325508608761573930
9862522 239 18265329508666630466
9981440 41 18410860940696667473

> <PUBCHEM_SHAPE_MULTIPOLES>
444.34
8.21
4.56
1.5
5.37
2.52
0
-10.96
-1.07
2.49
0.94
-0.49
0.91
2.54

> <PUBCHEM_SHAPE_SELFOVERLAP>
928.827

> <PUBCHEM_SHAPE_VOLUME>
254.7

> <PUBCHEM_COORDINATE_TYPE>
2
5
10

$$$$

