439874
  -OEChem-07051212473D

 50 51  0     1  0  0  0  0  0999 V2000
   -4.3826    2.1571    0.1633 P   0  0  0  0  0  0  0  0  0  0  0  0
    0.9094   -0.5670    0.0880 O   0  0  0  0  0  0  0  0  0  0  0  0
   -1.2941   -0.6513    0.9589 O   0  0  0  0  0  0  0  0  0  0  0  0
    2.8358    1.2255   -1.3142 O   0  0  0  0  0  0  0  0  0  0  0  0
    1.2971   -3.2529    0.8029 O   0  0  0  0  0  0  0  0  0  0  0  0
    3.2163    1.1941    2.2680 O   0  0  0  0  0  0  0  0  0  0  0  0
   -0.9871   -4.5249   -0.4381 O   0  0  0  0  0  0  0  0  0  0  0  0
   -2.6501   -2.6421   -1.8315 O   0  0  0  0  0  0  0  0  0  0  0  0
    3.6608   -1.3546   -0.2825 O   0  0  0  0  0  0  0  0  0  0  0  0
    5.0890    0.6355   -1.5622 O   0  0  0  0  0  0  0  0  0  0  0  0
   -3.0977    1.1791    0.0373 O   0  0  0  0  0  0  0  0  0  0  0  0
    2.1461    3.8920   -1.0991 O   0  0  0  0  0  0  0  0  0  0  0  0
   -5.2991    1.4429    1.2881 O   0  0  0  0  0  0  0  0  0  0  0  0
   -5.1898    1.8737   -1.2089 O   0  0  0  0  0  0  0  0  0  0  0  0
   -4.0577    3.5994    0.4212 O   0  0  0  0  0  0  0  0  0  0  0  0
    1.5032    0.6041    0.6568 C   0  0  1  0  0  0  0  0  0  0  0  0
    0.0243   -1.2005    1.0099 C   0  0  1  0  0  0  0  0  0  0  0  0
   -0.0218   -2.7189    0.8312 C   0  0  1  0  0  0  0  0  0  0  0  0
    2.7870    0.1701    1.3763 C   0  0  1  0  0  0  0  0  0  0  0  0
   -0.7554   -3.1143   -0.4488 C   0  0  2  0  0  0  0  0  0  0  0  0
    1.7453    1.6209   -0.4722 C   0  0  1  0  0  0  0  0  0  0  0  0
   -2.1091   -2.4064   -0.5337 C   0  0  1  0  0  0  0  0  0  0  0  0
   -1.9639   -0.8994   -0.2824 C   0  0  1  0  0  0  0  0  0  0  0  0
    3.9212   -0.1226    0.3915 C   0  0  2  0  0  0  0  0  0  0  0  0
    4.0696    1.0026   -0.6346 C   0  0  2  0  0  0  0  0  0  0  0  0
    1.9206    3.0559    0.0208 C   0  0  0  0  0  0  0  0  0  0  0  0
   -3.3174   -0.1981   -0.2061 C   0  0  0  0  0  0  0  0  0  0  0  0
    0.8036    1.0659    1.3672 H   0  0  0  0  0  0  0  0  0  0  0  0
    0.3871   -1.0314    2.0316 H   0  0  0  0  0  0  0  0  0  0  0  0
   -0.5384   -3.1735    1.6856 H   0  0  0  0  0  0  0  0  0  0  0  0
    2.5997   -0.7273    1.9765 H   0  0  0  0  0  0  0  0  0  0  0  0
   -0.1392   -2.9032   -1.3315 H   0  0  0  0  0  0  0  0  0  0  0  0
    0.8722    1.6076   -1.1375 H   0  0  0  0  0  0  0  0  0  0  0  0
   -2.7993   -2.8436    0.1993 H   0  0  0  0  0  0  0  0  0  0  0  0
   -1.3881   -0.4279   -1.0900 H   0  0  0  0  0  0  0  0  0  0  0  0
    4.8705   -0.2507    0.9254 H   0  0  0  0  0  0  0  0  0  0  0  0
    4.3993    1.9242   -0.1434 H   0  0  0  0  0  0  0  0  0  0  0  0
    2.7775    3.1725    0.6873 H   0  0  0  0  0  0  0  0  0  0  0  0
    1.0293    3.4058    0.5514 H   0  0  0  0  0  0  0  0  0  0  0  0
   -3.9076   -0.6092    0.6197 H   0  0  0  0  0  0  0  0  0  0  0  0
   -3.8715   -0.3250   -1.1410 H   0  0  0  0  0  0  0  0  0  0  0  0
    1.7800   -2.8119    0.0830 H   0  0  0  0  0  0  0  0  0  0  0  0
    4.0059    0.8693    2.7333 H   0  0  0  0  0  0  0  0  0  0  0  0
   -1.3318   -4.7739   -1.3121 H   0  0  0  0  0  0  0  0  0  0  0  0
   -2.8673   -3.5873   -1.8947 H   0  0  0  0  0  0  0  0  0  0  0  0
    4.3814   -1.4951   -0.9202 H   0  0  0  0  0  0  0  0  0  0  0  0
    5.4440    1.4594   -1.9372 H   0  0  0  0  0  0  0  0  0  0  0  0
    1.3650    3.8324   -1.6752 H   0  0  0  0  0  0  0  0  0  0  0  0
   -6.1152    1.8943    1.5919 H   0  0  0  0  0  0  0  0  0  0  0  0
   -5.9763    2.4209   -1.4186 H   0  0  0  0  0  0  0  0  0  0  0  0
  1 11  1  0  0  0  0
  1 13  1  0  0  0  0
  1 14  1  0  0  0  0
  1 15  2  0  0  0  0
  2 16  1  0  0  0  0
  2 17  1  0  0  0  0
  3 17  1  0  0  0  0
  3 23  1  0  0  0  0
  4 21  1  0  0  0  0
  4 25  1  0  0  0  0
  5 18  1  0  0  0  0
  5 42  1  0  0  0  0
  6 19  1  0  0  0  0
  6 43  1  0  0  0  0
  7 20  1  0  0  0  0
  7 44  1  0  0  0  0
  8 22  1  0  0  0  0
  8 45  1  0  0  0  0
  9 24  1  0  0  0  0
  9 46  1  0  0  0  0
 10 25  1  0  0  0  0
 10 47  1  0  0  0  0
 11 27  1  0  0  0  0
 12 26  1  0  0  0  0
 12 48  1  0  0  0  0
 13 49  1  0  0  0  0
 14 50  1  0  0  0  0
 16 19  1  0  0  0  0
 16 21  1  0  0  0  0
 16 28  1  0  0  0  0
 17 18  1  0  0  0  0
 17 29  1  0  0  0  0
 18 20  1  0  0  0  0
 18 30  1  0  0  0  0
 19 24  1  0  0  0  0
 19 31  1  0  0  0  0
 20 22  1  0  0  0  0
 20 32  1  0  0  0  0
 21 26  1  0  0  0  0
 21 33  1  0  0  0  0
 22 23  1  0  0  0  0
 22 34  1  0  0  0  0
 23 27  1  0  0  0  0
 23 35  1  0  0  0  0
 24 25  1  0  0  0  0
 24 36  1  0  0  0  0
 25 37  1  0  0  0  0
 26 38  1  0  0  0  0
 26 39  1  0  0  0  0
 27 40  1  0  0  0  0
 27 41  1  0  0  0  0
M  END
> <PUBCHEM_COMPOUND_CID>
439874

> <PUBCHEM_CONFORMER_RMSD>
1

> <PUBCHEM_CONFORMER_DIVERSEORDER>
1
86
72
22
48
65
49
81
8
58
45
73
62
15
7
66
78
80
76
69
21
24
71
13
88
54
43
77
34
55
40
12
67
32
83
31
50
2
4
16
33
70
90
23
68
39
11
37
36
26
84
25
18
10
60
79
87
19
47
6
9
28
30
3
64
63
59
27
52
53
14
57
56
51
5
41
29
38
75
74
61
17
44
85
20
42
46
89
35
82

> <PUBCHEM_MMFF94_PARTIAL_CHARGES>
36
1 1.51
10 -0.68
11 -0.55
12 -0.68
13 -0.77
14 -0.77
15 -0.7
16 0.28
17 0.56
18 0.28
19 0.28
2 -0.56
20 0.28
21 0.28
22 0.28
23 0.28
24 0.28
25 0.56
26 0.28
27 0.28
3 -0.56
4 -0.56
42 0.4
43 0.4
44 0.4
45 0.4
46 0.4
47 0.4
48 0.4
49 0.5
5 -0.68
50 0.5
6 -0.68
7 -0.68
8 -0.68
9 -0.68

> <PUBCHEM_EFFECTIVE_ROTOR_COUNT>
8.4

> <PUBCHEM_PHARMACOPHORE_FEATURES>
23
1 10 acceptor
1 10 donor
1 12 acceptor
1 12 donor
1 13 acceptor
1 14 acceptor
1 15 acceptor
1 2 acceptor
1 3 acceptor
1 4 acceptor
1 5 acceptor
1 5 donor
1 6 acceptor
1 6 donor
1 7 acceptor
1 7 donor
1 8 acceptor
1 8 donor
1 9 acceptor
1 9 donor
4 1 13 14 15 anion
6 3 17 18 20 22 23 rings
6 4 16 19 21 24 25 rings

> <PUBCHEM_HEAVY_ATOM_COUNT>
27

> <PUBCHEM_ATOM_DEF_STEREO_COUNT>
10

> <PUBCHEM_ATOM_UDEF_STEREO_COUNT>
0

> <PUBCHEM_BOND_DEF_STEREO_COUNT>
0

> <PUBCHEM_BOND_UDEF_STEREO_COUNT>
0

> <PUBCHEM_ISOTOPIC_ATOM_COUNT>
0

> <PUBCHEM_COMPONENT_COUNT>
1

> <PUBCHEM_CACTVS_TAUTO_COUNT>
1

> <PUBCHEM_CONFORMER_ID>
0006B64200000001

> <PUBCHEM_MMFF94_ENERGY>
40.7467

> <PUBCHEM_FEATURE_SELFOVERLAP>
116.863

> <PUBCHEM_SHAPE_FINGERPRINT>
11578080 2 17750236898678046936
11582403 64 15869477243271384555
12173636 292 18195811765035251071
12422481 6 17766307613768466810
12788726 201 17907023876516892171
14178342 30 18193859058449556610
14790565 3 18340759450949193628
1601671 61 18272087248949453336
16752209 62 18338242535419800146
17093844 170 18336547235172460308
18785283 64 18124872619415735355
20600515 1 18263101958729227752
20739085 24 18052536865767118225
21524375 3 18272655649379630851
21864079 5 18199469870143260009
23557571 272 17824270293319285832
23558518 356 18126010364557251674
23559900 14 18046912567981833610
350125 39 18411131403799230419
474 4 18272091655817592019
5895379 119 18266750073780021120
7164475 11 18119258267993499639
7832392 63 18411145744246586866

> <PUBCHEM_SHAPE_MULTIPOLES>
477.33
9.3
4.9
1.39
4.03
1.45
0.12
-8.04
-1.13
3.1
-0.83
-0.63
-0.11
-1.39

> <PUBCHEM_SHAPE_SELFOVERLAP>
961.162

> <PUBCHEM_SHAPE_VOLUME>
280.2

> <PUBCHEM_COORDINATE_TYPE>
2
5
10

$$$$

