19274
  -OEChem-07051213053D

 51 54  0     1  0  0  0  0  0999 V2000
   -5.1513    1.4336   -1.0494 O   0  0  0  0  0  0  0  0  0  0  0  0
    5.8635    0.4595   -0.3006 O   0  0  0  0  0  0  0  0  0  0  0  0
   -2.1266    0.4384   -0.1689 C   0  0  2  0  0  0  0  0  0  0  0  0
   -2.7483   -0.9446    0.0869 C   0  0  2  0  0  0  0  0  0  0  0  0
   -0.6896    0.5505    0.3501 C   0  0  1  0  0  0  0  0  0  0  0  0
    0.1943   -0.5389   -0.3252 C   0  0  1  0  0  0  0  0  0  0  0  0
    1.6824   -0.4883    0.2071 C   0  0  2  0  0  0  0  0  0  0  0  0
   -1.9292   -1.9775   -0.6949 C   0  0  0  0  0  0  0  0  0  0  0  0
   -0.4498   -1.9522   -0.2740 C   0  0  0  0  0  0  0  0  0  0  0  0
   -3.1772    1.4124    0.3587 C   0  0  0  0  0  0  0  0  0  0  0  0
   -4.1671   -0.7055   -0.4505 C   0  0  0  0  0  0  0  0  0  0  0  0
   -4.5107    0.7285    0.0038 C   0  0  2  0  0  0  0  0  0  0  0  0
   -0.1169    1.9471    0.0672 C   0  0  0  0  0  0  0  0  0  0  0  0
    2.1884    0.9594    0.2761 C   0  0  0  0  0  0  0  0  0  0  0  0
    2.5803   -1.2965   -0.7769 C   0  0  0  0  0  0  0  0  0  0  0  0
   -2.8389   -1.3513    1.5767 C   0  0  0  0  0  0  0  0  0  0  0  0
    1.3706    2.0234    0.1974 C   0  0  0  0  0  0  0  0  0  0  0  0
    1.7951   -1.1012    1.6239 C   0  0  0  0  0  0  0  0  0  0  0  0
    3.6775    1.1637    0.4335 C   0  0  0  0  0  0  0  0  0  0  0  0
    4.0809   -1.1167   -0.5525 C   0  0  0  0  0  0  0  0  0  0  0  0
    4.4727    0.3561   -0.5886 C   0  0  2  0  0  0  0  0  0  0  0  0
   -2.0839    0.5988   -1.2596 H   0  0  0  0  0  0  0  0  0  0  0  0
   -0.6863    0.4018    1.4362 H   0  0  0  0  0  0  0  0  0  0  0  0
    0.2286   -0.2750   -1.3950 H   0  0  0  0  0  0  0  0  0  0  0  0
   -1.9903   -1.7731   -1.7717 H   0  0  0  0  0  0  0  0  0  0  0  0
   -2.3372   -2.9847   -0.5482 H   0  0  0  0  0  0  0  0  0  0  0  0
   -0.3733   -2.3733    0.7324 H   0  0  0  0  0  0  0  0  0  0  0  0
    0.1006   -2.6331   -0.9330 H   0  0  0  0  0  0  0  0  0  0  0  0
   -3.0842    1.5252    1.4448 H   0  0  0  0  0  0  0  0  0  0  0  0
   -3.0781    2.4037   -0.0953 H   0  0  0  0  0  0  0  0  0  0  0  0
   -4.8924   -1.4292   -0.0626 H   0  0  0  0  0  0  0  0  0  0  0  0
   -4.1967   -0.7795   -1.5451 H   0  0  0  0  0  0  0  0  0  0  0  0
   -5.1797    0.7288    0.8710 H   0  0  0  0  0  0  0  0  0  0  0  0
   -0.5679    2.6659    0.7619 H   0  0  0  0  0  0  0  0  0  0  0  0
   -0.3827    2.2760   -0.9452 H   0  0  0  0  0  0  0  0  0  0  0  0
    2.3568   -0.9950   -1.8094 H   0  0  0  0  0  0  0  0  0  0  0  0
    2.3505   -2.3667   -0.7120 H   0  0  0  0  0  0  0  0  0  0  0  0
   -1.8615   -1.3974    2.0641 H   0  0  0  0  0  0  0  0  0  0  0  0
   -3.4542   -0.6617    2.1632 H   0  0  0  0  0  0  0  0  0  0  0  0
   -3.2959   -2.3435    1.6710 H   0  0  0  0  0  0  0  0  0  0  0  0
    1.7904    3.0259    0.2316 H   0  0  0  0  0  0  0  0  0  0  0  0
    2.7972   -0.9840    2.0499 H   0  0  0  0  0  0  0  0  0  0  0  0
    1.0977   -0.6330    2.3261 H   0  0  0  0  0  0  0  0  0  0  0  0
    1.5936   -2.1771    1.6165 H   0  0  0  0  0  0  0  0  0  0  0  0
    3.9541    2.2217    0.3378 H   0  0  0  0  0  0  0  0  0  0  0  0
    3.9830    0.8845    1.4497 H   0  0  0  0  0  0  0  0  0  0  0  0
    4.3863   -1.5674    0.3999 H   0  0  0  0  0  0  0  0  0  0  0  0
    4.6364   -1.6650   -1.3237 H   0  0  0  0  0  0  0  0  0  0  0  0
    4.3075    0.7653   -1.5928 H   0  0  0  0  0  0  0  0  0  0  0  0
   -5.9634    0.9475   -1.2727 H   0  0  0  0  0  0  0  0  0  0  0  0
    6.3425   -0.0481   -0.9777 H   0  0  0  0  0  0  0  0  0  0  0  0
  1 12  1  0  0  0  0
  1 50  1  0  0  0  0
  2 21  1  0  0  0  0
  2 51  1  0  0  0  0
  3  4  1  0  0  0  0
  3  5  1  0  0  0  0
  3 10  1  0  0  0  0
  3 22  1  0  0  0  0
  4  8  1  0  0  0  0
  4 11  1  0  0  0  0
  4 16  1  0  0  0  0
  5  6  1  0  0  0  0
  5 13  1  0  0  0  0
  5 23  1  0  0  0  0
  6  7  1  0  0  0  0
  6  9  1  0  0  0  0
  6 24  1  0  0  0  0
  7 14  1  0  0  0  0
  7 15  1  0  0  0  0
  7 18  1  0  0  0  0
  8  9  1  0  0  0  0
  8 25  1  0  0  0  0
  8 26  1  0  0  0  0
  9 27  1  0  0  0  0
  9 28  1  0  0  0  0
 10 12  1  0  0  0  0
 10 29  1  0  0  0  0
 10 30  1  0  0  0  0
 11 12  1  0  0  0  0
 11 31  1  0  0  0  0
 11 32  1  0  0  0  0
 12 33  1  0  0  0  0
 13 17  1  0  0  0  0
 13 34  1  0  0  0  0
 13 35  1  0  0  0  0
 14 17  2  0  0  0  0
 14 19  1  0  0  0  0
 15 20  1  0  0  0  0
 15 36  1  0  0  0  0
 15 37  1  0  0  0  0
 16 38  1  0  0  0  0
 16 39  1  0  0  0  0
 16 40  1  0  0  0  0
 17 41  1  0  0  0  0
 18 42  1  0  0  0  0
 18 43  1  0  0  0  0
 18 44  1  0  0  0  0
 19 21  1  0  0  0  0
 19 45  1  0  0  0  0
 19 46  1  0  0  0  0
 20 21  1  0  0  0  0
 20 47  1  0  0  0  0
 20 48  1  0  0  0  0
 21 49  1  0  0  0  0
M  END
> <PUBCHEM_COMPOUND_CID>
19274

> <PUBCHEM_CONFORMER_RMSD>
0.6

> <PUBCHEM_CONFORMER_DIVERSEORDER>
1

> <PUBCHEM_MMFF94_PARTIAL_CHARGES>
12
1 -0.68
12 0.28
13 0.14
14 -0.28
17 -0.29
19 0.14
2 -0.68
21 0.28
41 0.15
50 0.4
51 0.4
7 0.14

> <PUBCHEM_EFFECTIVE_ROTOR_COUNT>
2

> <PUBCHEM_PHARMACOPHORE_FEATURES>
8
1 1 acceptor
1 1 donor
1 2 acceptor
1 2 donor
5 3 4 10 11 12 rings
6 3 4 5 6 8 9 rings
6 5 6 7 13 14 17 rings
6 7 14 15 19 20 21 rings

> <PUBCHEM_HEAVY_ATOM_COUNT>
21

> <PUBCHEM_ATOM_DEF_STEREO_COUNT>
7

> <PUBCHEM_ATOM_UDEF_STEREO_COUNT>
0

> <PUBCHEM_BOND_DEF_STEREO_COUNT>
0

> <PUBCHEM_BOND_UDEF_STEREO_COUNT>
0

> <PUBCHEM_ISOTOPIC_ATOM_COUNT>
0

> <PUBCHEM_COMPONENT_COUNT>
1

> <PUBCHEM_CACTVS_TAUTO_COUNT>
1

> <PUBCHEM_CONFORMER_ID>
00004B4A00000001

> <PUBCHEM_MMFF94_ENERGY>
66.4515

> <PUBCHEM_FEATURE_SELFOVERLAP>
40.691

> <PUBCHEM_SHAPE_FINGERPRINT>
10366900 7 17775010042207166947
10498660 4 18410014355418824229
10759866 29 17916590980355689472
10967382 1 18335983159278107534
11132069 177 18334582295918422504
11471102 20 18334295379212873004
12011746 2 18408606980598776109
12236239 1 17989208144629763334
12403259 415 18261117353057122873
12788726 201 18263085581512655721
12969540 114 18340503243427739199
13221675 6 18411699868042058922
13224815 77 18131350795491001858
13583140 156 17704068500132920409
13675066 3 18339077082009203016
13760787 19 17846782905387794290
14790565 3 18191576656640952873
15099037 51 18408324401931287477
15196674 1 18408322176753125630
15309172 13 18187074040629197019
15375358 24 18334295374601433582
15536298 74 18187647977145624952
1601671 61 18411982476943130132
16752209 62 18261397814041795513
16945 1 18120368757267234833
17349148 13 17385442116071907311
18186145 218 18341902908908351061
19784866 9 17846785130555380626
19862831 5 18408884040079833960
200 152 17385443228384053709
20645477 70 18114460158111025342
21029758 11 18186521016102558345
21033648 29 18261119551811372969
21267235 1 18335974281575678847
21279426 13 18193274315441548829
21285901 2 18189332540422923316
21421861 104 17702114762206266858
21521239 73 17968958456440314743
21637258 2 15357968028214702308
221490 88 18267016146481340090
23175994 123 16588296173091584152
23402539 116 18408045096150509630
23402655 69 18334012804655962836
23493267 7 18202001014671874131
23559900 14 18040723519807890464
2748010 2 18409449167824397405
2871803 45 18411417354084150300
296302 2 16200434658484401762
3004659 81 18341890844815052934
335352 9 18408322198518333684
34934 24 18412830196139239994
350125 39 18336821975709061563
3545911 37 18408602552566432993
4028521 119 18412266155464579173
4214541 1 18335420153674805685
4340502 62 16845565452481871409
474 4 17702940328040685084
4921388 177 16558458695867986923
495365 180 17168158814397765738
5104073 3 18409449176240298586
542803 24 15554445206235590020
633830 44 17988364754728597612
69090 78 18187366519137839015
7364860 26 18115590318730965840
7832392 63 18335144137648929550
9709674 26 18338237033977890547

> <PUBCHEM_SHAPE_MULTIPOLES>
420.43
9.69
2.1
1.03
2.16
0.09
0.32
1.67
-1.85
-0.49
-0.05
-0.19
-0.31
0.48

> <PUBCHEM_SHAPE_SELFOVERLAP>
896.695

> <PUBCHEM_SHAPE_VOLUME>
233.2

> <PUBCHEM_COORDINATE_TYPE>
2
5
10

$$$$

