3324
  -OEChem-06251223202D

 42 43  0     0  0  0  0  0  0999 V2000
    7.3239    1.9560    0.0000 O   0  0  0  0  0  0  0  0  0  0  0  0
    8.9702    1.4179    0.0000 O   0  0  0  0  0  0  0  0  0  0  0  0
    5.6775    2.4941    0.0000 O   0  0  0  0  0  0  0  0  0  0  0  0
   10.6166    0.8798    0.0000 O   0  0  0  0  0  0  0  0  0  0  0  0
    6.0812   -1.8461    0.0000 N   0  0  0  0  0  0  0  0  0  0  0  0
    6.0812   -3.4556    0.0000 N   0  0  0  0  0  0  0  0  0  0  0  0
    4.2690   -1.6508    0.0000 N   0  0  0  0  0  0  0  0  0  0  0  0
    3.4030   -3.1508    0.0000 N   0  0  0  0  0  0  0  0  0  0  0  0
    2.5369   -1.6508    0.0000 N   0  0  0  0  0  0  0  0  0  0  0  0
    7.6811    0.2612    0.0000 C   0  0  0  0  0  0  0  0  0  0  0  0
    7.3704   -0.6893    0.0000 C   0  0  0  0  0  0  0  0  0  0  0  0
    6.3919   -0.8956    0.0000 C   0  0  0  0  0  0  0  0  0  0  0  0
    8.6596    0.4674    0.0000 C   0  0  0  0  0  0  0  0  0  0  0  0
    7.0132    1.0055    0.0000 C   0  0  0  0  0  0  0  0  0  0  0  0
    5.1350   -2.1508    0.0000 C   0  0  0  0  0  0  0  0  0  0  0  0
    6.6648   -2.6508    0.0000 C   0  0  0  0  0  0  0  0  0  0  0  0
    5.1350   -3.1508    0.0000 C   0  0  0  0  0  0  0  0  0  0  0  0
    4.2690   -3.6508    0.0000 C   0  0  0  0  0  0  0  0  0  0  0  0
    6.6560    2.7003    0.0000 C   0  0  0  0  0  0  0  0  0  0  0  0
    9.9487    1.6241    0.0000 C   0  0  0  0  0  0  0  0  0  0  0  0
    3.4030   -2.1508    0.0000 C   0  0  0  0  0  0  0  0  0  0  0  0
    6.9667    3.6508    0.0000 C   0  0  0  0  0  0  0  0  0  0  0  0
   10.2594    2.5746    0.0000 C   0  0  0  0  0  0  0  0  0  0  0  0
    7.0744    0.1333    0.0000 H   0  0  0  0  0  0  0  0  0  0  0  0
    7.3910   -1.3090    0.0000 H   0  0  0  0  0  0  0  0  0  0  0  0
    7.9842   -0.7767    0.0000 H   0  0  0  0  0  0  0  0  0  0  0  0
    6.3713   -0.2759    0.0000 H   0  0  0  0  0  0  0  0  0  0  0  0
    5.7781   -0.8082    0.0000 H   0  0  0  0  0  0  0  0  0  0  0  0
    6.4663    1.2975    0.0000 H   0  0  0  0  0  0  0  0  0  0  0  0
    6.6307    0.5176    0.0000 H   0  0  0  0  0  0  0  0  0  0  0  0
    8.6801   -0.1523    0.0000 H   0  0  0  0  0  0  0  0  0  0  0  0
    9.2734    0.3800    0.0000 H   0  0  0  0  0  0  0  0  0  0  0  0
    7.2848   -2.6508    0.0000 H   0  0  0  0  0  0  0  0  0  0  0  0
    4.2690   -4.2708    0.0000 H   0  0  0  0  0  0  0  0  0  0  0  0
    7.5560    3.4582    0.0000 H   0  0  0  0  0  0  0  0  0  0  0  0
    7.1593    4.2401    0.0000 H   0  0  0  0  0  0  0  0  0  0  0  0
    6.3774    3.8434    0.0000 H   0  0  0  0  0  0  0  0  0  0  0  0
   10.8487    2.3820    0.0000 H   0  0  0  0  0  0  0  0  0  0  0  0
   10.4520    3.1640    0.0000 H   0  0  0  0  0  0  0  0  0  0  0  0
    9.6701    2.7673    0.0000 H   0  0  0  0  0  0  0  0  0  0  0  0
    2.0000   -1.9608    0.0000 H   0  0  0  0  0  0  0  0  0  0  0  0
    2.5369   -1.0308    0.0000 H   0  0  0  0  0  0  0  0  0  0  0  0
  1 14  1  0  0  0  0
  1 19  1  0  0  0  0
  2 13  1  0  0  0  0
  2 20  1  0  0  0  0
  3 19  2  0  0  0  0
  4 20  2  0  0  0  0
  5 12  1  0  0  0  0
  5 15  1  0  0  0  0
  5 16  1  0  0  0  0
  6 16  2  0  0  0  0
  6 17  1  0  0  0  0
  7 15  2  0  0  0  0
  7 21  1  0  0  0  0
  8 18  1  0  0  0  0
  8 21  2  0  0  0  0
  9 21  1  0  0  0  0
  9 41  1  0  0  0  0
  9 42  1  0  0  0  0
 10 11  1  0  0  0  0
 10 13  1  0  0  0  0
 10 14  1  0  0  0  0
 10 24  1  0  0  0  0
 11 12  1  0  0  0  0
 11 25  1  0  0  0  0
 11 26  1  0  0  0  0
 12 27  1  0  0  0  0
 12 28  1  0  0  0  0
 13 31  1  0  0  0  0
 13 32  1  0  0  0  0
 14 29  1  0  0  0  0
 14 30  1  0  0  0  0
 15 17  1  0  0  0  0
 16 33  1  0  0  0  0
 17 18  2  0  0  0  0
 18 34  1  0  0  0  0
 19 22  1  0  0  0  0
 20 23  1  0  0  0  0
 22 35  1  0  0  0  0
 22 36  1  0  0  0  0
 22 37  1  0  0  0  0
 23 38  1  0  0  0  0
 23 39  1  0  0  0  0
 23 40  1  0  0  0  0
M  END
> <PUBCHEM_COMPOUND_CID>
3324

> <PUBCHEM_COMPOUND_CANONICALIZED>
1

> <PUBCHEM_CACTVS_COMPLEXITY>
404

> <PUBCHEM_CACTVS_HBOND_ACCEPTOR>
8

> <PUBCHEM_CACTVS_HBOND_DONOR>
1

> <PUBCHEM_CACTVS_ROTATABLE_BOND>
9

> <PUBCHEM_CACTVS_SUBSKEYS>
AAADceBzuAAAAAAAAAAAAAAAAAAAAWAAAAAsAAAAAAAAAFgB+AAAHgAQAAAADQjhlwYv+L9MFACoARb3bACAgC0REqABUCA4dBCASIBAyEAWBAgNAALAACAgAAAIAAAAAAAAAAAAAAAAAAAAAAAAAAAAAA==

> <PUBCHEM_IUPAC_OPENEYE_NAME>
[2-(acetoxymethyl)-4-(2-aminopurin-9-yl)butyl] acetate

> <PUBCHEM_IUPAC_CAS_NAME>
acetic acid [2-(acetyloxymethyl)-4-(2-amino-9-purinyl)butyl] ester

> <PUBCHEM_IUPAC_NAME>
[2-(acetyloxymethyl)-4-(2-aminopurin-9-yl)butyl] acetate

> <PUBCHEM_IUPAC_SYSTEMATIC_NAME>
[2-(acetyloxymethyl)-4-(2-azanylpurin-9-yl)butyl] ethanoate

> <PUBCHEM_IUPAC_TRADITIONAL_NAME>
acetic acid [2-(acetoxymethyl)-4-(2-aminopurin-9-yl)butyl] ester

> <PUBCHEM_IUPAC_INCHI>
InChI=1S/C14H19N5O4/c1-9(20)22-6-11(7-23-10(2)21)3-4-19-8-17-12-5-16-14(15)18-13(12)19/h5,8,11H,3-4,6-7H2,1-2H3,(H2,15,16,18)

> <PUBCHEM_IUPAC_INCHIKEY>
GGXKWVWZWMLJEH-UHFFFAOYSA-N

> <PUBCHEM_XLOGP3>
0

> <PUBCHEM_EXACT_MASS>
321.143704

> <PUBCHEM_MOLECULAR_FORMULA>
C14H19N5O4

> <PUBCHEM_MOLECULAR_WEIGHT>
321.33176

> <PUBCHEM_OPENEYE_CAN_SMILES>
CC(=O)OCC(CCN1C=NC2=CN=C(N=C21)N)COC(=O)C

> <PUBCHEM_OPENEYE_ISO_SMILES>
CC(=O)OCC(CCN1C=NC2=CN=C(N=C21)N)COC(=O)C

> <PUBCHEM_CACTVS_TPSA>
122

> <PUBCHEM_MONOISOTOPIC_WEIGHT>
321.143704

> <PUBCHEM_TOTAL_CHARGE>
0

> <PUBCHEM_HEAVY_ATOM_COUNT>
23

> <PUBCHEM_ATOM_DEF_STEREO_COUNT>
0

> <PUBCHEM_ATOM_UDEF_STEREO_COUNT>
0

> <PUBCHEM_BOND_DEF_STEREO_COUNT>
0

> <PUBCHEM_BOND_UDEF_STEREO_COUNT>
0

> <PUBCHEM_ISOTOPIC_ATOM_COUNT>
0

> <PUBCHEM_COMPONENT_COUNT>
1

> <PUBCHEM_CACTVS_TAUTO_COUNT>
3

> <PUBCHEM_COORDINATE_TYPE>
1
5
255

> <PUBCHEM_BONDANNOTATIONS>
15  17  8
17  18  8
5  15  8
5  16  8
6  16  8
6  17  8
7  15  8
7  21  8
8  18  8
8  21  8

$$$$

