2818
  -OEChem-07051212523D

 42 45  0     0  0  0  0  0  0999 V2000
    5.1860   -3.0980   -0.1688 Cl  0  0  0  0  0  0  0  0  0  0  0  0
   -1.6132   -0.9339    0.2115 N   0  0  0  0  0  0  0  0  0  0  0  0
   -4.2856   -1.8921   -0.0397 N   0  0  0  0  0  0  0  0  0  0  0  0
    0.6603   -0.8825    0.5575 N   0  0  0  0  0  0  0  0  0  0  0  0
    1.9247    1.8304    0.1543 N   0  0  0  0  0  0  0  0  0  0  0  0
   -2.4356   -1.1215    1.4061 C   0  0  0  0  0  0  0  0  0  0  0  0
   -1.9840   -1.7684   -0.9308 C   0  0  0  0  0  0  0  0  0  0  0  0
   -3.9173   -0.9796    1.0523 C   0  0  0  0  0  0  0  0  0  0  0  0
   -3.4754   -1.6127   -1.2340 C   0  0  0  0  0  0  0  0  0  0  0  0
   -0.4788   -0.1756    0.2208 C   0  0  0  0  0  0  0  0  0  0  0  0
   -0.5383    1.1544   -0.0602 C   0  0  0  0  0  0  0  0  0  0  0  0
   -5.7106   -1.7772   -0.3470 C   0  0  0  0  0  0  0  0  0  0  0  0
    0.6573    2.0694    0.1123 C   0  0  0  0  0  0  0  0  0  0  0  0
    2.0122   -0.6481    0.2869 C   0  0  0  0  0  0  0  0  0  0  0  0
   -1.7897    1.8024   -0.4749 C   0  0  0  0  0  0  0  0  0  0  0  0
    2.5679    0.6034    0.0269 C   0  0  0  0  0  0  0  0  0  0  0  0
    0.3221    3.5299    0.2466 C   0  0  0  0  0  0  0  0  0  0  0  0
    2.8544   -1.7840    0.2246 C   0  0  0  0  0  0  0  0  0  0  0  0
   -1.9525    3.1302   -0.4618 C   0  0  0  0  0  0  0  0  0  0  0  0
   -0.9003    3.9970   -0.0207 C   0  0  0  0  0  0  0  0  0  0  0  0
    3.9387    0.6862   -0.2975 C   0  0  0  0  0  0  0  0  0  0  0  0
    4.2065   -1.6866   -0.0982 C   0  0  0  0  0  0  0  0  0  0  0  0
    4.7512   -0.4432   -0.3663 C   0  0  0  0  0  0  0  0  0  0  0  0
   -2.1798   -0.3859    2.1788 H   0  0  0  0  0  0  0  0  0  0  0  0
   -2.2376   -2.1146    1.8285 H   0  0  0  0  0  0  0  0  0  0  0  0
   -1.7471   -2.8158   -0.7054 H   0  0  0  0  0  0  0  0  0  0  0  0
   -1.4069   -1.4913   -1.8218 H   0  0  0  0  0  0  0  0  0  0  0  0
   -4.5066   -1.2136    1.9473 H   0  0  0  0  0  0  0  0  0  0  0  0
   -4.1386    0.0607    0.7808 H   0  0  0  0  0  0  0  0  0  0  0  0
   -3.6823   -0.6070   -1.6197 H   0  0  0  0  0  0  0  0  0  0  0  0
   -3.7355   -2.3208   -2.0305 H   0  0  0  0  0  0  0  0  0  0  0  0
   -5.9927   -2.4869   -1.1326 H   0  0  0  0  0  0  0  0  0  0  0  0
   -5.9838   -0.7689   -0.6786 H   0  0  0  0  0  0  0  0  0  0  0  0
   -6.3146   -2.0264    0.5325 H   0  0  0  0  0  0  0  0  0  0  0  0
    0.4497   -1.8338    0.8471 H   0  0  0  0  0  0  0  0  0  0  0  0
   -2.6254    1.1952   -0.7975 H   0  0  0  0  0  0  0  0  0  0  0  0
    1.1177    4.2069    0.5415 H   0  0  0  0  0  0  0  0  0  0  0  0
    2.4295   -2.7685    0.4216 H   0  0  0  0  0  0  0  0  0  0  0  0
   -2.8915    3.5784   -0.7674 H   0  0  0  0  0  0  0  0  0  0  0  0
    4.3888    1.6595   -0.4888 H   0  0  0  0  0  0  0  0  0  0  0  0
   -1.1173    5.0560    0.0665 H   0  0  0  0  0  0  0  0  0  0  0  0
    5.8016   -0.3309   -0.6194 H   0  0  0  0  0  0  0  0  0  0  0  0
  1 22  1  0  0  0  0
  2  6  1  0  0  0  0
  2  7  1  0  0  0  0
  2 10  1  0  0  0  0
  3  8  1  0  0  0  0
  3  9  1  0  0  0  0
  3 12  1  0  0  0  0
  4 10  1  0  0  0  0
  4 14  1  0  0  0  0
  4 35  1  0  0  0  0
  5 13  2  0  0  0  0
  5 16  1  0  0  0  0
  6  8  1  0  0  0  0
  6 24  1  0  0  0  0
  6 25  1  0  0  0  0
  7  9  1  0  0  0  0
  7 26  1  0  0  0  0
  7 27  1  0  0  0  0
  8 28  1  0  0  0  0
  8 29  1  0  0  0  0
  9 30  1  0  0  0  0
  9 31  1  0  0  0  0
 10 11  2  0  0  0  0
 11 13  1  0  0  0  0
 11 15  1  0  0  0  0
 12 32  1  0  0  0  0
 12 33  1  0  0  0  0
 12 34  1  0  0  0  0
 13 17  1  0  0  0  0
 14 16  2  0  0  0  0
 14 18  1  0  0  0  0
 15 19  2  0  0  0  0
 15 36  1  0  0  0  0
 16 21  1  0  0  0  0
 17 20  2  0  0  0  0
 17 37  1  0  0  0  0
 18 22  2  0  0  0  0
 18 38  1  0  0  0  0
 19 20  1  0  0  0  0
 19 39  1  0  0  0  0
 20 41  1  0  0  0  0
 21 23  2  0  0  0  0
 21 40  1  0  0  0  0
 22 23  1  0  0  0  0
 23 42  1  0  0  0  0
M  END
> <PUBCHEM_COMPOUND_CID>
2818

> <PUBCHEM_CONFORMER_RMSD>
0.6

> <PUBCHEM_CONFORMER_DIVERSEORDER>
1
4
3
6
5
2

> <PUBCHEM_MMFF94_PARTIAL_CHARGES>
31
1 -0.18
10 0.2
11 0.01
12 0.27
13 0.42
14 0.1
15 -0.15
16 0.18
17 -0.14
18 -0.15
19 -0.15
2 -0.84
20 -0.15
21 -0.15
22 0.18
23 -0.15
3 -0.81
35 0.4
36 0.15
37 0.15
38 0.15
39 0.15
4 -0.6
40 0.15
41 0.15
42 0.15
5 -0.63
6 0.37
7 0.37
8 0.27
9 0.27

> <PUBCHEM_EFFECTIVE_ROTOR_COUNT>
2.4

> <PUBCHEM_PHARMACOPHORE_FEATURES>
9
1 2 cation
1 3 cation
1 4 cation
1 4 donor
1 5 acceptor
6 11 13 15 17 19 20 rings
6 14 16 18 21 22 23 rings
6 2 3 6 7 8 9 rings
7 4 5 10 11 13 14 16 rings

> <PUBCHEM_HEAVY_ATOM_COUNT>
23

> <PUBCHEM_ATOM_DEF_STEREO_COUNT>
0

> <PUBCHEM_ATOM_UDEF_STEREO_COUNT>
0

> <PUBCHEM_BOND_DEF_STEREO_COUNT>
0

> <PUBCHEM_BOND_UDEF_STEREO_COUNT>
0

> <PUBCHEM_ISOTOPIC_ATOM_COUNT>
0

> <PUBCHEM_COMPONENT_COUNT>
1

> <PUBCHEM_CACTVS_TAUTO_COUNT>
3

> <PUBCHEM_CONFORMER_ID>
00000B0200000001

> <PUBCHEM_MMFF94_ENERGY>
97.6522

> <PUBCHEM_FEATURE_SELFOVERLAP>
45.739

> <PUBCHEM_SHAPE_FINGERPRINT>
10254770 206 16181295820622352314
10411042 1 18410857667826189723
10616163 171 18194119844558278486
10693767 8 18263659393792127559
10906281 52 17982729671579501824
1100329 8 17334503094982262499
11045515 52 18272093768772800765
11578080 2 17677072177586850057
12107183 9 18334002888330941611
12236239 1 17822848668193537115
12422481 6 17896584258503520139
12553582 1 18338240366693287574
12643181 29 17543906167753011878
12788726 201 18272093832849274162
13004483 165 18335993020576098006
13134695 92 18267021665788804061
13140716 1 18337674242948932496
13540713 5 18128808832941731950
13544653 18 18342171155016732718
13690498 29 18263628732246967998
138480 1 15240322838636139757
13911987 19 17840286841074349196
14178342 30 18053684726396036274
14347332 77 18338514265743638942
14790565 3 17548409306974856037
14866123 147 18194117641266033369
15042514 8 18266176317192932697
16087824 20 18339080527597218197
17357779 13 18271253733172670605
17492 89 18339080518658935462
1813 80 18261377932464018215
18335252 114 18338530664603443615
20775438 99 17324418009766133135
21279426 13 18271254897615184213
21307412 95 17322378763800560038
21478907 32 18410575123317791078
21641784 216 18058994139086908252
21703447 108 18339376231541455530
221357 26 18270694078081579759
22182313 1 18266484047289211349
22950370 63 18410289186139565991
23175994 123 18272087150518451455
23352939 185 18262231131980745929
23536364 44 18199206133818929615
23557571 272 18335695087912203406
23559900 14 18119256314685213138
23598288 3 18265057005744687110
2748010 2 18338250288141899728
2871803 45 18272933817168460418
3091708 16 9280203044152955945
3421961 26 18265053531174199137
352729 6 18048601722236207756
44062 13 18049154768538779478
46194498 28 17488186980909739183
463206 1 18267867190162628502
5104073 3 18265057010904642778
6443956 14 18268712705903222653
7164475 11 18340200886562751444
7237137 82 18270387408615714372
7970288 3 18410294692029891135
81228 2 18343588455469876793
9709674 26 18341326786501339866

> <PUBCHEM_SHAPE_MULTIPOLES>
455.27
9.73
4.33
0.91
2.51
4.02
0.05
-10.78
-1
-1.2
-0.33
-0.71
-0.33
0.03

> <PUBCHEM_SHAPE_SELFOVERLAP>
980.468

> <PUBCHEM_SHAPE_VOLUME>
247.7

> <PUBCHEM_COORDINATE_TYPE>
2
5
10

$$$$

