440391
  -OEChem-07051212492D

 56 60  0     1  0  0  0  0  0999 V2000
    6.3194   -1.4080    0.0000 O   0  0  0  0  0  0  0  0  0  0  0  0
    5.9036   -3.3642    0.0000 O   0  0  0  0  0  0  0  0  0  0  0  0
    7.0625   -2.0771    0.0000 O   0  0  0  0  0  0  0  0  0  0  0  0
    6.4218    3.0823    0.0000 O   0  0  0  0  0  0  0  0  0  0  0  0
    2.6254   -1.1340    0.0000 N   0  0  3  0  0  0  0  0  0  0  0  0
    5.7049   -0.1334    0.0000 N   0  0  0  0  0  0  0  0  0  0  0  0
    4.1652   -0.6337    0.0000 C   0  0  1  0  0  0  0  0  0  0  0  0
    3.5397   -1.3283    0.0000 C   0  0  2  0  0  0  0  0  0  0  0  0
    3.8286   -2.2173    0.0000 C   0  0  1  0  0  0  0  0  0  0  0  0
    5.0795   -0.8280    0.0000 C   0  0  2  0  0  0  0  0  0  0  0  0
    3.7801    0.4019    0.0000 C   0  0  0  0  0  0  0  0  0  0  0  0
    5.3683   -1.7170    0.0000 C   0  0  1  0  0  0  0  0  0  0  0  0
    4.7429   -2.4116    0.0000 C   0  0  0  0  0  0  0  0  0  0  0  0
    2.3366   -0.2450    0.0000 C   0  0  0  0  0  0  0  0  0  0  0  0
    4.5018    0.9499    0.0000 C   0  0  0  0  0  0  0  0  0  0  0  0
    4.1376   -3.1683    0.0000 C   0  0  0  0  0  0  0  0  0  0  0  0
    3.2031   -2.9119    0.0000 C   0  0  0  0  0  0  0  0  0  0  0  0
    2.0000   -1.8286    0.0000 C   0  0  0  0  0  0  0  0  0  0  0  0
    5.4161    0.7556    0.0000 C   0  0  0  0  0  0  0  0  0  0  0  0
    2.2888   -2.7176    0.0000 C   0  0  0  0  0  0  0  0  0  0  0  0
    6.1115   -2.3861    0.0000 C   0  0  0  0  0  0  0  0  0  0  0  0
    4.2129    1.8389    0.0000 C   0  0  0  0  0  0  0  0  0  0  0  0
    3.4685   -3.9115    0.0000 C   0  0  0  0  0  0  0  0  0  0  0  0
    6.0415    1.4502    0.0000 C   0  0  0  0  0  0  0  0  0  0  0  0
    4.8384    2.5335    0.0000 C   0  0  0  0  0  0  0  0  0  0  0  0
    5.7527    2.3392    0.0000 C   0  0  0  0  0  0  0  0  0  0  0  0
    6.6467   -4.0334    0.0000 C   0  0  0  0  0  0  0  0  0  0  0  0
    6.1128    4.0334    0.0000 C   0  0  0  0  0  0  0  0  0  0  0  0
    3.2771   -0.5199    0.0000 H   0  0  0  0  0  0  0  0  0  0  0  0
    5.9109   -1.0047    0.0000 H   0  0  0  0  0  0  0  0  0  0  0  0
    4.3564    0.6306    0.0000 H   0  0  0  0  0  0  0  0  0  0  0  0
    3.5389    0.9731    0.0000 H   0  0  0  0  0  0  0  0  0  0  0  0
    4.5106   -2.9865    0.0000 H   0  0  0  0  0  0  0  0  0  0  0  0
    5.2687   -2.7402    0.0000 H   0  0  0  0  0  0  0  0  0  0  0  0
    2.1034    0.3295    0.0000 H   0  0  0  0  0  0  0  0  0  0  0  0
    1.7542   -0.4575    0.0000 H   0  0  0  0  0  0  0  0  0  0  0  0
    6.2946    0.0582    0.0000 H   0  0  0  0  0  0  0  0  0  0  0  0
    4.5193   -3.6569    0.0000 H   0  0  0  0  0  0  0  0  0  0  0  0
    4.6850   -2.8772    0.0000 H   0  0  0  0  0  0  0  0  0  0  0  0
    3.3947   -3.5016    0.0000 H   0  0  0  0  0  0  0  0  0  0  0  0
    1.6183   -1.3400    0.0000 H   0  0  0  0  0  0  0  0  0  0  0  0
    1.4526   -2.1197    0.0000 H   0  0  0  0  0  0  0  0  0  0  0  0
    1.8740   -3.1783    0.0000 H   0  0  0  0  0  0  0  0  0  0  0  0
    3.6065    1.9678    0.0000 H   0  0  0  0  0  0  0  0  0  0  0  0
    6.7342   -0.9472    0.0000 H   0  0  0  0  0  0  0  0  0  0  0  0
    3.0077   -3.4966    0.0000 H   0  0  0  0  0  0  0  0  0  0  0  0
    3.0536   -4.3722    0.0000 H   0  0  0  0  0  0  0  0  0  0  0  0
    3.9292   -4.3263    0.0000 H   0  0  0  0  0  0  0  0  0  0  0  0
    6.6480    1.3213    0.0000 H   0  0  0  0  0  0  0  0  0  0  0  0
    4.6468    3.1232    0.0000 H   0  0  0  0  0  0  0  0  0  0  0  0
    6.2318   -4.4941    0.0000 H   0  0  0  0  0  0  0  0  0  0  0  0
    7.1074   -4.4482    0.0000 H   0  0  0  0  0  0  0  0  0  0  0  0
    7.0616   -3.5726    0.0000 H   0  0  0  0  0  0  0  0  0  0  0  0
    6.7025    4.2250    0.0000 H   0  0  0  0  0  0  0  0  0  0  0  0
    5.9212    4.6230    0.0000 H   0  0  0  0  0  0  0  0  0  0  0  0
    5.5232    3.8418    0.0000 H   0  0  0  0  0  0  0  0  0  0  0  0
 12  1  1  6  0  0  0
  1 45  1  0  0  0  0
  2 21  1  0  0  0  0
  2 27  1  0  0  0  0
  3 21  2  0  0  0  0
  4 26  1  0  0  0  0
  4 28  1  0  0  0  0
  5  8  1  0  0  0  0
  5 14  1  0  0  0  0
  5 18  1  0  0  0  0
  6 10  1  0  0  0  0
  6 19  1  0  0  0  0
  6 37  1  0  0  0  0
  7  8  1  0  0  0  0
  7 10  1  0  0  0  0
  7 11  1  6  0  0  0
  7 15  1  0  0  0  0
  8  9  1  0  0  0  0
  8 29  1  1  0  0  0
  9 13  1  0  0  0  0
  9 16  1  1  0  0  0
  9 17  1  0  0  0  0
 10 12  1  0  0  0  0
 10 30  1  6  0  0  0
 11 14  1  0  0  0  0
 11 31  1  0  0  0  0
 11 32  1  0  0  0  0
 12 13  1  0  0  0  0
 12 21  1  0  0  0  0
 13 33  1  0  0  0  0
 13 34  1  0  0  0  0
 14 35  1  0  0  0  0
 14 36  1  0  0  0  0
 15 19  2  0  0  0  0
 15 22  1  0  0  0  0
 16 23  1  0  0  0  0
 16 38  1  0  0  0  0
 16 39  1  0  0  0  0
 17 20  2  0  0  0  0
 17 40  1  0  0  0  0
 18 20  1  0  0  0  0
 18 41  1  0  0  0  0
 18 42  1  0  0  0  0
 19 24  1  0  0  0  0
 20 43  1  0  0  0  0
 22 25  2  0  0  0  0
 22 44  1  0  0  0  0
 23 46  1  0  0  0  0
 23 47  1  0  0  0  0
 23 48  1  0  0  0  0
 24 26  2  0  0  0  0
 24 49  1  0  0  0  0
 25 26  1  0  0  0  0
 25 50  1  0  0  0  0
 27 51  1  0  0  0  0
 27 52  1  0  0  0  0
 27 53  1  0  0  0  0
 28 54  1  0  0  0  0
 28 55  1  0  0  0  0
 28 56  1  0  0  0  0
M  END
> <PUBCHEM_COMPOUND_CID>
440391

> <PUBCHEM_COMPOUND_CANONICALIZED>
1

> <PUBCHEM_CACTVS_COMPLEXITY>
698

> <PUBCHEM_CACTVS_HBOND_ACCEPTOR>
6

> <PUBCHEM_CACTVS_HBOND_DONOR>
2

> <PUBCHEM_CACTVS_ROTATABLE_BOND>
4

> <PUBCHEM_CACTVS_SUBSKEYS>
AAADceB7OAAAAAAAAAAAAAAAAAAAAWLAAAAwYIAAAAAAAFiBAAAAHgAQCAAADmzBmAYyzoPABgCIAiTSSAKCCAAhIgAIiIFObIgPJjrE8ZuEcChm0Bnb6Ae42fOfoAAAAgACAABQgAYECAQgAAAAAAAAAA==

> <PUBCHEM_IUPAC_INCHI>
InChI=1S/C22H28N2O4/c1-4-20-8-5-10-24-11-9-21(18(20)24)15-7-6-14(27-2)12-16(15)23-17(21)22(26,13-20)19(25)28-3/h5-8,12,17-18,23,26H,4,9-11,13H2,1-3H3/t17-,18+,20+,21+,22-/m1/s1

> <PUBCHEM_IUPAC_INCHIKEY>
MLIQIRKAHMVCDD-MMGCJVFTSA-N

> <PUBCHEM_XLOGP3_AA>
2.6

> <PUBCHEM_EXACT_MASS>
384.204907

> <PUBCHEM_MOLECULAR_FORMULA>
C22H28N2O4

> <PUBCHEM_MOLECULAR_WEIGHT>
384.46872

> <PUBCHEM_OPENEYE_CAN_SMILES>
CCC12CC(C3C4(C1N(CC4)CC=C2)C5=C(N3)C=C(C=C5)OC)(C(=O)OC)O

> <PUBCHEM_OPENEYE_ISO_SMILES>
CC[C@]12C[C@@]([C@H]3[C@@]4([C@H]1N(CC4)CC=C2)C5=C(N3)C=C(C=C5)OC)(C(=O)OC)O

> <PUBCHEM_CACTVS_TPSA>
71

> <PUBCHEM_MONOISOTOPIC_WEIGHT>
384.204907

> <PUBCHEM_TOTAL_CHARGE>
0

> <PUBCHEM_HEAVY_ATOM_COUNT>
28

> <PUBCHEM_ATOM_DEF_STEREO_COUNT>
5

> <PUBCHEM_ATOM_UDEF_STEREO_COUNT>
0

> <PUBCHEM_BOND_DEF_STEREO_COUNT>
0

> <PUBCHEM_BOND_UDEF_STEREO_COUNT>
0

> <PUBCHEM_ISOTOPIC_ATOM_COUNT>
0

> <PUBCHEM_COMPONENT_COUNT>
1

> <PUBCHEM_CACTVS_TAUTO_COUNT>
1

> <PUBCHEM_COORDINATE_TYPE>
1
5
255

> <PUBCHEM_BONDANNOTATIONS>
12  1  6
10  30  6
15  19  8
15  22  8
19  24  8
22  25  8
24  26  8
25  26  8
7  11  6
8  29  5
9  16  5

$$$$

