73527
  -OEChem-07051212563D

 61 66  0     1  0  0  0  0  0999 V2000
   -0.4740   -2.8347   -1.2312 O   0  0  0  0  0  0  0  0  0  0  0  0
   -2.3713   -2.4423    0.5379 O   0  0  0  0  0  0  0  0  0  0  0  0
    1.1456    2.8009   -0.1162 O   0  0  0  0  0  0  0  0  0  0  0  0
   -3.8675    1.0779   -0.1330 O   0  0  0  0  0  0  0  0  0  0  0  0
   -4.2837   -0.6590   -1.5166 O   0  0  0  0  0  0  0  0  0  0  0  0
    2.0009   -0.1300    1.3080 N   0  0  2  0  0  0  0  0  0  0  0  0
    0.4830    0.4436   -0.5783 C   0  0  2  0  0  0  0  0  0  0  0  0
    1.0180   -0.8935   -1.2403 C   0  0  1  0  0  0  0  0  0  0  0  0
    0.5829   -0.0151    0.8968 C   0  0  1  0  0  0  0  0  0  0  0  0
   -0.2348   -1.3491    0.8208 C   0  0  2  0  0  0  0  0  0  0  0  0
   -1.0593    0.7628   -0.9124 C   0  0  1  0  0  0  0  0  0  0  0  0
    2.5654   -0.9795   -1.0385 C   0  0  2  0  0  0  0  0  0  0  0  0
    0.3833   -2.0541   -0.4186 C   0  0  1  0  0  0  0  0  0  0  0  0
   -1.7686   -1.1336    0.6409 C   0  0  1  0  0  0  0  0  0  0  0  0
   -2.0296   -0.4086   -0.6899 C   0  0  1  0  0  0  0  0  0  0  0  0
    1.3393    1.6980   -0.9993 C   0  0  2  0  0  0  0  0  0  0  0  0
    2.8622   -1.0124    0.4985 C   0  0  0  0  0  0  0  0  0  0  0  0
    3.2415    0.2198   -1.7242 C   0  0  0  0  0  0  0  0  0  0  0  0
   -1.6244    2.0165   -0.2035 C   0  0  0  0  0  0  0  0  0  0  0  0
    2.8491    1.5318   -1.1003 C   0  0  0  0  0  0  0  0  0  0  0  0
   -2.4592   -0.4946    1.8652 C   0  0  0  0  0  0  0  0  0  0  0  0
   -2.8693    1.7555    0.6372 C   0  0  2  0  0  0  0  0  0  0  0  0
    3.1536   -2.2417   -1.7110 C   0  0  0  0  0  0  0  0  0  0  0  0
   -2.5689    1.0255    1.9484 C   0  0  0  0  0  0  0  0  0  0  0  0
   -3.4893   -0.0138   -0.8397 C   0  0  0  0  0  0  0  0  0  0  0  0
    2.1456   -0.4099    2.7331 C   0  0  0  0  0  0  0  0  0  0  0  0
    3.5803   -0.2411    3.1888 C   0  0  0  0  0  0  0  0  0  0  0  0
    1.7495    3.9812   -0.6229 C   0  0  0  0  0  0  0  0  0  0  0  0
    0.7545   -0.9381   -2.3034 H   0  0  0  0  0  0  0  0  0  0  0  0
    0.1084    0.7099    1.5575 H   0  0  0  0  0  0  0  0  0  0  0  0
   -0.0711   -1.9725    1.7079 H   0  0  0  0  0  0  0  0  0  0  0  0
   -1.0896    0.9831   -1.9904 H   0  0  0  0  0  0  0  0  0  0  0  0
    1.1148   -2.7771   -0.0557 H   0  0  0  0  0  0  0  0  0  0  0  0
   -1.8846   -1.0931   -1.5333 H   0  0  0  0  0  0  0  0  0  0  0  0
    0.9814    1.9842   -1.9991 H   0  0  0  0  0  0  0  0  0  0  0  0
    2.7951   -2.0422    0.8719 H   0  0  0  0  0  0  0  0  0  0  0  0
    3.9125   -0.7237    0.6325 H   0  0  0  0  0  0  0  0  0  0  0  0
    2.9795    0.2328   -2.7908 H   0  0  0  0  0  0  0  0  0  0  0  0
    4.3338    0.1229   -1.6774 H   0  0  0  0  0  0  0  0  0  0  0  0
   -0.9114    2.5112    0.4512 H   0  0  0  0  0  0  0  0  0  0  0  0
   -1.8843    2.7429   -0.9852 H   0  0  0  0  0  0  0  0  0  0  0  0
    3.3310    1.6498   -0.1217 H   0  0  0  0  0  0  0  0  0  0  0  0
    3.2838    2.3222   -1.7256 H   0  0  0  0  0  0  0  0  0  0  0  0
   -1.9940   -0.8688    2.7870 H   0  0  0  0  0  0  0  0  0  0  0  0
   -3.4874   -0.8845    1.9165 H   0  0  0  0  0  0  0  0  0  0  0  0
   -3.2931    2.7336    0.8967 H   0  0  0  0  0  0  0  0  0  0  0  0
    2.9179   -2.2598   -2.7811 H   0  0  0  0  0  0  0  0  0  0  0  0
    4.2449   -2.2646   -1.6090 H   0  0  0  0  0  0  0  0  0  0  0  0
    2.7774   -3.1726   -1.2780 H   0  0  0  0  0  0  0  0  0  0  0  0
   -3.3938    1.2372    2.6430 H   0  0  0  0  0  0  0  0  0  0  0  0
   -1.6827    1.4539    2.4281 H   0  0  0  0  0  0  0  0  0  0  0  0
    1.5333    0.2962    3.3075 H   0  0  0  0  0  0  0  0  0  0  0  0
    1.7962   -1.4175    2.9869 H   0  0  0  0  0  0  0  0  0  0  0  0
   -0.8935   -3.4988   -0.6583 H   0  0  0  0  0  0  0  0  0  0  0  0
   -2.1651   -2.9305    1.3536 H   0  0  0  0  0  0  0  0  0  0  0  0
    4.2320   -1.0408    2.8231 H   0  0  0  0  0  0  0  0  0  0  0  0
    3.9936    0.7226    2.8718 H   0  0  0  0  0  0  0  0  0  0  0  0
    3.6255   -0.2722    4.2831 H   0  0  0  0  0  0  0  0  0  0  0  0
    1.5713    4.1143   -1.6951 H   0  0  0  0  0  0  0  0  0  0  0  0
    2.8181    4.0147   -0.3919 H   0  0  0  0  0  0  0  0  0  0  0  0
    1.2908    4.8300   -0.1058 H   0  0  0  0  0  0  0  0  0  0  0  0
  1 13  1  0  0  0  0
  1 54  1  0  0  0  0
  2 14  1  0  0  0  0
  2 55  1  0  0  0  0
  3 16  1  0  0  0  0
  3 28  1  0  0  0  0
  4 22  1  0  0  0  0
  4 25  1  0  0  0  0
  5 25  2  0  0  0  0
  6  9  1  0  0  0  0
  6 17  1  0  0  0  0
  6 26  1  0  0  0  0
  7  8  1  0  0  0  0
  7  9  1  0  0  0  0
  7 11  1  0  0  0  0
  7 16  1  0  0  0  0
  8 12  1  0  0  0  0
  8 13  1  0  0  0  0
  8 29  1  0  0  0  0
  9 10  1  0  0  0  0
  9 30  1  0  0  0  0
 10 13  1  0  0  0  0
 10 14  1  0  0  0  0
 10 31  1  0  0  0  0
 11 15  1  0  0  0  0
 11 19  1  0  0  0  0
 11 32  1  0  0  0  0
 12 17  1  0  0  0  0
 12 18  1  0  0  0  0
 12 23  1  0  0  0  0
 13 33  1  0  0  0  0
 14 15  1  0  0  0  0
 14 21  1  0  0  0  0
 15 25  1  0  0  0  0
 15 34  1  0  0  0  0
 16 20  1  0  0  0  0
 16 35  1  0  0  0  0
 17 36  1  0  0  0  0
 17 37  1  0  0  0  0
 18 20  1  0  0  0  0
 18 38  1  0  0  0  0
 18 39  1  0  0  0  0
 19 22  1  0  0  0  0
 19 40  1  0  0  0  0
 19 41  1  0  0  0  0
 20 42  1  0  0  0  0
 20 43  1  0  0  0  0
 21 24  1  0  0  0  0
 21 44  1  0  0  0  0
 21 45  1  0  0  0  0
 22 24  1  0  0  0  0
 22 46  1  0  0  0  0
 23 47  1  0  0  0  0
 23 48  1  0  0  0  0
 23 49  1  0  0  0  0
 24 50  1  0  0  0  0
 24 51  1  0  0  0  0
 26 27  1  0  0  0  0
 26 52  1  0  0  0  0
 26 53  1  0  0  0  0
 27 56  1  0  0  0  0
 27 57  1  0  0  0  0
 27 58  1  0  0  0  0
 28 59  1  0  0  0  0
 28 60  1  0  0  0  0
 28 61  1  0  0  0  0
M  END
> <PUBCHEM_COMPOUND_CID>
73527

> <PUBCHEM_CONFORMER_RMSD>
0.8

> <PUBCHEM_CONFORMER_DIVERSEORDER>
1

> <PUBCHEM_MMFF94_PARTIAL_CHARGES>
18
1 -0.68
13 0.28
14 0.28
15 0.06
16 0.28
17 0.27
2 -0.68
22 0.28
25 0.66
26 0.27
28 0.28
3 -0.56
4 -0.43
5 -0.57
54 0.4
55 0.4
6 -0.81
9 0.27

> <PUBCHEM_EFFECTIVE_ROTOR_COUNT>
4

> <PUBCHEM_PHARMACOPHORE_FEATURES>
11
1 1 acceptor
1 1 donor
1 2 acceptor
1 2 donor
1 3 acceptor
1 5 acceptor
1 6 cation
6 7 8 12 16 18 20 rings
8 6 7 8 9 10 12 13 17 rings
8 7 8 9 10 11 13 14 15 rings
9 4 11 14 15 19 21 22 24 25 rings

> <PUBCHEM_HEAVY_ATOM_COUNT>
28

> <PUBCHEM_ATOM_DEF_STEREO_COUNT>
10

> <PUBCHEM_ATOM_UDEF_STEREO_COUNT>
1

> <PUBCHEM_BOND_DEF_STEREO_COUNT>
0

> <PUBCHEM_BOND_UDEF_STEREO_COUNT>
0

> <PUBCHEM_ISOTOPIC_ATOM_COUNT>
0

> <PUBCHEM_COMPONENT_COUNT>
1

> <PUBCHEM_CACTVS_TAUTO_COUNT>
1

> <PUBCHEM_CONFORMER_ID>
00011F3700000001

> <PUBCHEM_MMFF94_ENERGY>
143.8813

> <PUBCHEM_FEATURE_SELFOVERLAP>
57.283

> <PUBCHEM_SHAPE_FINGERPRINT>
10169797 241 16602125564349098631
10863032 1 18264182812596550118
11578080 2 17606131812243990648
12156800 1 15824475361996445589
12553582 1 18270675505968037597
12788726 201 17697030701738659092
13140716 1 18270670983536033161
13224815 77 18113051627896709891
13583140 156 16917060036637347241
14178342 30 18119544360239394953
14223421 5 17982996874199721083
14787075 74 16808455715622027739
15219462 58 16444173219304069410
15238133 3 17486214710347544925
16945 1 18200868582061796991
17349148 13 18336844021254004527
17980427 23 18048068235842924152
18981168 100 18114455643968326912
192875 21 18339660991719604813
20600515 1 18268451138105061160
20691752 17 18267025148669541035
20905425 154 17766562352346925163
22149856 69 18040988546114489675
2334 1 18197202660155397061
23419403 2 15148265531947195969
23493267 7 17415253281861996003
23557571 272 17750526074219732783
23559900 14 18335139765150728404
238 59 18338798918689765165
2748010 2 18057028134728024125
3286 77 17241053213846214958
350125 39 18050259523714371221
394222 165 17695370082640006504
74978 22 18341604906612648711
9981440 41 17902796254150266968

> <PUBCHEM_SHAPE_MULTIPOLES>
541.9
6.04
2.97
2.32
2.23
1.97
-1.86
-0.19
0.08
-0.93
0.93
-1.8
-0.63
-0.34

> <PUBCHEM_SHAPE_SELFOVERLAP>
1197.38

> <PUBCHEM_SHAPE_VOLUME>
284.4

> <PUBCHEM_COORDINATE_TYPE>
2
5
10

$$$$

