80152
  -OEChem-07051213053D

 30 31  0     0  0  0  0  0  0999 V2000
    5.9874   -0.0188    0.3181 O   0  0  0  0  0  0  0  0  0  0  0  0
   -5.9779   -0.0190   -0.3591 O   0  0  0  0  0  0  0  0  0  0  0  0
    0.4241    0.0200   -0.6203 C   0  0  0  0  0  0  0  0  0  0  0  0
   -0.4295    0.0204    0.6636 C   0  0  0  0  0  0  0  0  0  0  0  0
    1.8945    0.0093   -0.3727 C   0  0  0  0  0  0  0  0  0  0  0  0
   -1.9137    0.0094    0.3903 C   0  0  0  0  0  0  0  0  0  0  0  0
    2.5898    1.2124   -0.2511 C   0  0  0  0  0  0  0  0  0  0  0  0
   -2.5893    1.2126    0.2611 C   0  0  0  0  0  0  0  0  0  0  0  0
    2.5748   -1.2033   -0.2618 C   0  0  0  0  0  0  0  0  0  0  0  0
   -2.5744   -1.2032    0.2728 C   0  0  0  0  0  0  0  0  0  0  0  0
    3.9651    1.2029   -0.0187 C   0  0  0  0  0  0  0  0  0  0  0  0
   -3.9609    1.2029    0.0079 C   0  0  0  0  0  0  0  0  0  0  0  0
    3.9501   -1.2130   -0.0293 C   0  0  0  0  0  0  0  0  0  0  0  0
   -3.9461   -1.2129    0.0197 C   0  0  0  0  0  0  0  0  0  0  0  0
    4.6453   -0.0098    0.0922 C   0  0  0  0  0  0  0  0  0  0  0  0
   -4.6394   -0.0099   -0.1128 C   0  0  0  0  0  0  0  0  0  0  0  0
    0.1644    0.8936   -1.2340 H   0  0  0  0  0  0  0  0  0  0  0  0
    0.1546   -0.8461   -1.2403 H   0  0  0  0  0  0  0  0  0  0  0  0
   -0.1787    0.8961    1.2774 H   0  0  0  0  0  0  0  0  0  0  0  0
   -0.1688   -0.8475    1.2845 H   0  0  0  0  0  0  0  0  0  0  0  0
    2.0708    2.1638   -0.3333 H   0  0  0  0  0  0  0  0  0  0  0  0
   -2.0689    2.1618    0.3514 H   0  0  0  0  0  0  0  0  0  0  0  0
    2.0441   -2.1474   -0.3524 H   0  0  0  0  0  0  0  0  0  0  0  0
   -2.0425   -2.1450    0.3722 H   0  0  0  0  0  0  0  0  0  0  0  0
    4.4950    2.1471    0.0745 H   0  0  0  0  0  0  0  0  0  0  0  0
   -4.4893    2.1471   -0.0937 H   0  0  0  0  0  0  0  0  0  0  0  0
    4.4744   -2.1608    0.0566 H   0  0  0  0  0  0  0  0  0  0  0  0
   -4.4690   -2.1609   -0.0738 H   0  0  0  0  0  0  0  0  0  0  0  0
    6.3036    0.8993    0.3745 H   0  0  0  0  0  0  0  0  0  0  0  0
   -6.2932    0.8991   -0.4206 H   0  0  0  0  0  0  0  0  0  0  0  0
  1 15  1  0  0  0  0
  1 29  1  0  0  0  0
  2 16  1  0  0  0  0
  2 30  1  0  0  0  0
  3  4  1  0  0  0  0
  3  5  1  0  0  0  0
  3 17  1  0  0  0  0
  3 18  1  0  0  0  0
  4  6  1  0  0  0  0
  4 19  1  0  0  0  0
  4 20  1  0  0  0  0
  5  7  2  0  0  0  0
  5  9  1  0  0  0  0
  6  8  2  0  0  0  0
  6 10  1  0  0  0  0
  7 11  1  0  0  0  0
  7 21  1  0  0  0  0
  8 12  1  0  0  0  0
  8 22  1  0  0  0  0
  9 13  2  0  0  0  0
  9 23  1  0  0  0  0
 10 14  2  0  0  0  0
 10 24  1  0  0  0  0
 11 15  2  0  0  0  0
 11 25  1  0  0  0  0
 12 16  2  0  0  0  0
 12 26  1  0  0  0  0
 13 15  1  0  0  0  0
 13 27  1  0  0  0  0
 14 16  1  0  0  0  0
 14 28  1  0  0  0  0
M  END
> <PUBCHEM_COMPOUND_CID>
80152

> <PUBCHEM_CONFORMER_RMSD>
0.6

> <PUBCHEM_CONFORMER_DIVERSEORDER>
1
5
2
4
3
6

> <PUBCHEM_MMFF94_PARTIAL_CHARGES>
26
1 -0.53
10 -0.15
11 -0.15
12 -0.15
13 -0.15
14 -0.15
15 0.08
16 0.08
2 -0.53
21 0.15
22 0.15
23 0.15
24 0.15
25 0.15
26 0.15
27 0.15
28 0.15
29 0.45
3 0.14
30 0.45
4 0.14
5 -0.14
6 -0.14
7 -0.15
8 -0.15
9 -0.15

> <PUBCHEM_EFFECTIVE_ROTOR_COUNT>
3

> <PUBCHEM_PHARMACOPHORE_FEATURES>
4
1 1 donor
1 2 donor
6 5 7 9 11 13 15 rings
6 6 8 10 12 14 16 rings

> <PUBCHEM_HEAVY_ATOM_COUNT>
16

> <PUBCHEM_ATOM_DEF_STEREO_COUNT>
0

> <PUBCHEM_ATOM_UDEF_STEREO_COUNT>
0

> <PUBCHEM_BOND_DEF_STEREO_COUNT>
0

> <PUBCHEM_BOND_UDEF_STEREO_COUNT>
0

> <PUBCHEM_ISOTOPIC_ATOM_COUNT>
0

> <PUBCHEM_COMPONENT_COUNT>
1

> <PUBCHEM_CACTVS_TAUTO_COUNT>
3

> <PUBCHEM_CONFORMER_ID>
0001391800000001

> <PUBCHEM_MMFF94_ENERGY>
39.7521

> <PUBCHEM_FEATURE_SELFOVERLAP>
20.297

> <PUBCHEM_SHAPE_FINGERPRINT>
11315181 36 18411415098751728752
11370993 70 18410855460134092667
11401426 45 18131351907971894947
12107183 9 17690279734576382240
12236239 1 17822010921704941598
12507557 5 18187083940486564672
12815109 37 18410856559639822054
128620 24 15791728615697374932
13167823 11 18410575088963710726
13533116 47 18335704991505907890
14123238 8 18333449850170158269
15375358 24 18411132541380157146
17834072 33 18410573964014270412
17834076 25 18410856559645083822
18186145 218 17060341786267183817
19489759 90 18410294718030686329
200 152 18040999548628419089
20279233 1 18411409618310135826
20300324 65 18333169466827336337
20645477 56 18343300379708238845
20645477 70 18334855077913494398
21267235 1 18410564089546976547
23402539 116 18410860945355293567
23402655 69 18409445890869735238
23557571 272 18187641444289760837
23559900 14 18409733919650295032
26918003 58 18411699872300116026
300161 21 18412269436381775771
33824 294 18341049700955286714
351380 180 18410856555360782961
3545911 37 18410854364916795580
42 15 18343018895777434390
4214541 1 18411417332303520993
42788 4 18410855464423148581
5104073 3 18410290324046937273
542803 24 17346595274745279348
69090 78 18412263934687184995
7495541 125 17603872148080825051
77779 3 18410853261104919233
9709674 26 18410002239147933279
9971528 1 17775565334450255508

> <PUBCHEM_SHAPE_MULTIPOLES>
317.53
12.99
1.36
0.71
0.09
0
0
0.08
0.11
0
0
-0.02
0
0

> <PUBCHEM_SHAPE_SELFOVERLAP>
677.848

> <PUBCHEM_SHAPE_VOLUME>
176.6

> <PUBCHEM_COORDINATE_TYPE>
2
5
10

$$$$

