98046
  -OEChem-07051213043D

 30 30  0     1  0  0  0  0  0999 V2000
   -3.7506    0.5098    0.2228 O   0  0  0  0  0  0  0  0  0  0  0  0
    5.1179    0.6066    0.0182 O   0  0  0  0  0  0  0  0  0  0  0  0
    2.6466    1.5368   -0.1497 O   0  0  0  0  0  0  0  0  0  0  0  0
    1.6893   -0.5689    0.2532 N   0  0  0  0  0  0  0  0  0  0  0  0
    0.3009   -0.2939    0.2460 C   0  0  0  0  0  0  0  0  0  0  0  0
    4.0905   -0.3641    0.1405 C   0  0  1  0  0  0  0  0  0  0  0  0
    2.7330    0.3293    0.0554 C   0  0  0  0  0  0  0  0  0  0  0  0
   -2.4157    0.2447    0.2291 C   0  0  0  0  0  0  0  0  0  0  0  0
   -0.5952   -1.3251    0.4722 C   0  0  0  0  0  0  0  0  0  0  0  0
   -0.1314    1.0007    0.0116 C   0  0  0  0  0  0  0  0  0  0  0  0
   -1.9635   -1.0539    0.4635 C   0  0  0  0  0  0  0  0  0  0  0  0
   -1.4996    1.2721    0.0030 C   0  0  0  0  0  0  0  0  0  0  0  0
    4.2553   -1.4113   -0.9508 C   0  0  0  0  0  0  0  0  0  0  0  0
   -4.6197   -0.5427   -0.1931 C   0  0  0  0  0  0  0  0  0  0  0  0
   -5.8580    0.0599   -0.8220 C   0  0  0  0  0  0  0  0  0  0  0  0
    4.1878   -0.8364    1.1246 H   0  0  0  0  0  0  0  0  0  0  0  0
    1.9314   -1.5383    0.4447 H   0  0  0  0  0  0  0  0  0  0  0  0
   -0.2528   -2.3386    0.6615 H   0  0  0  0  0  0  0  0  0  0  0  0
    0.5123    1.8475   -0.1741 H   0  0  0  0  0  0  0  0  0  0  0  0
   -2.6414   -1.8765    0.6714 H   0  0  0  0  0  0  0  0  0  0  0  0
   -1.8475    2.2852   -0.1807 H   0  0  0  0  0  0  0  0  0  0  0  0
    4.1054   -0.9658   -1.9409 H   0  0  0  0  0  0  0  0  0  0  0  0
    3.5515   -2.2414   -0.8429 H   0  0  0  0  0  0  0  0  0  0  0  0
    5.2721   -1.8185   -0.9380 H   0  0  0  0  0  0  0  0  0  0  0  0
   -4.1492   -1.1872   -0.9462 H   0  0  0  0  0  0  0  0  0  0  0  0
   -4.9015   -1.1426    0.6792 H   0  0  0  0  0  0  0  0  0  0  0  0
   -6.5533   -0.7206   -1.1437 H   0  0  0  0  0  0  0  0  0  0  0  0
   -6.3700    0.7174   -0.1117 H   0  0  0  0  0  0  0  0  0  0  0  0
   -5.5908    0.6744   -1.6882 H   0  0  0  0  0  0  0  0  0  0  0  0
    5.0549    1.1976    0.7879 H   0  0  0  0  0  0  0  0  0  0  0  0
  1  8  1  0  0  0  0
  1 14  1  0  0  0  0
  2  6  1  0  0  0  0
  2 30  1  0  0  0  0
  3  7  2  0  0  0  0
  4  5  1  0  0  0  0
  4  7  1  0  0  0  0
  4 17  1  0  0  0  0
  5  9  2  0  0  0  0
  5 10  1  0  0  0  0
  6  7  1  0  0  0  0
  6 13  1  0  0  0  0
  6 16  1  0  0  0  0
  8 11  2  0  0  0  0
  8 12  1  0  0  0  0
  9 11  1  0  0  0  0
  9 18  1  0  0  0  0
 10 12  2  0  0  0  0
 10 19  1  0  0  0  0
 11 20  1  0  0  0  0
 12 21  1  0  0  0  0
 13 22  1  0  0  0  0
 13 23  1  0  0  0  0
 13 24  1  0  0  0  0
 14 15  1  0  0  0  0
 14 25  1  0  0  0  0
 14 26  1  0  0  0  0
 15 27  1  0  0  0  0
 15 28  1  0  0  0  0
 15 29  1  0  0  0  0
M  END
> <PUBCHEM_COMPOUND_CID>
98046

> <PUBCHEM_CONFORMER_RMSD>
0.6

> <PUBCHEM_CONFORMER_DIVERSEORDER>
1
40
41
25
14
30
15
18
35
28
23
8
36
11
20
39
10
38
9
31
33
22
24
19
34
13
29
3
42
21
37
2
17
5
27
7
26
32
4
6
12
16

> <PUBCHEM_MMFF94_PARTIAL_CHARGES>
19
1 -0.36
10 -0.15
11 -0.15
12 -0.15
14 0.28
17 0.37
18 0.15
19 0.15
2 -0.68
20 0.15
21 0.15
3 -0.57
30 0.4
4 -0.55
5 0.12
6 0.34
7 0.57
8 0.08
9 -0.15

> <PUBCHEM_EFFECTIVE_ROTOR_COUNT>
5

> <PUBCHEM_PHARMACOPHORE_FEATURES>
6
1 1 acceptor
1 2 acceptor
1 2 donor
1 3 acceptor
1 4 donor
6 5 8 9 10 11 12 rings

> <PUBCHEM_HEAVY_ATOM_COUNT>
15

> <PUBCHEM_ATOM_DEF_STEREO_COUNT>
0

> <PUBCHEM_ATOM_UDEF_STEREO_COUNT>
1

> <PUBCHEM_BOND_DEF_STEREO_COUNT>
0

> <PUBCHEM_BOND_UDEF_STEREO_COUNT>
0

> <PUBCHEM_ISOTOPIC_ATOM_COUNT>
0

> <PUBCHEM_COMPONENT_COUNT>
1

> <PUBCHEM_CACTVS_TAUTO_COUNT>
2

> <PUBCHEM_CONFORMER_ID>
00017EFE00000001

> <PUBCHEM_MMFF94_ENERGY>
40.1355

> <PUBCHEM_FEATURE_SELFOVERLAP>
30.455

> <PUBCHEM_SHAPE_FINGERPRINT>
11401426 45 18413674599837148059
11471102 20 18411699885390616170
12032990 46 18411973646537602043
12670543 26 18341055219919079975
13533116 47 16153703262989952878
13690532 89 18411418427272021347
13760787 19 16272210777978233739
13862211 1 18412549816516671291
14115302 16 17988634164656987687
14123238 8 17167863062538293228
14911166 2 18342741810526344995
14993402 34 18202283602308650169
15048467 5 12895071825523518623
15242439 84 18131068234029970603
17802600 8 18342178868862580684
17834072 33 17894916195862663925
17834072 8 18273214201101892351
17834076 25 15626225723686157585
18186145 218 17846223223904432935
187816 3 18410857659668356257
200 152 17822012016837186547
20279233 1 18335693945445764082
20300324 65 18040715887756175513
20645477 70 18040992999273259318
21029758 11 18408605851096457561
21267235 1 18411410709722413523
21637258 2 16153723024418831143
23402539 116 18113903779794962245
23402655 69 18340215176050846557
23559900 14 18336549300740740424
29717793 49 18113338626481126893
3286 77 17313107461940959264
366044 4 18343585135792238963
3759504 43 16917064439322126947
42788 4 18412265038609545273
4990 188 18334293188589777943
69090 78 18334296461249498790

> <PUBCHEM_SHAPE_MULTIPOLES>
286.1
11.1
1.35
0.76
2.61
0.02
0.08
-0.78
2.89
-0.57
0.04
0.08
-0.14
0.37

> <PUBCHEM_SHAPE_SELFOVERLAP>
581.404

> <PUBCHEM_SHAPE_VOLUME>
166.1

> <PUBCHEM_COORDINATE_TYPE>
2
5
10

$$$$

