442826
  -OEChem-07051212593D

 52 56  0     1  0  0  0  0  0999 V2000
   -0.6597   -1.0423   -1.2572 O   0  0  0  0  0  0  0  0  0  0  0  0
    1.8774   -2.2823   -1.5095 O   0  0  0  0  0  0  0  0  0  0  0  0
   -4.6438    0.3675    1.0565 O   0  0  0  0  0  0  0  0  0  0  0  0
    0.6235    2.8390   -1.4204 O   0  0  0  0  0  0  0  0  0  0  0  0
   -1.5120    3.6154   -0.2284 O   0  0  0  0  0  0  0  0  0  0  0  0
    4.5715    1.4256    1.5619 O   0  0  0  0  0  0  0  0  0  0  0  0
    5.0994   -1.2915    1.7952 O   0  0  0  0  0  0  0  0  0  0  0  0
    1.1402    0.5329   -1.8582 C   0  0  2  0  0  0  0  0  0  0  0  0
    0.2413   -0.6242   -2.2909 C   0  0  1  0  0  0  0  0  0  0  0  0
    2.1883    0.0630   -0.8757 C   0  0  0  0  0  0  0  0  0  0  0  0
    1.1157   -1.8251   -2.6323 C   0  0  0  0  0  0  0  0  0  0  0  0
    0.2699    1.6654   -1.3626 C   0  0  0  0  0  0  0  0  0  0  0  0
   -1.0336    1.3020   -0.7700 C   0  0  0  0  0  0  0  0  0  0  0  0
   -1.4307   -0.0378   -0.7354 C   0  0  0  0  0  0  0  0  0  0  0  0
    2.4955   -1.3033   -0.7752 C   0  0  0  0  0  0  0  0  0  0  0  0
   -2.6403   -0.3971   -0.1130 C   0  0  0  0  0  0  0  0  0  0  0  0
   -3.4476    0.6037    0.4387 C   0  0  0  0  0  0  0  0  0  0  0  0
   -5.1225   -0.9867    1.1808 C   0  0  0  0  0  0  0  0  0  0  0  0
    2.9173    0.9690   -0.0898 C   0  0  0  0  0  0  0  0  0  0  0  0
   -1.8465    2.2946   -0.2194 C   0  0  0  0  0  0  0  0  0  0  0  0
   -3.0535    1.9429    0.3800 C   0  0  0  0  0  0  0  0  0  0  0  0
   -3.0861   -1.7830   -0.0325 C   0  0  0  0  0  0  0  0  0  0  0  0
    3.4617   -1.7520    0.1314 C   0  0  0  0  0  0  0  0  0  0  0  0
   -4.2444   -2.0513    0.5730 C   0  0  0  0  0  0  0  0  0  0  0  0
    3.8899    0.5198    0.8061 C   0  0  0  0  0  0  0  0  0  0  0  0
    4.1572   -0.8407    0.9216 C   0  0  0  0  0  0  0  0  0  0  0  0
   -6.4987   -1.0204    0.5055 C   0  0  0  0  0  0  0  0  0  0  0  0
   -5.2779   -1.2548    2.6825 C   0  0  0  0  0  0  0  0  0  0  0  0
    4.0142    1.7604    2.8313 C   0  0  0  0  0  0  0  0  0  0  0  0
    6.4343   -1.4089    1.3059 C   0  0  0  0  0  0  0  0  0  0  0  0
    1.6685    0.8978   -2.7503 H   0  0  0  0  0  0  0  0  0  0  0  0
   -0.3534   -0.3463   -3.1717 H   0  0  0  0  0  0  0  0  0  0  0  0
    0.4853   -2.6667   -2.9399 H   0  0  0  0  0  0  0  0  0  0  0  0
    1.8007   -1.6031   -3.4595 H   0  0  0  0  0  0  0  0  0  0  0  0
    2.7363    2.0378   -0.1690 H   0  0  0  0  0  0  0  0  0  0  0  0
   -3.6882    2.7140    0.8114 H   0  0  0  0  0  0  0  0  0  0  0  0
   -2.4855   -2.5789   -0.4560 H   0  0  0  0  0  0  0  0  0  0  0  0
    3.6768   -2.8149    0.2146 H   0  0  0  0  0  0  0  0  0  0  0  0
   -4.5753   -3.0853    0.6348 H   0  0  0  0  0  0  0  0  0  0  0  0
   -7.1631   -0.2612    0.9348 H   0  0  0  0  0  0  0  0  0  0  0  0
   -6.4151   -0.7872   -0.5629 H   0  0  0  0  0  0  0  0  0  0  0  0
   -6.9827   -1.9981    0.6071 H   0  0  0  0  0  0  0  0  0  0  0  0
   -5.9215   -0.5000    3.1494 H   0  0  0  0  0  0  0  0  0  0  0  0
   -5.7068   -2.2431    2.8814 H   0  0  0  0  0  0  0  0  0  0  0  0
   -4.3092   -1.1912    3.1928 H   0  0  0  0  0  0  0  0  0  0  0  0
   -0.6898    3.7585   -0.7205 H   0  0  0  0  0  0  0  0  0  0  0  0
    4.6728    2.4879    3.3135 H   0  0  0  0  0  0  0  0  0  0  0  0
    3.9465    0.8732    3.4687 H   0  0  0  0  0  0  0  0  0  0  0  0
    3.0244    2.2115    2.7085 H   0  0  0  0  0  0  0  0  0  0  0  0
    6.4785   -2.1280    0.4818 H   0  0  0  0  0  0  0  0  0  0  0  0
    7.0670   -1.7713    2.1208 H   0  0  0  0  0  0  0  0  0  0  0  0
    6.8111   -0.4355    0.9765 H   0  0  0  0  0  0  0  0  0  0  0  0
  1  9  1  0  0  0  0
  1 14  1  0  0  0  0
  2 11  1  0  0  0  0
  2 15  1  0  0  0  0
  3 17  1  0  0  0  0
  3 18  1  0  0  0  0
  4 12  2  0  0  0  0
  5 20  1  0  0  0  0
  5 46  1  0  0  0  0
  6 25  1  0  0  0  0
  6 29  1  0  0  0  0
  7 26  1  0  0  0  0
  7 30  1  0  0  0  0
  8  9  1  0  0  0  0
  8 10  1  0  0  0  0
  8 12  1  0  0  0  0
  8 31  1  0  0  0  0
  9 11  1  0  0  0  0
  9 32  1  0  0  0  0
 10 15  1  0  0  0  0
 10 19  2  0  0  0  0
 11 33  1  0  0  0  0
 11 34  1  0  0  0  0
 12 13  1  0  0  0  0
 13 14  2  0  0  0  0
 13 20  1  0  0  0  0
 14 16  1  0  0  0  0
 15 23  2  0  0  0  0
 16 17  2  0  0  0  0
 16 22  1  0  0  0  0
 17 21  1  0  0  0  0
 18 24  1  0  0  0  0
 18 27  1  0  0  0  0
 18 28  1  0  0  0  0
 19 25  1  0  0  0  0
 19 35  1  0  0  0  0
 20 21  2  0  0  0  0
 21 36  1  0  0  0  0
 22 24  2  0  0  0  0
 22 37  1  0  0  0  0
 23 26  1  0  0  0  0
 23 38  1  0  0  0  0
 24 39  1  0  0  0  0
 25 26  2  0  0  0  0
 27 40  1  0  0  0  0
 27 41  1  0  0  0  0
 27 42  1  0  0  0  0
 28 43  1  0  0  0  0
 28 44  1  0  0  0  0
 28 45  1  0  0  0  0
 29 47  1  0  0  0  0
 29 48  1  0  0  0  0
 29 49  1  0  0  0  0
 30 50  1  0  0  0  0
 30 51  1  0  0  0  0
 30 52  1  0  0  0  0
M  END
> <PUBCHEM_COMPOUND_CID>
442826

> <PUBCHEM_CONFORMER_RMSD>
0.8

> <PUBCHEM_CONFORMER_DIVERSEORDER>
2
1

> <PUBCHEM_MMFF94_PARTIAL_CHARGES>
34
1 -0.36
10 -0.14
11 0.28
12 0.42
13 0.09
14 0.08
15 0.08
16 0.03
17 0.08
18 0.42
19 -0.15
2 -0.36
20 0.08
21 -0.15
22 -0.18
23 -0.15
24 -0.29
25 0.08
26 0.08
29 0.28
3 -0.36
30 0.28
35 0.15
36 0.15
37 0.15
38 0.15
39 0.15
4 -0.57
46 0.45
5 -0.53
6 -0.36
7 -0.36
8 0.2
9 0.28

> <PUBCHEM_EFFECTIVE_ROTOR_COUNT>
3

> <PUBCHEM_PHARMACOPHORE_FEATURES>
13
1 1 acceptor
1 2 acceptor
1 3 acceptor
1 4 acceptor
1 5 donor
1 6 acceptor
1 7 acceptor
3 18 27 28 hydrophobe
6 1 8 9 12 13 14 rings
6 10 15 19 23 25 26 rings
6 13 14 16 17 20 21 rings
6 2 8 9 10 11 15 rings
6 3 16 17 18 22 24 rings

> <PUBCHEM_HEAVY_ATOM_COUNT>
30

> <PUBCHEM_ATOM_DEF_STEREO_COUNT>
2

> <PUBCHEM_ATOM_UDEF_STEREO_COUNT>
0

> <PUBCHEM_BOND_DEF_STEREO_COUNT>
0

> <PUBCHEM_BOND_UDEF_STEREO_COUNT>
0

> <PUBCHEM_ISOTOPIC_ATOM_COUNT>
0

> <PUBCHEM_COMPONENT_COUNT>
1

> <PUBCHEM_CACTVS_TAUTO_COUNT>
9

> <PUBCHEM_CONFORMER_ID>
0006C1CA00000002

> <PUBCHEM_MMFF94_ENERGY>
124.5048

> <PUBCHEM_FEATURE_SELFOVERLAP>
66.161

> <PUBCHEM_SHAPE_FINGERPRINT>
10165383 225 17604138234722697884
10319926 262 18265331905485423222
10674148 151 13398638272615105151
11115154 58 14620800409822103855
11720765 8 13110970794808849870
11796584 16 16917064417936688163
11961588 58 7204772579475163885
12422481 6 18334012800250180297
12553582 1 18266156389071914743
12633257 1 17676494916854703530
12788726 201 18199727237790187581
12892183 10 18411144653567395728
12895836 83 7060369323584689531
12895837 130 5544328666866801058
13583140 156 18262534704843457100
13692114 37 17835505391776645657
13828863 39 17023752186667989224
14178342 30 18199462345386567615
14537116 161 11671791425616514675
14705955 166 18187645868327447577
14848178 5 17131832045295765163
14950920 106 18336277798741219786
15064986 96 17605562269795429278
15183329 4 13110969738489273127
15238133 3 16009036038857391442
15475509 35 17127867090955743979
16708801 149 5180447260950335859
17349148 13 17060327535697811763
17980427 26 16252819026170156724
1813 80 17060338513322834717
19315092 285 16271665407479565768
19784866 240 16774075176637852823
1979834 28 18115007659378416503
20567600 234 17240481382427842211
20626108 58 16630520722122253407
20775438 99 13036917454090769553
21033648 29 17676761088957903317
21304304 249 18272369771624254387
21421861 104 18199445715568765333
21458453 9 18042975272034063923
21756936 100 14562826442764822926
21792934 111 18336534011548190873
22122407 14 16733272356066342937
23559900 14 18118376623166606703
25222932 49 17482524427270727331
2838139 119 13840269199601559042
3380486 145 18265919989381804653
3729539 64 11023842690205668569
3886686 26 17479744157353308923
392239 28 17749112179396041259
394222 165 17764287471442801725
4098825 35 8286190682759842672
463206 1 14548740573362743881
474 4 14707204409708282857
484985 159 16699230457999156354
49207404 50 18040713718364986020
50009960 94 17626674795677374467
5104073 3 18115294722186382515
5252454 2 17387712521985067432
6823239 73 18117529977326997566
7970288 3 17418094351426550946
960060 61 13398626130415465787
9841814 1 18127949976235813597

> <PUBCHEM_SHAPE_MULTIPOLES>
576.3
12.6
2.85
2.38
2.46
1.61
-0.33
-6.07
-11.52
0.21
0.3
-1.51
-0.34
1.37

> <PUBCHEM_SHAPE_SELFOVERLAP>
1290.288

> <PUBCHEM_SHAPE_VOLUME>
304.2

> <PUBCHEM_COORDINATE_TYPE>
2
5
10

$$$$

