5283882
  -OEChem-07051213103D

 69 72  0     1  0  0  0  0  0999 V2000
    1.9322    0.5794    2.4814 O   0  0  0  0  0  0  0  0  0  0  0  0
    5.2838    3.3049    0.0560 O   0  0  0  0  0  0  0  0  0  0  0  0
   -5.0505   -0.9451    0.8429 O   0  0  0  0  0  0  0  0  0  0  0  0
   -6.1553    3.0023    0.3082 O   0  0  0  0  0  0  0  0  0  0  0  0
   -7.1266    0.9547    0.5124 O   0  0  0  0  0  0  0  0  0  0  0  0
   -0.0520   -0.5842    0.7682 C   0  0  2  0  0  0  0  0  0  0  0  0
   -0.8389   -0.9181   -0.5171 C   0  0  1  0  0  0  0  0  0  0  0  0
    1.4262   -0.9950    0.6940 C   0  0  1  0  0  0  0  0  0  0  0  0
    2.0948   -0.2392   -0.5040 C   0  0  1  0  0  0  0  0  0  0  0  0
    3.6205   -0.6088   -0.6486 C   0  0  2  0  0  0  0  0  0  0  0  0
   -2.2466   -0.4473   -0.0756 C   0  0  2  0  0  0  0  0  0  0  0  0
    4.3542   -0.3137    0.7021 C   0  0  2  0  0  0  0  0  0  0  0  0
   -0.2212   -0.1063   -1.6623 C   0  0  0  0  0  0  0  0  0  0  0  0
    1.2816   -0.3978   -1.8192 C   0  0  0  0  0  0  0  0  0  0  0  0
    2.1702   -0.7469    2.0198 C   0  0  1  0  0  0  0  0  0  0  0  0
   -0.9214   -1.1637    1.8808 C   0  0  0  0  0  0  0  0  0  0  0  0
   -2.3625   -0.9561    1.3801 C   0  0  0  0  0  0  0  0  0  0  0  0
    3.6753   -1.0035    1.9028 C   0  0  0  0  0  0  0  0  0  0  0  0
    4.3257    0.1895   -1.7849 C   0  0  0  0  0  0  0  0  0  0  0  0
   -0.8449   -2.4224   -0.8863 C   0  0  0  0  0  0  0  0  0  0  0  0
   -3.4158   -0.8795   -0.9487 C   0  0  1  0  0  0  0  0  0  0  0  0
    4.5476    1.1952    0.9633 C   0  0  0  0  0  0  0  0  0  0  0  0
    3.8020   -2.1073   -1.0114 C   0  0  0  0  0  0  0  0  0  0  0  0
    4.4735    1.6778   -1.5001 C   0  0  0  0  0  0  0  0  0  0  0  0
    5.2323    1.9053   -0.2002 C   0  0  1  0  0  0  0  0  0  0  0  0
   -4.7885   -0.3726   -0.4390 C   0  0  2  0  0  0  0  0  0  0  0  0
   -3.1846   -0.4063   -2.3917 C   0  0  0  0  0  0  0  0  0  0  0  0
   -4.8419    1.1566   -0.3264 C   0  0  0  0  0  0  0  0  0  0  0  0
   -6.1696    1.6483    0.2035 C   0  0  0  0  0  0  0  0  0  0  0  0
   -0.0750    0.5103    0.8990 H   0  0  0  0  0  0  0  0  0  0  0  0
    1.4770   -2.0724    0.5083 H   0  0  0  0  0  0  0  0  0  0  0  0
    2.0367    0.8312   -0.2635 H   0  0  0  0  0  0  0  0  0  0  0  0
   -2.2151    0.6501   -0.0368 H   0  0  0  0  0  0  0  0  0  0  0  0
    5.3676   -0.7368    0.6331 H   0  0  0  0  0  0  0  0  0  0  0  0
   -0.3517    0.9683   -1.4810 H   0  0  0  0  0  0  0  0  0  0  0  0
   -0.6740   -0.3184   -2.6309 H   0  0  0  0  0  0  0  0  0  0  0  0
    1.4075   -1.4055   -2.2266 H   0  0  0  0  0  0  0  0  0  0  0  0
    1.6678    0.2918   -2.5779 H   0  0  0  0  0  0  0  0  0  0  0  0
    1.7782   -1.4207    2.7916 H   0  0  0  0  0  0  0  0  0  0  0  0
   -0.7634   -0.6614    2.8399 H   0  0  0  0  0  0  0  0  0  0  0  0
   -0.7190   -2.2302    2.0313 H   0  0  0  0  0  0  0  0  0  0  0  0
   -2.8875   -1.9145    1.4527 H   0  0  0  0  0  0  0  0  0  0  0  0
   -2.8820   -0.2271    2.0113 H   0  0  0  0  0  0  0  0  0  0  0  0
    3.8388   -2.0853    1.8254 H   0  0  0  0  0  0  0  0  0  0  0  0
    4.1724   -0.6828    2.8272 H   0  0  0  0  0  0  0  0  0  0  0  0
    3.8138    0.0495   -2.7430 H   0  0  0  0  0  0  0  0  0  0  0  0
    5.3347   -0.2204   -1.9355 H   0  0  0  0  0  0  0  0  0  0  0  0
    0.1627   -2.8289   -1.0082 H   0  0  0  0  0  0  0  0  0  0  0  0
   -1.3389   -3.0361   -0.1264 H   0  0  0  0  0  0  0  0  0  0  0  0
   -1.3604   -2.6057   -1.8335 H   0  0  0  0  0  0  0  0  0  0  0  0
   -3.4784   -1.9755   -0.9566 H   0  0  0  0  0  0  0  0  0  0  0  0
    3.5953    1.6957    1.1633 H   0  0  0  0  0  0  0  0  0  0  0  0
    5.1452    1.3436    1.8721 H   0  0  0  0  0  0  0  0  0  0  0  0
    4.8653   -2.3753   -1.0331 H   0  0  0  0  0  0  0  0  0  0  0  0
    3.3223   -2.7833   -0.3001 H   0  0  0  0  0  0  0  0  0  0  0  0
    3.3998   -2.3329   -2.0043 H   0  0  0  0  0  0  0  0  0  0  0  0
    5.0108    2.1622   -2.3249 H   0  0  0  0  0  0  0  0  0  0  0  0
    3.4924    2.1665   -1.4665 H   0  0  0  0  0  0  0  0  0  0  0  0
    6.2642    1.5501   -0.2992 H   0  0  0  0  0  0  0  0  0  0  0  0
   -5.5869   -0.7159   -1.1084 H   0  0  0  0  0  0  0  0  0  0  0  0
    1.0358    0.6169    2.8526 H   0  0  0  0  0  0  0  0  0  0  0  0
   -2.5257   -1.0822   -2.9398 H   0  0  0  0  0  0  0  0  0  0  0  0
   -4.1281   -0.4226   -2.9510 H   0  0  0  0  0  0  0  0  0  0  0  0
   -2.8022    0.6177   -2.4443 H   0  0  0  0  0  0  0  0  0  0  0  0
   -4.6732    1.6249   -1.3009 H   0  0  0  0  0  0  0  0  0  0  0  0
   -4.0973    1.5164    0.3910 H   0  0  0  0  0  0  0  0  0  0  0  0
    4.3717    3.6287    0.1496 H   0  0  0  0  0  0  0  0  0  0  0  0
   -5.1199   -1.9077    0.7227 H   0  0  0  0  0  0  0  0  0  0  0  0
   -7.0036    3.3510    0.6563 H   0  0  0  0  0  0  0  0  0  0  0  0
  1 15  1  0  0  0  0
  1 61  1  0  0  0  0
  2 25  1  0  0  0  0
  2 67  1  0  0  0  0
  3 26  1  0  0  0  0
  3 68  1  0  0  0  0
  4 29  1  0  0  0  0
  4 69  1  0  0  0  0
  5 29  2  0  0  0  0
  6  7  1  0  0  0  0
  6  8  1  0  0  0  0
  6 16  1  0  0  0  0
  6 30  1  0  0  0  0
  7 11  1  0  0  0  0
  7 13  1  0  0  0  0
  7 20  1  0  0  0  0
  8  9  1  0  0  0  0
  8 15  1  0  0  0  0
  8 31  1  0  0  0  0
  9 10  1  0  0  0  0
  9 14  1  0  0  0  0
  9 32  1  0  0  0  0
 10 12  1  0  0  0  0
 10 19  1  0  0  0  0
 10 23  1  0  0  0  0
 11 17  1  0  0  0  0
 11 21  1  0  0  0  0
 11 33  1  0  0  0  0
 12 18  1  0  0  0  0
 12 22  1  0  0  0  0
 12 34  1  0  0  0  0
 13 14  1  0  0  0  0
 13 35  1  0  0  0  0
 13 36  1  0  0  0  0
 14 37  1  0  0  0  0
 14 38  1  0  0  0  0
 15 18  1  0  0  0  0
 15 39  1  0  0  0  0
 16 17  1  0  0  0  0
 16 40  1  0  0  0  0
 16 41  1  0  0  0  0
 17 42  1  0  0  0  0
 17 43  1  0  0  0  0
 18 44  1  0  0  0  0
 18 45  1  0  0  0  0
 19 24  1  0  0  0  0
 19 46  1  0  0  0  0
 19 47  1  0  0  0  0
 20 48  1  0  0  0  0
 20 49  1  0  0  0  0
 20 50  1  0  0  0  0
 21 26  1  0  0  0  0
 21 27  1  0  0  0  0
 21 51  1  0  0  0  0
 22 25  1  0  0  0  0
 22 52  1  0  0  0  0
 22 53  1  0  0  0  0
 23 54  1  0  0  0  0
 23 55  1  0  0  0  0
 23 56  1  0  0  0  0
 24 25  1  0  0  0  0
 24 57  1  0  0  0  0
 24 58  1  0  0  0  0
 25 59  1  0  0  0  0
 26 28  1  0  0  0  0
 26 60  1  0  0  0  0
 27 62  1  0  0  0  0
 27 63  1  0  0  0  0
 27 64  1  0  0  0  0
 28 29  1  0  0  0  0
 28 65  1  0  0  0  0
 28 66  1  0  0  0  0
M  END
> <PUBCHEM_COMPOUND_CID>
5283882

> <PUBCHEM_CONFORMER_RMSD>
0.8

> <PUBCHEM_CONFORMER_DIVERSEORDER>
3
9
6
7
5
8
2
4
1

> <PUBCHEM_MMFF94_PARTIAL_CHARGES>
14
1 -0.68
15 0.28
2 -0.68
25 0.28
26 0.28
28 0.06
29 0.66
3 -0.68
4 -0.65
5 -0.57
61 0.4
67 0.4
68 0.4
69 0.5

> <PUBCHEM_EFFECTIVE_ROTOR_COUNT>
6.2

> <PUBCHEM_PHARMACOPHORE_FEATURES>
14
1 1 acceptor
1 1 donor
1 2 acceptor
1 2 donor
1 27 hydrophobe
1 3 acceptor
1 3 donor
1 4 acceptor
1 5 acceptor
3 4 5 29 anion
5 6 7 11 16 17 rings
6 10 12 19 22 24 25 rings
6 6 7 8 9 13 14 rings
6 8 9 10 12 15 18 rings

> <PUBCHEM_HEAVY_ATOM_COUNT>
29

> <PUBCHEM_ATOM_DEF_STEREO_COUNT>
11

> <PUBCHEM_ATOM_UDEF_STEREO_COUNT>
0

> <PUBCHEM_BOND_DEF_STEREO_COUNT>
0

> <PUBCHEM_BOND_UDEF_STEREO_COUNT>
0

> <PUBCHEM_ISOTOPIC_ATOM_COUNT>
0

> <PUBCHEM_COMPONENT_COUNT>
1

> <PUBCHEM_CACTVS_TAUTO_COUNT>
1

> <PUBCHEM_CONFORMER_ID>
0050A02A00000003

> <PUBCHEM_MMFF94_ENERGY>
104.684

> <PUBCHEM_FEATURE_SELFOVERLAP>
71.224

> <PUBCHEM_SHAPE_FINGERPRINT>
10 15 15267059220569993125
10554248 39 17531813579370262061
10674148 151 17917417728308142844
10693767 8 5112013794006292100
11135609 201 18272376321628365129
11135609 99 10087640386616830008
11578080 2 18058724694197158792
11763715 3 9222951555309964410
12011746 2 16153422827379009322
12236239 1 18060136553269259215
12422481 6 15410633466379080490
12596602 18 18131069320825540969
12633257 1 15697995193626499135
12788726 201 17531240694761865632
12892183 10 15267070293386182479
13140716 1 15911908415100009902
13224815 77 16128381428745494498
13533116 47 17775288313117409722
13690498 29 16372141988323479351
13955234 65 17631463409133573170
14341114 328 17989202690284898581
14739800 52 18271536316372763344
15163728 17 18260542368431037185
15183329 4 15647053785462633963
15188451 53 11095882653629400705
15238133 3 18114476595372477018
15475509 35 11312060928695652684
15840311 113 18202282546063557645
16752209 62 15140948565833303718
17349148 13 11527946793955706551
17980427 23 18202280287063435751
18222031 100 6194842574798015458
19377110 9 16415479342174502481
1979834 28 16343703252877577602
200 152 5328742980891314935
20567600 247 8286209352856539212
21033648 29 18259992547992154195
21267235 1 15841554136620488890
21521239 73 5184056025478620253
21623969 137 14405179582244464001
21641784 216 16370994235396506025
21792934 111 16056614178944302503
22122407 14 18339917126131430281
221357 26 14562524085440568546
22149856 69 16343694487545691017
2215653 11 14562527371011343885
22393880 68 15792025428213199407
23559900 14 14779551136829283194
23569914 152 4819872322336157289
23569914 2 17906781073411001637
2838139 119 18408610235968026813
29717793 49 5906047041348496819
3004659 81 17458622367533154198
3472631 163 18409449163302739405
34797466 226 18188198815133029231
3680242 22 16486980574728564492
392239 28 16630532790943509637
4340502 62 16559030488953231547
465052 167 12031789162942090796
5104073 3 15841005480302300349
633830 44 18411706508098844183
7970288 3 10230940853687924548
960060 61 16298379133407924244

> <PUBCHEM_SHAPE_MULTIPOLES>
567.46
14.48
2.27
2.12
15.37
1.44
0.05
10.63
-2.05
-0.81
-0.35
-0.91
-0.41
-0.69

> <PUBCHEM_SHAPE_SELFOVERLAP>
1192.33

> <PUBCHEM_SHAPE_VOLUME>
317.4

> <PUBCHEM_COORDINATE_TYPE>
2
5
10

$$$$

