23724608
  -OEChem-07051213083D

100100  0     1  0  0  0  0  0999 V2000
  -15.9480   -2.0381    0.3984 O   0  0  0  0  0  0  0  0  0  0  0  0
  -13.3718   -2.9161    0.6627 O   0  0  0  0  0  0  0  0  0  0  0  0
   17.3618   -0.2674    0.9957 O   0  0  0  0  0  0  0  0  0  0  0  0
   16.5597    0.5172   -1.6664 O   0  0  0  0  0  0  0  0  0  0  0  0
  -13.4830    0.8261    0.7673 C   0  0  0  0  0  0  0  0  0  0  0  0
  -14.5843   -0.1965    1.1597 C   0  0  0  0  0  0  0  0  0  0  0  0
  -14.9045   -1.1480    0.0167 C   0  0  1  0  0  0  0  0  0  0  0  0
  -12.3324    0.1634   -0.0317 C   0  0  0  0  0  0  0  0  0  0  0  0
  -13.6603   -1.9522   -0.3538 C   0  0  1  0  0  0  0  0  0  0  0  0
  -12.4187   -1.0978   -0.5281 C   0  0  0  0  0  0  0  0  0  0  0  0
  -14.1281    1.9423   -0.0876 C   0  0  0  0  0  0  0  0  0  0  0  0
  -12.9836    1.4496    2.0932 C   0  0  0  0  0  0  0  0  0  0  0  0
  -11.1478    0.9864   -0.2109 C   0  0  0  0  0  0  0  0  0  0  0  0
  -11.3380   -1.8156   -1.3066 C   0  0  0  0  0  0  0  0  0  0  0  0
   -9.8984    0.5030   -0.1246 C   0  0  0  0  0  0  0  0  0  0  0  0
   -8.6610    1.2665   -0.2865 C   0  0  0  0  0  0  0  0  0  0  0  0
   -8.7807    2.7497   -0.5443 C   0  0  0  0  0  0  0  0  0  0  0  0
   -7.4292    0.7227   -0.1881 C   0  0  0  0  0  0  0  0  0  0  0  0
   -6.1373    1.3651   -0.3263 C   0  0  0  0  0  0  0  0  0  0  0  0
   -4.9585    0.7310   -0.2095 C   0  0  0  0  0  0  0  0  0  0  0  0
   16.7348    0.9918    0.7245 C   0  0  0  0  0  0  0  0  0  0  0  0
   15.7969    0.8327   -0.5031 C   0  0  2  0  0  0  0  0  0  0  0  0
   15.9998    1.4128    2.0020 C   0  0  0  0  0  0  0  0  0  0  0  0
   17.8516    2.0033    0.4314 C   0  0  0  0  0  0  0  0  0  0  0  0
   -3.6253    1.3210   -0.3695 C   0  0  0  0  0  0  0  0  0  0  0  0
   14.6675   -0.1538   -0.2843 C   0  0  0  0  0  0  0  0  0  0  0  0
   -3.5570    2.7920   -0.6955 C   0  0  0  0  0  0  0  0  0  0  0  0
   13.3513    0.1167   -0.3293 C   0  0  0  0  0  0  0  0  0  0  0  0
   -2.5497    0.5193   -0.2131 C   0  0  0  0  0  0  0  0  0  0  0  0
   12.2514   -0.8325   -0.1226 C   0  0  0  0  0  0  0  0  0  0  0  0
   -1.1499    0.8815   -0.3198 C   0  0  0  0  0  0  0  0  0  0  0  0
   12.6213   -2.2645    0.1736 C   0  0  0  0  0  0  0  0  0  0  0  0
   10.9851   -0.3699   -0.2079 C   0  0  0  0  0  0  0  0  0  0  0  0
    9.7526   -1.1179   -0.0422 C   0  0  0  0  0  0  0  0  0  0  0  0
   -0.1571   -0.0058   -0.1428 C   0  0  0  0  0  0  0  0  0  0  0  0
    8.5401   -0.5469   -0.1505 C   0  0  0  0  0  0  0  0  0  0  0  0
    1.2448    0.3488   -0.2518 C   0  0  0  0  0  0  0  0  0  0  0  0
    7.2396   -1.2104   -0.0030 C   0  0  0  0  0  0  0  0  0  0  0  0
    2.3077   -0.4653   -0.0928 C   0  0  0  0  0  0  0  0  0  0  0  0
    6.1225   -0.4653   -0.1480 C   0  0  0  0  0  0  0  0  0  0  0  0
    7.2485   -2.6882    0.2996 C   0  0  0  0  0  0  0  0  0  0  0  0
    3.7039   -0.0719   -0.2102 C   0  0  0  0  0  0  0  0  0  0  0  0
    4.7452   -0.9048   -0.0464 C   0  0  0  0  0  0  0  0  0  0  0  0
    2.1184   -1.9142    0.2726 C   0  0  0  0  0  0  0  0  0  0  0  0
  -14.2712   -0.7832    2.0352 H   0  0  0  0  0  0  0  0  0  0  0  0
  -15.4988    0.3189    1.4825 H   0  0  0  0  0  0  0  0  0  0  0  0
  -15.2572   -0.5892   -0.8577 H   0  0  0  0  0  0  0  0  0  0  0  0
  -13.8789   -2.5120   -1.2711 H   0  0  0  0  0  0  0  0  0  0  0  0
  -15.0177    2.3517    0.4053 H   0  0  0  0  0  0  0  0  0  0  0  0
  -13.4440    2.7823   -0.2500 H   0  0  0  0  0  0  0  0  0  0  0  0
  -14.4345    1.5741   -1.0729 H   0  0  0  0  0  0  0  0  0  0  0  0
  -12.2952    2.2847    1.9215 H   0  0  0  0  0  0  0  0  0  0  0  0
  -13.8207    1.8413    2.6831 H   0  0  0  0  0  0  0  0  0  0  0  0
  -12.4603    0.7074    2.7074 H   0  0  0  0  0  0  0  0  0  0  0  0
  -11.3221    2.0302   -0.4491 H   0  0  0  0  0  0  0  0  0  0  0  0
  -11.7853   -2.4865   -2.0498 H   0  0  0  0  0  0  0  0  0  0  0  0
  -10.7038   -1.1456   -1.8922 H   0  0  0  0  0  0  0  0  0  0  0  0
  -10.7260   -2.4323   -0.6412 H   0  0  0  0  0  0  0  0  0  0  0  0
  -16.7243   -1.4987    0.6268 H   0  0  0  0  0  0  0  0  0  0  0  0
  -14.1754   -3.4475    0.7951 H   0  0  0  0  0  0  0  0  0  0  0  0
   -9.7306   -0.5315    0.1643 H   0  0  0  0  0  0  0  0  0  0  0  0
   -9.2719    2.9225   -1.5092 H   0  0  0  0  0  0  0  0  0  0  0  0
   -7.8516    3.3177   -0.5640 H   0  0  0  0  0  0  0  0  0  0  0  0
   -9.3888    3.2188    0.2387 H   0  0  0  0  0  0  0  0  0  0  0  0
   -7.3719   -0.3477    0.0148 H   0  0  0  0  0  0  0  0  0  0  0  0
   -6.1237    2.4208   -0.5611 H   0  0  0  0  0  0  0  0  0  0  0  0
   -4.9769   -0.3346    0.0193 H   0  0  0  0  0  0  0  0  0  0  0  0
   15.3421    1.8131   -0.7025 H   0  0  0  0  0  0  0  0  0  0  0  0
   16.7009    1.5233    2.8375 H   0  0  0  0  0  0  0  0  0  0  0  0
   15.4719    2.3621    1.8655 H   0  0  0  0  0  0  0  0  0  0  0  0
   15.2770    0.6521    2.3165 H   0  0  0  0  0  0  0  0  0  0  0  0
   17.4451    2.9848    0.1668 H   0  0  0  0  0  0  0  0  0  0  0  0
   18.5025    2.1252    1.3054 H   0  0  0  0  0  0  0  0  0  0  0  0
   18.5064    1.6623   -0.3780 H   0  0  0  0  0  0  0  0  0  0  0  0
   14.9989   -1.1712   -0.0891 H   0  0  0  0  0  0  0  0  0  0  0  0
   17.8156   -0.5535    0.1844 H   0  0  0  0  0  0  0  0  0  0  0  0
   16.9876    1.3343   -1.9737 H   0  0  0  0  0  0  0  0  0  0  0  0
   -2.5391    3.1729   -0.8011 H   0  0  0  0  0  0  0  0  0  0  0  0
   -4.0296    3.3837    0.0966 H   0  0  0  0  0  0  0  0  0  0  0  0
   -4.0663    2.9997   -1.6432 H   0  0  0  0  0  0  0  0  0  0  0  0
   13.0617    1.1461   -0.5363 H   0  0  0  0  0  0  0  0  0  0  0  0
   -2.7201   -0.5319    0.0235 H   0  0  0  0  0  0  0  0  0  0  0  0
   13.1990   -2.6903   -0.6545 H   0  0  0  0  0  0  0  0  0  0  0  0
   11.7621   -2.9213    0.3229 H   0  0  0  0  0  0  0  0  0  0  0  0
   13.2213   -2.3241    1.0887 H   0  0  0  0  0  0  0  0  0  0  0  0
   -0.8999    1.9112   -0.5516 H   0  0  0  0  0  0  0  0  0  0  0  0
   10.8366    0.6884   -0.4271 H   0  0  0  0  0  0  0  0  0  0  0  0
    9.8321   -2.1757    0.1758 H   0  0  0  0  0  0  0  0  0  0  0  0
   -0.4290   -1.0293    0.0846 H   0  0  0  0  0  0  0  0  0  0  0  0
    8.4967    0.5199   -0.3708 H   0  0  0  0  0  0  0  0  0  0  0  0
    1.4405    1.3922   -0.4991 H   0  0  0  0  0  0  0  0  0  0  0  0
    6.2344    0.5972   -0.3679 H   0  0  0  0  0  0  0  0  0  0  0  0
    7.7577   -3.2393   -0.4992 H   0  0  0  0  0  0  0  0  0  0  0  0
    7.7671   -2.8818    1.2455 H   0  0  0  0  0  0  0  0  0  0  0  0
    6.2552   -3.1302    0.3951 H   0  0  0  0  0  0  0  0  0  0  0  0
    3.8826    0.9770   -0.4389 H   0  0  0  0  0  0  0  0  0  0  0  0
    4.5939   -1.9517    0.1786 H   0  0  0  0  0  0  0  0  0  0  0  0
    1.0847   -2.2339    0.4051 H   0  0  0  0  0  0  0  0  0  0  0  0
    2.6086   -2.1441    1.2266 H   0  0  0  0  0  0  0  0  0  0  0  0
    2.5252   -2.5682   -0.5083 H   0  0  0  0  0  0  0  0  0  0  0  0
  1  7  1  0  0  0  0
  1 59  1  0  0  0  0
  2  9  1  0  0  0  0
  2 60  1  0  0  0  0
  3 21  1  0  0  0  0
  3 76  1  0  0  0  0
  4 22  1  0  0  0  0
  4 77  1  0  0  0  0
  5  6  1  0  0  0  0
  5  8  1  0  0  0  0
  5 11  1  0  0  0  0
  5 12  1  0  0  0  0
  6  7  1  0  0  0  0
  6 45  1  0  0  0  0
  6 46  1  0  0  0  0
  7  9  1  0  0  0  0
  7 47  1  0  0  0  0
  8 10  2  0  0  0  0
  8 13  1  0  0  0  0
  9 10  1  0  0  0  0
  9 48  1  0  0  0  0
 10 14  1  0  0  0  0
 11 49  1  0  0  0  0
 11 50  1  0  0  0  0
 11 51  1  0  0  0  0
 12 52  1  0  0  0  0
 12 53  1  0  0  0  0
 12 54  1  0  0  0  0
 13 15  2  0  0  0  0
 13 55  1  0  0  0  0
 14 56  1  0  0  0  0
 14 57  1  0  0  0  0
 14 58  1  0  0  0  0
 15 16  1  0  0  0  0
 15 61  1  0  0  0  0
 16 17  1  0  0  0  0
 16 18  2  0  0  0  0
 17 62  1  0  0  0  0
 17 63  1  0  0  0  0
 17 64  1  0  0  0  0
 18 19  1  0  0  0  0
 18 65  1  0  0  0  0
 19 20  2  0  0  0  0
 19 66  1  0  0  0  0
 20 25  1  0  0  0  0
 20 67  1  0  0  0  0
 21 22  1  0  0  0  0
 21 23  1  0  0  0  0
 21 24  1  0  0  0  0
 22 26  1  0  0  0  0
 22 68  1  0  0  0  0
 23 69  1  0  0  0  0
 23 70  1  0  0  0  0
 23 71  1  0  0  0  0
 24 72  1  0  0  0  0
 24 73  1  0  0  0  0
 24 74  1  0  0  0  0
 25 27  1  0  0  0  0
 25 29  2  0  0  0  0
 26 28  2  0  0  0  0
 26 75  1  0  0  0  0
 27 78  1  0  0  0  0
 27 79  1  0  0  0  0
 27 80  1  0  0  0  0
 28 30  1  0  0  0  0
 28 81  1  0  0  0  0
 29 31  1  0  0  0  0
 29 82  1  0  0  0  0
 30 32  1  0  0  0  0
 30 33  2  0  0  0  0
 31 35  2  0  0  0  0
 31 86  1  0  0  0  0
 32 83  1  0  0  0  0
 32 84  1  0  0  0  0
 32 85  1  0  0  0  0
 33 34  1  0  0  0  0
 33 87  1  0  0  0  0
 34 36  2  0  0  0  0
 34 88  1  0  0  0  0
 35 37  1  0  0  0  0
 35 89  1  0  0  0  0
 36 38  1  0  0  0  0
 36 90  1  0  0  0  0
 37 39  2  0  0  0  0
 37 91  1  0  0  0  0
 38 40  2  0  0  0  0
 38 41  1  0  0  0  0
 39 42  1  0  0  0  0
 39 44  1  0  0  0  0
 40 43  1  0  0  0  0
 40 92  1  0  0  0  0
 41 93  1  0  0  0  0
 41 94  1  0  0  0  0
 41 95  1  0  0  0  0
 42 43  2  0  0  0  0
 42 96  1  0  0  0  0
 43 97  1  0  0  0  0
 44 98  1  0  0  0  0
 44 99  1  0  0  0  0
 44100  1  0  0  0  0
M  END
> <PUBCHEM_COMPOUND_CID>
23724608

> <PUBCHEM_CONFORMER_RMSD>
1.4

> <PUBCHEM_CONFORMER_DIVERSEORDER>
1
27
4
40
18
60
45
23
89
43
10
66
96
2
3
69
31
76
25
54
77
61
5
37
15
49
83
50
13
51
38
12
48
85
7
97
63
58
70
35
32
91
39
53
73
30
6
82
88
21
22
55
8
95
20
72
14
36
44
26
41
93
56
19
94
28
17
71
84
34
65
11
81
29
24
68
42
67
78
33
9
62
16
52
80
75
47
46
57
74
59
87
79
90
64
92
86

> <PUBCHEM_MMFF94_PARTIAL_CHARGES>
60
1 -0.68
10 -0.28
13 -0.15
14 0.14
15 -0.15
16 -0.14
17 0.14
18 -0.15
19 -0.15
2 -0.68
20 -0.15
21 0.28
22 0.42
25 -0.14
26 -0.29
27 0.14
28 -0.15
29 -0.15
3 -0.68
30 -0.14
31 -0.15
32 0.14
33 -0.15
34 -0.15
35 -0.15
36 -0.15
37 -0.15
38 -0.14
39 -0.14
4 -0.68
40 -0.15
41 0.14
42 -0.15
43 -0.15
44 0.14
5 0.14
55 0.15
59 0.4
60 0.4
61 0.15
65 0.15
66 0.15
67 0.15
7 0.28
75 0.15
76 0.4
77 0.4
8 -0.14
81 0.15
82 0.15
86 0.15
87 0.15
88 0.15
89 0.15
9 0.42
90 0.15
91 0.15
92 0.15
96 0.15
97 0.15

> <PUBCHEM_EFFECTIVE_ROTOR_COUNT>
13.8

> <PUBCHEM_PHARMACOPHORE_FEATURES>
16
1 1 acceptor
1 1 donor
1 17 hydrophobe
1 2 acceptor
1 2 donor
1 27 hydrophobe
1 3 acceptor
1 3 donor
1 32 hydrophobe
1 4 acceptor
1 4 donor
1 41 hydrophobe
1 44 hydrophobe
3 21 23 24 hydrophobe
3 5 11 12 hydrophobe
6 5 6 7 8 9 10 rings

> <PUBCHEM_HEAVY_ATOM_COUNT>
44

> <PUBCHEM_ATOM_DEF_STEREO_COUNT>
2

> <PUBCHEM_ATOM_UDEF_STEREO_COUNT>
1

> <PUBCHEM_BOND_DEF_STEREO_COUNT>
11

> <PUBCHEM_BOND_UDEF_STEREO_COUNT>
0

> <PUBCHEM_ISOTOPIC_ATOM_COUNT>
0

> <PUBCHEM_COMPONENT_COUNT>
1

> <PUBCHEM_CACTVS_TAUTO_COUNT>
1

> <PUBCHEM_CONFORMER_ID>
016A024000000001

> <PUBCHEM_MMFF94_ENERGY>
115.1213

> <PUBCHEM_FEATURE_SELFOVERLAP>
81.206

> <PUBCHEM_SHAPE_FINGERPRINT>
12013929 2 10735871781739256965
12013929 94 18409729587109409431
12559415 90 10375866377279618646
14251920 1 18341612641943720381
14251920 17 18410576198420722124
15274700 256 18410012157203027925
15343295 20 18342738515780169721
15343295 29 9511462216926786563
20580484 106 12103845658122720063
21057603 130 17988925561884040799
232437 2 18413107278440417341
23528940 14 18260830360419496087
3092352 35 18273215335706773610
3991529 128 17676207983707750172
9663363 56 14692567727941033751

> <PUBCHEM_SHAPE_MULTIPOLES>
882.02
120.51
2.43
1.04
197.66
0.37
-0.31
-2.91
-20.7
-4.29
-0.06
0.11
-0.27
0.63

> <PUBCHEM_SHAPE_SELFOVERLAP>
1769.708

> <PUBCHEM_SHAPE_VOLUME>
517.7

> <PUBCHEM_COORDINATE_TYPE>
2
5
10

$$$$

