9543107
  -OEChem-07051213113D

 17 16  0     1  0  0  0  0  0999 V2000
    2.7146    1.7865    0.3865 Cl  0  0  0  0  0  0  0  0  0  0  0  0
   -1.2372    2.7900    0.3736 Cl  0  0  0  0  0  0  0  0  0  0  0  0
   -3.5025    0.4499    0.6166 Cl  0  0  0  0  0  0  0  0  0  0  0  0
    0.6456    0.8839   -1.7358 O   0  0  0  0  0  0  0  0  0  0  0  0
    2.6835   -1.3261    1.4277 O   0  0  0  0  0  0  0  0  0  0  0  0
    2.2552   -1.3828   -0.7991 O   0  0  0  0  0  0  0  0  0  0  0  0
   -2.3754   -2.0869    0.5682 O   0  0  0  0  0  0  0  0  0  0  0  0
   -0.8108   -1.6540   -1.0305 O   0  0  0  0  0  0  0  0  0  0  0  0
    1.4775    0.5102    0.4997 C   0  0  1  0  0  0  0  0  0  0  0  0
    0.4113    0.8381   -0.5287 C   0  0  0  0  0  0  0  0  0  0  0  0
   -0.9607    1.1318   -0.0225 C   0  0  0  0  0  0  0  0  0  0  0  0
    2.1542   -0.8201    0.2834 C   0  0  0  0  0  0  0  0  0  0  0  0
   -1.8641    0.1507    0.1336 C   0  0  0  0  0  0  0  0  0  0  0  0
   -1.5912   -1.2711   -0.1727 C   0  0  0  0  0  0  0  0  0  0  0  0
    1.0440    0.5376    1.5048 H   0  0  0  0  0  0  0  0  0  0  0  0
    3.1348   -2.1834    1.2737 H   0  0  0  0  0  0  0  0  0  0  0  0
   -2.2266   -3.0328    0.3552 H   0  0  0  0  0  0  0  0  0  0  0  0
  1  9  1  0  0  0  0
  2 11  1  0  0  0  0
  3 13  1  0  0  0  0
  4 10  2  0  0  0  0
  5 12  1  0  0  0  0
  5 16  1  0  0  0  0
  6 12  2  0  0  0  0
  7 14  1  0  0  0  0
  7 17  1  0  0  0  0
  8 14  2  0  0  0  0
  9 10  1  0  0  0  0
  9 12  1  0  0  0  0
  9 15  1  0  0  0  0
 10 11  1  0  0  0  0
 11 13  2  0  0  0  0
 13 14  1  0  0  0  0
M  END
> <PUBCHEM_COMPOUND_CID>
9543107

> <PUBCHEM_CONFORMER_RMSD>
0.6

> <PUBCHEM_CONFORMER_DIVERSEORDER>
1
77
67
89
13
31
100
92
44
83
45
85
58
48
38
54
17
81
93
40
87
12
19
61
74
23
30
8
84
96
97
22
50
20
9
73
88
37
56
14
55
95
72
75
91
4
43
27
71
16
42
32
59
82
15
99
24
60
80
34
65
2
63
33
78
90
11
79
68
35
21
76
46
5
49
25
6
64
10
94
36
66
26
86
39
28
57
18
29
3
98
62
51
7
52
41
47
69
70
53

> <PUBCHEM_MMFF94_PARTIAL_CHARGES>
16
1 -0.29
10 0.49
11 0.15
12 0.66
13 0.15
14 0.71
16 0.5
17 0.5
2 -0.14
3 -0.14
4 -0.57
5 -0.65
6 -0.57
7 -0.65
8 -0.57
9 0.41

> <PUBCHEM_EFFECTIVE_ROTOR_COUNT>
4

> <PUBCHEM_PHARMACOPHORE_FEATURES>
8
1 4 acceptor
1 5 acceptor
1 6 acceptor
1 7 acceptor
1 8 acceptor
1 9 anion
3 5 6 12 anion
3 7 8 14 anion

> <PUBCHEM_HEAVY_ATOM_COUNT>
14

> <PUBCHEM_ATOM_DEF_STEREO_COUNT>
0

> <PUBCHEM_ATOM_UDEF_STEREO_COUNT>
1

> <PUBCHEM_BOND_DEF_STEREO_COUNT>
1

> <PUBCHEM_BOND_UDEF_STEREO_COUNT>
0

> <PUBCHEM_ISOTOPIC_ATOM_COUNT>
0

> <PUBCHEM_COMPONENT_COUNT>
1

> <PUBCHEM_CACTVS_TAUTO_COUNT>
3

> <PUBCHEM_CONFORMER_ID>
00919DC300000001

> <PUBCHEM_MMFF94_ENERGY>
34.0251

> <PUBCHEM_FEATURE_SELFOVERLAP>
40.972

> <PUBCHEM_SHAPE_FINGERPRINT>
12251169 10 18339089275690323376
12382932 28 18337674100903619369
12423570 1 9164228752472966436
12524768 44 18408042900894642069
14817 1 5245510865164176038
15076042 46 18335983167973764593
15775835 57 18335130960546931793
16945 1 18266180706644020131
17804303 29 18265041616813542190
20711985 365 18339929323854004409
21501502 16 18334304132039724088
2334 1 18265896865288100335
23388829 49 17829621556260874175
23552423 10 18058442115118291175
2748010 2 18335130952183818015

> <PUBCHEM_SHAPE_MULTIPOLES>
264.38
4.53
2.51
1.09
0.31
0.58
0.18
-0.52
-1.41
0.35
-0.18
-0.39
-0.14
-0.18

> <PUBCHEM_SHAPE_SELFOVERLAP>
506.565

> <PUBCHEM_SHAPE_VOLUME>
162.1

> <PUBCHEM_COORDINATE_TYPE>
2
5
10

$$$$

