253249
  -OEChem-07051213063D

 24 25  0     1  0  0  0  0  0999 V2000
    1.2229    2.7854   -0.4478 O   0  0  0  0  0  0  0  0  0  0  0  0
   -3.3345   -1.1938   -0.0151 O   0  0  0  0  0  0  0  0  0  0  0  0
   -1.8185   -0.6253   -1.6198 O   0  0  0  0  0  0  0  0  0  0  0  0
   -1.2596   -0.3704    0.7189 C   0  0  2  0  0  0  0  0  0  0  0  0
   -1.5351    1.0653    1.1634 C   0  0  0  0  0  0  0  0  0  0  0  0
    0.1978   -0.5807    0.3958 C   0  0  0  0  0  0  0  0  0  0  0  0
   -0.9725    2.0843    0.1835 C   0  0  0  0  0  0  0  0  0  0  0  0
    1.0337    0.4805    0.0145 C   0  0  0  0  0  0  0  0  0  0  0  0
    0.4967    1.8612   -0.0919 C   0  0  0  0  0  0  0  0  0  0  0  0
    0.7366   -1.8756    0.4606 C   0  0  0  0  0  0  0  0  0  0  0  0
   -2.1345   -0.7317   -0.4441 C   0  0  0  0  0  0  0  0  0  0  0  0
    2.3834    0.2485   -0.2807 C   0  0  0  0  0  0  0  0  0  0  0  0
    2.0807   -2.1046    0.1654 C   0  0  0  0  0  0  0  0  0  0  0  0
    2.9029   -1.0432   -0.2028 C   0  0  0  0  0  0  0  0  0  0  0  0
   -1.5140   -1.0367    1.5549 H   0  0  0  0  0  0  0  0  0  0  0  0
   -1.0717    1.2288    2.1459 H   0  0  0  0  0  0  0  0  0  0  0  0
   -2.6112    1.2349    1.2886 H   0  0  0  0  0  0  0  0  0  0  0  0
   -1.0915    3.0867    0.6103 H   0  0  0  0  0  0  0  0  0  0  0  0
   -1.5084    2.0577   -0.7712 H   0  0  0  0  0  0  0  0  0  0  0  0
    0.1088   -2.7166    0.7453 H   0  0  0  0  0  0  0  0  0  0  0  0
    3.0446    1.0589   -0.5757 H   0  0  0  0  0  0  0  0  0  0  0  0
    2.4850   -3.1109    0.2224 H   0  0  0  0  0  0  0  0  0  0  0  0
    3.9493   -1.2217   -0.4328 H   0  0  0  0  0  0  0  0  0  0  0  0
   -3.9226   -1.4344   -0.7624 H   0  0  0  0  0  0  0  0  0  0  0  0
  1  9  2  0  0  0  0
  2 11  1  0  0  0  0
  2 24  1  0  0  0  0
  3 11  2  0  0  0  0
  4  5  1  0  0  0  0
  4  6  1  0  0  0  0
  4 11  1  0  0  0  0
  4 15  1  0  0  0  0
  5  7  1  0  0  0  0
  5 16  1  0  0  0  0
  5 17  1  0  0  0  0
  6  8  1  0  0  0  0
  6 10  2  0  0  0  0
  7  9  1  0  0  0  0
  7 18  1  0  0  0  0
  7 19  1  0  0  0  0
  8  9  1  0  0  0  0
  8 12  2  0  0  0  0
 10 13  1  0  0  0  0
 10 20  1  0  0  0  0
 12 14  1  0  0  0  0
 12 21  1  0  0  0  0
 13 14  2  0  0  0  0
 13 22  1  0  0  0  0
 14 23  1  0  0  0  0
M  END
> <PUBCHEM_COMPOUND_CID>
253249

> <PUBCHEM_CONFORMER_RMSD>
0.6

> <PUBCHEM_CONFORMER_DIVERSEORDER>
1
3
2
4

> <PUBCHEM_MMFF94_PARTIAL_CHARGES>
18
1 -0.57
10 -0.15
11 0.66
12 -0.15
13 -0.15
14 -0.15
2 -0.65
20 0.15
21 0.15
22 0.15
23 0.15
24 0.5
3 -0.57
4 0.2
6 -0.14
7 0.06
8 0.09
9 0.42

> <PUBCHEM_EFFECTIVE_ROTOR_COUNT>
1.6

> <PUBCHEM_PHARMACOPHORE_FEATURES>
6
1 1 acceptor
1 2 acceptor
1 3 acceptor
3 2 3 11 anion
6 4 5 6 7 8 9 rings
6 6 8 10 12 13 14 rings

> <PUBCHEM_HEAVY_ATOM_COUNT>
14

> <PUBCHEM_ATOM_DEF_STEREO_COUNT>
0

> <PUBCHEM_ATOM_UDEF_STEREO_COUNT>
1

> <PUBCHEM_BOND_DEF_STEREO_COUNT>
0

> <PUBCHEM_BOND_UDEF_STEREO_COUNT>
0

> <PUBCHEM_ISOTOPIC_ATOM_COUNT>
0

> <PUBCHEM_COMPONENT_COUNT>
1

> <PUBCHEM_CACTVS_TAUTO_COUNT>
2

> <PUBCHEM_CONFORMER_ID>
0003DD4100000001

> <PUBCHEM_MMFF94_ENERGY>
28.8147

> <PUBCHEM_FEATURE_SELFOVERLAP>
30.523

> <PUBCHEM_SHAPE_FINGERPRINT>
1 1 17980768133912590748
12423570 1 5801888616668952170
12524768 44 17903626724614972746
13024252 1 17057501919330837896
13380535 76 16325406601971032432
14251711 518 17981885555675498850
14817 1 6977136039811172924
15001771 113 18408884048907138977
16945 1 18340478972235304570
19868273 325 18267019647032673412
20511035 2 16686807235109534202
20645477 70 18193281797897518743
20871998 184 17831855020716851744
2334 1 18339637940550914954
23388829 49 18335145254340543488
23419403 2 16818061160602572409
23552423 10 18337950095591704921
23559900 14 16821928423010163854
241688 4 18339363096824374504
2748010 2 18339078319154884954
528886 8 18268427004683805234
81228 2 18049454930210715680

> <PUBCHEM_SHAPE_MULTIPOLES>
270.51
3.75
2.55
0.95
0.38
1.32
-0.11
-1.86
-0.3
0.06
-0.15
-0.45
-0.1
-0.54

> <PUBCHEM_SHAPE_SELFOVERLAP>
585.377

> <PUBCHEM_SHAPE_VOLUME>
146.8

> <PUBCHEM_COORDINATE_TYPE>
2
5
10

$$$$

