854073
  -OEChem-06241222473D

 33 34  0     0  0  0  0  0  0999 V2000
   -4.0886    1.5410   -0.3854 O   0  0  0  0  0  0  0  0  0  0  0  0
   -0.6256    0.2245   -1.1570 O   0  0  0  0  0  0  0  0  0  0  0  0
   -2.6834   -0.1015    0.5473 N   0  0  0  0  0  0  0  0  0  0  0  0
    0.5918    1.4993    0.3578 N   0  0  0  0  0  0  0  0  0  0  0  0
   -2.6537   -1.5434    0.6144 C   0  0  0  0  0  0  0  0  0  0  0  0
   -4.0996   -1.9288    0.3740 C   0  0  0  0  0  0  0  0  0  0  0  0
   -4.6299   -0.8181   -0.5246 C   0  0  0  0  0  0  0  0  0  0  0  0
   -3.8074    0.3822   -0.1182 C   0  0  0  0  0  0  0  0  0  0  0  0
   -1.5741    0.7019    1.0132 C   0  0  0  0  0  0  0  0  0  0  0  0
   -0.5151    0.7781   -0.0659 C   0  0  0  0  0  0  0  0  0  0  0  0
    1.7730    1.6885   -0.4534 C   0  0  0  0  0  0  0  0  0  0  0  0
    2.7846    0.6008   -0.2354 C   0  0  0  0  0  0  0  0  0  0  0  0
    3.7525    0.7497    0.7510 C   0  0  0  0  0  0  0  0  0  0  0  0
    2.7430   -0.5447   -1.0218 C   0  0  0  0  0  0  0  0  0  0  0  0
    4.6923   -0.2609    0.9538 C   0  0  0  0  0  0  0  0  0  0  0  0
    3.6828   -1.5553   -0.8188 C   0  0  0  0  0  0  0  0  0  0  0  0
    4.6574   -1.4133    0.1690 C   0  0  0  0  0  0  0  0  0  0  0  0
   -2.2958   -1.8799    1.5915 H   0  0  0  0  0  0  0  0  0  0  0  0
   -1.9970   -1.9218   -0.1752 H   0  0  0  0  0  0  0  0  0  0  0  0
   -4.6484   -1.9209    1.3242 H   0  0  0  0  0  0  0  0  0  0  0  0
   -4.2073   -2.9235   -0.0673 H   0  0  0  0  0  0  0  0  0  0  0  0
   -5.6952   -0.6372   -0.3629 H   0  0  0  0  0  0  0  0  0  0  0  0
   -4.4399   -1.0329   -1.5809 H   0  0  0  0  0  0  0  0  0  0  0  0
   -1.9311    1.7168    1.2181 H   0  0  0  0  0  0  0  0  0  0  0  0
   -1.1643    0.2642    1.9284 H   0  0  0  0  0  0  0  0  0  0  0  0
    0.5932    1.8985    1.2922 H   0  0  0  0  0  0  0  0  0  0  0  0
    2.1960    2.6663   -0.1960 H   0  0  0  0  0  0  0  0  0  0  0  0
    1.4844    1.7359   -1.5103 H   0  0  0  0  0  0  0  0  0  0  0  0
    3.7878    1.6423    1.3694 H   0  0  0  0  0  0  0  0  0  0  0  0
    1.9913   -0.6665   -1.7963 H   0  0  0  0  0  0  0  0  0  0  0  0
    5.4508   -0.1507    1.7233 H   0  0  0  0  0  0  0  0  0  0  0  0
    3.6562   -2.4525   -1.4303 H   0  0  0  0  0  0  0  0  0  0  0  0
    5.3891   -2.2002    0.3269 H   0  0  0  0  0  0  0  0  0  0  0  0
  1  8  2  0  0  0  0
  2 10  2  0  0  0  0
  3  5  1  0  0  0  0
  3  8  1  0  0  0  0
  3  9  1  0  0  0  0
  4 10  1  0  0  0  0
  4 11  1  0  0  0  0
  4 26  1  0  0  0  0
  5  6  1  0  0  0  0
  5 18  1  0  0  0  0
  5 19  1  0  0  0  0
  6  7  1  0  0  0  0
  6 20  1  0  0  0  0
  6 21  1  0  0  0  0
  7  8  1  0  0  0  0
  7 22  1  0  0  0  0
  7 23  1  0  0  0  0
  9 10  1  0  0  0  0
  9 24  1  0  0  0  0
  9 25  1  0  0  0  0
 11 12  1  0  0  0  0
 11 27  1  0  0  0  0
 11 28  1  0  0  0  0
 12 13  2  0  0  0  0
 12 14  1  0  0  0  0
 13 15  1  0  0  0  0
 13 29  1  0  0  0  0
 14 16  2  0  0  0  0
 14 30  1  0  0  0  0
 15 17  2  0  0  0  0
 15 31  1  0  0  0  0
 16 17  1  0  0  0  0
 16 32  1  0  0  0  0
 17 33  1  0  0  0  0
M  END
> <PUBCHEM_COMPOUND_CID>
854073

> <PUBCHEM_CONFORMER_RMSD>
0.8

> <PUBCHEM_CONFORMER_DIVERSEORDER>
1
24
22
6
18
16
19
9
26
25
14
15
17
7
5
13
20
21
4
11
23
10
12
3
2
8

> <PUBCHEM_MMFF94_PARTIAL_CHARGES>
22
1 -0.57
10 0.57
11 0.44
12 -0.14
13 -0.15
14 -0.15
15 -0.15
16 -0.15
17 -0.15
2 -0.57
26 0.37
29 0.15
3 -0.66
30 0.15
31 0.15
32 0.15
33 0.15
4 -0.73
5 0.3
7 0.06
8 0.57
9 0.36

> <PUBCHEM_EFFECTIVE_ROTOR_COUNT>
5.8

> <PUBCHEM_PHARMACOPHORE_FEATURES>
5
1 1 acceptor
1 2 acceptor
1 4 donor
5 3 5 6 7 8 rings
6 12 13 14 15 16 17 rings

> <PUBCHEM_HEAVY_ATOM_COUNT>
17

> <PUBCHEM_ATOM_DEF_STEREO_COUNT>
0

> <PUBCHEM_ATOM_UDEF_STEREO_COUNT>
0

> <PUBCHEM_BOND_DEF_STEREO_COUNT>
0

> <PUBCHEM_BOND_UDEF_STEREO_COUNT>
0

> <PUBCHEM_ISOTOPIC_ATOM_COUNT>
0

> <PUBCHEM_COMPONENT_COUNT>
1

> <PUBCHEM_CACTVS_TAUTO_COUNT>
4

> <PUBCHEM_CONFORMER_ID>
000D083900000001

> <PUBCHEM_MMFF94_ENERGY>
31.5405

> <PUBCHEM_FEATURE_SELFOVERLAP>
25.371

> <PUBCHEM_SHAPE_FINGERPRINT>
10366900 7 17531242829808828850
11405975 8 18410006633321230129
12346177 29 18342177778125205109
12363563 72 18341321245571443936
12555020 224 18342747308264364823
12596602 18 15791736265134680682
12892183 10 17240764021124230488
13167823 11 18343022159868332803
13583140 156 17822583724002512913
13675066 3 18259708890940110588
1420 369 18334288747493555403
14251731 8 18272934959244340564
14252887 29 17530957004135761694
14289901 80 6266907865591398357
14341114 328 14490476374312467842
15196674 1 18410572881519189282
15210252 30 8718824310750752598
15239154 128 9439409020877373415
15352361 1 18410291423833130594
16752209 62 15195022543123016965
17834072 14 18335420170675248786
18186145 218 13038902205485403276
193927 3 18200581511032947811
19862831 5 13686300171016067572
200 152 18113903762298445461
20261772 1 17675926482555326942
20281475 54 18411689985269849068
20374829 77 18202568397105176634
20645477 70 18271525304028558448
21250096 35 18334013899746009848
212847 35 9007068954645593220
21501925 9 18334011683754024376
21652331 79 8935005862664885355
21864079 5 10087637044635888114
22485316 2 18342457045399061296
22646028 28 18410853257052668562
22854114 59 13984659261035956296
23402539 116 16056886857316424300
23402655 69 12319733674813554642
23403322 49 18410572868934889859
23559900 14 18408888429753065304
251288 83 18040151825606534966
26918003 58 18334018319483687144
3004659 81 18202843262507065886
4214541 1 18412826897731236509
474 4 6338955576735452858
4921388 177 16415185738057362779
5104073 3 18334853909402393353
559249 180 18271531991398302491
633830 44 16559027177565380429
6442390 28 7781508235661687204
76465 3 18115875109744052487
7808743 9 8285610115167337698
960060 61 17346594175645225206
9709674 26 18198900318951549515
9882013 296 13984661459974686000

> <PUBCHEM_SHAPE_MULTIPOLES>
328.15
11.26
1.85
1.02
0.9
0.26
-0.01
4.24
0.64
0.29
-0.02
-0.37
0.06
0.56

> <PUBCHEM_SHAPE_SELFOVERLAP>
683.841

> <PUBCHEM_SHAPE_VOLUME>
187.2

> <PUBCHEM_COORDINATE_TYPE>
2
5
10

$$$$

