12952
  -OEChem-06261207352D

 60 62  0     1  0  0  0  0  0999 V2000
    4.8029    3.7208    0.0000 O   0  0  0  0  0  0  0  0  0  0  0  0
    7.4670    5.1966    0.0000 O   0  0  0  0  0  0  0  0  0  0  0  0
    3.1375   12.3927    0.0000 O   0  0  0  0  0  0  0  0  0  0  0  0
    5.7356   11.8927    0.0000 O   0  0  0  0  0  0  0  0  0  0  0  0
    4.8696   13.3927    0.0000 O   0  0  0  0  0  0  0  0  0  0  0  0
    2.5960    1.7150    0.0000 N   0  0  3  0  0  0  0  0  0  0  0  0
    3.9369    7.2208    0.0000 N   0  0  0  0  0  0  0  0  0  0  0  0
    2.0960    2.5810    0.0000 C   0  0  3  0  0  0  0  0  0  0  0  0
    3.0709    3.7208    0.0000 C   0  0  3  0  0  0  0  0  0  0  0  0
    2.1049    3.9796    0.0000 C   0  0  0  0  0  0  0  0  0  0  0  0
    4.7867    2.1633    0.0000 C   0  0  3  0  0  0  0  0  0  0  0  0
    0.5229    1.3739    0.0000 C   0  0  0  0  0  0  0  0  0  0  0  0
    4.5279    1.1973    0.0000 C   0  0  0  0  0  0  0  0  0  0  0  0
    1.0229    0.5079    0.0000 C   0  0  0  0  0  0  0  0  0  0  0  0
    3.9369    4.2208    0.0000 C   0  0  3  0  0  0  0  0  0  0  0  0
    5.6527    2.6633    0.0000 C   0  0  0  0  0  0  0  0  0  0  0  0
    3.9369    5.2208    0.0000 C   0  0  0  0  0  0  0  0  0  0  0  0
    6.5188    2.1633    0.0000 C   0  0  0  0  0  0  0  0  0  0  0  0
    4.8029    5.7208    0.0000 C   0  0  0  0  0  0  0  0  0  0  0  0
    3.0709    5.7208    0.0000 C   0  0  0  0  0  0  0  0  0  0  0  0
    4.8029    6.7208    0.0000 C   0  0  0  0  0  0  0  0  0  0  0  0
    5.6969    5.1861    0.0000 C   0  0  0  0  0  0  0  0  0  0  0  0
    3.0709    6.7208    0.0000 C   0  0  0  0  0  0  0  0  0  0  0  0
    5.6969    7.2554    0.0000 C   0  0  0  0  0  0  0  0  0  0  0  0
    6.6029    5.7000    0.0000 C   0  0  0  0  0  0  0  0  0  0  0  0
    6.6029    6.7416    0.0000 C   0  0  0  0  0  0  0  0  0  0  0  0
    8.3350    5.6933    0.0000 C   0  0  0  0  0  0  0  0  0  0  0  0
    4.0035   11.8927    0.0000 C   0  0  3  0  0  0  0  0  0  0  0  0
    4.0035   10.8927    0.0000 C   0  0  0  0  0  0  0  0  0  0  0  0
    4.8696   12.3927    0.0000 C   0  0  0  0  0  0  0  0  0  0  0  0
    2.3065    1.7575    0.0000 H   0  0  0  0  0  0  0  0  0  0  0  0
    3.7527    3.2133    0.0000 H   0  0  0  0  0  0  0  0  0  0  0  0
    2.2139    4.5900    0.0000 H   0  0  0  0  0  0  0  0  0  0  0  0
    1.4875    4.0363    0.0000 H   0  0  0  0  0  0  0  0  0  0  0  0
    4.6305    2.9988    0.0000 H   0  0  0  0  0  0  0  0  0  0  0  0
    0.1673    1.8818    0.0000 H   0  0  0  0  0  0  0  0  0  0  0  0
    0.0000    1.0408    0.0000 H   0  0  0  0  0  0  0  0  0  0  0  0
    4.3674    0.5985    0.0000 H   0  0  0  0  0  0  0  0  0  0  0  0
    5.1268    1.0369    0.0000 H   0  0  0  0  0  0  0  0  0  0  0  0
    0.5000    0.1747    0.0000 H   0  0  0  0  0  0  0  0  0  0  0  0
    1.3785    0.0000    0.0000 H   0  0  0  0  0  0  0  0  0  0  0  0
    3.9369    3.3708    0.0000 H   0  0  0  0  0  0  0  0  0  0  0  0
    5.6527    3.2833    0.0000 H   0  0  0  0  0  0  0  0  0  0  0  0
    5.3399    4.0308    0.0000 H   0  0  0  0  0  0  0  0  0  0  0  0
    6.5188    1.5433    0.0000 H   0  0  0  0  0  0  0  0  0  0  0  0
    7.0557    2.4733    0.0000 H   0  0  0  0  0  0  0  0  0  0  0  0
    2.5339    5.4108    0.0000 H   0  0  0  0  0  0  0  0  0  0  0  0
    5.6897    4.5662    0.0000 H   0  0  0  0  0  0  0  0  0  0  0  0
    2.5339    7.0308    0.0000 H   0  0  0  0  0  0  0  0  0  0  0  0
    5.6897    7.8754    0.0000 H   0  0  0  0  0  0  0  0  0  0  0  0
    7.1387    7.0537    0.0000 H   0  0  0  0  0  0  0  0  0  0  0  0
    8.6429    5.1552    0.0000 H   0  0  0  0  0  0  0  0  0  0  0  0
    8.8731    6.0012    0.0000 H   0  0  0  0  0  0  0  0  0  0  0  0
    8.0270    6.2314    0.0000 H   0  0  0  0  0  0  0  0  0  0  0  0
    4.0035   12.7427    0.0000 H   0  0  0  0  0  0  0  0  0  0  0  0
    3.3835   10.8927    0.0000 H   0  0  0  0  0  0  0  0  0  0  0  0
    4.0035   10.2727    0.0000 H   0  0  0  0  0  0  0  0  0  0  0  0
    4.6235   10.8927    0.0000 H   0  0  0  0  0  0  0  0  0  0  0  0
    2.6006   12.0827    0.0000 H   0  0  0  0  0  0  0  0  0  0  0  0
    6.2725   12.2027    0.0000 H   0  0  0  0  0  0  0  0  0  0  0  0
  1 15  1  0  0  0  0
  1 44  1  0  0  0  0
  2 25  1  0  0  0  0
  2 27  1  0  0  0  0
  3 28  1  0  0  0  0
  3 59  1  0  0  0  0
  4 30  1  0  0  0  0
  4 60  1  0  0  0  0
  5 30  2  0  0  0  0
  6  9  1  0  0  0  0
  6 13  1  0  0  0  0
  6 14  1  0  0  0  0
  7 21  2  0  0  0  0
  7 23  1  0  0  0  0
  8 10  1  0  0  0  0
  8 11  1  0  0  0  0
  8 12  1  0  0  0  0
  8 31  1  0  0  0  0
  9 10  1  0  0  0  0
  9 15  1  0  0  0  0
  9 32  1  0  0  0  0
 10 33  1  0  0  0  0
 10 34  1  0  0  0  0
 11 13  1  0  0  0  0
 11 16  1  0  0  0  0
 11 35  1  0  0  0  0
 12 14  1  0  0  0  0
 12 36  1  0  0  0  0
 12 37  1  0  0  0  0
 13 38  1  0  0  0  0
 13 39  1  0  0  0  0
 14 40  1  0  0  0  0
 14 41  1  0  0  0  0
 15 17  1  0  0  0  0
 15 42  1  0  0  0  0
 16 18  2  0  0  0  0
 16 43  1  0  0  0  0
 17 19  2  0  0  0  0
 17 20  1  0  0  0  0
 18 45  1  0  0  0  0
 18 46  1  0  0  0  0
 19 21  1  0  0  0  0
 19 22  1  0  0  0  0
 20 23  2  0  0  0  0
 20 47  1  0  0  0  0
 21 24  1  0  0  0  0
 22 25  2  0  0  0  0
 22 48  1  0  0  0  0
 23 49  1  0  0  0  0
 24 26  2  0  0  0  0
 24 50  1  0  0  0  0
 25 26  1  0  0  0  0
 26 51  1  0  0  0  0
 27 52  1  0  0  0  0
 27 53  1  0  0  0  0
 27 54  1  0  0  0  0
 28 29  1  0  0  0  0
 28 30  1  0  0  0  0
 28 55  1  0  0  0  0
 29 56  1  0  0  0  0
 29 57  1  0  0  0  0
 29 58  1  0  0  0  0
M  END
> <PUBCHEM_COMPOUND_CID>
12952

> <PUBCHEM_COMPOUND_CANONICALIZED>
1

> <PUBCHEM_CACTVS_COMPLEXITY>
516

> <PUBCHEM_CACTVS_HBOND_ACCEPTOR>
7

> <PUBCHEM_CACTVS_HBOND_DONOR>
3

> <PUBCHEM_CACTVS_ROTATABLE_BOND>
5

> <PUBCHEM_CACTVS_SUBSKEYS>
AAADceB7OAAAAAAAAAAAAAAAAAAAAAAAAAA8WLFiAAAAAACx8AAAHgAACAAADTzhngY+zvMIFgCoAzT3TAKCiCAxIiAI2CF+bJgPNuLEsZuEcChkwBHZ+Aew4PwOgEABAAACAAAAgAIAAAQAAAAAAAAAAA==

> <PUBCHEM_IUPAC_OPENEYE_NAME>
2-hydroxypropanoic acid; (6-methoxy-4-quinolyl)-(5-vinylquinuclidin-2-yl)methanol

> <PUBCHEM_IUPAC_CAS_NAME>
(5-ethenyl-1-azabicyclo[2.2.2]octan-2-yl)-(6-methoxy-4-quinolinyl)methanol; 2-hydroxypropanoic acid

> <PUBCHEM_IUPAC_NAME>
(5-ethenyl-1-azabicyclo[2.2.2]octan-2-yl)-(6-methoxyquinolin-4-yl)methanol; 2-hydroxypropanoic acid

> <PUBCHEM_IUPAC_SYSTEMATIC_NAME>
(5-ethenyl-1-azabicyclo[2.2.2]octan-2-yl)-(6-methoxyquinolin-4-yl)methanol; 2-oxidanylpropanoic acid

> <PUBCHEM_IUPAC_TRADITIONAL_NAME>
lactic acid; (6-methoxy-4-quinolyl)-(5-vinylquinuclidin-2-yl)methanol

> <PUBCHEM_IUPAC_INCHI>
InChI=1S/C20H24N2O2.C3H6O3/c1-3-13-12-22-9-7-14(13)10-19(22)20(23)16-6-8-21-18-5-4-15(24-2)11-17(16)18;1-2(4)3(5)6/h3-6,8,11,13-14,19-20,23H,1,7,9-10,12H2,2H3;2,4H,1H3,(H,5,6)

> <PUBCHEM_IUPAC_INCHIKEY>
ZIDGEHZBXVXPFQ-UHFFFAOYSA-N

> <PUBCHEM_EXACT_MASS>
414.215472

> <PUBCHEM_MOLECULAR_FORMULA>
C23H30N2O5

> <PUBCHEM_MOLECULAR_WEIGHT>
414.4947

> <PUBCHEM_OPENEYE_CAN_SMILES>
CC(C(=O)O)O.COC1=CC2=C(C=CN=C2C=C1)C(C3CC4CCN3CC4C=C)O

> <PUBCHEM_OPENEYE_ISO_SMILES>
CC(C(=O)O)O.COC1=CC2=C(C=CN=C2C=C1)C(C3CC4CCN3CC4C=C)O

> <PUBCHEM_CACTVS_TPSA>
103

> <PUBCHEM_MONOISOTOPIC_WEIGHT>
414.215472

> <PUBCHEM_TOTAL_CHARGE>
0

> <PUBCHEM_HEAVY_ATOM_COUNT>
30

> <PUBCHEM_ATOM_DEF_STEREO_COUNT>
0

> <PUBCHEM_ATOM_UDEF_STEREO_COUNT>
5

> <PUBCHEM_BOND_DEF_STEREO_COUNT>
0

> <PUBCHEM_BOND_UDEF_STEREO_COUNT>
0

> <PUBCHEM_ISOTOPIC_ATOM_COUNT>
0

> <PUBCHEM_COMPONENT_COUNT>
2

> <PUBCHEM_CACTVS_TAUTO_COUNT>
1

> <PUBCHEM_COORDINATE_TYPE>
1
5
255

> <PUBCHEM_BONDANNOTATIONS>
11  35  3
15  42  3
17  19  8
17  20  8
19  21  8
19  22  8
20  23  8
21  24  8
22  25  8
24  26  8
25  26  8
28  55  3
7  21  8
7  23  8
8  31  3
9  32  3

$$$$

