442199
  -OEChem-07051212573D

 37 40  0     1  0  0  0  0  0999 V2000
    1.6745    0.7679    0.7470 O   0  0  0  0  0  0  0  0  0  0  0  0
    3.4794    0.8192   -0.7192 O   0  0  0  0  0  0  0  0  0  0  0  0
   -2.4586    1.4979   -0.3303 O   0  0  0  0  0  0  0  0  0  0  0  0
   -4.7365    1.2167   -0.2259 O   0  0  0  0  0  0  0  0  0  0  0  0
    1.1659    0.3314   -0.5259 C   0  0  2  0  0  0  0  0  0  0  0  0
   -0.1652    1.0286   -0.8319 C   0  0  0  0  0  0  0  0  0  0  0  0
    3.0819    0.4990    0.6216 C   0  0  2  0  0  0  0  0  0  0  0  0
    1.1623   -1.1996   -0.4974 C   0  0  0  0  0  0  0  0  0  0  0  0
   -1.2915    0.8101    0.1775 C   0  0  2  0  0  0  0  0  0  0  0  0
    2.2531    0.8813   -1.4658 C   0  0  0  0  0  0  0  0  0  0  0  0
   -1.7208   -0.6294    0.4344 C   0  0  2  0  0  0  0  0  0  0  0  0
    3.2866   -1.0111    0.8321 C   0  0  0  0  0  0  0  0  0  0  0  0
    2.5289   -1.8135   -0.2397 C   0  0  0  0  0  0  0  0  0  0  0  0
   -1.3503   -1.6168   -0.6776 C   0  0  0  0  0  0  0  0  0  0  0  0
    0.0953   -2.0101   -0.6165 C   0  0  0  0  0  0  0  0  0  0  0  0
    3.8608    1.3370    1.6164 C   0  0  0  0  0  0  0  0  0  0  0  0
   -3.1946   -0.4582    0.5679 C   0  0  0  0  0  0  0  0  0  0  0  0
   -3.6014    0.8253   -0.0255 C   0  0  0  0  0  0  0  0  0  0  0  0
   -4.0697   -1.2756    1.1588 C   0  0  0  0  0  0  0  0  0  0  0  0
   -0.5049    0.7737   -1.8447 H   0  0  0  0  0  0  0  0  0  0  0  0
   -0.0009    2.1158   -0.8652 H   0  0  0  0  0  0  0  0  0  0  0  0
   -1.0291    1.3003    1.1246 H   0  0  0  0  0  0  0  0  0  0  0  0
    2.3524    0.3234   -2.4025 H   0  0  0  0  0  0  0  0  0  0  0  0
    2.0967    1.9377   -1.7103 H   0  0  0  0  0  0  0  0  0  0  0  0
   -1.2921   -0.9718    1.3859 H   0  0  0  0  0  0  0  0  0  0  0  0
    2.9126   -1.2995    1.8226 H   0  0  0  0  0  0  0  0  0  0  0  0
    4.3500   -1.2722    0.7806 H   0  0  0  0  0  0  0  0  0  0  0  0
    2.4583   -2.8598    0.0803 H   0  0  0  0  0  0  0  0  0  0  0  0
    3.1011   -1.8102   -1.1757 H   0  0  0  0  0  0  0  0  0  0  0  0
   -1.6058   -1.2463   -1.6772 H   0  0  0  0  0  0  0  0  0  0  0  0
   -1.9370   -2.5360   -0.5441 H   0  0  0  0  0  0  0  0  0  0  0  0
    0.2644   -3.0859   -0.5927 H   0  0  0  0  0  0  0  0  0  0  0  0
    3.6828    2.4034    1.4372 H   0  0  0  0  0  0  0  0  0  0  0  0
    3.5507    1.1248    2.6447 H   0  0  0  0  0  0  0  0  0  0  0  0
    4.9382    1.1677    1.5220 H   0  0  0  0  0  0  0  0  0  0  0  0
   -3.7403   -2.2080    1.6053 H   0  0  0  0  0  0  0  0  0  0  0  0
   -5.1271   -1.0403    1.2138 H   0  0  0  0  0  0  0  0  0  0  0  0
  1  5  1  0  0  0  0
  1  7  1  0  0  0  0
  2  7  1  0  0  0  0
  2 10  1  0  0  0  0
  3  9  1  0  0  0  0
  3 18  1  0  0  0  0
  4 18  2  0  0  0  0
  5  6  1  0  0  0  0
  5  8  1  0  0  0  0
  5 10  1  0  0  0  0
  6  9  1  0  0  0  0
  6 20  1  0  0  0  0
  6 21  1  0  0  0  0
  7 12  1  0  0  0  0
  7 16  1  0  0  0  0
  8 13  1  0  0  0  0
  8 15  2  0  0  0  0
  9 11  1  0  0  0  0
  9 22  1  0  0  0  0
 10 23  1  0  0  0  0
 10 24  1  0  0  0  0
 11 14  1  0  0  0  0
 11 17  1  0  0  0  0
 11 25  1  0  0  0  0
 12 13  1  0  0  0  0
 12 26  1  0  0  0  0
 12 27  1  0  0  0  0
 13 28  1  0  0  0  0
 13 29  1  0  0  0  0
 14 15  1  0  0  0  0
 14 30  1  0  0  0  0
 14 31  1  0  0  0  0
 15 32  1  0  0  0  0
 16 33  1  0  0  0  0
 16 34  1  0  0  0  0
 16 35  1  0  0  0  0
 17 18  1  0  0  0  0
 17 19  2  0  0  0  0
 19 36  1  0  0  0  0
 19 37  1  0  0  0  0
M  END
> <PUBCHEM_COMPOUND_CID>
442199

> <PUBCHEM_CONFORMER_RMSD>
0.6

> <PUBCHEM_CONFORMER_DIVERSEORDER>
3
2
4
1

> <PUBCHEM_MMFF94_PARTIAL_CHARGES>
19
1 -0.56
10 0.28
11 0.14
13 0.14
14 0.14
15 -0.29
17 -0.12
18 0.71
19 -0.3
2 -0.56
3 -0.43
32 0.15
36 0.15
37 0.15
4 -0.57
5 0.42
7 0.56
8 -0.28
9 0.28

> <PUBCHEM_EFFECTIVE_ROTOR_COUNT>
1.6

> <PUBCHEM_PHARMACOPHORE_FEATURES>
6
1 1 acceptor
1 2 acceptor
1 4 acceptor
5 3 9 11 17 18 rings
7 5 6 8 9 11 14 15 rings
8 1 2 5 7 8 10 12 13 rings

> <PUBCHEM_HEAVY_ATOM_COUNT>
19

> <PUBCHEM_ATOM_DEF_STEREO_COUNT>
4

> <PUBCHEM_ATOM_UDEF_STEREO_COUNT>
0

> <PUBCHEM_BOND_DEF_STEREO_COUNT>
0

> <PUBCHEM_BOND_UDEF_STEREO_COUNT>
0

> <PUBCHEM_ISOTOPIC_ATOM_COUNT>
0

> <PUBCHEM_COMPONENT_COUNT>
1

> <PUBCHEM_CACTVS_TAUTO_COUNT>
1

> <PUBCHEM_CONFORMER_ID>
0006BF5700000003

> <PUBCHEM_MMFF94_ENERGY>
54.6564

> <PUBCHEM_FEATURE_SELFOVERLAP>
30.534

> <PUBCHEM_SHAPE_FINGERPRINT>
10608611 8 18337955700561105269
10646746 165 18408322219729432145
10759866 29 18130495371429089382
1100329 8 15095928640936447139
11132069 177 18336267859843822783
12011746 2 18336825415719455134
12077114 3 18343589559576534927
12236239 1 17846776270343953324
12251169 10 18341899558638681272
12382932 28 18335140868941524946
12390115 104 17681275465196842448
12403259 415 18261105266486291369
12507560 40 18411138038980208418
12892183 10 18201444653156008882
13140716 1 18266174122559395363
13224815 77 18410566288918326791
13296908 3 18201995551578948675
13581323 91 18343021055956086713
13675066 3 18413390929705004867
14178342 30 18196100936820488834
14289901 80 17988351594680004955
14787075 74 17388266628220640905
15163728 17 13841984326488575874
15196674 1 18412541024665719319
15219456 202 18410570721409030763
15309172 13 18113894961958162583
15375358 24 18412829114124109405
15536298 74 18336262430963229055
15775835 57 18260266321997706554
16945 1 18338518508638083814
17804303 29 18265330780261988046
1813 80 16916792937581067998
18186145 218 17385714794660287443
19422 9 17775280543336636297
200 152 17967822665128888677
20261772 1 18263071129148021187
204376 136 18041002795375762088
20559304 39 18200867388271788044
20645477 70 18115027536360189295
21501925 9 18131069303471610987
21864079 5 17095789010407246955
22854114 111 18333452053504283410
22854114 59 18187647985577232721
23463225 33 18272647960944942447
23559900 14 18200025273812813966
2748010 2 18338791337935311615
2838139 119 15357986590905094072
296302 2 18260270741613947737
495365 180 18042140906133265521
5104073 3 18410570721509264963
633830 44 16805588288028093513
69090 78 18335147513757091855
7097593 13 17917161575440893714
7364860 26 18042965557066018222
81228 2 17610350341600900143
90316 7 17703799140758168605
9709674 26 18339357586777141279

> <PUBCHEM_SHAPE_MULTIPOLES>
367.53
7.69
1.91
1.2
3.76
0.57
0.12
-1.76
2.38
-0.04
-0.15
-0.71
-0.16
0.66

> <PUBCHEM_SHAPE_SELFOVERLAP>
807.988

> <PUBCHEM_SHAPE_VOLUME>
198.7

> <PUBCHEM_COORDINATE_TYPE>
2
5
10

$$$$

