5282031
  -OEChem-07051213023D

 49 49  0     1  0  0  0  0  0999 V2000
    1.5460    0.7051   -0.4243 O   0  0  0  0  0  0  0  0  0  0  0  0
   -2.6203    2.7551   -0.6524 O   0  0  0  0  0  0  0  0  0  0  0  0
    1.1312    2.0624    1.3965 O   0  0  0  0  0  0  0  0  0  0  0  0
   -1.5444   -3.0067    1.3701 O   0  0  0  0  0  0  0  0  0  0  0  0
   -2.0343    0.7625    0.6011 C   0  0  2  0  0  0  0  0  0  0  0  0
   -1.5894    2.1882    0.1571 C   0  0  1  0  0  0  0  0  0  0  0  0
   -2.4366   -0.1364   -0.5962 C   0  0  0  0  0  0  0  0  0  0  0  0
   -0.2409    2.2328   -0.5989 C   0  0  2  0  0  0  0  0  0  0  0  0
   -2.6736   -1.6221   -0.2449 C   0  0  2  0  0  0  0  0  0  0  0  0
   -3.2024    0.8829    1.5934 C   0  0  0  0  0  0  0  0  0  0  0  0
    2.5401   -0.0740    0.2858 C   0  0  1  0  0  0  0  0  0  0  0  0
    2.3377   -1.5670   -0.0793 C   0  0  1  0  0  0  0  0  0  0  0  0
    0.8843    1.6811    0.2598 C   0  0  0  0  0  0  0  0  0  0  0  0
    0.1494    3.6509   -1.0224 C   0  0  0  0  0  0  0  0  0  0  0  0
   -1.4492   -2.3062    0.3634 C   0  0  0  0  0  0  0  0  0  0  0  0
   -3.1337   -2.4067   -1.4736 C   0  0  0  0  0  0  0  0  0  0  0  0
    3.9165    0.4650   -0.0860 C   0  0  0  0  0  0  0  0  0  0  0  0
    0.9728   -1.9918    0.4334 C   0  0  0  0  0  0  0  0  0  0  0  0
   -0.1381   -2.0986   -0.3085 C   0  0  0  0  0  0  0  0  0  0  0  0
    2.5619   -1.8578   -1.5694 C   0  0  0  0  0  0  0  0  0  0  0  0
    5.0230   -0.3187    0.5954 C   0  0  0  0  0  0  0  0  0  0  0  0
   -1.2030    0.3014    1.1451 H   0  0  0  0  0  0  0  0  0  0  0  0
   -1.4955    2.8232    1.0482 H   0  0  0  0  0  0  0  0  0  0  0  0
   -1.6700   -0.0738   -1.3755 H   0  0  0  0  0  0  0  0  0  0  0  0
   -3.3542    0.2612   -1.0501 H   0  0  0  0  0  0  0  0  0  0  0  0
   -0.3223    1.6413   -1.5181 H   0  0  0  0  0  0  0  0  0  0  0  0
   -3.4743   -1.6829    0.5016 H   0  0  0  0  0  0  0  0  0  0  0  0
   -2.9658    1.5945    2.3917 H   0  0  0  0  0  0  0  0  0  0  0  0
   -4.1233    1.2140    1.1029 H   0  0  0  0  0  0  0  0  0  0  0  0
   -3.4074   -0.0780    2.0756 H   0  0  0  0  0  0  0  0  0  0  0  0
    2.3973    0.0366    1.3697 H   0  0  0  0  0  0  0  0  0  0  0  0
    3.0599   -2.1791    0.4753 H   0  0  0  0  0  0  0  0  0  0  0  0
    1.1291    3.6550   -1.5134 H   0  0  0  0  0  0  0  0  0  0  0  0
   -0.5795    4.0675   -1.7248 H   0  0  0  0  0  0  0  0  0  0  0  0
    0.2116    4.3209   -0.1579 H   0  0  0  0  0  0  0  0  0  0  0  0
   -2.4002   -2.3553   -2.2852 H   0  0  0  0  0  0  0  0  0  0  0  0
   -3.2805   -3.4642   -1.2282 H   0  0  0  0  0  0  0  0  0  0  0  0
   -4.0830   -2.0126   -1.8514 H   0  0  0  0  0  0  0  0  0  0  0  0
    3.9787    1.5169    0.2208 H   0  0  0  0  0  0  0  0  0  0  0  0
    4.0631    0.4740   -1.1720 H   0  0  0  0  0  0  0  0  0  0  0  0
   -3.3884    2.9263   -0.0825 H   0  0  0  0  0  0  0  0  0  0  0  0
    0.9095   -2.1287    1.5116 H   0  0  0  0  0  0  0  0  0  0  0  0
   -0.1438   -1.8998   -1.3726 H   0  0  0  0  0  0  0  0  0  0  0  0
    3.6125   -1.7177   -1.8430 H   0  0  0  0  0  0  0  0  0  0  0  0
    2.3080   -2.8971   -1.8075 H   0  0  0  0  0  0  0  0  0  0  0  0
    1.9622   -1.2061   -2.2135 H   0  0  0  0  0  0  0  0  0  0  0  0
    4.8554   -0.3909    1.6748 H   0  0  0  0  0  0  0  0  0  0  0  0
    5.1223   -1.3287    0.1878 H   0  0  0  0  0  0  0  0  0  0  0  0
    5.9828    0.1854    0.4402 H   0  0  0  0  0  0  0  0  0  0  0  0
  1 11  1  0  0  0  0
  1 13  1  0  0  0  0
  2  6  1  0  0  0  0
  2 41  1  0  0  0  0
  3 13  2  0  0  0  0
  4 15  2  0  0  0  0
  5  6  1  0  0  0  0
  5  7  1  0  0  0  0
  5 10  1  0  0  0  0
  5 22  1  0  0  0  0
  6  8  1  0  0  0  0
  6 23  1  0  0  0  0
  7  9  1  0  0  0  0
  7 24  1  0  0  0  0
  7 25  1  0  0  0  0
  8 13  1  0  0  0  0
  8 14  1  0  0  0  0
  8 26  1  0  0  0  0
  9 15  1  0  0  0  0
  9 16  1  0  0  0  0
  9 27  1  0  0  0  0
 10 28  1  0  0  0  0
 10 29  1  0  0  0  0
 10 30  1  0  0  0  0
 11 12  1  0  0  0  0
 11 17  1  0  0  0  0
 11 31  1  0  0  0  0
 12 18  1  0  0  0  0
 12 20  1  0  0  0  0
 12 32  1  0  0  0  0
 14 33  1  0  0  0  0
 14 34  1  0  0  0  0
 14 35  1  0  0  0  0
 15 19  1  0  0  0  0
 16 36  1  0  0  0  0
 16 37  1  0  0  0  0
 16 38  1  0  0  0  0
 17 21  1  0  0  0  0
 17 39  1  0  0  0  0
 17 40  1  0  0  0  0
 18 19  2  0  0  0  0
 18 42  1  0  0  0  0
 19 43  1  0  0  0  0
 20 44  1  0  0  0  0
 20 45  1  0  0  0  0
 20 46  1  0  0  0  0
 21 47  1  0  0  0  0
 21 48  1  0  0  0  0
 21 49  1  0  0  0  0
M  END
> <PUBCHEM_COMPOUND_CID>
5282031

> <PUBCHEM_CONFORMER_RMSD>
0.6

> <PUBCHEM_CONFORMER_DIVERSEORDER>
1

> <PUBCHEM_MMFF94_PARTIAL_CHARGES>
16
1 -0.43
11 0.28
12 0.14
13 0.66
15 0.49
18 -0.29
19 -0.14
2 -0.68
3 -0.57
4 -0.57
41 0.4
42 0.15
43 0.15
6 0.28
8 0.06
9 0.06

> <PUBCHEM_EFFECTIVE_ROTOR_COUNT>
2.6

> <PUBCHEM_PHARMACOPHORE_FEATURES>
5
1 2 acceptor
1 2 donor
1 21 hydrophobe
1 3 acceptor
1 4 acceptor

> <PUBCHEM_HEAVY_ATOM_COUNT>
21

> <PUBCHEM_ATOM_DEF_STEREO_COUNT>
6

> <PUBCHEM_ATOM_UDEF_STEREO_COUNT>
0

> <PUBCHEM_BOND_DEF_STEREO_COUNT>
1

> <PUBCHEM_BOND_UDEF_STEREO_COUNT>
0

> <PUBCHEM_ISOTOPIC_ATOM_COUNT>
0

> <PUBCHEM_COMPONENT_COUNT>
1

> <PUBCHEM_CACTVS_TAUTO_COUNT>
5

> <PUBCHEM_CONFORMER_ID>
005098EF00000001

> <PUBCHEM_MMFF94_ENERGY>
45.5749

> <PUBCHEM_FEATURE_SELFOVERLAP>
25.371

> <PUBCHEM_SHAPE_FINGERPRINT>
104564 63 18409449159329440910
10493431 412 18262510532720556089
10498660 4 18340208604096872999
10967382 1 18339360889063477917
11132069 177 18334860562696981288
11370993 70 17838345429572004484
11680986 33 17979081478928197712
12553582 1 18340756053355229708
12596599 1 17677894732638137327
12633257 1 18261397779861275712
13140716 1 18266169531144462545
138480 1 16105300888133418183
14081887 123 18188501267099272384
1420 336 18409448102688566167
14251711 518 17979076307940969739
14251745 187 18335145263014861378
16945 1 18272078427038849270
17357779 13 18261967232078749670
17492 54 18127967504076729764
192875 21 18193003616384939103
20905425 154 18335707160654062654
21160774 45 18340211898379142804
21236236 1 18335141969297028578
2334 1 18338234972055822419
23402539 116 18335433322166374454
23419403 2 17608690178069604161
23558518 356 18124025733310483417
238 59 17046575093286760269
2748010 2 18123742325382464621
6438718 38 18113616793932268215
81228 2 18410849962607102282

> <PUBCHEM_SHAPE_MULTIPOLES>
408.69
6.24
4.17
1.28
5.22
1.3
0.01
-1.47
0.43
-2.21
-0.78
-0.48
-0.16
-0.04

> <PUBCHEM_SHAPE_SELFOVERLAP>
807.472

> <PUBCHEM_SHAPE_VOLUME>
242.9

> <PUBCHEM_COORDINATE_TYPE>
2
5
10

$$$$

