254633
  -OEChem-07051213072D

 57 60  0     1  0  0  0  0  0999 V2000
    8.0319    2.5020    0.0000 O   0  0  0  0  0  0  0  0  0  0  0  0
    4.7950    1.7457    0.0000 O   0  0  0  0  0  0  0  0  0  0  0  0
    5.6489   -2.8236    0.0000 O   0  0  0  0  0  0  0  0  0  0  0  0
    9.0465    3.1315    0.0000 O   0  0  0  0  0  0  0  0  0  0  0  0
    2.0000   -1.8066    0.0000 O   0  0  0  0  0  0  0  0  0  0  0  0
   10.8722    2.3149    0.0000 O   0  0  0  0  0  0  0  0  0  0  0  0
    7.3931    1.2457    0.0000 C   0  0  1  0  0  0  0  0  0  0  0  0
    7.3931    0.2457    0.0000 C   0  0  2  0  0  0  0  0  0  0  0  0
    6.5271   -0.2543    0.0000 C   0  0  1  0  0  0  0  0  0  0  0  0
    5.6610    0.2457    0.0000 C   0  0  1  0  0  0  0  0  0  0  0  0
    8.3393    1.5504    0.0000 C   0  0  1  0  0  0  0  0  0  0  0  0
    4.7510   -0.2612    0.0000 C   0  0  2  0  0  0  0  0  0  0  0  0
    6.5271    1.7457    0.0000 C   0  0  0  0  0  0  0  0  0  0  0  0
    5.6610    1.2457    0.0000 C   0  0  2  0  0  0  0  0  0  0  0  0
    8.3393   -0.0591    0.0000 C   0  0  0  0  0  0  0  0  0  0  0  0
    8.9229    0.7457    0.0000 C   0  0  0  0  0  0  0  0  0  0  0  0
    6.5431   -1.2958    0.0000 C   0  0  0  0  0  0  0  0  0  0  0  0
    7.3931    2.2457    0.0000 C   0  0  0  0  0  0  0  0  0  0  0  0
    4.7430   -1.3028    0.0000 C   0  0  0  0  0  0  0  0  0  0  0  0
    5.6451   -1.8236    0.0000 C   0  0  1  0  0  0  0  0  0  0  0  0
    3.8242    0.3029    0.0000 C   0  0  0  0  0  0  0  0  0  0  0  0
    4.7587    0.7388    0.0000 C   0  0  0  0  0  0  0  0  0  0  0  0
    9.1493    2.1368    0.0000 C   0  0  0  0  0  0  0  0  0  0  0  0
    2.8763   -0.2250    0.0000 C   0  0  0  0  0  0  0  0  0  0  0  0
    3.8076   -1.8525    0.0000 C   0  0  0  0  0  0  0  0  0  0  0  0
    2.8680   -1.3100    0.0000 C   0  0  0  0  0  0  0  0  0  0  0  0
   10.0622    1.7285    0.0000 C   0  0  0  0  0  0  0  0  0  0  0  0
    7.4830   -0.5995    0.0000 H   0  0  0  0  0  0  0  0  0  0  0  0
    7.2664   -0.6736    0.0000 H   0  0  0  0  0  0  0  0  0  0  0  0
    6.3972    0.6707    0.0000 H   0  0  0  0  0  0  0  0  0  0  0  0
    6.9256    2.2206    0.0000 H   0  0  0  0  0  0  0  0  0  0  0  0
    6.1285    2.2206    0.0000 H   0  0  0  0  0  0  0  0  0  0  0  0
    5.6610    1.8657    0.0000 H   0  0  0  0  0  0  0  0  0  0  0  0
    8.0883   -0.6260    0.0000 H   0  0  0  0  0  0  0  0  0  0  0  0
    8.8767   -0.3683    0.0000 H   0  0  0  0  0  0  0  0  0  0  0  0
    9.3838    0.3310    0.0000 H   0  0  0  0  0  0  0  0  0  0  0  0
    9.3838    1.1604    0.0000 H   0  0  0  0  0  0  0  0  0  0  0  0
    6.7612   -1.8762    0.0000 H   0  0  0  0  0  0  0  0  0  0  0  0
    7.1523   -1.1803    0.0000 H   0  0  0  0  0  0  0  0  0  0  0  0
    8.0131    2.2457    0.0000 H   0  0  0  0  0  0  0  0  0  0  0  0
    7.3931    2.8657    0.0000 H   0  0  0  0  0  0  0  0  0  0  0  0
    6.7731    2.2457    0.0000 H   0  0  0  0  0  0  0  0  0  0  0  0
    5.1087   -2.1346    0.0000 H   0  0  0  0  0  0  0  0  0  0  0  0
    4.2324    0.7696    0.0000 H   0  0  0  0  0  0  0  0  0  0  0  0
    3.4343    0.7850    0.0000 H   0  0  0  0  0  0  0  0  0  0  0  0
    5.3787    0.7340    0.0000 H   0  0  0  0  0  0  0  0  0  0  0  0
    4.7635    1.3588    0.0000 H   0  0  0  0  0  0  0  0  0  0  0  0
    4.1388    0.7436    0.0000 H   0  0  0  0  0  0  0  0  0  0  0  0
    8.4476    2.9620    0.0000 H   0  0  0  0  0  0  0  0  0  0  0  0
    2.6718    0.3603    0.0000 H   0  0  0  0  0  0  0  0  0  0  0  0
    2.2647   -0.3264    0.0000 H   0  0  0  0  0  0  0  0  0  0  0  0
    4.7950    2.3657    0.0000 H   0  0  0  0  0  0  0  0  0  0  0  0
    3.8100   -2.4725    0.0000 H   0  0  0  0  0  0  0  0  0  0  0  0
    6.1871   -3.1315    0.0000 H   0  0  0  0  0  0  0  0  0  0  0  0
    9.7146    1.2151    0.0000 H   0  0  0  0  0  0  0  0  0  0  0  0
   10.5074    1.2970    0.0000 H   0  0  0  0  0  0  0  0  0  0  0  0
   11.4382    2.0617    0.0000 H   0  0  0  0  0  0  0  0  0  0  0  0
 11  1  1  6  0  0  0
  1 49  1  0  0  0  0
 14  2  1  1  0  0  0
  2 52  1  0  0  0  0
 20  3  1  6  0  0  0
  3 54  1  0  0  0  0
  4 23  2  0  0  0  0
  5 26  2  0  0  0  0
  6 27  1  0  0  0  0
  6 57  1  0  0  0  0
  7  8  1  0  0  0  0
  7 11  1  0  0  0  0
  7 13  1  0  0  0  0
  7 18  1  1  0  0  0
  8  9  1  0  0  0  0
  8 15  1  0  0  0  0
  8 28  1  6  0  0  0
  9 10  1  0  0  0  0
  9 17  1  0  0  0  0
  9 29  1  1  0  0  0
 10 12  1  0  0  0  0
 10 14  1  0  0  0  0
 10 30  1  6  0  0  0
 11 16  1  0  0  0  0
 11 23  1  0  0  0  0
 12 19  1  0  0  0  0
 12 21  1  0  0  0  0
 12 22  1  1  0  0  0
 13 14  1  0  0  0  0
 13 31  1  0  0  0  0
 13 32  1  0  0  0  0
 14 33  1  0  0  0  0
 15 16  1  0  0  0  0
 15 34  1  0  0  0  0
 15 35  1  0  0  0  0
 16 36  1  0  0  0  0
 16 37  1  0  0  0  0
 17 20  1  0  0  0  0
 17 38  1  0  0  0  0
 17 39  1  0  0  0  0
 18 40  1  0  0  0  0
 18 41  1  0  0  0  0
 18 42  1  0  0  0  0
 19 20  1  0  0  0  0
 19 25  2  0  0  0  0
 20 43  1  0  0  0  0
 21 24  1  0  0  0  0
 21 44  1  0  0  0  0
 21 45  1  0  0  0  0
 22 46  1  0  0  0  0
 22 47  1  0  0  0  0
 22 48  1  0  0  0  0
 23 27  1  0  0  0  0
 24 26  1  0  0  0  0
 24 50  1  0  0  0  0
 24 51  1  0  0  0  0
 25 26  1  0  0  0  0
 25 53  1  0  0  0  0
 27 55  1  0  0  0  0
 27 56  1  0  0  0  0
M  END
> <PUBCHEM_COMPOUND_CID>
254633

> <PUBCHEM_COMPOUND_CANONICALIZED>
1

> <PUBCHEM_CACTVS_COMPLEXITY>
716

> <PUBCHEM_CACTVS_HBOND_ACCEPTOR>
6

> <PUBCHEM_CACTVS_HBOND_DONOR>
4

> <PUBCHEM_CACTVS_ROTATABLE_BOND>
2

> <PUBCHEM_CACTVS_SUBSKEYS>
AAADceB4OAAAAAAAAAAAAAAAAAAAAYAAAAAwYIAAAAAAAGDAAAAAGgAACAAAD1SggAICAAAAAgCIAqBSAAIAAAAgAAAACAFAAEgAFBIAAQAAUAAFgAAIEQPI7PTPgAAAAAAAAADAAAYAADAAAYAADAAAAA==

> <PUBCHEM_IUPAC_OPENEYE_NAME>
(6S,8S,9S,10R,11S,13S,14S,17R)-6,11,17-trihydroxy-17-(2-hydroxyacetyl)-10,13-dimethyl-2,6,7,8,9,11,12,14,15,16-decahydro-1H-cyclopenta[a]phenanthren-3-one

> <PUBCHEM_IUPAC_CAS_NAME>
(6S,8S,9S,10R,11S,13S,14S,17R)-6,11,17-trihydroxy-17-(2-hydroxy-1-oxoethyl)-10,13-dimethyl-2,6,7,8,9,11,12,14,15,16-decahydro-1H-cyclopenta[a]phenanthren-3-one

> <PUBCHEM_IUPAC_NAME>
(6S,8S,9S,10R,11S,13S,14S,17R)-6,11,17-trihydroxy-17-(2-hydroxyacetyl)-10,13-dimethyl-2,6,7,8,9,11,12,14,15,16-decahydro-1H-cyclopenta[a]phenanthren-3-one

> <PUBCHEM_IUPAC_SYSTEMATIC_NAME>
(6S,8S,9S,10R,11S,13S,14S,17R)-10,13-dimethyl-6,11,17-tris(oxidanyl)-17-(2-oxidanylethanoyl)-2,6,7,8,9,11,12,14,15,16-decahydro-1H-cyclopenta[a]phenanthren-3-one

> <PUBCHEM_IUPAC_TRADITIONAL_NAME>
(6S,8S,9S,10R,11S,13S,14S,17R)-17-glycoloyl-6,11,17-trihydroxy-10,13-dimethyl-2,6,7,8,9,11,12,14,15,16-decahydro-1H-cyclopenta[a]phenanthren-3-one

> <PUBCHEM_IUPAC_INCHI>
InChI=1S/C21H30O6/c1-19-5-3-11(23)7-14(19)15(24)8-12-13-4-6-21(27,17(26)10-22)20(13,2)9-16(25)18(12)19/h7,12-13,15-16,18,22,24-25,27H,3-6,8-10H2,1-2H3/t12-,13-,15-,16-,18+,19-,20-,21-/m0/s1

> <PUBCHEM_IUPAC_INCHIKEY>
GNFTWPCIRXSCQF-HVIRSNARSA-N

> <PUBCHEM_XLOGP3>
0.3

> <PUBCHEM_EXACT_MASS>
378.204239

> <PUBCHEM_MOLECULAR_FORMULA>
C21H30O6

> <PUBCHEM_MOLECULAR_WEIGHT>
378.4593

> <PUBCHEM_OPENEYE_CAN_SMILES>
CC12CCC(=O)C=C1C(CC3C2C(CC4(C3CCC4(C(=O)CO)O)C)O)O

> <PUBCHEM_OPENEYE_ISO_SMILES>
C[C@]12CCC(=O)C=C1[C@H](C[C@@H]3[C@@H]2[C@H](C[C@]4([C@H]3CC[C@@]4(C(=O)CO)O)C)O)O

> <PUBCHEM_CACTVS_TPSA>
115

> <PUBCHEM_MONOISOTOPIC_WEIGHT>
378.204239

> <PUBCHEM_TOTAL_CHARGE>
0

> <PUBCHEM_HEAVY_ATOM_COUNT>
27

> <PUBCHEM_ATOM_DEF_STEREO_COUNT>
8

> <PUBCHEM_ATOM_UDEF_STEREO_COUNT>
0

> <PUBCHEM_BOND_DEF_STEREO_COUNT>
0

> <PUBCHEM_BOND_UDEF_STEREO_COUNT>
0

> <PUBCHEM_ISOTOPIC_ATOM_COUNT>
0

> <PUBCHEM_COMPONENT_COUNT>
1

> <PUBCHEM_CACTVS_TAUTO_COUNT>
6

> <PUBCHEM_COORDINATE_TYPE>
1
5
255

> <PUBCHEM_BONDANNOTATIONS>
11  1  6
10  30  6
12  22  5
14  2  5
20  3  6
7  18  5
8  28  6
9  29  5

$$$$

