31378
  -OEChem-07051212523D

 56 59  0     1  0  0  0  0  0999 V2000
   -1.1752    0.0273    1.4192 F   0  0  0  0  0  0  0  0  0  0  0  0
    3.1693    0.2874    1.8908 O   0  0  0  0  0  0  0  0  0  0  0  0
   -0.1995   -2.1658   -1.2572 O   0  0  0  0  0  0  0  0  0  0  0  0
    4.3884   -1.6786   -0.0900 O   0  0  0  0  0  0  0  0  0  0  0  0
    6.8507   -0.5730    0.4461 O   0  0  0  0  0  0  0  0  0  0  0  0
   -6.3972    0.0214    1.2333 O   0  0  0  0  0  0  0  0  0  0  0  0
    1.9346   -0.1700   -0.1857 C   0  0  1  0  0  0  0  0  0  0  0  0
    1.0477    1.0767    0.0281 C   0  0  2  0  0  0  0  0  0  0  0  0
   -0.3571    0.9399   -0.5787 C   0  0  1  0  0  0  0  0  0  0  0  0
   -1.0784   -0.2835    0.0706 C   0  0  2  0  0  0  0  0  0  0  0  0
    3.2482    0.3373    0.4691 C   0  0  1  0  0  0  0  0  0  0  0  0
    1.2405   -1.3548    0.5155 C   0  0  0  0  0  0  0  0  0  0  0  0
   -2.5700   -0.4504   -0.4336 C   0  0  2  0  0  0  0  0  0  0  0  0
   -0.2115   -1.5771    0.0340 C   0  0  2  0  0  0  0  0  0  0  0  0
    1.9392    2.2276   -0.4314 C   0  0  0  0  0  0  0  0  0  0  0  0
    3.3565    1.8100    0.0126 C   0  0  0  0  0  0  0  0  0  0  0  0
   -1.1664    2.2252   -0.3402 C   0  0  0  0  0  0  0  0  0  0  0  0
    2.1895   -0.4910   -1.6846 C   0  0  0  0  0  0  0  0  0  0  0  0
   -3.2994    0.8937   -0.2938 C   0  0  0  0  0  0  0  0  0  0  0  0
   -2.5916    2.1015   -0.8590 C   0  0  0  0  0  0  0  0  0  0  0  0
   -3.2702   -1.5301    0.4437 C   0  0  0  0  0  0  0  0  0  0  0  0
   -2.6789   -0.8692   -1.9186 C   0  0  0  0  0  0  0  0  0  0  0  0
    4.4655   -0.4720    0.1366 C   0  0  0  0  0  0  0  0  0  0  0  0
   -4.7868   -1.5087    0.3385 C   0  0  0  0  0  0  0  0  0  0  0  0
   -4.5177    1.0366    0.2543 C   0  0  0  0  0  0  0  0  0  0  0  0
   -5.3101   -0.1391    0.6824 C   0  0  0  0  0  0  0  0  0  0  0  0
    5.7796    0.2787    0.0980 C   0  0  0  0  0  0  0  0  0  0  0  0
    0.9050    1.2217    1.1115 H   0  0  0  0  0  0  0  0  0  0  0  0
   -0.2790    0.7948   -1.6604 H   0  0  0  0  0  0  0  0  0  0  0  0
    1.1913   -1.1809    1.5969 H   0  0  0  0  0  0  0  0  0  0  0  0
    1.8250   -2.2704    0.3676 H   0  0  0  0  0  0  0  0  0  0  0  0
   -0.6561   -2.3140    0.7129 H   0  0  0  0  0  0  0  0  0  0  0  0
    1.6487    3.1802    0.0235 H   0  0  0  0  0  0  0  0  0  0  0  0
    1.8996    2.3539   -1.5193 H   0  0  0  0  0  0  0  0  0  0  0  0
    4.0307    1.9586   -0.8371 H   0  0  0  0  0  0  0  0  0  0  0  0
    3.6935    2.4581    0.8299 H   0  0  0  0  0  0  0  0  0  0  0  0
   -0.6844    3.0716   -0.8434 H   0  0  0  0  0  0  0  0  0  0  0  0
   -1.1872    2.4661    0.7307 H   0  0  0  0  0  0  0  0  0  0  0  0
    2.6328   -1.4844   -1.8108 H   0  0  0  0  0  0  0  0  0  0  0  0
    1.2758   -0.4851   -2.2824 H   0  0  0  0  0  0  0  0  0  0  0  0
    2.8675    0.2264   -2.1589 H   0  0  0  0  0  0  0  0  0  0  0  0
   -2.5772    2.0261   -1.9533 H   0  0  0  0  0  0  0  0  0  0  0  0
   -3.1323    3.0264   -0.6239 H   0  0  0  0  0  0  0  0  0  0  0  0
   -3.0071   -1.3798    1.4995 H   0  0  0  0  0  0  0  0  0  0  0  0
   -2.9137   -2.5327    0.1780 H   0  0  0  0  0  0  0  0  0  0  0  0
   -3.6945   -0.7192   -2.3053 H   0  0  0  0  0  0  0  0  0  0  0  0
   -2.0075   -0.2947   -2.5639 H   0  0  0  0  0  0  0  0  0  0  0  0
   -2.4534   -1.9302   -2.0626 H   0  0  0  0  0  0  0  0  0  0  0  0
    3.1517   -0.6438    2.1692 H   0  0  0  0  0  0  0  0  0  0  0  0
   -5.2068   -2.2303    1.0480 H   0  0  0  0  0  0  0  0  0  0  0  0
   -5.1309   -1.7774   -0.6651 H   0  0  0  0  0  0  0  0  0  0  0  0
    0.3108   -2.9915   -1.2029 H   0  0  0  0  0  0  0  0  0  0  0  0
   -4.9963    2.0060    0.3444 H   0  0  0  0  0  0  0  0  0  0  0  0
    5.7746    1.0891    0.8310 H   0  0  0  0  0  0  0  0  0  0  0  0
    5.9503    0.6846   -0.9025 H   0  0  0  0  0  0  0  0  0  0  0  0
    6.9228   -1.2504   -0.2479 H   0  0  0  0  0  0  0  0  0  0  0  0
  1 10  1  0  0  0  0
  2 11  1  0  0  0  0
  2 49  1  0  0  0  0
  3 14  1  0  0  0  0
  3 52  1  0  0  0  0
  4 23  2  0  0  0  0
  5 27  1  0  0  0  0
  5 56  1  0  0  0  0
  6 26  2  0  0  0  0
  7  8  1  0  0  0  0
  7 11  1  0  0  0  0
  7 12  1  0  0  0  0
  7 18  1  0  0  0  0
  8  9  1  0  0  0  0
  8 15  1  0  0  0  0
  8 28  1  0  0  0  0
  9 10  1  0  0  0  0
  9 17  1  0  0  0  0
  9 29  1  0  0  0  0
 10 13  1  0  0  0  0
 10 14  1  0  0  0  0
 11 16  1  0  0  0  0
 11 23  1  0  0  0  0
 12 14  1  0  0  0  0
 12 30  1  0  0  0  0
 12 31  1  0  0  0  0
 13 19  1  0  0  0  0
 13 21  1  0  0  0  0
 13 22  1  0  0  0  0
 14 32  1  0  0  0  0
 15 16  1  0  0  0  0
 15 33  1  0  0  0  0
 15 34  1  0  0  0  0
 16 35  1  0  0  0  0
 16 36  1  0  0  0  0
 17 20  1  0  0  0  0
 17 37  1  0  0  0  0
 17 38  1  0  0  0  0
 18 39  1  0  0  0  0
 18 40  1  0  0  0  0
 18 41  1  0  0  0  0
 19 20  1  0  0  0  0
 19 25  2  0  0  0  0
 20 42  1  0  0  0  0
 20 43  1  0  0  0  0
 21 24  1  0  0  0  0
 21 44  1  0  0  0  0
 21 45  1  0  0  0  0
 22 46  1  0  0  0  0
 22 47  1  0  0  0  0
 22 48  1  0  0  0  0
 23 27  1  0  0  0  0
 24 26  1  0  0  0  0
 24 50  1  0  0  0  0
 24 51  1  0  0  0  0
 25 26  1  0  0  0  0
 25 53  1  0  0  0  0
 27 54  1  0  0  0  0
 27 55  1  0  0  0  0
M  END
> <PUBCHEM_COMPOUND_CID>
31378

> <PUBCHEM_CONFORMER_RMSD>
0.8

> <PUBCHEM_CONFORMER_DIVERSEORDER>
1
2

> <PUBCHEM_MMFF94_PARTIAL_CHARGES>
21
1 -0.34
10 0.34
11 0.34
13 0.14
14 0.28
19 -0.28
2 -0.68
20 0.14
23 0.45
24 0.06
25 -0.14
26 0.49
27 0.34
3 -0.68
4 -0.57
49 0.4
5 -0.68
52 0.4
53 0.15
56 0.4
6 -0.57

> <PUBCHEM_EFFECTIVE_ROTOR_COUNT>
3.8

> <PUBCHEM_PHARMACOPHORE_FEATURES>
12
1 2 acceptor
1 2 donor
1 3 acceptor
1 3 donor
1 4 acceptor
1 5 acceptor
1 5 donor
1 6 acceptor
5 7 8 11 15 16 rings
6 13 19 21 24 25 26 rings
6 7 8 9 10 12 14 rings
6 9 10 13 17 19 20 rings

> <PUBCHEM_HEAVY_ATOM_COUNT>
27

> <PUBCHEM_ATOM_DEF_STEREO_COUNT>
7

> <PUBCHEM_ATOM_UDEF_STEREO_COUNT>
0

> <PUBCHEM_BOND_DEF_STEREO_COUNT>
0

> <PUBCHEM_BOND_UDEF_STEREO_COUNT>
0

> <PUBCHEM_ISOTOPIC_ATOM_COUNT>
0

> <PUBCHEM_COMPONENT_COUNT>
1

> <PUBCHEM_CACTVS_TAUTO_COUNT>
15

> <PUBCHEM_CONFORMER_ID>
00007A9200000001

> <PUBCHEM_MMFF94_ENERGY>
90.2829

> <PUBCHEM_FEATURE_SELFOVERLAP>
60.99

> <PUBCHEM_SHAPE_FINGERPRINT>
10366900 7 17203891850946302065
11089746 13 16587746438794873513
11963148 33 18202004296376120075
12035758 1 18187941585990353800
12107698 1 18201720647802207976
12236239 1 18040996206906518506
12403259 226 18342182171576575356
12403259 415 18261403247244152688
12403814 3 18334581226867133349
12422481 6 18337103562212458169
12553582 1 18272103689772831201
12592029 89 18410570716808342419
12633257 1 17312822645579899225
13140716 1 18268427927980356923
13224815 77 18343305846879846917
13288520 33 18342739623902792181
13583140 156 17274002205744190095
13675066 3 18187086135267236307
14341114 176 18412541032986414240
14849402 71 18269550538565548404
14955137 171 18408316683506083641
15196674 1 18412826850196491445
15209289 33 18202283606297759899
15375358 24 9007056872385826292
15788980 27 14996285807849369692
16945 1 18201168727466896413
17349148 13 17418093230202059385
1813 80 17131829855057499725
18186145 218 17774732986435312044
19141452 34 18040718039107639991
200 152 18040720268100519273
20028762 73 18335705987975633783
20261772 1 18335423443704105031
21033648 29 17896057544999219904
21267235 1 18343858922465967424
22182313 1 18189895486017820351
23402539 116 18187372012632989342
23522609 53 18055884736845856308
23557571 272 18409726296304890453
23559900 14 18341619204516923344
296302 2 4751159618620320165
335352 9 18341895195310780469
350125 39 18410853257090001004
392239 28 18201705238055344315
4340502 62 15647046049947004975
465052 167 18201430363783964587
5104073 3 18337391530615264233
5265222 85 18261386682266903116
542803 24 18040434382392849248

> <PUBCHEM_SHAPE_MULTIPOLES>
519.03
12.13
2.09
1.22
3.48
0.53
-0.2
-1.78
3.49
-0.31
-0.36
-0.31
-0.22
0.16

> <PUBCHEM_SHAPE_SELFOVERLAP>
1125.561

> <PUBCHEM_SHAPE_VOLUME>
284

> <PUBCHEM_COORDINATE_TYPE>
2
5
10

$$$$

