530
  -OEChem-07051212443D

 58 60  0     1  0  0  0  0  0999 V2000
    4.7919    1.8729    1.6070 O   0  0  0  0  0  0  0  0  0  0  0  0
   -3.6062    1.3195   -2.1649 O   0  0  0  0  0  0  0  0  0  0  0  0
   -7.4402    2.7366    0.7849 O   0  0  0  0  0  0  0  0  0  0  0  0
   -5.6707    2.1016    2.0563 O   0  0  0  0  0  0  0  0  0  0  0  0
   -8.0502   -2.9325    0.5355 O   0  0  0  0  0  0  0  0  0  0  0  0
   -8.3555   -1.9353   -1.4794 O   0  0  0  0  0  0  0  0  0  0  0  0
    4.4389   -0.9340    1.0877 N   0  0  0  0  0  0  0  0  0  0  0  0
    5.5421   -1.7630   -1.3209 N   0  0  0  0  0  0  0  0  0  0  0  0
    1.6283   -1.0927    0.5626 N   0  0  0  0  0  0  0  0  0  0  0  0
    6.5944    0.3915   -1.5701 N   0  0  0  0  0  0  0  0  0  0  0  0
    6.4389    2.0928    0.0448 N   0  0  0  0  0  0  0  0  0  0  0  0
   -4.4229    0.9473   -0.0268 N   0  0  0  0  0  0  0  0  0  0  0  0
    3.4575   -1.5291    3.1759 N   0  0  0  0  0  0  0  0  0  0  0  0
    7.8533    2.2979   -1.8233 N   0  0  0  0  0  0  0  0  0  0  0  0
    3.8373   -2.1150    0.4067 C   0  0  2  0  0  0  0  0  0  0  0  0
    4.8688   -2.7691   -0.5269 C   0  0  0  0  0  0  0  0  0  0  0  0
    2.5661   -1.6930   -0.3347 C   0  0  0  0  0  0  0  0  0  0  0  0
    5.2583   -0.0840    0.3148 C   0  0  0  0  0  0  0  0  0  0  0  0
    5.7956   -0.4806   -0.8677 C   0  0  0  0  0  0  0  0  0  0  0  0
    4.1944   -0.7887    2.4190 C   0  0  0  0  0  0  0  0  0  0  0  0
    5.4766    1.3636    0.7247 C   0  0  0  0  0  0  0  0  0  0  0  0
    0.3847   -0.5954    0.1778 C   0  0  0  0  0  0  0  0  0  0  0  0
    6.9347    1.6194   -1.0660 C   0  0  0  0  0  0  0  0  0  0  0  0
   -0.4775   -0.0189    1.1231 C   0  0  0  0  0  0  0  0  0  0  0  0
   -0.0278   -0.6607   -1.1621 C   0  0  0  0  0  0  0  0  0  0  0  0
   -5.7679    1.4127   -0.2778 C   0  0  1  0  0  0  0  0  0  0  0  0
   -6.6943    0.3010   -0.7852 C   0  0  0  0  0  0  0  0  0  0  0  0
   -2.1190    0.4090   -0.5971 C   0  0  0  0  0  0  0  0  0  0  0  0
   -1.7219    0.4802    0.7381 C   0  0  0  0  0  0  0  0  0  0  0  0
   -1.2721   -0.1615   -1.5473 C   0  0  0  0  0  0  0  0  0  0  0  0
   -3.4159    0.9305   -0.9989 C   0  0  0  0  0  0  0  0  0  0  0  0
   -6.9241   -0.8695    0.1792 C   0  0  0  0  0  0  0  0  0  0  0  0
   -6.2610    2.0911    0.9838 C   0  0  0  0  0  0  0  0  0  0  0  0
   -7.8348   -1.9449   -0.3728 C   0  0  0  0  0  0  0  0  0  0  0  0
    3.5590   -2.8833    1.1406 H   0  0  0  0  0  0  0  0  0  0  0  0
    5.6226   -3.2930    0.0733 H   0  0  0  0  0  0  0  0  0  0  0  0
    4.3971   -3.5110   -1.1799 H   0  0  0  0  0  0  0  0  0  0  0  0
    2.1234   -2.5806   -0.8036 H   0  0  0  0  0  0  0  0  0  0  0  0
    2.8179   -0.9864   -1.1351 H   0  0  0  0  0  0  0  0  0  0  0  0
    5.9919   -2.0365   -2.1879 H   0  0  0  0  0  0  0  0  0  0  0  0
    1.8314   -1.0830    1.5554 H   0  0  0  0  0  0  0  0  0  0  0  0
    4.7601    0.0181    2.9061 H   0  0  0  0  0  0  0  0  0  0  0  0
    6.9871    0.0506   -2.4403 H   0  0  0  0  0  0  0  0  0  0  0  0
   -0.1787    0.0507    2.1667 H   0  0  0  0  0  0  0  0  0  0  0  0
    0.6000   -1.0984   -1.9333 H   0  0  0  0  0  0  0  0  0  0  0  0
   -5.7018    2.1920   -1.0475 H   0  0  0  0  0  0  0  0  0  0  0  0
   -7.6696    0.7367   -1.0391 H   0  0  0  0  0  0  0  0  0  0  0  0
   -6.2887   -0.0967   -1.7251 H   0  0  0  0  0  0  0  0  0  0  0  0
   -2.3362    0.9443    1.5042 H   0  0  0  0  0  0  0  0  0  0  0  0
   -1.5649   -0.2305   -2.5918 H   0  0  0  0  0  0  0  0  0  0  0  0
   -4.2453    0.5454    0.8880 H   0  0  0  0  0  0  0  0  0  0  0  0
    3.5040   -1.1864    4.1418 H   0  0  0  0  0  0  0  0  0  0  0  0
   -5.9657   -1.3423    0.4203 H   0  0  0  0  0  0  0  0  0  0  0  0
   -7.3757   -0.4973    1.1053 H   0  0  0  0  0  0  0  0  0  0  0  0
    8.1860    3.2154   -1.5477 H   0  0  0  0  0  0  0  0  0  0  0  0
    8.2249    1.9057   -2.6816 H   0  0  0  0  0  0  0  0  0  0  0  0
   -7.7506    3.1891    1.5980 H   0  0  0  0  0  0  0  0  0  0  0  0
   -8.6545   -3.6228    0.1882 H   0  0  0  0  0  0  0  0  0  0  0  0
  1 21  2  0  0  0  0
  2 31  2  0  0  0  0
  3 33  1  0  0  0  0
  3 57  1  0  0  0  0
  4 33  2  0  0  0  0
  5 34  1  0  0  0  0
  5 58  1  0  0  0  0
  6 34  2  0  0  0  0
  7 15  1  0  0  0  0
  7 18  1  0  0  0  0
  7 20  1  0  0  0  0
  8 16  1  0  0  0  0
  8 19  1  0  0  0  0
  8 40  1  0  0  0  0
  9 17  1  0  0  0  0
  9 22  1  0  0  0  0
  9 41  1  0  0  0  0
 10 19  1  0  0  0  0
 10 23  1  0  0  0  0
 10 43  1  0  0  0  0
 11 21  1  0  0  0  0
 11 23  2  0  0  0  0
 12 26  1  0  0  0  0
 12 31  1  0  0  0  0
 12 51  1  0  0  0  0
 13 20  2  0  0  0  0
 13 52  1  0  0  0  0
 14 23  1  0  0  0  0
 14 55  1  0  0  0  0
 14 56  1  0  0  0  0
 15 16  1  0  0  0  0
 15 17  1  0  0  0  0
 15 35  1  0  0  0  0
 16 36  1  0  0  0  0
 16 37  1  0  0  0  0
 17 38  1  0  0  0  0
 17 39  1  0  0  0  0
 18 19  2  0  0  0  0
 18 21  1  0  0  0  0
 20 42  1  0  0  0  0
 22 24  2  0  0  0  0
 22 25  1  0  0  0  0
 24 29  1  0  0  0  0
 24 44  1  0  0  0  0
 25 30  2  0  0  0  0
 25 45  1  0  0  0  0
 26 27  1  0  0  0  0
 26 33  1  0  0  0  0
 26 46  1  0  0  0  0
 27 32  1  0  0  0  0
 27 47  1  0  0  0  0
 27 48  1  0  0  0  0
 28 29  2  0  0  0  0
 28 30  1  0  0  0  0
 28 31  1  0  0  0  0
 29 49  1  0  0  0  0
 30 50  1  0  0  0  0
 32 34  1  0  0  0  0
 32 53  1  0  0  0  0
 32 54  1  0  0  0  0
M  END
> <PUBCHEM_COMPOUND_CID>
530

> <PUBCHEM_CONFORMER_RMSD>
1.2

> <PUBCHEM_CONFORMER_DIVERSEORDER>
51
39
105
125
101
118
132
71
6
83
179
172
53
77
139
100
88
178
120
37
161
15
104
173
108
58
47
22
62
129
174
40
90
19
28
57
119
89
133
59
122
70
92
126
145
81
9
109
12
102
136
103
128
94
50
97
68
32
150
124
63
10
25
162
95
27
43
54
116
137
167
98
112
20
163
79
142
76
84
164
152
35
8
135
61
148
114
5
106
110
2
16
55
121
113
115
86
144
49
175
141
160
156
80
64
171
42
56
127
165
123
146
24
143
147
34
169
52
153
67
13
130
31
99
78
73
26
157
72
11
85
134
41
45
138
33
111
14
7
46
74
29
82
3
149
18
38
93
65
21
117
30
48
159
151
23
1
60
17
131
36
96
91
158
87
170
66
177
75
166
107
140
69
44
4
155
168
154
176

> <PUBCHEM_MMFF94_PARTIAL_CHARGES>
47
1 -0.57
10 -0.55
11 -0.66
12 -0.73
13 -0.85
14 -0.85
15 0.37
16 0.37
17 0.37
18 0.11
19 0.2
2 -0.57
20 0.44
21 0.77
22 0.1
23 0.55
24 -0.15
25 -0.15
26 0.36
28 0.09
29 -0.15
3 -0.65
30 -0.15
31 0.54
32 0.06
33 0.66
34 0.66
4 -0.57
40 0.4
41 0.4
42 0.06
43 0.4
44 0.15
45 0.15
49 0.15
5 -0.65
50 0.15
51 0.37
52 0.4
55 0.4
56 0.4
57 0.5
58 0.5
6 -0.57
7 -0.52
8 -0.87
9 -0.87

> <PUBCHEM_EFFECTIVE_ROTOR_COUNT>
11.8

> <PUBCHEM_PHARMACOPHORE_FEATURES>
21
1 1 acceptor
1 10 donor
1 11 donor
1 12 donor
1 13 donor
1 14 donor
1 2 acceptor
1 3 acceptor
1 4 acceptor
1 5 acceptor
1 6 acceptor
1 8 cation
1 8 donor
1 9 cation
1 9 donor
3 3 4 33 anion
3 5 6 34 anion
3 7 13 20 cation
6 10 11 18 19 21 23 rings
6 22 24 25 28 29 30 rings
6 7 8 15 16 18 19 rings

> <PUBCHEM_HEAVY_ATOM_COUNT>
34

> <PUBCHEM_ATOM_DEF_STEREO_COUNT>
0

> <PUBCHEM_ATOM_UDEF_STEREO_COUNT>
2

> <PUBCHEM_BOND_DEF_STEREO_COUNT>
0

> <PUBCHEM_BOND_UDEF_STEREO_COUNT>
0

> <PUBCHEM_ISOTOPIC_ATOM_COUNT>
0

> <PUBCHEM_COMPONENT_COUNT>
1

> <PUBCHEM_CACTVS_TAUTO_COUNT>
27

> <PUBCHEM_CONFORMER_ID>
0000021200000033

> <PUBCHEM_MMFF94_ENERGY>
104.8957

> <PUBCHEM_FEATURE_SELFOVERLAP>
106.867

> <PUBCHEM_SHAPE_FINGERPRINT>
11007060 377 17988923384314398931
11115154 58 5400806090115995122
11315181 36 18412262849220781309
11719270 70 13686296902551523025
11724838 91 17846780693980764342
11991303 11 16370736915479327109
1200032 147 18342171164656115568
12120059 9 14333416623168855233
13533116 47 17131274704738509218
14444916 359 14996277007862399037
14856354 85 17458350698446289471
15183329 4 4750869326065292193
15475509 8 14056716825019805875
1577012 14 18409166640939720225
17899979 129 18187085002288206512
20105231 36 16298099874370907047
21130935 74 18410854404041629739
21781051 124 16660361459279283390
23389318 12 18200881682403283295
23424782 7 18411418384744711855
24771293 8 17775281659901903708
335507 130 18040723540960785175
34797466 226 18343017839352889718
394071 54 17989200443891136932
397830 11 18130211706077216817
3986486 107 18115008763781273500
4073 2 18335698391111637299
4625314 4 18267304412281582295
4760202 70 18117566128799911879
5109719 28 17417801834405452668
531348 171 10303806593483466345
5381727 24 18343588435092130178
6126387 218 9727638289265029510
9831232 110 18043808912549748790
9962374 69 17488759989941020250

> <PUBCHEM_SHAPE_MULTIPOLES>
624.64
27.25
2.83
1.98
25.15
0.24
0.84
-3.01
-4
1.02
0.17
-1.75
-0.11
-2.42

> <PUBCHEM_SHAPE_SELFOVERLAP>
1324.925

> <PUBCHEM_SHAPE_VOLUME>
342.8

> <PUBCHEM_COORDINATE_TYPE>
2
5
10

$$$$

