442415
  -OEChem-07051212582D

 42 44  0     1  0  0  0  0  0999 V2000
    6.3301    0.6900    0.0000 O   0  0  0  0  0  0  0  0  0  0  0  0
    4.5981   -1.3100    0.0000 O   0  0  0  0  0  0  0  0  0  0  0  0
    6.3301   -2.3100    0.0000 O   0  0  0  0  0  0  0  0  0  0  0  0
    8.0785   -2.3446    0.0000 O   0  0  0  0  0  0  0  0  0  0  0  0
    9.8602   -1.3342    0.0000 O   0  0  0  0  0  0  0  0  0  0  0  0
    9.8602    0.7141    0.0000 O   0  0  0  0  0  0  0  0  0  0  0  0
    2.0000    2.1900    0.0000 O   0  0  0  0  0  0  0  0  0  0  0  0
    5.4641   -2.8100    0.0000 O   0  0  0  0  0  0  0  0  0  0  0  0
    5.4641    0.1900    0.0000 C   0  0  1  0  0  0  0  0  0  0  0  0
    5.4641   -0.8100    0.0000 C   0  0  2  0  0  0  0  0  0  0  0  0
    6.3301   -1.3100    0.0000 C   0  0  0  0  0  0  0  0  0  0  0  0
    7.1962   -0.8100    0.0000 C   0  0  0  0  0  0  0  0  0  0  0  0
    4.5981    0.6900    0.0000 C   0  0  0  0  0  0  0  0  0  0  0  0
    7.1962    0.1900    0.0000 C   0  0  0  0  0  0  0  0  0  0  0  0
    8.0901   -1.3447    0.0000 C   0  0  0  0  0  0  0  0  0  0  0  0
    8.0901    0.7247    0.0000 C   0  0  0  0  0  0  0  0  0  0  0  0
    4.5981    1.6900    0.0000 C   0  0  0  0  0  0  0  0  0  0  0  0
    3.7320    0.1900    0.0000 C   0  0  0  0  0  0  0  0  0  0  0  0
    8.9962   -0.8308    0.0000 C   0  0  0  0  0  0  0  0  0  0  0  0
    8.9962    0.2108    0.0000 C   0  0  0  0  0  0  0  0  0  0  0  0
    3.7320    2.1900    0.0000 C   0  0  0  0  0  0  0  0  0  0  0  0
    2.8660    0.6900    0.0000 C   0  0  0  0  0  0  0  0  0  0  0  0
    2.8660    1.6900    0.0000 C   0  0  0  0  0  0  0  0  0  0  0  0
    4.5981   -2.3100    0.0000 C   0  0  0  0  0  0  0  0  0  0  0  0
    3.7320   -2.8100    0.0000 C   0  0  0  0  0  0  0  0  0  0  0  0
   10.7282   -0.8375    0.0000 C   0  0  0  0  0  0  0  0  0  0  0  0
    5.4641    0.8100    0.0000 H   0  0  0  0  0  0  0  0  0  0  0  0
    5.4641   -1.4300    0.0000 H   0  0  0  0  0  0  0  0  0  0  0  0
    8.0829    1.3446    0.0000 H   0  0  0  0  0  0  0  0  0  0  0  0
    5.1350    2.0000    0.0000 H   0  0  0  0  0  0  0  0  0  0  0  0
    3.7320   -0.4300    0.0000 H   0  0  0  0  0  0  0  0  0  0  0  0
    3.7320    2.8100    0.0000 H   0  0  0  0  0  0  0  0  0  0  0  0
    2.3291    0.3800    0.0000 H   0  0  0  0  0  0  0  0  0  0  0  0
    8.6118   -2.6608    0.0000 H   0  0  0  0  0  0  0  0  0  0  0  0
    3.4220   -2.2731    0.0000 H   0  0  0  0  0  0  0  0  0  0  0  0
    3.1951   -3.1200    0.0000 H   0  0  0  0  0  0  0  0  0  0  0  0
    4.0420   -3.3469    0.0000 H   0  0  0  0  0  0  0  0  0  0  0  0
    9.8579    1.3342    0.0000 H   0  0  0  0  0  0  0  0  0  0  0  0
   11.0361   -1.3756    0.0000 H   0  0  0  0  0  0  0  0  0  0  0  0
   11.2663   -0.5296    0.0000 H   0  0  0  0  0  0  0  0  0  0  0  0
   10.4203   -0.2994    0.0000 H   0  0  0  0  0  0  0  0  0  0  0  0
    2.0000    2.8100    0.0000 H   0  0  0  0  0  0  0  0  0  0  0  0
  1  9  1  0  0  0  0
  1 14  1  0  0  0  0
 10  2  1  6  0  0  0
  2 24  1  0  0  0  0
  3 11  2  0  0  0  0
  4 15  1  0  0  0  0
  4 34  1  0  0  0  0
  5 19  1  0  0  0  0
  5 26  1  0  0  0  0
  6 20  1  0  0  0  0
  6 38  1  0  0  0  0
  7 23  1  0  0  0  0
  7 42  1  0  0  0  0
  8 24  2  0  0  0  0
  9 10  1  0  0  0  0
  9 13  1  1  0  0  0
  9 27  1  0  0  0  0
 10 11  1  0  0  0  0
 10 28  1  0  0  0  0
 11 12  1  0  0  0  0
 12 14  1  0  0  0  0
 12 15  2  0  0  0  0
 13 17  2  0  0  0  0
 13 18  1  0  0  0  0
 14 16  2  0  0  0  0
 15 19  1  0  0  0  0
 16 20  1  0  0  0  0
 16 29  1  0  0  0  0
 17 21  1  0  0  0  0
 17 30  1  0  0  0  0
 18 22  2  0  0  0  0
 18 31  1  0  0  0  0
 19 20  2  0  0  0  0
 21 23  2  0  0  0  0
 21 32  1  0  0  0  0
 22 23  1  0  0  0  0
 22 33  1  0  0  0  0
 24 25  1  0  0  0  0
 25 35  1  0  0  0  0
 25 36  1  0  0  0  0
 25 37  1  0  0  0  0
 26 39  1  0  0  0  0
 26 40  1  0  0  0  0
 26 41  1  0  0  0  0
M  END
> <PUBCHEM_COMPOUND_CID>
442415

> <PUBCHEM_COMPOUND_CANONICALIZED>
1

> <PUBCHEM_CACTVS_COMPLEXITY>
529

> <PUBCHEM_CACTVS_HBOND_ACCEPTOR>
8

> <PUBCHEM_CACTVS_HBOND_DONOR>
3

> <PUBCHEM_CACTVS_ROTATABLE_BOND>
4

> <PUBCHEM_CACTVS_SUBSKEYS>
AAADceB4PAAAAAAAAAAAAAAAAAAAAAAAAAA0YIAAAAAAAACRQAAAGgAACAAADBSgmAIyDoAABgCIAqDSCAICCAAkIAAIiAFGiMgNJzaGNR6CeWOl4BULuQfK7PzOIQABCAAIQABCAAIQABCAAAAAAAAAAA==

> <PUBCHEM_IUPAC_OPENEYE_NAME>
[(2R,3R)-5,7-dihydroxy-2-(4-hydroxyphenyl)-6-methoxy-4-oxo-chroman-3-yl] acetate

> <PUBCHEM_IUPAC_CAS_NAME>
acetic acid [(2R,3R)-5,7-dihydroxy-2-(4-hydroxyphenyl)-6-methoxy-4-oxo-3,4-dihydro-2H-1-benzopyran-3-yl] ester

> <PUBCHEM_IUPAC_NAME>
[(2R,3R)-5,7-dihydroxy-2-(4-hydroxyphenyl)-6-methoxy-4-oxo-2,3-dihydrochromen-3-yl] acetate

> <PUBCHEM_IUPAC_SYSTEMATIC_NAME>
[(2R,3R)-2-(4-hydroxyphenyl)-6-methoxy-5,7-bis(oxidanyl)-4-oxidanylidene-2,3-dihydrochromen-3-yl] ethanoate

> <PUBCHEM_IUPAC_TRADITIONAL_NAME>
acetic acid [(2R,3R)-5,7-dihydroxy-2-(4-hydroxyphenyl)-4-keto-6-methoxy-chroman-3-yl] ester

> <PUBCHEM_IUPAC_INCHI>
InChI=1S/C18H16O8/c1-8(19)25-18-15(23)13-12(7-11(21)17(24-2)14(13)22)26-16(18)9-3-5-10(20)6-4-9/h3-7,16,18,20-22H,1-2H3/t16-,18+/m1/s1

> <PUBCHEM_IUPAC_INCHIKEY>
SZKFMAOEZUMSRT-AEFFLSMTSA-N

> <PUBCHEM_XLOGP3_AA>
2.4

> <PUBCHEM_EXACT_MASS>
360.084517

> <PUBCHEM_MOLECULAR_FORMULA>
C18H16O8

> <PUBCHEM_MOLECULAR_WEIGHT>
360.31484

> <PUBCHEM_OPENEYE_CAN_SMILES>
CC(=O)OC1C(OC2=CC(=C(C(=C2C1=O)O)OC)O)C3=CC=C(C=C3)O

> <PUBCHEM_OPENEYE_ISO_SMILES>
CC(=O)O[C@@H]1[C@H](OC2=CC(=C(C(=C2C1=O)O)OC)O)C3=CC=C(C=C3)O

> <PUBCHEM_CACTVS_TPSA>
123

> <PUBCHEM_MONOISOTOPIC_WEIGHT>
360.084517

> <PUBCHEM_TOTAL_CHARGE>
0

> <PUBCHEM_HEAVY_ATOM_COUNT>
26

> <PUBCHEM_ATOM_DEF_STEREO_COUNT>
2

> <PUBCHEM_ATOM_UDEF_STEREO_COUNT>
0

> <PUBCHEM_BOND_DEF_STEREO_COUNT>
0

> <PUBCHEM_BOND_UDEF_STEREO_COUNT>
0

> <PUBCHEM_ISOTOPIC_ATOM_COUNT>
0

> <PUBCHEM_COMPONENT_COUNT>
1

> <PUBCHEM_CACTVS_TAUTO_COUNT>
42

> <PUBCHEM_COORDINATE_TYPE>
1
5
255

> <PUBCHEM_BONDANNOTATIONS>
12  14  8
12  15  8
13  17  8
13  18  8
14  16  8
15  19  8
16  20  8
17  21  8
18  22  8
19  20  8
10  2  6
21  23  8
22  23  8
9  13  5

$$$$

