20191
  -OEChem-07051213053D

 44 45  0     0  0  0  0  0  0999 V2000
    6.2205    2.8722    1.1731 Cl  0  0  0  0  0  0  0  0  0  0  0  0
    5.3453   -3.7134    0.7310 Cl  0  0  0  0  0  0  0  0  0  0  0  0
   -4.3980   -2.7901   -0.5144 O   0  0  0  0  0  0  0  0  0  0  0  0
   -2.5683   -2.2789    0.7335 O   0  0  0  0  0  0  0  0  0  0  0  0
    4.0589   -0.0932   -0.5131 N   0  0  0  0  0  0  0  0  0  0  0  0
   -1.5108    0.4515   -0.7338 N   0  0  0  0  0  0  0  0  0  0  0  0
   -1.9877    0.4149    0.4240 N   0  0  0  0  0  0  0  0  0  0  0  0
    2.6567    0.0492   -0.5687 C   0  0  0  0  0  0  0  0  0  0  0  0
    4.9117    1.0746   -0.4143 C   0  0  0  0  0  0  0  0  0  0  0  0
    4.6657   -1.4082   -0.5683 C   0  0  0  0  0  0  0  0  0  0  0  0
    2.0814    1.3189   -0.5148 C   0  0  0  0  0  0  0  0  0  0  0  0
    0.6946    1.4591   -0.5699 C   0  0  0  0  0  0  0  0  0  0  0  0
    1.8450   -1.0801   -0.6773 C   0  0  0  0  0  0  0  0  0  0  0  0
   -0.1118    0.3292   -0.6785 C   0  0  0  0  0  0  0  0  0  0  0  0
    5.1645    1.4438    1.0390 C   0  0  0  0  0  0  0  0  0  0  0  0
    4.6114   -2.0914    0.7891 C   0  0  0  0  0  0  0  0  0  0  0  0
    0.4583   -0.9398   -0.7324 C   0  0  0  0  0  0  0  0  0  0  0  0
    0.1011    2.8286   -0.5089 C   0  0  0  0  0  0  0  0  0  0  0  0
   -3.3821    0.5369    0.3694 C   0  0  0  0  0  0  0  0  0  0  0  0
   -4.1966   -0.5905    0.2624 C   0  0  0  0  0  0  0  0  0  0  0  0
   -3.9543    1.8080    0.4238 C   0  0  0  0  0  0  0  0  0  0  0  0
   -5.5830   -0.4468    0.2098 C   0  0  0  0  0  0  0  0  0  0  0  0
   -5.3408    1.9515    0.3713 C   0  0  0  0  0  0  0  0  0  0  0  0
   -6.1551    0.8244    0.2642 C   0  0  0  0  0  0  0  0  0  0  0  0
   -3.6265   -1.9301    0.2036 C   0  0  0  0  0  0  0  0  0  0  0  0
    4.5552    1.9240   -1.0072 H   0  0  0  0  0  0  0  0  0  0  0  0
    5.8828    0.8449   -0.8747 H   0  0  0  0  0  0  0  0  0  0  0  0
    4.2302   -2.0278   -1.3618 H   0  0  0  0  0  0  0  0  0  0  0  0
    5.7211   -1.3148   -0.8580 H   0  0  0  0  0  0  0  0  0  0  0  0
    2.6670    2.2248   -0.4067 H   0  0  0  0  0  0  0  0  0  0  0  0
    2.2279   -2.0932   -0.7288 H   0  0  0  0  0  0  0  0  0  0  0  0
    5.6640    0.6350    1.5773 H   0  0  0  0  0  0  0  0  0  0  0  0
    4.2341    1.6746    1.5662 H   0  0  0  0  0  0  0  0  0  0  0  0
    3.5914   -2.2155    1.1612 H   0  0  0  0  0  0  0  0  0  0  0  0
    5.1646   -1.5252    1.5423 H   0  0  0  0  0  0  0  0  0  0  0  0
   -0.1651   -1.8254   -0.8215 H   0  0  0  0  0  0  0  0  0  0  0  0
    0.8629    3.6091   -0.6105 H   0  0  0  0  0  0  0  0  0  0  0  0
   -0.6162    2.9774   -1.3230 H   0  0  0  0  0  0  0  0  0  0  0  0
   -0.4057    2.9801    0.4497 H   0  0  0  0  0  0  0  0  0  0  0  0
   -3.3290    2.6931    0.5082 H   0  0  0  0  0  0  0  0  0  0  0  0
   -6.2457   -1.3054    0.1399 H   0  0  0  0  0  0  0  0  0  0  0  0
   -5.7862    2.9410    0.4147 H   0  0  0  0  0  0  0  0  0  0  0  0
   -7.2347    0.9365    0.2264 H   0  0  0  0  0  0  0  0  0  0  0  0
   -4.0075   -3.6894   -0.5486 H   0  0  0  0  0  0  0  0  0  0  0  0
  1 15  1  0  0  0  0
  2 16  1  0  0  0  0
  3 25  1  0  0  0  0
  3 44  1  0  0  0  0
  4 25  2  0  0  0  0
  5  8  1  0  0  0  0
  5  9  1  0  0  0  0
  5 10  1  0  0  0  0
  6  7  2  0  0  0  0
  6 14  1  0  0  0  0
  7 19  1  0  0  0  0
  8 11  2  0  0  0  0
  8 13  1  0  0  0  0
  9 15  1  0  0  0  0
  9 26  1  0  0  0  0
  9 27  1  0  0  0  0
 10 16  1  0  0  0  0
 10 28  1  0  0  0  0
 10 29  1  0  0  0  0
 11 12  1  0  0  0  0
 11 30  1  0  0  0  0
 12 14  2  0  0  0  0
 12 18  1  0  0  0  0
 13 17  2  0  0  0  0
 13 31  1  0  0  0  0
 14 17  1  0  0  0  0
 15 32  1  0  0  0  0
 15 33  1  0  0  0  0
 16 34  1  0  0  0  0
 16 35  1  0  0  0  0
 17 36  1  0  0  0  0
 18 37  1  0  0  0  0
 18 38  1  0  0  0  0
 18 39  1  0  0  0  0
 19 20  1  0  0  0  0
 19 21  2  0  0  0  0
 20 22  2  0  0  0  0
 20 25  1  0  0  0  0
 21 23  1  0  0  0  0
 21 40  1  0  0  0  0
 22 24  1  0  0  0  0
 22 41  1  0  0  0  0
 23 24  2  0  0  0  0
 23 42  1  0  0  0  0
 24 43  1  0  0  0  0
M  END
> <PUBCHEM_COMPOUND_CID>
20191

> <PUBCHEM_CONFORMER_RMSD>
0.8

> <PUBCHEM_CONFORMER_DIVERSEORDER>
4
99
13
71
57
43
21
112
105
27
66
107
25
103
22
17
78
59
104
95
110
55
16
49
97
54
3
26
98
51
94
102
19
56
79
81
113
47
11
92
76
45
32
31
60
91
111
100
64
77
86
50
23
73
38
39
20
93
35
14
48
53
7
5
70
52
87
82
69
44
46
18
72
74
10
67
42
61
33
84
41
90
6
65
40
85
28
58
63
83
29
89
96
88
62
8
106
9
68
101
24
2
30
75
15
109
36
108
1
34
80
12
37

> <PUBCHEM_MMFF94_PARTIAL_CHARGES>
33
1 -0.29
10 0.37
11 -0.15
12 -0.14
13 -0.15
14 0.18
15 0.29
16 0.29
17 -0.15
18 0.14
19 0.18
2 -0.29
20 0.09
21 -0.15
22 -0.15
23 -0.15
24 -0.15
25 0.63
3 -0.65
30 0.15
31 0.15
36 0.15
4 -0.57
40 0.15
41 0.15
42 0.15
43 0.15
44 0.5
5 -0.84
6 -0.18
7 -0.18
8 0.1
9 0.37

> <PUBCHEM_EFFECTIVE_ROTOR_COUNT>
8

> <PUBCHEM_PHARMACOPHORE_FEATURES>
6
1 3 acceptor
1 4 acceptor
1 5 cation
3 3 4 25 anion
6 19 20 21 22 23 24 rings
6 8 11 12 13 14 17 rings

> <PUBCHEM_HEAVY_ATOM_COUNT>
25

> <PUBCHEM_ATOM_DEF_STEREO_COUNT>
0

> <PUBCHEM_ATOM_UDEF_STEREO_COUNT>
0

> <PUBCHEM_BOND_DEF_STEREO_COUNT>
0

> <PUBCHEM_BOND_UDEF_STEREO_COUNT>
0

> <PUBCHEM_ISOTOPIC_ATOM_COUNT>
0

> <PUBCHEM_COMPONENT_COUNT>
1

> <PUBCHEM_CACTVS_TAUTO_COUNT>
1

> <PUBCHEM_CONFORMER_ID>
00004EDF00000004

> <PUBCHEM_MMFF94_ENERGY>
81.5724

> <PUBCHEM_FEATURE_SELFOVERLAP>
30.503

> <PUBCHEM_SHAPE_FINGERPRINT>
10 15 18339642248197852456
10835480 77 18333453144727345625
11045977 3 18260545615252324152
12107183 9 18123746723397353641
12236239 1 17894630370506264237
12596602 18 18113898217738233898
13073987 5 18411697669182476659
13140716 1 18409733997450459590
13533116 47 18342174527130465290
14341114 176 18408595968234031121
14565420 104 18262809450424606288
14790565 3 17908694039317693876
15196674 1 18410569582878759079
15475509 35 17417259874410550002
17492 89 18197490732671853371
1813 80 17132110247343866252
20511986 3 18341905099320696343
21033648 29 17676215632179529849
21130935 74 18411133658588658219
21859007 373 17773326836256288077
23402539 116 18408322220541828725
23559900 14 18335425613222168105
3004659 81 18130780209550244398
335352 9 18340762732783495997
3411729 13 18334296436376506848
34797466 226 17240472602818564940
3680242 22 18341884238406103035
4073 2 18270957938954271746
4214541 1 18410567393110082837
5104073 3 18408598179989046003
5364581 5 18120659024148437993
559249 180 18270398420996347651
9709674 26 18267291050870588583

> <PUBCHEM_SHAPE_MULTIPOLES>
491.55
16.24
3.51
0.97
1.04
1.4
0.07
-0.03
4.85
-4
0.87
-0.84
-0.1
0.09

> <PUBCHEM_SHAPE_SELFOVERLAP>
1016.139

> <PUBCHEM_SHAPE_VOLUME>
284.3

> <PUBCHEM_COORDINATE_TYPE>
2
5
10

$$$$

