17395778
  -OEChem-06241222522D

 47 49  0     1  0  0  0  0  0999 V2000
    2.8660   -5.1307    0.0000 Cl  0  0  0  0  0  0  0  0  0  0  0  0
    5.2791    5.1307    0.0000 O   0  0  0  0  0  0  0  0  0  0  0  0
    5.4641    0.3693    0.0000 O   0  0  0  0  0  0  0  0  0  0  0  0
    6.6804    4.1126    0.0000 N   0  0  0  0  0  0  0  0  0  0  0  0
    4.0981    3.4081    0.0000 N   0  0  0  0  0  0  0  0  0  0  0  0
    3.7320   -0.6307    0.0000 N   0  0  3  0  0  0  0  0  0  0  0  0
    8.1585    3.4545    0.0000 C   0  0  0  0  0  0  0  0  0  0  0  0
    8.2631    4.4490    0.0000 C   0  0  0  0  0  0  0  0  0  0  0  0
    7.3495    4.8558    0.0000 C   0  0  0  0  0  0  0  0  0  0  0  0
    7.1804    3.2466    0.0000 C   0  0  0  0  0  0  0  0  0  0  0  0
    5.6859    4.2172    0.0000 C   0  0  0  0  0  0  0  0  0  0  0  0
    5.0981    3.4081    0.0000 C   0  0  0  0  0  0  0  0  0  0  0  0
    5.4071    2.4571    0.0000 C   0  0  0  0  0  0  0  0  0  0  0  0
    4.5981    1.8693    0.0000 C   0  0  0  0  0  0  0  0  0  0  0  0
    3.7320    0.3693    0.0000 C   0  0  0  0  0  0  0  0  0  0  0  0
    3.7891    2.4571    0.0000 C   0  0  0  0  0  0  0  0  0  0  0  0
    4.5981    0.8693    0.0000 C   0  0  0  0  0  0  0  0  0  0  0  0
    2.8660   -1.1307    0.0000 C   0  0  0  0  0  0  0  0  0  0  0  0
    2.8660   -2.1307    0.0000 C   0  0  0  0  0  0  0  0  0  0  0  0
    4.5981   -1.1307    0.0000 C   0  0  0  0  0  0  0  0  0  0  0  0
    2.0000   -2.6307    0.0000 C   0  0  0  0  0  0  0  0  0  0  0  0
    3.7320   -2.6307    0.0000 C   0  0  0  0  0  0  0  0  0  0  0  0
    2.0000   -3.6307    0.0000 C   0  0  0  0  0  0  0  0  0  0  0  0
    3.7320   -3.6307    0.0000 C   0  0  0  0  0  0  0  0  0  0  0  0
    2.8660   -4.1307    0.0000 C   0  0  0  0  0  0  0  0  0  0  0  0
    8.8695    4.3201    0.0000 H   0  0  0  0  0  0  0  0  0  0  0  0
    8.4547    5.0387    0.0000 H   0  0  0  0  0  0  0  0  0  0  0  0
    8.2233    2.8379    0.0000 H   0  0  0  0  0  0  0  0  0  0  0  0
    8.7785    3.4545    0.0000 H   0  0  0  0  0  0  0  0  0  0  0  0
    7.6595    5.3927    0.0000 H   0  0  0  0  0  0  0  0  0  0  0  0
    6.8479    5.2202    0.0000 H   0  0  0  0  0  0  0  0  0  0  0  0
    6.6140    2.9944    0.0000 H   0  0  0  0  0  0  0  0  0  0  0  0
    7.3720    2.6570    0.0000 H   0  0  0  0  0  0  0  0  0  0  0  0
    5.9967    2.2655    0.0000 H   0  0  0  0  0  0  0  0  0  0  0  0
    3.7336    3.9097    0.0000 H   0  0  0  0  0  0  0  0  0  0  0  0
    3.5200    0.9519    0.0000 H   0  0  0  0  0  0  0  0  0  0  0  0
    3.1215    0.2616    0.0000 H   0  0  0  0  0  0  0  0  0  0  0  0
    3.1994    2.2655    0.0000 H   0  0  0  0  0  0  0  0  0  0  0  0
    2.6540   -0.5481    0.0000 H   0  0  0  0  0  0  0  0  0  0  0  0
    2.2554   -1.2384    0.0000 H   0  0  0  0  0  0  0  0  0  0  0  0
    4.2881   -1.6676    0.0000 H   0  0  0  0  0  0  0  0  0  0  0  0
    5.1350   -1.4407    0.0000 H   0  0  0  0  0  0  0  0  0  0  0  0
    4.9081   -0.5938    0.0000 H   0  0  0  0  0  0  0  0  0  0  0  0
    1.4631   -2.3207    0.0000 H   0  0  0  0  0  0  0  0  0  0  0  0
    4.2690   -2.3207    0.0000 H   0  0  0  0  0  0  0  0  0  0  0  0
    1.4631   -3.9407    0.0000 H   0  0  0  0  0  0  0  0  0  0  0  0
    4.2690   -3.9407    0.0000 H   0  0  0  0  0  0  0  0  0  0  0  0
  1 25  1  0  0  0  0
  2 11  2  0  0  0  0
  3 17  2  0  0  0  0
  4  9  1  0  0  0  0
  4 10  1  0  0  0  0
  4 11  1  0  0  0  0
  5 12  1  0  0  0  0
  5 16  1  0  0  0  0
  5 35  1  0  0  0  0
  6 15  1  0  0  0  0
  6 18  1  0  0  0  0
  6 20  1  0  0  0  0
  7  8  1  0  0  0  0
  7 10  1  0  0  0  0
  7 28  1  0  0  0  0
  7 29  1  0  0  0  0
  8  9  1  0  0  0  0
  8 26  1  0  0  0  0
  8 27  1  0  0  0  0
  9 30  1  0  0  0  0
  9 31  1  0  0  0  0
 10 32  1  0  0  0  0
 10 33  1  0  0  0  0
 11 12  1  0  0  0  0
 12 13  2  0  0  0  0
 13 14  1  0  0  0  0
 13 34  1  0  0  0  0
 14 16  2  0  0  0  0
 14 17  1  0  0  0  0
 15 17  1  0  0  0  0
 15 36  1  0  0  0  0
 15 37  1  0  0  0  0
 16 38  1  0  0  0  0
 18 19  1  0  0  0  0
 18 39  1  0  0  0  0
 18 40  1  0  0  0  0
 19 21  2  0  0  0  0
 19 22  1  0  0  0  0
 20 41  1  0  0  0  0
 20 42  1  0  0  0  0
 20 43  1  0  0  0  0
 21 23  1  0  0  0  0
 21 44  1  0  0  0  0
 22 24  2  0  0  0  0
 22 45  1  0  0  0  0
 23 25  2  0  0  0  0
 23 46  1  0  0  0  0
 24 25  1  0  0  0  0
 24 47  1  0  0  0  0
M  END
> <PUBCHEM_COMPOUND_CID>
17395778

> <PUBCHEM_COMPOUND_CANONICALIZED>
1

> <PUBCHEM_CACTVS_COMPLEXITY>
473

> <PUBCHEM_CACTVS_HBOND_ACCEPTOR>
3

> <PUBCHEM_CACTVS_HBOND_DONOR>
1

> <PUBCHEM_CACTVS_ROTATABLE_BOND>
6

> <PUBCHEM_CACTVS_SUBSKEYS>
AAADceB7MAAEAAAAAAAAAAAAAAAAAWLAAAAwAAAAAAAAAAABwAAAHgIQAAAADA7BniQ+gJPJkACoA7V3VACCgCA3ByAI2aG4ZtgIYPrBl7GUIYhglgDIyccciwAuBAAAAAAAAAAIAAAAAAAAAAAAAAAAAA==

> <PUBCHEM_IUPAC_OPENEYE_NAME>
2-[(4-chlorophenyl)methyl-methyl-amino]-1-[5-(pyrrolidine-1-carbonyl)-1H-pyrrol-3-yl]ethanone

> <PUBCHEM_IUPAC_CAS_NAME>
2-[(4-chlorophenyl)methyl-methylamino]-1-[5-[oxo(1-pyrrolidinyl)methyl]-1H-pyrrol-3-yl]ethanone

> <PUBCHEM_IUPAC_NAME>
2-[(4-chlorophenyl)methyl-methylamino]-1-[5-(pyrrolidine-1-carbonyl)-1H-pyrrol-3-yl]ethanone

> <PUBCHEM_IUPAC_SYSTEMATIC_NAME>
2-[(4-chlorophenyl)methyl-methyl-amino]-1-(5-pyrrolidin-1-ylcarbonyl-1H-pyrrol-3-yl)ethanone

> <PUBCHEM_IUPAC_TRADITIONAL_NAME>
2-[(4-chlorobenzyl)-methyl-amino]-1-[5-(pyrrolidine-1-carbonyl)-1H-pyrrol-3-yl]ethanone

> <PUBCHEM_IUPAC_INCHI>
InChI=1S/C19H22ClN3O2/c1-22(12-14-4-6-16(20)7-5-14)13-18(24)15-10-17(21-11-15)19(25)23-8-2-3-9-23/h4-7,10-11,21H,2-3,8-9,12-13H2,1H3

> <PUBCHEM_IUPAC_INCHIKEY>
KJJHUUKDEZLSOG-UHFFFAOYSA-N

> <PUBCHEM_XLOGP3_AA>
2.9

> <PUBCHEM_EXACT_MASS>
359.140055

> <PUBCHEM_MOLECULAR_FORMULA>
C19H22ClN3O2

> <PUBCHEM_MOLECULAR_WEIGHT>
359.84988

> <PUBCHEM_OPENEYE_CAN_SMILES>
CN(CC1=CC=C(C=C1)Cl)CC(=O)C2=CNC(=C2)C(=O)N3CCCC3

> <PUBCHEM_OPENEYE_ISO_SMILES>
CN(CC1=CC=C(C=C1)Cl)CC(=O)C2=CNC(=C2)C(=O)N3CCCC3

> <PUBCHEM_CACTVS_TPSA>
56.4

> <PUBCHEM_MONOISOTOPIC_WEIGHT>
359.140055

> <PUBCHEM_TOTAL_CHARGE>
0

> <PUBCHEM_HEAVY_ATOM_COUNT>
25

> <PUBCHEM_ATOM_DEF_STEREO_COUNT>
0

> <PUBCHEM_ATOM_UDEF_STEREO_COUNT>
0

> <PUBCHEM_BOND_DEF_STEREO_COUNT>
0

> <PUBCHEM_BOND_UDEF_STEREO_COUNT>
0

> <PUBCHEM_ISOTOPIC_ATOM_COUNT>
0

> <PUBCHEM_COMPONENT_COUNT>
1

> <PUBCHEM_CACTVS_TAUTO_COUNT>
11

> <PUBCHEM_COORDINATE_TYPE>
1
5
255

> <PUBCHEM_BONDANNOTATIONS>
12  13  8
13  14  8
14  16  8
19  21  8
19  22  8
21  23  8
22  24  8
23  25  8
24  25  8
5  12  8
5  16  8

$$$$

