44176374
  -OEChem-07051212522D

 59 62  0     1  0  0  0  0  0999 V2000
    3.4116    2.0476    0.0000 P   0  0  0  0  0  0  0  0  0  0  0  0
    4.4150   -0.8732    0.0000 O   0  0  0  0  0  0  0  0  0  0  0  0
    6.7609   -1.9651    0.0000 O   0  0  0  0  0  0  0  0  0  0  0  0
    3.7190    1.0960    0.0000 O   0  0  0  0  0  0  0  0  0  0  0  0
    5.7491    1.6135    0.0000 O   0  0  0  0  0  0  0  0  0  0  0  0
    3.1042    2.9991    0.0000 O   0  0  0  0  0  0  0  0  0  0  0  0
    2.4600    1.7402    0.0000 O   0  0  0  0  0  0  0  0  0  0  0  0
    4.3632    2.3549    0.0000 O   0  0  0  0  0  0  0  0  0  0  0  0
   10.6093    5.1318    0.0000 O   0  0  0  0  0  0  0  0  0  0  0  0
    4.6907   -2.6338    0.0000 N   0  0  0  0  0  0  0  0  0  0  0  0
    6.7647    0.2105    0.0000 N   0  0  0  0  0  0  0  0  0  0  0  0
    4.6907   -4.2433    0.0000 N   0  0  0  0  0  0  0  0  0  0  0  0
    2.8784   -2.4385    0.0000 N   0  0  0  0  0  0  0  0  0  0  0  0
    8.3848    1.3832    0.0000 N   0  0  0  0  0  0  0  0  0  0  0  0
    2.0124   -3.9385    0.0000 N   0  0  0  0  0  0  0  0  0  0  0  0
    2.8784   -5.4385    0.0000 N   0  0  0  0  0  0  0  0  0  0  0  0
    5.9547   -0.3759    0.0000 C   0  0  1  0  0  0  0  0  0  0  0  0
    5.9529   -1.3759    0.0000 C   0  0  2  0  0  0  0  0  0  0  0  0
    5.0042   -0.0652    0.0000 C   0  0  1  0  0  0  0  0  0  0  0  0
    5.0014   -1.6833    0.0000 C   0  0  1  0  0  0  0  0  0  0  0  0
    4.6968    0.8864    0.0000 C   0  0  0  0  0  0  0  0  0  0  0  0
    3.7445   -2.9385    0.0000 C   0  0  0  0  0  0  0  0  0  0  0  0
    6.6619    1.2052    0.0000 C   0  0  0  0  0  0  0  0  0  0  0  0
    5.2743   -3.4385    0.0000 C   0  0  0  0  0  0  0  0  0  0  0  0
    7.4719    1.7916    0.0000 C   0  0  2  0  0  0  0  0  0  0  0  0
    3.7445   -3.9385    0.0000 C   0  0  0  0  0  0  0  0  0  0  0  0
    7.3691    2.7863    0.0000 C   0  0  0  0  0  0  0  0  0  0  0  0
    2.8784   -4.4385    0.0000 C   0  0  0  0  0  0  0  0  0  0  0  0
    8.1792    3.3726    0.0000 C   0  0  0  0  0  0  0  0  0  0  0  0
    2.0124   -2.9385    0.0000 C   0  0  0  0  0  0  0  0  0  0  0  0
    9.0920    2.9643    0.0000 C   0  0  0  0  0  0  0  0  0  0  0  0
    8.0764    4.3674    0.0000 C   0  0  0  0  0  0  0  0  0  0  0  0
    9.9020    3.5507    0.0000 C   0  0  0  0  0  0  0  0  0  0  0  0
    8.8864    4.9537    0.0000 C   0  0  0  0  0  0  0  0  0  0  0  0
    9.7992    4.5454    0.0000 C   0  0  0  0  0  0  0  0  0  0  0  0
    5.8587    0.2366    0.0000 H   0  0  0  0  0  0  0  0  0  0  0  0
    5.8549   -1.9881    0.0000 H   0  0  0  0  0  0  0  0  0  0  0  0
    4.3919    0.0328    0.0000 H   0  0  0  0  0  0  0  0  0  0  0  0
    4.3888   -1.7792    0.0000 H   0  0  0  0  0  0  0  0  0  0  0  0
    5.3109    0.9716    0.0000 H   0  0  0  0  0  0  0  0  0  0  0  0
    4.7195    1.5059    0.0000 H   0  0  0  0  0  0  0  0  0  0  0  0
    7.3307   -0.0427    0.0000 H   0  0  0  0  0  0  0  0  0  0  0  0
    7.3278   -1.7139    0.0000 H   0  0  0  0  0  0  0  0  0  0  0  0
    5.8943   -3.4385    0.0000 H   0  0  0  0  0  0  0  0  0  0  0  0
    7.5357    1.1748    0.0000 H   0  0  0  0  0  0  0  0  0  0  0  0
    7.0983    3.3440    0.0000 H   0  0  0  0  0  0  0  0  0  0  0  0
    6.7728    2.6164    0.0000 H   0  0  0  0  0  0  0  0  0  0  0  0
    8.4485    0.7665    0.0000 H   0  0  0  0  0  0  0  0  0  0  0  0
    8.8870    1.7468    0.0000 H   0  0  0  0  0  0  0  0  0  0  0  0
    1.4755   -2.6285    0.0000 H   0  0  0  0  0  0  0  0  0  0  0  0
    9.1557    2.3476    0.0000 H   0  0  0  0  0  0  0  0  0  0  0  0
    7.5104    4.6205    0.0000 H   0  0  0  0  0  0  0  0  0  0  0  0
    2.3415   -5.7485    0.0000 H   0  0  0  0  0  0  0  0  0  0  0  0
    3.4154   -5.7485    0.0000 H   0  0  0  0  0  0  0  0  0  0  0  0
    2.4980    3.1291    0.0000 H   0  0  0  0  0  0  0  0  0  0  0  0
    2.0000    2.1558    0.0000 H   0  0  0  0  0  0  0  0  0  0  0  0
   10.4680    3.2976    0.0000 H   0  0  0  0  0  0  0  0  0  0  0  0
    8.8226    5.5705    0.0000 H   0  0  0  0  0  0  0  0  0  0  0  0
   10.5455    5.7485    0.0000 H   0  0  0  0  0  0  0  0  0  0  0  0
  1  4  1  0  0  0  0
  1  6  1  0  0  0  0
  1  7  1  0  0  0  0
  1  8  2  0  0  0  0
  2 19  1  0  0  0  0
  2 20  1  0  0  0  0
 18  3  1  1  0  0  0
  3 43  1  0  0  0  0
  4 21  1  0  0  0  0
  5 23  2  0  0  0  0
  6 55  1  0  0  0  0
  7 56  1  0  0  0  0
  9 35  1  0  0  0  0
  9 59  1  0  0  0  0
 20 10  1  6  0  0  0
 10 22  1  0  0  0  0
 10 24  1  0  0  0  0
 17 11  1  1  0  0  0
 11 23  1  0  0  0  0
 11 42  1  0  0  0  0
 12 24  2  0  0  0  0
 12 26  1  0  0  0  0
 13 22  2  0  0  0  0
 13 30  1  0  0  0  0
 25 14  1  6  0  0  0
 14 48  1  0  0  0  0
 14 49  1  0  0  0  0
 15 28  1  0  0  0  0
 15 30  2  0  0  0  0
 16 28  1  0  0  0  0
 16 53  1  0  0  0  0
 16 54  1  0  0  0  0
 17 18  1  0  0  0  0
 17 19  1  0  0  0  0
 17 36  1  0  0  0  0
 18 20  1  0  0  0  0
 18 37  1  0  0  0  0
 19 21  1  6  0  0  0
 19 38  1  0  0  0  0
 20 39  1  0  0  0  0
 21 40  1  0  0  0  0
 21 41  1  0  0  0  0
 22 26  1  0  0  0  0
 23 25  1  0  0  0  0
 24 44  1  0  0  0  0
 25 27  1  0  0  0  0
 25 45  1  0  0  0  0
 26 28  2  0  0  0  0
 27 29  1  0  0  0  0
 27 46  1  0  0  0  0
 27 47  1  0  0  0  0
 29 31  2  0  0  0  0
 29 32  1  0  0  0  0
 30 50  1  0  0  0  0
 31 33  1  0  0  0  0
 31 51  1  0  0  0  0
 32 34  2  0  0  0  0
 32 52  1  0  0  0  0
 33 35  2  0  0  0  0
 33 57  1  0  0  0  0
 34 35  1  0  0  0  0
 34 58  1  0  0  0  0
M  END
> <PUBCHEM_COMPOUND_CID>
44176374

> <PUBCHEM_COMPOUND_CANONICALIZED>
1

> <PUBCHEM_CACTVS_COMPLEXITY>
784

> <PUBCHEM_CACTVS_HBOND_ACCEPTOR>
13

> <PUBCHEM_CACTVS_HBOND_DONOR>
7

> <PUBCHEM_CACTVS_ROTATABLE_BOND>
8

> <PUBCHEM_CACTVS_SUBSKEYS>
AAADceB7vAIAAAAAAAAAAAAAAAAAAWJAAAA8QAAAAAAAAFgB/AAAHgAQCCAADDzhnwY19r/MFxCoQydzdICCgC0xMKAJ2KGuXJiLfjLC2VOfdAgv1hPbmCf4+KKOIAAAAAAAAABAAAAAAAAAAAAAAAAAAA==

> <PUBCHEM_IUPAC_OPENEYE_NAME>
[(2S,3S,4R,5R)-3-[[(2S)-2-amino-3-(4-hydroxyphenyl)propanoyl]amino]-5-(6-aminopurin-9-yl)-4-hydroxy-tetrahydrofuran-2-yl]methyl dihydrogen phosphate

> <PUBCHEM_IUPAC_CAS_NAME>
[(2S,3S,4R,5R)-3-[[(2S)-2-amino-3-(4-hydroxyphenyl)-1-oxopropyl]amino]-5-(6-aminopurin-9-yl)-4-hydroxy-2-oxolanyl]methyl dihydrogen phosphate

> <PUBCHEM_IUPAC_NAME>
[(2S,3S,4R,5R)-3-[[(2S)-2-amino-3-(4-hydroxyphenyl)propanoyl]amino]-5-(6-aminopurin-9-yl)-4-hydroxyoxolan-2-yl]methyl dihydrogen phosphate

> <PUBCHEM_IUPAC_SYSTEMATIC_NAME>
[(2S,3S,4R,5R)-5-(6-aminopurin-9-yl)-3-[[(2S)-2-azanyl-3-(4-hydroxyphenyl)propanoyl]amino]-4-oxidanyl-oxolan-2-yl]methyl dihydrogen phosphate

> <PUBCHEM_IUPAC_TRADITIONAL_NAME>
[(2S,3S,4R,5R)-5-adenin-9-yl-3-[[(2S)-2-amino-3-(4-hydroxyphenyl)propanoyl]amino]-4-hydroxy-tetrahydrofuran-2-yl]methyl dihydrogen phosphate

> <PUBCHEM_IUPAC_INCHI>
InChI=1S/C19H24N7O8P/c20-11(5-9-1-3-10(27)4-2-9)18(29)25-13-12(6-33-35(30,31)32)34-19(15(13)28)26-8-24-14-16(21)22-7-23-17(14)26/h1-4,7-8,11-13,15,19,27-28H,5-6,20H2,(H,25,29)(H2,21,22,23)(H2,30,31,32)/t11-,12+,13+,15+,19+/m0/s1

> <PUBCHEM_IUPAC_INCHIKEY>
KFKVKJLSMMCPPC-YCOMJZELSA-N

> <PUBCHEM_XLOGP3>
-5

> <PUBCHEM_EXACT_MASS>
509.142397

> <PUBCHEM_MOLECULAR_FORMULA>
C19H24N7O8P

> <PUBCHEM_MOLECULAR_WEIGHT>
509.409722

> <PUBCHEM_OPENEYE_CAN_SMILES>
C1=CC(=CC=C1CC(C(=O)NC2C(OC(C2O)N3C=NC4=C3N=CN=C4N)COP(=O)(O)O)N)O

> <PUBCHEM_OPENEYE_ISO_SMILES>
C1=CC(=CC=C1C[C@@H](C(=O)N[C@@H]2[C@H](O[C@H]([C@@H]2O)N3C=NC4=C3N=CN=C4N)COP(=O)(O)O)N)O

> <PUBCHEM_CACTVS_TPSA>
241

> <PUBCHEM_MONOISOTOPIC_WEIGHT>
509.142397

> <PUBCHEM_TOTAL_CHARGE>
0

> <PUBCHEM_HEAVY_ATOM_COUNT>
35

> <PUBCHEM_ATOM_DEF_STEREO_COUNT>
5

> <PUBCHEM_ATOM_UDEF_STEREO_COUNT>
0

> <PUBCHEM_BOND_DEF_STEREO_COUNT>
0

> <PUBCHEM_BOND_UDEF_STEREO_COUNT>
0

> <PUBCHEM_ISOTOPIC_ATOM_COUNT>
0

> <PUBCHEM_COMPONENT_COUNT>
1

> <PUBCHEM_CACTVS_TAUTO_COUNT>
12

> <PUBCHEM_COORDINATE_TYPE>
1
5
255

> <PUBCHEM_BONDANNOTATIONS>
20  10  6
10  22  8
10  24  8
17  11  5
12  24  8
12  26  8
13  22  8
13  30  8
25  14  6
15  28  8
15  30  8
19  21  6
22  26  8
26  28  8
29  31  8
29  32  8
18  3  5
31  33  8
32  34  8
33  35  8
34  35  8

$$$$

