440161
  -OEChem-07051212493D

 79 83  0     1  0  0  0  0  0999 V2000
   -5.9736   -0.6822    2.0051 O   0  0  0  0  0  0  0  0  0  0  0  0
    8.3240    0.1407    1.4644 O   0  0  0  0  0  0  0  0  0  0  0  0
   -0.0741    0.3632   -0.9552 C   0  0  1  0  0  0  0  0  0  0  0  0
    0.6398   -0.9107   -0.4608 C   0  0  2  0  0  0  0  0  0  0  0  0
    2.1614   -0.8572   -0.6314 C   0  0  1  0  0  0  0  0  0  0  0  0
    2.7274    0.3734    0.1354 C   0  0  1  0  0  0  0  0  0  0  0  0
   -1.5411   -0.0583   -0.6955 C   0  0  2  0  0  0  0  0  0  0  0  0
    0.4210    1.5332   -0.0936 C   0  0  0  0  0  0  0  0  0  0  0  0
   -0.1355   -2.0429   -1.1274 C   0  0  0  0  0  0  0  0  0  0  0  0
    4.2940    0.4953   -0.0420 C   0  0  2  0  0  0  0  0  0  0  0  0
    1.9501    1.6830   -0.1729 C   0  0  0  0  0  0  0  0  0  0  0  0
   -1.5875   -1.5312   -1.1656 C   0  0  0  0  0  0  0  0  0  0  0  0
   -2.6203    0.8022   -1.3365 C   0  0  1  0  0  0  0  0  0  0  0  0
    2.8126   -2.1483   -0.1133 C   0  0  0  0  0  0  0  0  0  0  0  0
    0.1602    0.6756   -2.4541 C   0  0  0  0  0  0  0  0  0  0  0  0
    4.9699   -0.8737    0.1191 C   0  0  0  0  0  0  0  0  0  0  0  0
    4.8352    1.4630    1.0527 C   0  0  0  0  0  0  0  0  0  0  0  0
    4.2880   -2.0321    0.0979 C   0  0  0  0  0  0  0  0  0  0  0  0
   -4.0458    0.3065   -1.0191 C   0  0  0  0  0  0  0  0  0  0  0  0
    4.6607    1.0475   -1.4406 C   0  0  0  0  0  0  0  0  0  0  0  0
    6.4682   -0.8846    0.3161 C   0  0  0  0  0  0  0  0  0  0  0  0
    6.3573    1.4749    1.1859 C   0  0  0  0  0  0  0  0  0  0  0  0
   -2.4740    2.2569   -0.8750 C   0  0  0  0  0  0  0  0  0  0  0  0
    6.9022    0.0711    1.4240 C   0  0  2  0  0  0  0  0  0  0  0  0
   -4.3887    0.3538    0.4723 C   0  0  0  0  0  0  0  0  0  0  0  0
   -5.8038   -0.0682    0.7282 C   0  0  1  0  0  0  0  0  0  0  0  0
   -6.1435   -1.5167    0.8519 C   0  0  1  0  0  0  0  0  0  0  0  0
   -6.8485    0.9174    0.3902 C   0  0  0  0  0  0  0  0  0  0  0  0
   -5.1147   -2.5754    0.7250 C   0  0  0  0  0  0  0  0  0  0  0  0
   -8.2067    0.2450    0.1227 C   0  0  0  0  0  0  0  0  0  0  0  0
   -7.0144    1.9788    1.4923 C   0  0  0  0  0  0  0  0  0  0  0  0
    0.4513   -1.0111    0.6217 H   0  0  0  0  0  0  0  0  0  0  0  0
    2.4040   -0.7690   -1.6963 H   0  0  0  0  0  0  0  0  0  0  0  0
    2.5419    0.1714    1.2031 H   0  0  0  0  0  0  0  0  0  0  0  0
   -1.6849   -0.0606    0.3937 H   0  0  0  0  0  0  0  0  0  0  0  0
    0.1365    1.3816    0.9555 H   0  0  0  0  0  0  0  0  0  0  0  0
    0.0027    2.4931   -0.3971 H   0  0  0  0  0  0  0  0  0  0  0  0
   -0.0583   -2.9791   -0.5650 H   0  0  0  0  0  0  0  0  0  0  0  0
    0.2286   -2.2352   -2.1429 H   0  0  0  0  0  0  0  0  0  0  0  0
    2.2068    2.0564   -1.1685 H   0  0  0  0  0  0  0  0  0  0  0  0
    2.2505    2.4647    0.5341 H   0  0  0  0  0  0  0  0  0  0  0  0
   -1.9850   -1.6314   -2.1820 H   0  0  0  0  0  0  0  0  0  0  0  0
   -2.2244   -2.1268   -0.5030 H   0  0  0  0  0  0  0  0  0  0  0  0
   -2.5242    0.7803   -2.4292 H   0  0  0  0  0  0  0  0  0  0  0  0
    2.6224   -2.9570   -0.8295 H   0  0  0  0  0  0  0  0  0  0  0  0
    2.3600   -2.4551    0.8379 H   0  0  0  0  0  0  0  0  0  0  0  0
   -0.2973    1.6262   -2.7441 H   0  0  0  0  0  0  0  0  0  0  0  0
    1.2212    0.7582   -2.7047 H   0  0  0  0  0  0  0  0  0  0  0  0
   -0.2551   -0.0958   -3.1104 H   0  0  0  0  0  0  0  0  0  0  0  0
    4.4148    1.1848    2.0288 H   0  0  0  0  0  0  0  0  0  0  0  0
    4.5014    2.4884    0.8545 H   0  0  0  0  0  0  0  0  0  0  0  0
    4.8199   -2.9701    0.2387 H   0  0  0  0  0  0  0  0  0  0  0  0
   -4.1790   -0.7118   -1.4008 H   0  0  0  0  0  0  0  0  0  0  0  0
   -4.7543    0.9203   -1.5880 H   0  0  0  0  0  0  0  0  0  0  0  0
    4.3371    2.0862   -1.5631 H   0  0  0  0  0  0  0  0  0  0  0  0
    5.7412    1.0441   -1.6197 H   0  0  0  0  0  0  0  0  0  0  0  0
    4.2067    0.4568   -2.2428 H   0  0  0  0  0  0  0  0  0  0  0  0
    6.8367   -1.8911    0.5532 H   0  0  0  0  0  0  0  0  0  0  0  0
    6.9663   -0.6175   -0.6245 H   0  0  0  0  0  0  0  0  0  0  0  0
    6.8201    1.9152    0.2941 H   0  0  0  0  0  0  0  0  0  0  0  0
    6.6515    2.1279    2.0170 H   0  0  0  0  0  0  0  0  0  0  0  0
   -1.7153    2.7866   -1.4550 H   0  0  0  0  0  0  0  0  0  0  0  0
   -2.2496    2.3439    0.1926 H   0  0  0  0  0  0  0  0  0  0  0  0
   -3.4024    2.8125   -1.0562 H   0  0  0  0  0  0  0  0  0  0  0  0
    6.5575   -0.2964    2.3983 H   0  0  0  0  0  0  0  0  0  0  0  0
   -4.2534    1.3689    0.8598 H   0  0  0  0  0  0  0  0  0  0  0  0
   -3.6944   -0.2656    1.0465 H   0  0  0  0  0  0  0  0  0  0  0  0
   -7.1287   -1.9107    0.6591 H   0  0  0  0  0  0  0  0  0  0  0  0
   -6.5815    1.4482   -0.5306 H   0  0  0  0  0  0  0  0  0  0  0  0
    8.6568   -0.7594    1.6208 H   0  0  0  0  0  0  0  0  0  0  0  0
   -5.5047   -3.5174    1.1259 H   0  0  0  0  0  0  0  0  0  0  0  0
   -4.8677   -2.7455   -0.3269 H   0  0  0  0  0  0  0  0  0  0  0  0
   -4.1922   -2.3586    1.2710 H   0  0  0  0  0  0  0  0  0  0  0  0
   -8.1445   -0.4703   -0.7045 H   0  0  0  0  0  0  0  0  0  0  0  0
   -8.9455    1.0008   -0.1690 H   0  0  0  0  0  0  0  0  0  0  0  0
   -8.6024   -0.2608    1.0102 H   0  0  0  0  0  0  0  0  0  0  0  0
   -6.0743    2.5059    1.6826 H   0  0  0  0  0  0  0  0  0  0  0  0
   -7.7602    2.7253    1.1984 H   0  0  0  0  0  0  0  0  0  0  0  0
   -7.3427    1.5309    2.4366 H   0  0  0  0  0  0  0  0  0  0  0  0
  1 26  1  0  0  0  0
  1 27  1  0  0  0  0
  2 24  1  0  0  0  0
  2 70  1  0  0  0  0
  3  4  1  0  0  0  0
  3  7  1  0  0  0  0
  3  8  1  0  0  0  0
  3 15  1  0  0  0  0
  4  5  1  0  0  0  0
  4  9  1  0  0  0  0
  4 32  1  0  0  0  0
  5  6  1  0  0  0  0
  5 14  1  0  0  0  0
  5 33  1  0  0  0  0
  6 10  1  0  0  0  0
  6 11  1  0  0  0  0
  6 34  1  0  0  0  0
  7 12  1  0  0  0  0
  7 13  1  0  0  0  0
  7 35  1  0  0  0  0
  8 11  1  0  0  0  0
  8 36  1  0  0  0  0
  8 37  1  0  0  0  0
  9 12  1  0  0  0  0
  9 38  1  0  0  0  0
  9 39  1  0  0  0  0
 10 16  1  0  0  0  0
 10 17  1  0  0  0  0
 10 20  1  0  0  0  0
 11 40  1  0  0  0  0
 11 41  1  0  0  0  0
 12 42  1  0  0  0  0
 12 43  1  0  0  0  0
 13 19  1  0  0  0  0
 13 23  1  0  0  0  0
 13 44  1  0  0  0  0
 14 18  1  0  0  0  0
 14 45  1  0  0  0  0
 14 46  1  0  0  0  0
 15 47  1  0  0  0  0
 15 48  1  0  0  0  0
 15 49  1  0  0  0  0
 16 18  2  0  0  0  0
 16 21  1  0  0  0  0
 17 22  1  0  0  0  0
 17 50  1  0  0  0  0
 17 51  1  0  0  0  0
 18 52  1  0  0  0  0
 19 25  1  0  0  0  0
 19 53  1  0  0  0  0
 19 54  1  0  0  0  0
 20 55  1  0  0  0  0
 20 56  1  0  0  0  0
 20 57  1  0  0  0  0
 21 24  1  0  0  0  0
 21 58  1  0  0  0  0
 21 59  1  0  0  0  0
 22 24  1  0  0  0  0
 22 60  1  0  0  0  0
 22 61  1  0  0  0  0
 23 62  1  0  0  0  0
 23 63  1  0  0  0  0
 23 64  1  0  0  0  0
 24 65  1  0  0  0  0
 25 26  1  0  0  0  0
 25 66  1  0  0  0  0
 25 67  1  0  0  0  0
 26 27  1  0  0  0  0
 26 28  1  0  0  0  0
 27 29  1  0  0  0  0
 27 68  1  0  0  0  0
 28 30  1  0  0  0  0
 28 31  1  0  0  0  0
 28 69  1  0  0  0  0
 29 71  1  0  0  0  0
 29 72  1  0  0  0  0
 29 73  1  0  0  0  0
 30 74  1  0  0  0  0
 30 75  1  0  0  0  0
 30 76  1  0  0  0  0
 31 77  1  0  0  0  0
 31 78  1  0  0  0  0
 31 79  1  0  0  0  0
M  END
> <PUBCHEM_COMPOUND_CID>
440161

> <PUBCHEM_CONFORMER_RMSD>
1

> <PUBCHEM_CONFORMER_DIVERSEORDER>
3
7
5
8
2
6
1
4

> <PUBCHEM_MMFF94_PARTIAL_CHARGES>
16
1 -0.3
10 0.14
14 0.14
16 -0.28
18 -0.29
2 -0.68
21 0.14
24 0.28
25 0.09
26 -0.04
27 -0.05
28 0.09
29 0.09
52 0.15
68 0.1
70 0.4

> <PUBCHEM_EFFECTIVE_ROTOR_COUNT>
7.6

> <PUBCHEM_PHARMACOPHORE_FEATURES>
9
1 1 acceptor
1 2 acceptor
1 2 donor
1 23 hydrophobe
3 28 30 31 hydrophobe
5 3 4 7 9 12 rings
6 10 16 17 21 22 24 rings
6 3 4 5 6 8 11 rings
6 5 6 10 14 16 18 rings

> <PUBCHEM_HEAVY_ATOM_COUNT>
31

> <PUBCHEM_ATOM_DEF_STEREO_COUNT>
10

> <PUBCHEM_ATOM_UDEF_STEREO_COUNT>
0

> <PUBCHEM_BOND_DEF_STEREO_COUNT>
0

> <PUBCHEM_BOND_UDEF_STEREO_COUNT>
0

> <PUBCHEM_ISOTOPIC_ATOM_COUNT>
0

> <PUBCHEM_COMPONENT_COUNT>
1

> <PUBCHEM_CACTVS_TAUTO_COUNT>
1

> <PUBCHEM_CONFORMER_ID>
0006B76100000003

> <PUBCHEM_MMFF94_ENERGY>
96.0128

> <PUBCHEM_FEATURE_SELFOVERLAP>
45.764

> <PUBCHEM_SHAPE_FINGERPRINT>
10 15 18412830161969665632
106641 1 18260831488723932299
10670039 82 6266905649821154315
10693767 8 10735891568817847400
11456790 92 17968105235554492762
11646440 116 18260551117496061120
12166972 35 14189573039992121134
12236239 1 17312829272767015884
12422481 6 18410848850722574679
12596602 18 18260545623921601483
13540713 4 18051980508451353252
13540713 5 18050290267111460132
13668630 136 12535626080855529553
13673619 4 16128660742789179556
13782708 43 16487262057925639504
13811026 1 18342458132521652931
14068700 675 16200147686614437941
14251764 18 17749114369834786221
14341114 176 18341608248366224013
14849402 71 17895762781214769584
14931854 50 8646492874108569019
14955137 171 18342452629861834844
15082195 135 8646472060370725962
15183329 4 8358263635595403615
15461852 350 16515692122291583861
18608769 82 18343021069379390010
21130935 74 18407758140363733547
21150785 3 9223228554882396473
21267235 1 18339359769000277494
21424621 283 14634862059249069975
21521239 73 10735875075699708120
21623969 137 18411981373157542986
21637258 2 15985109599909544814
21756936 100 17458069248769955159
21781051 124 18201707458796613306
21792934 111 18340211876878075413
22122407 14 17385999542660521985
22224240 67 18334014999711591103
23198884 109 6627752172096467135
23522609 53 17701226240905682805
23559900 14 9367336055499750718
23576562 1 7492698420733578129
24771293 8 17969233261254394104
3004659 81 9439401324322287942
3009799 131 8935000369364446254
312425 54 18343015614812973267
3178227 256 18410296904754719504
3633792 109 5184080223577632212
392239 28 18131347514404922267
397830 11 18335417937598554319
4015057 19 10951756504512397047
4093350 32 16805040736239589782
4340502 62 18272371984033078074
4353968 344 11095345035793901376
5104073 3 18265903625498020394
54039377 194 12823286906675906609
6086070 43 16515698693233110251
9953998 17 18341896299127704019

> <PUBCHEM_SHAPE_MULTIPOLES>
626.23
21.99
2.25
1.59
8.49
0.58
-0.21
-2.33
13.63
0.73
0.12
0.18
-0.29
0.59

> <PUBCHEM_SHAPE_SELFOVERLAP>
1314.763

> <PUBCHEM_SHAPE_VOLUME>
354.1

> <PUBCHEM_COORDINATE_TYPE>
2
5
10

$$$$

