443197
  -OEChem-07051213012D

 25 28  0     1  0  0  0  0  0999 V2000
    6.4761   -2.0884    0.0000 O   0  0  0  0  0  0  0  0  0  0  0  0
    5.6098   -1.5879    0.0000 C   0  0  2  0  0  0  0  0  0  0  0  0
    6.4758   -1.0879    0.0000 C   0  0  1  0  0  0  0  0  0  0  0  0
    4.7438   -1.0879    0.0000 C   0  0  0  0  0  0  0  0  0  0  0  0
    4.7438   -0.0879    0.0000 C   0  0  0  0  0  0  0  0  0  0  0  0
    6.4758   -0.0879    0.0000 C   0  0  0  0  0  0  0  0  0  0  0  0
    5.6098    0.4121    0.0000 C   0  0  0  0  0  0  0  0  0  0  0  0
    3.8498    0.4467    0.0000 C   0  0  0  0  0  0  0  0  0  0  0  0
    3.8498   -1.6226    0.0000 C   0  0  0  0  0  0  0  0  0  0  0  0
    2.9438   -0.0671    0.0000 C   0  0  0  0  0  0  0  0  0  0  0  0
    2.9438   -1.1087    0.0000 C   0  0  0  0  0  0  0  0  0  0  0  0
    3.8749    1.5314    0.0000 C   0  0  0  0  0  0  0  0  0  0  0  0
    2.0000    0.4681    0.0000 C   0  0  0  0  0  0  0  0  0  0  0  0
    2.9438    2.0884    0.0000 C   0  0  0  0  0  0  0  0  0  0  0  0
    2.0000    1.5531    0.0000 C   0  0  0  0  0  0  0  0  0  0  0  0
    5.2998   -2.1248    0.0000 H   0  0  0  0  0  0  0  0  0  0  0  0
    7.0958   -1.0878    0.0000 H   0  0  0  0  0  0  0  0  0  0  0  0
    7.0128    0.2221    0.0000 H   0  0  0  0  0  0  0  0  0  0  0  0
    5.6098    1.0321    0.0000 H   0  0  0  0  0  0  0  0  0  0  0  0
    3.8570   -2.2425    0.0000 H   0  0  0  0  0  0  0  0  0  0  0  0
    2.4080   -1.4208    0.0000 H   0  0  0  0  0  0  0  0  0  0  0  0
    4.4178    1.8310    0.0000 H   0  0  0  0  0  0  0  0  0  0  0  0
    1.4643    0.1561    0.0000 H   0  0  0  0  0  0  0  0  0  0  0  0
    2.9510    2.7083    0.0000 H   0  0  0  0  0  0  0  0  0  0  0  0
    1.4643    1.8652    0.0000 H   0  0  0  0  0  0  0  0  0  0  0  0
  2  1  1  1  0  0  0
  3  1  1  1  0  0  0
  2  3  1  0  0  0  0
  2  4  1  0  0  0  0
  2 16  1  0  0  0  0
  3  6  1  0  0  0  0
  3 17  1  0  0  0  0
  4  5  2  0  0  0  0
  4  9  1  0  0  0  0
  5  7  1  0  0  0  0
  5  8  1  0  0  0  0
  6  7  2  0  0  0  0
  6 18  1  0  0  0  0
  7 19  1  0  0  0  0
  8 10  1  0  0  0  0
  8 12  2  0  0  0  0
  9 11  2  0  0  0  0
  9 20  1  0  0  0  0
 10 11  1  0  0  0  0
 10 13  2  0  0  0  0
 11 21  1  0  0  0  0
 12 14  1  0  0  0  0
 12 22  1  0  0  0  0
 13 15  1  0  0  0  0
 13 23  1  0  0  0  0
 14 15  2  0  0  0  0
 14 24  1  0  0  0  0
 15 25  1  0  0  0  0
M  END
> <PUBCHEM_COMPOUND_CID>
443197

> <PUBCHEM_COMPOUND_CANONICALIZED>
1

> <PUBCHEM_CACTVS_COMPLEXITY>
296

> <PUBCHEM_CACTVS_HBOND_ACCEPTOR>
1

> <PUBCHEM_CACTVS_HBOND_DONOR>
0

> <PUBCHEM_CACTVS_ROTATABLE_BOND>
0

> <PUBCHEM_CACTVS_SUBSKEYS>
AAADccBwIAAAAAAAAAAAAAAAEgAAAAAAAAAwYIAABAAAAADBUAAAGgAAAAAADBSgmAIwAMAABACAAiBCAAACAAAgAAAIiAAACIgIJiKAMRiCMAAkwAEIqAeAwPAOwAACAAAQAACAAAQAACAAAAAAAAAAAA==

> <PUBCHEM_IUPAC_OPENEYE_NAME>
(1aS,9aR)-1a,9a-dihydrophenanthro[1,2-b]oxirene

> <PUBCHEM_IUPAC_CAS_NAME>
(1aS,9aR)-1a,9a-dihydrophenanthro[1,2-b]oxirene

> <PUBCHEM_IUPAC_NAME>
(1aS,9aR)-1a,9a-dihydrophenanthro[1,2-b]oxirene

> <PUBCHEM_IUPAC_SYSTEMATIC_NAME>
(1aS,9aR)-1a,9a-dihydrophenanthro[1,2-b]oxirene

> <PUBCHEM_IUPAC_TRADITIONAL_NAME>
(1aS,9aR)-1a,9a-dihydrophenanthro[1,2-b]oxirene

> <PUBCHEM_IUPAC_INCHI>
InChI=1S/C14H10O/c1-2-4-10-9(3-1)5-6-12-11(10)7-8-13-14(12)15-13/h1-8,13-14H/t13-,14+/m1/s1

> <PUBCHEM_IUPAC_INCHIKEY>
ALTXUIJFJAHUPS-KGLIPLIRSA-N

> <PUBCHEM_XLOGP3_AA>
3

> <PUBCHEM_EXACT_MASS>
194.073165

> <PUBCHEM_MOLECULAR_FORMULA>
C14H10O

> <PUBCHEM_MOLECULAR_WEIGHT>
194.2286

> <PUBCHEM_OPENEYE_CAN_SMILES>
C1=CC=C2C(=C1)C=CC3=C2C=CC4C3O4

> <PUBCHEM_OPENEYE_ISO_SMILES>
C1=CC=C2C(=C1)C=CC3=C2C=C[C@@H]4[C@H]3O4

> <PUBCHEM_CACTVS_TPSA>
12.5

> <PUBCHEM_MONOISOTOPIC_WEIGHT>
194.073165

> <PUBCHEM_TOTAL_CHARGE>
0

> <PUBCHEM_HEAVY_ATOM_COUNT>
15

> <PUBCHEM_ATOM_DEF_STEREO_COUNT>
2

> <PUBCHEM_ATOM_UDEF_STEREO_COUNT>
0

> <PUBCHEM_BOND_DEF_STEREO_COUNT>
0

> <PUBCHEM_BOND_UDEF_STEREO_COUNT>
0

> <PUBCHEM_ISOTOPIC_ATOM_COUNT>
0

> <PUBCHEM_COMPONENT_COUNT>
1

> <PUBCHEM_CACTVS_TAUTO_COUNT>
1

> <PUBCHEM_COORDINATE_TYPE>
1
5
255

> <PUBCHEM_BONDANNOTATIONS>
2  1  5
3  1  5
10  11  8
10  13  8
12  14  8
13  15  8
14  15  8
4  5  8
4  9  8
5  8  8
8  10  8
8  12  8
9  11  8

$$$$

