14387
  -OEChem-06241222433D

 41 42  0     0  0  0  0  0  0999 V2000
   -2.5327   -1.7311    1.1525 S   0  0  0  0  0  0  0  0  0  0  0  0
    5.1661    0.4045    0.7068 O   0  0  0  0  0  0  0  0  0  0  0  0
   -1.0407   -0.2008   -0.4309 N   0  0  0  0  0  0  0  0  0  0  0  0
   -3.6663    2.4228    0.0792 N   0  0  0  0  0  0  0  0  0  0  0  0
   -0.7846   -2.5472   -0.5682 N   0  0  0  0  0  0  0  0  0  0  0  0
   -1.6843    0.9467    0.1504 C   0  0  0  0  0  0  0  0  0  0  0  0
   -3.0248    1.2433   -0.5006 C   0  0  0  0  0  0  0  0  0  0  0  0
   -0.0283    0.0439   -1.4658 C   0  0  0  0  0  0  0  0  0  0  0  0
    1.3541    0.1400   -0.8878 C   0  0  0  0  0  0  0  0  0  0  0  0
   -1.3520   -1.5041   -0.0492 C   0  0  0  0  0  0  0  0  0  0  0  0
   -3.8803    2.2350    1.5137 C   0  0  0  0  0  0  0  0  0  0  0  0
   -4.9344    2.6983   -0.5950 C   0  0  0  0  0  0  0  0  0  0  0  0
    2.1290   -1.0070   -0.7656 C   0  0  0  0  0  0  0  0  0  0  0  0
    1.8444    1.3751   -0.4809 C   0  0  0  0  0  0  0  0  0  0  0  0
    3.4132   -0.9177   -0.2284 C   0  0  0  0  0  0  0  0  0  0  0  0
    3.1286    1.4645    0.0563 C   0  0  0  0  0  0  0  0  0  0  0  0
    3.9131    0.3180    0.1825 C   0  0  0  0  0  0  0  0  0  0  0  0
   -2.2916   -3.4217    0.9935 C   0  0  0  0  0  0  0  0  0  0  0  0
   -1.3286   -3.6636    0.0363 C   0  0  0  0  0  0  0  0  0  0  0  0
    5.6000    1.7011    1.1011 C   0  0  0  0  0  0  0  0  0  0  0  0
   -1.7411    0.8289    1.2367 H   0  0  0  0  0  0  0  0  0  0  0  0
   -1.0482    1.8332    0.0238 H   0  0  0  0  0  0  0  0  0  0  0  0
   -2.8520    1.4225   -1.5705 H   0  0  0  0  0  0  0  0  0  0  0  0
   -3.6954    0.3776   -0.4466 H   0  0  0  0  0  0  0  0  0  0  0  0
   -0.2637    0.9673   -2.0128 H   0  0  0  0  0  0  0  0  0  0  0  0
   -0.0609   -0.7378   -2.2370 H   0  0  0  0  0  0  0  0  0  0  0  0
   -4.4984    3.0474    1.9155 H   0  0  0  0  0  0  0  0  0  0  0  0
   -4.3873    1.2907    1.7432 H   0  0  0  0  0  0  0  0  0  0  0  0
   -2.9449    2.2916    2.0782 H   0  0  0  0  0  0  0  0  0  0  0  0
   -4.7738    2.8648   -1.6660 H   0  0  0  0  0  0  0  0  0  0  0  0
   -5.6534    1.8793   -0.4769 H   0  0  0  0  0  0  0  0  0  0  0  0
   -5.3886    3.6149   -0.2023 H   0  0  0  0  0  0  0  0  0  0  0  0
    1.7613   -1.9748   -1.0922 H   0  0  0  0  0  0  0  0  0  0  0  0
    1.2462    2.2765   -0.5790 H   0  0  0  0  0  0  0  0  0  0  0  0
    4.0206   -1.8138   -0.1350 H   0  0  0  0  0  0  0  0  0  0  0  0
    3.4517    2.4564    0.3531 H   0  0  0  0  0  0  0  0  0  0  0  0
   -2.8459   -4.1339    1.5877 H   0  0  0  0  0  0  0  0  0  0  0  0
   -0.9838   -4.6447   -0.2612 H   0  0  0  0  0  0  0  0  0  0  0  0
    4.9857    2.1050    1.9133 H   0  0  0  0  0  0  0  0  0  0  0  0
    5.6637    2.3847    0.2474 H   0  0  0  0  0  0  0  0  0  0  0  0
    6.6157    1.5951    1.4967 H   0  0  0  0  0  0  0  0  0  0  0  0
  1 10  1  0  0  0  0
  1 18  1  0  0  0  0
  2 17  1  0  0  0  0
  2 20  1  0  0  0  0
  3  6  1  0  0  0  0
  3  8  1  0  0  0  0
  3 10  1  0  0  0  0
  4  7  1  0  0  0  0
  4 11  1  0  0  0  0
  4 12  1  0  0  0  0
  5 10  2  0  0  0  0
  5 19  1  0  0  0  0
  6  7  1  0  0  0  0
  6 21  1  0  0  0  0
  6 22  1  0  0  0  0
  7 23  1  0  0  0  0
  7 24  1  0  0  0  0
  8  9  1  0  0  0  0
  8 25  1  0  0  0  0
  8 26  1  0  0  0  0
  9 13  2  0  0  0  0
  9 14  1  0  0  0  0
 11 27  1  0  0  0  0
 11 28  1  0  0  0  0
 11 29  1  0  0  0  0
 12 30  1  0  0  0  0
 12 31  1  0  0  0  0
 12 32  1  0  0  0  0
 13 15  1  0  0  0  0
 13 33  1  0  0  0  0
 14 16  2  0  0  0  0
 14 34  1  0  0  0  0
 15 17  2  0  0  0  0
 15 35  1  0  0  0  0
 16 17  1  0  0  0  0
 16 36  1  0  0  0  0
 18 19  2  0  0  0  0
 18 37  1  0  0  0  0
 19 38  1  0  0  0  0
 20 39  1  0  0  0  0
 20 40  1  0  0  0  0
 20 41  1  0  0  0  0
M  END
> <PUBCHEM_COMPOUND_CID>
14387

> <PUBCHEM_CONFORMER_RMSD>
0.8

> <PUBCHEM_CONFORMER_DIVERSEORDER>
1
156
103
118
45
26
87
145
61
97
66
152
107
151
158
128
35
2
78
85
79
154
142
149
159
132
100
52
40
140
82
37
163
164
20
129
104
34
7
89
165
86
126
168
84
139
3
54
155
114
125
112
63
77
150
120
73
56
144
23
83
122
137
99
62
64
172
48
135
68
147
123
115
166
110
15
138
39
169
67
38
130
50
124
111
60
162
109
42
131
101
134
171
105
17
119
25
90
32
55
70
30
170
72
47
71
113
143
53
19
74
136
44
148
121
81
9
161
36
95
80
92
96
22
102
31
91
153
93
8
18
58
59
46
76
13
88
51
146
6
5
69
141
98
11
117
133
49
29
24
27
167
127
57
106
160
116
28
16
65
33
12
14
4
157
21
108
75
41
43
10
94

> <PUBCHEM_MMFF94_PARTIAL_CHARGES>
26
1 -0.08
10 0.46
11 0.27
12 0.27
13 -0.15
14 -0.15
15 -0.15
16 -0.15
17 0.08
18 -0.11
19 0.08
2 -0.36
20 0.28
3 -0.82
33 0.15
34 0.15
35 0.15
36 0.15
37 0.15
38 0.15
4 -0.81
5 -0.57
6 0.37
7 0.27
8 0.51
9 -0.14

> <PUBCHEM_EFFECTIVE_ROTOR_COUNT>
7

> <PUBCHEM_PHARMACOPHORE_FEATURES>
5
1 2 acceptor
1 4 cation
3 3 5 10 cation
5 1 5 10 18 19 rings
6 9 13 14 15 16 17 rings

> <PUBCHEM_HEAVY_ATOM_COUNT>
20

> <PUBCHEM_ATOM_DEF_STEREO_COUNT>
0

> <PUBCHEM_ATOM_UDEF_STEREO_COUNT>
0

> <PUBCHEM_BOND_DEF_STEREO_COUNT>
0

> <PUBCHEM_BOND_UDEF_STEREO_COUNT>
0

> <PUBCHEM_ISOTOPIC_ATOM_COUNT>
0

> <PUBCHEM_COMPONENT_COUNT>
1

> <PUBCHEM_CACTVS_TAUTO_COUNT>
1

> <PUBCHEM_CONFORMER_ID>
0000383300000001

> <PUBCHEM_MMFF94_ENERGY>
61.9661

> <PUBCHEM_FEATURE_SELFOVERLAP>
25.371

> <PUBCHEM_SHAPE_FINGERPRINT>
10764073 3 14113611269432567397
11036077 4 18200611253697050202
11357001 24 18269551637760080459
11370993 70 18339641256334226129
12107183 9 18198355129304913722
121448 382 18410296922018809269
12500047 106 18410295804652195776
12507560 40 18333445426897272990
12553582 1 17764008186851991063
12633257 1 17899112958715792723
12643181 29 18339918342614704542
12788726 201 17984686832246372171
12930653 34 18336547119113618798
13004483 165 17979070488397563739
13140716 1 18197777906484720299
13583140 156 17895761673676936104
13955234 65 17764299944834288297
14178000 22 18342460391400170085
14178342 30 18271526403709205766
15420108 30 15299687606429599376
15842332 3 17630872812353886716
20197701 30 18341897450189514543
20554085 129 18118710896224285889
20832881 197 17613985717973775662
21033648 29 18199477729923447100
21065199 12 18336263432328847538
212916 134 18264786495756238080
21401589 2 18260263066628891561
21524375 3 18261956379123673597
21650355 55 17978507538196352403
21731228 192 18340758351663613531
22182937 141 18408317783196799769
22224240 67 18337666512630486857
22950370 63 9439104490769756861
23402539 116 18336836277976674519
23503953 91 18202567267961866204
23558518 356 17986107405348135116
23559900 14 18264191656472335230
25147074 1 17631159789305100772
3380486 145 17544485154565001303
4340502 62 18196922478771223601
474 4 18190741032404258605
5104073 3 18269291097213542112
633830 44 17970347242209960565
6371380 46 18194681703764086510
7364860 26 17691964182765164703
81228 2 18128809742958028959
84936 182 17831859419175170409
90316 7 17978774732696694419
9709674 26 18335136475485679446
9862522 239 18059857320164990557
9981440 41 17821736047850501642

> <PUBCHEM_SHAPE_MULTIPOLES>
394.63
9.8
3.95
1.19
8.33
2.63
-0.15
-8.45
-3.3
-5.8
-0.75
-0.22
-0.15
1.1

> <PUBCHEM_SHAPE_SELFOVERLAP>
804.288

> <PUBCHEM_SHAPE_VOLUME>
233

> <PUBCHEM_COORDINATE_TYPE>
2
5
10

$$$$

