5281813
  -OEChem-07051212593D

 33 36  0     0  0  0  0  0  0999 V2000
    0.7661    1.3787   -0.0007 O   0  0  0  0  0  0  0  0  0  0  0  0
   -1.4957   -2.0223   -0.0004 O   0  0  0  0  0  0  0  0  0  0  0  0
   -1.5503    2.8509   -0.0006 O   0  0  0  0  0  0  0  0  0  0  0  0
   -5.6375    0.4083    0.0010 O   0  0  0  0  0  0  0  0  0  0  0  0
    0.4752   -3.2302    0.0009 O   0  0  0  0  0  0  0  0  0  0  0  0
    5.6131   -1.1548    0.0010 O   0  0  0  0  0  0  0  0  0  0  0  0
    5.5852    1.6101    0.0020 O   0  0  0  0  0  0  0  0  0  0  0  0
    0.6352   -0.8786   -0.0012 C   0  0  0  0  0  0  0  0  0  0  0  0
   -0.0553    0.3067   -0.0010 C   0  0  0  0  0  0  0  0  0  0  0  0
    2.0087   -0.5263   -0.0010 C   0  0  0  0  0  0  0  0  0  0  0  0
   -1.4834    0.4415   -0.0007 C   0  0  0  0  0  0  0  0  0  0  0  0
    2.0367    0.8710   -0.0008 C   0  0  0  0  0  0  0  0  0  0  0  0
   -2.1915   -0.7706   -0.0003 C   0  0  0  0  0  0  0  0  0  0  0  0
   -0.0781   -2.1368   -0.0007 C   0  0  0  0  0  0  0  0  0  0  0  0
   -2.1817    1.6448   -0.0002 C   0  0  0  0  0  0  0  0  0  0  0  0
    3.2328   -1.2189   -0.0007 C   0  0  0  0  0  0  0  0  0  0  0  0
    3.2080    1.6270    0.0000 C   0  0  0  0  0  0  0  0  0  0  0  0
   -3.5818   -0.8017    0.0003 C   0  0  0  0  0  0  0  0  0  0  0  0
    4.4253   -0.4825    0.0004 C   0  0  0  0  0  0  0  0  0  0  0  0
   -3.5799    1.6235    0.0002 C   0  0  0  0  0  0  0  0  0  0  0  0
   -4.2754    0.4079    0.0005 C   0  0  0  0  0  0  0  0  0  0  0  0
    4.4104    0.9143    0.0009 C   0  0  0  0  0  0  0  0  0  0  0  0
   -6.2862   -0.8620    0.0015 C   0  0  0  0  0  0  0  0  0  0  0  0
    3.2570   -2.3049   -0.0009 H   0  0  0  0  0  0  0  0  0  0  0  0
    3.1772    2.7106    0.0003 H   0  0  0  0  0  0  0  0  0  0  0  0
   -4.0576   -1.7754    0.0005 H   0  0  0  0  0  0  0  0  0  0  0  0
   -4.1343    2.5594    0.0005 H   0  0  0  0  0  0  0  0  0  0  0  0
   -0.5883    2.7231   -0.0011 H   0  0  0  0  0  0  0  0  0  0  0  0
    6.3343   -0.5016    0.0017 H   0  0  0  0  0  0  0  0  0  0  0  0
    5.3892    2.5628    0.0021 H   0  0  0  0  0  0  0  0  0  0  0  0
   -6.0615   -1.4293   -0.9081 H   0  0  0  0  0  0  0  0  0  0  0  0
   -7.3649   -0.6739    0.0019 H   0  0  0  0  0  0  0  0  0  0  0  0
   -6.0607   -1.4292    0.9110 H   0  0  0  0  0  0  0  0  0  0  0  0
  1  9  1  0  0  0  0
  1 12  1  0  0  0  0
  2 13  1  0  0  0  0
  2 14  1  0  0  0  0
  3 15  1  0  0  0  0
  3 28  1  0  0  0  0
  4 21  1  0  0  0  0
  4 23  1  0  0  0  0
  5 14  2  0  0  0  0
  6 19  1  0  0  0  0
  6 29  1  0  0  0  0
  7 22  1  0  0  0  0
  7 30  1  0  0  0  0
  8  9  2  0  0  0  0
  8 10  1  0  0  0  0
  8 14  1  0  0  0  0
  9 11  1  0  0  0  0
 10 12  1  0  0  0  0
 10 16  2  0  0  0  0
 11 13  1  0  0  0  0
 11 15  2  0  0  0  0
 12 17  2  0  0  0  0
 13 18  2  0  0  0  0
 15 20  1  0  0  0  0
 16 19  1  0  0  0  0
 16 24  1  0  0  0  0
 17 22  1  0  0  0  0
 17 25  1  0  0  0  0
 18 21  1  0  0  0  0
 18 26  1  0  0  0  0
 19 22  2  0  0  0  0
 20 21  2  0  0  0  0
 20 27  1  0  0  0  0
 23 31  1  0  0  0  0
 23 32  1  0  0  0  0
 23 33  1  0  0  0  0
M  END
> <PUBCHEM_COMPOUND_CID>
5281813

> <PUBCHEM_CONFORMER_RMSD>
0.6

> <PUBCHEM_CONFORMER_DIVERSEORDER>
1

> <PUBCHEM_MMFF94_PARTIAL_CHARGES>
29
1 -0.28
11 0.05
12 0.14
13 0.08
14 0.81
15 0.08
16 -0.15
17 -0.15
18 -0.15
19 0.08
2 -0.23
20 -0.15
21 0.08
22 0.08
23 0.28
24 0.15
25 0.15
26 0.15
27 0.15
28 0.45
29 0.45
3 -0.53
30 0.45
4 -0.36
5 -0.57
6 -0.53
7 -0.53
8 -0.09
9 0.09

> <PUBCHEM_EFFECTIVE_ROTOR_COUNT>
1

> <PUBCHEM_PHARMACOPHORE_FEATURES>
10
1 1 acceptor
1 3 donor
1 4 acceptor
1 5 acceptor
1 6 donor
1 7 donor
5 1 8 9 10 12 rings
6 10 12 16 17 19 22 rings
6 11 13 15 18 20 21 rings
6 2 8 9 11 13 14 rings

> <PUBCHEM_HEAVY_ATOM_COUNT>
23

> <PUBCHEM_ATOM_DEF_STEREO_COUNT>
0

> <PUBCHEM_ATOM_UDEF_STEREO_COUNT>
0

> <PUBCHEM_BOND_DEF_STEREO_COUNT>
0

> <PUBCHEM_BOND_UDEF_STEREO_COUNT>
0

> <PUBCHEM_ISOTOPIC_ATOM_COUNT>
0

> <PUBCHEM_COMPONENT_COUNT>
1

> <PUBCHEM_CACTVS_TAUTO_COUNT>
34

> <PUBCHEM_CONFORMER_ID>
0050981500000001

> <PUBCHEM_MMFF94_ENERGY>
72.4757

> <PUBCHEM_FEATURE_SELFOVERLAP>
50.977

> <PUBCHEM_SHAPE_FINGERPRINT>
10 15 18269844134208656552
10906281 52 18269816714815262705
10967382 1 18410856581119907301
1100329 8 18194682571020354497
11963148 33 18340774762972347195
12107183 9 17691127462352338520
12236239 1 17967812752064800969
12390115 104 18115854347524360809
12403259 415 18341058483477643917
12403260 363 18411419557033302856
12592029 89 18340205292688001194
12838862 33 18338817631625240757
12916748 109 18409727370083553232
13140716 1 18338795598701222075
13533116 47 17967531294415899442
138480 1 17690280838542083106
13862211 1 18410295800694923063
14341114 176 18342170068268538120
14787075 74 18261115162370347225
14790565 3 18409442600893800593
15042514 8 18268145371068091699
15131766 46 16054615095175399228
15196674 1 18410855477318612965
15927050 60 17542503830364280333
1813 80 16988843891282928900
18681886 176 18411705374380257488
19591789 44 18266741457785312358
200 152 18186241736402489137
20028762 73 18260271836831349311
20510252 161 18334011713586927600
21267235 1 18410848880291167759
21279426 13 18265895950280517300
23366157 5 17913764196048619114
23402539 116 18334300833863595663
23559900 14 18333452019999158824
3004659 81 18341891918593520718
335352 9 18410855465336064374
34797466 226 17458337503822023916
34934 24 18338520729763799682
350125 39 18410855464529078852
3545911 37 18410292489196068524
4214541 1 18410575123402609348
474 4 17488737875148721732
474229 33 18410856560062010095
495365 180 17241056409897657498
5104073 3 18411136973786206169
5486654 2 18409726223137433285
6138700 20 18194679492040961054
69090 78 18408887325914574654
9709674 26 18408035208967365950

> <PUBCHEM_SHAPE_MULTIPOLES>
432.24
11.77
2.48
0.59
1.58
0.45
0
-1.1
0.01
-0.16
0
0.02
0
0

> <PUBCHEM_SHAPE_SELFOVERLAP>
988.109

> <PUBCHEM_SHAPE_VOLUME>
225.7

> <PUBCHEM_COORDINATE_TYPE>
2
5
10

$$$$

