442505
  -OEChem-07051212583D

 32 33  0     1  0  0  0  0  0999 V2000
   -3.5181   -0.9843    0.4156 O   0  0  0  0  0  0  0  0  0  0  0  0
    0.3303   -0.1013    0.0694 N   0  0  0  0  0  0  0  0  0  0  0  0
   -1.4177   -1.7241   -0.1080 N   0  0  0  0  0  0  0  0  0  0  0  0
    0.7868   -2.3915   -0.2933 N   0  0  0  0  0  0  0  0  0  0  0  0
   -0.6271    0.9691    0.3730 C   0  0  1  0  0  0  0  0  0  0  0  0
    1.6937    0.4442   -0.0896 C   0  0  2  0  0  0  0  0  0  0  0  0
    0.0799    2.2403   -0.0845 C   0  0  0  0  0  0  0  0  0  0  0  0
    1.5269    1.9398    0.2751 C   0  0  0  0  0  0  0  0  0  0  0  0
   -1.9440    0.6795   -0.3411 C   0  0  1  0  0  0  0  0  0  0  0  0
    2.1613    0.3042   -1.5446 C   0  0  0  0  0  0  0  0  0  0  0  0
   -0.1443   -1.3987   -0.1084 C   0  0  0  0  0  0  0  0  0  0  0  0
    2.6538   -0.1869    0.8735 C   0  0  0  0  0  0  0  0  0  0  0  0
   -2.3717   -0.7371    0.0481 C   0  0  0  0  0  0  0  0  0  0  0  0
   -3.0145    1.7114    0.0020 C   0  0  0  0  0  0  0  0  0  0  0  0
    3.8047   -0.7646    0.5127 C   0  0  0  0  0  0  0  0  0  0  0  0
   -0.7757    0.9932    1.4612 H   0  0  0  0  0  0  0  0  0  0  0  0
   -0.2959    3.1343    0.4216 H   0  0  0  0  0  0  0  0  0  0  0  0
   -0.0212    2.3906   -1.1657 H   0  0  0  0  0  0  0  0  0  0  0  0
    2.2257    2.5946   -0.2564 H   0  0  0  0  0  0  0  0  0  0  0  0
    1.6687    2.1132    1.3505 H   0  0  0  0  0  0  0  0  0  0  0  0
   -1.8014    0.6742   -1.4303 H   0  0  0  0  0  0  0  0  0  0  0  0
    3.1054    0.8323   -1.7244 H   0  0  0  0  0  0  0  0  0  0  0  0
    2.2844   -0.7363   -1.8622 H   0  0  0  0  0  0  0  0  0  0  0  0
    1.4242    0.7390   -2.2311 H   0  0  0  0  0  0  0  0  0  0  0  0
    2.3914   -0.1823    1.9294 H   0  0  0  0  0  0  0  0  0  0  0  0
   -3.9592    1.4739   -0.4994 H   0  0  0  0  0  0  0  0  0  0  0  0
   -3.2108    1.7382    1.0795 H   0  0  0  0  0  0  0  0  0  0  0  0
   -2.7142    2.7146   -0.3163 H   0  0  0  0  0  0  0  0  0  0  0  0
    1.7821   -2.2234   -0.3351 H   0  0  0  0  0  0  0  0  0  0  0  0
    0.4889   -3.3526   -0.4242 H   0  0  0  0  0  0  0  0  0  0  0  0
    4.4393   -1.2037    1.2769 H   0  0  0  0  0  0  0  0  0  0  0  0
    4.1671   -0.8311   -0.5046 H   0  0  0  0  0  0  0  0  0  0  0  0
  1 13  2  0  0  0  0
  2  5  1  0  0  0  0
  2  6  1  0  0  0  0
  2 11  1  0  0  0  0
  3 11  2  0  0  0  0
  3 13  1  0  0  0  0
  4 11  1  0  0  0  0
  4 29  1  0  0  0  0
  4 30  1  0  0  0  0
  5  7  1  0  0  0  0
  5  9  1  0  0  0  0
  5 16  1  0  0  0  0
  6  8  1  0  0  0  0
  6 10  1  0  0  0  0
  6 12  1  0  0  0  0
  7  8  1  0  0  0  0
  7 17  1  0  0  0  0
  7 18  1  0  0  0  0
  8 19  1  0  0  0  0
  8 20  1  0  0  0  0
  9 13  1  0  0  0  0
  9 14  1  0  0  0  0
  9 21  1  0  0  0  0
 10 22  1  0  0  0  0
 10 23  1  0  0  0  0
 10 24  1  0  0  0  0
 12 15  2  0  0  0  0
 12 25  1  0  0  0  0
 14 26  1  0  0  0  0
 14 27  1  0  0  0  0
 14 28  1  0  0  0  0
 15 31  1  0  0  0  0
 15 32  1  0  0  0  0
M  END
> <PUBCHEM_COMPOUND_CID>
442505

> <PUBCHEM_CONFORMER_RMSD>
0.6

> <PUBCHEM_CONFORMER_DIVERSEORDER>
1
4
6
5
2
3

> <PUBCHEM_MMFF94_PARTIAL_CHARGES>
16
1 -0.57
11 0.55
12 -0.29
13 0.72
15 -0.3
2 -0.79
25 0.15
29 0.4
3 -0.66
30 0.4
31 0.15
32 0.15
4 -0.85
5 0.37
6 0.51
9 0.06

> <PUBCHEM_EFFECTIVE_ROTOR_COUNT>
1.8

> <PUBCHEM_PHARMACOPHORE_FEATURES>
6
1 1 acceptor
1 15 hydrophobe
1 3 donor
1 4 donor
5 2 5 6 7 8 rings
6 2 3 5 9 11 13 rings

> <PUBCHEM_HEAVY_ATOM_COUNT>
15

> <PUBCHEM_ATOM_DEF_STEREO_COUNT>
2

> <PUBCHEM_ATOM_UDEF_STEREO_COUNT>
1

> <PUBCHEM_BOND_DEF_STEREO_COUNT>
0

> <PUBCHEM_BOND_UDEF_STEREO_COUNT>
0

> <PUBCHEM_ISOTOPIC_ATOM_COUNT>
0

> <PUBCHEM_COMPONENT_COUNT>
1

> <PUBCHEM_CACTVS_TAUTO_COUNT>
3

> <PUBCHEM_CONFORMER_ID>
0006C08900000001

> <PUBCHEM_MMFF94_ENERGY>
46.8136

> <PUBCHEM_FEATURE_SELFOVERLAP>
30.572

> <PUBCHEM_SHAPE_FINGERPRINT>
10062212 137 18341904033731184547
10967382 1 18050288068130388721
11132069 177 18338243772702346528
11680986 33 18121778601957904619
12382932 28 18337113495938960177
12423570 1 9972084870815528754
12524768 44 17902222326133160783
13140716 1 18409448085440398417
13172582 1 18335701624177097107
13380535 76 18339086020247485519
15775835 57 18272927215508216876
16945 1 18408881811318926495
17804303 29 18336550525122800906
18522853 295 18337664239600691671
193761 8 17761497993352285592
19422 9 17917705794809464328
20510252 161 18259985963564988696
20559304 39 18342456993738095506
20588541 1 18266744769031089221
20645476 183 17916568848479053182
20871998 184 18334584576567097126
21501502 16 18046631105219897413
22802520 49 17752469112949855334
232386 152 18411983546600626148
2334 1 18337955562974666609
23380061 330 18334021583289501876
23402539 116 18187380838484775556
23419403 2 15892577127924998705
23463225 33 18342178894637334522
23552423 10 17838053702202104221
23559900 14 18261386802605173494
2748010 2 18338241466062607533
5084963 1 17968930899223339001
528886 8 18337962306104684209
53812653 166 18261397800940414393
7364860 26 18192150400216018824
77492 1 17846776321630099708

> <PUBCHEM_SHAPE_MULTIPOLES>
287.88
4.97
2.28
0.88
0.07
0.03
0.21
-0.57
-0.68
0.49
0.03
-0.53
0.06
-0.03

> <PUBCHEM_SHAPE_SELFOVERLAP>
602.649

> <PUBCHEM_SHAPE_VOLUME>
163.9

> <PUBCHEM_COORDINATE_TYPE>
2
5
10

$$$$

