585243
  -OEChem-06241222452D

 32 33  0     1  0  0  0  0  0999 V2000
    6.6353   -0.2347    0.0000 O   0  0  0  0  0  0  0  0  0  0  0  0
    5.6103   -2.6738    0.0000 O   0  0  0  0  0  0  0  0  0  0  0  0
    7.5673   -3.0863    0.0000 O   0  0  0  0  0  0  0  0  0  0  0  0
    7.9244   -1.3914    0.0000 O   0  0  0  0  0  0  0  0  0  0  0  0
    4.6783    0.1777    0.0000 N   0  0  0  0  0  0  0  0  0  0  0  0
    4.6783    1.7872    0.0000 N   0  0  0  0  0  0  0  0  0  0  0  0
    2.8660   -0.0175    0.0000 N   0  0  0  0  0  0  0  0  0  0  0  0
    2.0000    1.4825    0.0000 N   0  0  0  0  0  0  0  0  0  0  0  0
    2.8660    2.9825    0.0000 N   0  0  0  0  0  0  0  0  0  0  0  0
    5.9674   -0.9790    0.0000 C   0  0  3  0  0  0  0  0  0  0  0  0
    4.9889   -0.7728    0.0000 C   0  0  0  0  0  0  0  0  0  0  0  0
    6.2781   -1.9295    0.0000 C   0  0  3  0  0  0  0  0  0  0  0  0
    3.7320    0.4825    0.0000 C   0  0  0  0  0  0  0  0  0  0  0  0
    3.7320    1.4825    0.0000 C   0  0  0  0  0  0  0  0  0  0  0  0
    5.2619    0.9825    0.0000 C   0  0  0  0  0  0  0  0  0  0  0  0
    7.2566   -2.1357    0.0000 C   0  0  0  0  0  0  0  0  0  0  0  0
    2.8660    1.9825    0.0000 C   0  0  0  0  0  0  0  0  0  0  0  0
    2.0000    0.4825    0.0000 C   0  0  0  0  0  0  0  0  0  0  0  0
    8.5458   -3.2925    0.0000 C   0  0  0  0  0  0  0  0  0  0  0  0
    5.7748   -0.3897    0.0000 H   0  0  0  0  0  0  0  0  0  0  0  0
    4.3751   -0.8601    0.0000 H   0  0  0  0  0  0  0  0  0  0  0  0
    4.9684   -1.3924    0.0000 H   0  0  0  0  0  0  0  0  0  0  0  0
    5.6714   -1.8017    0.0000 H   0  0  0  0  0  0  0  0  0  0  0  0
    5.8819    0.9825    0.0000 H   0  0  0  0  0  0  0  0  0  0  0  0
    7.2420   -0.3626    0.0000 H   0  0  0  0  0  0  0  0  0  0  0  0
    5.8029   -3.2631    0.0000 H   0  0  0  0  0  0  0  0  0  0  0  0
    1.4631    0.1725    0.0000 H   0  0  0  0  0  0  0  0  0  0  0  0
    2.3291    3.2925    0.0000 H   0  0  0  0  0  0  0  0  0  0  0  0
    3.4030    3.2925    0.0000 H   0  0  0  0  0  0  0  0  0  0  0  0
    8.4179   -3.8992    0.0000 H   0  0  0  0  0  0  0  0  0  0  0  0
    9.1524   -3.4203    0.0000 H   0  0  0  0  0  0  0  0  0  0  0  0
    8.6736   -2.6858    0.0000 H   0  0  0  0  0  0  0  0  0  0  0  0
  1 10  1  0  0  0  0
  1 25  1  0  0  0  0
  2 12  1  0  0  0  0
  2 26  1  0  0  0  0
  3 16  1  0  0  0  0
  3 19  1  0  0  0  0
  4 16  2  0  0  0  0
  5 11  1  0  0  0  0
  5 13  1  0  0  0  0
  5 15  1  0  0  0  0
  6 14  1  0  0  0  0
  6 15  2  0  0  0  0
  7 13  2  0  0  0  0
  7 18  1  0  0  0  0
  8 17  1  0  0  0  0
  8 18  2  0  0  0  0
  9 17  1  0  0  0  0
  9 28  1  0  0  0  0
  9 29  1  0  0  0  0
 10 11  1  0  0  0  0
 10 12  1  0  0  0  0
 10 20  1  0  0  0  0
 11 21  1  0  0  0  0
 11 22  1  0  0  0  0
 12 16  1  0  0  0  0
 12 23  1  0  0  0  0
 13 14  1  0  0  0  0
 14 17  2  0  0  0  0
 15 24  1  0  0  0  0
 18 27  1  0  0  0  0
 19 30  1  0  0  0  0
 19 31  1  0  0  0  0
 19 32  1  0  0  0  0
M  END
> <PUBCHEM_COMPOUND_CID>
585243

> <PUBCHEM_COMPOUND_CANONICALIZED>
1

> <PUBCHEM_CACTVS_COMPLEXITY>
331

> <PUBCHEM_CACTVS_HBOND_ACCEPTOR>
8

> <PUBCHEM_CACTVS_HBOND_DONOR>
3

> <PUBCHEM_CACTVS_ROTATABLE_BOND>
5

> <PUBCHEM_CACTVS_SUBSKEYS>
AAADccBzuAAAAAAAAAAAAAAAAAAAAWAAAAAsAAAAAAAAAFgB+AAAHgAQCAAACBzhlwYH+L9MFgCoAQbxbAKAgC0REKABUCFoVBCDWBRAyEAURAgPIALTACAkAAAAAAAAAAAAAAAAAAAAAAAAAAAAAAAAAA==

> <PUBCHEM_IUPAC_OPENEYE_NAME>
methyl 4-(6-aminopurin-9-yl)-2,3-dihydroxy-butanoate

> <PUBCHEM_IUPAC_CAS_NAME>
4-(6-aminopurin-9-yl)-2,3-dihydroxybutanoic acid methyl ester

> <PUBCHEM_IUPAC_NAME>
methyl 4-(6-aminopurin-9-yl)-2,3-dihydroxybutanoate

> <PUBCHEM_IUPAC_SYSTEMATIC_NAME>
methyl 4-(6-aminopurin-9-yl)-2,3-bis(oxidanyl)butanoate

> <PUBCHEM_IUPAC_TRADITIONAL_NAME>
4-adenin-9-yl-2,3-dihydroxy-butyric acid methyl ester

> <PUBCHEM_IUPAC_INCHI>
InChI=1S/C10H13N5O4/c1-19-10(18)7(17)5(16)2-15-4-14-6-8(11)12-3-13-9(6)15/h3-5,7,16-17H,2H2,1H3,(H2,11,12,13)

> <PUBCHEM_IUPAC_INCHIKEY>
DQSWNDKQONYEFS-UHFFFAOYSA-N

> <PUBCHEM_XLOGP3>
-1.5

> <PUBCHEM_EXACT_MASS>
267.096754

> <PUBCHEM_MOLECULAR_FORMULA>
C10H13N5O4

> <PUBCHEM_MOLECULAR_WEIGHT>
267.24132

> <PUBCHEM_OPENEYE_CAN_SMILES>
COC(=O)C(C(CN1C=NC2=C1N=CN=C2N)O)O

> <PUBCHEM_OPENEYE_ISO_SMILES>
COC(=O)C(C(CN1C=NC2=C1N=CN=C2N)O)O

> <PUBCHEM_CACTVS_TPSA>
136

> <PUBCHEM_MONOISOTOPIC_WEIGHT>
267.096754

> <PUBCHEM_TOTAL_CHARGE>
0

> <PUBCHEM_HEAVY_ATOM_COUNT>
19

> <PUBCHEM_ATOM_DEF_STEREO_COUNT>
0

> <PUBCHEM_ATOM_UDEF_STEREO_COUNT>
2

> <PUBCHEM_BOND_DEF_STEREO_COUNT>
0

> <PUBCHEM_BOND_UDEF_STEREO_COUNT>
0

> <PUBCHEM_ISOTOPIC_ATOM_COUNT>
0

> <PUBCHEM_COMPONENT_COUNT>
1

> <PUBCHEM_CACTVS_TAUTO_COUNT>
3

> <PUBCHEM_COORDINATE_TYPE>
1
5
255

> <PUBCHEM_BONDANNOTATIONS>
10  1  3
13  14  8
14  17  8
12  2  3
5  13  8
5  15  8
6  14  8
6  15  8
7  13  8
7  18  8
8  17  8
8  18  8

$$$$

