11046097
  -OEChem-07051213122D

 41 44  0     1  0  0  0  0  0999 V2000
    6.7033   -2.9463    0.0000 Cl  0  0  0  0  0  0  0  0  0  0  0  0
    7.9790    0.9055    0.0000 O   0  0  0  0  0  0  0  0  0  0  0  0
    4.9889   -0.5642    0.0000 O   0  0  0  0  0  0  0  0  0  0  0  0
    4.9889    2.9463    0.0000 O   0  0  0  0  0  0  0  0  0  0  0  0
    7.0654    0.4988    0.0000 C   0  0  3  0  0  0  0  0  0  0  0  0
    6.0709    0.6033    0.0000 C   0  0  0  0  0  0  0  0  0  0  0  0
    5.2619    1.1911    0.0000 C   0  0  0  0  0  0  0  0  0  0  0  0
    7.1700    1.4933    0.0000 C   0  0  0  0  0  0  0  0  0  0  0  0
    6.0709    1.7789    0.0000 C   0  0  0  0  0  0  0  0  0  0  0  0
    7.4722   -0.4148    0.0000 C   0  0  0  0  0  0  0  0  0  0  0  0
    4.6783    1.9958    0.0000 C   0  0  0  0  0  0  0  0  0  0  0  0
    4.6783    0.3864    0.0000 C   0  0  0  0  0  0  0  0  0  0  0  0
    3.7320    1.6911    0.0000 C   0  0  0  0  0  0  0  0  0  0  0  0
    3.7320    0.6911    0.0000 C   0  0  0  0  0  0  0  0  0  0  0  0
    5.9664    2.7734    0.0000 C   0  0  0  0  0  0  0  0  0  0  0  0
    6.8844   -1.2238    0.0000 C   0  0  0  0  0  0  0  0  0  0  0  0
    8.4667   -0.5193    0.0000 C   0  0  0  0  0  0  0  0  0  0  0  0
    2.8660    2.1911    0.0000 C   0  0  0  0  0  0  0  0  0  0  0  0
    2.8660    0.1911    0.0000 C   0  0  0  0  0  0  0  0  0  0  0  0
    7.2911   -2.1373    0.0000 C   0  0  0  0  0  0  0  0  0  0  0  0
    8.8734   -1.4328    0.0000 C   0  0  0  0  0  0  0  0  0  0  0  0
    2.0000    0.6911    0.0000 C   0  0  0  0  0  0  0  0  0  0  0  0
    2.0000    1.6911    0.0000 C   0  0  0  0  0  0  0  0  0  0  0  0
    8.2856   -2.2419    0.0000 C   0  0  0  0  0  0  0  0  0  0  0  0
    5.5569    0.2566    0.0000 H   0  0  0  0  0  0  0  0  0  0  0  0
    6.2931    1.1821    0.0000 H   0  0  0  0  0  0  0  0  0  0  0  0
    7.4417    2.0506    0.0000 H   0  0  0  0  0  0  0  0  0  0  0  0
    6.5740    1.6642    0.0000 H   0  0  0  0  0  0  0  0  0  0  0  0
    6.3427    1.2216    0.0000 H   0  0  0  0  0  0  0  0  0  0  0  0
    6.6669    1.9498    0.0000 H   0  0  0  0  0  0  0  0  0  0  0  0
    6.5830    2.8382    0.0000 H   0  0  0  0  0  0  0  0  0  0  0  0
    5.9016    3.3900    0.0000 H   0  0  0  0  0  0  0  0  0  0  0  0
    5.3498    2.7086    0.0000 H   0  0  0  0  0  0  0  0  0  0  0  0
    6.2678   -1.1590    0.0000 H   0  0  0  0  0  0  0  0  0  0  0  0
    8.8311   -0.0177    0.0000 H   0  0  0  0  0  0  0  0  0  0  0  0
    2.8660    2.8111    0.0000 H   0  0  0  0  0  0  0  0  0  0  0  0
    2.8660   -0.4289    0.0000 H   0  0  0  0  0  0  0  0  0  0  0  0
    9.4900   -1.4976    0.0000 H   0  0  0  0  0  0  0  0  0  0  0  0
    1.4631    0.3811    0.0000 H   0  0  0  0  0  0  0  0  0  0  0  0
    1.4631    2.0011    0.0000 H   0  0  0  0  0  0  0  0  0  0  0  0
    8.5378   -2.8083    0.0000 H   0  0  0  0  0  0  0  0  0  0  0  0
  1 20  1  0  0  0  0
  2  5  1  0  0  0  0
  2  8  1  0  0  0  0
  3 12  2  0  0  0  0
  4 11  2  0  0  0  0
  5  6  1  0  0  0  0
  5  8  1  0  0  0  0
  5 10  1  0  0  0  0
  6  7  1  0  0  0  0
  6 25  1  0  0  0  0
  6 26  1  0  0  0  0
  7  9  1  0  0  0  0
  7 11  1  0  0  0  0
  7 12  1  0  0  0  0
  8 27  1  0  0  0  0
  8 28  1  0  0  0  0
  9 15  1  0  0  0  0
  9 29  1  0  0  0  0
  9 30  1  0  0  0  0
 10 16  2  0  0  0  0
 10 17  1  0  0  0  0
 11 13  1  0  0  0  0
 12 14  1  0  0  0  0
 13 14  1  0  0  0  0
 13 18  2  0  0  0  0
 14 19  2  0  0  0  0
 15 31  1  0  0  0  0
 15 32  1  0  0  0  0
 15 33  1  0  0  0  0
 16 20  1  0  0  0  0
 16 34  1  0  0  0  0
 17 21  2  0  0  0  0
 17 35  1  0  0  0  0
 18 23  1  0  0  0  0
 18 36  1  0  0  0  0
 19 22  1  0  0  0  0
 19 37  1  0  0  0  0
 20 24  2  0  0  0  0
 21 24  1  0  0  0  0
 21 38  1  0  0  0  0
 22 23  2  0  0  0  0
 22 39  1  0  0  0  0
 23 40  1  0  0  0  0
 24 41  1  0  0  0  0
M  END
> <PUBCHEM_COMPOUND_CID>
11046097

> <PUBCHEM_COMPOUND_CANONICALIZED>
1

> <PUBCHEM_CACTVS_COMPLEXITY>
521

> <PUBCHEM_CACTVS_HBOND_ACCEPTOR>
3

> <PUBCHEM_CACTVS_HBOND_DONOR>
0

> <PUBCHEM_CACTVS_ROTATABLE_BOND>
4

> <PUBCHEM_CACTVS_SUBSKEYS>
AAADceB4MAAEAAAAAAAAAAAAEgAAAYAAAAAwYAAAAAAAAGABQAAAGgIAAAAADkagmCIyAIAABACIAqBSAAACAAAkBQAIiAEACsgIJjKJNxiAMQAkwAEIqYeLzPCPgAAAIAAQAAAAAABAACAAAQAACAAAAA==

> <PUBCHEM_IUPAC_OPENEYE_NAME>
2-[[2-(3-chlorophenyl)oxiran-2-yl]methyl]-2-ethyl-indane-1,3-dione

> <PUBCHEM_IUPAC_CAS_NAME>
2-[[2-(3-chlorophenyl)-2-oxiranyl]methyl]-2-ethylindene-1,3-dione

> <PUBCHEM_IUPAC_NAME>
2-[[2-(3-chlorophenyl)oxiran-2-yl]methyl]-2-ethylindene-1,3-dione

> <PUBCHEM_IUPAC_SYSTEMATIC_NAME>
2-[[2-(3-chlorophenyl)oxiran-2-yl]methyl]-2-ethyl-indene-1,3-dione

> <PUBCHEM_IUPAC_TRADITIONAL_NAME>
2-[[2-(3-chlorophenyl)oxiran-2-yl]methyl]-2-ethyl-indane-1,3-quinone

> <PUBCHEM_IUPAC_INCHI>
InChI=1S/C20H17ClO3/c1-2-19(17(22)15-8-3-4-9-16(15)18(19)23)11-20(12-24-20)13-6-5-7-14(21)10-13/h3-10H,2,11-12H2,1H3

> <PUBCHEM_IUPAC_INCHIKEY>
PMAAYIYCDXGUAP-UHFFFAOYSA-N

> <PUBCHEM_XLOGP3_AA>
4.1

> <PUBCHEM_EXACT_MASS>
340.086622

> <PUBCHEM_MOLECULAR_FORMULA>
C20H17ClO3

> <PUBCHEM_MOLECULAR_WEIGHT>
340.80018

> <PUBCHEM_OPENEYE_CAN_SMILES>
CCC1(C(=O)C2=CC=CC=C2C1=O)CC3(CO3)C4=CC(=CC=C4)Cl

> <PUBCHEM_OPENEYE_ISO_SMILES>
CCC1(C(=O)C2=CC=CC=C2C1=O)CC3(CO3)C4=CC(=CC=C4)Cl

> <PUBCHEM_CACTVS_TPSA>
46.7

> <PUBCHEM_MONOISOTOPIC_WEIGHT>
340.086622

> <PUBCHEM_TOTAL_CHARGE>
0

> <PUBCHEM_HEAVY_ATOM_COUNT>
24

> <PUBCHEM_ATOM_DEF_STEREO_COUNT>
0

> <PUBCHEM_ATOM_UDEF_STEREO_COUNT>
1

> <PUBCHEM_BOND_DEF_STEREO_COUNT>
0

> <PUBCHEM_BOND_UDEF_STEREO_COUNT>
0

> <PUBCHEM_ISOTOPIC_ATOM_COUNT>
0

> <PUBCHEM_COMPONENT_COUNT>
1

> <PUBCHEM_CACTVS_TAUTO_COUNT>
1

> <PUBCHEM_COORDINATE_TYPE>
1
5
255

> <PUBCHEM_BONDANNOTATIONS>
10  16  8
10  17  8
13  14  8
13  18  8
14  19  8
16  20  8
17  21  8
18  23  8
19  22  8
20  24  8
21  24  8
22  23  8
5  6  3

$$$$

