17396057
  -OEChem-06241222542D

 55 59  0     1  0  0  0  0  0999 V2000
    6.4103    1.6412    0.0000 S   0  0  0  0  0  0  0  0  0  0  0  0
    8.4939    1.5799    0.0000 O   0  0  0  0  0  0  0  0  0  0  0  0
    8.4939    3.3120    0.0000 O   0  0  0  0  0  0  0  0  0  0  0  0
    9.5872   -0.1996    0.0000 O   0  0  0  0  0  0  0  0  0  0  0  0
   10.5622   -3.4460    0.0000 O   0  0  0  0  0  0  0  0  0  0  0  0
   10.9885    0.6094    0.0000 N   0  0  0  0  0  0  0  0  0  0  0  0
   11.1964   -0.3688    0.0000 N   0  0  0  0  0  0  0  0  0  0  0  0
    9.5677   -3.3414    0.0000 N   0  0  0  0  0  0  0  0  0  0  0  0
    3.7320    2.9460    0.0000 C   0  0  3  0  0  0  0  0  0  0  0  0
    3.7320    1.9460    0.0000 C   0  0  0  0  0  0  0  0  0  0  0  0
    4.5981    3.4460    0.0000 C   0  0  0  0  0  0  0  0  0  0  0  0
    4.5981    1.4460    0.0000 C   0  0  0  0  0  0  0  0  0  0  0  0
    5.4641    2.9460    0.0000 C   0  0  0  0  0  0  0  0  0  0  0  0
    2.8660    3.4460    0.0000 C   0  0  0  0  0  0  0  0  0  0  0  0
    5.4641    1.9460    0.0000 C   0  0  0  0  0  0  0  0  0  0  0  0
    6.4103    3.2507    0.0000 C   0  0  0  0  0  0  0  0  0  0  0  0
    2.0000    2.9460    0.0000 C   0  0  0  0  0  0  0  0  0  0  0  0
    6.9939    2.4460    0.0000 C   0  0  0  0  0  0  0  0  0  0  0  0
    7.9939    2.4460    0.0000 C   0  0  0  0  0  0  0  0  0  0  0  0
    9.4939    1.5799    0.0000 C   0  0  0  0  0  0  0  0  0  0  0  0
    9.9939    0.7139    0.0000 C   0  0  0  0  0  0  0  0  0  0  0  0
   10.2258   -1.8633    0.0000 C   0  0  0  0  0  0  0  0  0  0  0  0
    9.3598   -2.3633    0.0000 C   0  0  0  0  0  0  0  0  0  0  0  0
   10.3303   -0.8688    0.0000 C   0  0  0  0  0  0  0  0  0  0  0  0
   10.9690   -2.5324    0.0000 C   0  0  0  0  0  0  0  0  0  0  0  0
    8.4462   -1.9566    0.0000 C   0  0  0  0  0  0  0  0  0  0  0  0
   11.9471   -2.3245    0.0000 C   0  0  0  0  0  0  0  0  0  0  0  0
    7.6372   -2.5443    0.0000 C   0  0  0  0  0  0  0  0  0  0  0  0
    8.3417   -0.9620    0.0000 C   0  0  0  0  0  0  0  0  0  0  0  0
    6.7237   -2.1376    0.0000 C   0  0  0  0  0  0  0  0  0  0  0  0
    7.4282   -0.5553    0.0000 C   0  0  0  0  0  0  0  0  0  0  0  0
    6.6192   -1.1431    0.0000 C   0  0  0  0  0  0  0  0  0  0  0  0
    3.7320    3.5660    0.0000 H   0  0  0  0  0  0  0  0  0  0  0  0
    3.1215    2.0536    0.0000 H   0  0  0  0  0  0  0  0  0  0  0  0
    3.5200    1.3634    0.0000 H   0  0  0  0  0  0  0  0  0  0  0  0
    4.9966    3.9209    0.0000 H   0  0  0  0  0  0  0  0  0  0  0  0
    4.1996    3.9209    0.0000 H   0  0  0  0  0  0  0  0  0  0  0  0
    4.1996    0.9710    0.0000 H   0  0  0  0  0  0  0  0  0  0  0  0
    4.9966    0.9710    0.0000 H   0  0  0  0  0  0  0  0  0  0  0  0
    3.2646    3.9209    0.0000 H   0  0  0  0  0  0  0  0  0  0  0  0
    2.4675    3.9209    0.0000 H   0  0  0  0  0  0  0  0  0  0  0  0
    6.6029    3.8400    0.0000 H   0  0  0  0  0  0  0  0  0  0  0  0
    1.6900    3.4829    0.0000 H   0  0  0  0  0  0  0  0  0  0  0  0
    1.4631    2.6360    0.0000 H   0  0  0  0  0  0  0  0  0  0  0  0
    2.3100    2.4090    0.0000 H   0  0  0  0  0  0  0  0  0  0  0  0
   10.0765    1.7920    0.0000 H   0  0  0  0  0  0  0  0  0  0  0  0
    9.3863    2.1905    0.0000 H   0  0  0  0  0  0  0  0  0  0  0  0
   12.0760   -2.9310    0.0000 H   0  0  0  0  0  0  0  0  0  0  0  0
   12.5536   -2.1956    0.0000 H   0  0  0  0  0  0  0  0  0  0  0  0
   11.8182   -1.7180    0.0000 H   0  0  0  0  0  0  0  0  0  0  0  0
    7.7020   -3.1609    0.0000 H   0  0  0  0  0  0  0  0  0  0  0  0
    8.8433   -0.5976    0.0000 H   0  0  0  0  0  0  0  0  0  0  0  0
    6.2221   -2.5020    0.0000 H   0  0  0  0  0  0  0  0  0  0  0  0
    7.3634    0.0613    0.0000 H   0  0  0  0  0  0  0  0  0  0  0  0
    6.0527   -0.8909    0.0000 H   0  0  0  0  0  0  0  0  0  0  0  0
  1 15  1  0  0  0  0
  1 18  1  0  0  0  0
  2 19  1  0  0  0  0
  2 20  1  0  0  0  0
  3 19  2  0  0  0  0
  4 21  1  0  0  0  0
  4 24  1  0  0  0  0
  5  8  1  0  0  0  0
  5 25  1  0  0  0  0
  6  7  1  0  0  0  0
  6 21  2  0  0  0  0
  7 24  2  0  0  0  0
  8 23  2  0  0  0  0
  9 10  1  0  0  0  0
  9 11  1  0  0  0  0
  9 14  1  0  0  0  0
  9 33  1  0  0  0  0
 10 12  1  0  0  0  0
 10 34  1  0  0  0  0
 10 35  1  0  0  0  0
 11 13  1  0  0  0  0
 11 36  1  0  0  0  0
 11 37  1  0  0  0  0
 12 15  1  0  0  0  0
 12 38  1  0  0  0  0
 12 39  1  0  0  0  0
 13 15  2  0  0  0  0
 13 16  1  0  0  0  0
 14 17  1  0  0  0  0
 14 40  1  0  0  0  0
 14 41  1  0  0  0  0
 16 18  2  0  0  0  0
 16 42  1  0  0  0  0
 17 43  1  0  0  0  0
 17 44  1  0  0  0  0
 17 45  1  0  0  0  0
 18 19  1  0  0  0  0
 20 21  1  0  0  0  0
 20 46  1  0  0  0  0
 20 47  1  0  0  0  0
 22 23  1  0  0  0  0
 22 24  1  0  0  0  0
 22 25  2  0  0  0  0
 23 26  1  0  0  0  0
 25 27  1  0  0  0  0
 26 28  2  0  0  0  0
 26 29  1  0  0  0  0
 27 48  1  0  0  0  0
 27 49  1  0  0  0  0
 27 50  1  0  0  0  0
 28 30  1  0  0  0  0
 28 51  1  0  0  0  0
 29 31  2  0  0  0  0
 29 52  1  0  0  0  0
 30 32  2  0  0  0  0
 30 53  1  0  0  0  0
 31 32  1  0  0  0  0
 31 54  1  0  0  0  0
 32 55  1  0  0  0  0
M  END
> <PUBCHEM_COMPOUND_CID>
17396057

> <PUBCHEM_COMPOUND_CANONICALIZED>
1

> <PUBCHEM_CACTVS_COMPLEXITY>
649

> <PUBCHEM_CACTVS_HBOND_ACCEPTOR>
8

> <PUBCHEM_CACTVS_HBOND_DONOR>
0

> <PUBCHEM_CACTVS_ROTATABLE_BOND>
7

> <PUBCHEM_CACTVS_SUBSKEYS>
AAADceB7OABAAAAAAAAAAAAAAAAAAWLEgAAwYAAAAAAAAEgB/AAAHgQMAAAADQyh3gIyjZAQBEivA6XyWgaTAIAsKBB6mDl0TNoLJ76o9Z+LMcBn6Bkq6ceYyOCOAAAAAAAAAAAgAAQAAAgAAAAAAAAAAA==

> <PUBCHEM_IUPAC_OPENEYE_NAME>
[5-(5-methyl-3-phenyl-isoxazol-4-yl)-1,3,4-oxadiazol-2-yl]methyl 5-ethyl-4,5,6,7-tetrahydrobenzothiophene-2-carboxylate

> <PUBCHEM_IUPAC_CAS_NAME>
5-ethyl-4,5,6,7-tetrahydro-1-benzothiophene-2-carboxylic acid [5-(5-methyl-3-phenyl-4-isoxazolyl)-1,3,4-oxadiazol-2-yl]methyl ester

> <PUBCHEM_IUPAC_NAME>
[5-(5-methyl-3-phenyl-1,2-oxazol-4-yl)-1,3,4-oxadiazol-2-yl]methyl 5-ethyl-4,5,6,7-tetrahydro-1-benzothiophene-2-carboxylate

> <PUBCHEM_IUPAC_SYSTEMATIC_NAME>
[5-(5-methyl-3-phenyl-1,2-oxazol-4-yl)-1,3,4-oxadiazol-2-yl]methyl 5-ethyl-4,5,6,7-tetrahydro-1-benzothiophene-2-carboxylate

> <PUBCHEM_IUPAC_TRADITIONAL_NAME>
5-ethyl-4,5,6,7-tetrahydrobenzothiophene-2-carboxylic acid [5-(5-methyl-3-phenyl-isoxazol-4-yl)-1,3,4-oxadiazol-2-yl]methyl ester

> <PUBCHEM_IUPAC_INCHI>
InChI=1S/C24H23N3O4S/c1-3-15-9-10-18-17(11-15)12-19(32-18)24(28)29-13-20-25-26-23(30-20)21-14(2)31-27-22(21)16-7-5-4-6-8-16/h4-8,12,15H,3,9-11,13H2,1-2H3

> <PUBCHEM_IUPAC_INCHIKEY>
QUFVKBRRYUQWGS-UHFFFAOYSA-N

> <PUBCHEM_XLOGP3_AA>
5.3

> <PUBCHEM_EXACT_MASS>
449.140927

> <PUBCHEM_MOLECULAR_FORMULA>
C24H23N3O4S

> <PUBCHEM_MOLECULAR_WEIGHT>
449.52212

> <PUBCHEM_OPENEYE_CAN_SMILES>
CCC1CCC2=C(C1)C=C(S2)C(=O)OCC3=NN=C(O3)C4=C(ON=C4C5=CC=CC=C5)C

> <PUBCHEM_OPENEYE_ISO_SMILES>
CCC1CCC2=C(C1)C=C(S2)C(=O)OCC3=NN=C(O3)C4=C(ON=C4C5=CC=CC=C5)C

> <PUBCHEM_CACTVS_TPSA>
120

> <PUBCHEM_MONOISOTOPIC_WEIGHT>
449.140927

> <PUBCHEM_TOTAL_CHARGE>
0

> <PUBCHEM_HEAVY_ATOM_COUNT>
32

> <PUBCHEM_ATOM_DEF_STEREO_COUNT>
0

> <PUBCHEM_ATOM_UDEF_STEREO_COUNT>
1

> <PUBCHEM_BOND_DEF_STEREO_COUNT>
0

> <PUBCHEM_BOND_UDEF_STEREO_COUNT>
0

> <PUBCHEM_ISOTOPIC_ATOM_COUNT>
0

> <PUBCHEM_COMPONENT_COUNT>
1

> <PUBCHEM_CACTVS_TAUTO_COUNT>
3

> <PUBCHEM_COORDINATE_TYPE>
1
5
255

> <PUBCHEM_BONDANNOTATIONS>
1  15  8
1  18  8
13  15  8
13  16  8
16  18  8
22  23  8
22  25  8
26  28  8
26  29  8
28  30  8
29  31  8
30  32  8
31  32  8
4  21  8
4  24  8
5  25  8
5  8  8
6  21  8
6  7  8
7  24  8
8  23  8
9  14  3

$$$$

