4338370
  -OEChem-07051213143D

 18 18  0     0  0  0  0  0  0999 V2000
    1.8760   -2.0319   -0.0001 O   0  5  0  0  0  0  0  0  0  0  0  0
    2.7798   -0.0314    0.0002 O   0  0  0  0  0  0  0  0  0  0  0  0
    1.7768   -0.7827    0.0002 N   0  3  0  0  0  0  0  0  0  0  0  0
    1.4301    2.0565   -0.0005 N   0  0  0  0  0  0  0  0  0  0  0  0
   -3.0488   -1.3275    0.0004 N   0  0  0  0  0  0  0  0  0  0  0  0
    0.4798   -0.1966    0.0001 C   0  0  0  0  0  0  0  0  0  0  0  0
    0.3146    1.1884    0.0004 C   0  0  0  0  0  0  0  0  0  0  0  0
   -1.9192   -0.4828   -0.0005 C   0  0  0  0  0  0  0  0  0  0  0  0
   -0.6371   -1.0322   -0.0003 C   0  0  0  0  0  0  0  0  0  0  0  0
   -0.9675    1.7379    0.0004 C   0  0  0  0  0  0  0  0  0  0  0  0
   -2.0844    0.9023   -0.0001 C   0  0  0  0  0  0  0  0  0  0  0  0
   -0.5379   -2.1156   -0.0004 H   0  0  0  0  0  0  0  0  0  0  0  0
   -1.1111    2.8154    0.0004 H   0  0  0  0  0  0  0  0  0  0  0  0
   -3.0783    1.3425    0.0000 H   0  0  0  0  0  0  0  0  0  0  0  0
    2.3777    1.7112    0.0027 H   0  0  0  0  0  0  0  0  0  0  0  0
    1.2764    3.0568    0.0012 H   0  0  0  0  0  0  0  0  0  0  0  0
   -3.9784   -0.9293   -0.0019 H   0  0  0  0  0  0  0  0  0  0  0  0
   -2.9305   -2.3319   -0.0021 H   0  0  0  0  0  0  0  0  0  0  0  0
  1  3  1  0  0  0  0
  2  3  2  0  0  0  0
  3  6  1  0  0  0  0
  4  7  1  0  0  0  0
  4 15  1  0  0  0  0
  4 16  1  0  0  0  0
  5  8  1  0  0  0  0
  5 17  1  0  0  0  0
  5 18  1  0  0  0  0
  6  7  2  0  0  0  0
  6  9  1  0  0  0  0
  7 10  1  0  0  0  0
  8  9  2  0  0  0  0
  8 11  1  0  0  0  0
  9 12  1  0  0  0  0
 10 11  2  0  0  0  0
 10 13  1  0  0  0  0
 11 14  1  0  0  0  0
M  CHG  2   1  -1   3   1
M  END
> <PUBCHEM_COMPOUND_CID>
4338370

> <PUBCHEM_CONFORMER_RMSD>
0.4

> <PUBCHEM_CONFORMER_DIVERSEORDER>
1

> <PUBCHEM_MMFF94_PARTIAL_CHARGES>
18
1 -0.52
10 -0.15
11 -0.15
12 0.15
13 0.15
14 0.15
15 0.4
16 0.4
17 0.4
18 0.4
2 -0.52
3 0.91
4 -0.9
5 -0.9
6 0.13
7 0.1
8 0.1
9 -0.15

> <PUBCHEM_EFFECTIVE_ROTOR_COUNT>
1

> <PUBCHEM_PHARMACOPHORE_FEATURES>
8
1 1 acceptor
1 1 anion
1 2 acceptor
1 4 cation
1 4 donor
1 5 cation
1 5 donor
6 6 7 8 9 10 11 rings

> <PUBCHEM_HEAVY_ATOM_COUNT>
11

> <PUBCHEM_ATOM_DEF_STEREO_COUNT>
0

> <PUBCHEM_ATOM_UDEF_STEREO_COUNT>
0

> <PUBCHEM_BOND_DEF_STEREO_COUNT>
0

> <PUBCHEM_BOND_UDEF_STEREO_COUNT>
0

> <PUBCHEM_ISOTOPIC_ATOM_COUNT>
0

> <PUBCHEM_COMPONENT_COUNT>
1

> <PUBCHEM_CACTVS_TAUTO_COUNT>
1

> <PUBCHEM_CONFORMER_ID>
004232C200000001

> <PUBCHEM_MMFF94_ENERGY>
56.9788

> <PUBCHEM_FEATURE_SELFOVERLAP>
40.676

> <PUBCHEM_SHAPE_FINGERPRINT>
10857977 72 18337123322913745770
12524768 44 18046061824442607334
14128692 85 18408879620574382205
161256 15 18338798909894140757
16945 1 18410856551113229957
18185500 45 18268709583287587187
193761 8 18410575102086067397
20201158 50 18341616984039839395
20645477 70 18265338309672344319
20871998 184 18115029726524536679
21040471 1 17762056940248675813
23552423 10 18342735200160304349
241688 4 18341333370222189097
2748010 2 18265335195050265110
29004967 10 18410854369291007730
369184 2 18267586999116596107
5084963 1 18187645782301188355

> <PUBCHEM_SHAPE_MULTIPOLES>
199.69
3.51
2.07
0.57
0.11
0.3
0
-1.2
0
-0.3
0
0.05
0.02
0

> <PUBCHEM_SHAPE_SELFOVERLAP>
421.287

> <PUBCHEM_SHAPE_VOLUME>
112.5

> <PUBCHEM_COORDINATE_TYPE>
2
5
10

$$$$

