467797
  -OEChem-07051213093D

 62 65  0     1  0  0  0  0  0999 V2000
    0.3816    2.7016    0.6316 O   0  0  0  0  0  0  0  0  0  0  0  0
    3.3652    1.6896   -0.7127 O   0  0  0  0  0  0  0  0  0  0  0  0
    0.0614   -2.7179    0.4896 O   0  0  0  0  0  0  0  0  0  0  0  0
    3.5705   -0.9494   -1.2956 O   0  0  0  0  0  0  0  0  0  0  0  0
    2.8271   -2.9729    0.4396 O   0  0  0  0  0  0  0  0  0  0  0  0
   -1.8764   -1.4987    1.5971 O   0  0  0  0  0  0  0  0  0  0  0  0
    1.5109    3.3807    2.4492 O   0  0  0  0  0  0  0  0  0  0  0  0
   -4.6136   -1.5757    1.1498 O   0  0  0  0  0  0  0  0  0  0  0  0
    1.0747    0.7555   -0.7814 C   0  0  2  0  0  0  0  0  0  0  0  0
    0.1440   -0.3129   -0.0751 C   0  0  1  0  0  0  0  0  0  0  0  0
   -1.3901   -0.2596   -0.4826 C   0  0  1  0  0  0  0  0  0  0  0  0
    2.4586    0.8062   -0.0231 C   0  0  1  0  0  0  0  0  0  0  0  0
    0.4446    2.1606   -0.7070 C   0  0  1  0  0  0  0  0  0  0  0  0
   -1.9078    1.2259   -0.4925 C   0  0  1  0  0  0  0  0  0  0  0  0
    0.8459   -1.7087   -0.1418 C   0  0  1  0  0  0  0  0  0  0  0  0
    3.1689   -0.5928    0.0371 C   0  0  1  0  0  0  0  0  0  0  0  0
   -0.9907    2.1975   -1.2463 C   0  0  0  0  0  0  0  0  0  0  0  0
    2.2141   -1.6853    0.5653 C   0  0  2  0  0  0  0  0  0  0  0  0
    1.3040    0.4605   -2.2957 C   0  0  0  0  0  0  0  0  0  0  0  0
    2.2877    1.3920    1.3897 C   0  0  0  0  0  0  0  0  0  0  0  0
   -3.3893    1.3187   -0.9662 C   0  0  1  0  0  0  0  0  0  0  0  0
   -1.6543   -1.0135   -1.8044 C   0  0  0  0  0  0  0  0  0  0  0  0
   -2.2979   -0.8911    0.6158 C   0  0  0  0  0  0  0  0  0  0  0  0
    4.4710   -0.5716    0.8617 C   0  0  0  0  0  0  0  0  0  0  0  0
    1.3955    2.5961    1.5100 C   0  0  0  0  0  0  0  0  0  0  0  0
   -4.2495    0.2911   -0.2666 C   0  0  0  0  0  0  0  0  0  0  0  0
   -3.7752   -0.7113    0.4831 C   0  0  0  0  0  0  0  0  0  0  0  0
   -3.9903    2.7099   -0.7249 C   0  0  0  0  0  0  0  0  0  0  0  0
    3.0211   -3.3161   -0.9219 C   0  0  0  0  0  0  0  0  0  0  0  0
   -4.4117   -2.9087    0.7182 C   0  0  0  0  0  0  0  0  0  0  0  0
    0.1200   -0.0557    0.9932 H   0  0  0  0  0  0  0  0  0  0  0  0
    1.0282    2.8793   -1.2962 H   0  0  0  0  0  0  0  0  0  0  0  0
   -1.9023    1.5674    0.5564 H   0  0  0  0  0  0  0  0  0  0  0  0
    0.8754   -2.0078   -1.1835 H   0  0  0  0  0  0  0  0  0  0  0  0
   -1.0297    2.0015   -2.3215 H   0  0  0  0  0  0  0  0  0  0  0  0
   -1.3614    3.2204   -1.1107 H   0  0  0  0  0  0  0  0  0  0  0  0
    2.0518   -1.5474    1.6410 H   0  0  0  0  0  0  0  0  0  0  0  0
    2.0976    1.0944   -2.7073 H   0  0  0  0  0  0  0  0  0  0  0  0
    1.5781   -0.5730   -2.5070 H   0  0  0  0  0  0  0  0  0  0  0  0
    0.4303    0.6679   -2.9124 H   0  0  0  0  0  0  0  0  0  0  0  0
    3.2676    1.7162    1.7644 H   0  0  0  0  0  0  0  0  0  0  0  0
    1.8924    0.6519    2.0923 H   0  0  0  0  0  0  0  0  0  0  0  0
   -3.4438    1.1229   -2.0446 H   0  0  0  0  0  0  0  0  0  0  0  0
   -1.2128   -0.5168   -2.6670 H   0  0  0  0  0  0  0  0  0  0  0  0
   -1.2731   -2.0383   -1.7673 H   0  0  0  0  0  0  0  0  0  0  0  0
   -2.7196   -1.1229   -2.0296 H   0  0  0  0  0  0  0  0  0  0  0  0
    5.1445    0.2218    0.5193 H   0  0  0  0  0  0  0  0  0  0  0  0
    4.2801   -0.4288    1.9296 H   0  0  0  0  0  0  0  0  0  0  0  0
    5.0270   -1.5086    0.7417 H   0  0  0  0  0  0  0  0  0  0  0  0
    3.0483    2.6025   -0.6143 H   0  0  0  0  0  0  0  0  0  0  0  0
   -5.3273    0.3870   -0.3802 H   0  0  0  0  0  0  0  0  0  0  0  0
   -0.0320   -2.4805    1.4278 H   0  0  0  0  0  0  0  0  0  0  0  0
    4.1473   -0.2414   -1.6305 H   0  0  0  0  0  0  0  0  0  0  0  0
   -3.8823    3.0171    0.3213 H   0  0  0  0  0  0  0  0  0  0  0  0
   -3.5125    3.4660   -1.3549 H   0  0  0  0  0  0  0  0  0  0  0  0
   -5.0587    2.7275   -0.9700 H   0  0  0  0  0  0  0  0  0  0  0  0
    2.4093   -2.8679   -1.7017 H   0  0  0  0  0  0  0  0  0  0  0  0
    2.8245   -4.3930   -0.9894 H   0  0  0  0  0  0  0  0  0  0  0  0
    4.0842   -3.2170   -1.1690 H   0  0  0  0  0  0  0  0  0  0  0  0
   -4.3943   -2.9861   -0.3754 H   0  0  0  0  0  0  0  0  0  0  0  0
   -5.2535   -3.5084    1.0786 H   0  0  0  0  0  0  0  0  0  0  0  0
   -3.5002   -3.3391    1.1435 H   0  0  0  0  0  0  0  0  0  0  0  0
  1 13  1  0  0  0  0
  1 25  1  0  0  0  0
  2 12  1  0  0  0  0
  2 50  1  0  0  0  0
  3 15  1  0  0  0  0
  3 52  1  0  0  0  0
  4 16  1  0  0  0  0
  4 53  1  0  0  0  0
  5 18  1  0  0  0  0
  5 29  1  0  0  0  0
  6 23  2  0  0  0  0
  7 25  2  0  0  0  0
  8 27  1  0  0  0  0
  8 30  1  0  0  0  0
  9 10  1  0  0  0  0
  9 12  1  0  0  0  0
  9 13  1  0  0  0  0
  9 19  1  0  0  0  0
 10 11  1  0  0  0  0
 10 15  1  0  0  0  0
 10 31  1  0  0  0  0
 11 14  1  0  0  0  0
 11 22  1  0  0  0  0
 11 23  1  0  0  0  0
 12 16  1  0  0  0  0
 12 20  1  0  0  0  0
 13 17  1  0  0  0  0
 13 32  1  0  0  0  0
 14 17  1  0  0  0  0
 14 21  1  0  0  0  0
 14 33  1  0  0  0  0
 15 18  1  0  0  0  0
 15 34  1  0  0  0  0
 16 18  1  0  0  0  0
 16 24  1  0  0  0  0
 17 35  1  0  0  0  0
 17 36  1  0  0  0  0
 18 37  1  0  0  0  0
 19 38  1  0  0  0  0
 19 39  1  0  0  0  0
 19 40  1  0  0  0  0
 20 25  1  0  0  0  0
 20 41  1  0  0  0  0
 20 42  1  0  0  0  0
 21 26  1  0  0  0  0
 21 28  1  0  0  0  0
 21 43  1  0  0  0  0
 22 44  1  0  0  0  0
 22 45  1  0  0  0  0
 22 46  1  0  0  0  0
 23 27  1  0  0  0  0
 24 47  1  0  0  0  0
 24 48  1  0  0  0  0
 24 49  1  0  0  0  0
 26 27  2  0  0  0  0
 26 51  1  0  0  0  0
 28 54  1  0  0  0  0
 28 55  1  0  0  0  0
 28 56  1  0  0  0  0
 29 57  1  0  0  0  0
 29 58  1  0  0  0  0
 29 59  1  0  0  0  0
 30 60  1  0  0  0  0
 30 61  1  0  0  0  0
 30 62  1  0  0  0  0
M  END
> <PUBCHEM_COMPOUND_CID>
467797

> <PUBCHEM_CONFORMER_RMSD>
0.8

> <PUBCHEM_CONFORMER_DIVERSEORDER>
1

> <PUBCHEM_MMFF94_PARTIAL_CHARGES>
26
1 -0.43
11 0.06
12 0.28
13 0.28
15 0.28
16 0.28
18 0.28
2 -0.68
20 0.06
21 0.14
23 0.49
25 0.66
26 -0.29
27 0.09
29 0.28
3 -0.68
30 0.28
4 -0.68
5 -0.56
50 0.4
51 0.15
52 0.4
53 0.4
6 -0.57
7 -0.57
8 -0.36

> <PUBCHEM_EFFECTIVE_ROTOR_COUNT>
3.4

> <PUBCHEM_PHARMACOPHORE_FEATURES>
14
1 2 acceptor
1 2 donor
1 3 acceptor
1 3 donor
1 4 acceptor
1 4 donor
1 5 acceptor
1 6 acceptor
1 7 acceptor
1 8 acceptor
6 1 9 12 13 20 25 rings
6 11 14 21 23 26 27 rings
6 9 10 11 13 14 17 rings
6 9 10 12 15 16 18 rings

> <PUBCHEM_HEAVY_ATOM_COUNT>
30

> <PUBCHEM_ATOM_DEF_STEREO_COUNT>
10

> <PUBCHEM_ATOM_UDEF_STEREO_COUNT>
0

> <PUBCHEM_BOND_DEF_STEREO_COUNT>
0

> <PUBCHEM_BOND_UDEF_STEREO_COUNT>
0

> <PUBCHEM_ISOTOPIC_ATOM_COUNT>
0

> <PUBCHEM_COMPONENT_COUNT>
1

> <PUBCHEM_CACTVS_TAUTO_COUNT>
3

> <PUBCHEM_CONFORMER_ID>
0007235500000001

> <PUBCHEM_MMFF94_ENERGY>
152.5284

> <PUBCHEM_FEATURE_SELFOVERLAP>
71.267

> <PUBCHEM_SHAPE_FINGERPRINT>
10165383 225 17903628588726355304
10366900 7 18340483344712504347
10863032 1 18342457083890360213
1100329 8 16610270256354013889
11135609 12 17774709914493600865
11578080 2 17460911490454113433
11640471 11 15792585015139130048
12035758 1 18190756241220791952
12156800 1 9573897679593659451
12403259 226 18411699855405174355
12506688 2 18410574019648501976
12788726 201 17684653516529285392
13134695 92 17969519258298657796
13140716 1 18269564986185795842
13224815 77 18342738494653447623
13402501 40 18342460317863551690
13583140 156 18261681393805448343
14223421 5 18339364059155433307
14787075 74 18340763746058297142
14790565 3 17910661082172270660
14866123 147 16677245898921757266
14955137 171 18114169822801392478
16945 1 18050863117080789396
17349148 13 17631176286422482315
1813 80 16630518515099933127
19049666 15 18411987970380426953
19591789 44 18341330011378460823
20691752 17 17978803302407353109
20775438 99 17835287486452251383
20905425 154 18341609360341013903
21033648 29 17968956261142482961
23419403 2 17691448429775290788
23559900 14 18197501925066086766
2748010 2 18342189842451047453
335352 9 17911240834226826527
350125 39 18342171133816040381
35225 105 16021406364301866632
5104073 3 18342180015423404313
5265222 85 18196649593787406852
56638632 10 17533795805272106832
9709674 26 18341615983354612239

> <PUBCHEM_SHAPE_MULTIPOLES>
570.43
7.71
3.82
1.66
4.02
0.23
0.03
2.97
0.83
-0.24
1.02
-0.39
-0.65
1.97

> <PUBCHEM_SHAPE_SELFOVERLAP>
1229.49

> <PUBCHEM_SHAPE_VOLUME>
305.3

> <PUBCHEM_COORDINATE_TYPE>
2
5
10

$$$$

