439469
  -OEChem-07051212453D

 32 34  0     0  0  0  0  0  0999 V2000
    4.1678   -1.4596    2.2883 Cl  0  0  0  0  0  0  0  0  0  0  0  0
    4.2556    1.2577   -2.4212 Cl  0  0  0  0  0  0  0  0  0  0  0  0
   -3.5520   -2.6386   -0.9300 O   0  0  0  0  0  0  0  0  0  0  0  0
    5.3823   -0.4345   -0.2372 O   0  0  0  0  0  0  0  0  0  0  0  0
    0.0934    1.0734    0.5343 N   0  0  0  0  0  0  0  0  0  0  0  0
   -0.3852   -0.9799   -0.6956 C   0  0  0  0  0  0  0  0  0  0  0  0
   -1.2852   -2.1458   -0.3425 C   0  0  0  0  0  0  0  0  0  0  0  0
   -0.7949    0.2659    0.0520 C   0  0  0  0  0  0  0  0  0  0  0  0
   -2.2424    0.5483    0.1654 C   0  0  0  0  0  0  0  0  0  0  0  0
   -3.1792   -0.4396   -0.1613 C   0  0  0  0  0  0  0  0  0  0  0  0
   -2.7416   -1.8045   -0.5392 C   0  0  0  0  0  0  0  0  0  0  0  0
   -2.6783    1.8153    0.5704 C   0  0  0  0  0  0  0  0  0  0  0  0
   -4.5475   -0.1526   -0.0974 C   0  0  0  0  0  0  0  0  0  0  0  0
   -4.0440    2.0940    0.6372 C   0  0  0  0  0  0  0  0  0  0  0  0
   -4.9760    1.1139    0.3009 C   0  0  0  0  0  0  0  0  0  0  0  0
    1.4302    0.6918    0.3389 C   0  0  0  0  0  0  0  0  0  0  0  0
    2.1087    1.1070   -0.8034 C   0  0  0  0  0  0  0  0  0  0  0  0
    2.0701   -0.0991    1.2894 C   0  0  0  0  0  0  0  0  0  0  0  0
    3.3986   -0.4779    1.0958 C   0  0  0  0  0  0  0  0  0  0  0  0
    3.4372    0.7286   -0.9972 C   0  0  0  0  0  0  0  0  0  0  0  0
    4.0822   -0.0639   -0.0476 C   0  0  0  0  0  0  0  0  0  0  0  0
   -0.4701   -0.7520   -1.7666 H   0  0  0  0  0  0  0  0  0  0  0  0
    0.6338   -1.3249   -0.5268 H   0  0  0  0  0  0  0  0  0  0  0  0
   -1.1470   -2.4503    0.7012 H   0  0  0  0  0  0  0  0  0  0  0  0
   -1.0404   -2.9994   -0.9845 H   0  0  0  0  0  0  0  0  0  0  0  0
   -1.9743    2.6025    0.8261 H   0  0  0  0  0  0  0  0  0  0  0  0
   -5.2943   -0.9029   -0.3428 H   0  0  0  0  0  0  0  0  0  0  0  0
   -4.3813    3.0787    0.9478 H   0  0  0  0  0  0  0  0  0  0  0  0
   -6.0381    1.3352    0.3532 H   0  0  0  0  0  0  0  0  0  0  0  0
    1.6000    1.7257   -1.5395 H   0  0  0  0  0  0  0  0  0  0  0  0
    1.5311   -0.4177    2.1790 H   0  0  0  0  0  0  0  0  0  0  0  0
    5.6608   -0.9790    0.5193 H   0  0  0  0  0  0  0  0  0  0  0  0
  1 19  1  0  0  0  0
  2 20  1  0  0  0  0
  3 11  2  0  0  0  0
  4 21  1  0  0  0  0
  4 32  1  0  0  0  0
  5  8  2  0  0  0  0
  5 16  1  0  0  0  0
  6  7  1  0  0  0  0
  6  8  1  0  0  0  0
  6 22  1  0  0  0  0
  6 23  1  0  0  0  0
  7 11  1  0  0  0  0
  7 24  1  0  0  0  0
  7 25  1  0  0  0  0
  8  9  1  0  0  0  0
  9 10  1  0  0  0  0
  9 12  2  0  0  0  0
 10 11  1  0  0  0  0
 10 13  2  0  0  0  0
 12 14  1  0  0  0  0
 12 26  1  0  0  0  0
 13 15  1  0  0  0  0
 13 27  1  0  0  0  0
 14 15  2  0  0  0  0
 14 28  1  0  0  0  0
 15 29  1  0  0  0  0
 16 17  2  0  0  0  0
 16 18  1  0  0  0  0
 17 20  1  0  0  0  0
 17 30  1  0  0  0  0
 18 19  2  0  0  0  0
 18 31  1  0  0  0  0
 19 21  1  0  0  0  0
 20 21  2  0  0  0  0
M  END
> <PUBCHEM_COMPOUND_CID>
439469

> <PUBCHEM_CONFORMER_RMSD>
0.6

> <PUBCHEM_CONFORMER_DIVERSEORDER>
1

> <PUBCHEM_MMFF94_PARTIAL_CHARGES>
28
1 -0.18
10 0.09
11 0.42
12 -0.15
13 -0.15
14 -0.15
15 -0.15
16 0.18
17 -0.15
18 -0.15
19 0.18
2 -0.18
20 0.18
21 0.08
26 0.15
27 0.15
28 0.15
29 0.15
3 -0.57
30 0.15
31 0.15
32 0.45
4 -0.53
5 -0.63
6 0.06
7 0.06
8 0.3
9 0.09

> <PUBCHEM_EFFECTIVE_ROTOR_COUNT>
1.4

> <PUBCHEM_PHARMACOPHORE_FEATURES>
6
1 3 acceptor
1 4 donor
1 5 acceptor
6 16 17 18 19 20 21 rings
6 6 7 8 9 10 11 rings
6 9 10 12 13 14 15 rings

> <PUBCHEM_HEAVY_ATOM_COUNT>
21

> <PUBCHEM_ATOM_DEF_STEREO_COUNT>
0

> <PUBCHEM_ATOM_UDEF_STEREO_COUNT>
0

> <PUBCHEM_BOND_DEF_STEREO_COUNT>
0

> <PUBCHEM_BOND_UDEF_STEREO_COUNT>
0

> <PUBCHEM_ISOTOPIC_ATOM_COUNT>
0

> <PUBCHEM_COMPONENT_COUNT>
1

> <PUBCHEM_CACTVS_TAUTO_COUNT>
12

> <PUBCHEM_CONFORMER_ID>
0006B4AD00000001

> <PUBCHEM_MMFF94_ENERGY>
62.8235

> <PUBCHEM_FEATURE_SELFOVERLAP>
30.467

> <PUBCHEM_SHAPE_FINGERPRINT>
10062212 137 18412833481784252155
10366900 7 15285634379185001194
10616163 171 18335420140764010847
11796584 16 17968087673301726838
12107183 9 17411911960525463537
12236239 1 18272931631019316784
12346177 29 17894921702395749079
12390115 104 17750497655128114929
12616971 3 17846500326915581716
12633257 1 18186795873104254777
12788726 201 18053940654359241395
128620 24 11671781585007045770
13140716 1 18115872893735885905
13167823 11 18343863311933008978
13675066 3 17095810944557300512
13760787 19 18341889680081992742
13862211 1 18189060811787498247
14294032 229 18262795294270764605
14386348 63 17022616473034856580
14739800 52 18263374590384431424
15042514 8 18262519174901656415
15342168 16 16342557463209289780
15375358 24 17022912250115499880
15842332 3 18273498948785582074
16752209 62 18261679177275639711
17349148 13 18187372046897801597
17804303 29 18187085014449694201
17818456 19 18194687196642233760
1813 80 17630330968313232906
18186145 218 16128377047599057024
19422 9 18201723937694110522
20600515 1 17967824863504064992
20645477 70 16343710958354582784
20681677 155 18411698781700137386
21033648 29 16443355285884563698
21065201 7 17967531268176571422
23175994 123 16370999689988887281
23366157 5 18053656164631687983
23402539 116 18114189644355006029
23557571 272 17458341974545382208
23559900 14 17894627054939295396
23598291 2 18201436948253627172
2838139 119 17201938131461008717
3004659 81 18337946896537590246
312423 11 18202002092619026650
338550 245 18339361971817833830
4214541 1 18334295366016968545
474 4 17345461584211419548
495365 180 16515692186093945110
5104073 3 18335145241292047195
5281201 14 15698004071687897086
5385378 56 17898278644924580731
559249 180 18337391642558973110
573450 72 18409737261134747259
602551 16 18186809062737733130
6034566 193 15765522675647135748
633830 44 17489581264527199640
77492 1 18201721743087115416

> <PUBCHEM_SHAPE_MULTIPOLES>
419.19
11.08
2.13
1.55
1.73
0.65
0.06
-1.03
-0.06
-1.35
0.3
2.06
0.1
-3.24

> <PUBCHEM_SHAPE_SELFOVERLAP>
906.346

> <PUBCHEM_SHAPE_VOLUME>
231.7

> <PUBCHEM_COORDINATE_TYPE>
2
5
10

$$$$

