854297
  -OEChem-06241222473D

 22 22  0     0  0  0  0  0  0999 V2000
   -2.4271    0.9416   -0.0028 O   0  0  0  0  0  0  0  0  0  0  0  0
    1.9417    1.2574   -0.0002 N   0  0  0  0  0  0  0  0  0  0  0  0
   -0.8838   -0.8475    0.0005 N   0  0  0  0  0  0  0  0  0  0  0  0
    2.6065    0.0894   -0.0003 N   0  0  0  0  0  0  0  0  0  0  0  0
    0.3452   -0.2333    0.0001 C   0  0  0  0  0  0  0  0  0  0  0  0
    0.5847    1.1192    0.0003 C   0  0  0  0  0  0  0  0  0  0  0  0
    1.6260   -0.8176    0.0000 C   0  0  0  0  0  0  0  0  0  0  0  0
   -0.3157    2.2853    0.0014 C   0  0  0  0  0  0  0  0  0  0  0  0
    1.9659   -2.2519   -0.0004 C   0  0  0  0  0  0  0  0  0  0  0  0
   -2.1695   -0.2578    0.0005 C   0  0  0  0  0  0  0  0  0  0  0  0
   -3.2739   -1.2848    0.0009 C   0  0  0  0  0  0  0  0  0  0  0  0
    2.4818    2.1139   -0.0002 H   0  0  0  0  0  0  0  0  0  0  0  0
   -0.8469   -1.8643    0.0003 H   0  0  0  0  0  0  0  0  0  0  0  0
    0.2764    3.2103    0.0034 H   0  0  0  0  0  0  0  0  0  0  0  0
   -0.9165    2.3402   -0.9105 H   0  0  0  0  0  0  0  0  0  0  0  0
   -0.9180    2.3374    0.9125 H   0  0  0  0  0  0  0  0  0  0  0  0
    3.0487   -2.4158    0.0000 H   0  0  0  0  0  0  0  0  0  0  0  0
    1.5532   -2.7440    0.8864 H   0  0  0  0  0  0  0  0  0  0  0  0
    1.5539   -2.7434   -0.8879 H   0  0  0  0  0  0  0  0  0  0  0  0
   -3.2383   -1.8613   -0.9275 H   0  0  0  0  0  0  0  0  0  0  0  0
   -4.2444   -0.7866    0.0760 H   0  0  0  0  0  0  0  0  0  0  0  0
   -3.1544   -1.9584    0.8540 H   0  0  0  0  0  0  0  0  0  0  0  0
  1 10  2  0  0  0  0
  2  4  1  0  0  0  0
  2  6  1  0  0  0  0
  2 12  1  0  0  0  0
  3  5  1  0  0  0  0
  3 10  1  0  0  0  0
  3 13  1  0  0  0  0
  4  7  2  0  0  0  0
  5  6  2  0  0  0  0
  5  7  1  0  0  0  0
  6  8  1  0  0  0  0
  7  9  1  0  0  0  0
  8 14  1  0  0  0  0
  8 15  1  0  0  0  0
  8 16  1  0  0  0  0
  9 17  1  0  0  0  0
  9 18  1  0  0  0  0
  9 19  1  0  0  0  0
 10 11  1  0  0  0  0
 11 20  1  0  0  0  0
 11 21  1  0  0  0  0
 11 22  1  0  0  0  0
M  END
> <PUBCHEM_COMPOUND_CID>
854297

> <PUBCHEM_CONFORMER_RMSD>
0.4

> <PUBCHEM_CONFORMER_DIVERSEORDER>
1
2

> <PUBCHEM_MMFF94_PARTIAL_CHARGES>
13
1 -0.57
10 0.57
11 0.06
12 0.27
13 0.37
2 0.3
3 -0.49
4 -0.71
5 0.06
6 -0.33
7 0.11
8 0.18
9 0.18

> <PUBCHEM_EFFECTIVE_ROTOR_COUNT>
2

> <PUBCHEM_PHARMACOPHORE_FEATURES>
5
1 1 acceptor
1 2 donor
1 3 donor
1 4 acceptor
5 2 4 5 6 7 rings

> <PUBCHEM_HEAVY_ATOM_COUNT>
11

> <PUBCHEM_ATOM_DEF_STEREO_COUNT>
0

> <PUBCHEM_ATOM_UDEF_STEREO_COUNT>
0

> <PUBCHEM_BOND_DEF_STEREO_COUNT>
0

> <PUBCHEM_BOND_UDEF_STEREO_COUNT>
0

> <PUBCHEM_ISOTOPIC_ATOM_COUNT>
0

> <PUBCHEM_COMPONENT_COUNT>
1

> <PUBCHEM_CACTVS_TAUTO_COUNT>
2

> <PUBCHEM_CONFORMER_ID>
000D091900000001

> <PUBCHEM_MMFF94_ENERGY>
21.4494

> <PUBCHEM_FEATURE_SELFOVERLAP>
25.371

> <PUBCHEM_SHAPE_FINGERPRINT>
12932764 1 17530971250231156259
161256 15 18335982055898786948
16945 1 18410856512426862788
17990270 104 18411700997476227803
193761 8 18194401323692585380
19973954 147 18411135861642753237
20201158 50 18342459197146229531
20645477 70 18410017628664562623
20871998 22 18190456250160519726
21040471 1 17906170646930079680
23552423 10 18271519900732937774
2748010 2 18410295847459294679
29004967 10 18412824668384428890

> <PUBCHEM_SHAPE_MULTIPOLES>
205.56
4.12
2.22
0.58
2.27
0.25
0
-1.69
0
-0.48
0
0.01
-0.01
0

> <PUBCHEM_SHAPE_SELFOVERLAP>
420.133

> <PUBCHEM_SHAPE_VOLUME>
119.8

> <PUBCHEM_COORDINATE_TYPE>
2
5
10

$$$$

