46173800
  -OEChem-07051213032D

 63 65  0     1  0  0  0  0  0999 V2000
    6.0010    0.9520    0.0000 P   0  0  3  0  0  0  0  0  0  0  0  0
    6.8671   -0.5480    0.0000 P   0  0  3  0  0  0  0  0  0  0  0  0
    4.2690    1.9520    0.0000 O   0  0  0  0  0  0  0  0  0  0  0  0
    9.5127   -2.1412    0.0000 O   0  0  0  0  0  0  0  0  0  0  0  0
    4.7690    4.8181    0.0000 O   0  0  0  0  0  0  0  0  0  0  0  0
    2.5369    3.9520    0.0000 O   0  0  0  0  0  0  0  0  0  0  0  0
    6.0010    1.9520    0.0000 O   0  0  0  0  0  0  0  0  0  0  0  0
    7.9605   -4.2116    0.0000 O   0  0  0  0  0  0  0  0  0  0  0  0
    7.7331   -1.0480    0.0000 O   0  0  0  0  0  0  0  0  0  0  0  0
    6.0010   -0.0480    0.0000 O   0  0  0  0  0  0  0  0  0  0  0  0
    7.0010    0.9520    0.0000 O   0  0  0  0  0  0  0  0  0  0  0  0
    5.0010    0.9520    0.0000 O   0  0  0  0  0  0  0  0  0  0  0  0
   11.3574   -4.5024    0.0000 O   0  0  0  0  0  0  0  0  0  0  0  0
    6.3671   -1.4140    0.0000 O   0  0  0  0  0  0  0  0  0  0  0  0
    7.3671    0.3181    0.0000 O   0  0  0  0  0  0  0  0  0  0  0  0
   14.1599   -2.4662    0.0000 O   0  0  0  0  0  0  0  0  0  0  0  0
   11.1763   -2.7798    0.0000 N   0  0  0  0  0  0  0  0  0  0  0  0
   12.7586   -3.4843    0.0000 N   0  0  0  0  0  0  0  0  0  0  0  0
    4.2690    3.9520    0.0000 C   0  0  2  0  0  0  0  0  0  0  0  0
    3.4030    3.4520    0.0000 C   0  0  1  0  0  0  0  0  0  0  0  0
    5.1350    3.4520    0.0000 C   0  0  0  0  0  0  0  0  0  0  0  0
    3.4030    2.4520    0.0000 C   0  0  1  0  0  0  0  0  0  0  0  0
    5.1350    2.4520    0.0000 C   0  0  2  0  0  0  0  0  0  0  0  0
    8.7036   -3.5425    0.0000 C   0  0  2  0  0  0  0  0  0  0  0  0
    8.5991   -2.5480    0.0000 C   0  0  1  0  0  0  0  0  0  0  0  0
    9.6818   -3.7504    0.0000 C   0  0  0  0  0  0  0  0  0  0  0  0
   10.1818   -2.8844    0.0000 C   0  0  1  0  0  0  0  0  0  0  0  0
    3.7690    4.8181    0.0000 C   0  0  0  0  0  0  0  0  0  0  0  0
    2.5369    1.9520    0.0000 C   0  0  0  0  0  0  0  0  0  0  0  0
    7.7331   -2.0480    0.0000 C   0  0  0  0  0  0  0  0  0  0  0  0
   11.5830   -1.8663    0.0000 C   0  0  0  0  0  0  0  0  0  0  0  0
   11.7641   -3.5889    0.0000 C   0  0  0  0  0  0  0  0  0  0  0  0
   12.5776   -1.7618    0.0000 C   0  0  0  0  0  0  0  0  0  0  0  0
   13.1654   -2.5708    0.0000 C   0  0  0  0  0  0  0  0  0  0  0  0
   12.9843   -0.8482    0.0000 C   0  0  0  0  0  0  0  0  0  0  0  0
    3.4030    4.0720    0.0000 H   0  0  0  0  0  0  0  0  0  0  0  0
    5.7456    3.3444    0.0000 H   0  0  0  0  0  0  0  0  0  0  0  0
    5.3471    4.0346    0.0000 H   0  0  0  0  0  0  0  0  0  0  0  0
    3.4030    1.8320    0.0000 H   0  0  0  0  0  0  0  0  0  0  0  0
    5.1350    1.8320    0.0000 H   0  0  0  0  0  0  0  0  0  0  0  0
    8.1248   -3.3203    0.0000 H   0  0  0  0  0  0  0  0  0  0  0  0
    8.6316   -1.9288    0.0000 H   0  0  0  0  0  0  0  0  0  0  0  0
    9.4902   -4.3400    0.0000 H   0  0  0  0  0  0  0  0  0  0  0  0
   10.2482   -4.0026    0.0000 H   0  0  0  0  0  0  0  0  0  0  0  0
   10.5195   -3.4043    0.0000 H   0  0  0  0  0  0  0  0  0  0  0  0
    4.3059    5.1281    0.0000 H   0  0  0  0  0  0  0  0  0  0  0  0
    3.4590    5.3550    0.0000 H   0  0  0  0  0  0  0  0  0  0  0  0
    3.2320    4.5081    0.0000 H   0  0  0  0  0  0  0  0  0  0  0  0
    2.2269    2.4890    0.0000 H   0  0  0  0  0  0  0  0  0  0  0  0
    2.0000    1.6420    0.0000 H   0  0  0  0  0  0  0  0  0  0  0  0
    2.8469    1.4151    0.0000 H   0  0  0  0  0  0  0  0  0  0  0  0
    7.1225   -1.9403    0.0000 H   0  0  0  0  0  0  0  0  0  0  0  0
    7.5210   -2.6306    0.0000 H   0  0  0  0  0  0  0  0  0  0  0  0
    5.3890    4.8181    0.0000 H   0  0  0  0  0  0  0  0  0  0  0  0
    2.0000    3.6420    0.0000 H   0  0  0  0  0  0  0  0  0  0  0  0
    8.0894   -4.8181    0.0000 H   0  0  0  0  0  0  0  0  0  0  0  0
   11.2186   -1.3647    0.0000 H   0  0  0  0  0  0  0  0  0  0  0  0
   13.1230   -3.9859    0.0000 H   0  0  0  0  0  0  0  0  0  0  0  0
   13.5507   -1.1004    0.0000 H   0  0  0  0  0  0  0  0  0  0  0  0
   13.2365   -0.2818    0.0000 H   0  0  0  0  0  0  0  0  0  0  0  0
   12.4179   -0.5960    0.0000 H   0  0  0  0  0  0  0  0  0  0  0  0
    7.3110    1.4890    0.0000 H   0  0  0  0  0  0  0  0  0  0  0  0
    5.7471   -1.4140    0.0000 H   0  0  0  0  0  0  0  0  0  0  0  0
  1  7  1  0  0  0  0
  1 10  1  0  0  0  0
  1 11  1  0  0  0  0
  1 12  2  0  0  0  0
  2  9  1  0  0  0  0
  2 10  1  0  0  0  0
  2 14  1  0  0  0  0
  2 15  2  0  0  0  0
  3 22  1  0  0  0  0
  3 23  1  0  0  0  0
  4 25  1  0  0  0  0
  4 27  1  0  0  0  0
 19  5  1  1  0  0  0
  5 54  1  0  0  0  0
 20  6  1  1  0  0  0
  6 55  1  0  0  0  0
 23  7  1  1  0  0  0
 24  8  1  6  0  0  0
  8 56  1  0  0  0  0
  9 30  1  0  0  0  0
 11 62  1  0  0  0  0
 13 32  2  0  0  0  0
 14 63  1  0  0  0  0
 16 34  2  0  0  0  0
 27 17  1  1  0  0  0
 17 31  1  0  0  0  0
 17 32  1  0  0  0  0
 18 32  1  0  0  0  0
 18 34  1  0  0  0  0
 18 58  1  0  0  0  0
 19 20  1  0  0  0  0
 19 21  1  0  0  0  0
 19 28  1  0  0  0  0
 20 22  1  0  0  0  0
 20 36  1  0  0  0  0
 21 23  1  0  0  0  0
 21 37  1  0  0  0  0
 21 38  1  0  0  0  0
 22 29  1  6  0  0  0
 22 39  1  0  0  0  0
 23 40  1  0  0  0  0
 24 25  1  0  0  0  0
 24 26  1  0  0  0  0
 24 41  1  0  0  0  0
 25 30  1  1  0  0  0
 25 42  1  0  0  0  0
 26 27  1  0  0  0  0
 26 43  1  0  0  0  0
 26 44  1  0  0  0  0
 27 45  1  0  0  0  0
 28 46  1  0  0  0  0
 28 47  1  0  0  0  0
 28 48  1  0  0  0  0
 29 49  1  0  0  0  0
 29 50  1  0  0  0  0
 29 51  1  0  0  0  0
 30 52  1  0  0  0  0
 30 53  1  0  0  0  0
 31 33  2  0  0  0  0
 31 57  1  0  0  0  0
 33 34  1  0  0  0  0
 33 35  1  0  0  0  0
 35 59  1  0  0  0  0
 35 60  1  0  0  0  0
 35 61  1  0  0  0  0
M  END
> <PUBCHEM_COMPOUND_CID>
46173800

> <PUBCHEM_COMPOUND_CANONICALIZED>
1

> <PUBCHEM_CACTVS_COMPLEXITY>
976

> <PUBCHEM_CACTVS_HBOND_ACCEPTOR>
14

> <PUBCHEM_CACTVS_HBOND_DONOR>
6

> <PUBCHEM_CACTVS_ROTATABLE_BOND>
8

> <PUBCHEM_CACTVS_SUBSKEYS>
AAADceB7PAMAAAAAAAAAAAAAAAAAASAAAAAkQAAAAAAAAAAAAAAAHgAQCCAADFTxgAcDCAPABxCIQgFWUICAAAAAAAAAAAEIAECREAIAgQAOQAAPByIHAMHwcAYOAAAAAAAAAAAAAAAAAAAAAAAAAAAAAA==

> <PUBCHEM_IUPAC_OPENEYE_NAME>
[(2R,4S,5R,6R)-4,5-dihydroxy-4,6-dimethyl-tetrahydropyran-2-yl] [hydroxy-[[(2R,3S,5R)-3-hydroxy-5-(5-methyl-2,4-dioxo-pyrimidin-1-yl)tetrahydrofuran-2-yl]methoxy]phosphoryl] hydrogen phosphate

> <PUBCHEM_IUPAC_CAS_NAME>
[(2R,4S,5R,6R)-4,5-dihydroxy-4,6-dimethyl-2-oxanyl] [hydroxy-[[(2R,3S,5R)-3-hydroxy-5-(5-methyl-2,4-dioxo-1-pyrimidinyl)-2-oxolanyl]methoxy]phosphoryl] hydrogen phosphate

> <PUBCHEM_IUPAC_NAME>
[(2R,4S,5R,6R)-4,5-dihydroxy-4,6-dimethyloxan-2-yl] [hydroxy-[[(2R,3S,5R)-3-hydroxy-5-(5-methyl-2,4-dioxopyrimidin-1-yl)oxolan-2-yl]methoxy]phosphoryl] hydrogen phosphate

> <PUBCHEM_IUPAC_SYSTEMATIC_NAME>
[(2R,4S,5R,6R)-4,6-dimethyl-4,5-bis(oxidanyl)oxan-2-yl] [[(2R,3S,5R)-5-[5-methyl-2,4-bis(oxidanylidene)pyrimidin-1-yl]-3-oxidanyl-oxolan-2-yl]methoxy-oxidanyl-phosphoryl] hydrogen phosphate

> <PUBCHEM_IUPAC_TRADITIONAL_NAME>
[(2R,4S,5R,6R)-4,5-dihydroxy-4,6-dimethyl-tetrahydropyran-2-yl] [[(2R,3S,5R)-5-(2,4-diketo-5-methyl-pyrimidin-1-yl)-3-hydroxy-tetrahydrofuran-2-yl]methoxy-hydroxy-phosphoryl] hydrogen phosphate

> <PUBCHEM_IUPAC_INCHI>
InChI=1S/C17H28N2O14P2/c1-8-6-19(16(23)18-15(8)22)12-4-10(20)11(31-12)7-29-34(25,26)33-35(27,28)32-13-5-17(3,24)14(21)9(2)30-13/h6,9-14,20-21,24H,4-5,7H2,1-3H3,(H,25,26)(H,27,28)(H,18,22,23)/t9-,10+,11-,12-,13-,14-,17+/m1/s1

> <PUBCHEM_IUPAC_INCHIKEY>
WILFWCJMOXHLEQ-RUJHFGLSSA-N

> <PUBCHEM_XLOGP3_AA>
-3.6

> <PUBCHEM_EXACT_MASS>
546.101577

> <PUBCHEM_MOLECULAR_FORMULA>
C17H28N2O14P2

> <PUBCHEM_MOLECULAR_WEIGHT>
546.356744

> <PUBCHEM_OPENEYE_CAN_SMILES>
CC1C(C(CC(O1)OP(=O)(O)OP(=O)(O)OCC2C(CC(O2)N3C=C(C(=O)NC3=O)C)O)(C)O)O

> <PUBCHEM_OPENEYE_ISO_SMILES>
C[C@@H]1[C@H]([C@@](C[C@H](O1)OP(=O)(O)OP(=O)(O)OC[C@@H]2[C@H](C[C@@H](O2)N3C=C(C(=O)NC3=O)C)O)(C)O)O

> <PUBCHEM_CACTVS_TPSA>
231

> <PUBCHEM_MONOISOTOPIC_WEIGHT>
546.101577

> <PUBCHEM_TOTAL_CHARGE>
0

> <PUBCHEM_HEAVY_ATOM_COUNT>
35

> <PUBCHEM_ATOM_DEF_STEREO_COUNT>
7

> <PUBCHEM_ATOM_UDEF_STEREO_COUNT>
0

> <PUBCHEM_BOND_DEF_STEREO_COUNT>
0

> <PUBCHEM_BOND_UDEF_STEREO_COUNT>
0

> <PUBCHEM_ISOTOPIC_ATOM_COUNT>
0

> <PUBCHEM_COMPONENT_COUNT>
1

> <PUBCHEM_CACTVS_TAUTO_COUNT>
3

> <PUBCHEM_COORDINATE_TYPE>
1
5
255

> <PUBCHEM_BONDANNOTATIONS>
27  17  5
17  31  8
17  32  8
18  32  8
18  34  8
22  29  6
25  30  5
31  33  8
33  34  8
19  5  5
20  6  5
23  7  5
24  8  6

$$$$

