9271
  -OEChem-07051213132D

 22 24  0     1  0  0  0  0  0999 V2000
    5.6894   -1.0797    0.0000 Cl  0  0  0  0  0  0  0  0  0  0  0  0
    6.4658    1.8181    0.0000 Cl  0  0  0  0  0  0  0  0  0  0  0  0
    4.5568    2.2415    0.0000 Cl  0  0  0  0  0  0  0  0  0  0  0  0
    5.5749    2.8293    0.0000 Cl  0  0  0  0  0  0  0  0  0  0  0  0
    3.7552   -2.8293    0.0000 Cl  0  0  0  0  0  0  0  0  0  0  0  0
    2.0000    0.2109    0.0000 Cl  0  0  0  0  0  0  0  0  0  0  0  0
    8.2801   -1.7386    0.0000 Cl  0  0  0  0  0  0  0  0  0  0  0  0
    8.9050    0.5933    0.0000 Cl  0  0  0  0  0  0  0  0  0  0  0  0
    2.6412   -1.4457    0.0000 O   0  0  0  0  0  0  0  0  0  0  0  0
    3.7161   -0.2477    0.0000 C   0  0  3  0  0  0  0  0  0  0  0  0
    4.2161   -1.1138    0.0000 C   0  0  3  0  0  0  0  0  0  0  0  0
    5.9482   -0.1138    0.0000 C   0  0  3  0  0  0  0  0  0  0  0  0
    6.2070    0.8522    0.0000 C   0  0  3  0  0  0  0  0  0  0  0  0
    5.4704    1.8348    0.0000 C   0  0  0  0  0  0  0  0  0  0  0  0
    3.5490   -1.8508    0.0000 C   0  0  3  0  0  0  0  0  0  0  0  0
    2.7443   -0.4569    0.0000 C   0  0  3  0  0  0  0  0  0  0  0  0
    7.7801   -0.8726    0.0000 C   0  0  0  0  0  0  0  0  0  0  0  0
    8.0389    0.0933    0.0000 C   0  0  0  0  0  0  0  0  0  0  0  0
    4.6057   -1.5961    0.0000 H   0  0  0  0  0  0  0  0  0  0  0  0
    3.5247    0.3420    0.0000 H   0  0  0  0  0  0  0  0  0  0  0  0
    3.0667   -2.2403    0.0000 H   0  0  0  0  0  0  0  0  0  0  0  0
    2.1658   -0.6799    0.0000 H   0  0  0  0  0  0  0  0  0  0  0  0
  1 12  1  0  0  0  0
  2 13  1  0  0  0  0
  3 14  1  0  0  0  0
  4 14  1  0  0  0  0
  5 15  1  0  0  0  0
  6 16  1  0  0  0  0
  7 17  1  0  0  0  0
  8 18  1  0  0  0  0
  9 15  1  0  0  0  0
  9 16  1  0  0  0  0
 10 11  1  0  0  0  0
 10 13  1  0  0  0  0
 10 16  1  0  0  0  0
 10 20  1  0  0  0  0
 11 12  1  0  0  0  0
 11 15  1  0  0  0  0
 11 19  1  0  0  0  0
 12 14  1  0  0  0  0
 12 17  1  0  0  0  0
 13 14  1  0  0  0  0
 13 18  1  0  0  0  0
 15 21  1  0  0  0  0
 16 22  1  0  0  0  0
 17 18  2  0  0  0  0
M  END
> <PUBCHEM_COMPOUND_CID>
9271

> <PUBCHEM_COMPOUND_CANONICALIZED>
1

> <PUBCHEM_CACTVS_COMPLEXITY>
426

> <PUBCHEM_CACTVS_HBOND_ACCEPTOR>
1

> <PUBCHEM_CACTVS_HBOND_DONOR>
0

> <PUBCHEM_CACTVS_ROTATABLE_BOND>
0

> <PUBCHEM_CACTVS_SUBSKEYS>
AAADcYBwIAAHgAAAAAAAAAAAAAAAAaIEAAAgAAAAAAASAAAAAAAAGgIAAAAADQOggMIAAAAABACAAABAAAAAAAAgAAAACEAAAggAAAIBAAACAAAEgAAIAAOAwDAOgAAAAAAAAAAAAAAAAAAAARAASIACAA==

> <PUBCHEM_IUPAC_INCHI>
InChI=1S/C9H4Cl8O/c10-3-4(11)8(15)2-1(5(12)18-6(2)13)7(3,14)9(8,16)17/h1-2,5-6H

> <PUBCHEM_IUPAC_INCHIKEY>
LRWHHSXTGZSMSN-UHFFFAOYSA-N

> <PUBCHEM_XLOGP3_AA>
4.6

> <PUBCHEM_EXACT_MASS>
411.771136

> <PUBCHEM_MOLECULAR_FORMULA>
C9H4Cl8O

> <PUBCHEM_MOLECULAR_WEIGHT>
411.75146

> <PUBCHEM_OPENEYE_CAN_SMILES>
C12C(C(OC1Cl)Cl)C3(C(=C(C2(C3(Cl)Cl)Cl)Cl)Cl)Cl

> <PUBCHEM_OPENEYE_ISO_SMILES>
C12C(C(OC1Cl)Cl)C3(C(=C(C2(C3(Cl)Cl)Cl)Cl)Cl)Cl

> <PUBCHEM_CACTVS_TPSA>
9.2

> <PUBCHEM_MONOISOTOPIC_WEIGHT>
407.777036

> <PUBCHEM_TOTAL_CHARGE>
0

> <PUBCHEM_HEAVY_ATOM_COUNT>
18

> <PUBCHEM_ATOM_DEF_STEREO_COUNT>
0

> <PUBCHEM_ATOM_UDEF_STEREO_COUNT>
6

> <PUBCHEM_BOND_DEF_STEREO_COUNT>
0

> <PUBCHEM_BOND_UDEF_STEREO_COUNT>
0

> <PUBCHEM_ISOTOPIC_ATOM_COUNT>
0

> <PUBCHEM_COMPONENT_COUNT>
1

> <PUBCHEM_CACTVS_TAUTO_COUNT>
1

> <PUBCHEM_COORDINATE_TYPE>
1
5
255

> <PUBCHEM_BONDANNOTATIONS>
12  1  3
10  16  3
11  15  3
13  2  3
15  5  3
16  6  3

$$$$

