5282077
  -OEChem-07051213022D

 72 73  0     1  0  0  0  0  0999 V2000
    7.1962    0.1754    0.0000 O   0  0  0  0  0  0  0  0  0  0  0  0
    6.3301    1.6754    0.0000 O   0  0  0  0  0  0  0  0  0  0  0  0
    8.9282   -2.8246    0.0000 O   0  0  0  0  0  0  0  0  0  0  0  0
    8.9282   -5.8246    0.0000 O   0  0  0  0  0  0  0  0  0  0  0  0
   10.6766   -5.8592    0.0000 O   0  0  0  0  0  0  0  0  0  0  0  0
   12.4583   -2.8005    0.0000 O   0  0  0  0  0  0  0  0  0  0  0  0
    6.3301   -0.3246    0.0000 C   0  0  1  0  0  0  0  0  0  0  0  0
    6.3301   -1.3246    0.0000 C   0  0  2  0  0  0  0  0  0  0  0  0
    5.4641    0.1754    0.0000 C   0  0  1  0  0  0  0  0  0  0  0  0
    7.1962   -1.8246    0.0000 C   0  0  0  0  0  0  0  0  0  0  0  0
    5.4641    1.1754    0.0000 C   0  0  2  0  0  0  0  0  0  0  0  0
    5.4641   -1.8246    0.0000 C   0  0  0  0  0  0  0  0  0  0  0  0
    4.5981   -0.3246    0.0000 C   0  0  0  0  0  0  0  0  0  0  0  0
    7.1962   -2.8246    0.0000 C   0  0  0  0  0  0  0  0  0  0  0  0
    8.0622   -3.3246    0.0000 C   0  0  0  0  0  0  0  0  0  0  0  0
    4.5981    1.6754    0.0000 C   0  0  0  0  0  0  0  0  0  0  0  0
    7.1962    1.1754    0.0000 C   0  0  0  0  0  0  0  0  0  0  0  0
    8.0622   -4.3246    0.0000 C   0  0  0  0  0  0  0  0  0  0  0  0
    4.5981    2.6754    0.0000 C   0  0  0  0  0  0  0  0  0  0  0  0
    6.3301    2.6754    0.0000 C   0  0  0  0  0  0  0  0  0  0  0  0
    8.9282   -4.8246    0.0000 C   0  0  0  0  0  0  0  0  0  0  0  0
    9.7942   -3.3246    0.0000 C   0  0  0  0  0  0  0  0  0  0  0  0
    9.7942   -4.3246    0.0000 C   0  0  0  0  0  0  0  0  0  0  0  0
    7.1962   -4.8246    0.0000 C   0  0  0  0  0  0  0  0  0  0  0  0
    3.7320    3.1754    0.0000 C   0  0  0  0  0  0  0  0  0  0  0  0
   10.6882   -2.7900    0.0000 C   0  0  0  0  0  0  0  0  0  0  0  0
   10.6882   -4.8593    0.0000 C   0  0  0  0  0  0  0  0  0  0  0  0
   11.5942   -3.3038    0.0000 C   0  0  0  0  0  0  0  0  0  0  0  0
   11.5942   -4.3454    0.0000 C   0  0  0  0  0  0  0  0  0  0  0  0
    3.7320    4.1754    0.0000 C   0  0  0  0  0  0  0  0  0  0  0  0
    2.8660    4.6754    0.0000 C   0  0  0  0  0  0  0  0  0  0  0  0
    2.0000    4.1754    0.0000 C   0  0  0  0  0  0  0  0  0  0  0  0
    2.8660    5.6754    0.0000 C   0  0  0  0  0  0  0  0  0  0  0  0
    2.0000    6.1754    0.0000 C   0  0  0  0  0  0  0  0  0  0  0  0
    6.8671   -0.6346    0.0000 H   0  0  0  0  0  0  0  0  0  0  0  0
    5.7932   -1.0146    0.0000 H   0  0  0  0  0  0  0  0  0  0  0  0
    5.4641   -0.4446    0.0000 H   0  0  0  0  0  0  0  0  0  0  0  0
    7.8067   -1.9323    0.0000 H   0  0  0  0  0  0  0  0  0  0  0  0
    7.4082   -1.2420    0.0000 H   0  0  0  0  0  0  0  0  0  0  0  0
    5.4641    1.7954    0.0000 H   0  0  0  0  0  0  0  0  0  0  0  0
    5.1541   -1.2877    0.0000 H   0  0  0  0  0  0  0  0  0  0  0  0
    4.9272   -2.1346    0.0000 H   0  0  0  0  0  0  0  0  0  0  0  0
    5.7741   -2.3615    0.0000 H   0  0  0  0  0  0  0  0  0  0  0  0
    4.2881    0.2123    0.0000 H   0  0  0  0  0  0  0  0  0  0  0  0
    4.0611   -0.6346    0.0000 H   0  0  0  0  0  0  0  0  0  0  0  0
    4.9081   -0.8615    0.0000 H   0  0  0  0  0  0  0  0  0  0  0  0
    6.5856   -2.7170    0.0000 H   0  0  0  0  0  0  0  0  0  0  0  0
    6.9841   -3.4072    0.0000 H   0  0  0  0  0  0  0  0  0  0  0  0
    4.0611    1.3654    0.0000 H   0  0  0  0  0  0  0  0  0  0  0  0
    7.8162    1.1754    0.0000 H   0  0  0  0  0  0  0  0  0  0  0  0
    7.1962    1.7954    0.0000 H   0  0  0  0  0  0  0  0  0  0  0  0
    6.5762    1.1754    0.0000 H   0  0  0  0  0  0  0  0  0  0  0  0
    5.1350    2.9854    0.0000 H   0  0  0  0  0  0  0  0  0  0  0  0
    6.9501    2.6754    0.0000 H   0  0  0  0  0  0  0  0  0  0  0  0
    6.3301    3.2954    0.0000 H   0  0  0  0  0  0  0  0  0  0  0  0
    5.7101    2.6754    0.0000 H   0  0  0  0  0  0  0  0  0  0  0  0
    6.8862   -4.2877    0.0000 H   0  0  0  0  0  0  0  0  0  0  0  0
    6.6592   -5.1346    0.0000 H   0  0  0  0  0  0  0  0  0  0  0  0
    7.5062   -5.3615    0.0000 H   0  0  0  0  0  0  0  0  0  0  0  0
    3.1951    2.8654    0.0000 H   0  0  0  0  0  0  0  0  0  0  0  0
   10.6810   -2.1700    0.0000 H   0  0  0  0  0  0  0  0  0  0  0  0
   12.1300   -4.6575    0.0000 H   0  0  0  0  0  0  0  0  0  0  0  0
    4.2690    4.4854    0.0000 H   0  0  0  0  0  0  0  0  0  0  0  0
   11.2099   -6.1754    0.0000 H   0  0  0  0  0  0  0  0  0  0  0  0
   12.9965   -3.1084    0.0000 H   0  0  0  0  0  0  0  0  0  0  0  0
    1.6900    4.7123    0.0000 H   0  0  0  0  0  0  0  0  0  0  0  0
    1.4631    3.8654    0.0000 H   0  0  0  0  0  0  0  0  0  0  0  0
    2.3100    3.6385    0.0000 H   0  0  0  0  0  0  0  0  0  0  0  0
    3.4030    5.9854    0.0000 H   0  0  0  0  0  0  0  0  0  0  0  0
    2.3100    6.7123    0.0000 H   0  0  0  0  0  0  0  0  0  0  0  0
    1.4631    6.4854    0.0000 H   0  0  0  0  0  0  0  0  0  0  0  0
    1.6900    5.6385    0.0000 H   0  0  0  0  0  0  0  0  0  0  0  0
  7  1  1  1  0  0  0
  1 17  1  0  0  0  0
 11  2  1  6  0  0  0
  2 20  1  0  0  0  0
  3 15  1  0  0  0  0
  3 22  1  0  0  0  0
  4 21  2  0  0  0  0
  5 27  1  0  0  0  0
  5 64  1  0  0  0  0
  6 28  1  0  0  0  0
  6 65  1  0  0  0  0
  7  8  1  0  0  0  0
  7  9  1  0  0  0  0
  7 35  1  0  0  0  0
  8 10  1  0  0  0  0
  8 12  1  6  0  0  0
  8 36  1  0  0  0  0
  9 11  1  0  0  0  0
  9 13  1  6  0  0  0
  9 37  1  0  0  0  0
 10 14  1  0  0  0  0
 10 38  1  0  0  0  0
 10 39  1  0  0  0  0
 11 16  1  0  0  0  0
 11 40  1  0  0  0  0
 12 41  1  0  0  0  0
 12 42  1  0  0  0  0
 12 43  1  0  0  0  0
 13 44  1  0  0  0  0
 13 45  1  0  0  0  0
 13 46  1  0  0  0  0
 14 15  1  0  0  0  0
 14 47  1  0  0  0  0
 14 48  1  0  0  0  0
 15 18  2  0  0  0  0
 16 19  2  0  0  0  0
 16 49  1  0  0  0  0
 17 50  1  0  0  0  0
 17 51  1  0  0  0  0
 17 52  1  0  0  0  0
 18 21  1  0  0  0  0
 18 24  1  0  0  0  0
 19 25  1  0  0  0  0
 19 53  1  0  0  0  0
 20 54  1  0  0  0  0
 20 55  1  0  0  0  0
 20 56  1  0  0  0  0
 21 23  1  0  0  0  0
 22 23  1  0  0  0  0
 22 26  2  0  0  0  0
 23 27  2  0  0  0  0
 24 57  1  0  0  0  0
 24 58  1  0  0  0  0
 24 59  1  0  0  0  0
 25 30  2  0  0  0  0
 25 60  1  0  0  0  0
 26 28  1  0  0  0  0
 26 61  1  0  0  0  0
 27 29  1  0  0  0  0
 28 29  2  0  0  0  0
 29 62  1  0  0  0  0
 30 31  1  0  0  0  0
 30 63  1  0  0  0  0
 31 32  1  0  0  0  0
 31 33  2  0  0  0  0
 32 66  1  0  0  0  0
 32 67  1  0  0  0  0
 32 68  1  0  0  0  0
 33 34  1  0  0  0  0
 33 69  1  0  0  0  0
 34 70  1  0  0  0  0
 34 71  1  0  0  0  0
 34 72  1  0  0  0  0
M  END
> <PUBCHEM_COMPOUND_CID>
5282077

> <PUBCHEM_COMPOUND_CANONICALIZED>
1

> <PUBCHEM_CACTVS_COMPLEXITY>
795

> <PUBCHEM_CACTVS_HBOND_ACCEPTOR>
6

> <PUBCHEM_CACTVS_HBOND_DONOR>
2

> <PUBCHEM_CACTVS_ROTATABLE_BOND>
11

> <PUBCHEM_CACTVS_SUBSKEYS>
AAADcfB4OAAAAAAAAAAAAAAAAAAAAAAAAAAwQAAAAAAAAACBAAAAGgAACAAADRSgmAIyBoAABgCIAqBSAAACCAAkIAAIiAEGCMgMJzaGNRqCeWCl4BUIuQeI7OzOIAAACAAIAABAAAAQABAAAAAAAAAAAA==

> <PUBCHEM_IUPAC_OPENEYE_NAME>
2-[(3S,4S,5S,6S,7E,9E,11E)-4,6-dimethoxy-3,5,11-trimethyl-trideca-7,9,11-trienyl]-5,7-dihydroxy-3-methyl-chromen-4-one

> <PUBCHEM_IUPAC_CAS_NAME>
2-[(3S,4S,5S,6S,7E,9E,11E)-4,6-dimethoxy-3,5,11-trimethyltrideca-7,9,11-trienyl]-5,7-dihydroxy-3-methyl-1-benzopyran-4-one

> <PUBCHEM_IUPAC_NAME>
2-[(3S,4S,5S,6S,7E,9E,11E)-4,6-dimethoxy-3,5,11-trimethyltrideca-7,9,11-trienyl]-5,7-dihydroxy-3-methylchromen-4-one

> <PUBCHEM_IUPAC_SYSTEMATIC_NAME>
2-[(3S,4S,5S,6S,7E,9E,11E)-4,6-dimethoxy-3,5,11-trimethyl-trideca-7,9,11-trienyl]-3-methyl-5,7-bis(oxidanyl)chromen-4-one

> <PUBCHEM_IUPAC_TRADITIONAL_NAME>
2-[(3S,4S,5S,6S,7E,9E,11E)-4,6-dimethoxy-3,5,11-trimethyl-trideca-7,9,11-trienyl]-5,7-dihydroxy-3-methyl-chromone

> <PUBCHEM_IUPAC_INCHI>
InChI=1S/C28H38O6/c1-8-17(2)11-9-10-12-23(32-6)20(5)28(33-7)18(3)13-14-24-19(4)27(31)26-22(30)15-21(29)16-25(26)34-24/h8-12,15-16,18,20,23,28-30H,13-14H2,1-7H3/b11-9+,12-10+,17-8+/t18-,20+,23-,28-/m0/s1

> <PUBCHEM_IUPAC_INCHIKEY>
BPELVOOPJCBAGM-GEJNJBTGSA-N

> <PUBCHEM_XLOGP3_AA>
6.6

> <PUBCHEM_EXACT_MASS>
470.266839

> <PUBCHEM_MOLECULAR_FORMULA>
C28H38O6

> <PUBCHEM_MOLECULAR_WEIGHT>
470.59772

> <PUBCHEM_OPENEYE_CAN_SMILES>
CC=C(C)C=CC=CC(C(C)C(C(C)CCC1=C(C(=O)C2=C(C=C(C=C2O1)O)O)C)OC)OC

> <PUBCHEM_OPENEYE_ISO_SMILES>
C/C=C(\C)/C=C/C=C/[C@@H]([C@@H](C)[C@H]([C@@H](C)CCC1=C(C(=O)C2=C(C=C(C=C2O1)O)O)C)OC)OC

> <PUBCHEM_CACTVS_TPSA>
85.2

> <PUBCHEM_MONOISOTOPIC_WEIGHT>
470.266839

> <PUBCHEM_TOTAL_CHARGE>
0

> <PUBCHEM_HEAVY_ATOM_COUNT>
34

> <PUBCHEM_ATOM_DEF_STEREO_COUNT>
4

> <PUBCHEM_ATOM_UDEF_STEREO_COUNT>
0

> <PUBCHEM_BOND_DEF_STEREO_COUNT>
3

> <PUBCHEM_BOND_UDEF_STEREO_COUNT>
0

> <PUBCHEM_ISOTOPIC_ATOM_COUNT>
0

> <PUBCHEM_COMPONENT_COUNT>
1

> <PUBCHEM_CACTVS_TAUTO_COUNT>
33

> <PUBCHEM_COORDINATE_TYPE>
1
5
255

> <PUBCHEM_BONDANNOTATIONS>
7  1  5
15  18  8
18  21  8
11  2  6
21  23  8
22  23  8
22  26  8
23  27  8
26  28  8
27  29  8
28  29  8
3  15  8
3  22  8
8  12  6
9  13  6

$$$$

