12816
  -OEChem-06261207243D

 27 28  0     0  0  0  0  0  0999 V2000
   -0.8326    2.2678    0.0088 O   0  0  0  0  0  0  0  0  0  0  0  0
   -2.3687   -2.0698    0.0083 O   0  0  0  0  0  0  0  0  0  0  0  0
   -0.2276   -1.1504    0.0025 N   0  0  0  0  0  0  0  0  0  0  0  0
   -1.9723    0.2340   -0.0079 N   0  0  0  0  0  0  0  0  0  0  0  0
    0.3950    0.1586    0.0006 C   0  0  0  0  0  0  0  0  0  0  0  0
    1.2156    0.3945    1.2722 C   0  0  0  0  0  0  0  0  0  0  0  0
    1.2128    0.3920   -1.2734 C   0  0  0  0  0  0  0  0  0  0  0  0
    2.5299   -0.3858    1.2623 C   0  0  0  0  0  0  0  0  0  0  0  0
    2.5271   -0.3880   -1.2650 C   0  0  0  0  0  0  0  0  0  0  0  0
    3.3387   -0.1120   -0.0025 C   0  0  0  0  0  0  0  0  0  0  0  0
   -0.8572    1.0431    0.0005 C   0  0  0  0  0  0  0  0  0  0  0  0
   -1.6212   -1.1004    0.0004 C   0  0  0  0  0  0  0  0  0  0  0  0
   -3.3393    0.7163   -0.0067 C   0  0  0  0  0  0  0  0  0  0  0  0
    0.6381    0.1210    2.1645 H   0  0  0  0  0  0  0  0  0  0  0  0
    1.4435    1.4642    1.3705 H   0  0  0  0  0  0  0  0  0  0  0  0
    1.4402    1.4616   -1.3743 H   0  0  0  0  0  0  0  0  0  0  0  0
    0.6334    0.1166   -2.1639 H   0  0  0  0  0  0  0  0  0  0  0  0
    2.3228   -1.4600    1.3388 H   0  0  0  0  0  0  0  0  0  0  0  0
    3.1230   -0.1148    2.1431 H   0  0  0  0  0  0  0  0  0  0  0  0
    3.1183   -0.1185   -2.1475 H   0  0  0  0  0  0  0  0  0  0  0  0
    2.3200   -1.4624   -1.3392 H   0  0  0  0  0  0  0  0  0  0  0  0
    3.6698    0.9339   -0.0038 H   0  0  0  0  0  0  0  0  0  0  0  0
    4.2420   -0.7324   -0.0030 H   0  0  0  0  0  0  0  0  0  0  0  0
    0.2932   -2.0219    0.0079 H   0  0  0  0  0  0  0  0  0  0  0  0
   -3.9763    0.0295   -0.5705 H   0  0  0  0  0  0  0  0  0  0  0  0
   -3.3876    1.7216   -0.4330 H   0  0  0  0  0  0  0  0  0  0  0  0
   -3.6859    0.7484    1.0303 H   0  0  0  0  0  0  0  0  0  0  0  0
  1 11  2  0  0  0  0
  2 12  2  0  0  0  0
  3  5  1  0  0  0  0
  3 12  1  0  0  0  0
  3 24  1  0  0  0  0
  4 11  1  0  0  0  0
  4 12  1  0  0  0  0
  4 13  1  0  0  0  0
  5  6  1  0  0  0  0
  5  7  1  0  0  0  0
  5 11  1  0  0  0  0
  6  8  1  0  0  0  0
  6 14  1  0  0  0  0
  6 15  1  0  0  0  0
  7  9  1  0  0  0  0
  7 16  1  0  0  0  0
  7 17  1  0  0  0  0
  8 10  1  0  0  0  0
  8 18  1  0  0  0  0
  8 19  1  0  0  0  0
  9 10  1  0  0  0  0
  9 20  1  0  0  0  0
  9 21  1  0  0  0  0
 10 22  1  0  0  0  0
 10 23  1  0  0  0  0
 13 25  1  0  0  0  0
 13 26  1  0  0  0  0
 13 27  1  0  0  0  0
M  END
> <PUBCHEM_COMPOUND_CID>
12816

> <PUBCHEM_CONFORMER_RMSD>
0.4

> <PUBCHEM_CONFORMER_DIVERSEORDER>
1
2
3
4

> <PUBCHEM_MMFF94_PARTIAL_CHARGES>
9
1 -0.57
11 0.57
12 0.69
13 0.3
2 -0.57
24 0.37
3 -0.73
4 -0.42
5 0.36

> <PUBCHEM_EFFECTIVE_ROTOR_COUNT>
1.4

> <PUBCHEM_PHARMACOPHORE_FEATURES>
5
1 1 acceptor
1 2 acceptor
1 3 donor
5 3 4 5 11 12 rings
6 5 6 7 8 9 10 rings

> <PUBCHEM_HEAVY_ATOM_COUNT>
13

> <PUBCHEM_ATOM_DEF_STEREO_COUNT>
0

> <PUBCHEM_ATOM_UDEF_STEREO_COUNT>
0

> <PUBCHEM_BOND_DEF_STEREO_COUNT>
0

> <PUBCHEM_BOND_UDEF_STEREO_COUNT>
0

> <PUBCHEM_ISOTOPIC_ATOM_COUNT>
0

> <PUBCHEM_COMPONENT_COUNT>
1

> <PUBCHEM_CACTVS_TAUTO_COUNT>
2

> <PUBCHEM_CONFORMER_ID>
0000321000000001

> <PUBCHEM_MMFF94_ENERGY>
16.9548

> <PUBCHEM_FEATURE_SELFOVERLAP>
25.377

> <PUBCHEM_SHAPE_FINGERPRINT>
10857977 72 18187931629422769802
12423570 1 12678307441391754476
12716758 59 18190172580301987766
12932764 1 17775006782068565324
13538477 17 18131351916403580563
14128692 85 17845940623757086478
14993402 34 17988924508709483645
15219456 202 17822013064798702904
15310529 11 16486974016070624725
15775835 57 17418083321965799876
16945 1 18410574032406731844
18175812 5 17748831786914671092
20201158 50 17603583062580399190
20645476 183 17846770810881467591
20645477 70 17473551248721437615
20715346 28 17749109937396927002
21061003 4 16371270221541914718
21930827 45 18115864268708462160
23402539 116 18262249918315398069
23552423 10 17986950747893436357
23557571 272 18262230011358037680
23559900 14 18334010627782835534
2748010 2 18264778653430687849
29004967 10 16660355991843527678
369184 2 18334863839503775008
5084963 1 18041836332732831060
53812653 8 18199462328333610485
7364860 26 17901947435336468825
77492 1 17704071798087320674

> <PUBCHEM_SHAPE_MULTIPOLES>
245.83
4.68
1.53
1.13
0.05
0.02
0
0.46
-0.01
1.27
0.01
-0.98
-0.02
0

> <PUBCHEM_SHAPE_SELFOVERLAP>
513.598

> <PUBCHEM_SHAPE_VOLUME>
140.7

> <PUBCHEM_COORDINATE_TYPE>
2
5
10

$$$$

