12778780
  -OEChem-07051213153D

 40 43  0     1  0  0  0  0  0999 V2000
    1.2048    2.3711   -1.5932 O   0  0  0  0  0  0  0  0  0  0  0  0
    2.0792    1.8659    1.9044 O   0  0  0  0  0  0  0  0  0  0  0  0
   -0.0987    1.0450   -0.1174 C   0  0  0  0  0  0  0  0  0  0  0  0
    0.9569    2.1235   -0.2111 C   0  0  1  0  0  0  0  0  0  0  0  0
    0.2765   -0.3146   -0.0681 C   0  0  0  0  0  0  0  0  0  0  0  0
    2.2604    1.7276    0.4949 C   0  0  2  0  0  0  0  0  0  0  0  0
    1.7148   -0.6772   -0.1004 C   0  0  0  0  0  0  0  0  0  0  0  0
    2.6880    0.3138    0.1655 C   0  0  0  0  0  0  0  0  0  0  0  0
   -1.4544    1.4148   -0.1123 C   0  0  0  0  0  0  0  0  0  0  0  0
   -0.7523   -1.2717    0.0238 C   0  0  0  0  0  0  0  0  0  0  0  0
   -2.4683    0.4518   -0.0318 C   0  0  0  0  0  0  0  0  0  0  0  0
   -2.1133   -0.9105    0.0415 C   0  0  0  0  0  0  0  0  0  0  0  0
    2.1725   -1.9731   -0.4029 C   0  0  0  0  0  0  0  0  0  0  0  0
    4.0562   -0.0051    0.1581 C   0  0  0  0  0  0  0  0  0  0  0  0
   -1.8200    2.8693   -0.2107 C   0  0  0  0  0  0  0  0  0  0  0  0
   -0.4677   -2.7253    0.2904 C   0  0  0  0  0  0  0  0  0  0  0  0
   -3.8257    0.8139   -0.0190 C   0  0  0  0  0  0  0  0  0  0  0  0
   -3.1288   -1.8780    0.1297 C   0  0  0  0  0  0  0  0  0  0  0  0
    3.5365   -2.2799   -0.4180 C   0  0  0  0  0  0  0  0  0  0  0  0
    4.4775   -1.2981   -0.1334 C   0  0  0  0  0  0  0  0  0  0  0  0
   -4.8211   -0.1592    0.0676 C   0  0  0  0  0  0  0  0  0  0  0  0
   -4.4729   -1.5040    0.1425 C   0  0  0  0  0  0  0  0  0  0  0  0
    0.6299    3.0577    0.2554 H   0  0  0  0  0  0  0  0  0  0  0  0
    3.0551    2.4202    0.1891 H   0  0  0  0  0  0  0  0  0  0  0  0
    1.5456   -2.7612   -0.7948 H   0  0  0  0  0  0  0  0  0  0  0  0
    4.7991    0.7579    0.3769 H   0  0  0  0  0  0  0  0  0  0  0  0
   -1.9931    3.2836    0.7875 H   0  0  0  0  0  0  0  0  0  0  0  0
   -1.0751    3.4836   -0.7216 H   0  0  0  0  0  0  0  0  0  0  0  0
   -2.7095    3.0303   -0.8278 H   0  0  0  0  0  0  0  0  0  0  0  0
   -1.2003   -3.1851    0.9620 H   0  0  0  0  0  0  0  0  0  0  0  0
   -0.4467   -3.3093   -0.6343 H   0  0  0  0  0  0  0  0  0  0  0  0
    0.4234   -2.8760    0.9053 H   0  0  0  0  0  0  0  0  0  0  0  0
   -4.1644    1.8446   -0.0479 H   0  0  0  0  0  0  0  0  0  0  0  0
   -2.9479   -2.9478    0.1354 H   0  0  0  0  0  0  0  0  0  0  0  0
    0.3705    2.3028   -2.0869 H   0  0  0  0  0  0  0  0  0  0  0  0
    1.8910    2.8022    2.0869 H   0  0  0  0  0  0  0  0  0  0  0  0
    3.8633   -3.2808   -0.6863 H   0  0  0  0  0  0  0  0  0  0  0  0
    5.5367   -1.5361   -0.1496 H   0  0  0  0  0  0  0  0  0  0  0  0
   -5.8672    0.1326    0.0801 H   0  0  0  0  0  0  0  0  0  0  0  0
   -5.2480   -2.2628    0.1993 H   0  0  0  0  0  0  0  0  0  0  0  0
  1  4  1  0  0  0  0
  1 35  1  0  0  0  0
  2  6  1  0  0  0  0
  2 36  1  0  0  0  0
  3  4  1  0  0  0  0
  3  5  1  0  0  0  0
  3  9  2  0  0  0  0
  4  6  1  0  0  0  0
  4 23  1  0  0  0  0
  5  7  1  0  0  0  0
  5 10  2  0  0  0  0
  6  8  1  0  0  0  0
  6 24  1  0  0  0  0
  7  8  1  0  0  0  0
  7 13  2  0  0  0  0
  8 14  2  0  0  0  0
  9 11  1  0  0  0  0
  9 15  1  0  0  0  0
 10 12  1  0  0  0  0
 10 16  1  0  0  0  0
 11 12  1  0  0  0  0
 11 17  2  0  0  0  0
 12 18  2  0  0  0  0
 13 19  1  0  0  0  0
 13 25  1  0  0  0  0
 14 20  1  0  0  0  0
 14 26  1  0  0  0  0
 15 27  1  0  0  0  0
 15 28  1  0  0  0  0
 15 29  1  0  0  0  0
 16 30  1  0  0  0  0
 16 31  1  0  0  0  0
 16 32  1  0  0  0  0
 17 21  1  0  0  0  0
 17 33  1  0  0  0  0
 18 22  1  0  0  0  0
 18 34  1  0  0  0  0
 19 20  2  0  0  0  0
 19 37  1  0  0  0  0
 20 38  1  0  0  0  0
 21 22  2  0  0  0  0
 21 39  1  0  0  0  0
 22 40  1  0  0  0  0
M  END
> <PUBCHEM_COMPOUND_CID>
12778780

> <PUBCHEM_CONFORMER_RMSD>
0.6

> <PUBCHEM_CONFORMER_DIVERSEORDER>
1

> <PUBCHEM_MMFF94_PARTIAL_CHARGES>
28
1 -0.68
10 -0.14
13 -0.15
14 -0.15
15 0.14
16 0.14
17 -0.15
18 -0.15
19 -0.15
2 -0.68
20 -0.15
21 -0.15
22 -0.15
25 0.15
26 0.15
3 -0.14
33 0.15
34 0.15
35 0.4
36 0.4
37 0.15
38 0.15
39 0.15
4 0.42
40 0.15
6 0.42
8 -0.14
9 -0.14

> <PUBCHEM_EFFECTIVE_ROTOR_COUNT>
0.4

> <PUBCHEM_PHARMACOPHORE_FEATURES>
8
1 1 acceptor
1 1 donor
1 2 acceptor
1 2 donor
6 11 12 17 18 21 22 rings
6 3 4 5 6 7 8 rings
6 3 5 9 10 11 12 rings
6 7 8 13 14 19 20 rings

> <PUBCHEM_HEAVY_ATOM_COUNT>
22

> <PUBCHEM_ATOM_DEF_STEREO_COUNT>
2

> <PUBCHEM_ATOM_UDEF_STEREO_COUNT>
0

> <PUBCHEM_BOND_DEF_STEREO_COUNT>
0

> <PUBCHEM_BOND_UDEF_STEREO_COUNT>
0

> <PUBCHEM_ISOTOPIC_ATOM_COUNT>
0

> <PUBCHEM_COMPONENT_COUNT>
1

> <PUBCHEM_CACTVS_TAUTO_COUNT>
1

> <PUBCHEM_CONFORMER_ID>
00C2FD1C00000001

> <PUBCHEM_MMFF94_ENERGY>
97.0644

> <PUBCHEM_FEATURE_SELFOVERLAP>
40.663

> <PUBCHEM_SHAPE_FINGERPRINT>
10967382 1 18267021661171933679
11578080 2 17130732593971579068
11680986 33 18339920407422575331
116883 192 18411416228275204660
12011746 2 18409445895154367702
12403259 226 18408890658645516681
13140716 1 18122913023259003002
13402501 40 18410292527481645454
138480 1 14736201176911966141
14223421 5 18409173215996359321
14790565 3 17111842120517799976
14866123 147 17468750148928814475
15196674 1 18410573989456993943
15209289 33 18412822512469348707
15442244 35 18410008866371498635
15536298 74 18334858281773980427
15848702 151 17968371346721359567
16945 1 18339079281037765660
17357779 13 18340783610065653493
17492 89 18265895748697687703
17804303 29 18336262422362549972
1813 80 17632859719806428788
18186145 218 18202010910640546487
19141452 34 18333448751276059879
19591789 44 18267304407432992906
200 152 17894635855179442463
20028762 73 18187088317433546023
20510252 161 18263082265644369945
20691752 17 17775571914113201811
20739085 24 18126819691536912497
20905425 154 17978511158748119190
21029758 11 18335704983042073465
21267235 1 18410845581724980239
21279426 13 18123190370866893015
221490 88 18269828735996311531
22182313 1 18269575929768091741
2334 1 18267299838141255695
23402539 116 18410863186822307062
23419403 2 12205268660094997056
23557571 272 18117268362748821438
23559900 14 18410015411912428112
2748010 2 18340499948797653389
3286 77 17894351051460620465
335352 9 18339078319487233709
350125 39 18410005568042752921
394222 165 16910318733221857240
5104073 3 18408885139707669643
7364860 26 18335701581565183552
8809292 202 18342172271650285483
9709674 26 18268708320894789083
9981440 41 17475235695670128049

> <PUBCHEM_SHAPE_MULTIPOLES>
441.01
8.01
3.09
0.86
2.01
0.48
-0.1
-3.17
-0.22
-0.32
0.16
-0.41
0.42
0.62

> <PUBCHEM_SHAPE_SELFOVERLAP>
997.087

> <PUBCHEM_SHAPE_VOLUME>
232.1

> <PUBCHEM_COORDINATE_TYPE>
2
5
10

$$$$

