5275227
  -OEChem-07051213113D

 46 48  0     1  0  0  0  0  0999 V2000
    0.1207    0.0188   -0.4906 O   0  0  0  0  0  0  0  0  0  0  0  0
    1.6212    3.7370    0.3778 O   0  0  0  0  0  0  0  0  0  0  0  0
    4.0313    2.7513    0.4260 O   0  0  0  0  0  0  0  0  0  0  0  0
    4.4896   -1.8506   -0.6050 O   0  0  0  0  0  0  0  0  0  0  0  0
   -2.7295    1.4000    2.1834 O   0  0  0  0  0  0  0  0  0  0  0  0
   -6.1303   -0.0981   -0.8007 O   0  0  0  0  0  0  0  0  0  0  0  0
   -0.6650    0.9756    0.2375 C   0  0  1  0  0  0  0  0  0  0  0  0
   -0.2984    2.4034   -0.1626 C   0  0  0  0  0  0  0  0  0  0  0  0
    1.4698    0.2125   -0.3421 C   0  0  0  0  0  0  0  0  0  0  0  0
    2.0406    1.4489   -0.0258 C   0  0  0  0  0  0  0  0  0  0  0  0
    1.1652    2.6310    0.1129 C   0  0  0  0  0  0  0  0  0  0  0  0
    2.2900   -0.8968   -0.5521 C   0  0  0  0  0  0  0  0  0  0  0  0
   -2.1289    0.6932   -0.0270 C   0  0  0  0  0  0  0  0  0  0  0  0
    3.4252    1.5718    0.1143 C   0  0  0  0  0  0  0  0  0  0  0  0
    1.6951   -2.2212   -0.9127 C   0  0  0  0  0  0  0  0  0  0  0  0
    3.6731   -0.7759   -0.4140 C   0  0  0  0  0  0  0  0  0  0  0  0
    4.2386    0.4543   -0.0768 C   0  0  0  0  0  0  0  0  0  0  0  0
   -3.0891    0.9204    0.9599 C   0  0  0  0  0  0  0  0  0  0  0  0
   -2.5150    0.2004   -1.2738 C   0  0  0  0  0  0  0  0  0  0  0  0
    1.3686   -3.0631    0.2945 C   0  0  0  0  0  0  0  0  0  0  0  0
   -4.4336    0.6548    0.7000 C   0  0  0  0  0  0  0  0  0  0  0  0
   -3.8594   -0.0651   -1.5338 C   0  0  0  0  0  0  0  0  0  0  0  0
   -4.8187    0.1619   -0.5469 C   0  0  0  0  0  0  0  0  0  0  0  0
    0.1727   -3.5653    0.6572 C   0  0  0  0  0  0  0  0  0  0  0  0
   -0.0830   -4.4007    1.8794 C   0  0  0  0  0  0  0  0  0  0  0  0
   -1.0507   -3.2984   -0.1791 C   0  0  0  0  0  0  0  0  0  0  0  0
   -0.4432    0.7930    1.2978 H   0  0  0  0  0  0  0  0  0  0  0  0
   -0.8826    3.1300    0.4122 H   0  0  0  0  0  0  0  0  0  0  0  0
   -0.4658    2.5819   -1.2314 H   0  0  0  0  0  0  0  0  0  0  0  0
    0.8602   -2.0698   -1.5994 H   0  0  0  0  0  0  0  0  0  0  0  0
    2.4076   -2.7929   -1.5228 H   0  0  0  0  0  0  0  0  0  0  0  0
    5.3176    0.5413    0.0294 H   0  0  0  0  0  0  0  0  0  0  0  0
   -1.7907    0.0263   -2.0649 H   0  0  0  0  0  0  0  0  0  0  0  0
    2.2194   -3.2966    0.9345 H   0  0  0  0  0  0  0  0  0  0  0  0
   -5.1765    0.8335    1.4735 H   0  0  0  0  0  0  0  0  0  0  0  0
   -4.1538   -0.4466   -2.5078 H   0  0  0  0  0  0  0  0  0  0  0  0
    4.9936    2.6195    0.4731 H   0  0  0  0  0  0  0  0  0  0  0  0
    5.4128   -1.5780   -0.4664 H   0  0  0  0  0  0  0  0  0  0  0  0
   -1.8815    1.8677    2.1312 H   0  0  0  0  0  0  0  0  0  0  0  0
    0.8338   -4.5614    2.4561 H   0  0  0  0  0  0  0  0  0  0  0  0
   -0.8081   -3.9073    2.5345 H   0  0  0  0  0  0  0  0  0  0  0  0
   -0.4766   -5.3821    1.5961 H   0  0  0  0  0  0  0  0  0  0  0  0
   -0.8995   -2.7112   -1.0827 H   0  0  0  0  0  0  0  0  0  0  0  0
   -1.4926   -4.2503   -0.4946 H   0  0  0  0  0  0  0  0  0  0  0  0
   -1.7963   -2.7670    0.4231 H   0  0  0  0  0  0  0  0  0  0  0  0
   -6.6530    0.1158   -0.0088 H   0  0  0  0  0  0  0  0  0  0  0  0
  1  7  1  0  0  0  0
  1  9  1  0  0  0  0
  2 11  2  0  0  0  0
  3 14  1  0  0  0  0
  3 37  1  0  0  0  0
  4 16  1  0  0  0  0
  4 38  1  0  0  0  0
  5 18  1  0  0  0  0
  5 39  1  0  0  0  0
  6 23  1  0  0  0  0
  6 46  1  0  0  0  0
  7  8  1  0  0  0  0
  7 13  1  0  0  0  0
  7 27  1  0  0  0  0
  8 11  1  0  0  0  0
  8 28  1  0  0  0  0
  8 29  1  0  0  0  0
  9 10  1  0  0  0  0
  9 12  2  0  0  0  0
 10 11  1  0  0  0  0
 10 14  2  0  0  0  0
 12 15  1  0  0  0  0
 12 16  1  0  0  0  0
 13 18  2  0  0  0  0
 13 19  1  0  0  0  0
 14 17  1  0  0  0  0
 15 20  1  0  0  0  0
 15 30  1  0  0  0  0
 15 31  1  0  0  0  0
 16 17  2  0  0  0  0
 17 32  1  0  0  0  0
 18 21  1  0  0  0  0
 19 22  2  0  0  0  0
 19 33  1  0  0  0  0
 20 24  2  0  0  0  0
 20 34  1  0  0  0  0
 21 23  2  0  0  0  0
 21 35  1  0  0  0  0
 22 23  1  0  0  0  0
 22 36  1  0  0  0  0
 24 25  1  0  0  0  0
 24 26  1  0  0  0  0
 25 40  1  0  0  0  0
 25 41  1  0  0  0  0
 25 42  1  0  0  0  0
 26 43  1  0  0  0  0
 26 44  1  0  0  0  0
 26 45  1  0  0  0  0
M  END
> <PUBCHEM_COMPOUND_CID>
5275227

> <PUBCHEM_CONFORMER_RMSD>
0.8

> <PUBCHEM_CONFORMER_DIVERSEORDER>
4
18
32
37
42
13
14
36
43
25
40
35
27
8
29
22
17
2
34
9
26
1
41
39
23
21
30
16
6
10
12
3
38
33
24
31
20
28
19
5
15
7
11

> <PUBCHEM_MMFF94_PARTIAL_CHARGES>
35
1 -0.36
10 0.09
11 0.42
12 -0.14
13 -0.14
14 0.08
15 0.28
16 0.08
17 -0.15
18 0.08
19 -0.15
2 -0.57
20 -0.29
21 -0.15
22 -0.15
23 0.08
24 -0.28
25 0.14
26 0.14
3 -0.53
32 0.15
33 0.15
34 0.15
35 0.15
36 0.15
37 0.45
38 0.45
39 0.45
4 -0.53
46 0.45
5 -0.53
6 -0.53
7 0.42
8 0.06
9 0.08

> <PUBCHEM_EFFECTIVE_ROTOR_COUNT>
3.6

> <PUBCHEM_PHARMACOPHORE_FEATURES>
10
1 1 acceptor
1 2 acceptor
1 3 donor
1 4 donor
1 5 donor
1 6 donor
3 24 25 26 hydrophobe
6 1 7 8 9 10 11 rings
6 13 18 19 21 22 23 rings
6 9 10 12 14 16 17 rings

> <PUBCHEM_HEAVY_ATOM_COUNT>
26

> <PUBCHEM_ATOM_DEF_STEREO_COUNT>
1

> <PUBCHEM_ATOM_UDEF_STEREO_COUNT>
0

> <PUBCHEM_BOND_DEF_STEREO_COUNT>
0

> <PUBCHEM_BOND_UDEF_STEREO_COUNT>
0

> <PUBCHEM_ISOTOPIC_ATOM_COUNT>
0

> <PUBCHEM_COMPONENT_COUNT>
1

> <PUBCHEM_CACTVS_TAUTO_COUNT>
189

> <PUBCHEM_CONFORMER_ID>
00507E5B00000004

> <PUBCHEM_MMFF94_ENERGY>
70.5966

> <PUBCHEM_FEATURE_SELFOVERLAP>
50.773

> <PUBCHEM_SHAPE_FINGERPRINT>
10906281 52 18261940887440290004
10967382 1 18409448090072416908
1100329 8 18411987953427534554
11135609 187 18263652779352223493
11370993 70 18339644434583664523
12107183 9 17465085434267258657
12156800 1 17760121456302887283
12236239 1 17821729429875818757
12553582 1 18121499317250854743
12788726 201 16684277271618065635
13140716 1 18410573955762173266
13911987 19 18130206225556405540
14790565 3 18266158673995327700
14844126 61 16253917455408002067
15420108 30 17103666096308416457
16728300 4 17270356354647492898
17134984 74 18268731454348405031
17138139 8 17753637658262518951
19591789 44 18338513157393617470
19930381 70 18268430303419167931
20028762 73 18188214302970494718
20511986 3 17822587096079529713
20645477 70 18341619212985629709
20739085 24 18268970120689951488
21197605 99 18120086187760588527
21285901 2 17274265084040010935
21304304 249 18341061795820277042
21421861 104 17765706210851375264
22182313 1 17827336806254828716
2255824 54 18335419053984115860
23558518 356 17552927230475238328
23559900 14 18261679160079816264
283562 15 18194678401013214112
2871803 45 18337956799877294790
33824 294 18411702101314263575
3383291 50 18198626726058420994
350125 39 17474101004471722972
352729 6 17974845077864703292
4340502 62 18411419480103647887
4409770 3 16823920140170890804
463206 1 18340200907732145851
474 4 18335140856083230612
9981440 41 16813515538973240296

> <PUBCHEM_SHAPE_MULTIPOLES>
499.85
8.86
4.63
1.24
7.12
4
0.32
-2.53
-1.69
-3.21
1.99
1.08
0.45
0.16

> <PUBCHEM_SHAPE_SELFOVERLAP>
1089.267

> <PUBCHEM_SHAPE_VOLUME>
271.3

> <PUBCHEM_COORDINATE_TYPE>
2
5
10

$$$$

