160705
  -OEChem-07051212593D

 48 52  0     1  0  0  0  0  0999 V2000
   -1.7364   -3.6772   -0.6240 O   0  0  0  0  0  0  0  0  0  0  0  0
   -2.4710   -2.6346    1.2941 O   0  0  0  0  0  0  0  0  0  0  0  0
    4.0700    2.0486    1.4832 O   0  0  0  0  0  0  0  0  0  0  0  0
    5.2828    0.9442   -0.2808 O   0  0  0  0  0  0  0  0  0  0  0  0
   -1.3798    2.4507   -2.2957 O   0  0  0  0  0  0  0  0  0  0  0  0
   -4.1878    1.4784    1.4604 O   0  0  0  0  0  0  0  0  0  0  0  0
   -3.7179    2.8890   -0.8758 O   0  0  0  0  0  0  0  0  0  0  0  0
   -0.2087   -2.2699    0.4556 C   0  0  1  0  0  0  0  0  0  0  0  0
    0.1453   -2.3886   -1.0133 C   0  0  1  0  0  0  0  0  0  0  0  0
    0.0710   -0.8574    0.9868 C   0  0  1  0  0  0  0  0  0  0  0  0
    1.6465   -2.2761   -1.2045 C   0  0  0  0  0  0  0  0  0  0  0  0
    1.4924   -0.4310    0.5932 C   0  0  0  0  0  0  0  0  0  0  0  0
   -0.5052   -3.7008   -1.3715 C   0  0  0  0  0  0  0  0  0  0  0  0
    2.2120   -1.0820   -0.4565 C   0  0  0  0  0  0  0  0  0  0  0  0
   -1.6052   -2.8365    0.4587 C   0  0  0  0  0  0  0  0  0  0  0  0
   -0.9354    0.1376    0.4915 C   0  0  0  0  0  0  0  0  0  0  0  0
    2.0862    0.6426    1.2847 C   0  0  0  0  0  0  0  0  0  0  0  0
    3.5095   -0.6533   -0.7863 C   0  0  0  0  0  0  0  0  0  0  0  0
    3.3573    1.0345    0.9209 C   0  0  0  0  0  0  0  0  0  0  0  0
    4.0484    0.4053   -0.0853 C   0  0  0  0  0  0  0  0  0  0  0  0
   -2.1065    0.3493    1.2111 C   0  0  0  0  0  0  0  0  0  0  0  0
   -0.6898    0.8406   -0.6833 C   0  0  0  0  0  0  0  0  0  0  0  0
   -1.6262    1.7660   -1.1438 C   0  0  0  0  0  0  0  0  0  0  0  0
   -3.0430    1.2748    0.7506 C   0  0  0  0  0  0  0  0  0  0  0  0
    5.2885    1.9875    0.7145 C   0  0  0  0  0  0  0  0  0  0  0  0
   -2.8030    1.9833   -0.4268 C   0  0  0  0  0  0  0  0  0  0  0  0
   -1.8382    1.8610   -3.5106 C   0  0  0  0  0  0  0  0  0  0  0  0
   -4.3559    0.7137    2.6526 C   0  0  0  0  0  0  0  0  0  0  0  0
    0.3984   -2.9809    1.0382 H   0  0  0  0  0  0  0  0  0  0  0  0
   -0.3581   -1.6126   -1.6024 H   0  0  0  0  0  0  0  0  0  0  0  0
    0.0320   -0.8948    2.0846 H   0  0  0  0  0  0  0  0  0  0  0  0
    1.8685   -2.1881   -2.2747 H   0  0  0  0  0  0  0  0  0  0  0  0
    2.1489   -3.1782   -0.8336 H   0  0  0  0  0  0  0  0  0  0  0  0
   -0.7308   -3.7726   -2.4394 H   0  0  0  0  0  0  0  0  0  0  0  0
    0.0744   -4.5778   -1.0644 H   0  0  0  0  0  0  0  0  0  0  0  0
    1.5592    1.1534    2.0844 H   0  0  0  0  0  0  0  0  0  0  0  0
    4.0774   -1.1429   -1.5711 H   0  0  0  0  0  0  0  0  0  0  0  0
   -2.2299   -0.2099    2.1315 H   0  0  0  0  0  0  0  0  0  0  0  0
    0.2041    0.6970   -1.2814 H   0  0  0  0  0  0  0  0  0  0  0  0
    6.1270    1.8151    1.3990 H   0  0  0  0  0  0  0  0  0  0  0  0
    5.4359    2.9508    0.2128 H   0  0  0  0  0  0  0  0  0  0  0  0
   -4.4656    2.9041   -0.2533 H   0  0  0  0  0  0  0  0  0  0  0  0
   -1.3555    0.8918   -3.6720 H   0  0  0  0  0  0  0  0  0  0  0  0
   -1.5717    2.5263   -4.3364 H   0  0  0  0  0  0  0  0  0  0  0  0
   -2.9260    1.7409   -3.4947 H   0  0  0  0  0  0  0  0  0  0  0  0
   -3.5915    0.9559    3.3987 H   0  0  0  0  0  0  0  0  0  0  0  0
   -4.4081   -0.3596    2.4406 H   0  0  0  0  0  0  0  0  0  0  0  0
   -5.3211    0.9986    3.0840 H   0  0  0  0  0  0  0  0  0  0  0  0
  1 13  1  0  0  0  0
  1 15  1  0  0  0  0
  2 15  2  0  0  0  0
  3 19  1  0  0  0  0
  3 25  1  0  0  0  0
  4 20  1  0  0  0  0
  4 25  1  0  0  0  0
  5 23  1  0  0  0  0
  5 27  1  0  0  0  0
  6 24  1  0  0  0  0
  6 28  1  0  0  0  0
  7 26  1  0  0  0  0
  7 42  1  0  0  0  0
  8  9  1  0  0  0  0
  8 10  1  0  0  0  0
  8 15  1  0  0  0  0
  8 29  1  0  0  0  0
  9 11  1  0  0  0  0
  9 13  1  0  0  0  0
  9 30  1  0  0  0  0
 10 12  1  0  0  0  0
 10 16  1  0  0  0  0
 10 31  1  0  0  0  0
 11 14  1  0  0  0  0
 11 32  1  0  0  0  0
 11 33  1  0  0  0  0
 12 14  1  0  0  0  0
 12 17  2  0  0  0  0
 13 34  1  0  0  0  0
 13 35  1  0  0  0  0
 14 18  2  0  0  0  0
 16 21  2  0  0  0  0
 16 22  1  0  0  0  0
 17 19  1  0  0  0  0
 17 36  1  0  0  0  0
 18 20  1  0  0  0  0
 18 37  1  0  0  0  0
 19 20  2  0  0  0  0
 21 24  1  0  0  0  0
 21 38  1  0  0  0  0
 22 23  2  0  0  0  0
 22 39  1  0  0  0  0
 23 26  1  0  0  0  0
 24 26  2  0  0  0  0
 25 40  1  0  0  0  0
 25 41  1  0  0  0  0
 27 43  1  0  0  0  0
 27 44  1  0  0  0  0
 27 45  1  0  0  0  0
 28 46  1  0  0  0  0
 28 47  1  0  0  0  0
 28 48  1  0  0  0  0
M  END
> <PUBCHEM_COMPOUND_CID>
160705

> <PUBCHEM_CONFORMER_RMSD>
0.8

> <PUBCHEM_CONFORMER_DIVERSEORDER>
1
2

> <PUBCHEM_MMFF94_PARTIAL_CHARGES>
32
1 -0.43
10 0.29
11 0.14
12 -0.14
13 0.28
14 -0.14
15 0.66
16 -0.14
17 -0.15
18 -0.15
19 0.08
2 -0.57
20 0.08
21 -0.15
22 -0.15
23 0.08
24 0.08
25 0.56
26 0.08
27 0.28
28 0.28
3 -0.36
36 0.15
37 0.15
38 0.15
39 0.15
4 -0.36
42 0.45
5 -0.36
6 -0.36
7 -0.53
8 0.06

> <PUBCHEM_EFFECTIVE_ROTOR_COUNT>
4.4

> <PUBCHEM_PHARMACOPHORE_FEATURES>
11
1 2 acceptor
1 3 acceptor
1 4 acceptor
1 5 acceptor
1 6 acceptor
1 7 donor
5 1 8 9 13 15 rings
5 3 4 19 20 25 rings
6 12 14 17 18 19 20 rings
6 16 21 22 23 24 26 rings
6 8 9 10 11 12 14 rings

> <PUBCHEM_HEAVY_ATOM_COUNT>
28

> <PUBCHEM_ATOM_DEF_STEREO_COUNT>
3

> <PUBCHEM_ATOM_UDEF_STEREO_COUNT>
0

> <PUBCHEM_BOND_DEF_STEREO_COUNT>
0

> <PUBCHEM_BOND_UDEF_STEREO_COUNT>
0

> <PUBCHEM_ISOTOPIC_ATOM_COUNT>
0

> <PUBCHEM_COMPONENT_COUNT>
1

> <PUBCHEM_CACTVS_TAUTO_COUNT>
4

> <PUBCHEM_CONFORMER_ID>
000273C100000001

> <PUBCHEM_MMFF94_ENERGY>
102.3405

> <PUBCHEM_FEATURE_SELFOVERLAP>
56.068

> <PUBCHEM_SHAPE_FINGERPRINT>
10165383 225 18192968582742673124
105312 117 18409455786838797980
10871710 139 17766257800901460108
11101153 10 17622167867750931500
11115154 58 17172386295522458975
11578080 2 18116971353054593308
11582403 64 16696160595701292661
11595378 159 17561084691941165808
12156800 1 17827607324105193127
12160290 23 18047783453551654066
12173636 292 18259983794664552160
12422481 6 18196625463996103995
12730499 353 18193553587532702385
12788726 201 18125182462129170850
13034934 17 18270386296182339129
13134695 92 16760040168238719886
13583140 156 17632312202097880320
13681431 1 17112429259705368206
14142880 1 18338520720440707042
15324884 4 17913181421153283435
17357779 13 17755603558618527078
17492 54 17841470039981236167
1813 80 17766001597359610550
20600515 1 16906689245153011080
21033648 29 18339367460754565320
21202864 24 18338792330109563241
21304303 282 17196628472964951022
21756936 100 17676204658923372856
22182313 1 17842819278493425089
22907989 373 18119261558059741876
23419403 2 16664536317645811575
23557571 272 17343478275819859005
23559900 14 17200501120521883383
238 59 17834700535450673223
283562 15 18047485421972051706
3187 122 18056193579311296699
350125 39 17972876956715061248
3729539 64 17903051659181906510
376196 1 16910916154508710157
4340502 62 18115290268241804651
469060 322 17774442664184771987
484985 159 5905498475183158444
495365 180 17980497967896344541
5252454 2 18410572877751762296
633830 44 17604701317271544113
6442390 28 18335128813264010139
7399639 24 18198615713281316041
81228 2 18126011468189799274
9862522 239 18271815626405790336
9925002 15 18053650383594430821

> <PUBCHEM_SHAPE_MULTIPOLES>
535.14
8.09
4.03
2.22
6.82
3.43
1.23
-7.29
-3.25
-2.07
1.48
-2.37
-1.31
1.72

> <PUBCHEM_SHAPE_SELFOVERLAP>
1201.377

> <PUBCHEM_SHAPE_VOLUME>
283.4

> <PUBCHEM_COORDINATE_TYPE>
2
5
10

$$$$

