4479247
  -OEChem-07051212553D

 18 18  0     1  0  0  0  0  0999 V2000
   -2.0618    1.4188    0.0883 O   0  0  0  0  0  0  0  0  0  0  0  0
   -2.6378   -0.7056   -0.4306 O   0  0  0  0  0  0  0  0  0  0  0  0
   -0.2376   -1.7490    0.3770 N   0  0  0  0  0  0  0  0  0  0  0  0
    0.6399    0.3816   -0.4081 C   0  0  1  0  0  0  0  0  0  0  0  0
    1.5468    1.4245    0.2817 C   0  0  0  0  0  0  0  0  0  0  0  0
    1.9795    0.1473   -0.1260 C   0  0  0  0  0  0  0  0  0  0  0  0
   -0.4135   -0.3216    0.4345 C   0  0  1  0  0  0  0  0  0  0  0  0
    2.9917   -0.6878   -0.2087 C   0  0  0  0  0  0  0  0  0  0  0  0
   -1.8072    0.0919   -0.0081 C   0  0  0  0  0  0  0  0  0  0  0  0
    0.3758    0.5110   -1.4489 H   0  0  0  0  0  0  0  0  0  0  0  0
    1.4469    1.5920    1.3447 H   0  0  0  0  0  0  0  0  0  0  0  0
    1.8842    2.2687   -0.3031 H   0  0  0  0  0  0  0  0  0  0  0  0
   -0.3258   -0.0210    1.4864 H   0  0  0  0  0  0  0  0  0  0  0  0
    2.8720   -1.6660   -0.6603 H   0  0  0  0  0  0  0  0  0  0  0  0
    3.9694   -0.4155    0.1723 H   0  0  0  0  0  0  0  0  0  0  0  0
   -0.3865   -2.0863   -0.5733 H   0  0  0  0  0  0  0  0  0  0  0  0
   -0.9359   -2.2127    0.9567 H   0  0  0  0  0  0  0  0  0  0  0  0
   -2.9684    1.6413   -0.2128 H   0  0  0  0  0  0  0  0  0  0  0  0
  1  9  1  0  0  0  0
  1 18  1  0  0  0  0
  2  9  2  0  0  0  0
  3  7  1  0  0  0  0
  3 16  1  0  0  0  0
  3 17  1  0  0  0  0
  4  5  1  0  0  0  0
  4  6  1  0  0  0  0
  4  7  1  0  0  0  0
  4 10  1  0  0  0  0
  5  6  1  0  0  0  0
  5 11  1  0  0  0  0
  5 12  1  0  0  0  0
  6  8  2  0  0  0  0
  7  9  1  0  0  0  0
  7 13  1  0  0  0  0
  8 14  1  0  0  0  0
  8 15  1  0  0  0  0
M  END
> <PUBCHEM_COMPOUND_CID>
4479247

> <PUBCHEM_CONFORMER_RMSD>
0.4

> <PUBCHEM_CONFORMER_DIVERSEORDER>
4
9
14
21
10
20
18
13
12
15
6
7
11
19
8
3
17
16
1
5
2

> <PUBCHEM_MMFF94_PARTIAL_CHARGES>
17
1 -0.65
10 0.1
11 0.1
12 0.1
14 0.15
15 0.15
16 0.36
17 0.36
18 0.5
2 -0.57
3 -0.99
4 -0.16
5 -0.16
6 -0.08
7 0.43
8 -0.3
9 0.66

> <PUBCHEM_EFFECTIVE_ROTOR_COUNT>
2.4

> <PUBCHEM_PHARMACOPHORE_FEATURES>
5
1 1 acceptor
1 2 acceptor
1 3 cation
1 3 donor
3 1 2 9 anion

> <PUBCHEM_HEAVY_ATOM_COUNT>
9

> <PUBCHEM_ATOM_DEF_STEREO_COUNT>
0

> <PUBCHEM_ATOM_UDEF_STEREO_COUNT>
2

> <PUBCHEM_BOND_DEF_STEREO_COUNT>
0

> <PUBCHEM_BOND_UDEF_STEREO_COUNT>
0

> <PUBCHEM_ISOTOPIC_ATOM_COUNT>
0

> <PUBCHEM_COMPONENT_COUNT>
1

> <PUBCHEM_CACTVS_TAUTO_COUNT>
1

> <PUBCHEM_CONFORMER_ID>
0044590F00000004

> <PUBCHEM_MMFF94_ENERGY>
25.2257

> <PUBCHEM_FEATURE_SELFOVERLAP>
25.432

> <PUBCHEM_SHAPE_FINGERPRINT>
12897270 3 18410863139930620367
12932764 1 17676486103566026588
14325111 11 18411418410108086812
19973954 147 18337388244955057313
21040471 1 18342455911395735368
23552423 10 18200873959471484934
29004967 10 15140956244754384783
369184 2 17821728312461232425
5084963 1 18333449828716531337

> <PUBCHEM_SHAPE_MULTIPOLES>
168.5
3.87
1.43
0.68
0.1
0.01
0
-0.22
-0.44
-0.06
0.16
0.02
-0.02
0.04

> <PUBCHEM_SHAPE_SELFOVERLAP>
334.808

> <PUBCHEM_SHAPE_VOLUME>
101.1

> <PUBCHEM_COORDINATE_TYPE>
2
5
10

$$$$

