4339
  -OEChem-06261200032D

 67 67  0     1  0  0  0  0  0999 V2000
    4.5981    0.0950    0.0000 O   0  0  0  0  0  0  0  0  0  0  0  0
    8.0622   -0.9050    0.0000 O   0  0  0  0  0  0  0  0  0  0  0  0
    5.4641    3.5950    0.0000 O   0  0  0  0  0  0  0  0  0  0  0  0
    8.9282   -1.4050    0.0000 O   0  0  0  0  0  0  0  0  0  0  0  0
    6.3301   -6.9050    0.0000 O   0  0  0  0  0  0  0  0  0  0  0  0
    4.5981    6.0950    0.0000 O   0  0  0  0  0  0  0  0  0  0  0  0
    2.0000    6.5950    0.0000 O   0  0  0  0  0  0  0  0  0  0  0  0
    3.7320    6.5950    0.0000 O   0  0  0  0  0  0  0  0  0  0  0  0
    6.3301   -0.9050    0.0000 N   0  0  0  0  0  0  0  0  0  0  0  0
    5.4641    1.5950    0.0000 N   0  0  0  0  0  0  0  0  0  0  0  0
    8.0622   -2.9050    0.0000 N   0  0  0  0  0  0  0  0  0  0  0  0
    3.7320    3.5950    0.0000 N   0  0  0  0  0  0  0  0  0  0  0  0
    6.3301    0.0950    0.0000 C   0  0  3  0  0  0  0  0  0  0  0  0
    7.1962    0.5950    0.0000 C   0  0  0  0  0  0  0  0  0  0  0  0
    7.1962   -2.4050    0.0000 C   0  0  3  0  0  0  0  0  0  0  0  0
    5.4641    0.5950    0.0000 C   0  0  0  0  0  0  0  0  0  0  0  0
    7.1962    1.5950    0.0000 C   0  0  0  0  0  0  0  0  0  0  0  0
    8.0622    0.0950    0.0000 C   0  0  0  0  0  0  0  0  0  0  0  0
    7.1962   -1.4050    0.0000 C   0  0  0  0  0  0  0  0  0  0  0  0
    6.3301   -2.9050    0.0000 C   0  0  0  0  0  0  0  0  0  0  0  0
    4.5981    2.0950    0.0000 C   0  0  3  0  0  0  0  0  0  0  0  0
    6.3301   -3.9050    0.0000 C   0  0  0  0  0  0  0  0  0  0  0  0
    4.5981    3.0950    0.0000 C   0  0  0  0  0  0  0  0  0  0  0  0
    3.7320    1.5950    0.0000 C   0  0  0  0  0  0  0  0  0  0  0  0
    3.7320    4.5950    0.0000 C   0  0  3  0  0  0  0  0  0  0  0  0
    5.4641   -4.4050    0.0000 C   0  0  0  0  0  0  0  0  0  0  0  0
    7.1962   -4.4050    0.0000 C   0  0  0  0  0  0  0  0  0  0  0  0
    8.9282   -2.4050    0.0000 C   0  0  0  0  0  0  0  0  0  0  0  0
    2.8660    5.0950    0.0000 C   0  0  0  0  0  0  0  0  0  0  0  0
    5.4641   -5.4050    0.0000 C   0  0  0  0  0  0  0  0  0  0  0  0
    7.1962   -5.4050    0.0000 C   0  0  0  0  0  0  0  0  0  0  0  0
    6.3301   -5.9050    0.0000 C   0  0  0  0  0  0  0  0  0  0  0  0
    9.7942   -2.9050    0.0000 C   0  0  0  0  0  0  0  0  0  0  0  0
    4.5981    5.0950    0.0000 C   0  0  0  0  0  0  0  0  0  0  0  0
    2.8660    6.0950    0.0000 C   0  0  0  0  0  0  0  0  0  0  0  0
    7.0662   -0.3300    0.0000 H   0  0  0  0  0  0  0  0  0  0  0  0
    6.6592    0.9050    0.0000 H   0  0  0  0  0  0  0  0  0  0  0  0
    5.7932   -1.2150    0.0000 H   0  0  0  0  0  0  0  0  0  0  0  0
    7.9323   -1.9800    0.0000 H   0  0  0  0  0  0  0  0  0  0  0  0
    7.7522   -0.4419    0.0000 H   0  0  0  0  0  0  0  0  0  0  0  0
    8.5991   -0.2150    0.0000 H   0  0  0  0  0  0  0  0  0  0  0  0
    8.3722    0.6319    0.0000 H   0  0  0  0  0  0  0  0  0  0  0  0
    7.8162    1.5950    0.0000 H   0  0  0  0  0  0  0  0  0  0  0  0
    7.1962    2.2150    0.0000 H   0  0  0  0  0  0  0  0  0  0  0  0
    6.5762    1.5950    0.0000 H   0  0  0  0  0  0  0  0  0  0  0  0
    6.1181   -2.3224    0.0000 H   0  0  0  0  0  0  0  0  0  0  0  0
    5.7196   -3.0127    0.0000 H   0  0  0  0  0  0  0  0  0  0  0  0
    4.5981    1.2450    0.0000 H   0  0  0  0  0  0  0  0  0  0  0  0
    6.0010    1.9050    0.0000 H   0  0  0  0  0  0  0  0  0  0  0  0
    8.0622   -3.5250    0.0000 H   0  0  0  0  0  0  0  0  0  0  0  0
    3.4220    2.1319    0.0000 H   0  0  0  0  0  0  0  0  0  0  0  0
    3.1951    1.2850    0.0000 H   0  0  0  0  0  0  0  0  0  0  0  0
    4.0420    1.0581    0.0000 H   0  0  0  0  0  0  0  0  0  0  0  0
    3.1951    3.2850    0.0000 H   0  0  0  0  0  0  0  0  0  0  0  0
    4.4682    4.1700    0.0000 H   0  0  0  0  0  0  0  0  0  0  0  0
    4.9272   -4.0950    0.0000 H   0  0  0  0  0  0  0  0  0  0  0  0
    7.7331   -4.0950    0.0000 H   0  0  0  0  0  0  0  0  0  0  0  0
    2.2554    5.2027    0.0000 H   0  0  0  0  0  0  0  0  0  0  0  0
    2.6540    4.5124    0.0000 H   0  0  0  0  0  0  0  0  0  0  0  0
    4.9272   -5.7150    0.0000 H   0  0  0  0  0  0  0  0  0  0  0  0
    7.7331   -5.7150    0.0000 H   0  0  0  0  0  0  0  0  0  0  0  0
    9.4842   -3.4419    0.0000 H   0  0  0  0  0  0  0  0  0  0  0  0
   10.3312   -3.2150    0.0000 H   0  0  0  0  0  0  0  0  0  0  0  0
   10.1042   -2.3681    0.0000 H   0  0  0  0  0  0  0  0  0  0  0  0
    5.1350    4.7850    0.0000 H   0  0  0  0  0  0  0  0  0  0  0  0
    5.7932   -7.2150    0.0000 H   0  0  0  0  0  0  0  0  0  0  0  0
    2.0000    7.2150    0.0000 H   0  0  0  0  0  0  0  0  0  0  0  0
  1 16  2  0  0  0  0
  2 19  2  0  0  0  0
  3 23  2  0  0  0  0
  4 28  2  0  0  0  0
  5 32  1  0  0  0  0
  5 66  1  0  0  0  0
  6 34  2  0  0  0  0
  7 35  1  0  0  0  0
  7 67  1  0  0  0  0
  8 35  2  0  0  0  0
  9 13  1  0  0  0  0
  9 19  1  0  0  0  0
  9 38  1  0  0  0  0
 10 16  1  0  0  0  0
 10 21  1  0  0  0  0
 10 49  1  0  0  0  0
 11 15  1  0  0  0  0
 11 28  1  0  0  0  0
 11 50  1  0  0  0  0
 12 23  1  0  0  0  0
 12 25  1  0  0  0  0
 12 54  1  0  0  0  0
 13 14  1  0  0  0  0
 13 16  1  0  0  0  0
 13 36  1  0  0  0  0
 14 17  1  0  0  0  0
 14 18  1  0  0  0  0
 14 37  1  0  0  0  0
 15 19  1  0  0  0  0
 15 20  1  0  0  0  0
 15 39  1  0  0  0  0
 17 43  1  0  0  0  0
 17 44  1  0  0  0  0
 17 45  1  0  0  0  0
 18 40  1  0  0  0  0
 18 41  1  0  0  0  0
 18 42  1  0  0  0  0
 20 22  1  0  0  0  0
 20 46  1  0  0  0  0
 20 47  1  0  0  0  0
 21 23  1  0  0  0  0
 21 24  1  0  0  0  0
 21 48  1  0  0  0  0
 22 26  2  0  0  0  0
 22 27  1  0  0  0  0
 24 51  1  0  0  0  0
 24 52  1  0  0  0  0
 24 53  1  0  0  0  0
 25 29  1  0  0  0  0
 25 34  1  0  0  0  0
 25 55  1  0  0  0  0
 26 30  1  0  0  0  0
 26 56  1  0  0  0  0
 27 31  2  0  0  0  0
 27 57  1  0  0  0  0
 28 33  1  0  0  0  0
 29 35  1  0  0  0  0
 29 58  1  0  0  0  0
 29 59  1  0  0  0  0
 30 32  2  0  0  0  0
 30 60  1  0  0  0  0
 31 32  1  0  0  0  0
 31 61  1  0  0  0  0
 33 62  1  0  0  0  0
 33 63  1  0  0  0  0
 33 64  1  0  0  0  0
 34 65  1  0  0  0  0
M  END
> <PUBCHEM_COMPOUND_CID>
4339

> <PUBCHEM_COMPOUND_CANONICALIZED>
1

> <PUBCHEM_CACTVS_COMPLEXITY>
780

> <PUBCHEM_CACTVS_HBOND_ACCEPTOR>
8

> <PUBCHEM_CACTVS_HBOND_DONOR>
6

> <PUBCHEM_CACTVS_ROTATABLE_BOND>
13

> <PUBCHEM_CACTVS_SUBSKEYS>
AAADcfB7vAAAAAAAAAAAAAAAAAAAAAAAAAAwAAAAAAAAAAABAAAAHgAQCAAADSzhmAYyDoLAAgCIAinSmAACAAAgIAAIiIGOCIgIZjqCkTOUcAAm1hGImAebyKCOIAAAAAAAAABAAAAAAAAAAAAAAAAAAA==

> <PUBCHEM_IUPAC_OPENEYE_NAME>
3-[2-[[2-[[2-acetamido-3-(4-hydroxyphenyl)propanoyl]amino]-3-methyl-butanoyl]amino]propanoylamino]-4-oxo-butanoic acid

> <PUBCHEM_IUPAC_CAS_NAME>
3-[[2-[[2-[[2-acetamido-3-(4-hydroxyphenyl)-1-oxopropyl]amino]-3-methyl-1-oxobutyl]amino]-1-oxopropyl]amino]-4-oxobutanoic acid

> <PUBCHEM_IUPAC_NAME>
3-[2-[[2-[[2-acetamido-3-(4-hydroxyphenyl)propanoyl]amino]-3-methylbutanoyl]amino]propanoylamino]-4-oxobutanoic acid

> <PUBCHEM_IUPAC_SYSTEMATIC_NAME>
3-[2-[[2-[[2-acetamido-3-(4-hydroxyphenyl)propanoyl]amino]-3-methyl-butanoyl]amino]propanoylamino]-4-oxidanylidene-butanoic acid

> <PUBCHEM_IUPAC_TRADITIONAL_NAME>
3-[2-[[2-[[2-acetamido-3-(4-hydroxyphenyl)propanoyl]amino]-3-methyl-butanoyl]amino]propanoylamino]-4-keto-butyric acid

> <PUBCHEM_IUPAC_INCHI>
InChI=1S/C23H32N4O8/c1-12(2)20(23(35)24-13(3)21(33)26-16(11-28)10-19(31)32)27-22(34)18(25-14(4)29)9-15-5-7-17(30)8-6-15/h5-8,11-13,16,18,20,30H,9-10H2,1-4H3,(H,24,35)(H,25,29)(H,26,33)(H,27,34)(H,31,32)

> <PUBCHEM_IUPAC_INCHIKEY>
LPIARALSGDVZEP-UHFFFAOYSA-N

> <PUBCHEM_XLOGP3>
-0.8

> <PUBCHEM_EXACT_MASS>
492.222014

> <PUBCHEM_MOLECULAR_FORMULA>
C23H32N4O8

> <PUBCHEM_MOLECULAR_WEIGHT>
492.52218

> <PUBCHEM_OPENEYE_CAN_SMILES>
CC(C)C(C(=O)NC(C)C(=O)NC(CC(=O)O)C=O)NC(=O)C(CC1=CC=C(C=C1)O)NC(=O)C

> <PUBCHEM_OPENEYE_ISO_SMILES>
CC(C)C(C(=O)NC(C)C(=O)NC(CC(=O)O)C=O)NC(=O)C(CC1=CC=C(C=C1)O)NC(=O)C

> <PUBCHEM_CACTVS_TPSA>
191

> <PUBCHEM_MONOISOTOPIC_WEIGHT>
492.222014

> <PUBCHEM_TOTAL_CHARGE>
0

> <PUBCHEM_HEAVY_ATOM_COUNT>
35

> <PUBCHEM_ATOM_DEF_STEREO_COUNT>
0

> <PUBCHEM_ATOM_UDEF_STEREO_COUNT>
4

> <PUBCHEM_BOND_DEF_STEREO_COUNT>
0

> <PUBCHEM_BOND_UDEF_STEREO_COUNT>
0

> <PUBCHEM_ISOTOPIC_ATOM_COUNT>
0

> <PUBCHEM_COMPONENT_COUNT>
1

> <PUBCHEM_CACTVS_TAUTO_COUNT>
64

> <PUBCHEM_COORDINATE_TYPE>
1
5
255

> <PUBCHEM_BONDANNOTATIONS>
13  36  3
15  39  3
21  48  3
22  26  8
22  27  8
25  55  3
26  30  8
27  31  8
30  32  8
31  32  8

$$$$

