5491378
  -OEChem-07051213092D

 30 33  0     0  0  0  0  0  0999 V2000
    2.0000    1.0000    0.0000 Br  0  0  0  0  0  0  0  0  0  0  0  0
   11.2558   -1.0000    0.0000 Br  0  0  0  0  0  0  0  0  0  0  0  0
    5.8550   -1.7552    0.0000 O   0  0  0  0  0  0  0  0  0  0  0  0
    7.4008    1.7552    0.0000 O   0  0  0  0  0  0  0  0  0  0  0  0
    5.5443    0.8047    0.0000 N   0  0  0  0  0  0  0  0  0  0  0  0
    7.7115   -0.8047    0.0000 N   0  0  0  0  0  0  0  0  0  0  0  0
    6.1279    0.0000    0.0000 C   0  0  0  0  0  0  0  0  0  0  0  0
    7.1279    0.0000    0.0000 C   0  0  0  0  0  0  0  0  0  0  0  0
    4.5981    0.5000    0.0000 C   0  0  0  0  0  0  0  0  0  0  0  0
    8.6577   -0.5000    0.0000 C   0  0  0  0  0  0  0  0  0  0  0  0
    4.5981   -0.5000    0.0000 C   0  0  0  0  0  0  0  0  0  0  0  0
    8.6577    0.5000    0.0000 C   0  0  0  0  0  0  0  0  0  0  0  0
    5.5443   -0.8047    0.0000 C   0  0  0  0  0  0  0  0  0  0  0  0
    7.7115    0.8047    0.0000 C   0  0  0  0  0  0  0  0  0  0  0  0
    3.7320    1.0000    0.0000 C   0  0  0  0  0  0  0  0  0  0  0  0
    9.5238   -1.0000    0.0000 C   0  0  0  0  0  0  0  0  0  0  0  0
    3.7320   -1.0000    0.0000 C   0  0  0  0  0  0  0  0  0  0  0  0
    9.5238    1.0000    0.0000 C   0  0  0  0  0  0  0  0  0  0  0  0
    2.8660    0.5000    0.0000 C   0  0  0  0  0  0  0  0  0  0  0  0
   10.3898   -0.5000    0.0000 C   0  0  0  0  0  0  0  0  0  0  0  0
    2.8660   -0.5000    0.0000 C   0  0  0  0  0  0  0  0  0  0  0  0
   10.3898    0.5000    0.0000 C   0  0  0  0  0  0  0  0  0  0  0  0
    5.7369    1.3940    0.0000 H   0  0  0  0  0  0  0  0  0  0  0  0
    7.5189   -1.3940    0.0000 H   0  0  0  0  0  0  0  0  0  0  0  0
    3.7320    1.6200    0.0000 H   0  0  0  0  0  0  0  0  0  0  0  0
    9.5238   -1.6200    0.0000 H   0  0  0  0  0  0  0  0  0  0  0  0
    3.7320   -1.6200    0.0000 H   0  0  0  0  0  0  0  0  0  0  0  0
    9.5238    1.6200    0.0000 H   0  0  0  0  0  0  0  0  0  0  0  0
    2.3291   -0.8100    0.0000 H   0  0  0  0  0  0  0  0  0  0  0  0
   10.9267    0.8100    0.0000 H   0  0  0  0  0  0  0  0  0  0  0  0
  1 19  1  0  0  0  0
  2 20  1  0  0  0  0
  3 13  2  0  0  0  0
  4 14  2  0  0  0  0
  5  7  1  0  0  0  0
  5  9  1  0  0  0  0
  5 23  1  0  0  0  0
  6  8  1  0  0  0  0
  6 10  1  0  0  0  0
  6 24  1  0  0  0  0
  7  8  2  0  0  0  0
  7 13  1  0  0  0  0
  8 14  1  0  0  0  0
  9 11  2  0  0  0  0
  9 15  1  0  0  0  0
 10 12  2  0  0  0  0
 10 16  1  0  0  0  0
 11 13  1  0  0  0  0
 11 17  1  0  0  0  0
 12 14  1  0  0  0  0
 12 18  1  0  0  0  0
 15 19  2  0  0  0  0
 15 25  1  0  0  0  0
 16 20  2  0  0  0  0
 16 26  1  0  0  0  0
 17 21  2  0  0  0  0
 17 27  1  0  0  0  0
 18 22  2  0  0  0  0
 18 28  1  0  0  0  0
 19 21  1  0  0  0  0
 20 22  1  0  0  0  0
 21 29  1  0  0  0  0
 22 30  1  0  0  0  0
M  END
> <PUBCHEM_COMPOUND_CID>
5491378

> <PUBCHEM_COMPOUND_CANONICALIZED>
1

> <PUBCHEM_CACTVS_COMPLEXITY>
514

> <PUBCHEM_CACTVS_HBOND_ACCEPTOR>
4

> <PUBCHEM_CACTVS_HBOND_DONOR>
2

> <PUBCHEM_CACTVS_ROTATABLE_BOND>
0

> <PUBCHEM_CACTVS_SUBSKEYS>
AAADccB7MAAAGAAAAAAAAAAAAAAAAWLAAAAwYAAAAAAAAFgBQAAAHgBQAAABrAyBmAAwwILAAACIAqRSQACCAAAlAgQIiAGAZOgIIDrAlbGEIYhgkADIy9cYiICOAgAAAAECAAAEAAAAAgQAAAAAAAAAAA==

> <PUBCHEM_IUPAC_OPENEYE_NAME>
(2E)-6-bromo-2-(6-bromo-3-oxo-indolin-2-ylidene)indolin-3-one

> <PUBCHEM_IUPAC_CAS_NAME>
(2E)-6-bromo-2-(6-bromo-3-oxo-1H-indol-2-ylidene)-1H-indol-3-one

> <PUBCHEM_IUPAC_NAME>
(2E)-6-bromo-2-(6-bromo-3-oxo-1H-indol-2-ylidene)-1H-indol-3-one

> <PUBCHEM_IUPAC_SYSTEMATIC_NAME>
(2E)-6-bromanyl-2-(6-bromanyl-3-oxidanylidene-1H-indol-2-ylidene)-1H-indol-3-one

> <PUBCHEM_IUPAC_TRADITIONAL_NAME>
(2E)-6-bromo-2-(6-bromo-3-keto-indolin-2-ylidene)pseudoindoxyl

> <PUBCHEM_IUPAC_INCHI>
InChI=1S/C16H8Br2N2O2/c17-7-1-3-9-11(5-7)19-13(15(9)21)14-16(22)10-4-2-8(18)6-12(10)20-14/h1-6,19-20H/b14-13+

> <PUBCHEM_IUPAC_INCHIKEY>
ZVAPIIDBWWULJN-BUHFOSPRSA-N

> <PUBCHEM_XLOGP3>
5.1

> <PUBCHEM_EXACT_MASS>
419.893205

> <PUBCHEM_MOLECULAR_FORMULA>
C16H8Br2N2O2

> <PUBCHEM_MOLECULAR_WEIGHT>
420.05492

> <PUBCHEM_OPENEYE_CAN_SMILES>
C1=CC2=C(C=C1Br)NC(=C3C(=O)C4=C(N3)C=C(C=C4)Br)C2=O

> <PUBCHEM_OPENEYE_ISO_SMILES>
C1=CC2=C(C=C1Br)N/C(=C/3\C(=O)C4=C(N3)C=C(C=C4)Br)/C2=O

> <PUBCHEM_CACTVS_TPSA>
58.2

> <PUBCHEM_MONOISOTOPIC_WEIGHT>
417.895252

> <PUBCHEM_TOTAL_CHARGE>
0

> <PUBCHEM_HEAVY_ATOM_COUNT>
22

> <PUBCHEM_ATOM_DEF_STEREO_COUNT>
0

> <PUBCHEM_ATOM_UDEF_STEREO_COUNT>
0

> <PUBCHEM_BOND_DEF_STEREO_COUNT>
1

> <PUBCHEM_BOND_UDEF_STEREO_COUNT>
0

> <PUBCHEM_ISOTOPIC_ATOM_COUNT>
0

> <PUBCHEM_COMPONENT_COUNT>
1

> <PUBCHEM_CACTVS_TAUTO_COUNT>
28

> <PUBCHEM_COORDINATE_TYPE>
1
5
255

> <PUBCHEM_BONDANNOTATIONS>
10  12  8
10  16  8
11  17  8
12  18  8
15  19  8
16  20  8
17  21  8
18  22  8
19  21  8
20  22  8
9  11  8
9  15  8

$$$$

