17395833
  -OEChem-06241222523D

 37 39  0     0  0  0  0  0  0999 V2000
    5.0494   -1.4453    2.6570 Cl  0  0  0  0  0  0  0  0  0  0  0  0
    4.3209   -2.0277   -2.6590 Cl  0  0  0  0  0  0  0  0  0  0  0  0
   -4.9164   -0.8957    1.4268 S   0  0  0  0  0  0  0  0  0  0  0  0
    2.4011    2.8024   -0.1911 O   0  0  0  0  0  0  0  0  0  0  0  0
   -4.3148    1.8716   -0.0673 O   0  0  0  0  0  0  0  0  0  0  0  0
    0.5455    1.4390    0.2183 N   0  0  0  0  0  0  0  0  0  0  0  0
   -2.1880    1.0102   -0.3670 N   0  0  0  0  0  0  0  0  0  0  0  0
   -0.0481    0.1134    0.4520 C   0  0  0  0  0  0  0  0  0  0  0  0
   -0.3980    2.5558    0.3084 C   0  0  0  0  0  0  0  0  0  0  0  0
   -1.2371   -0.1071   -0.4782 C   0  0  0  0  0  0  0  0  0  0  0  0
   -1.5966    2.3292   -0.6096 C   0  0  0  0  0  0  0  0  0  0  0  0
    1.9009    1.6960    0.0046 C   0  0  0  0  0  0  0  0  0  0  0  0
   -3.5722    0.8917   -0.1507 C   0  0  0  0  0  0  0  0  0  0  0  0
    2.8249    0.5564    0.0027 C   0  0  0  0  0  0  0  0  0  0  0  0
   -4.1172   -0.4548   -0.0220 C   0  0  0  0  0  0  0  0  0  0  0  0
    3.1013   -0.1154   -1.1881 C   0  0  0  0  0  0  0  0  0  0  0  0
    3.4274    0.1452    1.1916 C   0  0  0  0  0  0  0  0  0  0  0  0
   -4.0899   -1.4884   -0.9323 C   0  0  0  0  0  0  0  0  0  0  0  0
    4.3064   -0.9378    1.1899 C   0  0  0  0  0  0  0  0  0  0  0  0
    3.9803   -1.1984   -1.1897 C   0  0  0  0  0  0  0  0  0  0  0  0
   -4.7341   -2.6575   -0.4339 C   0  0  0  0  0  0  0  0  0  0  0  0
    4.5828   -1.6097   -0.0008 C   0  0  0  0  0  0  0  0  0  0  0  0
   -5.2287   -2.4731    0.8384 C   0  0  0  0  0  0  0  0  0  0  0  0
   -0.3725    0.0918    1.4994 H   0  0  0  0  0  0  0  0  0  0  0  0
    0.6781   -0.6902    0.3155 H   0  0  0  0  0  0  0  0  0  0  0  0
    0.0918    3.5024    0.0594 H   0  0  0  0  0  0  0  0  0  0  0  0
   -0.7241    2.6146    1.3538 H   0  0  0  0  0  0  0  0  0  0  0  0
   -0.9098   -0.1514   -1.5235 H   0  0  0  0  0  0  0  0  0  0  0  0
   -1.6885   -1.0653   -0.2231 H   0  0  0  0  0  0  0  0  0  0  0  0
   -2.3331    3.1255   -0.4663 H   0  0  0  0  0  0  0  0  0  0  0  0
   -1.2832    2.3513   -1.6602 H   0  0  0  0  0  0  0  0  0  0  0  0
    2.6289    0.2077   -2.1132 H   0  0  0  0  0  0  0  0  0  0  0  0
    3.2089    0.6715    2.1184 H   0  0  0  0  0  0  0  0  0  0  0  0
   -3.6380   -1.4149   -1.9136 H   0  0  0  0  0  0  0  0  0  0  0  0
   -4.8310   -3.5859   -0.9814 H   0  0  0  0  0  0  0  0  0  0  0  0
    5.2681   -2.4545   -0.0023 H   0  0  0  0  0  0  0  0  0  0  0  0
   -5.7589   -3.1891    1.4503 H   0  0  0  0  0  0  0  0  0  0  0  0
  1 19  1  0  0  0  0
  2 20  1  0  0  0  0
  3 15  1  0  0  0  0
  3 23  1  0  0  0  0
  4 12  2  0  0  0  0
  5 13  2  0  0  0  0
  6  8  1  0  0  0  0
  6  9  1  0  0  0  0
  6 12  1  0  0  0  0
  7 10  1  0  0  0  0
  7 11  1  0  0  0  0
  7 13  1  0  0  0  0
  8 10  1  0  0  0  0
  8 24  1  0  0  0  0
  8 25  1  0  0  0  0
  9 11  1  0  0  0  0
  9 26  1  0  0  0  0
  9 27  1  0  0  0  0
 10 28  1  0  0  0  0
 10 29  1  0  0  0  0
 11 30  1  0  0  0  0
 11 31  1  0  0  0  0
 12 14  1  0  0  0  0
 13 15  1  0  0  0  0
 14 16  2  0  0  0  0
 14 17  1  0  0  0  0
 15 18  2  0  0  0  0
 16 20  1  0  0  0  0
 16 32  1  0  0  0  0
 17 19  2  0  0  0  0
 17 33  1  0  0  0  0
 18 21  1  0  0  0  0
 18 34  1  0  0  0  0
 19 22  1  0  0  0  0
 20 22  2  0  0  0  0
 21 23  2  0  0  0  0
 21 35  1  0  0  0  0
 22 36  1  0  0  0  0
 23 37  1  0  0  0  0
M  END
> <PUBCHEM_COMPOUND_CID>
17395833

> <PUBCHEM_CONFORMER_RMSD>
0.8

> <PUBCHEM_CONFORMER_DIVERSEORDER>
1
21
35
14
18
25
32
34
38
36
17
23
6
40
29
19
11
31
28
22
37
7
3
27
4
15
33
12
26
20
5
8
10
9
24
16
39
13
30
2

> <PUBCHEM_MMFF94_PARTIAL_CHARGES>
29
1 -0.18
10 0.3
11 0.3
12 0.54
13 0.71
14 0.09
15 -0.05
16 -0.15
17 -0.15
18 -0.15
19 0.18
2 -0.18
20 0.18
21 -0.15
22 -0.15
23 -0.11
3 -0.08
32 0.15
33 0.15
34 0.15
35 0.15
36 0.15
37 0.15
4 -0.57
5 -0.57
6 -0.66
7 -0.66
8 0.3
9 0.3

> <PUBCHEM_EFFECTIVE_ROTOR_COUNT>
5.2

> <PUBCHEM_PHARMACOPHORE_FEATURES>
5
1 4 acceptor
1 5 acceptor
5 3 15 18 21 23 rings
6 14 16 17 19 20 22 rings
6 6 7 8 9 10 11 rings

> <PUBCHEM_HEAVY_ATOM_COUNT>
23

> <PUBCHEM_ATOM_DEF_STEREO_COUNT>
0

> <PUBCHEM_ATOM_UDEF_STEREO_COUNT>
0

> <PUBCHEM_BOND_DEF_STEREO_COUNT>
0

> <PUBCHEM_BOND_UDEF_STEREO_COUNT>
0

> <PUBCHEM_ISOTOPIC_ATOM_COUNT>
0

> <PUBCHEM_COMPONENT_COUNT>
1

> <PUBCHEM_CACTVS_TAUTO_COUNT>
1

> <PUBCHEM_CONFORMER_ID>
0109707900000001

> <PUBCHEM_MMFF94_ENERGY>
56.1215

> <PUBCHEM_FEATURE_SELFOVERLAP>
25.371

> <PUBCHEM_SHAPE_FINGERPRINT>
10928967 22 18272081682687928763
11405975 8 18409165524221960161
11796584 16 18340207500216496052
12422481 6 17968359205323547927
12616971 3 16845008034409494465
12623949 98 18120077404414792327
12769317 202 12894777100662579078
12892183 10 16732700549552018753
13255334 9 18408318882592460991
13583140 156 16226057686375102201
13675066 3 17821453477477853869
13911882 115 17967535705452833614
13965767 371 7853293056568700262
14187579 7 13326863210248147135
14216079 64 18340204078209483003
14251740 57 17968369070330709606
14251751 18 18272380784136062362
14528608 73 11527954426313123155
14848178 5 18059871557338382090
14848178 96 9150905970231957567
15342816 4 18201156641903705180
15537594 2 18130215064652042883
17349148 13 17775280586207597403
17492 89 18409165485065724271
17857418 61 18201446873749280131
1813 80 18130784525807611517
193927 3 18410568470766981471
20403669 9 18410855434822990999
20626108 58 17917439769537012192
20645477 70 18339637828818409660
21065201 7 18118685654648336412
21315763 87 17240773839267105319
21315764 119 16629985320464076207
21968339 14 14764343804844038006
22950370 63 18339632365799428653
23379529 103 18261944210938122174
23559900 14 18260824951498975612
25222932 49 18341905060961786226
268830 7 14273461391802947410
312423 11 18342166739885570837
312425 83 14620795998368515458
44062 13 18271247217986948229
463206 1 18059299884522881778
497634 4 14189278405816201317
5104073 3 18408325467104776697
613672 6 18261686972604170596
633830 44 14261072133631285717
7808743 9 8069728737778147898
7970288 3 18341053037949943930
960060 61 17132113537330986366
9709674 26 18341610352626009297

> <PUBCHEM_SHAPE_MULTIPOLES>
459.22
13.47
3.05
1.79
4.59
0.73
-0.16
-10.65
-2.33
1.56
0.41
-3.21
-1.43
0.68

> <PUBCHEM_SHAPE_SELFOVERLAP>
952.479

> <PUBCHEM_SHAPE_VOLUME>
264.2

> <PUBCHEM_COORDINATE_TYPE>
2
5
10

$$$$

