13892
  -OEChem-06241222403D

 31 32  0     0  0  0  0  0  0999 V2000
   -0.9167   -2.0593    0.7232 O   0  0  0  0  0  0  0  0  0  0  0  0
    0.7265    0.1684    0.0829 C   0  0  0  0  0  0  0  0  0  0  0  0
    1.5920    1.4034    0.0427 C   0  0  0  0  0  0  0  0  0  0  0  0
    1.4317   -1.1591   -0.0457 C   0  0  0  0  0  0  0  0  0  0  0  0
   -0.6048    0.2469    0.2258 C   0  0  0  0  0  0  0  0  0  0  0  0
    2.9969    1.1053    0.5605 C   0  0  0  0  0  0  0  0  0  0  0  0
    2.7200   -1.0193   -0.8531 C   0  0  0  0  0  0  0  0  0  0  0  0
    3.6889   -0.0060   -0.2355 C   0  0  0  0  0  0  0  0  0  0  0  0
   -1.3649    1.5343    0.3286 C   0  0  0  0  0  0  0  0  0  0  0  0
   -2.6363    1.5116   -0.5164 C   0  0  0  0  0  0  0  0  0  0  0  0
   -3.4969    0.3020   -0.1658 C   0  0  0  0  0  0  0  0  0  0  0  0
   -2.7500   -1.0043   -0.4029 C   0  0  0  0  0  0  0  0  0  0  0  0
   -1.3866   -1.0240    0.2556 C   0  0  0  0  0  0  0  0  0  0  0  0
    1.6523    1.7721   -0.9885 H   0  0  0  0  0  0  0  0  0  0  0  0
    1.1882    2.2073    0.6665 H   0  0  0  0  0  0  0  0  0  0  0  0
    1.6663   -1.5576    0.9485 H   0  0  0  0  0  0  0  0  0  0  0  0
    0.8477   -1.8981   -0.6020 H   0  0  0  0  0  0  0  0  0  0  0  0
    3.6115    2.0126    0.5337 H   0  0  0  0  0  0  0  0  0  0  0  0
    2.9365    0.8042    1.6149 H   0  0  0  0  0  0  0  0  0  0  0  0
    3.2175   -1.9917   -0.9471 H   0  0  0  0  0  0  0  0  0  0  0  0
    2.4738   -0.6987   -1.8744 H   0  0  0  0  0  0  0  0  0  0  0  0
    4.2933    0.4347   -1.0377 H   0  0  0  0  0  0  0  0  0  0  0  0
    4.3937   -0.5239    0.4264 H   0  0  0  0  0  0  0  0  0  0  0  0
   -1.6285    1.7025    1.3803 H   0  0  0  0  0  0  0  0  0  0  0  0
   -0.7846    2.4022    0.0032 H   0  0  0  0  0  0  0  0  0  0  0  0
   -3.2075    2.4309   -0.3430 H   0  0  0  0  0  0  0  0  0  0  0  0
   -2.3794    1.4882   -1.5830 H   0  0  0  0  0  0  0  0  0  0  0  0
   -4.4144    0.3135   -0.7648 H   0  0  0  0  0  0  0  0  0  0  0  0
   -3.7996    0.3658    0.8870 H   0  0  0  0  0  0  0  0  0  0  0  0
   -2.6060   -1.1777   -1.4754 H   0  0  0  0  0  0  0  0  0  0  0  0
   -3.3428   -1.8341   -0.0026 H   0  0  0  0  0  0  0  0  0  0  0  0
  1 13  2  0  0  0  0
  2  3  1  0  0  0  0
  2  4  1  0  0  0  0
  2  5  2  0  0  0  0
  3  6  1  0  0  0  0
  3 14  1  0  0  0  0
  3 15  1  0  0  0  0
  4  7  1  0  0  0  0
  4 16  1  0  0  0  0
  4 17  1  0  0  0  0
  5  9  1  0  0  0  0
  5 13  1  0  0  0  0
  6  8  1  0  0  0  0
  6 18  1  0  0  0  0
  6 19  1  0  0  0  0
  7  8  1  0  0  0  0
  7 20  1  0  0  0  0
  7 21  1  0  0  0  0
  8 22  1  0  0  0  0
  8 23  1  0  0  0  0
  9 10  1  0  0  0  0
  9 24  1  0  0  0  0
  9 25  1  0  0  0  0
 10 11  1  0  0  0  0
 10 26  1  0  0  0  0
 10 27  1  0  0  0  0
 11 12  1  0  0  0  0
 11 28  1  0  0  0  0
 11 29  1  0  0  0  0
 12 13  1  0  0  0  0
 12 30  1  0  0  0  0
 12 31  1  0  0  0  0
M  END
> <PUBCHEM_COMPOUND_CID>
13892

> <PUBCHEM_CONFORMER_RMSD>
0.6

> <PUBCHEM_CONFORMER_DIVERSEORDER>
1
4
2
3

> <PUBCHEM_MMFF94_PARTIAL_CHARGES>
8
1 -0.57
12 0.06
13 0.49
2 -0.28
3 0.14
4 0.14
5 -0.12
9 0.14

> <PUBCHEM_EFFECTIVE_ROTOR_COUNT>
1.8

> <PUBCHEM_PHARMACOPHORE_FEATURES>
3
1 1 acceptor
6 2 3 4 6 7 8 rings
6 5 9 10 11 12 13 rings

> <PUBCHEM_HEAVY_ATOM_COUNT>
13

> <PUBCHEM_ATOM_DEF_STEREO_COUNT>
0

> <PUBCHEM_ATOM_UDEF_STEREO_COUNT>
0

> <PUBCHEM_BOND_DEF_STEREO_COUNT>
0

> <PUBCHEM_BOND_UDEF_STEREO_COUNT>
0

> <PUBCHEM_ISOTOPIC_ATOM_COUNT>
0

> <PUBCHEM_COMPONENT_COUNT>
1

> <PUBCHEM_CACTVS_TAUTO_COUNT>
5

> <PUBCHEM_CONFORMER_ID>
0000364400000001

> <PUBCHEM_MMFF94_ENERGY>
20.727

> <PUBCHEM_FEATURE_SELFOVERLAP>
15.223

> <PUBCHEM_SHAPE_FINGERPRINT>
10608611 8 18408890615833461472
10922523 26 18408602565145328117
11132069 177 18336836315924504505
11206711 2 18411976974920894335
12032990 46 18339636738097397475
12716758 59 18412826871739620499
12897270 3 18407760326379923332
12932764 1 18201156654039572633
13380535 76 18410578387656706738
14144814 61 18341614840740142200
14325111 11 18410294730699485605
15219456 202 18334013869649661520
15775835 57 18059293283083845717
16945 1 18342172232916159611
17844478 74 18200863011942589657
18186145 218 18337954605281121885
200 152 17313107453298107908
20201158 50 18333730221482848126
20279233 1 18334574625196476482
20645476 183 17418086607320726194
20645477 70 17968377947827449142
21501502 16 18408885144092196344
22802520 49 18336256881939147155
23402539 116 18339375096852184157
23402655 69 18261397792514302469
23552423 10 18342174444845409495
23559900 14 18334861658240676330
25 1 18268148841174163933
2748010 2 17401206672956422705
305870 269 17845383304511123723
353137 74 18339084886249707361
53812653 166 18410857689501044720
6333449 129 18410294705071859805
69090 78 18260835890738369815
7364860 26 18265901452413841122
81228 2 18128250082807125427
8809292 202 18412540985884458698
9709674 26 18335699412501477078

> <PUBCHEM_SHAPE_MULTIPOLES>
261.66
5.85
1.83
0.78
0.99
0.1
0.03
-0.55
0.85
-0.37
-0.14
0.08
0.07
0.48

> <PUBCHEM_SHAPE_SELFOVERLAP>
537.136

> <PUBCHEM_SHAPE_VOLUME>
148.8

> <PUBCHEM_COORDINATE_TYPE>
2
5
10

$$$$

