91438
  -OEChem-07051213053D

 57 60  0     1  0  0  0  0  0999 V2000
    2.3842    0.9501    1.8903 O   0  0  0  0  0  0  0  0  0  0  0  0
   -0.6908   -2.1032   -1.1603 O   0  0  0  0  0  0  0  0  0  0  0  0
    4.4707    1.8203   -0.4396 O   0  0  0  0  0  0  0  0  0  0  0  0
    5.4490   -0.6829    0.1750 O   0  0  0  0  0  0  0  0  0  0  0  0
   -6.6502   -1.4334    1.5255 O   0  0  0  0  0  0  0  0  0  0  0  0
    5.1997   -2.9788    0.1115 O   0  0  0  0  0  0  0  0  0  0  0  0
    1.1445    0.6980   -0.2378 C   0  0  1  0  0  0  0  0  0  0  0  0
    0.0070    1.6061    0.2907 C   0  0  2  0  0  0  0  0  0  0  0  0
   -1.3531    1.3059   -0.3576 C   0  0  1  0  0  0  0  0  0  0  0  0
   -1.7448   -0.1783   -0.0568 C   0  0  1  0  0  0  0  0  0  0  0  0
    2.3453    1.3234    0.5163 C   0  0  1  0  0  0  0  0  0  0  0  0
    0.5830    3.0135    0.1543 C   0  0  0  0  0  0  0  0  0  0  0  0
    0.7953   -0.7490    0.1255 C   0  0  0  0  0  0  0  0  0  0  0  0
    2.0876    2.8443    0.4464 C   0  0  0  0  0  0  0  0  0  0  0  0
   -3.1568   -0.5614   -0.6265 C   0  0  1  0  0  0  0  0  0  0  0  0
   -2.4342    2.2732    0.1470 C   0  0  0  0  0  0  0  0  0  0  0  0
   -0.5684   -1.1019   -0.4575 C   0  0  0  0  0  0  0  0  0  0  0  0
    1.3530    0.8003   -1.7743 C   0  0  0  0  0  0  0  0  0  0  0  0
   -3.8043    1.9359   -0.4299 C   0  0  0  0  0  0  0  0  0  0  0  0
   -4.1562    0.4981   -0.1396 C   0  0  0  0  0  0  0  0  0  0  0  0
    3.7006    0.9611   -0.0132 C   0  0  0  0  0  0  0  0  0  0  0  0
   -3.1892   -0.5912   -2.1714 C   0  0  0  0  0  0  0  0  0  0  0  0
   -3.5606   -1.9500   -0.1469 C   0  0  0  0  0  0  0  0  0  0  0  0
   -5.2697    0.2119    0.5536 C   0  0  0  0  0  0  0  0  0  0  0  0
    4.0576   -0.5100    0.0088 C   0  0  0  0  0  0  0  0  0  0  0  0
   -4.6669   -2.2392    0.5456 C   0  0  0  0  0  0  0  0  0  0  0  0
   -5.6154   -1.1759    0.9201 C   0  0  0  0  0  0  0  0  0  0  0  0
    5.8977   -1.9788    0.2107 C   0  0  0  0  0  0  0  0  0  0  0  0
    7.3854   -2.0080    0.3900 C   0  0  0  0  0  0  0  0  0  0  0  0
   -0.1136    1.4259    1.3716 H   0  0  0  0  0  0  0  0  0  0  0  0
   -1.2681    1.4495   -1.4405 H   0  0  0  0  0  0  0  0  0  0  0  0
   -1.8070   -0.2868    1.0389 H   0  0  0  0  0  0  0  0  0  0  0  0
    0.1208    3.7129    0.8585 H   0  0  0  0  0  0  0  0  0  0  0  0
    0.4314    3.4133   -0.8547 H   0  0  0  0  0  0  0  0  0  0  0  0
    0.7413   -0.9083    1.2081 H   0  0  0  0  0  0  0  0  0  0  0  0
    1.5259   -1.4564   -0.2772 H   0  0  0  0  0  0  0  0  0  0  0  0
    2.6446    3.3473   -0.3517 H   0  0  0  0  0  0  0  0  0  0  0  0
    2.3411    3.3468    1.3872 H   0  0  0  0  0  0  0  0  0  0  0  0
   -2.1798    3.3026   -0.1313 H   0  0  0  0  0  0  0  0  0  0  0  0
   -2.4799    2.2434    1.2436 H   0  0  0  0  0  0  0  0  0  0  0  0
    1.6148    1.8134   -2.0952 H   0  0  0  0  0  0  0  0  0  0  0  0
    2.1560    0.1387   -2.1132 H   0  0  0  0  0  0  0  0  0  0  0  0
    0.4625    0.5064   -2.3378 H   0  0  0  0  0  0  0  0  0  0  0  0
   -3.8131    2.1101   -1.5119 H   0  0  0  0  0  0  0  0  0  0  0  0
   -4.5452    2.6238   -0.0044 H   0  0  0  0  0  0  0  0  0  0  0  0
   -2.8148    0.3345   -2.6187 H   0  0  0  0  0  0  0  0  0  0  0  0
   -2.5907   -1.4100   -2.5842 H   0  0  0  0  0  0  0  0  0  0  0  0
   -4.2130   -0.7343   -2.5410 H   0  0  0  0  0  0  0  0  0  0  0  0
   -2.9183   -2.7872   -0.4070 H   0  0  0  0  0  0  0  0  0  0  0  0
    3.0598    1.4881    2.3376 H   0  0  0  0  0  0  0  0  0  0  0  0
   -5.9498    0.9879    0.8887 H   0  0  0  0  0  0  0  0  0  0  0  0
    3.7428   -0.9594   -0.9373 H   0  0  0  0  0  0  0  0  0  0  0  0
    3.5519   -1.0002    0.8458 H   0  0  0  0  0  0  0  0  0  0  0  0
   -4.8985   -3.2566    0.8387 H   0  0  0  0  0  0  0  0  0  0  0  0
    7.6535   -1.5276    1.3342 H   0  0  0  0  0  0  0  0  0  0  0  0
    7.8692   -1.5036   -0.4500 H   0  0  0  0  0  0  0  0  0  0  0  0
    7.7275   -3.0466    0.4175 H   0  0  0  0  0  0  0  0  0  0  0  0
  1 11  1  0  0  0  0
  1 50  1  0  0  0  0
  2 17  2  0  0  0  0
  3 21  2  0  0  0  0
  4 25  1  0  0  0  0
  4 28  1  0  0  0  0
  5 27  2  0  0  0  0
  6 28  2  0  0  0  0
  7  8  1  0  0  0  0
  7 11  1  0  0  0  0
  7 13  1  0  0  0  0
  7 18  1  0  0  0  0
  8  9  1  0  0  0  0
  8 12  1  0  0  0  0
  8 30  1  0  0  0  0
  9 10  1  0  0  0  0
  9 16  1  0  0  0  0
  9 31  1  0  0  0  0
 10 15  1  0  0  0  0
 10 17  1  0  0  0  0
 10 32  1  0  0  0  0
 11 14  1  0  0  0  0
 11 21  1  0  0  0  0
 12 14  1  0  0  0  0
 12 33  1  0  0  0  0
 12 34  1  0  0  0  0
 13 17  1  0  0  0  0
 13 35  1  0  0  0  0
 13 36  1  0  0  0  0
 14 37  1  0  0  0  0
 14 38  1  0  0  0  0
 15 20  1  0  0  0  0
 15 22  1  0  0  0  0
 15 23  1  0  0  0  0
 16 19  1  0  0  0  0
 16 39  1  0  0  0  0
 16 40  1  0  0  0  0
 18 41  1  0  0  0  0
 18 42  1  0  0  0  0
 18 43  1  0  0  0  0
 19 20  1  0  0  0  0
 19 44  1  0  0  0  0
 19 45  1  0  0  0  0
 20 24  2  0  0  0  0
 21 25  1  0  0  0  0
 22 46  1  0  0  0  0
 22 47  1  0  0  0  0
 22 48  1  0  0  0  0
 23 26  2  0  0  0  0
 23 49  1  0  0  0  0
 24 27  1  0  0  0  0
 24 51  1  0  0  0  0
 25 52  1  0  0  0  0
 25 53  1  0  0  0  0
 26 27  1  0  0  0  0
 26 54  1  0  0  0  0
 28 29  1  0  0  0  0
 29 55  1  0  0  0  0
 29 56  1  0  0  0  0
 29 57  1  0  0  0  0
M  END
> <PUBCHEM_COMPOUND_CID>
91438

> <PUBCHEM_CONFORMER_RMSD>
0.8

> <PUBCHEM_CONFORMER_DIVERSEORDER>
3
2
12
11
5
8
1
13
10
6
9
7
4

> <PUBCHEM_MMFF94_PARTIAL_CHARGES>
25
1 -0.68
10 0.06
11 0.34
13 0.06
15 0.28
17 0.45
19 0.14
2 -0.57
20 -0.28
21 0.45
23 -0.29
24 -0.14
25 0.34
26 -0.14
27 0.54
28 0.66
29 0.06
3 -0.57
4 -0.43
49 0.15
5 -0.57
50 0.4
51 0.15
54 0.15
6 -0.57

> <PUBCHEM_EFFECTIVE_ROTOR_COUNT>
5.2

> <PUBCHEM_PHARMACOPHORE_FEATURES>
10
1 1 acceptor
1 1 donor
1 2 acceptor
1 3 acceptor
1 5 acceptor
1 6 acceptor
5 7 8 11 12 14 rings
6 15 20 23 24 26 27 rings
6 7 8 9 10 13 17 rings
6 9 10 15 16 19 20 rings

> <PUBCHEM_HEAVY_ATOM_COUNT>
29

> <PUBCHEM_ATOM_DEF_STEREO_COUNT>
6

> <PUBCHEM_ATOM_UDEF_STEREO_COUNT>
0

> <PUBCHEM_BOND_DEF_STEREO_COUNT>
0

> <PUBCHEM_BOND_UDEF_STEREO_COUNT>
0

> <PUBCHEM_ISOTOPIC_ATOM_COUNT>
0

> <PUBCHEM_COMPONENT_COUNT>
1

> <PUBCHEM_CACTVS_TAUTO_COUNT>
18

> <PUBCHEM_CONFORMER_ID>
0001652E00000003

> <PUBCHEM_MMFF94_ENERGY>
84.3772

> <PUBCHEM_FEATURE_SELFOVERLAP>
50.847

> <PUBCHEM_SHAPE_FINGERPRINT>
10319926 262 18336557095763322777
10366900 7 13758357756506545101
11135609 12 18413103978808476577
11135926 11 18265626373281705516
11456790 92 18040703772223094715
11578080 2 5905498311773616074
117089 54 18270390599123300827
12035758 1 17894352198364646230
12107183 9 18263072366251369577
12166972 35 17989480819060333436
12236239 1 17989203737429244228
12403259 226 18338241470584661997
12422481 6 17313387872145562926
12633257 1 16733264564615137677
13009979 54 18202275914085731893
13073987 5 18410011022735679888
13140716 1 17903640674853509465
13224815 77 18268154158808237797
13533116 47 18340765949392090952
13685833 64 18413669119585771418
13782708 43 17775006777716043682
14251764 30 18273214200991180898
14341114 176 18342173332855159281
14420673 8 18410854407919670859
14528608 73 9943809988836122770
14955137 171 18410572885756283833
15042514 8 18337670935644915552
15064986 96 18041828606878450039
15196674 1 18410294696408416516
15927050 60 17903357010044812766
17492 89 18266745679632727719
1813 80 17632301194328789780
18393751 57 16382581696463196809
19591789 44 18409733958468446342
1979834 28 17385997395441046510
21033648 29 17749685025334356305
21267235 1 18411414034090326122
21279426 13 18341617056969588804
21682296 61 18408320016580222239
22223350 30 17605286072869353643
22950370 63 18412542085285349004
23522609 53 18122590977858541161
23559900 14 18410303488343822928
3004659 81 18273215327137561214
335352 9 18336833090725987805
3383291 50 18342179964296123978
34797466 226 16415193421521538596
350125 39 18408881841077690429
3680242 22 18335408046278075497
46194498 28 17203046275408092228
465052 167 18407755946077654028
5104073 3 18260267460412239904
54039377 194 18411412947854334806
56633871 153 18334858277806476551
636775 8 18337662140559767678
7970288 3 18339364050407990259
999808 66 18202272620019570971

> <PUBCHEM_SHAPE_MULTIPOLES>
561.59
14.55
3.15
1.2
9.87
0.38
-0.29
-11.77
3.97
1.76
0.33
-0.85
-0.12
0.42

> <PUBCHEM_SHAPE_SELFOVERLAP>
1213.086

> <PUBCHEM_SHAPE_VOLUME>
304.8

> <PUBCHEM_COORDINATE_TYPE>
2
5
10

$$$$

