13103
  -OEChem-06261207452D

 65 65  0     1  0  0  0  0  0999 V2000
    6.5254    0.0000    0.0000 Cl  0  5  0  0  0  0  0  0  0  0  0  0
    4.0138    4.4766    0.0000 N   0  3  3  0  0  0  0  0  0  0  0  0
    2.4750    3.9766    0.0000 C   0  0  0  0  0  0  0  0  0  0  0  0
    3.0627    4.7856    0.0000 C   0  0  0  0  0  0  0  0  0  0  0  0
    3.0627    3.1676    0.0000 C   0  0  0  0  0  0  0  0  0  0  0  0
    4.0138    3.4766    0.0000 C   0  0  0  0  0  0  0  0  0  0  0  0
    1.9750    3.1106    0.0000 C   0  0  0  0  0  0  0  0  0  0  0  0
    1.9750    4.8426    0.0000 C   0  0  0  0  0  0  0  0  0  0  0  0
    0.9749    3.1106    0.0000 C   0  0  0  0  0  0  0  0  0  0  0  0
    0.9749    4.8426    0.0000 C   0  0  0  0  0  0  0  0  0  0  0  0
    5.0138    4.4766    0.0000 C   0  0  0  0  0  0  0  0  0  0  0  0
    0.4749    3.9766    0.0000 C   0  0  0  0  0  0  0  0  0  0  0  0
    5.5138    5.3426    0.0000 C   0  0  0  0  0  0  0  0  0  0  0  0
    6.5138    5.3426    0.0000 C   0  0  0  0  0  0  0  0  0  0  0  0
    7.0138    6.2087    0.0000 C   0  0  0  0  0  0  0  0  0  0  0  0
    8.0138    6.2087    0.0000 C   0  0  0  0  0  0  0  0  0  0  0  0
    8.5138    7.0747    0.0000 C   0  0  0  0  0  0  0  0  0  0  0  0
    9.5138    7.0747    0.0000 C   0  0  0  0  0  0  0  0  0  0  0  0
   10.0138    7.9407    0.0000 C   0  0  0  0  0  0  0  0  0  0  0  0
   11.0138    7.9407    0.0000 C   0  0  0  0  0  0  0  0  0  0  0  0
   11.5138    8.8067    0.0000 C   0  0  0  0  0  0  0  0  0  0  0  0
   12.5138    8.8067    0.0000 C   0  0  0  0  0  0  0  0  0  0  0  0
   13.0138    9.6728    0.0000 C   0  0  0  0  0  0  0  0  0  0  0  0
    3.3149    5.3520    0.0000 H   0  0  0  0  0  0  0  0  0  0  0  0
    2.5258    5.0956    0.0000 H   0  0  0  0  0  0  0  0  0  0  0  0
    4.2054    5.0663    0.0000 H   0  0  0  0  0  0  0  0  0  0  0  0
    2.5258    2.8576    0.0000 H   0  0  0  0  0  0  0  0  0  0  0  0
    3.3149    2.6012    0.0000 H   0  0  0  0  0  0  0  0  0  0  0  0
    4.1427    2.8702    0.0000 H   0  0  0  0  0  0  0  0  0  0  0  0
    4.6304    3.5414    0.0000 H   0  0  0  0  0  0  0  0  0  0  0  0
    1.8673    2.5000    0.0000 H   0  0  0  0  0  0  0  0  0  0  0  0
    2.5576    2.8985    0.0000 H   0  0  0  0  0  0  0  0  0  0  0  0
    2.5576    5.0547    0.0000 H   0  0  0  0  0  0  0  0  0  0  0  0
    1.8673    5.4532    0.0000 H   0  0  0  0  0  0  0  0  0  0  0  0
    1.0826    5.4532    0.0000 H   0  0  0  0  0  0  0  0  0  0  0  0
    0.3923    5.0547    0.0000 H   0  0  0  0  0  0  0  0  0  0  0  0
    0.3923    2.8985    0.0000 H   0  0  0  0  0  0  0  0  0  0  0  0
    1.0826    2.5000    0.0000 H   0  0  0  0  0  0  0  0  0  0  0  0
    4.9061    3.8660    0.0000 H   0  0  0  0  0  0  0  0  0  0  0  0
    5.5964    4.2646    0.0000 H   0  0  0  0  0  0  0  0  0  0  0  0
    0.0000    4.3751    0.0000 H   0  0  0  0  0  0  0  0  0  0  0  0
    0.0000    3.5781    0.0000 H   0  0  0  0  0  0  0  0  0  0  0  0
    5.6214    5.9532    0.0000 H   0  0  0  0  0  0  0  0  0  0  0  0
    4.9312    5.5547    0.0000 H   0  0  0  0  0  0  0  0  0  0  0  0
    6.4061    4.7320    0.0000 H   0  0  0  0  0  0  0  0  0  0  0  0
    7.0964    5.1306    0.0000 H   0  0  0  0  0  0  0  0  0  0  0  0
    7.1214    6.8192    0.0000 H   0  0  0  0  0  0  0  0  0  0  0  0
    6.4312    6.4207    0.0000 H   0  0  0  0  0  0  0  0  0  0  0  0
    7.9061    5.5981    0.0000 H   0  0  0  0  0  0  0  0  0  0  0  0
    8.5964    5.9966    0.0000 H   0  0  0  0  0  0  0  0  0  0  0  0
    8.6214    7.6853    0.0000 H   0  0  0  0  0  0  0  0  0  0  0  0
    7.9312    7.2867    0.0000 H   0  0  0  0  0  0  0  0  0  0  0  0
    9.4061    6.4641    0.0000 H   0  0  0  0  0  0  0  0  0  0  0  0
   10.0964    6.8626    0.0000 H   0  0  0  0  0  0  0  0  0  0  0  0
   10.1215    8.5513    0.0000 H   0  0  0  0  0  0  0  0  0  0  0  0
    9.4312    8.1528    0.0000 H   0  0  0  0  0  0  0  0  0  0  0  0
   10.9061    7.3301    0.0000 H   0  0  0  0  0  0  0  0  0  0  0  0
   11.5964    7.7287    0.0000 H   0  0  0  0  0  0  0  0  0  0  0  0
   11.6215    9.4173    0.0000 H   0  0  0  0  0  0  0  0  0  0  0  0
   10.9312    9.0188    0.0000 H   0  0  0  0  0  0  0  0  0  0  0  0
   12.4061    8.1962    0.0000 H   0  0  0  0  0  0  0  0  0  0  0  0
   13.0964    8.5947    0.0000 H   0  0  0  0  0  0  0  0  0  0  0  0
   13.5507    9.3628    0.0000 H   0  0  0  0  0  0  0  0  0  0  0  0
   13.3238   10.2097    0.0000 H   0  0  0  0  0  0  0  0  0  0  0  0
   12.4769    9.9828    0.0000 H   0  0  0  0  0  0  0  0  0  0  0  0
  2  4  1  0  0  0  0
  2  6  1  0  0  0  0
  2 11  1  0  0  0  0
  2 26  1  0  0  0  0
  3  4  1  0  0  0  0
  3  5  1  0  0  0  0
  3  7  1  0  0  0  0
  3  8  1  0  0  0  0
  4 24  1  0  0  0  0
  4 25  1  0  0  0  0
  5  6  1  0  0  0  0
  5 27  1  0  0  0  0
  5 28  1  0  0  0  0
  6 29  1  0  0  0  0
  6 30  1  0  0  0  0
  7  9  1  0  0  0  0
  7 31  1  0  0  0  0
  7 32  1  0  0  0  0
  8 10  1  0  0  0  0
  8 33  1  0  0  0  0
  8 34  1  0  0  0  0
  9 12  1  0  0  0  0
  9 37  1  0  0  0  0
  9 38  1  0  0  0  0
 10 12  1  0  0  0  0
 10 35  1  0  0  0  0
 10 36  1  0  0  0  0
 11 13  1  0  0  0  0
 11 39  1  0  0  0  0
 11 40  1  0  0  0  0
 12 41  1  0  0  0  0
 12 42  1  0  0  0  0
 13 14  1  0  0  0  0
 13 43  1  0  0  0  0
 13 44  1  0  0  0  0
 14 15  1  0  0  0  0
 14 45  1  0  0  0  0
 14 46  1  0  0  0  0
 15 16  1  0  0  0  0
 15 47  1  0  0  0  0
 15 48  1  0  0  0  0
 16 17  1  0  0  0  0
 16 49  1  0  0  0  0
 16 50  1  0  0  0  0
 17 18  1  0  0  0  0
 17 51  1  0  0  0  0
 17 52  1  0  0  0  0
 18 19  1  0  0  0  0
 18 53  1  0  0  0  0
 18 54  1  0  0  0  0
 19 20  1  0  0  0  0
 19 55  1  0  0  0  0
 19 56  1  0  0  0  0
 20 21  1  0  0  0  0
 20 57  1  0  0  0  0
 20 58  1  0  0  0  0
 21 22  1  0  0  0  0
 21 59  1  0  0  0  0
 21 60  1  0  0  0  0
 22 23  1  0  0  0  0
 22 61  1  0  0  0  0
 22 62  1  0  0  0  0
 23 63  1  0  0  0  0
 23 64  1  0  0  0  0
 23 65  1  0  0  0  0
M  CHG  2   1  -1   2   1
M  END
> <PUBCHEM_COMPOUND_CID>
13103

> <PUBCHEM_COMPOUND_CANONICALIZED>
1

> <PUBCHEM_CACTVS_COMPLEXITY>
267

> <PUBCHEM_CACTVS_HBOND_ACCEPTOR>
1

> <PUBCHEM_CACTVS_HBOND_DONOR>
1

> <PUBCHEM_CACTVS_ROTATABLE_BOND>
11

> <PUBCHEM_CACTVS_SUBSKEYS>
AAADcfB6AAAEAAAAAAAAAAAAAAAAAWAAAAAwAAAAAAAAAAAAAAAAHAAQAAAADgDBAAQCAAPAAAAAAAAAAAAAAAAAAAAAAIAIAAAAAAIAgAAEAAAAEACAAAEQgMAPAAAAAAAAAAAAAAAAAAAAAAAAAAAAAA==

> <PUBCHEM_IUPAC_OPENEYE_NAME>
2-dodecyl-2-azoniaspiro[4.5]decane chloride

> <PUBCHEM_IUPAC_CAS_NAME>
2-dodecyl-2-azoniaspiro[4.5]decane chloride

> <PUBCHEM_IUPAC_NAME>
2-dodecyl-2-azoniaspiro[4.5]decane chloride

> <PUBCHEM_IUPAC_SYSTEMATIC_NAME>
2-dodecyl-2-azoniaspiro[4.5]decane chloride

> <PUBCHEM_IUPAC_TRADITIONAL_NAME>
2-lauryl-2-azoniaspiro[4.5]decane chloride

> <PUBCHEM_IUPAC_INCHI>
InChI=1S/C21H41N.ClH/c1-2-3-4-5-6-7-8-9-10-14-18-22-19-17-21(20-22)15-12-11-13-16-21;/h2-20H2,1H3;1H

> <PUBCHEM_IUPAC_INCHIKEY>
BEPCLDBBWBAQAQ-UHFFFAOYSA-N

> <PUBCHEM_EXACT_MASS>
343.300578

> <PUBCHEM_MOLECULAR_FORMULA>
C21H42ClN

> <PUBCHEM_MOLECULAR_WEIGHT>
344.01788

> <PUBCHEM_OPENEYE_CAN_SMILES>
CCCCCCCCCCCC[NH+]1CCC2(C1)CCCCC2.[Cl-]

> <PUBCHEM_OPENEYE_ISO_SMILES>
CCCCCCCCCCCC[NH+]1CCC2(C1)CCCCC2.[Cl-]

> <PUBCHEM_CACTVS_TPSA>
4.4

> <PUBCHEM_MONOISOTOPIC_WEIGHT>
343.300578

> <PUBCHEM_TOTAL_CHARGE>
0

> <PUBCHEM_HEAVY_ATOM_COUNT>
23

> <PUBCHEM_ATOM_DEF_STEREO_COUNT>
0

> <PUBCHEM_ATOM_UDEF_STEREO_COUNT>
0

> <PUBCHEM_BOND_DEF_STEREO_COUNT>
0

> <PUBCHEM_BOND_UDEF_STEREO_COUNT>
0

> <PUBCHEM_ISOTOPIC_ATOM_COUNT>
0

> <PUBCHEM_COMPONENT_COUNT>
2

> <PUBCHEM_CACTVS_TAUTO_COUNT>
1

> <PUBCHEM_COORDINATE_TYPE>
1
5
255

$$$$

