442356
  -OEChem-07051212572D

 29 30  0     1  0  0  0  0  0999 V2000
    2.0000   -0.7927    0.0000 O   0  0  0  0  0  0  0  0  0  0  0  0
    2.0000    1.2073    0.0000 O   0  0  0  0  0  0  0  0  0  0  0  0
    6.3981   -0.3135    0.0000 N   0  0  0  0  0  0  0  0  0  0  0  0
    5.4920   -0.8274    0.0000 C   0  0  2  0  0  0  0  0  0  0  0  0
    4.5981   -0.2927    0.0000 C   0  0  0  0  0  0  0  0  0  0  0  0
    4.5981    0.7073    0.0000 C   0  0  0  0  0  0  0  0  0  0  0  0
    5.4920    1.2420    0.0000 C   0  0  0  0  0  0  0  0  0  0  0  0
    6.3981    0.7281    0.0000 C   0  0  0  0  0  0  0  0  0  0  0  0
    5.4804   -1.8273    0.0000 C   0  0  0  0  0  0  0  0  0  0  0  0
    3.7320   -0.7927    0.0000 C   0  0  0  0  0  0  0  0  0  0  0  0
    3.7320    1.2073    0.0000 C   0  0  0  0  0  0  0  0  0  0  0  0
    2.8660   -0.2927    0.0000 C   0  0  0  0  0  0  0  0  0  0  0  0
    2.8660    0.7073    0.0000 C   0  0  0  0  0  0  0  0  0  0  0  0
    2.0000   -1.7927    0.0000 C   0  0  0  0  0  0  0  0  0  0  0  0
    6.0259   -1.1425    0.0000 H   0  0  0  0  0  0  0  0  0  0  0  0
    5.8856    1.7210    0.0000 H   0  0  0  0  0  0  0  0  0  0  0  0
    5.0874    1.7118    0.0000 H   0  0  0  0  0  0  0  0  0  0  0  0
    7.0089    0.6220    0.0000 H   0  0  0  0  0  0  0  0  0  0  0  0
    6.6071    1.3118    0.0000 H   0  0  0  0  0  0  0  0  0  0  0  0
    6.9338   -0.6256    0.0000 H   0  0  0  0  0  0  0  0  0  0  0  0
    4.8605   -1.8201    0.0000 H   0  0  0  0  0  0  0  0  0  0  0  0
    5.4733   -2.4473    0.0000 H   0  0  0  0  0  0  0  0  0  0  0  0
    6.1004   -1.8345    0.0000 H   0  0  0  0  0  0  0  0  0  0  0  0
    3.7320   -1.4127    0.0000 H   0  0  0  0  0  0  0  0  0  0  0  0
    3.7320    1.8273    0.0000 H   0  0  0  0  0  0  0  0  0  0  0  0
    2.0000    1.8273    0.0000 H   0  0  0  0  0  0  0  0  0  0  0  0
    1.3800   -1.7927    0.0000 H   0  0  0  0  0  0  0  0  0  0  0  0
    2.0000   -2.4127    0.0000 H   0  0  0  0  0  0  0  0  0  0  0  0
    2.6200   -1.7927    0.0000 H   0  0  0  0  0  0  0  0  0  0  0  0
  1 12  1  0  0  0  0
  1 14  1  0  0  0  0
  2 13  1  0  0  0  0
  2 26  1  0  0  0  0
  3  4  1  0  0  0  0
  3  8  1  0  0  0  0
  3 20  1  0  0  0  0
  4  5  1  0  0  0  0
  4  9  1  1  0  0  0
  4 15  1  0  0  0  0
  5  6  1  0  0  0  0
  5 10  2  0  0  0  0
  6  7  1  0  0  0  0
  6 11  2  0  0  0  0
  7  8  1  0  0  0  0
  7 16  1  0  0  0  0
  7 17  1  0  0  0  0
  8 18  1  0  0  0  0
  8 19  1  0  0  0  0
  9 21  1  0  0  0  0
  9 22  1  0  0  0  0
  9 23  1  0  0  0  0
 10 12  1  0  0  0  0
 10 24  1  0  0  0  0
 11 13  1  0  0  0  0
 11 25  1  0  0  0  0
 12 13  2  0  0  0  0
 14 27  1  0  0  0  0
 14 28  1  0  0  0  0
 14 29  1  0  0  0  0
M  END
> <PUBCHEM_COMPOUND_CID>
442356

> <PUBCHEM_COMPOUND_CANONICALIZED>
1

> <PUBCHEM_CACTVS_COMPLEXITY>
198

> <PUBCHEM_CACTVS_HBOND_ACCEPTOR>
3

> <PUBCHEM_CACTVS_HBOND_DONOR>
2

> <PUBCHEM_CACTVS_ROTATABLE_BOND>
1

> <PUBCHEM_CACTVS_SUBSKEYS>
AAADccByMAAAAAAAAAAAAAAAAAAAAAAAAAA8QAAAAAAAAACxAAAAHgAQCAAADCzBmAYyBoLABgCAAiBCAACCCAAgIAAAiIAOjIgNJiKGsRuEcCtk0BGLuAew0LMOoAABAAAQQABAAAIAACCAAAAAAAAAAA==

> <PUBCHEM_IUPAC_OPENEYE_NAME>
(1S)-7-methoxy-1-methyl-1,2,3,4-tetrahydroisoquinolin-6-ol

> <PUBCHEM_IUPAC_CAS_NAME>
(1S)-7-methoxy-1-methyl-1,2,3,4-tetrahydroisoquinolin-6-ol

> <PUBCHEM_IUPAC_NAME>
(1S)-7-methoxy-1-methyl-1,2,3,4-tetrahydroisoquinolin-6-ol

> <PUBCHEM_IUPAC_SYSTEMATIC_NAME>
(1S)-7-methoxy-1-methyl-1,2,3,4-tetrahydroisoquinolin-6-ol

> <PUBCHEM_IUPAC_TRADITIONAL_NAME>
(1S)-7-methoxy-1-methyl-1,2,3,4-tetrahydroisoquinolin-6-ol

> <PUBCHEM_IUPAC_INCHI>
InChI=1S/C11H15NO2/c1-7-9-6-11(14-2)10(13)5-8(9)3-4-12-7/h5-7,12-13H,3-4H2,1-2H3/t7-/m0/s1

> <PUBCHEM_IUPAC_INCHIKEY>
YTPRLBGPGZHUPD-ZETCQYMHSA-N

> <PUBCHEM_XLOGP3_AA>
1.3

> <PUBCHEM_EXACT_MASS>
193.110279

> <PUBCHEM_MOLECULAR_FORMULA>
C11H15NO2

> <PUBCHEM_MOLECULAR_WEIGHT>
193.2423

> <PUBCHEM_OPENEYE_CAN_SMILES>
CC1C2=CC(=C(C=C2CCN1)O)OC

> <PUBCHEM_OPENEYE_ISO_SMILES>
C[C@H]1C2=CC(=C(C=C2CCN1)O)OC

> <PUBCHEM_CACTVS_TPSA>
41.5

> <PUBCHEM_MONOISOTOPIC_WEIGHT>
193.110279

> <PUBCHEM_TOTAL_CHARGE>
0

> <PUBCHEM_HEAVY_ATOM_COUNT>
14

> <PUBCHEM_ATOM_DEF_STEREO_COUNT>
1

> <PUBCHEM_ATOM_UDEF_STEREO_COUNT>
0

> <PUBCHEM_BOND_DEF_STEREO_COUNT>
0

> <PUBCHEM_BOND_UDEF_STEREO_COUNT>
0

> <PUBCHEM_ISOTOPIC_ATOM_COUNT>
0

> <PUBCHEM_COMPONENT_COUNT>
1

> <PUBCHEM_CACTVS_TAUTO_COUNT>
9

> <PUBCHEM_COORDINATE_TYPE>
1
5
255

> <PUBCHEM_BONDANNOTATIONS>
10  12  8
11  13  8
12  13  8
4  9  5
5  10  8
5  6  8
6  11  8

$$$$

