441765
  -OEChem-07051212563D

 81 85  0     1  0  0  0  0  0999 V2000
   -2.3954   -1.5503   -0.1113 O   0  0  0  0  0  0  0  0  0  0  0  0
    4.0515   -0.0444   -0.5983 O   0  0  0  0  0  0  0  0  0  0  0  0
   -1.1314   -0.5613    1.5822 O   0  0  0  0  0  0  0  0  0  0  0  0
    3.7203    0.9898    1.4669 O   0  0  0  0  0  0  0  0  0  0  0  0
   -1.4717   -5.3225    1.2242 O   0  0  0  0  0  0  0  0  0  0  0  0
   -2.5241   -4.9595   -1.4435 O   0  0  0  0  0  0  0  0  0  0  0  0
    6.9494   -2.5064    0.9534 O   0  0  0  0  0  0  0  0  0  0  0  0
    6.7326   -2.1673   -1.9092 O   0  0  0  0  0  0  0  0  0  0  0  0
    0.2016   -3.0232    1.9948 O   0  0  0  0  0  0  0  0  0  0  0  0
    6.2152   -0.0158    2.3457 O   0  0  0  0  0  0  0  0  0  0  0  0
   -4.8744   -2.3930   -1.0246 O   0  0  0  0  0  0  0  0  0  0  0  0
    3.4832    0.1716   -3.2791 O   0  0  0  0  0  0  0  0  0  0  0  0
   -0.6056    2.7029   -0.0094 O   0  3  0  0  0  0  0  0  0  0  0  0
    3.3633    5.2749   -0.6640 O   0  0  0  0  0  0  0  0  0  0  0  0
   -5.1672    1.5746   -2.4621 O   0  0  0  0  0  0  0  0  0  0  0  0
   -5.7725    1.3534    2.2836 O   0  0  0  0  0  0  0  0  0  0  0  0
   -6.8499    1.4385   -0.2664 O   0  0  0  0  0  0  0  0  0  0  0  0
   -1.2808   -4.1370    0.4505 C   0  0  1  0  0  0  0  0  0  0  0  0
   -2.5106   -3.9493   -0.4382 C   0  0  1  0  0  0  0  0  0  0  0  0
    6.4505   -1.3218    0.3302 C   0  0  1  0  0  0  0  0  0  0  0  0
    5.7553   -1.7280   -0.9694 C   0  0  1  0  0  0  0  0  0  0  0  0
   -1.0873   -2.9440    1.3866 C   0  0  2  0  0  0  0  0  0  0  0  0
   -2.4934   -2.5719   -1.1052 C   0  0  1  0  0  0  0  0  0  0  0  0
    5.4811   -0.6171    1.2793 C   0  0  2  0  0  0  0  0  0  0  0  0
    4.9784   -0.5496   -1.5610 C   0  0  1  0  0  0  0  0  0  0  0  0
   -1.1777   -1.6206    0.6268 C   0  0  1  0  0  0  0  0  0  0  0  0
    4.6971    0.4802    0.5595 C   0  0  1  0  0  0  0  0  0  0  0  0
   -3.7674   -2.3155   -1.9042 C   0  0  0  0  0  0  0  0  0  0  0  0
    4.1815   -0.9610   -2.7949 C   0  0  0  0  0  0  0  0  0  0  0  0
   -0.5528    0.5745    1.0531 C   0  0  0  0  0  0  0  0  0  0  0  0
    2.9803    1.9894    0.8742 C   0  0  0  0  0  0  0  0  0  0  0  0
    1.5536    1.7644    0.7749 C   0  0  0  0  0  0  0  0  0  0  0  0
    0.8798    0.6898    1.2056 C   0  0  0  0  0  0  0  0  0  0  0  0
   -1.2706    1.5401    0.4499 C   0  0  0  0  0  0  0  0  0  0  0  0
    0.6819    2.7995    0.1389 C   0  0  0  0  0  0  0  0  0  0  0  0
    3.5294    3.1210    0.4043 C   0  0  0  0  0  0  0  0  0  0  0  0
    1.3858    4.0207   -0.3481 C   0  0  0  0  0  0  0  0  0  0  0  0
    2.7125    4.1450   -0.2121 C   0  0  0  0  0  0  0  0  0  0  0  0
   -2.7312    1.5137    0.2625 C   0  0  0  0  0  0  0  0  0  0  0  0
   -3.5755    1.4456    1.3706 C   0  0  0  0  0  0  0  0  0  0  0  0
   -3.2702    1.5570   -1.0234 C   0  0  0  0  0  0  0  0  0  0  0  0
   -4.6535    1.5320   -1.2010 C   0  0  0  0  0  0  0  0  0  0  0  0
   -4.9589    1.4206    1.1931 C   0  0  0  0  0  0  0  0  0  0  0  0
   -5.4978    1.4638   -0.0928 C   0  0  0  0  0  0  0  0  0  0  0  0
   -4.2354    1.6436   -3.5395 C   0  0  0  0  0  0  0  0  0  0  0  0
   -6.1289    0.0525    2.7470 C   0  0  0  0  0  0  0  0  0  0  0  0
   -0.3835   -4.3093   -0.1554 H   0  0  0  0  0  0  0  0  0  0  0  0
   -3.4137   -4.0824    0.1691 H   0  0  0  0  0  0  0  0  0  0  0  0
    7.3252   -0.6933    0.1255 H   0  0  0  0  0  0  0  0  0  0  0  0
    5.0819   -2.5726   -0.7788 H   0  0  0  0  0  0  0  0  0  0  0  0
   -1.8229   -2.9702    2.1994 H   0  0  0  0  0  0  0  0  0  0  0  0
   -1.6449   -2.4864   -1.7970 H   0  0  0  0  0  0  0  0  0  0  0  0
    4.7958   -1.3411    1.7359 H   0  0  0  0  0  0  0  0  0  0  0  0
    5.6567    0.2641   -1.8519 H   0  0  0  0  0  0  0  0  0  0  0  0
   -0.3278   -1.5445   -0.0686 H   0  0  0  0  0  0  0  0  0  0  0  0
    5.3946    1.2786    0.2711 H   0  0  0  0  0  0  0  0  0  0  0  0
   -3.7507   -1.3119   -2.3366 H   0  0  0  0  0  0  0  0  0  0  0  0
   -3.8953   -3.0475   -2.7072 H   0  0  0  0  0  0  0  0  0  0  0  0
    3.4400   -1.7265   -2.5426 H   0  0  0  0  0  0  0  0  0  0  0  0
    4.8344   -1.3370   -3.5882 H   0  0  0  0  0  0  0  0  0  0  0  0
   -2.2511   -5.1921    1.7908 H   0  0  0  0  0  0  0  0  0  0  0  0
   -1.7274   -4.8502   -1.9902 H   0  0  0  0  0  0  0  0  0  0  0  0
    6.1923   -3.0792    1.1640 H   0  0  0  0  0  0  0  0  0  0  0  0
    7.3270   -1.4206   -2.0957 H   0  0  0  0  0  0  0  0  0  0  0  0
    0.8704   -2.9932    1.2895 H   0  0  0  0  0  0  0  0  0  0  0  0
    6.8324    0.6298    1.9611 H   0  0  0  0  0  0  0  0  0  0  0  0
    1.3911   -0.1368    1.6906 H   0  0  0  0  0  0  0  0  0  0  0  0
   -5.6713   -2.2055   -1.5492 H   0  0  0  0  0  0  0  0  0  0  0  0
    2.9784   -0.1142   -4.0595 H   0  0  0  0  0  0  0  0  0  0  0  0
    4.5924    3.3204    0.4907 H   0  0  0  0  0  0  0  0  0  0  0  0
    0.7724    4.7857   -0.8103 H   0  0  0  0  0  0  0  0  0  0  0  0
   -3.1675    1.4177    2.3788 H   0  0  0  0  0  0  0  0  0  0  0  0
   -2.5652    1.6079   -1.8471 H   0  0  0  0  0  0  0  0  0  0  0  0
    2.7038    5.8754   -1.0524 H   0  0  0  0  0  0  0  0  0  0  0  0
   -7.0375    1.4734   -1.2205 H   0  0  0  0  0  0  0  0  0  0  0  0
   -3.6521    2.5703   -3.5088 H   0  0  0  0  0  0  0  0  0  0  0  0
   -3.5999    0.7534   -3.5875 H   0  0  0  0  0  0  0  0  0  0  0  0
   -4.8175    1.6666   -4.4666 H   0  0  0  0  0  0  0  0  0  0  0  0
   -6.6681   -0.4993    1.9705 H   0  0  0  0  0  0  0  0  0  0  0  0
   -5.2364   -0.5035    3.0514 H   0  0  0  0  0  0  0  0  0  0  0  0
   -6.7841    0.1653    3.6151 H   0  0  0  0  0  0  0  0  0  0  0  0
  1 23  1  0  0  0  0
  1 26  1  0  0  0  0
  2 25  1  0  0  0  0
  2 27  1  0  0  0  0
  3 26  1  0  0  0  0
  3 30  1  0  0  0  0
  4 27  1  0  0  0  0
  4 31  1  0  0  0  0
  5 18  1  0  0  0  0
  5 61  1  0  0  0  0
  6 19  1  0  0  0  0
  6 62  1  0  0  0  0
  7 20  1  0  0  0  0
  7 63  1  0  0  0  0
  8 21  1  0  0  0  0
  8 64  1  0  0  0  0
  9 22  1  0  0  0  0
  9 65  1  0  0  0  0
 10 24  1  0  0  0  0
 10 66  1  0  0  0  0
 11 28  1  0  0  0  0
 11 68  1  0  0  0  0
 12 29  1  0  0  0  0
 12 69  1  0  0  0  0
 13 34  1  0  0  0  0
 13 35  2  0  0  0  0
 14 38  1  0  0  0  0
 14 74  1  0  0  0  0
 15 42  1  0  0  0  0
 15 45  1  0  0  0  0
 16 43  1  0  0  0  0
 16 46  1  0  0  0  0
 17 44  1  0  0  0  0
 17 75  1  0  0  0  0
 18 19  1  0  0  0  0
 18 22  1  0  0  0  0
 18 47  1  0  0  0  0
 19 23  1  0  0  0  0
 19 48  1  0  0  0  0
 20 21  1  0  0  0  0
 20 24  1  0  0  0  0
 20 49  1  0  0  0  0
 21 25  1  0  0  0  0
 21 50  1  0  0  0  0
 22 26  1  0  0  0  0
 22 51  1  0  0  0  0
 23 28  1  0  0  0  0
 23 52  1  0  0  0  0
 24 27  1  0  0  0  0
 24 53  1  0  0  0  0
 25 29  1  0  0  0  0
 25 54  1  0  0  0  0
 26 55  1  0  0  0  0
 27 56  1  0  0  0  0
 28 57  1  0  0  0  0
 28 58  1  0  0  0  0
 29 59  1  0  0  0  0
 29 60  1  0  0  0  0
 30 33  1  0  0  0  0
 30 34  2  0  0  0  0
 31 32  1  0  0  0  0
 31 36  2  0  0  0  0
 32 33  2  0  0  0  0
 32 35  1  0  0  0  0
 33 67  1  0  0  0  0
 34 39  1  0  0  0  0
 35 37  1  0  0  0  0
 36 38  1  0  0  0  0
 36 70  1  0  0  0  0
 37 38  2  0  0  0  0
 37 71  1  0  0  0  0
 39 40  2  0  0  0  0
 39 41  1  0  0  0  0
 40 43  1  0  0  0  0
 40 72  1  0  0  0  0
 41 42  2  0  0  0  0
 41 73  1  0  0  0  0
 42 44  1  0  0  0  0
 43 44  2  0  0  0  0
 45 76  1  0  0  0  0
 45 77  1  0  0  0  0
 45 78  1  0  0  0  0
 46 79  1  0  0  0  0
 46 80  1  0  0  0  0
 46 81  1  0  0  0  0
M  CHG  1  13   1
M  END
> <PUBCHEM_COMPOUND_CID>
441765

> <PUBCHEM_CONFORMER_RMSD>
1.2

> <PUBCHEM_CONFORMER_DIVERSEORDER>
1
5
6
26
28
14
4
18
11
30
8
24
17
29
27
21
3
16
20
22
12
19
7
25
2
15
13
10
23
9

> <PUBCHEM_MMFF94_PARTIAL_CHARGES>
61
1 -0.56
10 -0.68
11 -0.68
12 -0.68
13 -0.86
14 -0.53
15 -0.36
16 -0.36
17 -0.53
18 0.28
19 0.28
2 -0.56
20 0.28
21 0.28
22 0.28
23 0.28
24 0.28
25 0.28
26 0.56
27 0.56
28 0.28
29 0.28
3 -0.36
30 0.08
31 0.08
32 0.01
33 -0.15
34 0.88
35 0.92
36 -0.15
37 -0.14
38 0.08
39 0.03
4 -0.36
40 -0.15
41 -0.15
42 0.08
43 0.08
44 0.08
45 0.28
46 0.28
5 -0.68
6 -0.68
61 0.4
62 0.4
63 0.4
64 0.4
65 0.4
66 0.4
67 0.15
68 0.4
69 0.4
7 -0.68
70 0.15
71 0.15
72 0.15
73 0.15
74 0.45
75 0.45
8 -0.68
9 -0.68

> <PUBCHEM_EFFECTIVE_ROTOR_COUNT>
11.4

> <PUBCHEM_PHARMACOPHORE_FEATURES>
29
1 1 acceptor
1 10 acceptor
1 10 donor
1 11 acceptor
1 11 donor
1 12 acceptor
1 12 donor
1 14 donor
1 15 acceptor
1 16 acceptor
1 17 donor
1 2 acceptor
1 3 acceptor
1 4 acceptor
1 5 acceptor
1 5 donor
1 6 acceptor
1 6 donor
1 7 acceptor
1 7 donor
1 8 acceptor
1 8 donor
1 9 acceptor
1 9 donor
6 1 18 19 22 23 26 rings
6 13 30 32 33 34 35 rings
6 2 20 21 24 25 27 rings
6 31 32 35 36 37 38 rings
6 39 40 41 42 43 44 rings

> <PUBCHEM_HEAVY_ATOM_COUNT>
46

> <PUBCHEM_ATOM_DEF_STEREO_COUNT>
10

> <PUBCHEM_ATOM_UDEF_STEREO_COUNT>
0

> <PUBCHEM_BOND_DEF_STEREO_COUNT>
0

> <PUBCHEM_BOND_UDEF_STEREO_COUNT>
0

> <PUBCHEM_ISOTOPIC_ATOM_COUNT>
0

> <PUBCHEM_COMPONENT_COUNT>
1

> <PUBCHEM_CACTVS_TAUTO_COUNT>
17

> <PUBCHEM_CONFORMER_ID>
0006BDA500000001

> <PUBCHEM_MMFF94_ENERGY>
163.5994

> <PUBCHEM_FEATURE_SELFOVERLAP>
147.31

> <PUBCHEM_SHAPE_FINGERPRINT>
10254770 206 18269567203244054602
10581848 31 18262222374558084691
11297010 23 18126021579535234581
11513181 2 18048313349890114790
11991303 11 17988916769690775523
12120059 20 18336541613487752408
13782708 43 18058998507079028649
14068700 686 17545318579862790448
14725015 67 17758947509061133678
14856354 85 16773791533066791289
15392192 29 18115009901625106014
16628084 112 17981606284429000522
19301679 30 17832694682777088803
19311894 1 18335991883016159635
19319366 153 17560518516815770834
19958102 18 18269008504980636839
20764821 26 18335406942429230708
21781051 124 18058994155933941643
22440779 20 16556187048836659442
23559900 14 18262247633609412408
23572383 38 18041005020881380662
3383291 50 18409727399974531082
340366 18 18413667998356863296
4394409 98 18129668641774857774
463206 1 18412542137473803290
563151 248 17240757407175339681
563151 74 16589173571013604136
5912855 24 17976813195236090329
6523845 18 18411984689483952429

> <PUBCHEM_SHAPE_MULTIPOLES>
846.88
16.06
6.13
2.63
9.29
3.16
1.48
1.32
0.88
-0.34
0.49
-1.21
0.37
0.44

> <PUBCHEM_SHAPE_SELFOVERLAP>
1827.153

> <PUBCHEM_SHAPE_VOLUME>
457.2

> <PUBCHEM_COORDINATE_TYPE>
2
5
10

$$$$

