10063
  -OEChem-07051213093D

 60 65  0     1  0  0  0  0  0999 V2000
    0.4307    2.5284   -0.6629 O   0  0  0  0  0  0  0  0  0  0  0  0
   -7.1853   -0.9602    0.9028 O   0  0  0  0  0  0  0  0  0  0  0  0
    5.9152    0.1931   -0.5337 O   0  0  0  0  0  0  0  0  0  0  0  0
    7.4188   -1.4860   -0.2375 O   0  0  0  0  0  0  0  0  0  0  0  0
    0.1931    1.2649   -0.0201 C   0  0  2  0  0  0  0  0  0  0  0  0
    1.2362    0.1866   -0.2662 C   0  0  1  0  0  0  0  0  0  0  0  0
   -1.2499    0.8783    0.2230 C   0  0  2  0  0  0  0  0  0  0  0  0
    0.8570    2.4071    0.6931 C   0  0  1  0  0  0  0  0  0  0  0  0
   -1.6583   -0.2734   -0.7356 C   0  0  2  0  0  0  0  0  0  0  0  0
    2.3592    0.5518    0.7722 C   0  0  2  0  0  0  0  0  0  0  0  0
    2.3068    2.0907    0.8833 C   0  0  0  0  0  0  0  0  0  0  0  0
   -3.1719   -0.7099   -0.6045 C   0  0  2  0  0  0  0  0  0  0  0  0
    0.6389   -1.1919    0.0588 C   0  0  0  0  0  0  0  0  0  0  0  0
   -0.6632   -1.4678   -0.6938 C   0  0  0  0  0  0  0  0  0  0  0  0
   -2.2103    2.0659    0.0645 C   0  0  0  0  0  0  0  0  0  0  0  0
   -4.0941    0.5510   -0.6920 C   0  0  2  0  0  0  0  0  0  0  0  0
    1.7298    0.2300   -1.7266 C   0  0  0  0  0  0  0  0  0  0  0  0
   -3.6585    1.6625    0.2784 C   0  0  0  0  0  0  0  0  0  0  0  0
   -3.4561   -1.4573    0.7315 C   0  0  0  0  0  0  0  0  0  0  0  0
    3.7285    0.0312    0.4810 C   0  0  0  0  0  0  0  0  0  0  0  0
   -5.5796    0.2170   -0.4580 C   0  0  0  0  0  0  0  0  0  0  0  0
   -3.4931   -1.6558   -1.7942 C   0  0  0  0  0  0  0  0  0  0  0  0
   -4.9358   -1.7750    0.9569 C   0  0  0  0  0  0  0  0  0  0  0  0
   -5.8241   -0.5428    0.8443 C   0  0  2  0  0  0  0  0  0  0  0  0
    4.1091   -1.2457    1.0265 C   0  0  0  0  0  0  0  0  0  0  0  0
    4.6299    0.6824   -0.2612 C   0  0  0  0  0  0  0  0  0  0  0  0
    5.3225   -1.7564    0.7961 C   0  0  0  0  0  0  0  0  0  0  0  0
    6.3044   -1.0187   -0.0262 C   0  0  0  0  0  0  0  0  0  0  0  0
   -1.3185    0.5204    1.2583 H   0  0  0  0  0  0  0  0  0  0  0  0
    0.3624    2.9504    1.4798 H   0  0  0  0  0  0  0  0  0  0  0  0
   -1.5547    0.1475   -1.7493 H   0  0  0  0  0  0  0  0  0  0  0  0
    2.0466    0.1855    1.7630 H   0  0  0  0  0  0  0  0  0  0  0  0
    2.6566    2.4216    1.8673 H   0  0  0  0  0  0  0  0  0  0  0  0
    2.8812    2.6282    0.1243 H   0  0  0  0  0  0  0  0  0  0  0  0
    0.4225   -1.2618    1.1334 H   0  0  0  0  0  0  0  0  0  0  0  0
    1.3589   -1.9897   -0.1594 H   0  0  0  0  0  0  0  0  0  0  0  0
   -0.4262   -1.7529   -1.7273 H   0  0  0  0  0  0  0  0  0  0  0  0
   -1.1084   -2.3621   -0.2508 H   0  0  0  0  0  0  0  0  0  0  0  0
   -2.1086    2.5066   -0.9358 H   0  0  0  0  0  0  0  0  0  0  0  0
   -1.9566    2.8568    0.7800 H   0  0  0  0  0  0  0  0  0  0  0  0
   -4.0129    0.9643   -1.7077 H   0  0  0  0  0  0  0  0  0  0  0  0
    2.2491    1.1662   -1.9574 H   0  0  0  0  0  0  0  0  0  0  0  0
    2.4109   -0.5990   -1.9466 H   0  0  0  0  0  0  0  0  0  0  0  0
    0.8930    0.1610   -2.4304 H   0  0  0  0  0  0  0  0  0  0  0  0
   -3.7898    1.3560    1.3218 H   0  0  0  0  0  0  0  0  0  0  0  0
   -4.2943    2.5448    0.1335 H   0  0  0  0  0  0  0  0  0  0  0  0
   -3.0984   -0.8651    1.5813 H   0  0  0  0  0  0  0  0  0  0  0  0
   -2.9103   -2.4053    0.7747 H   0  0  0  0  0  0  0  0  0  0  0  0
   -6.1811    1.1356   -0.4578 H   0  0  0  0  0  0  0  0  0  0  0  0
   -5.9737   -0.3648   -1.3004 H   0  0  0  0  0  0  0  0  0  0  0  0
   -3.2697   -1.1689   -2.7504 H   0  0  0  0  0  0  0  0  0  0  0  0
   -2.9055   -2.5785   -1.7468 H   0  0  0  0  0  0  0  0  0  0  0  0
   -4.5433   -1.9572   -1.8261 H   0  0  0  0  0  0  0  0  0  0  0  0
   -5.2722   -2.5454    0.2520 H   0  0  0  0  0  0  0  0  0  0  0  0
   -5.0640   -2.2265    1.9490 H   0  0  0  0  0  0  0  0  0  0  0  0
   -5.6530    0.1198    1.6996 H   0  0  0  0  0  0  0  0  0  0  0  0
    3.3959   -1.7956    1.6314 H   0  0  0  0  0  0  0  0  0  0  0  0
    4.5092    1.6338   -0.7562 H   0  0  0  0  0  0  0  0  0  0  0  0
   -7.3145   -1.4241    1.7476 H   0  0  0  0  0  0  0  0  0  0  0  0
    5.6164   -2.7170    1.2030 H   0  0  0  0  0  0  0  0  0  0  0  0
  1  5  1  0  0  0  0
  1  8  1  0  0  0  0
  2 24  1  0  0  0  0
  2 59  1  0  0  0  0
  3 26  1  0  0  0  0
  3 28  1  0  0  0  0
  4 28  2  0  0  0  0
  5  6  1  0  0  0  0
  5  7  1  0  0  0  0
  5  8  1  0  0  0  0
  6 10  1  0  0  0  0
  6 13  1  0  0  0  0
  6 17  1  0  0  0  0
  7  9  1  0  0  0  0
  7 15  1  0  0  0  0
  7 29  1  0  0  0  0
  8 11  1  0  0  0  0
  8 30  1  0  0  0  0
  9 12  1  0  0  0  0
  9 14  1  0  0  0  0
  9 31  1  0  0  0  0
 10 11  1  0  0  0  0
 10 20  1  0  0  0  0
 10 32  1  0  0  0  0
 11 33  1  0  0  0  0
 11 34  1  0  0  0  0
 12 16  1  0  0  0  0
 12 19  1  0  0  0  0
 12 22  1  0  0  0  0
 13 14  1  0  0  0  0
 13 35  1  0  0  0  0
 13 36  1  0  0  0  0
 14 37  1  0  0  0  0
 14 38  1  0  0  0  0
 15 18  1  0  0  0  0
 15 39  1  0  0  0  0
 15 40  1  0  0  0  0
 16 18  1  0  0  0  0
 16 21  1  0  0  0  0
 16 41  1  0  0  0  0
 17 42  1  0  0  0  0
 17 43  1  0  0  0  0
 17 44  1  0  0  0  0
 18 45  1  0  0  0  0
 18 46  1  0  0  0  0
 19 23  1  0  0  0  0
 19 47  1  0  0  0  0
 19 48  1  0  0  0  0
 20 25  1  0  0  0  0
 20 26  2  0  0  0  0
 21 24  1  0  0  0  0
 21 49  1  0  0  0  0
 21 50  1  0  0  0  0
 22 51  1  0  0  0  0
 22 52  1  0  0  0  0
 22 53  1  0  0  0  0
 23 24  1  0  0  0  0
 23 54  1  0  0  0  0
 23 55  1  0  0  0  0
 24 56  1  0  0  0  0
 25 27  2  0  0  0  0
 25 57  1  0  0  0  0
 26 58  1  0  0  0  0
 27 28  1  0  0  0  0
 27 60  1  0  0  0  0
M  END
> <PUBCHEM_COMPOUND_CID>
10063

> <PUBCHEM_CONFORMER_RMSD>
0.8

> <PUBCHEM_CONFORMER_DIVERSEORDER>
1
6
17
4
10
11
7
8
12
14
16
9
2
15
5
3
13

> <PUBCHEM_MMFF94_PARTIAL_CHARGES>
21
1 -0.3
10 0.14
11 0.09
2 -0.68
20 -0.14
24 0.28
25 -0.15
26 -0.07
27 -0.14
28 0.71
3 -0.23
30 0.1
4 -0.57
5 -0.04
57 0.15
58 0.15
59 0.4
6 0.09
60 0.15
7 0.09
8 -0.05

> <PUBCHEM_EFFECTIVE_ROTOR_COUNT>
3.2

> <PUBCHEM_PHARMACOPHORE_FEATURES>
9
1 1 acceptor
1 2 acceptor
1 2 donor
1 4 acceptor
6 1 5 6 8 10 11 rings
6 12 16 19 21 23 24 rings
6 3 20 25 26 27 28 rings
6 5 6 7 9 13 14 rings
6 7 9 12 15 16 18 rings

> <PUBCHEM_HEAVY_ATOM_COUNT>
28

> <PUBCHEM_ATOM_DEF_STEREO_COUNT>
7

> <PUBCHEM_ATOM_UDEF_STEREO_COUNT>
2

> <PUBCHEM_BOND_DEF_STEREO_COUNT>
0

> <PUBCHEM_BOND_UDEF_STEREO_COUNT>
0

> <PUBCHEM_ISOTOPIC_ATOM_COUNT>
0

> <PUBCHEM_COMPONENT_COUNT>
1

> <PUBCHEM_CACTVS_TAUTO_COUNT>
1

> <PUBCHEM_CONFORMER_ID>
0000274F00000001

> <PUBCHEM_MMFF94_ENERGY>
100.8001

> <PUBCHEM_FEATURE_SELFOVERLAP>
45.806

> <PUBCHEM_SHAPE_FINGERPRINT>
10076449 9 18113612401119331360
10675989 125 16606320806219358953
11456790 92 17968082111656364523
11524674 6 16877947139509572199
11578080 2 6194021183872249715
11646440 116 17530961388780419513
117089 54 17913478044391055435
11963148 33 18410581694888078710
12035758 1 17676494956005222634
12107698 1 18409448068771634249
12166972 35 17846494811898363101
12236239 1 18131630110447400332
12422481 6 17676203567774540359
12516196 113 18410014338534354408
12633257 1 17386005027275787721
12760667 363 18335423469574070603
13009979 54 18343294873049079933
13140716 1 18117278056489845631
13288520 33 18341895203610518813
13540713 5 17606970490686715541
13685833 64 18413388730766093458
13862211 1 18261398844585747359
14341114 176 18412262800894862361
14420673 8 18410290319910815811
14955137 171 18409163281679104944
15183329 4 18261117382889759382
15788980 27 18408890620117496135
17349148 13 17675925369731450885
17492 89 18046075851922328087
1813 80 17845931944113400646
18335252 98 18409164421000479138
18927931 339 18334296478740461831
20028762 73 17822582607327256783
20157964 124 8790893982030183120
21033648 29 17313681432991361593
21150785 3 16343697729813391766
21236236 1 18335984267459187513
21267235 1 18410570695232889256
21792934 111 18334306374514209272
21792961 116 18201165454427646863
21859007 373 5544379145105494192
22182313 1 17750224971136718717
22223350 30 17532946986685421443
22950370 63 18341896307506771760
23402539 116 18114190730538367134
23522609 53 18120062092529977305
23559900 14 18200599094797875417
2838139 119 6627466285450411571
3004659 81 18272934942971735050
3178227 256 18409720747412814299
335352 9 18335708256166064013
3383291 50 18411986853467949722
3411729 13 17605567544294876384
350125 39 18409446981770823065
4093350 32 16588301636971103120
4325135 7 8862941680289387842
46194498 28 16343419510110597342
465052 167 18334856121843163564
5104073 3 18334019405963181992
5385378 56 16878212164851476039
559249 180 18337676420486814657
8863177 126 18198901422890280059
999808 66 18059846264930026067

> <PUBCHEM_SHAPE_MULTIPOLES>
552.75
15.55
2.31
1.18
6.34
0.83
-0.24
-8.35
2.41
0.07
0.27
-0.49
-0.28
0.05

> <PUBCHEM_SHAPE_SELFOVERLAP>
1209.282

> <PUBCHEM_SHAPE_VOLUME>
297.1

> <PUBCHEM_COORDINATE_TYPE>
2
5
10

$$$$

