637213
  -OEChem-07051212593D

 54 56  0     1  0  0  0  0  0999 V2000
    2.4752   -1.1065    0.6077 O   0  0  0  0  0  0  0  0  0  0  0  0
    4.1493   -3.9789   -0.9286 O   0  0  0  0  0  0  0  0  0  0  0  0
    6.3424   -2.2685   -0.1410 O   0  0  0  0  0  0  0  0  0  0  0  0
    3.1288    1.1070    0.9503 O   0  0  0  0  0  0  0  0  0  0  0  0
    5.5732    0.5663   -0.3689 O   0  0  0  0  0  0  0  0  0  0  0  0
    0.2786   -2.7133    0.2214 O   0  0  0  0  0  0  0  0  0  0  0  0
    1.7865    5.4646   -0.4623 O   0  0  0  0  0  0  0  0  0  0  0  0
   -7.2649   -1.0658   -0.3828 O   0  0  0  0  0  0  0  0  0  0  0  0
   -5.2559   -2.8311    0.3745 O   0  0  0  0  0  0  0  0  0  0  0  0
    4.0203   -2.8446   -0.0753 C   0  0  1  0  0  0  0  0  0  0  0  0
    5.0432   -1.7849   -0.4851 C   0  0  1  0  0  0  0  0  0  0  0  0
    2.5963   -2.2934   -0.1781 C   0  0  1  0  0  0  0  0  0  0  0  0
    4.7861   -0.4605    0.2339 C   0  0  2  0  0  0  0  0  0  0  0  0
    3.3156   -0.0536    0.1410 C   0  0  1  0  0  0  0  0  0  0  0  0
    1.5653   -3.2929    0.3367 C   0  0  0  0  0  0  0  0  0  0  0  0
    2.1470    1.9752    0.5585 C   0  0  0  0  0  0  0  0  0  0  0  0
    0.8289    1.5364    0.4766 C   0  0  0  0  0  0  0  0  0  0  0  0
    2.4733    3.2911    0.2452 C   0  0  0  0  0  0  0  0  0  0  0  0
   -0.1723    2.4219    0.0774 C   0  0  0  0  0  0  0  0  0  0  0  0
    1.4722    4.1767   -0.1538 C   0  0  0  0  0  0  0  0  0  0  0  0
    0.1494    3.7420   -0.2377 C   0  0  0  0  0  0  0  0  0  0  0  0
   -1.5513    1.9686   -0.0111 C   0  0  0  0  0  0  0  0  0  0  0  0
   -1.9431    0.6762   -0.1116 C   0  0  0  0  0  0  0  0  0  0  0  0
   -3.3409    0.2151   -0.1819 C   0  0  0  0  0  0  0  0  0  0  0  0
   -3.6376   -1.1011    0.1327 C   0  0  0  0  0  0  0  0  0  0  0  0
   -4.3310    1.1068   -0.5613 C   0  0  0  0  0  0  0  0  0  0  0  0
   -4.9607   -1.5375    0.0660 C   0  0  0  0  0  0  0  0  0  0  0  0
   -5.6541    0.6705   -0.6280 C   0  0  0  0  0  0  0  0  0  0  0  0
   -5.9690   -0.6518   -0.3143 C   0  0  0  0  0  0  0  0  0  0  0  0
   -8.0510   -0.9338    0.7999 C   0  0  0  0  0  0  0  0  0  0  0  0
    4.2316   -3.1784    0.9480 H   0  0  0  0  0  0  0  0  0  0  0  0
    5.0449   -1.6396   -1.5725 H   0  0  0  0  0  0  0  0  0  0  0  0
    2.3415   -2.0497   -1.2186 H   0  0  0  0  0  0  0  0  0  0  0  0
    5.1031   -0.5293    1.2813 H   0  0  0  0  0  0  0  0  0  0  0  0
    3.0615    0.1859   -0.9024 H   0  0  0  0  0  0  0  0  0  0  0  0
    1.7307   -3.5329    1.3922 H   0  0  0  0  0  0  0  0  0  0  0  0
    1.5777   -4.2210   -0.2419 H   0  0  0  0  0  0  0  0  0  0  0  0
    3.9563   -3.6940   -1.8381 H   0  0  0  0  0  0  0  0  0  0  0  0
    6.4693   -3.1156   -0.6020 H   0  0  0  0  0  0  0  0  0  0  0  0
    5.3049    0.6447   -1.3003 H   0  0  0  0  0  0  0  0  0  0  0  0
    0.2721   -1.9043    0.7609 H   0  0  0  0  0  0  0  0  0  0  0  0
    0.5965    0.5192    0.7712 H   0  0  0  0  0  0  0  0  0  0  0  0
    3.5047    3.6279    0.3102 H   0  0  0  0  0  0  0  0  0  0  0  0
   -0.6268    4.4368   -0.5514 H   0  0  0  0  0  0  0  0  0  0  0  0
   -2.2870    2.7666    0.0375 H   0  0  0  0  0  0  0  0  0  0  0  0
   -1.2103   -0.1242   -0.1613 H   0  0  0  0  0  0  0  0  0  0  0  0
    0.9746    5.9353   -0.7176 H   0  0  0  0  0  0  0  0  0  0  0  0
   -2.8531   -1.7926    0.4310 H   0  0  0  0  0  0  0  0  0  0  0  0
   -4.1300    2.1372   -0.8363 H   0  0  0  0  0  0  0  0  0  0  0  0
   -6.4342    1.3640   -0.9305 H   0  0  0  0  0  0  0  0  0  0  0  0
   -4.4357   -3.2951    0.6154 H   0  0  0  0  0  0  0  0  0  0  0  0
   -7.6197   -1.5204    1.6172 H   0  0  0  0  0  0  0  0  0  0  0  0
   -9.0543   -1.3136    0.5887 H   0  0  0  0  0  0  0  0  0  0  0  0
   -8.1293    0.1180    1.0926 H   0  0  0  0  0  0  0  0  0  0  0  0
  1 12  1  0  0  0  0
  1 14  1  0  0  0  0
  2 10  1  0  0  0  0
  2 38  1  0  0  0  0
  3 11  1  0  0  0  0
  3 39  1  0  0  0  0
  4 14  1  0  0  0  0
  4 16  1  0  0  0  0
  5 13  1  0  0  0  0
  5 40  1  0  0  0  0
  6 15  1  0  0  0  0
  6 41  1  0  0  0  0
  7 20  1  0  0  0  0
  7 47  1  0  0  0  0
  8 29  1  0  0  0  0
  8 30  1  0  0  0  0
  9 27  1  0  0  0  0
  9 51  1  0  0  0  0
 10 11  1  0  0  0  0
 10 12  1  0  0  0  0
 10 31  1  0  0  0  0
 11 13  1  0  0  0  0
 11 32  1  0  0  0  0
 12 15  1  0  0  0  0
 12 33  1  0  0  0  0
 13 14  1  0  0  0  0
 13 34  1  0  0  0  0
 14 35  1  0  0  0  0
 15 36  1  0  0  0  0
 15 37  1  0  0  0  0
 16 17  2  0  0  0  0
 16 18  1  0  0  0  0
 17 19  1  0  0  0  0
 17 42  1  0  0  0  0
 18 20  2  0  0  0  0
 18 43  1  0  0  0  0
 19 21  2  0  0  0  0
 19 22  1  0  0  0  0
 20 21  1  0  0  0  0
 21 44  1  0  0  0  0
 22 23  2  0  0  0  0
 22 45  1  0  0  0  0
 23 24  1  0  0  0  0
 23 46  1  0  0  0  0
 24 25  2  0  0  0  0
 24 26  1  0  0  0  0
 25 27  1  0  0  0  0
 25 48  1  0  0  0  0
 26 28  2  0  0  0  0
 26 49  1  0  0  0  0
 27 29  2  0  0  0  0
 28 29  1  0  0  0  0
 28 50  1  0  0  0  0
 30 52  1  0  0  0  0
 30 53  1  0  0  0  0
 30 54  1  0  0  0  0
M  END
> <PUBCHEM_COMPOUND_CID>
637213

> <PUBCHEM_CONFORMER_RMSD>
1

> <PUBCHEM_CONFORMER_DIVERSEORDER>
1
70
119
193
186
138
35
78
225
18
126
200
131
118
17
4
214
179
233
206
147
208
166
95
112
167
222
141
21
178
199
123
205
207
13
191
231
99
76
196
174
8
83
192
181
132
9
148
73
212
89
110
130
158
127
19
230
80
187
56
10
84
140
234
185
97
23
107
71
94
217
57
6
12
111
204
90
105
201
11
133
172
120
69
151
39
20
108
209
3
14
144
218
2
117
228
106
145
139
203
38
154
211
41
67
224
221
190
189
7
47
175
135
219
142
98
220
68
155
202
198
55
149
49
5
216
114
60
61
116
156
197
34
195
15
79
93
232
134
115
92
163
159
229
169
37
51
168
227
177
170
62
223
226
157
104
32
150
22
173
103
82
27
152
102
24
88
136
50
16
52
213
182
210
109
188
101
122
81
113
96
153
164
63
66
25
72
33
26
86
171
31
29
65
75
194
36
165
121
87
77
160
137
46
54
129
48
100
85
91
45
215
161
125
28
184
30
43
124
40
128
183
59
42
53
180
58
146
74
162
176
64
143
44

> <PUBCHEM_MMFF94_PARTIAL_CHARGES>
44
1 -0.56
10 0.28
11 0.28
12 0.28
13 0.28
14 0.56
15 0.28
16 0.08
17 -0.15
18 -0.15
19 0.03
2 -0.68
20 0.08
21 -0.15
22 -0.18
23 -0.18
24 0.03
25 -0.15
26 -0.15
27 0.08
28 -0.15
29 0.08
3 -0.68
30 0.28
38 0.4
39 0.4
4 -0.36
40 0.4
41 0.4
42 0.15
43 0.15
44 0.15
45 0.15
46 0.15
47 0.45
48 0.15
49 0.15
5 -0.68
50 0.15
51 0.45
6 -0.68
7 -0.53
8 -0.36
9 -0.53

> <PUBCHEM_EFFECTIVE_ROTOR_COUNT>
7.2

> <PUBCHEM_PHARMACOPHORE_FEATURES>
16
1 1 acceptor
1 2 acceptor
1 2 donor
1 3 acceptor
1 3 donor
1 4 acceptor
1 5 acceptor
1 5 donor
1 6 acceptor
1 6 donor
1 7 donor
1 8 acceptor
1 9 donor
6 1 10 11 12 13 14 rings
6 16 17 18 19 20 21 rings
6 24 25 26 27 28 29 rings

> <PUBCHEM_HEAVY_ATOM_COUNT>
30

> <PUBCHEM_ATOM_DEF_STEREO_COUNT>
5

> <PUBCHEM_ATOM_UDEF_STEREO_COUNT>
0

> <PUBCHEM_BOND_DEF_STEREO_COUNT>
1

> <PUBCHEM_BOND_UDEF_STEREO_COUNT>
0

> <PUBCHEM_ISOTOPIC_ATOM_COUNT>
0

> <PUBCHEM_COMPONENT_COUNT>
1

> <PUBCHEM_CACTVS_TAUTO_COUNT>
8

> <PUBCHEM_CONFORMER_ID>
0009B91D00000001

> <PUBCHEM_MMFF94_ENERGY>
107.6464

> <PUBCHEM_FEATURE_SELFOVERLAP>
81.251

> <PUBCHEM_SHAPE_FINGERPRINT>
10316853 100 18341050722534835762
10411042 1 18338517559798347386
10580692 12 18410293619627120265
11513181 2 17757264878044528550
117089 54 18044929314877372782
11719270 70 18194127309132921984
12107183 9 18262789805065067153
12166972 35 17917706937619126606
13008946 62 16764763172588084677
13383661 66 17460582869954373262
13402501 40 18413109467597716035
13533116 47 18261957341402316537
1361 2 18411140190774492240
13631057 29 18191868045192505384
13692114 37 17543363656999637224
13785724 45 18335129951620013845
138480 1 18410857663626102992
13955234 65 18190183382150902385
13989917 61 18266458707552163059
14866123 147 17902793303882287497
15250474 111 17973456399485343519
15320467 1 18410576180223358343
15352361 1 18337955691754684972
15361156 5 18059006173853828231
15400415 2 17617942431416904637
15803439 3 17124195782754972236
15927050 60 17904199222417843558
16067689 302 18050849915475831007
17492 89 18338518526387710481
1979834 28 18262532394067078720
21033650 10 16844168042076146517
21130935 74 18192147106614101187
21197605 99 17836927802760044291
23559900 14 18411709764206228857
24771750 20 17984974900008932636
3004659 81 18130791174100298576
329604 57 18339922735869882166
338550 245 18196657298040246997
3421961 26 18408609136546115256
3882209 13 17118364367970448251
4144715 1 18201718398268129561
46194498 28 17775569710552886797
463206 1 18341606070358914498
5265222 85 17405134132934304765
5309563 4 18410014381009370933
53794403 172 18197779903749533869
5776283 40 18125991677661098324
613672 6 18194711325499405668
6443956 14 18412547621472053749
7970288 3 18337955696255614534

> <PUBCHEM_SHAPE_MULTIPOLES>
564.56
16.58
5.8
0.76
23.88
4.35
-0.01
-14.14
0.53
-7.14
0.58
0.08
-0.03
1.13

> <PUBCHEM_SHAPE_SELFOVERLAP>
1205.439

> <PUBCHEM_SHAPE_VOLUME>
311.8

> <PUBCHEM_COORDINATE_TYPE>
2
5
10

$$$$

