249877
  -OEChem-07051213073D

 28 28  0     1  0  0  0  0  0999 V2000
    1.3434    0.8828    1.7497 O   0  0  0  0  0  0  0  0  0  0  0  0
    3.8904    0.5828    0.5009 O   0  0  0  0  0  0  0  0  0  0  0  0
    0.7634    0.7961   -0.5236 N   0  0  0  0  0  0  0  0  0  0  0  0
    2.7258   -1.2900   -0.3039 N   0  0  0  0  0  0  0  0  0  0  0  0
    3.8561   -2.0036   -0.6424 N   0  0  0  0  0  0  0  0  0  0  0  0
   -0.5385    1.4172   -0.4528 C   0  0  2  0  0  0  0  0  0  0  0  0
   -1.6251    0.4006   -0.1637 C   0  0  0  0  0  0  0  0  0  0  0  0
   -0.8078    2.1849   -1.7489 C   0  0  0  0  0  0  0  0  0  0  0  0
   -2.7221    0.7827    0.5866 C   0  0  0  0  0  0  0  0  0  0  0  0
   -1.4932   -0.8846   -0.6569 C   0  0  0  0  0  0  0  0  0  0  0  0
   -3.7219   -0.1529    0.8530 C   0  0  0  0  0  0  0  0  0  0  0  0
   -2.4929   -1.8201   -0.3907 C   0  0  0  0  0  0  0  0  0  0  0  0
    1.5584    0.5980    0.5823 C   0  0  0  0  0  0  0  0  0  0  0  0
   -3.6072   -1.4542    0.3643 C   0  0  0  0  0  0  0  0  0  0  0  0
    2.8713   -0.0397    0.2461 C   0  0  0  0  0  0  0  0  0  0  0  0
   -0.5039    2.1364    0.3761 H   0  0  0  0  0  0  0  0  0  0  0  0
   -0.8307    1.5141   -2.6157 H   0  0  0  0  0  0  0  0  0  0  0  0
   -0.0248    2.9300   -1.9284 H   0  0  0  0  0  0  0  0  0  0  0  0
   -1.7698    2.7071   -1.7057 H   0  0  0  0  0  0  0  0  0  0  0  0
    1.0897    0.4633   -1.4271 H   0  0  0  0  0  0  0  0  0  0  0  0
   -2.8208    1.7942    0.9695 H   0  0  0  0  0  0  0  0  0  0  0  0
   -0.6464   -1.1933   -1.2619 H   0  0  0  0  0  0  0  0  0  0  0  0
   -4.5901    0.1322    1.4401 H   0  0  0  0  0  0  0  0  0  0  0  0
   -2.4060   -2.8324   -0.7745 H   0  0  0  0  0  0  0  0  0  0  0  0
   -4.3862   -2.1823    0.5707 H   0  0  0  0  0  0  0  0  0  0  0  0
    1.8191   -1.7172   -0.4654 H   0  0  0  0  0  0  0  0  0  0  0  0
    3.7767   -2.2315   -1.6325 H   0  0  0  0  0  0  0  0  0  0  0  0
    3.8056   -2.8914   -0.1446 H   0  0  0  0  0  0  0  0  0  0  0  0
  1 13  2  0  0  0  0
  2 15  2  0  0  0  0
  3  6  1  0  0  0  0
  3 13  1  0  0  0  0
  3 20  1  0  0  0  0
  4  5  1  0  0  0  0
  4 15  1  0  0  0  0
  4 26  1  0  0  0  0
  5 27  1  0  0  0  0
  5 28  1  0  0  0  0
  6  7  1  0  0  0  0
  6  8  1  0  0  0  0
  6 16  1  0  0  0  0
  7  9  2  0  0  0  0
  7 10  1  0  0  0  0
  8 17  1  0  0  0  0
  8 18  1  0  0  0  0
  8 19  1  0  0  0  0
  9 11  1  0  0  0  0
  9 21  1  0  0  0  0
 10 12  2  0  0  0  0
 10 22  1  0  0  0  0
 11 14  2  0  0  0  0
 11 23  1  0  0  0  0
 12 14  1  0  0  0  0
 12 24  1  0  0  0  0
 13 15  1  0  0  0  0
 14 25  1  0  0  0  0
M  END
> <PUBCHEM_COMPOUND_CID>
249877

> <PUBCHEM_CONFORMER_RMSD>
0.6

> <PUBCHEM_CONFORMER_DIVERSEORDER>
10
19
22
17
7
15
9
24
25
12
27
16
26
2
18
11
23
4
3
6
8
13
20
1
5
14
21

> <PUBCHEM_MMFF94_PARTIAL_CHARGES>
23
1 -0.57
10 -0.15
11 -0.15
12 -0.15
13 0.63
14 -0.15
15 0.63
2 -0.57
20 0.37
21 0.15
22 0.15
23 0.15
24 0.15
25 0.15
26 0.37
27 0.36
28 0.36
3 -0.73
4 -0.42
5 -0.73
6 0.44
7 -0.14
9 -0.15

> <PUBCHEM_EFFECTIVE_ROTOR_COUNT>
5

> <PUBCHEM_PHARMACOPHORE_FEATURES>
6
1 1 acceptor
1 2 acceptor
1 3 donor
1 4 donor
1 5 donor
6 7 9 10 11 12 14 rings

> <PUBCHEM_HEAVY_ATOM_COUNT>
15

> <PUBCHEM_ATOM_DEF_STEREO_COUNT>
0

> <PUBCHEM_ATOM_UDEF_STEREO_COUNT>
1

> <PUBCHEM_BOND_DEF_STEREO_COUNT>
0

> <PUBCHEM_BOND_UDEF_STEREO_COUNT>
0

> <PUBCHEM_ISOTOPIC_ATOM_COUNT>
0

> <PUBCHEM_COMPONENT_COUNT>
1

> <PUBCHEM_CACTVS_TAUTO_COUNT>
4

> <PUBCHEM_CONFORMER_ID>
0003D0150000000A

> <PUBCHEM_MMFF94_ENERGY>
27.7699

> <PUBCHEM_FEATURE_SELFOVERLAP>
31.966

> <PUBCHEM_SHAPE_FINGERPRINT>
10618630 7 18343582940710249766
12006461 19 18408880720186444651
12251169 10 18040715818709527505
124424 183 17385442154626613657
13296908 3 17917440795522661837
14252887 29 18271802372062816696
15276787 5 17530959207132250433
17804303 29 18187916296637501471
17834069 15 18187079564035897163
17834074 16 18335420200982911802
1813 80 17917986166090414997
19422 9 18412254034639640856
20281407 28 18411697699041317884
20281475 54 18408321068894292902
20361792 2 17846225397479677245
20645477 70 17556021286714660819
20671657 53 16702026348359099116
20711985 344 17774175620250839493
20871998 22 18343299249541022477
21524375 3 7853590014401736173
23402539 116 17632868520727226312
23557571 272 18202008745998381860
305870 269 6266360300163423429
449060 23 18273497857673939449
7364860 26 17981321192783624397
74978 22 6122209983628992976
81228 2 17916604144610397717

> <PUBCHEM_SHAPE_MULTIPOLES>
282.01
6.84
2.03
1.2
3.08
0.03
-0.05
3.61
-1.16
-0.11
0.91
0.04
-0.46
0.58

> <PUBCHEM_SHAPE_SELFOVERLAP>
579.897

> <PUBCHEM_SHAPE_VOLUME>
161.5

> <PUBCHEM_COORDINATE_TYPE>
2
5
10

$$$$

