439760
  -OEChem-07051212473D

 31 30  0     0  0  0  0  0  0999 V2000
   -2.8545    0.4839   -1.3394 O   0  0  0  0  0  0  0  0  0  0  0  0
   -2.1789   -1.0259    0.2948 N   0  0  0  0  0  0  0  0  0  0  0  0
    2.2954    0.3106    0.0845 N   0  0  0  0  0  0  0  0  0  0  0  0
    3.6386    2.0933   -0.5396 N   0  0  0  0  0  0  0  0  0  0  0  0
    4.6919    0.2200    0.2192 N   0  0  0  0  0  0  0  0  0  0  0  0
    0.0490   -1.4753   -0.6528 C   0  0  0  0  0  0  0  0  0  0  0  0
    0.7602   -1.4899    0.7056 C   0  0  0  0  0  0  0  0  0  0  0  0
   -1.4131   -1.8987   -0.5515 C   0  0  0  0  0  0  0  0  0  0  0  0
    2.2187   -1.0562    0.6028 C   0  0  0  0  0  0  0  0  0  0  0  0
   -2.8435    0.1046   -0.1715 C   0  0  0  0  0  0  0  0  0  0  0  0
   -3.5712    0.8314    0.9444 C   0  0  0  0  0  0  0  0  0  0  0  0
   -4.2740    2.0873    0.4617 C   0  0  0  0  0  0  0  0  0  0  0  0
    3.4814    0.8149   -0.0583 C   0  0  0  0  0  0  0  0  0  0  0  0
    0.5678   -2.1525   -1.3419 H   0  0  0  0  0  0  0  0  0  0  0  0
    0.0985   -0.4713   -1.0909 H   0  0  0  0  0  0  0  0  0  0  0  0
    0.7155   -2.4992    1.1319 H   0  0  0  0  0  0  0  0  0  0  0  0
    0.2433   -0.8209    1.4041 H   0  0  0  0  0  0  0  0  0  0  0  0
   -1.8616   -1.9118   -1.5508 H   0  0  0  0  0  0  0  0  0  0  0  0
   -1.4906   -2.9087   -0.1353 H   0  0  0  0  0  0  0  0  0  0  0  0
    2.6684   -1.1105    1.6015 H   0  0  0  0  0  0  0  0  0  0  0  0
    2.7530   -1.7493   -0.0584 H   0  0  0  0  0  0  0  0  0  0  0  0
   -2.2309   -1.2531    1.2838 H   0  0  0  0  0  0  0  0  0  0  0  0
   -4.3039    0.1454    1.3843 H   0  0  0  0  0  0  0  0  0  0  0  0
   -2.8434    1.0936    1.7206 H   0  0  0  0  0  0  0  0  0  0  0  0
   -5.0202    1.8506   -0.3040 H   0  0  0  0  0  0  0  0  0  0  0  0
   -4.7833    2.5830    1.2938 H   0  0  0  0  0  0  0  0  0  0  0  0
   -3.5601    2.7946    0.0268 H   0  0  0  0  0  0  0  0  0  0  0  0
    2.8362    2.6611   -0.7894 H   0  0  0  0  0  0  0  0  0  0  0  0
    4.5572    2.5062   -0.6579 H   0  0  0  0  0  0  0  0  0  0  0  0
    5.5644    0.7142    0.0659 H   0  0  0  0  0  0  0  0  0  0  0  0
    4.7603   -0.7240    0.5824 H   0  0  0  0  0  0  0  0  0  0  0  0
  1 10  2  0  0  0  0
  2  8  1  0  0  0  0
  2 10  1  0  0  0  0
  2 22  1  0  0  0  0
  3  9  1  0  0  0  0
  3 13  2  0  0  0  0
  4 13  1  0  0  0  0
  4 28  1  0  0  0  0
  4 29  1  0  0  0  0
  5 13  1  0  0  0  0
  5 30  1  0  0  0  0
  5 31  1  0  0  0  0
  6  7  1  0  0  0  0
  6  8  1  0  0  0  0
  6 14  1  0  0  0  0
  6 15  1  0  0  0  0
  7  9  1  0  0  0  0
  7 16  1  0  0  0  0
  7 17  1  0  0  0  0
  8 18  1  0  0  0  0
  8 19  1  0  0  0  0
  9 20  1  0  0  0  0
  9 21  1  0  0  0  0
 10 11  1  0  0  0  0
 11 12  1  0  0  0  0
 11 23  1  0  0  0  0
 11 24  1  0  0  0  0
 12 25  1  0  0  0  0
 12 26  1  0  0  0  0
 12 27  1  0  0  0  0
M  END
> <PUBCHEM_COMPOUND_CID>
439760

> <PUBCHEM_CONFORMER_RMSD>
0.8

> <PUBCHEM_CONFORMER_DIVERSEORDER>
1
125
19
124
45
40
116
128
22
82
97
3
69
52
115
101
26
47
44
135
43
13
81
50
84
87
118
8
51
60
123
31
16
53
34
131
91
121
107
70
30
9
108
46
20
79
93
88
49
119
76
41
80
23
102
122
134
89
105
35
2
94
29
104
86
126
5
54
132
63
106
36
6
58
100
59
92
99
110
95
11
17
62
68
72
85
98
127
56
117
133
71
33
109
48
111
28
32
38
74
77
67
15
83
73
39
12
75
55
42
129
64
57
112
66
120
25
21
90
18
14
10
7
61
27
4
130
96
65
103
114
37
24
78
113

> <PUBCHEM_MMFF94_PARTIAL_CHARGES>
15
1 -0.57
10 0.57
11 0.06
13 0.55
2 -0.73
22 0.37
28 0.4
29 0.4
3 -0.7
30 0.4
31 0.4
4 -0.85
5 -0.85
8 0.3
9 0.25

> <PUBCHEM_EFFECTIVE_ROTOR_COUNT>
7

> <PUBCHEM_PHARMACOPHORE_FEATURES>
6
1 1 acceptor
1 12 hydrophobe
1 2 donor
1 4 donor
1 5 donor
4 3 4 5 13 cation

> <PUBCHEM_HEAVY_ATOM_COUNT>
13

> <PUBCHEM_ATOM_DEF_STEREO_COUNT>
0

> <PUBCHEM_ATOM_UDEF_STEREO_COUNT>
0

> <PUBCHEM_BOND_DEF_STEREO_COUNT>
0

> <PUBCHEM_BOND_UDEF_STEREO_COUNT>
0

> <PUBCHEM_ISOTOPIC_ATOM_COUNT>
0

> <PUBCHEM_COMPONENT_COUNT>
1

> <PUBCHEM_CACTVS_TAUTO_COUNT>
4

> <PUBCHEM_CONFORMER_ID>
0006B5D000000001

> <PUBCHEM_MMFF94_ENERGY>
15.5801

> <PUBCHEM_FEATURE_SELFOVERLAP>
30.502

> <PUBCHEM_SHAPE_FINGERPRINT>
10149128 111 18260829336523200555
10465860 228 18341333370496508538
10681291 71 18261660558739844841
11137873 295 7204773692140770875
11769659 78 9151176449865686562
122479 349 18412539907763258435
12824470 246 10951756500396329037
13618510 140 18410015446213923343
14123255 52 18408601495920186193
14123260 362 18114178653190485929
1420 369 10375863087223763553
14251710 61 10159701308742085792
14576447 43 8430311347045517208
15342168 16 18337105774215684709
15775835 57 18410854364974811441
1741750 31 18334577919056993802
17834072 32 18336543914888726345
17834072 8 18187356667210888358
1798214 20 8430314614982963889
19107657 162 11743573093210345946
19107657 9 18261116304731421267
201361 129 18272374174382113674
20621476 66 18411130330242230440
20671657 53 7565340933551360651
20711983 171 18259989270716069566
21524375 3 18410581664574653591
22182937 141 18339917121930628755
22485316 2 8862674490363399434
23402539 116 17748831826002003864
23402655 69 18408882907020942156
23403322 49 8790892856474392977
23590187 138 18408317778970722561
27216 239 18343014472282886187
44154327 71 18336542832483173225
6430166 295 18408324389130781514
8199 26 18409445873357836000

> <PUBCHEM_SHAPE_MULTIPOLES>
241.74
8.99
2.21
0.95
2.19
0.28
-0.07
6.82
0.65
-0.34
-0.14
-0.45
-0.04
-0.92

> <PUBCHEM_SHAPE_SELFOVERLAP>
449.945

> <PUBCHEM_SHAPE_VOLUME>
149.4

> <PUBCHEM_COORDINATE_TYPE>
2
5
10

$$$$

