4089
  -OEChem-06251223522D

 72 75  0     1  0  0  0  0  0999 V2000
    8.6500    0.3385    0.0000 O   0  0  0  0  0  0  0  0  0  0  0  0
    2.0000   -3.9691    0.0000 O   0  0  0  0  0  0  0  0  0  0  0  0
   10.2963   -0.1996    0.0000 O   0  0  0  0  0  0  0  0  0  0  0  0
    7.3931   -1.9168    0.0000 C   0  0  3  0  0  0  0  0  0  0  0  0
    6.5271   -2.4168    0.0000 C   0  0  3  0  0  0  0  0  0  0  0  0
    7.3931   -0.9168    0.0000 C   0  0  3  0  0  0  0  0  0  0  0  0
    5.6610   -1.9168    0.0000 C   0  0  3  0  0  0  0  0  0  0  0  0
    4.7510   -2.4236    0.0000 C   0  0  3  0  0  0  0  0  0  0  0  0
    6.5271   -0.4168    0.0000 C   0  0  0  0  0  0  0  0  0  0  0  0
    5.6610   -0.9168    0.0000 C   0  0  0  0  0  0  0  0  0  0  0  0
    4.7430   -3.4652    0.0000 C   0  0  3  0  0  0  0  0  0  0  0  0
    8.3393   -0.6120    0.0000 C   0  0  3  0  0  0  0  0  0  0  0  0
    8.3393   -2.2215    0.0000 C   0  0  0  0  0  0  0  0  0  0  0  0
    6.5431   -3.4583    0.0000 C   0  0  0  0  0  0  0  0  0  0  0  0
    5.6451   -3.9860    0.0000 C   0  0  0  0  0  0  0  0  0  0  0  0
    8.9229   -1.4168    0.0000 C   0  0  0  0  0  0  0  0  0  0  0  0
    7.3931    0.0832    0.0000 C   0  0  0  0  0  0  0  0  0  0  0  0
    3.8242   -1.8595    0.0000 C   0  0  0  0  0  0  0  0  0  0  0  0
    4.7587   -1.4236    0.0000 C   0  0  0  0  0  0  0  0  0  0  0  0
    3.8076   -4.0149    0.0000 C   0  0  0  0  0  0  0  0  0  0  0  0
    2.8763   -2.3875    0.0000 C   0  0  0  0  0  0  0  0  0  0  0  0
    2.8680   -3.4724    0.0000 C   0  0  0  0  0  0  0  0  0  0  0  0
    3.8435   -0.8597    0.0000 C   0  0  0  0  0  0  0  0  0  0  0  0
    9.6285    0.5447    0.0000 C   0  0  0  0  0  0  0  0  0  0  0  0
    9.9391    1.4952    0.0000 C   0  0  0  0  0  0  0  0  0  0  0  0
   10.9176    1.7014    0.0000 C   0  0  0  0  0  0  0  0  0  0  0  0
   11.2283    2.6520    0.0000 C   0  0  0  0  0  0  0  0  0  0  0  0
   12.2068    2.8582    0.0000 C   0  0  0  0  0  0  0  0  0  0  0  0
   12.5175    3.8087    0.0000 C   0  0  0  0  0  0  0  0  0  0  0  0
   13.4960    4.0149    0.0000 C   0  0  0  0  0  0  0  0  0  0  0  0
    7.4830   -2.7620    0.0000 H   0  0  0  0  0  0  0  0  0  0  0  0
    7.2664   -2.8361    0.0000 H   0  0  0  0  0  0  0  0  0  0  0  0
    6.3972   -1.4918    0.0000 H   0  0  0  0  0  0  0  0  0  0  0  0
    6.9256    0.0582    0.0000 H   0  0  0  0  0  0  0  0  0  0  0  0
    6.1285    0.0582    0.0000 H   0  0  0  0  0  0  0  0  0  0  0  0
    5.4490   -0.3342    0.0000 H   0  0  0  0  0  0  0  0  0  0  0  0
    5.0504   -1.0244    0.0000 H   0  0  0  0  0  0  0  0  0  0  0  0
    4.7463   -4.3152    0.0000 H   0  0  0  0  0  0  0  0  0  0  0  0
    7.7396   -0.0097    0.0000 H   0  0  0  0  0  0  0  0  0  0  0  0
    8.0883   -2.7884    0.0000 H   0  0  0  0  0  0  0  0  0  0  0  0
    8.8767   -2.5307    0.0000 H   0  0  0  0  0  0  0  0  0  0  0  0
    6.7612   -4.0387    0.0000 H   0  0  0  0  0  0  0  0  0  0  0  0
    7.1523   -3.3428    0.0000 H   0  0  0  0  0  0  0  0  0  0  0  0
    5.2478   -4.4620    0.0000 H   0  0  0  0  0  0  0  0  0  0  0  0
    6.0460   -4.4589    0.0000 H   0  0  0  0  0  0  0  0  0  0  0  0
    9.3838   -1.8315    0.0000 H   0  0  0  0  0  0  0  0  0  0  0  0
    9.3838   -1.0020    0.0000 H   0  0  0  0  0  0  0  0  0  0  0  0
    8.0131    0.0832    0.0000 H   0  0  0  0  0  0  0  0  0  0  0  0
    7.3931    0.7032    0.0000 H   0  0  0  0  0  0  0  0  0  0  0  0
    6.7731    0.0832    0.0000 H   0  0  0  0  0  0  0  0  0  0  0  0
    5.3787   -1.4284    0.0000 H   0  0  0  0  0  0  0  0  0  0  0  0
    4.7635   -0.8037    0.0000 H   0  0  0  0  0  0  0  0  0  0  0  0
    4.1388   -1.4188    0.0000 H   0  0  0  0  0  0  0  0  0  0  0  0
    3.4103   -4.4909    0.0000 H   0  0  0  0  0  0  0  0  0  0  0  0
    4.2085   -4.4878    0.0000 H   0  0  0  0  0  0  0  0  0  0  0  0
    2.3430   -2.0713    0.0000 H   0  0  0  0  0  0  0  0  0  0  0  0
    4.4634   -0.8717    0.0000 H   0  0  0  0  0  0  0  0  0  0  0  0
    3.8554   -0.2398    0.0000 H   0  0  0  0  0  0  0  0  0  0  0  0
    3.2236   -0.8478    0.0000 H   0  0  0  0  0  0  0  0  0  0  0  0
    9.9186    2.1149    0.0000 H   0  0  0  0  0  0  0  0  0  0  0  0
    9.3253    1.5826    0.0000 H   0  0  0  0  0  0  0  0  0  0  0  0
   10.9382    1.0818    0.0000 H   0  0  0  0  0  0  0  0  0  0  0  0
   11.5315    1.6141    0.0000 H   0  0  0  0  0  0  0  0  0  0  0  0
   11.2077    3.2716    0.0000 H   0  0  0  0  0  0  0  0  0  0  0  0
   10.6145    2.7393    0.0000 H   0  0  0  0  0  0  0  0  0  0  0  0
   12.2274    2.2385    0.0000 H   0  0  0  0  0  0  0  0  0  0  0  0
   12.8206    2.7708    0.0000 H   0  0  0  0  0  0  0  0  0  0  0  0
   12.4969    4.4284    0.0000 H   0  0  0  0  0  0  0  0  0  0  0  0
   11.9037    3.8961    0.0000 H   0  0  0  0  0  0  0  0  0  0  0  0
   13.6238    3.4083    0.0000 H   0  0  0  0  0  0  0  0  0  0  0  0
   14.1027    4.1428    0.0000 H   0  0  0  0  0  0  0  0  0  0  0  0
   13.3681    4.6216    0.0000 H   0  0  0  0  0  0  0  0  0  0  0  0
  1 12  1  0  0  0  0
  1 24  1  0  0  0  0
  2 22  2  0  0  0  0
  3 24  2  0  0  0  0
  4  5  1  0  0  0  0
  4  6  1  0  0  0  0
  4 13  1  0  0  0  0
  4 31  1  0  0  0  0
  5  7  1  0  0  0  0
  5 14  1  0  0  0  0
  5 32  1  0  0  0  0
  6  9  1  0  0  0  0
  6 12  1  0  0  0  0
  6 17  1  0  0  0  0
  7  8  1  0  0  0  0
  7 10  1  0  0  0  0
  7 33  1  0  0  0  0
  8 11  1  0  0  0  0
  8 18  1  0  0  0  0
  8 19  1  0  0  0  0
  9 10  1  0  0  0  0
  9 34  1  0  0  0  0
  9 35  1  0  0  0  0
 10 36  1  0  0  0  0
 10 37  1  0  0  0  0
 11 15  1  0  0  0  0
 11 20  1  0  0  0  0
 11 38  1  0  0  0  0
 12 16  1  0  0  0  0
 12 39  1  0  0  0  0
 13 16  1  0  0  0  0
 13 40  1  0  0  0  0
 13 41  1  0  0  0  0
 14 15  1  0  0  0  0
 14 42  1  0  0  0  0
 14 43  1  0  0  0  0
 15 44  1  0  0  0  0
 15 45  1  0  0  0  0
 16 46  1  0  0  0  0
 16 47  1  0  0  0  0
 17 48  1  0  0  0  0
 17 49  1  0  0  0  0
 17 50  1  0  0  0  0
 18 21  2  0  0  0  0
 18 23  1  0  0  0  0
 19 51  1  0  0  0  0
 19 52  1  0  0  0  0
 19 53  1  0  0  0  0
 20 22  1  0  0  0  0
 20 54  1  0  0  0  0
 20 55  1  0  0  0  0
 21 22  1  0  0  0  0
 21 56  1  0  0  0  0
 23 57  1  0  0  0  0
 23 58  1  0  0  0  0
 23 59  1  0  0  0  0
 24 25  1  0  0  0  0
 25 26  1  0  0  0  0
 25 60  1  0  0  0  0
 25 61  1  0  0  0  0
 26 27  1  0  0  0  0
 26 62  1  0  0  0  0
 26 63  1  0  0  0  0
 27 28  1  0  0  0  0
 27 64  1  0  0  0  0
 27 65  1  0  0  0  0
 28 29  1  0  0  0  0
 28 66  1  0  0  0  0
 28 67  1  0  0  0  0
 29 30  1  0  0  0  0
 29 68  1  0  0  0  0
 29 69  1  0  0  0  0
 30 70  1  0  0  0  0
 30 71  1  0  0  0  0
 30 72  1  0  0  0  0
M  END
> <PUBCHEM_COMPOUND_CID>
4089

> <PUBCHEM_COMPOUND_CANONICALIZED>
1

> <PUBCHEM_CACTVS_COMPLEXITY>
709

> <PUBCHEM_CACTVS_HBOND_ACCEPTOR>
3

> <PUBCHEM_CACTVS_HBOND_DONOR>
0

> <PUBCHEM_CACTVS_ROTATABLE_BOND>
7

> <PUBCHEM_CACTVS_SUBSKEYS>
AAADcfB4MAAAAAAAAAAAAAAAAAAAAYAAAAAwYIAAAAAAAGDAAAAAGgAAAAAADxSggAICCAAABACIAqDSCAAAAAAgAAAACAEAAEgAABIAAQACAAAEgAAIAQOIyPCPgAAAAAAAAACAAAQAACAAAIAADAAAAA==

> <PUBCHEM_IUPAC_OPENEYE_NAME>
(1,10,13-trimethyl-3-oxo-4,5,6,7,8,9,11,12,14,15,16,17-dodecahydrocyclopenta[a]phenanthren-17-yl) heptanoate

> <PUBCHEM_IUPAC_CAS_NAME>
heptanoic acid (1,10,13-trimethyl-3-oxo-4,5,6,7,8,9,11,12,14,15,16,17-dodecahydrocyclopenta[a]phenanthren-17-yl) ester

> <PUBCHEM_IUPAC_NAME>
(1,10,13-trimethyl-3-oxo-4,5,6,7,8,9,11,12,14,15,16,17-dodecahydrocyclopenta[a]phenanthren-17-yl) heptanoate

> <PUBCHEM_IUPAC_SYSTEMATIC_NAME>
(1,10,13-trimethyl-3-oxidanylidene-4,5,6,7,8,9,11,12,14,15,16,17-dodecahydrocyclopenta[a]phenanthren-17-yl) heptanoate

> <PUBCHEM_IUPAC_TRADITIONAL_NAME>
enanthic acid (3-keto-1,10,13-trimethyl-4,5,6,7,8,9,11,12,14,15,16,17-dodecahydrocyclopenta[a]phenanthren-17-yl) ester

> <PUBCHEM_IUPAC_INCHI>
InChI=1S/C27H42O3/c1-5-6-7-8-9-25(29)30-24-13-12-22-21-11-10-19-17-20(28)16-18(2)27(19,4)23(21)14-15-26(22,24)3/h16,19,21-24H,5-15,17H2,1-4H3

> <PUBCHEM_IUPAC_INCHIKEY>
TXUICONDJPYNPY-UHFFFAOYSA-N

> <PUBCHEM_XLOGP3_AA>
6.9

> <PUBCHEM_EXACT_MASS>
414.313395

> <PUBCHEM_MOLECULAR_FORMULA>
C27H42O3

> <PUBCHEM_MOLECULAR_WEIGHT>
414.62058

> <PUBCHEM_OPENEYE_CAN_SMILES>
CCCCCCC(=O)OC1CCC2C1(CCC3C2CCC4C3(C(=CC(=O)C4)C)C)C

> <PUBCHEM_OPENEYE_ISO_SMILES>
CCCCCCC(=O)OC1CCC2C1(CCC3C2CCC4C3(C(=CC(=O)C4)C)C)C

> <PUBCHEM_CACTVS_TPSA>
43.4

> <PUBCHEM_MONOISOTOPIC_WEIGHT>
414.313395

> <PUBCHEM_TOTAL_CHARGE>
0

> <PUBCHEM_HEAVY_ATOM_COUNT>
30

> <PUBCHEM_ATOM_DEF_STEREO_COUNT>
0

> <PUBCHEM_ATOM_UDEF_STEREO_COUNT>
7

> <PUBCHEM_BOND_DEF_STEREO_COUNT>
0

> <PUBCHEM_BOND_UDEF_STEREO_COUNT>
0

> <PUBCHEM_ISOTOPIC_ATOM_COUNT>
0

> <PUBCHEM_COMPONENT_COUNT>
1

> <PUBCHEM_CACTVS_TAUTO_COUNT>
5

> <PUBCHEM_COORDINATE_TYPE>
1
5
255

> <PUBCHEM_BONDANNOTATIONS>
11  38  3
12  39  3
4  31  3
5  32  3
6  17  3
7  33  3
8  19  3

$$$$

