46173841
  -OEChem-07051213093D

 65 67  0     1  0  0  0  0  0999 V2000
    0.5389    0.7507    1.5379 O   0  0  0  0  0  0  0  0  0  0  0  0
    3.0928    1.4677   -1.4964 O   0  0  0  0  0  0  0  0  0  0  0  0
    2.5412   -1.3353   -0.7231 O   0  0  0  0  0  0  0  0  0  0  0  0
    0.8176   -3.2328   -0.1367 O   0  0  0  0  0  0  0  0  0  0  0  0
   -3.1493    1.5642    0.2782 O   0  0  0  0  0  0  0  0  0  0  0  0
   -1.3708   -4.3220   -1.1076 O   0  0  0  0  0  0  0  0  0  0  0  0
    5.1351    1.6121   -0.4766 O   0  0  0  0  0  0  0  0  0  0  0  0
    1.2071   -0.1560    3.5550 O   0  0  0  0  0  0  0  0  0  0  0  0
   -2.1139    3.5975   -0.0828 O   0  0  0  0  0  0  0  0  0  0  0  0
   -0.3913   -1.1435    0.2299 C   0  0  1  0  0  0  0  0  0  0  0  0
   -1.8091   -0.4975    0.5649 C   0  0  1  0  0  0  0  0  0  0  0  0
    0.8829   -0.4590    0.8694 C   0  0  1  0  0  0  0  0  0  0  0  0
    2.0736   -0.1412   -0.0945 C   0  0  1  0  0  0  0  0  0  0  0  0
   -0.3899   -2.7041    0.4099 C   0  0  1  0  0  0  0  0  0  0  0  0
   -1.9729    0.8812   -0.1907 C   0  0  1  0  0  0  0  0  0  0  0  0
    3.2653    0.5173    0.6388 C   0  0  2  0  0  0  0  0  0  0  0  0
    1.7927    0.9169   -1.1819 C   0  0  2  0  0  0  0  0  0  0  0  0
   -2.9477   -1.4127    0.1126 C   0  0  0  0  0  0  0  0  0  0  0  0
   -2.0304   -0.2673    2.0854 C   0  0  0  0  0  0  0  0  0  0  0  0
   -2.1135    0.8108   -1.7306 C   0  0  0  0  0  0  0  0  0  0  0  0
   -1.5103   -3.3042   -0.4321 C   0  0  0  0  0  0  0  0  0  0  0  0
   -0.5217   -3.2459    1.8364 C   0  0  0  0  0  0  0  0  0  0  0  0
   -2.8343   -2.6536   -0.3694 C   0  0  0  0  0  0  0  0  0  0  0  0
    3.9718    1.2409   -0.4780 C   0  0  0  0  0  0  0  0  0  0  0  0
    1.2357    0.4005   -2.4802 C   0  0  0  0  0  0  0  0  0  0  0  0
   -1.0109    1.5800   -2.4786 C   0  0  0  0  0  0  0  0  0  0  0  0
    4.1958   -0.4398    1.3696 C   0  0  0  0  0  0  0  0  0  0  0  0
    0.0472    0.6676   -3.0518 C   0  0  0  0  0  0  0  0  0  0  0  0
    0.7540    0.7638    2.8873 C   0  0  0  0  0  0  0  0  0  0  0  0
   -0.3073    0.0366   -4.3757 C   0  0  0  0  0  0  0  0  0  0  0  0
   -3.0697    2.9220    0.2740 C   0  0  0  0  0  0  0  0  0  0  0  0
    0.3488    2.0912    3.4528 C   0  0  0  0  0  0  0  0  0  0  0  0
   -4.3576    3.4937    0.7844 C   0  0  0  0  0  0  0  0  0  0  0  0
   -0.2667   -1.0231   -0.8505 H   0  0  0  0  0  0  0  0  0  0  0  0
    1.2869   -1.1869    1.5790 H   0  0  0  0  0  0  0  0  0  0  0  0
   -1.1025    1.4888    0.0670 H   0  0  0  0  0  0  0  0  0  0  0  0
    2.9326    1.3020    1.3272 H   0  0  0  0  0  0  0  0  0  0  0  0
    1.2034    1.7477   -0.7837 H   0  0  0  0  0  0  0  0  0  0  0  0
   -3.9536   -0.9968    0.1591 H   0  0  0  0  0  0  0  0  0  0  0  0
   -3.0711   -0.4538    2.3807 H   0  0  0  0  0  0  0  0  0  0  0  0
   -1.4120   -0.9132    2.7099 H   0  0  0  0  0  0  0  0  0  0  0  0
   -1.8378    0.7680    2.3758 H   0  0  0  0  0  0  0  0  0  0  0  0
   -3.0768    1.2441   -2.0323 H   0  0  0  0  0  0  0  0  0  0  0  0
   -2.1409   -0.2259   -2.0809 H   0  0  0  0  0  0  0  0  0  0  0  0
   -1.5020   -3.0443    2.2765 H   0  0  0  0  0  0  0  0  0  0  0  0
   -0.3957   -4.3361    1.8475 H   0  0  0  0  0  0  0  0  0  0  0  0
    0.2529   -2.8486    2.4982 H   0  0  0  0  0  0  0  0  0  0  0  0
   -3.6977   -3.2102   -0.7140 H   0  0  0  0  0  0  0  0  0  0  0  0
    1.9037   -0.2737   -3.0170 H   0  0  0  0  0  0  0  0  0  0  0  0
   -1.4727    2.1222   -3.3150 H   0  0  0  0  0  0  0  0  0  0  0  0
   -0.5693    2.3662   -1.8597 H   0  0  0  0  0  0  0  0  0  0  0  0
    4.9712    0.1194    1.9050 H   0  0  0  0  0  0  0  0  0  0  0  0
    3.6510   -1.0402    2.1039 H   0  0  0  0  0  0  0  0  0  0  0  0
    4.7134   -1.1158    0.6805 H   0  0  0  0  0  0  0  0  0  0  0  0
    2.6336   -2.0223   -0.0417 H   0  0  0  0  0  0  0  0  0  0  0  0
    0.8222   -4.1963   -0.0056 H   0  0  0  0  0  0  0  0  0  0  0  0
   -0.4759    0.8113   -5.1309 H   0  0  0  0  0  0  0  0  0  0  0  0
    0.4836   -0.6218   -4.7503 H   0  0  0  0  0  0  0  0  0  0  0  0
   -1.2179   -0.5638   -4.2846 H   0  0  0  0  0  0  0  0  0  0  0  0
   -0.3352    2.6133    2.7774 H   0  0  0  0  0  0  0  0  0  0  0  0
   -0.1721    1.9341    4.4010 H   0  0  0  0  0  0  0  0  0  0  0  0
    1.2393    2.7049    3.6068 H   0  0  0  0  0  0  0  0  0  0  0  0
   -4.5328    3.1562    1.8090 H   0  0  0  0  0  0  0  0  0  0  0  0
   -4.2950    4.5857    0.7835 H   0  0  0  0  0  0  0  0  0  0  0  0
   -5.1814    3.1918    0.1327 H   0  0  0  0  0  0  0  0  0  0  0  0
  1 12  1  0  0  0  0
  1 29  1  0  0  0  0
  2 17  1  0  0  0  0
  2 24  1  0  0  0  0
  3 13  1  0  0  0  0
  3 55  1  0  0  0  0
  4 14  1  0  0  0  0
  4 56  1  0  0  0  0
  5 15  1  0  0  0  0
  5 31  1  0  0  0  0
  6 21  2  0  0  0  0
  7 24  2  0  0  0  0
  8 29  2  0  0  0  0
  9 31  2  0  0  0  0
 10 11  1  0  0  0  0
 10 12  1  0  0  0  0
 10 14  1  0  0  0  0
 10 34  1  0  0  0  0
 11 15  1  0  0  0  0
 11 18  1  0  0  0  0
 11 19  1  0  0  0  0
 12 13  1  0  0  0  0
 12 35  1  0  0  0  0
 13 16  1  0  0  0  0
 13 17  1  0  0  0  0
 14 21  1  0  0  0  0
 14 22  1  0  0  0  0
 15 20  1  0  0  0  0
 15 36  1  0  0  0  0
 16 24  1  0  0  0  0
 16 27  1  0  0  0  0
 16 37  1  0  0  0  0
 17 25  1  0  0  0  0
 17 38  1  0  0  0  0
 18 23  2  0  0  0  0
 18 39  1  0  0  0  0
 19 40  1  0  0  0  0
 19 41  1  0  0  0  0
 19 42  1  0  0  0  0
 20 26  1  0  0  0  0
 20 43  1  0  0  0  0
 20 44  1  0  0  0  0
 21 23  1  0  0  0  0
 22 45  1  0  0  0  0
 22 46  1  0  0  0  0
 22 47  1  0  0  0  0
 23 48  1  0  0  0  0
 25 28  2  0  0  0  0
 25 49  1  0  0  0  0
 26 28  1  0  0  0  0
 26 50  1  0  0  0  0
 26 51  1  0  0  0  0
 27 52  1  0  0  0  0
 27 53  1  0  0  0  0
 27 54  1  0  0  0  0
 28 30  1  0  0  0  0
 29 32  1  0  0  0  0
 30 57  1  0  0  0  0
 30 58  1  0  0  0  0
 30 59  1  0  0  0  0
 31 33  1  0  0  0  0
 32 60  1  0  0  0  0
 32 61  1  0  0  0  0
 32 62  1  0  0  0  0
 33 63  1  0  0  0  0
 33 64  1  0  0  0  0
 33 65  1  0  0  0  0
M  END
> <PUBCHEM_COMPOUND_CID>
46173841

> <PUBCHEM_CONFORMER_RMSD>
0.8

> <PUBCHEM_CONFORMER_DIVERSEORDER>
1

> <PUBCHEM_MMFF94_PARTIAL_CHARGES>
33
1 -0.43
11 0.14
12 0.28
13 0.28
14 0.34
15 0.28
16 0.06
17 0.42
18 -0.29
2 -0.43
21 0.49
23 -0.14
24 0.66
25 -0.29
26 0.14
28 -0.28
29 0.66
3 -0.68
30 0.14
31 0.66
32 0.06
33 0.06
39 0.15
4 -0.68
48 0.15
49 0.15
5 -0.43
55 0.4
56 0.4
6 -0.57
7 -0.57
8 -0.57
9 -0.57

> <PUBCHEM_EFFECTIVE_ROTOR_COUNT>
5.4

> <PUBCHEM_PHARMACOPHORE_FEATURES>
10
1 3 acceptor
1 3 donor
1 4 acceptor
1 4 donor
1 6 acceptor
1 7 acceptor
1 8 acceptor
1 9 acceptor
5 2 13 16 17 24 rings
6 10 11 14 18 21 23 rings

> <PUBCHEM_HEAVY_ATOM_COUNT>
33

> <PUBCHEM_ATOM_DEF_STEREO_COUNT>
8

> <PUBCHEM_ATOM_UDEF_STEREO_COUNT>
0

> <PUBCHEM_BOND_DEF_STEREO_COUNT>
1

> <PUBCHEM_BOND_UDEF_STEREO_COUNT>
0

> <PUBCHEM_ISOTOPIC_ATOM_COUNT>
0

> <PUBCHEM_COMPONENT_COUNT>
1

> <PUBCHEM_CACTVS_TAUTO_COUNT>
2

> <PUBCHEM_CONFORMER_ID>
02C08E9100000001

> <PUBCHEM_MMFF94_ENERGY>
108.5203

> <PUBCHEM_FEATURE_SELFOVERLAP>
50.774

> <PUBCHEM_SHAPE_FINGERPRINT>
10165383 225 18337105791063537025
10863032 1 18409162246760661932
11370993 70 18338517567939979984
11578080 2 18194370443183670116
11582403 64 17315382424592405664
12156800 1 13670360495060896317
12422481 6 17773318052472647569
12539773 59 17917998252286861933
12788726 201 18053077563769298717
13009979 54 17912639103927833670
131258 38 13971672864934807640
13140716 1 18129375071811596930
133893 2 17261355829371028147
13583140 156 17749402425402890850
13965767 371 17558831925554584573
15219462 58 17684416876710994442
16945 1 18196356049007913394
19319366 153 17826527840015633537
20600515 1 17324042998691066030
23419403 2 17244987026100890783
35225 105 18187092710704093191
5845 1 16739684544406582107
6287921 2 17836920467124252877

> <PUBCHEM_SHAPE_MULTIPOLES>
626.3
5.95
4.2
3.6
4
2.41
0.78
-4.16
-0.76
-4.4
-0.25
0.54
-1.45
-1.03

> <PUBCHEM_SHAPE_SELFOVERLAP>
1315.89

> <PUBCHEM_SHAPE_VOLUME>
347.4

> <PUBCHEM_COORDINATE_TYPE>
2
5
10

$$$$

