249677
  -OEChem-07051213062D

 36 39  0     0  0  0  0  0  0999 V2000
    2.8602    0.4483    0.0000 Cl  0  0  0  0  0  0  0  0  0  0  0  0
    8.9942   -1.0176    0.0000 O   0  0  0  0  0  0  0  0  0  0  0  0
   10.7263   -1.0176    0.0000 O   0  0  0  0  0  0  0  0  0  0  0  0
    5.4641   -1.0417    0.0000 N   0  0  0  0  0  0  0  0  0  0  0  0
    8.1282    0.4824    0.0000 C   0  0  0  0  0  0  0  0  0  0  0  0
    8.9942    0.9824    0.0000 C   0  0  0  0  0  0  0  0  0  0  0  0
    8.1282   -0.5176    0.0000 C   0  0  0  0  0  0  0  0  0  0  0  0
    9.8602    0.4824    0.0000 C   0  0  0  0  0  0  0  0  0  0  0  0
    7.2342    1.0171    0.0000 C   0  0  0  0  0  0  0  0  0  0  0  0
    7.2342   -1.0522    0.0000 C   0  0  0  0  0  0  0  0  0  0  0  0
    8.9781    2.0240    0.0000 C   0  0  0  0  0  0  0  0  0  0  0  0
    6.3282   -0.5384    0.0000 C   0  0  0  0  0  0  0  0  0  0  0  0
    9.8602   -0.5176    0.0000 C   0  0  0  0  0  0  0  0  0  0  0  0
   10.7702    0.9893    0.0000 C   0  0  0  0  0  0  0  0  0  0  0  0
    6.3282    0.5033    0.0000 C   0  0  0  0  0  0  0  0  0  0  0  0
    9.8762    2.5517    0.0000 C   0  0  0  0  0  0  0  0  0  0  0  0
   10.7783    2.0309    0.0000 C   0  0  0  0  0  0  0  0  0  0  0  0
    3.7320   -1.0484    0.0000 C   0  0  0  0  0  0  0  0  0  0  0  0
    4.5961   -0.5450    0.0000 C   0  0  0  0  0  0  0  0  0  0  0  0
    2.8641   -0.5517    0.0000 C   0  0  0  0  0  0  0  0  0  0  0  0
    3.7359   -2.0484    0.0000 C   0  0  0  0  0  0  0  0  0  0  0  0
    2.0000   -1.0551    0.0000 C   0  0  0  0  0  0  0  0  0  0  0  0
    2.8718   -2.5517    0.0000 C   0  0  0  0  0  0  0  0  0  0  0  0
    2.0038   -2.0550    0.0000 C   0  0  0  0  0  0  0  0  0  0  0  0
    7.2414    1.6371    0.0000 H   0  0  0  0  0  0  0  0  0  0  0  0
    7.2414   -1.6722    0.0000 H   0  0  0  0  0  0  0  0  0  0  0  0
    8.4377    2.3277    0.0000 H   0  0  0  0  0  0  0  0  0  0  0  0
   11.3035    0.6731    0.0000 H   0  0  0  0  0  0  0  0  0  0  0  0
    5.7924    0.8153    0.0000 H   0  0  0  0  0  0  0  0  0  0  0  0
    9.8738    3.1717    0.0000 H   0  0  0  0  0  0  0  0  0  0  0  0
   11.3164    2.3388    0.0000 H   0  0  0  0  0  0  0  0  0  0  0  0
    4.5937    0.0749    0.0000 H   0  0  0  0  0  0  0  0  0  0  0  0
    4.2740   -2.3563    0.0000 H   0  0  0  0  0  0  0  0  0  0  0  0
    1.4619   -0.7471    0.0000 H   0  0  0  0  0  0  0  0  0  0  0  0
    2.8742   -3.1717    0.0000 H   0  0  0  0  0  0  0  0  0  0  0  0
    1.4681   -2.3671    0.0000 H   0  0  0  0  0  0  0  0  0  0  0  0
  1 20  1  0  0  0  0
  2  7  1  0  0  0  0
  2 13  1  0  0  0  0
  3 13  2  0  0  0  0
  4 12  1  0  0  0  0
  4 19  2  0  0  0  0
  5  6  1  0  0  0  0
  5  7  2  0  0  0  0
  5  9  1  0  0  0  0
  6  8  1  0  0  0  0
  6 11  2  0  0  0  0
  7 10  1  0  0  0  0
  8 13  1  0  0  0  0
  8 14  2  0  0  0  0
  9 15  2  0  0  0  0
  9 25  1  0  0  0  0
 10 12  2  0  0  0  0
 10 26  1  0  0  0  0
 11 16  1  0  0  0  0
 11 27  1  0  0  0  0
 12 15  1  0  0  0  0
 14 17  1  0  0  0  0
 14 28  1  0  0  0  0
 15 29  1  0  0  0  0
 16 17  2  0  0  0  0
 16 30  1  0  0  0  0
 17 31  1  0  0  0  0
 18 19  1  0  0  0  0
 18 20  1  0  0  0  0
 18 21  2  0  0  0  0
 19 32  1  0  0  0  0
 20 22  2  0  0  0  0
 21 23  1  0  0  0  0
 21 33  1  0  0  0  0
 22 24  1  0  0  0  0
 22 34  1  0  0  0  0
 23 24  2  0  0  0  0
 23 35  1  0  0  0  0
 24 36  1  0  0  0  0
M  END
> <PUBCHEM_COMPOUND_CID>
249677

> <PUBCHEM_COMPOUND_CANONICALIZED>
1

> <PUBCHEM_CACTVS_COMPLEXITY>
494

> <PUBCHEM_CACTVS_HBOND_ACCEPTOR>
3

> <PUBCHEM_CACTVS_HBOND_DONOR>
0

> <PUBCHEM_CACTVS_ROTATABLE_BOND>
2

> <PUBCHEM_CACTVS_SUBSKEYS>
AAADccB6MAAEAAAAAAAAAAAAAAAAAAAAAAA0YMEAAAAAAACRUAAAHgIAAAAADA7BmCQwzoIABACoAjTzTACCCAAkJwAIiAEmbtgMJrKFt5uCOyDmwBkI6YeY3OHOiAAAAgAZAAAQAAAEADIAAAAAAAAAAA==

> <PUBCHEM_IUPAC_OPENEYE_NAME>
3-[(2-chlorophenyl)methyleneamino]benzo[c]chromen-6-one

> <PUBCHEM_IUPAC_CAS_NAME>
3-[(2-chlorophenyl)methylideneamino]-6-benzo[c][1]benzopyranone

> <PUBCHEM_IUPAC_NAME>
3-[(2-chlorophenyl)methylideneamino]benzo[c]chromen-6-one

> <PUBCHEM_IUPAC_SYSTEMATIC_NAME>
3-[(2-chlorophenyl)methylideneamino]benzo[c]chromen-6-one

> <PUBCHEM_IUPAC_TRADITIONAL_NAME>
3-[(2-chlorobenzylidene)amino]benzo[c]chromen-6-one

> <PUBCHEM_IUPAC_INCHI>
InChI=1S/C20H12ClNO2/c21-18-8-4-1-5-13(18)12-22-14-9-10-16-15-6-2-3-7-17(15)20(23)24-19(16)11-14/h1-12H

> <PUBCHEM_IUPAC_INCHIKEY>
ZKALLZGPPRUEMZ-UHFFFAOYSA-N

> <PUBCHEM_XLOGP3_AA>
5

> <PUBCHEM_EXACT_MASS>
333.055656

> <PUBCHEM_MOLECULAR_FORMULA>
C20H12ClNO2

> <PUBCHEM_MOLECULAR_WEIGHT>
333.76778

> <PUBCHEM_OPENEYE_CAN_SMILES>
C1=CC=C(C(=C1)C=NC2=CC3=C(C=C2)C4=CC=CC=C4C(=O)O3)Cl

> <PUBCHEM_OPENEYE_ISO_SMILES>
C1=CC=C(C(=C1)C=NC2=CC3=C(C=C2)C4=CC=CC=C4C(=O)O3)Cl

> <PUBCHEM_CACTVS_TPSA>
38.7

> <PUBCHEM_MONOISOTOPIC_WEIGHT>
333.055656

> <PUBCHEM_TOTAL_CHARGE>
0

> <PUBCHEM_HEAVY_ATOM_COUNT>
24

> <PUBCHEM_ATOM_DEF_STEREO_COUNT>
0

> <PUBCHEM_ATOM_UDEF_STEREO_COUNT>
0

> <PUBCHEM_BOND_DEF_STEREO_COUNT>
0

> <PUBCHEM_BOND_UDEF_STEREO_COUNT>
0

> <PUBCHEM_ISOTOPIC_ATOM_COUNT>
0

> <PUBCHEM_COMPONENT_COUNT>
1

> <PUBCHEM_CACTVS_TAUTO_COUNT>
1

> <PUBCHEM_COORDINATE_TYPE>
1
5
255

> <PUBCHEM_BONDANNOTATIONS>
10  12  8
11  16  8
12  15  8
14  17  8
16  17  8
18  20  8
18  21  8
2  13  8
2  7  8
20  22  8
21  23  8
22  24  8
23  24  8
5  6  8
5  7  8
5  9  8
6  11  8
6  8  8
7  10  8
8  13  8
8  14  8
9  15  8

$$$$

