46173992
  -OEChem-07051213103D

 42 44  0     1  0  0  0  0  0999 V2000
   -6.8478   -0.9092    0.2164 O   0  0  0  0  0  0  0  0  0  0  0  0
   -4.8800   -2.5158   -0.8986 O   0  0  0  0  0  0  0  0  0  0  0  0
    1.9728   -3.4734    0.6637 O   0  0  0  0  0  0  0  0  0  0  0  0
    4.1610   -3.2836    0.0540 O   0  0  0  0  0  0  0  0  0  0  0  0
    6.4229    0.5437    0.2788 O   0  0  0  0  0  0  0  0  0  0  0  0
    5.5854    2.5599   -0.4026 O   0  0  0  0  0  0  0  0  0  0  0  0
   -1.7499    1.1576   -0.1094 N   0  3  0  0  0  0  0  0  0  0  0  0
    4.1314   -0.6250    0.3237 N   0  0  0  0  0  0  0  0  0  0  0  0
   -1.9316    2.5149    0.4786 C   0  0  0  0  0  0  0  0  0  0  0  0
   -3.4115    2.6048    0.8734 C   0  0  0  0  0  0  0  0  0  0  0  0
   -3.9569    1.2815    0.4507 C   0  0  0  0  0  0  0  0  0  0  0  0
   -2.9721    0.4715   -0.1089 C   0  0  0  0  0  0  0  0  0  0  0  0
    1.7835   -0.7988   -0.3494 C   0  0  0  0  0  0  0  0  0  0  0  0
    2.8806   -1.3123    0.5979 C   0  0  1  0  0  0  0  0  0  0  0  0
    1.7573    0.7165   -0.4365 C   0  0  0  0  0  0  0  0  0  0  0  0
   -0.6537    0.6641   -0.5585 C   0  0  0  0  0  0  0  0  0  0  0  0
   -5.2629    0.8321    0.5673 C   0  0  0  0  0  0  0  0  0  0  0  0
   -3.2560   -0.8058   -0.5683 C   0  0  0  0  0  0  0  0  0  0  0  0
    0.6125    1.4056   -0.5466 C   0  0  0  0  0  0  0  0  0  0  0  0
    3.0547    1.3806   -0.4174 C   0  0  0  0  0  0  0  0  0  0  0  0
    4.1541    0.6909   -0.0729 C   0  0  0  0  0  0  0  0  0  0  0  0
   -5.5679   -0.4513    0.1095 C   0  0  0  0  0  0  0  0  0  0  0  0
   -4.5716   -1.2635   -0.4540 C   0  0  0  0  0  0  0  0  0  0  0  0
    3.1055   -2.7761    0.4027 C   0  0  0  0  0  0  0  0  0  0  0  0
    5.4403    1.3907   -0.0936 C   0  0  0  0  0  0  0  0  0  0  0  0
   -1.2739    2.6140    1.3489 H   0  0  0  0  0  0  0  0  0  0  0  0
   -1.6760    3.2628   -0.2797 H   0  0  0  0  0  0  0  0  0  0  0  0
   -3.9083    3.4266    0.3476 H   0  0  0  0  0  0  0  0  0  0  0  0
   -3.5200    2.7501    1.9532 H   0  0  0  0  0  0  0  0  0  0  0  0
    0.8429   -1.2250    0.0114 H   0  0  0  0  0  0  0  0  0  0  0  0
    1.9453   -1.1976   -1.3610 H   0  0  0  0  0  0  0  0  0  0  0  0
    2.6086   -1.1360    1.6458 H   0  0  0  0  0  0  0  0  0  0  0  0
   -0.6621   -0.3410   -1.0007 H   0  0  0  0  0  0  0  0  0  0  0  0
   -6.0248    1.4690    1.0057 H   0  0  0  0  0  0  0  0  0  0  0  0
   -2.4974   -1.4456   -1.0053 H   0  0  0  0  0  0  0  0  0  0  0  0
    0.5997    2.4895   -0.5762 H   0  0  0  0  0  0  0  0  0  0  0  0
    5.0043   -1.0335    0.6419 H   0  0  0  0  0  0  0  0  0  0  0  0
    3.0884    2.4336   -0.6804 H   0  0  0  0  0  0  0  0  0  0  0  0
   -7.3975   -0.2196    0.6267 H   0  0  0  0  0  0  0  0  0  0  0  0
   -4.0769   -2.9329   -1.2550 H   0  0  0  0  0  0  0  0  0  0  0  0
    2.0994   -4.4381    0.5393 H   0  0  0  0  0  0  0  0  0  0  0  0
    7.3031    0.9767    0.2774 H   0  0  0  0  0  0  0  0  0  0  0  0
  1 22  1  0  0  0  0
  1 39  1  0  0  0  0
  2 23  1  0  0  0  0
  2 40  1  0  0  0  0
  3 24  1  0  0  0  0
  3 41  1  0  0  0  0
  4 24  2  0  0  0  0
  5 25  1  0  0  0  0
  5 42  1  0  0  0  0
  6 25  2  0  0  0  0
  7  9  1  0  0  0  0
  7 12  1  0  0  0  0
  7 16  2  0  0  0  0
  8 14  1  0  0  0  0
  8 21  1  0  0  0  0
  8 37  1  0  0  0  0
  9 10  1  0  0  0  0
  9 26  1  0  0  0  0
  9 27  1  0  0  0  0
 10 11  1  0  0  0  0
 10 28  1  0  0  0  0
 10 29  1  0  0  0  0
 11 12  1  0  0  0  0
 11 17  2  0  0  0  0
 12 18  2  0  0  0  0
 13 14  1  0  0  0  0
 13 15  1  0  0  0  0
 13 30  1  0  0  0  0
 13 31  1  0  0  0  0
 14 24  1  0  0  0  0
 14 32  1  0  0  0  0
 15 19  2  0  0  0  0
 15 20  1  0  0  0  0
 16 19  1  0  0  0  0
 16 33  1  0  0  0  0
 17 22  1  0  0  0  0
 17 34  1  0  0  0  0
 18 23  1  0  0  0  0
 18 35  1  0  0  0  0
 19 36  1  0  0  0  0
 20 21  2  0  0  0  0
 20 38  1  0  0  0  0
 21 25  1  0  0  0  0
 22 23  2  0  0  0  0
M  CHG  1   7   1
M  END
> <PUBCHEM_COMPOUND_CID>
46173992

> <PUBCHEM_CONFORMER_RMSD>
0.8

> <PUBCHEM_CONFORMER_DIVERSEORDER>
2
6
1
4
3
5

> <PUBCHEM_MMFF94_PARTIAL_CHARGES>
35
1 -0.53
10 0.14
11 -0.14
12 0.3
13 0.14
14 0.43
15 -0.14
16 0.33
17 -0.15
18 -0.15
19 -0.14
2 -0.53
20 -0.15
21 0.11
22 0.08
23 0.08
24 0.66
25 0.71
3 -0.65
33 0.06
34 0.15
35 0.15
36 0.15
37 0.4
38 0.15
39 0.45
4 -0.57
40 0.45
41 0.5
42 0.5
5 -0.65
6 -0.57
7 -0.04
8 -0.87
9 0.35

> <PUBCHEM_EFFECTIVE_ROTOR_COUNT>
4

> <PUBCHEM_PHARMACOPHORE_FEATURES>
13
1 1 donor
1 2 donor
1 3 acceptor
1 4 acceptor
1 5 acceptor
1 6 acceptor
1 8 cation
1 8 donor
3 3 4 24 anion
3 5 6 25 anion
5 7 9 10 11 12 rings
6 11 12 17 18 22 23 rings
6 8 13 14 15 20 21 rings

> <PUBCHEM_HEAVY_ATOM_COUNT>
25

> <PUBCHEM_ATOM_DEF_STEREO_COUNT>
1

> <PUBCHEM_ATOM_UDEF_STEREO_COUNT>
0

> <PUBCHEM_BOND_DEF_STEREO_COUNT>
1

> <PUBCHEM_BOND_UDEF_STEREO_COUNT>
0

> <PUBCHEM_ISOTOPIC_ATOM_COUNT>
0

> <PUBCHEM_COMPONENT_COUNT>
1

> <PUBCHEM_CACTVS_TAUTO_COUNT>
12

> <PUBCHEM_CONFORMER_ID>
02C08F2800000002

> <PUBCHEM_MMFF94_ENERGY>
73.1221

> <PUBCHEM_FEATURE_SELFOVERLAP>
66.166

> <PUBCHEM_SHAPE_FINGERPRINT>
10595046 47 18409166610336794569
10835480 77 18271815652645742621
12107183 9 17760362592888549265
12236239 1 18412261731358640077
12596602 18 17967246507407487328
12788726 201 17458620176846457169
13073987 5 18410289246622367233
13167823 11 18337672026545093995
13533116 47 18409168826866752651
13583140 156 18115890613964489956
13631057 29 18262521377633829599
13726171 33 17096071584975480200
14341114 176 18336260232076876645
14341114 328 18335138700062083769
14394314 77 18408316688814109057
14849402 71 18264209102741371792
15196674 1 18339079397223370199
15250474 111 18336555987946966727
15537594 2 18260549991924388303
15927050 60 17324926958880105948
16992610 120 18198328569866342380
16993438 75 17842269277007423003
17492 89 18266178516221664419
17844677 252 18265044906858782648
17857418 61 18411703184062746965
1813 80 17346027965468826365
19377110 9 18409453591630254232
19841028 212 18272374183452505787
20028762 73 18408605855966431390
20511986 3 18339935874000708797
21054139 6 18339081484677696662
21065198 48 18335418019092150209
21065198 57 18123752225361515004
21197605 99 18341326687332704498
21315763 178 18409167684574205087
21623969 137 18131343086214824379
21673915 165 18411982476753141491
22224240 67 18340491076244721224
23559900 14 18118412971015935248
239999 70 18261104210615362030
34797466 226 17241034415154720700
3633792 109 18200323225148923885
4073 2 18271801281373394523
4325135 7 18411136922230819004
5104073 3 18188770681480930865
5758199 1 18337952295253614696
6431902 208 18341611452581158067
6823239 73 17678725959276512310
9709674 26 18272643580110098579

> <PUBCHEM_SHAPE_MULTIPOLES>
469.31
15.66
3.34
0.8
1.89
2.07
0
0.82
0.8
-2.16
0.45
0.25
0
-1.84

> <PUBCHEM_SHAPE_SELFOVERLAP>
1022.208

> <PUBCHEM_SHAPE_VOLUME>
255.5

> <PUBCHEM_COORDINATE_TYPE>
2
5
10

$$$$

