442263
  -OEChem-07051212572D

 46 47  0     1  0  0  0  0  0999 V2000
    9.6365   -0.7418    0.0000 O   0  0  0  0  0  0  0  0  0  0  0  0
    8.1165    2.1538    0.0000 O   0  0  0  0  0  0  0  0  0  0  0  0
   11.2160    0.0708    0.0000 O   0  0  0  0  0  0  0  0  0  0  0  0
    3.5043   -1.6997    0.0000 O   0  0  0  0  0  0  0  0  0  0  0  0
    2.0000   -0.8412    0.0000 O   0  0  0  0  0  0  0  0  0  0  0  0
    8.6838    0.5582    0.0000 C   0  0  1  0  0  0  0  0  0  0  0  0
    7.8988    1.1778    0.0000 C   0  0  1  0  0  0  0  0  0  0  0  0
    8.6887   -0.4418    0.0000 C   0  0  1  0  0  0  0  0  0  0  0  0
    6.9250    0.9504    0.0000 C   0  0  1  0  0  0  0  0  0  0  0  0
    7.9100   -1.0692    0.0000 C   0  0  0  0  0  0  0  0  0  0  0  0
    6.4956    0.0473    0.0000 C   0  0  0  0  0  0  0  0  0  0  0  0
    6.9340   -0.8515    0.0000 C   0  0  0  0  0  0  0  0  0  0  0  0
    9.6284    0.8676    0.0000 C   0  0  0  0  0  0  0  0  0  0  0  0
    5.4956    0.0423    0.0000 C   0  0  0  0  0  0  0  0  0  0  0  0
    6.2976    1.7291    0.0000 C   0  0  0  0  0  0  0  0  0  0  0  0
   10.2161    0.0658    0.0000 C   0  0  0  0  0  0  0  0  0  0  0  0
    6.3144   -1.6365    0.0000 C   0  0  0  0  0  0  0  0  0  0  0  0
    5.0000   -0.8262    0.0000 C   0  0  0  0  0  0  0  0  0  0  0  0
    9.9344    1.8197    0.0000 C   0  0  0  0  0  0  0  0  0  0  0  0
    4.0000   -0.8312    0.0000 C   0  0  0  0  0  0  0  0  0  0  0  0
    2.5043   -1.7047    0.0000 C   0  0  0  0  0  0  0  0  0  0  0  0
    2.0086   -2.5732    0.0000 C   0  0  0  0  0  0  0  0  0  0  0  0
    8.8324    1.3951    0.0000 H   0  0  0  0  0  0  0  0  0  0  0  0
    7.4582    1.6140    0.0000 H   0  0  0  0  0  0  0  0  0  0  0  0
    8.8458   -1.2772    0.0000 H   0  0  0  0  0  0  0  0  0  0  0  0
    7.1269    1.5366    0.0000 H   0  0  0  0  0  0  0  0  0  0  0  0
    7.6438   -1.6291    0.0000 H   0  0  0  0  0  0  0  0  0  0  0  0
    8.3967   -1.4533    0.0000 H   0  0  0  0  0  0  0  0  0  0  0  0
    5.6002    0.6534    0.0000 H   0  0  0  0  0  0  0  0  0  0  0  0
    4.9120    0.2514    0.0000 H   0  0  0  0  0  0  0  0  0  0  0  0
    6.7804    2.1181    0.0000 H   0  0  0  0  0  0  0  0  0  0  0  0
    5.9086    2.2119    0.0000 H   0  0  0  0  0  0  0  0  0  0  0  0
    5.8148    1.3401    0.0000 H   0  0  0  0  0  0  0  0  0  0  0  0
    5.8278   -1.2523    0.0000 H   0  0  0  0  0  0  0  0  0  0  0  0
    5.9303   -2.1231    0.0000 H   0  0  0  0  0  0  0  0  0  0  0  0
    6.8011   -2.0206    0.0000 H   0  0  0  0  0  0  0  0  0  0  0  0
    7.6599    2.5732    0.0000 H   0  0  0  0  0  0  0  0  0  0  0  0
    4.8954   -1.4373    0.0000 H   0  0  0  0  0  0  0  0  0  0  0  0
    5.5836   -1.0354    0.0000 H   0  0  0  0  0  0  0  0  0  0  0  0
   10.5404    1.9506    0.0000 H   0  0  0  0  0  0  0  0  0  0  0  0
    9.5180    2.2791    0.0000 H   0  0  0  0  0  0  0  0  0  0  0  0
    4.1046   -0.2201    0.0000 H   0  0  0  0  0  0  0  0  0  0  0  0
    3.4163   -0.6221    0.0000 H   0  0  0  0  0  0  0  0  0  0  0  0
    1.4702   -2.2659    0.0000 H   0  0  0  0  0  0  0  0  0  0  0  0
    1.7013   -3.1117    0.0000 H   0  0  0  0  0  0  0  0  0  0  0  0
    2.5471   -2.8805    0.0000 H   0  0  0  0  0  0  0  0  0  0  0  0
  1  8  1  0  0  0  0
  1 16  1  0  0  0  0
  7  2  1  1  0  0  0
  2 37  1  0  0  0  0
  3 16  2  0  0  0  0
  4 20  1  0  0  0  0
  4 21  1  0  0  0  0
  5 21  2  0  0  0  0
  6  7  1  0  0  0  0
  6  8  1  0  0  0  0
  6 13  1  0  0  0  0
  6 23  1  1  0  0  0
  7  9  1  0  0  0  0
  7 24  1  0  0  0  0
  8 10  1  0  0  0  0
  8 25  1  1  0  0  0
  9 11  1  0  0  0  0
  9 15  1  1  0  0  0
  9 26  1  0  0  0  0
 10 12  1  0  0  0  0
 10 27  1  0  0  0  0
 10 28  1  0  0  0  0
 11 12  2  0  0  0  0
 11 14  1  0  0  0  0
 12 17  1  0  0  0  0
 13 16  1  0  0  0  0
 13 19  2  0  0  0  0
 14 18  1  0  0  0  0
 14 29  1  0  0  0  0
 14 30  1  0  0  0  0
 15 31  1  0  0  0  0
 15 32  1  0  0  0  0
 15 33  1  0  0  0  0
 17 34  1  0  0  0  0
 17 35  1  0  0  0  0
 17 36  1  0  0  0  0
 18 20  1  0  0  0  0
 18 38  1  0  0  0  0
 18 39  1  0  0  0  0
 19 40  1  0  0  0  0
 19 41  1  0  0  0  0
 20 42  1  0  0  0  0
 20 43  1  0  0  0  0
 21 22  1  0  0  0  0
 22 44  1  0  0  0  0
 22 45  1  0  0  0  0
 22 46  1  0  0  0  0
M  END
> <PUBCHEM_COMPOUND_CID>
442263

> <PUBCHEM_COMPOUND_CANONICALIZED>
1

> <PUBCHEM_CACTVS_COMPLEXITY>
519

> <PUBCHEM_CACTVS_HBOND_ACCEPTOR>
5

> <PUBCHEM_CACTVS_HBOND_DONOR>
1

> <PUBCHEM_CACTVS_ROTATABLE_BOND>
5

> <PUBCHEM_CACTVS_SUBSKEYS>
AAADceB4OAAAAAAAAAAAAAAAAAAAASAAAAAAAAAABAAAAACAAAAAGgAACAAADRSggAICCAAABgCIAgDSCAAAAAAgAAAACAEAAEgAFBIAIQACQAAFwAAIIIPKyPCOAAAAAAAAAAAAAAAAAAAAAAAAAAAAAA==

> <PUBCHEM_IUPAC_OPENEYE_NAME>
3-[(3aS,4R,5R,8aR)-4-hydroxy-5,7-dimethyl-3-methylene-2-oxo-4,5,8,8a-tetrahydro-3aH-cyclohepta[b]furan-6-yl]propyl acetate

> <PUBCHEM_IUPAC_CAS_NAME>
acetic acid 3-[(3aS,4R,5R,8aR)-4-hydroxy-5,7-dimethyl-3-methylene-2-oxo-4,5,8,8a-tetrahydro-3aH-cyclohepta[b]furan-6-yl]propyl ester

> <PUBCHEM_IUPAC_NAME>
3-[(3aS,4R,5R,8aR)-4-hydroxy-5,7-dimethyl-3-methylidene-2-oxo-4,5,8,8a-tetrahydro-3aH-cyclohepta[b]furan-6-yl]propyl acetate

> <PUBCHEM_IUPAC_SYSTEMATIC_NAME>
3-[(3aS,4R,5R,8aR)-5,7-dimethyl-3-methylidene-4-oxidanyl-2-oxidanylidene-4,5,8,8a-tetrahydro-3aH-cyclohepta[b]furan-6-yl]propyl ethanoate

> <PUBCHEM_IUPAC_TRADITIONAL_NAME>
acetic acid 3-[(3aS,4R,5R,8aR)-4-hydroxy-2-keto-5,7-dimethyl-3-methylene-4,5,8,8a-tetrahydro-3aH-cyclohepta[b]furan-6-yl]propyl ester

> <PUBCHEM_IUPAC_INCHI>
InChI=1S/C17H24O5/c1-9-8-14-15(11(3)17(20)22-14)16(19)10(2)13(9)6-5-7-21-12(4)18/h10,14-16,19H,3,5-8H2,1-2,4H3/t10-,14-,15-,16-/m1/s1

> <PUBCHEM_IUPAC_INCHIKEY>
QKVABRCMWRXFAF-HMTTWLPMSA-N

> <PUBCHEM_XLOGP3_AA>
1.4

> <PUBCHEM_EXACT_MASS>
308.162374

> <PUBCHEM_MOLECULAR_FORMULA>
C17H24O5

> <PUBCHEM_MOLECULAR_WEIGHT>
308.36946

> <PUBCHEM_OPENEYE_CAN_SMILES>
CC1C(C2C(CC(=C1CCCOC(=O)C)C)OC(=O)C2=C)O

> <PUBCHEM_OPENEYE_ISO_SMILES>
C[C@H]1[C@H]([C@H]2[C@@H](CC(=C1CCCOC(=O)C)C)OC(=O)C2=C)O

> <PUBCHEM_CACTVS_TPSA>
72.8

> <PUBCHEM_MONOISOTOPIC_WEIGHT>
308.162374

> <PUBCHEM_TOTAL_CHARGE>
0

> <PUBCHEM_HEAVY_ATOM_COUNT>
22

> <PUBCHEM_ATOM_DEF_STEREO_COUNT>
4

> <PUBCHEM_ATOM_UDEF_STEREO_COUNT>
0

> <PUBCHEM_BOND_DEF_STEREO_COUNT>
0

> <PUBCHEM_BOND_UDEF_STEREO_COUNT>
0

> <PUBCHEM_ISOTOPIC_ATOM_COUNT>
0

> <PUBCHEM_COMPONENT_COUNT>
1

> <PUBCHEM_CACTVS_TAUTO_COUNT>
1

> <PUBCHEM_COORDINATE_TYPE>
1
5
255

> <PUBCHEM_BONDANNOTATIONS>
7  2  5
6  23  5
8  25  5
9  15  5

$$$$

