15907362
  -OEChem-07051213023D

 52 55  0     1  0  0  0  0  0999 V2000
    0.7936   -0.1276   -0.3260 C   0  0  2  0  0  0  0  0  0  0  0  0
   -0.7346   -0.3919   -0.6714 C   0  0  2  0  0  0  0  0  0  0  0  0
    1.0744    1.3973   -0.4512 C   0  0  2  0  0  0  0  0  0  0  0  0
   -1.5866    0.4234    0.3894 C   0  0  2  0  0  0  0  0  0  0  0  0
    1.8614   -0.6347   -1.3155 C   0  0  0  0  0  0  0  0  0  0  0  0
    3.1133    0.1228   -0.8076 C   0  0  1  0  0  0  0  0  0  0  0  0
    2.5998    1.5465   -0.4832 C   0  0  0  0  0  0  0  0  0  0  0  0
   -3.1395    0.1513    0.3617 C   0  0  0  0  0  0  0  0  0  0  0  0
    0.2907    2.2246    0.5532 C   0  0  0  0  0  0  0  0  0  0  0  0
   -1.2154    1.9362    0.4241 C   0  0  0  0  0  0  0  0  0  0  0  0
   -1.0709   -1.9184   -0.6277 C   0  0  0  0  0  0  0  0  0  0  0  0
    1.1850   -0.6967    1.1113 C   0  0  0  0  0  0  0  0  0  0  0  0
   -1.0869    0.0671   -2.1175 C   0  0  0  0  0  0  0  0  0  0  0  0
   -3.4492   -1.2973   -0.0990 C   0  0  0  0  0  0  0  0  0  0  0  0
   -2.3087   -2.2617    0.1983 C   0  0  0  0  0  0  0  0  0  0  0  0
    3.5842   -0.4989    0.4843 C   0  0  0  0  0  0  0  0  0  0  0  0
    2.6585   -0.8634    1.3844 C   0  0  0  0  0  0  0  0  0  0  0  0
   -3.9352    1.1338   -0.5217 C   0  0  0  0  0  0  0  0  0  0  0  0
   -3.6899    0.3183    1.8040 C   0  0  0  0  0  0  0  0  0  0  0  0
    5.0559   -0.6307    0.7101 C   0  0  0  0  0  0  0  0  0  0  0  0
    0.7558    1.7455   -1.4427 H   0  0  0  0  0  0  0  0  0  0  0  0
   -1.2676    0.0408    1.3681 H   0  0  0  0  0  0  0  0  0  0  0  0
    1.6574   -0.3354   -2.3488 H   0  0  0  0  0  0  0  0  0  0  0  0
    1.9803   -1.7238   -1.2967 H   0  0  0  0  0  0  0  0  0  0  0  0
    3.9091    0.1254   -1.5591 H   0  0  0  0  0  0  0  0  0  0  0  0
    2.9991    1.9516    0.4539 H   0  0  0  0  0  0  0  0  0  0  0  0
    2.8878    2.2410   -1.2815 H   0  0  0  0  0  0  0  0  0  0  0  0
    0.4686    3.2922    0.3763 H   0  0  0  0  0  0  0  0  0  0  0  0
    0.6228    2.0300    1.5779 H   0  0  0  0  0  0  0  0  0  0  0  0
   -1.7271    2.4283    1.2588 H   0  0  0  0  0  0  0  0  0  0  0  0
   -1.5739    2.4284   -0.4871 H   0  0  0  0  0  0  0  0  0  0  0  0
   -0.2339   -2.5259   -0.2735 H   0  0  0  0  0  0  0  0  0  0  0  0
   -1.2374   -2.2920   -1.6479 H   0  0  0  0  0  0  0  0  0  0  0  0
    0.7468   -1.6866    1.2640 H   0  0  0  0  0  0  0  0  0  0  0  0
    0.7791   -0.0707    1.9105 H   0  0  0  0  0  0  0  0  0  0  0  0
   -2.0954   -0.2443   -2.4046 H   0  0  0  0  0  0  0  0  0  0  0  0
   -1.0491    1.1494   -2.2551 H   0  0  0  0  0  0  0  0  0  0  0  0
   -0.4198   -0.3862   -2.8572 H   0  0  0  0  0  0  0  0  0  0  0  0
   -3.6554   -1.3229   -1.1764 H   0  0  0  0  0  0  0  0  0  0  0  0
   -4.3654   -1.6644    0.3807 H   0  0  0  0  0  0  0  0  0  0  0  0
   -2.6223   -3.2856   -0.0365 H   0  0  0  0  0  0  0  0  0  0  0  0
   -2.0650   -2.2484    1.2669 H   0  0  0  0  0  0  0  0  0  0  0  0
    2.9506   -1.2943    2.3372 H   0  0  0  0  0  0  0  0  0  0  0  0
   -4.9953    0.8547   -0.5551 H   0  0  0  0  0  0  0  0  0  0  0  0
   -3.8894    2.1574   -0.1346 H   0  0  0  0  0  0  0  0  0  0  0  0
   -3.5741    1.1517   -1.5523 H   0  0  0  0  0  0  0  0  0  0  0  0
   -3.2224   -0.3912    2.4957 H   0  0  0  0  0  0  0  0  0  0  0  0
   -3.5122    1.3274    2.1900 H   0  0  0  0  0  0  0  0  0  0  0  0
   -4.7718    0.1437    1.8380 H   0  0  0  0  0  0  0  0  0  0  0  0
    5.5001   -1.2778   -0.0530 H   0  0  0  0  0  0  0  0  0  0  0  0
    5.2829   -1.0636    1.6899 H   0  0  0  0  0  0  0  0  0  0  0  0
    5.5378    0.3508    0.6578 H   0  0  0  0  0  0  0  0  0  0  0  0
  1  2  1  0  0  0  0
  1  3  1  0  0  0  0
  1  5  1  0  0  0  0
  1 12  1  0  0  0  0
  2  4  1  0  0  0  0
  2 11  1  0  0  0  0
  2 13  1  0  0  0  0
  3  7  1  0  0  0  0
  3  9  1  0  0  0  0
  3 21  1  0  0  0  0
  4  8  1  0  0  0  0
  4 10  1  0  0  0  0
  4 22  1  0  0  0  0
  5  6  1  0  0  0  0
  5 23  1  0  0  0  0
  5 24  1  0  0  0  0
  6  7  1  0  0  0  0
  6 16  1  0  0  0  0
  6 25  1  0  0  0  0
  7 26  1  0  0  0  0
  7 27  1  0  0  0  0
  8 14  1  0  0  0  0
  8 18  1  0  0  0  0
  8 19  1  0  0  0  0
  9 10  1  0  0  0  0
  9 28  1  0  0  0  0
  9 29  1  0  0  0  0
 10 30  1  0  0  0  0
 10 31  1  0  0  0  0
 11 15  1  0  0  0  0
 11 32  1  0  0  0  0
 11 33  1  0  0  0  0
 12 17  1  0  0  0  0
 12 34  1  0  0  0  0
 12 35  1  0  0  0  0
 13 36  1  0  0  0  0
 13 37  1  0  0  0  0
 13 38  1  0  0  0  0
 14 15  1  0  0  0  0
 14 39  1  0  0  0  0
 14 40  1  0  0  0  0
 15 41  1  0  0  0  0
 15 42  1  0  0  0  0
 16 17  2  0  0  0  0
 16 20  1  0  0  0  0
 17 43  1  0  0  0  0
 18 44  1  0  0  0  0
 18 45  1  0  0  0  0
 18 46  1  0  0  0  0
 19 47  1  0  0  0  0
 19 48  1  0  0  0  0
 19 49  1  0  0  0  0
 20 50  1  0  0  0  0
 20 51  1  0  0  0  0
 20 52  1  0  0  0  0
M  END
> <PUBCHEM_COMPOUND_CID>
15907362

> <PUBCHEM_CONFORMER_RMSD>
0.6

> <PUBCHEM_CONFORMER_DIVERSEORDER>
1

> <PUBCHEM_MMFF94_PARTIAL_CHARGES>
6
12 0.14
16 -0.28
17 -0.29
20 0.14
43 0.15
6 0.14

> <PUBCHEM_EFFECTIVE_ROTOR_COUNT>
1.8

> <PUBCHEM_PHARMACOPHORE_FEATURES>
4
3 8 18 19 hydrophobe
6 1 2 3 4 9 10 rings
6 2 4 8 11 14 15 rings
8 1 3 5 6 7 12 16 17 rings

> <PUBCHEM_HEAVY_ATOM_COUNT>
20

> <PUBCHEM_ATOM_DEF_STEREO_COUNT>
5

> <PUBCHEM_ATOM_UDEF_STEREO_COUNT>
0

> <PUBCHEM_BOND_DEF_STEREO_COUNT>
0

> <PUBCHEM_BOND_UDEF_STEREO_COUNT>
0

> <PUBCHEM_ISOTOPIC_ATOM_COUNT>
0

> <PUBCHEM_COMPONENT_COUNT>
1

> <PUBCHEM_CACTVS_TAUTO_COUNT>
1

> <PUBCHEM_CONFORMER_ID>
00F2BA2200000001

> <PUBCHEM_MMFF94_ENERGY>
92.0871

> <PUBCHEM_FEATURE_SELFOVERLAP>
20.332

> <PUBCHEM_SHAPE_FINGERPRINT>
10064457 181 17346304960710413578
10366900 7 17385731313199382234
10863032 1 18266454317472347204
11086676 242 18411414029457794368
11132069 177 18187077386445293061
11578080 2 17915767317166221916
12011746 2 18188499076307222325
12236239 1 18131631209900895226
12251169 10 18412825797892366226
12382932 28 18333730212713441963
12403814 3 17632864139533322663
12553582 1 18335688455870976293
12633257 1 18336818737002877883
12714826 92 17846785147429203670
13140716 1 18262796268235823721
13172582 1 18260269641849066933
13214271 11 18114188522761613918
13221675 6 18408318882618808548
13224815 77 17676488306799788485
13538477 17 18412261727100095844
13581323 91 18113623408455833648
13675066 3 18060137648074235792
14022347 108 18192964184326832021
14115302 16 18272931626423584860
14178342 30 17894899733691154015
14223421 5 17976825289789876129
14289901 80 17916863504610233077
14787075 74 17115498546482662343
15209289 33 17988925561346061354
15309172 13 18408597089405105291
15375462 189 18131634486829190554
15375462 478 18336269019801666260
16752209 62 18338520871012735549
16945 1 18335126635551846261
17349148 13 18113628871765049679
1813 80 17488456546348676694
192875 21 18113627755274148997
19422 9 18271804566849380302
200 152 17489588987020725328
20028762 73 17823413791601507615
20510252 161 17969220212500034752
20600515 1 18187916296548239880
21033648 29 16298387976250176370
21267235 1 18341043047365039099
21501502 16 18265892449892733285
22112679 90 18334577893355456372
23184049 29 18120374246515475271
232386 152 18411419483976530950
2334 1 18118964681145522205
23402539 116 18188220874053244060
23419403 2 15512587829532745797
23559900 14 18115012109122466318
2748010 2 18116431432183088853
296302 2 13840265888049534302
3286 77 18199753552627379983
34934 24 18335983060673766460
427121 178 16737169102679135113
465052 167 18270103614531113739
474 4 5184058258650578650
5104073 3 18337104562370029336
74978 22 18338240353844990711
77492 1 18131063827203692302
81228 2 17969771063451526720
90316 7 18409449214895373841
9981440 41 7560489931954309266

> <PUBCHEM_SHAPE_MULTIPOLES>
411.59
7.2
2
1.44
2.38
0.19
-0.13
-1.05
1.87
-0.8
0.09
-0.18
-0.08
-0.51

> <PUBCHEM_SHAPE_SELFOVERLAP>
877.073

> <PUBCHEM_SHAPE_VOLUME>
225

> <PUBCHEM_COORDINATE_TYPE>
2
5
10

$$$$

