17395575
  -OEChem-06241222513D

 41 43  0     1  0  0  0  0  0999 V2000
    0.3114   -0.6048   -0.7007 S   0  0  0  0  0  0  0  0  0  0  0  0
   -4.7103    1.0326    0.0304 S   0  0  0  0  0  0  0  0  0  0  0  0
    5.3960    1.2493   -0.8709 O   0  0  0  0  0  0  0  0  0  0  0  0
    2.7025   -2.6984    0.4023 O   0  0  0  0  0  0  0  0  0  0  0  0
    3.5511   -0.5404    0.2836 N   0  0  0  0  0  0  0  0  0  0  0  0
   -0.3918    1.7557    0.3855 N   0  0  0  0  0  0  0  0  0  0  0  0
   -2.6498    2.5619    0.7474 N   0  0  0  0  0  0  0  0  0  0  0  0
    3.4299    0.9040    0.5080 C   0  0  0  0  0  0  0  0  0  0  0  0
    4.8997   -0.9820   -0.0715 C   0  0  0  0  0  0  0  0  0  0  0  0
    4.0470    1.6717   -0.6543 C   0  0  0  0  0  0  0  0  0  0  0  0
    5.4511   -0.1383   -1.2120 C   0  0  0  0  0  0  0  0  0  0  0  0
    2.5429   -1.4786    0.4945 C   0  0  0  0  0  0  0  0  0  0  0  0
    1.1826   -0.9353    0.8516 C   0  0  2  0  0  0  0  0  0  0  0  0
    0.4271   -1.9398    1.6957 C   0  0  0  0  0  0  0  0  0  0  0  0
   -2.2292    0.3806   -0.2581 C   0  0  0  0  0  0  0  0  0  0  0  0
   -0.8529    0.6043   -0.1481 C   0  0  0  0  0  0  0  0  0  0  0  0
   -4.3578   -0.4879   -0.6699 C   0  0  0  0  0  0  0  0  0  0  0  0
   -3.0013   -0.7113   -0.7659 C   0  0  0  0  0  0  0  0  0  0  0  0
   -3.0547    1.3962    0.2066 C   0  0  0  0  0  0  0  0  0  0  0  0
   -5.4675   -1.3735   -1.0841 C   0  0  0  0  0  0  0  0  0  0  0  0
   -5.9172   -2.3194    0.0343 C   0  0  0  0  0  0  0  0  0  0  0  0
   -1.3087    2.6538    0.7958 C   0  0  0  0  0  0  0  0  0  0  0  0
    2.4074    1.2493    0.6358 H   0  0  0  0  0  0  0  0  0  0  0  0
    3.9773    1.1176    1.4336 H   0  0  0  0  0  0  0  0  0  0  0  0
    5.5153   -0.8535    0.8266 H   0  0  0  0  0  0  0  0  0  0  0  0
    4.9095   -2.0422   -0.3413 H   0  0  0  0  0  0  0  0  0  0  0  0
    4.0628    2.7430   -0.4310 H   0  0  0  0  0  0  0  0  0  0  0  0
    3.4715    1.5297   -1.5769 H   0  0  0  0  0  0  0  0  0  0  0  0
    4.8911   -0.3049   -2.1399 H   0  0  0  0  0  0  0  0  0  0  0  0
    6.4975   -0.3975   -1.4002 H   0  0  0  0  0  0  0  0  0  0  0  0
    1.2714   -0.0438    1.4733 H   0  0  0  0  0  0  0  0  0  0  0  0
    0.9973   -2.1936    2.5973 H   0  0  0  0  0  0  0  0  0  0  0  0
   -0.5381   -1.5398    2.0259 H   0  0  0  0  0  0  0  0  0  0  0  0
    0.2354   -2.8790    1.1628 H   0  0  0  0  0  0  0  0  0  0  0  0
   -2.5869   -1.6213   -1.1826 H   0  0  0  0  0  0  0  0  0  0  0  0
   -5.1507   -1.9767   -1.9444 H   0  0  0  0  0  0  0  0  0  0  0  0
   -6.3303   -0.7891   -1.4270 H   0  0  0  0  0  0  0  0  0  0  0  0
   -5.0899   -2.9542    0.3693 H   0  0  0  0  0  0  0  0  0  0  0  0
   -6.7232   -2.9684   -0.3223 H   0  0  0  0  0  0  0  0  0  0  0  0
   -6.2867   -1.7609    0.9007 H   0  0  0  0  0  0  0  0  0  0  0  0
   -0.9131    3.5696    1.2210 H   0  0  0  0  0  0  0  0  0  0  0  0
  1 13  1  0  0  0  0
  1 16  1  0  0  0  0
  2 17  1  0  0  0  0
  2 19  1  0  0  0  0
  3 10  1  0  0  0  0
  3 11  1  0  0  0  0
  4 12  2  0  0  0  0
  5  8  1  0  0  0  0
  5  9  1  0  0  0  0
  5 12  1  0  0  0  0
  6 16  2  0  0  0  0
  6 22  1  0  0  0  0
  7 19  1  0  0  0  0
  7 22  2  0  0  0  0
  8 10  1  0  0  0  0
  8 23  1  0  0  0  0
  8 24  1  0  0  0  0
  9 11  1  0  0  0  0
  9 25  1  0  0  0  0
  9 26  1  0  0  0  0
 10 27  1  0  0  0  0
 10 28  1  0  0  0  0
 11 29  1  0  0  0  0
 11 30  1  0  0  0  0
 12 13  1  0  0  0  0
 13 14  1  0  0  0  0
 13 31  1  0  0  0  0
 14 32  1  0  0  0  0
 14 33  1  0  0  0  0
 14 34  1  0  0  0  0
 15 16  1  0  0  0  0
 15 18  1  0  0  0  0
 15 19  2  0  0  0  0
 17 18  2  0  0  0  0
 17 20  1  0  0  0  0
 18 35  1  0  0  0  0
 20 21  1  0  0  0  0
 20 36  1  0  0  0  0
 20 37  1  0  0  0  0
 21 38  1  0  0  0  0
 21 39  1  0  0  0  0
 21 40  1  0  0  0  0
 22 41  1  0  0  0  0
M  END
> <PUBCHEM_COMPOUND_CID>
17395575

> <PUBCHEM_CONFORMER_RMSD>
0.8

> <PUBCHEM_CONFORMER_DIVERSEORDER>
1
89
86
100
81
21
134
67
120
107
47
118
108
105
41
13
28
18
22
124
94
43
31
38
132
17
59
102
70
39
23
51
58
63
54
8
133
24
129
30
45
114
88
93
40
106
82
72
113
65
55
14
4
69
19
27
5
61
101
85
91
147
26
29
52
78
35
32
121
138
126
49
77
84
9
97
143
119
90
15
95
25
109
68
34
57
37
7
11
76
53
122
12
83
136
87
130
42
62
104
80
135
116
71
112
64
20
6
99
111
66
125
48
10
16
115
103
127
50
60
74
75
117
110
36
2
79
98
56
139
146
137
46
128
44
140
73
33
145
131
92
3
141
123
144
142
96

> <PUBCHEM_MMFF94_PARTIAL_CHARGES>
21
1 -0.33
10 0.28
11 0.28
12 0.57
13 0.29
16 0.41
17 -0.14
18 -0.15
19 0.3
2 -0.08
20 0.18
22 0.47
3 -0.56
35 0.15
4 -0.57
41 0.15
5 -0.66
6 -0.62
7 -0.57
8 0.3
9 0.3

> <PUBCHEM_EFFECTIVE_ROTOR_COUNT>
6.2

> <PUBCHEM_PHARMACOPHORE_FEATURES>
9
1 14 hydrophobe
1 21 hydrophobe
1 3 acceptor
1 4 acceptor
1 6 acceptor
3 6 7 22 cation
5 2 15 17 18 19 rings
6 3 5 8 9 10 11 rings
6 6 7 15 16 19 22 rings

> <PUBCHEM_HEAVY_ATOM_COUNT>
22

> <PUBCHEM_ATOM_DEF_STEREO_COUNT>
0

> <PUBCHEM_ATOM_UDEF_STEREO_COUNT>
1

> <PUBCHEM_BOND_DEF_STEREO_COUNT>
0

> <PUBCHEM_BOND_UDEF_STEREO_COUNT>
0

> <PUBCHEM_ISOTOPIC_ATOM_COUNT>
0

> <PUBCHEM_COMPONENT_COUNT>
1

> <PUBCHEM_CACTVS_TAUTO_COUNT>
1

> <PUBCHEM_CONFORMER_ID>
01096F7700000001

> <PUBCHEM_MMFF94_ENERGY>
42.1488

> <PUBCHEM_FEATURE_SELFOVERLAP>
45.749

> <PUBCHEM_SHAPE_FINGERPRINT>
10090160 65 18060142037277702074
10366900 7 18412543197787120866
10595046 47 18410011057036869766
10906281 52 17896880053534412973
11135609 187 18127691522079003605
11458722 120 8142091965524838479
12107183 9 17545038668068513584
12166972 35 18131630058607327284
12236239 1 18413388747840435228
12553582 1 18115889437697046703
12788726 201 18335144215211906075
14251757 5 18267024955776775751
14251758 9 7709468220750432219
14251764 30 16515402945737209711
14341114 328 18410290358596721913
14528608 73 18342739607002433116
14767858 380 18341894030741575615
14787075 74 18343303639266656859
14931854 50 18411411796576324636
15142383 8 5184078002346329850
15806764 133 16370738048933850961
15927050 60 17324084737051418901
17349148 13 17988922279658464480
17492 89 18263927807219221054
17834072 33 18412265055573143287
18222031 100 17677632907669451959
20554085 129 12966865485494910685
21049683 271 18127408956834162381
21267235 1 18334572404988586927
21424621 283 15266512875814862757
21857420 4 15510876860622245516
22950370 63 18261112967795150227
2297311 6 17967809453334823525
23557571 272 17967246511681147501
23559900 14 17753335566809680319
23566358 27 18051409862070154227
238078 22 18409169905188412979
312423 11 18337956821542418306
314194 84 18335428915973053279
329604 57 18411703162356016403
4258327 124 16557605427901015886
4325135 7 18343021069115555311
474 4 18131625695337109948
484989 97 18056186978247353706
5104073 3 18187653543185819107
5207 217 17988642943660025606
5486654 2 18341050731414952951
6669772 16 17758964718467918629
6913067 236 17346331383290864564
7495541 125 17603594019031369914

> <PUBCHEM_SHAPE_MULTIPOLES>
433.77
13.25
2.71
1.12
1.01
0.35
0.08
-3.16
-4.32
-1.23
0.8
0.29
-0.23
-1.4

> <PUBCHEM_SHAPE_SELFOVERLAP>
888.631

> <PUBCHEM_SHAPE_VOLUME>
252.7

> <PUBCHEM_COORDINATE_TYPE>
2
5
10

$$$$

