9739
  -OEChem-06261204003D

 17 16  0     0  0  0  0  0  0999 V2000
   -3.4666    0.6134    0.8729 Cl  0  0  0  0  0  0  0  0  0  0  0  0
   -1.8722   -0.1941   -0.1288 S   0  0  0  0  0  0  0  0  0  0  0  0
    3.4587   -0.9735    0.2573 F   0  0  0  0  0  0  0  0  0  0  0  0
   -1.7481   -1.5422    0.3921 O   0  0  0  0  0  0  0  0  0  0  0  0
   -2.1454    0.0584   -1.5307 O   0  0  0  0  0  0  0  0  0  0  0  0
    0.8267    0.1151   -0.1916 C   0  0  0  0  0  0  0  0  0  0  0  0
   -0.4513    0.7358    0.3514 C   0  0  0  0  0  0  0  0  0  0  0  0
    2.0575    0.9111    0.2424 C   0  0  0  0  0  0  0  0  0  0  0  0
    3.3407    0.2760   -0.2650 C   0  0  0  0  0  0  0  0  0  0  0  0
    0.7825    0.0711   -1.2867 H   0  0  0  0  0  0  0  0  0  0  0  0
    0.9157   -0.9199    0.1601 H   0  0  0  0  0  0  0  0  0  0  0  0
   -0.4313    0.7522    1.4459 H   0  0  0  0  0  0  0  0  0  0  0  0
   -0.5838    1.7579   -0.0167 H   0  0  0  0  0  0  0  0  0  0  0  0
    2.0909    0.9518    1.3374 H   0  0  0  0  0  0  0  0  0  0  0  0
    1.9880    1.9400   -0.1281 H   0  0  0  0  0  0  0  0  0  0  0  0
    4.2133    0.8554    0.0496 H   0  0  0  0  0  0  0  0  0  0  0  0
    3.3468    0.1915   -1.3556 H   0  0  0  0  0  0  0  0  0  0  0  0
  1  2  1  0  0  0  0
  2  4  2  0  0  0  0
  2  5  2  0  0  0  0
  2  7  1  0  0  0  0
  3  9  1  0  0  0  0
  6  7  1  0  0  0  0
  6  8  1  0  0  0  0
  6 10  1  0  0  0  0
  6 11  1  0  0  0  0
  7 12  1  0  0  0  0
  7 13  1  0  0  0  0
  8  9  1  0  0  0  0
  8 14  1  0  0  0  0
  8 15  1  0  0  0  0
  9 16  1  0  0  0  0
  9 17  1  0  0  0  0
M  END
> <PUBCHEM_COMPOUND_CID>
9739

> <PUBCHEM_CONFORMER_RMSD>
0.6

> <PUBCHEM_CONFORMER_DIVERSEORDER>
1
30
29
4
9
25
2
24
18
7
17
26
19
5
21
8
23
6
22
11
27
12
28
3
15
14
20
13
10
16

> <PUBCHEM_MMFF94_PARTIAL_CHARGES>
7
1 -0.19
2 1.38
3 -0.34
4 -0.65
5 -0.65
7 0.11
9 0.34

> <PUBCHEM_EFFECTIVE_ROTOR_COUNT>
4

> <PUBCHEM_PHARMACOPHORE_FEATURES>
0

> <PUBCHEM_HEAVY_ATOM_COUNT>
9

> <PUBCHEM_ATOM_DEF_STEREO_COUNT>
0

> <PUBCHEM_ATOM_UDEF_STEREO_COUNT>
0

> <PUBCHEM_BOND_DEF_STEREO_COUNT>
0

> <PUBCHEM_BOND_UDEF_STEREO_COUNT>
0

> <PUBCHEM_ISOTOPIC_ATOM_COUNT>
0

> <PUBCHEM_COMPONENT_COUNT>
1

> <PUBCHEM_CACTVS_TAUTO_COUNT>
1

> <PUBCHEM_CONFORMER_ID>
0000260B00000001

> <PUBCHEM_MMFF94_ENERGY>
0.9416

> <PUBCHEM_FEATURE_SELFOVERLAP>
0

> <PUBCHEM_SHAPE_FINGERPRINT>
10857977 72 5039663811531877398
11062470 55 16877660179653655025
12932764 1 17489597731373887744
14325111 11 18336544932674311824
14390081 3 8214152849644761098
14577589 140 17530677710601601637
15310529 11 16343712048859635081
20211469 26 5761656957953881480
21293036 1 12967122796584595768
23235685 24 18410293622824484345
23380061 50 14273746156745757442
23402539 116 15791736343214199633
3248919 1 18336837389882502304

> <PUBCHEM_SHAPE_MULTIPOLES>
171.92
6.19
1.11
0.94
2.48
0.12
0.25
-0.11
-0.7
-0.21
-0.21
-0.57
0.11
-0.31

> <PUBCHEM_SHAPE_SELFOVERLAP>
294.612

> <PUBCHEM_SHAPE_VOLUME>
115.5

> <PUBCHEM_COORDINATE_TYPE>
2
5
10

$$$$

