10579
  -OEChem-06261204423D

 50 53  0     0  0  0  0  0  0999 V2000
   -3.9279    1.3987   -0.7232 S   0  0  0  0  0  0  0  0  0  0  0  0
    3.6422    1.4166    0.1351 S   0  0  0  0  0  0  0  0  0  0  0  0
   -4.7827   -0.7609    0.2236 N   0  3  0  0  0  0  0  0  0  0  0  0
    4.9272   -0.9020   -0.2432 N   0  0  0  0  0  0  0  0  0  0  0  0
   -5.8788    0.0719    0.2263 C   0  0  0  0  0  0  0  0  0  0  0  0
    5.9322    0.0676   -0.0627 C   0  0  0  0  0  0  0  0  0  0  0  0
   -4.8404   -2.1275    0.6986 C   0  0  0  0  0  0  0  0  0  0  0  0
    5.2875   -2.2872   -0.4765 C   0  0  0  0  0  0  0  0  0  0  0  0
   -3.7014   -0.2104   -0.2406 C   0  0  0  0  0  0  0  0  0  0  0  0
    3.6489   -0.3454   -0.1674 C   0  0  0  0  0  0  0  0  0  0  0  0
   -5.5941    1.3369   -0.2727 C   0  0  0  0  0  0  0  0  0  0  0  0
    5.4333    1.3720    0.1537 C   0  0  0  0  0  0  0  0  0  0  0  0
   -7.1686   -0.2546    0.6688 C   0  0  0  0  0  0  0  0  0  0  0  0
    7.3095   -0.1318   -0.0773 C   0  0  0  0  0  0  0  0  0  0  0  0
   -6.5849    2.3257   -0.3497 C   0  0  0  0  0  0  0  0  0  0  0  0
    6.2730    2.4592    0.3527 C   0  0  0  0  0  0  0  0  0  0  0  0
   -5.1982   -3.0866   -0.4207 C   0  0  0  0  0  0  0  0  0  0  0  0
    5.4359   -3.0340    0.8093 C   0  0  0  0  0  0  0  0  0  0  0  0
   -2.4281   -0.8591   -0.3494 C   0  0  0  0  0  0  0  0  0  0  0  0
    2.4654   -0.9661   -0.2922 C   0  0  0  0  0  0  0  0  0  0  0  0
   -8.1600    0.7287    0.5937 C   0  0  0  0  0  0  0  0  0  0  0  0
    8.1639    0.9580    0.1220 C   0  0  0  0  0  0  0  0  0  0  0  0
   -7.8716    1.9977    0.0924 C   0  0  0  0  0  0  0  0  0  0  0  0
    7.6496    2.2432    0.3355 C   0  0  0  0  0  0  0  0  0  0  0  0
   -1.2524   -0.2228   -0.2219 C   0  0  0  0  0  0  0  0  0  0  0  0
    1.2000   -0.2805   -0.1941 C   0  0  0  0  0  0  0  0  0  0  0  0
    0.0206   -0.9075   -0.3200 C   0  0  0  0  0  0  0  0  0  0  0  0
   -5.5617   -2.2176    1.5176 H   0  0  0  0  0  0  0  0  0  0  0  0
   -3.8845   -2.4177    1.1503 H   0  0  0  0  0  0  0  0  0  0  0  0
    4.5117   -2.7751   -1.0793 H   0  0  0  0  0  0  0  0  0  0  0  0
    6.1943   -2.3778   -1.0854 H   0  0  0  0  0  0  0  0  0  0  0  0
   -7.4306   -1.2337    1.0554 H   0  0  0  0  0  0  0  0  0  0  0  0
    7.7501   -1.1111   -0.2309 H   0  0  0  0  0  0  0  0  0  0  0  0
   -6.3685    3.3155   -0.7386 H   0  0  0  0  0  0  0  0  0  0  0  0
    5.8788    3.4565    0.5184 H   0  0  0  0  0  0  0  0  0  0  0  0
   -4.4699   -3.0426   -1.2359 H   0  0  0  0  0  0  0  0  0  0  0  0
   -6.1801   -2.8496   -0.8425 H   0  0  0  0  0  0  0  0  0  0  0  0
   -5.2285   -4.1142   -0.0457 H   0  0  0  0  0  0  0  0  0  0  0  0
    6.2313   -2.6142    1.4338 H   0  0  0  0  0  0  0  0  0  0  0  0
    4.5109   -3.0100    1.3957 H   0  0  0  0  0  0  0  0  0  0  0  0
    5.6819   -4.0834    0.6176 H   0  0  0  0  0  0  0  0  0  0  0  0
   -2.4231   -1.9315   -0.5258 H   0  0  0  0  0  0  0  0  0  0  0  0
    2.4315   -2.0371   -0.4721 H   0  0  0  0  0  0  0  0  0  0  0  0
   -9.1684    0.4997    0.9283 H   0  0  0  0  0  0  0  0  0  0  0  0
    9.2401    0.8058    0.1132 H   0  0  0  0  0  0  0  0  0  0  0  0
   -8.6588    2.7458    0.0432 H   0  0  0  0  0  0  0  0  0  0  0  0
    8.3299    3.0764    0.4889 H   0  0  0  0  0  0  0  0  0  0  0  0
   -1.2080    0.8442   -0.0200 H   0  0  0  0  0  0  0  0  0  0  0  0
    1.1592    0.7875   -0.0113 H   0  0  0  0  0  0  0  0  0  0  0  0
   -0.0077   -1.9791   -0.5054 H   0  0  0  0  0  0  0  0  0  0  0  0
  1  9  1  0  0  0  0
  1 11  1  0  0  0  0
  2 10  1  0  0  0  0
  2 12  1  0  0  0  0
  3  5  1  0  0  0  0
  3  7  1  0  0  0  0
  3  9  2  0  0  0  0
  4  6  1  0  0  0  0
  4  8  1  0  0  0  0
  4 10  1  0  0  0  0
  5 11  1  0  0  0  0
  5 13  2  0  0  0  0
  6 12  1  0  0  0  0
  6 14  2  0  0  0  0
  7 17  1  0  0  0  0
  7 28  1  0  0  0  0
  7 29  1  0  0  0  0
  8 18  1  0  0  0  0
  8 30  1  0  0  0  0
  8 31  1  0  0  0  0
  9 19  1  0  0  0  0
 10 20  2  0  0  0  0
 11 15  2  0  0  0  0
 12 16  2  0  0  0  0
 13 21  1  0  0  0  0
 13 32  1  0  0  0  0
 14 22  1  0  0  0  0
 14 33  1  0  0  0  0
 15 23  1  0  0  0  0
 15 34  1  0  0  0  0
 16 24  1  0  0  0  0
 16 35  1  0  0  0  0
 17 36  1  0  0  0  0
 17 37  1  0  0  0  0
 17 38  1  0  0  0  0
 18 39  1  0  0  0  0
 18 40  1  0  0  0  0
 18 41  1  0  0  0  0
 19 25  2  0  0  0  0
 19 42  1  0  0  0  0
 20 26  1  0  0  0  0
 20 43  1  0  0  0  0
 21 23  2  0  0  0  0
 21 44  1  0  0  0  0
 22 24  2  0  0  0  0
 22 45  1  0  0  0  0
 23 46  1  0  0  0  0
 24 47  1  0  0  0  0
 25 27  1  0  0  0  0
 25 48  1  0  0  0  0
 26 27  2  0  0  0  0
 26 49  1  0  0  0  0
 27 50  1  0  0  0  0
M  CHG  1   3   1
M  END
> <PUBCHEM_COMPOUND_CID>
10579

> <PUBCHEM_CONFORMER_RMSD>
0.8

> <PUBCHEM_CONFORMER_DIVERSEORDER>
1
10
5
3
7
2
8
13
9
12
11
4
14
6

> <PUBCHEM_MMFF94_PARTIAL_CHARGES>
38
1 -0.08
10 0.2
11 0.04
12 0.1
13 -0.15
14 -0.15
15 -0.15
16 -0.15
19 -0.11
2 -0.2
20 -0.15
21 -0.15
22 -0.15
23 -0.15
24 -0.15
25 -0.15
26 -0.15
27 -0.15
3 -0.18
32 0.15
33 0.15
34 0.15
35 0.15
4 -0.57
42 0.15
43 0.15
44 0.15
45 0.15
46 0.15
47 0.15
48 0.15
49 0.15
5 0.33
50 0.15
6 0.1
7 0.51
8 0.37
9 0.33

> <PUBCHEM_EFFECTIVE_ROTOR_COUNT>
5.4

> <PUBCHEM_PHARMACOPHORE_FEATURES>
5
1 4 cation
5 1 3 5 9 11 rings
5 2 4 6 10 12 rings
6 5 11 13 15 21 23 rings
6 6 12 14 16 22 24 rings

> <PUBCHEM_HEAVY_ATOM_COUNT>
27

> <PUBCHEM_ATOM_DEF_STEREO_COUNT>
0

> <PUBCHEM_ATOM_UDEF_STEREO_COUNT>
0

> <PUBCHEM_BOND_DEF_STEREO_COUNT>
0

> <PUBCHEM_BOND_UDEF_STEREO_COUNT>
3

> <PUBCHEM_ISOTOPIC_ATOM_COUNT>
0

> <PUBCHEM_COMPONENT_COUNT>
1

> <PUBCHEM_CACTVS_TAUTO_COUNT>
1

> <PUBCHEM_CONFORMER_ID>
0000295300000001

> <PUBCHEM_MMFF94_ENERGY>
74.7381

> <PUBCHEM_FEATURE_SELFOVERLAP>
25.508

> <PUBCHEM_SHAPE_FINGERPRINT>
10 15 18343864420530541001
10066227 112 18333453144542209497
10580692 12 18411418397196681250
10625338 131 18337679731559012544
10835480 77 18409168822276314677
11181472 205 17749941292762618080
11315181 36 17822007610897086331
11719270 70 17894914074244473822
125118 31 18335701675785835144
13383665 225 17987779905301924684
13740195 50 18342449349978191033
14251757 52 18408888442832853768
14347424 109 18339365262068439026
14933364 13 18411136939399846260
15183329 4 16443063898049655912
15419008 145 18199762487188679568
15461852 350 17458349607303024053
1577012 14 18260554415350384583
16989713 51 17242180042041468711
17093844 174 18201719544818175523
18608769 82 18411985736813011572
20157964 124 18335419089171834190
20281389 69 18341612654907854021
21033648 29 18261969448392540376
21130935 74 18343580767737133331
23576562 1 16299247708755156161
24771293 8 18059013874572214436
312425 54 17988924474455695019
335507 130 18340764823799877895
3383291 50 17203034198440409563
3663271 9 18413390921178718154
4073 2 18201716206890543802
4098825 35 18411139125548788776
4169191 19 18114460141368732753
44280117 145 18190180079842868863
444735 82 18342171134069969460
45377200 153 14763478557226640496
504579 68 5328744062964233949
504843 32 17386009425486538591
5265222 85 18410294710053376771
5758199 1 17775286058016765442
636775 72 18337107986610035225
67123 10 18335139778916500607
99344 41 18411419497041021138
9953998 17 18201999915814211149

> <PUBCHEM_SHAPE_MULTIPOLES>
553.38
30.05
2.95
0.77
0.39
1.04
0.02
-11.79
3.77
-0.74
0.17
0.26
0.08
0.6

> <PUBCHEM_SHAPE_SELFOVERLAP>
1172.094

> <PUBCHEM_SHAPE_VOLUME>
312.4

> <PUBCHEM_COORDINATE_TYPE>
2
5
10

$$$$

