5280632
  -OEChem-07051212482D

 44 46  0     0  0  0  0  0  0999 V2000
    6.8671   -2.2500    0.0000 S   0  0  0  0  0  0  0  0  0  0  0  0
   12.9972    0.2775    0.0000 S   0  0  0  0  0  0  0  0  0  0  0  0
    3.4030    1.7500    0.0000 S   0  0  0  0  0  0  0  0  0  0  0  0
    8.5991    0.7500    0.0000 O   0  0  0  0  0  0  0  0  0  0  0  0
    6.8671   -1.2500    0.0000 O   0  0  0  0  0  0  0  0  0  0  0  0
   12.1292    0.7742    0.0000 O   0  0  0  0  0  0  0  0  0  0  0  0
   10.3475   -2.2846    0.0000 O   0  0  0  0  0  0  0  0  0  0  0  0
    8.5991   -2.2500    0.0000 O   0  0  0  0  0  0  0  0  0  0  0  0
    4.2690    2.2500    0.0000 O   0  0  0  0  0  0  0  0  0  0  0  0
    6.0010    3.2500    0.0000 O   0  0  0  0  0  0  0  0  0  0  0  0
    6.8671   -3.2500    0.0000 O   0  0  0  0  0  0  0  0  0  0  0  0
    5.8671   -2.2500    0.0000 O   0  0  0  0  0  0  0  0  0  0  0  0
    7.8671   -2.2500    0.0000 O   0  0  0  0  0  0  0  0  0  0  0  0
   13.8651   -0.2192    0.0000 O   0  0  0  0  0  0  0  0  0  0  0  0
   13.4938    1.1454    0.0000 O   0  0  0  0  0  0  0  0  0  0  0  0
   12.5005   -0.5905    0.0000 O   0  0  0  0  0  0  0  0  0  0  0  0
    2.5369    1.2500    0.0000 O   0  0  0  0  0  0  0  0  0  0  0  0
    2.9030    2.6160    0.0000 O   0  0  0  0  0  0  0  0  0  0  0  0
    3.9030    0.8840    0.0000 O   0  0  0  0  0  0  0  0  0  0  0  0
    9.4651   -0.7500    0.0000 C   0  0  0  0  0  0  0  0  0  0  0  0
    7.7331    0.2500    0.0000 C   0  0  0  0  0  0  0  0  0  0  0  0
    9.4651    0.2500    0.0000 C   0  0  0  0  0  0  0  0  0  0  0  0
    7.7331   -0.7500    0.0000 C   0  0  0  0  0  0  0  0  0  0  0  0
    6.8671    0.7500    0.0000 C   0  0  0  0  0  0  0  0  0  0  0  0
    8.5991   -1.2500    0.0000 C   0  0  0  0  0  0  0  0  0  0  0  0
   10.3591   -1.2847    0.0000 C   0  0  0  0  0  0  0  0  0  0  0  0
   10.3591    0.7847    0.0000 C   0  0  0  0  0  0  0  0  0  0  0  0
   11.2651    0.2708    0.0000 C   0  0  0  0  0  0  0  0  0  0  0  0
   11.2651   -0.7708    0.0000 C   0  0  0  0  0  0  0  0  0  0  0  0
    6.8671    1.7500    0.0000 C   0  0  0  0  0  0  0  0  0  0  0  0
    6.0010    0.2500    0.0000 C   0  0  0  0  0  0  0  0  0  0  0  0
    6.0010    2.2500    0.0000 C   0  0  0  0  0  0  0  0  0  0  0  0
    5.1350    1.7500    0.0000 C   0  0  0  0  0  0  0  0  0  0  0  0
    5.1350    0.7500    0.0000 C   0  0  0  0  0  0  0  0  0  0  0  0
   10.3519    1.4046    0.0000 H   0  0  0  0  0  0  0  0  0  0  0  0
   11.8009   -1.0829    0.0000 H   0  0  0  0  0  0  0  0  0  0  0  0
    7.4040    2.0600    0.0000 H   0  0  0  0  0  0  0  0  0  0  0  0
    6.0010   -0.3700    0.0000 H   0  0  0  0  0  0  0  0  0  0  0  0
    4.5981    0.4400    0.0000 H   0  0  0  0  0  0  0  0  0  0  0  0
   10.8808   -2.6008    0.0000 H   0  0  0  0  0  0  0  0  0  0  0  0
    6.5380    3.5600    0.0000 H   0  0  0  0  0  0  0  0  0  0  0  0
    6.3301   -3.5600    0.0000 H   0  0  0  0  0  0  0  0  0  0  0  0
   14.4009    0.0929    0.0000 H   0  0  0  0  0  0  0  0  0  0  0  0
    2.0000    1.5600    0.0000 H   0  0  0  0  0  0  0  0  0  0  0  0
  1  5  1  0  0  0  0
  1 11  1  0  0  0  0
  1 12  2  0  0  0  0
  1 13  2  0  0  0  0
  2  6  1  0  0  0  0
  2 14  1  0  0  0  0
  2 15  2  0  0  0  0
  2 16  2  0  0  0  0
  3  9  1  0  0  0  0
  3 17  1  0  0  0  0
  3 18  2  0  0  0  0
  3 19  2  0  0  0  0
  4 21  1  0  0  0  0
  4 22  1  0  0  0  0
  5 23  1  0  0  0  0
  6 28  1  0  0  0  0
  7 26  1  0  0  0  0
  7 40  1  0  0  0  0
  8 25  2  0  0  0  0
  9 33  1  0  0  0  0
 10 32  1  0  0  0  0
 10 41  1  0  0  0  0
 11 42  1  0  0  0  0
 14 43  1  0  0  0  0
 17 44  1  0  0  0  0
 20 22  1  0  0  0  0
 20 25  1  0  0  0  0
 20 26  2  0  0  0  0
 21 23  2  0  0  0  0
 21 24  1  0  0  0  0
 22 27  2  0  0  0  0
 23 25  1  0  0  0  0
 24 30  2  0  0  0  0
 24 31  1  0  0  0  0
 26 29  1  0  0  0  0
 27 28  1  0  0  0  0
 27 35  1  0  0  0  0
 28 29  2  0  0  0  0
 29 36  1  0  0  0  0
 30 32  1  0  0  0  0
 30 37  1  0  0  0  0
 31 34  2  0  0  0  0
 31 38  1  0  0  0  0
 32 33  2  0  0  0  0
 33 34  1  0  0  0  0
 34 39  1  0  0  0  0
M  END
> <PUBCHEM_COMPOUND_CID>
5280632

> <PUBCHEM_COMPOUND_CANONICALIZED>
1

> <PUBCHEM_CACTVS_COMPLEXITY>
1140

> <PUBCHEM_CACTVS_HBOND_ACCEPTOR>
16

> <PUBCHEM_CACTVS_HBOND_DONOR>
5

> <PUBCHEM_CACTVS_ROTATABLE_BOND>
7

> <PUBCHEM_CACTVS_SUBSKEYS>
AAADccBwPgBgAAAAAAAAAAAAAAAAAAAAAAAwYIAAAAAAAACBQAAAGgAACAAADASAmAAwBoAABoCIAqBSADICCAAkIAAIiAFGiMgNJzaGNRqCeWGl4BUJuQfI7LzOIAABCAAIQABAAAIQABCAAAAAAAAAAA==

> <PUBCHEM_IUPAC_OPENEYE_NAME>
[2-hydroxy-4-(5-hydroxy-4-oxo-3,7-disulfooxy-chromen-2-yl)phenyl] hydrogen sulfate

> <PUBCHEM_IUPAC_CAS_NAME>
sulfuric acid [2-hydroxy-4-(5-hydroxy-4-oxo-3,7-disulfooxy-1-benzopyran-2-yl)phenyl] ester

> <PUBCHEM_IUPAC_NAME>
[2-hydroxy-4-(5-hydroxy-4-oxo-3,7-disulfooxychromen-2-yl)phenyl] hydrogen sulfate

> <PUBCHEM_IUPAC_SYSTEMATIC_NAME>
[5-oxidanyl-4-oxidanylidene-2-(3-oxidanyl-4-sulfooxy-phenyl)-3-sulfooxy-chromen-7-yl] hydrogen sulfate

> <PUBCHEM_IUPAC_TRADITIONAL_NAME>
sulfuric acid [2-hydroxy-4-(5-hydroxy-4-keto-3,7-disulfoxy-chromen-2-yl)phenyl] ester

> <PUBCHEM_IUPAC_INCHI>
InChI=1S/C15H10O16S3/c16-8-3-6(1-2-10(8)30-33(22,23)24)14-15(31-34(25,26)27)13(18)12-9(17)4-7(5-11(12)28-14)29-32(19,20)21/h1-5,16-17H,(H,19,20,21)(H,22,23,24)(H,25,26,27)

> <PUBCHEM_IUPAC_INCHIKEY>
OHGDJKUWKHBWFH-UHFFFAOYSA-N

> <PUBCHEM_XLOGP3_AA>
0.4

> <PUBCHEM_EXACT_MASS>
541.913097

> <PUBCHEM_MOLECULAR_FORMULA>
C15H10O16S3

> <PUBCHEM_MOLECULAR_WEIGHT>
542.4253

> <PUBCHEM_OPENEYE_CAN_SMILES>
C1=CC(=C(C=C1C2=C(C(=O)C3=C(C=C(C=C3O2)OS(=O)(=O)O)O)OS(=O)(=O)O)O)OS(=O)(=O)O

> <PUBCHEM_OPENEYE_ISO_SMILES>
C1=CC(=C(C=C1C2=C(C(=O)C3=C(C=C(C=C3O2)OS(=O)(=O)O)O)OS(=O)(=O)O)O)OS(=O)(=O)O

> <PUBCHEM_CACTVS_TPSA>
283

> <PUBCHEM_MONOISOTOPIC_WEIGHT>
541.913097

> <PUBCHEM_TOTAL_CHARGE>
0

> <PUBCHEM_HEAVY_ATOM_COUNT>
34

> <PUBCHEM_ATOM_DEF_STEREO_COUNT>
0

> <PUBCHEM_ATOM_UDEF_STEREO_COUNT>
0

> <PUBCHEM_BOND_DEF_STEREO_COUNT>
0

> <PUBCHEM_BOND_UDEF_STEREO_COUNT>
0

> <PUBCHEM_ISOTOPIC_ATOM_COUNT>
0

> <PUBCHEM_COMPONENT_COUNT>
1

> <PUBCHEM_CACTVS_TAUTO_COUNT>
15

> <PUBCHEM_COORDINATE_TYPE>
1
5
255

> <PUBCHEM_BONDANNOTATIONS>
20  22  8
20  25  8
20  26  8
21  23  8
22  27  8
23  25  8
24  30  8
24  31  8
26  29  8
27  28  8
28  29  8
30  32  8
31  34  8
32  33  8
33  34  8
4  21  8
4  22  8

$$$$

