146903
  -OEChem-07051213093D

 25 24  0     0  0  0  0  0  0999 V2000
   -5.7750   -0.7609   -0.1882 O   0  0  0  0  0  0  0  0  0  0  0  0
    2.9550    1.5944   -0.0171 O   0  0  0  0  0  0  0  0  0  0  0  0
   -4.8251    1.2956   -0.0388 O   0  0  0  0  0  0  0  0  0  0  0  0
    5.2403    0.5560   -0.1441 O   0  0  0  0  0  0  0  0  0  0  0  0
    4.3296   -1.5499   -0.0536 O   0  0  0  0  0  0  0  0  0  0  0  0
   -0.8747   -0.5769    0.1435 C   0  0  0  0  0  0  0  0  0  0  0  0
    0.3875    0.2955    0.1307 C   0  0  0  0  0  0  0  0  0  0  0  0
   -2.1832    0.2181    0.1142 C   0  0  0  0  0  0  0  0  0  0  0  0
    1.6947   -0.4962    0.0703 C   0  0  0  0  0  0  0  0  0  0  0  0
   -3.4141   -0.6885    0.0507 C   0  0  0  0  0  0  0  0  0  0  0  0
    2.9304    0.3739    0.0268 C   0  0  0  0  0  0  0  0  0  0  0  0
   -4.7144    0.0776   -0.0517 C   0  0  0  0  0  0  0  0  0  0  0  0
    4.2491   -0.3387   -0.0425 C   0  0  0  0  0  0  0  0  0  0  0  0
   -0.8593   -1.2157    1.0351 H   0  0  0  0  0  0  0  0  0  0  0  0
   -0.8466   -1.2473   -0.7247 H   0  0  0  0  0  0  0  0  0  0  0  0
    0.3427    0.9741   -0.7307 H   0  0  0  0  0  0  0  0  0  0  0  0
    0.3917    0.9348    1.0226 H   0  0  0  0  0  0  0  0  0  0  0  0
   -2.2430    0.8594    1.0022 H   0  0  0  0  0  0  0  0  0  0  0  0
   -2.1808    0.8884   -0.7544 H   0  0  0  0  0  0  0  0  0  0  0  0
    1.6947   -1.1264   -0.8263 H   0  0  0  0  0  0  0  0  0  0  0  0
    1.7662   -1.1436    0.9515 H   0  0  0  0  0  0  0  0  0  0  0  0
   -3.4584   -1.3123    0.9503 H   0  0  0  0  0  0  0  0  0  0  0  0
   -3.3408   -1.3399   -0.8276 H   0  0  0  0  0  0  0  0  0  0  0  0
   -6.6209   -0.2703   -0.2663 H   0  0  0  0  0  0  0  0  0  0  0  0
    6.1205    0.1293   -0.2170 H   0  0  0  0  0  0  0  0  0  0  0  0
  1 12  1  0  0  0  0
  1 24  1  0  0  0  0
  2 11  2  0  0  0  0
  3 12  2  0  0  0  0
  4 13  1  0  0  0  0
  4 25  1  0  0  0  0
  5 13  2  0  0  0  0
  6  7  1  0  0  0  0
  6  8  1  0  0  0  0
  6 14  1  0  0  0  0
  6 15  1  0  0  0  0
  7  9  1  0  0  0  0
  7 16  1  0  0  0  0
  7 17  1  0  0  0  0
  8 10  1  0  0  0  0
  8 18  1  0  0  0  0
  8 19  1  0  0  0  0
  9 11  1  0  0  0  0
  9 20  1  0  0  0  0
  9 21  1  0  0  0  0
 10 12  1  0  0  0  0
 10 22  1  0  0  0  0
 10 23  1  0  0  0  0
 11 13  1  0  0  0  0
M  END
> <PUBCHEM_COMPOUND_CID>
146903

> <PUBCHEM_CONFORMER_RMSD>
0.8

> <PUBCHEM_CONFORMER_DIVERSEORDER>
1
22
12
92
5
93
4
67
86
83
42
45
6
55
28
81
44
7
2
69
9
85
50
15
88
38
68
11
82
41
78
26
51
71
66
3
72
65
90
77
14
58
64
39
23
89
74
8
73
60
52
21
30
57
46
13
48
10
87
33
29
84
20
24
63
70
36
79
19
54
40
32
17
80
91
76
25
95
59
16
75
53
61
31
47
62
35
56
37
43
94
49
34
96
27
18

> <PUBCHEM_MMFF94_PARTIAL_CHARGES>
12
1 -0.65
10 0.06
11 0.51
12 0.66
13 0.72
2 -0.57
24 0.5
25 0.5
3 -0.57
4 -0.65
5 -0.57
9 0.06

> <PUBCHEM_EFFECTIVE_ROTOR_COUNT>
7

> <PUBCHEM_PHARMACOPHORE_FEATURES>
8
1 1 acceptor
1 2 acceptor
1 3 acceptor
1 4 acceptor
1 5 acceptor
3 1 3 12 anion
3 4 5 13 anion
5 6 7 8 9 10 hydrophobe

> <PUBCHEM_HEAVY_ATOM_COUNT>
13

> <PUBCHEM_ATOM_DEF_STEREO_COUNT>
0

> <PUBCHEM_ATOM_UDEF_STEREO_COUNT>
0

> <PUBCHEM_BOND_DEF_STEREO_COUNT>
0

> <PUBCHEM_BOND_UDEF_STEREO_COUNT>
0

> <PUBCHEM_ISOTOPIC_ATOM_COUNT>
0

> <PUBCHEM_COMPONENT_COUNT>
1

> <PUBCHEM_CACTVS_TAUTO_COUNT>
2

> <PUBCHEM_CONFORMER_ID>
00023DD700000001

> <PUBCHEM_MMFF94_ENERGY>
10.4193

> <PUBCHEM_FEATURE_SELFOVERLAP>
40.724

> <PUBCHEM_SHAPE_FINGERPRINT>
11287383 113 18411980230727786971
13081056 2 18343586230950799069
13167823 11 18409452466475780071
14123238 8 18260829297704964487
1420 363 17988917860844057395
14251718 22 18409167692911003315
15242439 84 18131631179524959355
17834072 33 18334296444296301055
17834076 25 15985106310154415635
200 152 18113618993203079745
20645477 70 18336826489540763998
20719005 15 18410012130736502171
20767249 13 14634870851110317775
22485316 2 18334296452728070934
23402539 116 18259708908526109869
23402655 69 18409448077008160358
366044 4 18201720643623357003
4214541 1 18410575102423287761
42788 4 18410855460128168291
449060 50 8790882977933483354
522135 26 18342457045726082858
542803 24 17489584567261994389
77779 3 18411699868136932923

> <PUBCHEM_SHAPE_MULTIPOLES>
238.19
13.43
1.17
0.59
5.78
0.1
-0.01
-0.19
0.92
-0.45
0.02
0.03
-0.01
-0.03

> <PUBCHEM_SHAPE_SELFOVERLAP>
454.705

> <PUBCHEM_SHAPE_VOLUME>
144.5

> <PUBCHEM_COORDINATE_TYPE>
2
5
10

$$$$

