47205115
  -OEChem-06241222583D

 27 28  0     0  0  0  0  0  0999 V2000
    1.5969   -0.9640   -2.6336 Br  0  0  0  0  0  0  0  0  0  0  0  0
    0.2469   -1.7051    0.3385 S   0  0  0  0  0  0  0  0  0  0  0  0
    4.7121    2.1173    0.1537 F   0  0  0  0  0  0  0  0  0  0  0  0
   -3.7658   -0.2333    0.5621 O   0  0  0  0  0  0  0  0  0  0  0  0
    0.5512   -2.8551   -0.4996 O   0  0  0  0  0  0  0  0  0  0  0  0
   -0.0498   -1.9030    1.7489 O   0  0  0  0  0  0  0  0  0  0  0  0
   -1.0322   -0.8265   -0.3741 N   0  0  0  0  0  0  0  0  0  0  0  0
    1.5793   -0.5714    0.2331 C   0  0  0  0  0  0  0  0  0  0  0  0
   -1.4605    0.4525    0.2100 C   0  0  0  0  0  0  0  0  0  0  0  0
   -2.9305    0.6923    0.0211 C   0  0  0  0  0  0  0  0  0  0  0  0
    2.1752   -0.2305   -0.9812 C   0  0  0  0  0  0  0  0  0  0  0  0
    2.0417   -0.0041    1.4205 C   0  0  0  0  0  0  0  0  0  0  0  0
   -3.6489    1.6843   -0.6050 C   0  0  0  0  0  0  0  0  0  0  0  0
    3.2333    0.6779   -1.0080 C   0  0  0  0  0  0  0  0  0  0  0  0
    3.0999    0.9043    1.3937 C   0  0  0  0  0  0  0  0  0  0  0  0
    3.6958    1.2452    0.1793 C   0  0  0  0  0  0  0  0  0  0  0  0
   -5.0131    1.3468   -0.4378 C   0  0  0  0  0  0  0  0  0  0  0  0
   -5.0312    0.1724    0.2784 C   0  0  0  0  0  0  0  0  0  0  0  0
   -0.8959    1.2609   -0.2672 H   0  0  0  0  0  0  0  0  0  0  0  0
   -1.2470    0.4781    1.2838 H   0  0  0  0  0  0  0  0  0  0  0  0
   -1.1944   -0.9376   -1.3830 H   0  0  0  0  0  0  0  0  0  0  0  0
    1.6019   -0.2412    2.3844 H   0  0  0  0  0  0  0  0  0  0  0  0
   -3.2424    2.5439   -1.1182 H   0  0  0  0  0  0  0  0  0  0  0  0
    3.7112    0.9568   -1.9437 H   0  0  0  0  0  0  0  0  0  0  0  0
    3.4599    1.3472    2.3176 H   0  0  0  0  0  0  0  0  0  0  0  0
   -5.8755    1.8911   -0.7946 H   0  0  0  0  0  0  0  0  0  0  0  0
   -5.8204   -0.4670    0.6460 H   0  0  0  0  0  0  0  0  0  0  0  0
  1 11  1  0  0  0  0
  2  5  2  0  0  0  0
  2  6  2  0  0  0  0
  2  7  1  0  0  0  0
  2  8  1  0  0  0  0
  3 16  1  0  0  0  0
  4 10  1  0  0  0  0
  4 18  1  0  0  0  0
  7  9  1  0  0  0  0
  7 21  1  0  0  0  0
  8 11  2  0  0  0  0
  8 12  1  0  0  0  0
  9 10  1  0  0  0  0
  9 19  1  0  0  0  0
  9 20  1  0  0  0  0
 10 13  2  0  0  0  0
 11 14  1  0  0  0  0
 12 15  2  0  0  0  0
 12 22  1  0  0  0  0
 13 17  1  0  0  0  0
 13 23  1  0  0  0  0
 14 16  2  0  0  0  0
 14 24  1  0  0  0  0
 15 16  1  0  0  0  0
 15 25  1  0  0  0  0
 17 18  2  0  0  0  0
 17 26  1  0  0  0  0
 18 27  1  0  0  0  0
M  END
> <PUBCHEM_COMPOUND_CID>
47205115

> <PUBCHEM_CONFORMER_RMSD>
0.6

> <PUBCHEM_CONFORMER_DIVERSEORDER>
26
6
98
54
96
93
72
34
70
19
87
99
94
48
36
21
90
62
97
81
37
92
95
47
100
89
33
18
52
32
88
67
59
7
51
35
84
65
23
5
86
75
64
101
38
60
80
50
12
20
74
85
17
56
58
105
78
53
31
79
55
39
15
103
49
2
63
14
82
42
83
104
24
66
77
43
41
102
22
73
45
1
10
91
8
71
25
76
9
57
16
29
40
69
11
3
61
28
46
68
44
13
4
27
30

> <PUBCHEM_MMFF94_PARTIAL_CHARGES>
25
1 -0.11
10 -0.04
11 0.11
12 -0.15
13 -0.15
14 -0.15
15 -0.15
16 0.19
17 -0.15
18 -0.01
2 1.45
21 0.42
22 0.15
23 0.15
24 0.15
25 0.15
26 0.15
27 0.15
3 -0.19
4 -0.28
5 -0.65
6 -0.65
7 -0.91
8 -0.01
9 0.54

> <PUBCHEM_EFFECTIVE_ROTOR_COUNT>
4

> <PUBCHEM_PHARMACOPHORE_FEATURES>
7
1 1 hydrophobe
1 4 acceptor
1 5 acceptor
1 6 acceptor
1 7 donor
5 4 10 13 17 18 rings
6 8 11 12 14 15 16 rings

> <PUBCHEM_HEAVY_ATOM_COUNT>
18

> <PUBCHEM_ATOM_DEF_STEREO_COUNT>
0

> <PUBCHEM_ATOM_UDEF_STEREO_COUNT>
0

> <PUBCHEM_BOND_DEF_STEREO_COUNT>
0

> <PUBCHEM_BOND_UDEF_STEREO_COUNT>
0

> <PUBCHEM_ISOTOPIC_ATOM_COUNT>
0

> <PUBCHEM_COMPONENT_COUNT>
1

> <PUBCHEM_CACTVS_TAUTO_COUNT>
1

> <PUBCHEM_CONFORMER_ID>
02D04AFB0000001A

> <PUBCHEM_MMFF94_ENERGY>
18.1853

> <PUBCHEM_FEATURE_SELFOVERLAP>
35.538

> <PUBCHEM_SHAPE_MULTIPOLES>
350.36
9.33
2.08
1.68
10.05
0.73
-0.52
-6.54
-0.87
-1.25
-0.03
-1.28
0.66
1.02

> <PUBCHEM_SHAPE_SELFOVERLAP>
718.407

> <PUBCHEM_SHAPE_VOLUME>
205.3

> <PUBCHEM_COORDINATE_TYPE>
2
5
10

$$$$

