98312
  -OEChem-07051212462D

 44 47  0     1  0  0  0  0  0999 V2000
    3.7860    2.3721    0.0000 O   0  0  0  0  0  0  0  0  0  0  0  0
    7.2766    1.3690    0.0000 O   0  0  0  0  0  0  0  0  0  0  0  0
    2.0000   -0.6731    0.0000 O   0  0  0  0  0  0  0  0  0  0  0  0
    6.4762   -0.1735    0.0000 O   0  0  0  0  0  0  0  0  0  0  0  0
   10.7521    2.3289    0.0000 O   0  0  0  0  0  0  0  0  0  0  0  0
    5.5731   -3.8213    0.0000 O   0  0  0  0  0  0  0  0  0  0  0  0
    9.9035    3.8388    0.0000 O   0  0  0  0  0  0  0  0  0  0  0  0
    3.8411   -3.8280    0.0000 O   0  0  0  0  0  0  0  0  0  0  0  0
    5.5180    1.3720    0.0000 N   0  0  0  0  0  0  0  0  0  0  0  0
    3.7617   -1.7822    0.0000 N   0  0  0  0  0  0  0  0  0  0  0  0
    9.0086    1.3490    0.0000 N   0  0  0  0  0  0  0  0  0  0  0  0
    4.6520    0.8721    0.0000 C   0  0  0  0  0  0  0  0  0  0  0  0
    4.6681   -0.1695    0.0000 C   0  0  0  0  0  0  0  0  0  0  0  0
    5.5180    2.3721    0.0000 C   0  0  0  0  0  0  0  0  0  0  0  0
    3.7860    1.3720    0.0000 C   0  0  0  0  0  0  0  0  0  0  0  0
    3.7700   -0.6972    0.0000 C   0  0  0  0  0  0  0  0  0  0  0  0
    6.4280    2.8789    0.0000 C   0  0  0  0  0  0  0  0  0  0  0  0
    4.6520    2.8721    0.0000 C   0  0  0  0  0  0  0  0  0  0  0  0
    8.1600    2.8589    0.0000 C   0  0  0  0  0  0  0  0  0  0  0  0
    7.2882    2.3689    0.0000 C   0  0  0  0  0  0  0  0  0  0  0  0
    2.8760    0.8652    0.0000 C   0  0  0  0  0  0  0  0  0  0  0  0
    2.8680   -0.1764    0.0000 C   0  0  0  0  0  0  0  0  0  0  0  0
    5.6200   -0.6901    0.0000 C   0  0  0  0  0  0  0  0  0  0  0  0
    9.0201    2.3489    0.0000 C   0  0  3  0  0  0  0  0  0  0  0  0
    6.4361    3.9205    0.0000 C   0  0  0  0  0  0  0  0  0  0  0  0
    4.6359    3.9136    0.0000 C   0  0  0  0  0  0  0  0  0  0  0  0
    4.7013   -2.3247    0.0000 C   0  0  0  0  0  0  0  0  0  0  0  0
    5.6367   -1.7749    0.0000 C   0  0  0  0  0  0  0  0  0  0  0  0
    5.5340    4.4413    0.0000 C   0  0  0  0  0  0  0  0  0  0  0  0
    9.8919    2.8388    0.0000 C   0  0  0  0  0  0  0  0  0  0  0  0
    4.7052   -3.3247    0.0000 C   0  0  0  0  0  0  0  0  0  0  0  0
    8.5640    3.3292    0.0000 H   0  0  0  0  0  0  0  0  0  0  0  0
    7.7670    3.3384    0.0000 H   0  0  0  0  0  0  0  0  0  0  0  0
    2.3427    1.1814    0.0000 H   0  0  0  0  0  0  0  0  0  0  0  0
    9.7513    1.9154    0.0000 H   0  0  0  0  0  0  0  0  0  0  0  0
    3.2235   -2.0901    0.0000 H   0  0  0  0  0  0  0  0  0  0  0  0
    6.9742    4.2284    0.0000 H   0  0  0  0  0  0  0  0  0  0  0  0
    4.0955    4.2173    0.0000 H   0  0  0  0  0  0  0  0  0  0  0  0
    6.1772   -2.0787    0.0000 H   0  0  0  0  0  0  0  0  0  0  0  0
    5.5316    5.0613    0.0000 H   0  0  0  0  0  0  0  0  0  0  0  0
    9.5419    1.0328    0.0000 H   0  0  0  0  0  0  0  0  0  0  0  0
    8.4681    1.0452    0.0000 H   0  0  0  0  0  0  0  0  0  0  0  0
   11.2926    2.6326    0.0000 H   0  0  0  0  0  0  0  0  0  0  0  0
    5.5755   -4.4413    0.0000 H   0  0  0  0  0  0  0  0  0  0  0  0
  1 15  1  0  0  0  0
  1 18  1  0  0  0  0
  2 20  2  0  0  0  0
  3 22  2  0  0  0  0
  4 23  2  0  0  0  0
  5 30  1  0  0  0  0
  5 43  1  0  0  0  0
  6 31  1  0  0  0  0
  6 44  1  0  0  0  0
  7 30  2  0  0  0  0
  8 31  2  0  0  0  0
  9 12  2  0  0  0  0
  9 14  1  0  0  0  0
 10 16  1  0  0  0  0
 10 27  1  0  0  0  0
 10 36  1  0  0  0  0
 11 24  1  0  0  0  0
 11 41  1  0  0  0  0
 11 42  1  0  0  0  0
 12 13  1  0  0  0  0
 12 15  1  0  0  0  0
 13 16  2  0  0  0  0
 13 23  1  0  0  0  0
 14 17  2  0  0  0  0
 14 18  1  0  0  0  0
 15 21  2  0  0  0  0
 16 22  1  0  0  0  0
 17 20  1  0  0  0  0
 17 25  1  0  0  0  0
 18 26  2  0  0  0  0
 19 20  1  0  0  0  0
 19 24  1  0  0  0  0
 19 32  1  0  0  0  0
 19 33  1  0  0  0  0
 21 22  1  0  0  0  0
 21 34  1  0  0  0  0
 23 28  1  0  0  0  0
 24 30  1  0  0  0  0
 24 35  1  0  0  0  0
 25 29  2  0  0  0  0
 25 37  1  0  0  0  0
 26 29  1  0  0  0  0
 26 38  1  0  0  0  0
 27 28  2  0  0  0  0
 27 31  1  0  0  0  0
 28 39  1  0  0  0  0
 29 40  1  0  0  0  0
M  END
> <PUBCHEM_COMPOUND_CID>
98312

> <PUBCHEM_COMPOUND_CANONICALIZED>
1

> <PUBCHEM_CACTVS_COMPLEXITY>
1050

> <PUBCHEM_CACTVS_HBOND_ACCEPTOR>
11

> <PUBCHEM_CACTVS_HBOND_DONOR>
4

> <PUBCHEM_CACTVS_ROTATABLE_BOND>
5

> <PUBCHEM_CACTVS_SUBSKEYS>
AAADccB7PAAAAAAAAAAAAAAAAAAAAAAAAAAwQIEAAAAAAACBAAAAHgAQCAAADCzBmAQwzoLABgCoA6TyTASCCAAkIgAIiIGnTNgOJjqEtbuHeaDk0BGY+cebyLCOAAABAAACEAAAAAIAAAQgAAAAAAAAAA==

> <PUBCHEM_IUPAC_OPENEYE_NAME>
11-(3-amino-3-carboxy-propanoyl)-1,5-dioxo-4H-pyrido[3,2-a]phenoxazine-3-carboxylic acid

> <PUBCHEM_IUPAC_CAS_NAME>
11-(3-amino-3-carboxy-1-oxopropyl)-1,5-dioxo-4H-pyrido[3,2-a]phenoxazine-3-carboxylic acid

> <PUBCHEM_IUPAC_NAME>
11-(3-amino-3-carboxypropanoyl)-1,5-dioxo-4H-pyrido[3,2-a]phenoxazine-3-carboxylic acid

> <PUBCHEM_IUPAC_SYSTEMATIC_NAME>
11-(3-azanyl-4-oxidanyl-4-oxidanylidene-butanoyl)-1,5-bis(oxidanylidene)-4H-pyrido[3,2-a]phenoxazine-3-carboxylic acid

> <PUBCHEM_IUPAC_TRADITIONAL_NAME>
11-(3-amino-3-carboxy-propanoyl)-1,5-diketo-4H-pyrido[3,2-a]phenoxazine-3-carboxylic acid

> <PUBCHEM_IUPAC_INCHI>
InChI=1S/C20H13N3O8/c21-8(19(27)28)4-10(24)7-2-1-3-13-16(7)23-18-14(31-13)6-12(26)17-15(18)11(25)5-9(22-17)20(29)30/h1-3,5-6,8H,4,21H2,(H,22,25)(H,27,28)(H,29,30)

> <PUBCHEM_IUPAC_INCHIKEY>
QLAHWTNCEYYDRR-UHFFFAOYSA-N

> <PUBCHEM_XLOGP3_AA>
-2.7

> <PUBCHEM_EXACT_MASS>
423.070264

> <PUBCHEM_MOLECULAR_FORMULA>
C20H13N3O8

> <PUBCHEM_MOLECULAR_WEIGHT>
423.33252

> <PUBCHEM_OPENEYE_CAN_SMILES>
C1=CC(=C2C(=C1)OC3=CC(=O)C4=C(C3=N2)C(=O)C=C(N4)C(=O)O)C(=O)CC(C(=O)O)N

> <PUBCHEM_OPENEYE_ISO_SMILES>
C1=CC(=C2C(=C1)OC3=CC(=O)C4=C(C3=N2)C(=O)C=C(N4)C(=O)O)C(=O)CC(C(=O)O)N

> <PUBCHEM_CACTVS_TPSA>
185

> <PUBCHEM_MONOISOTOPIC_WEIGHT>
423.070264

> <PUBCHEM_TOTAL_CHARGE>
0

> <PUBCHEM_HEAVY_ATOM_COUNT>
31

> <PUBCHEM_ATOM_DEF_STEREO_COUNT>
0

> <PUBCHEM_ATOM_UDEF_STEREO_COUNT>
1

> <PUBCHEM_BOND_DEF_STEREO_COUNT>
0

> <PUBCHEM_BOND_UDEF_STEREO_COUNT>
0

> <PUBCHEM_ISOTOPIC_ATOM_COUNT>
0

> <PUBCHEM_COMPONENT_COUNT>
1

> <PUBCHEM_CACTVS_TAUTO_COUNT>
13

> <PUBCHEM_COORDINATE_TYPE>
1
5
255

> <PUBCHEM_BONDANNOTATIONS>
1  15  8
1  18  8
10  16  8
10  27  8
12  13  8
13  16  8
13  23  8
14  17  8
14  18  8
15  21  8
16  22  8
17  25  8
18  26  8
21  22  8
23  28  8
24  35  3
25  29  8
26  29  8
27  28  8
9  12  8
9  14  8

$$$$

