46173955
  -OEChem-07051213103D

 44 44  0     1  0  0  0  0  0999 V2000
   -3.5717    0.2581   -1.1084 O   0  0  0  0  0  0  0  0  0  0  0  0
    0.1377   -3.3088   -0.9351 O   0  0  0  0  0  0  0  0  0  0  0  0
    3.3081    2.0610   -0.8634 O   0  0  0  0  0  0  0  0  0  0  0  0
   -1.4186    0.0796   -0.0655 C   0  0  1  0  0  0  0  0  0  0  0  0
   -2.9015    0.4122    0.1405 C   0  0  0  0  0  0  0  0  0  0  0  0
   -1.2692   -1.4117   -0.4314 C   0  0  0  0  0  0  0  0  0  0  0  0
   -0.8041    1.0276   -1.1220 C   0  0  0  0  0  0  0  0  0  0  0  0
    0.1756   -1.9061   -0.6476 C   0  0  1  0  0  0  0  0  0  0  0  0
    0.0756    2.1331   -0.5162 C   0  0  0  0  0  0  0  0  0  0  0  0
   -3.5287   -0.5371    1.1565 C   0  0  0  0  0  0  0  0  0  0  0  0
   -3.0630    1.8627    0.5805 C   0  0  0  0  0  0  0  0  0  0  0  0
    1.1795   -1.7076    0.4707 C   0  0  0  0  0  0  0  0  0  0  0  0
    1.2694    1.6299    0.2758 C   0  0  0  0  0  0  0  0  0  0  0  0
    2.4062    1.0028   -0.5135 C   0  0  2  0  0  0  0  0  0  0  0  0
    2.6206   -1.5400    0.0417 C   0  0  0  0  0  0  0  0  0  0  0  0
    3.2179   -0.1270    0.1544 C   0  0  0  0  0  0  0  0  0  0  0  0
    0.8619   -1.7413    1.7754 C   0  0  0  0  0  0  0  0  0  0  0  0
    1.3044    1.8126    1.6076 C   0  0  0  0  0  0  0  0  0  0  0  0
   -0.9217    0.2270    0.8982 H   0  0  0  0  0  0  0  0  0  0  0  0
   -1.7074   -2.0571    0.3377 H   0  0  0  0  0  0  0  0  0  0  0  0
   -1.8400   -1.6312   -1.3439 H   0  0  0  0  0  0  0  0  0  0  0  0
   -0.2036    0.4719   -1.8470 H   0  0  0  0  0  0  0  0  0  0  0  0
   -1.5720    1.5072   -1.7401 H   0  0  0  0  0  0  0  0  0  0  0  0
    0.5670   -1.4321   -1.5531 H   0  0  0  0  0  0  0  0  0  0  0  0
    0.4498    2.7664   -1.3313 H   0  0  0  0  0  0  0  0  0  0  0  0
   -0.5360    2.7982    0.1030 H   0  0  0  0  0  0  0  0  0  0  0  0
   -2.9328   -0.6135    2.0718 H   0  0  0  0  0  0  0  0  0  0  0  0
   -3.7028   -1.5368    0.7453 H   0  0  0  0  0  0  0  0  0  0  0  0
   -4.1114    2.0703    0.8288 H   0  0  0  0  0  0  0  0  0  0  0  0
   -2.8197    2.5768   -0.2122 H   0  0  0  0  0  0  0  0  0  0  0  0
   -2.4654    2.0884    1.4697 H   0  0  0  0  0  0  0  0  0  0  0  0
   -4.5261   -0.1811    1.4437 H   0  0  0  0  0  0  0  0  0  0  0  0
    2.0186    0.6180   -1.4630 H   0  0  0  0  0  0  0  0  0  0  0  0
    3.2470   -2.2241    0.6306 H   0  0  0  0  0  0  0  0  0  0  0  0
    2.7352   -1.8843   -0.9945 H   0  0  0  0  0  0  0  0  0  0  0  0
    3.4214    0.1007    1.2064 H   0  0  0  0  0  0  0  0  0  0  0  0
    4.2146   -0.1654   -0.3071 H   0  0  0  0  0  0  0  0  0  0  0  0
   -4.5134    0.4578   -0.9704 H   0  0  0  0  0  0  0  0  0  0  0  0
   -0.4289   -3.4337   -1.7155 H   0  0  0  0  0  0  0  0  0  0  0  0
   -0.1550   -1.8986    2.1156 H   0  0  0  0  0  0  0  0  0  0  0  0
    1.6233   -1.6191    2.5391 H   0  0  0  0  0  0  0  0  0  0  0  0
    2.1502    1.5140    2.2144 H   0  0  0  0  0  0  0  0  0  0  0  0
    0.4788    2.2847    2.1309 H   0  0  0  0  0  0  0  0  0  0  0  0
    3.9507    1.7018   -1.4987 H   0  0  0  0  0  0  0  0  0  0  0  0
  1  5  1  0  0  0  0
  1 38  1  0  0  0  0
  2  8  1  0  0  0  0
  2 39  1  0  0  0  0
  3 14  1  0  0  0  0
  3 44  1  0  0  0  0
  4  5  1  0  0  0  0
  4  6  1  0  0  0  0
  4  7  1  0  0  0  0
  4 19  1  0  0  0  0
  5 10  1  0  0  0  0
  5 11  1  0  0  0  0
  6  8  1  0  0  0  0
  6 20  1  0  0  0  0
  6 21  1  0  0  0  0
  7  9  1  0  0  0  0
  7 22  1  0  0  0  0
  7 23  1  0  0  0  0
  8 12  1  0  0  0  0
  8 24  1  0  0  0  0
  9 13  1  0  0  0  0
  9 25  1  0  0  0  0
  9 26  1  0  0  0  0
 10 27  1  0  0  0  0
 10 28  1  0  0  0  0
 10 32  1  0  0  0  0
 11 29  1  0  0  0  0
 11 30  1  0  0  0  0
 11 31  1  0  0  0  0
 12 15  1  0  0  0  0
 12 17  2  0  0  0  0
 13 14  1  0  0  0  0
 13 18  2  0  0  0  0
 14 16  1  0  0  0  0
 14 33  1  0  0  0  0
 15 16  1  0  0  0  0
 15 34  1  0  0  0  0
 15 35  1  0  0  0  0
 16 36  1  0  0  0  0
 16 37  1  0  0  0  0
 17 40  1  0  0  0  0
 17 41  1  0  0  0  0
 18 42  1  0  0  0  0
 18 43  1  0  0  0  0
M  END
> <PUBCHEM_COMPOUND_CID>
46173955

> <PUBCHEM_CONFORMER_RMSD>
0.6

> <PUBCHEM_CONFORMER_DIVERSEORDER>
1
6
15
21
3
26
20
25
12
8
14
17
27
7
18
19
28
9
24
4
2
13
23
10
22
11
16
5

> <PUBCHEM_MMFF94_PARTIAL_CHARGES>
19
1 -0.68
12 -0.28
13 -0.28
14 0.42
15 0.14
17 -0.3
18 -0.3
2 -0.68
3 -0.68
38 0.4
39 0.4
40 0.15
41 0.15
42 0.15
43 0.15
44 0.4
5 0.28
8 0.42
9 0.14

> <PUBCHEM_EFFECTIVE_ROTOR_COUNT>
2.6

> <PUBCHEM_PHARMACOPHORE_FEATURES>
7
1 1 acceptor
1 1 donor
1 2 acceptor
1 2 donor
1 3 acceptor
1 3 donor
3 5 10 11 hydrophobe

> <PUBCHEM_HEAVY_ATOM_COUNT>
18

> <PUBCHEM_ATOM_DEF_STEREO_COUNT>
3

> <PUBCHEM_ATOM_UDEF_STEREO_COUNT>
0

> <PUBCHEM_BOND_DEF_STEREO_COUNT>
0

> <PUBCHEM_BOND_UDEF_STEREO_COUNT>
0

> <PUBCHEM_ISOTOPIC_ATOM_COUNT>
0

> <PUBCHEM_COMPONENT_COUNT>
1

> <PUBCHEM_CACTVS_TAUTO_COUNT>
1

> <PUBCHEM_CONFORMER_ID>
02C08F0300000001

> <PUBCHEM_MMFF94_ENERGY>
52.4489

> <PUBCHEM_FEATURE_SELFOVERLAP>
35.52

> <PUBCHEM_SHAPE_FINGERPRINT>
10382601 240 18129086978280097600
104564 63 18048032158149201728
10863032 1 18201429255814153984
10980938 120 18408885178383311033
11086676 242 18126006215460269874
11132069 177 18337399330312945698
12633257 1 17915744373677058785
13140716 1 18411985771035112962
14178342 30 17975994076147816640
14251711 518 18270419285494018354
14251717 144 18337400417197939799
14251745 187 18271241616927490920
14386348 128 18339925922171093796
14817 1 9868428618339256266
15309172 13 18341047406983580909
15775835 57 18339075991198272980
16945 1 18118407245798207612
18219364 16 18412546526518786567
18981168 100 18042984068153284155
20645476 183 17344894231836820236
20645477 70 18341057397383200485
21501502 16 18267589185714268941
21524375 3 18340772550540897810
22721475 48 18196937888058625941
2334 1 18339366236324232790
23419403 2 16975395897222354480
23463225 33 18341049713217358596
238 59 17910715151462085405
2748010 2 18412549786108690639
3060560 45 18261121802147486487
484985 159 4888851240929560956
495365 180 18118432685296190369
528862 383 18342745147214800093
81228 2 17329436038752967955

> <PUBCHEM_SHAPE_MULTIPOLES>
352.82
5.27
3.01
1.31
2.38
0.82
0.38
-1.33
0.21
-1.25
-0.24
0.07
0.07
-0.24

> <PUBCHEM_SHAPE_SELFOVERLAP>
697.005

> <PUBCHEM_SHAPE_VOLUME>
209.4

> <PUBCHEM_COORDINATE_TYPE>
2
5
10

$$$$

