8596
  -OEChem-06261202563D

 22 23  0     0  0  0  0  0  0999 V2000
    3.5525    1.2094    1.0968 N   0  0  0  0  0  0  0  0  0  0  0  0
   -0.3119    0.1595   -0.2488 C   0  0  0  0  0  0  0  0  0  0  0  0
    0.9277   -0.4594   -0.4790 C   0  0  0  0  0  0  0  0  0  0  0  0
   -1.4098   -0.6268    0.1745 C   0  0  0  0  0  0  0  0  0  0  0  0
   -0.4859    1.5413   -0.4293 C   0  0  0  0  0  0  0  0  0  0  0  0
    1.0826   -1.8337   -0.2944 C   0  0  0  0  0  0  0  0  0  0  0  0
   -1.2360   -2.0088    0.3548 C   0  0  0  0  0  0  0  0  0  0  0  0
    2.1297    0.3131   -0.9280 C   0  0  0  0  0  0  0  0  0  0  0  0
   -2.6494   -0.0082    0.4046 C   0  0  0  0  0  0  0  0  0  0  0  0
    0.0028   -2.6070    0.1215 C   0  0  0  0  0  0  0  0  0  0  0  0
   -1.7246    2.1393   -0.1958 C   0  0  0  0  0  0  0  0  0  0  0  0
   -2.8043    1.3660    0.2205 C   0  0  0  0  0  0  0  0  0  0  0  0
    2.9264    0.8154    0.2028 C   0  0  0  0  0  0  0  0  0  0  0  0
    0.3206    2.1990   -0.7382 H   0  0  0  0  0  0  0  0  0  0  0  0
    2.0404   -2.3175   -0.4688 H   0  0  0  0  0  0  0  0  0  0  0  0
   -2.0661   -2.6326    0.6796 H   0  0  0  0  0  0  0  0  0  0  0  0
    1.8697    1.1215   -1.6186 H   0  0  0  0  0  0  0  0  0  0  0  0
    2.7694   -0.3429   -1.5350 H   0  0  0  0  0  0  0  0  0  0  0  0
   -3.5070   -0.5931    0.7305 H   0  0  0  0  0  0  0  0  0  0  0  0
    0.1238   -3.6768    0.2655 H   0  0  0  0  0  0  0  0  0  0  0  0
   -1.8456    3.2096   -0.3357 H   0  0  0  0  0  0  0  0  0  0  0  0
   -3.7681    1.8323    0.4029 H   0  0  0  0  0  0  0  0  0  0  0  0
  1 13  3  0  0  0  0
  2  3  1  0  0  0  0
  2  4  1  0  0  0  0
  2  5  2  0  0  0  0
  3  6  2  0  0  0  0
  3  8  1  0  0  0  0
  4  7  1  0  0  0  0
  4  9  2  0  0  0  0
  5 11  1  0  0  0  0
  5 14  1  0  0  0  0
  6 10  1  0  0  0  0
  6 15  1  0  0  0  0
  7 10  2  0  0  0  0
  7 16  1  0  0  0  0
  8 13  1  0  0  0  0
  8 17  1  0  0  0  0
  8 18  1  0  0  0  0
  9 12  1  0  0  0  0
  9 19  1  0  0  0  0
 10 20  1  0  0  0  0
 11 12  2  0  0  0  0
 11 21  1  0  0  0  0
 12 22  1  0  0  0  0
M  END
> <PUBCHEM_COMPOUND_CID>
8596

> <PUBCHEM_CONFORMER_RMSD>
0.4

> <PUBCHEM_CONFORMER_DIVERSEORDER>
1
3
5
4
6
2

> <PUBCHEM_MMFF94_PARTIAL_CHARGES>
18
1 -0.56
10 -0.15
11 -0.15
12 -0.15
13 0.36
14 0.15
15 0.15
16 0.15
19 0.15
20 0.15
21 0.15
22 0.15
3 -0.14
5 -0.15
6 -0.15
7 -0.15
8 0.34
9 -0.15

> <PUBCHEM_EFFECTIVE_ROTOR_COUNT>
1

> <PUBCHEM_PHARMACOPHORE_FEATURES>
3
1 1 acceptor
6 2 3 4 6 7 10 rings
6 2 4 5 9 11 12 rings

> <PUBCHEM_HEAVY_ATOM_COUNT>
13

> <PUBCHEM_ATOM_DEF_STEREO_COUNT>
0

> <PUBCHEM_ATOM_UDEF_STEREO_COUNT>
0

> <PUBCHEM_BOND_DEF_STEREO_COUNT>
0

> <PUBCHEM_BOND_UDEF_STEREO_COUNT>
0

> <PUBCHEM_ISOTOPIC_ATOM_COUNT>
0

> <PUBCHEM_COMPONENT_COUNT>
1

> <PUBCHEM_CACTVS_TAUTO_COUNT>
1

> <PUBCHEM_CONFORMER_ID>
0000219400000001

> <PUBCHEM_MMFF94_ENERGY>
35.9638

> <PUBCHEM_FEATURE_SELFOVERLAP>
15.249

> <PUBCHEM_SHAPE_FINGERPRINT>
12382932 28 18340199700476577008
12423570 1 6910705939700467078
13140716 1 17979344262449952955
13380535 76 18411140259462495543
14420673 8 18268442398875736418
14614273 12 18272097118863187341
15490181 7 18338233898393366767
15852999 172 17844826947517059709
16945 1 18341037524226604279
17804303 29 18339920532620289478
17846911 113 18410297990664085401
193761 8 18268422606716759407
20510252 161 18263074423160642520
20511035 2 18127674140303593271
20871998 184 18192141607895581567
21524375 3 18335142020193298310
21650355 55 17763198946778776978
220403 375 18198356223719707301
2334 1 18341040930225275807
23388829 49 16531734794976700724
23402539 116 18118134575689479727
23552423 10 17911787283068792535
23559900 14 18262499495598429182
257057 1 17255974368240211110
27216 239 17317912165099744272
2748010 2 18198046161773068423
305870 269 18269560596956027130
3071541 236 18201442415488778691
5255222 1 17623279885499689917
53812653 166 18195239151505426110
5706482 22 18338813255121709394
6333449 129 18408886200495902157
7097593 13 18128278752193900424
7364860 26 17975413830155300886
81228 2 18122054317204064842
90316 7 17987816136918253292

> <PUBCHEM_SHAPE_MULTIPOLES>
262.55
4.25
2.61
0.83
1.8
1.1
-0.03
-2.58
-1.02
-0.38
-0.13
0.4
-0.14
0.51

> <PUBCHEM_SHAPE_SELFOVERLAP>
571.575

> <PUBCHEM_SHAPE_VOLUME>
141.2

> <PUBCHEM_COORDINATE_TYPE>
2
5
10

$$$$

