14231
  -OEChem-07051213043D

 28 27  0     1  0  0  0  0  0999 V2000
   -2.3429    1.3679    0.3769 O   0  0  0  0  0  0  0  0  0  0  0  0
   -4.7286   -0.0095   -0.2205 O   0  0  0  0  0  0  0  0  0  0  0  0
    0.2328    0.2044   -0.2456 C   0  0  0  0  0  0  0  0  0  0  0  0
    1.5232   -0.5347    0.1174 C   0  0  0  0  0  0  0  0  0  0  0  0
   -1.0033   -0.6190    0.1393 C   0  0  0  0  0  0  0  0  0  0  0  0
    2.7921    0.2546   -0.2175 C   0  0  0  0  0  0  0  0  0  0  0  0
   -2.3073    0.0870   -0.2505 C   0  0  1  0  0  0  0  0  0  0  0  0
    4.0786   -0.4515    0.2126 C   0  0  0  0  0  0  0  0  0  0  0  0
   -3.5477   -0.7031    0.1633 C   0  0  0  0  0  0  0  0  0  0  0  0
    5.3031    0.4040   -0.0753 C   0  0  0  0  0  0  0  0  0  0  0  0
    0.2196    0.4085   -1.3230 H   0  0  0  0  0  0  0  0  0  0  0  0
    0.2167    1.1723    0.2688 H   0  0  0  0  0  0  0  0  0  0  0  0
    1.5518   -1.4977   -0.4075 H   0  0  0  0  0  0  0  0  0  0  0  0
    1.5171   -0.7598    1.1913 H   0  0  0  0  0  0  0  0  0  0  0  0
   -0.9876   -0.7817    1.2244 H   0  0  0  0  0  0  0  0  0  0  0  0
   -0.9610   -1.6029   -0.3426 H   0  0  0  0  0  0  0  0  0  0  0  0
    2.8238    0.4439   -1.2976 H   0  0  0  0  0  0  0  0  0  0  0  0
    2.7396    1.2345    0.2734 H   0  0  0  0  0  0  0  0  0  0  0  0
   -2.3260    0.2635   -1.3324 H   0  0  0  0  0  0  0  0  0  0  0  0
    4.0400   -0.6730    1.2853 H   0  0  0  0  0  0  0  0  0  0  0  0
    4.1700   -1.4083   -0.3140 H   0  0  0  0  0  0  0  0  0  0  0  0
   -3.5608   -1.6965   -0.2958 H   0  0  0  0  0  0  0  0  0  0  0  0
   -3.5856   -0.8205    1.2511 H   0  0  0  0  0  0  0  0  0  0  0  0
    5.3862    0.6222   -1.1448 H   0  0  0  0  0  0  0  0  0  0  0  0
    5.2550    1.3538    0.4670 H   0  0  0  0  0  0  0  0  0  0  0  0
    6.2124   -0.1194    0.2364 H   0  0  0  0  0  0  0  0  0  0  0  0
   -3.1784    1.7947    0.1210 H   0  0  0  0  0  0  0  0  0  0  0  0
   -4.7038    0.0961   -1.1868 H   0  0  0  0  0  0  0  0  0  0  0  0
  1  7  1  0  0  0  0
  1 27  1  0  0  0  0
  2  9  1  0  0  0  0
  2 28  1  0  0  0  0
  3  4  1  0  0  0  0
  3  5  1  0  0  0  0
  3 11  1  0  0  0  0
  3 12  1  0  0  0  0
  4  6  1  0  0  0  0
  4 13  1  0  0  0  0
  4 14  1  0  0  0  0
  5  7  1  0  0  0  0
  5 15  1  0  0  0  0
  5 16  1  0  0  0  0
  6  8  1  0  0  0  0
  6 17  1  0  0  0  0
  6 18  1  0  0  0  0
  7  9  1  0  0  0  0
  7 19  1  0  0  0  0
  8 10  1  0  0  0  0
  8 20  1  0  0  0  0
  8 21  1  0  0  0  0
  9 22  1  0  0  0  0
  9 23  1  0  0  0  0
 10 24  1  0  0  0  0
 10 25  1  0  0  0  0
 10 26  1  0  0  0  0
M  END
> <PUBCHEM_COMPOUND_CID>
14231

> <PUBCHEM_CONFORMER_RMSD>
0.6

> <PUBCHEM_CONFORMER_DIVERSEORDER>
1
209
230
19
64
152
200
66
224
208
29
67
6
178
183
17
5
215
211
189
93
142
25
143
187
41
128
217
145
2
227
16
231
72
106
191
47
180
205
122
71
95
226
7
100
236
20
192
228
112
168
193
97
22
98
234
48
218
156
160
39
173
147
3
213
8
114
235
124
201
53
63
163
82
210
206
60
44
233
75
9
219
21
196
165
188
77
197
38
161
118
123
154
207
43
222
111
70
216
110
220
26
94
101
90
177
13
46
237
27
109
79
179
141
92
84
155
138
80
232
68
99
199
15
190
35
61
198
102
73
202
195
24
76
23
81
182
78
83
229
120
91
166
51
103
129
10
149
14
221
212
203
31
74
116
170
55
225
65
87
40
214
33
130
144
115
104
89
171
146
175
4
140
174
30
56
105
57
151
126
134
169
28
185
176
50
62
96
113
69
139
158
157
181
117
136
108
18
204
184
52
42
36
186
37
194
107
223
32
45
127
58
34
119
162
164
148
150
11
12
172
49
85
125
131
135
88
86
132
59
54
153
121
167
137
133
159

> <PUBCHEM_MMFF94_PARTIAL_CHARGES>
6
1 -0.68
2 -0.68
27 0.4
28 0.4
7 0.28
9 0.28

> <PUBCHEM_EFFECTIVE_ROTOR_COUNT>
6

> <PUBCHEM_PHARMACOPHORE_FEATURES>
6
1 1 acceptor
1 1 donor
1 10 hydrophobe
1 2 acceptor
1 2 donor
5 3 4 5 6 8 hydrophobe

> <PUBCHEM_HEAVY_ATOM_COUNT>
10

> <PUBCHEM_ATOM_DEF_STEREO_COUNT>
0

> <PUBCHEM_ATOM_UDEF_STEREO_COUNT>
1

> <PUBCHEM_BOND_DEF_STEREO_COUNT>
0

> <PUBCHEM_BOND_UDEF_STEREO_COUNT>
0

> <PUBCHEM_ISOTOPIC_ATOM_COUNT>
0

> <PUBCHEM_COMPONENT_COUNT>
1

> <PUBCHEM_CACTVS_TAUTO_COUNT>
1

> <PUBCHEM_CONFORMER_ID>
0000379700000001

> <PUBCHEM_MMFF94_ENERGY>
3.9779

> <PUBCHEM_FEATURE_SELFOVERLAP>
30.453

> <PUBCHEM_SHAPE_FINGERPRINT>
11062470 55 18273496771326879254
12932764 1 16733281130309429046
14123238 8 17821446850617369438
14325111 11 18409729599208490126
17834072 33 18201716194231955854
17834076 25 13183024020748414415
18522853 276 18408603660436140208
190213 19 17989485225612265582
20645477 70 17968934314461441774
20719005 15 18410856564435936270
20828058 21 18260264166298436588
22485316 2 10519984851189662712
23402539 116 18335709329680859207
366044 4 18273215287475806939
42788 4 18342739611244626654

> <PUBCHEM_SHAPE_MULTIPOLES>
194.06
10.5
0.91
0.64
4.43
0.11
0
0.39
-0.06
-0.3
0.08
0.02
0.01
-0.13

> <PUBCHEM_SHAPE_SELFOVERLAP>
344.117

> <PUBCHEM_SHAPE_VOLUME>
126.9

> <PUBCHEM_COORDINATE_TYPE>
2
5
10

$$$$

