38409
  -OEChem-07051213022D

 28 29  0     0  0  0  0  0  0999 V2000
    2.0000    1.4588    0.0000 Cl  0  0  0  0  0  0  0  0  0  0  0  0
    2.0000   -0.5412    0.0000 Cl  0  0  0  0  0  0  0  0  0  0  0  0
    5.5116    2.5520    0.0000 S   0  0  0  0  0  0  0  0  0  0  0  0
    3.7320   -1.5412    0.0000 O   0  0  0  0  0  0  0  0  0  0  0  0
    2.8660    2.9588    0.0000 O   0  0  0  0  0  0  0  0  0  0  0  0
    5.4641   -3.5412    0.0000 O   0  0  0  0  0  0  0  0  0  0  0  0
    3.7320   -3.5412    0.0000 O   0  0  0  0  0  0  0  0  0  0  0  0
    3.7320    1.4588    0.0000 C   0  0  0  0  0  0  0  0  0  0  0  0
    3.7320   -0.5412    0.0000 C   0  0  0  0  0  0  0  0  0  0  0  0
    2.8660    0.9588    0.0000 C   0  0  0  0  0  0  0  0  0  0  0  0
    4.5981    0.9588    0.0000 C   0  0  0  0  0  0  0  0  0  0  0  0
    3.7320    2.4588    0.0000 C   0  0  0  0  0  0  0  0  0  0  0  0
    2.8660   -0.0412    0.0000 C   0  0  0  0  0  0  0  0  0  0  0  0
    4.5981   -0.0412    0.0000 C   0  0  0  0  0  0  0  0  0  0  0  0
    4.5981    2.9588    0.0000 C   0  0  0  0  0  0  0  0  0  0  0  0
    4.7026    3.9533    0.0000 C   0  0  0  0  0  0  0  0  0  0  0  0
    4.5981   -2.0412    0.0000 C   0  0  0  0  0  0  0  0  0  0  0  0
    5.6808    4.1612    0.0000 C   0  0  0  0  0  0  0  0  0  0  0  0
    6.1808    3.2952    0.0000 C   0  0  0  0  0  0  0  0  0  0  0  0
    4.5981   -3.0412    0.0000 C   0  0  0  0  0  0  0  0  0  0  0  0
    5.1350    1.2688    0.0000 H   0  0  0  0  0  0  0  0  0  0  0  0
    5.1350   -0.3512    0.0000 H   0  0  0  0  0  0  0  0  0  0  0  0
    4.2419    4.3682    0.0000 H   0  0  0  0  0  0  0  0  0  0  0  0
    5.2087   -2.1489    0.0000 H   0  0  0  0  0  0  0  0  0  0  0  0
    4.8101   -1.4586    0.0000 H   0  0  0  0  0  0  0  0  0  0  0  0
    5.9329    4.7276    0.0000 H   0  0  0  0  0  0  0  0  0  0  0  0
    6.7974    3.2304    0.0000 H   0  0  0  0  0  0  0  0  0  0  0  0
    5.4641   -4.1612    0.0000 H   0  0  0  0  0  0  0  0  0  0  0  0
  1 10  1  0  0  0  0
  2 13  1  0  0  0  0
  3 15  1  0  0  0  0
  3 19  1  0  0  0  0
  4  9  1  0  0  0  0
  4 17  1  0  0  0  0
  5 12  2  0  0  0  0
  6 20  1  0  0  0  0
  6 28  1  0  0  0  0
  7 20  2  0  0  0  0
  8 10  2  0  0  0  0
  8 11  1  0  0  0  0
  8 12  1  0  0  0  0
  9 13  2  0  0  0  0
  9 14  1  0  0  0  0
 10 13  1  0  0  0  0
 11 14  2  0  0  0  0
 11 21  1  0  0  0  0
 12 15  1  0  0  0  0
 14 22  1  0  0  0  0
 15 16  2  0  0  0  0
 16 18  1  0  0  0  0
 16 23  1  0  0  0  0
 17 20  1  0  0  0  0
 17 24  1  0  0  0  0
 17 25  1  0  0  0  0
 18 19  2  0  0  0  0
 18 26  1  0  0  0  0
 19 27  1  0  0  0  0
M  END
> <PUBCHEM_COMPOUND_CID>
38409

> <PUBCHEM_COMPOUND_CANONICALIZED>
1

> <PUBCHEM_CACTVS_COMPLEXITY>
379

> <PUBCHEM_CACTVS_HBOND_ACCEPTOR>
5

> <PUBCHEM_CACTVS_HBOND_DONOR>
1

> <PUBCHEM_CACTVS_ROTATABLE_BOND>
5

> <PUBCHEM_CACTVS_SUBSKEYS>
AAADccBwOABGAAAAAAAAAAAAAAAAASAAAAAwAAAAAAAAAAABwAAAGgYACAAADAak2CKwD4AABgiMAqDSCAIDCIAkLFBIillGC8gNJjOlNx6COSCkwBErrYeIzODOIAAAIQABCARAAABCAAIQCAAAAAAAAA==

> <PUBCHEM_IUPAC_OPENEYE_NAME>
2-[2,3-dichloro-4-(thiophene-2-carbonyl)phenoxy]acetic acid

> <PUBCHEM_IUPAC_CAS_NAME>
2-[2,3-dichloro-4-[oxo(thiophen-2-yl)methyl]phenoxy]acetic acid

> <PUBCHEM_IUPAC_NAME>
2-[2,3-dichloro-4-(thiophene-2-carbonyl)phenoxy]acetic acid

> <PUBCHEM_IUPAC_SYSTEMATIC_NAME>
2-[2,3-bis(chloranyl)-4-thiophen-2-ylcarbonyl-phenoxy]ethanoic acid

> <PUBCHEM_IUPAC_TRADITIONAL_NAME>
2-[2,3-dichloro-4-(2-thenoyl)phenoxy]acetic acid

> <PUBCHEM_IUPAC_INCHI>
InChI=1S/C13H8Cl2O4S/c14-11-7(13(18)9-2-1-5-20-9)3-4-8(12(11)15)19-6-10(16)17/h1-5H,6H2,(H,16,17)

> <PUBCHEM_IUPAC_INCHIKEY>
AGHANLSBXUWXTB-UHFFFAOYSA-N

> <PUBCHEM_XLOGP3_AA>
4.1

> <PUBCHEM_EXACT_MASS>
329.952035

> <PUBCHEM_MOLECULAR_FORMULA>
C13H8Cl2O4S

> <PUBCHEM_MOLECULAR_WEIGHT>
331.17122

> <PUBCHEM_OPENEYE_CAN_SMILES>
C1=CSC(=C1)C(=O)C2=C(C(=C(C=C2)OCC(=O)O)Cl)Cl

> <PUBCHEM_OPENEYE_ISO_SMILES>
C1=CSC(=C1)C(=O)C2=C(C(=C(C=C2)OCC(=O)O)Cl)Cl

> <PUBCHEM_CACTVS_TPSA>
91.8

> <PUBCHEM_MONOISOTOPIC_WEIGHT>
329.952035

> <PUBCHEM_TOTAL_CHARGE>
0

> <PUBCHEM_HEAVY_ATOM_COUNT>
20

> <PUBCHEM_ATOM_DEF_STEREO_COUNT>
0

> <PUBCHEM_ATOM_UDEF_STEREO_COUNT>
0

> <PUBCHEM_BOND_DEF_STEREO_COUNT>
0

> <PUBCHEM_BOND_UDEF_STEREO_COUNT>
0

> <PUBCHEM_ISOTOPIC_ATOM_COUNT>
0

> <PUBCHEM_COMPONENT_COUNT>
1

> <PUBCHEM_CACTVS_TAUTO_COUNT>
1

> <PUBCHEM_COORDINATE_TYPE>
1
5
255

> <PUBCHEM_BONDANNOTATIONS>
10  13  8
11  14  8
15  16  8
16  18  8
18  19  8
3  15  8
3  19  8
8  10  8
8  11  8
9  13  8
9  14  8

$$$$

