586086
  -OEChem-06241222453D

 44 44  0     1  0  0  0  0  0999 V2000
    0.8185   -2.2255    0.1150 O   0  0  0  0  0  0  0  0  0  0  0  0
    0.7290    1.4648   -1.7667 O   0  0  0  0  0  0  0  0  0  0  0  0
    1.0356   -1.0988   -1.8899 O   0  0  0  0  0  0  0  0  0  0  0  0
   -3.7766    0.5220   -0.2685 O   0  0  0  0  0  0  0  0  0  0  0  0
   -2.9347    0.4290    1.8775 O   0  0  0  0  0  0  0  0  0  0  0  0
    1.0439    0.1109    0.2040 C   0  0  1  0  0  0  0  0  0  0  0  0
    2.1698   -0.1199    1.2315 C   0  0  0  0  0  0  0  0  0  0  0  0
    3.5940    0.0048    0.6780 C   0  0  0  0  0  0  0  0  0  0  0  0
   -0.2999    0.2324    0.9389 C   0  0  0  0  0  0  0  0  0  0  0  0
    1.2128    1.3786   -0.6349 C   0  0  0  0  0  0  0  0  0  0  0  0
    4.1350    1.4345    0.7008 C   0  0  0  0  0  0  0  0  0  0  0  0
    1.9648    2.5489   -0.0445 C   0  0  0  0  0  0  0  0  0  0  0  0
    3.4592    2.3917   -0.2771 C   0  0  0  0  0  0  0  0  0  0  0  0
    0.9690   -1.1198   -0.6684 C   0  0  0  0  0  0  0  0  0  0  0  0
   -1.4535    0.3165   -0.0483 C   0  0  0  0  0  0  0  0  0  0  0  0
   -2.7825    0.4262    0.6637 C   0  0  0  0  0  0  0  0  0  0  0  0
    0.7327   -3.4696   -0.5871 C   0  0  0  0  0  0  0  0  0  0  0  0
    0.5688   -4.5916    0.4158 C   0  0  0  0  0  0  0  0  0  0  0  0
   -5.1038    0.6343    0.2557 C   0  0  0  0  0  0  0  0  0  0  0  0
   -6.0821    0.7306   -0.8956 C   0  0  0  0  0  0  0  0  0  0  0  0
    2.0575    0.5828    2.0685 H   0  0  0  0  0  0  0  0  0  0  0  0
    2.0807   -1.1089    1.6987 H   0  0  0  0  0  0  0  0  0  0  0  0
    4.2532   -0.5998    1.3143 H   0  0  0  0  0  0  0  0  0  0  0  0
    3.6674   -0.4189   -0.3299 H   0  0  0  0  0  0  0  0  0  0  0  0
   -0.3023    1.1287    1.5743 H   0  0  0  0  0  0  0  0  0  0  0  0
   -0.4577   -0.6172    1.6168 H   0  0  0  0  0  0  0  0  0  0  0  0
    4.0635    1.8391    1.7181 H   0  0  0  0  0  0  0  0  0  0  0  0
    5.2049    1.4015    0.4598 H   0  0  0  0  0  0  0  0  0  0  0  0
    1.7113    2.6761    1.0122 H   0  0  0  0  0  0  0  0  0  0  0  0
    1.6104    3.4516   -0.5571 H   0  0  0  0  0  0  0  0  0  0  0  0
    3.9346    3.3744   -0.1712 H   0  0  0  0  0  0  0  0  0  0  0  0
    3.6517    2.0574   -1.3042 H   0  0  0  0  0  0  0  0  0  0  0  0
   -1.3814    1.2104   -0.6739 H   0  0  0  0  0  0  0  0  0  0  0  0
   -1.5076   -0.5726   -0.6846 H   0  0  0  0  0  0  0  0  0  0  0  0
   -0.1294   -3.4481   -1.2630 H   0  0  0  0  0  0  0  0  0  0  0  0
    1.6480   -3.6238   -1.1692 H   0  0  0  0  0  0  0  0  0  0  0  0
   -0.3331   -4.4409    1.0182 H   0  0  0  0  0  0  0  0  0  0  0  0
    1.4149   -4.6135    1.1106 H   0  0  0  0  0  0  0  0  0  0  0  0
    0.4999   -5.5598   -0.0879 H   0  0  0  0  0  0  0  0  0  0  0  0
   -5.1755    1.5329    0.8785 H   0  0  0  0  0  0  0  0  0  0  0  0
   -5.3324   -0.2486    0.8628 H   0  0  0  0  0  0  0  0  0  0  0  0
   -6.0092   -0.1531   -1.5381 H   0  0  0  0  0  0  0  0  0  0  0  0
   -5.8549    1.5990   -1.5227 H   0  0  0  0  0  0  0  0  0  0  0  0
   -7.1090    0.8179   -0.5300 H   0  0  0  0  0  0  0  0  0  0  0  0
  1 14  1  0  0  0  0
  1 17  1  0  0  0  0
  2 10  2  0  0  0  0
  3 14  2  0  0  0  0
  4 16  1  0  0  0  0
  4 19  1  0  0  0  0
  5 16  2  0  0  0  0
  6  7  1  0  0  0  0
  6  9  1  0  0  0  0
  6 10  1  0  0  0  0
  6 14  1  0  0  0  0
  7  8  1  0  0  0  0
  7 21  1  0  0  0  0
  7 22  1  0  0  0  0
  8 11  1  0  0  0  0
  8 23  1  0  0  0  0
  8 24  1  0  0  0  0
  9 15  1  0  0  0  0
  9 25  1  0  0  0  0
  9 26  1  0  0  0  0
 10 12  1  0  0  0  0
 11 13  1  0  0  0  0
 11 27  1  0  0  0  0
 11 28  1  0  0  0  0
 12 13  1  0  0  0  0
 12 29  1  0  0  0  0
 12 30  1  0  0  0  0
 13 31  1  0  0  0  0
 13 32  1  0  0  0  0
 15 16  1  0  0  0  0
 15 33  1  0  0  0  0
 15 34  1  0  0  0  0
 17 18  1  0  0  0  0
 17 35  1  0  0  0  0
 17 36  1  0  0  0  0
 18 37  1  0  0  0  0
 18 38  1  0  0  0  0
 18 39  1  0  0  0  0
 19 20  1  0  0  0  0
 19 40  1  0  0  0  0
 19 41  1  0  0  0  0
 20 42  1  0  0  0  0
 20 43  1  0  0  0  0
 20 44  1  0  0  0  0
M  END
> <PUBCHEM_COMPOUND_CID>
586086

> <PUBCHEM_CONFORMER_RMSD>
0.8

> <PUBCHEM_CONFORMER_DIVERSEORDER>
1
44
208
21
155
204
74
40
127
110
195
201
89
124
106
192
188
137
187
138
133
50
31
193
51
90
198
132
29
42
12
16
69
52
112
17
35
144
79
141
129
179
59
200
207
47
93
13
210
104
159
32
202
118
66
199
151
10
182
140
37
120
117
9
41
209
15
67
46
86
119
98
28
80
85
23
147
34
162
178
81
14
170
103
36
84
171
166
125
122
177
22
18
76
57
197
60
113
116
143
190
130
131
189
152
97
196
153
95
156
62
33
101
148
91
4
38
181
173
3
20
139
96
111
169
71
183
77
167
19
134
24
136
2
94
205
160
128
61
102
203
78
75
43
73
30
175
191
39
109
135
185
165
92
65
184
55
107
164
114
145
108
105
126
174
180
142
64
68
123
149
194
100
53
99
150
168
83
63
54
72
7
5
115
176
157
45
56
48
70
27
121
161
186
163
25
158
206
88
146
11
154
49
172
87
6
26
82
8
58

> <PUBCHEM_MMFF94_PARTIAL_CHARGES>
13
1 -0.43
10 0.45
12 0.06
14 0.66
15 0.06
16 0.66
17 0.28
19 0.28
2 -0.57
3 -0.57
4 -0.43
5 -0.57
6 0.12

> <PUBCHEM_EFFECTIVE_ROTOR_COUNT>
9.2

> <PUBCHEM_PHARMACOPHORE_FEATURES>
4
1 2 acceptor
1 3 acceptor
1 5 acceptor
7 6 7 8 10 11 12 13 rings

> <PUBCHEM_HEAVY_ATOM_COUNT>
20

> <PUBCHEM_ATOM_DEF_STEREO_COUNT>
0

> <PUBCHEM_ATOM_UDEF_STEREO_COUNT>
1

> <PUBCHEM_BOND_DEF_STEREO_COUNT>
0

> <PUBCHEM_BOND_UDEF_STEREO_COUNT>
0

> <PUBCHEM_ISOTOPIC_ATOM_COUNT>
0

> <PUBCHEM_COMPONENT_COUNT>
1

> <PUBCHEM_CACTVS_TAUTO_COUNT>
2

> <PUBCHEM_CONFORMER_ID>
0008F16600000001

> <PUBCHEM_MMFF94_ENERGY>
33.2951

> <PUBCHEM_FEATURE_SELFOVERLAP>
20.31

> <PUBCHEM_SHAPE_FINGERPRINT>
10090160 65 18335146392712546785
11069576 57 17751377272888356415
12011746 2 18272083916371141372
12788726 201 17759254994032857890
13052359 8 18192712233087423178
13083527 12 18050580830313308810
15048467 5 15410889648546774700
15375358 24 18273213106222965393
15852999 172 18042105588770080382
15906896 17 17900545579786558494
16945 1 18340206276778694080
17138139 8 17534655645483234263
20157964 124 18411425051145787733
20600515 1 16271923801217242053
20645477 70 18342741844907143595
21054139 6 18115604647126792607
21452121 199 17767400549733240154
21452121 99 18047461228093504608
21524375 3 18113336375517336736
2255824 54 18189605206690870983
23419403 2 17106820595067895666
23558518 356 17612051290536562628
23559900 14 18339643455500212099
257057 1 17546159066106918947
3060560 45 18411134749251407630
3250762 1 17619639420096795248
4340502 62 18334854996693769615
474 4 18408040702019248585
7164475 11 17403170405445840052
7364860 26 18338230578330678419
81539 233 18408041822873733455
8272917 22 18337673117651383993
9999458 23 18410856585905693206

> <PUBCHEM_SHAPE_MULTIPOLES>
382.24
8.45
3.72
1.32
14.94
6.18
-0.13
-6.4
0.38
-2.92
-0.39
0.12
-0.07
0.02

> <PUBCHEM_SHAPE_SELFOVERLAP>
762.414

> <PUBCHEM_SHAPE_VOLUME>
224

> <PUBCHEM_COORDINATE_TYPE>
2
5
10

$$$$

