442692
  -OEChem-07051212592D

 84 88  0     1  0  0  0  0  0999 V2000
    8.5991   -1.7500    0.0000 O   0  0  0  0  0  0  0  0  0  0  0  0
    8.5991    1.2500    0.0000 O   0  0  0  0  0  0  0  0  0  0  0  0
   10.3312    0.2500    0.0000 O   0  0  0  0  0  0  0  0  0  0  0  0
    6.8671    0.2500    0.0000 O   0  0  0  0  0  0  0  0  0  0  0  0
    6.8671   -1.7500    0.0000 O   0  0  0  0  0  0  0  0  0  0  0  0
   10.3312   -2.7500    0.0000 O   0  0  0  0  0  0  0  0  0  0  0  0
   10.3312    1.2500    0.0000 O   0  0  0  0  0  0  0  0  0  0  0  0
   11.1972   -1.2500    0.0000 O   0  0  0  0  0  0  0  0  0  0  0  0
    6.0010   -1.2500    0.0000 O   0  0  0  0  0  0  0  0  0  0  0  0
    7.7331   -3.2500    0.0000 O   0  0  0  0  0  0  0  0  0  0  0  0
    7.7331    4.7500    0.0000 O   0  0  0  0  0  0  0  0  0  0  0  0
   11.1972    4.7500    0.0000 O   0  0  0  0  0  0  0  0  0  0  0  0
   12.9292    2.7500    0.0000 O   0  0  0  0  0  0  0  0  0  0  0  0
   14.6613   -0.2500    0.0000 O   0  0  0  0  0  0  0  0  0  0  0  0
    2.5369   -0.2500    0.0000 O   0  0  0  0  0  0  0  0  0  0  0  0
    4.2690    2.7500    0.0000 O   0  0  0  0  0  0  0  0  0  0  0  0
    9.4651    5.7500    0.0000 O   0  0  0  0  0  0  0  0  0  0  0  0
   14.6613    1.7500    0.0000 O   0  0  0  0  0  0  0  0  0  0  0  0
    5.1350   -5.7500    0.0000 O   0  0  0  0  0  0  0  0  0  0  0  0
    3.4030   -2.7500    0.0000 O   0  0  0  0  0  0  0  0  0  0  0  0
    2.5369    1.7500    0.0000 O   0  0  0  0  0  0  0  0  0  0  0  0
    3.4030   -4.7500    0.0000 O   0  0  0  0  0  0  0  0  0  0  0  0
    8.5991    0.2500    0.0000 C   0  0  1  0  0  0  0  0  0  0  0  0
    9.4651   -0.2500    0.0000 C   0  0  1  0  0  0  0  0  0  0  0  0
    7.7331   -0.2500    0.0000 C   0  0  2  0  0  0  0  0  0  0  0  0
    9.4651   -1.2500    0.0000 C   0  0  1  0  0  0  0  0  0  0  0  0
    7.7331   -1.2500    0.0000 C   0  0  2  0  0  0  0  0  0  0  0  0
   10.3312   -1.7500    0.0000 C   0  0  0  0  0  0  0  0  0  0  0  0
    9.4651    1.7500    0.0000 C   0  0  0  0  0  0  0  0  0  0  0  0
   11.1972   -0.2500    0.0000 C   0  0  0  0  0  0  0  0  0  0  0  0
    6.0010   -0.2500    0.0000 C   0  0  0  0  0  0  0  0  0  0  0  0
    6.8671   -2.7500    0.0000 C   0  0  0  0  0  0  0  0  0  0  0  0
    9.4651    2.7500    0.0000 C   0  0  0  0  0  0  0  0  0  0  0  0
   12.0632    0.2500    0.0000 C   0  0  0  0  0  0  0  0  0  0  0  0
    5.1350    0.2500    0.0000 C   0  0  0  0  0  0  0  0  0  0  0  0
    6.0010   -3.2500    0.0000 C   0  0  0  0  0  0  0  0  0  0  0  0
   10.3312    3.2500    0.0000 C   0  0  0  0  0  0  0  0  0  0  0  0
    8.5991    3.2500    0.0000 C   0  0  0  0  0  0  0  0  0  0  0  0
   12.9292   -0.2500    0.0000 C   0  0  0  0  0  0  0  0  0  0  0  0
   12.0632    1.2500    0.0000 C   0  0  0  0  0  0  0  0  0  0  0  0
    5.1350    1.2500    0.0000 C   0  0  0  0  0  0  0  0  0  0  0  0
    4.2690   -0.2500    0.0000 C   0  0  0  0  0  0  0  0  0  0  0  0
    5.1350   -2.7500    0.0000 C   0  0  0  0  0  0  0  0  0  0  0  0
    6.0010   -4.2500    0.0000 C   0  0  0  0  0  0  0  0  0  0  0  0
    8.5991    4.2500    0.0000 C   0  0  0  0  0  0  0  0  0  0  0  0
   10.3312    4.2500    0.0000 C   0  0  0  0  0  0  0  0  0  0  0  0
   12.9292    1.7500    0.0000 C   0  0  0  0  0  0  0  0  0  0  0  0
   13.7953    0.2500    0.0000 C   0  0  0  0  0  0  0  0  0  0  0  0
    3.4030    0.2500    0.0000 C   0  0  0  0  0  0  0  0  0  0  0  0
    4.2690    1.7500    0.0000 C   0  0  0  0  0  0  0  0  0  0  0  0
    9.4651    4.7500    0.0000 C   0  0  0  0  0  0  0  0  0  0  0  0
   13.7953    1.2500    0.0000 C   0  0  0  0  0  0  0  0  0  0  0  0
    5.1350   -4.7500    0.0000 C   0  0  0  0  0  0  0  0  0  0  0  0
    4.2690   -3.2500    0.0000 C   0  0  0  0  0  0  0  0  0  0  0  0
    3.4030    1.2500    0.0000 C   0  0  0  0  0  0  0  0  0  0  0  0
    4.2690   -4.2500    0.0000 C   0  0  0  0  0  0  0  0  0  0  0  0
    8.0622    0.5600    0.0000 H   0  0  0  0  0  0  0  0  0  0  0  0
   10.0021   -0.5600    0.0000 H   0  0  0  0  0  0  0  0  0  0  0  0
    7.7331    0.3700    0.0000 H   0  0  0  0  0  0  0  0  0  0  0  0
    9.4651   -1.8700    0.0000 H   0  0  0  0  0  0  0  0  0  0  0  0
    7.7331   -1.8700    0.0000 H   0  0  0  0  0  0  0  0  0  0  0  0
   10.9417   -1.8577    0.0000 H   0  0  0  0  0  0  0  0  0  0  0  0
   10.5432   -1.1674    0.0000 H   0  0  0  0  0  0  0  0  0  0  0  0
   10.8681   -3.0600    0.0000 H   0  0  0  0  0  0  0  0  0  0  0  0
   10.8681    2.9400    0.0000 H   0  0  0  0  0  0  0  0  0  0  0  0
    8.0622    2.9400    0.0000 H   0  0  0  0  0  0  0  0  0  0  0  0
   12.9292   -0.8700    0.0000 H   0  0  0  0  0  0  0  0  0  0  0  0
   11.5263    1.5600    0.0000 H   0  0  0  0  0  0  0  0  0  0  0  0
    5.6720    1.5600    0.0000 H   0  0  0  0  0  0  0  0  0  0  0  0
    4.2690   -0.8700    0.0000 H   0  0  0  0  0  0  0  0  0  0  0  0
    5.1350   -2.1300    0.0000 H   0  0  0  0  0  0  0  0  0  0  0  0
    6.5380   -4.5600    0.0000 H   0  0  0  0  0  0  0  0  0  0  0  0
    7.7331    5.3700    0.0000 H   0  0  0  0  0  0  0  0  0  0  0  0
   11.1972    5.3700    0.0000 H   0  0  0  0  0  0  0  0  0  0  0  0
   13.4662    3.0600    0.0000 H   0  0  0  0  0  0  0  0  0  0  0  0
   14.6613   -0.8700    0.0000 H   0  0  0  0  0  0  0  0  0  0  0  0
    2.0000    0.0600    0.0000 H   0  0  0  0  0  0  0  0  0  0  0  0
    3.7320    3.0600    0.0000 H   0  0  0  0  0  0  0  0  0  0  0  0
   10.0021    6.0600    0.0000 H   0  0  0  0  0  0  0  0  0  0  0  0
   15.1982    1.4400    0.0000 H   0  0  0  0  0  0  0  0  0  0  0  0
    5.6720   -6.0600    0.0000 H   0  0  0  0  0  0  0  0  0  0  0  0
    2.8660   -3.0600    0.0000 H   0  0  0  0  0  0  0  0  0  0  0  0
    2.0000    1.4400    0.0000 H   0  0  0  0  0  0  0  0  0  0  0  0
    3.4030   -5.3700    0.0000 H   0  0  0  0  0  0  0  0  0  0  0  0
  1 26  1  0  0  0  0
  1 27  1  0  0  0  0
 23  2  1  1  0  0  0
  2 29  1  0  0  0  0
 24  3  1  6  0  0  0
  3 30  1  0  0  0  0
 25  4  1  6  0  0  0
  4 31  1  0  0  0  0
 27  5  1  6  0  0  0
  5 32  1  0  0  0  0
  6 28  1  0  0  0  0
  6 64  1  0  0  0  0
  7 29  2  0  0  0  0
  8 30  2  0  0  0  0
  9 31  2  0  0  0  0
 10 32  2  0  0  0  0
 11 45  1  0  0  0  0
 11 73  1  0  0  0  0
 12 46  1  0  0  0  0
 12 74  1  0  0  0  0
 13 47  1  0  0  0  0
 13 75  1  0  0  0  0
 14 48  1  0  0  0  0
 14 76  1  0  0  0  0
 15 49  1  0  0  0  0
 15 77  1  0  0  0  0
 16 50  1  0  0  0  0
 16 78  1  0  0  0  0
 17 51  1  0  0  0  0
 17 79  1  0  0  0  0
 18 52  1  0  0  0  0
 18 80  1  0  0  0  0
 19 53  1  0  0  0  0
 19 81  1  0  0  0  0
 20 54  1  0  0  0  0
 20 82  1  0  0  0  0
 21 55  1  0  0  0  0
 21 83  1  0  0  0  0
 22 56  1  0  0  0  0
 22 84  1  0  0  0  0
 23 24  1  0  0  0  0
 23 25  1  0  0  0  0
 23 57  1  0  0  0  0
 24 26  1  0  0  0  0
 24 58  1  0  0  0  0
 25 27  1  0  0  0  0
 25 59  1  0  0  0  0
 26 28  1  1  0  0  0
 26 60  1  0  0  0  0
 27 61  1  0  0  0  0
 28 62  1  0  0  0  0
 28 63  1  0  0  0  0
 29 33  1  0  0  0  0
 30 34  1  0  0  0  0
 31 35  1  0  0  0  0
 32 36  1  0  0  0  0
 33 37  2  0  0  0  0
 33 38  1  0  0  0  0
 34 39  2  0  0  0  0
 34 40  1  0  0  0  0
 35 41  2  0  0  0  0
 35 42  1  0  0  0  0
 36 43  2  0  0  0  0
 36 44  1  0  0  0  0
 37 46  1  0  0  0  0
 37 65  1  0  0  0  0
 38 45  2  0  0  0  0
 38 66  1  0  0  0  0
 39 48  1  0  0  0  0
 39 67  1  0  0  0  0
 40 47  2  0  0  0  0
 40 68  1  0  0  0  0
 41 50  1  0  0  0  0
 41 69  1  0  0  0  0
 42 49  2  0  0  0  0
 42 70  1  0  0  0  0
 43 54  1  0  0  0  0
 43 71  1  0  0  0  0
 44 53  2  0  0  0  0
 44 72  1  0  0  0  0
 45 51  1  0  0  0  0
 46 51  2  0  0  0  0
 47 52  1  0  0  0  0
 48 52  2  0  0  0  0
 49 55  1  0  0  0  0
 50 55  2  0  0  0  0
 53 56  1  0  0  0  0
 54 56  2  0  0  0  0
M  END
> <PUBCHEM_COMPOUND_CID>
442692

> <PUBCHEM_COMPOUND_CANONICALIZED>
1

> <PUBCHEM_CACTVS_COMPLEXITY>
1340

> <PUBCHEM_CACTVS_HBOND_ACCEPTOR>
22

> <PUBCHEM_CACTVS_HBOND_DONOR>
13

> <PUBCHEM_CACTVS_ROTATABLE_BOND>
13

> <PUBCHEM_CACTVS_SUBSKEYS>
AAADceB8PgAAAAAAAAAAAAAAAAAAAAAAAAA0YMGCAAAAAAABVAAAGgAACAAADBSwmAMwDoAABgCIAiDSCAACAAAkIAAAiAEGiMgZNzKCNRqicQElwBUPuYfK7DzOIAABCAAAQABAAAIQAACAAAAAAAAAAA==

> <PUBCHEM_IUPAC_OPENEYE_NAME>
[(2R,3R,4S,5R,6R)-2-(hydroxymethyl)-4,5,6-tris[(3,4,5-trihydroxybenzoyl)oxy]tetrahydropyran-3-yl] 3,4,5-trihydroxybenzoate

> <PUBCHEM_IUPAC_CAS_NAME>
3,4,5-trihydroxybenzoic acid [(2R,3R,4S,5R,6R)-2-(hydroxymethyl)-4,5,6-tris[oxo-(3,4,5-trihydroxyphenyl)methoxy]-3-oxanyl] ester

> <PUBCHEM_IUPAC_NAME>
[(2R,3R,4S,5R,6R)-2-(hydroxymethyl)-4,5,6-tris[(3,4,5-trihydroxybenzoyl)oxy]oxan-3-yl] 3,4,5-trihydroxybenzoate

> <PUBCHEM_IUPAC_SYSTEMATIC_NAME>
[(2R,3R,4S,5R,6R)-2-(hydroxymethyl)-4,5,6-tris[[3,4,5-tris(oxidanyl)phenyl]carbonyloxy]oxan-3-yl] 3,4,5-tris(oxidanyl)benzoate

> <PUBCHEM_IUPAC_TRADITIONAL_NAME>
3,4,5-trihydroxybenzoic acid [(2R,3R,4S,5R,6R)-4,5,6-trigalloyloxy-2-methylol-tetrahydropyran-3-yl] ester

> <PUBCHEM_IUPAC_INCHI>
InChI=1S/C34H28O22/c35-9-22-27(53-30(48)10-1-14(36)23(44)15(37)2-10)28(54-31(49)11-3-16(38)24(45)17(39)4-11)29(55-32(50)12-5-18(40)25(46)19(41)6-12)34(52-22)56-33(51)13-7-20(42)26(47)21(43)8-13/h1-8,22,27-29,34-47H,9H2/t22-,27-,28+,29-,34-/m1/s1

> <PUBCHEM_IUPAC_INCHIKEY>
XFLTYUCKJRFDOU-UEKZKNBCSA-N

> <PUBCHEM_XLOGP3_AA>
1.5

> <PUBCHEM_EXACT_MASS>
788.107223

> <PUBCHEM_MOLECULAR_FORMULA>
C34H28O22

> <PUBCHEM_MOLECULAR_WEIGHT>
788.57292

> <PUBCHEM_OPENEYE_CAN_SMILES>
C1=C(C=C(C(=C1O)O)O)C(=O)OC2C(OC(C(C2OC(=O)C3=CC(=C(C(=C3)O)O)O)OC(=O)C4=CC(=C(C(=C4)O)O)O)OC(=O)C5=CC(=C(C(=C5)O)O)O)CO

> <PUBCHEM_OPENEYE_ISO_SMILES>
C1=C(C=C(C(=C1O)O)O)C(=O)O[C@@H]2[C@H](O[C@@H]([C@@H]([C@H]2OC(=O)C3=CC(=C(C(=C3)O)O)O)OC(=O)C4=CC(=C(C(=C4)O)O)O)OC(=O)C5=CC(=C(C(=C5)O)O)O)CO

> <PUBCHEM_CACTVS_TPSA>
377

> <PUBCHEM_MONOISOTOPIC_WEIGHT>
788.107223

> <PUBCHEM_TOTAL_CHARGE>
0

> <PUBCHEM_HEAVY_ATOM_COUNT>
56

> <PUBCHEM_ATOM_DEF_STEREO_COUNT>
5

> <PUBCHEM_ATOM_UDEF_STEREO_COUNT>
0

> <PUBCHEM_BOND_DEF_STEREO_COUNT>
0

> <PUBCHEM_BOND_UDEF_STEREO_COUNT>
0

> <PUBCHEM_ISOTOPIC_ATOM_COUNT>
0

> <PUBCHEM_COMPONENT_COUNT>
1

> <PUBCHEM_CACTVS_TAUTO_COUNT>
1001

> <PUBCHEM_COORDINATE_TYPE>
1
5
255

> <PUBCHEM_BONDANNOTATIONS>
23  2  5
26  28  5
24  3  6
33  37  8
33  38  8
34  39  8
34  40  8
35  41  8
35  42  8
36  43  8
36  44  8
37  46  8
38  45  8
39  48  8
25  4  6
40  47  8
41  50  8
42  49  8
43  54  8
44  53  8
45  51  8
46  51  8
47  52  8
48  52  8
49  55  8
27  5  6
50  55  8
53  56  8
54  56  8

$$$$

