5281203
  -OEChem-07051212553D

 43 44  0     1  0  0  0  0  0999 V2000
    4.4705    3.1199    0.4711 O   0  0  0  0  0  0  0  0  0  0  0  0
    5.2342    1.5286   -0.9713 O   0  0  0  0  0  0  0  0  0  0  0  0
   -5.2189    0.4981    2.4694 O   0  0  0  0  0  0  0  0  0  0  0  0
    4.8308   -2.3473   -1.5949 O   0  0  0  0  0  0  0  0  0  0  0  0
   -6.6663   -1.6599    1.4818 O   0  0  0  0  0  0  0  0  0  0  0  0
    4.3492   -3.4932    0.3397 O   0  0  0  0  0  0  0  0  0  0  0  0
    4.8142   -0.4387    0.7488 N   0  0  0  0  0  0  0  0  0  0  0  0
   -1.3392    0.9318   -0.8089 N   0  0  0  0  0  0  0  0  0  0  0  0
    2.8991    0.9726    1.5594 C   0  0  0  0  0  0  0  0  0  0  0  0
    4.3842    0.8881    1.1988 C   0  0  2  0  0  0  0  0  0  0  0  0
    2.0204    0.1806    0.6282 C   0  0  0  0  0  0  0  0  0  0  0  0
   -3.4352    1.4071   -1.9824 C   0  0  0  0  0  0  0  0  0  0  0  0
   -2.0041    0.8824   -2.0891 C   0  0  0  0  0  0  0  0  0  0  0  0
    2.5119   -0.8509   -0.0699 C   0  0  0  0  0  0  0  0  0  0  0  0
    0.6373    0.5702    0.5280 C   0  0  0  0  0  0  0  0  0  0  0  0
    3.9322   -1.1699    0.1678 C   0  0  0  0  0  0  0  0  0  0  0  0
   -4.2982    0.5888   -1.0530 C   0  0  0  0  0  0  0  0  0  0  0  0
    4.7493    1.8449    0.1049 C   0  0  0  0  0  0  0  0  0  0  0  0
   -0.0406    0.5811   -0.6226 C   0  0  0  0  0  0  0  0  0  0  0  0
   -4.3593    0.9251    0.2902 C   0  0  0  0  0  0  0  0  0  0  0  0
   -5.0141   -0.4843   -1.5596 C   0  0  0  0  0  0  0  0  0  0  0  0
   -5.1573    0.1691    1.1489 C   0  0  0  0  0  0  0  0  0  0  0  0
    4.3953   -2.4896   -0.3382 C   0  0  0  0  0  0  0  0  0  0  0  0
   -5.8118   -1.2406   -0.7007 C   0  0  0  0  0  0  0  0  0  0  0  0
   -5.8835   -0.9139    0.6535 C   0  0  0  0  0  0  0  0  0  0  0  0
    2.7578    0.5676    2.5708 H   0  0  0  0  0  0  0  0  0  0  0  0
    2.5686    2.0178    1.5966 H   0  0  0  0  0  0  0  0  0  0  0  0
    4.9854    1.1555    2.0761 H   0  0  0  0  0  0  0  0  0  0  0  0
   -3.4273    2.4518   -1.6439 H   0  0  0  0  0  0  0  0  0  0  0  0
   -3.8903    1.4243   -2.9810 H   0  0  0  0  0  0  0  0  0  0  0  0
   -2.0090   -0.1488   -2.4631 H   0  0  0  0  0  0  0  0  0  0  0  0
   -1.4562    1.4957   -2.8144 H   0  0  0  0  0  0  0  0  0  0  0  0
    1.9316   -1.4793   -0.7338 H   0  0  0  0  0  0  0  0  0  0  0  0
    0.1516    0.8904    1.4462 H   0  0  0  0  0  0  0  0  0  0  0  0
   -1.8265    1.2935    0.0021 H   0  0  0  0  0  0  0  0  0  0  0  0
    0.4336    0.2810   -1.5526 H   0  0  0  0  0  0  0  0  0  0  0  0
   -3.8133    1.7786    0.6824 H   0  0  0  0  0  0  0  0  0  0  0  0
   -4.9632   -0.7476   -2.6122 H   0  0  0  0  0  0  0  0  0  0  0  0
   -6.3720   -2.0820   -1.0999 H   0  0  0  0  0  0  0  0  0  0  0  0
    4.7026    3.7624   -0.2328 H   0  0  0  0  0  0  0  0  0  0  0  0
   -5.8159   -0.1291    2.9132 H   0  0  0  0  0  0  0  0  0  0  0  0
    5.1463   -3.1935   -1.9776 H   0  0  0  0  0  0  0  0  0  0  0  0
   -7.0924   -2.3651    0.9649 H   0  0  0  0  0  0  0  0  0  0  0  0
  1 18  1  0  0  0  0
  1 40  1  0  0  0  0
  2 18  2  0  0  0  0
  3 22  1  0  0  0  0
  3 41  1  0  0  0  0
  4 23  1  0  0  0  0
  4 42  1  0  0  0  0
  5 25  1  0  0  0  0
  5 43  1  0  0  0  0
  6 23  2  0  0  0  0
  7 10  1  0  0  0  0
  7 16  2  0  0  0  0
  8 13  1  0  0  0  0
  8 19  1  0  0  0  0
  8 35  1  0  0  0  0
  9 10  1  0  0  0  0
  9 11  1  0  0  0  0
  9 26  1  0  0  0  0
  9 27  1  0  0  0  0
 10 18  1  0  0  0  0
 10 28  1  0  0  0  0
 11 14  2  0  0  0  0
 11 15  1  0  0  0  0
 12 13  1  0  0  0  0
 12 17  1  0  0  0  0
 12 29  1  0  0  0  0
 12 30  1  0  0  0  0
 13 31  1  0  0  0  0
 13 32  1  0  0  0  0
 14 16  1  0  0  0  0
 14 33  1  0  0  0  0
 15 19  2  0  0  0  0
 15 34  1  0  0  0  0
 16 23  1  0  0  0  0
 17 20  2  0  0  0  0
 17 21  1  0  0  0  0
 19 36  1  0  0  0  0
 20 22  1  0  0  0  0
 20 37  1  0  0  0  0
 21 24  2  0  0  0  0
 21 38  1  0  0  0  0
 22 25  2  0  0  0  0
 24 25  1  0  0  0  0
 24 39  1  0  0  0  0
M  END
> <PUBCHEM_COMPOUND_CID>
5281203

> <PUBCHEM_CONFORMER_RMSD>
0.8

> <PUBCHEM_CONFORMER_DIVERSEORDER>
78
189
298
80
123
65
210
18
2
308
168
133
235
31
89
288
152
259
137
184
253
23
52
185
141
118
276
180
108
307
215
311
155
277
41
264
77
317
229
286
274
301
283
67
260
202
321
90
138
103
70
240
1
196
204
56
197
43
57
88
281
150
174
62
199
83
113
140
149
217
25
6
42
161
82
49
146
55
209
63
325
327
249
227
76
267
251
275
121
331
48
147
22
294
135
186
111
34
326
182
228
208
105
95
4
309
81
211
195
237
127
132
160
51
302
74
181
154
194
120
163
279
44
312
320
293
246
216
162
304
225
5
223
75
33
99
268
214
257
60
28
13
14
91
316
3
151
183
97
72
213
54
315
165
247
157
47
166
261
265
252
66
207
115
280
171
212
324
243
266
248
178
282
328
68
27
190
188
87
175
305
110
139
134
192
263
117
53
332
198
242
284
26
153
144
64
20
129
299
17
234
290
104
256
255
177
323
236
136
37
21
126
156
39
93
193
306
313
239
16
7
273
61
270
106
278
71
296
322
289
122
46
92
203
314
205
297
170
112
330
84
220
79
38
59
101
35
94
86
143
131
119
272
230
85
295
128
226
36
319
303
12
318
9
15
329
69
206
29
300
200
176
241
291
130
271
125
224
148
159
310
45
114
169
219
98
109
179
145
254
32
201
8
24
238
167
19
11
102
164
250
232
96
285
218
222
221
10
124
245
116
231
173
107
73
292
158
191
30
40
244
258
58
50
269
233
142
262
100
287
187
172

> <PUBCHEM_MMFF94_PARTIAL_CHARGES>
36
1 -0.65
10 0.31
11 -0.14
12 0.14
13 0.37
14 -0.14
15 -0.15
16 0.44
17 -0.14
18 0.66
19 -0.05
2 -0.57
20 -0.15
21 -0.15
22 0.08
23 0.72
24 -0.15
25 0.08
3 -0.53
33 0.15
34 0.15
35 0.4
36 0.15
37 0.15
38 0.15
39 0.15
4 -0.65
40 0.5
41 0.45
42 0.5
43 0.45
5 -0.53
6 -0.57
7 -0.7
8 -0.87
9 0.14

> <PUBCHEM_EFFECTIVE_ROTOR_COUNT>
7.4

> <PUBCHEM_PHARMACOPHORE_FEATURES>
13
1 1 acceptor
1 2 acceptor
1 3 donor
1 4 acceptor
1 5 donor
1 6 acceptor
1 7 acceptor
1 8 cation
1 8 donor
3 1 2 18 anion
3 4 6 23 anion
6 17 20 21 22 24 25 rings
6 7 9 10 11 14 16 rings

> <PUBCHEM_HEAVY_ATOM_COUNT>
25

> <PUBCHEM_ATOM_DEF_STEREO_COUNT>
0

> <PUBCHEM_ATOM_UDEF_STEREO_COUNT>
1

> <PUBCHEM_BOND_DEF_STEREO_COUNT>
1

> <PUBCHEM_BOND_UDEF_STEREO_COUNT>
0

> <PUBCHEM_ISOTOPIC_ATOM_COUNT>
0

> <PUBCHEM_COMPONENT_COUNT>
1

> <PUBCHEM_CACTVS_TAUTO_COUNT>
54

> <PUBCHEM_CONFORMER_ID>
005095B30000004E

> <PUBCHEM_MMFF94_ENERGY>
56.8972

> <PUBCHEM_FEATURE_SELFOVERLAP>
66.089

> <PUBCHEM_SHAPE_FINGERPRINT>
11552529 35 17460897089539832199
12422481 6 16081650109504837365
12596602 18 18260828185909906499
12616971 3 17313110782050769199
12730499 353 18411984637955004760
13533116 47 18187364328746742250
13782708 43 17916307306720253010
13955234 65 18335431153761323296
14251740 57 18202560687691745324
14251758 9 13912319096820676485
14528608 73 13542453293773867694
14950920 106 17894633660730787859
15183329 4 15213018241282004013
15685185 35 17538288328664832088
15799311 1 18334007263905772511
15880784 105 18410294718457869795
17844677 252 18339084890186303533
21315759 148 18343019999726603753
21623969 137 18412832377998528602
22033318 11 17315048156146595865
220451 1 17894630323118997575
2303208 19 18271525389775131671
239999 70 18060426819996383312
34797466 226 17703791414016862749
4325135 7 17560806489560943964
46194498 28 18201723985867289644
5281201 14 18268441290214751164
7495541 125 18270685397752448102
8863177 126 18411138060471466670
90127 26 18200885070657706269

> <PUBCHEM_SHAPE_MULTIPOLES>
469.31
18.27
2.56
1.84
11.44
1.23
0
4.67
3.05
-5.04
-0.26
2.4
-0.29
1.76

> <PUBCHEM_SHAPE_SELFOVERLAP>
994.196

> <PUBCHEM_SHAPE_VOLUME>
259.1

> <PUBCHEM_COORDINATE_TYPE>
2
5
10

$$$$

