19529
  -OEChem-07051212543D

 32 33  0     0  0  0  0  0  0999 V2000
   -6.1218    0.8759   -1.7066 Cl  0  0  0  0  0  0  0  0  0  0  0  0
   -6.5277    0.6238    1.1697 Cl  0  0  0  0  0  0  0  0  0  0  0  0
    2.2380    0.2162    0.7045 O   0  0  0  0  0  0  0  0  0  0  0  0
    5.3371   -0.2105   -1.0832 O   0  0  0  0  0  0  0  0  0  0  0  0
   -3.8002    1.5492    0.2119 O   0  0  0  0  0  0  0  0  0  0  0  0
    2.6246   -0.6553   -1.4124 O   0  0  0  0  0  0  0  0  0  0  0  0
   -3.1829   -0.7018   -0.0219 N   0  0  0  0  0  0  0  0  0  0  0  0
   -1.8193   -0.4702    0.1611 C   0  0  0  0  0  0  0  0  0  0  0  0
   -1.2603    0.7475   -0.2259 C   0  0  0  0  0  0  0  0  0  0  0  0
   -1.0150   -1.4578    0.7300 C   0  0  0  0  0  0  0  0  0  0  0  0
    0.9079   -0.0094    0.5251 C   0  0  0  0  0  0  0  0  0  0  0  0
    0.1033    0.9779   -0.0441 C   0  0  0  0  0  0  0  0  0  0  0  0
    0.3486   -1.2273    0.9119 C   0  0  0  0  0  0  0  0  0  0  0  0
   -3.7100   -2.0800   -0.2660 C   0  0  0  0  0  0  0  0  0  0  0  0
   -4.1351    0.3762    0.0169 C   0  0  0  0  0  0  0  0  0  0  0  0
   -5.5981    0.0442   -0.2219 C   0  0  0  0  0  0  0  0  0  0  0  0
    4.4744    0.1128   -0.1101 C   0  0  0  0  0  0  0  0  0  0  0  0
    3.0611   -0.1602   -0.3777 C   0  0  0  0  0  0  0  0  0  0  0  0
    5.0679    0.6478    0.9765 C   0  0  0  0  0  0  0  0  0  0  0  0
    6.4479    0.6666    0.6628 C   0  0  0  0  0  0  0  0  0  0  0  0
    6.5596    0.1343   -0.6005 C   0  0  0  0  0  0  0  0  0  0  0  0
   -1.8117    1.5205   -0.7495 H   0  0  0  0  0  0  0  0  0  0  0  0
   -1.4191   -2.4052    1.0745 H   0  0  0  0  0  0  0  0  0  0  0  0
    0.5369    1.9219   -0.3634 H   0  0  0  0  0  0  0  0  0  0  0  0
    0.9686   -1.9973    1.3632 H   0  0  0  0  0  0  0  0  0  0  0  0
   -4.3190   -2.0764   -1.1748 H   0  0  0  0  0  0  0  0  0  0  0  0
   -4.3054   -2.3886    0.5978 H   0  0  0  0  0  0  0  0  0  0  0  0
   -2.9036   -2.7967   -0.4390 H   0  0  0  0  0  0  0  0  0  0  0  0
   -5.8432   -1.0066   -0.3346 H   0  0  0  0  0  0  0  0  0  0  0  0
    4.6013    0.9894    1.8893 H   0  0  0  0  0  0  0  0  0  0  0  0
    7.2596    1.0235    1.2802 H   0  0  0  0  0  0  0  0  0  0  0  0
    7.3935   -0.0570   -1.2601 H   0  0  0  0  0  0  0  0  0  0  0  0
  1 16  1  0  0  0  0
  2 16  1  0  0  0  0
  3 11  1  0  0  0  0
  3 18  1  0  0  0  0
  4 17  1  0  0  0  0
  4 21  1  0  0  0  0
  5 15  2  0  0  0  0
  6 18  2  0  0  0  0
  7  8  1  0  0  0  0
  7 14  1  0  0  0  0
  7 15  1  0  0  0  0
  8  9  2  0  0  0  0
  8 10  1  0  0  0  0
  9 12  1  0  0  0  0
  9 22  1  0  0  0  0
 10 13  2  0  0  0  0
 10 23  1  0  0  0  0
 11 12  2  0  0  0  0
 11 13  1  0  0  0  0
 12 24  1  0  0  0  0
 13 25  1  0  0  0  0
 14 26  1  0  0  0  0
 14 27  1  0  0  0  0
 14 28  1  0  0  0  0
 15 16  1  0  0  0  0
 16 29  1  0  0  0  0
 17 18  1  0  0  0  0
 17 19  2  0  0  0  0
 19 20  1  0  0  0  0
 19 30  1  0  0  0  0
 20 21  2  0  0  0  0
 20 31  1  0  0  0  0
 21 32  1  0  0  0  0
M  END
> <PUBCHEM_COMPOUND_CID>
19529

> <PUBCHEM_CONFORMER_RMSD>
0.8

> <PUBCHEM_CONFORMER_DIVERSEORDER>
1
176
143
134
206
154
190
221
175
169
216
203
224
155
100
138
27
122
26
107
152
131
188
88
141
97
121
30
92
123
132
213
149
145
222
11
209
140
215
208
158
124
24
200
211
72
212
163
21
177
162
50
4
54
128
136
144
189
156
108
142
19
17
59
7
51
101
60
15
174
70
104
157
39
202
167
18
214
130
127
66
192
168
179
62
95
93
55
5
194
110
64
161
76
170
173
171
116
160
3
37
25
85
159
129
146
61
114
117
220
153
165
197
83
150
13
68
52
78
125
172
193
120
217
103
8
80
58
148
79
133
28
119
98
34
185
86
96
118
81
139
44
109
2
56
77
75
204
33
151
178
181
14
35
46
57
112
49
218
36
183
166
91
102
22
9
137
38
82
115
164
48
63
210
84
219
205
223
186
90
40
99
23
69
184
94
45
106
105
32
73
182
41
53
10
180
29
71
195
147
126
47
207
187
67
89
42
20
191
198
74
6
16
31
87
43
65
199
113
12
135
111
196
201

> <PUBCHEM_MMFF94_PARTIAL_CHARGES>
28
1 -0.29
10 -0.15
11 0.08
12 -0.15
13 -0.15
14 0.3
15 0.57
16 0.64
17 0.05
18 0.81
19 -0.15
2 -0.29
20 -0.15
21 -0.01
22 0.15
23 0.15
24 0.15
25 0.15
3 -0.23
30 0.15
31 0.15
32 0.15
4 -0.28
5 -0.57
6 -0.57
7 -0.48
8 0.12
9 -0.15

> <PUBCHEM_EFFECTIVE_ROTOR_COUNT>
6

> <PUBCHEM_PHARMACOPHORE_FEATURES>
5
1 4 acceptor
1 5 acceptor
1 6 acceptor
5 4 17 19 20 21 rings
6 8 9 10 11 12 13 rings

> <PUBCHEM_HEAVY_ATOM_COUNT>
21

> <PUBCHEM_ATOM_DEF_STEREO_COUNT>
0

> <PUBCHEM_ATOM_UDEF_STEREO_COUNT>
0

> <PUBCHEM_BOND_DEF_STEREO_COUNT>
0

> <PUBCHEM_BOND_UDEF_STEREO_COUNT>
0

> <PUBCHEM_ISOTOPIC_ATOM_COUNT>
0

> <PUBCHEM_COMPONENT_COUNT>
1

> <PUBCHEM_CACTVS_TAUTO_COUNT>
1

> <PUBCHEM_CONFORMER_ID>
00004C4900000001

> <PUBCHEM_MMFF94_ENERGY>
69.0022

> <PUBCHEM_FEATURE_SELFOVERLAP>
25.376

> <PUBCHEM_SHAPE_FINGERPRINT>
10354089 29 15626222416577170450
10366900 7 5545200523457731046
106641 1 15984813823340604641
10835480 77 17968664813531591040
11315181 36 18260827068474656264
11401426 45 18413671300843458786
11646440 116 18412254039130326465
12091667 2 17489871531850409483
12166972 35 11887668481334629862
12236239 1 16845575313932530264
12390115 104 18264484169220194609
12516196 113 14996285816339188354
12596602 18 15339117944211108884
12616971 3 16773794762222756510
12916748 109 18201432610004393945
13167372 99 15985110742486981620
13288520 33 6266899074136085259
13533116 47 18339927129816910362
13668630 136 14562528470533826860
14251764 18 10375867481370705766
14251764 46 15285358427124789284
15048467 5 17275108349022984861
15183329 4 18260269671956185371
15716309 27 14189574122450349953
17834072 33 14851610964133926572
18222031 100 7420942045689897347
19489759 90 18410573980867033362
200 152 15791728616040097666
20281389 69 17561084704694386988
20645477 70 16950556744546012542
20681677 155 18409449180989192771
21150785 3 18040444274298481943
21267235 1 18339641128187197539
220451 1 18272652342133701634
22224240 67 12103842337242757392
23198884 109 17458341957776397867
23402539 116 18341898463527606982
23536379 177 16805321115155451881
23557571 272 18335696183071211932
23559900 14 18041569035295485009
293599 30 18273216408810034387
29717793 49 15357970175466403416
300161 21 18272096001844733362
347723 3 17918274246721532400
34797466 226 17531242838298893416
3545911 37 18335419075490223945
4073 2 18261109626210750402
4340502 62 15410895179979076600
5283173 99 18186799231536792696
542803 24 17275105012044379154
7226269 152 18343582940937337017

> <PUBCHEM_SHAPE_MULTIPOLES>
407.45
17.91
1.33
1.15
5.93
0.44
0.16
-5.05
1.01
-1.58
0.03
-0.35
-0.12
0.37

> <PUBCHEM_SHAPE_SELFOVERLAP>
849.997

> <PUBCHEM_SHAPE_VOLUME>
233.3

> <PUBCHEM_COORDINATE_TYPE>
2
5
10

$$$$

