9543158
  -OEChem-07051213042D

 25 25  0     0  0  0  0  0  0999 V2000
    2.5369   -1.1550    0.0000 O   0  0  0  0  0  0  0  0  0  0  0  0
    4.2690    1.8450    0.0000 O   0  0  0  0  0  0  0  0  0  0  0  0
    6.0010    2.8450    0.0000 O   0  0  0  0  0  0  0  0  0  0  0  0
    6.8671    1.3450    0.0000 O   0  0  0  0  0  0  0  0  0  0  0  0
    3.4030   -2.6550    0.0000 C   0  0  0  0  0  0  0  0  0  0  0  0
    4.2690   -1.1550    0.0000 C   0  0  0  0  0  0  0  0  0  0  0  0
    3.4030   -1.6550    0.0000 C   0  0  0  0  0  0  0  0  0  0  0  0
    4.2690   -3.1550    0.0000 C   0  0  0  0  0  0  0  0  0  0  0  0
    5.1350   -1.6550    0.0000 C   0  0  0  0  0  0  0  0  0  0  0  0
    5.1350   -2.6550    0.0000 C   0  0  0  0  0  0  0  0  0  0  0  0
    2.5369   -3.1550    0.0000 C   0  0  0  0  0  0  0  0  0  0  0  0
    4.2690   -0.1550    0.0000 C   0  0  0  0  0  0  0  0  0  0  0  0
    5.1350    0.3450    0.0000 C   0  0  0  0  0  0  0  0  0  0  0  0
    5.1350    1.3450    0.0000 C   0  0  0  0  0  0  0  0  0  0  0  0
    6.0010    1.8450    0.0000 C   0  0  0  0  0  0  0  0  0  0  0  0
    5.6720   -1.3450    0.0000 H   0  0  0  0  0  0  0  0  0  0  0  0
    4.2690   -3.7750    0.0000 H   0  0  0  0  0  0  0  0  0  0  0  0
    5.6720   -2.9650    0.0000 H   0  0  0  0  0  0  0  0  0  0  0  0
    2.2269   -2.6181    0.0000 H   0  0  0  0  0  0  0  0  0  0  0  0
    2.0000   -3.4650    0.0000 H   0  0  0  0  0  0  0  0  0  0  0  0
    2.8469   -3.6919    0.0000 H   0  0  0  0  0  0  0  0  0  0  0  0
    3.7320    0.1550    0.0000 H   0  0  0  0  0  0  0  0  0  0  0  0
    5.6720    0.0350    0.0000 H   0  0  0  0  0  0  0  0  0  0  0  0
    2.0000   -1.4650    0.0000 H   0  0  0  0  0  0  0  0  0  0  0  0
    6.5380    3.1550    0.0000 H   0  0  0  0  0  0  0  0  0  0  0  0
  1  7  1  0  0  0  0
  1 24  1  0  0  0  0
  2 14  2  0  0  0  0
  3 15  1  0  0  0  0
  3 25  1  0  0  0  0
  4 15  2  0  0  0  0
  5  7  2  0  0  0  0
  5  8  1  0  0  0  0
  5 11  1  0  0  0  0
  6  7  1  0  0  0  0
  6  9  2  0  0  0  0
  6 12  1  0  0  0  0
  8 10  2  0  0  0  0
  8 17  1  0  0  0  0
  9 10  1  0  0  0  0
  9 16  1  0  0  0  0
 10 18  1  0  0  0  0
 11 19  1  0  0  0  0
 11 20  1  0  0  0  0
 11 21  1  0  0  0  0
 12 13  2  0  0  0  0
 12 22  1  0  0  0  0
 13 14  1  0  0  0  0
 13 23  1  0  0  0  0
 14 15  1  0  0  0  0
M  END
> <PUBCHEM_COMPOUND_CID>
9543158

> <PUBCHEM_COMPOUND_CANONICALIZED>
1

> <PUBCHEM_CACTVS_COMPLEXITY>
282

> <PUBCHEM_CACTVS_HBOND_ACCEPTOR>
4

> <PUBCHEM_CACTVS_HBOND_DONOR>
2

> <PUBCHEM_CACTVS_ROTATABLE_BOND>
3

> <PUBCHEM_CACTVS_SUBSKEYS>
AAADccBwOAAAAAAAAAAAAAAAAAAAAAAAAAAwAAAAAAAAAAABAAAAGgAACAAADASAmAAyDoAAAgCIAqDSCAICAAAgIAAIiAFECMgIJiKCERKAcAAkwBEImYeAwGAOAAACAAAIAAAAAAQAABAAAAAAAAAAAA==

> <PUBCHEM_IUPAC_OPENEYE_NAME>
(E)-4-(2-hydroxy-3-methyl-phenyl)-2-oxo-but-3-enoic acid

> <PUBCHEM_IUPAC_CAS_NAME>
(E)-4-(2-hydroxy-3-methylphenyl)-2-oxo-3-butenoic acid

> <PUBCHEM_IUPAC_NAME>
(E)-4-(2-hydroxy-3-methylphenyl)-2-oxobut-3-enoic acid

> <PUBCHEM_IUPAC_SYSTEMATIC_NAME>
(E)-4-(3-methyl-2-oxidanyl-phenyl)-2-oxidanylidene-but-3-enoic acid

> <PUBCHEM_IUPAC_TRADITIONAL_NAME>
(E)-4-(2-hydroxy-3-methyl-phenyl)-2-keto-but-3-enoic acid

> <PUBCHEM_IUPAC_INCHI>
InChI=1S/C11H10O4/c1-7-3-2-4-8(10(7)13)5-6-9(12)11(14)15/h2-6,13H,1H3,(H,14,15)/b6-5+

> <PUBCHEM_IUPAC_INCHIKEY>
DWONKORAGIKGGD-AATRIKPKSA-N

> <PUBCHEM_XLOGP3_AA>
1.8

> <PUBCHEM_EXACT_MASS>
206.057909

> <PUBCHEM_MOLECULAR_FORMULA>
C11H10O4

> <PUBCHEM_MOLECULAR_WEIGHT>
206.1947

> <PUBCHEM_OPENEYE_CAN_SMILES>
CC1=CC=CC(=C1O)C=CC(=O)C(=O)O

> <PUBCHEM_OPENEYE_ISO_SMILES>
CC1=CC=CC(=C1O)/C=C/C(=O)C(=O)O

> <PUBCHEM_CACTVS_TPSA>
74.6

> <PUBCHEM_MONOISOTOPIC_WEIGHT>
206.057909

> <PUBCHEM_TOTAL_CHARGE>
0

> <PUBCHEM_HEAVY_ATOM_COUNT>
15

> <PUBCHEM_ATOM_DEF_STEREO_COUNT>
0

> <PUBCHEM_ATOM_UDEF_STEREO_COUNT>
0

> <PUBCHEM_BOND_DEF_STEREO_COUNT>
1

> <PUBCHEM_BOND_UDEF_STEREO_COUNT>
0

> <PUBCHEM_ISOTOPIC_ATOM_COUNT>
0

> <PUBCHEM_COMPONENT_COUNT>
1

> <PUBCHEM_CACTVS_TAUTO_COUNT>
6

> <PUBCHEM_COORDINATE_TYPE>
1
5
255

> <PUBCHEM_BONDANNOTATIONS>
5  7  8
5  8  8
6  7  8
6  9  8
8  10  8
9  10  8

$$$$

