11954211
  -OEChem-07051213073D

 70 74  0     1  0  0  0  0  0999 V2000
    2.1797   -1.0273   -0.7342 O   0  0  0  0  0  0  0  0  0  0  0  0
   -1.1675   -2.2184    0.1186 O   0  0  0  0  0  0  0  0  0  0  0  0
    2.3839    0.2045    1.2369 O   0  0  0  0  0  0  0  0  0  0  0  0
    2.5509   -3.9151   -0.2835 O   0  0  0  0  0  0  0  0  0  0  0  0
   -0.2491   -0.0887    0.3739 O   0  0  0  0  0  0  0  0  0  0  0  0
    0.2040   -5.3801   -1.1210 O   0  0  0  0  0  0  0  0  0  0  0  0
    4.8522   -0.3719   -1.3946 O   0  0  0  0  0  0  0  0  0  0  0  0
    5.6883    2.1831   -0.1889 O   0  0  0  0  0  0  0  0  0  0  0  0
    5.1122    2.2020    2.6438 O   0  0  0  0  0  0  0  0  0  0  0  0
   -3.5291   -3.5531   -0.3257 O   0  0  0  0  0  0  0  0  0  0  0  0
    1.4946    0.3572    3.8334 O   0  0  0  0  0  0  0  0  0  0  0  0
   -2.9946    2.0126   -0.9043 O   0  0  0  0  0  0  0  0  0  0  0  0
   -2.3355   -0.6202    2.1353 O   0  0  0  0  0  0  0  0  0  0  0  0
    1.2275   -1.9012   -0.1284 C   0  0  2  0  0  0  0  0  0  0  0  0
    1.3512   -3.2936   -0.7470 C   0  0  2  0  0  0  0  0  0  0  0  0
    0.1734   -4.1830   -0.3482 C   0  0  1  0  0  0  0  0  0  0  0  0
    3.0964   -0.5103    0.2299 C   0  0  2  0  0  0  0  0  0  0  0  0
    4.0711    0.4163   -0.4969 C   0  0  1  0  0  0  0  0  0  0  0  0
   -0.1675   -1.3164   -0.3495 C   0  0  1  0  0  0  0  0  0  0  0  0
   -1.1559   -3.4621   -0.5844 C   0  0  1  0  0  0  0  0  0  0  0  0
    4.9967    1.1319    0.4872 C   0  0  2  0  0  0  0  0  0  0  0  0
    4.2064    1.7508    1.6402 C   0  0  1  0  0  0  0  0  0  0  0  0
    3.2445    0.7282    2.2498 C   0  0  1  0  0  0  0  0  0  0  0  0
   -2.3403   -4.2836   -0.0851 C   0  0  0  0  0  0  0  0  0  0  0  0
    2.3616    1.3544    3.3247 C   0  0  0  0  0  0  0  0  0  0  0  0
   -1.4858    0.5024    0.2311 C   0  0  0  0  0  0  0  0  0  0  0  0
   -1.7733    1.3760   -0.7509 C   0  0  0  0  0  0  0  0  0  0  0  0
   -2.5378    0.1676    1.2210 C   0  0  0  0  0  0  0  0  0  0  0  0
   -3.8367    0.8350    1.0441 C   0  0  0  0  0  0  0  0  0  0  0  0
   -0.7872    1.7703   -1.7722 C   0  0  0  0  0  0  0  0  0  0  0  0
   -3.9970    1.7271   -0.0137 C   0  0  0  0  0  0  0  0  0  0  0  0
   -4.8946    0.5829    1.9212 C   0  0  0  0  0  0  0  0  0  0  0  0
   -5.2185    2.3748   -0.2012 C   0  0  0  0  0  0  0  0  0  0  0  0
   -0.6846    1.0456   -2.9602 C   0  0  0  0  0  0  0  0  0  0  0  0
    0.0448    2.8686   -1.5522 C   0  0  0  0  0  0  0  0  0  0  0  0
   -6.1155    1.2313    1.7312 C   0  0  0  0  0  0  0  0  0  0  0  0
   -6.2773    2.1256    0.6723 C   0  0  0  0  0  0  0  0  0  0  0  0
    0.2492    1.4186   -3.9269 C   0  0  0  0  0  0  0  0  0  0  0  0
    0.9785    3.2416   -2.5191 C   0  0  0  0  0  0  0  0  0  0  0  0
    1.0805    2.5165   -3.7065 C   0  0  0  0  0  0  0  0  0  0  0  0
    1.4039   -1.9947    0.9532 H   0  0  0  0  0  0  0  0  0  0  0  0
    1.4402   -3.2297   -1.8379 H   0  0  0  0  0  0  0  0  0  0  0  0
    0.2774   -4.4644    0.7078 H   0  0  0  0  0  0  0  0  0  0  0  0
    3.6338   -1.3568    0.6790 H   0  0  0  0  0  0  0  0  0  0  0  0
    3.5272    1.1470   -1.1074 H   0  0  0  0  0  0  0  0  0  0  0  0
   -0.3171   -1.1267   -1.4175 H   0  0  0  0  0  0  0  0  0  0  0  0
   -1.3089   -3.2617   -1.6536 H   0  0  0  0  0  0  0  0  0  0  0  0
    5.7659    0.4471    0.8650 H   0  0  0  0  0  0  0  0  0  0  0  0
    3.6585    2.6253    1.2655 H   0  0  0  0  0  0  0  0  0  0  0  0
    3.7955   -0.1054    2.7061 H   0  0  0  0  0  0  0  0  0  0  0  0
   -2.4171   -5.2439   -0.6027 H   0  0  0  0  0  0  0  0  0  0  0  0
   -2.2678   -4.4569    0.9937 H   0  0  0  0  0  0  0  0  0  0  0  0
    2.9475    1.7482    4.1593 H   0  0  0  0  0  0  0  0  0  0  0  0
    1.7417    2.1592    2.9158 H   0  0  0  0  0  0  0  0  0  0  0  0
    2.5112   -3.9654    0.6869 H   0  0  0  0  0  0  0  0  0  0  0  0
   -0.3846   -6.0251   -0.6944 H   0  0  0  0  0  0  0  0  0  0  0  0
    5.3440   -1.0272   -0.8708 H   0  0  0  0  0  0  0  0  0  0  0  0
    6.2546    2.6271    0.4654 H   0  0  0  0  0  0  0  0  0  0  0  0
    4.6260    2.7987    3.2370 H   0  0  0  0  0  0  0  0  0  0  0  0
   -4.2684   -4.0894    0.0076 H   0  0  0  0  0  0  0  0  0  0  0  0
    0.9751    0.0108    3.0876 H   0  0  0  0  0  0  0  0  0  0  0  0
   -4.7876   -0.1097    2.7512 H   0  0  0  0  0  0  0  0  0  0  0  0
   -5.3531    3.0726   -1.0231 H   0  0  0  0  0  0  0  0  0  0  0  0
   -1.3324    0.1938   -3.1528 H   0  0  0  0  0  0  0  0  0  0  0  0
   -0.0222    3.4427   -0.6313 H   0  0  0  0  0  0  0  0  0  0  0  0
   -6.9421    1.0397    2.4094 H   0  0  0  0  0  0  0  0  0  0  0  0
   -7.2292    2.6284    0.5281 H   0  0  0  0  0  0  0  0  0  0  0  0
    0.3275    0.8553   -4.8521 H   0  0  0  0  0  0  0  0  0  0  0  0
    1.6269    4.0957   -2.3470 H   0  0  0  0  0  0  0  0  0  0  0  0
    1.8078    2.8069   -4.4591 H   0  0  0  0  0  0  0  0  0  0  0  0
  1 14  1  0  0  0  0
  1 17  1  0  0  0  0
  2 19  1  0  0  0  0
  2 20  1  0  0  0  0
  3 17  1  0  0  0  0
  3 23  1  0  0  0  0
  4 15  1  0  0  0  0
  4 55  1  0  0  0  0
  5 19  1  0  0  0  0
  5 26  1  0  0  0  0
  6 16  1  0  0  0  0
  6 56  1  0  0  0  0
  7 18  1  0  0  0  0
  7 57  1  0  0  0  0
  8 21  1  0  0  0  0
  8 58  1  0  0  0  0
  9 22  1  0  0  0  0
  9 59  1  0  0  0  0
 10 24  1  0  0  0  0
 10 60  1  0  0  0  0
 11 25  1  0  0  0  0
 11 61  1  0  0  0  0
 12 27  1  0  0  0  0
 12 31  1  0  0  0  0
 13 28  2  0  0  0  0
 14 15  1  0  0  0  0
 14 19  1  0  0  0  0
 14 41  1  0  0  0  0
 15 16  1  0  0  0  0
 15 42  1  0  0  0  0
 16 20  1  0  0  0  0
 16 43  1  0  0  0  0
 17 18  1  0  0  0  0
 17 44  1  0  0  0  0
 18 21  1  0  0  0  0
 18 45  1  0  0  0  0
 19 46  1  0  0  0  0
 20 24  1  0  0  0  0
 20 47  1  0  0  0  0
 21 22  1  0  0  0  0
 21 48  1  0  0  0  0
 22 23  1  0  0  0  0
 22 49  1  0  0  0  0
 23 25  1  0  0  0  0
 23 50  1  0  0  0  0
 24 51  1  0  0  0  0
 24 52  1  0  0  0  0
 25 53  1  0  0  0  0
 25 54  1  0  0  0  0
 26 27  2  0  0  0  0
 26 28  1  0  0  0  0
 27 30  1  0  0  0  0
 28 29  1  0  0  0  0
 29 31  1  0  0  0  0
 29 32  2  0  0  0  0
 30 34  2  0  0  0  0
 30 35  1  0  0  0  0
 31 33  2  0  0  0  0
 32 36  1  0  0  0  0
 32 62  1  0  0  0  0
 33 37  1  0  0  0  0
 33 63  1  0  0  0  0
 34 38  1  0  0  0  0
 34 64  1  0  0  0  0
 35 39  2  0  0  0  0
 35 65  1  0  0  0  0
 36 37  2  0  0  0  0
 36 66  1  0  0  0  0
 37 67  1  0  0  0  0
 38 40  2  0  0  0  0
 38 68  1  0  0  0  0
 39 40  1  0  0  0  0
 39 69  1  0  0  0  0
 40 70  1  0  0  0  0
M  END
> <PUBCHEM_COMPOUND_CID>
11954211

> <PUBCHEM_CONFORMER_RMSD>
1

> <PUBCHEM_CONFORMER_DIVERSEORDER>
1
4
172
79
176
198
170
184
285
233
68
65
257
127
232
211
291
158
215
90
182
246
72
212
295
34
153
48
256
214
45
10
97
204
46
205
255
278
287
74
294
147
296
269
122
259
235
248
254
151
208
292
140
297
15
206
84
244
73
61
78
290
266
99
189
80
258
221
59
193
109
134
37
223
217
125
247
288
162
62
94
141
261
174
238
275
49
234
241
224
222
57
282
115
210
250
88
70
107
218
143
175
251
166
165
220
273
276
192
56
171
242
150
191
41
105
154
52
253
102
101
7
264
144
110
139
219
293
213
33
40
113
156
8
155
274
25
132
164
29
117
50
279
67
283
142
185
237
32
249
103
21
225
270
209
243
286
227
188
216
2
181
229
173
30
9
82
265
281
64
277
6
130
63
236
131
69
240
116
24
180
100
167
194
272
118
177
160
271
26
108
60
23
43
76
178
83
96
123
124
44
28
260
55
133
95
190
71
14
53
186
3
119
106
85
135
31
195
239
226
86
231
268
121
47
197
17
152
51
111
22
228
136
42
114
16
161
145
5
179
267
20
230
27
128
98
200
146
126
201
157
89
54
163
252
280
149
148
104
196
120
87
66
202
129
199
77
18
138
13
11
58
289
159
284
75
183
39
263
36
112
93
203
19
12
187
168
245
91
207
35
169
92
137
38
81
262

> <PUBCHEM_MMFF94_PARTIAL_CHARGES>
56
1 -0.56
10 -0.68
11 -0.68
12 -0.16
13 -0.57
14 0.28
15 0.28
16 0.28
17 0.56
18 0.28
19 0.56
2 -0.56
20 0.28
21 0.28
22 0.28
23 0.28
24 0.28
25 0.28
26 0.09
27 0.05
28 0.47
29 0.09
3 -0.56
30 0.03
31 0.08
32 -0.15
33 -0.15
34 -0.15
35 -0.15
36 -0.15
37 -0.15
38 -0.15
39 -0.15
4 -0.68
40 -0.15
5 -0.36
55 0.4
56 0.4
57 0.4
58 0.4
59 0.4
6 -0.68
60 0.4
61 0.4
62 0.15
63 0.15
64 0.15
65 0.15
66 0.15
67 0.15
68 0.15
69 0.15
7 -0.68
70 0.15
8 -0.68
9 -0.68

> <PUBCHEM_EFFECTIVE_ROTOR_COUNT>
9.4

> <PUBCHEM_PHARMACOPHORE_FEATURES>
25
1 1 acceptor
1 10 acceptor
1 10 donor
1 11 acceptor
1 11 donor
1 12 acceptor
1 13 acceptor
1 2 acceptor
1 3 acceptor
1 4 acceptor
1 4 donor
1 5 acceptor
1 6 acceptor
1 6 donor
1 7 acceptor
1 7 donor
1 8 acceptor
1 8 donor
1 9 acceptor
1 9 donor
6 12 26 27 28 29 31 rings
6 2 14 15 16 19 20 rings
6 29 31 32 33 36 37 rings
6 3 17 18 21 22 23 rings
6 30 34 35 38 39 40 rings

> <PUBCHEM_HEAVY_ATOM_COUNT>
40

> <PUBCHEM_ATOM_DEF_STEREO_COUNT>
10

> <PUBCHEM_ATOM_UDEF_STEREO_COUNT>
0

> <PUBCHEM_BOND_DEF_STEREO_COUNT>
0

> <PUBCHEM_BOND_UDEF_STEREO_COUNT>
0

> <PUBCHEM_ISOTOPIC_ATOM_COUNT>
0

> <PUBCHEM_COMPONENT_COUNT>
1

> <PUBCHEM_CACTVS_TAUTO_COUNT>
1

> <PUBCHEM_CONFORMER_ID>
00B6682300000001

> <PUBCHEM_MMFF94_ENERGY>
129.2713

> <PUBCHEM_FEATURE_SELFOVERLAP>
127.022

> <PUBCHEM_SHAPE_FINGERPRINT>
10165383 225 18336818784463815300
11093857 51 18054191523372205567
11115154 58 17319329436031495183
11445158 3 17681848632381303151
12156800 1 17827898655778750245
12422481 6 18060420239621500989
12788726 201 17618199734063576319
13636023 51 18200028585243077810
13965767 371 18341908402213720922
140371 6 18125437510378305103
14725015 67 17483393406634320755
15297060 5 18264466465242908388
15324884 4 17985544700777237487
15420108 30 18127960910938330092
15775530 1 17121432039744671653
17980427 23 17988922241589327893
18365409 1 18335425609148890343
19309040 13 17459756913425961096
19319366 153 17822020843058511184
1979834 28 18270668883302592453
20600515 1 17114979607497369570
21033648 29 18335420157906853320
22149856 69 18122029180142344249
23559900 14 17914033546833111559
27425 322 17748832899285405333
469060 322 17701839712226498962
5252454 2 18408329886678384130
581034 39 18265603300025930715

> <PUBCHEM_SHAPE_MULTIPOLES>
746.88
10.54
5.42
3.44
5.13
8.52
-0.1
-8.17
7.47
0.26
-3.56
-2.27
-3.29
0.73

> <PUBCHEM_SHAPE_SELFOVERLAP>
1619.189

> <PUBCHEM_SHAPE_VOLUME>
400.7

> <PUBCHEM_COORDINATE_TYPE>
2
5
10

$$$$

