439482
  -OEChem-07051212453D

 42 44  0     1  0  0  0  0  0999 V2000
   -3.0751   -3.4619   -0.1976 S   0  0  0  0  0  0  0  0  0  0  0  0
    1.2212   -3.2696    1.4788 O   0  0  0  0  0  0  0  0  0  0  0  0
    2.4812   -0.4472    1.5653 O   0  0  0  0  0  0  0  0  0  0  0  0
   -2.0236    2.3283    1.5944 O   0  0  0  0  0  0  0  0  0  0  0  0
   -3.9161    2.7835    0.1736 O   0  0  0  0  0  0  0  0  0  0  0  0
    2.7859    2.2044   -0.8356 O   0  0  0  0  0  0  0  0  0  0  0  0
    4.7402    3.1079   -0.1203 O   0  0  0  0  0  0  0  0  0  0  0  0
    0.6786   -2.1418    0.7488 N   0  0  2  0  0  0  0  0  0  0  0  0
    3.5331   -0.2769   -0.5044 N   0  0  0  0  0  0  0  0  0  0  0  0
   -0.6053   -1.5671   -1.1241 C   0  0  2  0  0  0  0  0  0  0  0  0
   -0.4637   -2.6414   -0.0263 C   0  0  2  0  0  0  0  0  0  0  0  0
    0.8571   -1.1453   -1.3901 C   0  0  0  0  0  0  0  0  0  0  0  0
    1.6761   -1.7592   -0.2517 C   0  0  1  0  0  0  0  0  0  0  0  0
   -1.5215   -0.3987   -0.8033 C   0  0  0  0  0  0  0  0  0  0  0  0
   -1.6947   -2.9023    0.8327 C   0  0  0  0  0  0  0  0  0  0  0  0
    2.5950   -0.7706    0.3859 C   0  0  0  0  0  0  0  0  0  0  0  0
   -1.2575    0.3986    0.3102 C   0  0  0  0  0  0  0  0  0  0  0  0
   -2.6232   -0.1364   -1.6331 C   0  0  0  0  0  0  0  0  0  0  0  0
   -2.1177    1.4479    0.5608 C   0  0  0  0  0  0  0  0  0  0  0  0
   -3.4787    0.9328   -1.3569 C   0  0  0  0  0  0  0  0  0  0  0  0
   -3.1984    1.7080   -0.2505 C   0  0  0  0  0  0  0  0  0  0  0  0
    4.5239    0.7106   -0.1419 C   0  0  0  0  0  0  0  0  0  0  0  0
   -3.1659    3.1718    1.3424 C   0  0  0  0  0  0  0  0  0  0  0  0
    4.0492    2.1246   -0.3572 C   0  0  0  0  0  0  0  0  0  0  0  0
   -0.9789   -2.0509   -2.0373 H   0  0  0  0  0  0  0  0  0  0  0  0
   -0.1686   -3.5844   -0.5144 H   0  0  0  0  0  0  0  0  0  0  0  0
    0.9640   -0.0576   -1.4730 H   0  0  0  0  0  0  0  0  0  0  0  0
    1.1912   -1.5745   -2.3434 H   0  0  0  0  0  0  0  0  0  0  0  0
    2.2518   -2.6198   -0.6175 H   0  0  0  0  0  0  0  0  0  0  0  0
   -2.0097   -2.0249    1.4043 H   0  0  0  0  0  0  0  0  0  0  0  0
   -1.4850   -3.6927    1.5620 H   0  0  0  0  0  0  0  0  0  0  0  0
   -0.4125    0.2328    0.9660 H   0  0  0  0  0  0  0  0  0  0  0  0
   -2.8242   -0.7587   -2.5014 H   0  0  0  0  0  0  0  0  0  0  0  0
    1.1691   -2.9161    2.3830 H   0  0  0  0  0  0  0  0  0  0  0  0
    3.5306   -0.6084   -1.4647 H   0  0  0  0  0  0  0  0  0  0  0  0
   -4.3311    1.1410   -1.9935 H   0  0  0  0  0  0  0  0  0  0  0  0
   -2.4767   -4.5617   -0.6783 H   0  0  0  0  0  0  0  0  0  0  0  0
    4.7841    0.5877    0.9136 H   0  0  0  0  0  0  0  0  0  0  0  0
    5.4008    0.5360   -0.7714 H   0  0  0  0  0  0  0  0  0  0  0  0
   -2.8183    4.2028    1.2098 H   0  0  0  0  0  0  0  0  0  0  0  0
   -3.8294    3.1335    2.2140 H   0  0  0  0  0  0  0  0  0  0  0  0
    2.4999    3.1336   -0.9656 H   0  0  0  0  0  0  0  0  0  0  0  0
  1 15  1  0  0  0  0
  1 37  1  0  0  0  0
  2  8  1  0  0  0  0
  2 34  1  0  0  0  0
  3 16  2  0  0  0  0
  4 19  1  0  0  0  0
  4 23  1  0  0  0  0
  5 21  1  0  0  0  0
  5 23  1  0  0  0  0
  6 24  1  0  0  0  0
  6 42  1  0  0  0  0
  7 24  2  0  0  0  0
  8 11  1  0  0  0  0
  8 13  1  0  0  0  0
  9 16  1  0  0  0  0
  9 22  1  0  0  0  0
  9 35  1  0  0  0  0
 10 11  1  0  0  0  0
 10 12  1  0  0  0  0
 10 14  1  0  0  0  0
 10 25  1  0  0  0  0
 11 15  1  0  0  0  0
 11 26  1  0  0  0  0
 12 13  1  0  0  0  0
 12 27  1  0  0  0  0
 12 28  1  0  0  0  0
 13 16  1  0  0  0  0
 13 29  1  0  0  0  0
 14 17  2  0  0  0  0
 14 18  1  0  0  0  0
 15 30  1  0  0  0  0
 15 31  1  0  0  0  0
 17 19  1  0  0  0  0
 17 32  1  0  0  0  0
 18 20  2  0  0  0  0
 18 33  1  0  0  0  0
 19 21  2  0  0  0  0
 20 21  1  0  0  0  0
 20 36  1  0  0  0  0
 22 24  1  0  0  0  0
 22 38  1  0  0  0  0
 22 39  1  0  0  0  0
 23 40  1  0  0  0  0
 23 41  1  0  0  0  0
M  END
> <PUBCHEM_COMPOUND_CID>
439482

> <PUBCHEM_CONFORMER_RMSD>
0.8

> <PUBCHEM_CONFORMER_DIVERSEORDER>
2
196
58
104
311
84
204
195
168
340
288
27
59
198
337
21
261
203
330
271
297
175
102
315
272
322
111
338
156
342
221
245
83
235
133
85
157
146
191
256
185
336
295
286
291
15
316
243
142
211
81
262
234
343
97
334
285
310
226
197
165
74
158
107
208
162
258
65
331
117
276
282
318
90
57
296
134
180
305
206
106
279
35
202
253
143
314
227
248
324
164
325
252
225
273
181
274
266
241
124
300
88
239
105
54
287
101
141
303
16
100
99
60
9
216
5
151
326
137
187
63
110
62
49
237
155
236
131
122
176
30
82
209
33
290
152
212
333
148
320
278
201
119
275
200
39
103
34
113
48
44
214
1
199
335
257
98
169
87
205
244
269
95
270
228
56
120
91
171
193
182
230
108
46
298
109
312
283
47
130
190
160
6
67
29
153
94
268
294
32
250
344
77
123
7
19
260
23
238
145
259
114
22
18
73
136
210
233
186
28
92
128
172
299
125
254
96
242
52
170
219
179
249
319
329
184
327
138
277
129
313
93
8
323
306
341
183
51
71
222
218
76
246
112
140
25
116
14
188
307
301
53
41
79
265
135
231
289
308
207
304
302
11
86
31
229
4
280
42
40
20
64
69
328
177
292
78
150
321
38
251
178
13
215
247
159
223
24
293
213
50
115
154
121
10
126
194
37
149
192
281
255
70
72
166
232
3
61
75
173
26
339
89
55
264
12
144
332
174
43
68
45
309
163
267
263
317
224
284
17
147
217
127
345
220
240
36
80
161
132
189
66
139
167
118

> <PUBCHEM_MMFF94_PARTIAL_CHARGES>
30
1 -0.41
10 0.14
11 0.27
13 0.33
14 -0.14
15 0.23
16 0.57
17 -0.15
18 -0.15
19 0.08
2 -0.3
20 -0.15
21 0.08
22 0.36
23 0.56
24 0.66
3 -0.57
32 0.15
33 0.15
34 0.4
35 0.37
36 0.15
37 0.18
4 -0.36
42 0.5
5 -0.36
6 -0.65
7 -0.57
8 -0.64
9 -0.73

> <PUBCHEM_EFFECTIVE_ROTOR_COUNT>
7.6

> <PUBCHEM_PHARMACOPHORE_FEATURES>
11
1 2 anion
1 3 acceptor
1 4 acceptor
1 5 acceptor
1 6 acceptor
1 7 acceptor
1 9 donor
3 6 7 24 anion
5 4 5 19 21 23 rings
5 8 10 11 12 13 rings
6 14 17 18 19 20 21 rings

> <PUBCHEM_HEAVY_ATOM_COUNT>
24

> <PUBCHEM_ATOM_DEF_STEREO_COUNT>
1

> <PUBCHEM_ATOM_UDEF_STEREO_COUNT>
2

> <PUBCHEM_BOND_DEF_STEREO_COUNT>
0

> <PUBCHEM_BOND_UDEF_STEREO_COUNT>
0

> <PUBCHEM_ISOTOPIC_ATOM_COUNT>
0

> <PUBCHEM_COMPONENT_COUNT>
1

> <PUBCHEM_CACTVS_TAUTO_COUNT>
2

> <PUBCHEM_CONFORMER_ID>
0006B4BA00000002

> <PUBCHEM_MMFF94_ENERGY>
55.6128

> <PUBCHEM_FEATURE_SELFOVERLAP>
56.032

> <PUBCHEM_SHAPE_FINGERPRINT>
11221954 11 18261663831546960132
11582403 64 15263733305655613199
11640471 11 18262522614173142773
11725454 13 16269986560481544343
12390115 104 18200302231142838350
12633257 1 18129955601609603162
12788726 201 18124322609802988866
13134695 92 17337877470403390778
13583140 156 17418096550406984257
13965767 371 17916872442663886916
14123250 116 18408041814268059013
14142880 1 18200601280455843764
14787075 74 18337682914804453239
14955137 171 17476631448356711043
15342168 16 18340764965713192349
20510252 161 18197782094077749382
20739085 24 17690285228124929274
21864079 5 18335979848143535756
22182937 141 18411413986471094140
2255824 54 17688307202459084819
22907989 373 18262239902446174405
23227448 37 18409725145074307253
23558518 356 18342166731364253550
23559900 14 16448424232563482967
283562 15 18198907998179566530
392239 28 18411688890591064459
469060 322 17842832231402581633
474 4 18266178529211717013
5048184 11 18408320016569874168
6034566 193 18058715910678497524
633830 44 17973444592356275319
9981440 41 18260558809492467610

> <PUBCHEM_SHAPE_MULTIPOLES>
452.58
7.86
4.65
1.4
7.74
0.13
-0.06
-6.9
0.77
-2.62
-1.56
-0.58
0
-1.27

> <PUBCHEM_SHAPE_SELFOVERLAP>
958.804

> <PUBCHEM_SHAPE_VOLUME>
258.3

> <PUBCHEM_COORDINATE_TYPE>
2
5
10

$$$$

