440316
  -OEChem-07051212493D

 52 56  0     1  0  0  0  0  0999 V2000
    0.7106   -0.9753   -0.9965 O   0  0  0  0  0  0  0  0  0  0  0  0
   -5.4304   -0.1264    0.7477 O   0  0  0  0  0  0  0  0  0  0  0  0
    5.7580   -0.6527   -1.1251 O   0  0  0  0  0  0  0  0  0  0  0  0
    0.7200   -0.2488    0.2405 C   0  0  1  0  0  0  0  0  0  0  0  0
   -0.0274    1.0933    0.1900 C   0  0  2  0  0  0  0  0  0  0  0  0
   -0.0868   -1.5403    0.0582 C   0  0  1  0  0  0  0  0  0  0  0  0
   -1.3789    0.9436   -0.5206 C   0  0  1  0  0  0  0  0  0  0  0  0
   -2.2329   -0.2123    0.0580 C   0  0  2  0  0  0  0  0  0  0  0  0
    2.1154   -0.1960    0.9045 C   0  0  2  0  0  0  0  0  0  0  0  0
   -1.5546   -1.5503   -0.2803 C   0  0  0  0  0  0  0  0  0  0  0  0
   -3.5510    0.0289   -0.7119 C   0  0  2  0  0  0  0  0  0  0  0  0
    0.8561    2.1782   -0.4514 C   0  0  0  0  0  0  0  0  0  0  0  0
   -2.3193    2.1467   -0.4715 C   0  0  0  0  0  0  0  0  0  0  0  0
   -3.7120    1.5589   -0.7401 C   0  0  0  0  0  0  0  0  0  0  0  0
    2.9079    0.9552    0.2619 C   0  0  0  0  0  0  0  0  0  0  0  0
    2.2118    2.2987    0.2586 C   0  0  0  0  0  0  0  0  0  0  0  0
    2.9274   -1.5247    0.8387 C   0  0  0  0  0  0  0  0  0  0  0  0
   -2.4372   -0.1227    1.5914 C   0  0  0  0  0  0  0  0  0  0  0  0
    1.9150    0.0709    2.4223 C   0  0  0  0  0  0  0  0  0  0  0  0
   -4.7448   -0.6576   -0.1245 C   0  0  0  0  0  0  0  0  0  0  0  0
    3.7207   -1.7166   -0.4429 C   0  0  0  0  0  0  0  0  0  0  0  0
    4.0711    0.8113   -0.3932 C   0  0  0  0  0  0  0  0  0  0  0  0
    4.6277   -0.5339   -0.6585 C   0  0  0  0  0  0  0  0  0  0  0  0
   -5.0663   -2.0284   -0.6553 C   0  0  0  0  0  0  0  0  0  0  0  0
   -0.2269    1.4134    1.2190 H   0  0  0  0  0  0  0  0  0  0  0  0
    0.2446   -2.4707    0.4928 H   0  0  0  0  0  0  0  0  0  0  0  0
   -1.1837    0.7348   -1.5849 H   0  0  0  0  0  0  0  0  0  0  0  0
   -1.6673   -1.7841   -1.3465 H   0  0  0  0  0  0  0  0  0  0  0  0
   -2.0380   -2.3699    0.2640 H   0  0  0  0  0  0  0  0  0  0  0  0
   -3.4489   -0.3053   -1.7537 H   0  0  0  0  0  0  0  0  0  0  0  0
    0.3495    3.1494   -0.4130 H   0  0  0  0  0  0  0  0  0  0  0  0
    1.0216    1.9447   -1.5114 H   0  0  0  0  0  0  0  0  0  0  0  0
   -2.0544    2.9021   -1.2186 H   0  0  0  0  0  0  0  0  0  0  0  0
   -2.2970    2.6334    0.5101 H   0  0  0  0  0  0  0  0  0  0  0  0
   -4.4240    1.9459   -0.0035 H   0  0  0  0  0  0  0  0  0  0  0  0
   -4.0768    1.8767   -1.7240 H   0  0  0  0  0  0  0  0  0  0  0  0
    2.0780    2.6596    1.2842 H   0  0  0  0  0  0  0  0  0  0  0  0
    2.8115    3.0584   -0.2574 H   0  0  0  0  0  0  0  0  0  0  0  0
    2.2939   -2.3990    1.0136 H   0  0  0  0  0  0  0  0  0  0  0  0
    3.6602   -1.5353    1.6598 H   0  0  0  0  0  0  0  0  0  0  0  0
   -1.4935   -0.2091    2.1391 H   0  0  0  0  0  0  0  0  0  0  0  0
   -2.9068    0.8177    1.8956 H   0  0  0  0  0  0  0  0  0  0  0  0
   -3.0729   -0.9395    1.9517 H   0  0  0  0  0  0  0  0  0  0  0  0
    2.8761    0.1731    2.9404 H   0  0  0  0  0  0  0  0  0  0  0  0
    1.3472    0.9818    2.6314 H   0  0  0  0  0  0  0  0  0  0  0  0
    1.3658   -0.7559    2.8888 H   0  0  0  0  0  0  0  0  0  0  0  0
    3.0787   -1.8358   -1.3199 H   0  0  0  0  0  0  0  0  0  0  0  0
    4.3392   -2.6166   -0.3524 H   0  0  0  0  0  0  0  0  0  0  0  0
    4.5899    1.6524   -0.8401 H   0  0  0  0  0  0  0  0  0  0  0  0
   -5.2046   -1.9826   -1.7385 H   0  0  0  0  0  0  0  0  0  0  0  0
   -4.2663   -2.7270   -0.4057 H   0  0  0  0  0  0  0  0  0  0  0  0
   -5.9959   -2.3854   -0.2026 H   0  0  0  0  0  0  0  0  0  0  0  0
  1  4  1  0  0  0  0
  1  6  1  0  0  0  0
  2 20  2  0  0  0  0
  3 23  2  0  0  0  0
  4  5  1  0  0  0  0
  4  6  1  0  0  0  0
  4  9  1  0  0  0  0
  5  7  1  0  0  0  0
  5 12  1  0  0  0  0
  5 25  1  0  0  0  0
  6 10  1  0  0  0  0
  6 26  1  0  0  0  0
  7  8  1  0  0  0  0
  7 13  1  0  0  0  0
  7 27  1  0  0  0  0
  8 10  1  0  0  0  0
  8 11  1  0  0  0  0
  8 18  1  0  0  0  0
  9 15  1  0  0  0  0
  9 17  1  0  0  0  0
  9 19  1  0  0  0  0
 10 28  1  0  0  0  0
 10 29  1  0  0  0  0
 11 14  1  0  0  0  0
 11 20  1  0  0  0  0
 11 30  1  0  0  0  0
 12 16  1  0  0  0  0
 12 31  1  0  0  0  0
 12 32  1  0  0  0  0
 13 14  1  0  0  0  0
 13 33  1  0  0  0  0
 13 34  1  0  0  0  0
 14 35  1  0  0  0  0
 14 36  1  0  0  0  0
 15 16  1  0  0  0  0
 15 22  2  0  0  0  0
 16 37  1  0  0  0  0
 16 38  1  0  0  0  0
 17 21  1  0  0  0  0
 17 39  1  0  0  0  0
 17 40  1  0  0  0  0
 18 41  1  0  0  0  0
 18 42  1  0  0  0  0
 18 43  1  0  0  0  0
 19 44  1  0  0  0  0
 19 45  1  0  0  0  0
 19 46  1  0  0  0  0
 20 24  1  0  0  0  0
 21 23  1  0  0  0  0
 21 47  1  0  0  0  0
 21 48  1  0  0  0  0
 22 23  1  0  0  0  0
 22 49  1  0  0  0  0
 24 50  1  0  0  0  0
 24 51  1  0  0  0  0
 24 52  1  0  0  0  0
M  END
> <PUBCHEM_COMPOUND_CID>
440316

> <PUBCHEM_CONFORMER_RMSD>
0.6

> <PUBCHEM_CONFORMER_DIVERSEORDER>
1
2
3

> <PUBCHEM_MMFF94_PARTIAL_CHARGES>
18
1 -0.3
10 0.09
11 0.06
15 -0.28
16 0.14
2 -0.57
20 0.45
21 0.06
22 -0.14
23 0.49
24 0.06
26 0.1
3 -0.57
4 -0.04
49 0.15
5 0.09
6 -0.05
9 0.23

> <PUBCHEM_EFFECTIVE_ROTOR_COUNT>
2.8

> <PUBCHEM_PHARMACOPHORE_FEATURES>
7
1 1 acceptor
1 2 acceptor
1 3 acceptor
5 7 8 11 13 14 rings
6 4 5 9 12 15 16 rings
6 9 15 17 21 22 23 rings
7 1 4 5 6 7 8 10 rings

> <PUBCHEM_HEAVY_ATOM_COUNT>
24

> <PUBCHEM_ATOM_DEF_STEREO_COUNT>
7

> <PUBCHEM_ATOM_UDEF_STEREO_COUNT>
0

> <PUBCHEM_BOND_DEF_STEREO_COUNT>
0

> <PUBCHEM_BOND_UDEF_STEREO_COUNT>
0

> <PUBCHEM_ISOTOPIC_ATOM_COUNT>
0

> <PUBCHEM_COMPONENT_COUNT>
1

> <PUBCHEM_CACTVS_TAUTO_COUNT>
15

> <PUBCHEM_CONFORMER_ID>
0006B7FC00000001

> <PUBCHEM_MMFF94_ENERGY>
71.3092

> <PUBCHEM_FEATURE_SELFOVERLAP>
35.603

> <PUBCHEM_SHAPE_FINGERPRINT>
10366900 7 17703791405447760705
10369192 42 16955658246613422952
10498660 4 18130796705971028252
10863032 1 17988923422457278144
11578080 2 16880486861130158258
12011746 2 18272370875588299679
12236239 1 17748821895874000825
12403259 226 18409738356631430733
12403259 415 18260275161119672633
12553582 1 18340499905826725397
12633257 1 14345801534527852228
12916754 54 18334295336437318713
13134695 92 16081095857361409184
13140716 1 17908995304907443000
13224815 77 18411427202243758353
13944108 23 16112924863471008749
14341114 176 18409725158375842921
15142383 8 16009020735129130401
15196674 1 18411984680066122221
15238133 3 17703242818118509512
15536298 74 18336271154242286664
15848702 151 17894903074700697246
1601671 61 18339644550453037308
16752209 62 18341623645417947601
16945 1 18269841934594180064
17349148 13 17821727217519041047
1813 80 17604693573962545564
18186145 218 17168440297690084811
18222031 100 18337122185132637919
19591789 44 18411422846851748567
200 152 17894631456700226241
20028762 73 18113907013747906343
20645477 70 18340772537687683548
20691752 17 17131836499013567261
21033648 29 17822592580325077273
21267235 1 18411411813091139214
221357 26 18410857672189521125
22182313 1 18269579211276385476
22393880 68 18271535268210481581
23493267 7 17988921214627901240
23522609 53 18122030248445273573
23559900 14 18409455773484196133
296302 2 12823293502843339312
335352 9 18409730690510141397
350125 39 18410289246611921485
465052 167 18334852788463713111
474 4 16916775237799139772
5104073 3 18411706512546643505
7364860 26 18262523581121286368
7495541 125 17749392524896767890
9709674 26 18271527494535654635

> <PUBCHEM_SHAPE_MULTIPOLES>
476.3
10.26
2.19
1.26
2.35
0.55
-0.66
-3.17
2.24
0.2
0.38
-0.49
-0.12
0.23

> <PUBCHEM_SHAPE_SELFOVERLAP>
1037.962

> <PUBCHEM_SHAPE_VOLUME>
258.2

> <PUBCHEM_COORDINATE_TYPE>
2
5
10

$$$$

