39
  -OEChem-07051212453D

 17 17  0     0  0  0  0  0  0999 V2000
    0.9309    1.4178    0.1206 O   0  0  0  0  0  0  0  0  0  0  0  0
    0.2591   -1.9355    0.0992 O   0  0  0  0  0  0  0  0  0  0  0  0
    2.5114   -0.2585   -0.1227 O   0  0  0  0  0  0  0  0  0  0  0  0
   -1.0672    0.1152   -0.0250 C   0  0  0  0  0  0  0  0  0  0  0  0
   -0.4703    1.4370    0.4516 C   0  0  0  0  0  0  0  0  0  0  0  0
    0.1650   -0.7258    0.0542 C   0  0  0  0  0  0  0  0  0  0  0  0
   -1.5306    0.1878   -1.4799 C   0  0  0  0  0  0  0  0  0  0  0  0
   -2.1766   -0.3838    0.8893 C   0  0  0  0  0  0  0  0  0  0  0  0
    1.3784    0.1460    0.0127 C   0  0  0  0  0  0  0  0  0  0  0  0
   -0.9341    2.3024   -0.0330 H   0  0  0  0  0  0  0  0  0  0  0  0
   -0.5498    1.5723    1.5367 H   0  0  0  0  0  0  0  0  0  0  0  0
   -1.8526   -0.7965   -1.8388 H   0  0  0  0  0  0  0  0  0  0  0  0
   -2.3724    0.8800   -1.5899 H   0  0  0  0  0  0  0  0  0  0  0  0
   -0.7284    0.5263   -2.1459 H   0  0  0  0  0  0  0  0  0  0  0  0
   -1.8192   -0.5143    1.9172 H   0  0  0  0  0  0  0  0  0  0  0  0
   -3.0170    0.3183    0.9092 H   0  0  0  0  0  0  0  0  0  0  0  0
   -2.5547   -1.3571    0.5564 H   0  0  0  0  0  0  0  0  0  0  0  0
  1  5  1  0  0  0  0
  1  9  1  0  0  0  0
  2  6  2  0  0  0  0
  3  9  2  0  0  0  0
  4  5  1  0  0  0  0
  4  6  1  0  0  0  0
  4  7  1  0  0  0  0
  4  8  1  0  0  0  0
  5 10  1  0  0  0  0
  5 11  1  0  0  0  0
  6  9  1  0  0  0  0
  7 12  1  0  0  0  0
  7 13  1  0  0  0  0
  7 14  1  0  0  0  0
  8 15  1  0  0  0  0
  8 16  1  0  0  0  0
  8 17  1  0  0  0  0
M  END
> <PUBCHEM_COMPOUND_CID>
39

> <PUBCHEM_CONFORMER_RMSD>
0.4

> <PUBCHEM_CONFORMER_DIVERSEORDER>
2
1

> <PUBCHEM_MMFF94_PARTIAL_CHARGES>
7
1 -0.43
2 -0.57
3 -0.57
4 0.06
5 0.28
6 0.51
9 0.72

> <PUBCHEM_EFFECTIVE_ROTOR_COUNT>
0.6

> <PUBCHEM_PHARMACOPHORE_FEATURES>
4
1 2 acceptor
1 3 acceptor
3 4 7 8 hydrophobe
5 1 4 5 6 9 rings

> <PUBCHEM_HEAVY_ATOM_COUNT>
9

> <PUBCHEM_ATOM_DEF_STEREO_COUNT>
0

> <PUBCHEM_ATOM_UDEF_STEREO_COUNT>
0

> <PUBCHEM_BOND_DEF_STEREO_COUNT>
0

> <PUBCHEM_BOND_UDEF_STEREO_COUNT>
0

> <PUBCHEM_ISOTOPIC_ATOM_COUNT>
0

> <PUBCHEM_COMPONENT_COUNT>
1

> <PUBCHEM_CACTVS_TAUTO_COUNT>
1

> <PUBCHEM_CONFORMER_ID>
0000002700000002

> <PUBCHEM_MMFF94_ENERGY>
19.2329

> <PUBCHEM_FEATURE_SELFOVERLAP>
20.301

> <PUBCHEM_SHAPE_FINGERPRINT>
12423570 1 16456029639991364629
137420 1 6408442353826720967
15310529 11 16988847146662286800
16945 1 18336258011489087835
18185500 45 18115886237429076023
21040471 1 18121493557678481945
23552423 10 18054212495955746422
24536 1 18054797444346289163
29004967 10 18411130359557421785
369184 2 14634870872616848270
5084963 1 17704347758278550504

> <PUBCHEM_SHAPE_MULTIPOLES>
167.61
2.48
1.44
0.98
0.52
0.12
0.29
0.17
-0.04
0.18
-0.18
-0.62
-0.05
0.12

> <PUBCHEM_SHAPE_SELFOVERLAP>
344.72

> <PUBCHEM_SHAPE_VOLUME>
99.1

> <PUBCHEM_COORDINATE_TYPE>
2
5
10

$$$$

