4628
  -OEChem-07051213013D

 30 32  0     0  0  0  0  0  0999 V2000
   -4.0523    0.6245    0.1367 O   0  0  0  0  0  0  0  0  0  0  0  0
   -3.6816   -1.7335   -0.1849 O   0  0  0  0  0  0  0  0  0  0  0  0
    1.4100   -2.4292   -0.2596 O   0  0  0  0  0  0  0  0  0  0  0  0
    3.8788   -1.9272    0.4619 O   0  0  0  0  0  0  0  0  0  0  0  0
    4.6461    0.0412   -0.4139 O   0  0  0  0  0  0  0  0  0  0  0  0
    0.7730    1.5661    0.2854 N   0  0  0  0  0  0  0  0  0  0  0  0
   -0.3588    0.7231    0.1655 C   0  0  0  0  0  0  0  0  0  0  0  0
   -0.1684   -0.6777   -0.0256 C   0  0  0  0  0  0  0  0  0  0  0  0
   -1.6817    1.2038    0.2255 C   0  0  0  0  0  0  0  0  0  0  0  0
    0.5636    2.9988    0.4807 C   0  0  0  0  0  0  0  0  0  0  0  0
   -2.7282    0.3086    0.0986 C   0  0  0  0  0  0  0  0  0  0  0  0
   -2.5182   -1.0351   -0.0846 C   0  0  0  0  0  0  0  0  0  0  0  0
   -1.2493   -1.5643   -0.1517 C   0  0  0  0  0  0  0  0  0  0  0  0
    2.0406    1.0180    0.2155 C   0  0  0  0  0  0  0  0  0  0  0  0
    1.2100   -1.2320   -0.0957 C   0  0  0  0  0  0  0  0  0  0  0  0
    2.3343   -0.2750    0.0401 C   0  0  0  0  0  0  0  0  0  0  0  0
   -4.6505   -0.6750   -0.0440 C   0  0  0  0  0  0  0  0  0  0  0  0
    0.4896    3.7340   -0.8417 C   0  0  0  0  0  0  0  0  0  0  0  0
    3.7430   -0.6691   -0.0081 C   0  0  0  0  0  0  0  0  0  0  0  0
   -1.9255    2.2521    0.3517 H   0  0  0  0  0  0  0  0  0  0  0  0
   -0.2965    3.2278    1.1185 H   0  0  0  0  0  0  0  0  0  0  0  0
    1.4149    3.4105    1.0407 H   0  0  0  0  0  0  0  0  0  0  0  0
   -1.1079   -2.6298   -0.2970 H   0  0  0  0  0  0  0  0  0  0  0  0
    2.8228    1.7638    0.3211 H   0  0  0  0  0  0  0  0  0  0  0  0
   -5.2776   -0.6511   -0.9427 H   0  0  0  0  0  0  0  0  0  0  0  0
   -5.2853   -0.8930    0.8225 H   0  0  0  0  0  0  0  0  0  0  0  0
    1.3992    3.5805   -1.4320 H   0  0  0  0  0  0  0  0  0  0  0  0
   -0.3586    3.3933   -1.4438 H   0  0  0  0  0  0  0  0  0  0  0  0
    0.3742    4.8092   -0.6728 H   0  0  0  0  0  0  0  0  0  0  0  0
    4.8124   -2.2282    0.4452 H   0  0  0  0  0  0  0  0  0  0  0  0
  1 11  1  0  0  0  0
  1 17  1  0  0  0  0
  2 12  1  0  0  0  0
  2 17  1  0  0  0  0
  3 15  2  0  0  0  0
  4 19  1  0  0  0  0
  4 30  1  0  0  0  0
  5 19  2  0  0  0  0
  6  7  1  0  0  0  0
  6 10  1  0  0  0  0
  6 14  1  0  0  0  0
  7  8  1  0  0  0  0
  7  9  2  0  0  0  0
  8 13  2  0  0  0  0
  8 15  1  0  0  0  0
  9 11  1  0  0  0  0
  9 20  1  0  0  0  0
 10 18  1  0  0  0  0
 10 21  1  0  0  0  0
 10 22  1  0  0  0  0
 11 12  2  0  0  0  0
 12 13  1  0  0  0  0
 13 23  1  0  0  0  0
 14 16  2  0  0  0  0
 14 24  1  0  0  0  0
 15 16  1  0  0  0  0
 16 19  1  0  0  0  0
 17 25  1  0  0  0  0
 17 26  1  0  0  0  0
 18 27  1  0  0  0  0
 18 28  1  0  0  0  0
 18 29  1  0  0  0  0
M  END
> <PUBCHEM_COMPOUND_CID>
4628

> <PUBCHEM_CONFORMER_RMSD>
0.6

> <PUBCHEM_CONFORMER_DIVERSEORDER>
1
2

> <PUBCHEM_MMFF94_PARTIAL_CHARGES>
22
1 -0.36
10 0.37
11 0.08
12 0.08
13 -0.15
14 -0.05
15 0.47
16 0.03
17 0.56
19 0.71
2 -0.36
20 0.15
23 0.15
24 0.15
3 -0.57
30 0.5
4 -0.65
5 -0.57
6 -0.57
7 0.1
8 0.09
9 -0.15

> <PUBCHEM_EFFECTIVE_ROTOR_COUNT>
2.6

> <PUBCHEM_PHARMACOPHORE_FEATURES>
11
1 1 acceptor
1 16 anion
1 2 acceptor
1 3 acceptor
1 4 acceptor
1 5 acceptor
1 6 cation
3 4 5 19 anion
5 1 2 11 12 17 rings
6 6 7 8 14 15 16 rings
6 7 8 9 11 12 13 rings

> <PUBCHEM_HEAVY_ATOM_COUNT>
19

> <PUBCHEM_ATOM_DEF_STEREO_COUNT>
0

> <PUBCHEM_ATOM_UDEF_STEREO_COUNT>
0

> <PUBCHEM_BOND_DEF_STEREO_COUNT>
0

> <PUBCHEM_BOND_UDEF_STEREO_COUNT>
0

> <PUBCHEM_ISOTOPIC_ATOM_COUNT>
0

> <PUBCHEM_COMPONENT_COUNT>
1

> <PUBCHEM_CACTVS_TAUTO_COUNT>
1

> <PUBCHEM_CONFORMER_ID>
0000121400000001

> <PUBCHEM_MMFF94_ENERGY>
55.1368

> <PUBCHEM_FEATURE_SELFOVERLAP>
56.394

> <PUBCHEM_SHAPE_FINGERPRINT>
10062212 137 18334863805265765247
10967382 1 18337673005729020216
11132069 177 18335708264407728258
11471102 20 18337397050027956063
11680986 33 18122905330682367072
12032990 46 18408038533013304114
12403259 226 18341057320168896805
12553582 1 18410863169594666067
13132413 78 18408602573751424717
13140716 1 18192144898257170995
138480 1 18338798914105121193
13862211 1 18408609170842485046
14790565 3 18337379474932837520
15196674 1 18409167722675152482
15442244 35 18408603643488314729
15536298 74 18187930512773562008
16945 1 18409728418160951619
17804303 29 18334011679253283369
18785283 64 17983850095254926505
193761 8 17761212111881709914
200 152 18040442083733545111
20510252 161 18190745426218904920
20645477 70 18197509415763279391
20671657 1 18193270784999802965
21029758 11 18408325484057531985
21029758 27 18413100658667037269
21267235 1 18336537274494824647
21421861 104 17769091581294251986
21501502 16 18119246169371086127
221490 88 18196929968471443115
22182313 1 18268174018141344356
2255824 54 18267582403528190533
2334 1 18337111146982297616
23366157 5 17985834722206389640
23402539 116 18334303096989769542
23419403 2 17606150426294719552
23463225 33 18410573998342418562
23557571 272 18188764093264576244
23558518 356 17620485610021414594
23559900 14 18265341620790701953
25147074 1 18042676214331147987
2748010 2 18336840705723939760
3071541 12 18122342385066481000
3071541 158 18412826854528505533
3091708 16 9139455673383776536
335352 9 18409167736145506701
34934 24 18338240482715322907
5104073 3 18408041797188560499
537710 114 18411975858646200028
6992083 37 18263065773355393617
7164475 11 18198061585385724158
7364860 26 18191587445498229224
81228 2 18122326133015481448
8809292 202 18271241630050152811
9709674 26 18124597483815840027
9981440 41 17330280463551959193

> <PUBCHEM_SHAPE_MULTIPOLES>
356.68
7.23
3.1
0.68
1.42
2.86
0.02
-3.6
0.1
-1.23
0.39
-0.08
0.19
-0.24

> <PUBCHEM_SHAPE_SELFOVERLAP>
790.977

> <PUBCHEM_SHAPE_VOLUME>
189.3

> <PUBCHEM_COORDINATE_TYPE>
2
5
10

$$$$

