636822
  -OEChem-07051213113D

 31 31  0     0  0  0  0  0  0999 V2000
   -1.2981   -2.3856    0.3322 O   0  0  0  0  0  0  0  0  0  0  0  0
    2.1218    1.8956   -0.2951 O   0  0  0  0  0  0  0  0  0  0  0  0
    3.0979   -0.7055   -0.3520 O   0  0  0  0  0  0  0  0  0  0  0  0
   -0.9573   -0.0103    0.2050 C   0  0  0  0  0  0  0  0  0  0  0  0
   -0.4669   -1.3158    0.1777 C   0  0  0  0  0  0  0  0  0  0  0  0
    1.2787    0.8366   -0.1419 C   0  0  0  0  0  0  0  0  0  0  0  0
    1.7690   -0.4689   -0.1693 C   0  0  0  0  0  0  0  0  0  0  0  0
   -0.0844    1.0659    0.0452 C   0  0  0  0  0  0  0  0  0  0  0  0
    0.8962   -1.5451   -0.0093 C   0  0  0  0  0  0  0  0  0  0  0  0
   -2.3762    0.2558    0.4009 C   0  0  0  0  0  0  0  0  0  0  0  0
   -3.0515    1.3271   -0.0696 C   0  0  0  0  0  0  0  0  0  0  0  0
   -1.8725   -2.9346   -0.8516 C   0  0  0  0  0  0  0  0  0  0  0  0
    1.5409    3.1976   -0.2548 C   0  0  0  0  0  0  0  0  0  0  0  0
   -4.5083    1.5639    0.1644 C   0  0  0  0  0  0  0  0  0  0  0  0
    3.9106   -0.7767    0.8181 C   0  0  0  0  0  0  0  0  0  0  0  0
   -0.4918    2.0684    0.0997 H   0  0  0  0  0  0  0  0  0  0  0  0
    1.2790   -2.5625   -0.0306 H   0  0  0  0  0  0  0  0  0  0  0  0
   -2.9241   -0.4823    0.9826 H   0  0  0  0  0  0  0  0  0  0  0  0
   -2.5543    2.0789   -0.6761 H   0  0  0  0  0  0  0  0  0  0  0  0
   -2.5360   -3.7540   -0.5616 H   0  0  0  0  0  0  0  0  0  0  0  0
   -1.0904   -3.3336   -1.5055 H   0  0  0  0  0  0  0  0  0  0  0  0
   -2.4603   -2.1826   -1.3870 H   0  0  0  0  0  0  0  0  0  0  0  0
    1.1016    3.4140    0.7251 H   0  0  0  0  0  0  0  0  0  0  0  0
    0.8324    3.3511   -1.0760 H   0  0  0  0  0  0  0  0  0  0  0  0
    2.3541    3.9162   -0.4014 H   0  0  0  0  0  0  0  0  0  0  0  0
   -4.6518    2.5161    0.6841 H   0  0  0  0  0  0  0  0  0  0  0  0
   -5.0365    1.6107   -0.7928 H   0  0  0  0  0  0  0  0  0  0  0  0
   -4.9647    0.7732    0.7680 H   0  0  0  0  0  0  0  0  0  0  0  0
    3.5852   -1.6008    1.4610 H   0  0  0  0  0  0  0  0  0  0  0  0
    3.8750    0.1676    1.3704 H   0  0  0  0  0  0  0  0  0  0  0  0
    4.9426   -0.9616    0.5078 H   0  0  0  0  0  0  0  0  0  0  0  0
  1  5  1  0  0  0  0
  1 12  1  0  0  0  0
  2  6  1  0  0  0  0
  2 13  1  0  0  0  0
  3  7  1  0  0  0  0
  3 15  1  0  0  0  0
  4  5  1  0  0  0  0
  4  8  2  0  0  0  0
  4 10  1  0  0  0  0
  5  9  2  0  0  0  0
  6  7  2  0  0  0  0
  6  8  1  0  0  0  0
  7  9  1  0  0  0  0
  8 16  1  0  0  0  0
  9 17  1  0  0  0  0
 10 11  2  0  0  0  0
 10 18  1  0  0  0  0
 11 14  1  0  0  0  0
 11 19  1  0  0  0  0
 12 20  1  0  0  0  0
 12 21  1  0  0  0  0
 12 22  1  0  0  0  0
 13 23  1  0  0  0  0
 13 24  1  0  0  0  0
 13 25  1  0  0  0  0
 14 26  1  0  0  0  0
 14 27  1  0  0  0  0
 14 28  1  0  0  0  0
 15 29  1  0  0  0  0
 15 30  1  0  0  0  0
 15 31  1  0  0  0  0
M  END
> <PUBCHEM_COMPOUND_CID>
636822

> <PUBCHEM_CONFORMER_RMSD>
0.6

> <PUBCHEM_CONFORMER_DIVERSEORDER>
5
9
11
7
1
10
8
3
6
4
2

> <PUBCHEM_MMFF94_PARTIAL_CHARGES>
19
1 -0.36
10 -0.18
11 -0.29
12 0.28
13 0.28
14 0.14
15 0.28
16 0.15
17 0.15
18 0.15
19 0.15
2 -0.36
3 -0.36
4 0.03
5 0.08
6 0.08
7 0.08
8 -0.15
9 -0.15

> <PUBCHEM_EFFECTIVE_ROTOR_COUNT>
4

> <PUBCHEM_PHARMACOPHORE_FEATURES>
5
1 1 acceptor
1 14 hydrophobe
1 2 acceptor
1 3 acceptor
6 4 5 6 7 8 9 rings

> <PUBCHEM_HEAVY_ATOM_COUNT>
15

> <PUBCHEM_ATOM_DEF_STEREO_COUNT>
0

> <PUBCHEM_ATOM_UDEF_STEREO_COUNT>
0

> <PUBCHEM_BOND_DEF_STEREO_COUNT>
1

> <PUBCHEM_BOND_UDEF_STEREO_COUNT>
0

> <PUBCHEM_ISOTOPIC_ATOM_COUNT>
0

> <PUBCHEM_COMPONENT_COUNT>
1

> <PUBCHEM_CACTVS_TAUTO_COUNT>
1

> <PUBCHEM_CONFORMER_ID>
0009B79600000005

> <PUBCHEM_MMFF94_ENERGY>
69.3217

> <PUBCHEM_FEATURE_SELFOVERLAP>
25.376

> <PUBCHEM_SHAPE_FINGERPRINT>
1 1 18268427005052894759
10756046 5 18265041449547116948
10967382 1 18267301108881837096
11471102 20 18196091273317814701
12507560 14 18266464393586832578
13140716 1 18412264995575548112
13380535 76 18335702788303593039
13380536 305 18338791320866237773
13380536 55 18122343471613793476
13836976 161 18338517547245833213
13922767 16 18339924917196459713
14251717 144 18266741462386130909
14648413 74 18340198588359739072
14911166 2 18337662130977322094
14993402 34 18338229491751373326
15279308 100 18339349808164080932
15442244 35 18411704244608419738
16945 1 18336535105673087466
18186145 218 18262230123117150477
18511873 20 18412828009932269200
193761 8 18266739069498477256
20233049 118 18058727051786258828
20511035 2 18057866005279612293
20606313 2 18267864072042128085
20645476 183 17487869324949503102
20671657 1 18341605975870283612
20711985 365 18336829667510484375
21501502 16 18267586805974923620
21524375 3 18343299310224283523
22094290 62 18412542115339616049
2334 1 18194679255088966904
23402539 116 18189911978876976270
23402655 69 18121227734449211189
23419403 2 16750510344488614074
23552423 10 18126001564274581382
23558518 356 18127693720937962107
23559900 14 18261105301816525894
2748010 2 18265888064810245260
3060560 45 18265054820038694255
34934 24 18412829109934754202
350125 39 18267015055596693521
4072396 5 17984435293138584169
589210 1 18194964045638174205
69090 78 18410015450846526715
7164475 11 18191595142311628567
74978 22 18410854326341289196
7832392 63 18410857642314452562
81228 2 17981894042994774603

> <PUBCHEM_SHAPE_MULTIPOLES>
291.09
5.86
3.2
0.74
2.03
0.03
0
1.79
-0.75
0.46
0.66
-0.07
-0.15
-0.6

> <PUBCHEM_SHAPE_SELFOVERLAP>
593.869

> <PUBCHEM_SHAPE_VOLUME>
170.8

> <PUBCHEM_COORDINATE_TYPE>
2
5
10

$$$$

