12313974
  -OEChem-07051213153D

 81 84  0     1  0  0  0  0  0999 V2000
    7.3667    0.3657    1.1788 O   0  0  0  0  0  0  0  0  0  0  0  0
   -0.5198   -0.7551   -0.3340 C   0  0  2  0  0  0  0  0  0  0  0  0
   -1.1697    0.6656   -0.4775 C   0  0  1  0  0  0  0  0  0  0  0  0
    0.9988   -0.6609   -0.6944 C   0  0  1  0  0  0  0  0  0  0  0  0
   -2.6783    0.3348   -0.3576 C   0  0  2  0  0  0  0  0  0  0  0  0
    3.2262    0.6309   -0.1360 C   0  0  2  0  0  0  0  0  0  0  0  0
    1.6772    0.5346    0.0181 C   0  0  0  0  0  0  0  0  0  0  0  0
    3.8614   -0.7752    0.1779 C   0  0  1  0  0  0  0  0  0  0  0  0
   -1.3945   -1.5809   -1.2927 C   0  0  0  0  0  0  0  0  0  0  0  0
   -2.8170   -1.0009   -1.1304 C   0  0  0  0  0  0  0  0  0  0  0  0
   -0.5826    1.5608    0.6242 C   0  0  0  0  0  0  0  0  0  0  0  0
    1.7442   -1.9838   -0.4506 C   0  0  0  0  0  0  0  0  0  0  0  0
    3.2432   -1.8765   -0.7094 C   0  0  0  0  0  0  0  0  0  0  0  0
    5.4351   -0.8371    0.2612 C   0  0  0  0  0  0  0  0  0  0  0  0
   -0.6937   -1.3766    1.0935 C   0  0  0  0  0  0  0  0  0  0  0  0
    0.9316    1.4850    0.6361 C   0  0  0  0  0  0  0  0  0  0  0  0
    3.8600    1.6766    0.8254 C   0  0  0  0  0  0  0  0  0  0  0  0
   -0.9042    1.3533   -1.8559 C   0  0  0  0  0  0  0  0  0  0  0  0
   -3.6646    1.3940   -0.8372 C   0  0  1  0  0  0  0  0  0  0  0  0
    5.9409    0.3006    1.1933 C   0  0  2  0  0  0  0  0  0  0  0  0
    5.3845    1.6723    0.8346 C   0  0  0  0  0  0  0  0  0  0  0  0
    3.4520    1.1255   -1.5877 C   0  0  0  0  0  0  0  0  0  0  0  0
    6.1370   -0.7928   -1.1126 C   0  0  0  0  0  0  0  0  0  0  0  0
    5.8686   -2.1810    0.9145 C   0  0  0  0  0  0  0  0  0  0  0  0
   -5.1346    0.9611   -0.6510 C   0  0  0  0  0  0  0  0  0  0  0  0
   -3.4222    2.7073   -0.0845 C   0  0  0  0  0  0  0  0  0  0  0  0
   -5.5664    0.7119    0.8010 C   0  0  0  0  0  0  0  0  0  0  0  0
   -7.0211    0.3521    0.9204 C   0  0  0  0  0  0  0  0  0  0  0  0
   -7.5965   -0.8585    0.7913 C   0  0  0  0  0  0  0  0  0  0  0  0
   -9.0858   -1.0122    0.9563 C   0  0  0  0  0  0  0  0  0  0  0  0
   -6.8761   -2.1406    0.4849 C   0  0  0  0  0  0  0  0  0  0  0  0
    1.0786   -0.4716   -1.7731 H   0  0  0  0  0  0  0  0  0  0  0  0
   -2.8955    0.1434    0.6983 H   0  0  0  0  0  0  0  0  0  0  0  0
    3.5301   -1.0085    1.2046 H   0  0  0  0  0  0  0  0  0  0  0  0
   -1.3769   -2.6547   -1.0776 H   0  0  0  0  0  0  0  0  0  0  0  0
   -1.0639   -1.4636   -2.3313 H   0  0  0  0  0  0  0  0  0  0  0  0
   -3.2686   -0.8685   -2.1199 H   0  0  0  0  0  0  0  0  0  0  0  0
   -3.4519   -1.6960   -0.5699 H   0  0  0  0  0  0  0  0  0  0  0  0
   -0.9616    1.2946    1.6173 H   0  0  0  0  0  0  0  0  0  0  0  0
   -0.8392    2.6112    0.4652 H   0  0  0  0  0  0  0  0  0  0  0  0
    1.3236   -2.7684   -1.0908 H   0  0  0  0  0  0  0  0  0  0  0  0
    1.6241   -2.3224    0.5841 H   0  0  0  0  0  0  0  0  0  0  0  0
    3.6789   -2.8547   -0.4877 H   0  0  0  0  0  0  0  0  0  0  0  0
    3.4271   -1.6919   -1.7721 H   0  0  0  0  0  0  0  0  0  0  0  0
   -0.0417   -0.9054    1.8355 H   0  0  0  0  0  0  0  0  0  0  0  0
   -1.7144   -1.3145    1.4779 H   0  0  0  0  0  0  0  0  0  0  0  0
   -0.4567   -2.4467    1.0854 H   0  0  0  0  0  0  0  0  0  0  0  0
    1.4055    2.3264    1.1310 H   0  0  0  0  0  0  0  0  0  0  0  0
    3.5169    1.4878    1.8520 H   0  0  0  0  0  0  0  0  0  0  0  0
    3.5304    2.6905    0.5639 H   0  0  0  0  0  0  0  0  0  0  0  0
   -1.3207    0.7811   -2.6910 H   0  0  0  0  0  0  0  0  0  0  0  0
   -1.3333    2.3566   -1.9111 H   0  0  0  0  0  0  0  0  0  0  0  0
    0.1595    1.4891   -2.0686 H   0  0  0  0  0  0  0  0  0  0  0  0
   -3.5364    1.5833   -1.9099 H   0  0  0  0  0  0  0  0  0  0  0  0
    5.6426    0.0841    2.2282 H   0  0  0  0  0  0  0  0  0  0  0  0
    5.7914    2.0166   -0.1223 H   0  0  0  0  0  0  0  0  0  0  0  0
    5.7429    2.4060    1.5682 H   0  0  0  0  0  0  0  0  0  0  0  0
    3.1743    0.3832   -2.3410 H   0  0  0  0  0  0  0  0  0  0  0  0
    2.8478    2.0200   -1.7896 H   0  0  0  0  0  0  0  0  0  0  0  0
    4.4820    1.4193   -1.7868 H   0  0  0  0  0  0  0  0  0  0  0  0
    7.2051   -1.0236   -1.0169 H   0  0  0  0  0  0  0  0  0  0  0  0
    6.0821    0.1856   -1.5882 H   0  0  0  0  0  0  0  0  0  0  0  0
    5.7218   -1.5311   -1.8053 H   0  0  0  0  0  0  0  0  0  0  0  0
    5.3778   -2.3270    1.8832 H   0  0  0  0  0  0  0  0  0  0  0  0
    6.9498   -2.2258    1.0831 H   0  0  0  0  0  0  0  0  0  0  0  0
    5.6271   -3.0412    0.2828 H   0  0  0  0  0  0  0  0  0  0  0  0
   -5.3278    0.0608   -1.2474 H   0  0  0  0  0  0  0  0  0  0  0  0
   -5.7815    1.7384   -1.0814 H   0  0  0  0  0  0  0  0  0  0  0  0
   -3.2607    2.5516    0.9871 H   0  0  0  0  0  0  0  0  0  0  0  0
   -2.5831    3.2732   -0.4908 H   0  0  0  0  0  0  0  0  0  0  0  0
   -4.2883    3.3724   -0.1876 H   0  0  0  0  0  0  0  0  0  0  0  0
    7.7064   -0.3694    1.7154 H   0  0  0  0  0  0  0  0  0  0  0  0
   -5.3947    1.6047    1.4128 H   0  0  0  0  0  0  0  0  0  0  0  0
   -4.9660   -0.0830    1.2548 H   0  0  0  0  0  0  0  0  0  0  0  0
   -7.6683    1.2033    1.1296 H   0  0  0  0  0  0  0  0  0  0  0  0
   -9.5822   -0.0624    1.1813 H   0  0  0  0  0  0  0  0  0  0  0  0
   -9.5297   -1.4086    0.0372 H   0  0  0  0  0  0  0  0  0  0  0  0
   -9.3066   -1.7039    1.7759 H   0  0  0  0  0  0  0  0  0  0  0  0
   -7.2651   -2.5812   -0.4390 H   0  0  0  0  0  0  0  0  0  0  0  0
   -5.8003   -2.0010    0.3524 H   0  0  0  0  0  0  0  0  0  0  0  0
   -7.0188   -2.8588    1.2988 H   0  0  0  0  0  0  0  0  0  0  0  0
  1 20  1  0  0  0  0
  1 72  1  0  0  0  0
  2  3  1  0  0  0  0
  2  4  1  0  0  0  0
  2  9  1  0  0  0  0
  2 15  1  0  0  0  0
  3  5  1  0  0  0  0
  3 11  1  0  0  0  0
  3 18  1  0  0  0  0
  4  7  1  0  0  0  0
  4 12  1  0  0  0  0
  4 32  1  0  0  0  0
  5 10  1  0  0  0  0
  5 19  1  0  0  0  0
  5 33  1  0  0  0  0
  6  7  1  0  0  0  0
  6  8  1  0  0  0  0
  6 17  1  0  0  0  0
  6 22  1  0  0  0  0
  7 16  2  0  0  0  0
  8 13  1  0  0  0  0
  8 14  1  0  0  0  0
  8 34  1  0  0  0  0
  9 10  1  0  0  0  0
  9 35  1  0  0  0  0
  9 36  1  0  0  0  0
 10 37  1  0  0  0  0
 10 38  1  0  0  0  0
 11 16  1  0  0  0  0
 11 39  1  0  0  0  0
 11 40  1  0  0  0  0
 12 13  1  0  0  0  0
 12 41  1  0  0  0  0
 12 42  1  0  0  0  0
 13 43  1  0  0  0  0
 13 44  1  0  0  0  0
 14 20  1  0  0  0  0
 14 23  1  0  0  0  0
 14 24  1  0  0  0  0
 15 45  1  0  0  0  0
 15 46  1  0  0  0  0
 15 47  1  0  0  0  0
 16 48  1  0  0  0  0
 17 21  1  0  0  0  0
 17 49  1  0  0  0  0
 17 50  1  0  0  0  0
 18 51  1  0  0  0  0
 18 52  1  0  0  0  0
 18 53  1  0  0  0  0
 19 25  1  0  0  0  0
 19 26  1  0  0  0  0
 19 54  1  0  0  0  0
 20 21  1  0  0  0  0
 20 55  1  0  0  0  0
 21 56  1  0  0  0  0
 21 57  1  0  0  0  0
 22 58  1  0  0  0  0
 22 59  1  0  0  0  0
 22 60  1  0  0  0  0
 23 61  1  0  0  0  0
 23 62  1  0  0  0  0
 23 63  1  0  0  0  0
 24 64  1  0  0  0  0
 24 65  1  0  0  0  0
 24 66  1  0  0  0  0
 25 27  1  0  0  0  0
 25 67  1  0  0  0  0
 25 68  1  0  0  0  0
 26 69  1  0  0  0  0
 26 70  1  0  0  0  0
 26 71  1  0  0  0  0
 27 28  1  0  0  0  0
 27 73  1  0  0  0  0
 27 74  1  0  0  0  0
 28 29  2  0  0  0  0
 28 75  1  0  0  0  0
 29 30  1  0  0  0  0
 29 31  1  0  0  0  0
 30 76  1  0  0  0  0
 30 77  1  0  0  0  0
 30 78  1  0  0  0  0
 31 79  1  0  0  0  0
 31 80  1  0  0  0  0
 31 81  1  0  0  0  0
M  END
> <PUBCHEM_COMPOUND_CID>
12313974

> <PUBCHEM_CONFORMER_RMSD>
0.8

> <PUBCHEM_CONFORMER_DIVERSEORDER>
5
10
4
6
3
9
1
8
2
7

> <PUBCHEM_MMFF94_PARTIAL_CHARGES>
15
1 -0.68
11 0.14
16 -0.29
20 0.28
27 0.14
28 -0.29
29 -0.28
30 0.14
31 0.14
4 0.14
48 0.15
6 0.14
7 -0.28
72 0.4
75 0.15

> <PUBCHEM_EFFECTIVE_ROTOR_COUNT>
6

> <PUBCHEM_PHARMACOPHORE_FEATURES>
10
1 1 acceptor
1 1 donor
1 26 hydrophobe
3 14 23 24 hydrophobe
3 29 30 31 hydrophobe
4 19 25 27 28 hydrophobe
5 2 3 5 9 10 rings
6 2 3 4 7 11 16 rings
6 4 6 7 8 12 13 rings
6 6 8 14 17 20 21 rings

> <PUBCHEM_HEAVY_ATOM_COUNT>
31

> <PUBCHEM_ATOM_DEF_STEREO_COUNT>
8

> <PUBCHEM_ATOM_UDEF_STEREO_COUNT>
0

> <PUBCHEM_BOND_DEF_STEREO_COUNT>
0

> <PUBCHEM_BOND_UDEF_STEREO_COUNT>
0

> <PUBCHEM_ISOTOPIC_ATOM_COUNT>
0

> <PUBCHEM_COMPONENT_COUNT>
1

> <PUBCHEM_CACTVS_TAUTO_COUNT>
1

> <PUBCHEM_CONFORMER_ID>
00BBE57600000005

> <PUBCHEM_MMFF94_ENERGY>
121.6565

> <PUBCHEM_FEATURE_SELFOVERLAP>
50.843

> <PUBCHEM_SHAPE_FINGERPRINT>
10 15 18411420574782316216
11456790 92 17458632254579460242
11578080 2 16879369804349721754
11646440 116 17675925412712759913
11963148 33 18272937120204747795
12166972 35 18201433688136748260
12730499 353 18335138721911843478
12788726 201 16515684497870370800
13073987 5 18187926243797810753
13533116 47 14129334135512613948
13692114 37 17918273117172346283
13782708 43 18131070488777330011
13914758 101 8142091952850842127
14028597 1 17385719244552725747
14251764 18 18187085035992985461
14849402 71 17822296717382609169
14955137 171 18342735187771872413
15064981 113 13470425331707358579
15183329 4 18041006154035062500
15196674 1 18261403239070449142
15301273 46 18202006538701423285
15352257 5 18413668003015704291
18335252 98 18272087197514996666
18608769 82 18409450263336561083
20105231 36 18114170960841470358
21130935 74 18270402831542938098
21267235 1 18334289903119066710
21424621 283 5184073617817437415
21623969 137 18334853935525656603
21781051 124 18270385131777027879
21792934 111 18411985771863593077
22149856 69 18189035625782503921
23522609 53 18125405749712368773
23559900 14 18113627785676484704
23569943 247 17341544299238734578
3009799 131 9295289435219100173
3178227 256 18187363216634938689
335352 9 18260835925694096958
3383291 50 18130787841765353635
34797466 226 17385443228911691652
350125 39 18408042922316757124
4093350 32 16298103203381666814
4340502 62 18408885139602167303
504579 68 10519704531390376274
5104073 3 18264770033668825537
9996256 80 18411981360541633987

> <PUBCHEM_SHAPE_MULTIPOLES>
632.1
20.62
2.32
1.36
22.84
0.02
-0.24
5.64
8.8
0.15
0.03
-0.34
-0.08
1

> <PUBCHEM_SHAPE_SELFOVERLAP>
1314.925

> <PUBCHEM_SHAPE_VOLUME>
360.3

> <PUBCHEM_COORDINATE_TYPE>
2
5
10

$$$$

