440135
  -OEChem-07051212483D

 32 33  0     0  0  0  0  0  0999 V2000
   -0.8548   -1.6726   -3.0454 I   0  0  0  0  0  0  0  0  0  0  0  0
   -0.8172   -1.6310    3.0572 I   0  0  0  0  0  0  0  0  0  0  0  0
   -2.2999    3.5171   -0.0200 I   0  0  0  0  0  0  0  0  0  0  0  0
   -1.8897   -1.8599    0.0139 O   0  0  0  0  0  0  0  0  0  0  0  0
    3.1502    1.6264   -0.0808 O   0  0  0  0  0  0  0  0  0  0  0  0
   -5.3745    2.4134    0.0066 O   0  0  0  0  0  0  0  0  0  0  0  0
    5.5343    2.4417    0.0030 O   0  0  0  0  0  0  0  0  0  0  0  0
    6.3041    0.2824    0.1007 O   0  0  0  0  0  0  0  0  0  0  0  0
    2.1865   -1.0519   -0.0168 C   0  0  0  0  0  0  0  0  0  0  0  0
    3.6495   -0.7618   -0.0279 C   0  0  0  0  0  0  0  0  0  0  0  0
   -0.5498   -1.5945    0.0038 C   0  0  0  0  0  0  0  0  0  0  0  0
    1.4950   -1.1961   -1.2197 C   0  0  0  0  0  0  0  0  0  0  0  0
    1.5100   -1.1793    1.1963 C   0  0  0  0  0  0  0  0  0  0  0  0
    0.1268   -1.4674   -1.2093 C   0  0  0  0  0  0  0  0  0  0  0  0
    0.1418   -1.4506    1.2066 C   0  0  0  0  0  0  0  0  0  0  0  0
   -2.7545   -0.7812    0.0118 C   0  0  0  0  0  0  0  0  0  0  0  0
    3.9681    0.7192   -0.0400 C   0  0  0  0  0  0  0  0  0  0  0  0
   -2.2356    0.5021    0.0000 C   0  0  0  0  0  0  0  0  0  0  0  0
   -4.1197   -1.0099    0.0218 C   0  0  0  0  0  0  0  0  0  0  0  0
   -3.1086    1.5901   -0.0019 C   0  0  0  0  0  0  0  0  0  0  0  0
   -4.9928    0.0780    0.0201 C   0  0  0  0  0  0  0  0  0  0  0  0
   -4.4872    1.3780    0.0080 C   0  0  0  0  0  0  0  0  0  0  0  0
    5.4180    1.1079    0.0120 C   0  0  0  0  0  0  0  0  0  0  0  0
    4.1157   -1.2204   -0.9083 H   0  0  0  0  0  0  0  0  0  0  0  0
    4.1216   -1.2096    0.8550 H   0  0  0  0  0  0  0  0  0  0  0  0
    2.0324   -1.0925   -2.1599 H   0  0  0  0  0  0  0  0  0  0  0  0
    2.0587   -1.0628    2.1283 H   0  0  0  0  0  0  0  0  0  0  0  0
   -1.1732    0.7195   -0.0080 H   0  0  0  0  0  0  0  0  0  0  0  0
   -4.5148   -2.0213    0.0311 H   0  0  0  0  0  0  0  0  0  0  0  0
   -6.0655   -0.0952    0.0280 H   0  0  0  0  0  0  0  0  0  0  0  0
   -4.8704    3.2453   -0.0022 H   0  0  0  0  0  0  0  0  0  0  0  0
    6.4689    2.7340    0.0605 H   0  0  0  0  0  0  0  0  0  0  0  0
  1 14  1  0  0  0  0
  2 15  1  0  0  0  0
  3 20  1  0  0  0  0
  4 11  1  0  0  0  0
  4 16  1  0  0  0  0
  5 17  2  0  0  0  0
  6 22  1  0  0  0  0
  6 31  1  0  0  0  0
  7 23  1  0  0  0  0
  7 32  1  0  0  0  0
  8 23  2  0  0  0  0
  9 10  1  0  0  0  0
  9 12  2  0  0  0  0
  9 13  1  0  0  0  0
 10 17  1  0  0  0  0
 10 24  1  0  0  0  0
 10 25  1  0  0  0  0
 11 14  2  0  0  0  0
 11 15  1  0  0  0  0
 12 14  1  0  0  0  0
 12 26  1  0  0  0  0
 13 15  2  0  0  0  0
 13 27  1  0  0  0  0
 16 18  2  0  0  0  0
 16 19  1  0  0  0  0
 17 23  1  0  0  0  0
 18 20  1  0  0  0  0
 18 28  1  0  0  0  0
 19 21  2  0  0  0  0
 19 29  1  0  0  0  0
 20 22  2  0  0  0  0
 21 22  1  0  0  0  0
 21 30  1  0  0  0  0
M  END
> <PUBCHEM_COMPOUND_CID>
440135

> <PUBCHEM_CONFORMER_RMSD>
0.8

> <PUBCHEM_CONFORMER_DIVERSEORDER>
1
9
47
30
28
45
43
51
40
49
44
38
52
32
26
50
34
46
11
48
3
25
27
39
37
13
35
23
14
29
31
33
42
21
17
41
7
2
36
24
16
10
12
22
15
4
18
8
19
5
20
6

> <PUBCHEM_MMFF94_PARTIAL_CHARGES>
30
1 -0.08
10 0.2
11 0.08
12 -0.15
13 -0.15
14 0.08
15 0.08
16 0.08
17 0.51
18 -0.15
19 -0.15
2 -0.08
20 0.08
21 -0.15
22 0.08
23 0.72
26 0.15
27 0.15
28 0.15
29 0.15
3 -0.08
30 0.15
31 0.45
32 0.5
4 -0.17
5 -0.57
6 -0.53
7 -0.65
8 -0.57
9 -0.14

> <PUBCHEM_EFFECTIVE_ROTOR_COUNT>
5

> <PUBCHEM_PHARMACOPHORE_FEATURES>
11
1 1 hydrophobe
1 2 hydrophobe
1 3 hydrophobe
1 4 acceptor
1 5 acceptor
1 6 donor
1 7 acceptor
1 8 acceptor
3 7 8 23 anion
6 16 18 19 20 21 22 rings
6 9 11 12 13 14 15 rings

> <PUBCHEM_HEAVY_ATOM_COUNT>
23

> <PUBCHEM_ATOM_DEF_STEREO_COUNT>
0

> <PUBCHEM_ATOM_UDEF_STEREO_COUNT>
0

> <PUBCHEM_BOND_DEF_STEREO_COUNT>
0

> <PUBCHEM_BOND_UDEF_STEREO_COUNT>
0

> <PUBCHEM_ISOTOPIC_ATOM_COUNT>
0

> <PUBCHEM_COMPONENT_COUNT>
1

> <PUBCHEM_CACTVS_TAUTO_COUNT>
6

> <PUBCHEM_CONFORMER_ID>
0006B74700000001

> <PUBCHEM_MMFF94_ENERGY>
68.1135

> <PUBCHEM_FEATURE_SELFOVERLAP>
55.887

> <PUBCHEM_SHAPE_FINGERPRINT>
10165383 225 17240760679819294871
10498660 4 18338797952686132981
11796584 16 9943535110839416963
12596602 18 17203610354621589392
12895836 83 17749395831889515596
12895837 130 18116717297017711860
12969540 114 16588032302980402858
13103583 49 12679176158973573557
13140716 1 15553591886671372070
133893 2 17025968991273282526
13402501 40 18335421261676777936
13911987 19 16660361476184689414
13965767 371 17052731237816702901
14251751 18 9439401337001604280
14251764 38 18191301778760012208
14341114 328 18272092725011345209
14739800 52 18341065063931583168
14787075 74 17988079968480223795
15163728 17 17822838892451884293
15209294 21 17918277541088302186
15238133 3 18131342000025877036
15961568 22 18410009970331744077
17980427 23 18413105057299027269
17980427 26 18199481024216084510
20511986 3 17702958049555607863
21756936 100 18338526252833441886
21857420 4 5163895130936835576
23114952 82 17388249306849820303
23227448 37 18336265635108863975
23419403 2 16619563822696303039
23559900 14 18046061829054644655
244849 19 18126819751434878954
2838139 119 18335707130652601500
3472631 163 18266742562087844845
392239 28 17916851440510998273
44802255 64 17968931990857397502
46194498 28 17534055548093321613
474 4 17989484100072273838
5104073 3 17988638657725659843
56616090 13 18411704283115406616
5951187 136 17255692313939256205
7237137 82 16878793664736707862
7288768 16 17917712396248064728
7808743 9 18409171038785485593
9981440 41 18343295959628158019

> <PUBCHEM_SHAPE_MULTIPOLES>
479.79
11.06
3.22
2.16
10.26
2.99
0.03
9.15
0.09
-1.47
-0.07
-0.55
-2.37
0

> <PUBCHEM_SHAPE_SELFOVERLAP>
966.465

> <PUBCHEM_SHAPE_VOLUME>
289.9

> <PUBCHEM_COORDINATE_TYPE>
2
5
10

$$$$

