97250
  -OEChem-07051212513D

 19 20  0     0  0  0  0  0  0999 V2000
   -1.3712   -2.4488    0.0000 O   0  0  0  0  0  0  0  0  0  0  0  0
    3.3411   -0.9434   -0.0009 O   0  0  0  0  0  0  0  0  0  0  0  0
    1.0397   -1.0209    0.0005 N   0  0  0  0  0  0  0  0  0  0  0  0
   -0.1981   -0.3525    0.0005 C   0  0  0  0  0  0  0  0  0  0  0  0
   -0.2242    1.0470    0.0004 C   0  0  0  0  0  0  0  0  0  0  0  0
   -1.3853   -1.0871    0.0003 C   0  0  0  0  0  0  0  0  0  0  0  0
   -1.4544    1.7111   -0.0004 C   0  0  0  0  0  0  0  0  0  0  0  0
    1.0408    1.7777    0.0003 C   0  0  0  0  0  0  0  0  0  0  0  0
   -2.6084   -0.4170   -0.0003 C   0  0  0  0  0  0  0  0  0  0  0  0
   -2.6430    0.9780   -0.0005 C   0  0  0  0  0  0  0  0  0  0  0  0
    2.2559   -0.3660    0.0000 C   0  0  0  0  0  0  0  0  0  0  0  0
    2.2069    1.1218    0.0001 C   0  0  0  0  0  0  0  0  0  0  0  0
    1.0314   -2.0370    0.0004 H   0  0  0  0  0  0  0  0  0  0  0  0
   -1.5017    2.7971   -0.0006 H   0  0  0  0  0  0  0  0  0  0  0  0
    1.0178    2.8620    0.0003 H   0  0  0  0  0  0  0  0  0  0  0  0
   -3.5443   -0.9695   -0.0007 H   0  0  0  0  0  0  0  0  0  0  0  0
   -3.5979    1.4960   -0.0010 H   0  0  0  0  0  0  0  0  0  0  0  0
    3.1503    1.6561    0.0000 H   0  0  0  0  0  0  0  0  0  0  0  0
   -2.2871   -2.7759   -0.0003 H   0  0  0  0  0  0  0  0  0  0  0  0
  1  6  1  0  0  0  0
  1 19  1  0  0  0  0
  2 11  2  0  0  0  0
  3  4  1  0  0  0  0
  3 11  1  0  0  0  0
  3 13  1  0  0  0  0
  4  5  2  0  0  0  0
  4  6  1  0  0  0  0
  5  7  1  0  0  0  0
  5  8  1  0  0  0  0
  6  9  2  0  0  0  0
  7 10  2  0  0  0  0
  7 14  1  0  0  0  0
  8 12  2  0  0  0  0
  8 15  1  0  0  0  0
  9 10  1  0  0  0  0
  9 16  1  0  0  0  0
 10 17  1  0  0  0  0
 11 12  1  0  0  0  0
 12 18  1  0  0  0  0
M  END
> <PUBCHEM_COMPOUND_CID>
97250

> <PUBCHEM_CONFORMER_RMSD>
0.4

> <PUBCHEM_CONFORMER_DIVERSEORDER>
1

> <PUBCHEM_MMFF94_PARTIAL_CHARGES>
19
1 -0.53
10 -0.15
11 0.62
12 -0.14
13 0.37
14 0.15
15 0.15
16 0.15
17 0.15
18 0.15
19 0.45
2 -0.57
3 -0.55
4 0.12
5 0.03
6 0.08
7 -0.15
8 -0.18
9 -0.15

> <PUBCHEM_EFFECTIVE_ROTOR_COUNT>
0

> <PUBCHEM_PHARMACOPHORE_FEATURES>
5
1 1 donor
1 2 acceptor
1 3 donor
6 3 4 5 8 11 12 rings
6 4 5 6 7 9 10 rings

> <PUBCHEM_HEAVY_ATOM_COUNT>
12

> <PUBCHEM_ATOM_DEF_STEREO_COUNT>
0

> <PUBCHEM_ATOM_UDEF_STEREO_COUNT>
0

> <PUBCHEM_BOND_DEF_STEREO_COUNT>
0

> <PUBCHEM_BOND_UDEF_STEREO_COUNT>
0

> <PUBCHEM_ISOTOPIC_ATOM_COUNT>
0

> <PUBCHEM_COMPONENT_COUNT>
1

> <PUBCHEM_CACTVS_TAUTO_COUNT>
6

> <PUBCHEM_CONFORMER_ID>
00017BE200000001

> <PUBCHEM_MMFF94_ENERGY>
30.8315

> <PUBCHEM_FEATURE_SELFOVERLAP>
25.402

> <PUBCHEM_SHAPE_FINGERPRINT>
12423570 1 15590789898342001909
12524768 44 18409162190873235423
13380535 21 18266728108858196772
14325111 11 18410573998068436769
16945 1 18410855464460201761
193761 8 18194402190917302533
19973954 147 18339079272400364704
20201158 50 18335140937740149014
20871998 184 18187642458070692223
21040471 1 18410575101927642949
21501502 16 18337952285829892492
2334 1 18122344583962609826
23463225 33 18197498630757644234
23552423 10 18127973014139767044
23559900 14 18262798597068401702
241688 4 15024438137321843769
25 1 17839196443208926045
2748010 2 18266178318547167141
369184 2 18334296452764922761
5084963 1 18187087286250029921
528886 8 18266465488840624281
7364860 26 18262798446095946496

> <PUBCHEM_SHAPE_MULTIPOLES>
230.23
4.08
2.08
0.59
1.3
0.29
0
0.42
0
-0.43
0
-0.02
-0.04
0

> <PUBCHEM_SHAPE_SELFOVERLAP>
504.722

> <PUBCHEM_SHAPE_VOLUME>
123.8

> <PUBCHEM_COORDINATE_TYPE>
2
5
10

$$$$

