441913
  -OEChem-07051212563D

102110  0     1  0  0  0  0  0999 V2000
    5.2940    1.1141    0.2799 O   0  0  0  0  0  0  0  0  0  0  0  0
    2.0915   -3.0410   -0.6987 O   0  0  0  0  0  0  0  0  0  0  0  0
   -5.8684    0.5160   -0.9579 O   0  0  0  0  0  0  0  0  0  0  0  0
    7.4540    1.1540    1.2632 O   0  0  0  0  0  0  0  0  0  0  0  0
    8.6228    0.4546   -1.1180 O   0  0  0  0  0  0  0  0  0  0  0  0
    7.5095    3.4577    0.7254 O   0  0  0  0  0  0  0  0  0  0  0  0
   -7.0243   -0.6026    0.7347 O   0  0  0  0  0  0  0  0  0  0  0  0
    0.9948   -4.8080    0.3072 O   0  0  0  0  0  0  0  0  0  0  0  0
   -8.1924    2.0949   -1.4549 O   0  0  0  0  0  0  0  0  0  0  0  0
  -10.6268    0.7148   -0.7424 O   0  0  0  0  0  0  0  0  0  0  0  0
  -10.4368   -0.3518    2.0000 O   0  0  0  0  0  0  0  0  0  0  0  0
   -0.2173   -0.4923   -0.0725 C   0  0  1  0  0  0  0  0  0  0  0  0
   -1.7235   -0.2103   -0.3024 C   0  0  2  0  0  0  0  0  0  0  0  0
   -0.7829   -0.3349   -1.4759 C   0  0  0  0  0  0  0  0  0  0  0  0
   -2.2669    1.1705    0.1140 C   0  0  2  0  0  0  0  0  0  0  0  0
    1.9333    0.2949    1.0973 C   0  0  1  0  0  0  0  0  0  0  0  0
    0.5739    0.6559    0.5021 C   0  0  0  0  0  0  0  0  0  0  0  0
    2.6119   -0.8411    0.2420 C   0  0  2  0  0  0  0  0  0  0  0  0
    0.2313   -1.8977    0.3302 C   0  0  0  0  0  0  0  0  0  0  0  0
   -2.7199   -1.3297   -0.0602 C   0  0  0  0  0  0  0  0  0  0  0  0
    1.7618   -2.1322    0.3532 C   0  0  1  0  0  0  0  0  0  0  0  0
    4.0265   -0.9081    0.9152 C   0  0  2  0  0  0  0  0  0  0  0  0
   -3.6443    1.4879   -0.5744 C   0  0  0  0  0  0  0  0  0  0  0  0
   -1.2253    2.3031   -0.0201 C   0  0  0  0  0  0  0  0  0  0  0  0
    3.0419    1.3714    1.0918 C   0  0  0  0  0  0  0  0  0  0  0  0
    4.3621    0.5839    1.2126 C   0  0  2  0  0  0  0  0  0  0  0  0
    0.1244    1.9254    0.5055 C   0  0  0  0  0  0  0  0  0  0  0  0
   -4.0576   -1.0441   -0.7263 C   0  0  0  0  0  0  0  0  0  0  0  0
   -4.6231    0.3075   -0.2939 C   0  0  2  0  0  0  0  0  0  0  0  0
    1.6701   -0.0625    2.5932 C   0  0  0  0  0  0  0  0  0  0  0  0
    5.1909   -1.6280    0.1985 C   0  0  1  0  0  0  0  0  0  0  0  0
    2.7792   -0.4460   -1.2629 C   0  0  0  0  0  0  0  0  0  0  0  0
    6.5805    0.4899    0.3151 C   0  0  1  0  0  0  0  0  0  0  0  0
   -4.2597    2.7725    0.0312 C   0  0  0  0  0  0  0  0  0  0  0  0
   -3.5006    1.7290   -2.0949 C   0  0  0  0  0  0  0  0  0  0  0  0
    6.5101   -1.0009    0.6753 C   0  0  0  0  0  0  0  0  0  0  0  0
    7.2141    0.7073   -1.0295 C   0  0  1  0  0  0  0  0  0  0  0  0
    8.1920    1.7966   -0.8686 C   0  0  1  0  0  0  0  0  0  0  0  0
    5.2123   -3.1296    0.4889 C   0  0  0  0  0  0  0  0  0  0  0  0
    8.1584    2.2012    0.5634 C   0  0  2  0  0  0  0  0  0  0  0  0
    1.4182   -4.2277   -0.6833 C   0  0  0  0  0  0  0  0  0  0  0  0
   -6.9457    0.6013   -0.0260 C   0  0  2  0  0  0  0  0  0  0  0  0
    8.5012    2.7488   -1.9521 C   0  0  0  0  0  0  0  0  0  0  0  0
   -8.2357    0.8178   -0.8188 C   0  0  1  0  0  0  0  0  0  0  0  0
    1.2636   -4.7369   -2.0844 C   0  0  0  0  0  0  0  0  0  0  0  0
   -9.4658    0.7728    0.0875 C   0  0  2  0  0  0  0  0  0  0  0  0
   -8.0779   -0.5663    1.6910 C   0  0  0  0  0  0  0  0  0  0  0  0
   -9.4294   -0.4525    0.9999 C   0  0  1  0  0  0  0  0  0  0  0  0
   -0.8616   -1.2165   -2.1047 H   0  0  0  0  0  0  0  0  0  0  0  0
   -0.5311    0.5477   -2.0525 H   0  0  0  0  0  0  0  0  0  0  0  0
   -2.4684    1.0802    1.1937 H   0  0  0  0  0  0  0  0  0  0  0  0
   -0.1650   -2.0879    1.3357 H   0  0  0  0  0  0  0  0  0  0  0  0
   -0.2730   -2.6192   -0.3168 H   0  0  0  0  0  0  0  0  0  0  0  0
   -2.3606   -2.2905   -0.4418 H   0  0  0  0  0  0  0  0  0  0  0  0
   -2.8615   -1.4506    1.0209 H   0  0  0  0  0  0  0  0  0  0  0  0
    2.0135   -2.6359    1.2963 H   0  0  0  0  0  0  0  0  0  0  0  0
    3.9040   -1.4007    1.8897 H   0  0  0  0  0  0  0  0  0  0  0  0
   -1.1016    2.6324   -1.0563 H   0  0  0  0  0  0  0  0  0  0  0  0
   -1.5693    3.1736    0.5501 H   0  0  0  0  0  0  0  0  0  0  0  0
    3.0251    1.9762    0.1769 H   0  0  0  0  0  0  0  0  0  0  0  0
    2.9418    2.0768    1.9258 H   0  0  0  0  0  0  0  0  0  0  0  0
    4.7699    0.6929    2.2256 H   0  0  0  0  0  0  0  0  0  0  0  0
    0.7293    2.7303    0.9112 H   0  0  0  0  0  0  0  0  0  0  0  0
   -4.7702   -1.8397   -0.4763 H   0  0  0  0  0  0  0  0  0  0  0  0
   -3.9557   -1.0801   -1.8177 H   0  0  0  0  0  0  0  0  0  0  0  0
   -4.7646    0.2636    0.7964 H   0  0  0  0  0  0  0  0  0  0  0  0
    1.1994    0.7837    3.1107 H   0  0  0  0  0  0  0  0  0  0  0  0
    1.0045   -0.9179    2.7249 H   0  0  0  0  0  0  0  0  0  0  0  0
    2.5864   -0.2838    3.1488 H   0  0  0  0  0  0  0  0  0  0  0  0
    5.1354   -1.4953   -0.8857 H   0  0  0  0  0  0  0  0  0  0  0  0
    1.8282   -0.2463   -1.7568 H   0  0  0  0  0  0  0  0  0  0  0  0
    3.3970    0.4448   -1.4038 H   0  0  0  0  0  0  0  0  0  0  0  0
    3.2536   -1.2450   -1.8418 H   0  0  0  0  0  0  0  0  0  0  0  0
   -4.3863    2.6780    1.1152 H   0  0  0  0  0  0  0  0  0  0  0  0
   -5.2396    2.9954   -0.4046 H   0  0  0  0  0  0  0  0  0  0  0  0
   -3.6333    3.6503   -0.1582 H   0  0  0  0  0  0  0  0  0  0  0  0
   -3.0453    0.8789   -2.6094 H   0  0  0  0  0  0  0  0  0  0  0  0
   -2.8891    2.6112   -2.3092 H   0  0  0  0  0  0  0  0  0  0  0  0
   -4.4752    1.9077   -2.5634 H   0  0  0  0  0  0  0  0  0  0  0  0
    7.3727   -1.5385    0.2615 H   0  0  0  0  0  0  0  0  0  0  0  0
    6.5914   -1.1191    1.7652 H   0  0  0  0  0  0  0  0  0  0  0  0
    6.5935    0.6115   -1.9044 H   0  0  0  0  0  0  0  0  0  0  0  0
    5.2847   -3.3276    1.5638 H   0  0  0  0  0  0  0  0  0  0  0  0
    6.0738   -3.6027    0.0048 H   0  0  0  0  0  0  0  0  0  0  0  0
    4.3186   -3.6286    0.1144 H   0  0  0  0  0  0  0  0  0  0  0  0
    9.1712    2.2723    0.9741 H   0  0  0  0  0  0  0  0  0  0  0  0
   -6.7660    1.4544    0.6414 H   0  0  0  0  0  0  0  0  0  0  0  0
    9.4729    3.2227   -1.7798 H   0  0  0  0  0  0  0  0  0  0  0  0
    7.7432    3.5368   -2.0066 H   0  0  0  0  0  0  0  0  0  0  0  0
    8.5386    2.2579   -2.9308 H   0  0  0  0  0  0  0  0  0  0  0  0
   -8.3289    0.0678   -1.6144 H   0  0  0  0  0  0  0  0  0  0  0  0
    2.2481   -4.9054   -2.5279 H   0  0  0  0  0  0  0  0  0  0  0  0
    0.6913   -4.0191   -2.6775 H   0  0  0  0  0  0  0  0  0  0  0  0
    0.7210   -5.6864   -2.0676 H   0  0  0  0  0  0  0  0  0  0  0  0
    7.8463    3.8496    1.5489 H   0  0  0  0  0  0  0  0  0  0  0  0
   -9.5529    1.6911    0.6814 H   0  0  0  0  0  0  0  0  0  0  0  0
   -8.0367   -1.4895    2.2795 H   0  0  0  0  0  0  0  0  0  0  0  0
   -7.9141    0.2562    2.3989 H   0  0  0  0  0  0  0  0  0  0  0  0
   -9.6280   -1.3578    0.4134 H   0  0  0  0  0  0  0  0  0  0  0  0
   -7.3882    2.1196   -2.0014 H   0  0  0  0  0  0  0  0  0  0  0  0
  -10.6121    1.4982   -1.3186 H   0  0  0  0  0  0  0  0  0  0  0  0
  -11.2893   -0.2462    1.5441 H   0  0  0  0  0  0  0  0  0  0  0  0
  1 26  1  0  0  0  0
  1 33  1  0  0  0  0
  2 21  1  0  0  0  0
  2 41  1  0  0  0  0
  3 29  1  0  0  0  0
  3 42  1  0  0  0  0
  4 33  1  0  0  0  0
  4 40  1  0  0  0  0
  5 37  1  0  0  0  0
  5 38  1  0  0  0  0
  6 40  1  0  0  0  0
  6 95  1  0  0  0  0
  7 42  1  0  0  0  0
  7 47  1  0  0  0  0
  8 41  2  0  0  0  0
  9 44  1  0  0  0  0
  9100  1  0  0  0  0
 10 46  1  0  0  0  0
 10101  1  0  0  0  0
 11 48  1  0  0  0  0
 11102  1  0  0  0  0
 12 13  1  0  0  0  0
 12 14  1  0  0  0  0
 12 17  1  0  0  0  0
 12 19  1  0  0  0  0
 13 14  1  0  0  0  0
 13 15  1  0  0  0  0
 13 20  1  0  0  0  0
 14 49  1  0  0  0  0
 14 50  1  0  0  0  0
 15 23  1  0  0  0  0
 15 24  1  0  0  0  0
 15 51  1  0  0  0  0
 16 17  1  0  0  0  0
 16 18  1  0  0  0  0
 16 25  1  0  0  0  0
 16 30  1  0  0  0  0
 17 27  2  0  0  0  0
 18 21  1  0  0  0  0
 18 22  1  0  0  0  0
 18 32  1  0  0  0  0
 19 21  1  0  0  0  0
 19 52  1  0  0  0  0
 19 53  1  0  0  0  0
 20 28  1  0  0  0  0
 20 54  1  0  0  0  0
 20 55  1  0  0  0  0
 21 56  1  0  0  0  0
 22 26  1  0  0  0  0
 22 31  1  0  0  0  0
 22 57  1  0  0  0  0
 23 29  1  0  0  0  0
 23 34  1  0  0  0  0
 23 35  1  0  0  0  0
 24 27  1  0  0  0  0
 24 58  1  0  0  0  0
 24 59  1  0  0  0  0
 25 26  1  0  0  0  0
 25 60  1  0  0  0  0
 25 61  1  0  0  0  0
 26 62  1  0  0  0  0
 27 63  1  0  0  0  0
 28 29  1  0  0  0  0
 28 64  1  0  0  0  0
 28 65  1  0  0  0  0
 29 66  1  0  0  0  0
 30 67  1  0  0  0  0
 30 68  1  0  0  0  0
 30 69  1  0  0  0  0
 31 36  1  0  0  0  0
 31 39  1  0  0  0  0
 31 70  1  0  0  0  0
 32 71  1  0  0  0  0
 32 72  1  0  0  0  0
 32 73  1  0  0  0  0
 33 36  1  0  0  0  0
 33 37  1  0  0  0  0
 34 74  1  0  0  0  0
 34 75  1  0  0  0  0
 34 76  1  0  0  0  0
 35 77  1  0  0  0  0
 35 78  1  0  0  0  0
 35 79  1  0  0  0  0
 36 80  1  0  0  0  0
 36 81  1  0  0  0  0
 37 38  1  0  0  0  0
 37 82  1  0  0  0  0
 38 40  1  0  0  0  0
 38 43  1  0  0  0  0
 39 83  1  0  0  0  0
 39 84  1  0  0  0  0
 39 85  1  0  0  0  0
 40 86  1  0  0  0  0
 41 45  1  0  0  0  0
 42 44  1  0  0  0  0
 42 87  1  0  0  0  0
 43 88  1  0  0  0  0
 43 89  1  0  0  0  0
 43 90  1  0  0  0  0
 44 46  1  0  0  0  0
 44 91  1  0  0  0  0
 45 92  1  0  0  0  0
 45 93  1  0  0  0  0
 45 94  1  0  0  0  0
 46 48  1  0  0  0  0
 46 96  1  0  0  0  0
 47 48  1  0  0  0  0
 47 97  1  0  0  0  0
 47 98  1  0  0  0  0
 48 99  1  0  0  0  0
M  END
> <PUBCHEM_COMPOUND_CID>
441913

> <PUBCHEM_CONFORMER_RMSD>
1.2

> <PUBCHEM_CONFORMER_DIVERSEORDER>
1
7
3
8
9
5
4
6
2

> <PUBCHEM_MMFF94_PARTIAL_CHARGES>
44
1 -0.56
10 -0.68
100 0.4
101 0.4
102 0.4
11 -0.68
12 -0.05
13 -0.19
14 -0.2
15 0.09
16 0.14
17 -0.18
19 0.09
2 -0.43
20 0.09
21 0.28
24 0.14
26 0.28
27 -0.29
29 0.28
3 -0.56
33 0.65
37 -0.05
38 -0.04
4 -0.56
40 0.65
41 0.66
42 0.56
43 0.09
44 0.28
45 0.06
46 0.28
47 0.28
48 0.28
49 0.1
5 -0.3
50 0.1
6 -0.68
63 0.15
7 -0.56
8 -0.57
82 0.1
9 -0.68
95 0.4

> <PUBCHEM_EFFECTIVE_ROTOR_COUNT>
8.2

> <PUBCHEM_PHARMACOPHORE_FEATURES>
22
1 1 acceptor
1 10 acceptor
1 10 donor
1 11 acceptor
1 11 donor
1 3 acceptor
1 4 acceptor
1 5 acceptor
1 6 acceptor
1 6 donor
1 7 acceptor
1 8 acceptor
1 9 acceptor
1 9 donor
3 23 34 35 hydrophobe
5 16 18 22 25 26 rings
6 1 22 26 31 33 36 rings
6 12 16 17 18 19 21 rings
6 13 15 20 23 28 29 rings
6 4 5 33 37 38 40 rings
6 7 42 44 46 47 48 rings
7 12 13 14 15 17 24 27 rings

> <PUBCHEM_HEAVY_ATOM_COUNT>
48

> <PUBCHEM_ATOM_DEF_STEREO_COUNT>
14

> <PUBCHEM_ATOM_UDEF_STEREO_COUNT>
4

> <PUBCHEM_BOND_DEF_STEREO_COUNT>
0

> <PUBCHEM_BOND_UDEF_STEREO_COUNT>
0

> <PUBCHEM_ISOTOPIC_ATOM_COUNT>
0

> <PUBCHEM_COMPONENT_COUNT>
1

> <PUBCHEM_CACTVS_TAUTO_COUNT>
1

> <PUBCHEM_CONFORMER_ID>
0006BE3900000001

> <PUBCHEM_MMFF94_ENERGY>
181.4995

> <PUBCHEM_FEATURE_SELFOVERLAP>
111.966

> <PUBCHEM_SHAPE_FINGERPRINT>
10 15 18131355202169671713
10050765 1 18048318048758526441
10162869 55 13110959808487747593
10165383 225 18408042901274463110
10369192 42 18412549794867391788
10580692 12 18410012148992719673
10674148 151 15791734100824234226
11050421 43 18270393873033190115
11115154 58 16153708700428924216
12013929 94 18340484470785376307
12098696 120 18409169891718422700
12522641 33 18410292523550889599
12758862 56 8574707996764990893
13811026 1 17917710218636374456
13947947 74 18260267460079683384
14017579 153 18187085053321223887
14040221 8 6266910094774572658
14040221 97 18343865532974609069
14118638 360 17968095391331317353
15064986 266 18339640161460983177
15131766 46 16843877553181290012
15320295 40 11600009838364999743
15347591 1 18126007306867590617
15361156 5 18410862027813938423
15392192 104 18408322173329122627
15840311 113 17917990590755887150
15890870 6 18410292502323388308
16992787 43 18408040706108513377
17686467 74 17275102817617395365
18365409 1 18337674088304158758
18608769 82 18413672409857787267
19315958 150 18342455949887528027
19841028 212 17059785545316768627
20105231 36 18187363225225048679
22149856 69 18263075669302727289
23576562 1 17096946671497678541
249057 3 9943801192938474249
3178227 256 18334296465660322619
335507 130 18201718423826423749
3418910 222 18201433705670578301
3552219 110 18187641427400380521
4073 2 18202001027567825763
4112364 45 17346309350889248238
4149490 64 17418100961417915538
4173938 188 16056875789692631337
4461854 278 18409442558250232067
45270241 37 18343299293276906462
45377200 153 16226340205440427367
5028188 123 17168149983860921101
5265222 85 18263364703432271902
54583773 228 18131625660729939157
6703917 75 18408595955164272561

> <PUBCHEM_SHAPE_MULTIPOLES>
923.26
30.75
3.92
1.63
41.7
4.55
-0.03
-18.43
0.93
-5.92
-1.42
0.05
-0.01
0.82

> <PUBCHEM_SHAPE_SELFOVERLAP>
2013.952

> <PUBCHEM_SHAPE_VOLUME>
497.8

> <PUBCHEM_COORDINATE_TYPE>
2
5
10

$$$$

