7092
  -OEChem-06261201453D

 20 21  0     0  0  0  0  0  0999 V2000
   -1.5006    1.0883    0.0001 O   0  0  0  0  0  0  0  0  0  0  0  0
   -3.7264    0.5486   -0.0010 O   0  0  0  0  0  0  0  0  0  0  0  0
    0.1507   -0.6999    0.0000 C   0  0  0  0  0  0  0  0  0  0  0  0
   -0.1580    0.6579    0.0003 C   0  0  0  0  0  0  0  0  0  0  0  0
    2.4994   -0.1170   -0.0003 C   0  0  0  0  0  0  0  0  0  0  0  0
    1.4926   -1.0869   -0.0006 C   0  0  0  0  0  0  0  0  0  0  0  0
    0.8349    1.6355    0.0002 C   0  0  0  0  0  0  0  0  0  0  0  0
    2.1708    1.2406    0.0003 C   0  0  0  0  0  0  0  0  0  0  0  0
   -0.9351   -1.6655    0.0003 C   0  0  0  0  0  0  0  0  0  0  0  0
    3.9320   -0.5346   -0.0002 C   0  0  0  0  0  0  0  0  0  0  0  0
   -2.2041   -1.2495    0.0005 C   0  0  0  0  0  0  0  0  0  0  0  0
   -2.5562    0.1824    0.0003 C   0  0  0  0  0  0  0  0  0  0  0  0
    1.7573   -2.1421   -0.0027 H   0  0  0  0  0  0  0  0  0  0  0  0
    0.5781    2.6902   -0.0001 H   0  0  0  0  0  0  0  0  0  0  0  0
    2.9494    1.9990   -0.0015 H   0  0  0  0  0  0  0  0  0  0  0  0
   -0.6990   -2.7238    0.0004 H   0  0  0  0  0  0  0  0  0  0  0  0
    4.2784   -0.6875   -1.0271 H   0  0  0  0  0  0  0  0  0  0  0  0
    4.5661    0.2223    0.4739 H   0  0  0  0  0  0  0  0  0  0  0  0
    4.0705   -1.4650    0.5609 H   0  0  0  0  0  0  0  0  0  0  0  0
   -3.0198   -1.9642    0.0006 H   0  0  0  0  0  0  0  0  0  0  0  0
  1  4  1  0  0  0  0
  1 12  1  0  0  0  0
  2 12  2  0  0  0  0
  3  4  2  0  0  0  0
  3  6  1  0  0  0  0
  3  9  1  0  0  0  0
  4  7  1  0  0  0  0
  5  6  2  0  0  0  0
  5  8  1  0  0  0  0
  5 10  1  0  0  0  0
  6 13  1  0  0  0  0
  7  8  2  0  0  0  0
  7 14  1  0  0  0  0
  8 15  1  0  0  0  0
  9 11  2  0  0  0  0
  9 16  1  0  0  0  0
 10 17  1  0  0  0  0
 10 18  1  0  0  0  0
 10 19  1  0  0  0  0
 11 12  1  0  0  0  0
 11 20  1  0  0  0  0
M  END
> <PUBCHEM_COMPOUND_CID>
7092

> <PUBCHEM_CONFORMER_RMSD>
0.4

> <PUBCHEM_CONFORMER_DIVERSEORDER>
1

> <PUBCHEM_MMFF94_PARTIAL_CHARGES>
17
1 -0.23
10 0.14
11 -0.14
12 0.71
13 0.15
14 0.15
15 0.15
16 0.15
2 -0.57
20 0.15
3 0.03
4 0.08
5 -0.14
6 -0.15
7 -0.15
8 -0.15
9 -0.18

> <PUBCHEM_EFFECTIVE_ROTOR_COUNT>
0

> <PUBCHEM_PHARMACOPHORE_FEATURES>
3
1 2 acceptor
6 1 3 4 9 11 12 rings
6 3 4 5 6 7 8 rings

> <PUBCHEM_HEAVY_ATOM_COUNT>
12

> <PUBCHEM_ATOM_DEF_STEREO_COUNT>
0

> <PUBCHEM_ATOM_UDEF_STEREO_COUNT>
0

> <PUBCHEM_BOND_DEF_STEREO_COUNT>
0

> <PUBCHEM_BOND_UDEF_STEREO_COUNT>
0

> <PUBCHEM_ISOTOPIC_ATOM_COUNT>
0

> <PUBCHEM_COMPONENT_COUNT>
1

> <PUBCHEM_CACTVS_TAUTO_COUNT>
1

> <PUBCHEM_CONFORMER_ID>
00001BB400000001

> <PUBCHEM_MMFF94_ENERGY>
37.1238

> <PUBCHEM_FEATURE_SELFOVERLAP>
15.25

> <PUBCHEM_SHAPE_FINGERPRINT>
10130415 120 18413393141913699786
10608611 8 18338239262665250393
11132069 177 18409454682667796698
11471102 20 18410860962181851645
12032990 46 18410004451329942526
12932764 1 17131567062713687910
13380535 76 18409167727118137671
14325111 11 18338798918399614273
14911166 2 18410857684926502703
14993402 34 18410575110448733094
15775835 57 18272367581163754135
16945 1 18410575106232893414
17844478 74 17917704700025424373
18511873 20 18410855460143992578
193761 8 17978228253457088742
19973954 147 18195807371072346699
20201158 50 18335701662953388366
20588541 1 18410007775529043710
20645476 183 17844790526221094806
21501502 16 18266740177578862790
2334 1 18122343480161270020
23402539 116 18187939411945734485
23402655 69 18264221351913344181
23463225 33 18413390960181258354
23552423 10 18127974109424895342
23559900 14 18407758132738201582
2748010 2 18266741268500549446
528886 8 18410016541372600650
53812653 166 18408327687454635930
7364860 26 18190740830614778656
8809292 202 18272083868562239306

> <PUBCHEM_SHAPE_MULTIPOLES>
235.22
5.24
1.65
0.6
0.3
0.03
0
-0.17
0
-0.05
0
0.04
-0.01
0

> <PUBCHEM_SHAPE_SELFOVERLAP>
510.792

> <PUBCHEM_SHAPE_VOLUME>
129

> <PUBCHEM_COORDINATE_TYPE>
2
5
10

$$$$

