4047
  -OEChem-06251223502D

 42 43  0     1  0  0  0  0  0999 V2000
    8.7788    1.2166    0.0000 Cl  0  0  0  0  0  0  0  0  0  0  0  0
    5.3147   -0.7834    0.0000 S   0  0  0  0  0  0  0  0  0  0  0  0
    7.0468    2.2166    0.0000 S   0  0  0  0  0  0  0  0  0  0  0  0
    2.9136   -3.5266    0.0000 O   0  0  0  0  0  0  0  0  0  0  0  0
    5.8147   -1.6494    0.0000 O   0  0  0  0  0  0  0  0  0  0  0  0
    4.8147    0.0826    0.0000 O   0  0  0  0  0  0  0  0  0  0  0  0
    6.0468    2.2166    0.0000 O   0  0  0  0  0  0  0  0  0  0  0  0
    8.0468    2.2166    0.0000 O   0  0  0  0  0  0  0  0  0  0  0  0
    4.4487   -1.2834    0.0000 N   0  0  3  0  0  0  0  0  0  0  0  0
    7.0468    3.2166    0.0000 N   0  0  0  0  0  0  0  0  0  0  0  0
    3.5827   -2.7834    0.0000 C   0  0  3  0  0  0  0  0  0  0  0  0
    3.0827   -1.9174    0.0000 C   0  0  0  0  0  0  0  0  0  0  0  0
    4.4487   -2.2834    0.0000 C   0  0  0  0  0  0  0  0  0  0  0  0
    2.1045   -2.1253    0.0000 C   0  0  0  0  0  0  0  0  0  0  0  0
    2.0000   -3.1198    0.0000 C   0  0  0  0  0  0  0  0  0  0  0  0
    4.3258   -3.4526    0.0000 C   0  0  0  0  0  0  0  0  0  0  0  0
    3.5827   -0.7834    0.0000 C   0  0  0  0  0  0  0  0  0  0  0  0
    6.1808   -0.2834    0.0000 C   0  0  0  0  0  0  0  0  0  0  0  0
    6.1808    0.7166    0.0000 C   0  0  0  0  0  0  0  0  0  0  0  0
    7.0468   -0.7834    0.0000 C   0  0  0  0  0  0  0  0  0  0  0  0
    7.0468    1.2166    0.0000 C   0  0  0  0  0  0  0  0  0  0  0  0
    7.9128   -0.2834    0.0000 C   0  0  0  0  0  0  0  0  0  0  0  0
    7.9128    0.7166    0.0000 C   0  0  0  0  0  0  0  0  0  0  0  0
    3.6491   -1.6652    0.0000 H   0  0  0  0  0  0  0  0  0  0  0  0
    2.8911   -1.3278    0.0000 H   0  0  0  0  0  0  0  0  0  0  0  0
    4.6608   -2.8660    0.0000 H   0  0  0  0  0  0  0  0  0  0  0  0
    5.0593   -2.1758    0.0000 H   0  0  0  0  0  0  0  0  0  0  0  0
    2.0397   -1.5087    0.0000 H   0  0  0  0  0  0  0  0  0  0  0  0
    1.4845   -2.1253    0.0000 H   0  0  0  0  0  0  0  0  0  0  0  0
    1.3936   -2.9909    0.0000 H   0  0  0  0  0  0  0  0  0  0  0  0
    1.8084   -3.7095    0.0000 H   0  0  0  0  0  0  0  0  0  0  0  0
    3.9110   -3.9133    0.0000 H   0  0  0  0  0  0  0  0  0  0  0  0
    4.7866   -3.8674    0.0000 H   0  0  0  0  0  0  0  0  0  0  0  0
    4.7407   -2.9918    0.0000 H   0  0  0  0  0  0  0  0  0  0  0  0
    3.8927   -0.2465    0.0000 H   0  0  0  0  0  0  0  0  0  0  0  0
    3.0457   -0.4734    0.0000 H   0  0  0  0  0  0  0  0  0  0  0  0
    3.2727   -1.3204    0.0000 H   0  0  0  0  0  0  0  0  0  0  0  0
    5.6438    1.0266    0.0000 H   0  0  0  0  0  0  0  0  0  0  0  0
    7.0468   -1.4034    0.0000 H   0  0  0  0  0  0  0  0  0  0  0  0
    8.4497   -0.5934    0.0000 H   0  0  0  0  0  0  0  0  0  0  0  0
    7.5837    3.5266    0.0000 H   0  0  0  0  0  0  0  0  0  0  0  0
    6.5098    3.5266    0.0000 H   0  0  0  0  0  0  0  0  0  0  0  0
  1 23  1  0  0  0  0
  2  5  2  0  0  0  0
  2  6  2  0  0  0  0
  2  9  1  0  0  0  0
  2 18  1  0  0  0  0
  3  7  2  0  0  0  0
  3  8  2  0  0  0  0
  3 10  1  0  0  0  0
  3 21  1  0  0  0  0
  4 11  1  0  0  0  0
  4 15  1  0  0  0  0
  9 13  1  0  0  0  0
  9 17  1  0  0  0  0
 10 41  1  0  0  0  0
 10 42  1  0  0  0  0
 11 12  1  0  0  0  0
 11 13  1  0  0  0  0
 11 16  1  0  0  0  0
 12 14  1  0  0  0  0
 12 24  1  0  0  0  0
 12 25  1  0  0  0  0
 13 26  1  0  0  0  0
 13 27  1  0  0  0  0
 14 15  1  0  0  0  0
 14 28  1  0  0  0  0
 14 29  1  0  0  0  0
 15 30  1  0  0  0  0
 15 31  1  0  0  0  0
 16 32  1  0  0  0  0
 16 33  1  0  0  0  0
 16 34  1  0  0  0  0
 17 35  1  0  0  0  0
 17 36  1  0  0  0  0
 17 37  1  0  0  0  0
 18 19  2  0  0  0  0
 18 20  1  0  0  0  0
 19 21  1  0  0  0  0
 19 38  1  0  0  0  0
 20 22  2  0  0  0  0
 20 39  1  0  0  0  0
 21 23  2  0  0  0  0
 22 23  1  0  0  0  0
 22 40  1  0  0  0  0
M  END
> <PUBCHEM_COMPOUND_CID>
4047

> <PUBCHEM_COMPOUND_CANONICALIZED>
1

> <PUBCHEM_CACTVS_COMPLEXITY>
628

> <PUBCHEM_CACTVS_HBOND_ACCEPTOR>
7

> <PUBCHEM_CACTVS_HBOND_DONOR>
1

> <PUBCHEM_CACTVS_ROTATABLE_BOND>
5

> <PUBCHEM_CACTVS_SUBSKEYS>
AAADceBzOABkAAAAAAAAAAAAAAAAASAAAAAwAAAAAAAAAAABAAAAHgYQQAAADEbh0CYyAYIABAKAACBCAHBCABAgBQAIiBgIAogKICKBkxCHIAAkgAAYiAeQEAIMAAIAAEAAAIAABAAAgAABAAAAAAAAAA==

> <PUBCHEM_IUPAC_OPENEYE_NAME>
4-chloro-N1-methyl-N1-[(2-methyltetrahydrofuran-2-yl)methyl]benzene-1,3-disulfonamide

> <PUBCHEM_IUPAC_CAS_NAME>
4-chloro-N1-methyl-N1-[(2-methyl-2-oxolanyl)methyl]benzene-1,3-disulfonamide

> <PUBCHEM_IUPAC_NAME>
4-chloro-1-N-methyl-1-N-[(2-methyloxolan-2-yl)methyl]benzene-1,3-disulfonamide

> <PUBCHEM_IUPAC_SYSTEMATIC_NAME>
4-chloranyl-N1-methyl-N1-[(2-methyloxolan-2-yl)methyl]benzene-1,3-disulfonamide

> <PUBCHEM_IUPAC_TRADITIONAL_NAME>
4-chloro-N-methyl-N-[(2-methyltetrahydrofuran-2-yl)methyl]benzene-1,3-disulfonamide

> <PUBCHEM_IUPAC_INCHI>
InChI=1S/C13H19ClN2O5S2/c1-13(6-3-7-21-13)9-16(2)23(19,20)10-4-5-11(14)12(8-10)22(15,17)18/h4-5,8H,3,6-7,9H2,1-2H3,(H2,15,17,18)

> <PUBCHEM_IUPAC_INCHIKEY>
SMNOERSLNYGGOU-UHFFFAOYSA-N

> <PUBCHEM_XLOGP3_AA>
0.9

> <PUBCHEM_EXACT_MASS>
382.042391

> <PUBCHEM_MOLECULAR_FORMULA>
C13H19ClN2O5S2

> <PUBCHEM_MOLECULAR_WEIGHT>
382.88336

> <PUBCHEM_OPENEYE_CAN_SMILES>
CC1(CCCO1)CN(C)S(=O)(=O)C2=CC(=C(C=C2)Cl)S(=O)(=O)N

> <PUBCHEM_OPENEYE_ISO_SMILES>
CC1(CCCO1)CN(C)S(=O)(=O)C2=CC(=C(C=C2)Cl)S(=O)(=O)N

> <PUBCHEM_CACTVS_TPSA>
124

> <PUBCHEM_MONOISOTOPIC_WEIGHT>
382.042391

> <PUBCHEM_TOTAL_CHARGE>
0

> <PUBCHEM_HEAVY_ATOM_COUNT>
23

> <PUBCHEM_ATOM_DEF_STEREO_COUNT>
0

> <PUBCHEM_ATOM_UDEF_STEREO_COUNT>
1

> <PUBCHEM_BOND_DEF_STEREO_COUNT>
0

> <PUBCHEM_BOND_UDEF_STEREO_COUNT>
0

> <PUBCHEM_ISOTOPIC_ATOM_COUNT>
0

> <PUBCHEM_COMPONENT_COUNT>
1

> <PUBCHEM_CACTVS_TAUTO_COUNT>
1

> <PUBCHEM_COORDINATE_TYPE>
1
5
255

> <PUBCHEM_BONDANNOTATIONS>
11  16  3
18  19  8
18  20  8
19  21  8
20  22  8
21  23  8
22  23  8

$$$$

