2479
  -OEChem-07051212543D

 31 31  0     1  0  0  0  0  0999 V2000
   -0.6135   -2.1755   -1.2362 O   0  0  0  0  0  0  0  0  0  0  0  0
    0.2788    0.8621    2.2319 O   0  0  0  0  0  0  0  0  0  0  0  0
   -3.2579    1.5230   -0.6163 O   0  0  0  0  0  0  0  0  0  0  0  0
   -1.8740   -0.2753   -0.9852 N   0  0  0  0  0  0  0  0  0  0  0  0
   -1.4279    1.2425    0.7467 N   0  0  0  0  0  0  0  0  0  0  0  0
    0.2848   -0.4177    0.1722 C   0  0  0  0  0  0  0  0  0  0  0  0
    1.2532    0.3475   -0.7475 C   0  0  1  0  0  0  0  0  0  0  0  0
    1.0578   -1.5080    0.9283 C   0  0  0  0  0  0  0  0  0  0  0  0
    2.3162    1.0626    0.1015 C   0  0  0  0  0  0  0  0  0  0  0  0
   -0.7647   -1.0662   -0.7251 C   0  0  0  0  0  0  0  0  0  0  0  0
   -0.2776    0.5921    1.1677 C   0  0  0  0  0  0  0  0  0  0  0  0
    1.8642   -0.6168   -1.7625 C   0  0  0  0  0  0  0  0  0  0  0  0
    0.1230   -2.3537    1.7634 C   0  0  0  0  0  0  0  0  0  0  0  0
    3.2851    1.8991   -0.7219 C   0  0  0  0  0  0  0  0  0  0  0  0
   -2.2474    0.8845   -0.3169 C   0  0  0  0  0  0  0  0  0  0  0  0
    0.7008    1.1125   -1.3113 H   0  0  0  0  0  0  0  0  0  0  0  0
    1.8058   -1.0948    1.6123 H   0  0  0  0  0  0  0  0  0  0  0  0
    1.5821   -2.1992    0.2623 H   0  0  0  0  0  0  0  0  0  0  0  0
    2.9210    0.3610    0.6829 H   0  0  0  0  0  0  0  0  0  0  0  0
    1.8626    1.7702    0.7994 H   0  0  0  0  0  0  0  0  0  0  0  0
    2.5530   -1.3407   -1.3196 H   0  0  0  0  0  0  0  0  0  0  0  0
    2.4638   -0.0475   -2.4836 H   0  0  0  0  0  0  0  0  0  0  0  0
    1.1345   -1.1408   -2.3817 H   0  0  0  0  0  0  0  0  0  0  0  0
   -0.4445   -1.7585    2.4853 H   0  0  0  0  0  0  0  0  0  0  0  0
   -0.5879   -2.9280    1.1632 H   0  0  0  0  0  0  0  0  0  0  0  0
    0.7053   -3.0820    2.3394 H   0  0  0  0  0  0  0  0  0  0  0  0
    3.9372    2.4792   -0.0604 H   0  0  0  0  0  0  0  0  0  0  0  0
    2.7495    2.6019   -1.3679 H   0  0  0  0  0  0  0  0  0  0  0  0
    3.9292    1.2728   -1.3460 H   0  0  0  0  0  0  0  0  0  0  0  0
   -2.5242   -0.6213   -1.6854 H   0  0  0  0  0  0  0  0  0  0  0  0
   -1.7493    2.0151    1.3232 H   0  0  0  0  0  0  0  0  0  0  0  0
  1 10  2  0  0  0  0
  2 11  2  0  0  0  0
  3 15  2  0  0  0  0
  4 10  1  0  0  0  0
  4 15  1  0  0  0  0
  4 30  1  0  0  0  0
  5 11  1  0  0  0  0
  5 15  1  0  0  0  0
  5 31  1  0  0  0  0
  6  7  1  0  0  0  0
  6  8  1  0  0  0  0
  6 10  1  0  0  0  0
  6 11  1  0  0  0  0
  7  9  1  0  0  0  0
  7 12  1  0  0  0  0
  7 16  1  0  0  0  0
  8 13  1  0  0  0  0
  8 17  1  0  0  0  0
  8 18  1  0  0  0  0
  9 14  1  0  0  0  0
  9 19  1  0  0  0  0
  9 20  1  0  0  0  0
 12 21  1  0  0  0  0
 12 22  1  0  0  0  0
 12 23  1  0  0  0  0
 13 24  1  0  0  0  0
 13 25  1  0  0  0  0
 13 26  1  0  0  0  0
 14 27  1  0  0  0  0
 14 28  1  0  0  0  0
 14 29  1  0  0  0  0
M  END
> <PUBCHEM_COMPOUND_CID>
2479

> <PUBCHEM_CONFORMER_RMSD>
0.6

> <PUBCHEM_CONFORMER_DIVERSEORDER>
1
9
2
8
7
3
4
6
5

> <PUBCHEM_MMFF94_PARTIAL_CHARGES>
11
1 -0.57
10 0.57
11 0.57
15 0.69
2 -0.57
3 -0.57
30 0.37
31 0.37
4 -0.49
5 -0.49
6 0.12

> <PUBCHEM_EFFECTIVE_ROTOR_COUNT>
3.6

> <PUBCHEM_PHARMACOPHORE_FEATURES>
9
1 1 acceptor
1 12 hydrophobe
1 13 hydrophobe
1 14 hydrophobe
1 2 acceptor
1 3 acceptor
1 4 donor
1 5 donor
6 4 5 6 10 11 15 rings

> <PUBCHEM_HEAVY_ATOM_COUNT>
15

> <PUBCHEM_ATOM_DEF_STEREO_COUNT>
0

> <PUBCHEM_ATOM_UDEF_STEREO_COUNT>
1

> <PUBCHEM_BOND_DEF_STEREO_COUNT>
0

> <PUBCHEM_BOND_UDEF_STEREO_COUNT>
0

> <PUBCHEM_ISOTOPIC_ATOM_COUNT>
0

> <PUBCHEM_COMPONENT_COUNT>
1

> <PUBCHEM_CACTVS_TAUTO_COUNT>
5

> <PUBCHEM_CONFORMER_ID>
000009AF00000001

> <PUBCHEM_MMFF94_ENERGY>
45.9484

> <PUBCHEM_FEATURE_SELFOVERLAP>
45.711

> <PUBCHEM_SHAPE_FINGERPRINT>
10702982 57 18272940383962102122
12138202 97 18188767249891517508
12326174 3 17695887205228952543
12423570 1 10587553409301681410
12491281 212 17773885198989119844
13024252 1 17841989984105179918
13134695 92 17339024235250353333
13299463 15 17096359528087807500
13571099 52 17275106158442321557
137420 1 15098218958096146002
14713566 1 18186800313947314766
14817 1 10590672509157108496
15775835 57 18342739623971656580
16945 1 18117823624109181551
19765921 60 18410857646287978512
19837323 101 17986389992805446678
20653085 51 18340756070841008692
21524375 3 18412827984004625700
23419403 2 17471514123772252779
23559900 14 17603869958634382832
2748010 2 16886693526890736399
305870 269 17988932192601252244
353137 74 17894901966636246144
430814 3 18130797745442479085
4369600 1 17458638864111822865
5084963 1 17910632649440356062
81228 2 17481387557784984162

> <PUBCHEM_SHAPE_MULTIPOLES>
281.12
3.53
2.23
1.75
0.88
1.04
-0.25
-3.13
0.98
-0.2
-0.41
0.07
0.49
-0.06

> <PUBCHEM_SHAPE_SELFOVERLAP>
576.072

> <PUBCHEM_SHAPE_VOLUME>
160.5

> <PUBCHEM_COORDINATE_TYPE>
2
5
10

$$$$

