73766
  -OEChem-07051213073D

  7  6  0     0  0  0  0  0  0999 V2000
   -1.3337   -0.6069    0.0004 F   0  0  0  0  0  0  0  0  0  0  0  0
    1.3486   -0.5399   -0.0005 O   0  0  0  0  0  0  0  0  0  0  0  0
   -0.7544    0.6222   -0.0007 C   0  0  0  0  0  0  0  0  0  0  0  0
    0.7395    0.5247    0.0008 C   0  0  0  0  0  0  0  0  0  0  0  0
   -1.0820    1.1589    0.8927 H   0  0  0  0  0  0  0  0  0  0  0  0
   -1.0805    1.1567   -0.8959 H   0  0  0  0  0  0  0  0  0  0  0  0
    1.2793    1.4865    0.0019 H   0  0  0  0  0  0  0  0  0  0  0  0
  1  3  1  0  0  0  0
  2  4  2  0  0  0  0
  3  4  1  0  0  0  0
  3  5  1  0  0  0  0
  3  6  1  0  0  0  0
  4  7  1  0  0  0  0
M  END
> <PUBCHEM_COMPOUND_CID>
73766

> <PUBCHEM_CONFORMER_RMSD>
0.4

> <PUBCHEM_CONFORMER_DIVERSEORDER>
1
2
3

> <PUBCHEM_MMFF94_PARTIAL_CHARGES>
5
1 -0.34
2 -0.57
3 0.4
4 0.45
7 0.06

> <PUBCHEM_EFFECTIVE_ROTOR_COUNT>
1

> <PUBCHEM_PHARMACOPHORE_FEATURES>
1
1 2 acceptor

> <PUBCHEM_HEAVY_ATOM_COUNT>
4

> <PUBCHEM_ATOM_DEF_STEREO_COUNT>
0

> <PUBCHEM_ATOM_UDEF_STEREO_COUNT>
0

> <PUBCHEM_BOND_DEF_STEREO_COUNT>
0

> <PUBCHEM_BOND_UDEF_STEREO_COUNT>
0

> <PUBCHEM_ISOTOPIC_ATOM_COUNT>
0

> <PUBCHEM_COMPONENT_COUNT>
1

> <PUBCHEM_CACTVS_TAUTO_COUNT>
2

> <PUBCHEM_CONFORMER_ID>
0001202600000001

> <PUBCHEM_MMFF94_ENERGY>
-0.762

> <PUBCHEM_FEATURE_SELFOVERLAP>
5.074

> <PUBCHEM_SHAPE_FINGERPRINT>
139733 1 9295290538387372289
21015797 1 9222966849677182820
5943 1 14687557390813402049

> <PUBCHEM_SHAPE_MULTIPOLES>
69.18
1.62
0.88
0.56
0.03
0.04
0
-0.3
0
-0.06
0
0
0.04
0

> <PUBCHEM_SHAPE_SELFOVERLAP>
117.183

> <PUBCHEM_SHAPE_VOLUME>
46.4

> <PUBCHEM_COORDINATE_TYPE>
2
5
10

$$$$

