53518
  -OEChem-07051213123D

 43 45  0     1  0  0  0  0  0999 V2000
    6.4946   -3.5047    0.3803 Cl  0  0  0  0  0  0  0  0  0  0  0  0
   -3.5276    1.0751    0.9935 O   0  0  0  0  0  0  0  0  0  0  0  0
    1.5122    2.6172   -0.6195 O   0  0  0  0  0  0  0  0  0  0  0  0
   -5.3285   -1.7388   -0.3113 O   0  0  0  0  0  0  0  0  0  0  0  0
   -5.6176    0.5300   -0.6066 O   0  0  0  0  0  0  0  0  0  0  0  0
    2.2078    0.4783   -0.0432 N   0  0  0  0  0  0  0  0  0  0  0  0
    4.7954    1.1233   -0.8230 N   0  0  0  0  0  0  0  0  0  0  0  0
   -3.8622   -0.3044    0.8490 C   0  0  1  0  0  0  0  0  0  0  0  0
   -2.2830    1.4556    0.5955 C   0  0  0  0  0  0  0  0  0  0  0  0
   -4.2000   -0.8547    2.2236 C   0  0  0  0  0  0  0  0  0  0  0  0
    0.2482    2.2296   -0.2145 C   0  0  0  0  0  0  0  0  0  0  0  0
   -1.4028    2.0309    1.5121 C   0  0  0  0  0  0  0  0  0  0  0  0
   -1.8877    1.2705   -0.7292 C   0  0  0  0  0  0  0  0  0  0  0  0
   -5.0392   -0.4215   -0.0981 C   0  0  0  0  0  0  0  0  0  0  0  0
   -0.1273    2.4209    1.1038 C   0  0  0  0  0  0  0  0  0  0  0  0
   -0.6121    1.6605   -1.1374 C   0  0  0  0  0  0  0  0  0  0  0  0
    3.1977   -0.4268    0.0497 C   0  0  0  0  0  0  0  0  0  0  0  0
    4.5080   -0.1002   -0.3452 C   0  0  0  0  0  0  0  0  0  0  0  0
    2.5158    1.6964   -0.5236 C   0  0  0  0  0  0  0  0  0  0  0  0
    2.9364   -1.7041    0.5402 C   0  0  0  0  0  0  0  0  0  0  0  0
    5.5086   -1.0630   -0.2349 C   0  0  0  0  0  0  0  0  0  0  0  0
    3.7912    2.0143   -0.9081 C   0  0  0  0  0  0  0  0  0  0  0  0
   -6.4087   -1.9949   -1.2146 C   0  0  0  0  0  0  0  0  0  0  0  0
    3.9450   -2.6601    0.6464 C   0  0  0  0  0  0  0  0  0  0  0  0
    5.2366   -2.3383    0.2570 C   0  0  0  0  0  0  0  0  0  0  0  0
   -6.6008   -3.4912   -1.3419 C   0  0  0  0  0  0  0  0  0  0  0  0
   -3.0274   -0.8776    0.4243 H   0  0  0  0  0  0  0  0  0  0  0  0
   -4.4435   -1.9209    2.1851 H   0  0  0  0  0  0  0  0  0  0  0  0
   -3.3598   -0.7141    2.9120 H   0  0  0  0  0  0  0  0  0  0  0  0
   -5.0577   -0.3265    2.6555 H   0  0  0  0  0  0  0  0  0  0  0  0
   -1.7053    2.1774    2.5454 H   0  0  0  0  0  0  0  0  0  0  0  0
   -2.5652    0.8328   -1.4573 H   0  0  0  0  0  0  0  0  0  0  0  0
    0.5550    2.8696    1.8197 H   0  0  0  0  0  0  0  0  0  0  0  0
   -0.3085    1.5180   -2.1703 H   0  0  0  0  0  0  0  0  0  0  0  0
    1.9273   -1.9697    0.8491 H   0  0  0  0  0  0  0  0  0  0  0  0
    6.5228   -0.8093   -0.5409 H   0  0  0  0  0  0  0  0  0  0  0  0
    4.0553    2.9901   -1.2969 H   0  0  0  0  0  0  0  0  0  0  0  0
   -7.3251   -1.5357   -0.8273 H   0  0  0  0  0  0  0  0  0  0  0  0
   -6.1736   -1.5670   -2.1955 H   0  0  0  0  0  0  0  0  0  0  0  0
    3.7050   -3.6467    1.0334 H   0  0  0  0  0  0  0  0  0  0  0  0
   -7.4211   -3.7234   -2.0267 H   0  0  0  0  0  0  0  0  0  0  0  0
   -5.6863   -3.9669   -1.7112 H   0  0  0  0  0  0  0  0  0  0  0  0
   -6.8184   -3.9362   -0.3653 H   0  0  0  0  0  0  0  0  0  0  0  0
  1 25  1  0  0  0  0
  2  8  1  0  0  0  0
  2  9  1  0  0  0  0
  3 11  1  0  0  0  0
  3 19  1  0  0  0  0
  4 14  1  0  0  0  0
  4 23  1  0  0  0  0
  5 14  2  0  0  0  0
  6 17  2  0  0  0  0
  6 19  1  0  0  0  0
  7 18  2  0  0  0  0
  7 22  1  0  0  0  0
  8 10  1  0  0  0  0
  8 14  1  0  0  0  0
  8 27  1  0  0  0  0
  9 12  2  0  0  0  0
  9 13  1  0  0  0  0
 10 28  1  0  0  0  0
 10 29  1  0  0  0  0
 10 30  1  0  0  0  0
 11 15  2  0  0  0  0
 11 16  1  0  0  0  0
 12 15  1  0  0  0  0
 12 31  1  0  0  0  0
 13 16  2  0  0  0  0
 13 32  1  0  0  0  0
 15 33  1  0  0  0  0
 16 34  1  0  0  0  0
 17 18  1  0  0  0  0
 17 20  1  0  0  0  0
 18 21  1  0  0  0  0
 19 22  2  0  0  0  0
 20 24  2  0  0  0  0
 20 35  1  0  0  0  0
 21 25  2  0  0  0  0
 21 36  1  0  0  0  0
 22 37  1  0  0  0  0
 23 26  1  0  0  0  0
 23 38  1  0  0  0  0
 23 39  1  0  0  0  0
 24 25  1  0  0  0  0
 24 40  1  0  0  0  0
 26 41  1  0  0  0  0
 26 42  1  0  0  0  0
 26 43  1  0  0  0  0
M  END
> <PUBCHEM_COMPOUND_CID>
53518

> <PUBCHEM_CONFORMER_RMSD>
0.8

> <PUBCHEM_CONFORMER_DIVERSEORDER>
1
191
93
203
238
62
15
201
266
78
115
139
131
150
229
174
52
87
263
46
239
74
211
267
14
104
28
60
5
261
232
216
124
136
193
205
128
147
249
215
82
103
2
95
197
141
167
12
53
237
160
162
77
166
250
34
24
149
151
17
102
260
207
258
256
158
76
123
189
226
58
6
31
18
121
169
79
111
208
173
45
91
118
110
7
220
47
242
153
16
187
36
196
140
116
251
185
73
192
230
72
37
90
176
54
67
8
259
38
98
190
89
22
84
30
144
32
66
143
10
61
130
236
26
210
199
97
48
195
179
88
69
56
134
120
234
117
125
194
21
100
39
243
247
64
101
254
81
198
132
86
142
70
159
223
50
172
122
80
221
248
264
43
105
177
19
180
68
107
157
225
269
13
4
241
156
217
181
127
219
268
228
252
65
235
63
186
75
202
25
245
155
23
71
126
218
42
204
129
270
106
3
168
164
57
108
113
214
231
148
188
213
227
41
11
40
83
182
20
33
224
240
55
183
271
170
175
184
145
255
265
51
154
178
163
94
133
246
262
233
35
209
119
138
96
161
92
44
49
222
9
135
146
212
27
206
114
152
253
257
171
200
112
85
244
29
165
59
137
99
109

> <PUBCHEM_MMFF94_PARTIAL_CHARGES>
32
1 -0.18
11 0.08
12 -0.15
13 -0.15
14 0.66
15 -0.15
16 -0.15
17 0.31
18 0.31
19 0.39
2 -0.36
20 -0.15
21 -0.15
22 0.16
23 0.28
24 -0.15
25 0.18
3 -0.17
31 0.15
32 0.15
33 0.15
34 0.15
35 0.15
36 0.15
37 0.15
4 -0.43
40 0.15
5 -0.57
6 -0.62
7 -0.62
8 0.34
9 0.08

> <PUBCHEM_EFFECTIVE_ROTOR_COUNT>
7

> <PUBCHEM_PHARMACOPHORE_FEATURES>
8
1 2 acceptor
1 3 acceptor
1 5 acceptor
1 6 acceptor
1 7 acceptor
6 17 18 20 21 24 25 rings
6 6 7 17 18 19 22 rings
6 9 11 12 13 15 16 rings

> <PUBCHEM_HEAVY_ATOM_COUNT>
26

> <PUBCHEM_ATOM_DEF_STEREO_COUNT>
0

> <PUBCHEM_ATOM_UDEF_STEREO_COUNT>
1

> <PUBCHEM_BOND_DEF_STEREO_COUNT>
0

> <PUBCHEM_BOND_UDEF_STEREO_COUNT>
0

> <PUBCHEM_ISOTOPIC_ATOM_COUNT>
0

> <PUBCHEM_COMPONENT_COUNT>
1

> <PUBCHEM_CACTVS_TAUTO_COUNT>
1

> <PUBCHEM_CONFORMER_ID>
0000D10E00000001

> <PUBCHEM_MMFF94_ENERGY>
78.5736

> <PUBCHEM_FEATURE_SELFOVERLAP>
40.69

> <PUBCHEM_SHAPE_FINGERPRINT>
10571361 74 18334860463723830263
10622 236 18410019857330374851
11796584 16 18187076261575760157
12107183 9 18122614226743166985
12596602 18 17458057145077569472
12645989 146 18267581489334068634
12760667 363 18341047518710473729
13103583 49 17822839979100028145
13533116 47 18409728422097619073
14848178 5 18409455773689736209
15019793 15 17542230060807585391
15064981 113 13829849192873207914
15163728 17 11527948993089907865
15250474 111 18337105769403564435
15475509 35 18115030680165369545
15510800 12 18131066000684310027
15728490 51 18187933846427708990
17134984 74 18197784289037899307
17857418 61 18410571803371569753
19315092 285 17967533432766307769
19319366 153 18120367654062858468
19841028 212 18411142411595155947
20028762 73 18336829796760904150
20567600 247 18337955584828843565
20691028 202 10303823059976798311
20715895 44 10879728579955308445
20775438 99 18126857005743632978
21133410 171 17270082524032489738
21315763 87 18187373129435522842
21585483 132 18338253569761223367
21774942 28 11167929261489684366
22393880 68 17560524026915795696
23559900 14 18130783443112303864
2748736 6 9583513183725149742
2838139 119 8646500582804407265
3004659 81 17988924509057747056
314194 84 18339350890495813633
3882209 13 16910068452439702675
397830 11 7781242206030536125
437795 70 17059790995951793165
439807 62 18338235960869374799
46194498 28 16413491309271989937
5104073 3 6266606569572959676
5283384 97 18413110537165749119
5874358 3 16986609791573595714
636775 72 9581219620536324982
7970288 3 18265899231989595590
96874 4 18261681389606089431

> <PUBCHEM_SHAPE_MULTIPOLES>
503.5
17.25
4.06
1.36
8.83
2.19
0.4
20.34
-3.08
-1.17
-0.46
1.79
0.02
-3.27

> <PUBCHEM_SHAPE_SELFOVERLAP>
1078.821

> <PUBCHEM_SHAPE_VOLUME>
279.4

> <PUBCHEM_COORDINATE_TYPE>
2
5
10

$$$$

