3633259
  -OEChem-07051213073D

 21 22  0     0  0  0  0  0  0999 V2000
    1.6093   -0.7550    0.7111 S   0  0  0  0  0  0  0  0  0  0  0  0
   -1.4964   -1.7652    0.1228 N   0  0  0  0  0  0  0  0  0  0  0  0
   -3.2981   -0.5360   -0.3367 N   0  0  0  0  0  0  0  0  0  0  0  0
   -2.1950    1.6285   -0.2456 N   0  0  0  0  0  0  0  0  0  0  0  0
    0.1872    1.5015    0.2646 N   0  0  0  0  0  0  0  0  0  0  0  0
   -1.0708   -0.4673    0.1280 C   0  0  0  0  0  0  0  0  0  0  0  0
   -2.2073    0.2766   -0.1598 C   0  0  0  0  0  0  0  0  0  0  0  0
    0.1443    0.1525    0.3435 C   0  0  0  0  0  0  0  0  0  0  0  0
   -2.8367   -1.7556   -0.1602 C   0  0  0  0  0  0  0  0  0  0  0  0
    2.8559    0.3410   -0.0096 C   0  0  0  0  0  0  0  0  0  0  0  0
   -0.9685    2.1472   -0.0210 C   0  0  0  0  0  0  0  0  0  0  0  0
    4.2220   -0.2346    0.1836 C   0  0  0  0  0  0  0  0  0  0  0  0
    5.0541   -0.5335   -0.8207 C   0  0  0  0  0  0  0  0  0  0  0  0
   -0.9289   -2.5844    0.2956 H   0  0  0  0  0  0  0  0  0  0  0  0
   -3.4130   -2.6677   -0.2223 H   0  0  0  0  0  0  0  0  0  0  0  0
    2.6343    0.4927   -1.0717 H   0  0  0  0  0  0  0  0  0  0  0  0
    2.8219    1.3165    0.4870 H   0  0  0  0  0  0  0  0  0  0  0  0
   -0.8983    3.2281   -0.0769 H   0  0  0  0  0  0  0  0  0  0  0  0
    4.5673   -0.3922    1.2028 H   0  0  0  0  0  0  0  0  0  0  0  0
    6.0400   -0.9363   -0.6155 H   0  0  0  0  0  0  0  0  0  0  0  0
    4.7705   -0.3844   -1.8565 H   0  0  0  0  0  0  0  0  0  0  0  0
  1  8  1  0  0  0  0
  1 10  1  0  0  0  0
  2  6  1  0  0  0  0
  2  9  1  0  0  0  0
  2 14  1  0  0  0  0
  3  7  1  0  0  0  0
  3  9  2  0  0  0  0
  4  7  1  0  0  0  0
  4 11  2  0  0  0  0
  5  8  2  0  0  0  0
  5 11  1  0  0  0  0
  6  7  2  0  0  0  0
  6  8  1  0  0  0  0
  9 15  1  0  0  0  0
 10 12  1  0  0  0  0
 10 16  1  0  0  0  0
 10 17  1  0  0  0  0
 11 18  1  0  0  0  0
 12 13  2  0  0  0  0
 12 19  1  0  0  0  0
 13 20  1  0  0  0  0
 13 21  1  0  0  0  0
M  END
> <PUBCHEM_COMPOUND_CID>
3633259

> <PUBCHEM_CONFORMER_RMSD>
0.6

> <PUBCHEM_CONFORMER_DIVERSEORDER>
1
4
9
12
14
10
15
7
13
11
6
8
2
5
3
16

> <PUBCHEM_MMFF94_PARTIAL_CHARGES>
19
1 -0.33
10 0.37
11 0.47
12 -0.29
13 -0.3
14 0.27
15 0.15
18 0.15
19 0.15
2 0.03
20 0.15
21 0.15
3 -0.57
4 -0.57
5 -0.62
6 -0.15
7 0.48
8 0.41
9 0.04

> <PUBCHEM_EFFECTIVE_ROTOR_COUNT>
3

> <PUBCHEM_PHARMACOPHORE_FEATURES>
7
1 13 hydrophobe
1 2 donor
1 5 acceptor
3 2 3 9 cation
3 4 5 11 cation
5 2 3 6 7 9 rings
6 4 5 6 7 8 11 rings

> <PUBCHEM_HEAVY_ATOM_COUNT>
13

> <PUBCHEM_ATOM_DEF_STEREO_COUNT>
0

> <PUBCHEM_ATOM_UDEF_STEREO_COUNT>
0

> <PUBCHEM_BOND_DEF_STEREO_COUNT>
0

> <PUBCHEM_BOND_UDEF_STEREO_COUNT>
0

> <PUBCHEM_ISOTOPIC_ATOM_COUNT>
0

> <PUBCHEM_COMPONENT_COUNT>
1

> <PUBCHEM_CACTVS_TAUTO_COUNT>
4

> <PUBCHEM_CONFORMER_ID>
0037706B00000001

> <PUBCHEM_MMFF94_ENERGY>
16.8885

> <PUBCHEM_FEATURE_SELFOVERLAP>
35.652

> <PUBCHEM_SHAPE_FINGERPRINT>
12032990 46 18337952277224218170
12186901 62 18410009983242272420
13024252 1 17203324524822034945
14911166 2 18339936956453546565
15536298 74 18337111151451669520
15669948 3 18340497745706368314
16945 1 18340222829308060569
17870717 6 18261659476724591294
1986462 14 18408601496236482982
20300324 65 18412539916901604660
20871998 184 18260269650602603487
20871998 22 18121220874805586467
20871999 31 18341902904412982365
21061003 4 17095241406335044032
21501502 16 18195814187481228042
22094290 60 18409446994744908514
22213442 358 18336267829953183456
23402539 116 18409175414966822238
23403322 49 18260263092678315254
23552423 10 18057050099238319801
23557571 272 18188199987970272372
23559900 14 18334583486220404000
2748010 2 18052273795020630779
3312278 4 18343586239229477955
528716 315 18343300366432940394
573450 72 18200326527804610306
6333449 129 18336549407803510824
7364860 26 17902516986707391209

> <PUBCHEM_SHAPE_MULTIPOLES>
251.46
7.39
1.86
0.74
10.01
0.48
0.01
-2.17
-1.8
-1.72
-0.02
0.36
-0.07
0.05

> <PUBCHEM_SHAPE_SELFOVERLAP>
521.809

> <PUBCHEM_SHAPE_VOLUME>
145

> <PUBCHEM_COORDINATE_TYPE>
2
5
10

$$$$

