47205105
  -OEChem-06241222583D

 26 27  0     0  0  0  0  0  0999 V2000
   -0.8789    2.5065    0.7480 Br  0  0  0  0  0  0  0  0  0  0  0  0
   -5.2673    0.3254   -0.9935 F   0  0  0  0  0  0  0  0  0  0  0  0
    0.2834   -0.2301    1.9756 O   0  0  0  0  0  0  0  0  0  0  0  0
    0.7807   -1.2623   -0.0404 N   0  0  0  0  0  0  0  0  0  0  0  0
    3.4985   -0.2771   -1.3298 N   0  0  0  0  0  0  0  0  0  0  0  0
    4.3754    0.7356   -1.4378 N   0  0  0  0  0  0  0  0  0  0  0  0
    2.1391   -1.6296    0.2899 C   0  0  0  0  0  0  0  0  0  0  0  0
    3.1139   -0.5386   -0.0475 C   0  0  0  0  0  0  0  0  0  0  0  0
   -1.4184   -0.3022    0.3642 C   0  0  0  0  0  0  0  0  0  0  0  0
   -0.0669   -0.5783    0.8361 C   0  0  0  0  0  0  0  0  0  0  0  0
    3.7862    0.3656    0.7379 C   0  0  0  0  0  0  0  0  0  0  0  0
   -1.9212    0.9953    0.2680 C   0  0  0  0  0  0  0  0  0  0  0  0
   -2.2159   -1.3878    0.0016 C   0  0  0  0  0  0  0  0  0  0  0  0
   -3.2212    1.2073   -0.1905 C   0  0  0  0  0  0  0  0  0  0  0  0
   -3.5160   -1.1757   -0.4571 C   0  0  0  0  0  0  0  0  0  0  0  0
    4.5472    1.1243   -0.1715 C   0  0  0  0  0  0  0  0  0  0  0  0
   -4.0186    0.1219   -0.5531 C   0  0  0  0  0  0  0  0  0  0  0  0
    2.3801   -2.5387   -0.2714 H   0  0  0  0  0  0  0  0  0  0  0  0
    2.1971   -1.8666    1.3580 H   0  0  0  0  0  0  0  0  0  0  0  0
    0.4394   -1.5053   -0.9661 H   0  0  0  0  0  0  0  0  0  0  0  0
    3.7328    0.4635    1.8123 H   0  0  0  0  0  0  0  0  0  0  0  0
    3.2033   -0.7471   -2.1766 H   0  0  0  0  0  0  0  0  0  0  0  0
   -1.8436   -2.4067    0.0751 H   0  0  0  0  0  0  0  0  0  0  0  0
   -3.6309    2.2108   -0.2724 H   0  0  0  0  0  0  0  0  0  0  0  0
   -4.1377   -2.0206   -0.7384 H   0  0  0  0  0  0  0  0  0  0  0  0
    5.2195    1.9443    0.0359 H   0  0  0  0  0  0  0  0  0  0  0  0
  1 12  1  0  0  0  0
  2 17  1  0  0  0  0
  3 10  2  0  0  0  0
  4  7  1  0  0  0  0
  4 10  1  0  0  0  0
  4 20  1  0  0  0  0
  5  6  1  0  0  0  0
  5  8  1  0  0  0  0
  5 22  1  0  0  0  0
  6 16  2  0  0  0  0
  7  8  1  0  0  0  0
  7 18  1  0  0  0  0
  7 19  1  0  0  0  0
  8 11  2  0  0  0  0
  9 10  1  0  0  0  0
  9 12  2  0  0  0  0
  9 13  1  0  0  0  0
 11 16  1  0  0  0  0
 11 21  1  0  0  0  0
 12 14  1  0  0  0  0
 13 15  2  0  0  0  0
 13 23  1  0  0  0  0
 14 17  2  0  0  0  0
 14 24  1  0  0  0  0
 15 17  1  0  0  0  0
 15 25  1  0  0  0  0
 16 26  1  0  0  0  0
M  END
> <PUBCHEM_COMPOUND_CID>
47205105

> <PUBCHEM_CONFORMER_RMSD>
0.6

> <PUBCHEM_CONFORMER_DIVERSEORDER>
3
47
30
19
58
39
54
12
46
16
29
34
59
8
23
56
37
49
10
36
6
45
41
7
18
22
55
27
48
9
57
15
38
33
53
11
32
26
52
51
4
17
24
40
2
50
5
25
43
14
44
31
20
35
1
42
28
21
13

> <PUBCHEM_MMFF94_PARTIAL_CHARGES>
24
1 -0.11
10 0.54
11 -0.15
12 0.11
13 -0.15
14 -0.15
15 -0.15
16 0.14
17 0.19
2 -0.19
20 0.37
21 0.15
22 0.27
23 0.15
24 0.15
25 0.15
26 0.15
3 -0.57
4 -0.73
5 0.3
6 -0.71
7 0.48
8 -0.33
9 0.09

> <PUBCHEM_EFFECTIVE_ROTOR_COUNT>
4

> <PUBCHEM_PHARMACOPHORE_FEATURES>
7
1 1 hydrophobe
1 3 acceptor
1 4 donor
1 5 donor
1 6 acceptor
5 5 6 8 11 16 rings
6 9 12 13 14 15 17 rings

> <PUBCHEM_HEAVY_ATOM_COUNT>
17

> <PUBCHEM_ATOM_DEF_STEREO_COUNT>
0

> <PUBCHEM_ATOM_UDEF_STEREO_COUNT>
0

> <PUBCHEM_BOND_DEF_STEREO_COUNT>
0

> <PUBCHEM_BOND_UDEF_STEREO_COUNT>
0

> <PUBCHEM_ISOTOPIC_ATOM_COUNT>
0

> <PUBCHEM_COMPONENT_COUNT>
1

> <PUBCHEM_CACTVS_TAUTO_COUNT>
4

> <PUBCHEM_CONFORMER_ID>
02D04AF100000003

> <PUBCHEM_MMFF94_ENERGY>
29.9377

> <PUBCHEM_FEATURE_SELFOVERLAP>
35.52

> <PUBCHEM_SHAPE_MULTIPOLES>
327.71
9.52
1.88
1.17
2.51
0.83
0.09
0.97
-4.04
-0.5
0.26
0.6
0.06
-0.28

> <PUBCHEM_SHAPE_SELFOVERLAP>
687.067

> <PUBCHEM_SHAPE_VOLUME>
189

> <PUBCHEM_COORDINATE_TYPE>
2
5
10

$$$$

