5504
  -OEChem-07051212533D

 24 25  0     0  0  0  0  0  0999 V2000
   -2.0967   -1.1026   -0.1176 N   0  0  0  0  0  0  0  0  0  0  0  0
   -2.1103    1.1712   -0.0232 N   0  0  0  0  0  0  0  0  0  0  0  0
   -1.5578    0.0866   -0.5049 C   0  0  0  0  0  0  0  0  0  0  0  0
   -3.1881   -0.8779    0.7813 C   0  0  0  0  0  0  0  0  0  0  0  0
   -0.3750    0.1391   -1.4152 C   0  0  0  0  0  0  0  0  0  0  0  0
   -3.2328    0.6570    0.8208 C   0  0  0  0  0  0  0  0  0  0  0  0
    0.9087    0.0603   -0.6397 C   0  0  0  0  0  0  0  0  0  0  0  0
    1.5136    1.2286   -0.1918 C   0  0  0  0  0  0  0  0  0  0  0  0
    1.4783   -1.1800   -0.3776 C   0  0  0  0  0  0  0  0  0  0  0  0
    2.7057    1.1556    0.5287 C   0  0  0  0  0  0  0  0  0  0  0  0
    2.6703   -1.2530    0.3430 C   0  0  0  0  0  0  0  0  0  0  0  0
    3.2841   -0.0851    0.7962 C   0  0  0  0  0  0  0  0  0  0  0  0
   -2.9810   -1.2971    1.7703 H   0  0  0  0  0  0  0  0  0  0  0  0
   -4.1217   -1.2985    0.3968 H   0  0  0  0  0  0  0  0  0  0  0  0
   -0.4103    1.0660   -2.0006 H   0  0  0  0  0  0  0  0  0  0  0  0
   -0.4362   -0.6842   -2.1373 H   0  0  0  0  0  0  0  0  0  0  0  0
   -4.1833    1.0311    0.4252 H   0  0  0  0  0  0  0  0  0  0  0  0
   -3.1191    1.0259    1.8455 H   0  0  0  0  0  0  0  0  0  0  0  0
   -1.7699   -2.0225   -0.3865 H   0  0  0  0  0  0  0  0  0  0  0  0
    1.0711    2.2003   -0.3929 H   0  0  0  0  0  0  0  0  0  0  0  0
    1.0086   -2.0961   -0.7247 H   0  0  0  0  0  0  0  0  0  0  0  0
    3.1833    2.0648    0.8820 H   0  0  0  0  0  0  0  0  0  0  0  0
    3.1206   -2.2190    0.5517 H   0  0  0  0  0  0  0  0  0  0  0  0
    4.2121   -0.1420    1.3574 H   0  0  0  0  0  0  0  0  0  0  0  0
  1  3  1  0  0  0  0
  1  4  1  0  0  0  0
  1 19  1  0  0  0  0
  2  3  2  0  0  0  0
  2  6  1  0  0  0  0
  3  5  1  0  0  0  0
  4  6  1  0  0  0  0
  4 13  1  0  0  0  0
  4 14  1  0  0  0  0
  5  7  1  0  0  0  0
  5 15  1  0  0  0  0
  5 16  1  0  0  0  0
  6 17  1  0  0  0  0
  6 18  1  0  0  0  0
  7  8  2  0  0  0  0
  7  9  1  0  0  0  0
  8 10  1  0  0  0  0
  8 20  1  0  0  0  0
  9 11  2  0  0  0  0
  9 21  1  0  0  0  0
 10 12  2  0  0  0  0
 10 22  1  0  0  0  0
 11 12  1  0  0  0  0
 11 23  1  0  0  0  0
 12 24  1  0  0  0  0
M  END
> <PUBCHEM_COMPOUND_CID>
5504

> <PUBCHEM_CONFORMER_RMSD>
0.6

> <PUBCHEM_CONFORMER_DIVERSEORDER>
1
4
3
2

> <PUBCHEM_MMFF94_PARTIAL_CHARGES>
18
1 -0.82
10 -0.15
11 -0.15
12 -0.15
19 0.4
2 -0.7
20 0.15
21 0.15
22 0.15
23 0.15
24 0.15
3 0.44
4 0.37
5 0.2
6 0.25
7 -0.14
8 -0.15
9 -0.15

> <PUBCHEM_EFFECTIVE_ROTOR_COUNT>
2.6

> <PUBCHEM_PHARMACOPHORE_FEATURES>
4
1 1 donor
3 1 2 3 cation
5 1 2 3 4 6 rings
6 7 8 9 10 11 12 rings

> <PUBCHEM_HEAVY_ATOM_COUNT>
12

> <PUBCHEM_ATOM_DEF_STEREO_COUNT>
0

> <PUBCHEM_ATOM_UDEF_STEREO_COUNT>
0

> <PUBCHEM_BOND_DEF_STEREO_COUNT>
0

> <PUBCHEM_BOND_UDEF_STEREO_COUNT>
0

> <PUBCHEM_ISOTOPIC_ATOM_COUNT>
0

> <PUBCHEM_COMPONENT_COUNT>
1

> <PUBCHEM_CACTVS_TAUTO_COUNT>
1

> <PUBCHEM_CONFORMER_ID>
0000158000000001

> <PUBCHEM_MMFF94_ENERGY>
32.7568

> <PUBCHEM_FEATURE_SELFOVERLAP>
20.297

> <PUBCHEM_SHAPE_FINGERPRINT>
11031198 65 5617266939162922581
11471102 22 18412545405553272050
12251169 10 18409730646916681795
12382932 28 18409168826539665993
12696612 119 18410572860044365948
12932764 1 18408319986319804924
13296908 3 16343708711685818373
13705890 14 11383829377029005984
13764800 53 15213294180325263127
14144814 61 18408886243434947651
15775835 57 17167868538690226072
16945 1 18410862031702418580
18186145 218 5761660282158263813
200 152 18115606871787827239
20279233 1 17775298169792826343
20281407 28 17274824687617854358
20361792 2 15769773537718152855
20528008 55 18410862049056412823
20653085 51 7565353049954652895
20671657 53 12535353419542197478
20711985 344 15266518342543066511
22169311 14 18339640139421118297
230 275 15791724230656922604
25 1 6843657810711368620
305870 269 15357689838054464550
369184 2 18408323289624389469
81228 2 16342596104734737445

> <PUBCHEM_SHAPE_MULTIPOLES>
236.99
5.84
1.38
1.05
1.52
0.04
-0.14
0.24
2.39
-0.32
0.1
0.13
-0.02
0.09

> <PUBCHEM_SHAPE_SELFOVERLAP>
499.287

> <PUBCHEM_SHAPE_VOLUME>
132.5

> <PUBCHEM_COORDINATE_TYPE>
2
5
10

$$$$

