44182442
  -OEChem-07051213093D

 35 37  0     1  0  0  0  0  0999 V2000
   -1.9975   -0.9634   -1.1928 O   0  0  0  0  0  0  0  0  0  0  0  0
   -2.2902    0.9849    1.8416 O   0  0  0  0  0  0  0  0  0  0  0  0
   -4.3939    0.2502    0.2635 O   0  0  0  0  0  0  0  0  0  0  0  0
   -2.7548   -2.9394   -0.1582 O   0  0  0  0  0  0  0  0  0  0  0  0
    1.1949    3.3112   -0.0333 O   0  0  0  0  0  0  0  0  0  0  0  0
    4.6119   -2.0399    0.2273 O   0  0  0  0  0  0  0  0  0  0  0  0
    5.1231    0.1749    0.2262 O   0  0  0  0  0  0  0  0  0  0  0  0
   -1.4463    0.0652   -0.3245 C   0  0  2  0  0  0  0  0  0  0  0  0
   -2.1408   -0.1607    1.0330 C   0  0  2  0  0  0  0  0  0  0  0  0
   -1.7364    1.3939   -1.0437 C   0  0  0  0  0  0  0  0  0  0  0  0
   -3.4805   -0.7665    0.6568 C   0  0  2  0  0  0  0  0  0  0  0  0
    0.0594   -0.1251   -0.2095 C   0  0  0  0  0  0  0  0  0  0  0  0
   -3.1065   -1.6159   -0.5460 C   0  0  1  0  0  0  0  0  0  0  0  0
   -1.0421    2.5972   -0.4349 C   0  0  0  0  0  0  0  0  0  0  0  0
    0.9376    0.9708   -0.1485 C   0  0  0  0  0  0  0  0  0  0  0  0
    0.4298    2.3651   -0.2053 C   0  0  0  0  0  0  0  0  0  0  0  0
    0.6093   -1.4184   -0.1312 C   0  0  0  0  0  0  0  0  0  0  0  0
    2.3209    0.7713   -0.0247 C   0  0  0  0  0  0  0  0  0  0  0  0
    1.9858   -1.6139   -0.0093 C   0  0  0  0  0  0  0  0  0  0  0  0
    2.8408   -0.5194    0.0425 C   0  0  0  0  0  0  0  0  0  0  0  0
    4.2753   -0.7220    0.1710 C   0  0  0  0  0  0  0  0  0  0  0  0
   -1.5854   -0.9050    1.6191 H   0  0  0  0  0  0  0  0  0  0  0  0
   -2.8128    1.5845   -1.1099 H   0  0  0  0  0  0  0  0  0  0  0  0
   -1.4093    1.3018   -2.0907 H   0  0  0  0  0  0  0  0  0  0  0  0
   -3.9276   -1.3301    1.4813 H   0  0  0  0  0  0  0  0  0  0  0  0
   -3.9283   -1.6789   -1.2675 H   0  0  0  0  0  0  0  0  0  0  0  0
   -1.4953    2.8869    0.5169 H   0  0  0  0  0  0  0  0  0  0  0  0
   -1.1460    3.4455   -1.1215 H   0  0  0  0  0  0  0  0  0  0  0  0
   -0.0336   -2.2945   -0.1591 H   0  0  0  0  0  0  0  0  0  0  0  0
   -2.8139    0.7304    2.6202 H   0  0  0  0  0  0  0  0  0  0  0  0
    2.9946    1.6241    0.0187 H   0  0  0  0  0  0  0  0  0  0  0  0
   -5.2153   -0.1885   -0.0164 H   0  0  0  0  0  0  0  0  0  0  0  0
   -2.8793   -3.5084   -0.9366 H   0  0  0  0  0  0  0  0  0  0  0  0
    2.3444   -2.6379    0.0445 H   0  0  0  0  0  0  0  0  0  0  0  0
    5.5810   -2.1656    0.3140 H   0  0  0  0  0  0  0  0  0  0  0  0
  1  8  1  0  0  0  0
  1 13  1  0  0  0  0
  2  9  1  0  0  0  0
  2 30  1  0  0  0  0
  3 11  1  0  0  0  0
  3 32  1  0  0  0  0
  4 13  1  0  0  0  0
  4 33  1  0  0  0  0
  5 16  2  0  0  0  0
  6 21  1  0  0  0  0
  6 35  1  0  0  0  0
  7 21  2  0  0  0  0
  8  9  1  0  0  0  0
  8 10  1  0  0  0  0
  8 12  1  0  0  0  0
  9 11  1  0  0  0  0
  9 22  1  0  0  0  0
 10 14  1  0  0  0  0
 10 23  1  0  0  0  0
 10 24  1  0  0  0  0
 11 13  1  0  0  0  0
 11 25  1  0  0  0  0
 12 15  2  0  0  0  0
 12 17  1  0  0  0  0
 13 26  1  0  0  0  0
 14 16  1  0  0  0  0
 14 27  1  0  0  0  0
 14 28  1  0  0  0  0
 15 16  1  0  0  0  0
 15 18  1  0  0  0  0
 17 19  2  0  0  0  0
 17 29  1  0  0  0  0
 18 20  2  0  0  0  0
 18 31  1  0  0  0  0
 19 20  1  0  0  0  0
 19 34  1  0  0  0  0
 20 21  1  0  0  0  0
M  END
> <PUBCHEM_COMPOUND_CID>
44182442

> <PUBCHEM_CONFORMER_RMSD>
0.6

> <PUBCHEM_CONFORMER_DIVERSEORDER>
1
5
10
9
6
4
2
8
7
3

> <PUBCHEM_MMFF94_PARTIAL_CHARGES>
27
1 -0.56
11 0.28
12 -0.14
13 0.56
14 0.06
15 0.09
16 0.42
17 -0.15
18 -0.15
19 -0.15
2 -0.68
20 0.09
21 0.63
29 0.15
3 -0.68
30 0.4
31 0.15
32 0.4
33 0.4
34 0.15
35 0.5
4 -0.68
5 -0.57
6 -0.65
7 -0.57
8 0.42
9 0.28

> <PUBCHEM_EFFECTIVE_ROTOR_COUNT>
2.2

> <PUBCHEM_PHARMACOPHORE_FEATURES>
14
1 1 acceptor
1 2 acceptor
1 2 donor
1 3 acceptor
1 3 donor
1 4 acceptor
1 4 donor
1 5 acceptor
1 6 acceptor
1 7 acceptor
3 6 7 21 anion
5 1 8 9 11 13 rings
6 12 15 17 18 19 20 rings
6 8 10 12 14 15 16 rings

> <PUBCHEM_HEAVY_ATOM_COUNT>
21

> <PUBCHEM_ATOM_DEF_STEREO_COUNT>
2

> <PUBCHEM_ATOM_UDEF_STEREO_COUNT>
2

> <PUBCHEM_BOND_DEF_STEREO_COUNT>
0

> <PUBCHEM_BOND_UDEF_STEREO_COUNT>
0

> <PUBCHEM_ISOTOPIC_ATOM_COUNT>
0

> <PUBCHEM_COMPONENT_COUNT>
1

> <PUBCHEM_CACTVS_TAUTO_COUNT>
2

> <PUBCHEM_CONFORMER_ID>
02A22BAA00000001

> <PUBCHEM_MMFF94_ENERGY>
64.3203

> <PUBCHEM_FEATURE_SELFOVERLAP>
71.177

> <PUBCHEM_SHAPE_FINGERPRINT>
10967382 1 18411420639201459791
10989021 7 18338519638135406661
11132069 177 18335417976110750698
11578080 2 17533811267634354737
11680986 33 17909548350724022498
12236239 1 18040435495074351899
12251169 10 18334287665520265555
12553582 1 18341059574478354330
12596599 1 18042665269836820438
13027679 85 18411140259573544733
13140716 1 18338230441144945643
13544653 18 18201997742244202790
13583140 156 14201404880371325126
138480 1 15024153363805371108
13965767 371 17321510088978127025
14142880 1 18043809999286600889
14787075 74 18130505215847637474
14790565 3 17764583218928620444
15042514 8 18123753316488488252
15375462 478 17894627045842718369
16945 1 18410859837164209693
17357779 13 18270978889409239421
17492 89 18050568448054755283
17980427 23 17458338667832118377
1813 80 18059840797061884382
18927931 339 18340487893552791486
19141452 34 18334294271185475455
19591789 44 17405136332299801892
19868273 325 18340490053219396676
200 152 18114472197136249975
20510252 161 18338238279655433240
21029758 27 18343015575789015172
21267235 1 18410847750984093103
21296965 67 18411983572191348076
21339142 126 18340770441574493709
221490 88 18054506898441373539
2306618 200 18188778386583479880
23402539 116 18409174307108216494
23419403 2 17751955503865924337
23557571 272 18188766275303044014
23559900 14 18263373494955974891
23622692 88 18260535737170298409
2748010 2 18121498226429115836
335352 9 18411420631086181797
34934 24 18341335612210603883
352729 6 17618796094192942580
5104073 3 18336264539813303635
6992083 37 18262502771846066049
7364860 26 18120938304570328996
8809292 202 18273495654398297939
9709674 26 17975701907045313518

> <PUBCHEM_SHAPE_MULTIPOLES>
391.08
7.45
2.84
0.95
5.66
1.2
0.18
-3.96
1.08
-0.25
-0.34
-0.76
0.1
-0.23

> <PUBCHEM_SHAPE_SELFOVERLAP>
858.994

> <PUBCHEM_SHAPE_VOLUME>
208.1

> <PUBCHEM_COORDINATE_TYPE>
2
5
10

$$$$

