11953925
  -OEChem-07051212563D

 61 61  0     1  0  0  0  0  0999 V2000
   -2.1454    0.3354    1.2622 O   0  0  0  0  0  0  0  0  0  0  0  0
   -3.4046    1.6239   -1.9747 O   0  0  0  0  0  0  0  0  0  0  0  0
    2.8627    1.9101    1.5397 O   0  0  0  0  0  0  0  0  0  0  0  0
    0.3836   -3.8913   -0.1416 O   0  0  0  0  0  0  0  0  0  0  0  0
   -2.7559    1.2312    0.3261 C   0  0  2  0  0  0  0  0  0  0  0  0
   -2.8364    0.6374   -1.1061 C   0  0  1  0  0  0  0  0  0  0  0  0
   -1.8011    2.4451    0.2974 C   0  0  0  0  0  0  0  0  0  0  0  0
   -3.6620   -0.6465   -1.2549 C   0  0  0  0  0  0  0  0  0  0  0  0
   -0.3885    2.0315   -0.1150 C   0  0  0  0  0  0  0  0  0  0  0  0
   -4.1085    1.7436    0.8548 C   0  0  0  0  0  0  0  0  0  0  0  0
   -2.9332   -1.9223   -0.8279 C   0  0  0  0  0  0  0  0  0  0  0  0
    0.6286    3.1802   -0.0755 C   0  0  0  0  0  0  0  0  0  0  0  0
   -2.7970   -0.8962    1.5407 C   0  0  0  0  0  0  0  0  0  0  0  0
   -2.3596   -1.9438    0.5624 C   0  0  0  0  0  0  0  0  0  0  0  0
    2.0451    2.8141   -0.5470 C   0  0  1  0  0  0  0  0  0  0  0  0
   -1.4863   -2.9014    0.9151 C   0  0  0  0  0  0  0  0  0  0  0  0
    2.9551    4.0413   -0.5274 C   0  0  0  0  0  0  0  0  0  0  0  0
    2.6607    1.7388    0.3398 C   0  0  0  0  0  0  0  0  0  0  0  0
   -1.0271   -3.9827   -0.0013 C   0  0  0  0  0  0  0  0  0  0  0  0
    3.0524    0.4726   -0.3400 C   0  0  0  0  0  0  0  0  0  0  0  0
    3.0285   -0.7459    0.2330 C   0  0  0  0  0  0  0  0  0  0  0  0
    3.4485   -2.0396   -0.4568 C   0  0  0  0  0  0  0  0  0  0  0  0
    2.5741   -0.8561    1.6693 C   0  0  0  0  0  0  0  0  0  0  0  0
    3.1381   -2.0335   -1.9574 C   0  0  0  0  0  0  0  0  0  0  0  0
    4.9282   -2.3456   -0.2149 C   0  0  0  0  0  0  0  0  0  0  0  0
   -1.8446    0.3948   -1.4946 H   0  0  0  0  0  0  0  0  0  0  0  0
   -2.1711    3.2305   -0.3726 H   0  0  0  0  0  0  0  0  0  0  0  0
   -1.7413    2.8856    1.3019 H   0  0  0  0  0  0  0  0  0  0  0  0
   -4.6166   -0.5582   -0.7245 H   0  0  0  0  0  0  0  0  0  0  0  0
   -3.9481   -0.7697   -2.3086 H   0  0  0  0  0  0  0  0  0  0  0  0
   -0.3758    1.6590   -1.1428 H   0  0  0  0  0  0  0  0  0  0  0  0
   -0.0254    1.2221    0.5268 H   0  0  0  0  0  0  0  0  0  0  0  0
   -4.4886    2.5775    0.2552 H   0  0  0  0  0  0  0  0  0  0  0  0
   -4.0123    2.0839    1.8925 H   0  0  0  0  0  0  0  0  0  0  0  0
   -4.8786    0.9679    0.8587 H   0  0  0  0  0  0  0  0  0  0  0  0
   -3.6351   -2.7592   -0.9347 H   0  0  0  0  0  0  0  0  0  0  0  0
   -2.1298   -2.0701   -1.5608 H   0  0  0  0  0  0  0  0  0  0  0  0
    0.2508    4.0009   -0.6992 H   0  0  0  0  0  0  0  0  0  0  0  0
    0.6734    3.5665    0.9513 H   0  0  0  0  0  0  0  0  0  0  0  0
   -2.4935   -1.1787    2.5558 H   0  0  0  0  0  0  0  0  0  0  0  0
   -3.8861   -0.8053    1.5765 H   0  0  0  0  0  0  0  0  0  0  0  0
    1.9853    2.4467   -1.5787 H   0  0  0  0  0  0  0  0  0  0  0  0
   -3.3420    1.2876   -2.8849 H   0  0  0  0  0  0  0  0  0  0  0  0
   -1.0792   -2.9136    1.9234 H   0  0  0  0  0  0  0  0  0  0  0  0
    3.0302    4.4707    0.4778 H   0  0  0  0  0  0  0  0  0  0  0  0
    2.5762    4.8174   -1.2006 H   0  0  0  0  0  0  0  0  0  0  0  0
    3.9686    3.7788   -0.8503 H   0  0  0  0  0  0  0  0  0  0  0  0
   -1.2487   -4.9517    0.4579 H   0  0  0  0  0  0  0  0  0  0  0  0
   -1.4738   -3.9976   -0.9967 H   0  0  0  0  0  0  0  0  0  0  0  0
    3.3542    0.5878   -1.3760 H   0  0  0  0  0  0  0  0  0  0  0  0
    2.8643   -2.8612   -0.0259 H   0  0  0  0  0  0  0  0  0  0  0  0
    2.2536   -1.8802    1.8922 H   0  0  0  0  0  0  0  0  0  0  0  0
    3.3944   -0.6166    2.3533 H   0  0  0  0  0  0  0  0  0  0  0  0
    1.7047   -0.2288    1.8889 H   0  0  0  0  0  0  0  0  0  0  0  0
    2.0950   -1.7582   -2.1481 H   0  0  0  0  0  0  0  0  0  0  0  0
    3.7858   -1.3450   -2.5105 H   0  0  0  0  0  0  0  0  0  0  0  0
    3.2961   -3.0329   -2.3786 H   0  0  0  0  0  0  0  0  0  0  0  0
    5.2057   -3.3019   -0.6711 H   0  0  0  0  0  0  0  0  0  0  0  0
    5.5723   -1.5686   -0.6417 H   0  0  0  0  0  0  0  0  0  0  0  0
    5.1456   -2.4120    0.8568 H   0  0  0  0  0  0  0  0  0  0  0  0
    0.5736   -3.0668   -0.6213 H   0  0  0  0  0  0  0  0  0  0  0  0
  1  5  1  0  0  0  0
  1 13  1  0  0  0  0
  2  6  1  0  0  0  0
  2 43  1  0  0  0  0
  3 18  2  0  0  0  0
  4 19  1  0  0  0  0
  4 61  1  0  0  0  0
  5  6  1  0  0  0  0
  5  7  1  0  0  0  0
  5 10  1  0  0  0  0
  6  8  1  0  0  0  0
  6 26  1  0  0  0  0
  7  9  1  0  0  0  0
  7 27  1  0  0  0  0
  7 28  1  0  0  0  0
  8 11  1  0  0  0  0
  8 29  1  0  0  0  0
  8 30  1  0  0  0  0
  9 12  1  0  0  0  0
  9 31  1  0  0  0  0
  9 32  1  0  0  0  0
 10 33  1  0  0  0  0
 10 34  1  0  0  0  0
 10 35  1  0  0  0  0
 11 14  1  0  0  0  0
 11 36  1  0  0  0  0
 11 37  1  0  0  0  0
 12 15  1  0  0  0  0
 12 38  1  0  0  0  0
 12 39  1  0  0  0  0
 13 14  1  0  0  0  0
 13 40  1  0  0  0  0
 13 41  1  0  0  0  0
 14 16  2  0  0  0  0
 15 17  1  0  0  0  0
 15 18  1  0  0  0  0
 15 42  1  0  0  0  0
 16 19  1  0  0  0  0
 16 44  1  0  0  0  0
 17 45  1  0  0  0  0
 17 46  1  0  0  0  0
 17 47  1  0  0  0  0
 18 20  1  0  0  0  0
 19 48  1  0  0  0  0
 19 49  1  0  0  0  0
 20 21  2  0  0  0  0
 20 50  1  0  0  0  0
 21 22  1  0  0  0  0
 21 23  1  0  0  0  0
 22 24  1  0  0  0  0
 22 25  1  0  0  0  0
 22 51  1  0  0  0  0
 23 52  1  0  0  0  0
 23 53  1  0  0  0  0
 23 54  1  0  0  0  0
 24 55  1  0  0  0  0
 24 56  1  0  0  0  0
 24 57  1  0  0  0  0
 25 58  1  0  0  0  0
 25 59  1  0  0  0  0
 25 60  1  0  0  0  0
M  END
> <PUBCHEM_COMPOUND_CID>
11953925

> <PUBCHEM_CONFORMER_RMSD>
1.2

> <PUBCHEM_CONFORMER_DIVERSEORDER>
9
135
81
94
123
105
78
106
49
116
60
42
26
136
131
75
91
59
141
31
82
147
47
45
102
126
127
35
142
63
129
41
52
84
95
11
115
18
100
134
55
83
24
34
110
22
88
145
137
58
118
32
121
128
76
2
29
122
148
140
99
16
112
1
149
89
39
62
23
38
30
108
5
87
119
28
10
98
64
97
21
8
74
143
80
44
37
114
117
13
96
57
120
130
69
50
73
4
138
93
46
133
51
85
104
139
25
33
113
124
53
67
150
56
66
111
79
6
7
101
72
36
77
90
144
15
92
20
125
65
48
40
19
17
86
109
103
12
146
70
71
14
107
61
3
43
132
68
54
27

> <PUBCHEM_MMFF94_PARTIAL_CHARGES>
21
1 -0.56
11 0.14
13 0.42
14 -0.28
15 0.06
16 -0.29
18 0.49
19 0.42
2 -0.68
20 -0.14
21 -0.28
22 0.14
23 0.14
3 -0.57
4 -0.68
43 0.4
44 0.15
5 0.28
50 0.15
6 0.28
61 0.4

> <PUBCHEM_EFFECTIVE_ROTOR_COUNT>
9.2

> <PUBCHEM_PHARMACOPHORE_FEATURES>
11
1 1 acceptor
1 17 hydrophobe
1 2 acceptor
1 2 donor
1 23 hydrophobe
1 3 acceptor
1 4 acceptor
1 4 donor
3 22 24 25 hydrophobe
4 7 9 12 15 hydrophobe
7 1 5 6 8 11 13 14 rings

> <PUBCHEM_HEAVY_ATOM_COUNT>
25

> <PUBCHEM_ATOM_DEF_STEREO_COUNT>
3

> <PUBCHEM_ATOM_UDEF_STEREO_COUNT>
0

> <PUBCHEM_BOND_DEF_STEREO_COUNT>
2

> <PUBCHEM_BOND_UDEF_STEREO_COUNT>
0

> <PUBCHEM_ISOTOPIC_ATOM_COUNT>
0

> <PUBCHEM_COMPONENT_COUNT>
1

> <PUBCHEM_CACTVS_TAUTO_COUNT>
8

> <PUBCHEM_CONFORMER_ID>
00B6670500000009

> <PUBCHEM_MMFF94_ENERGY>
63.4414

> <PUBCHEM_FEATURE_SELFOVERLAP>
55.818

> <PUBCHEM_SHAPE_FINGERPRINT>
10074138 170 16675033093970942536
10616163 171 17979633429291324585
10764073 3 17914020305844909057
12038231 1 18266176330130595126
12156800 1 15816686498903225442
12422481 6 18197191734549965523
12539773 59 17531815791315270315
12553582 1 18197220467105708520
12633257 1 18337952410610706478
13122387 1 18410013277319021702
13140716 1 18408880763130602609
13402501 40 18192987347312604766
13533116 47 18261956241848353969
13773456 30 18267604436705475789
14251757 5 18267842030713570830
15420108 30 17032749830222402833
19930381 70 18195525020423695139
20600515 1 18118671343780668908
20764821 26 18410849984298463558
21285901 2 17697906686620595959
22113638 7 18339082712827508822
23559900 14 18336275582300931720
3298306 158 17911803780154565461
4280585 95 18341058527339303280
4403749 210 17688335399125865488
445580 102 17907297654648379858
5283178 26 18268980054652998821
9709674 26 18339647745634139004

> <PUBCHEM_SHAPE_MULTIPOLES>
491.01
8.3
5.47
1.49
2.22
0.56
0.14
1.04
0.95
2.41
0.46
-0.38
0.21
0.63

> <PUBCHEM_SHAPE_SELFOVERLAP>
966.766

> <PUBCHEM_SHAPE_VOLUME>
292.9

> <PUBCHEM_COORDINATE_TYPE>
2
5
10

$$$$

