17396239
  -OEChem-06241222552D

 35 37  0     0  0  0  0  0  0999 V2000
    3.7320    0.5000    0.0000 S   0  0  0  0  0  0  0  0  0  0  0  0
    2.0000   -0.5000    0.0000 F   0  0  0  0  0  0  0  0  0  0  0  0
    2.0000   -2.5000    0.0000 F   0  0  0  0  0  0  0  0  0  0  0  0
    3.7320   -3.5000    0.0000 F   0  0  0  0  0  0  0  0  0  0  0  0
    4.7320    0.5000    0.0000 O   0  0  0  0  0  0  0  0  0  0  0  0
    2.7320    0.5000    0.0000 O   0  0  0  0  0  0  0  0  0  0  0  0
    3.7320    1.5000    0.0000 N   0  0  0  0  0  0  0  0  0  0  0  0
    7.1962    1.5000    0.0000 N   0  0  0  0  0  0  0  0  0  0  0  0
    7.3007    0.5055    0.0000 N   0  0  0  0  0  0  0  0  0  0  0  0
    8.7788    1.1636    0.0000 N   0  0  0  0  0  0  0  0  0  0  0  0
    8.2788    0.2976    0.0000 N   0  0  0  0  0  0  0  0  0  0  0  0
    4.5981    2.0000    0.0000 C   0  0  0  0  0  0  0  0  0  0  0  0
    5.4641    1.5000    0.0000 C   0  0  0  0  0  0  0  0  0  0  0  0
    6.3301    2.0000    0.0000 C   0  0  0  0  0  0  0  0  0  0  0  0
    3.7320   -0.5000    0.0000 C   0  0  0  0  0  0  0  0  0  0  0  0
    4.5981    3.0000    0.0000 C   0  0  0  0  0  0  0  0  0  0  0  0
    6.3301    3.0000    0.0000 C   0  0  0  0  0  0  0  0  0  0  0  0
    5.4641    0.5000    0.0000 C   0  0  0  0  0  0  0  0  0  0  0  0
    5.4641    3.5000    0.0000 C   0  0  0  0  0  0  0  0  0  0  0  0
    2.8660   -1.0000    0.0000 C   0  0  0  0  0  0  0  0  0  0  0  0
    4.5981   -1.0000    0.0000 C   0  0  0  0  0  0  0  0  0  0  0  0
    2.8660   -2.0000    0.0000 C   0  0  0  0  0  0  0  0  0  0  0  0
    4.5981   -2.0000    0.0000 C   0  0  0  0  0  0  0  0  0  0  0  0
    3.7320   -2.5000    0.0000 C   0  0  0  0  0  0  0  0  0  0  0  0
    8.1097    1.9067    0.0000 C   0  0  0  0  0  0  0  0  0  0  0  0
    3.1951    1.8100    0.0000 H   0  0  0  0  0  0  0  0  0  0  0  0
    4.0611    3.3100    0.0000 H   0  0  0  0  0  0  0  0  0  0  0  0
    6.8671    3.3100    0.0000 H   0  0  0  0  0  0  0  0  0  0  0  0
    4.8441    0.5000    0.0000 H   0  0  0  0  0  0  0  0  0  0  0  0
    5.4641   -0.1200    0.0000 H   0  0  0  0  0  0  0  0  0  0  0  0
    6.0841    0.5000    0.0000 H   0  0  0  0  0  0  0  0  0  0  0  0
    5.4641    4.1200    0.0000 H   0  0  0  0  0  0  0  0  0  0  0  0
    5.1350   -0.6900    0.0000 H   0  0  0  0  0  0  0  0  0  0  0  0
    5.1350   -2.3100    0.0000 H   0  0  0  0  0  0  0  0  0  0  0  0
    8.2386    2.5132    0.0000 H   0  0  0  0  0  0  0  0  0  0  0  0
  1  5  2  0  0  0  0
  1  6  2  0  0  0  0
  1  7  1  0  0  0  0
  1 15  1  0  0  0  0
  2 20  1  0  0  0  0
  3 22  1  0  0  0  0
  4 24  1  0  0  0  0
  7 12  1  0  0  0  0
  7 26  1  0  0  0  0
  8  9  1  0  0  0  0
  8 14  1  0  0  0  0
  8 25  1  0  0  0  0
  9 11  2  0  0  0  0
 10 11  1  0  0  0  0
 10 25  2  0  0  0  0
 12 13  2  0  0  0  0
 12 16  1  0  0  0  0
 13 14  1  0  0  0  0
 13 18  1  0  0  0  0
 14 17  2  0  0  0  0
 15 20  2  0  0  0  0
 15 21  1  0  0  0  0
 16 19  2  0  0  0  0
 16 27  1  0  0  0  0
 17 19  1  0  0  0  0
 17 28  1  0  0  0  0
 18 29  1  0  0  0  0
 18 30  1  0  0  0  0
 18 31  1  0  0  0  0
 19 32  1  0  0  0  0
 20 22  1  0  0  0  0
 21 23  2  0  0  0  0
 21 33  1  0  0  0  0
 22 24  2  0  0  0  0
 23 24  1  0  0  0  0
 23 34  1  0  0  0  0
 25 35  1  0  0  0  0
M  END
> <PUBCHEM_COMPOUND_CID>
17396239

> <PUBCHEM_COMPOUND_CANONICALIZED>
1

> <PUBCHEM_CACTVS_COMPLEXITY>
563

> <PUBCHEM_CACTVS_HBOND_ACCEPTOR>
9

> <PUBCHEM_CACTVS_HBOND_DONOR>
1

> <PUBCHEM_CACTVS_ROTATABLE_BOND>
4

> <PUBCHEM_CACTVS_SUBSKEYS>
AAADccBzsYBAAAAAAAAAAAAAAAAAAWAAAAAwYAAAAAAAAAAB0AAAHQQYQAAADAiBWAw30YZIAAKiAiRDZHDCBDMxgoAdiBgIZIiIICLA2dGEIAhgkAJIyCcQgAAOAAAAAAQCAAAAAAAACAQAAAAAAAAAAA==

> <PUBCHEM_IUPAC_OPENEYE_NAME>
2,3,4-trifluoro-N-[2-methyl-3-(tetrazol-1-yl)phenyl]benzenesulfonamide

> <PUBCHEM_IUPAC_CAS_NAME>
2,3,4-trifluoro-N-[2-methyl-3-(1-tetrazolyl)phenyl]benzenesulfonamide

> <PUBCHEM_IUPAC_NAME>
2,3,4-trifluoro-N-[2-methyl-3-(tetrazol-1-yl)phenyl]benzenesulfonamide

> <PUBCHEM_IUPAC_SYSTEMATIC_NAME>
2,3,4-tris(fluoranyl)-N-[2-methyl-3-(1,2,3,4-tetrazol-1-yl)phenyl]benzenesulfonamide

> <PUBCHEM_IUPAC_TRADITIONAL_NAME>
2,3,4-trifluoro-N-[2-methyl-3-(tetrazol-1-yl)phenyl]benzenesulfonamide

> <PUBCHEM_IUPAC_INCHI>
InChI=1S/C14H10F3N5O2S/c1-8-10(3-2-4-11(8)22-7-18-20-21-22)19-25(23,24)12-6-5-9(15)13(16)14(12)17/h2-7,19H,1H3

> <PUBCHEM_IUPAC_INCHIKEY>
KPUISNPEMQVMMG-UHFFFAOYSA-N

> <PUBCHEM_XLOGP3_AA>
2.4

> <PUBCHEM_EXACT_MASS>
369.05073

> <PUBCHEM_MOLECULAR_FORMULA>
C14H10F3N5O2S

> <PUBCHEM_MOLECULAR_WEIGHT>
369.32171

> <PUBCHEM_OPENEYE_CAN_SMILES>
CC1=C(C=CC=C1NS(=O)(=O)C2=C(C(=C(C=C2)F)F)F)N3C=NN=N3

> <PUBCHEM_OPENEYE_ISO_SMILES>
CC1=C(C=CC=C1NS(=O)(=O)C2=C(C(=C(C=C2)F)F)F)N3C=NN=N3

> <PUBCHEM_CACTVS_TPSA>
98.2

> <PUBCHEM_MONOISOTOPIC_WEIGHT>
369.05073

> <PUBCHEM_TOTAL_CHARGE>
0

> <PUBCHEM_HEAVY_ATOM_COUNT>
25

> <PUBCHEM_ATOM_DEF_STEREO_COUNT>
0

> <PUBCHEM_ATOM_UDEF_STEREO_COUNT>
0

> <PUBCHEM_BOND_DEF_STEREO_COUNT>
0

> <PUBCHEM_BOND_UDEF_STEREO_COUNT>
0

> <PUBCHEM_ISOTOPIC_ATOM_COUNT>
0

> <PUBCHEM_COMPONENT_COUNT>
1

> <PUBCHEM_CACTVS_TAUTO_COUNT>
1

> <PUBCHEM_COORDINATE_TYPE>
1
5
255

> <PUBCHEM_BONDANNOTATIONS>
10  11  8
10  25  8
12  13  8
12  16  8
13  14  8
14  17  8
15  20  8
15  21  8
16  19  8
17  19  8
20  22  8
21  23  8
22  24  8
23  24  8
8  25  8
8  9  8
9  11  8

$$$$

