16496
  -OEChem-07051212473D

 14 14  0     0  0  0  0  0  0999 V2000
    3.2158   -0.3854   -0.0003 Cl  0  0  0  0  0  0  0  0  0  0  0  0
   -1.6556   -1.8358    0.0000 O   0  0  0  0  0  0  0  0  0  0  0  0
   -2.5362    0.8007   -0.0007 O   0  0  0  0  0  0  0  0  0  0  0  0
   -0.7621   -0.8075    0.0003 C   0  0  0  0  0  0  0  0  0  0  0  0
   -1.2040    0.5155    0.0004 C   0  0  0  0  0  0  0  0  0  0  0  0
    0.6047   -1.0864    0.0000 C   0  0  0  0  0  0  0  0  0  0  0  0
   -0.2794    1.5598    0.0003 C   0  0  0  0  0  0  0  0  0  0  0  0
    1.5295   -0.0420   -0.0001 C   0  0  0  0  0  0  0  0  0  0  0  0
    1.0873    1.2810    0.0000 C   0  0  0  0  0  0  0  0  0  0  0  0
    0.9488   -2.1182   -0.0001 H   0  0  0  0  0  0  0  0  0  0  0  0
   -0.6172    2.5926    0.0002 H   0  0  0  0  0  0  0  0  0  0  0  0
    1.7964    2.1049   -0.0002 H   0  0  0  0  0  0  0  0  0  0  0  0
   -1.1698   -2.6784   -0.0001 H   0  0  0  0  0  0  0  0  0  0  0  0
   -3.0285   -0.0385   -0.0009 H   0  0  0  0  0  0  0  0  0  0  0  0
  1  8  1  0  0  0  0
  2  4  1  0  0  0  0
  2 13  1  0  0  0  0
  3  5  1  0  0  0  0
  3 14  1  0  0  0  0
  4  5  2  0  0  0  0
  4  6  1  0  0  0  0
  5  7  1  0  0  0  0
  6  8  2  0  0  0  0
  6 10  1  0  0  0  0
  7  9  2  0  0  0  0
  7 11  1  0  0  0  0
  8  9  1  0  0  0  0
  9 12  1  0  0  0  0
M  END
> <PUBCHEM_COMPOUND_CID>
16496

> <PUBCHEM_CONFORMER_RMSD>
0.4

> <PUBCHEM_CONFORMER_DIVERSEORDER>
1

> <PUBCHEM_MMFF94_PARTIAL_CHARGES>
14
1 -0.18
10 0.15
11 0.15
12 0.15
13 0.45
14 0.45
2 -0.53
3 -0.53
4 0.08
5 0.08
6 -0.15
7 -0.15
8 0.18
9 -0.15

> <PUBCHEM_EFFECTIVE_ROTOR_COUNT>
0

> <PUBCHEM_PHARMACOPHORE_FEATURES>
3
1 2 donor
1 3 donor
6 4 5 6 7 8 9 rings

> <PUBCHEM_HEAVY_ATOM_COUNT>
9

> <PUBCHEM_ATOM_DEF_STEREO_COUNT>
0

> <PUBCHEM_ATOM_UDEF_STEREO_COUNT>
0

> <PUBCHEM_BOND_DEF_STEREO_COUNT>
0

> <PUBCHEM_BOND_UDEF_STEREO_COUNT>
0

> <PUBCHEM_ISOTOPIC_ATOM_COUNT>
0

> <PUBCHEM_COMPONENT_COUNT>
1

> <PUBCHEM_CACTVS_TAUTO_COUNT>
8

> <PUBCHEM_CONFORMER_ID>
0000407000000001

> <PUBCHEM_MMFF94_ENERGY>
18.2387

> <PUBCHEM_FEATURE_SELFOVERLAP>
15.227

> <PUBCHEM_SHAPE_FINGERPRINT>
14128692 85 18339917100608785884
15310529 11 16630247016857405900
16714656 1 18339359772625169060
16945 1 18410855507515389252
18185500 45 18413672413361242778
193761 8 18050286972739758821
20871998 184 18187644678500179974
21040471 1 18338516464133404385
23235685 24 18336833103288875968
23402655 69 17977966892725745517
23552423 10 18200875054883200852
2748010 2 18266181634367544604
29004967 10 18201146762809095832
369184 2 18341055193975183082
5084963 1 18188768327785955202

> <PUBCHEM_SHAPE_MULTIPOLES>
175.35
3.37
1.68
0.6
1.61
0.11
0
0.31
0
-0.57
0
0.06
-0.01
0

> <PUBCHEM_SHAPE_SELFOVERLAP>
358.527

> <PUBCHEM_SHAPE_VOLUME>
102.6

> <PUBCHEM_COORDINATE_TYPE>
2
5
10

$$$$

