12665
  -OEChem-06261207133D

 16 16  0     0  0  0  0  0  0999 V2000
    2.3133   -0.0013    0.0090 O   0  0  0  0  0  0  0  0  0  0  0  0
    0.3517   -1.1794   -0.0053 N   0  0  0  0  0  0  0  0  0  0  0  0
   -1.8141   -0.0197   -0.3080 C   0  0  0  0  0  0  0  0  0  0  0  0
   -1.1462    1.1980    0.3093 C   0  0  0  0  0  0  0  0  0  0  0  0
   -1.0876   -1.2691    0.1532 C   0  0  0  0  0  0  0  0  0  0  0  0
    0.3017    1.2825   -0.1470 C   0  0  0  0  0  0  0  0  0  0  0  0
    1.0811   -0.0110   -0.0112 C   0  0  0  0  0  0  0  0  0  0  0  0
   -2.8684   -0.0688   -0.0157 H   0  0  0  0  0  0  0  0  0  0  0  0
   -1.7800    0.0535   -1.4019 H   0  0  0  0  0  0  0  0  0  0  0  0
   -1.1893    1.1308    1.4033 H   0  0  0  0  0  0  0  0  0  0  0  0
   -1.6804    2.1093    0.0190 H   0  0  0  0  0  0  0  0  0  0  0  0
   -1.2765   -1.4521    1.2169 H   0  0  0  0  0  0  0  0  0  0  0  0
   -1.4307   -2.1466   -0.4039 H   0  0  0  0  0  0  0  0  0  0  0  0
    0.8189    2.0588    0.4277 H   0  0  0  0  0  0  0  0  0  0  0  0
    0.3400    1.5699   -1.2047 H   0  0  0  0  0  0  0  0  0  0  0  0
    0.8745   -2.0486    0.0425 H   0  0  0  0  0  0  0  0  0  0  0  0
  1  7  2  0  0  0  0
  2  5  1  0  0  0  0
  2  7  1  0  0  0  0
  2 16  1  0  0  0  0
  3  4  1  0  0  0  0
  3  5  1  0  0  0  0
  3  8  1  0  0  0  0
  3  9  1  0  0  0  0
  4  6  1  0  0  0  0
  4 10  1  0  0  0  0
  4 11  1  0  0  0  0
  5 12  1  0  0  0  0
  5 13  1  0  0  0  0
  6  7  1  0  0  0  0
  6 14  1  0  0  0  0
  6 15  1  0  0  0  0
M  END
> <PUBCHEM_COMPOUND_CID>
12665

> <PUBCHEM_CONFORMER_RMSD>
0.4

> <PUBCHEM_CONFORMER_DIVERSEORDER>
1

> <PUBCHEM_MMFF94_PARTIAL_CHARGES>
6
1 -0.57
16 0.37
2 -0.73
5 0.3
6 0.06
7 0.57

> <PUBCHEM_EFFECTIVE_ROTOR_COUNT>
1

> <PUBCHEM_PHARMACOPHORE_FEATURES>
3
1 1 acceptor
1 2 donor
6 2 3 4 5 6 7 rings

> <PUBCHEM_HEAVY_ATOM_COUNT>
7

> <PUBCHEM_ATOM_DEF_STEREO_COUNT>
0

> <PUBCHEM_ATOM_UDEF_STEREO_COUNT>
0

> <PUBCHEM_BOND_DEF_STEREO_COUNT>
0

> <PUBCHEM_BOND_UDEF_STEREO_COUNT>
0

> <PUBCHEM_ISOTOPIC_ATOM_COUNT>
0

> <PUBCHEM_COMPONENT_COUNT>
1

> <PUBCHEM_CACTVS_TAUTO_COUNT>
2

> <PUBCHEM_CONFORMER_ID>
0000317900000001

> <PUBCHEM_MMFF94_ENERGY>
5.8629

> <PUBCHEM_FEATURE_SELFOVERLAP>
15.223

> <PUBCHEM_SHAPE_FINGERPRINT>
16714656 1 18410851075109003452
18185500 45 18412829074957596887
20096714 4 18121215647645744777
21040471 1 18266456701147554473
23552423 10 18272363213614946598
29004967 10 18410851023458665187

> <PUBCHEM_SHAPE_MULTIPOLES>
133.21
2.27
1.48
0.63
0.68
0.04
0
-0.09
-0.07
-0.32
0.07
-0.08
0.03
-0.04

> <PUBCHEM_SHAPE_SELFOVERLAP>
258.661

> <PUBCHEM_SHAPE_VOLUME>
80.1

> <PUBCHEM_COORDINATE_TYPE>
2
5
10

$$$$

