439288
  -OEChem-07051212443D

 24 24  0     1  0  0  0  0  0999 V2000
   -3.0175   -0.1418    0.0590 P   0  0  0  0  0  0  0  0  0  0  0  0
    1.1839   -0.9641    0.4605 O   0  0  0  0  0  0  0  0  0  0  0  0
    2.9519    1.5904    0.6533 O   0  0  0  0  0  0  0  0  0  0  0  0
   -1.4794   -0.1392    0.5650 O   0  0  0  0  0  0  0  0  0  0  0  0
    3.5015   -1.3628    0.4219 O   0  0  0  0  0  0  0  0  0  0  0  0
   -2.9138   -0.6226   -1.4815 O   0  0  0  0  0  0  0  0  0  0  0  0
   -3.3596    1.4338   -0.0653 O   0  0  0  0  0  0  0  0  0  0  0  0
   -3.9648   -0.9304    0.9150 O   0  0  0  0  0  0  0  0  0  0  0  0
    0.8382    0.4346    0.4820 C   0  0  1  0  0  0  0  0  0  0  0  0
    1.9440    1.1701   -0.2636 C   0  0  2  0  0  0  0  0  0  0  0  0
    2.5007    0.1092   -1.1889 C   0  0  0  0  0  0  0  0  0  0  0  0
    2.3359   -1.1600   -0.3691 C   0  0  2  0  0  0  0  0  0  0  0  0
   -0.5211    0.5828   -0.1884 C   0  0  0  0  0  0  0  0  0  0  0  0
    0.7719    0.7315    1.5346 H   0  0  0  0  0  0  0  0  0  0  0  0
    1.5990    2.0587   -0.8007 H   0  0  0  0  0  0  0  0  0  0  0  0
    1.8722    0.0469   -2.0846 H   0  0  0  0  0  0  0  0  0  0  0  0
    3.5374    0.2936   -1.4863 H   0  0  0  0  0  0  0  0  0  0  0  0
    2.1899   -2.0457   -0.9935 H   0  0  0  0  0  0  0  0  0  0  0  0
   -0.4971    0.1752   -1.2042 H   0  0  0  0  0  0  0  0  0  0  0  0
   -0.8078    1.6381   -0.2313 H   0  0  0  0  0  0  0  0  0  0  0  0
    2.5443    2.2341    1.2575 H   0  0  0  0  0  0  0  0  0  0  0  0
    3.8590   -0.4966    0.6790 H   0  0  0  0  0  0  0  0  0  0  0  0
   -3.7399   -0.7689   -1.9896 H   0  0  0  0  0  0  0  0  0  0  0  0
   -4.2791    1.7048   -0.2728 H   0  0  0  0  0  0  0  0  0  0  0  0
  1  4  1  0  0  0  0
  1  6  1  0  0  0  0
  1  7  1  0  0  0  0
  1  8  2  0  0  0  0
  2  9  1  0  0  0  0
  2 12  1  0  0  0  0
  3 10  1  0  0  0  0
  3 21  1  0  0  0  0
  4 13  1  0  0  0  0
  5 12  1  0  0  0  0
  5 22  1  0  0  0  0
  6 23  1  0  0  0  0
  7 24  1  0  0  0  0
  9 10  1  0  0  0  0
  9 13  1  0  0  0  0
  9 14  1  0  0  0  0
 10 11  1  0  0  0  0
 10 15  1  0  0  0  0
 11 12  1  0  0  0  0
 11 16  1  0  0  0  0
 11 17  1  0  0  0  0
 12 18  1  0  0  0  0
 13 19  1  0  0  0  0
 13 20  1  0  0  0  0
M  END
> <PUBCHEM_COMPOUND_CID>
439288

> <PUBCHEM_CONFORMER_RMSD>
0.6

> <PUBCHEM_CONFORMER_DIVERSEORDER>
4
12
24
25
15
5
20
14
22
9
2
16
17
6
23
10
11
7
19
21
8
1
18
13
3

> <PUBCHEM_MMFF94_PARTIAL_CHARGES>
16
1 1.51
10 0.28
12 0.56
13 0.28
2 -0.56
21 0.4
22 0.4
23 0.5
24 0.5
3 -0.68
4 -0.55
5 -0.68
6 -0.77
7 -0.77
8 -0.7
9 0.28

> <PUBCHEM_EFFECTIVE_ROTOR_COUNT>
4

> <PUBCHEM_PHARMACOPHORE_FEATURES>
10
1 2 acceptor
1 3 acceptor
1 3 donor
1 5 acceptor
1 5 donor
1 6 acceptor
1 7 acceptor
1 8 acceptor
4 1 6 7 8 anion
5 2 9 10 11 12 rings

> <PUBCHEM_HEAVY_ATOM_COUNT>
13

> <PUBCHEM_ATOM_DEF_STEREO_COUNT>
2

> <PUBCHEM_ATOM_UDEF_STEREO_COUNT>
1

> <PUBCHEM_BOND_DEF_STEREO_COUNT>
0

> <PUBCHEM_BOND_UDEF_STEREO_COUNT>
0

> <PUBCHEM_ISOTOPIC_ATOM_COUNT>
0

> <PUBCHEM_COMPONENT_COUNT>
1

> <PUBCHEM_CACTVS_TAUTO_COUNT>
1

> <PUBCHEM_CONFORMER_ID>
0006B3F800000004

> <PUBCHEM_MMFF94_ENERGY>
-9.9146

> <PUBCHEM_FEATURE_SELFOVERLAP>
50.822

> <PUBCHEM_SHAPE_FINGERPRINT>
12932764 1 18040714740825846869
13296908 3 18413669106463258633
13705890 14 18060697282233874114
14144814 61 18409444791326536953
14325111 11 18411979157001761161
18186145 218 17632579378848594995
190213 19 18131913750055836581
19422 9 18201428199389407567
20279233 1 18202289069802037451
20645477 70 18333737939713269727
21524375 3 16955932003317611256
23402655 69 18408320012216559893
23557571 272 17060065804759568437
3248919 1 17918276424401878621

> <PUBCHEM_SHAPE_MULTIPOLES>
230.3
6.84
1.41
1
4.37
0.15
0.26
-0.86
-0.19
-0.71
-0.14
0.15
-0.11
0.12

> <PUBCHEM_SHAPE_SELFOVERLAP>
444.054

> <PUBCHEM_SHAPE_VOLUME>
141.4

> <PUBCHEM_COORDINATE_TYPE>
2
5
10

$$$$

