17395519
  -OEChem-06241222502D

 45 48  0     1  0  0  0  0  0999 V2000
    5.3515    2.8481    0.0000 O   0  0  0  0  0  0  0  0  0  0  0  0
    5.5714   -1.4618    0.0000 O   0  0  0  0  0  0  0  0  0  0  0  0
    9.9650    1.4286    0.0000 O   0  0  0  0  0  0  0  0  0  0  0  0
    9.9650    3.4979    0.0000 O   0  0  0  0  0  0  0  0  0  0  0  0
    6.4730    1.4632    0.0000 N   0  0  0  0  0  0  0  0  0  0  0  0
    3.9890   -0.7573    0.0000 N   0  0  0  0  0  0  0  0  0  0  0  0
    4.1701   -2.4798    0.0000 N   0  0  0  0  0  0  0  0  0  0  0  0
    5.3903    0.2608    0.0000 C   0  0  3  0  0  0  0  0  0  0  0  0
    6.3684    0.4687    0.0000 C   0  0  0  0  0  0  0  0  0  0  0  0
    4.8903    1.1268    0.0000 C   0  0  0  0  0  0  0  0  0  0  0  0
    5.5594    1.8700    0.0000 C   0  0  0  0  0  0  0  0  0  0  0  0
    7.3390    1.9632    0.0000 C   0  0  0  0  0  0  0  0  0  0  0  0
    4.9836   -0.6527    0.0000 C   0  0  0  0  0  0  0  0  0  0  0  0
    8.2050    1.4632    0.0000 C   0  0  0  0  0  0  0  0  0  0  0  0
    7.3390    2.9632    0.0000 C   0  0  0  0  0  0  0  0  0  0  0  0
    9.0710    1.9632    0.0000 C   0  0  0  0  0  0  0  0  0  0  0  0
    9.0710    2.9632    0.0000 C   0  0  0  0  0  0  0  0  0  0  0  0
    8.2050    3.4632    0.0000 C   0  0  0  0  0  0  0  0  0  0  0  0
    3.5823   -1.6708    0.0000 C   0  0  0  0  0  0  0  0  0  0  0  0
   10.8711    1.9424    0.0000 C   0  0  0  0  0  0  0  0  0  0  0  0
   10.8711    2.9841    0.0000 C   0  0  0  0  0  0  0  0  0  0  0  0
    2.5878   -1.7753    0.0000 C   0  0  0  0  0  0  0  0  0  0  0  0
    2.1810   -2.6889    0.0000 C   0  0  0  0  0  0  0  0  0  0  0  0
    2.0000   -0.9663    0.0000 C   0  0  0  0  0  0  0  0  0  0  0  0
    3.7634   -3.3934    0.0000 C   0  0  0  0  0  0  0  0  0  0  0  0
    2.7688   -3.4979    0.0000 C   0  0  0  0  0  0  0  0  0  0  0  0
    4.7711    0.2284    0.0000 H   0  0  0  0  0  0  0  0  0  0  0  0
    6.4333   -0.1479    0.0000 H   0  0  0  0  0  0  0  0  0  0  0  0
    6.9884    0.4687    0.0000 H   0  0  0  0  0  0  0  0  0  0  0  0
    4.4754    1.5876    0.0000 H   0  0  0  0  0  0  0  0  0  0  0  0
    4.3887    0.7624    0.0000 H   0  0  0  0  0  0  0  0  0  0  0  0
    8.2050    0.8432    0.0000 H   0  0  0  0  0  0  0  0  0  0  0  0
    6.8021    3.2732    0.0000 H   0  0  0  0  0  0  0  0  0  0  0  0
    3.6246   -0.2557    0.0000 H   0  0  0  0  0  0  0  0  0  0  0  0
    8.2050    4.0832    0.0000 H   0  0  0  0  0  0  0  0  0  0  0  0
   11.0801    1.3587    0.0000 H   0  0  0  0  0  0  0  0  0  0  0  0
   11.4819    2.0485    0.0000 H   0  0  0  0  0  0  0  0  0  0  0  0
   11.4819    2.8780    0.0000 H   0  0  0  0  0  0  0  0  0  0  0  0
   11.0801    3.5678    0.0000 H   0  0  0  0  0  0  0  0  0  0  0  0
    1.5644   -2.7537    0.0000 H   0  0  0  0  0  0  0  0  0  0  0  0
    2.5016   -0.6019    0.0000 H   0  0  0  0  0  0  0  0  0  0  0  0
    1.6356   -0.4647    0.0000 H   0  0  0  0  0  0  0  0  0  0  0  0
    1.4984   -1.3308    0.0000 H   0  0  0  0  0  0  0  0  0  0  0  0
    4.1278   -3.8950    0.0000 H   0  0  0  0  0  0  0  0  0  0  0  0
    2.5167   -4.0643    0.0000 H   0  0  0  0  0  0  0  0  0  0  0  0
  1 11  2  0  0  0  0
  2 13  2  0  0  0  0
  3 16  1  0  0  0  0
  3 20  1  0  0  0  0
  4 17  1  0  0  0  0
  4 21  1  0  0  0  0
  5  9  1  0  0  0  0
  5 11  1  0  0  0  0
  5 12  1  0  0  0  0
  6 13  1  0  0  0  0
  6 19  1  0  0  0  0
  6 34  1  0  0  0  0
  7 19  1  0  0  0  0
  7 25  2  0  0  0  0
  8  9  1  0  0  0  0
  8 10  1  0  0  0  0
  8 13  1  0  0  0  0
  8 27  1  0  0  0  0
  9 28  1  0  0  0  0
  9 29  1  0  0  0  0
 10 11  1  0  0  0  0
 10 30  1  0  0  0  0
 10 31  1  0  0  0  0
 12 14  2  0  0  0  0
 12 15  1  0  0  0  0
 14 16  1  0  0  0  0
 14 32  1  0  0  0  0
 15 18  2  0  0  0  0
 15 33  1  0  0  0  0
 16 17  2  0  0  0  0
 17 18  1  0  0  0  0
 18 35  1  0  0  0  0
 19 22  2  0  0  0  0
 20 21  1  0  0  0  0
 20 36  1  0  0  0  0
 20 37  1  0  0  0  0
 21 38  1  0  0  0  0
 21 39  1  0  0  0  0
 22 23  1  0  0  0  0
 22 24  1  0  0  0  0
 23 26  2  0  0  0  0
 23 40  1  0  0  0  0
 24 41  1  0  0  0  0
 24 42  1  0  0  0  0
 24 43  1  0  0  0  0
 25 26  1  0  0  0  0
 25 44  1  0  0  0  0
 26 45  1  0  0  0  0
M  END
> <PUBCHEM_COMPOUND_CID>
17395519

> <PUBCHEM_COMPOUND_CANONICALIZED>
1

> <PUBCHEM_CACTVS_COMPLEXITY>
543

> <PUBCHEM_CACTVS_HBOND_ACCEPTOR>
5

> <PUBCHEM_CACTVS_HBOND_DONOR>
1

> <PUBCHEM_CACTVS_ROTATABLE_BOND>
3

> <PUBCHEM_CACTVS_SUBSKEYS>
AAADceB7OAAAAAAAAAAAAAAAAAAAAWAAAAA8SIAAAAAAAACRwAAAHgAQAAAADQzhmgY/9pPIFACoAjd3dACCiCkxIiAJ2CE+7JiNJvrE+ZuGOCru1xvK6Ce1UAMMAEAAAgAAQAAAgAAEAACAAAAAAAAAAA==

> <PUBCHEM_IUPAC_OPENEYE_NAME>
1-(2,3-dihydro-1,4-benzodioxin-6-yl)-N-(3-methyl-2-pyridyl)-5-oxo-pyrrolidine-3-carboxamide

> <PUBCHEM_IUPAC_CAS_NAME>
1-(2,3-dihydro-1,4-benzodioxin-6-yl)-N-(3-methyl-2-pyridinyl)-5-oxo-3-pyrrolidinecarboxamide

> <PUBCHEM_IUPAC_NAME>
1-(2,3-dihydro-1,4-benzodioxin-6-yl)-N-(3-methylpyridin-2-yl)-5-oxopyrrolidine-3-carboxamide

> <PUBCHEM_IUPAC_SYSTEMATIC_NAME>
1-(2,3-dihydro-1,4-benzodioxin-6-yl)-N-(3-methylpyridin-2-yl)-5-oxidanylidene-pyrrolidine-3-carboxamide

> <PUBCHEM_IUPAC_TRADITIONAL_NAME>
1-(2,3-dihydro-1,4-benzodioxin-6-yl)-5-keto-N-(3-methyl-2-pyridyl)pyrrolidine-3-carboxamide

> <PUBCHEM_IUPAC_INCHI>
InChI=1S/C19H19N3O4/c1-12-3-2-6-20-18(12)21-19(24)13-9-17(23)22(11-13)14-4-5-15-16(10-14)26-8-7-25-15/h2-6,10,13H,7-9,11H2,1H3,(H,20,21,24)

> <PUBCHEM_IUPAC_INCHIKEY>
PCZTWYNBAJUCHC-UHFFFAOYSA-N

> <PUBCHEM_XLOGP3_AA>
1.2

> <PUBCHEM_EXACT_MASS>
353.137556

> <PUBCHEM_MOLECULAR_FORMULA>
C19H19N3O4

> <PUBCHEM_MOLECULAR_WEIGHT>
353.37186

> <PUBCHEM_OPENEYE_CAN_SMILES>
CC1=C(N=CC=C1)NC(=O)C2CC(=O)N(C2)C3=CC4=C(C=C3)OCCO4

> <PUBCHEM_OPENEYE_ISO_SMILES>
CC1=C(N=CC=C1)NC(=O)C2CC(=O)N(C2)C3=CC4=C(C=C3)OCCO4

> <PUBCHEM_CACTVS_TPSA>
80.8

> <PUBCHEM_MONOISOTOPIC_WEIGHT>
353.137556

> <PUBCHEM_TOTAL_CHARGE>
0

> <PUBCHEM_HEAVY_ATOM_COUNT>
26

> <PUBCHEM_ATOM_DEF_STEREO_COUNT>
0

> <PUBCHEM_ATOM_UDEF_STEREO_COUNT>
1

> <PUBCHEM_BOND_DEF_STEREO_COUNT>
0

> <PUBCHEM_BOND_UDEF_STEREO_COUNT>
0

> <PUBCHEM_ISOTOPIC_ATOM_COUNT>
0

> <PUBCHEM_COMPONENT_COUNT>
1

> <PUBCHEM_CACTVS_TAUTO_COUNT>
10

> <PUBCHEM_COORDINATE_TYPE>
1
5
255

> <PUBCHEM_BONDANNOTATIONS>
12  14  8
12  15  8
14  16  8
15  18  8
16  17  8
17  18  8
19  22  8
22  23  8
23  26  8
25  26  8
7  19  8
7  25  8
8  13  3

$$$$

