442427
  -OEChem-07051212583D

 28 29  0     1  0  0  0  0  0999 V2000
    0.7311   -1.6980   -0.2711 O   0  0  0  0  0  0  0  0  0  0  0  0
    2.5693   -0.7261   -1.1586 O   0  0  0  0  0  0  0  0  0  0  0  0
    0.0083    0.8654    0.7171 C   0  0  2  0  0  0  0  0  0  0  0  0
   -0.9800   -0.3196    0.8023 C   0  0  1  0  0  0  0  0  0  0  0  0
   -1.9404   -0.1349   -0.3918 C   0  0  2  0  0  0  0  0  0  0  0  0
   -0.4393    1.6932   -0.4977 C   0  0  0  0  0  0  0  0  0  0  0  0
   -1.9159    1.3683   -0.6443 C   0  0  0  0  0  0  0  0  0  0  0  0
    1.4726    0.4066    0.6871 C   0  0  1  0  0  0  0  0  0  0  0  0
   -0.2572   -1.6610    0.7760 C   0  0  0  0  0  0  0  0  0  0  0  0
   -3.3432   -0.6595   -0.1227 C   0  0  0  0  0  0  0  0  0  0  0  0
    1.6559   -0.7000   -0.3408 C   0  0  0  0  0  0  0  0  0  0  0  0
    2.4389    1.5656    0.4444 C   0  0  0  0  0  0  0  0  0  0  0  0
   -0.1346    1.4870    1.6123 H   0  0  0  0  0  0  0  0  0  0  0  0
   -1.5469   -0.2470    1.7398 H   0  0  0  0  0  0  0  0  0  0  0  0
   -1.5428   -0.6472   -1.2783 H   0  0  0  0  0  0  0  0  0  0  0  0
    0.0945    1.3915   -1.4067 H   0  0  0  0  0  0  0  0  0  0  0  0
   -0.2709    2.7644   -0.3491 H   0  0  0  0  0  0  0  0  0  0  0  0
   -2.5037    1.9095    0.1068 H   0  0  0  0  0  0  0  0  0  0  0  0
   -2.2979    1.6304   -1.6355 H   0  0  0  0  0  0  0  0  0  0  0  0
    1.7348   -0.0273    1.6614 H   0  0  0  0  0  0  0  0  0  0  0  0
    0.2421   -1.8680    1.7297 H   0  0  0  0  0  0  0  0  0  0  0  0
   -0.9599   -2.4812    0.5969 H   0  0  0  0  0  0  0  0  0  0  0  0
   -3.3261   -1.7374    0.0667 H   0  0  0  0  0  0  0  0  0  0  0  0
   -3.7942   -0.1705    0.7473 H   0  0  0  0  0  0  0  0  0  0  0  0
   -3.9936   -0.4782   -0.9847 H   0  0  0  0  0  0  0  0  0  0  0  0
    2.2781    2.3667    1.1731 H   0  0  0  0  0  0  0  0  0  0  0  0
    3.4765    1.2270    0.5427 H   0  0  0  0  0  0  0  0  0  0  0  0
    2.3317    1.9862   -0.5608 H   0  0  0  0  0  0  0  0  0  0  0  0
  1  9  1  0  0  0  0
  1 11  1  0  0  0  0
  2 11  2  0  0  0  0
  3  4  1  0  0  0  0
  3  6  1  0  0  0  0
  3  8  1  0  0  0  0
  3 13  1  0  0  0  0
  4  5  1  0  0  0  0
  4  9  1  0  0  0  0
  4 14  1  0  0  0  0
  5  7  1  0  0  0  0
  5 10  1  0  0  0  0
  5 15  1  0  0  0  0
  6  7  1  0  0  0  0
  6 16  1  0  0  0  0
  6 17  1  0  0  0  0
  7 18  1  0  0  0  0
  7 19  1  0  0  0  0
  8 11  1  0  0  0  0
  8 12  1  0  0  0  0
  8 20  1  0  0  0  0
  9 21  1  0  0  0  0
  9 22  1  0  0  0  0
 10 23  1  0  0  0  0
 10 24  1  0  0  0  0
 10 25  1  0  0  0  0
 12 26  1  0  0  0  0
 12 27  1  0  0  0  0
 12 28  1  0  0  0  0
M  END
> <PUBCHEM_COMPOUND_CID>
442427

> <PUBCHEM_CONFORMER_RMSD>
0.4

> <PUBCHEM_CONFORMER_DIVERSEORDER>
1
5
4
2
3

> <PUBCHEM_MMFF94_PARTIAL_CHARGES>
5
1 -0.43
11 0.66
2 -0.57
8 0.06
9 0.28

> <PUBCHEM_EFFECTIVE_ROTOR_COUNT>
1.2

> <PUBCHEM_PHARMACOPHORE_FEATURES>
3
1 2 acceptor
5 3 4 5 6 7 rings
6 1 3 4 8 9 11 rings

> <PUBCHEM_HEAVY_ATOM_COUNT>
12

> <PUBCHEM_ATOM_DEF_STEREO_COUNT>
4

> <PUBCHEM_ATOM_UDEF_STEREO_COUNT>
0

> <PUBCHEM_BOND_DEF_STEREO_COUNT>
0

> <PUBCHEM_BOND_UDEF_STEREO_COUNT>
0

> <PUBCHEM_ISOTOPIC_ATOM_COUNT>
0

> <PUBCHEM_COMPONENT_COUNT>
1

> <PUBCHEM_CACTVS_TAUTO_COUNT>
1

> <PUBCHEM_CONFORMER_ID>
0006C03B00000001

> <PUBCHEM_MMFF94_ENERGY>
27.6303

> <PUBCHEM_FEATURE_SELFOVERLAP>
15.438

> <PUBCHEM_SHAPE_FINGERPRINT>
11206711 2 18341040934235413199
12423570 1 13313164368563906515
12524768 44 18339922589181422721
12897270 3 18340491161468470207
13299463 15 18338791333471389566
15219456 202 18335426772108820880
161256 15 18409732884847889569
16945 1 18120660390026431265
18185500 45 17259348193810222971
20201158 50 18335422361224744214
20588541 1 18265615368593856353
21040471 1 18202005464152276496
21922407 69 15195276547341241464
22802520 49 18339077223769458487
23211744 25 18199461245748378051
23235685 24 18265342706942933969
23402539 116 18197801928093751892
23552423 10 18270966876607076097
23559900 14 17903643231103446686
241688 4 18339640173654509505
2748010 2 18412833490342460141
5084963 1 18408881858315549432
528886 8 18265625290221368273

> <PUBCHEM_SHAPE_MULTIPOLES>
235.22
3.73
1.85
0.98
0.95
0.06
0.02
0.08
0.6
-0.22
0.07
-0.25
-0.06
0.59

> <PUBCHEM_SHAPE_SELFOVERLAP>
486.237

> <PUBCHEM_SHAPE_VOLUME>
135.7

> <PUBCHEM_COORDINATE_TYPE>
2
5
10

$$$$

