13499
  -OEChem-06261214492D

 39 41  0     0  0  0  0  0  0999 V2000
    5.3511    0.1424    0.0000 O   0  0  0  0  0  0  0  0  0  0  0  0
    3.5823    2.6739    0.0000 N   0  0  0  0  0  0  0  0  0  0  0  0
    5.6602   -0.8087    0.0000 N   0  0  0  0  0  0  0  0  0  0  0  0
    3.9890    3.5875    0.0000 C   0  0  0  0  0  0  0  0  0  0  0  0
    2.5878    2.5694    0.0000 C   0  0  0  0  0  0  0  0  0  0  0  0
    3.4013    4.3965    0.0000 C   0  0  0  0  0  0  0  0  0  0  0  0
    2.0000    3.3784    0.0000 C   0  0  0  0  0  0  0  0  0  0  0  0
    2.4067    4.2920    0.0000 C   0  0  0  0  0  0  0  0  0  0  0  0
    4.1701    1.8649    0.0000 C   0  0  0  0  0  0  0  0  0  0  0  0
    3.7634    0.9514    0.0000 C   0  0  0  0  0  0  0  0  0  0  0  0
    4.3511    0.1424    0.0000 C   0  0  0  0  0  0  0  0  0  0  0  0
    4.0421   -0.8087    0.0000 C   0  0  0  0  0  0  0  0  0  0  0  0
    4.8511   -1.3965    0.0000 C   0  0  0  0  0  0  0  0  0  0  0  0
    4.8511   -2.3965    0.0000 C   0  0  0  0  0  0  0  0  0  0  0  0
    3.9851   -2.8965    0.0000 C   0  0  0  0  0  0  0  0  0  0  0  0
    5.7172   -2.8965    0.0000 C   0  0  0  0  0  0  0  0  0  0  0  0
    3.9851   -3.8965    0.0000 C   0  0  0  0  0  0  0  0  0  0  0  0
    5.7172   -3.8965    0.0000 C   0  0  0  0  0  0  0  0  0  0  0  0
    4.8511   -4.3965    0.0000 C   0  0  0  0  0  0  0  0  0  0  0  0
    4.5030    3.2408    0.0000 H   0  0  0  0  0  0  0  0  0  0  0  0
    4.4197    4.0335    0.0000 H   0  0  0  0  0  0  0  0  0  0  0  0
    2.0305    2.2976    0.0000 H   0  0  0  0  0  0  0  0  0  0  0  0
    2.7587    1.9734    0.0000 H   0  0  0  0  0  0  0  0  0  0  0  0
    3.9585    4.6683    0.0000 H   0  0  0  0  0  0  0  0  0  0  0  0
    3.2304    4.9925    0.0000 H   0  0  0  0  0  0  0  0  0  0  0  0
    1.4860    3.7251    0.0000 H   0  0  0  0  0  0  0  0  0  0  0  0
    1.5693    2.9324    0.0000 H   0  0  0  0  0  0  0  0  0  0  0  0
    2.4500    4.9104    0.0000 H   0  0  0  0  0  0  0  0  0  0  0  0
    1.8052    4.4420    0.0000 H   0  0  0  0  0  0  0  0  0  0  0  0
    4.6841    1.5182    0.0000 H   0  0  0  0  0  0  0  0  0  0  0  0
    4.6008    2.3109    0.0000 H   0  0  0  0  0  0  0  0  0  0  0  0
    3.2494    1.2981    0.0000 H   0  0  0  0  0  0  0  0  0  0  0  0
    3.3327    0.5054    0.0000 H   0  0  0  0  0  0  0  0  0  0  0  0
    3.4525   -1.0003    0.0000 H   0  0  0  0  0  0  0  0  0  0  0  0
    3.4482   -2.5865    0.0000 H   0  0  0  0  0  0  0  0  0  0  0  0
    6.2541   -2.5865    0.0000 H   0  0  0  0  0  0  0  0  0  0  0  0
    3.4482   -4.2065    0.0000 H   0  0  0  0  0  0  0  0  0  0  0  0
    6.2541   -4.2065    0.0000 H   0  0  0  0  0  0  0  0  0  0  0  0
    4.8511   -5.0165    0.0000 H   0  0  0  0  0  0  0  0  0  0  0  0
  1  3  1  0  0  0  0
  1 11  1  0  0  0  0
  2  4  1  0  0  0  0
  2  5  1  0  0  0  0
  2  9  1  0  0  0  0
  3 13  2  0  0  0  0
  4  6  1  0  0  0  0
  4 20  1  0  0  0  0
  4 21  1  0  0  0  0
  5  7  1  0  0  0  0
  5 22  1  0  0  0  0
  5 23  1  0  0  0  0
  6  8  1  0  0  0  0
  6 24  1  0  0  0  0
  6 25  1  0  0  0  0
  7  8  1  0  0  0  0
  7 26  1  0  0  0  0
  7 27  1  0  0  0  0
  8 28  1  0  0  0  0
  8 29  1  0  0  0  0
  9 10  1  0  0  0  0
  9 30  1  0  0  0  0
  9 31  1  0  0  0  0
 10 11  1  0  0  0  0
 10 32  1  0  0  0  0
 10 33  1  0  0  0  0
 11 12  2  0  0  0  0
 12 13  1  0  0  0  0
 12 34  1  0  0  0  0
 13 14  1  0  0  0  0
 14 15  2  0  0  0  0
 14 16  1  0  0  0  0
 15 17  1  0  0  0  0
 15 35  1  0  0  0  0
 16 18  2  0  0  0  0
 16 36  1  0  0  0  0
 17 19  2  0  0  0  0
 17 37  1  0  0  0  0
 18 19  1  0  0  0  0
 18 38  1  0  0  0  0
 19 39  1  0  0  0  0
M  END
> <PUBCHEM_COMPOUND_CID>
13499

> <PUBCHEM_COMPOUND_CANONICALIZED>
1

> <PUBCHEM_CACTVS_COMPLEXITY>
260

> <PUBCHEM_CACTVS_HBOND_ACCEPTOR>
3

> <PUBCHEM_CACTVS_HBOND_DONOR>
0

> <PUBCHEM_CACTVS_ROTATABLE_BOND>
4

> <PUBCHEM_CACTVS_SUBSKEYS>
AAADceB7IAAAAAAAAAAAAAAAAAAAAWAAAAA8QAAAAAAAAAABwAAAHgAEAAAADAzBngQwhJMQAACpA6RyQgCCAAAkIgAomCE+bNoIJrqAkZOEMYBmgBiIyUeYyOCOAAAAAAAAAAAAAAAAAAAAAAAAAAAAAA==

> <PUBCHEM_IUPAC_OPENEYE_NAME>
3-phenyl-5-[2-(1-piperidyl)ethyl]isoxazole

> <PUBCHEM_IUPAC_CAS_NAME>
3-phenyl-5-[2-(1-piperidinyl)ethyl]isoxazole

> <PUBCHEM_IUPAC_NAME>
3-phenyl-5-(2-piperidin-1-ylethyl)-1,2-oxazole

> <PUBCHEM_IUPAC_SYSTEMATIC_NAME>
3-phenyl-5-(2-piperidin-1-ylethyl)-1,2-oxazole

> <PUBCHEM_IUPAC_TRADITIONAL_NAME>
3-phenyl-5-(2-piperidinoethyl)isoxazole

> <PUBCHEM_IUPAC_INCHI>
InChI=1S/C16H20N2O/c1-3-7-14(8-4-1)16-13-15(19-17-16)9-12-18-10-5-2-6-11-18/h1,3-4,7-8,13H,2,5-6,9-12H2

> <PUBCHEM_IUPAC_INCHIKEY>
HAARZQOXENAXOY-UHFFFAOYSA-N

> <PUBCHEM_XLOGP3_AA>
3.2

> <PUBCHEM_EXACT_MASS>
256.157563

> <PUBCHEM_MOLECULAR_FORMULA>
C16H20N2O

> <PUBCHEM_MOLECULAR_WEIGHT>
256.3428

> <PUBCHEM_OPENEYE_CAN_SMILES>
C1CCN(CC1)CCC2=CC(=NO2)C3=CC=CC=C3

> <PUBCHEM_OPENEYE_ISO_SMILES>
C1CCN(CC1)CCC2=CC(=NO2)C3=CC=CC=C3

> <PUBCHEM_CACTVS_TPSA>
29.3

> <PUBCHEM_MONOISOTOPIC_WEIGHT>
256.157563

> <PUBCHEM_TOTAL_CHARGE>
0

> <PUBCHEM_HEAVY_ATOM_COUNT>
19

> <PUBCHEM_ATOM_DEF_STEREO_COUNT>
0

> <PUBCHEM_ATOM_UDEF_STEREO_COUNT>
0

> <PUBCHEM_BOND_DEF_STEREO_COUNT>
0

> <PUBCHEM_BOND_UDEF_STEREO_COUNT>
0

> <PUBCHEM_ISOTOPIC_ATOM_COUNT>
0

> <PUBCHEM_COMPONENT_COUNT>
1

> <PUBCHEM_CACTVS_TAUTO_COUNT>
1

> <PUBCHEM_COORDINATE_TYPE>
1
5
255

> <PUBCHEM_BONDANNOTATIONS>
1  11  8
1  3  8
11  12  8
12  13  8
14  15  8
14  16  8
15  17  8
16  18  8
17  19  8
18  19  8
3  13  8

$$$$

