23426994
  -OEChem-07051213093D

 92 93  0     1  0  0  0  0  0999 V2000
   -4.8461    0.8210    1.8146 O   0  0  0  0  0  0  0  0  0  0  0  0
   -3.4735   -1.8936    2.5942 O   0  0  0  0  0  0  0  0  0  0  0  0
   -1.3403    0.4300   -0.1862 O   0  0  0  0  0  0  0  0  0  0  0  0
   -0.4803   -1.7368    1.8790 O   0  0  0  0  0  0  0  0  0  0  0  0
   -0.3392    0.7932   -2.2280 O   0  0  0  0  0  0  0  0  0  0  0  0
    1.2615    2.6344   -1.2109 O   0  0  0  0  0  0  0  0  0  0  0  0
    1.6303    0.3593    0.6770 O   0  0  0  0  0  0  0  0  0  0  0  0
    3.5679   -3.6007    0.1911 O   0  0  0  0  0  0  0  0  0  0  0  0
    5.6362    2.0609   -1.2539 O   0  0  0  0  0  0  0  0  0  0  0  0
    3.4101    3.9316    0.3188 O   0  0  0  0  0  0  0  0  0  0  0  0
   -4.4658   -0.3397    1.0749 C   0  0  1  0  0  0  0  0  0  0  0  0
   -4.4261    1.0213    0.4587 C   0  0  1  0  0  0  0  0  0  0  0  0
   -3.1909   -0.9484    1.5676 C   0  0  2  0  0  0  0  0  0  0  0  0
   -5.5105    1.4822   -0.4397 C   0  0  1  0  0  0  0  0  0  0  0  0
   -5.5776   -1.2750    0.8112 C   0  0  0  0  0  0  0  0  0  0  0  0
   -2.4218   -1.6462    0.4477 C   0  0  1  0  0  0  0  0  0  0  0  0
   -5.9225    2.9309   -0.1133 C   0  0  0  0  0  0  0  0  0  0  0  0
   -2.0685   -0.6996   -0.7020 C   0  0  0  0  0  0  0  0  0  0  0  0
   -1.1416   -2.2813    0.9938 C   0  0  0  0  0  0  0  0  0  0  0  0
   -5.1663    1.4004   -1.9197 C   0  0  0  0  0  0  0  0  0  0  0  0
   -0.7295   -3.6282    0.3969 C   0  0  1  0  0  0  0  0  0  0  0  0
    0.7989   -3.7912    0.3559 C   0  0  2  0  0  0  0  0  0  0  0  0
   -6.0669    1.2084   -2.8950 C   0  0  0  0  0  0  0  0  0  0  0  0
   -1.3666   -4.7297    1.2414 C   0  0  0  0  0  0  0  0  0  0  0  0
    1.4441   -2.9565   -0.7556 C   0  0  0  0  0  0  0  0  0  0  0  0
   -7.5314    1.0489   -2.6540 C   0  0  0  0  0  0  0  0  0  0  0  0
   -0.4752    1.0486   -1.0380 C   0  0  0  0  0  0  0  0  0  0  0  0
    0.3017    2.1277   -0.2983 C   0  0  1  0  0  0  0  0  0  0  0  0
    0.9809    1.5935    0.9763 C   0  0  2  0  0  0  0  0  0  0  0  0
    2.9674   -3.0345   -0.7261 C   0  0  0  0  0  0  0  0  0  0  0  0
    1.9746    2.5388    1.6901 C   0  0  1  0  0  0  0  0  0  0  0  0
    3.7594   -2.3217   -1.8225 C   0  0  2  0  0  0  0  0  0  0  0  0
    4.3306    1.7630    0.8216 C   0  0  1  0  0  0  0  0  0  0  0  0
    3.2481    2.8483    0.8853 C   0  0  0  0  0  0  0  0  0  0  0  0
    4.5535    1.3487   -0.6549 C   0  0  2  0  0  0  0  0  0  0  0  0
    3.7884   -0.8519   -1.5020 C   0  0  0  0  0  0  0  0  0  0  0  0
    1.2969    3.8356    2.1357 C   0  0  0  0  0  0  0  0  0  0  0  0
    4.7393   -0.1523   -0.8469 C   0  0  0  0  0  0  0  0  0  0  0  0
    3.2074   -2.5843   -3.2214 C   0  0  0  0  0  0  0  0  0  0  0  0
    5.5665    2.2956    1.5485 C   0  0  0  0  0  0  0  0  0  0  0  0
    5.9837   -0.7701   -0.2682 C   0  0  0  0  0  0  0  0  0  0  0  0
    2.0931   -0.2803    1.8565 C   0  0  0  0  0  0  0  0  0  0  0  0
   -3.5025    1.5671    0.3346 H   0  0  0  0  0  0  0  0  0  0  0  0
   -2.5679   -0.1718    2.0310 H   0  0  0  0  0  0  0  0  0  0  0  0
   -6.4017    0.8762   -0.2577 H   0  0  0  0  0  0  0  0  0  0  0  0
   -6.5554   -0.8410    1.0480 H   0  0  0  0  0  0  0  0  0  0  0  0
   -5.5850   -1.5685   -0.2442 H   0  0  0  0  0  0  0  0  0  0  0  0
   -5.5137   -2.1972    1.3972 H   0  0  0  0  0  0  0  0  0  0  0  0
   -3.0378   -2.4657    0.0555 H   0  0  0  0  0  0  0  0  0  0  0  0
   -5.0782    3.6185   -0.2420 H   0  0  0  0  0  0  0  0  0  0  0  0
   -6.2541    3.0126    0.9278 H   0  0  0  0  0  0  0  0  0  0  0  0
   -6.7418    3.2793   -0.7508 H   0  0  0  0  0  0  0  0  0  0  0  0
   -1.4472   -1.2397   -1.4276 H   0  0  0  0  0  0  0  0  0  0  0  0
   -2.9558   -0.3511   -1.2324 H   0  0  0  0  0  0  0  0  0  0  0  0
   -4.1239    1.5295   -2.2008 H   0  0  0  0  0  0  0  0  0  0  0  0
   -2.6362   -2.1248    3.0303 H   0  0  0  0  0  0  0  0  0  0  0  0
   -1.1198   -3.6923   -0.6257 H   0  0  0  0  0  0  0  0  0  0  0  0
    1.0512   -4.8455    0.1819 H   0  0  0  0  0  0  0  0  0  0  0  0
    1.2370   -3.5285    1.3269 H   0  0  0  0  0  0  0  0  0  0  0  0
   -5.7233    1.1631   -3.9246 H   0  0  0  0  0  0  0  0  0  0  0  0
   -1.1416   -5.7184    0.8283 H   0  0  0  0  0  0  0  0  0  0  0  0
   -1.0018   -4.6992    2.2742 H   0  0  0  0  0  0  0  0  0  0  0  0
   -2.4558   -4.6198    1.2752 H   0  0  0  0  0  0  0  0  0  0  0  0
    1.1525   -1.9070   -0.6659 H   0  0  0  0  0  0  0  0  0  0  0  0
    1.0926   -3.3331   -1.7212 H   0  0  0  0  0  0  0  0  0  0  0  0
   -8.0792    1.6725   -3.3689 H   0  0  0  0  0  0  0  0  0  0  0  0
   -7.8233    0.0086   -2.8285 H   0  0  0  0  0  0  0  0  0  0  0  0
   -7.8746    1.3411   -1.6606 H   0  0  0  0  0  0  0  0  0  0  0  0
   -0.3877    2.9431   -0.0548 H   0  0  0  0  0  0  0  0  0  0  0  0
    0.1724    1.3657    1.6862 H   0  0  0  0  0  0  0  0  0  0  0  0
    2.3248    2.1061    2.6318 H   0  0  0  0  0  0  0  0  0  0  0  0
    4.7677   -2.7489   -1.8113 H   0  0  0  0  0  0  0  0  0  0  0  0
    4.0477    0.8880    1.3726 H   0  0  0  0  0  0  0  0  0  0  0  0
    3.6725    1.6559   -1.2299 H   0  0  0  0  0  0  0  0  0  0  0  0
    2.9155   -0.3025   -1.8558 H   0  0  0  0  0  0  0  0  0  0  0  0
    0.9570    4.4321    1.2827 H   0  0  0  0  0  0  0  0  0  0  0  0
    1.9928    4.4592    2.7085 H   0  0  0  0  0  0  0  0  0  0  0  0
    0.4317    3.6256    2.7732 H   0  0  0  0  0  0  0  0  0  0  0  0
    0.7800    3.0748   -1.9319 H   0  0  0  0  0  0  0  0  0  0  0  0
    3.8827   -2.1820   -3.9849 H   0  0  0  0  0  0  0  0  0  0  0  0
    2.2263   -2.1204   -3.3733 H   0  0  0  0  0  0  0  0  0  0  0  0
    3.0971   -3.6595   -3.3998 H   0  0  0  0  0  0  0  0  0  0  0  0
    5.9328    3.2253    1.0993 H   0  0  0  0  0  0  0  0  0  0  0  0
    6.3831    1.5682    1.5335 H   0  0  0  0  0  0  0  0  0  0  0  0
    5.3303    2.5150    2.5960 H   0  0  0  0  0  0  0  0  0  0  0  0
    6.8744   -0.2668   -0.6578 H   0  0  0  0  0  0  0  0  0  0  0  0
    6.0928   -1.8327   -0.4930 H   0  0  0  0  0  0  0  0  0  0  0  0
    5.9814   -0.6770    0.8220 H   0  0  0  0  0  0  0  0  0  0  0  0
    2.8036    0.2417    2.4913 H   0  0  0  0  0  0  0  0  0  0  0  0
    1.2538   -0.4976    2.5187 H   0  0  0  0  0  0  0  0  0  0  0  0
    2.5483   -1.2315    1.5713 H   0  0  0  0  0  0  0  0  0  0  0  0
    5.7219    1.7543   -2.1729 H   0  0  0  0  0  0  0  0  0  0  0  0
  1 11  1  0  0  0  0
  1 12  1  0  0  0  0
  2 13  1  0  0  0  0
  2 56  1  0  0  0  0
  3 18  1  0  0  0  0
  3 27  1  0  0  0  0
  4 19  2  0  0  0  0
  5 27  2  0  0  0  0
  6 28  1  0  0  0  0
  6 79  1  0  0  0  0
  7 29  1  0  0  0  0
  7 42  1  0  0  0  0
  8 30  2  0  0  0  0
  9 35  1  0  0  0  0
  9 92  1  0  0  0  0
 10 34  2  0  0  0  0
 11 12  1  0  0  0  0
 11 13  1  0  0  0  0
 11 15  1  0  0  0  0
 12 14  1  0  0  0  0
 12 43  1  0  0  0  0
 13 16  1  0  0  0  0
 13 44  1  0  0  0  0
 14 17  1  0  0  0  0
 14 20  1  0  0  0  0
 14 45  1  0  0  0  0
 15 46  1  0  0  0  0
 15 47  1  0  0  0  0
 15 48  1  0  0  0  0
 16 18  1  0  0  0  0
 16 19  1  0  0  0  0
 16 49  1  0  0  0  0
 17 50  1  0  0  0  0
 17 51  1  0  0  0  0
 17 52  1  0  0  0  0
 18 53  1  0  0  0  0
 18 54  1  0  0  0  0
 19 21  1  0  0  0  0
 20 23  2  0  0  0  0
 20 55  1  0  0  0  0
 21 22  1  0  0  0  0
 21 24  1  0  0  0  0
 21 57  1  0  0  0  0
 22 25  1  0  0  0  0
 22 58  1  0  0  0  0
 22 59  1  0  0  0  0
 23 26  1  0  0  0  0
 23 60  1  0  0  0  0
 24 61  1  0  0  0  0
 24 62  1  0  0  0  0
 24 63  1  0  0  0  0
 25 30  1  0  0  0  0
 25 64  1  0  0  0  0
 25 65  1  0  0  0  0
 26 66  1  0  0  0  0
 26 67  1  0  0  0  0
 26 68  1  0  0  0  0
 27 28  1  0  0  0  0
 28 29  1  0  0  0  0
 28 69  1  0  0  0  0
 29 31  1  0  0  0  0
 29 70  1  0  0  0  0
 30 32  1  0  0  0  0
 31 34  1  0  0  0  0
 31 37  1  0  0  0  0
 31 71  1  0  0  0  0
 32 36  1  0  0  0  0
 32 39  1  0  0  0  0
 32 72  1  0  0  0  0
 33 34  1  0  0  0  0
 33 35  1  0  0  0  0
 33 40  1  0  0  0  0
 33 73  1  0  0  0  0
 35 38  1  0  0  0  0
 35 74  1  0  0  0  0
 36 38  2  0  0  0  0
 36 75  1  0  0  0  0
 37 76  1  0  0  0  0
 37 77  1  0  0  0  0
 37 78  1  0  0  0  0
 38 41  1  0  0  0  0
 39 80  1  0  0  0  0
 39 81  1  0  0  0  0
 39 82  1  0  0  0  0
 40 83  1  0  0  0  0
 40 84  1  0  0  0  0
 40 85  1  0  0  0  0
 41 86  1  0  0  0  0
 41 87  1  0  0  0  0
 41 88  1  0  0  0  0
 42 89  1  0  0  0  0
 42 90  1  0  0  0  0
 42 91  1  0  0  0  0
M  END
> <PUBCHEM_COMPOUND_CID>
23426994

> <PUBCHEM_CONFORMER_RMSD>
1

> <PUBCHEM_CONFORMER_DIVERSEORDER>
1
8
5
12
9
10
2
3
4
7
11
6

> <PUBCHEM_MMFF94_PARTIAL_CHARGES>
43
1 -0.3
10 -0.57
11 -0.04
12 -0.05
13 0.38
14 0.23
15 0.09
16 0.06
18 0.28
19 0.45
2 -0.68
20 -0.29
21 0.06
23 -0.29
25 0.06
26 0.14
27 0.66
28 0.34
29 0.28
3 -0.43
30 0.45
31 0.06
32 0.2
33 0.06
34 0.45
35 0.42
36 -0.29
38 -0.28
4 -0.57
41 0.14
42 0.28
43 0.1
5 -0.57
55 0.15
56 0.4
6 -0.68
60 0.15
7 -0.56
75 0.15
79 0.4
8 -0.57
9 -0.68
92 0.4

> <PUBCHEM_EFFECTIVE_ROTOR_COUNT>
8

> <PUBCHEM_PHARMACOPHORE_FEATURES>
14
1 1 acceptor
1 10 acceptor
1 17 hydrophobe
1 2 acceptor
1 2 donor
1 26 hydrophobe
1 4 acceptor
1 5 acceptor
1 6 acceptor
1 6 donor
1 7 acceptor
1 8 acceptor
1 9 acceptor
1 9 donor

> <PUBCHEM_HEAVY_ATOM_COUNT>
42

> <PUBCHEM_ATOM_DEF_STEREO_COUNT>
12

> <PUBCHEM_ATOM_UDEF_STEREO_COUNT>
1

> <PUBCHEM_BOND_DEF_STEREO_COUNT>
2

> <PUBCHEM_BOND_UDEF_STEREO_COUNT>
0

> <PUBCHEM_ISOTOPIC_ATOM_COUNT>
0

> <PUBCHEM_COMPONENT_COUNT>
1

> <PUBCHEM_CACTVS_TAUTO_COUNT>
45

> <PUBCHEM_CONFORMER_ID>
016577B200000001

> <PUBCHEM_MMFF94_ENERGY>
94.7279

> <PUBCHEM_FEATURE_SELFOVERLAP>
71.056

> <PUBCHEM_SHAPE_FINGERPRINT>
10079526 1005 15333274049005986103
10556698 54 18054525861413238685
10581848 31 18192409923314062769
10675989 125 18267016344403309162
10864689 126 18194670686782803286
11112241 14 18186805729494860864
12128747 34 18409724063106818237
12166972 35 14273739495389002273
12422481 6 17274826869360955767
12788726 201 17974827752357053974
13402501 40 18410562977873295886
13583140 156 17245536786057012736
144659 39 16988852673995164103
14725015 67 18194969771594652778
16067689 134 17542486675848610632
17349148 13 14562800024262852993
20764821 26 17905868616593455274
20775438 99 18187092779666858430
21033648 29 18337963277274319473
21585483 110 18410572920105134863
22121540 332 17773332312191170013
23559900 14 18342448279191663781
27425 322 17131550536217895732
3298306 158 18335414626178509322
3882209 13 17620482745394818578
4403749 210 17683820809003881536
45266715 3 18338813264328933237
508706 21 18196083344312671354
513532 50 17896056475367668291
5265222 85 17979900628572593468
550186 83 16343698858951779269
6086070 43 18408895048498173995
77296 10 17822303336206208877

> <PUBCHEM_SHAPE_MULTIPOLES>
805.65
14.68
5.46
2.59
14.44
2.48
-1.08
-8.04
-6.66
-4.17
1.64
1.82
0.22
4.41

> <PUBCHEM_SHAPE_SELFOVERLAP>
1628.016

> <PUBCHEM_SHAPE_VOLUME>
467.5

> <PUBCHEM_COORDINATE_TYPE>
2
5
10

$$$$

