7847060
  -OEChem-06241222483D

 46 48  0     0  0  0  0  0  0999 V2000
   -6.1687    2.2800    0.3885 Cl  0  0  0  0  0  0  0  0  0  0  0  0
    0.3707   -2.1561   -0.4182 O   0  0  0  0  0  0  0  0  0  0  0  0
    0.9479   -2.0835    1.8090 O   0  0  0  0  0  0  0  0  0  0  0  0
   -2.3661   -1.9992   -0.9165 O   0  0  0  0  0  0  0  0  0  0  0  0
    3.5161    1.6104   -0.4652 N   0  0  0  0  0  0  0  0  0  0  0  0
    3.1812   -0.7545   -0.1128 C   0  0  0  0  0  0  0  0  0  0  0  0
    1.8722   -0.5086    0.2760 C   0  0  0  0  0  0  0  0  0  0  0  0
    1.3772    0.8023    0.2961 C   0  0  0  0  0  0  0  0  0  0  0  0
    3.9549    0.3308   -0.4710 C   0  0  0  0  0  0  0  0  0  0  0  0
    2.2454    1.8460   -0.0875 C   0  0  0  0  0  0  0  0  0  0  0  0
    5.3731    0.1396   -0.8999 C   0  0  0  0  0  0  0  0  0  0  0  0
    3.7391   -2.1383   -0.1456 C   0  0  0  0  0  0  0  0  0  0  0  0
    0.0566    1.0845    0.6848 C   0  0  0  0  0  0  0  0  0  0  0  0
    1.0364   -1.6464    0.6591 C   0  0  0  0  0  0  0  0  0  0  0  0
    1.7531    3.1480   -0.0673 C   0  0  0  0  0  0  0  0  0  0  0  0
    6.3458    0.2054    0.2735 C   0  0  0  0  0  0  0  0  0  0  0  0
   -0.4093    2.3961    0.6956 C   0  0  0  0  0  0  0  0  0  0  0  0
    0.4402    3.4288    0.3190 C   0  0  0  0  0  0  0  0  0  0  0  0
   -0.4845   -3.2770   -0.1699 C   0  0  0  0  0  0  0  0  0  0  0  0
   -1.8740   -2.7736    0.1704 C   0  0  0  0  0  0  0  0  0  0  0  0
   -3.2524   -1.0001   -0.6109 C   0  0  0  0  0  0  0  0  0  0  0  0
   -4.0928   -1.1375    0.4880 C   0  0  0  0  0  0  0  0  0  0  0  0
   -3.3040    0.1406   -1.4044 C   0  0  0  0  0  0  0  0  0  0  0  0
   -4.9965   -0.1211    0.7976 C   0  0  0  0  0  0  0  0  0  0  0  0
   -4.2076    1.1570   -1.0947 C   0  0  0  0  0  0  0  0  0  0  0  0
   -5.0539    1.0262    0.0063 C   0  0  0  0  0  0  0  0  0  0  0  0
    5.6349    0.9365   -1.6084 H   0  0  0  0  0  0  0  0  0  0  0  0
    5.5114   -0.7919   -1.4592 H   0  0  0  0  0  0  0  0  0  0  0  0
    4.7127   -2.1922    0.3495 H   0  0  0  0  0  0  0  0  0  0  0  0
    3.1184   -2.8767    0.3691 H   0  0  0  0  0  0  0  0  0  0  0  0
    3.8455   -2.4746   -1.1825 H   0  0  0  0  0  0  0  0  0  0  0  0
   -0.6317    0.2997    0.9873 H   0  0  0  0  0  0  0  0  0  0  0  0
    2.3986    3.9748   -0.3580 H   0  0  0  0  0  0  0  0  0  0  0  0
    6.1444   -0.5691    1.0193 H   0  0  0  0  0  0  0  0  0  0  0  0
    7.3731    0.0752   -0.0818 H   0  0  0  0  0  0  0  0  0  0  0  0
    6.2841    1.1756    0.7787 H   0  0  0  0  0  0  0  0  0  0  0  0
   -1.4306    2.6100    0.9960 H   0  0  0  0  0  0  0  0  0  0  0  0
    0.0848    4.4551    0.3242 H   0  0  0  0  0  0  0  0  0  0  0  0
   -0.0835   -3.9285    0.6145 H   0  0  0  0  0  0  0  0  0  0  0  0
   -0.5122   -3.8559   -1.0991 H   0  0  0  0  0  0  0  0  0  0  0  0
   -2.5425   -3.6246    0.3408 H   0  0  0  0  0  0  0  0  0  0  0  0
   -1.8000   -2.1732    1.0859 H   0  0  0  0  0  0  0  0  0  0  0  0
   -4.1002   -2.0258    1.1120 H   0  0  0  0  0  0  0  0  0  0  0  0
   -2.6455    0.2467   -2.2618 H   0  0  0  0  0  0  0  0  0  0  0  0
   -5.6545   -0.2389    1.6549 H   0  0  0  0  0  0  0  0  0  0  0  0
   -4.2404    2.0457   -1.7197 H   0  0  0  0  0  0  0  0  0  0  0  0
  1 26  1  0  0  0  0
  2 14  1  0  0  0  0
  2 19  1  0  0  0  0
  3 14  2  0  0  0  0
  4 20  1  0  0  0  0
  4 21  1  0  0  0  0
  5  9  2  0  0  0  0
  5 10  1  0  0  0  0
  6  7  2  0  0  0  0
  6  9  1  0  0  0  0
  6 12  1  0  0  0  0
  7  8  1  0  0  0  0
  7 14  1  0  0  0  0
  8 10  1  0  0  0  0
  8 13  2  0  0  0  0
  9 11  1  0  0  0  0
 10 15  2  0  0  0  0
 11 16  1  0  0  0  0
 11 27  1  0  0  0  0
 11 28  1  0  0  0  0
 12 29  1  0  0  0  0
 12 30  1  0  0  0  0
 12 31  1  0  0  0  0
 13 17  1  0  0  0  0
 13 32  1  0  0  0  0
 15 18  1  0  0  0  0
 15 33  1  0  0  0  0
 16 34  1  0  0  0  0
 16 35  1  0  0  0  0
 16 36  1  0  0  0  0
 17 18  2  0  0  0  0
 17 37  1  0  0  0  0
 18 38  1  0  0  0  0
 19 20  1  0  0  0  0
 19 39  1  0  0  0  0
 19 40  1  0  0  0  0
 20 41  1  0  0  0  0
 20 42  1  0  0  0  0
 21 22  2  0  0  0  0
 21 23  1  0  0  0  0
 22 24  1  0  0  0  0
 22 43  1  0  0  0  0
 23 25  2  0  0  0  0
 23 44  1  0  0  0  0
 24 26  2  0  0  0  0
 24 45  1  0  0  0  0
 25 26  1  0  0  0  0
 25 46  1  0  0  0  0
M  END
> <PUBCHEM_COMPOUND_CID>
7847060

> <PUBCHEM_CONFORMER_RMSD>
0.8

> <PUBCHEM_CONFORMER_DIVERSEORDER>
1
118
217
44
160
133
74
179
10
101
109
234
216
140
34
33
13
162
204
124
193
147
72
93
80
57
135
166
237
150
181
164
176
229
23
173
73
215
149
241
141
246
142
240
168
38
30
221
208
137
222
167
21
225
91
48
31
110
120
114
87
209
115
29
178
139
65
199
243
220
3
68
25
151
86
132
26
121
103
207
69
238
71
58
227
145
165
14
236
202
156
24
116
78
127
218
230
219
152
15
195
174
67
98
51
232
95
107
12
42
28
117
158
40
223
76
235
211
190
90
61
194
188
182
97
224
189
54
46
206
126
172
11
244
242
83
136
104
213
183
177
70
198
55
19
79
16
66
214
143
2
197
247
106
6
92
148
155
85
105
75
170
27
231
169
196
171
59
185
62
245
131
5
43
203
18
99
192
60
161
122
233
9
146
94
89
159
113
134
4
157
191
22
96
47
186
128
100
50
119
226
130
144
53
63
56
187
64
17
32
123
154
8
20
129
184
45
210
49
108
7
163
37
180
88
111
200
84
36
175
81
239
228
52
212
125
153
112
102
138
77
41
82
205
39
201
35

> <PUBCHEM_MMFF94_PARTIAL_CHARGES>
32
1 -0.18
10 0.31
11 0.14
12 0.14
13 -0.15
14 0.63
15 -0.15
17 -0.15
18 -0.15
19 0.28
2 -0.43
20 0.28
21 0.08
22 -0.15
23 -0.15
24 -0.15
25 -0.15
26 0.18
3 -0.57
32 0.15
33 0.15
37 0.15
38 0.15
4 -0.36
43 0.15
44 0.15
45 0.15
46 0.15
5 -0.62
6 -0.14
7 0.09
9 0.17

> <PUBCHEM_EFFECTIVE_ROTOR_COUNT>
7

> <PUBCHEM_PHARMACOPHORE_FEATURES>
7
1 16 hydrophobe
1 3 acceptor
1 4 acceptor
1 5 acceptor
6 21 22 23 24 25 26 rings
6 5 6 7 8 9 10 rings
6 8 10 13 15 17 18 rings

> <PUBCHEM_HEAVY_ATOM_COUNT>
26

> <PUBCHEM_ATOM_DEF_STEREO_COUNT>
0

> <PUBCHEM_ATOM_UDEF_STEREO_COUNT>
0

> <PUBCHEM_BOND_DEF_STEREO_COUNT>
0

> <PUBCHEM_BOND_UDEF_STEREO_COUNT>
0

> <PUBCHEM_ISOTOPIC_ATOM_COUNT>
0

> <PUBCHEM_COMPONENT_COUNT>
1

> <PUBCHEM_CACTVS_TAUTO_COUNT>
2

> <PUBCHEM_CONFORMER_ID>
0077BC9400000001

> <PUBCHEM_MMFF94_ENERGY>
82.9504

> <PUBCHEM_FEATURE_SELFOVERLAP>
35.552

> <PUBCHEM_SHAPE_FINGERPRINT>
10483366 6 18191573349922063942
10906281 52 18268137683577297968
1100329 8 18338517443755330104
11273773 38 18339077198532976285
11578080 2 14475522948003721452
12422481 6 18194713439219246168
12553582 1 18337404832551355533
12633257 1 18270132317649502123
12788726 201 18042118911547896176
12838862 33 18265070157267272281
13402501 40 18341611534163943869
1361 2 16249696443080134921
14617045 38 18340766035571563973
14713325 29 16906083371650270104
14765038 42 18261096500637771905
14790565 3 18410004472594198193
14931854 50 18411145752931220853
15081414 286 18334283297296003822
151778 21 18412823573816991541
15238133 3 18340761568731268854
15484559 13 15958936103483707036
1601671 61 18410014334144558214
16087824 20 18338230591306063017
18769570 83 18342462517498600394
19311894 1 18335138644438856343
19319366 153 17989209282242780955
20465049 17 18411698756057063763
20775438 99 16236787579938837503
221357 26 18193278494613870439
23402539 116 18260832583771677494
23559900 14 18261957320059368256
238 59 17836695981899593615
335352 9 18410009914696862692
338550 245 18341888567638607660
3680242 22 18270685380145207362
5081480 168 17389625839504805527
6287921 2 17697315110473289485
7226269 152 18411986841077964496
7399639 24 16891736922281840370

> <PUBCHEM_SHAPE_MULTIPOLES>
514.35
12.19
3.84
1.03
3.53
0.19
-0.01
3.36
1.11
0.49
-0.37
0.41
-0.16
-0.31

> <PUBCHEM_SHAPE_SELFOVERLAP>
1104.119

> <PUBCHEM_SHAPE_VOLUME>
286.1

> <PUBCHEM_COORDINATE_TYPE>
2
5
10

$$$$

