3368
  -OEChem-06251223222D

 37 39  0     1  0  0  0  0  0999 V2000
    5.9134    3.4584    0.0000 P   0  0  0  0  0  0  0  0  0  0  0  0
    2.0000   -1.5600    0.0000 F   0  0  0  0  0  0  0  0  0  0  0  0
    5.2686    0.0053    0.0000 O   0  0  0  0  0  0  0  0  0  0  0  0
    7.6146   -1.0866    0.0000 O   0  0  0  0  0  0  0  0  0  0  0  0
    7.6183    1.0890    0.0000 O   0  0  0  0  0  0  0  0  0  0  0  0
    6.2208    2.5068    0.0000 O   0  0  0  0  0  0  0  0  0  0  0  0
    5.6061    4.4100    0.0000 O   0  0  0  0  0  0  0  0  0  0  0  0
    6.8650    3.7658    0.0000 O   0  0  0  0  0  0  0  0  0  0  0  0
    4.9618    3.1510    0.0000 O   0  0  0  0  0  0  0  0  0  0  0  0
    5.5443   -1.7553    0.0000 N   0  0  0  0  0  0  0  0  0  0  0  0
    5.5443   -3.3648    0.0000 N   0  0  0  0  0  0  0  0  0  0  0  0
    3.7320   -1.5600    0.0000 N   0  0  0  0  0  0  0  0  0  0  0  0
    2.8660   -3.0600    0.0000 N   0  0  0  0  0  0  0  0  0  0  0  0
    3.7320   -4.5600    0.0000 N   0  0  0  0  0  0  0  0  0  0  0  0
    6.8066   -0.4974    0.0000 C   0  0  3  0  0  0  0  0  0  0  0  0
    6.8083    0.5026    0.0000 C   0  0  3  0  0  0  0  0  0  0  0  0
    5.8550   -0.8048    0.0000 C   0  0  3  0  0  0  0  0  0  0  0  0
    5.8578    0.8132    0.0000 C   0  0  3  0  0  0  0  0  0  0  0  0
    5.5504    1.7648    0.0000 C   0  0  0  0  0  0  0  0  0  0  0  0
    4.5981   -2.0600    0.0000 C   0  0  0  0  0  0  0  0  0  0  0  0
    6.1279   -2.5600    0.0000 C   0  0  0  0  0  0  0  0  0  0  0  0
    4.5981   -3.0600    0.0000 C   0  0  0  0  0  0  0  0  0  0  0  0
    3.7320   -3.5600    0.0000 C   0  0  0  0  0  0  0  0  0  0  0  0
    2.8660   -2.0600    0.0000 C   0  0  0  0  0  0  0  0  0  0  0  0
    7.5646   -0.1128    0.0000 H   0  0  0  0  0  0  0  0  0  0  0  0
    6.6768    1.3424    0.0000 H   0  0  0  0  0  0  0  0  0  0  0  0
    6.4550   -1.4069    0.0000 H   0  0  0  0  0  0  0  0  0  0  0  0
    5.0184    0.9477    0.0000 H   0  0  0  0  0  0  0  0  0  0  0  0
    5.1695    2.2541    0.0000 H   0  0  0  0  0  0  0  0  0  0  0  0
    5.0025    1.4747    0.0000 H   0  0  0  0  0  0  0  0  0  0  0  0
    8.1814   -0.8354    0.0000 H   0  0  0  0  0  0  0  0  0  0  0  0
    8.1843    0.8358    0.0000 H   0  0  0  0  0  0  0  0  0  0  0  0
    6.7479   -2.5600    0.0000 H   0  0  0  0  0  0  0  0  0  0  0  0
    3.1951   -4.8700    0.0000 H   0  0  0  0  0  0  0  0  0  0  0  0
    4.2690   -4.8700    0.0000 H   0  0  0  0  0  0  0  0  0  0  0  0
    6.0217    4.8700    0.0000 H   0  0  0  0  0  0  0  0  0  0  0  0
    6.9950    4.3720    0.0000 H   0  0  0  0  0  0  0  0  0  0  0  0
  1  6  1  0  0  0  0
  1  7  1  0  0  0  0
  1  8  1  0  0  0  0
  1  9  2  0  0  0  0
  2 24  1  0  0  0  0
  3 17  1  0  0  0  0
  3 18  1  0  0  0  0
  4 15  1  0  0  0  0
  4 31  1  0  0  0  0
  5 16  1  0  0  0  0
  5 32  1  0  0  0  0
  6 19  1  0  0  0  0
  7 36  1  0  0  0  0
  8 37  1  0  0  0  0
 10 17  1  0  0  0  0
 10 20  1  0  0  0  0
 10 21  1  0  0  0  0
 11 21  2  0  0  0  0
 11 22  1  0  0  0  0
 12 20  1  0  0  0  0
 12 24  2  0  0  0  0
 13 23  2  0  0  0  0
 13 24  1  0  0  0  0
 14 23  1  0  0  0  0
 14 34  1  0  0  0  0
 14 35  1  0  0  0  0
 15 16  1  0  0  0  0
 15 17  1  0  0  0  0
 15 25  1  0  0  0  0
 16 18  1  0  0  0  0
 16 26  1  0  0  0  0
 17 27  1  0  0  0  0
 18 19  1  0  0  0  0
 18 28  1  0  0  0  0
 19 29  1  0  0  0  0
 19 30  1  0  0  0  0
 20 22  2  0  0  0  0
 21 33  1  0  0  0  0
 22 23  1  0  0  0  0
M  END
> <PUBCHEM_COMPOUND_CID>
3368

> <PUBCHEM_COMPOUND_CANONICALIZED>
1

> <PUBCHEM_CACTVS_COMPLEXITY>
514

> <PUBCHEM_CACTVS_HBOND_ACCEPTOR>
12

> <PUBCHEM_CACTVS_HBOND_DONOR>
5

> <PUBCHEM_CACTVS_ROTATABLE_BOND>
4

> <PUBCHEM_CACTVS_SUBSKEYS>
AAADccBzuQIAAAAAAAAAAAAAAAAAAWJAAAAsAAAAAAAAAFgB+AAAHwAQCCAACBzhlwYF8L9MFxCgQQZhZICAgC0REKABUCAoVBCDWAJAyEAeRAgPAALTACDwMAIAAAAAAAAAAAAAAAAAAAAAAAAAAAAAAA==

> <PUBCHEM_IUPAC_OPENEYE_NAME>
[5-(6-amino-2-fluoro-purin-9-yl)-3,4-dihydroxy-tetrahydrofuran-2-yl]methyl dihydrogen phosphate

> <PUBCHEM_IUPAC_CAS_NAME>
[5-(6-amino-2-fluoro-9-purinyl)-3,4-dihydroxy-2-oxolanyl]methyl dihydrogen phosphate

> <PUBCHEM_IUPAC_NAME>
[5-(6-amino-2-fluoropurin-9-yl)-3,4-dihydroxyoxolan-2-yl]methyl dihydrogen phosphate

> <PUBCHEM_IUPAC_SYSTEMATIC_NAME>
[5-(6-azanyl-2-fluoranyl-purin-9-yl)-3,4-bis(oxidanyl)oxolan-2-yl]methyl dihydrogen phosphate

> <PUBCHEM_IUPAC_TRADITIONAL_NAME>
[5-(6-amino-2-fluoro-purin-9-yl)-3,4-dihydroxy-tetrahydrofuran-2-yl]methyl dihydrogen phosphate

> <PUBCHEM_IUPAC_INCHI>
InChI=1S/C10H13FN5O7P/c11-10-14-7(12)4-8(15-10)16(2-13-4)9-6(18)5(17)3(23-9)1-22-24(19,20)21/h2-3,5-6,9,17-18H,1H2,(H2,12,14,15)(H2,19,20,21)

> <PUBCHEM_IUPAC_INCHIKEY>
GIUYCYHIANZCFB-UHFFFAOYSA-N

> <PUBCHEM_XLOGP3>
-3.1

> <PUBCHEM_EXACT_MASS>
365.053663

> <PUBCHEM_MOLECULAR_FORMULA>
C10H13FN5O7P

> <PUBCHEM_MOLECULAR_WEIGHT>
365.211685

> <PUBCHEM_OPENEYE_CAN_SMILES>
C1=NC2=C(N1C3C(C(C(O3)COP(=O)(O)O)O)O)N=C(N=C2N)F

> <PUBCHEM_OPENEYE_ISO_SMILES>
C1=NC2=C(N1C3C(C(C(O3)COP(=O)(O)O)O)O)N=C(N=C2N)F

> <PUBCHEM_CACTVS_TPSA>
186

> <PUBCHEM_MONOISOTOPIC_WEIGHT>
365.053663

> <PUBCHEM_TOTAL_CHARGE>
0

> <PUBCHEM_HEAVY_ATOM_COUNT>
24

> <PUBCHEM_ATOM_DEF_STEREO_COUNT>
0

> <PUBCHEM_ATOM_UDEF_STEREO_COUNT>
4

> <PUBCHEM_BOND_DEF_STEREO_COUNT>
0

> <PUBCHEM_BOND_UDEF_STEREO_COUNT>
0

> <PUBCHEM_ISOTOPIC_ATOM_COUNT>
0

> <PUBCHEM_COMPONENT_COUNT>
1

> <PUBCHEM_CACTVS_TAUTO_COUNT>
3

> <PUBCHEM_COORDINATE_TYPE>
1
5
255

> <PUBCHEM_BONDANNOTATIONS>
10  20  8
10  21  8
11  21  8
11  22  8
12  20  8
12  24  8
13  23  8
13  24  8
15  25  3
16  26  3
17  27  3
18  28  3
20  22  8
22  23  8

$$$$

