73053
  -OEChem-07051212573D

 87 92  0     0  0  0  0  0  0999 V2000
   -2.6113   -2.5359   -1.2153 O   0  0  0  0  0  0  0  0  0  0  0  0
    0.7475    1.5293    1.3976 O   0  0  0  0  0  0  0  0  0  0  0  0
    1.4930    3.3681   -0.5446 O   0  0  0  0  0  0  0  0  0  0  0  0
    3.4152    2.0982    1.7379 O   0  0  0  0  0  0  0  0  0  0  0  0
    5.4793    2.7698    0.0065 O   0  0  0  0  0  0  0  0  0  0  0  0
   -4.8979   -4.0155   -0.6045 O   0  0  0  0  0  0  0  0  0  0  0  0
   -4.8117    2.8822   -0.4671 N   0  3  0  0  0  0  0  0  0  0  0  0
    4.2088   -3.3970   -0.5826 N   0  3  0  0  0  0  0  0  0  0  0  0
   -3.8931    2.2546    0.2787 C   0  0  0  0  0  0  0  0  0  0  0  0
    3.6443   -2.4761    0.2093 C   0  0  0  0  0  0  0  0  0  0  0  0
   -2.5342    2.5156    0.0919 C   0  0  0  0  0  0  0  0  0  0  0  0
   -4.3864    1.2661    1.3161 C   0  0  0  0  0  0  0  0  0  0  0  0
    4.0866   -1.1521    0.1784 C   0  0  0  0  0  0  0  0  0  0  0  0
    2.5389   -2.9218    1.1120 C   0  0  0  0  0  0  0  0  0  0  0  0
   -2.1585    3.4509   -0.8964 C   0  0  0  0  0  0  0  0  0  0  0  0
    5.1363   -0.8139   -0.7030 C   0  0  0  0  0  0  0  0  0  0  0  0
   -4.5180   -0.1296    0.8075 C   0  0  0  0  0  0  0  0  0  0  0  0
    1.1626   -2.8183    0.4897 C   0  0  0  0  0  0  0  0  0  0  0  0
   -1.5451    1.8766    0.8559 C   0  0  0  0  0  0  0  0  0  0  0  0
   -4.4867    3.7731   -1.4109 C   0  0  0  0  0  0  0  0  0  0  0  0
   -3.1554    4.0813   -1.6515 C   0  0  0  0  0  0  0  0  0  0  0  0
    3.5174   -0.1615    0.9938 C   0  0  0  0  0  0  0  0  0  0  0  0
    5.2048   -3.1072   -1.4276 C   0  0  0  0  0  0  0  0  0  0  0  0
    5.6950   -1.8119   -1.5111 C   0  0  0  0  0  0  0  0  0  0  0  0
   -0.7957    3.7250   -1.0964 C   0  0  0  0  0  0  0  0  0  0  0  0
    5.5922    0.5137   -0.7465 C   0  0  0  0  0  0  0  0  0  0  0  0
   -0.1960    2.1608    0.6444 C   0  0  0  0  0  0  0  0  0  0  0  0
   -6.2348    2.6033   -0.2647 C   0  0  0  0  0  0  0  0  0  0  0  0
   -3.5028   -0.6876    0.0305 C   0  0  0  0  0  0  0  0  0  0  0  0
    0.1781    3.0831   -0.3297 C   0  0  0  0  0  0  0  0  0  0  0  0
    3.9824    1.1525    0.9376 C   0  0  0  0  0  0  0  0  0  0  0  0
    3.7390   -4.7834   -0.5444 C   0  0  0  0  0  0  0  0  0  0  0  0
   -5.6570   -0.8767    1.1078 C   0  0  0  0  0  0  0  0  0  0  0  0
    5.0175    1.4894    0.0693 C   0  0  0  0  0  0  0  0  0  0  0  0
   -3.6265   -1.9927   -0.4460 C   0  0  0  0  0  0  0  0  0  0  0  0
    0.0372   -3.2010    1.2195 C   0  0  0  0  0  0  0  0  0  0  0  0
    1.0196   -2.3407   -0.8131 C   0  0  0  0  0  0  0  0  0  0  0  0
   -1.3738   -2.6283   -0.6560 C   0  0  0  0  0  0  0  0  0  0  0  0
   -4.7654   -2.7398   -0.1455 C   0  0  0  0  0  0  0  0  0  0  0  0
   -5.7808   -2.1818    0.6315 C   0  0  0  0  0  0  0  0  0  0  0  0
   -1.2310   -3.1060    0.6468 C   0  0  0  0  0  0  0  0  0  0  0  0
   -0.2485   -2.2456   -1.3860 C   0  0  0  0  0  0  0  0  0  0  0  0
    0.2816    0.5993    2.3734 C   0  0  0  0  0  0  0  0  0  0  0  0
    1.7913    4.3237   -1.5603 C   0  0  0  0  0  0  0  0  0  0  0  0
    3.9933    2.2868    3.0279 C   0  0  0  0  0  0  0  0  0  0  0  0
    6.5414    3.0314   -0.9085 C   0  0  0  0  0  0  0  0  0  0  0  0
   -6.0926   -4.7103   -0.2523 C   0  0  0  0  0  0  0  0  0  0  0  0
   -5.3349    1.6046    1.7461 H   0  0  0  0  0  0  0  0  0  0  0  0
   -3.7437    1.2634    2.2037 H   0  0  0  0  0  0  0  0  0  0  0  0
    2.6859   -3.9517    1.4538 H   0  0  0  0  0  0  0  0  0  0  0  0
    2.5478   -2.3628    2.0542 H   0  0  0  0  0  0  0  0  0  0  0  0
   -1.8434    1.1600    1.6066 H   0  0  0  0  0  0  0  0  0  0  0  0
   -5.2875    4.2407   -1.9715 H   0  0  0  0  0  0  0  0  0  0  0  0
   -2.9058    4.8071   -2.4205 H   0  0  0  0  0  0  0  0  0  0  0  0
    2.7214   -0.3847    1.6873 H   0  0  0  0  0  0  0  0  0  0  0  0
    5.6116   -3.9082   -2.0336 H   0  0  0  0  0  0  0  0  0  0  0  0
    6.5045   -1.5907   -2.2012 H   0  0  0  0  0  0  0  0  0  0  0  0
   -0.5559    4.4511   -1.8674 H   0  0  0  0  0  0  0  0  0  0  0  0
    6.4009    0.7253   -1.4397 H   0  0  0  0  0  0  0  0  0  0  0  0
   -6.4224    1.5350   -0.3812 H   0  0  0  0  0  0  0  0  0  0  0  0
   -6.5346    2.9838    0.7151 H   0  0  0  0  0  0  0  0  0  0  0  0
   -6.8316    3.1214   -1.0221 H   0  0  0  0  0  0  0  0  0  0  0  0
   -2.6124   -0.1413   -0.2449 H   0  0  0  0  0  0  0  0  0  0  0  0
    4.2122   -5.3629   -1.3435 H   0  0  0  0  0  0  0  0  0  0  0  0
    2.6615   -4.8232   -0.7124 H   0  0  0  0  0  0  0  0  0  0  0  0
    4.0318   -5.2254    0.4117 H   0  0  0  0  0  0  0  0  0  0  0  0
   -6.4554   -0.4551    1.7129 H   0  0  0  0  0  0  0  0  0  0  0  0
    0.1390   -3.5771    2.2340 H   0  0  0  0  0  0  0  0  0  0  0  0
    1.8545   -2.0320   -1.4326 H   0  0  0  0  0  0  0  0  0  0  0  0
   -6.6922   -2.7022    0.9045 H   0  0  0  0  0  0  0  0  0  0  0  0
   -2.0875   -3.4280    1.2326 H   0  0  0  0  0  0  0  0  0  0  0  0
   -0.3546   -1.8727   -2.4011 H   0  0  0  0  0  0  0  0  0  0  0  0
    1.1431    0.2389    2.9415 H   0  0  0  0  0  0  0  0  0  0  0  0
   -0.1936   -0.2672    1.9055 H   0  0  0  0  0  0  0  0  0  0  0  0
   -0.3694    1.0813    3.1118 H   0  0  0  0  0  0  0  0  0  0  0  0
    1.4760    3.9743   -2.5494 H   0  0  0  0  0  0  0  0  0  0  0  0
    1.3880    5.3124   -1.3164 H   0  0  0  0  0  0  0  0  0  0  0  0
    2.8812    4.4258   -1.5938 H   0  0  0  0  0  0  0  0  0  0  0  0
    3.9204    1.3678    3.6180 H   0  0  0  0  0  0  0  0  0  0  0  0
    5.0395    2.5962    2.9405 H   0  0  0  0  0  0  0  0  0  0  0  0
    3.4363    3.0760    3.5401 H   0  0  0  0  0  0  0  0  0  0  0  0
    7.4500    2.4810   -0.6415 H   0  0  0  0  0  0  0  0  0  0  0  0
    6.2341    2.8557   -1.9451 H   0  0  0  0  0  0  0  0  0  0  0  0
    6.7812    4.0968   -0.8261 H   0  0  0  0  0  0  0  0  0  0  0  0
   -6.0295   -5.7074   -0.7007 H   0  0  0  0  0  0  0  0  0  0  0  0
   -6.9800   -4.2274   -0.6753 H   0  0  0  0  0  0  0  0  0  0  0  0
   -6.1718   -4.8535    0.8308 H   0  0  0  0  0  0  0  0  0  0  0  0
  1 35  1  0  0  0  0
  1 38  1  0  0  0  0
  2 27  1  0  0  0  0
  2 43  1  0  0  0  0
  3 30  1  0  0  0  0
  3 44  1  0  0  0  0
  4 31  1  0  0  0  0
  4 45  1  0  0  0  0
  5 34  1  0  0  0  0
  5 46  1  0  0  0  0
  6 39  1  0  0  0  0
  6 47  1  0  0  0  0
  7  9  2  0  0  0  0
  7 20  1  0  0  0  0
  7 28  1  0  0  0  0
  8 10  2  0  0  0  0
  8 23  1  0  0  0  0
  8 32  1  0  0  0  0
  9 11  1  0  0  0  0
  9 12  1  0  0  0  0
 10 13  1  0  0  0  0
 10 14  1  0  0  0  0
 11 15  1  0  0  0  0
 11 19  2  0  0  0  0
 12 17  1  0  0  0  0
 12 48  1  0  0  0  0
 12 49  1  0  0  0  0
 13 16  1  0  0  0  0
 13 22  2  0  0  0  0
 14 18  1  0  0  0  0
 14 50  1  0  0  0  0
 14 51  1  0  0  0  0
 15 21  1  0  0  0  0
 15 25  2  0  0  0  0
 16 24  1  0  0  0  0
 16 26  2  0  0  0  0
 17 29  2  0  0  0  0
 17 33  1  0  0  0  0
 18 36  2  0  0  0  0
 18 37  1  0  0  0  0
 19 27  1  0  0  0  0
 19 52  1  0  0  0  0
 20 21  2  0  0  0  0
 20 53  1  0  0  0  0
 21 54  1  0  0  0  0
 22 31  1  0  0  0  0
 22 55  1  0  0  0  0
 23 24  2  0  0  0  0
 23 56  1  0  0  0  0
 24 57  1  0  0  0  0
 25 30  1  0  0  0  0
 25 58  1  0  0  0  0
 26 34  1  0  0  0  0
 26 59  1  0  0  0  0
 27 30  2  0  0  0  0
 28 60  1  0  0  0  0
 28 61  1  0  0  0  0
 28 62  1  0  0  0  0
 29 35  1  0  0  0  0
 29 63  1  0  0  0  0
 31 34  2  0  0  0  0
 32 64  1  0  0  0  0
 32 65  1  0  0  0  0
 32 66  1  0  0  0  0
 33 40  2  0  0  0  0
 33 67  1  0  0  0  0
 35 39  2  0  0  0  0
 36 41  1  0  0  0  0
 36 68  1  0  0  0  0
 37 42  2  0  0  0  0
 37 69  1  0  0  0  0
 38 41  2  0  0  0  0
 38 42  1  0  0  0  0
 39 40  1  0  0  0  0
 40 70  1  0  0  0  0
 41 71  1  0  0  0  0
 42 72  1  0  0  0  0
 43 73  1  0  0  0  0
 43 74  1  0  0  0  0
 43 75  1  0  0  0  0
 44 76  1  0  0  0  0
 44 77  1  0  0  0  0
 44 78  1  0  0  0  0
 45 79  1  0  0  0  0
 45 80  1  0  0  0  0
 45 81  1  0  0  0  0
 46 82  1  0  0  0  0
 46 83  1  0  0  0  0
 46 84  1  0  0  0  0
 47 85  1  0  0  0  0
 47 86  1  0  0  0  0
 47 87  1  0  0  0  0
M  CHG  2   7   1   8   1
M  END
> <PUBCHEM_COMPOUND_CID>
73053

> <PUBCHEM_CONFORMER_RMSD>
1.2

> <PUBCHEM_CONFORMER_DIVERSEORDER>
53
318
1
70
256
153
87
309
105
21
335
271
333
319
147
179
344
4
267
349
236
248
316
322
24
46
279
18
191
168
299
224
157
323
72
238
85
133
305
101
311
252
245
306
155
41
341
212
148
237
171
89
141
3
244
197
285
182
292
31
156
205
274
177
331
93
97
140
273
150
164
262
242
328
234
346
313
232
27
172
332
296
258
302
166
129
132
58
116
5
246
329
283
33
255
115
48
165
158
207
28
103
247
2
7
243
200
227
198
287
326
170
112
293
345
98
343
145
228
161
76
56
307
136
199
102
159
94
286
254
334
178
202
225
317
266
83
142
241
55
173
122
251
79
239
229
111
192
265
119
125
272
92
169
134
216
339
324
280
261
68
215
342
291
137
278
167
128
126
10
288
146
154
320
117
270
185
186
139
190
9
104
124
340
219
80
187
221
189
54
195
223
29
183
351
330
214
208
308
203
149
276
66
277
138
259
39
176
64
217
233
118
143
315
226
151
194
75
260
314
210
250
120
73
131
321
300
327
96
81
304
204
282
230
257
61
249
84
325
62
135
181
206
60
193
218
336
63
175
37
220
253
144
82
209
45
196
35
240
152
348
71
123
6
109
263
91
59
42
100
338
281
15
108
312
163
69
294
188
130
201
350
213
268
337
86
113
17
284
11
49
43
297
303
121
269
235
347
52
65
32
290
47
14
90
180
184
127
275
67
264
162
298
88
99
25
13
310
50
174
74
40
12
78
211
38
51
107
30
16
231
295
23
114
301
77
36
26
110
160
8
57
289
95
106
19
44
22
20
222
34

> <PUBCHEM_MMFF94_PARTIAL_CHARGES>
58
1 -0.17
10 0.22
12 0.29
14 0.29
17 -0.14
18 -0.14
19 -0.15
2 -0.36
20 0.21
21 -0.15
22 -0.15
23 0.21
24 -0.15
25 -0.15
26 -0.15
27 0.08
28 0.49
29 -0.15
3 -0.36
30 0.08
31 0.08
32 0.49
33 -0.15
34 0.08
35 0.08
36 -0.15
37 -0.15
38 0.08
39 0.08
4 -0.36
40 -0.15
41 -0.15
42 -0.15
43 0.28
44 0.28
45 0.28
46 0.28
47 0.28
5 -0.36
52 0.15
53 0.15
54 0.15
55 0.15
56 0.15
57 0.15
58 0.15
59 0.15
6 -0.36
63 0.15
67 0.15
68 0.15
69 0.15
7 -0.21
70 0.15
71 0.15
72 0.15
8 -0.21
9 0.22

> <PUBCHEM_EFFECTIVE_ROTOR_COUNT>
11

> <PUBCHEM_PHARMACOPHORE_FEATURES>
12
1 1 acceptor
1 2 acceptor
1 3 acceptor
1 4 acceptor
1 5 acceptor
1 6 acceptor
6 11 15 19 25 27 30 rings
6 13 16 22 26 31 34 rings
6 17 29 33 35 39 40 rings
6 18 36 37 38 41 42 rings
6 7 9 11 15 20 21 rings
6 8 10 13 16 23 24 rings

> <PUBCHEM_HEAVY_ATOM_COUNT>
47

> <PUBCHEM_ATOM_DEF_STEREO_COUNT>
0

> <PUBCHEM_ATOM_UDEF_STEREO_COUNT>
0

> <PUBCHEM_BOND_DEF_STEREO_COUNT>
0

> <PUBCHEM_BOND_UDEF_STEREO_COUNT>
0

> <PUBCHEM_ISOTOPIC_ATOM_COUNT>
0

> <PUBCHEM_COMPONENT_COUNT>
1

> <PUBCHEM_CACTVS_TAUTO_COUNT>
1

> <PUBCHEM_CONFORMER_ID>
00011D5D00000035

> <PUBCHEM_MMFF94_ENERGY>
224.8328

> <PUBCHEM_FEATURE_SELFOVERLAP>
60.969

> <PUBCHEM_SHAPE_FINGERPRINT>
10581848 127 17918002671512811749
10842077 115 17978269163380130472
10864689 126 17979073009200053004
11170278 133 18125723641156697100
117089 54 18051401869732466435
12633046 712 18040437728004283017
13561361 72 18410579517259265154
1361 2 18342448210894453008
14040221 299 17828766479638528847
14394314 77 18337099065361159201
14415361 349 18409739443874958925
15001296 14 18342461486226362360
15276724 80 18408880750425633511
15320467 1 18195805163517179014
15406563 190 18202006551149261841
15968369 153 17969524730176351857
15975801 100 17771047587538177078
20764821 26 18196676165625817205
354706 132 18059281154634753310
463206 1 17975141156036019640
5265222 85 18194115210115019032
5776283 40 18339905088445031062

> <PUBCHEM_SHAPE_MULTIPOLES>
922.06
15.39
7.7
1.72
1
0.76
-0.74
2.29
1.99
-3.07
2.71
1.13
-0.9
2.03

> <PUBCHEM_SHAPE_SELFOVERLAP>
2041.873

> <PUBCHEM_SHAPE_VOLUME>
497.6

> <PUBCHEM_COORDINATE_TYPE>
2
5
10

$$$$

