33500
  -OEChem-07051213133D

 40 41  0     1  0  0  0  0  0999 V2000
    4.6859    1.0319   -0.4660 F   0  0  0  0  0  0  0  0  0  0  0  0
    4.6587   -0.7191    0.8134 F   0  0  0  0  0  0  0  0  0  0  0  0
    4.5010   -0.9491   -1.3432 F   0  0  0  0  0  0  0  0  0  0  0  0
    0.6686    3.5123   -0.4767 O   0  5  0  0  0  0  0  0  0  0  0  0
    0.3176   -3.4652    0.2862 O   0  5  0  0  0  0  0  0  0  0  0  0
   -1.3030    2.5731   -0.2544 O   0  0  0  0  0  0  0  0  0  0  0  0
   -1.5487   -2.3095    0.2798 O   0  0  0  0  0  0  0  0  0  0  0  0
   -1.6021    0.1425    0.0212 N   0  0  3  0  0  0  0  0  0  0  0  0
   -0.0540    2.4999   -0.3242 N   0  3  0  0  0  0  0  0  0  0  0  0
   -0.2996   -2.3775    0.2087 N   0  3  0  0  0  0  0  0  0  0  0  0
   -3.7337   -0.5748   -0.9071 C   0  0  0  0  0  0  0  0  0  0  0  0
   -4.9648    0.2710   -0.9875 C   0  0  0  0  0  0  0  0  0  0  0  0
   -4.7002   -0.7746   -2.0309 C   0  0  0  0  0  0  0  0  0  0  0  0
   -2.4084    0.0499   -1.1975 C   0  0  0  0  0  0  0  0  0  0  0  0
   -2.2782    0.3018    1.2862 C   0  0  0  0  0  0  0  0  0  0  0  0
   -0.2043    0.0630   -0.0564 C   0  0  0  0  0  0  0  0  0  0  0  0
   -1.2711    0.4248    2.4248 C   0  0  0  0  0  0  0  0  0  0  0  0
    0.5656    1.2222   -0.2273 C   0  0  0  0  0  0  0  0  0  0  0  0
    0.4447   -1.1765    0.0345 C   0  0  0  0  0  0  0  0  0  0  0  0
   -1.9339    0.6402    3.7784 C   0  0  0  0  0  0  0  0  0  0  0  0
    1.9561    1.1435   -0.3057 C   0  0  0  0  0  0  0  0  0  0  0  0
    1.8351   -1.2552   -0.0438 C   0  0  0  0  0  0  0  0  0  0  0  0
    2.5908   -0.0951   -0.2138 C   0  0  0  0  0  0  0  0  0  0  0  0
    4.0777   -0.1795   -0.2986 C   0  0  0  0  0  0  0  0  0  0  0  0
   -3.7126   -1.4125   -0.2244 H   0  0  0  0  0  0  0  0  0  0  0  0
   -4.8727    1.3095   -1.2806 H   0  0  0  0  0  0  0  0  0  0  0  0
   -5.7519    0.0806   -0.2680 H   0  0  0  0  0  0  0  0  0  0  0  0
   -4.4226   -0.4377   -3.0222 H   0  0  0  0  0  0  0  0  0  0  0  0
   -5.3176   -1.6646   -2.0182 H   0  0  0  0  0  0  0  0  0  0  0  0
   -2.5284    1.0334   -1.6637 H   0  0  0  0  0  0  0  0  0  0  0  0
   -1.8921   -0.5785   -1.9350 H   0  0  0  0  0  0  0  0  0  0  0  0
   -2.9173    1.1929    1.2650 H   0  0  0  0  0  0  0  0  0  0  0  0
   -2.9277   -0.5476    1.5212 H   0  0  0  0  0  0  0  0  0  0  0  0
   -0.5962    1.2734    2.2723 H   0  0  0  0  0  0  0  0  0  0  0  0
   -0.6574   -0.4786    2.5113 H   0  0  0  0  0  0  0  0  0  0  0  0
   -1.1768    0.7237    4.5645 H   0  0  0  0  0  0  0  0  0  0  0  0
   -2.5931   -0.1972    4.0283 H   0  0  0  0  0  0  0  0  0  0  0  0
   -2.5292    1.5589    3.7801 H   0  0  0  0  0  0  0  0  0  0  0  0
    2.5639    2.0351   -0.4382 H   0  0  0  0  0  0  0  0  0  0  0  0
    2.3597   -2.2056    0.0243 H   0  0  0  0  0  0  0  0  0  0  0  0
  1 24  1  0  0  0  0
  2 24  1  0  0  0  0
  3 24  1  0  0  0  0
  4  9  1  0  0  0  0
  5 10  1  0  0  0  0
  6  9  2  0  0  0  0
  7 10  2  0  0  0  0
  8 14  1  0  0  0  0
  8 15  1  0  0  0  0
  8 16  1  0  0  0  0
  9 18  1  0  0  0  0
 10 19  1  0  0  0  0
 11 12  1  0  0  0  0
 11 13  1  0  0  0  0
 11 14  1  0  0  0  0
 11 25  1  0  0  0  0
 12 13  1  0  0  0  0
 12 26  1  0  0  0  0
 12 27  1  0  0  0  0
 13 28  1  0  0  0  0
 13 29  1  0  0  0  0
 14 30  1  0  0  0  0
 14 31  1  0  0  0  0
 15 17  1  0  0  0  0
 15 32  1  0  0  0  0
 15 33  1  0  0  0  0
 16 18  2  0  0  0  0
 16 19  1  0  0  0  0
 17 20  1  0  0  0  0
 17 34  1  0  0  0  0
 17 35  1  0  0  0  0
 18 21  1  0  0  0  0
 19 22  2  0  0  0  0
 20 36  1  0  0  0  0
 20 37  1  0  0  0  0
 20 38  1  0  0  0  0
 21 23  2  0  0  0  0
 21 39  1  0  0  0  0
 22 23  1  0  0  0  0
 22 40  1  0  0  0  0
 23 24  1  0  0  0  0
M  CHG  4   4  -1   5  -1   9   1  10   1
M  END
> <PUBCHEM_COMPOUND_CID>
33500

> <PUBCHEM_CONFORMER_RMSD>
0.8

> <PUBCHEM_CONFORMER_DIVERSEORDER>
1
2
3

> <PUBCHEM_MMFF94_PARTIAL_CHARGES>
29
1 -0.34
10 0.91
11 -0.19
12 -0.2
13 -0.2
14 0.46
15 0.37
16 0.1
18 0.13
19 0.13
2 -0.34
21 -0.15
22 -0.15
23 -0.14
24 1.16
25 0.1
26 0.1
27 0.1
28 0.1
29 0.1
3 -0.34
39 0.15
4 -0.52
40 0.15
5 -0.52
6 -0.52
7 -0.52
8 -0.84
9 0.91

> <PUBCHEM_EFFECTIVE_ROTOR_COUNT>
8.6

> <PUBCHEM_PHARMACOPHORE_FEATURES>
9
1 20 hydrophobe
1 4 acceptor
1 4 anion
1 5 acceptor
1 5 anion
1 6 acceptor
1 7 acceptor
1 8 cation
6 16 18 19 21 22 23 rings

> <PUBCHEM_HEAVY_ATOM_COUNT>
24

> <PUBCHEM_ATOM_DEF_STEREO_COUNT>
0

> <PUBCHEM_ATOM_UDEF_STEREO_COUNT>
0

> <PUBCHEM_BOND_DEF_STEREO_COUNT>
0

> <PUBCHEM_BOND_UDEF_STEREO_COUNT>
0

> <PUBCHEM_ISOTOPIC_ATOM_COUNT>
0

> <PUBCHEM_COMPONENT_COUNT>
1

> <PUBCHEM_CACTVS_TAUTO_COUNT>
1

> <PUBCHEM_CONFORMER_ID>
000082DC00000001

> <PUBCHEM_MMFF94_ENERGY>
102.699

> <PUBCHEM_FEATURE_SELFOVERLAP>
45.833

> <PUBCHEM_SHAPE_FINGERPRINT>
10693767 8 18188227471334989007
10906281 52 18336815416961847524
11578080 2 16127224716210780981
11680986 33 18120660119417143776
12236239 1 17894909638059389741
12553582 1 18340187645115300268
12592029 89 18202008758461355595
13140716 1 18268423551962492466
13583140 156 16845001330540564748
13911987 19 18272642429275115558
13965767 371 16741659551000802249
14787075 74 17459487562328602017
14790565 3 18412258462967948237
15420108 30 17247216114122650105
16752209 62 18271246131396976660
16945 1 18340757222134693966
17349148 13 18114174207593535142
17492 54 18271535233993103175
17980427 23 17604136039356457024
19010151 120 18334016098637636885
200 152 17822014185785290639
21029758 11 18408609132145523108
229495 10 17830720312143289625
2334 1 18051968118024604414
23352939 185 18259708882640618601
23402539 116 18335431178676454894
23419403 2 17680997288359194315
23493267 7 16774075184995685432
23557571 272 14852149737795748785
23558518 356 17554333900952714352
23559900 14 18265337205839160908
2748010 2 18123183507456425606
3286 77 17095246930000603000
34934 24 18269846320145932492
350125 39 18055345843520542175

> <PUBCHEM_SHAPE_MULTIPOLES>
433.67
7.89
2.67
2.07
2.23
0.19
2.57
-1.65
-4.08
0.35
-0.11
-2.35
0.73
-0.94

> <PUBCHEM_SHAPE_SELFOVERLAP>
915.05

> <PUBCHEM_SHAPE_VOLUME>
245.8

> <PUBCHEM_COORDINATE_TYPE>
2
5
10

$$$$

