439590
  -OEChem-07051213103D

 26 26  0     1  0  0  0  0  0999 V2000
    0.2345   -2.7624    0.3437 O   0  0  0  0  0  0  0  0  0  0  0  0
   -2.4960    1.1935    0.3773 O   0  0  0  0  0  0  0  0  0  0  0  0
    2.2600    1.5981    0.3731 O   0  0  0  0  0  0  0  0  0  0  0  0
   -0.2728    2.7532   -0.3805 O   0  0  0  0  0  0  0  0  0  0  0  0
   -2.3087   -1.6306   -0.3370 N   0  0  0  0  0  0  0  0  0  0  0  0
    2.5833   -1.1609   -0.3303 N   0  0  0  0  0  0  0  0  0  0  0  0
   -1.1981   -0.8441    0.2176 C   0  0  1  0  0  0  0  0  0  0  0  0
    1.3327   -0.6129    0.2135 C   0  0  2  0  0  0  0  0  0  0  0  0
    0.1330   -1.4608   -0.2401 C   0  0  0  0  0  0  0  0  0  0  0  0
   -1.3330    0.6178   -0.2247 C   0  0  2  0  0  0  0  0  0  0  0  0
    1.1987    0.8502   -0.2280 C   0  0  1  0  0  0  0  0  0  0  0  0
   -0.1336    1.4590    0.2153 C   0  0  0  0  0  0  0  0  0  0  0  0
   -1.2846   -0.9117    1.3097 H   0  0  0  0  0  0  0  0  0  0  0  0
    1.4204   -0.6643    1.3070 H   0  0  0  0  0  0  0  0  0  0  0  0
    0.1542   -1.5743   -1.3327 H   0  0  0  0  0  0  0  0  0  0  0  0
   -1.4650    0.6941   -1.3113 H   0  0  0  0  0  0  0  0  0  0  0  0
    1.3035    0.9526   -1.3162 H   0  0  0  0  0  0  0  0  0  0  0  0
   -0.1457    1.6177    1.3009 H   0  0  0  0  0  0  0  0  0  0  0  0
   -2.2562   -2.5917   -0.0043 H   0  0  0  0  0  0  0  0  0  0  0  0
   -2.2304   -1.6732   -1.3523 H   0  0  0  0  0  0  0  0  0  0  0  0
    2.6641   -2.1428   -0.0681 H   0  0  0  0  0  0  0  0  0  0  0  0
    3.3801   -0.6885    0.0937 H   0  0  0  0  0  0  0  0  0  0  0  0
   -0.4025   -3.3387   -0.1108 H   0  0  0  0  0  0  0  0  0  0  0  0
   -2.4061    1.1148    1.3423 H   0  0  0  0  0  0  0  0  0  0  0  0
    3.0910    1.3141   -0.0432 H   0  0  0  0  0  0  0  0  0  0  0  0
    0.5006    3.2792   -0.1142 H   0  0  0  0  0  0  0  0  0  0  0  0
  1  9  1  0  0  0  0
  1 23  1  0  0  0  0
  2 10  1  0  0  0  0
  2 24  1  0  0  0  0
  3 11  1  0  0  0  0
  3 25  1  0  0  0  0
  4 12  1  0  0  0  0
  4 26  1  0  0  0  0
  5  7  1  0  0  0  0
  5 19  1  0  0  0  0
  5 20  1  0  0  0  0
  6  8  1  0  0  0  0
  6 21  1  0  0  0  0
  6 22  1  0  0  0  0
  7  9  1  0  0  0  0
  7 10  1  0  0  0  0
  7 13  1  0  0  0  0
  8  9  1  0  0  0  0
  8 11  1  0  0  0  0
  8 14  1  0  0  0  0
  9 15  1  0  0  0  0
 10 12  1  0  0  0  0
 10 16  1  0  0  0  0
 11 12  1  0  0  0  0
 11 17  1  0  0  0  0
 12 18  1  0  0  0  0
M  END
> <PUBCHEM_COMPOUND_CID>
439590

> <PUBCHEM_CONFORMER_RMSD>
0.4

> <PUBCHEM_CONFORMER_DIVERSEORDER>
1
2
5
4
3
6

> <PUBCHEM_MMFF94_PARTIAL_CHARGES>
20
1 -0.68
10 0.28
11 0.28
12 0.28
19 0.36
2 -0.68
20 0.36
21 0.36
22 0.36
23 0.4
24 0.4
25 0.4
26 0.4
3 -0.68
4 -0.68
5 -0.99
6 -0.99
7 0.27
8 0.27
9 0.28

> <PUBCHEM_EFFECTIVE_ROTOR_COUNT>
1.2

> <PUBCHEM_PHARMACOPHORE_FEATURES>
13
1 1 acceptor
1 1 donor
1 2 acceptor
1 2 donor
1 3 acceptor
1 3 donor
1 4 acceptor
1 4 donor
1 5 cation
1 5 donor
1 6 cation
1 6 donor
6 7 8 9 10 11 12 rings

> <PUBCHEM_HEAVY_ATOM_COUNT>
12

> <PUBCHEM_ATOM_DEF_STEREO_COUNT>
4

> <PUBCHEM_ATOM_UDEF_STEREO_COUNT>
0

> <PUBCHEM_BOND_DEF_STEREO_COUNT>
0

> <PUBCHEM_BOND_UDEF_STEREO_COUNT>
0

> <PUBCHEM_ISOTOPIC_ATOM_COUNT>
0

> <PUBCHEM_COMPONENT_COUNT>
1

> <PUBCHEM_CACTVS_TAUTO_COUNT>
1

> <PUBCHEM_CONFORMER_ID>
0006B52600000001

> <PUBCHEM_MMFF94_ENERGY>
20.41

> <PUBCHEM_FEATURE_SELFOVERLAP>
65.988

> <PUBCHEM_SHAPE_FINGERPRINT>
12423570 1 17749665190816686767
16945 1 18194971969831567366
18185500 45 18338517576635481087
193761 8 18194688291547209359
21040471 1 18338794494709873952
2334 1 18338797814550626309
23552423 10 18342736303998541446
241688 4 18410856568229724443
2748010 2 18410856533885823159
5084963 1 18186518782740637402
5255222 1 18194686092571536996
66348 1 18410856568240306151

> <PUBCHEM_SHAPE_MULTIPOLES>
213.52
2.86
2.8
0.65
0.06
0.03
0
-0.11
0.01
-0.05
-0.01
0
0.01
0

> <PUBCHEM_SHAPE_SELFOVERLAP>
425.951

> <PUBCHEM_SHAPE_VOLUME>
125.5

> <PUBCHEM_COORDINATE_TYPE>
2
5
10

$$$$

