13113
  -OEChem-06261207462D

 45 47  0     0  0  0  0  0  0999 V2000
    8.9942   -1.2085    0.0000 Cl  0  0  0  0  0  0  0  0  0  0  0  0
    5.4641   -3.2327    0.0000 S   0  0  0  0  0  0  0  0  0  0  0  0
    6.3301    0.2673    0.0000 O   0  0  0  0  0  0  0  0  0  0  0  0
    3.7320    1.7673    0.0000 N   0  0  0  0  0  0  0  0  0  0  0  0
    5.4641   -1.2327    0.0000 N   0  0  0  0  0  0  0  0  0  0  0  0
    4.5981    1.2673    0.0000 C   0  0  0  0  0  0  0  0  0  0  0  0
    4.5981    0.2673    0.0000 C   0  0  0  0  0  0  0  0  0  0  0  0
    5.4641   -0.2327    0.0000 C   0  0  0  0  0  0  0  0  0  0  0  0
    3.7320    2.7673    0.0000 C   0  0  0  0  0  0  0  0  0  0  0  0
    2.8660    1.2673    0.0000 C   0  0  0  0  0  0  0  0  0  0  0  0
    6.3301   -1.7327    0.0000 C   0  0  0  0  0  0  0  0  0  0  0  0
    4.5981   -1.7327    0.0000 C   0  0  0  0  0  0  0  0  0  0  0  0
    6.3301   -2.7327    0.0000 C   0  0  0  0  0  0  0  0  0  0  0  0
    4.5981   -2.7327    0.0000 C   0  0  0  0  0  0  0  0  0  0  0  0
    2.0000    1.7673    0.0000 C   0  0  0  0  0  0  0  0  0  0  0  0
    2.8660    3.2673    0.0000 C   0  0  0  0  0  0  0  0  0  0  0  0
    7.2241   -1.1980    0.0000 C   0  0  0  0  0  0  0  0  0  0  0  0
    3.7041   -1.1980    0.0000 C   0  0  0  0  0  0  0  0  0  0  0  0
    7.2241   -3.2673    0.0000 C   0  0  0  0  0  0  0  0  0  0  0  0
    3.7041   -3.2673    0.0000 C   0  0  0  0  0  0  0  0  0  0  0  0
    8.1301   -1.7118    0.0000 C   0  0  0  0  0  0  0  0  0  0  0  0
    2.7981   -1.7118    0.0000 C   0  0  0  0  0  0  0  0  0  0  0  0
    8.1301   -2.7535    0.0000 C   0  0  0  0  0  0  0  0  0  0  0  0
    2.7981   -2.7535    0.0000 C   0  0  0  0  0  0  0  0  0  0  0  0
    5.2087    1.1597    0.0000 H   0  0  0  0  0  0  0  0  0  0  0  0
    4.8101    1.8499    0.0000 H   0  0  0  0  0  0  0  0  0  0  0  0
    3.9875    0.3750    0.0000 H   0  0  0  0  0  0  0  0  0  0  0  0
    4.3860   -0.3153    0.0000 H   0  0  0  0  0  0  0  0  0  0  0  0
    4.3426    2.6597    0.0000 H   0  0  0  0  0  0  0  0  0  0  0  0
    3.9441    3.3499    0.0000 H   0  0  0  0  0  0  0  0  0  0  0  0
    2.4675    0.7924    0.0000 H   0  0  0  0  0  0  0  0  0  0  0  0
    3.2646    0.7924    0.0000 H   0  0  0  0  0  0  0  0  0  0  0  0
    2.3100    2.3043    0.0000 H   0  0  0  0  0  0  0  0  0  0  0  0
    1.4631    2.0773    0.0000 H   0  0  0  0  0  0  0  0  0  0  0  0
    3.1760    3.8043    0.0000 H   0  0  0  0  0  0  0  0  0  0  0  0
    2.3291    3.5773    0.0000 H   0  0  0  0  0  0  0  0  0  0  0  0
    2.5560    2.7304    0.0000 H   0  0  0  0  0  0  0  0  0  0  0  0
    1.6900    1.2304    0.0000 H   0  0  0  0  0  0  0  0  0  0  0  0
    7.2169   -0.5780    0.0000 H   0  0  0  0  0  0  0  0  0  0  0  0
    3.7113   -0.5780    0.0000 H   0  0  0  0  0  0  0  0  0  0  0  0
    7.2169   -3.8873    0.0000 H   0  0  0  0  0  0  0  0  0  0  0  0
    3.7113   -3.8873    0.0000 H   0  0  0  0  0  0  0  0  0  0  0  0
    2.2623   -1.3998    0.0000 H   0  0  0  0  0  0  0  0  0  0  0  0
    8.6659   -3.0656    0.0000 H   0  0  0  0  0  0  0  0  0  0  0  0
    2.2623   -3.0656    0.0000 H   0  0  0  0  0  0  0  0  0  0  0  0
  1 21  1  0  0  0  0
  2 13  1  0  0  0  0
  2 14  1  0  0  0  0
  3  8  2  0  0  0  0
  4  6  1  0  0  0  0
  4  9  1  0  0  0  0
  4 10  1  0  0  0  0
  5  8  1  0  0  0  0
  5 11  1  0  0  0  0
  5 12  1  0  0  0  0
  6  7  1  0  0  0  0
  6 25  1  0  0  0  0
  6 26  1  0  0  0  0
  7  8  1  0  0  0  0
  7 27  1  0  0  0  0
  7 28  1  0  0  0  0
  9 16  1  0  0  0  0
  9 29  1  0  0  0  0
  9 30  1  0  0  0  0
 10 15  1  0  0  0  0
 10 31  1  0  0  0  0
 10 32  1  0  0  0  0
 11 13  2  0  0  0  0
 11 17  1  0  0  0  0
 12 14  1  0  0  0  0
 12 18  2  0  0  0  0
 13 19  1  0  0  0  0
 14 20  2  0  0  0  0
 15 33  1  0  0  0  0
 15 34  1  0  0  0  0
 15 38  1  0  0  0  0
 16 35  1  0  0  0  0
 16 36  1  0  0  0  0
 16 37  1  0  0  0  0
 17 21  2  0  0  0  0
 17 39  1  0  0  0  0
 18 22  1  0  0  0  0
 18 40  1  0  0  0  0
 19 23  2  0  0  0  0
 19 41  1  0  0  0  0
 20 24  1  0  0  0  0
 20 42  1  0  0  0  0
 21 23  1  0  0  0  0
 22 24  2  0  0  0  0
 22 43  1  0  0  0  0
 23 44  1  0  0  0  0
 24 45  1  0  0  0  0
M  END
> <PUBCHEM_COMPOUND_CID>
13113

> <PUBCHEM_COMPOUND_CANONICALIZED>
1

> <PUBCHEM_CACTVS_COMPLEXITY>
432

> <PUBCHEM_CACTVS_HBOND_ACCEPTOR>
3

> <PUBCHEM_CACTVS_HBOND_DONOR>
0

> <PUBCHEM_CACTVS_ROTATABLE_BOND>
5

> <PUBCHEM_CACTVS_SUBSKEYS>
AAADceB7IABEAAAAAAAAAAAAAAAAAAAAAAA8YIAAAAAAAACxQAAAHgYAAAAACArB0CQywYMAAAiIACVSUACCAAAhDxAIiB0IZogIIGrh05GEIAhghADoyAcQAAAAAAIAAAIAAQAABAAABAACAAAAAAAAAA==

> <PUBCHEM_IUPAC_OPENEYE_NAME>
1-(2-chlorophenothiazin-10-yl)-3-(diethylamino)propan-1-one

> <PUBCHEM_IUPAC_CAS_NAME>
1-(2-chloro-10-phenothiazinyl)-3-(diethylamino)-1-propanone

> <PUBCHEM_IUPAC_NAME>
1-(2-chlorophenothiazin-10-yl)-3-(diethylamino)propan-1-one

> <PUBCHEM_IUPAC_SYSTEMATIC_NAME>
1-(2-chloranylphenothiazin-10-yl)-3-(diethylamino)propan-1-one

> <PUBCHEM_IUPAC_TRADITIONAL_NAME>
1-(2-chlorophenothiazin-10-yl)-3-(diethylamino)propan-1-one

> <PUBCHEM_IUPAC_INCHI>
InChI=1S/C19H21ClN2OS/c1-3-21(4-2)12-11-19(23)22-15-7-5-6-8-17(15)24-18-10-9-14(20)13-16(18)22/h5-10,13H,3-4,11-12H2,1-2H3

> <PUBCHEM_IUPAC_INCHIKEY>
ZZKWNLZUYAGVOT-UHFFFAOYSA-N

> <PUBCHEM_XLOGP3>
4.8

> <PUBCHEM_EXACT_MASS>
360.106312

> <PUBCHEM_MOLECULAR_FORMULA>
C19H21ClN2OS

> <PUBCHEM_MOLECULAR_WEIGHT>
360.90084

> <PUBCHEM_OPENEYE_CAN_SMILES>
CCN(CC)CCC(=O)N1C2=CC=CC=C2SC3=C1C=C(C=C3)Cl

> <PUBCHEM_OPENEYE_ISO_SMILES>
CCN(CC)CCC(=O)N1C2=CC=CC=C2SC3=C1C=C(C=C3)Cl

> <PUBCHEM_CACTVS_TPSA>
48.8

> <PUBCHEM_MONOISOTOPIC_WEIGHT>
360.106312

> <PUBCHEM_TOTAL_CHARGE>
0

> <PUBCHEM_HEAVY_ATOM_COUNT>
24

> <PUBCHEM_ATOM_DEF_STEREO_COUNT>
0

> <PUBCHEM_ATOM_UDEF_STEREO_COUNT>
0

> <PUBCHEM_BOND_DEF_STEREO_COUNT>
0

> <PUBCHEM_BOND_UDEF_STEREO_COUNT>
0

> <PUBCHEM_ISOTOPIC_ATOM_COUNT>
0

> <PUBCHEM_COMPONENT_COUNT>
1

> <PUBCHEM_CACTVS_TAUTO_COUNT>
1

> <PUBCHEM_COORDINATE_TYPE>
1
5
255

> <PUBCHEM_BONDANNOTATIONS>
11  13  8
11  17  8
12  14  8
12  18  8
13  19  8
14  20  8
17  21  8
18  22  8
19  23  8
20  24  8
21  23  8
22  24  8

$$$$

