6337945
  -OEChem-07051213103D

 20 21  0     1  0  0  0  0  0999 V2000
    1.4847    2.0228   -0.8522 O   0  0  0  0  0  0  0  0  0  0  0  0
   -3.0291    0.0611   -0.5043 O   0  0  0  0  0  0  0  0  0  0  0  0
   -1.8588    1.1016    1.1521 O   0  0  0  0  0  0  0  0  0  0  0  0
    0.4548    0.2160    0.2577 N   0  0  0  0  0  0  0  0  0  0  0  0
    1.3283   -0.8876    0.7117 C   0  0  1  0  0  0  0  0  0  0  0  0
    0.8605   -2.0296   -0.1881 C   0  0  0  0  0  0  0  0  0  0  0  0
   -0.7019   -0.2039   -0.5106 C   0  0  1  0  0  0  0  0  0  0  0  0
   -0.6359   -1.7264   -0.4001 C   0  0  0  0  0  0  0  0  0  0  0  0
    2.5227    0.0342    0.3677 C   0  0  0  0  0  0  0  0  0  0  0  0
    1.4674    1.0124   -0.1863 C   0  0  0  0  0  0  0  0  0  0  0  0
   -1.8927    0.3995    0.1525 C   0  0  0  0  0  0  0  0  0  0  0  0
    1.1930   -1.0793    1.7824 H   0  0  0  0  0  0  0  0  0  0  0  0
    1.0144   -3.0088    0.2741 H   0  0  0  0  0  0  0  0  0  0  0  0
    1.3845   -2.0137   -1.1511 H   0  0  0  0  0  0  0  0  0  0  0  0
   -0.6017    0.1559   -1.5397 H   0  0  0  0  0  0  0  0  0  0  0  0
   -1.0354   -2.2264   -1.2877 H   0  0  0  0  0  0  0  0  0  0  0  0
   -1.2070   -2.0823    0.4670 H   0  0  0  0  0  0  0  0  0  0  0  0
    3.2162   -0.3513   -0.3831 H   0  0  0  0  0  0  0  0  0  0  0  0
    3.0730    0.4260    1.2271 H   0  0  0  0  0  0  0  0  0  0  0  0
   -3.8255    0.4476   -0.0816 H   0  0  0  0  0  0  0  0  0  0  0  0
  1 10  2  0  0  0  0
  2 11  1  0  0  0  0
  2 20  1  0  0  0  0
  3 11  2  0  0  0  0
  4  5  1  0  0  0  0
  4  7  1  0  0  0  0
  4 10  1  0  0  0  0
  5  6  1  0  0  0  0
  5  9  1  0  0  0  0
  5 12  1  0  0  0  0
  6  8  1  0  0  0  0
  6 13  1  0  0  0  0
  6 14  1  0  0  0  0
  7  8  1  0  0  0  0
  7 11  1  0  0  0  0
  7 15  1  0  0  0  0
  8 16  1  0  0  0  0
  8 17  1  0  0  0  0
  9 10  1  0  0  0  0
  9 18  1  0  0  0  0
  9 19  1  0  0  0  0
M  END
> <PUBCHEM_COMPOUND_CID>
6337945

> <PUBCHEM_CONFORMER_RMSD>
0.4

> <PUBCHEM_CONFORMER_DIVERSEORDER>
1
4
5
2
3
6

> <PUBCHEM_MMFF94_PARTIAL_CHARGES>
10
1 -0.57
10 0.58
11 0.66
2 -0.65
20 0.5
3 -0.57
4 -0.59
5 0.22
7 0.36
9 0.05

> <PUBCHEM_EFFECTIVE_ROTOR_COUNT>
1.8

> <PUBCHEM_PHARMACOPHORE_FEATURES>
5
1 1 acceptor
1 2 acceptor
1 3 acceptor
3 2 3 11 anion
7 4 5 6 7 8 9 10 rings

> <PUBCHEM_HEAVY_ATOM_COUNT>
11

> <PUBCHEM_ATOM_DEF_STEREO_COUNT>
2

> <PUBCHEM_ATOM_UDEF_STEREO_COUNT>
0

> <PUBCHEM_BOND_DEF_STEREO_COUNT>
0

> <PUBCHEM_BOND_UDEF_STEREO_COUNT>
0

> <PUBCHEM_ISOTOPIC_ATOM_COUNT>
0

> <PUBCHEM_COMPONENT_COUNT>
1

> <PUBCHEM_CACTVS_TAUTO_COUNT>
1

> <PUBCHEM_CONFORMER_ID>
0060B59900000001

> <PUBCHEM_MMFF94_ENERGY>
30.8844

> <PUBCHEM_FEATURE_SELFOVERLAP>
25.428

> <PUBCHEM_SHAPE_FINGERPRINT>
10219947 1 18342181115193448826
12423570 1 7546874425420247682
14993402 34 18411984676129617254
15775835 57 18200872851233006748
161256 15 17904200678586044214
16945 1 18342452668558335330
17834069 17 17843377636277545929
18185500 45 18336558143756246498
207724 885 18341335573688000882
21040471 1 18334579005794229498
23552423 10 18263080075538174295
241688 4 17762055840705464762
2748010 2 18195526987091266838
29004967 10 17988360502378697826
5084963 1 18333736839990359043

> <PUBCHEM_SHAPE_MULTIPOLES>
203.79
3.23
1.88
0.87
1.35
0.34
0.08
-0.81
0.16
-0.58
-0.32
0.07
-0.16
-0.5

> <PUBCHEM_SHAPE_SELFOVERLAP>
430.269

> <PUBCHEM_SHAPE_VOLUME>
115.2

> <PUBCHEM_COORDINATE_TYPE>
2
5
10

$$$$

