442823
  -OEChem-07051212592D

 38 41  0     1  0  0  0  0  0999 V2000
    5.9065    0.1141    0.0000 O   0  0  0  0  0  0  0  0  0  0  0  0
    8.0505    2.1826    0.0000 O   0  0  0  0  0  0  0  0  0  0  0  0
    9.3195   -1.6837    0.0000 O   0  0  0  0  0  0  0  0  0  0  0  0
   10.6901   -0.1616    0.0000 O   0  0  0  0  0  0  0  0  0  0  0  0
    2.4170    1.0184    0.0000 O   0  0  0  0  0  0  0  0  0  0  0  0
    6.4033    1.6474    0.0000 C   0  0  2  0  0  0  0  0  0  0  0  0
    6.7123    0.6963    0.0000 C   0  0  2  0  0  0  0  0  0  0  0  0
    5.4092    1.6448    0.0000 C   0  0  0  0  0  0  0  0  0  0  0  0
    7.0724    2.3905    0.0000 C   0  0  0  0  0  0  0  0  0  0  0  0
    7.6904    0.4884    0.0000 C   0  0  0  0  0  0  0  0  0  0  0  0
    5.1028    0.6991    0.0000 C   0  0  0  0  0  0  0  0  0  0  0  0
    8.3596    1.2316    0.0000 C   0  0  0  0  0  0  0  0  0  0  0  0
    4.7276    2.4243    0.0000 C   0  0  0  0  0  0  0  0  0  0  0  0
    7.9970   -0.5071    0.0000 C   0  0  0  0  0  0  0  0  0  0  0  0
    4.0936    0.4674    0.0000 C   0  0  0  0  0  0  0  0  0  0  0  0
    9.3816    1.0307    0.0000 C   0  0  0  0  0  0  0  0  0  0  0  0
    9.0142   -0.7315    0.0000 C   0  0  0  0  0  0  0  0  0  0  0  0
    3.7133    2.2160    0.0000 C   0  0  0  0  0  0  0  0  0  0  0  0
    9.7112    0.0426    0.0000 C   0  0  0  0  0  0  0  0  0  0  0  0
    3.3942    1.2309    0.0000 C   0  0  0  0  0  0  0  0  0  0  0  0
    8.6475   -2.4243    0.0000 C   0  0  0  0  0  0  0  0  0  0  0  0
   11.3564    0.5842    0.0000 C   0  0  0  0  0  0  0  0  0  0  0  0
    6.0565    2.4234    0.0000 H   0  0  0  0  0  0  0  0  0  0  0  0
    6.8879   -0.1353    0.0000 H   0  0  0  0  0  0  0  0  0  0  0  0
    7.3046    2.9654    0.0000 H   0  0  0  0  0  0  0  0  0  0  0  0
    6.5466    2.7191    0.0000 H   0  0  0  0  0  0  0  0  0  0  0  0
    4.9255    3.0119    0.0000 H   0  0  0  0  0  0  0  0  0  0  0  0
    7.5768   -0.9630    0.0000 H   0  0  0  0  0  0  0  0  0  0  0  0
    3.9094   -0.1246    0.0000 H   0  0  0  0  0  0  0  0  0  0  0  0
    9.7912    1.4962    0.0000 H   0  0  0  0  0  0  0  0  0  0  0  0
    3.2998    2.6779    0.0000 H   0  0  0  0  0  0  0  0  0  0  0  0
    2.0000    1.4772    0.0000 H   0  0  0  0  0  0  0  0  0  0  0  0
    8.1884   -2.0077    0.0000 H   0  0  0  0  0  0  0  0  0  0  0  0
    8.2309   -2.8834    0.0000 H   0  0  0  0  0  0  0  0  0  0  0  0
    9.1067   -2.8409    0.0000 H   0  0  0  0  0  0  0  0  0  0  0  0
   11.8187    0.1711    0.0000 H   0  0  0  0  0  0  0  0  0  0  0  0
   11.7694    1.0465    0.0000 H   0  0  0  0  0  0  0  0  0  0  0  0
   10.8940    0.9972    0.0000 H   0  0  0  0  0  0  0  0  0  0  0  0
  1  7  1  0  0  0  0
  1 11  1  0  0  0  0
  2  9  1  0  0  0  0
  2 12  1  0  0  0  0
  3 17  1  0  0  0  0
  3 21  1  0  0  0  0
  4 19  1  0  0  0  0
  4 22  1  0  0  0  0
  5 20  1  0  0  0  0
  5 32  1  0  0  0  0
  6  7  1  0  0  0  0
  6  8  1  0  0  0  0
  6  9  1  0  0  0  0
  6 23  1  1  0  0  0
  7 10  1  0  0  0  0
  7 24  1  1  0  0  0
  8 11  2  0  0  0  0
  8 13  1  0  0  0  0
  9 25  1  0  0  0  0
  9 26  1  0  0  0  0
 10 12  1  0  0  0  0
 10 14  2  0  0  0  0
 11 15  1  0  0  0  0
 12 16  2  0  0  0  0
 13 18  2  0  0  0  0
 13 27  1  0  0  0  0
 14 17  1  0  0  0  0
 14 28  1  0  0  0  0
 15 20  2  0  0  0  0
 15 29  1  0  0  0  0
 16 19  1  0  0  0  0
 16 30  1  0  0  0  0
 17 19  2  0  0  0  0
 18 20  1  0  0  0  0
 18 31  1  0  0  0  0
 21 33  1  0  0  0  0
 21 34  1  0  0  0  0
 21 35  1  0  0  0  0
 22 36  1  0  0  0  0
 22 37  1  0  0  0  0
 22 38  1  0  0  0  0
M  END
> <PUBCHEM_COMPOUND_CID>
442823

> <PUBCHEM_COMPOUND_CANONICALIZED>
1

> <PUBCHEM_CACTVS_COMPLEXITY>
403

> <PUBCHEM_CACTVS_HBOND_ACCEPTOR>
5

> <PUBCHEM_CACTVS_HBOND_DONOR>
1

> <PUBCHEM_CACTVS_ROTATABLE_BOND>
2

> <PUBCHEM_CACTVS_SUBSKEYS>
AAADceB4OAAAAAAAAAAAAAAAAAAAASAAAAA0YIAAAAAAAEiRQAAAGgAACAAADRSgmAIyBoAABgCAAiBCAAACCAAgIAAIiAAGiIgNJyKGMRqCeCKlwBUKuAfA4PwOoQABCAAIQABCAAIQABCAAAAAAAAAAA==

> <PUBCHEM_IUPAC_OPENEYE_NAME>
(6aR,11aR)-2,3-dimethoxy-6a,11a-dihydro-6H-benzofuro[3,2-c]chromen-9-ol

> <PUBCHEM_IUPAC_CAS_NAME>
(6aR,11aR)-2,3-dimethoxy-6a,11a-dihydro-6H-benzofuro[3,2-c][1]benzopyran-9-ol

> <PUBCHEM_IUPAC_NAME>
(6aR,11aR)-2,3-dimethoxy-6a,11a-dihydro-6H-[1]benzofuro[3,2-c]chromen-9-ol

> <PUBCHEM_IUPAC_SYSTEMATIC_NAME>
(6aR,11aR)-2,3-dimethoxy-6a,11a-dihydro-6H-[1]benzofuro[3,2-c]chromen-9-ol

> <PUBCHEM_IUPAC_TRADITIONAL_NAME>
(6aR,11aR)-2,3-dimethoxy-6a,11a-dihydro-6H-benzofuro[3,2-c]chromen-9-ol

> <PUBCHEM_IUPAC_INCHI>
InChI=1S/C17H16O5/c1-19-15-6-11-13(7-16(15)20-2)21-8-12-10-4-3-9(18)5-14(10)22-17(11)12/h3-7,12,17-18H,8H2,1-2H3/t12-,17-/m0/s1

> <PUBCHEM_IUPAC_INCHIKEY>
QXSOYBBYHNOUSH-SJCJKPOMSA-N

> <PUBCHEM_XLOGP3_AA>
2.6

> <PUBCHEM_EXACT_MASS>
300.099774

> <PUBCHEM_MOLECULAR_FORMULA>
C17H16O5

> <PUBCHEM_MOLECULAR_WEIGHT>
300.30594

> <PUBCHEM_OPENEYE_CAN_SMILES>
COC1=C(C=C2C(=C1)C3C(CO2)C4=C(O3)C=C(C=C4)O)OC

> <PUBCHEM_OPENEYE_ISO_SMILES>
COC1=C(C=C2C(=C1)[C@H]3[C@@H](CO2)C4=C(O3)C=C(C=C4)O)OC

> <PUBCHEM_CACTVS_TPSA>
57.2

> <PUBCHEM_MONOISOTOPIC_WEIGHT>
300.099774

> <PUBCHEM_TOTAL_CHARGE>
0

> <PUBCHEM_HEAVY_ATOM_COUNT>
22

> <PUBCHEM_ATOM_DEF_STEREO_COUNT>
2

> <PUBCHEM_ATOM_UDEF_STEREO_COUNT>
0

> <PUBCHEM_BOND_DEF_STEREO_COUNT>
0

> <PUBCHEM_BOND_UDEF_STEREO_COUNT>
0

> <PUBCHEM_ISOTOPIC_ATOM_COUNT>
0

> <PUBCHEM_COMPONENT_COUNT>
1

> <PUBCHEM_CACTVS_TAUTO_COUNT>
3

> <PUBCHEM_COORDINATE_TYPE>
1
5
255

> <PUBCHEM_BONDANNOTATIONS>
10  12  8
10  14  8
11  15  8
12  16  8
13  18  8
14  17  8
15  20  8
16  19  8
17  19  8
18  20  8
6  23  5
7  24  5
8  11  8
8  13  8

$$$$

