586238
  -OEChem-06241222463D

 51 53  0     1  0  0  0  0  0999 V2000
    3.7119    0.6797    1.4114 S   0  0  0  0  0  0  0  0  0  0  0  0
   -4.1409    1.1548   -2.6658 O   0  0  0  0  0  0  0  0  0  0  0  0
    3.7776   -0.0070    2.6874 O   0  0  0  0  0  0  0  0  0  0  0  0
    4.8898    1.3320    0.8723 O   0  0  0  0  0  0  0  0  0  0  0  0
   -2.6708   -3.0802    1.9545 O   0  0  0  0  0  0  0  0  0  0  0  0
   -2.0423    0.3243   -0.9144 N   0  0  0  0  0  0  0  0  0  0  0  0
    2.4280    1.7937    1.4359 N   0  0  0  0  0  0  0  0  0  0  0  0
   -3.1885    0.8720    1.1543 N   0  0  0  0  0  0  0  0  0  0  0  0
   -1.7226   -1.8386   -0.5493 N   0  0  0  0  0  0  0  0  0  0  0  0
   -3.4797   -1.0120    2.6267 N   0  0  0  0  0  0  0  0  0  0  0  0
   -1.9990    1.6235   -1.6059 C   0  0  2  0  0  0  0  0  0  0  0  0
   -1.1965    2.6886   -0.8287 C   0  0  0  0  0  0  0  0  0  0  0  0
    0.2451    2.2547   -0.5338 C   0  0  0  0  0  0  0  0  0  0  0  0
    1.0287    3.3763    0.1563 C   0  0  0  0  0  0  0  0  0  0  0  0
   -3.4123    2.1335   -1.9325 C   0  0  0  0  0  0  0  0  0  0  0  0
    2.4482    2.9637    0.5312 C   0  0  0  0  0  0  0  0  0  0  0  0
   -2.5728    0.0675    0.2826 C   0  0  0  0  0  0  0  0  0  0  0  0
   -1.5351   -0.8408   -1.3969 C   0  0  0  0  0  0  0  0  0  0  0  0
   -2.3750   -1.2663    0.5063 C   0  0  0  0  0  0  0  0  0  0  0  0
   -2.8386   -1.8865    1.7364 C   0  0  0  0  0  0  0  0  0  0  0  0
    3.1633   -0.4803    0.1956 C   0  0  0  0  0  0  0  0  0  0  0  0
   -3.6150    0.2484    2.3110 C   0  0  0  0  0  0  0  0  0  0  0  0
    3.4981   -0.2773   -1.1320 C   0  0  0  0  0  0  0  0  0  0  0  0
    2.4093   -1.5704    0.5940 C   0  0  0  0  0  0  0  0  0  0  0  0
    2.3045   -2.2973   -1.7077 C   0  0  0  0  0  0  0  0  0  0  0  0
    3.0652   -1.1929   -2.0912 C   0  0  0  0  0  0  0  0  0  0  0  0
    1.9765   -2.4861   -0.3650 C   0  0  0  0  0  0  0  0  0  0  0  0
    1.8428   -3.2771   -2.7327 C   0  0  0  0  0  0  0  0  0  0  0  0
   -1.4875    1.4247   -2.5579 H   0  0  0  0  0  0  0  0  0  0  0  0
   -1.1722    3.6092   -1.4262 H   0  0  0  0  0  0  0  0  0  0  0  0
   -1.6950    2.9471    0.1117 H   0  0  0  0  0  0  0  0  0  0  0  0
    0.7484    1.9798   -1.4684 H   0  0  0  0  0  0  0  0  0  0  0  0
    0.2347    1.3650    0.1042 H   0  0  0  0  0  0  0  0  0  0  0  0
    1.0729    4.2534   -0.5000 H   0  0  0  0  0  0  0  0  0  0  0  0
    0.4932    3.6820    1.0641 H   0  0  0  0  0  0  0  0  0  0  0  0
   -3.9823    2.3772   -1.0315 H   0  0  0  0  0  0  0  0  0  0  0  0
   -3.3503    3.0383   -2.5470 H   0  0  0  0  0  0  0  0  0  0  0  0
    2.9501    3.7910    1.0436 H   0  0  0  0  0  0  0  0  0  0  0  0
    3.0080    2.7348   -0.3810 H   0  0  0  0  0  0  0  0  0  0  0  0
   -1.0416   -0.9216   -2.3559 H   0  0  0  0  0  0  0  0  0  0  0  0
    1.8745    1.8944    2.2955 H   0  0  0  0  0  0  0  0  0  0  0  0
   -3.3485    1.8625    1.0105 H   0  0  0  0  0  0  0  0  0  0  0  0
   -5.0165    1.5334   -2.8543 H   0  0  0  0  0  0  0  0  0  0  0  0
   -4.1172    0.9416    3.0043 H   0  0  0  0  0  0  0  0  0  0  0  0
    4.0833    0.5790   -1.4524 H   0  0  0  0  0  0  0  0  0  0  0  0
    2.1366   -1.7291    1.6327 H   0  0  0  0  0  0  0  0  0  0  0  0
    3.3241   -1.0331   -3.1345 H   0  0  0  0  0  0  0  0  0  0  0  0
    1.3801   -3.3400   -0.0546 H   0  0  0  0  0  0  0  0  0  0  0  0
    1.7538   -4.2824   -2.3068 H   0  0  0  0  0  0  0  0  0  0  0  0
    0.8673   -2.9759   -3.1273 H   0  0  0  0  0  0  0  0  0  0  0  0
    2.5528   -3.3434   -3.5642 H   0  0  0  0  0  0  0  0  0  0  0  0
  1  3  2  0  0  0  0
  1  4  2  0  0  0  0
  1  7  1  0  0  0  0
  1 21  1  0  0  0  0
  2 15  1  0  0  0  0
  2 43  1  0  0  0  0
  5 20  2  0  0  0  0
  6 11  1  0  0  0  0
  6 17  1  0  0  0  0
  6 18  1  0  0  0  0
  7 16  1  0  0  0  0
  7 41  1  0  0  0  0
  8 17  1  0  0  0  0
  8 22  1  0  0  0  0
  8 42  1  0  0  0  0
  9 18  2  0  0  0  0
  9 19  1  0  0  0  0
 10 20  1  0  0  0  0
 10 22  2  0  0  0  0
 11 12  1  0  0  0  0
 11 15  1  0  0  0  0
 11 29  1  0  0  0  0
 12 13  1  0  0  0  0
 12 30  1  0  0  0  0
 12 31  1  0  0  0  0
 13 14  1  0  0  0  0
 13 32  1  0  0  0  0
 13 33  1  0  0  0  0
 14 16  1  0  0  0  0
 14 34  1  0  0  0  0
 14 35  1  0  0  0  0
 15 36  1  0  0  0  0
 15 37  1  0  0  0  0
 16 38  1  0  0  0  0
 16 39  1  0  0  0  0
 17 19  2  0  0  0  0
 18 40  1  0  0  0  0
 19 20  1  0  0  0  0
 21 23  2  0  0  0  0
 21 24  1  0  0  0  0
 22 44  1  0  0  0  0
 23 26  1  0  0  0  0
 23 45  1  0  0  0  0
 24 27  2  0  0  0  0
 24 46  1  0  0  0  0
 25 26  2  0  0  0  0
 25 27  1  0  0  0  0
 25 28  1  0  0  0  0
 26 47  1  0  0  0  0
 27 48  1  0  0  0  0
 28 49  1  0  0  0  0
 28 50  1  0  0  0  0
 28 51  1  0  0  0  0
M  END
> <PUBCHEM_COMPOUND_CID>
586238

> <PUBCHEM_CONFORMER_RMSD>
1

> <PUBCHEM_CONFORMER_DIVERSEORDER>
1
31
457
21
217
399
362
311
237
262
43
97
357
249
387
315
171
204
389
404
375
140
102
370
483
384
283
214
123
19
377
454
428
276
438
360
275
40
355
4
226
36
452
423
109
334
461
394
263
202
88
13
288
150
194
46
218
434
124
367
121
148
317
233
346
347
481
242
365
72
281
420
429
401
5
274
14
322
440
165
271
85
169
474
299
45
252
324
405
126
110
383
174
158
136
475
98
157
250
212
186
116
232
436
94
76
435
486
199
74
79
450
326
115
462
224
419
272
198
38
469
235
393
369
142
190
400
82
141
465
268
154
248
264
210
376
342
114
386
42
320
62
84
412
37
96
314
351
246
485
87
68
181
427
104
159
196
321
77
484
83
433
345
460
130
337
256
81
402
328
200
291
135
312
354
464
9
309
466
26
280
414
391
284
277
28
178
343
363
228
477
449
34
390
67
86
430
236
437
6
22
247
166
93
300
44
92
348
445
139
479
105
432
372
260
188
215
50
7
417
3
296
184
441
167
51
307
413
120
381
179
409
131
216
219
333
100
364
208
138
122
53
265
17
70
353
468
211
302
161
99
304
330
73
294
442
172
443
177
170
103
151
378
331
125
266
56
35
206
279
183
48
90
220
339
410
239
205
201
203
253
257
16
316
421
261
119
408
336
223
41
335
458
57
470
213
251
149
285
361
107
325
243
356
418
344
289
192
451
308
187
482
278
8
244
245
447
303
163
467
127
60
164
25
75
112
133
318
385
349
58
270
33
129
292
392
59
301
80
480
471
175
487
368
15
63
106
359
23
398
229
180
225
18
476
380
147
240
108
197
134
448
298
313
89
327
340
156
329
319
282
95
407
287
230
2
259
61
39
258
379
455
424
403
49
117
189
137
222
20
446
444
358
366
472
153
144
254
439
66
227
231
185
10
54
332
416
290
101
113
459
238
160
273
352
195
52
396
69
373
297
415
11
338
473
162
293
267
146
463
168
341
71
27
29
488
24
425
453
305
295
422
397
221
64
207
32
176
395
173
350
12
111
152
426
388
269
286
91
306
310
47
478
234
431
145
78
371
374
182
65
118
143
411
255
191
132
55
456
323
30
155
406
382
128
241
209
193

> <PUBCHEM_MMFF94_PARTIAL_CHARGES>
34
1 1.45
10 -0.66
11 0.26
15 0.28
16 0.36
17 -0.07
18 0.04
19 0.14
2 -0.68
20 0.87
21 -0.01
22 0.44
23 -0.15
24 -0.15
25 -0.14
26 -0.15
27 -0.15
28 0.14
3 -0.65
4 -0.65
40 0.15
41 0.42
42 0.4
43 0.4
44 0.06
45 0.15
46 0.15
47 0.15
48 0.15
5 -0.57
6 0.05
7 -0.91
8 -0.53
9 -0.57

> <PUBCHEM_EFFECTIVE_ROTOR_COUNT>
9

> <PUBCHEM_PHARMACOPHORE_FEATURES>
12
1 10 donor
1 2 acceptor
1 2 donor
1 3 acceptor
1 4 acceptor
1 5 acceptor
1 7 donor
1 8 donor
3 6 9 18 cation
5 6 9 17 18 19 rings
6 21 23 24 25 26 27 rings
6 8 10 17 19 20 22 rings

> <PUBCHEM_HEAVY_ATOM_COUNT>
28

> <PUBCHEM_ATOM_DEF_STEREO_COUNT>
0

> <PUBCHEM_ATOM_UDEF_STEREO_COUNT>
1

> <PUBCHEM_BOND_DEF_STEREO_COUNT>
0

> <PUBCHEM_BOND_UDEF_STEREO_COUNT>
0

> <PUBCHEM_ISOTOPIC_ATOM_COUNT>
0

> <PUBCHEM_COMPONENT_COUNT>
1

> <PUBCHEM_CACTVS_TAUTO_COUNT>
3

> <PUBCHEM_CONFORMER_ID>
0008F1FE00000001

> <PUBCHEM_MMFF94_ENERGY>
43.1337

> <PUBCHEM_FEATURE_SELFOVERLAP>
61.066

> <PUBCHEM_SHAPE_FINGERPRINT>
10675989 125 17405175279022025260
12422481 6 18040726896321877538
12553582 1 18335979865434265796
12633257 1 18271801276904341315
12714826 92 17845636140888549701
13402501 40 18338535121782821764
1361 2 17970372440830364765
13726171 33 18058146428465012092
14114207 22 6407668246360045236
14251757 17 18048910608042686741
14468879 13 18337408126558845143
15635459 17 18189351206693786708
15664445 248 16340298997727959885
17974551 9 17389355389308015848
19930381 70 17899438633401231373
21285901 2 18123777466684198764
35225 105 17052134137971259931
3797600 57 17630868444641321246
445580 2 17755844656824024185
6287921 2 17826210931390159574

> <PUBCHEM_SHAPE_MULTIPOLES>
531.69
8.25
4
2.88
0.69
0.35
0.19
0.22
2.07
1.43
-0.97
-1.61
-0.92
3.99

> <PUBCHEM_SHAPE_SELFOVERLAP>
1112.936

> <PUBCHEM_SHAPE_VOLUME>
301.6

> <PUBCHEM_COORDINATE_TYPE>
2
5
10

$$$$

