579061
  -OEChem-07051213153D

 23 23  0     0  0  0  0  0  0999 V2000
   -0.5698   -2.1707   -0.5627 O   0  0  0  0  0  0  0  0  0  0  0  0
   -5.1024    0.0637    0.6790 O   0  0  0  0  0  0  0  0  0  0  0  0
   -3.7484    1.7050   -0.1178 O   0  0  0  0  0  0  0  0  0  0  0  0
    4.7200    0.9265    0.4063 O   0  0  0  0  0  0  0  0  0  0  0  0
    3.1504   -0.7601    0.5914 N   0  0  0  0  0  0  0  0  0  0  0  0
   -1.5369    0.0479   -0.3686 C   0  0  0  0  0  0  0  0  0  0  0  0
   -2.8509   -0.5222    0.1513 C   0  0  0  0  0  0  0  0  0  0  0  0
   -0.4077   -0.9660   -0.3942 C   0  0  0  0  0  0  0  0  0  0  0  0
    0.9546   -0.4324   -0.1936 C   0  0  0  0  0  0  0  0  0  0  0  0
    1.8711   -1.2176    0.3860 C   0  0  0  0  0  0  0  0  0  0  0  0
    1.3095    0.9033   -0.6066 C   0  0  0  0  0  0  0  0  0  0  0  0
    2.5500    1.3746   -0.4186 C   0  0  0  0  0  0  0  0  0  0  0  0
   -3.9190    0.5410    0.2207 C   0  0  0  0  0  0  0  0  0  0  0  0
    3.5794    0.5071    0.2274 C   0  0  0  0  0  0  0  0  0  0  0  0
   -1.2546    0.8884    0.2769 H   0  0  0  0  0  0  0  0  0  0  0  0
   -1.6678    0.4320   -1.3873 H   0  0  0  0  0  0  0  0  0  0  0  0
   -2.7072   -0.9365    1.1553 H   0  0  0  0  0  0  0  0  0  0  0  0
   -3.2008   -1.3220   -0.5106 H   0  0  0  0  0  0  0  0  0  0  0  0
    1.6824   -2.2283    0.7268 H   0  0  0  0  0  0  0  0  0  0  0  0
    0.5751    1.5321   -1.0970 H   0  0  0  0  0  0  0  0  0  0  0  0
    3.8098   -1.3924    1.0357 H   0  0  0  0  0  0  0  0  0  0  0  0
    2.8387    2.3712   -0.7300 H   0  0  0  0  0  0  0  0  0  0  0  0
   -5.7914    0.7613    0.7099 H   0  0  0  0  0  0  0  0  0  0  0  0
  1  8  2  0  0  0  0
  2 13  1  0  0  0  0
  2 23  1  0  0  0  0
  3 13  2  0  0  0  0
  4 14  2  0  0  0  0
  5 10  1  0  0  0  0
  5 14  1  0  0  0  0
  5 21  1  0  0  0  0
  6  7  1  0  0  0  0
  6  8  1  0  0  0  0
  6 15  1  0  0  0  0
  6 16  1  0  0  0  0
  7 13  1  0  0  0  0
  7 17  1  0  0  0  0
  7 18  1  0  0  0  0
  8  9  1  0  0  0  0
  9 10  2  0  0  0  0
  9 11  1  0  0  0  0
 10 19  1  0  0  0  0
 11 12  2  0  0  0  0
 11 20  1  0  0  0  0
 12 14  1  0  0  0  0
 12 22  1  0  0  0  0
M  END
> <PUBCHEM_COMPOUND_CID>
579061

> <PUBCHEM_CONFORMER_RMSD>
0.6

> <PUBCHEM_CONFORMER_DIVERSEORDER>
1
35
24
27
56
4
66
28
61
58
16
63
41
60
54
5
45
53
51
6
12
23
50
64
62
36
47
48
59
2
14
18
32
43
13
22
31
40
52
29
38
15
55
21
44
17
20
65
3
25
10
26
8
37
49
39
42
30
33
11
57
9
7
46
19
34

> <PUBCHEM_MMFF94_PARTIAL_CHARGES>
19
1 -0.57
10 -0.04
11 -0.15
12 -0.14
13 0.66
14 0.62
19 0.15
2 -0.65
20 0.15
21 0.37
22 0.15
23 0.5
3 -0.57
4 -0.57
5 -0.54
6 0.06
7 0.06
8 0.49
9 0.01

> <PUBCHEM_EFFECTIVE_ROTOR_COUNT>
4

> <PUBCHEM_PHARMACOPHORE_FEATURES>
7
1 1 acceptor
1 2 acceptor
1 3 acceptor
1 4 acceptor
1 5 donor
3 2 3 13 anion
6 5 9 10 11 12 14 rings

> <PUBCHEM_HEAVY_ATOM_COUNT>
14

> <PUBCHEM_ATOM_DEF_STEREO_COUNT>
0

> <PUBCHEM_ATOM_UDEF_STEREO_COUNT>
0

> <PUBCHEM_BOND_DEF_STEREO_COUNT>
0

> <PUBCHEM_BOND_UDEF_STEREO_COUNT>
0

> <PUBCHEM_ISOTOPIC_ATOM_COUNT>
0

> <PUBCHEM_COMPONENT_COUNT>
1

> <PUBCHEM_CACTVS_TAUTO_COUNT>
9

> <PUBCHEM_CONFORMER_ID>
0008D5F500000001

> <PUBCHEM_MMFF94_ENERGY>
27.011

> <PUBCHEM_FEATURE_SELFOVERLAP>
35.578

> <PUBCHEM_SHAPE_FINGERPRINT>
10354089 29 18343016683668972864
10465860 228 18189328151119170899
10980938 120 18343586252441310302
12251169 10 18202843240805434487
12500047 106 17822580400103955798
14252887 29 13542466488124157256
14897335 6 18334577923309633166
15775835 57 18407760317753071929
17844478 74 16988574514896593142
18186145 218 17968083257383879407
20233049 118 18113902654255198120
21119208 17 6411296827762172369
21524375 3 18335138674593207303
21713013 43 6843915049636280857
22485316 2 10303805471789730523
23402539 116 17676212350919525764
23557571 272 16371008438937489303
351380 180 18273496775933186945
4047638 21 18113614573750303792
42 15 17775283876363133313
4921388 177 15068634751479411549
6430166 295 18409731750865818668

> <PUBCHEM_SHAPE_MULTIPOLES>
259.66
8.81
1.58
0.75
4.87
0.22
-0.02
-3.38
2.32
-0.07
-0.19
-0.04
0.03
-0.24

> <PUBCHEM_SHAPE_SELFOVERLAP>
535.911

> <PUBCHEM_SHAPE_VOLUME>
147.5

> <PUBCHEM_COORDINATE_TYPE>
2
5
10

$$$$

