5280883
  -OEChem-07051212512D

 58 59  0     1  0  0  0  0  0999 V2000
    1.7992    2.1823    0.0000 O   0  0  0  0  0  0  0  0  0  0  0  0
    2.0580    1.2164    0.0000 O   0  0  0  0  0  0  0  0  0  0  0  0
    6.3985   -1.9226    0.0000 O   0  0  0  0  0  0  0  0  0  0  0  0
    6.6573   -2.8885    0.0000 O   0  0  0  0  0  0  0  0  0  0  0  0
   12.3659    1.7211    0.0000 O   0  0  0  0  0  0  0  0  0  0  0  0
   11.9176    3.3942    0.0000 O   0  0  0  0  0  0  0  0  0  0  0  0
    6.1220    1.8412    0.0000 C   0  0  2  0  0  0  0  0  0  0  0  0
    5.6220    0.9752    0.0000 C   0  0  2  0  0  0  0  0  0  0  0  0
    3.6312    2.9412    0.0000 C   0  0  2  0  0  0  0  0  0  0  0  0
    3.8900    1.9752    0.0000 C   0  0  1  0  0  0  0  0  0  0  0  0
    4.3678    3.9238    0.0000 C   0  0  0  0  0  0  0  0  0  0  0  0
    7.0880    2.1001    0.0000 C   0  0  0  0  0  0  0  0  0  0  0  0
    5.8809    0.0093    0.0000 C   0  0  0  0  0  0  0  0  0  0  0  0
    7.3468    3.0660    0.0000 C   0  0  0  0  0  0  0  0  0  0  0  0
    6.8468   -0.2495    0.0000 C   0  0  0  0  0  0  0  0  0  0  0  0
    7.1056   -1.2154    0.0000 C   0  0  2  0  0  0  0  0  0  0  0  0
    8.3127    3.3248    0.0000 C   0  0  0  0  0  0  0  0  0  0  0  0
    8.0715   -1.4743    0.0000 C   0  0  0  0  0  0  0  0  0  0  0  0
    9.0198    2.6177    0.0000 C   0  0  0  0  0  0  0  0  0  0  0  0
    8.3304   -2.4402    0.0000 C   0  0  0  0  0  0  0  0  0  0  0  0
    9.2963   -2.6990    0.0000 C   0  0  0  0  0  0  0  0  0  0  0  0
    9.9858    2.8765    0.0000 C   0  0  0  0  0  0  0  0  0  0  0  0
    9.5551   -3.6649    0.0000 C   0  0  0  0  0  0  0  0  0  0  0  0
   10.6929    2.1694    0.0000 C   0  0  0  0  0  0  0  0  0  0  0  0
   10.5210   -3.9238    0.0000 C   0  0  0  0  0  0  0  0  0  0  0  0
   11.6588    2.4282    0.0000 C   0  0  0  0  0  0  0  0  0  0  0  0
    6.1697    2.4594    0.0000 H   0  0  0  0  0  0  0  0  0  0  0  0
    5.1302    0.5978    0.0000 H   0  0  0  0  0  0  0  0  0  0  0  0
    3.4112    3.7622    0.0000 H   0  0  0  0  0  0  0  0  0  0  0  0
    4.1100    1.1542    0.0000 H   0  0  0  0  0  0  0  0  0  0  0  0
    4.0500    4.4561    0.0000 H   0  0  0  0  0  0  0  0  0  0  0  0
    4.9809    4.0157    0.0000 H   0  0  0  0  0  0  0  0  0  0  0  0
    7.7056    2.0460    0.0000 H   0  0  0  0  0  0  0  0  0  0  0  0
    7.1420    1.4824    0.0000 H   0  0  0  0  0  0  0  0  0  0  0  0
    5.4425   -0.4291    0.0000 H   0  0  0  0  0  0  0  0  0  0  0  0
    6.9084    3.5044    0.0000 H   0  0  0  0  0  0  0  0  0  0  0  0
    7.2852    0.1889    0.0000 H   0  0  0  0  0  0  0  0  0  0  0  0
    6.5067   -1.0550    0.0000 H   0  0  0  0  0  0  0  0  0  0  0  0
    8.4732    3.9237    0.0000 H   0  0  0  0  0  0  0  0  0  0  0  0
    8.1256   -0.8566    0.0000 H   0  0  0  0  0  0  0  0  0  0  0  0
    8.6892   -1.4202    0.0000 H   0  0  0  0  0  0  0  0  0  0  0  0
    9.2818    2.0558    0.0000 H   0  0  0  0  0  0  0  0  0  0  0  0
    8.5120    2.2621    0.0000 H   0  0  0  0  0  0  0  0  0  0  0  0
    8.2763   -3.0578    0.0000 H   0  0  0  0  0  0  0  0  0  0  0  0
    7.7127   -2.4942    0.0000 H   0  0  0  0  0  0  0  0  0  0  0  0
    9.3503   -2.0814    0.0000 H   0  0  0  0  0  0  0  0  0  0  0  0
    9.9139   -2.6450    0.0000 H   0  0  0  0  0  0  0  0  0  0  0  0
    9.7237    3.4384    0.0000 H   0  0  0  0  0  0  0  0  0  0  0  0
   10.4936    3.2321    0.0000 H   0  0  0  0  0  0  0  0  0  0  0  0
    9.5011   -4.2826    0.0000 H   0  0  0  0  0  0  0  0  0  0  0  0
    8.9375   -3.7190    0.0000 H   0  0  0  0  0  0  0  0  0  0  0  0
   10.9549    1.6075    0.0000 H   0  0  0  0  0  0  0  0  0  0  0  0
   10.1850    1.8138    0.0000 H   0  0  0  0  0  0  0  0  0  0  0  0
    6.2189   -3.3269    0.0000 H   0  0  0  0  0  0  0  0  0  0  0  0
   10.6815   -3.3249    0.0000 H   0  0  0  0  0  0  0  0  0  0  0  0
   11.1199   -4.0842    0.0000 H   0  0  0  0  0  0  0  0  0  0  0  0
   10.3606   -4.5226    0.0000 H   0  0  0  0  0  0  0  0  0  0  0  0
   12.9648    1.8816    0.0000 H   0  0  0  0  0  0  0  0  0  0  0  0
  1  2  1  0  0  0  0
  1  9  1  0  0  0  0
  2 10  1  0  0  0  0
  3  4  1  0  0  0  0
 16  3  1  6  0  0  0
  4 54  1  0  0  0  0
  5 26  1  0  0  0  0
  5 58  1  0  0  0  0
  6 26  2  0  0  0  0
  7  8  1  0  0  0  0
  7  9  1  0  0  0  0
  7 12  1  6  0  0  0
  7 27  1  0  0  0  0
  8 10  1  0  0  0  0
  8 13  1  1  0  0  0
  8 28  1  0  0  0  0
  9 11  1  0  0  0  0
  9 29  1  6  0  0  0
 10 11  1  0  0  0  0
 10 30  1  1  0  0  0
 11 31  1  0  0  0  0
 11 32  1  0  0  0  0
 12 14  1  0  0  0  0
 12 33  1  0  0  0  0
 12 34  1  0  0  0  0
 13 15  2  0  0  0  0
 13 35  1  0  0  0  0
 14 17  2  0  0  0  0
 14 36  1  0  0  0  0
 15 16  1  0  0  0  0
 15 37  1  0  0  0  0
 16 18  1  0  0  0  0
 16 38  1  0  0  0  0
 17 19  1  0  0  0  0
 17 39  1  0  0  0  0
 18 20  1  0  0  0  0
 18 40  1  0  0  0  0
 18 41  1  0  0  0  0
 19 22  1  0  0  0  0
 19 42  1  0  0  0  0
 19 43  1  0  0  0  0
 20 21  1  0  0  0  0
 20 44  1  0  0  0  0
 20 45  1  0  0  0  0
 21 23  1  0  0  0  0
 21 46  1  0  0  0  0
 21 47  1  0  0  0  0
 22 24  1  0  0  0  0
 22 48  1  0  0  0  0
 22 49  1  0  0  0  0
 23 25  1  0  0  0  0
 23 50  1  0  0  0  0
 23 51  1  0  0  0  0
 24 26  1  0  0  0  0
 24 52  1  0  0  0  0
 24 53  1  0  0  0  0
 25 55  1  0  0  0  0
 25 56  1  0  0  0  0
 25 57  1  0  0  0  0
M  END
> <PUBCHEM_COMPOUND_CID>
5280883

> <PUBCHEM_COMPOUND_CANONICALIZED>
1

> <PUBCHEM_CACTVS_COMPLEXITY>
475

> <PUBCHEM_CACTVS_HBOND_ACCEPTOR>
6

> <PUBCHEM_CACTVS_HBOND_DONOR>
2

> <PUBCHEM_CACTVS_ROTATABLE_BOND>
13

> <PUBCHEM_CACTVS_SUBSKEYS>
AAADcfB4OAAAAAAAAAAAAAAAAAAAAaIAAAAkAAAAAAAAAAAAAAAAGgAADAAADRSggAICCAAAAgCIACDSCAAAAAAgAAAICAEAAAgABBIAAQAAUAAFwAAIAAPIwKAOgAAAAAAAAAAAAAAAAAAAAIQADAAAAA==

> <PUBCHEM_IUPAC_OPENEYE_NAME>
(Z)-7-[(1S,4R,5R,6R)-5-[(E,3S)-3-hydroperoxyoct-1-enyl]-2,3-dioxabicyclo[2.2.1]heptan-6-yl]hept-5-enoic acid

> <PUBCHEM_IUPAC_CAS_NAME>
(Z)-7-[(1S,4R,5R,6R)-5-[(E,3S)-3-hydroperoxyoct-1-enyl]-2,3-dioxabicyclo[2.2.1]heptan-6-yl]-5-heptenoic acid

> <PUBCHEM_IUPAC_NAME>
(Z)-7-[(1S,4R,5R,6R)-5-[(E,3S)-3-hydroperoxyoct-1-enyl]-2,3-dioxabicyclo[2.2.1]heptan-6-yl]hept-5-enoic acid

> <PUBCHEM_IUPAC_SYSTEMATIC_NAME>
(Z)-7-[(1S,4R,5R,6R)-5-[(E,3S)-3-(dioxidanyl)oct-1-enyl]-2,3-dioxabicyclo[2.2.1]heptan-6-yl]hept-5-enoic acid

> <PUBCHEM_IUPAC_TRADITIONAL_NAME>
(Z)-7-[(1S,4R,5R,6R)-5-[(E,3S)-3-hydroperoxyoct-1-enyl]-2,3-dioxabicyclo[2.2.1]heptan-6-yl]hept-5-enoic acid

> <PUBCHEM_IUPAC_INCHI>
InChI=1S/C20H32O6/c1-2-3-6-9-15(24-23)12-13-17-16(18-14-19(17)26-25-18)10-7-4-5-8-11-20(21)22/h4,7,12-13,15-19,23H,2-3,5-6,8-11,14H2,1H3,(H,21,22)/b7-4-,13-12+/t15-,16+,17+,18-,19+/m0/s1

> <PUBCHEM_IUPAC_INCHIKEY>
SGUKUZOVHSFKPH-YNNPMVKQSA-N

> <PUBCHEM_XLOGP3_AA>
3.8

> <PUBCHEM_EXACT_MASS>
368.219889

> <PUBCHEM_MOLECULAR_FORMULA>
C20H32O6

> <PUBCHEM_MOLECULAR_WEIGHT>
368.46448

> <PUBCHEM_OPENEYE_CAN_SMILES>
CCCCCC(C=CC1C2CC(C1CC=CCCCC(=O)O)OO2)OO

> <PUBCHEM_OPENEYE_ISO_SMILES>
CCCCC[C@@H](/C=C/[C@H]1[C@H]2C[C@@H]([C@@H]1C/C=C\CCCC(=O)O)OO2)OO

> <PUBCHEM_CACTVS_TPSA>
85.2

> <PUBCHEM_MONOISOTOPIC_WEIGHT>
368.219889

> <PUBCHEM_TOTAL_CHARGE>
0

> <PUBCHEM_HEAVY_ATOM_COUNT>
26

> <PUBCHEM_ATOM_DEF_STEREO_COUNT>
5

> <PUBCHEM_ATOM_UDEF_STEREO_COUNT>
0

> <PUBCHEM_BOND_DEF_STEREO_COUNT>
2

> <PUBCHEM_BOND_UDEF_STEREO_COUNT>
0

> <PUBCHEM_ISOTOPIC_ATOM_COUNT>
0

> <PUBCHEM_COMPONENT_COUNT>
1

> <PUBCHEM_CACTVS_TAUTO_COUNT>
1

> <PUBCHEM_COORDINATE_TYPE>
1
5
255

> <PUBCHEM_BONDANNOTATIONS>
10  30  5
16  3  6
7  12  6
8  13  5
9  29  6

$$$$

