440921
  -OEChem-07051212513D

 20 20  0     1  0  0  0  0  0999 V2000
   -0.3228    1.1706    0.0596 O   0  0  0  0  0  0  0  0  0  0  0  0
    1.0485   -1.2226    1.6196 O   0  0  0  0  0  0  0  0  0  0  0  0
    0.7001   -0.8430   -1.9460 O   0  0  0  0  0  0  0  0  0  0  0  0
    1.9618    1.4561    0.5243 O   0  0  0  0  0  0  0  0  0  0  0  0
   -3.0469    0.5517    0.0510 O   0  0  0  0  0  0  0  0  0  0  0  0
    0.3179   -1.1032    0.4005 C   0  0  1  0  0  0  0  0  0  0  0  0
   -0.8044   -0.0833    0.5784 C   0  0  2  0  0  0  0  0  0  0  0  0
    1.2018   -0.4858   -0.6643 C   0  0  2  0  0  0  0  0  0  0  0  0
    1.0132    1.0055   -0.4356 C   0  0  1  0  0  0  0  0  0  0  0  0
   -2.0690   -0.4460   -0.1875 C   0  0  0  0  0  0  0  0  0  0  0  0
   -0.0543   -2.0988    0.1404 H   0  0  0  0  0  0  0  0  0  0  0  0
   -1.0436    0.0807    1.6355 H   0  0  0  0  0  0  0  0  0  0  0  0
    2.2473   -0.8015   -0.5879 H   0  0  0  0  0  0  0  0  0  0  0  0
    1.1270    1.5905   -1.3542 H   0  0  0  0  0  0  0  0  0  0  0  0
   -2.4695   -1.4139    0.1291 H   0  0  0  0  0  0  0  0  0  0  0  0
   -1.8934   -0.4728   -1.2669 H   0  0  0  0  0  0  0  0  0  0  0  0
    1.3635   -0.3390    1.8754 H   0  0  0  0  0  0  0  0  0  0  0  0
    1.2496   -0.3924   -2.6098 H   0  0  0  0  0  0  0  0  0  0  0  0
    2.0538    2.4166    0.4054 H   0  0  0  0  0  0  0  0  0  0  0  0
   -3.2410    0.5532    1.0039 H   0  0  0  0  0  0  0  0  0  0  0  0
  1  7  1  0  0  0  0
  1  9  1  0  0  0  0
  2  6  1  0  0  0  0
  2 17  1  0  0  0  0
  3  8  1  0  0  0  0
  3 18  1  0  0  0  0
  4  9  1  0  0  0  0
  4 19  1  0  0  0  0
  5 10  1  0  0  0  0
  5 20  1  0  0  0  0
  6  7  1  0  0  0  0
  6  8  1  0  0  0  0
  6 11  1  0  0  0  0
  7 10  1  0  0  0  0
  7 12  1  0  0  0  0
  8  9  1  0  0  0  0
  8 13  1  0  0  0  0
  9 14  1  0  0  0  0
 10 15  1  0  0  0  0
 10 16  1  0  0  0  0
M  END
> <PUBCHEM_COMPOUND_CID>
440921

> <PUBCHEM_CONFORMER_RMSD>
0.4

> <PUBCHEM_CONFORMER_DIVERSEORDER>
1
4
8
5
7
3
2
6

> <PUBCHEM_MMFF94_PARTIAL_CHARGES>
14
1 -0.56
10 0.28
17 0.4
18 0.4
19 0.4
2 -0.68
20 0.4
3 -0.68
4 -0.68
5 -0.68
6 0.28
7 0.28
8 0.28
9 0.56

> <PUBCHEM_EFFECTIVE_ROTOR_COUNT>
2

> <PUBCHEM_PHARMACOPHORE_FEATURES>
10
1 1 acceptor
1 2 acceptor
1 2 donor
1 3 acceptor
1 3 donor
1 4 acceptor
1 4 donor
1 5 acceptor
1 5 donor
5 1 6 7 8 9 rings

> <PUBCHEM_HEAVY_ATOM_COUNT>
10

> <PUBCHEM_ATOM_DEF_STEREO_COUNT>
3

> <PUBCHEM_ATOM_UDEF_STEREO_COUNT>
1

> <PUBCHEM_BOND_DEF_STEREO_COUNT>
0

> <PUBCHEM_BOND_UDEF_STEREO_COUNT>
0

> <PUBCHEM_ISOTOPIC_ATOM_COUNT>
0

> <PUBCHEM_COMPONENT_COUNT>
1

> <PUBCHEM_CACTVS_TAUTO_COUNT>
1

> <PUBCHEM_CONFORMER_ID>
0006BA5900000001

> <PUBCHEM_MMFF94_ENERGY>
22.1024

> <PUBCHEM_FEATURE_SELFOVERLAP>
50.792

> <PUBCHEM_SHAPE_FINGERPRINT>
12423570 1 13226047275072402686
13024252 1 17121443649062319288
137420 1 14685329647195769090
16945 1 18192991517662318272
21040471 1 17916292853669387955
23211744 41 18121777236115885745
29004967 10 17749935739448979895
5084963 1 18122898733533498360
5943 1 10618194852963774318

> <PUBCHEM_SHAPE_MULTIPOLES>
176.45
2.68
1.38
1.25
2.26
0.04
0.4
0.71
-0.09
-0.51
-0.33
-0.55
-0.41
0.03

> <PUBCHEM_SHAPE_SELFOVERLAP>
352.118

> <PUBCHEM_SHAPE_VOLUME>
104.2

> <PUBCHEM_COORDINATE_TYPE>
2
5
10

$$$$

