17396247
  -OEChem-06241222553D

 33 34  0     0  0  0  0  0  0999 V2000
   -6.5607   -1.8735    0.7418 Br  0  0  0  0  0  0  0  0  0  0  0  0
   -0.5561    1.7801   -0.5581 O   0  0  0  0  0  0  0  0  0  0  0  0
    6.0448   -0.8646    0.1483 O   0  0  0  0  0  0  0  0  0  0  0  0
   -1.5863   -0.2595   -0.0249 N   0  0  0  0  0  0  0  0  0  0  0  0
    4.3533    0.7650    0.3194 N   0  0  0  0  0  0  0  0  0  0  0  0
    0.8131   -0.0815   -0.2919 C   0  0  0  0  0  0  0  0  0  0  0  0
    3.2067    0.0302    0.0159 C   0  0  0  0  0  0  0  0  0  0  0  0
    1.9590    0.6537    0.0110 C   0  0  0  0  0  0  0  0  0  0  0  0
   -0.4880    0.5679   -0.2978 C   0  0  0  0  0  0  0  0  0  0  0  0
    0.9149   -1.4403   -0.5903 C   0  0  0  0  0  0  0  0  0  0  0  0
   -2.9603    0.0830    0.0141 C   0  0  0  0  0  0  0  0  0  0  0  0
    3.3085   -1.3286   -0.2825 C   0  0  0  0  0  0  0  0  0  0  0  0
    2.1626   -2.0639   -0.5857 C   0  0  0  0  0  0  0  0  0  0  0  0
   -3.9143   -0.8914    0.3074 C   0  0  0  0  0  0  0  0  0  0  0  0
   -3.3591    1.3951   -0.2406 C   0  0  0  0  0  0  0  0  0  0  0  0
   -5.2671   -0.5536    0.3461 C   0  0  0  0  0  0  0  0  0  0  0  0
   -4.7119    1.7330   -0.2020 C   0  0  0  0  0  0  0  0  0  0  0  0
   -5.6658    0.7585    0.0914 C   0  0  0  0  0  0  0  0  0  0  0  0
    5.6477    0.2726    0.3600 C   0  0  0  0  0  0  0  0  0  0  0  0
    6.6590    1.3179    0.7184 C   0  0  0  0  0  0  0  0  0  0  0  0
    1.8866    1.7126    0.2498 H   0  0  0  0  0  0  0  0  0  0  0  0
    0.0577   -2.0454   -0.8702 H   0  0  0  0  0  0  0  0  0  0  0  0
    4.2297   -1.8915   -0.3049 H   0  0  0  0  0  0  0  0  0  0  0  0
   -1.4082   -1.2305    0.2166 H   0  0  0  0  0  0  0  0  0  0  0  0
    2.2419   -3.1201   -0.8270 H   0  0  0  0  0  0  0  0  0  0  0  0
    4.2126    1.7502    0.5305 H   0  0  0  0  0  0  0  0  0  0  0  0
   -3.6007   -1.9142    0.5052 H   0  0  0  0  0  0  0  0  0  0  0  0
   -2.6815    2.2037   -0.4746 H   0  0  0  0  0  0  0  0  0  0  0  0
   -5.0237    2.7545   -0.4003 H   0  0  0  0  0  0  0  0  0  0  0  0
   -6.7159    1.0383    0.1173 H   0  0  0  0  0  0  0  0  0  0  0  0
    6.6025    1.5251    1.7906 H   0  0  0  0  0  0  0  0  0  0  0  0
    6.4699    2.2403    0.1614 H   0  0  0  0  0  0  0  0  0  0  0  0
    7.6656    0.9671    0.4732 H   0  0  0  0  0  0  0  0  0  0  0  0
  1 16  1  0  0  0  0
  2  9  2  0  0  0  0
  3 19  2  0  0  0  0
  4  9  1  0  0  0  0
  4 11  1  0  0  0  0
  4 24  1  0  0  0  0
  5  7  1  0  0  0  0
  5 19  1  0  0  0  0
  5 26  1  0  0  0  0
  6  8  2  0  0  0  0
  6  9  1  0  0  0  0
  6 10  1  0  0  0  0
  7  8  1  0  0  0  0
  7 12  2  0  0  0  0
  8 21  1  0  0  0  0
 10 13  2  0  0  0  0
 10 22  1  0  0  0  0
 11 14  2  0  0  0  0
 11 15  1  0  0  0  0
 12 13  1  0  0  0  0
 12 23  1  0  0  0  0
 13 25  1  0  0  0  0
 14 16  1  0  0  0  0
 14 27  1  0  0  0  0
 15 17  2  0  0  0  0
 15 28  1  0  0  0  0
 16 18  2  0  0  0  0
 17 18  1  0  0  0  0
 17 29  1  0  0  0  0
 18 30  1  0  0  0  0
 19 20  1  0  0  0  0
 20 31  1  0  0  0  0
 20 32  1  0  0  0  0
 20 33  1  0  0  0  0
M  END
> <PUBCHEM_COMPOUND_CID>
17396247

> <PUBCHEM_CONFORMER_RMSD>
0.8

> <PUBCHEM_CONFORMER_DIVERSEORDER>
2
17
19
11
3
23
12
9
20
21
14
7
5
15
6
18
13
4
10
16
1
22
8

> <PUBCHEM_MMFF94_PARTIAL_CHARGES>
30
1 -0.11
10 -0.15
11 0.12
12 -0.15
13 -0.15
14 -0.15
15 -0.15
16 0.11
17 -0.15
18 -0.15
19 0.57
2 -0.57
20 0.06
21 0.15
22 0.15
23 0.15
24 0.37
25 0.15
26 0.37
27 0.15
28 0.15
29 0.15
3 -0.57
30 0.15
4 -0.55
5 -0.55
6 0.09
7 0.12
8 -0.15
9 0.54

> <PUBCHEM_EFFECTIVE_ROTOR_COUNT>
5

> <PUBCHEM_PHARMACOPHORE_FEATURES>
7
1 1 hydrophobe
1 2 acceptor
1 3 acceptor
1 4 donor
1 5 donor
6 11 14 15 16 17 18 rings
6 6 7 8 10 12 13 rings

> <PUBCHEM_HEAVY_ATOM_COUNT>
20

> <PUBCHEM_ATOM_DEF_STEREO_COUNT>
0

> <PUBCHEM_ATOM_UDEF_STEREO_COUNT>
0

> <PUBCHEM_BOND_DEF_STEREO_COUNT>
0

> <PUBCHEM_BOND_UDEF_STEREO_COUNT>
0

> <PUBCHEM_ISOTOPIC_ATOM_COUNT>
0

> <PUBCHEM_COMPONENT_COUNT>
1

> <PUBCHEM_CACTVS_TAUTO_COUNT>
4

> <PUBCHEM_CONFORMER_ID>
0109721700000002

> <PUBCHEM_MMFF94_ENERGY>
64.4182

> <PUBCHEM_FEATURE_SELFOVERLAP>
35.52

> <PUBCHEM_SHAPE_FINGERPRINT>
10 15 18339367370981563328
106641 1 18342178809096736992
10835480 77 18337960094677022901
11315181 36 18131912642323747133
12107183 9 17470723776869764737
12516196 113 18334293167151988097
12596602 18 18272092720536926304
12730499 353 18040149626646959966
13073987 5 18341047514721597947
13288520 33 18272651234664777889
13533116 47 4678547832668700836
13668630 136 14405182872157595849
13899415 154 17603863373827013232
1420 363 18410289216066855710
14251732 16 18411700963116184266
14251752 14 7781526905773142434
14341114 176 18260823817305628195
14849402 71 18115867391224371464
15183329 4 9079127656410608764
15196674 1 18410854408288741103
15788980 27 13038901123148246483
19489759 90 17703790327875101825
20645477 70 18042685177047427431
20735858 18 18409451362842875146
21054139 6 17489588931244614979
21130935 74 18411136969734312322
21267235 1 18411692180103463503
21315763 129 18343864415845683901
21521721 280 17749670693181028386
21623969 137 18260824903821909207
22079108 93 18114188506225244912
22224240 67 18261959557025029954
23402539 116 17988928876896997373
23559900 14 18338799043132884143
239999 70 18261104223263231334
29717793 49 12967133826129508666
300161 21 18341054103085216413
3009799 131 10592044652925170550
3545911 37 18260829301899743911
4073 2 18272926128950199555
4214541 1 18412260671155442893
42630746 31 18040996276391185414
4325135 7 18260270724887792031
4340502 62 18408885140140432286
474229 33 18409730659801811182
5104073 3 18337949120797692131

> <PUBCHEM_SHAPE_MULTIPOLES>
395.83
17.37
1.91
0.76
3.17
0.27
-0.03
0.31
-4.81
-1.09
0.13
0.01
0.07
1.39

> <PUBCHEM_SHAPE_SELFOVERLAP>
831.155

> <PUBCHEM_SHAPE_VOLUME>
227.6

> <PUBCHEM_COORDINATE_TYPE>
2
5
10

$$$$

