73419
  -OEChem-07051213002D

 77 82  0     1  0  0  0  0  0999 V2000
    5.3079   -2.3476    0.0000 O   0  0  0  0  0  0  0  0  0  0  0  0
    4.6848   -3.1614    0.0000 O   0  0  0  0  0  0  0  0  0  0  0  0
    2.7843   -1.1742    0.0000 N   0  0  0  0  0  0  0  0  0  0  0  0
   11.5747    3.2192    0.0000 N   0  0  0  0  0  0  0  0  0  0  0  0
    6.2347    0.0748    0.0000 C   0  0  1  0  0  0  0  0  0  0  0  0
    7.1007   -0.4252    0.0000 C   0  0  2  0  0  0  0  0  0  0  0  0
    7.9668    0.0748    0.0000 C   0  0  1  0  0  0  0  0  0  0  0  0
    5.4977   -0.5923    0.0000 C   0  0  2  0  0  0  0  0  0  0  0  0
    7.9668    1.0748    0.0000 C   0  0  1  0  0  0  0  0  0  0  0  0
    8.8607    1.6095    0.0000 C   0  0  2  0  0  0  0  0  0  0  0  0
    5.9028   -1.5001    0.0000 C   0  0  1  0  0  0  0  0  0  0  0  0
    6.8915   -1.3970    0.0000 C   0  0  0  0  0  0  0  0  0  0  0  0
    6.2347    1.0748    0.0000 C   0  0  0  0  0  0  0  0  0  0  0  0
    7.1007    1.5748    0.0000 C   0  0  0  0  0  0  0  0  0  0  0  0
    9.7668    1.0956    0.0000 C   0  0  1  0  0  0  0  0  0  0  0  0
    4.4696   -0.4691    0.0000 C   0  0  1  0  0  0  0  0  0  0  0  0
    8.8607   -0.4598    0.0000 C   0  0  0  0  0  0  0  0  0  0  0  0
    9.7668    0.0540    0.0000 C   0  0  0  0  0  0  0  0  0  0  0  0
    5.3687    0.5748    0.0000 C   0  0  0  0  0  0  0  0  0  0  0  0
    3.8552   -1.3026    0.0000 C   0  0  2  0  0  0  0  0  0  0  0  0
    8.8356    2.6942    0.0000 C   0  0  0  0  0  0  0  0  0  0  0  0
    4.2772   -2.2482    0.0000 C   0  0  2  0  0  0  0  0  0  0  0  0
   10.7106    1.6309    0.0000 C   0  0  0  0  0  0  0  0  0  0  0  0
    7.9909    2.1028    0.0000 C   0  0  0  0  0  0  0  0  0  0  0  0
    9.7668    3.2511    0.0000 C   0  0  0  0  0  0  0  0  0  0  0  0
   10.7106    2.7159    0.0000 C   0  0  2  0  0  0  0  0  0  0  0  0
    4.0727    0.4488    0.0000 C   0  0  0  0  0  0  0  0  0  0  0  0
    3.6576   -3.1310    0.0000 C   0  0  0  0  0  0  0  0  0  0  0  0
    2.5840   -3.0274    0.0000 C   0  0  2  0  0  0  0  0  0  0  0  0
    2.1444   -2.0425    0.0000 C   0  0  0  0  0  0  0  0  0  0  0  0
    2.0000   -3.8392    0.0000 C   0  0  0  0  0  0  0  0  0  0  0  0
    7.7878   -0.9257    0.0000 H   0  0  0  0  0  0  0  0  0  0  0  0
    7.9602   -0.7752    0.0000 H   0  0  0  0  0  0  0  0  0  0  0  0
    5.2399    0.2177    0.0000 H   0  0  0  0  0  0  0  0  0  0  0  0
    7.9602    1.9248    0.0000 H   0  0  0  0  0  0  0  0  0  0  0  0
    6.3335   -2.2329    0.0000 H   0  0  0  0  0  0  0  0  0  0  0  0
    6.8906   -2.0170    0.0000 H   0  0  0  0  0  0  0  0  0  0  0  0
    7.5080   -1.4630    0.0000 H   0  0  0  0  0  0  0  0  0  0  0  0
    6.0227    1.6574    0.0000 H   0  0  0  0  0  0  0  0  0  0  0  0
    5.6241    0.9672    0.0000 H   0  0  0  0  0  0  0  0  0  0  0  0
    7.4993    2.0498    0.0000 H   0  0  0  0  0  0  0  0  0  0  0  0
    6.7022    2.0498    0.0000 H   0  0  0  0  0  0  0  0  0  0  0  0
   10.5013    0.6678    0.0000 H   0  0  0  0  0  0  0  0  0  0  0  0
    4.8403    0.0279    0.0000 H   0  0  0  0  0  0  0  0  0  0  0  0
    8.4561   -0.9296    0.0000 H   0  0  0  0  0  0  0  0  0  0  0  0
    9.2543   -0.9389    0.0000 H   0  0  0  0  0  0  0  0  0  0  0  0
    9.9758   -0.5297    0.0000 H   0  0  0  0  0  0  0  0  0  0  0  0
   10.3776    0.1601    0.0000 H   0  0  0  0  0  0  0  0  0  0  0  0
    5.6787    1.1118    0.0000 H   0  0  0  0  0  0  0  0  0  0  0  0
    4.8318    0.8848    0.0000 H   0  0  0  0  0  0  0  0  0  0  0  0
    5.0587    0.0379    0.0000 H   0  0  0  0  0  0  0  0  0  0  0  0
    3.5178   -0.5224    0.0000 H   0  0  0  0  0  0  0  0  0  0  0  0
    8.6131    3.2729    0.0000 H   0  0  0  0  0  0  0  0  0  0  0  0
    8.2274    2.5740    0.0000 H   0  0  0  0  0  0  0  0  0  0  0  0
   10.9196    1.0472    0.0000 H   0  0  0  0  0  0  0  0  0  0  0  0
   11.3214    1.7370    0.0000 H   0  0  0  0  0  0  0  0  0  0  0  0
    8.2967    2.6421    0.0000 H   0  0  0  0  0  0  0  0  0  0  0  0
    7.4516    2.4086    0.0000 H   0  0  0  0  0  0  0  0  0  0  0  0
    7.6850    1.5635    0.0000 H   0  0  0  0  0  0  0  0  0  0  0  0
   10.1604    3.7301    0.0000 H   0  0  0  0  0  0  0  0  0  0  0  0
    9.3622    3.7209    0.0000 H   0  0  0  0  0  0  0  0  0  0  0  0
   10.7070    3.3358    0.0000 H   0  0  0  0  0  0  0  0  0  0  0  0
    4.6417    0.6949    0.0000 H   0  0  0  0  0  0  0  0  0  0  0  0
    3.8266    1.0178    0.0000 H   0  0  0  0  0  0  0  0  0  0  0  0
    3.5036    0.2027    0.0000 H   0  0  0  0  0  0  0  0  0  0  0  0
    3.4933   -3.7288    0.0000 H   0  0  0  0  0  0  0  0  0  0  0  0
    4.2185   -3.3951    0.0000 H   0  0  0  0  0  0  0  0  0  0  0  0
    2.5382   -0.6052    0.0000 H   0  0  0  0  0  0  0  0  0  0  0  0
    1.9672   -2.9643    0.0000 H   0  0  0  0  0  0  0  0  0  0  0  0
    1.7156   -1.5946    0.0000 H   0  0  0  0  0  0  0  0  0  0  0  0
    1.6298   -2.3883    0.0000 H   0  0  0  0  0  0  0  0  0  0  0  0
    4.3208   -3.6633    0.0000 H   0  0  0  0  0  0  0  0  0  0  0  0
   11.5723    3.8392    0.0000 H   0  0  0  0  0  0  0  0  0  0  0  0
   12.1128    2.9113    0.0000 H   0  0  0  0  0  0  0  0  0  0  0  0
    1.4967   -3.4771    0.0000 H   0  0  0  0  0  0  0  0  0  0  0  0
    1.6379   -4.3425    0.0000 H   0  0  0  0  0  0  0  0  0  0  0  0
    2.5033   -4.2012    0.0000 H   0  0  0  0  0  0  0  0  0  0  0  0
  1 11  1  0  0  0  0
  1 22  1  0  0  0  0
 22  2  1  6  0  0  0
  2 72  1  0  0  0  0
  3 20  1  0  0  0  0
  3 30  1  0  0  0  0
  3 68  1  0  0  0  0
 26  4  1  6  0  0  0
  4 73  1  0  0  0  0
  4 74  1  0  0  0  0
  5  6  1  0  0  0  0
  5  8  1  0  0  0  0
  5 13  1  0  0  0  0
  5 19  1  6  0  0  0
  6  7  1  0  0  0  0
  6 12  1  0  0  0  0
  6 32  1  1  0  0  0
  7  9  1  0  0  0  0
  7 17  1  0  0  0  0
  7 33  1  6  0  0  0
  8 11  1  0  0  0  0
  8 16  1  0  0  0  0
  8 34  1  1  0  0  0
  9 10  1  0  0  0  0
  9 14  1  0  0  0  0
  9 35  1  1  0  0  0
 10 15  1  0  0  0  0
 10 21  1  0  0  0  0
 10 24  1  6  0  0  0
 11 12  1  0  0  0  0
 11 36  1  6  0  0  0
 12 37  1  0  0  0  0
 12 38  1  0  0  0  0
 13 14  1  0  0  0  0
 13 39  1  0  0  0  0
 13 40  1  0  0  0  0
 14 41  1  0  0  0  0
 14 42  1  0  0  0  0
 15 18  1  0  0  0  0
 15 23  1  0  0  0  0
 15 43  1  1  0  0  0
 16 20  1  0  0  0  0
 16 27  1  1  0  0  0
 16 44  1  0  0  0  0
 17 18  1  0  0  0  0
 17 45  1  0  0  0  0
 17 46  1  0  0  0  0
 18 47  1  0  0  0  0
 18 48  1  0  0  0  0
 19 49  1  0  0  0  0
 19 50  1  0  0  0  0
 19 51  1  0  0  0  0
 20 22  1  0  0  0  0
 20 52  1  1  0  0  0
 21 25  1  0  0  0  0
 21 53  1  0  0  0  0
 21 54  1  0  0  0  0
 22 28  1  0  0  0  0
 23 26  1  0  0  0  0
 23 55  1  0  0  0  0
 23 56  1  0  0  0  0
 24 57  1  0  0  0  0
 24 58  1  0  0  0  0
 24 59  1  0  0  0  0
 25 26  1  0  0  0  0
 25 60  1  0  0  0  0
 25 61  1  0  0  0  0
 26 62  1  0  0  0  0
 27 63  1  0  0  0  0
 27 64  1  0  0  0  0
 27 65  1  0  0  0  0
 28 29  1  0  0  0  0
 28 66  1  0  0  0  0
 28 67  1  0  0  0  0
 29 30  1  0  0  0  0
 29 31  1  1  0  0  0
 29 69  1  0  0  0  0
 30 70  1  0  0  0  0
 30 71  1  0  0  0  0
 31 75  1  0  0  0  0
 31 76  1  0  0  0  0
 31 77  1  0  0  0  0
M  END
> <PUBCHEM_COMPOUND_CID>
73419

> <PUBCHEM_COMPOUND_CANONICALIZED>
1

> <PUBCHEM_CACTVS_COMPLEXITY>
730

> <PUBCHEM_CACTVS_HBOND_ACCEPTOR>
4

> <PUBCHEM_CACTVS_HBOND_DONOR>
3

> <PUBCHEM_CACTVS_ROTATABLE_BOND>
0

> <PUBCHEM_CACTVS_SUBSKEYS>
AAADcfB7MAAAAAAAAAAAAAAAAAAAAYAAAAA8aMECAAAAAGjwAAAAHgAQCAAADzzhgAYCCALABgAAAAAAAAAAAAAAAAAAAIAIAAASAAIAgAAHQAAEEACUAAGw4PQPgAAAAAAAAACQAASAACAAAYAADAAAAA==

> <PUBCHEM_IUPAC_INCHI>
InChI=1S/C27H46N2O2/c1-15-13-27(30)24(29-14-15)16(2)23-22(31-27)12-21-19-6-5-17-11-18(28)7-9-25(17,3)20(19)8-10-26(21,23)4/h15-24,29-30H,5-14,28H2,1-4H3/t15-,16+,17+,18+,19-,20+,21+,22-,23+,24-,25+,26+,27+/m1/s1

> <PUBCHEM_IUPAC_INCHIKEY>
ZPTJKUUQUDRHTL-QAQRTNARSA-N

> <PUBCHEM_XLOGP3_AA>
5

> <PUBCHEM_EXACT_MASS>
430.355929

> <PUBCHEM_MOLECULAR_FORMULA>
C27H46N2O2

> <PUBCHEM_MOLECULAR_WEIGHT>
430.66634

> <PUBCHEM_OPENEYE_CAN_SMILES>
CC1CC2(C(C(C3C(O2)CC4C3(CCC5C4CCC6C5(CCC(C6)N)C)C)C)NC1)O

> <PUBCHEM_OPENEYE_ISO_SMILES>
C[C@@H]1C[C@]2([C@@H]([C@H]([C@H]3[C@H](O2)C[C@@H]4[C@@]3(CC[C@H]5[C@H]4CC[C@@H]6[C@@]5(CC[C@@H](C6)N)C)C)C)NC1)O

> <PUBCHEM_CACTVS_TPSA>
67.5

> <PUBCHEM_MONOISOTOPIC_WEIGHT>
430.355929

> <PUBCHEM_TOTAL_CHARGE>
0

> <PUBCHEM_HEAVY_ATOM_COUNT>
31

> <PUBCHEM_ATOM_DEF_STEREO_COUNT>
13

> <PUBCHEM_ATOM_UDEF_STEREO_COUNT>
0

> <PUBCHEM_BOND_DEF_STEREO_COUNT>
0

> <PUBCHEM_BOND_UDEF_STEREO_COUNT>
0

> <PUBCHEM_ISOTOPIC_ATOM_COUNT>
0

> <PUBCHEM_COMPONENT_COUNT>
1

> <PUBCHEM_CACTVS_TAUTO_COUNT>
1

> <PUBCHEM_COORDINATE_TYPE>
1
5
255

> <PUBCHEM_BONDANNOTATIONS>
10  24  6
11  36  6
15  43  5
16  27  5
22  2  6
20  52  5
29  31  5
26  4  6
5  19  6
6  32  5
7  33  6
8  34  5
9  35  5

$$$$

