442915
  -OEChem-07051213003D

 39 41  0     0  0  0  0  0  0999 V2000
    1.6850   -2.2709    0.2762 O   0  0  0  0  0  0  0  0  0  0  0  0
   -5.3174   -0.1676    0.0227 O   0  0  0  0  0  0  0  0  0  0  0  0
   -1.0326   -2.7912    0.3021 O   0  0  0  0  0  0  0  0  0  0  0  0
    0.1613    1.0951   -0.0466 N   0  0  0  0  0  0  0  0  0  0  0  0
   -1.2323    0.8059   -0.0319 C   0  0  0  0  0  0  0  0  0  0  0  0
    1.0905    0.0472    0.0572 C   0  0  0  0  0  0  0  0  0  0  0  0
   -1.6719   -0.5277    0.0870 C   0  0  0  0  0  0  0  0  0  0  0  0
    0.7555   -1.2574    0.1745 C   0  0  0  0  0  0  0  0  0  0  0  0
   -0.6833   -1.6213    0.1960 C   0  0  0  0  0  0  0  0  0  0  0  0
    2.5179    0.3560    0.0404 C   0  0  0  0  0  0  0  0  0  0  0  0
   -2.2315    1.7948   -0.1314 C   0  0  0  0  0  0  0  0  0  0  0  0
    0.5398    2.5062   -0.1731 C   0  0  0  0  0  0  0  0  0  0  0  0
   -3.0362   -0.8560    0.1057 C   0  0  0  0  0  0  0  0  0  0  0  0
   -3.9942    0.1464    0.0053 C   0  0  0  0  0  0  0  0  0  0  0  0
   -3.5924    1.4705   -0.1131 C   0  0  0  0  0  0  0  0  0  0  0  0
    3.2034    0.3916   -1.1705 C   0  0  0  0  0  0  0  0  0  0  0  0
    3.1840    0.6134    1.2351 C   0  0  0  0  0  0  0  0  0  0  0  0
    4.5666    0.6870   -1.1869 C   0  0  0  0  0  0  0  0  0  0  0  0
    4.5471    0.9090    1.2188 C   0  0  0  0  0  0  0  0  0  0  0  0
    5.2384    0.9457    0.0078 C   0  0  0  0  0  0  0  0  0  0  0  0
    1.5457   -3.1896   -0.7904 C   0  0  0  0  0  0  0  0  0  0  0  0
   -6.2436    0.9130   -0.0849 C   0  0  0  0  0  0  0  0  0  0  0  0
   -1.9793    2.8479   -0.2261 H   0  0  0  0  0  0  0  0  0  0  0  0
    1.6201    2.6753   -0.1792 H   0  0  0  0  0  0  0  0  0  0  0  0
    0.1476    3.0887    0.6687 H   0  0  0  0  0  0  0  0  0  0  0  0
    0.1632    2.9247   -1.1139 H   0  0  0  0  0  0  0  0  0  0  0  0
   -3.3621   -1.8892    0.1978 H   0  0  0  0  0  0  0  0  0  0  0  0
   -4.2810    2.3048   -0.1957 H   0  0  0  0  0  0  0  0  0  0  0  0
    2.6932    0.1929   -2.1098 H   0  0  0  0  0  0  0  0  0  0  0  0
    2.6585    0.5897    2.1867 H   0  0  0  0  0  0  0  0  0  0  0  0
    5.1048    0.7158   -2.1298 H   0  0  0  0  0  0  0  0  0  0  0  0
    5.0702    1.1108    2.1489 H   0  0  0  0  0  0  0  0  0  0  0  0
    6.2997    1.1759   -0.0048 H   0  0  0  0  0  0  0  0  0  0  0  0
    2.5304   -3.6304   -0.9778 H   0  0  0  0  0  0  0  0  0  0  0  0
    1.2170   -2.7200   -1.7257 H   0  0  0  0  0  0  0  0  0  0  0  0
    0.8775   -4.0110   -0.5163 H   0  0  0  0  0  0  0  0  0  0  0  0
   -6.1631    1.5979    0.7660 H   0  0  0  0  0  0  0  0  0  0  0  0
   -7.2493    0.4810   -0.0540 H   0  0  0  0  0  0  0  0  0  0  0  0
   -6.1472    1.4311   -1.0451 H   0  0  0  0  0  0  0  0  0  0  0  0
  1  8  1  0  0  0  0
  1 21  1  0  0  0  0
  2 14  1  0  0  0  0
  2 22  1  0  0  0  0
  3  9  2  0  0  0  0
  4  5  1  0  0  0  0
  4  6  1  0  0  0  0
  4 12  1  0  0  0  0
  5  7  2  0  0  0  0
  5 11  1  0  0  0  0
  6  8  2  0  0  0  0
  6 10  1  0  0  0  0
  7  9  1  0  0  0  0
  7 13  1  0  0  0  0
  8  9  1  0  0  0  0
 10 16  2  0  0  0  0
 10 17  1  0  0  0  0
 11 15  2  0  0  0  0
 11 23  1  0  0  0  0
 12 24  1  0  0  0  0
 12 25  1  0  0  0  0
 12 26  1  0  0  0  0
 13 14  2  0  0  0  0
 13 27  1  0  0  0  0
 14 15  1  0  0  0  0
 15 28  1  0  0  0  0
 16 18  1  0  0  0  0
 16 29  1  0  0  0  0
 17 19  2  0  0  0  0
 17 30  1  0  0  0  0
 18 20  2  0  0  0  0
 18 31  1  0  0  0  0
 19 20  1  0  0  0  0
 19 32  1  0  0  0  0
 20 33  1  0  0  0  0
 21 34  1  0  0  0  0
 21 35  1  0  0  0  0
 21 36  1  0  0  0  0
 22 37  1  0  0  0  0
 22 38  1  0  0  0  0
 22 39  1  0  0  0  0
M  END
> <PUBCHEM_COMPOUND_CID>
442915

> <PUBCHEM_CONFORMER_RMSD>
0.6

> <PUBCHEM_CONFORMER_DIVERSEORDER>
1
2

> <PUBCHEM_MMFF94_PARTIAL_CHARGES>
30
1 -0.36
10 0.03
11 -0.15
12 0.37
13 -0.15
14 0.08
15 -0.15
16 -0.15
17 -0.15
18 -0.15
19 -0.15
2 -0.36
20 -0.15
21 0.28
22 0.28
23 0.15
27 0.15
28 0.15
29 0.15
3 -0.57
30 0.15
31 0.15
32 0.15
33 0.15
4 -0.57
5 0.1
6 0.07
7 0.09
8 0.09
9 0.47

> <PUBCHEM_EFFECTIVE_ROTOR_COUNT>
3

> <PUBCHEM_PHARMACOPHORE_FEATURES>
7
1 1 acceptor
1 2 acceptor
1 3 acceptor
1 4 cation
6 10 16 17 18 19 20 rings
6 4 5 6 7 8 9 rings
6 5 7 11 13 14 15 rings

> <PUBCHEM_HEAVY_ATOM_COUNT>
22

> <PUBCHEM_ATOM_DEF_STEREO_COUNT>
0

> <PUBCHEM_ATOM_UDEF_STEREO_COUNT>
0

> <PUBCHEM_BOND_DEF_STEREO_COUNT>
0

> <PUBCHEM_BOND_UDEF_STEREO_COUNT>
0

> <PUBCHEM_ISOTOPIC_ATOM_COUNT>
0

> <PUBCHEM_COMPONENT_COUNT>
1

> <PUBCHEM_CACTVS_TAUTO_COUNT>
1

> <PUBCHEM_CONFORMER_ID>
0006C22300000001

> <PUBCHEM_MMFF94_ENERGY>
93.2439

> <PUBCHEM_FEATURE_SELFOVERLAP>
35.547

> <PUBCHEM_SHAPE_FINGERPRINT>
10411042 1 17474668347871083874
10670039 82 18200018664375214676
10906281 52 18201141214012263481
10967382 1 18411418431572250347
1100329 8 18267022765163541425
11132069 177 18412263913254377604
11646440 116 18187917353500390633
11963148 33 18270966730864337379
12011746 2 18410009931439141525
12236239 1 17632579306419895204
12390115 104 18188760777703473593
12403814 3 17346887736375122357
12592029 89 18342736321062308019
12730499 353 18333723628776938819
12788726 201 17340392741202747554
12838862 33 18339380599048707629
13140716 1 18124032330295931865
13544592 145 18114453501422977462
13862211 1 18412269398080543475
14787075 74 17895767183587694697
14790565 3 18339914935787916077
14863182 85 18340476841905353662
15081414 286 18338790221650275509
15099037 51 18412261701404346533
15196674 1 18339643468442889065
15536298 74 18335983185121998231
1601671 61 18342176665491519445
16752209 62 18267586793507181774
16945 1 18339641144343368547
200 152 14996274825887071208
20028762 73 17971752173452950991
20645477 70 16805592699392192588
20691752 17 17487883725715928809
20739085 24 18052513741864007313
21033648 29 17896894157647435296
22149856 69 18267843109161085091
22182313 1 18128542750394607141
2334 1 17691122630645946643
23366157 5 17986668384307401506
23402539 116 18336272249279274583
23536379 177 15647047179518303889
23558518 356 17837769289441714400
23559900 14 18334568024470228268
2748010 2 18268988868047391183
335352 9 18411982433798148708
34934 24 18409172112611822407
350125 39 18196090169352632682
3545911 37 18410291419891324773
4072396 5 18343312474030014168
465052 167 17632572738644805665
474229 33 18412265021255589825
495365 180 17385449800232857306
5104073 3 18268424819194207657
5486654 2 18410291402537596741
7364860 26 18189899901735252134
77492 1 17560807572562361760

> <PUBCHEM_SHAPE_MULTIPOLES>
430.16
10.64
2.59
0.92
5.86
1.94
0
-4.73
-0.14
-0.29
-0.23
-1.1
-0.08
0.39

> <PUBCHEM_SHAPE_SELFOVERLAP>
942.739

> <PUBCHEM_SHAPE_VOLUME>
233.7

> <PUBCHEM_COORDINATE_TYPE>
2
5
10

$$$$

