17396101
  -OEChem-06241222543D

 36 37  0     0  0  0  0  0  0999 V2000
    2.1231   -1.1132   -0.8030 O   0  0  0  0  0  0  0  0  0  0  0  0
   -1.3285    2.3823    0.5490 O   0  0  0  0  0  0  0  0  0  0  0  0
   -0.0709    0.5197   -0.1252 N   0  0  0  0  0  0  0  0  0  0  0  0
    1.2591    1.0056   -0.0809 C   0  0  0  0  0  0  0  0  0  0  0  0
    2.3298    0.1792   -0.4217 C   0  0  0  0  0  0  0  0  0  0  0  0
    2.7346   -2.1278   -0.0096 C   0  0  0  0  0  0  0  0  0  0  0  0
    1.8852   -3.3875   -0.0819 C   0  0  0  0  0  0  0  0  0  0  0  0
    1.4923    2.3249    0.3074 C   0  0  0  0  0  0  0  0  0  0  0  0
    3.6338    0.6720   -0.3741 C   0  0  0  0  0  0  0  0  0  0  0  0
   -2.4821    0.4211    0.0650 C   0  0  0  0  0  0  0  0  0  0  0  0
   -1.2589    1.1991    0.1786 C   0  0  0  0  0  0  0  0  0  0  0  0
    2.4695   -4.5114    0.7548 C   0  0  0  0  0  0  0  0  0  0  0  0
    2.7964    2.8176    0.3550 C   0  0  0  0  0  0  0  0  0  0  0  0
    3.8672    1.9913    0.0144 C   0  0  0  0  0  0  0  0  0  0  0  0
   -3.6910    1.0586   -0.2141 C   0  0  0  0  0  0  0  0  0  0  0  0
   -2.4465   -0.9628    0.2352 C   0  0  0  0  0  0  0  0  0  0  0  0
   -4.8644    0.3122   -0.3228 C   0  0  0  0  0  0  0  0  0  0  0  0
   -3.6199   -1.7093    0.1263 C   0  0  0  0  0  0  0  0  0  0  0  0
   -4.8288   -1.0717   -0.1526 C   0  0  0  0  0  0  0  0  0  0  0  0
    2.8226   -1.8033    1.0355 H   0  0  0  0  0  0  0  0  0  0  0  0
    3.7389   -2.3257   -0.4014 H   0  0  0  0  0  0  0  0  0  0  0  0
    0.8662   -3.1633    0.2561 H   0  0  0  0  0  0  0  0  0  0  0  0
    1.7920   -3.7090   -1.1261 H   0  0  0  0  0  0  0  0  0  0  0  0
   -0.1332   -0.4385   -0.4584 H   0  0  0  0  0  0  0  0  0  0  0  0
    0.7216    3.0285    0.5860 H   0  0  0  0  0  0  0  0  0  0  0  0
    4.4778    0.0435   -0.6448 H   0  0  0  0  0  0  0  0  0  0  0  0
    1.8403   -5.4041    0.6831 H   0  0  0  0  0  0  0  0  0  0  0  0
    2.5321   -4.2241    1.8092 H   0  0  0  0  0  0  0  0  0  0  0  0
    3.4743   -4.7755    0.4101 H   0  0  0  0  0  0  0  0  0  0  0  0
    2.9795    3.8449    0.6568 H   0  0  0  0  0  0  0  0  0  0  0  0
    4.8823    2.3757    0.0497 H   0  0  0  0  0  0  0  0  0  0  0  0
   -3.7401    2.1353   -0.3554 H   0  0  0  0  0  0  0  0  0  0  0  0
   -1.5375   -1.4992    0.4911 H   0  0  0  0  0  0  0  0  0  0  0  0
   -5.8057    0.8083   -0.5408 H   0  0  0  0  0  0  0  0  0  0  0  0
   -3.5943   -2.7860    0.2674 H   0  0  0  0  0  0  0  0  0  0  0  0
   -5.7426   -1.6527   -0.2355 H   0  0  0  0  0  0  0  0  0  0  0  0
  1  5  1  0  0  0  0
  1  6  1  0  0  0  0
  2 11  2  0  0  0  0
  3  4  1  0  0  0  0
  3 11  1  0  0  0  0
  3 24  1  0  0  0  0
  4  5  1  0  0  0  0
  4  8  2  0  0  0  0
  5  9  2  0  0  0  0
  6  7  1  0  0  0  0
  6 20  1  0  0  0  0
  6 21  1  0  0  0  0
  7 12  1  0  0  0  0
  7 22  1  0  0  0  0
  7 23  1  0  0  0  0
  8 13  1  0  0  0  0
  8 25  1  0  0  0  0
  9 14  1  0  0  0  0
  9 26  1  0  0  0  0
 10 11  1  0  0  0  0
 10 15  2  0  0  0  0
 10 16  1  0  0  0  0
 12 27  1  0  0  0  0
 12 28  1  0  0  0  0
 12 29  1  0  0  0  0
 13 14  2  0  0  0  0
 13 30  1  0  0  0  0
 14 31  1  0  0  0  0
 15 17  1  0  0  0  0
 15 32  1  0  0  0  0
 16 18  2  0  0  0  0
 16 33  1  0  0  0  0
 17 19  2  0  0  0  0
 17 34  1  0  0  0  0
 18 19  1  0  0  0  0
 18 35  1  0  0  0  0
 19 36  1  0  0  0  0
M  END
> <PUBCHEM_COMPOUND_CID>
17396101

> <PUBCHEM_CONFORMER_RMSD>
0.8

> <PUBCHEM_CONFORMER_DIVERSEORDER>
1
18
11
14
16
15
7
9
20
21
5
12
6
19
4
17
3
8
10
13
2

> <PUBCHEM_MMFF94_PARTIAL_CHARGES>
27
1 -0.36
10 0.09
11 0.54
13 -0.15
14 -0.15
15 -0.15
16 -0.15
17 -0.15
18 -0.15
19 -0.15
2 -0.57
24 0.37
25 0.15
26 0.15
3 -0.55
30 0.15
31 0.15
32 0.15
33 0.15
34 0.15
35 0.15
36 0.15
4 0.12
5 0.08
6 0.28
8 -0.15
9 -0.15

> <PUBCHEM_EFFECTIVE_ROTOR_COUNT>
6

> <PUBCHEM_PHARMACOPHORE_FEATURES>
6
1 1 acceptor
1 12 hydrophobe
1 2 acceptor
1 3 donor
6 10 15 16 17 18 19 rings
6 4 5 8 9 13 14 rings

> <PUBCHEM_HEAVY_ATOM_COUNT>
19

> <PUBCHEM_ATOM_DEF_STEREO_COUNT>
0

> <PUBCHEM_ATOM_UDEF_STEREO_COUNT>
0

> <PUBCHEM_BOND_DEF_STEREO_COUNT>
0

> <PUBCHEM_BOND_UDEF_STEREO_COUNT>
0

> <PUBCHEM_ISOTOPIC_ATOM_COUNT>
0

> <PUBCHEM_COMPONENT_COUNT>
1

> <PUBCHEM_CACTVS_TAUTO_COUNT>
2

> <PUBCHEM_CONFORMER_ID>
0109718500000001

> <PUBCHEM_MMFF94_ENERGY>
61.3534

> <PUBCHEM_FEATURE_SELFOVERLAP>
30.446

> <PUBCHEM_SHAPE_FINGERPRINT>
10074138 170 17109071948743397032
10090160 65 18265902362651255572
10616163 171 18265613182830321799
11370993 70 18267869384637065947
114674 6 18342172276093329258
12107183 9 17902503028612208417
12553582 1 17760354887928274766
12839892 36 18339100202292826978
13533116 47 18408042935977092835
138480 1 18194965364436292322
14100547 121 15678314352413192050
14617045 38 18339068294959886855
14844126 61 16901869506369654546
14866123 147 16895678164671877843
15196674 1 18336544924089723461
15352361 1 18123190370524748226
15375358 24 18270119002886920241
15442244 35 18192427699999130113
15927050 60 18193278486857424454
17134984 74 17976000682409379399
17492 89 18410856611712868195
18681886 176 18198061366279854892
19427546 62 18050568434863664333
200 152 17967529026388577377
20028762 73 18188214187370244654
20567600 347 18130793300272985314
20567600 70 18198910390961679842
20600515 1 17323521169049838256
20645477 70 18341899588529418019
21421861 104 18341048617931932024
221490 88 18411410726538337702
2255824 54 18340763754632563524
23557571 272 17632305566410571861
23559900 14 18410299133025165824
239999 70 18113889438698597404
257057 1 17979073018222445522
2871803 45 18335978692638986756
314173 41 18192704764118449878
33824 294 18409729521798709124
3421961 26 18338520858169947362
5104073 3 18335699425402158417
543358 83 18335977670579097561
556388 4 18410577314083973615
6433294 58 18411136948169804539
7364860 26 18410013264655393122
9709674 26 18411695461585130083

> <PUBCHEM_SHAPE_MULTIPOLES>
374.29
9.09
4.35
0.72
8.78
5.1
0
0.2
-0.66
-5.7
1.04
-0.14
0.09
-0.1

> <PUBCHEM_SHAPE_SELFOVERLAP>
789.17

> <PUBCHEM_SHAPE_VOLUME>
209.8

> <PUBCHEM_COORDINATE_TYPE>
2
5
10

$$$$

