46173969
  -OEChem-07051213102D

 58 62  0     1  0  0  0  0  0999 V2000
    2.9766   -0.1046    0.0000 O   0  0  0  0  0  0  0  0  0  0  0  0
    3.8136   -0.5803    0.0000 O   0  0  0  0  0  0  0  0  0  0  0  0
    5.4456    2.5625    0.0000 O   0  0  0  0  0  0  0  0  0  0  0  0
    2.8817   -1.8784    0.0000 O   0  0  0  0  0  0  0  0  0  0  0  0
    2.0637    2.6379    0.0000 O   0  0  0  0  0  0  0  0  0  0  0  0
    7.0514   -3.1551    0.0000 O   0  0  0  0  0  0  0  0  0  0  0  0
    4.5796    0.0625    0.0000 C   0  0  2  0  0  0  0  0  0  0  0  0
    4.3704   -0.9094    0.0000 C   0  0  1  0  0  0  0  0  0  0  0  0
    5.4456    0.5625    0.0000 C   0  0  2  0  0  0  0  0  0  0  0  0
    5.4456    1.5625    0.0000 C   0  0  3  0  0  0  0  0  0  0  0  0
    3.7136    0.5625    0.0000 C   0  0  1  0  0  0  0  0  0  0  0  0
    4.5796    2.0625    0.0000 C   0  0  1  0  0  0  0  0  0  0  0  0
    3.3817   -1.0124    0.0000 C   0  0  3  0  0  0  0  0  0  0  0  0
    3.7136    1.5625    0.0000 C   0  0  1  0  0  0  0  0  0  0  0  0
    5.3553   -1.1245    0.0000 C   0  0  1  0  0  0  0  0  0  0  0  0
    5.1570   -0.3208    0.0000 C   0  0  0  0  0  0  0  0  0  0  0  0
    5.9500   -0.3104    0.0000 C   0  0  0  0  0  0  0  0  0  0  0  0
    2.9766    2.2295    0.0000 C   0  0  2  0  0  0  0  0  0  0  0  0
    4.3704    3.0343    0.0000 C   0  0  0  0  0  0  0  0  0  0  0  0
    5.0383   -1.6537    0.0000 C   0  0  0  0  0  0  0  0  0  0  0  0
    6.3774    1.9255    0.0000 C   0  0  0  0  0  0  0  0  0  0  0  0
    3.3817    3.1373    0.0000 C   0  0  0  0  0  0  0  0  0  0  0  0
    5.7099   -2.0595    0.0000 C   0  0  3  0  0  0  0  0  0  0  0  0
    2.3062    1.4876    0.0000 C   0  0  0  0  0  0  0  0  0  0  0  0
    6.6969   -2.2200    0.0000 C   0  0  0  0  0  0  0  0  0  0  0  0
    5.0774   -2.8341    0.0000 C   0  0  0  0  0  0  0  0  0  0  0  0
    6.1818    0.9875    0.0000 H   0  0  0  0  0  0  0  0  0  0  0  0
    2.8765    0.7101    0.0000 H   0  0  0  0  0  0  0  0  0  0  0  0
    2.8765    1.4149    0.0000 H   0  0  0  0  0  0  0  0  0  0  0  0
    5.9698   -1.2075    0.0000 H   0  0  0  0  0  0  0  0  0  0  0  0
    5.2783   -0.9288    0.0000 H   0  0  0  0  0  0  0  0  0  0  0  0
    5.7768   -0.3069    0.0000 H   0  0  0  0  0  0  0  0  0  0  0  0
    6.3953   -0.7418    0.0000 H   0  0  0  0  0  0  0  0  0  0  0  0
    6.4389    0.0710    0.0000 H   0  0  0  0  0  0  0  0  0  0  0  0
    4.9869    3.1003    0.0000 H   0  0  0  0  0  0  0  0  0  0  0  0
    4.3695    3.6543    0.0000 H   0  0  0  0  0  0  0  0  0  0  0  0
    4.5768   -2.0677    0.0000 H   0  0  0  0  0  0  0  0  0  0  0  0
    5.4523   -2.1151    0.0000 H   0  0  0  0  0  0  0  0  0  0  0  0
    5.4997   -1.2396    0.0000 H   0  0  0  0  0  0  0  0  0  0  0  0
    6.6025    1.3478    0.0000 H   0  0  0  0  0  0  0  0  0  0  0  0
    6.9551    2.1505    0.0000 H   0  0  0  0  0  0  0  0  0  0  0  0
    6.1524    2.5032    0.0000 H   0  0  0  0  0  0  0  0  0  0  0  0
    3.5104    3.7438    0.0000 H   0  0  0  0  0  0  0  0  0  0  0  0
    2.7921    3.3291    0.0000 H   0  0  0  0  0  0  0  0  0  0  0  0
    5.0979   -1.9600    0.0000 H   0  0  0  0  0  0  0  0  0  0  0  0
    3.9213   -1.1909    0.0000 H   0  0  0  0  0  0  0  0  0  0  0  0
    5.4456    3.1825    0.0000 H   0  0  0  0  0  0  0  0  0  0  0  0
    2.2617   -1.8784    0.0000 H   0  0  0  0  0  0  0  0  0  0  0  0
    1.8461    1.9032    0.0000 H   0  0  0  0  0  0  0  0  0  0  0  0
    1.8905    1.0275    0.0000 H   0  0  0  0  0  0  0  0  0  0  0  0
    2.7662    1.0719    0.0000 H   0  0  0  0  0  0  0  0  0  0  0  0
    7.3060   -2.1042    0.0000 H   0  0  0  0  0  0  0  0  0  0  0  0
    6.6886   -1.6001    0.0000 H   0  0  0  0  0  0  0  0  0  0  0  0
    2.0000    3.2546    0.0000 H   0  0  0  0  0  0  0  0  0  0  0  0
    4.5971   -2.4419    0.0000 H   0  0  0  0  0  0  0  0  0  0  0  0
    4.6852   -3.3143    0.0000 H   0  0  0  0  0  0  0  0  0  0  0  0
    5.5576   -3.2262    0.0000 H   0  0  0  0  0  0  0  0  0  0  0  0
    7.6634   -3.2546    0.0000 H   0  0  0  0  0  0  0  0  0  0  0  0
  1 11  1  0  0  0  0
  1 13  1  0  0  0  0
  7  2  1  1  0  0  0
  2 46  1  0  0  0  0
 12  3  1  1  0  0  0
  3 47  1  0  0  0  0
  4 13  1  0  0  0  0
  4 48  1  0  0  0  0
 18  5  1  1  0  0  0
  5 54  1  0  0  0  0
  6 25  1  0  0  0  0
  6 58  1  0  0  0  0
  7  8  1  0  0  0  0
  7  9  1  0  0  0  0
  7 11  1  0  0  0  0
  8 13  1  0  0  0  0
  8 15  1  0  0  0  0
  8 20  1  1  0  0  0
  9 10  1  0  0  0  0
  9 17  1  0  0  0  0
  9 27  1  1  0  0  0
 10 12  1  0  0  0  0
 10 16  1  0  0  0  0
 10 21  1  0  0  0  0
 11 14  1  0  0  0  0
 11 28  1  1  0  0  0
 12 14  1  0  0  0  0
 12 19  1  0  0  0  0
 13 16  1  0  0  0  0
 14 18  1  0  0  0  0
 14 29  1  1  0  0  0
 15 17  1  0  0  0  0
 15 23  1  1  0  0  0
 15 30  1  0  0  0  0
 16 31  1  0  0  0  0
 16 32  1  0  0  0  0
 17 33  1  0  0  0  0
 17 34  1  0  0  0  0
 18 22  1  0  0  0  0
 18 24  1  0  0  0  0
 19 22  1  0  0  0  0
 19 35  1  0  0  0  0
 19 36  1  0  0  0  0
 20 37  1  0  0  0  0
 20 38  1  0  0  0  0
 20 39  1  0  0  0  0
 21 40  1  0  0  0  0
 21 41  1  0  0  0  0
 21 42  1  0  0  0  0
 22 43  1  0  0  0  0
 22 44  1  0  0  0  0
 23 25  1  0  0  0  0
 23 26  1  0  0  0  0
 23 45  1  0  0  0  0
 24 49  1  0  0  0  0
 24 50  1  0  0  0  0
 24 51  1  0  0  0  0
 25 52  1  0  0  0  0
 25 53  1  0  0  0  0
 26 55  1  0  0  0  0
 26 56  1  0  0  0  0
 26 57  1  0  0  0  0
M  END
> <PUBCHEM_COMPOUND_CID>
46173969

> <PUBCHEM_COMPOUND_CANONICALIZED>
1

> <PUBCHEM_CACTVS_COMPLEXITY>
685

> <PUBCHEM_CACTVS_HBOND_ACCEPTOR>
6

> <PUBCHEM_CACTVS_HBOND_DONOR>
5

> <PUBCHEM_CACTVS_ROTATABLE_BOND>
2

> <PUBCHEM_CACTVS_SUBSKEYS>
AAADcfB4OAAAAAAAAAAAAAAAAAAAAaMEAAAwYAAABogAAGAAAAAAGgAACAAAD1SggAICCAAABgAAAAAAAAAAAAAAAAAAAAAAAAAREAIAAAACQAAFAAAHAAHA4PwPgAAAAAAAAADCAAYQADCAAYQADAAAAA==

> <PUBCHEM_IUPAC_INCHI>
InChI=1S/C20H32O6/c1-10(8-21)11-7-12-15(2)9-19(24)17(11,4)20(12,25)14(26-19)13-16(3,22)5-6-18(13,15)23/h10-14,21-25H,5-9H2,1-4H3/t10?,11-,12-,13+,14+,15?,16-,17+,18+,19?,20+/m0/s1

> <PUBCHEM_IUPAC_INCHIKEY>
SHKTYUCWKCFSRV-BLYNCRBLSA-N

> <PUBCHEM_XLOGP3_AA>
-0.1

> <PUBCHEM_EXACT_MASS>
368.219889

> <PUBCHEM_MOLECULAR_FORMULA>
C20H32O6

> <PUBCHEM_MOLECULAR_WEIGHT>
368.46448

> <PUBCHEM_OPENEYE_CAN_SMILES>
CC(CO)C1CC2C3(CC4(C1(C2(C(O4)C5C3(CCC5(C)O)O)O)C)O)C

> <PUBCHEM_OPENEYE_ISO_SMILES>
CC(CO)[C@@H]1C[C@@H]2[C@@]3([C@]1(C4(CC2([C@]5(CC[C@]([C@H]5[C@H]3O4)(C)O)O)C)O)C)O

> <PUBCHEM_CACTVS_TPSA>
110

> <PUBCHEM_MONOISOTOPIC_WEIGHT>
368.219889

> <PUBCHEM_TOTAL_CHARGE>
0

> <PUBCHEM_HEAVY_ATOM_COUNT>
26

> <PUBCHEM_ATOM_DEF_STEREO_COUNT>
8

> <PUBCHEM_ATOM_UDEF_STEREO_COUNT>
3

> <PUBCHEM_BOND_DEF_STEREO_COUNT>
0

> <PUBCHEM_BOND_UDEF_STEREO_COUNT>
0

> <PUBCHEM_ISOTOPIC_ATOM_COUNT>
0

> <PUBCHEM_COMPONENT_COUNT>
1

> <PUBCHEM_CACTVS_TAUTO_COUNT>
1

> <PUBCHEM_COORDINATE_TYPE>
1
5
255

> <PUBCHEM_BONDANNOTATIONS>
10  21  3
11  28  5
14  29  5
15  23  5
7  2  5
23  26  3
12  3  5
13  4  3
18  5  5
8  20  5
9  27  5

$$$$

