439922
  -OEChem-07051212483D

 25 25  0     0  0  0  0  0  0999 V2000
    1.5523    2.1452    0.5754 O   0  0  0  0  0  0  0  0  0  0  0  0
   -2.6455   -2.6556    0.5217 O   0  0  0  0  0  0  0  0  0  0  0  0
   -0.5013   -2.4672   -0.2085 O   0  0  0  0  0  0  0  0  0  0  0  0
    4.7050   -0.9772   -0.0386 O   0  0  0  0  0  0  0  0  0  0  0  0
    3.2709    0.0266   -1.4888 O   0  0  0  0  0  0  0  0  0  0  0  0
    0.4357    0.0811    0.3991 N   0  0  0  0  0  0  0  0  0  0  0  0
   -0.8842    0.4474    0.1200 C   0  0  0  0  0  0  0  0  0  0  0  0
   -1.8781   -0.5174   -0.0449 C   0  0  0  0  0  0  0  0  0  0  0  0
   -1.2006    1.8012    0.0056 C   0  0  0  0  0  0  0  0  0  0  0  0
   -3.1882   -0.1283   -0.3243 C   0  0  0  0  0  0  0  0  0  0  0  0
    1.5420    0.9184    0.5961 C   0  0  0  0  0  0  0  0  0  0  0  0
    2.8001    0.1197    0.8765 C   0  0  0  0  0  0  0  0  0  0  0  0
   -2.5106    2.1902   -0.2737 C   0  0  0  0  0  0  0  0  0  0  0  0
   -3.5044    1.2255   -0.4386 C   0  0  0  0  0  0  0  0  0  0  0  0
   -1.5818   -1.9402    0.0674 C   0  0  0  0  0  0  0  0  0  0  0  0
    3.5889   -0.2693   -0.3445 C   0  0  0  0  0  0  0  0  0  0  0  0
    0.6117   -0.9180    0.4620 H   0  0  0  0  0  0  0  0  0  0  0  0
   -0.4942    2.6108    0.1151 H   0  0  0  0  0  0  0  0  0  0  0  0
   -3.9831   -0.8547   -0.4721 H   0  0  0  0  0  0  0  0  0  0  0  0
    3.4425    0.7336    1.5182 H   0  0  0  0  0  0  0  0  0  0  0  0
    2.5434   -0.7907    1.4297 H   0  0  0  0  0  0  0  0  0  0  0  0
   -2.7582    3.2440   -0.3644 H   0  0  0  0  0  0  0  0  0  0  0  0
   -4.5236    1.5288   -0.6595 H   0  0  0  0  0  0  0  0  0  0  0  0
   -2.4383   -3.6117    0.5947 H   0  0  0  0  0  0  0  0  0  0  0  0
    5.2151   -1.2209   -0.8403 H   0  0  0  0  0  0  0  0  0  0  0  0
  1 11  2  0  0  0  0
  2 15  1  0  0  0  0
  2 24  1  0  0  0  0
  3 15  2  0  0  0  0
  4 16  1  0  0  0  0
  4 25  1  0  0  0  0
  5 16  2  0  0  0  0
  6  7  1  0  0  0  0
  6 11  1  0  0  0  0
  6 17  1  0  0  0  0
  7  8  1  0  0  0  0
  7  9  2  0  0  0  0
  8 10  2  0  0  0  0
  8 15  1  0  0  0  0
  9 13  1  0  0  0  0
  9 18  1  0  0  0  0
 10 14  1  0  0  0  0
 10 19  1  0  0  0  0
 11 12  1  0  0  0  0
 12 16  1  0  0  0  0
 12 20  1  0  0  0  0
 12 21  1  0  0  0  0
 13 14  2  0  0  0  0
 13 22  1  0  0  0  0
 14 23  1  0  0  0  0
M  END
> <PUBCHEM_COMPOUND_CID>
439922

> <PUBCHEM_CONFORMER_RMSD>
0.6

> <PUBCHEM_CONFORMER_DIVERSEORDER>
1
28
29
11
25
3
16
19
10
31
2
4
26
24
14
27
21
22
17
5
23
6
12
8
20
30
13
7
15
18
9

> <PUBCHEM_MMFF94_PARTIAL_CHARGES>
23
1 -0.57
10 -0.15
11 0.57
12 0.12
13 -0.15
14 -0.15
15 0.63
16 0.66
17 0.37
18 0.15
19 0.15
2 -0.65
22 0.15
23 0.15
24 0.5
25 0.5
3 -0.57
4 -0.65
5 -0.57
6 -0.55
7 0.12
8 0.09
9 -0.15

> <PUBCHEM_EFFECTIVE_ROTOR_COUNT>
5

> <PUBCHEM_PHARMACOPHORE_FEATURES>
10
1 1 acceptor
1 12 anion
1 2 acceptor
1 3 acceptor
1 4 acceptor
1 5 acceptor
1 6 donor
3 2 3 15 anion
3 4 5 16 anion
6 7 8 9 10 13 14 rings

> <PUBCHEM_HEAVY_ATOM_COUNT>
16

> <PUBCHEM_ATOM_DEF_STEREO_COUNT>
0

> <PUBCHEM_ATOM_UDEF_STEREO_COUNT>
0

> <PUBCHEM_BOND_DEF_STEREO_COUNT>
0

> <PUBCHEM_BOND_UDEF_STEREO_COUNT>
0

> <PUBCHEM_ISOTOPIC_ATOM_COUNT>
0

> <PUBCHEM_COMPONENT_COUNT>
1

> <PUBCHEM_CACTVS_TAUTO_COUNT>
3

> <PUBCHEM_CONFORMER_ID>
0006B67200000001

> <PUBCHEM_MMFF94_ENERGY>
44.4538

> <PUBCHEM_FEATURE_SELFOVERLAP>
51.125

> <PUBCHEM_SHAPE_FINGERPRINT>
11458722 379 18337954613886880662
12186901 62 18130786780707386005
13380535 76 18337397157328480279
14115302 16 18341607157481636036
15375358 24 18040445399400591000
16752209 62 18340784701145523755
16945 1 18340497720052518129
17804303 29 18409729551789848073
17870717 6 18189037841764011142
18186145 218 18261404385357777465
20279233 1 18040437702734767918
20645476 183 17917992810415423059
20645477 70 17240204356952679028
20711985 365 18339081475686796131
20871998 22 17907574723363301779
20871999 31 18411410696847820924
21665056 4 18412828009985393315
22802520 49 18262519182589147249
2334 1 18050856515768478113
23402539 116 18262530297906766605
23526113 38 17749116612166255152
23557571 272 18265892458984184960
23559900 14 18334580183517095426
2748010 2 18194131707115180889
3084891 72 18119254105969794624
4175511 318 17846788437579919749
6049 1 18262518074492963832
74978 22 18411703166608876616
81228 2 18124889966793425113
8809292 202 18409167705532050736
93112 12 18411702071492358388
9709674 26 18262248702734001992

> <PUBCHEM_SHAPE_MULTIPOLES>
294.94
6.89
2.53
0.84
6.32
0.99
0.12
0.28
1.17
-2.1
-0.23
0.51
-0.05
0.56

> <PUBCHEM_SHAPE_SELFOVERLAP>
617.925

> <PUBCHEM_SHAPE_VOLUME>
164.6

> <PUBCHEM_COORDINATE_TYPE>
2
5
10

$$$$

