91741
  -OEChem-07051213123D

 37 38  0     0  0  0  0  0  0999 V2000
    3.8104   -3.0058    0.1138 Cl  0  0  0  0  0  0  0  0  0  0  0  0
    3.5354    2.3601    0.9499 Cl  0  0  0  0  0  0  0  0  0  0  0  0
    5.3168    1.1284   -1.1218 F   0  0  0  0  0  0  0  0  0  0  0  0
    5.4327   -1.0459   -1.4458 F   0  0  0  0  0  0  0  0  0  0  0  0
    7.3846    0.9855    0.6520 F   0  0  0  0  0  0  0  0  0  0  0  0
    7.8566    0.2185   -1.3300 F   0  0  0  0  0  0  0  0  0  0  0  0
   -4.3842   -1.8396    0.8593 F   0  0  0  0  0  0  0  0  0  0  0  0
   -6.2540    2.1138   -0.9939 F   0  0  0  0  0  0  0  0  0  0  0  0
    4.8973   -0.2746    0.6252 O   0  0  0  0  0  0  0  0  0  0  0  0
   -1.2746    1.7453    0.5138 O   0  0  0  0  0  0  0  0  0  0  0  0
   -4.0312    2.0849    0.3742 O   0  0  0  0  0  0  0  0  0  0  0  0
   -0.6322   -0.4920    0.1992 N   0  0  0  0  0  0  0  0  0  0  0  0
   -2.8580    0.0875    0.1328 N   0  0  0  0  0  0  0  0  0  0  0  0
    0.7769   -0.4367    0.3087 C   0  0  0  0  0  0  0  0  0  0  0  0
    3.5371   -0.3280    0.5207 C   0  0  0  0  0  0  0  0  0  0  0  0
    1.5138   -1.6022    0.1748 C   0  0  0  0  0  0  0  0  0  0  0  0
    1.3915    0.7819    0.5463 C   0  0  0  0  0  0  0  0  0  0  0  0
    2.9035   -1.5475    0.2816 C   0  0  0  0  0  0  0  0  0  0  0  0
    2.7811    0.8366    0.6530 C   0  0  0  0  0  0  0  0  0  0  0  0
    5.6658   -0.0512   -0.5553 C   0  0  0  0  0  0  0  0  0  0  0  0
   -5.2871    0.1551   -0.0612 C   0  0  0  0  0  0  0  0  0  0  0  0
   -1.5424    0.5651    0.3033 C   0  0  0  0  0  0  0  0  0  0  0  0
   -4.0355    0.8579    0.1748 C   0  0  0  0  0  0  0  0  0  0  0  0
    7.1327   -0.0297   -0.2112 C   0  0  0  0  0  0  0  0  0  0  0  0
   -5.4118   -1.1873    0.2970 C   0  0  0  0  0  0  0  0  0  0  0  0
   -6.3627    0.8235   -0.6459 C   0  0  0  0  0  0  0  0  0  0  0  0
   -6.6119   -1.8610    0.0707 C   0  0  0  0  0  0  0  0  0  0  0  0
   -7.5629    0.1498   -0.8722 C   0  0  0  0  0  0  0  0  0  0  0  0
   -7.6874   -1.1925   -0.5140 C   0  0  0  0  0  0  0  0  0  0  0  0
    1.0149   -2.5503   -0.0117 H   0  0  0  0  0  0  0  0  0  0  0  0
    0.8622    1.7168    0.6577 H   0  0  0  0  0  0  0  0  0  0  0  0
   -1.0211   -1.4152    0.0241 H   0  0  0  0  0  0  0  0  0  0  0  0
   -2.9453   -0.9059   -0.0614 H   0  0  0  0  0  0  0  0  0  0  0  0
    7.4751   -0.9666    0.2366 H   0  0  0  0  0  0  0  0  0  0  0  0
   -6.7086   -2.9061    0.3497 H   0  0  0  0  0  0  0  0  0  0  0  0
   -8.4003    0.6704   -1.3273 H   0  0  0  0  0  0  0  0  0  0  0  0
   -8.6219   -1.7172   -0.6903 H   0  0  0  0  0  0  0  0  0  0  0  0
  1 18  1  0  0  0  0
  2 19  1  0  0  0  0
  3 20  1  0  0  0  0
  4 20  1  0  0  0  0
  5 24  1  0  0  0  0
  6 24  1  0  0  0  0
  7 25  1  0  0  0  0
  8 26  1  0  0  0  0
  9 15  1  0  0  0  0
  9 20  1  0  0  0  0
 10 22  2  0  0  0  0
 11 23  2  0  0  0  0
 12 14  1  0  0  0  0
 12 22  1  0  0  0  0
 12 32  1  0  0  0  0
 13 22  1  0  0  0  0
 13 23  1  0  0  0  0
 13 33  1  0  0  0  0
 14 16  2  0  0  0  0
 14 17  1  0  0  0  0
 15 18  2  0  0  0  0
 15 19  1  0  0  0  0
 16 18  1  0  0  0  0
 16 30  1  0  0  0  0
 17 19  2  0  0  0  0
 17 31  1  0  0  0  0
 20 24  1  0  0  0  0
 21 23  1  0  0  0  0
 21 25  2  0  0  0  0
 21 26  1  0  0  0  0
 24 34  1  0  0  0  0
 25 27  1  0  0  0  0
 26 28  2  0  0  0  0
 27 29  2  0  0  0  0
 27 35  1  0  0  0  0
 28 29  1  0  0  0  0
 28 36  1  0  0  0  0
 29 37  1  0  0  0  0
M  END
> <PUBCHEM_COMPOUND_CID>
91741

> <PUBCHEM_CONFORMER_RMSD>
1

> <PUBCHEM_CONFORMER_DIVERSEORDER>
1
23
5
29
39
21
31
20
35
17
15
30
22
26
28
13
11
24
36
4
9
19
34
10
32
14
6
38
27
3
16
33
18
8
12
7
25
37
40
2

> <PUBCHEM_MMFF94_PARTIAL_CHARGES>
36
1 -0.18
10 -0.57
11 -0.57
12 -0.55
13 -0.49
14 0.12
15 0.08
16 -0.15
17 -0.15
18 0.18
19 0.18
2 -0.18
20 0.96
21 0.09
22 0.69
23 0.54
24 0.68
25 0.19
26 0.19
27 -0.15
28 -0.15
29 -0.15
3 -0.34
30 0.15
31 0.15
32 0.37
33 0.37
35 0.15
36 0.15
37 0.15
4 -0.34
5 -0.34
6 -0.34
7 -0.19
8 -0.19
9 -0.36

> <PUBCHEM_EFFECTIVE_ROTOR_COUNT>
8

> <PUBCHEM_PHARMACOPHORE_FEATURES>
7
1 10 acceptor
1 11 acceptor
1 12 donor
1 13 donor
1 9 acceptor
6 14 15 16 17 18 19 rings
6 21 25 26 27 28 29 rings

> <PUBCHEM_HEAVY_ATOM_COUNT>
29

> <PUBCHEM_ATOM_DEF_STEREO_COUNT>
0

> <PUBCHEM_ATOM_UDEF_STEREO_COUNT>
0

> <PUBCHEM_BOND_DEF_STEREO_COUNT>
0

> <PUBCHEM_BOND_UDEF_STEREO_COUNT>
0

> <PUBCHEM_ISOTOPIC_ATOM_COUNT>
0

> <PUBCHEM_COMPONENT_COUNT>
1

> <PUBCHEM_CACTVS_TAUTO_COUNT>
5

> <PUBCHEM_CONFORMER_ID>
0001665D00000001

> <PUBCHEM_MMFF94_ENERGY>
76.2108

> <PUBCHEM_FEATURE_SELFOVERLAP>
35.575

> <PUBCHEM_SHAPE_FINGERPRINT>
10299344 5 18113897165719315291
10595046 47 18340487871550018707
10835480 77 18339651135223432093
10968037 39 18412546514282685595
11315181 36 18260829298612345553
11524674 6 16081371830827840351
11719270 70 18410299137937844594
11963148 33 18410582768519074250
12166972 35 18408602535366238217
12516196 113 18187087256623076457
13668630 136 17240199928630452087
14123256 10 18410575084673634915
14170010 4 17822014182049668200
14933364 13 18411700989392500485
150020 25 18335419067264286348
15064986 266 18412261754088438785
15183329 4 18413107281469522409
15348495 7 8069730915331633919
1577012 14 18261673787429014361
15849732 13 18333450928428665140
17844677 252 18407757037078962297
18335252 98 18413385432748622979
18608769 82 18408889503383931034
18681886 176 18410016502807747937
20105231 36 17967807236910789775
21150785 3 18202563973246722261
21267235 1 18187080642093878585
21344244 181 17023172852337786102
21774942 28 14764080007214369455
221357 26 18259703415479573416
23522609 53 18044909437599811361
23559900 14 18410863148979698977
23576562 1 18127680536068832940
3004659 81 18343306950728744145
335352 9 18410849963888808646
34797466 226 16805039602231112120
4073 2 18131627911535343747
4325135 7 18343582932426335479
45377200 153 16515974653482922087
484989 97 18263640671643919411
497634 4 18337673118126709341
504579 68 18335708243434019629

> <PUBCHEM_SHAPE_MULTIPOLES>
529.33
24.24
2.26
0.95
8.5
0.42
-0.18
1.08
-7
-0.03
0.3
-0.67
-0.1
0.87

> <PUBCHEM_SHAPE_SELFOVERLAP>
1127.174

> <PUBCHEM_SHAPE_VOLUME>
293.6

> <PUBCHEM_COORDINATE_TYPE>
2
5
10

$$$$

