652
  -OEChem-07051212452D

 33 32  0     1  0  0  0  0  0999 V2000
    2.8660   -3.3450    0.0000 O   0  0  0  0  0  0  0  0  0  0  0  0
    2.0000   -1.8450    0.0000 O   0  0  0  0  0  0  0  0  0  0  0  0
    4.5981    2.6550    0.0000 N   0  0  0  0  0  0  0  0  0  0  0  0
    7.1962    2.1550    0.0000 N   0  0  0  0  0  0  0  0  0  0  0  0
    5.4641    2.1550    0.0000 C   0  0  3  0  0  0  0  0  0  0  0  0
    5.4641    1.1550    0.0000 C   0  0  0  0  0  0  0  0  0  0  0  0
    4.5981    0.6550    0.0000 C   0  0  0  0  0  0  0  0  0  0  0  0
    6.3301    2.6550    0.0000 C   0  0  3  0  0  0  0  0  0  0  0  0
    4.5981   -0.3450    0.0000 C   0  0  0  0  0  0  0  0  0  0  0  0
    3.7320   -0.8450    0.0000 C   0  0  0  0  0  0  0  0  0  0  0  0
    6.3301    3.6550    0.0000 C   0  0  0  0  0  0  0  0  0  0  0  0
    3.7320   -1.8450    0.0000 C   0  0  0  0  0  0  0  0  0  0  0  0
    2.8660   -2.3450    0.0000 C   0  0  0  0  0  0  0  0  0  0  0  0
    5.4641    2.7750    0.0000 H   0  0  0  0  0  0  0  0  0  0  0  0
    5.6762    0.5724    0.0000 H   0  0  0  0  0  0  0  0  0  0  0  0
    6.0747    1.2627    0.0000 H   0  0  0  0  0  0  0  0  0  0  0  0
    4.3860    1.2376    0.0000 H   0  0  0  0  0  0  0  0  0  0  0  0
    3.9875    0.5473    0.0000 H   0  0  0  0  0  0  0  0  0  0  0  0
    6.8671    2.9650    0.0000 H   0  0  0  0  0  0  0  0  0  0  0  0
    4.8101   -0.9276    0.0000 H   0  0  0  0  0  0  0  0  0  0  0  0
    5.2087   -0.2373    0.0000 H   0  0  0  0  0  0  0  0  0  0  0  0
    3.5200   -0.2624    0.0000 H   0  0  0  0  0  0  0  0  0  0  0  0
    3.1215   -0.9527    0.0000 H   0  0  0  0  0  0  0  0  0  0  0  0
    6.9501    3.6550    0.0000 H   0  0  0  0  0  0  0  0  0  0  0  0
    6.3301    4.2750    0.0000 H   0  0  0  0  0  0  0  0  0  0  0  0
    5.7101    3.6550    0.0000 H   0  0  0  0  0  0  0  0  0  0  0  0
    4.0611    2.3450    0.0000 H   0  0  0  0  0  0  0  0  0  0  0  0
    4.5981    3.2750    0.0000 H   0  0  0  0  0  0  0  0  0  0  0  0
    3.9441   -2.4276    0.0000 H   0  0  0  0  0  0  0  0  0  0  0  0
    4.3426   -1.7373    0.0000 H   0  0  0  0  0  0  0  0  0  0  0  0
    7.7331    2.4650    0.0000 H   0  0  0  0  0  0  0  0  0  0  0  0
    7.1962    1.5350    0.0000 H   0  0  0  0  0  0  0  0  0  0  0  0
    2.3291   -3.6550    0.0000 H   0  0  0  0  0  0  0  0  0  0  0  0
  1 13  1  0  0  0  0
  1 33  1  0  0  0  0
  2 13  2  0  0  0  0
  3  5  1  0  0  0  0
  3 27  1  0  0  0  0
  3 28  1  0  0  0  0
  4  8  1  0  0  0  0
  4 31  1  0  0  0  0
  4 32  1  0  0  0  0
  5  6  1  0  0  0  0
  5  8  1  0  0  0  0
  5 14  1  0  0  0  0
  6  7  1  0  0  0  0
  6 15  1  0  0  0  0
  6 16  1  0  0  0  0
  7  9  1  0  0  0  0
  7 17  1  0  0  0  0
  7 18  1  0  0  0  0
  8 11  1  0  0  0  0
  8 19  1  0  0  0  0
  9 10  1  0  0  0  0
  9 20  1  0  0  0  0
  9 21  1  0  0  0  0
 10 12  1  0  0  0  0
 10 22  1  0  0  0  0
 10 23  1  0  0  0  0
 11 24  1  0  0  0  0
 11 25  1  0  0  0  0
 11 26  1  0  0  0  0
 12 13  1  0  0  0  0
 12 29  1  0  0  0  0
 12 30  1  0  0  0  0
M  END
> <PUBCHEM_COMPOUND_CID>
652

> <PUBCHEM_COMPOUND_CANONICALIZED>
1

> <PUBCHEM_CACTVS_COMPLEXITY>
151

> <PUBCHEM_CACTVS_HBOND_ACCEPTOR>
4

> <PUBCHEM_CACTVS_HBOND_DONOR>
3

> <PUBCHEM_CACTVS_ROTATABLE_BOND>
7

> <PUBCHEM_CACTVS_SUBSKEYS>
AAADceBzMAAAAAAAAAAAAAAAAAAAAAAAAAAAAAAAAAAAAAAAAAAAHgAQCAAACCjBgAQCCABAAgAIAACQCAAAAAAAAAAAAIEAAAAAQBIAgAAAQAAEEAAAAAGYyKCAAAAAAAAAAAAAAAAAAAAAAAAAAAAAAA==

> <PUBCHEM_IUPAC_OPENEYE_NAME>
7,8-diaminononanoic acid

> <PUBCHEM_IUPAC_CAS_NAME>
7,8-diaminononanoic acid

> <PUBCHEM_IUPAC_NAME>
7,8-diaminononanoic acid

> <PUBCHEM_IUPAC_SYSTEMATIC_NAME>
7,8-bis(azanyl)nonanoic acid

> <PUBCHEM_IUPAC_TRADITIONAL_NAME>
7,8-diaminopelargonic acid

> <PUBCHEM_IUPAC_INCHI>
InChI=1S/C9H20N2O2/c1-7(10)8(11)5-3-2-4-6-9(12)13/h7-8H,2-6,10-11H2,1H3,(H,12,13)

> <PUBCHEM_IUPAC_INCHIKEY>
KCEGBPIYGIWCDH-UHFFFAOYSA-N

> <PUBCHEM_XLOGP3_AA>
-2.3

> <PUBCHEM_EXACT_MASS>
188.152478

> <PUBCHEM_MOLECULAR_FORMULA>
C9H20N2O2

> <PUBCHEM_MOLECULAR_WEIGHT>
188.2673

> <PUBCHEM_OPENEYE_CAN_SMILES>
CC(C(CCCCCC(=O)O)N)N

> <PUBCHEM_OPENEYE_ISO_SMILES>
CC(C(CCCCCC(=O)O)N)N

> <PUBCHEM_CACTVS_TPSA>
89.3

> <PUBCHEM_MONOISOTOPIC_WEIGHT>
188.152478

> <PUBCHEM_TOTAL_CHARGE>
0

> <PUBCHEM_HEAVY_ATOM_COUNT>
13

> <PUBCHEM_ATOM_DEF_STEREO_COUNT>
0

> <PUBCHEM_ATOM_UDEF_STEREO_COUNT>
2

> <PUBCHEM_BOND_DEF_STEREO_COUNT>
0

> <PUBCHEM_BOND_UDEF_STEREO_COUNT>
0

> <PUBCHEM_ISOTOPIC_ATOM_COUNT>
0

> <PUBCHEM_COMPONENT_COUNT>
1

> <PUBCHEM_CACTVS_TAUTO_COUNT>
1

> <PUBCHEM_COORDINATE_TYPE>
1
5
255

> <PUBCHEM_BONDANNOTATIONS>
5  3  3
8  4  3

$$$$

