11954097
  -OEChem-07051213062D

 65 68  0     1  0  0  0  0  0999 V2000
    2.5357   -2.3392    0.0000 O   0  0  0  0  0  0  0  0  0  0  0  0
    8.5179    2.7127    0.0000 O   0  0  0  0  0  0  0  0  0  0  0  0
   10.4749    3.1251    0.0000 O   0  0  0  0  0  0  0  0  0  0  0  0
    7.9288   -0.2869    0.0000 C   0  0  2  0  0  0  0  0  0  0  0  0
    7.9288    0.7131    0.0000 C   0  0  1  0  0  0  0  0  0  0  0  0
    5.2868   -0.7937    0.0000 C   0  0  1  0  0  0  0  0  0  0  0  0
    5.2787   -1.8353    0.0000 C   0  0  2  0  0  0  0  0  0  0  0  0
    7.0628   -0.7869    0.0000 C   0  0  0  0  0  0  0  0  0  0  0  0
    6.1968   -0.2869    0.0000 C   0  0  0  0  0  0  0  0  0  0  0  0
    8.8750    1.0179    0.0000 C   0  0  2  0  0  0  0  0  0  0  0  0
    7.0628    1.2131    0.0000 C   0  0  0  0  0  0  0  0  0  0  0  0
    8.8750   -0.5916    0.0000 C   0  0  0  0  0  0  0  0  0  0  0  0
    4.3433   -2.3850    0.0000 C   0  0  0  0  0  0  0  0  0  0  0  0
    6.1968    0.7131    0.0000 C   0  0  0  0  0  0  0  0  0  0  0  0
    6.1808   -2.3561    0.0000 C   0  0  0  0  0  0  0  0  0  0  0  0
    9.4586    0.2131    0.0000 C   0  0  0  0  0  0  0  0  0  0  0  0
    7.0789   -1.8284    0.0000 C   0  0  0  0  0  0  0  0  0  0  0  0
    4.3599   -0.2296    0.0000 C   0  0  0  0  0  0  0  0  0  0  0  0
    7.9288   -1.2869    0.0000 C   0  0  0  0  0  0  0  0  0  0  0  0
    3.4037   -1.8425    0.0000 C   0  0  2  0  0  0  0  0  0  0  0  0
    7.9288    1.7131    0.0000 C   0  0  0  0  0  0  0  0  0  0  0  0
    3.4120   -0.7576    0.0000 C   0  0  0  0  0  0  0  0  0  0  0  0
    5.2945    0.2063    0.0000 C   0  0  0  0  0  0  0  0  0  0  0  0
    9.1857    1.9684    0.0000 C   0  0  0  0  0  0  0  0  0  0  0  0
    3.8467   -3.2530    0.0000 C   0  0  0  0  0  0  0  0  0  0  0  0
    4.8466   -3.2491    0.0000 C   0  0  0  0  0  0  0  0  0  0  0  0
   10.1642    2.1746    0.0000 C   0  0  0  0  0  0  0  0  0  0  0  0
    5.2820   -2.6853    0.0000 H   0  0  0  0  0  0  0  0  0  0  0  0
    9.4875    1.1141    0.0000 H   0  0  0  0  0  0  0  0  0  0  0  0
    7.4613    1.6881    0.0000 H   0  0  0  0  0  0  0  0  0  0  0  0
    6.6643    1.6881    0.0000 H   0  0  0  0  0  0  0  0  0  0  0  0
    8.6240   -1.1585    0.0000 H   0  0  0  0  0  0  0  0  0  0  0  0
    9.4124   -0.9008    0.0000 H   0  0  0  0  0  0  0  0  0  0  0  0
    5.9847    1.2957    0.0000 H   0  0  0  0  0  0  0  0  0  0  0  0
    5.5862    0.6055    0.0000 H   0  0  0  0  0  0  0  0  0  0  0  0
    5.7835   -2.8321    0.0000 H   0  0  0  0  0  0  0  0  0  0  0  0
    6.5818   -2.8290    0.0000 H   0  0  0  0  0  0  0  0  0  0  0  0
    9.9195   -0.2016    0.0000 H   0  0  0  0  0  0  0  0  0  0  0  0
    9.9195    0.6279    0.0000 H   0  0  0  0  0  0  0  0  0  0  0  0
    7.2969   -2.4088    0.0000 H   0  0  0  0  0  0  0  0  0  0  0  0
    7.6880   -1.7129    0.0000 H   0  0  0  0  0  0  0  0  0  0  0  0
    4.7681    0.2370    0.0000 H   0  0  0  0  0  0  0  0  0  0  0  0
    3.9700    0.2524    0.0000 H   0  0  0  0  0  0  0  0  0  0  0  0
    2.8686   -1.5294    0.0000 H   0  0  0  0  0  0  0  0  0  0  0  0
    7.3088   -1.2869    0.0000 H   0  0  0  0  0  0  0  0  0  0  0  0
    7.9288   -1.9069    0.0000 H   0  0  0  0  0  0  0  0  0  0  0  0
    8.5488   -1.2869    0.0000 H   0  0  0  0  0  0  0  0  0  0  0  0
    8.5488    1.7131    0.0000 H   0  0  0  0  0  0  0  0  0  0  0  0
    7.9288    2.3331    0.0000 H   0  0  0  0  0  0  0  0  0  0  0  0
    7.3088    1.7131    0.0000 H   0  0  0  0  0  0  0  0  0  0  0  0
    3.2075   -0.1723    0.0000 H   0  0  0  0  0  0  0  0  0  0  0  0
    2.8004   -0.8590    0.0000 H   0  0  0  0  0  0  0  0  0  0  0  0
    5.9145    0.2015    0.0000 H   0  0  0  0  0  0  0  0  0  0  0  0
    5.2993    0.8262    0.0000 H   0  0  0  0  0  0  0  0  0  0  0  0
    4.6745    0.2110    0.0000 H   0  0  0  0  0  0  0  0  0  0  0  0
    3.3085   -2.9450    0.0000 H   0  0  0  0  0  0  0  0  0  0  0  0
    3.5387   -3.7911    0.0000 H   0  0  0  0  0  0  0  0  0  0  0  0
    4.3848   -3.5609    0.0000 H   0  0  0  0  0  0  0  0  0  0  0  0
    4.3109   -3.5612    0.0000 H   0  0  0  0  0  0  0  0  0  0  0  0
    5.1587   -3.7849    0.0000 H   0  0  0  0  0  0  0  0  0  0  0  0
    5.3824   -2.9371    0.0000 H   0  0  0  0  0  0  0  0  0  0  0  0
    2.0000   -2.0271    0.0000 H   0  0  0  0  0  0  0  0  0  0  0  0
   10.1848    1.5550    0.0000 H   0  0  0  0  0  0  0  0  0  0  0  0
   10.7780    2.0873    0.0000 H   0  0  0  0  0  0  0  0  0  0  0  0
   11.0815    3.2530    0.0000 H   0  0  0  0  0  0  0  0  0  0  0  0
 20  1  1  1  0  0  0
  1 62  1  0  0  0  0
  2 24  2  0  0  0  0
  3 27  1  0  0  0  0
  3 65  1  0  0  0  0
  4  5  1  0  0  0  0
  4  8  1  0  0  0  0
  4 12  1  0  0  0  0
  4 19  1  6  0  0  0
  5 10  1  0  0  0  0
  5 11  1  0  0  0  0
  5 21  1  1  0  0  0
  6  7  1  0  0  0  0
  6  9  1  0  0  0  0
  6 18  1  0  0  0  0
  6 23  1  1  0  0  0
  7 13  1  0  0  0  0
  7 15  1  0  0  0  0
  7 28  1  6  0  0  0
  8  9  2  0  0  0  0
  8 17  1  0  0  0  0
  9 14  1  0  0  0  0
 10 16  1  0  0  0  0
 10 24  1  1  0  0  0
 10 29  1  0  0  0  0
 11 14  1  0  0  0  0
 11 30  1  0  0  0  0
 11 31  1  0  0  0  0
 12 16  1  0  0  0  0
 12 32  1  0  0  0  0
 12 33  1  0  0  0  0
 13 20  1  0  0  0  0
 13 25  1  0  0  0  0
 13 26  1  0  0  0  0
 14 34  1  0  0  0  0
 14 35  1  0  0  0  0
 15 17  1  0  0  0  0
 15 36  1  0  0  0  0
 15 37  1  0  0  0  0
 16 38  1  0  0  0  0
 16 39  1  0  0  0  0
 17 40  1  0  0  0  0
 17 41  1  0  0  0  0
 18 22  1  0  0  0  0
 18 42  1  0  0  0  0
 18 43  1  0  0  0  0
 19 45  1  0  0  0  0
 19 46  1  0  0  0  0
 19 47  1  0  0  0  0
 20 22  1  0  0  0  0
 20 44  1  0  0  0  0
 21 48  1  0  0  0  0
 21 49  1  0  0  0  0
 21 50  1  0  0  0  0
 22 51  1  0  0  0  0
 22 52  1  0  0  0  0
 23 53  1  0  0  0  0
 23 54  1  0  0  0  0
 23 55  1  0  0  0  0
 24 27  1  0  0  0  0
 25 56  1  0  0  0  0
 25 57  1  0  0  0  0
 25 58  1  0  0  0  0
 26 59  1  0  0  0  0
 26 60  1  0  0  0  0
 26 61  1  0  0  0  0
 27 63  1  0  0  0  0
 27 64  1  0  0  0  0
M  END
> <PUBCHEM_COMPOUND_CID>
11954097

> <PUBCHEM_COMPOUND_CANONICALIZED>
1

> <PUBCHEM_CACTVS_COMPLEXITY>
692

> <PUBCHEM_CACTVS_HBOND_ACCEPTOR>
3

> <PUBCHEM_CACTVS_HBOND_DONOR>
2

> <PUBCHEM_CACTVS_ROTATABLE_BOND>
2

> <PUBCHEM_CACTVS_SUBSKEYS>
AAADcfB4MAAAAAAAAAAAAAAAAAAAAYAAAAAwQIAAAAAAAEDAAAAAGgAACAAADxSggAICAAAAAgCIAoBQAAIAAAAgAAAACAFAAAgAEBIAAAAAQAAEgAAIAAOIyPCPgAAAAAAAAABAAAYAADAAAQAACAAAAA==

> <PUBCHEM_IUPAC_OPENEYE_NAME>
2-hydroxy-1-[(3S,5R,10S,13R,14R,17S)-3-hydroxy-4,4,10,13,14-pentamethyl-2,3,5,6,7,11,12,15,16,17-decahydro-1H-cyclopenta[a]phenanthren-17-yl]ethanone

> <PUBCHEM_IUPAC_CAS_NAME>
2-hydroxy-1-[(3S,5R,10S,13R,14R,17S)-3-hydroxy-4,4,10,13,14-pentamethyl-2,3,5,6,7,11,12,15,16,17-decahydro-1H-cyclopenta[a]phenanthren-17-yl]ethanone

> <PUBCHEM_IUPAC_NAME>
2-hydroxy-1-[(3S,5R,10S,13R,14R,17S)-3-hydroxy-4,4,10,13,14-pentamethyl-2,3,5,6,7,11,12,15,16,17-decahydro-1H-cyclopenta[a]phenanthren-17-yl]ethanone

> <PUBCHEM_IUPAC_SYSTEMATIC_NAME>
2-oxidanyl-1-[(3S,5R,10S,13R,14R,17S)-4,4,10,13,14-pentamethyl-3-oxidanyl-2,3,5,6,7,11,12,15,16,17-decahydro-1H-cyclopenta[a]phenanthren-17-yl]ethanone

> <PUBCHEM_IUPAC_TRADITIONAL_NAME>
2-hydroxy-1-[(3S,5R,10S,13R,14R,17S)-3-hydroxy-4,4,10,13,14-pentamethyl-2,3,5,6,7,11,12,15,16,17-decahydro-1H-cyclopenta[a]phenanthren-17-yl]ethanone

> <PUBCHEM_IUPAC_INCHI>
InChI=1S/C24H38O3/c1-21(2)19-7-6-16-15(22(19,3)11-10-20(21)27)8-12-24(5)17(18(26)14-25)9-13-23(16,24)4/h17,19-20,25,27H,6-14H2,1-5H3/t17-,19+,20+,22-,23+,24-/m1/s1

> <PUBCHEM_IUPAC_INCHIKEY>
KUZAKLLYYNJTRA-CEGYNPMNSA-N

> <PUBCHEM_XLOGP3_AA>
4.2

> <PUBCHEM_EXACT_MASS>
374.282095

> <PUBCHEM_MOLECULAR_FORMULA>
C24H38O3

> <PUBCHEM_MOLECULAR_WEIGHT>
374.55672

> <PUBCHEM_OPENEYE_CAN_SMILES>
CC1(C2CCC3=C(C2(CCC1O)C)CCC4(C3(CCC4C(=O)CO)C)C)C

> <PUBCHEM_OPENEYE_ISO_SMILES>
C[C@]12CCC3=C([C@@]1(CC[C@@H]2C(=O)CO)C)CC[C@@H]4[C@@]3(CC[C@@H](C4(C)C)O)C

> <PUBCHEM_CACTVS_TPSA>
57.5

> <PUBCHEM_MONOISOTOPIC_WEIGHT>
374.282095

> <PUBCHEM_TOTAL_CHARGE>
0

> <PUBCHEM_HEAVY_ATOM_COUNT>
27

> <PUBCHEM_ATOM_DEF_STEREO_COUNT>
6

> <PUBCHEM_ATOM_UDEF_STEREO_COUNT>
0

> <PUBCHEM_BOND_DEF_STEREO_COUNT>
0

> <PUBCHEM_BOND_UDEF_STEREO_COUNT>
0

> <PUBCHEM_ISOTOPIC_ATOM_COUNT>
0

> <PUBCHEM_COMPONENT_COUNT>
1

> <PUBCHEM_CACTVS_TAUTO_COUNT>
4

> <PUBCHEM_COORDINATE_TYPE>
1
5
255

> <PUBCHEM_BONDANNOTATIONS>
20  1  5
10  24  5
4  19  6
5  21  5
6  23  5
7  28  6

$$$$

