440218
  -OEChem-07051212493D

 51 54  0     1  0  0  0  0  0999 V2000
   -4.5409    1.2605    1.5837 O   0  0  0  0  0  0  0  0  0  0  0  0
    5.7993    0.4500    1.3897 O   0  0  0  0  0  0  0  0  0  0  0  0
   -2.3949   -0.0172   -0.5278 C   0  0  1  0  0  0  0  0  0  0  0  0
   -1.5287   -1.2733   -0.3042 C   0  0  1  0  0  0  0  0  0  0  0  0
   -0.0410   -1.0855   -0.6842 C   0  0  1  0  0  0  0  0  0  0  0  0
   -3.7209   -0.4524    0.1397 C   0  0  1  0  0  0  0  0  0  0  0  0
   -1.8286   -1.6354    1.1584 C   0  0  0  0  0  0  0  0  0  0  0  0
    0.5495    0.2869   -0.3677 C   0  0  0  0  0  0  0  0  0  0  0  0
   -1.7494    1.2040    0.1721 C   0  0  0  0  0  0  0  0  0  0  0  0
   -3.3035   -1.2751    1.3657 C   0  0  0  0  0  0  0  0  0  0  0  0
    2.0802    0.4662   -0.5912 C   0  0  2  0  0  0  0  0  0  0  0  0
    0.8159   -2.2170   -0.0978 C   0  0  0  0  0  0  0  0  0  0  0  0
   -2.5997    0.2737   -2.0229 C   0  0  0  0  0  0  0  0  0  0  0  0
   -0.2602    1.2938    0.0189 C   0  0  0  0  0  0  0  0  0  0  0  0
    2.2540   -2.1236   -0.5822 C   0  0  0  0  0  0  0  0  0  0  0  0
    2.8595   -0.7972   -0.1944 C   0  0  0  0  0  0  0  0  0  0  0  0
    2.6364    1.6813    0.2123 C   0  0  0  0  0  0  0  0  0  0  0  0
   -4.6240    0.6882    0.4980 C   0  0  0  0  0  0  0  0  0  0  0  0
    2.3028    0.7231   -2.1007 C   0  0  0  0  0  0  0  0  0  0  0  0
    4.1557    1.7597    0.2463 C   0  0  0  0  0  0  0  0  0  0  0  0
    4.0370   -0.7879    0.4536 C   0  0  0  0  0  0  0  0  0  0  0  0
    4.7372    0.4762    0.7713 C   0  0  0  0  0  0  0  0  0  0  0  0
   -5.6359    1.1010   -0.5363 C   0  0  0  0  0  0  0  0  0  0  0  0
   -1.9205   -2.0954   -0.9232 H   0  0  0  0  0  0  0  0  0  0  0  0
    0.0042   -1.1811   -1.7791 H   0  0  0  0  0  0  0  0  0  0  0  0
   -4.2744   -1.1294   -0.5254 H   0  0  0  0  0  0  0  0  0  0  0  0
   -1.2054   -1.0599    1.8525 H   0  0  0  0  0  0  0  0  0  0  0  0
   -1.6505   -2.6969    1.3605 H   0  0  0  0  0  0  0  0  0  0  0  0
   -1.9507    1.2036    1.2500 H   0  0  0  0  0  0  0  0  0  0  0  0
   -2.1956    2.1277   -0.2183 H   0  0  0  0  0  0  0  0  0  0  0  0
   -3.9100   -2.1872    1.4220 H   0  0  0  0  0  0  0  0  0  0  0  0
   -3.4308   -0.7582    2.3224 H   0  0  0  0  0  0  0  0  0  0  0  0
    0.4023   -3.1883   -0.3962 H   0  0  0  0  0  0  0  0  0  0  0  0
    0.8058   -2.1866    0.9993 H   0  0  0  0  0  0  0  0  0  0  0  0
   -3.2201    1.1599   -2.1814 H   0  0  0  0  0  0  0  0  0  0  0  0
   -1.6479    0.4563   -2.5327 H   0  0  0  0  0  0  0  0  0  0  0  0
   -3.0840   -0.5686   -2.5292 H   0  0  0  0  0  0  0  0  0  0  0  0
    0.1433    2.2782    0.2323 H   0  0  0  0  0  0  0  0  0  0  0  0
    2.2930   -2.2377   -1.6723 H   0  0  0  0  0  0  0  0  0  0  0  0
    2.8226   -2.9630   -0.1634 H   0  0  0  0  0  0  0  0  0  0  0  0
    2.2792    1.6258    1.2510 H   0  0  0  0  0  0  0  0  0  0  0  0
    2.2630    2.6260   -0.2029 H   0  0  0  0  0  0  0  0  0  0  0  0
    1.8277    1.6600   -2.4156 H   0  0  0  0  0  0  0  0  0  0  0  0
    3.3673    0.7936   -2.3505 H   0  0  0  0  0  0  0  0  0  0  0  0
    1.8839   -0.0757   -2.7234 H   0  0  0  0  0  0  0  0  0  0  0  0
    4.4566    2.5753    0.9134 H   0  0  0  0  0  0  0  0  0  0  0  0
    4.5767    1.9584   -0.7440 H   0  0  0  0  0  0  0  0  0  0  0  0
    4.5478   -1.7055    0.7261 H   0  0  0  0  0  0  0  0  0  0  0  0
   -5.1719    1.7556   -1.2755 H   0  0  0  0  0  0  0  0  0  0  0  0
   -6.0654    0.2226   -1.0241 H   0  0  0  0  0  0  0  0  0  0  0  0
   -6.4494    1.6432   -0.0452 H   0  0  0  0  0  0  0  0  0  0  0  0
  1 18  2  0  0  0  0
  2 22  2  0  0  0  0
  3  4  1  0  0  0  0
  3  6  1  0  0  0  0
  3  9  1  0  0  0  0
  3 13  1  0  0  0  0
  4  5  1  0  0  0  0
  4  7  1  0  0  0  0
  4 24  1  0  0  0  0
  5  8  1  0  0  0  0
  5 12  1  0  0  0  0
  5 25  1  0  0  0  0
  6 10  1  0  0  0  0
  6 18  1  0  0  0  0
  6 26  1  0  0  0  0
  7 10  1  0  0  0  0
  7 27  1  0  0  0  0
  7 28  1  0  0  0  0
  8 11  1  0  0  0  0
  8 14  2  0  0  0  0
  9 14  1  0  0  0  0
  9 29  1  0  0  0  0
  9 30  1  0  0  0  0
 10 31  1  0  0  0  0
 10 32  1  0  0  0  0
 11 16  1  0  0  0  0
 11 17  1  0  0  0  0
 11 19  1  0  0  0  0
 12 15  1  0  0  0  0
 12 33  1  0  0  0  0
 12 34  1  0  0  0  0
 13 35  1  0  0  0  0
 13 36  1  0  0  0  0
 13 37  1  0  0  0  0
 14 38  1  0  0  0  0
 15 16  1  0  0  0  0
 15 39  1  0  0  0  0
 15 40  1  0  0  0  0
 16 21  2  0  0  0  0
 17 20  1  0  0  0  0
 17 41  1  0  0  0  0
 17 42  1  0  0  0  0
 18 23  1  0  0  0  0
 19 43  1  0  0  0  0
 19 44  1  0  0  0  0
 19 45  1  0  0  0  0
 20 22  1  0  0  0  0
 20 46  1  0  0  0  0
 20 47  1  0  0  0  0
 21 22  1  0  0  0  0
 21 48  1  0  0  0  0
 23 49  1  0  0  0  0
 23 50  1  0  0  0  0
 23 51  1  0  0  0  0
M  END
> <PUBCHEM_COMPOUND_CID>
440218

> <PUBCHEM_CONFORMER_RMSD>
0.6

> <PUBCHEM_CONFORMER_DIVERSEORDER>
2
19
30
16
25
6
23
8
14
33
9
4
29
27
3
13
24
32
21
28
17
18
26
20
1
12
7
10
15
22
11
31
5

> <PUBCHEM_MMFF94_PARTIAL_CHARGES>
17
1 -0.57
11 0.28
14 -0.29
15 0.14
16 -0.28
18 0.45
2 -0.57
20 0.06
21 -0.14
22 0.49
23 0.06
38 0.15
48 0.15
5 0.14
6 0.06
8 -0.28
9 0.14

> <PUBCHEM_EFFECTIVE_ROTOR_COUNT>
2.6

> <PUBCHEM_PHARMACOPHORE_FEATURES>
6
1 1 acceptor
1 2 acceptor
5 3 4 6 7 10 rings
6 11 16 17 20 21 22 rings
6 3 4 5 8 9 14 rings
6 5 8 11 12 15 16 rings

> <PUBCHEM_HEAVY_ATOM_COUNT>
23

> <PUBCHEM_ATOM_DEF_STEREO_COUNT>
2

> <PUBCHEM_ATOM_UDEF_STEREO_COUNT>
3

> <PUBCHEM_BOND_DEF_STEREO_COUNT>
0

> <PUBCHEM_BOND_UDEF_STEREO_COUNT>
0

> <PUBCHEM_ISOTOPIC_ATOM_COUNT>
0

> <PUBCHEM_COMPONENT_COUNT>
1

> <PUBCHEM_CACTVS_TAUTO_COUNT>
15

> <PUBCHEM_CONFORMER_ID>
0006B79A00000002

> <PUBCHEM_MMFF94_ENERGY>
60.1653

> <PUBCHEM_FEATURE_SELFOVERLAP>
30.644

> <PUBCHEM_SHAPE_FINGERPRINT>
10498660 4 5111737820782213739
11089746 13 17385448713057576856
11132069 177 18202275905790708671
11961588 58 13984674628829751018
12236239 1 17458069291672174711
12403259 415 18202005468658390196
12403260 363 18192722132934221502
12403814 3 17561082480291373711
12633257 1 17561079181192143523
13140716 1 18268711619339605264
13224815 77 18409162195052164694
13583140 156 17131012930623570062
13675066 3 18272930518269300759
14178342 30 18340199687797695595
14251764 30 13326305826730077128
14341114 176 17917710219100468024
14350574 20 9871746909882189225
14790565 3 18052245203514012708
15142383 8 15338848593863213103
15163728 17 15503758910476168393
15196674 1 18410291389193804338
15238133 3 18339347656280243213
15375358 24 18411416215654092179
16945 1 18334006186069402238
17349148 13 18343027687364512300
17980427 23 18200317606830443700
1813 80 13614247031139261506
18222031 100 10807933717820315621
19784866 170 18411975854129595556
19784866 9 18410012143510634570
200 152 18186527587971967167
20157964 124 18334577992777845397
20511986 3 17822874064065743293
20715895 44 18201162173647938005
21033648 29 17986978343153940948
21452121 103 18261392286487346682
21756936 100 17826799132184528580
21859007 373 17344927410480781509
22182313 1 17986961940594067071
23402539 116 17967823716894976116
23503953 91 17988920046343951389
23557571 272 16443635575461233294
23559900 14 18128802200605690990
26918003 58 18272091590939603296
296302 2 18260548917818417659
335352 9 18408604777776393110
34797466 226 14779550032716804617
34934 24 17967818258059952293
350125 39 18411976992765687484
4340502 62 18271800251140308643
474 4 18333733502785023840
495365 180 18260554437046578395
5104073 3 18343016657877927891
633830 44 18186796951014380780
6786 2 5665324789054600094
9709674 26 18410851083641383535

> <PUBCHEM_SHAPE_MULTIPOLES>
461.59
10.63
2
1.41
0.4
0.56
-0.33
-3.72
3.55
-0.44
0.13
0.25
-0.15
0.48

> <PUBCHEM_SHAPE_SELFOVERLAP>
995.491

> <PUBCHEM_SHAPE_VOLUME>
251.7

> <PUBCHEM_COORDINATE_TYPE>
2
5
10

$$$$

