1489
  -OEChem-07051213053D

 25 25  0     0  0  0  0  0  0999 V2000
    1.2354   -2.6370   -0.0739 Cl  0  0  0  0  0  0  0  0  0  0  0  0
    5.5119    0.5302   -0.9066 Cl  0  0  0  0  0  0  0  0  0  0  0  0
   -0.0086   -0.1165    0.9919 O   0  0  0  0  0  0  0  0  0  0  0  0
   -5.7474    0.7964   -0.8650 O   0  0  0  0  0  0  0  0  0  0  0  0
   -4.9548   -1.0764    0.1460 O   0  0  0  0  0  0  0  0  0  0  0  0
   -2.3385   -0.0380    0.3737 C   0  0  0  0  0  0  0  0  0  0  0  0
   -0.9945    0.6789    0.3495 C   0  0  0  0  0  0  0  0  0  0  0  0
   -3.4453    0.7835   -0.2897 C   0  0  0  0  0  0  0  0  0  0  0  0
    1.2801    0.0121    0.5421 C   0  0  0  0  0  0  0  0  0  0  0  0
   -4.7661    0.0485   -0.2956 C   0  0  0  0  0  0  0  0  0  0  0  0
    1.9700   -1.0791    0.0246 C   0  0  0  0  0  0  0  0  0  0  0  0
    1.8862    1.2621    0.6154 C   0  0  0  0  0  0  0  0  0  0  0  0
    3.2806   -0.9189   -0.4247 C   0  0  0  0  0  0  0  0  0  0  0  0
    3.1969    1.4223    0.1661 C   0  0  0  0  0  0  0  0  0  0  0  0
    3.8942    0.3319   -0.3539 C   0  0  0  0  0  0  0  0  0  0  0  0
   -2.6096   -0.2703    1.4117 H   0  0  0  0  0  0  0  0  0  0  0  0
   -2.2370   -1.0109   -0.1243 H   0  0  0  0  0  0  0  0  0  0  0  0
   -1.0739    1.6351    0.8796 H   0  0  0  0  0  0  0  0  0  0  0  0
   -0.7137    0.8830   -0.6921 H   0  0  0  0  0  0  0  0  0  0  0  0
   -3.1737    1.0014   -1.3284 H   0  0  0  0  0  0  0  0  0  0  0  0
   -3.5799    1.7266    0.2510 H   0  0  0  0  0  0  0  0  0  0  0  0
    1.3593    2.1184    1.0268 H   0  0  0  0  0  0  0  0  0  0  0  0
    3.8258   -1.7687   -0.8303 H   0  0  0  0  0  0  0  0  0  0  0  0
    3.6631    2.4022    0.2295 H   0  0  0  0  0  0  0  0  0  0  0  0
   -6.6077    0.3249   -0.8736 H   0  0  0  0  0  0  0  0  0  0  0  0
  1 11  1  0  0  0  0
  2 15  1  0  0  0  0
  3  7  1  0  0  0  0
  3  9  1  0  0  0  0
  4 10  1  0  0  0  0
  4 25  1  0  0  0  0
  5 10  2  0  0  0  0
  6  7  1  0  0  0  0
  6  8  1  0  0  0  0
  6 16  1  0  0  0  0
  6 17  1  0  0  0  0
  7 18  1  0  0  0  0
  7 19  1  0  0  0  0
  8 10  1  0  0  0  0
  8 20  1  0  0  0  0
  8 21  1  0  0  0  0
  9 11  2  0  0  0  0
  9 12  1  0  0  0  0
 11 13  1  0  0  0  0
 12 14  2  0  0  0  0
 12 22  1  0  0  0  0
 13 15  2  0  0  0  0
 13 23  1  0  0  0  0
 14 15  1  0  0  0  0
 14 24  1  0  0  0  0
M  END
> <PUBCHEM_COMPOUND_CID>
1489

> <PUBCHEM_CONFORMER_RMSD>
0.6

> <PUBCHEM_CONFORMER_DIVERSEORDER>
1
171
81
136
84
21
167
45
7
52
153
68
163
132
106
134
100
152
172
118
127
42
156
111
144
35
98
129
146
34
169
66
155
91
19
143
131
166
115
107
10
138
73
135
160
72
79
130
12
56
145
133
140
128
159
147
88
53
61
50
116
58
51
2
117
85
150
15
108
96
101
82
123
137
36
162
148
158
30
86
170
27
44
71
60
33
22
20
120
63
76
49
139
92
157
126
43
40
95
70
80
69
168
6
165
97
23
38
59
121
8
149
110
161
109
83
67
114
28
105
99
25
9
64
124
26
112
14
113
32
11
119
24
17
62
103
89
16
151
141
65
74
3
154
164
125
46
55
37
18
122
78
47
77
13
142
39
90
5
93
54
94
31
4
57
75
41
48
87
104
102
29

> <PUBCHEM_MMFF94_PARTIAL_CHARGES>
18
1 -0.18
10 0.66
11 0.18
12 -0.15
13 -0.15
14 -0.15
15 0.18
2 -0.18
22 0.15
23 0.15
24 0.15
25 0.5
3 -0.36
4 -0.65
5 -0.57
7 0.28
8 0.06
9 0.08

> <PUBCHEM_EFFECTIVE_ROTOR_COUNT>
5

> <PUBCHEM_PHARMACOPHORE_FEATURES>
5
1 3 acceptor
1 4 acceptor
1 5 acceptor
3 4 5 10 anion
6 9 11 12 13 14 15 rings

> <PUBCHEM_HEAVY_ATOM_COUNT>
15

> <PUBCHEM_ATOM_DEF_STEREO_COUNT>
0

> <PUBCHEM_ATOM_UDEF_STEREO_COUNT>
0

> <PUBCHEM_BOND_DEF_STEREO_COUNT>
0

> <PUBCHEM_BOND_UDEF_STEREO_COUNT>
0

> <PUBCHEM_ISOTOPIC_ATOM_COUNT>
0

> <PUBCHEM_COMPONENT_COUNT>
1

> <PUBCHEM_CACTVS_TAUTO_COUNT>
1

> <PUBCHEM_CONFORMER_ID>
000005D100000001

> <PUBCHEM_MMFF94_ENERGY>
32.7327

> <PUBCHEM_FEATURE_SELFOVERLAP>
25.43

> <PUBCHEM_SHAPE_FINGERPRINT>
10693767 8 17968373580553156398
11089746 13 14476960043443641118
114248 4 18412824677069380313
11471102 20 18409447003271598152
12251169 10 10231751184581351528
12507557 5 10447930572940476943
12616999 72 18411138060576435530
12714333 28 17989487420098058316
12730499 353 18342451547846346939
13675066 3 8070025580205755273
13836976 161 18408881824319834334
14251717 144 18335420196661512298
14251718 22 18272649026429141117
14576447 43 18040154032839916998
14911166 2 18334005082816467412
15048467 5 14476954555145408532
15188451 53 6410997769875609189
15885798 251 8070036557804735522
17834072 33 18334297548255734069
19784866 140 17531240694914793568
200 152 18040150729809716993
20645477 70 18336264647187647655
21054139 6 18334865969618273695
21618674 57 6266903467476192263
21637258 2 15430033314196217716
22289505 5 18270690869039889749
23402539 116 17418375766093805230
23402655 69 18409730685756068737
23557571 272 17632299020874865069
23559900 14 18409453561687003633
23590187 302 18040719168620702680
2871803 45 18335137626315023932
29717793 49 17022897969107050221
3060560 45 18408604760348376518
33382 64 14635415152880340508
33824 294 18410013251776006394
4072396 5 18342750632747906674
42 15 7420947577855473433
4463277 17 9295287240686146754
4990 188 17967525779276783036
522135 26 18260552242202141617
9971528 1 12463578404155570410

> <PUBCHEM_SHAPE_MULTIPOLES>
294.82
11.86
1.72
0.85
12.29
1.15
-0.02
-2.33
-4.24
-0.99
0.03
-0.13
-0.1
0.3

> <PUBCHEM_SHAPE_SELFOVERLAP>
583.334

> <PUBCHEM_SHAPE_VOLUME>
176.9

> <PUBCHEM_COORDINATE_TYPE>
2
5
10

$$$$

