342737
  -OEChem-07051213002D

 57 61  0     1  0  0  0  0  0999 V2000
    8.7180   -1.0304    0.0000 O   0  0  0  0  0  0  0  0  0  0  0  0
    6.4375    1.0229    0.0000 O   0  0  0  0  0  0  0  0  0  0  0  0
   12.3668    0.1594    0.0000 O   0  0  0  0  0  0  0  0  0  0  0  0
   12.3668    1.7688    0.0000 O   0  0  0  0  0  0  0  0  0  0  0  0
   10.5545    2.9641    0.0000 O   0  0  0  0  0  0  0  0  0  0  0  0
    4.5955   -2.9626    0.0000 O   0  0  0  0  0  0  0  0  0  0  0  0
    2.8686    0.0404    0.0000 O   0  0  0  0  0  0  0  0  0  0  0  0
    2.8652   -1.9596    0.0000 O   0  0  0  0  0  0  0  0  0  0  0  0
    7.9089    0.3708    0.0000 C   0  0  1  0  0  0  0  0  0  0  0  0
    7.2398   -0.3723    0.0000 C   0  0  1  0  0  0  0  0  0  0  0  0
    8.8225   -0.0359    0.0000 C   0  0  1  0  0  0  0  0  0  0  0  0
    6.3327    0.0344    0.0000 C   0  0  1  0  0  0  0  0  0  0  0  0
    7.7398   -1.2383    0.0000 C   0  0  0  0  0  0  0  0  0  0  0  0
    7.4097    1.2304    0.0000 C   0  0  0  0  0  0  0  0  0  0  0  0
    9.6885    0.4641    0.0000 C   0  0  0  0  0  0  0  0  0  0  0  0
    5.4658   -0.4641    0.0000 C   0  0  0  0  0  0  0  0  0  0  0  0
   10.5545   -0.0359    0.0000 C   0  0  0  0  0  0  0  0  0  0  0  0
    9.6885    1.4641    0.0000 C   0  0  0  0  0  0  0  0  0  0  0  0
    4.6007    0.0374    0.0000 C   0  0  0  0  0  0  0  0  0  0  0  0
    5.4641   -1.4641    0.0000 C   0  0  0  0  0  0  0  0  0  0  0  0
   11.4206    0.4641    0.0000 C   0  0  0  0  0  0  0  0  0  0  0  0
   10.5545    1.9641    0.0000 C   0  0  0  0  0  0  0  0  0  0  0  0
    4.5972   -1.9626    0.0000 C   0  0  0  0  0  0  0  0  0  0  0  0
    3.7338   -0.4611    0.0000 C   0  0  0  0  0  0  0  0  0  0  0  0
   11.4206    1.4641    0.0000 C   0  0  0  0  0  0  0  0  0  0  0  0
    3.7320   -1.4611    0.0000 C   0  0  0  0  0  0  0  0  0  0  0  0
   12.9504    0.9641    0.0000 C   0  0  0  0  0  0  0  0  0  0  0  0
   11.4206    3.4641    0.0000 C   0  0  0  0  0  0  0  0  0  0  0  0
    5.4606   -3.4641    0.0000 C   0  0  0  0  0  0  0  0  0  0  0  0
    2.8704    1.0404    0.0000 C   0  0  0  0  0  0  0  0  0  0  0  0
    2.0000   -1.4581    0.0000 C   0  0  0  0  0  0  0  0  0  0  0  0
    8.4769    1.0033    0.0000 H   0  0  0  0  0  0  0  0  0  0  0  0
    6.6702   -1.0032    0.0000 H   0  0  0  0  0  0  0  0  0  0  0  0
    9.3424   -0.3736    0.0000 H   0  0  0  0  0  0  0  0  0  0  0  0
    5.8132    0.3727    0.0000 H   0  0  0  0  0  0  0  0  0  0  0  0
    7.1734   -1.4905    0.0000 H   0  0  0  0  0  0  0  0  0  0  0  0
    7.9314   -1.8280    0.0000 H   0  0  0  0  0  0  0  0  0  0  0  0
    7.9756    1.4838    0.0000 H   0  0  0  0  0  0  0  0  0  0  0  0
    7.2172    1.8198    0.0000 H   0  0  0  0  0  0  0  0  0  0  0  0
   10.5545   -0.6559    0.0000 H   0  0  0  0  0  0  0  0  0  0  0  0
    9.1516    1.7741    0.0000 H   0  0  0  0  0  0  0  0  0  0  0  0
    4.6017    0.6574    0.0000 H   0  0  0  0  0  0  0  0  0  0  0  0
    6.0005   -1.7750    0.0000 H   0  0  0  0  0  0  0  0  0  0  0  0
   13.4113    0.5494    0.0000 H   0  0  0  0  0  0  0  0  0  0  0  0
   13.4113    1.3788    0.0000 H   0  0  0  0  0  0  0  0  0  0  0  0
   11.7306    2.9272    0.0000 H   0  0  0  0  0  0  0  0  0  0  0  0
   11.9575    3.7741    0.0000 H   0  0  0  0  0  0  0  0  0  0  0  0
   11.1106    4.0010    0.0000 H   0  0  0  0  0  0  0  0  0  0  0  0
    5.1497   -4.0005    0.0000 H   0  0  0  0  0  0  0  0  0  0  0  0
    5.9970   -3.7750    0.0000 H   0  0  0  0  0  0  0  0  0  0  0  0
    5.7716   -2.9277    0.0000 H   0  0  0  0  0  0  0  0  0  0  0  0
    3.4904    1.0393    0.0000 H   0  0  0  0  0  0  0  0  0  0  0  0
    2.8714    1.6604    0.0000 H   0  0  0  0  0  0  0  0  0  0  0  0
    2.2504    1.0414    0.0000 H   0  0  0  0  0  0  0  0  0  0  0  0
    2.3109   -0.9217    0.0000 H   0  0  0  0  0  0  0  0  0  0  0  0
    1.4636   -1.1472    0.0000 H   0  0  0  0  0  0  0  0  0  0  0  0
    1.6891   -1.9945    0.0000 H   0  0  0  0  0  0  0  0  0  0  0  0
  1 11  1  0  0  0  0
  1 13  1  0  0  0  0
  2 12  1  0  0  0  0
  2 14  1  0  0  0  0
  3 21  1  0  0  0  0
  3 27  1  0  0  0  0
  4 25  1  0  0  0  0
  4 27  1  0  0  0  0
  5 22  1  0  0  0  0
  5 28  1  0  0  0  0
  6 23  1  0  0  0  0
  6 29  1  0  0  0  0
  7 24  1  0  0  0  0
  7 30  1  0  0  0  0
  8 26  1  0  0  0  0
  8 31  1  0  0  0  0
  9 10  1  0  0  0  0
  9 11  1  0  0  0  0
  9 14  1  0  0  0  0
  9 32  1  1  0  0  0
 10 12  1  0  0  0  0
 10 13  1  0  0  0  0
 10 33  1  1  0  0  0
 11 15  1  1  0  0  0
 11 34  1  0  0  0  0
 12 16  1  1  0  0  0
 12 35  1  0  0  0  0
 13 36  1  0  0  0  0
 13 37  1  0  0  0  0
 14 38  1  0  0  0  0
 14 39  1  0  0  0  0
 15 17  2  0  0  0  0
 15 18  1  0  0  0  0
 16 19  2  0  0  0  0
 16 20  1  0  0  0  0
 17 21  1  0  0  0  0
 17 40  1  0  0  0  0
 18 22  2  0  0  0  0
 18 41  1  0  0  0  0
 19 24  1  0  0  0  0
 19 42  1  0  0  0  0
 20 23  2  0  0  0  0
 20 43  1  0  0  0  0
 21 25  2  0  0  0  0
 22 25  1  0  0  0  0
 23 26  1  0  0  0  0
 24 26  2  0  0  0  0
 27 44  1  0  0  0  0
 27 45  1  0  0  0  0
 28 46  1  0  0  0  0
 28 47  1  0  0  0  0
 28 48  1  0  0  0  0
 29 49  1  0  0  0  0
 29 50  1  0  0  0  0
 29 51  1  0  0  0  0
 30 52  1  0  0  0  0
 30 53  1  0  0  0  0
 30 54  1  0  0  0  0
 31 55  1  0  0  0  0
 31 56  1  0  0  0  0
 31 57  1  0  0  0  0
M  END
> <PUBCHEM_COMPOUND_CID>
342737

> <PUBCHEM_COMPOUND_CANONICALIZED>
1

> <PUBCHEM_CACTVS_COMPLEXITY>
590

> <PUBCHEM_CACTVS_HBOND_ACCEPTOR>
8

> <PUBCHEM_CACTVS_HBOND_DONOR>
0

> <PUBCHEM_CACTVS_ROTATABLE_BOND>
6

> <PUBCHEM_CACTVS_SUBSKEYS>
AAADceB4PAAAAAAAAAAAAAAAAAAAASJEgAAwYAAAAAASAEgBQAAAGgAAAAAADRSgmAMyDoAABACAAiBCAAACCAAgIAAAiAAGiIgdJyKEMRqiMCIlwBUOqAfA4PwOoAABCAAAQABAAAIQAACAAAAAAAAAAA==

> <PUBCHEM_IUPAC_OPENEYE_NAME>
6-[(3S,3aR,6S,6aR)-6-(3,4,5-trimethoxyphenyl)-1,3,3a,4,6,6a-hexahydrofuro[3,4-c]furan-3-yl]-4-methoxy-1,3-benzodioxole

> <PUBCHEM_IUPAC_CAS_NAME>
6-[(3S,3aR,6S,6aR)-6-(3,4,5-trimethoxyphenyl)-1,3,3a,4,6,6a-hexahydrofuro[3,4-c]furan-3-yl]-4-methoxy-1,3-benzodioxole

> <PUBCHEM_IUPAC_NAME>
6-[(3S,3aR,6S,6aR)-6-(3,4,5-trimethoxyphenyl)-1,3,3a,4,6,6a-hexahydrofuro[3,4-c]furan-3-yl]-4-methoxy-1,3-benzodioxole

> <PUBCHEM_IUPAC_SYSTEMATIC_NAME>
6-[(3S,3aR,6S,6aR)-6-(3,4,5-trimethoxyphenyl)-1,3,3a,4,6,6a-hexahydrofuro[3,4-c]furan-3-yl]-4-methoxy-1,3-benzodioxole

> <PUBCHEM_IUPAC_TRADITIONAL_NAME>
6-[(3S,3aR,6S,6aR)-6-(3,4,5-trimethoxyphenyl)-1,3,3a,4,6,6a-hexahydrofuro[3,4-c]furan-3-yl]-4-methoxy-1,3-benzodioxole

> <PUBCHEM_IUPAC_INCHI>
InChI=1S/C23H26O8/c1-24-16-5-12(6-17(25-2)22(16)27-4)20-14-9-29-21(15(14)10-28-20)13-7-18(26-3)23-19(8-13)30-11-31-23/h5-8,14-15,20-21H,9-11H2,1-4H3/t14-,15-,20+,21+/m0/s1

> <PUBCHEM_IUPAC_INCHIKEY>
DHWUVPPRBIJJKS-VUEDXXQZSA-N

> <PUBCHEM_XLOGP3_AA>
2.7

> <PUBCHEM_EXACT_MASS>
430.162768

> <PUBCHEM_MOLECULAR_FORMULA>
C23H26O8

> <PUBCHEM_MOLECULAR_WEIGHT>
430.44774

> <PUBCHEM_OPENEYE_CAN_SMILES>
COC1=CC(=CC2=C1OCO2)C3C4COC(C4CO3)C5=CC(=C(C(=C5)OC)OC)OC

> <PUBCHEM_OPENEYE_ISO_SMILES>
COC1=CC(=CC2=C1OCO2)[C@@H]3[C@H]4CO[C@@H]([C@H]4CO3)C5=CC(=C(C(=C5)OC)OC)OC

> <PUBCHEM_CACTVS_TPSA>
73.8

> <PUBCHEM_MONOISOTOPIC_WEIGHT>
430.162768

> <PUBCHEM_TOTAL_CHARGE>
0

> <PUBCHEM_HEAVY_ATOM_COUNT>
31

> <PUBCHEM_ATOM_DEF_STEREO_COUNT>
4

> <PUBCHEM_ATOM_UDEF_STEREO_COUNT>
0

> <PUBCHEM_BOND_DEF_STEREO_COUNT>
0

> <PUBCHEM_BOND_UDEF_STEREO_COUNT>
0

> <PUBCHEM_ISOTOPIC_ATOM_COUNT>
0

> <PUBCHEM_COMPONENT_COUNT>
1

> <PUBCHEM_CACTVS_TAUTO_COUNT>
1

> <PUBCHEM_COORDINATE_TYPE>
1
5
255

> <PUBCHEM_BONDANNOTATIONS>
10  33  5
11  15  5
12  16  5
15  17  8
15  18  8
16  19  8
16  20  8
17  21  8
18  22  8
19  24  8
20  23  8
21  25  8
22  25  8
23  26  8
24  26  8
9  32  5

$$$$

