440256
  -OEChem-07051212493D

 31 31  0     1  0  0  0  0  0999 V2000
    4.3201   -0.0483   -0.7006 S   0  0  0  0  0  0  0  0  0  0  0  0
   -4.3660   -1.1754   -0.3309 O   0  0  0  0  0  0  0  0  0  0  0  0
    3.5494   -0.2981    0.7302 O   0  0  0  0  0  0  0  0  0  0  0  0
   -5.0732    1.0049   -0.5818 O   0  0  0  0  0  0  0  0  0  0  0  0
    5.8797   -0.3996   -0.3705 O   0  0  0  0  0  0  0  0  0  0  0  0
    3.8406   -1.0156   -1.6705 O   0  0  0  0  0  0  0  0  0  0  0  0
    4.2493    1.3708   -0.9972 O   0  0  0  0  0  0  0  0  0  0  0  0
   -2.5588    1.9203   -0.6837 N   0  0  0  0  0  0  0  0  0  0  0  0
   -2.0731    0.1324    0.9201 C   0  0  0  0  0  0  0  0  0  0  0  0
   -2.6962    0.4836   -0.4377 C   0  0  1  0  0  0  0  0  0  0  0  0
   -0.5678    0.0167    0.8694 C   0  0  0  0  0  0  0  0  0  0  0  0
    0.0096   -1.2106    0.5873 C   0  0  0  0  0  0  0  0  0  0  0  0
    0.2064    1.1410    1.1054 C   0  0  0  0  0  0  0  0  0  0  0  0
   -4.1835    0.1735   -0.4525 C   0  0  0  0  0  0  0  0  0  0  0  0
    1.3996   -1.3166    0.5402 C   0  0  0  0  0  0  0  0  0  0  0  0
    1.5965    1.0350    1.0581 C   0  0  0  0  0  0  0  0  0  0  0  0
    2.1931   -0.1938    0.7756 C   0  0  0  0  0  0  0  0  0  0  0  0
   -5.7257   -1.6201   -0.3612 C   0  0  0  0  0  0  0  0  0  0  0  0
   -2.4759   -0.8178    1.2963 H   0  0  0  0  0  0  0  0  0  0  0  0
   -2.3646    0.8664    1.6850 H   0  0  0  0  0  0  0  0  0  0  0  0
   -2.2278   -0.0667   -1.2622 H   0  0  0  0  0  0  0  0  0  0  0  0
   -0.6002   -2.0898    0.4004 H   0  0  0  0  0  0  0  0  0  0  0  0
   -0.2464    2.1016    1.3327 H   0  0  0  0  0  0  0  0  0  0  0  0
    1.8575   -2.2774    0.3211 H   0  0  0  0  0  0  0  0  0  0  0  0
    2.2085    1.9130    1.2456 H   0  0  0  0  0  0  0  0  0  0  0  0
   -2.9572    2.1495   -1.5941 H   0  0  0  0  0  0  0  0  0  0  0  0
   -1.5723    2.1679   -0.7439 H   0  0  0  0  0  0  0  0  0  0  0  0
   -5.7300   -2.7083   -0.2558 H   0  0  0  0  0  0  0  0  0  0  0  0
   -6.1887   -1.3581   -1.3173 H   0  0  0  0  0  0  0  0  0  0  0  0
   -6.2851   -1.1845    0.4721 H   0  0  0  0  0  0  0  0  0  0  0  0
    6.2352    0.0005    0.4576 H   0  0  0  0  0  0  0  0  0  0  0  0
  1  3  1  0  0  0  0
  1  5  1  0  0  0  0
  1  6  2  0  0  0  0
  1  7  2  0  0  0  0
  2 14  1  0  0  0  0
  2 18  1  0  0  0  0
  3 17  1  0  0  0  0
  4 14  2  0  0  0  0
  5 31  1  0  0  0  0
  8 10  1  0  0  0  0
  8 26  1  0  0  0  0
  8 27  1  0  0  0  0
  9 10  1  0  0  0  0
  9 11  1  0  0  0  0
  9 19  1  0  0  0  0
  9 20  1  0  0  0  0
 10 14  1  0  0  0  0
 10 21  1  0  0  0  0
 11 12  2  0  0  0  0
 11 13  1  0  0  0  0
 12 15  1  0  0  0  0
 12 22  1  0  0  0  0
 13 16  2  0  0  0  0
 13 23  1  0  0  0  0
 15 17  2  0  0  0  0
 15 24  1  0  0  0  0
 16 17  1  0  0  0  0
 16 25  1  0  0  0  0
 18 28  1  0  0  0  0
 18 29  1  0  0  0  0
 18 30  1  0  0  0  0
M  END
> <PUBCHEM_COMPOUND_CID>
440256

> <PUBCHEM_CONFORMER_RMSD>
0.8

> <PUBCHEM_CONFORMER_DIVERSEORDER>
1
29
13
9
33
21
12
30
28
31
26
14
41
19
35
4
42
36
40
25
22
6
3
18
32
7
39
10
16
38
2
23
11
34
8
17
37
20
27
24
5
15

> <PUBCHEM_MMFF94_PARTIAL_CHARGES>
25
1 1.67
10 0.33
11 -0.14
12 -0.15
13 -0.15
14 0.66
15 -0.15
16 -0.15
17 0.08
18 0.28
2 -0.43
22 0.15
23 0.15
24 0.15
25 0.15
26 0.36
27 0.36
3 -0.27
31 0.5
4 -0.57
5 -0.68
6 -0.65
7 -0.65
8 -0.99
9 0.14

> <PUBCHEM_EFFECTIVE_ROTOR_COUNT>
6

> <PUBCHEM_PHARMACOPHORE_FEATURES>
8
1 4 acceptor
1 5 acceptor
1 6 acceptor
1 7 acceptor
1 8 cation
1 8 donor
4 1 5 6 7 anion
6 11 12 13 15 16 17 rings

> <PUBCHEM_HEAVY_ATOM_COUNT>
18

> <PUBCHEM_ATOM_DEF_STEREO_COUNT>
1

> <PUBCHEM_ATOM_UDEF_STEREO_COUNT>
0

> <PUBCHEM_BOND_DEF_STEREO_COUNT>
0

> <PUBCHEM_BOND_UDEF_STEREO_COUNT>
0

> <PUBCHEM_ISOTOPIC_ATOM_COUNT>
0

> <PUBCHEM_COMPONENT_COUNT>
1

> <PUBCHEM_CACTVS_TAUTO_COUNT>
1

> <PUBCHEM_CONFORMER_ID>
0006B7C000000001

> <PUBCHEM_MMFF94_ENERGY>
36.0332

> <PUBCHEM_FEATURE_SELFOVERLAP>
40.653

> <PUBCHEM_SHAPE_FINGERPRINT>
10498660 4 17846226604292031021
11089746 13 13830137165343834162
11128504 68 17917712379210542101
11543360 7 18272932730151006587
11796584 16 14707209928757323317
12251169 10 8646480830107505009
12616999 72 18341056288939110418
12670546 177 18408881815555806796
14251718 22 18409166588998789766
14251758 9 14851873786442191409
14251764 30 17458346295725379207
14251764 38 13830139407528280111
14350574 20 18040997315039794475
14455015 7 17022618671873625639
14528608 73 18060701667158028813
14911166 2 18335420171070855530
15142383 8 15285627829038323091
15375358 24 10735881694407666385
15885798 251 6194845873274954738
17834072 33 18060703883545782607
17844677 252 16877942724425434561
1813 80 15430027751823523560
18186145 218 18259993681721316473
193927 3 16588015805810325021
19784866 140 17749107824352067323
19784866 170 10447931680704156456
200 152 17095521803043017179
20112054 13 11887949951810020872
20300324 65 18273496788628236717
204376 136 14477239370889367713
20621476 21 17895186658944797975
20645477 70 17822295647576334586
20871999 31 18334010626965242401
21267235 1 18409449142814443843
212916 134 9511465498566689693
21637258 2 15430324680260921782
22854114 59 12463571789657988490
231179 274 14836405830618015996
23402539 116 17704078408274065403
23402655 69 18200321038662481609
23557571 272 18409728474159212773
23559900 14 17749398010055321696
2838139 119 16774076271944041972
33382 64 16370436761204658966
351380 3 14923944570039874812
42 15 5184347412807073377
474 4 15267334120257604836
4990 188 18260266356336170498
5924683 9 9943225027497673441

> <PUBCHEM_SHAPE_MULTIPOLES>
334.08
12.15
1.53
1.2
2.56
0.06
0.08
-2.64
5.31
0.93
0.14
-0.78
0.09
0.29

> <PUBCHEM_SHAPE_SELFOVERLAP>
673.744

> <PUBCHEM_SHAPE_VOLUME>
196.6

> <PUBCHEM_COORDINATE_TYPE>
2
5
10

$$$$

