17396091
  -OEChem-06241222542D

 43 45  0     0  0  0  0  0  0999 V2000
    3.8968   -0.1519    0.0000 S   0  0  0  0  0  0  0  0  0  0  0  0
    3.0878   -4.7397    0.0000 F   0  0  0  0  0  0  0  0  0  0  0  0
    3.7688    2.5217    0.0000 O   0  0  0  0  0  0  0  0  0  0  0  0
    5.1701    1.5036    0.0000 N   0  0  0  0  0  0  0  0  0  0  0  0
    2.2788   -0.1519    0.0000 N   0  0  0  0  0  0  0  0  0  0  0  0
    6.9334    3.9307    0.0000 N   0  0  0  0  0  0  0  0  0  0  0  0
    5.7579    2.3126    0.0000 C   0  0  0  0  0  0  0  0  0  0  0  0
    6.7524    2.2081    0.0000 C   0  0  0  0  0  0  0  0  0  0  0  0
    4.1756    1.6082    0.0000 C   0  0  0  0  0  0  0  0  0  0  0  0
    3.5878    0.7991    0.0000 C   0  0  0  0  0  0  0  0  0  0  0  0
    7.3402    3.0171    0.0000 C   0  0  0  0  0  0  0  0  0  0  0  0
    5.5768    0.5901    0.0000 C   0  0  0  0  0  0  0  0  0  0  0  0
    2.5878    0.7991    0.0000 C   0  0  0  0  0  0  0  0  0  0  0  0
    3.0878   -0.7397    0.0000 C   0  0  0  0  0  0  0  0  0  0  0  0
    3.0878   -1.7397    0.0000 C   0  0  0  0  0  0  0  0  0  0  0  0
    8.3347    2.9126    0.0000 C   0  0  0  0  0  0  0  0  0  0  0  0
    2.0000    1.6082    0.0000 C   0  0  0  0  0  0  0  0  0  0  0  0
    2.2218   -2.2397    0.0000 C   0  0  0  0  0  0  0  0  0  0  0  0
    3.9538   -2.2397    0.0000 C   0  0  0  0  0  0  0  0  0  0  0  0
    8.9225    3.7216    0.0000 C   0  0  0  0  0  0  0  0  0  0  0  0
    7.5212    4.7397    0.0000 C   0  0  0  0  0  0  0  0  0  0  0  0
    8.5158    4.6352    0.0000 C   0  0  0  0  0  0  0  0  0  0  0  0
    2.2218   -3.2397    0.0000 C   0  0  0  0  0  0  0  0  0  0  0  0
    3.9538   -3.2397    0.0000 C   0  0  0  0  0  0  0  0  0  0  0  0
    3.0878   -3.7397    0.0000 C   0  0  0  0  0  0  0  0  0  0  0  0
    5.9288    2.9086    0.0000 H   0  0  0  0  0  0  0  0  0  0  0  0
    5.2006    2.5844    0.0000 H   0  0  0  0  0  0  0  0  0  0  0  0
    6.5815    1.6121    0.0000 H   0  0  0  0  0  0  0  0  0  0  0  0
    7.3096    1.9363    0.0000 H   0  0  0  0  0  0  0  0  0  0  0  0
    5.0104    0.3379    0.0000 H   0  0  0  0  0  0  0  0  0  0  0  0
    5.8290    0.0237    0.0000 H   0  0  0  0  0  0  0  0  0  0  0  0
    6.1432    0.8423    0.0000 H   0  0  0  0  0  0  0  0  0  0  0  0
    8.5869    2.3462    0.0000 H   0  0  0  0  0  0  0  0  0  0  0  0
    2.5016    1.9726    0.0000 H   0  0  0  0  0  0  0  0  0  0  0  0
    1.6356    2.1098    0.0000 H   0  0  0  0  0  0  0  0  0  0  0  0
    1.4984    1.2437    0.0000 H   0  0  0  0  0  0  0  0  0  0  0  0
    1.6848   -1.9297    0.0000 H   0  0  0  0  0  0  0  0  0  0  0  0
    4.4908   -1.9297    0.0000 H   0  0  0  0  0  0  0  0  0  0  0  0
    9.5391    3.6568    0.0000 H   0  0  0  0  0  0  0  0  0  0  0  0
    7.2691    5.3061    0.0000 H   0  0  0  0  0  0  0  0  0  0  0  0
    8.8802    5.1368    0.0000 H   0  0  0  0  0  0  0  0  0  0  0  0
    1.6848   -3.5497    0.0000 H   0  0  0  0  0  0  0  0  0  0  0  0
    4.4908   -3.5497    0.0000 H   0  0  0  0  0  0  0  0  0  0  0  0
  1 10  1  0  0  0  0
  1 14  1  0  0  0  0
  2 25  1  0  0  0  0
  3  9  2  0  0  0  0
  4  7  1  0  0  0  0
  4  9  1  0  0  0  0
  4 12  1  0  0  0  0
  5 13  1  0  0  0  0
  5 14  2  0  0  0  0
  6 11  1  0  0  0  0
  6 21  2  0  0  0  0
  7  8  1  0  0  0  0
  7 26  1  0  0  0  0
  7 27  1  0  0  0  0
  8 11  1  0  0  0  0
  8 28  1  0  0  0  0
  8 29  1  0  0  0  0
  9 10  1  0  0  0  0
 10 13  2  0  0  0  0
 11 16  2  0  0  0  0
 12 30  1  0  0  0  0
 12 31  1  0  0  0  0
 12 32  1  0  0  0  0
 13 17  1  0  0  0  0
 14 15  1  0  0  0  0
 15 18  2  0  0  0  0
 15 19  1  0  0  0  0
 16 20  1  0  0  0  0
 16 33  1  0  0  0  0
 17 34  1  0  0  0  0
 17 35  1  0  0  0  0
 17 36  1  0  0  0  0
 18 23  1  0  0  0  0
 18 37  1  0  0  0  0
 19 24  2  0  0  0  0
 19 38  1  0  0  0  0
 20 22  2  0  0  0  0
 20 39  1  0  0  0  0
 21 22  1  0  0  0  0
 21 40  1  0  0  0  0
 22 41  1  0  0  0  0
 23 25  2  0  0  0  0
 23 42  1  0  0  0  0
 24 25  1  0  0  0  0
 24 43  1  0  0  0  0
M  END
> <PUBCHEM_COMPOUND_CID>
17396091

> <PUBCHEM_COMPOUND_CANONICALIZED>
1

> <PUBCHEM_CACTVS_COMPLEXITY>
444

> <PUBCHEM_CACTVS_HBOND_ACCEPTOR>
5

> <PUBCHEM_CACTVS_HBOND_DONOR>
0

> <PUBCHEM_CACTVS_ROTATABLE_BOND>
5

> <PUBCHEM_CACTVS_SUBSKEYS>
AAADceB7IQBAAAAAAAAAAAAAAAAAAWAAAAA8QAAAAAAAAAAB8AAAHwQAAAAADAjB3gw+gZMIEAisAzV3VACC8KB1CjgI2DU4ZNgIIPrg0ZGEIYhghgDoyUcQgAAOAAAAAAAAAAAAAAAAAAAAAAAAAAAAAA==

> <PUBCHEM_IUPAC_OPENEYE_NAME>
2-(4-fluorophenyl)-N,4-dimethyl-N-[2-(2-pyridyl)ethyl]thiazole-5-carboxamide

> <PUBCHEM_IUPAC_CAS_NAME>
2-(4-fluorophenyl)-N,4-dimethyl-N-[2-(2-pyridinyl)ethyl]-5-thiazolecarboxamide

> <PUBCHEM_IUPAC_NAME>
2-(4-fluorophenyl)-N,4-dimethyl-N-(2-pyridin-2-ylethyl)-1,3-thiazole-5-carboxamide

> <PUBCHEM_IUPAC_SYSTEMATIC_NAME>
2-(4-fluorophenyl)-N,4-dimethyl-N-(2-pyridin-2-ylethyl)-1,3-thiazole-5-carboxamide

> <PUBCHEM_IUPAC_TRADITIONAL_NAME>
2-(4-fluorophenyl)-N,4-dimethyl-N-[2-(2-pyridyl)ethyl]thiazole-5-carboxamide

> <PUBCHEM_IUPAC_INCHI>
InChI=1S/C19H18FN3OS/c1-13-17(25-18(22-13)14-6-8-15(20)9-7-14)19(24)23(2)12-10-16-5-3-4-11-21-16/h3-9,11H,10,12H2,1-2H3

> <PUBCHEM_IUPAC_INCHIKEY>
ZZBFCZSEYQVYAN-UHFFFAOYSA-N

> <PUBCHEM_XLOGP3_AA>
3.8

> <PUBCHEM_EXACT_MASS>
355.115461

> <PUBCHEM_MOLECULAR_FORMULA>
C19H18FN3OS

> <PUBCHEM_MOLECULAR_WEIGHT>
355.429123

> <PUBCHEM_OPENEYE_CAN_SMILES>
CC1=C(SC(=N1)C2=CC=C(C=C2)F)C(=O)N(C)CCC3=CC=CC=N3

> <PUBCHEM_OPENEYE_ISO_SMILES>
CC1=C(SC(=N1)C2=CC=C(C=C2)F)C(=O)N(C)CCC3=CC=CC=N3

> <PUBCHEM_CACTVS_TPSA>
74.3

> <PUBCHEM_MONOISOTOPIC_WEIGHT>
355.115461

> <PUBCHEM_TOTAL_CHARGE>
0

> <PUBCHEM_HEAVY_ATOM_COUNT>
25

> <PUBCHEM_ATOM_DEF_STEREO_COUNT>
0

> <PUBCHEM_ATOM_UDEF_STEREO_COUNT>
0

> <PUBCHEM_BOND_DEF_STEREO_COUNT>
0

> <PUBCHEM_BOND_UDEF_STEREO_COUNT>
0

> <PUBCHEM_ISOTOPIC_ATOM_COUNT>
0

> <PUBCHEM_COMPONENT_COUNT>
1

> <PUBCHEM_CACTVS_TAUTO_COUNT>
2

> <PUBCHEM_COORDINATE_TYPE>
1
5
255

> <PUBCHEM_BONDANNOTATIONS>
1  10  8
1  14  8
10  13  8
11  16  8
15  18  8
15  19  8
16  20  8
18  23  8
19  24  8
20  22  8
21  22  8
23  25  8
24  25  8
5  13  8
5  14  8
6  11  8
6  21  8

$$$$

