441869
  -OEChem-07051212562D

 84 89  0     1  0  0  0  0  0999 V2000
   11.3929   -1.3977    0.0000 O   0  0  0  0  0  0  0  0  0  0  0  0
    8.7351   -2.9461    0.0000 O   0  0  0  0  0  0  0  0  0  0  0  0
    8.7948    1.1023    0.0000 O   0  0  0  0  0  0  0  0  0  0  0  0
    7.8964    0.6021    0.0000 O   0  0  0  0  0  0  0  0  0  0  0  0
    5.9998   -2.4500    0.0000 O   0  0  0  0  0  0  0  0  0  0  0  0
   12.6526    3.4756    0.0000 O   0  0  0  0  0  0  0  0  0  0  0  0
    5.1396   -0.9467    0.0000 O   0  0  0  0  0  0  0  0  0  0  0  0
   14.4131    3.7513    0.0000 O   0  0  0  0  0  0  0  0  0  0  0  0
    4.2639   -3.4434    0.0000 O   0  0  0  0  0  0  0  0  0  0  0  0
    2.5357   -2.4367    0.0000 O   0  0  0  0  0  0  0  0  0  0  0  0
    2.5434   -0.4367    0.0000 O   0  0  0  0  0  0  0  0  0  0  0  0
    9.6608   -0.3977    0.0000 C   0  0  1  0  0  0  0  0  0  0  0  0
   10.5269   -0.8977    0.0000 C   0  0  2  0  0  0  0  0  0  0  0  0
   11.3929   -0.3977    0.0000 C   0  0  1  0  0  0  0  0  0  0  0  0
   11.3929    0.6023    0.0000 C   0  0  2  0  0  0  0  0  0  0  0  0
    8.7508   -0.9046    0.0000 C   0  0  2  0  0  0  0  0  0  0  0  0
    8.7428   -1.9462    0.0000 C   0  0  1  0  0  0  0  0  0  0  0  0
    9.6608    0.6023    0.0000 C   0  0  1  0  0  0  0  0  0  0  0  0
   10.5269    1.1023    0.0000 C   0  0  0  0  0  0  0  0  0  0  0  0
   12.3391    0.9070    0.0000 C   0  0  2  0  0  0  0  0  0  0  0  0
   10.5429   -1.9392    0.0000 C   0  0  0  0  0  0  0  0  0  0  0  0
   12.3391   -0.7024    0.0000 C   0  0  0  0  0  0  0  0  0  0  0  0
    9.6449   -2.4670    0.0000 C   0  0  0  0  0  0  0  0  0  0  0  0
   12.9227    0.1023    0.0000 C   0  0  0  0  0  0  0  0  0  0  0  0
    7.8240   -0.3405    0.0000 C   0  0  0  0  0  0  0  0  0  0  0  0
    7.8074   -2.4959    0.0000 C   0  0  0  0  0  0  0  0  0  0  0  0
   11.3929    1.6023    0.0000 C   0  0  0  0  0  0  0  0  0  0  0  0
    8.7586    0.0954    0.0000 C   0  0  0  0  0  0  0  0  0  0  0  0
    6.8761   -0.8684    0.0000 C   0  0  0  0  0  0  0  0  0  0  0  0
    6.8678   -1.9534    0.0000 C   0  0  2  0  0  0  0  0  0  0  0  0
   12.6498    1.8575    0.0000 C   0  0  0  0  0  0  0  0  0  0  0  0
   12.0634    2.6676    0.0000 C   0  0  0  0  0  0  0  0  0  0  0  0
   13.6014    2.1649    0.0000 C   0  0  0  0  0  0  0  0  0  0  0  0
    5.1357   -1.9467    0.0000 C   0  0  2  0  0  0  0  0  0  0  0  0
   13.6031    3.1649    0.0000 C   0  0  0  0  0  0  0  0  0  0  0  0
    4.2678   -2.4434    0.0000 C   0  0  1  0  0  0  0  0  0  0  0  0
    3.4037   -1.9400    0.0000 C   0  0  1  0  0  0  0  0  0  0  0  0
    4.2755   -0.4434    0.0000 C   0  0  2  0  0  0  0  0  0  0  0  0
    3.4075   -0.9400    0.0000 C   0  0  1  0  0  0  0  0  0  0  0  0
    4.2793    0.5566    0.0000 C   0  0  0  0  0  0  0  0  0  0  0  0
   10.3970    0.0273    0.0000 H   0  0  0  0  0  0  0  0  0  0  0  0
   11.2662   -1.3170    0.0000 H   0  0  0  0  0  0  0  0  0  0  0  0
    9.1239    0.2923    0.0000 H   0  0  0  0  0  0  0  0  0  0  0  0
   10.9254    1.5772    0.0000 H   0  0  0  0  0  0  0  0  0  0  0  0
   10.1283    1.5772    0.0000 H   0  0  0  0  0  0  0  0  0  0  0  0
   12.9516    1.0032    0.0000 H   0  0  0  0  0  0  0  0  0  0  0  0
   10.7610   -2.5196    0.0000 H   0  0  0  0  0  0  0  0  0  0  0  0
   11.1521   -1.8237    0.0000 H   0  0  0  0  0  0  0  0  0  0  0  0
   12.0881   -1.2694    0.0000 H   0  0  0  0  0  0  0  0  0  0  0  0
   12.8765   -1.0117    0.0000 H   0  0  0  0  0  0  0  0  0  0  0  0
    9.2476   -2.9430    0.0000 H   0  0  0  0  0  0  0  0  0  0  0  0
   10.0459   -2.9399    0.0000 H   0  0  0  0  0  0  0  0  0  0  0  0
   13.3836   -0.3124    0.0000 H   0  0  0  0  0  0  0  0  0  0  0  0
   13.3836    0.5170    0.0000 H   0  0  0  0  0  0  0  0  0  0  0  0
    8.2322    0.1262    0.0000 H   0  0  0  0  0  0  0  0  0  0  0  0
    7.4341    0.1416    0.0000 H   0  0  0  0  0  0  0  0  0  0  0  0
    7.4101   -2.9719    0.0000 H   0  0  0  0  0  0  0  0  0  0  0  0
    8.2084   -2.9688    0.0000 H   0  0  0  0  0  0  0  0  0  0  0  0
   12.0129    1.6023    0.0000 H   0  0  0  0  0  0  0  0  0  0  0  0
   11.3929    2.2223    0.0000 H   0  0  0  0  0  0  0  0  0  0  0  0
   10.7729    1.6023    0.0000 H   0  0  0  0  0  0  0  0  0  0  0  0
    9.3683   -0.0170    0.0000 H   0  0  0  0  0  0  0  0  0  0  0  0
    8.9751    0.6764    0.0000 H   0  0  0  0  0  0  0  0  0  0  0  0
    6.6716   -0.2831    0.0000 H   0  0  0  0  0  0  0  0  0  0  0  0
    6.2645   -0.9698    0.0000 H   0  0  0  0  0  0  0  0  0  0  0  0
    6.8666   -2.5734    0.0000 H   0  0  0  0  0  0  0  0  0  0  0  0
   11.9298   -1.7077    0.0000 H   0  0  0  0  0  0  0  0  0  0  0  0
    9.2696   -3.2603    0.0000 H   0  0  0  0  0  0  0  0  0  0  0  0
    8.7948    1.7223    0.0000 H   0  0  0  0  0  0  0  0  0  0  0  0
   11.6034    3.0832    0.0000 H   0  0  0  0  0  0  0  0  0  0  0  0
   11.6019    2.2535    0.0000 H   0  0  0  0  0  0  0  0  0  0  0  0
    7.9012    1.2220    0.0000 H   0  0  0  0  0  0  0  0  0  0  0  0
   14.1023    1.7996    0.0000 H   0  0  0  0  0  0  0  0  0  0  0  0
    5.1333   -2.5667    0.0000 H   0  0  0  0  0  0  0  0  0  0  0  0
    3.7296   -2.7513    0.0000 H   0  0  0  0  0  0  0  0  0  0  0  0
    2.8680   -1.6280    0.0000 H   0  0  0  0  0  0  0  0  0  0  0  0
    4.8136   -0.1355    0.0000 H   0  0  0  0  0  0  0  0  0  0  0  0
    2.8694   -1.2480    0.0000 H   0  0  0  0  0  0  0  0  0  0  0  0
    3.7258   -3.7513    0.0000 H   0  0  0  0  0  0  0  0  0  0  0  0
    4.8993    0.5542    0.0000 H   0  0  0  0  0  0  0  0  0  0  0  0
    4.2817    1.1766    0.0000 H   0  0  0  0  0  0  0  0  0  0  0  0
    3.6593    0.5590    0.0000 H   0  0  0  0  0  0  0  0  0  0  0  0
    2.0000   -2.1246    0.0000 H   0  0  0  0  0  0  0  0  0  0  0  0
    2.5458    0.1833    0.0000 H   0  0  0  0  0  0  0  0  0  0  0  0
 14  1  1  1  0  0  0
  1 67  1  0  0  0  0
 17  2  1  1  0  0  0
  2 68  1  0  0  0  0
 18  3  1  6  0  0  0
  3 69  1  0  0  0  0
  4 28  1  0  0  0  0
  4 72  1  0  0  0  0
 30  5  1  1  0  0  0
 34  5  1  1  0  0  0
  6 32  1  0  0  0  0
  6 35  1  0  0  0  0
  7 34  1  0  0  0  0
  7 38  1  0  0  0  0
  8 35  2  0  0  0  0
 36  9  1  6  0  0  0
  9 79  1  0  0  0  0
 37 10  1  6  0  0  0
 10 83  1  0  0  0  0
 39 11  1  6  0  0  0
 11 84  1  0  0  0  0
 12 13  1  0  0  0  0
 12 16  1  0  0  0  0
 12 18  1  0  0  0  0
 12 41  1  6  0  0  0
 13 14  1  0  0  0  0
 13 21  1  0  0  0  0
 13 42  1  1  0  0  0
 14 15  1  0  0  0  0
 14 22  1  0  0  0  0
 15 19  1  0  0  0  0
 15 20  1  0  0  0  0
 15 27  1  1  0  0  0
 16 17  1  0  0  0  0
 16 25  1  0  0  0  0
 16 28  1  1  0  0  0
 17 23  1  0  0  0  0
 17 26  1  0  0  0  0
 18 19  1  0  0  0  0
 18 43  1  0  0  0  0
 19 44  1  0  0  0  0
 19 45  1  0  0  0  0
 20 24  1  0  0  0  0
 20 31  1  1  0  0  0
 20 46  1  0  0  0  0
 21 23  1  0  0  0  0
 21 47  1  0  0  0  0
 21 48  1  0  0  0  0
 22 24  1  0  0  0  0
 22 49  1  0  0  0  0
 22 50  1  0  0  0  0
 23 51  1  0  0  0  0
 23 52  1  0  0  0  0
 24 53  1  0  0  0  0
 24 54  1  0  0  0  0
 25 29  1  0  0  0  0
 25 55  1  0  0  0  0
 25 56  1  0  0  0  0
 26 30  1  0  0  0  0
 26 57  1  0  0  0  0
 26 58  1  0  0  0  0
 27 59  1  0  0  0  0
 27 60  1  0  0  0  0
 27 61  1  0  0  0  0
 28 62  1  0  0  0  0
 28 63  1  0  0  0  0
 29 30  1  0  0  0  0
 29 64  1  0  0  0  0
 29 65  1  0  0  0  0
 30 66  1  0  0  0  0
 31 32  1  0  0  0  0
 31 33  2  0  0  0  0
 32 70  1  0  0  0  0
 32 71  1  0  0  0  0
 33 35  1  0  0  0  0
 33 73  1  0  0  0  0
 34 36  1  0  0  0  0
 34 74  1  0  0  0  0
 36 37  1  0  0  0  0
 36 75  1  0  0  0  0
 37 39  1  0  0  0  0
 37 76  1  0  0  0  0
 38 39  1  0  0  0  0
 38 40  1  6  0  0  0
 38 77  1  0  0  0  0
 39 78  1  0  0  0  0
 40 80  1  0  0  0  0
 40 81  1  0  0  0  0
 40 82  1  0  0  0  0
M  END
> <PUBCHEM_COMPOUND_CID>
441869

> <PUBCHEM_COMPOUND_CANONICALIZED>
1

> <PUBCHEM_CACTVS_COMPLEXITY>
1050

> <PUBCHEM_CACTVS_HBOND_ACCEPTOR>
11

> <PUBCHEM_CACTVS_HBOND_DONOR>
7

> <PUBCHEM_CACTVS_ROTATABLE_BOND>
4

> <PUBCHEM_CACTVS_SUBSKEYS>
AAADcfB4PAAAAAAAAAAAAAAAAAAAAYIAAAA0YMEAAAAAAGDAAAAAGgAACAAAD1SwgAMCCAAABgCIAiDSCAAAAAAgAAAACAAAAEgRFAIAIQAiUAAFgAAPIQPA4PwPgAAAAAAAAADCAAYQADAAAYAADAAAAA==

> <PUBCHEM_IUPAC_OPENEYE_NAME>
3-[(3S,5S,8R,9S,10R,11R,13R,14S,17R)-5,11,14-trihydroxy-10-(hydroxymethyl)-13-methyl-3-[(2R,3R,4R,5S,6S)-3,4,5-trihydroxy-6-methyl-tetrahydropyran-2-yl]oxy-2,3,4,6,7,8,9,11,12,15,16,17-dodecahydro-1H-cyclopenta[a]phenanthren-17-yl]-2H-furan-5-one

> <PUBCHEM_IUPAC_CAS_NAME>
3-[(3S,5S,8R,9S,10R,11R,13R,14S,17R)-5,11,14-trihydroxy-10-(hydroxymethyl)-13-methyl-3-[[(2R,3R,4R,5S,6S)-3,4,5-trihydroxy-6-methyl-2-oxanyl]oxy]-2,3,4,6,7,8,9,11,12,15,16,17-dodecahydro-1H-cyclopenta[a]phenanthren-17-yl]-2H-furan-5-one

> <PUBCHEM_IUPAC_NAME>
3-[(3S,5S,8R,9S,10R,11R,13R,14S,17R)-5,11,14-trihydroxy-10-(hydroxymethyl)-13-methyl-3-[(2R,3R,4R,5S,6S)-3,4,5-trihydroxy-6-methyloxan-2-yl]oxy-2,3,4,6,7,8,9,11,12,15,16,17-dodecahydro-1H-cyclopenta[a]phenanthren-17-yl]-2H-furan-5-one

> <PUBCHEM_IUPAC_SYSTEMATIC_NAME>
3-[(3S,5S,8R,9S,10R,11R,13R,14S,17R)-10-(hydroxymethyl)-13-methyl-3-[(2R,3R,4R,5S,6S)-6-methyl-3,4,5-tris(oxidanyl)oxan-2-yl]oxy-5,11,14-tris(oxidanyl)-2,3,4,6,7,8,9,11,12,15,16,17-dodecahydro-1H-cyclopenta[a]phenanthren-17-yl]-2H-furan-5-one

> <PUBCHEM_IUPAC_TRADITIONAL_NAME>
3-[(3S,5S,8R,9S,10R,11R,13R,14S,17R)-5,11,14-trihydroxy-13-methyl-10-methylol-3-[(2R,3R,4R,5S,6S)-3,4,5-trihydroxy-6-methyl-tetrahydropyran-2-yl]oxy-2,3,4,6,7,8,9,11,12,15,16,17-dodecahydro-1H-cyclopenta[a]phenanthren-17-yl]-2H-furan-5-one

> <PUBCHEM_IUPAC_INCHI>
InChI=1S/C29H44O11/c1-14-22(33)23(34)24(35)25(39-14)40-16-3-6-27(13-30)21-18(4-7-28(27,36)10-16)29(37)8-5-17(15-9-20(32)38-12-15)26(29,2)11-19(21)31/h9,14,16-19,21-25,30-31,33-37H,3-8,10-13H2,1-2H3/t14-,16-,17+,18+,19+,21+,22+,23+,24+,25-,26+,27-,28-,29-/m0/s1

> <PUBCHEM_IUPAC_INCHIKEY>
BUGNRCRUPAIYMD-VBVNMADNSA-N

> <PUBCHEM_XLOGP3>
-1.8

> <PUBCHEM_EXACT_MASS>
568.288362

> <PUBCHEM_MOLECULAR_FORMULA>
C29H44O11

> <PUBCHEM_MOLECULAR_WEIGHT>
568.65306

> <PUBCHEM_OPENEYE_CAN_SMILES>
CC1C(C(C(C(O1)OC2CCC3(C4C(CCC3(C2)O)C5(CCC(C5(CC4O)C)C6=CC(=O)OC6)O)CO)O)O)O

> <PUBCHEM_OPENEYE_ISO_SMILES>
C[C@H]1[C@H]([C@H]([C@H]([C@@H](O1)O[C@H]2CC[C@@]3([C@@H]4[C@@H](CC[C@@]3(C2)O)[C@]5(CC[C@@H]([C@]5(C[C@H]4O)C)C6=CC(=O)OC6)O)CO)O)O)O

> <PUBCHEM_CACTVS_TPSA>
186

> <PUBCHEM_MONOISOTOPIC_WEIGHT>
568.288362

> <PUBCHEM_TOTAL_CHARGE>
0

> <PUBCHEM_HEAVY_ATOM_COUNT>
40

> <PUBCHEM_ATOM_DEF_STEREO_COUNT>
14

> <PUBCHEM_ATOM_UDEF_STEREO_COUNT>
0

> <PUBCHEM_BOND_DEF_STEREO_COUNT>
0

> <PUBCHEM_BOND_UDEF_STEREO_COUNT>
0

> <PUBCHEM_ISOTOPIC_ATOM_COUNT>
0

> <PUBCHEM_COMPONENT_COUNT>
1

> <PUBCHEM_CACTVS_TAUTO_COUNT>
1

> <PUBCHEM_COORDINATE_TYPE>
1
5
255

> <PUBCHEM_BONDANNOTATIONS>
14  1  5
37  10  6
39  11  6
12  41  6
13  42  5
15  27  5
16  28  5
17  2  5
20  31  5
18  3  6
38  40  6
30  5  5
34  5  5
36  9  6

$$$$

