9570206
  -OEChem-07051213133D

 24 25  0     0  0  0  0  0  0999 V2000
   -2.1572   -2.5567   -0.0028 Cl  0  0  0  0  0  0  0  0  0  0  0  0
    3.5524   -1.2286    0.0025 O   0  0  0  0  0  0  0  0  0  0  0  0
    1.3791   -2.0868    0.0005 O   0  0  0  0  0  0  0  0  0  0  0  0
   -0.2411   -0.1912   -0.0005 N   0  0  0  0  0  0  0  0  0  0  0  0
    0.6982    0.7521   -0.0003 N   0  0  0  0  0  0  0  0  0  0  0  0
    4.1173    0.1031    0.0009 N   0  0  0  0  0  0  0  0  0  0  0  0
   -1.6198    0.1192   -0.0005 C   0  0  0  0  0  0  0  0  0  0  0  0
    1.8859    0.2512   -0.0003 C   0  0  0  0  0  0  0  0  0  0  0  0
    3.1557    0.9634   -0.0001 C   0  0  0  0  0  0  0  0  0  0  0  0
   -2.5889   -0.8841   -0.0011 C   0  0  0  0  0  0  0  0  0  0  0  0
   -2.0041    1.4600    0.0010 C   0  0  0  0  0  0  0  0  0  0  0  0
    3.2635    2.4397   -0.0035 C   0  0  0  0  0  0  0  0  0  0  0  0
    2.1855   -1.1872    0.0012 C   0  0  0  0  0  0  0  0  0  0  0  0
   -3.9424   -0.5464   -0.0002 C   0  0  0  0  0  0  0  0  0  0  0  0
   -3.3576    1.7977    0.0020 C   0  0  0  0  0  0  0  0  0  0  0  0
   -4.3266    0.7946    0.0013 C   0  0  0  0  0  0  0  0  0  0  0  0
   -0.0442   -1.1824   -0.0039 H   0  0  0  0  0  0  0  0  0  0  0  0
   -1.2779    2.2685    0.0016 H   0  0  0  0  0  0  0  0  0  0  0  0
    4.3144    2.7404    0.0003 H   0  0  0  0  0  0  0  0  0  0  0  0
    2.7720    2.8452    0.8847 H   0  0  0  0  0  0  0  0  0  0  0  0
    2.7798    2.8403   -0.8982 H   0  0  0  0  0  0  0  0  0  0  0  0
   -4.7102   -1.3159   -0.0005 H   0  0  0  0  0  0  0  0  0  0  0  0
   -3.6574    2.8416    0.0032 H   0  0  0  0  0  0  0  0  0  0  0  0
   -5.3803    1.0577    0.0020 H   0  0  0  0  0  0  0  0  0  0  0  0
  1 10  1  0  0  0  0
  2  6  1  0  0  0  0
  2 13  1  0  0  0  0
  3 13  2  0  0  0  0
  4  5  1  0  0  0  0
  4  7  1  0  0  0  0
  4 17  1  0  0  0  0
  5  8  2  0  0  0  0
  6  9  2  0  0  0  0
  7 10  1  0  0  0  0
  7 11  2  0  0  0  0
  8  9  1  0  0  0  0
  8 13  1  0  0  0  0
  9 12  1  0  0  0  0
 10 14  2  0  0  0  0
 11 15  1  0  0  0  0
 11 18  1  0  0  0  0
 12 19  1  0  0  0  0
 12 20  1  0  0  0  0
 12 21  1  0  0  0  0
 14 16  1  0  0  0  0
 14 22  1  0  0  0  0
 15 16  2  0  0  0  0
 15 23  1  0  0  0  0
 16 24  1  0  0  0  0
M  END
> <PUBCHEM_COMPOUND_CID>
9570206

> <PUBCHEM_CONFORMER_RMSD>
0.6

> <PUBCHEM_CONFORMER_DIVERSEORDER>
1
4
5
6
7
2
3

> <PUBCHEM_MMFF94_PARTIAL_CHARGES>
21
1 -0.18
10 0.18
11 -0.15
12 0.06
13 0.72
14 -0.15
15 -0.15
16 -0.15
17 0.4
18 0.15
2 -0.09
22 0.15
23 0.15
24 0.15
3 -0.57
4 -0.46
5 -0.49
6 -0.51
7 0.1
8 0.45
9 0.39

> <PUBCHEM_EFFECTIVE_ROTOR_COUNT>
2.2

> <PUBCHEM_PHARMACOPHORE_FEATURES>
6
1 3 acceptor
1 4 donor
1 5 acceptor
1 6 acceptor
5 2 6 8 9 13 rings
6 7 10 11 14 15 16 rings

> <PUBCHEM_HEAVY_ATOM_COUNT>
16

> <PUBCHEM_ATOM_DEF_STEREO_COUNT>
0

> <PUBCHEM_ATOM_UDEF_STEREO_COUNT>
0

> <PUBCHEM_BOND_DEF_STEREO_COUNT>
1

> <PUBCHEM_BOND_UDEF_STEREO_COUNT>
0

> <PUBCHEM_ISOTOPIC_ATOM_COUNT>
0

> <PUBCHEM_COMPONENT_COUNT>
1

> <PUBCHEM_CACTVS_TAUTO_COUNT>
1

> <PUBCHEM_CONFORMER_ID>
0092079E00000001

> <PUBCHEM_MMFF94_ENERGY>
58.9617

> <PUBCHEM_FEATURE_SELFOVERLAP>
30.448

> <PUBCHEM_SHAPE_FINGERPRINT>
10608611 8 18411421717275291117
10616163 171 18337107869579768767
11471102 20 18410577322710402796
12173636 292 18411141372391898933
12251169 10 18411702109909381972
12500047 106 18410299120440677869
13380535 76 18408604794497488439
138480 1 17618223248788689891
14144814 61 18411418449031733465
14325111 11 18410856559661018497
14415576 193 18411697673493300716
15196674 1 18410575080605715811
15375358 24 18410294713709436055
15442244 35 18193838377822998520
15536298 74 18408322198449547116
17834074 16 18410572889961170923
18186145 218 18336261365974752917
19050596 39 18411420592025306768
200 152 18041005050687325093
20510252 161 18333729156821686385
20528008 55 18410015437956285165
20645477 56 18343582962781464613
20645477 70 18334013933953085911
21267235 1 18410565197791074159
221490 88 18339353081335426658
23402539 116 18334584538445187253
23402655 69 18409446994581618684
23559900 14 18334580182905412482
3312278 4 18335699421101551899
3545911 37 18410572877139897380
4214541 1 18410856577009738209
474 4 17631728253870189028
5104073 3 18411981360298846929
69090 78 18410858780676088215
7364860 26 18335700585238181558
77779 3 18410572894351259137
8809292 202 18341609295927138403
93112 12 18410292523065053588
9709674 26 18408317800382515359

> <PUBCHEM_SHAPE_MULTIPOLES>
304.46
8.44
2.43
0.59
0.88
0.41
0
-1.95
0
-0.02
0
-0.06
-0.01
-0.01

> <PUBCHEM_SHAPE_SELFOVERLAP>
642.442

> <PUBCHEM_SHAPE_VOLUME>
171.1

> <PUBCHEM_COORDINATE_TYPE>
2
5
10

$$$$

