441213
  -OEChem-07051212523D

 35 37  0     1  0  0  0  0  0999 V2000
   -3.2909   -2.0045   -0.2639 P   0  0  0  0  0  0  0  0  0  0  0  0
   -0.6100    0.9705    1.2331 O   0  0  0  0  0  0  0  0  0  0  0  0
   -0.0625    3.5145   -1.1937 O   0  0  0  0  0  0  0  0  0  0  0  0
   -2.4397   -0.6525   -0.0119 O   0  0  0  0  0  0  0  0  0  0  0  0
   -2.7985    2.6666   -0.8698 O   0  0  0  0  0  0  0  0  0  0  0  0
   -4.7943   -1.4692   -0.5263 O   0  0  0  0  0  0  0  0  0  0  0  0
   -3.3799   -2.6528    1.2149 O   0  0  0  0  0  0  0  0  0  0  0  0
   -2.7398   -2.9140   -1.3228 O   0  0  0  0  0  0  0  0  0  0  0  0
    1.5659    1.2238    0.3548 N   0  0  0  0  0  0  0  0  0  0  0  0
    3.7749    0.9939    0.1411 N   0  0  0  0  0  0  0  0  0  0  0  0
    0.8811   -1.0926    0.0947 N   0  0  0  0  0  0  0  0  0  0  0  0
    2.8041   -2.5522   -0.2627 N   0  0  0  0  0  0  0  0  0  0  0  0
    5.0490   -1.7259   -0.3326 N   0  0  0  0  0  0  0  0  0  0  0  0
    0.2729    1.8752    0.5507 C   0  0  1  0  0  0  0  0  0  0  0  0
   -0.4285    2.2356   -0.7496 C   0  0  1  0  0  0  0  0  0  0  0  0
   -1.9545    1.4388    1.0358 C   0  0  1  0  0  0  0  0  0  0  0  0
   -1.8490    2.1742   -0.2749 C   0  0  0  0  0  0  0  0  0  0  0  0
   -2.8982    0.2599    0.9754 C   0  0  0  0  0  0  0  0  0  0  0  0
    1.7918   -0.1094    0.1542 C   0  0  0  0  0  0  0  0  0  0  0  0
    2.7885    1.8437    0.3379 C   0  0  0  0  0  0  0  0  0  0  0  0
    3.1662   -0.2305    0.0246 C   0  0  0  0  0  0  0  0  0  0  0  0
    3.6672   -1.5104   -0.1912 C   0  0  0  0  0  0  0  0  0  0  0  0
    1.4842   -2.2826   -0.1176 C   0  0  0  0  0  0  0  0  0  0  0  0
    0.4489    2.7445    1.1978 H   0  0  0  0  0  0  0  0  0  0  0  0
   -0.2846    1.4928   -1.5405 H   0  0  0  0  0  0  0  0  0  0  0  0
   -2.2087    2.1435    1.8335 H   0  0  0  0  0  0  0  0  0  0  0  0
   -3.9134    0.5888    0.7330 H   0  0  0  0  0  0  0  0  0  0  0  0
   -2.9059   -0.2509    1.9433 H   0  0  0  0  0  0  0  0  0  0  0  0
    2.8964    2.9114    0.4724 H   0  0  0  0  0  0  0  0  0  0  0  0
   -0.1477    4.1375   -0.4522 H   0  0  0  0  0  0  0  0  0  0  0  0
    0.8220   -3.1395   -0.1807 H   0  0  0  0  0  0  0  0  0  0  0  0
    5.3886   -2.6651   -0.4889 H   0  0  0  0  0  0  0  0  0  0  0  0
    5.6950   -0.9500   -0.2799 H   0  0  0  0  0  0  0  0  0  0  0  0
   -5.4917   -2.1142   -0.7709 H   0  0  0  0  0  0  0  0  0  0  0  0
   -3.7776   -3.5433    1.3195 H   0  0  0  0  0  0  0  0  0  0  0  0
  1  4  1  0  0  0  0
  1  6  1  0  0  0  0
  1  7  1  0  0  0  0
  1  8  2  0  0  0  0
  2 14  1  0  0  0  0
  2 16  1  0  0  0  0
  3 15  1  0  0  0  0
  3 30  1  0  0  0  0
  4 18  1  0  0  0  0
  5 17  2  0  0  0  0
  6 34  1  0  0  0  0
  7 35  1  0  0  0  0
  9 14  1  0  0  0  0
  9 19  1  0  0  0  0
  9 20  1  0  0  0  0
 10 20  2  0  0  0  0
 10 21  1  0  0  0  0
 11 19  2  0  0  0  0
 11 23  1  0  0  0  0
 12 22  1  0  0  0  0
 12 23  2  0  0  0  0
 13 22  1  0  0  0  0
 13 32  1  0  0  0  0
 13 33  1  0  0  0  0
 14 15  1  0  0  0  0
 14 24  1  0  0  0  0
 15 17  1  0  0  0  0
 15 25  1  0  0  0  0
 16 17  1  0  0  0  0
 16 18  1  0  0  0  0
 16 26  1  0  0  0  0
 18 27  1  0  0  0  0
 18 28  1  0  0  0  0
 19 21  1  0  0  0  0
 20 29  1  0  0  0  0
 21 22  2  0  0  0  0
 23 31  1  0  0  0  0
M  END
> <PUBCHEM_COMPOUND_CID>
441213

> <PUBCHEM_CONFORMER_RMSD>
0.8

> <PUBCHEM_CONFORMER_DIVERSEORDER>
1
17
23
27
16
15
7
3
20
11
26
31
21
10
30
14
13
4
8
29
12
9
22
6
25
19
28
2
24
5
18

> <PUBCHEM_MMFF94_PARTIAL_CHARGES>
30
1 1.51
10 -0.57
11 -0.57
12 -0.62
13 -0.9
14 0.54
15 0.34
16 0.34
17 0.45
18 0.28
19 0.11
2 -0.56
20 0.04
21 0.23
22 0.41
23 0.47
29 0.15
3 -0.68
30 0.4
31 0.15
32 0.4
33 0.4
34 0.5
35 0.5
4 -0.55
5 -0.57
6 -0.77
7 -0.77
8 -0.7
9 0.05

> <PUBCHEM_EFFECTIVE_ROTOR_COUNT>
4.8

> <PUBCHEM_PHARMACOPHORE_FEATURES>
16
1 13 cation
1 13 donor
1 2 acceptor
1 3 acceptor
1 3 donor
1 5 acceptor
1 6 acceptor
1 7 acceptor
1 8 acceptor
3 11 12 23 cation
3 9 10 20 cation
3 9 11 19 cation
4 1 6 7 8 anion
5 2 14 15 16 17 rings
5 9 10 19 20 21 rings
6 11 12 19 21 22 23 rings

> <PUBCHEM_HEAVY_ATOM_COUNT>
23

> <PUBCHEM_ATOM_DEF_STEREO_COUNT>
3

> <PUBCHEM_ATOM_UDEF_STEREO_COUNT>
0

> <PUBCHEM_BOND_DEF_STEREO_COUNT>
0

> <PUBCHEM_BOND_UDEF_STEREO_COUNT>
0

> <PUBCHEM_ISOTOPIC_ATOM_COUNT>
0

> <PUBCHEM_COMPONENT_COUNT>
1

> <PUBCHEM_CACTVS_TAUTO_COUNT>
15

> <PUBCHEM_CONFORMER_ID>
0006BB7D00000001

> <PUBCHEM_MMFF94_ENERGY>
7.8004

> <PUBCHEM_FEATURE_SELFOVERLAP>
81.834

> <PUBCHEM_SHAPE_FINGERPRINT>
10616163 171 18335415772702850547
116883 192 18341902853227159789
12553582 1 18270385093269593217
12596599 1 17823114852558841434
12633257 1 17969208100802581491
13004483 165 18410303518693073203
13140716 1 18336263530875549944
14223421 5 18335706048230795216
14251757 17 18056509260161485727
14787075 74 17172649056450655272
14790565 3 17402048894569091844
15196674 1 18407758131598978634
17357779 13 18339375071446325359
17492 54 17842269264396255460
17980427 23 17418092079742493396
19141452 34 18336539521321799089
200 152 17825119361193953920
20291156 8 18334856065644975003
20645477 70 17839189507005125371
21673915 165 18334575698700995242
221490 88 18409724071849363410
23559900 14 18336557096117237552
238 59 16690791826573264749
2838139 119 16843568714651016518
2871803 45 18411986840571737611
350125 39 18335704889217619808
392239 28 17460600212620143536
46194498 28 17628655059252261743
463206 1 17539415323840458375
9709674 26 18412544314394208529

> <PUBCHEM_SHAPE_MULTIPOLES>
411.19
7.78
4
1
1.54
0.07
0.03
-5.58
-0.44
-1.79
-1.08
-0.74
0.16
0.29

> <PUBCHEM_SHAPE_SELFOVERLAP>
877.092

> <PUBCHEM_SHAPE_VOLUME>
230.6

> <PUBCHEM_COORDINATE_TYPE>
2
5
10

$$$$

