56928062
  -OEChem-07051212462D

 35 37  0     0  0  0  0  0  0999 V2000
    3.7690    0.4420    0.0000 O   0  0  0  0  0  0  0  0  0  0  0  0
    6.0291   -0.8180    0.0000 O   0  0  0  0  0  0  0  0  0  0  0  0
    2.5369   -2.0968    0.0000 O   0  0  0  0  0  0  0  0  0  0  0  0
    2.5089   -0.8180    0.0000 O   0  0  0  0  0  0  0  0  0  0  0  0
    4.2690   -5.0968    0.0000 O   0  0  0  0  0  0  0  0  0  0  0  0
    3.7298    4.9052    0.0000 O   0  0  0  0  0  0  0  0  0  0  0  0
    4.2690   -1.0968    0.0000 C   0  0  0  0  0  0  0  0  0  0  0  0
    4.2690   -2.0968    0.0000 C   0  0  0  0  0  0  0  0  0  0  0  0
    5.0780   -0.5090    0.0000 C   0  0  0  0  0  0  0  0  0  0  0  0
    4.7690    0.4420    0.0000 C   0  0  0  0  0  0  0  0  0  0  0  0
    3.4600   -0.5090    0.0000 C   0  0  0  0  0  0  0  0  0  0  0  0
    3.4030   -2.5968    0.0000 C   0  0  0  0  0  0  0  0  0  0  0  0
    5.3568    1.2510    0.0000 C   0  0  0  0  0  0  0  0  0  0  0  0
    5.1350   -2.5968    0.0000 C   0  0  0  0  0  0  0  0  0  0  0  0
    4.9500    2.1646    0.0000 C   0  0  0  0  0  0  0  0  0  0  0  0
    3.4030   -3.5968    0.0000 C   0  0  0  0  0  0  0  0  0  0  0  0
    5.1350   -3.5968    0.0000 C   0  0  0  0  0  0  0  0  0  0  0  0
    4.2690   -4.0968    0.0000 C   0  0  0  0  0  0  0  0  0  0  0  0
    3.9555    2.2691    0.0000 C   0  0  0  0  0  0  0  0  0  0  0  0
    5.5378    2.9736    0.0000 C   0  0  0  0  0  0  0  0  0  0  0  0
    3.5488    3.1827    0.0000 C   0  0  0  0  0  0  0  0  0  0  0  0
    5.1311    3.8872    0.0000 C   0  0  0  0  0  0  0  0  0  0  0  0
    4.1366    3.9917    0.0000 C   0  0  0  0  0  0  0  0  0  0  0  0
    5.9734    1.1862    0.0000 H   0  0  0  0  0  0  0  0  0  0  0  0
    5.6720   -2.2868    0.0000 H   0  0  0  0  0  0  0  0  0  0  0  0
    2.8660   -3.9068    0.0000 H   0  0  0  0  0  0  0  0  0  0  0  0
    5.6720   -3.9068    0.0000 H   0  0  0  0  0  0  0  0  0  0  0  0
    3.5911    1.7675    0.0000 H   0  0  0  0  0  0  0  0  0  0  0  0
    6.1544    2.9088    0.0000 H   0  0  0  0  0  0  0  0  0  0  0  0
    2.9322    3.2475    0.0000 H   0  0  0  0  0  0  0  0  0  0  0  0
    5.4955    4.3887    0.0000 H   0  0  0  0  0  0  0  0  0  0  0  0
    6.4898   -0.4032    0.0000 H   0  0  0  0  0  0  0  0  0  0  0  0
    2.0000   -2.4068    0.0000 H   0  0  0  0  0  0  0  0  0  0  0  0
    4.8059   -5.4068    0.0000 H   0  0  0  0  0  0  0  0  0  0  0  0
    4.0942    5.4068    0.0000 H   0  0  0  0  0  0  0  0  0  0  0  0
  1 10  1  0  0  0  0
  1 11  1  0  0  0  0
  2  9  1  0  0  0  0
  2 32  1  0  0  0  0
  3 12  1  0  0  0  0
  3 33  1  0  0  0  0
  4 11  2  0  0  0  0
  5 18  1  0  0  0  0
  5 34  1  0  0  0  0
  6 23  1  0  0  0  0
  6 35  1  0  0  0  0
  7  8  1  0  0  0  0
  7  9  2  0  0  0  0
  7 11  1  0  0  0  0
  8 12  2  0  0  0  0
  8 14  1  0  0  0  0
  9 10  1  0  0  0  0
 10 13  2  0  0  0  0
 12 16  1  0  0  0  0
 13 15  1  0  0  0  0
 13 24  1  0  0  0  0
 14 17  2  0  0  0  0
 14 25  1  0  0  0  0
 15 19  2  0  0  0  0
 15 20  1  0  0  0  0
 16 18  2  0  0  0  0
 16 26  1  0  0  0  0
 17 18  1  0  0  0  0
 17 27  1  0  0  0  0
 19 21  1  0  0  0  0
 19 28  1  0  0  0  0
 20 22  2  0  0  0  0
 20 29  1  0  0  0  0
 21 23  2  0  0  0  0
 21 30  1  0  0  0  0
 22 23  1  0  0  0  0
 22 31  1  0  0  0  0
M  END
> <PUBCHEM_COMPOUND_CID>
56928062

> <PUBCHEM_COMPOUND_CANONICALIZED>
1

> <PUBCHEM_CACTVS_COMPLEXITY>
529

> <PUBCHEM_CACTVS_HBOND_ACCEPTOR>
6

> <PUBCHEM_CACTVS_HBOND_DONOR>
4

> <PUBCHEM_CACTVS_ROTATABLE_BOND>
2

> <PUBCHEM_CACTVS_SUBSKEYS>
AAADccB4OAAAAAAAAAAAAAAAAAAAAQAAAAAwYAAAAAAAAAABQAAAGgAACAAADASAmAAwDoAABgCIAiDSCAACCAAgIAAIiAEGCMgJJzKCNRKCcAAlwBULuQfK6KSOIAAACAAIAABAAAAQABAAAAAAAAAAAA==

> <PUBCHEM_IUPAC_OPENEYE_NAME>
(5Z)-3-(2,4-dihydroxyphenyl)-4-hydroxy-5-[(4-hydroxyphenyl)methylene]furan-2-one

> <PUBCHEM_IUPAC_CAS_NAME>
(5Z)-3-(2,4-dihydroxyphenyl)-4-hydroxy-5-[(4-hydroxyphenyl)methylidene]-2-furanone

> <PUBCHEM_IUPAC_NAME>
(5Z)-3-(2,4-dihydroxyphenyl)-4-hydroxy-5-[(4-hydroxyphenyl)methylidene]furan-2-one

> <PUBCHEM_IUPAC_SYSTEMATIC_NAME>
(5Z)-3-[2,4-bis(oxidanyl)phenyl]-5-[(4-hydroxyphenyl)methylidene]-4-oxidanyl-furan-2-one

> <PUBCHEM_IUPAC_TRADITIONAL_NAME>
(5Z)-3-(2,4-dihydroxyphenyl)-4-hydroxy-5-(4-hydroxybenzylidene)furan-2-one

> <PUBCHEM_IUPAC_INCHI>
InChI=1S/C17H12O6/c18-10-3-1-9(2-4-10)7-14-16(21)15(17(22)23-14)12-6-5-11(19)8-13(12)20/h1-8,18-21H/b14-7-

> <PUBCHEM_IUPAC_INCHIKEY>
LNJMXTRRBBPZDK-AUWJEWJLSA-N

> <PUBCHEM_XLOGP3_AA>
2.3

> <PUBCHEM_EXACT_MASS>
312.063388

> <PUBCHEM_MOLECULAR_FORMULA>
C17H12O6

> <PUBCHEM_MOLECULAR_WEIGHT>
312.27358

> <PUBCHEM_OPENEYE_CAN_SMILES>
C1=CC(=CC=C1C=C2C(=C(C(=O)O2)C3=C(C=C(C=C3)O)O)O)O

> <PUBCHEM_OPENEYE_ISO_SMILES>
C1=CC(=CC=C1/C=C\2/C(=C(C(=O)O2)C3=C(C=C(C=C3)O)O)O)O

> <PUBCHEM_CACTVS_TPSA>
107

> <PUBCHEM_MONOISOTOPIC_WEIGHT>
312.063388

> <PUBCHEM_TOTAL_CHARGE>
0

> <PUBCHEM_HEAVY_ATOM_COUNT>
23

> <PUBCHEM_ATOM_DEF_STEREO_COUNT>
0

> <PUBCHEM_ATOM_UDEF_STEREO_COUNT>
0

> <PUBCHEM_BOND_DEF_STEREO_COUNT>
1

> <PUBCHEM_BOND_UDEF_STEREO_COUNT>
0

> <PUBCHEM_ISOTOPIC_ATOM_COUNT>
0

> <PUBCHEM_COMPONENT_COUNT>
1

> <PUBCHEM_CACTVS_TAUTO_COUNT>
169

> <PUBCHEM_COORDINATE_TYPE>
1
5
255

> <PUBCHEM_BONDANNOTATIONS>
12  16  8
14  17  8
15  19  8
15  20  8
16  18  8
17  18  8
19  21  8
20  22  8
21  23  8
22  23  8
8  12  8
8  14  8

$$$$

