1790
  -OEChem-07051212513D

 54 56  0     1  0  0  0  0  0999 V2000
    1.7062    1.6323    0.3739 O   0  0  0  0  0  0  0  0  0  0  0  0
    7.7135    0.4228   -1.1612 O   0  0  0  0  0  0  0  0  0  0  0  0
   -8.3628   -1.2090   -1.0809 O   0  0  0  0  0  0  0  0  0  0  0  0
    7.5846   -1.0870    0.5524 N   0  0  0  0  0  0  0  0  0  0  0  0
   -9.6329   -0.7552   -1.4151 N   0  0  0  0  0  0  0  0  0  0  0  0
   -3.0631    0.4402    0.2139 C   0  0  0  0  0  0  0  0  0  0  0  0
   -4.1422   -0.5239    0.7116 C   0  0  0  0  0  0  0  0  0  0  0  0
   -1.6846    0.0601    0.7569 C   0  0  0  0  0  0  0  0  0  0  0  0
   -5.5265   -0.1217    0.1933 C   0  0  0  0  0  0  0  0  0  0  0  0
   -0.6127    1.0413    0.2875 C   0  0  0  0  0  0  0  0  0  0  0  0
   -6.6401   -1.0755    0.6402 C   0  0  0  0  0  0  0  0  0  0  0  0
    0.7550    0.6946    0.8585 C   0  0  0  0  0  0  0  0  0  0  0  0
   -8.0015   -0.6868    0.1190 C   0  0  0  0  0  0  0  0  0  0  0  0
    8.9689   -1.0920    0.0513 C   0  0  2  0  0  0  0  0  0  0  0  0
    8.8998   -0.3510   -1.2687 C   0  0  0  0  0  0  0  0  0  0  0  0
    7.0115   -0.1739   -0.1675 C   0  0  0  0  0  0  0  0  0  0  0  0
    5.6261    0.2970   -0.0271 C   0  0  0  0  0  0  0  0  0  0  0  0
    2.9973    1.1913    0.2410 C   0  0  0  0  0  0  0  0  0  0  0  0
   -9.0078    0.1105    0.5965 C   0  0  0  0  0  0  0  0  0  0  0  0
    9.4742   -2.5155   -0.0866 C   0  0  0  0  0  0  0  0  0  0  0  0
    4.7997   -0.2505    0.9543 C   0  0  0  0  0  0  0  0  0  0  0  0
    5.1380    1.2920   -0.8742 C   0  0  0  0  0  0  0  0  0  0  0  0
    3.4852    0.1965    1.0883 C   0  0  0  0  0  0  0  0  0  0  0  0
    3.8237    1.7390   -0.7403 C   0  0  0  0  0  0  0  0  0  0  0  0
   -9.9976    0.0312   -0.3984 C   0  0  0  0  0  0  0  0  0  0  0  0
  -11.3120    0.6929   -0.4184 C   0  0  0  0  0  0  0  0  0  0  0  0
   -3.3118    1.4613    0.5279 H   0  0  0  0  0  0  0  0  0  0  0  0
   -3.0412    0.4352   -0.8826 H   0  0  0  0  0  0  0  0  0  0  0  0
   -3.9077   -1.5423    0.3794 H   0  0  0  0  0  0  0  0  0  0  0  0
   -4.1534   -0.5347    1.8081 H   0  0  0  0  0  0  0  0  0  0  0  0
   -1.4265   -0.9540    0.4285 H   0  0  0  0  0  0  0  0  0  0  0  0
   -1.7140    0.0473    1.8533 H   0  0  0  0  0  0  0  0  0  0  0  0
   -5.7613    0.8948    0.5348 H   0  0  0  0  0  0  0  0  0  0  0  0
   -5.5056   -0.0822   -0.9035 H   0  0  0  0  0  0  0  0  0  0  0  0
   -0.8780    2.0645    0.5818 H   0  0  0  0  0  0  0  0  0  0  0  0
   -0.5598    1.0487   -0.8084 H   0  0  0  0  0  0  0  0  0  0  0  0
   -6.4103   -2.0943    0.3050 H   0  0  0  0  0  0  0  0  0  0  0  0
   -6.6803   -1.1048    1.7360 H   0  0  0  0  0  0  0  0  0  0  0  0
    0.9992   -0.3287    0.5446 H   0  0  0  0  0  0  0  0  0  0  0  0
    0.7289    0.7429    1.9533 H   0  0  0  0  0  0  0  0  0  0  0  0
    9.5991   -0.5457    0.7639 H   0  0  0  0  0  0  0  0  0  0  0  0
    8.8089   -1.0131   -2.1367 H   0  0  0  0  0  0  0  0  0  0  0  0
    9.7629    0.3055   -1.4143 H   0  0  0  0  0  0  0  0  0  0  0  0
   -9.0205    0.6644    1.5236 H   0  0  0  0  0  0  0  0  0  0  0  0
    8.8344   -3.1038   -0.7537 H   0  0  0  0  0  0  0  0  0  0  0  0
    9.4800   -3.0180    0.8865 H   0  0  0  0  0  0  0  0  0  0  0  0
   10.4931   -2.5306   -0.4862 H   0  0  0  0  0  0  0  0  0  0  0  0
    5.1605   -1.0220    1.6293 H   0  0  0  0  0  0  0  0  0  0  0  0
    5.7531    1.7412   -1.6490 H   0  0  0  0  0  0  0  0  0  0  0  0
    2.8841   -0.2359    1.8826 H   0  0  0  0  0  0  0  0  0  0  0  0
    3.4484    2.5144   -1.4026 H   0  0  0  0  0  0  0  0  0  0  0  0
  -11.4656    1.3010    0.4791 H   0  0  0  0  0  0  0  0  0  0  0  0
  -12.1176   -0.0472   -0.4633 H   0  0  0  0  0  0  0  0  0  0  0  0
  -11.4008    1.3517   -1.2883 H   0  0  0  0  0  0  0  0  0  0  0  0
  1 12  1  0  0  0  0
  1 18  1  0  0  0  0
  2 15  1  0  0  0  0
  2 16  1  0  0  0  0
  3  5  1  0  0  0  0
  3 13  1  0  0  0  0
  4 14  1  0  0  0  0
  4 16  2  0  0  0  0
  5 25  2  0  0  0  0
  6  7  1  0  0  0  0
  6  8  1  0  0  0  0
  6 27  1  0  0  0  0
  6 28  1  0  0  0  0
  7  9  1  0  0  0  0
  7 29  1  0  0  0  0
  7 30  1  0  0  0  0
  8 10  1  0  0  0  0
  8 31  1  0  0  0  0
  8 32  1  0  0  0  0
  9 11  1  0  0  0  0
  9 33  1  0  0  0  0
  9 34  1  0  0  0  0
 10 12  1  0  0  0  0
 10 35  1  0  0  0  0
 10 36  1  0  0  0  0
 11 13  1  0  0  0  0
 11 37  1  0  0  0  0
 11 38  1  0  0  0  0
 12 39  1  0  0  0  0
 12 40  1  0  0  0  0
 13 19  2  0  0  0  0
 14 15  1  0  0  0  0
 14 20  1  0  0  0  0
 14 41  1  0  0  0  0
 15 42  1  0  0  0  0
 15 43  1  0  0  0  0
 16 17  1  0  0  0  0
 17 21  2  0  0  0  0
 17 22  1  0  0  0  0
 18 23  2  0  0  0  0
 18 24  1  0  0  0  0
 19 25  1  0  0  0  0
 19 44  1  0  0  0  0
 20 45  1  0  0  0  0
 20 46  1  0  0  0  0
 20 47  1  0  0  0  0
 21 23  1  0  0  0  0
 21 48  1  0  0  0  0
 22 24  2  0  0  0  0
 22 49  1  0  0  0  0
 23 50  1  0  0  0  0
 24 51  1  0  0  0  0
 25 26  1  0  0  0  0
 26 52  1  0  0  0  0
 26 53  1  0  0  0  0
 26 54  1  0  0  0  0
M  END
> <PUBCHEM_COMPOUND_CID>
1790

> <PUBCHEM_CONFORMER_RMSD>
1.4

> <PUBCHEM_CONFORMER_DIVERSEORDER>
1
47
44
37
43
8
6
31
35
34
50
45
32
36
18
33
17
49
48
13
38
41
22
5
40
21
10
29
16
12
42
39
2
27
4
15
30
46
24
51
3
9
19
14
26
28
23
7
20
11
25

> <PUBCHEM_MMFF94_PARTIAL_CHARGES>
25
1 -0.36
11 0.18
12 0.28
13 -0.04
14 0.25
15 0.28
16 0.51
17 0.09
18 0.08
19 -0.15
2 -0.43
21 -0.15
22 -0.15
23 -0.15
24 -0.15
25 0.11
26 0.18
3 -0.02
4 -0.7
44 0.15
48 0.15
49 0.15
5 -0.41
50 0.15
51 0.15

> <PUBCHEM_EFFECTIVE_ROTOR_COUNT>
10.6

> <PUBCHEM_PHARMACOPHORE_FEATURES>
7
1 1 acceptor
1 5 acceptor
3 6 8 10 hydrophobe
3 7 9 11 hydrophobe
5 2 4 14 15 16 rings
5 3 5 13 19 25 rings
6 17 18 21 22 23 24 rings

> <PUBCHEM_HEAVY_ATOM_COUNT>
26

> <PUBCHEM_ATOM_DEF_STEREO_COUNT>
0

> <PUBCHEM_ATOM_UDEF_STEREO_COUNT>
1

> <PUBCHEM_BOND_DEF_STEREO_COUNT>
0

> <PUBCHEM_BOND_UDEF_STEREO_COUNT>
0

> <PUBCHEM_ISOTOPIC_ATOM_COUNT>
0

> <PUBCHEM_COMPONENT_COUNT>
1

> <PUBCHEM_CACTVS_TAUTO_COUNT>
1

> <PUBCHEM_CONFORMER_ID>
000006FE00000001

> <PUBCHEM_MMFF94_ENERGY>
46.3655

> <PUBCHEM_FEATURE_SELFOVERLAP>
35.52

> <PUBCHEM_SHAPE_FINGERPRINT>
10 15 9007061257959093617
10162869 55 6194835978287496385
106641 1 7204774787441873009
10883706 142 7997972370849609497
11534866 41 16370720457729138070
11638347 137 14851597795996325412
12089408 11 17967527956999613425
12498461 61 16805328794383281302
12539745 222 17167856508772115761
12559415 86 16414921971462869719
12592606 108 18335702719726326771
13740195 50 7132428030615233317
14026016 60 17417818413564966354
14251764 46 14923943453675295137
14344974 52 14692561087842485417
14428016 248 12103845670422137727
14617042 71 9223223058074026002
15065858 18 17967820423150737545
15247644 1 17240481403718511599
15326923 82 18408605839092504288
15510794 2 16298384673921192953
155225 1 11527943457346457238
15690457 1 17530964683078415702
15706992 2 12391509806606602185
15773216 30 16199881673214110266
16728433 110 18260269634536122832
1754911 235 17131834253119905911
1818759 1 18334855013193371235
21102433 48 17675929810749352006
212700 22 16370724816914955263
21792961 116 18411138061251785817
232437 2 18333449846397521371
28498 318 18342457036803793553
33684 2 17894348882966171025
42767 2 18343303674111640031
439807 62 18341892996356128786
5758199 1 12247688167236013457
6081469 158 17775286066959919980
67123 10 8574713499256172417
9663363 56 18411420605823000920
9937071 3 18408318891515179354

> <PUBCHEM_SHAPE_MULTIPOLES>
507.5
45.29
1.51
1.08
62.25
0.25
-0.14
16.66
-13.56
-3.02
-0.14
-0.02
0.02
-0.61

> <PUBCHEM_SHAPE_SELFOVERLAP>
1051.965

> <PUBCHEM_SHAPE_VOLUME>
292.4

> <PUBCHEM_COORDINATE_TYPE>
2
5
10

$$$$

