442693
  -OEChem-07051212593D

 35 38  0     0  0  0  0  0  0999 V2000
   -0.6750    2.1682    0.3084 O   0  0  0  0  0  0  0  0  0  0  0  0
    3.5693    1.7442    0.2384 O   0  0  0  0  0  0  0  0  0  0  0  0
   -4.9444    0.1650   -0.0843 O   0  0  0  0  0  0  0  0  0  0  0  0
    4.7320   -0.7552    0.2159 O   0  0  0  0  0  0  0  0  0  0  0  0
    0.5910   -0.3907    0.0530 C   0  0  0  0  0  0  0  0  0  0  0  0
   -0.7999   -0.2483    0.0123 C   0  0  0  0  0  0  0  0  0  0  0  0
    1.3882    0.7531    0.1300 C   0  0  0  0  0  0  0  0  0  0  0  0
    1.1881   -1.6712    0.0089 C   0  0  0  0  0  0  0  0  0  0  0  0
   -1.6203   -1.3941   -0.1078 C   0  0  0  0  0  0  0  0  0  0  0  0
   -1.3928    1.0176    0.1170 C   0  0  0  0  0  0  0  0  0  0  0  0
    0.7380    2.1088    0.0613 C   0  0  0  0  0  0  0  0  0  0  0  0
    2.7812    0.6318    0.1825 C   0  0  0  0  0  0  0  0  0  0  0  0
    0.3653   -2.7995   -0.1039 C   0  0  0  0  0  0  0  0  0  0  0  0
   -1.0225   -2.6614   -0.1701 C   0  0  0  0  0  0  0  0  0  0  0  0
    2.5863   -1.7742    0.0716 C   0  0  0  0  0  0  0  0  0  0  0  0
    3.3763   -0.6280    0.1626 C   0  0  0  0  0  0  0  0  0  0  0  0
   -3.0147   -1.2375   -0.1482 C   0  0  0  0  0  0  0  0  0  0  0  0
   -2.7819    1.1546    0.0897 C   0  0  0  0  0  0  0  0  0  0  0  0
   -3.5901    0.0296   -0.0519 C   0  0  0  0  0  0  0  0  0  0  0  0
    3.9927    2.2990   -1.0042 C   0  0  0  0  0  0  0  0  0  0  0  0
   -5.4669    1.4884    0.0188 C   0  0  0  0  0  0  0  0  0  0  0  0
    1.2012    2.7764    0.7962 H   0  0  0  0  0  0  0  0  0  0  0  0
    0.9013    2.5360   -0.9345 H   0  0  0  0  0  0  0  0  0  0  0  0
    0.7962   -3.7975   -0.1458 H   0  0  0  0  0  0  0  0  0  0  0  0
   -1.6337   -3.5572   -0.2600 H   0  0  0  0  0  0  0  0  0  0  0  0
    3.0657   -2.7509    0.0444 H   0  0  0  0  0  0  0  0  0  0  0  0
   -3.6613   -2.1077   -0.2458 H   0  0  0  0  0  0  0  0  0  0  0  0
   -3.1733    2.1622    0.1861 H   0  0  0  0  0  0  0  0  0  0  0  0
    5.1219    0.1293    0.3241 H   0  0  0  0  0  0  0  0  0  0  0  0
    4.5658    3.2064   -0.7948 H   0  0  0  0  0  0  0  0  0  0  0  0
    3.1378    2.5657   -1.6321 H   0  0  0  0  0  0  0  0  0  0  0  0
    4.6392    1.5959   -1.5387 H   0  0  0  0  0  0  0  0  0  0  0  0
   -5.1515    2.1133   -0.8236 H   0  0  0  0  0  0  0  0  0  0  0  0
   -5.2260    1.9419    0.9863 H   0  0  0  0  0  0  0  0  0  0  0  0
   -6.5578    1.4097   -0.0335 H   0  0  0  0  0  0  0  0  0  0  0  0
  1 10  1  0  0  0  0
  1 11  1  0  0  0  0
  2 12  1  0  0  0  0
  2 20  1  0  0  0  0
  3 19  1  0  0  0  0
  3 21  1  0  0  0  0
  4 16  1  0  0  0  0
  4 29  1  0  0  0  0
  5  6  1  0  0  0  0
  5  7  2  0  0  0  0
  5  8  1  0  0  0  0
  6  9  1  0  0  0  0
  6 10  2  0  0  0  0
  7 11  1  0  0  0  0
  7 12  1  0  0  0  0
  8 13  1  0  0  0  0
  8 15  2  0  0  0  0
  9 14  1  0  0  0  0
  9 17  2  0  0  0  0
 10 18  1  0  0  0  0
 11 22  1  0  0  0  0
 11 23  1  0  0  0  0
 12 16  2  0  0  0  0
 13 14  2  0  0  0  0
 13 24  1  0  0  0  0
 14 25  1  0  0  0  0
 15 16  1  0  0  0  0
 15 26  1  0  0  0  0
 17 19  1  0  0  0  0
 17 27  1  0  0  0  0
 18 19  2  0  0  0  0
 18 28  1  0  0  0  0
 20 30  1  0  0  0  0
 20 31  1  0  0  0  0
 20 32  1  0  0  0  0
 21 33  1  0  0  0  0
 21 34  1  0  0  0  0
 21 35  1  0  0  0  0
M  END
> <PUBCHEM_COMPOUND_CID>
442693

> <PUBCHEM_CONFORMER_RMSD>
0.6

> <PUBCHEM_CONFORMER_DIVERSEORDER>
1
2

> <PUBCHEM_MMFF94_PARTIAL_CHARGES>
23
1 -0.36
10 0.08
11 0.42
12 0.08
13 -0.15
14 -0.15
15 -0.15
16 0.08
17 -0.15
18 -0.15
19 0.08
2 -0.36
20 0.28
21 0.28
24 0.15
25 0.15
26 0.15
27 0.15
28 0.15
29 0.45
3 -0.36
4 -0.53
7 -0.14

> <PUBCHEM_EFFECTIVE_ROTOR_COUNT>
2.4

> <PUBCHEM_PHARMACOPHORE_FEATURES>
8
1 1 acceptor
1 2 acceptor
1 3 acceptor
1 4 donor
6 1 5 6 7 10 11 rings
6 5 6 8 9 13 14 rings
6 5 7 8 12 15 16 rings
6 6 9 10 17 18 19 rings

> <PUBCHEM_HEAVY_ATOM_COUNT>
21

> <PUBCHEM_ATOM_DEF_STEREO_COUNT>
0

> <PUBCHEM_ATOM_UDEF_STEREO_COUNT>
0

> <PUBCHEM_BOND_DEF_STEREO_COUNT>
0

> <PUBCHEM_BOND_UDEF_STEREO_COUNT>
0

> <PUBCHEM_ISOTOPIC_ATOM_COUNT>
0

> <PUBCHEM_COMPONENT_COUNT>
1

> <PUBCHEM_CACTVS_TAUTO_COUNT>
3

> <PUBCHEM_CONFORMER_ID>
0006C14500000001

> <PUBCHEM_MMFF94_ENERGY>
91.5141

> <PUBCHEM_FEATURE_SELFOVERLAP>
40.731

> <PUBCHEM_SHAPE_FINGERPRINT>
10411042 1 17473544028744236719
10493431 412 18337954480742953009
10616163 171 18194397784607891598
10759866 29 18201997682288675542
10863032 1 18338235959924830178
10967382 1 18409731785051522674
1100329 8 18411422804186990306
11132069 177 18408612447907326154
11471102 20 18410016567574856071
11578080 2 13971953265921371381
12011746 2 18337669823190162454
12236239 1 17676493890842718699
12403814 3 17703520886916836925
12788726 201 17895460497016053625
12838862 33 18265917871825582032
13140716 1 18339089202765868506
13583140 156 16773258256461746789
138480 1 17761492886610524439
14178342 30 17905065659208276896
14790565 3 18409722972111447393
15196674 1 18410575054809453843
15536298 74 18333733524170156954
16945 1 17977389339133755258
19591789 44 18410012117693728003
200 152 18040724696791920211
20739085 24 18197191824043125729
21267235 1 18409722993285252683
21421861 104 17912929675581701507
21501502 16 18338803295335389758
2334 1 18409731716521878554
23402539 116 18260558830634735039
23463225 33 18411984680356058098
23559900 14 18334015025539579366
2748010 2 18410008827680097086
335352 9 18410294739642790006
34934 24 18337395928957258096
350125 39 18411699932783345724
3680242 22 18268994356820521163
44154327 71 18411135835799038060
474 4 18411698815959765763
495365 180 17241057513382486192
5104073 3 18411702049901309387
537710 114 18408321090168922553
69090 78 18408609162389401647
7364860 26 18190460647895787950
7832392 63 18336552612023414310
8272917 22 18263640826684397071
9709674 26 18408037403511245702
9981440 41 17766842724424636432
9999458 23 18131068260063797870

> <PUBCHEM_SHAPE_MULTIPOLES>
408.69
8.4
2.92
0.67
4.16
0.57
-0.05
-3.76
-0.36
-0.95
-0.24
-0.2
-0.1
-0.53

> <PUBCHEM_SHAPE_SELFOVERLAP>
931.862

> <PUBCHEM_SHAPE_VOLUME>
213.5

> <PUBCHEM_COORDINATE_TYPE>
2
5
10

$$$$

