165388
  -OEChem-07051212493D

 36 37  0     1  0  0  0  0  0999 V2000
    4.8183    1.1952   -0.3394 P   0  0  0  0  0  0  0  0  0  0  0  0
    0.4918   -0.6001    1.4539 O   0  0  0  0  0  0  0  0  0  0  0  0
   -0.3445   -2.4351   -1.5216 O   0  0  0  0  0  0  0  0  0  0  0  0
    1.5266   -3.2199    0.2862 O   0  0  0  0  0  0  0  0  0  0  0  0
    3.8224    0.0038    0.1305 O   0  0  0  0  0  0  0  0  0  0  0  0
    4.8691    2.1786    0.9433 O   0  0  0  0  0  0  0  0  0  0  0  0
    3.9258    2.0206   -1.4058 O   0  0  0  0  0  0  0  0  0  0  0  0
    6.1532    0.7371   -0.8499 O   0  0  0  0  0  0  0  0  0  0  0  0
   -5.2205    2.3835   -0.2752 O   0  0  0  0  0  0  0  0  0  0  0  0
   -5.7376    0.1844   -0.4054 O   0  0  0  0  0  0  0  0  0  0  0  0
   -1.5577   -0.1598    0.3423 N   0  0  0  0  0  0  0  0  0  0  0  0
   -2.5723    1.8139    0.1926 N   0  0  0  0  0  0  0  0  0  0  0  0
   -3.3391   -1.6933   -0.0055 N   0  0  0  0  0  0  0  0  0  0  0  0
    0.2945   -1.4364   -0.7530 C   0  0  2  0  0  0  0  0  0  0  0  0
    1.6330   -1.8808   -0.1968 C   0  0  1  0  0  0  0  0  0  0  0  0
   -0.4739   -1.1232    0.5218 C   0  0  1  0  0  0  0  0  0  0  0  0
    1.8189   -0.9426    0.9916 C   0  0  1  0  0  0  0  0  0  0  0  0
    2.5460    0.3434    0.6244 C   0  0  0  0  0  0  0  0  0  0  0  0
   -2.8772   -0.4302    0.0992 C   0  0  0  0  0  0  0  0  0  0  0  0
   -1.4255    1.2023    0.3895 C   0  0  0  0  0  0  0  0  0  0  0  0
   -3.4815    0.8020    0.0114 C   0  0  0  0  0  0  0  0  0  0  0  0
   -4.8696    1.0562   -0.2342 C   0  0  0  0  0  0  0  0  0  0  0  0
    0.4182   -0.5415   -1.3739 H   0  0  0  0  0  0  0  0  0  0  0  0
    2.4326   -1.8627   -0.9422 H   0  0  0  0  0  0  0  0  0  0  0  0
   -0.9035   -2.0201    0.9817 H   0  0  0  0  0  0  0  0  0  0  0  0
    2.3448   -1.4431    1.8128 H   0  0  0  0  0  0  0  0  0  0  0  0
    2.6384    0.9812    1.5102 H   0  0  0  0  0  0  0  0  0  0  0  0
    1.9861    0.9106   -0.1265 H   0  0  0  0  0  0  0  0  0  0  0  0
   -0.4046   -3.2397   -0.9789 H   0  0  0  0  0  0  0  0  0  0  0  0
    2.3877   -3.4591    0.6696 H   0  0  0  0  0  0  0  0  0  0  0  0
   -0.4783    1.6944    0.5637 H   0  0  0  0  0  0  0  0  0  0  0  0
   -2.7451   -2.5130    0.0612 H   0  0  0  0  0  0  0  0  0  0  0  0
   -4.3203   -1.8869   -0.1815 H   0  0  0  0  0  0  0  0  0  0  0  0
    5.4774    2.9480    0.9277 H   0  0  0  0  0  0  0  0  0  0  0  0
    4.3434    2.7515   -1.9092 H   0  0  0  0  0  0  0  0  0  0  0  0
   -6.1797    2.4982   -0.4461 H   0  0  0  0  0  0  0  0  0  0  0  0
  1  5  1  0  0  0  0
  1  6  1  0  0  0  0
  1  7  1  0  0  0  0
  1  8  2  0  0  0  0
  2 16  1  0  0  0  0
  2 17  1  0  0  0  0
  3 14  1  0  0  0  0
  3 29  1  0  0  0  0
  4 15  1  0  0  0  0
  4 30  1  0  0  0  0
  5 18  1  0  0  0  0
  6 34  1  0  0  0  0
  7 35  1  0  0  0  0
  9 22  1  0  0  0  0
  9 36  1  0  0  0  0
 10 22  2  0  0  0  0
 11 16  1  0  0  0  0
 11 19  1  0  0  0  0
 11 20  1  0  0  0  0
 12 20  2  0  0  0  0
 12 21  1  0  0  0  0
 13 19  1  0  0  0  0
 13 32  1  0  0  0  0
 13 33  1  0  0  0  0
 14 15  1  0  0  0  0
 14 16  1  0  0  0  0
 14 23  1  0  0  0  0
 15 17  1  0  0  0  0
 15 24  1  0  0  0  0
 16 25  1  0  0  0  0
 17 18  1  0  0  0  0
 17 26  1  0  0  0  0
 18 27  1  0  0  0  0
 18 28  1  0  0  0  0
 19 21  2  0  0  0  0
 20 31  1  0  0  0  0
 21 22  1  0  0  0  0
M  END
> <PUBCHEM_COMPOUND_CID>
165388

> <PUBCHEM_CONFORMER_RMSD>
0.8

> <PUBCHEM_CONFORMER_DIVERSEORDER>
4
13
24
25
34
11
37
5
35
9
10
40
14
16
19
26
28
20
38
32
36
22
30
7
1
29
18
39
33
2
27
17
23
8
21
3
6
12
31
15

> <PUBCHEM_MMFF94_PARTIAL_CHARGES>
30
1 1.51
10 -0.57
11 0.05
12 -0.57
13 -0.88
14 0.28
15 0.28
16 0.54
17 0.28
18 0.28
19 -0.07
2 -0.56
20 0.04
21 0.14
22 0.81
29 0.4
3 -0.68
30 0.4
31 0.15
32 0.4
33 0.4
34 0.5
35 0.5
36 0.5
4 -0.68
5 -0.55
6 -0.77
7 -0.77
8 -0.7
9 -0.65

> <PUBCHEM_EFFECTIVE_ROTOR_COUNT>
6

> <PUBCHEM_PHARMACOPHORE_FEATURES>
17
1 10 acceptor
1 13 cation
1 13 donor
1 2 acceptor
1 3 acceptor
1 3 donor
1 4 acceptor
1 4 donor
1 6 acceptor
1 7 acceptor
1 8 acceptor
1 9 acceptor
3 11 12 20 cation
3 9 10 22 anion
4 1 6 7 8 anion
5 11 12 19 20 21 rings
5 2 14 15 16 17 rings

> <PUBCHEM_HEAVY_ATOM_COUNT>
22

> <PUBCHEM_ATOM_DEF_STEREO_COUNT>
4

> <PUBCHEM_ATOM_UDEF_STEREO_COUNT>
0

> <PUBCHEM_BOND_DEF_STEREO_COUNT>
0

> <PUBCHEM_BOND_UDEF_STEREO_COUNT>
0

> <PUBCHEM_ISOTOPIC_ATOM_COUNT>
0

> <PUBCHEM_COMPONENT_COUNT>
1

> <PUBCHEM_CACTVS_TAUTO_COUNT>
2

> <PUBCHEM_CONFORMER_ID>
0002860C00000004

> <PUBCHEM_MMFF94_ENERGY>
9.8442

> <PUBCHEM_FEATURE_SELFOVERLAP>
86.375

> <PUBCHEM_SHAPE_FINGERPRINT>
10498660 4 18335138687224973072
10670039 82 18337945792509910068
10759866 29 18336551606953834643
11796584 16 7925639881719561129
12173636 292 18195247716050327774
12633257 1 16128374831432933548
12788726 201 17267495098964455418
12824470 246 8069760571948956830
14341114 328 17417816123444771088
14528608 73 18335425668413028101
15183329 4 18335690690261220798
15342168 16 17917707959958200588
15961568 22 18131068281259547373
17980427 23 17203037487741818191
193927 3 7781514862500598444
19784866 140 15647050494948122427
21524375 3 18412825772660587394
21637258 2 6050441475139203604
22620623 9 16879082831904991287
23227448 37 18201718410187238677
23559900 14 18118693351019234491
2838139 119 18410862057477997204
3472631 163 18202004382464388645
351380 3 8214146248481026340
4325135 7 18343864395029717135
474 4 17988920067956048328
5104073 3 18200027482106090649
81539 233 18412263964852267330
8863177 126 6915392183097281349
9981440 41 18271805687873054426

> <PUBCHEM_SHAPE_MULTIPOLES>
388.83
11.8
2.7
1.03
1.45
0.83
0.07
-9.56
2.26
0.67
0.39
0.75
0.1
-0.29

> <PUBCHEM_SHAPE_SELFOVERLAP>
805.155

> <PUBCHEM_SHAPE_VOLUME>
225.1

> <PUBCHEM_COORDINATE_TYPE>
2
5
10

$$$$

