9904
  -OEChem-07051212533D

 46 49  0     1  0  0  0  0  0999 V2000
   -4.9413   -1.1503   -0.4287 O   0  0  0  0  0  0  0  0  0  0  0  0
    5.3152   -0.2390   -1.2151 O   0  0  0  0  0  0  0  0  0  0  0  0
   -1.7907    0.6829   -0.3688 C   0  0  2  0  0  0  0  0  0  0  0  0
   -2.5922   -0.5680    0.0441 C   0  0  2  0  0  0  0  0  0  0  0  0
   -0.4785    0.8164    0.4043 C   0  0  1  0  0  0  0  0  0  0  0  0
    0.4025   -0.4476    0.1132 C   0  0  2  0  0  0  0  0  0  0  0  0
   -1.7536   -1.8078   -0.2928 C   0  0  0  0  0  0  0  0  0  0  0  0
   -3.8369   -0.3693   -0.8424 C   0  0  2  0  0  0  0  0  0  0  0  0
   -2.8196    1.8070   -0.2919 C   0  0  0  0  0  0  0  0  0  0  0  0
   -0.3693   -1.7614    0.3800 C   0  0  0  0  0  0  0  0  0  0  0  0
    1.7279   -0.3345    0.9133 C   0  0  2  0  0  0  0  0  0  0  0  0
    0.2738    2.1148    0.0538 C   0  0  0  0  0  0  0  0  0  0  0  0
   -4.1333    1.1398   -0.7382 C   0  0  0  0  0  0  0  0  0  0  0  0
   -2.9983   -0.6140    1.5393 C   0  0  0  0  0  0  0  0  0  0  0  0
    1.6325    2.1951    0.7563 C   0  0  0  0  0  0  0  0  0  0  0  0
    2.4176    0.9436    0.4691 C   0  0  0  0  0  0  0  0  0  0  0  0
    2.6777   -1.5391    0.8281 C   0  0  0  0  0  0  0  0  0  0  0  0
    3.4642   -1.5711   -0.4707 C   0  0  0  0  0  0  0  0  0  0  0  0
    3.5777    0.9805   -0.2036 C   0  0  0  0  0  0  0  0  0  0  0  0
    4.2246   -0.2780   -0.6491 C   0  0  0  0  0  0  0  0  0  0  0  0
   -1.5218    0.5893   -1.4344 H   0  0  0  0  0  0  0  0  0  0  0  0
   -0.6908    0.8562    1.4801 H   0  0  0  0  0  0  0  0  0  0  0  0
    0.6463   -0.4427   -0.9603 H   0  0  0  0  0  0  0  0  0  0  0  0
   -1.6085   -1.8772   -1.3789 H   0  0  0  0  0  0  0  0  0  0  0  0
   -2.2770   -2.7238    0.0064 H   0  0  0  0  0  0  0  0  0  0  0  0
   -3.6191   -0.6197   -1.8885 H   0  0  0  0  0  0  0  0  0  0  0  0
   -2.5585    2.6474   -0.9431 H   0  0  0  0  0  0  0  0  0  0  0  0
   -2.9157    2.1952    0.7281 H   0  0  0  0  0  0  0  0  0  0  0  0
   -0.4743   -1.9159    1.4601 H   0  0  0  0  0  0  0  0  0  0  0  0
    0.2066   -2.6129    0.0002 H   0  0  0  0  0  0  0  0  0  0  0  0
    1.4692   -0.2309    1.9772 H   0  0  0  0  0  0  0  0  0  0  0  0
   -0.3250    2.9865    0.3424 H   0  0  0  0  0  0  0  0  0  0  0  0
    0.4203    2.1754   -1.0327 H   0  0  0  0  0  0  0  0  0  0  0  0
   -4.9400    1.3531   -0.0279 H   0  0  0  0  0  0  0  0  0  0  0  0
   -4.4557    1.5270   -1.7113 H   0  0  0  0  0  0  0  0  0  0  0  0
   -3.5593   -1.5298    1.7590 H   0  0  0  0  0  0  0  0  0  0  0  0
   -2.1368   -0.6040    2.2121 H   0  0  0  0  0  0  0  0  0  0  0  0
   -3.6351    0.2287    1.8260 H   0  0  0  0  0  0  0  0  0  0  0  0
    1.4930    2.2979    1.8392 H   0  0  0  0  0  0  0  0  0  0  0  0
    2.1627    3.0929    0.4177 H   0  0  0  0  0  0  0  0  0  0  0  0
    2.1505   -2.4856    0.9770 H   0  0  0  0  0  0  0  0  0  0  0  0
    3.3933   -1.4672    1.6600 H   0  0  0  0  0  0  0  0  0  0  0  0
   -4.6749   -2.0840   -0.4812 H   0  0  0  0  0  0  0  0  0  0  0  0
    2.8096   -1.7178   -1.3359 H   0  0  0  0  0  0  0  0  0  0  0  0
    4.1841   -2.3960   -0.4376 H   0  0  0  0  0  0  0  0  0  0  0  0
    4.0371    1.9128   -0.5123 H   0  0  0  0  0  0  0  0  0  0  0  0
  1  8  1  0  0  0  0
  1 43  1  0  0  0  0
  2 20  2  0  0  0  0
  3  4  1  0  0  0  0
  3  5  1  0  0  0  0
  3  9  1  0  0  0  0
  3 21  1  0  0  0  0
  4  7  1  0  0  0  0
  4  8  1  0  0  0  0
  4 14  1  0  0  0  0
  5  6  1  0  0  0  0
  5 12  1  0  0  0  0
  5 22  1  0  0  0  0
  6 10  1  0  0  0  0
  6 11  1  0  0  0  0
  6 23  1  0  0  0  0
  7 10  1  0  0  0  0
  7 24  1  0  0  0  0
  7 25  1  0  0  0  0
  8 13  1  0  0  0  0
  8 26  1  0  0  0  0
  9 13  1  0  0  0  0
  9 27  1  0  0  0  0
  9 28  1  0  0  0  0
 10 29  1  0  0  0  0
 10 30  1  0  0  0  0
 11 16  1  0  0  0  0
 11 17  1  0  0  0  0
 11 31  1  0  0  0  0
 12 15  1  0  0  0  0
 12 32  1  0  0  0  0
 12 33  1  0  0  0  0
 13 34  1  0  0  0  0
 13 35  1  0  0  0  0
 14 36  1  0  0  0  0
 14 37  1  0  0  0  0
 14 38  1  0  0  0  0
 15 16  1  0  0  0  0
 15 39  1  0  0  0  0
 15 40  1  0  0  0  0
 16 19  2  0  0  0  0
 17 18  1  0  0  0  0
 17 41  1  0  0  0  0
 17 42  1  0  0  0  0
 18 20  1  0  0  0  0
 18 44  1  0  0  0  0
 18 45  1  0  0  0  0
 19 20  1  0  0  0  0
 19 46  1  0  0  0  0
M  END
> <PUBCHEM_COMPOUND_CID>
9904

> <PUBCHEM_CONFORMER_RMSD>
0.6

> <PUBCHEM_CONFORMER_DIVERSEORDER>
2
1

> <PUBCHEM_MMFF94_PARTIAL_CHARGES>
11
1 -0.68
11 0.14
15 0.14
16 -0.28
18 0.06
19 -0.14
2 -0.57
20 0.49
43 0.4
46 0.15
8 0.28

> <PUBCHEM_EFFECTIVE_ROTOR_COUNT>
1.8

> <PUBCHEM_PHARMACOPHORE_FEATURES>
7
1 1 acceptor
1 1 donor
1 2 acceptor
5 3 4 8 9 13 rings
6 11 16 17 18 19 20 rings
6 3 4 5 6 7 10 rings
6 5 6 11 12 15 16 rings

> <PUBCHEM_HEAVY_ATOM_COUNT>
20

> <PUBCHEM_ATOM_DEF_STEREO_COUNT>
6

> <PUBCHEM_ATOM_UDEF_STEREO_COUNT>
0

> <PUBCHEM_BOND_DEF_STEREO_COUNT>
0

> <PUBCHEM_BOND_UDEF_STEREO_COUNT>
0

> <PUBCHEM_ISOTOPIC_ATOM_COUNT>
0

> <PUBCHEM_COMPONENT_COUNT>
1

> <PUBCHEM_CACTVS_TAUTO_COUNT>
8

> <PUBCHEM_CONFORMER_ID>
000026B000000002

> <PUBCHEM_MMFF94_ENERGY>
57.0816

> <PUBCHEM_FEATURE_SELFOVERLAP>
35.636

> <PUBCHEM_SHAPE_FINGERPRINT>
10366900 7 18060138713305396203
10498660 4 17846227686444305181
10759866 29 17917148411650779298
10967382 1 18339088085815687561
11615757 297 18113899347071993969
12011746 2 18413674608390146759
12403259 415 18341621408320527469
12553582 1 18335416889694729400
12670546 177 18343858918640615932
12788726 201 18045217391181536728
12916754 54 18114464444862542843
13140716 1 18266751361689831625
13221675 6 18411420579156216266
13224815 77 18202847647072576217
13296908 3 18413673512793703969
13533116 47 17677895634918762601
14289901 80 14333139562880336832
14790565 3 17759797439680883817
14911166 2 18409730668549747940
15163728 17 16198489734906968879
15196674 1 18411423933435957993
15536298 74 18261401009349666648
15635459 17 18334574650897929510
15848702 151 17604139406615663103
16752209 62 18263370341996435416
16945 1 18267874890785061705
17349148 13 17095522877175114303
17804303 29 18409168805334049645
1813 80 14273725262558187200
18186145 218 18260553320344441201
19591789 44 18411142454460042939
19862831 5 18409449202062874960
200 152 17603586330786630744
20645477 70 18260833665845148660
20871999 31 18412822508084483236
21069387 34 15430040945883597502
21267235 1 18409724054110480790
21637258 2 15864347013175494830
221357 26 18408327687628858621
221490 88 18266457616044127954
2334 1 18411987965715993337
23402539 116 18335423512761114086
23402655 69 18412824720303890020
23493267 7 17704352169088677273
23559900 14 18261402109056804584
2748010 2 18340218418023453505
2871803 45 18341336621322261448
296302 2 13110964218896894656
3004659 81 18200030776525854078
3323516 105 18410296895394449932
335352 9 18194128631939832669
34934 24 18336555941023560176
350125 39 18411135870844935849
42 15 6627747786301978726
4280585 95 17398382517939932734
474 4 16773224094808898172
4921388 177 16415184668452023083
4990 188 18333731333995299110
5104073 3 18410863170048295641
7364860 26 18116157675399960688
74978 22 18334862675367236299
9709674 26 18265621974417094219

> <PUBCHEM_SHAPE_MULTIPOLES>
399.85
8.91
2.16
1.04
1.21
0.41
0.13
-1.2
-2.98
0.01
0.16
0.03
-0.1
0.4

> <PUBCHEM_SHAPE_SELFOVERLAP>
859.057

> <PUBCHEM_SHAPE_VOLUME>
218.3

> <PUBCHEM_COORDINATE_TYPE>
2
5
10

$$$$

