86137
  -OEChem-07051213123D

 41 42  0     1  0  0  0  0  0999 V2000
   -3.6552    2.5597    0.0931 O   0  0  0  0  0  0  0  0  0  0  0  0
    5.2541    0.2694   -0.9556 O   0  0  0  0  0  0  0  0  0  0  0  0
    0.1636   -2.5571   -0.8050 O   0  0  0  0  0  0  0  0  0  0  0  0
    0.0090   -2.6124    1.4527 O   0  0  0  0  0  0  0  0  0  0  0  0
   -1.7530   -0.4331    0.3001 N   0  0  0  0  0  0  0  0  0  0  0  0
   -1.4635    1.7913    0.1768 N   0  0  0  0  0  0  0  0  0  0  0  0
    1.2045    1.6085    0.2352 N   0  0  0  0  0  0  0  0  0  0  0  0
   -3.1037    0.1834    0.2392 C   0  0  2  0  0  0  0  0  0  0  0  0
   -3.8205   -0.3045   -1.0129 C   0  0  0  0  0  0  0  0  0  0  0  0
   -2.8221    1.6703    0.1585 C   0  0  0  0  0  0  0  0  0  0  0  0
   -3.8681   -0.1589    1.5113 C   0  0  0  0  0  0  0  0  0  0  0  0
   -2.9849   -0.0185   -2.2604 C   0  0  0  0  0  0  0  0  0  0  0  0
   -4.1328   -1.7973   -0.9105 C   0  0  0  0  0  0  0  0  0  0  0  0
   -0.9111    0.5549    0.2578 C   0  0  0  0  0  0  0  0  0  0  0  0
    0.5288    0.4338    0.2921 C   0  0  0  0  0  0  0  0  0  0  0  0
    1.1568   -0.8046    0.3768 C   0  0  0  0  0  0  0  0  0  0  0  0
    2.5466   -0.8378    0.4044 C   0  0  0  0  0  0  0  0  0  0  0  0
    3.2661    0.3507    0.3475 C   0  0  0  0  0  0  0  0  0  0  0  0
    2.5543    1.5365    0.2644 C   0  0  0  0  0  0  0  0  0  0  0  0
    0.4037   -2.0483    0.4358 C   0  0  0  0  0  0  0  0  0  0  0  0
    4.7531    0.3489    0.3748 C   0  0  0  0  0  0  0  0  0  0  0  0
    6.6742    0.2650   -0.9763 C   0  0  0  0  0  0  0  0  0  0  0  0
   -4.7718    0.2330   -1.1229 H   0  0  0  0  0  0  0  0  0  0  0  0
   -4.9132    0.1637    1.4485 H   0  0  0  0  0  0  0  0  0  0  0  0
   -3.8422   -1.2299    1.7378 H   0  0  0  0  0  0  0  0  0  0  0  0
   -3.4281    0.3507    2.3776 H   0  0  0  0  0  0  0  0  0  0  0  0
   -2.0362   -0.5653   -2.2648 H   0  0  0  0  0  0  0  0  0  0  0  0
   -3.5343   -0.3331   -3.1556 H   0  0  0  0  0  0  0  0  0  0  0  0
   -2.7735    1.0478   -2.3846 H   0  0  0  0  0  0  0  0  0  0  0  0
   -4.8669   -2.0079   -0.1269 H   0  0  0  0  0  0  0  0  0  0  0  0
   -3.2363   -2.3958   -0.7172 H   0  0  0  0  0  0  0  0  0  0  0  0
   -4.5691   -2.1582   -1.8490 H   0  0  0  0  0  0  0  0  0  0  0  0
   -0.9580    2.6690    0.1354 H   0  0  0  0  0  0  0  0  0  0  0  0
    3.0687   -1.7896    0.4684 H   0  0  0  0  0  0  0  0  0  0  0  0
    3.0590    2.4964    0.2152 H   0  0  0  0  0  0  0  0  0  0  0  0
    5.1235    1.2622    0.8574 H   0  0  0  0  0  0  0  0  0  0  0  0
    5.1199   -0.5027    0.9618 H   0  0  0  0  0  0  0  0  0  0  0  0
   -0.3478   -3.3932   -0.7633 H   0  0  0  0  0  0  0  0  0  0  0  0
    7.0031    0.2029   -2.0171 H   0  0  0  0  0  0  0  0  0  0  0  0
    7.0636   -0.6029   -0.4352 H   0  0  0  0  0  0  0  0  0  0  0  0
    7.0676    1.1887   -0.5407 H   0  0  0  0  0  0  0  0  0  0  0  0
  1 10  2  0  0  0  0
  2 21  1  0  0  0  0
  2 22  1  0  0  0  0
  3 20  1  0  0  0  0
  3 38  1  0  0  0  0
  4 20  2  0  0  0  0
  5  8  1  0  0  0  0
  5 14  2  0  0  0  0
  6 10  1  0  0  0  0
  6 14  1  0  0  0  0
  6 33  1  0  0  0  0
  7 15  1  0  0  0  0
  7 19  2  0  0  0  0
  8  9  1  0  0  0  0
  8 10  1  0  0  0  0
  8 11  1  0  0  0  0
  9 12  1  0  0  0  0
  9 13  1  0  0  0  0
  9 23  1  0  0  0  0
 11 24  1  0  0  0  0
 11 25  1  0  0  0  0
 11 26  1  0  0  0  0
 12 27  1  0  0  0  0
 12 28  1  0  0  0  0
 12 29  1  0  0  0  0
 13 30  1  0  0  0  0
 13 31  1  0  0  0  0
 13 32  1  0  0  0  0
 14 15  1  0  0  0  0
 15 16  2  0  0  0  0
 16 17  1  0  0  0  0
 16 20  1  0  0  0  0
 17 18  2  0  0  0  0
 17 34  1  0  0  0  0
 18 19  1  0  0  0  0
 18 21  1  0  0  0  0
 19 35  1  0  0  0  0
 21 36  1  0  0  0  0
 21 37  1  0  0  0  0
 22 39  1  0  0  0  0
 22 40  1  0  0  0  0
 22 41  1  0  0  0  0
M  END
> <PUBCHEM_COMPOUND_CID>
86137

> <PUBCHEM_CONFORMER_RMSD>
0.8

> <PUBCHEM_CONFORMER_DIVERSEORDER>
1
24
3
8
7
27
14
21
23
26
29
30
9
20
18
32
13
2
31
15
11
16
12
28
19
6
22
10
5
25
17
4

> <PUBCHEM_MMFF94_PARTIAL_CHARGES>
22
1 -0.57
10 0.57
14 0.42
15 0.4
16 0.09
17 -0.15
18 -0.14
19 0.16
2 -0.56
20 0.63
21 0.42
22 0.28
3 -0.65
33 0.37
34 0.15
35 0.15
38 0.5
4 -0.57
5 -0.7
6 -0.49
7 -0.62
8 0.31

> <PUBCHEM_EFFECTIVE_ROTOR_COUNT>
5.4

> <PUBCHEM_PHARMACOPHORE_FEATURES>
10
1 1 acceptor
1 2 acceptor
1 3 acceptor
1 4 acceptor
1 6 donor
1 7 acceptor
3 3 4 20 anion
3 9 12 13 hydrophobe
5 5 6 8 10 14 rings
6 7 15 16 17 18 19 rings

> <PUBCHEM_HEAVY_ATOM_COUNT>
22

> <PUBCHEM_ATOM_DEF_STEREO_COUNT>
0

> <PUBCHEM_ATOM_UDEF_STEREO_COUNT>
1

> <PUBCHEM_BOND_DEF_STEREO_COUNT>
0

> <PUBCHEM_BOND_UDEF_STEREO_COUNT>
0

> <PUBCHEM_ISOTOPIC_ATOM_COUNT>
0

> <PUBCHEM_COMPONENT_COUNT>
1

> <PUBCHEM_CACTVS_TAUTO_COUNT>
3

> <PUBCHEM_CONFORMER_ID>
0001507900000001

> <PUBCHEM_MMFF94_ENERGY>
67.3021

> <PUBCHEM_FEATURE_SELFOVERLAP>
50.803

> <PUBCHEM_SHAPE_FINGERPRINT>
11578080 2 17558840726205786215
11796584 16 15140954080639546476
12011746 2 18343022172937701662
12236239 1 17748826281014569473
12403259 415 18272658908864526773
13288520 33 17822008692253139085
13583140 156 16702306715329102056
13862211 1 18410298012808718050
14251751 93 18041002846947122461
15183329 4 18410852179823265414
15196674 1 18339361971785509906
15209289 33 18334293149792537113
16945 1 18411144640608712531
17349148 13 18409731755545745568
18186145 218 17894634746866838536
200 152 18336841818373456269
20602899 9 17022895723424918574
21267235 1 18335135341957002863
21634736 98 18118137878286773463
21709351 56 18412547617377650788
22393880 68 18334870427741371389
23402539 116 18333732429497107884
23402655 69 18336550528795503168
23559900 14 18263640681252088664
2748010 2 17472702425163733857
2871803 45 18336562520918765007
296302 2 14476968890939198632
34934 24 18265054815765299913
3759504 43 17704065162874896098
4409770 3 14156688421607322693
4990 188 17967810570443097292
5104073 3 18340770458786259240
633830 44 18270116958440490622

> <PUBCHEM_SHAPE_MULTIPOLES>
414.33
10.57
2.26
1.28
13.63
0.52
0.41
-1.61
3.46
-1.45
-0.29
-0.93
0.35
-0.48

> <PUBCHEM_SHAPE_SELFOVERLAP>
883.33

> <PUBCHEM_SHAPE_VOLUME>
232.2

> <PUBCHEM_COORDINATE_TYPE>
2
5
10

$$$$

