439763
  -OEChem-07051212473D

 78 81  0     1  0  0  0  0  0999 V2000
    6.5019    2.6082   -0.0770 S   0  0  0  0  0  0  0  0  0  0  0  0
   -5.7233    3.5706    1.9658 O   0  0  0  0  0  0  0  0  0  0  0  0
    5.6673   -2.0333   -0.3974 O   0  0  0  0  0  0  0  0  0  0  0  0
    7.1728    3.4023   -1.3339 O   0  0  0  0  0  0  0  0  0  0  0  0
    6.9303    3.2405    1.1571 O   0  0  0  0  0  0  0  0  0  0  0  0
    5.0979    2.3799   -0.3658 O   0  0  0  0  0  0  0  0  0  0  0  0
    5.7190   -0.1895    1.0158 N   0  0  0  0  0  0  0  0  0  0  0  0
   -0.9170   -1.6435   -0.1349 C   0  0  1  0  0  0  0  0  0  0  0  0
   -1.2959   -0.3404   -0.8710 C   0  0  2  0  0  0  0  0  0  0  0  0
   -2.7918   -0.2499   -1.1930 C   0  0  1  0  0  0  0  0  0  0  0  0
   -3.5964   -0.3063    0.1461 C   0  0  1  0  0  0  0  0  0  0  0  0
   -5.1479   -0.1752   -0.0927 C   0  0  2  0  0  0  0  0  0  0  0  0
    0.6127   -1.4299   -0.0268 C   0  0  2  0  0  0  0  0  0  0  0  0
   -1.6616   -1.6569    1.2068 C   0  0  0  0  0  0  0  0  0  0  0  0
   -5.4395    1.1246   -0.9170 C   0  0  2  0  0  0  0  0  0  0  0  0
   -3.1839   -1.5252    1.0154 C   0  0  0  0  0  0  0  0  0  0  0  0
   -0.2849   -0.2655   -2.0114 C   0  0  0  0  0  0  0  0  0  0  0  0
   -3.1172    1.0224   -1.9858 C   0  0  0  0  0  0  0  0  0  0  0  0
    1.0017   -0.8638   -1.4126 C   0  0  0  0  0  0  0  0  0  0  0  0
   -4.6164    1.1902   -2.2144 C   0  0  0  0  0  0  0  0  0  0  0  0
   -5.9505   -0.1074    1.2398 C   0  0  0  0  0  0  0  0  0  0  0  0
   -1.2448   -2.9357   -0.9246 C   0  0  0  0  0  0  0  0  0  0  0  0
    1.4440   -2.6405    0.3729 C   0  0  1  0  0  0  0  0  0  0  0  0
   -5.2345    2.4130   -0.0920 C   0  0  0  0  0  0  0  0  0  0  0  0
   -5.6984   -1.4043   -0.8620 C   0  0  0  0  0  0  0  0  0  0  0  0
   -5.7098    1.1633    2.0448 C   0  0  0  0  0  0  0  0  0  0  0  0
   -6.0244    2.4001    1.2130 C   0  0  1  0  0  0  0  0  0  0  0  0
    2.9315   -2.4947   -0.0075 C   0  0  0  0  0  0  0  0  0  0  0  0
    1.3272   -2.8818    1.8823 C   0  0  0  0  0  0  0  0  0  0  0  0
    3.6268   -1.3315    0.7006 C   0  0  0  0  0  0  0  0  0  0  0  0
    5.1065   -1.2503    0.3644 C   0  0  0  0  0  0  0  0  0  0  0  0
    7.1220    0.1233    0.8690 C   0  0  0  0  0  0  0  0  0  0  0  0
    7.3768    1.0871   -0.2740 C   0  0  0  0  0  0  0  0  0  0  0  0
   -1.0671    0.5117   -0.2087 H   0  0  0  0  0  0  0  0  0  0  0  0
   -3.0688   -1.0992   -1.8253 H   0  0  0  0  0  0  0  0  0  0  0  0
   -3.2808    0.5725    0.7253 H   0  0  0  0  0  0  0  0  0  0  0  0
    0.7952   -0.6219    0.6981 H   0  0  0  0  0  0  0  0  0  0  0  0
   -1.4784   -2.5821    1.7585 H   0  0  0  0  0  0  0  0  0  0  0  0
   -1.3139   -0.8335    1.8437 H   0  0  0  0  0  0  0  0  0  0  0  0
   -6.4993    1.1116   -1.2108 H   0  0  0  0  0  0  0  0  0  0  0  0
   -3.6314   -1.4420    2.0115 H   0  0  0  0  0  0  0  0  0  0  0  0
   -3.5694   -2.4520    0.5792 H   0  0  0  0  0  0  0  0  0  0  0  0
   -0.6134   -0.8508   -2.8776 H   0  0  0  0  0  0  0  0  0  0  0  0
   -0.1244    0.7638   -2.3483 H   0  0  0  0  0  0  0  0  0  0  0  0
   -2.7189    1.9020   -1.4666 H   0  0  0  0  0  0  0  0  0  0  0  0
   -2.6182    0.9911   -2.9619 H   0  0  0  0  0  0  0  0  0  0  0  0
    1.3620   -1.6364   -2.1001 H   0  0  0  0  0  0  0  0  0  0  0  0
    1.7769   -0.0954   -1.3322 H   0  0  0  0  0  0  0  0  0  0  0  0
   -4.9607    0.4118   -2.9060 H   0  0  0  0  0  0  0  0  0  0  0  0
   -4.7985    2.1438   -2.7251 H   0  0  0  0  0  0  0  0  0  0  0  0
   -5.7469   -0.9809    1.8682 H   0  0  0  0  0  0  0  0  0  0  0  0
   -7.0249   -0.1589    1.0120 H   0  0  0  0  0  0  0  0  0  0  0  0
   -2.2964   -2.9949   -1.2175 H   0  0  0  0  0  0  0  0  0  0  0  0
   -1.0506   -3.8265   -0.3168 H   0  0  0  0  0  0  0  0  0  0  0  0
   -0.6564   -3.0284   -1.8428 H   0  0  0  0  0  0  0  0  0  0  0  0
    1.1048   -3.5439   -0.1436 H   0  0  0  0  0  0  0  0  0  0  0  0
   -5.5405    3.2846   -0.6855 H   0  0  0  0  0  0  0  0  0  0  0  0
   -4.1753    2.5825    0.1343 H   0  0  0  0  0  0  0  0  0  0  0  0
   -5.6282   -2.3179   -0.2626 H   0  0  0  0  0  0  0  0  0  0  0  0
   -5.1769   -1.5883   -1.8042 H   0  0  0  0  0  0  0  0  0  0  0  0
   -6.7585   -1.2669   -1.1065 H   0  0  0  0  0  0  0  0  0  0  0  0
   -4.6786    1.2044    2.4150 H   0  0  0  0  0  0  0  0  0  0  0  0
   -6.3397    1.1591    2.9430 H   0  0  0  0  0  0  0  0  0  0  0  0
   -7.0986    2.4220    0.9919 H   0  0  0  0  0  0  0  0  0  0  0  0
    3.4484   -3.4261    0.2642 H   0  0  0  0  0  0  0  0  0  0  0  0
    3.0665   -2.4132   -1.0910 H   0  0  0  0  0  0  0  0  0  0  0  0
    2.1223   -3.5477    2.2369 H   0  0  0  0  0  0  0  0  0  0  0  0
    0.3898   -3.3853    2.1267 H   0  0  0  0  0  0  0  0  0  0  0  0
    1.3799   -1.9564    2.4649 H   0  0  0  0  0  0  0  0  0  0  0  0
   -5.9439    4.3398    1.4133 H   0  0  0  0  0  0  0  0  0  0  0  0
    3.1732   -0.3726    0.4326 H   0  0  0  0  0  0  0  0  0  0  0  0
    3.5551   -1.4416    1.7884 H   0  0  0  0  0  0  0  0  0  0  0  0
    5.1632    0.4062    1.6228 H   0  0  0  0  0  0  0  0  0  0  0  0
    7.6809   -0.8042    0.7048 H   0  0  0  0  0  0  0  0  0  0  0  0
    7.4526    0.5533    1.8203 H   0  0  0  0  0  0  0  0  0  0  0  0
    8.4441    1.3245   -0.3245 H   0  0  0  0  0  0  0  0  0  0  0  0
    7.0651    0.6543   -1.2303 H   0  0  0  0  0  0  0  0  0  0  0  0
    6.9045    3.0849   -2.2281 H   0  0  0  0  0  0  0  0  0  0  0  0
  1  4  1  0  0  0  0
  1  5  2  0  0  0  0
  1  6  2  0  0  0  0
  1 33  1  0  0  0  0
  2 27  1  0  0  0  0
  2 70  1  0  0  0  0
  3 31  2  0  0  0  0
  4 78  1  0  0  0  0
  7 31  1  0  0  0  0
  7 32  1  0  0  0  0
  7 73  1  0  0  0  0
  8  9  1  0  0  0  0
  8 13  1  0  0  0  0
  8 14  1  0  0  0  0
  8 22  1  0  0  0  0
  9 10  1  0  0  0  0
  9 17  1  0  0  0  0
  9 34  1  0  0  0  0
 10 11  1  0  0  0  0
 10 18  1  0  0  0  0
 10 35  1  0  0  0  0
 11 12  1  0  0  0  0
 11 16  1  0  0  0  0
 11 36  1  0  0  0  0
 12 15  1  0  0  0  0
 12 21  1  0  0  0  0
 12 25  1  0  0  0  0
 13 19  1  0  0  0  0
 13 23  1  0  0  0  0
 13 37  1  0  0  0  0
 14 16  1  0  0  0  0
 14 38  1  0  0  0  0
 14 39  1  0  0  0  0
 15 20  1  0  0  0  0
 15 24  1  0  0  0  0
 15 40  1  0  0  0  0
 16 41  1  0  0  0  0
 16 42  1  0  0  0  0
 17 19  1  0  0  0  0
 17 43  1  0  0  0  0
 17 44  1  0  0  0  0
 18 20  1  0  0  0  0
 18 45  1  0  0  0  0
 18 46  1  0  0  0  0
 19 47  1  0  0  0  0
 19 48  1  0  0  0  0
 20 49  1  0  0  0  0
 20 50  1  0  0  0  0
 21 26  1  0  0  0  0
 21 51  1  0  0  0  0
 21 52  1  0  0  0  0
 22 53  1  0  0  0  0
 22 54  1  0  0  0  0
 22 55  1  0  0  0  0
 23 28  1  0  0  0  0
 23 29  1  0  0  0  0
 23 56  1  0  0  0  0
 24 27  1  0  0  0  0
 24 57  1  0  0  0  0
 24 58  1  0  0  0  0
 25 59  1  0  0  0  0
 25 60  1  0  0  0  0
 25 61  1  0  0  0  0
 26 27  1  0  0  0  0
 26 62  1  0  0  0  0
 26 63  1  0  0  0  0
 27 64  1  0  0  0  0
 28 30  1  0  0  0  0
 28 65  1  0  0  0  0
 28 66  1  0  0  0  0
 29 67  1  0  0  0  0
 29 68  1  0  0  0  0
 29 69  1  0  0  0  0
 30 31  1  0  0  0  0
 30 71  1  0  0  0  0
 30 72  1  0  0  0  0
 32 33  1  0  0  0  0
 32 74  1  0  0  0  0
 32 75  1  0  0  0  0
 33 76  1  0  0  0  0
 33 77  1  0  0  0  0
M  END
> <PUBCHEM_COMPOUND_CID>
439763

> <PUBCHEM_CONFORMER_RMSD>
1.2

> <PUBCHEM_CONFORMER_DIVERSEORDER>
4
56
25
39
38
33
17
55
28
13
26
52
50
34
30
43
10
8
35
1
40
41
20
36
47
16
29
42
24
49
23
9
18
37
31
27
21
11
45
48
14
54
15
22
44
2
53
51
3
46
6
12
19
5
32
7

> <PUBCHEM_MMFF94_PARTIAL_CHARGES>
15
1 1.38
2 -0.68
27 0.28
3 -0.57
30 0.06
31 0.57
32 0.3
33 0.11
4 -0.68
5 -0.65
6 -0.65
7 -0.73
70 0.4
73 0.37
78 0.5

> <PUBCHEM_EFFECTIVE_ROTOR_COUNT>
10.2

> <PUBCHEM_PHARMACOPHORE_FEATURES>
13
1 2 acceptor
1 2 donor
1 29 hydrophobe
1 3 acceptor
1 4 acceptor
1 5 acceptor
1 6 acceptor
1 7 donor
4 1 4 5 6 anion
5 8 9 13 17 19 rings
6 10 11 12 15 18 20 rings
6 12 15 21 24 26 27 rings
6 8 9 10 11 14 16 rings

> <PUBCHEM_HEAVY_ATOM_COUNT>
33

> <PUBCHEM_ATOM_DEF_STEREO_COUNT>
9

> <PUBCHEM_ATOM_UDEF_STEREO_COUNT>
0

> <PUBCHEM_BOND_DEF_STEREO_COUNT>
0

> <PUBCHEM_BOND_UDEF_STEREO_COUNT>
0

> <PUBCHEM_ISOTOPIC_ATOM_COUNT>
0

> <PUBCHEM_COMPONENT_COUNT>
1

> <PUBCHEM_CACTVS_TAUTO_COUNT>
2

> <PUBCHEM_CONFORMER_ID>
0006B5D300000004

> <PUBCHEM_MMFF94_ENERGY>
93.038

> <PUBCHEM_FEATURE_SELFOVERLAP>
66.15

> <PUBCHEM_SHAPE_FINGERPRINT>
10 15 17632578253810107282
10554248 39 17603864555159459710
10693767 8 8358255913365804068
10906281 52 18041272244470645118
11007060 377 18060707186713457771
11456790 92 18058741320727497570
12013929 29 18115581707274279424
12422481 6 17203613675021433238
12677640 9 17910389494399613854
13782708 43 11024106542878660050
14202776 33 17894922797849929879
14394314 77 18335416876531486992
14849402 71 18410571743295281841
14856354 85 17531534183632911431
14904525 67 18261675977514929080
15183329 4 18409453574593238200
15519825 34 15482382054373046136
15840311 113 18339637953335557789
16994733 274 18113623404192749418
17686467 74 18201438018307632611
18393751 57 18273213105964996291
2026 5 10159685894543109769
20691028 202 18409451345879303504
21033648 29 17632017567562654197
21033650 10 15213562504138851314
22122407 14 18334007289991990264
23569914 152 7924253294773146337
2748736 6 18408612452640156528
2838139 119 17894639144776218952
328310 630 18260830414491569497
3418910 222 18040431097508337585
392239 28 18201721803374965237
394071 54 18341614845678558006
397830 11 18130782352169219338
4093350 32 17894907452221970414
4169191 19 18413672404787373060
5104073 3 18060416915206076826
5223283 242 18191294087491911702
5364581 5 17845931806379210044
5718773 13 9439410120995532944
5911458 16 18114460149405305968
6608658 132 16515677887873355187

> <PUBCHEM_SHAPE_MULTIPOLES>
648.65
21.46
3.9
1.88
28.19
1.93
-0.05
20.6
4.75
3.72
0.94
-2.44
0.57
-1.78

> <PUBCHEM_SHAPE_SELFOVERLAP>
1332.228

> <PUBCHEM_SHAPE_VOLUME>
377.4

> <PUBCHEM_COORDINATE_TYPE>
2
5
10

$$$$

