3082089
  -OEChem-07051212503D

 78 81  0     1  0  0  0  0  0999 V2000
   -1.9825    1.4073   -2.1053 O   0  0  0  0  0  0  0  0  0  0  0  0
   -4.9623    3.6002    1.1895 O   0  0  0  0  0  0  0  0  0  0  0  0
    5.7656    2.7824   -1.2111 O   0  0  0  0  0  0  0  0  0  0  0  0
   -0.2897   -0.6027   -0.9564 C   0  0  2  0  0  0  0  0  0  0  0  0
    0.3745   -1.4993    0.1104 C   0  0  1  0  0  0  0  0  0  0  0  0
   -1.8164   -0.7624   -1.0124 C   0  0  1  0  0  0  0  0  0  0  0  0
   -2.4094   -0.3852    0.3875 C   0  0  1  0  0  0  0  0  0  0  0  0
   -3.9795   -0.5241    0.4126 C   0  0  2  0  0  0  0  0  0  0  0  0
    1.8579   -1.1415   -0.1535 C   0  0  2  0  0  0  0  0  0  0  0  0
   -4.5945    0.3512   -0.7299 C   0  0  2  0  0  0  0  0  0  0  0  0
   -0.1571   -1.0601    1.4804 C   0  0  0  0  0  0  0  0  0  0  0  0
   -1.6927   -1.1355    1.5448 C   0  0  0  0  0  0  0  0  0  0  0  0
    0.5256   -0.8816   -2.2161 C   0  0  0  0  0  0  0  0  0  0  0  0
   -2.4501    0.0626   -2.1485 C   0  0  1  0  0  0  0  0  0  0  0  0
    1.9571   -1.1081   -1.6963 C   0  0  0  0  0  0  0  0  0  0  0  0
   -3.9806    0.0339   -2.1087 C   0  0  0  0  0  0  0  0  0  0  0  0
   -4.5990   -0.0799    1.7708 C   0  0  0  0  0  0  0  0  0  0  0  0
    0.1232   -3.0149   -0.0867 C   0  0  0  0  0  0  0  0  0  0  0  0
    2.9020   -2.0443    0.4875 C   0  0  1  0  0  0  0  0  0  0  0  0
   -4.5322    1.8635   -0.4276 C   0  0  0  0  0  0  0  0  0  0  0  0
   -4.4144   -2.0012    0.2145 C   0  0  0  0  0  0  0  0  0  0  0  0
   -4.4941    1.4145    2.0431 C   0  0  0  0  0  0  0  0  0  0  0  0
   -5.1469    2.2137    0.9239 C   0  0  1  0  0  0  0  0  0  0  0  0
    4.3192   -1.5802    0.0912 C   0  0  0  0  0  0  0  0  0  0  0  0
    2.7070   -2.0743    2.0070 C   0  0  0  0  0  0  0  0  0  0  0  0
    4.6688   -0.1710    0.5823 C   0  0  0  0  0  0  0  0  0  0  0  0
    6.1121    0.1979    0.2194 C   0  0  0  0  0  0  0  0  0  0  0  0
    6.5456    1.5773    0.7572 C   0  0  2  0  0  0  0  0  0  0  0  0
    5.6321    2.6795    0.1997 C   0  0  0  0  0  0  0  0  0  0  0  0
    8.0109    1.8823    0.4312 C   0  0  0  0  0  0  0  0  0  0  0  0
   -0.0804    0.4447   -0.6857 H   0  0  0  0  0  0  0  0  0  0  0  0
   -2.0469   -1.8107   -1.2262 H   0  0  0  0  0  0  0  0  0  0  0  0
   -2.1727    0.6720    0.5619 H   0  0  0  0  0  0  0  0  0  0  0  0
    2.0010   -0.1133    0.2061 H   0  0  0  0  0  0  0  0  0  0  0  0
   -5.6645    0.1052   -0.8024 H   0  0  0  0  0  0  0  0  0  0  0  0
    0.2153   -1.6769    2.2988 H   0  0  0  0  0  0  0  0  0  0  0  0
    0.1516   -0.0291    1.6961 H   0  0  0  0  0  0  0  0  0  0  0  0
   -1.9979   -0.7096    2.5069 H   0  0  0  0  0  0  0  0  0  0  0  0
   -1.9963   -2.1866    1.5638 H   0  0  0  0  0  0  0  0  0  0  0  0
    0.4879   -0.0461   -2.9224 H   0  0  0  0  0  0  0  0  0  0  0  0
    0.1636   -1.7739   -2.7390 H   0  0  0  0  0  0  0  0  0  0  0  0
   -2.1279   -0.3400   -3.1155 H   0  0  0  0  0  0  0  0  0  0  0  0
    2.3489   -2.0446   -2.1094 H   0  0  0  0  0  0  0  0  0  0  0  0
    2.6192   -0.2990   -2.0244 H   0  0  0  0  0  0  0  0  0  0  0  0
   -4.3774    0.7413   -2.8478 H   0  0  0  0  0  0  0  0  0  0  0  0
   -4.3181   -0.9611   -2.4236 H   0  0  0  0  0  0  0  0  0  0  0  0
   -5.6664   -0.3436    1.7791 H   0  0  0  0  0  0  0  0  0  0  0  0
   -4.1601   -0.6355    2.6063 H   0  0  0  0  0  0  0  0  0  0  0  0
   -0.9406   -3.2665   -0.1023 H   0  0  0  0  0  0  0  0  0  0  0  0
    0.5620   -3.6051    0.7235 H   0  0  0  0  0  0  0  0  0  0  0  0
    0.5466   -3.3890   -1.0242 H   0  0  0  0  0  0  0  0  0  0  0  0
    2.8016   -3.0711    0.1143 H   0  0  0  0  0  0  0  0  0  0  0  0
   -5.0585    2.4219   -1.2127 H   0  0  0  0  0  0  0  0  0  0  0  0
   -3.5121    2.2512   -0.4395 H   0  0  0  0  0  0  0  0  0  0  0  0
   -4.0171   -2.4477   -0.6998 H   0  0  0  0  0  0  0  0  0  0  0  0
   -4.0990   -2.6300    1.0533 H   0  0  0  0  0  0  0  0  0  0  0  0
   -5.5067   -2.0795    0.1545 H   0  0  0  0  0  0  0  0  0  0  0  0
   -4.9837    1.6506    2.9960 H   0  0  0  0  0  0  0  0  0  0  0  0
   -3.4480    1.7171    2.1716 H   0  0  0  0  0  0  0  0  0  0  0  0
   -6.2257    2.0195    0.8977 H   0  0  0  0  0  0  0  0  0  0  0  0
    5.0418   -2.2893    0.5166 H   0  0  0  0  0  0  0  0  0  0  0  0
    4.4554   -1.6376   -0.9950 H   0  0  0  0  0  0  0  0  0  0  0  0
   -1.7499    1.6518   -1.1972 H   0  0  0  0  0  0  0  0  0  0  0  0
    1.9298   -2.7821    2.3016 H   0  0  0  0  0  0  0  0  0  0  0  0
    2.4904   -1.0867    2.4255 H   0  0  0  0  0  0  0  0  0  0  0  0
    3.6207   -2.4352    2.4946 H   0  0  0  0  0  0  0  0  0  0  0  0
    4.5429   -0.0976    1.6676 H   0  0  0  0  0  0  0  0  0  0  0  0
    3.9904    0.5455    0.1158 H   0  0  0  0  0  0  0  0  0  0  0  0
   -5.3790    3.7933    2.0465 H   0  0  0  0  0  0  0  0  0  0  0  0
    6.7873   -0.5630    0.6315 H   0  0  0  0  0  0  0  0  0  0  0  0
    6.2353    0.1635   -0.8705 H   0  0  0  0  0  0  0  0  0  0  0  0
    6.4383    1.5709    1.8495 H   0  0  0  0  0  0  0  0  0  0  0  0
    5.9251    3.6446    0.6292 H   0  0  0  0  0  0  0  0  0  0  0  0
    4.5802    2.5279    0.4538 H   0  0  0  0  0  0  0  0  0  0  0  0
    8.6676    1.1362    0.8912 H   0  0  0  0  0  0  0  0  0  0  0  0
    8.1962    1.8694   -0.6479 H   0  0  0  0  0  0  0  0  0  0  0  0
    8.3001    2.8655    0.8167 H   0  0  0  0  0  0  0  0  0  0  0  0
    5.1830    3.5047   -1.5014 H   0  0  0  0  0  0  0  0  0  0  0  0
  1 14  1  0  0  0  0
  1 63  1  0  0  0  0
  2 23  1  0  0  0  0
  2 69  1  0  0  0  0
  3 29  1  0  0  0  0
  3 78  1  0  0  0  0
  4  5  1  0  0  0  0
  4  6  1  0  0  0  0
  4 13  1  0  0  0  0
  4 31  1  0  0  0  0
  5  9  1  0  0  0  0
  5 11  1  0  0  0  0
  5 18  1  0  0  0  0
  6  7  1  0  0  0  0
  6 14  1  0  0  0  0
  6 32  1  0  0  0  0
  7  8  1  0  0  0  0
  7 12  1  0  0  0  0
  7 33  1  0  0  0  0
  8 10  1  0  0  0  0
  8 17  1  0  0  0  0
  8 21  1  0  0  0  0
  9 15  1  0  0  0  0
  9 19  1  0  0  0  0
  9 34  1  0  0  0  0
 10 16  1  0  0  0  0
 10 20  1  0  0  0  0
 10 35  1  0  0  0  0
 11 12  1  0  0  0  0
 11 36  1  0  0  0  0
 11 37  1  0  0  0  0
 12 38  1  0  0  0  0
 12 39  1  0  0  0  0
 13 15  1  0  0  0  0
 13 40  1  0  0  0  0
 13 41  1  0  0  0  0
 14 16  1  0  0  0  0
 14 42  1  0  0  0  0
 15 43  1  0  0  0  0
 15 44  1  0  0  0  0
 16 45  1  0  0  0  0
 16 46  1  0  0  0  0
 17 22  1  0  0  0  0
 17 47  1  0  0  0  0
 17 48  1  0  0  0  0
 18 49  1  0  0  0  0
 18 50  1  0  0  0  0
 18 51  1  0  0  0  0
 19 24  1  0  0  0  0
 19 25  1  0  0  0  0
 19 52  1  0  0  0  0
 20 23  1  0  0  0  0
 20 53  1  0  0  0  0
 20 54  1  0  0  0  0
 21 55  1  0  0  0  0
 21 56  1  0  0  0  0
 21 57  1  0  0  0  0
 22 23  1  0  0  0  0
 22 58  1  0  0  0  0
 22 59  1  0  0  0  0
 23 60  1  0  0  0  0
 24 26  1  0  0  0  0
 24 61  1  0  0  0  0
 24 62  1  0  0  0  0
 25 64  1  0  0  0  0
 25 65  1  0  0  0  0
 25 66  1  0  0  0  0
 26 27  1  0  0  0  0
 26 67  1  0  0  0  0
 26 68  1  0  0  0  0
 27 28  1  0  0  0  0
 27 70  1  0  0  0  0
 27 71  1  0  0  0  0
 28 29  1  0  0  0  0
 28 30  1  0  0  0  0
 28 72  1  0  0  0  0
 29 73  1  0  0  0  0
 29 74  1  0  0  0  0
 30 75  1  0  0  0  0
 30 76  1  0  0  0  0
 30 77  1  0  0  0  0
M  END
> <PUBCHEM_COMPOUND_CID>
3082089

> <PUBCHEM_CONFORMER_RMSD>
1

> <PUBCHEM_CONFORMER_DIVERSEORDER>
3
9
1
10
5
6
8
7
2
4

> <PUBCHEM_MMFF94_PARTIAL_CHARGES>
9
1 -0.68
14 0.28
2 -0.68
23 0.28
29 0.28
3 -0.68
63 0.4
69 0.4
78 0.4

> <PUBCHEM_EFFECTIVE_ROTOR_COUNT>
8.2

> <PUBCHEM_PHARMACOPHORE_FEATURES>
13
1 1 acceptor
1 1 donor
1 2 acceptor
1 2 donor
1 25 hydrophobe
1 3 acceptor
1 3 donor
1 30 hydrophobe
5 19 24 26 27 28 hydrophobe
5 4 5 9 13 15 rings
6 4 5 6 7 11 12 rings
6 6 7 8 10 14 16 rings
6 8 10 17 20 22 23 rings

> <PUBCHEM_HEAVY_ATOM_COUNT>
30

> <PUBCHEM_ATOM_DEF_STEREO_COUNT>
10

> <PUBCHEM_ATOM_UDEF_STEREO_COUNT>
1

> <PUBCHEM_BOND_DEF_STEREO_COUNT>
0

> <PUBCHEM_BOND_UDEF_STEREO_COUNT>
0

> <PUBCHEM_ISOTOPIC_ATOM_COUNT>
0

> <PUBCHEM_COMPONENT_COUNT>
1

> <PUBCHEM_CACTVS_TAUTO_COUNT>
1

> <PUBCHEM_CONFORMER_ID>
002F076900000003

> <PUBCHEM_MMFF94_ENERGY>
102.9572

> <PUBCHEM_FEATURE_SELFOVERLAP>
66.09

> <PUBCHEM_SHAPE_FINGERPRINT>
10 15 16845574193462972332
10319926 262 15841280349856582586
10369192 42 18041275478712855526
10670039 82 16443062803117760928
11135609 201 18333729109207534227
12422481 6 16774082860582226726
13140716 1 16414041168065055019
13690498 29 15575859204472285629
13782708 43 9367344821612137688
14202776 33 17822579296038625583
14251751 18 10807928271638254368
14251764 30 10015862072478391642
14790565 3 18335420158217900856
14856354 85 17386574535708048663
15183329 4 14851599973671305862
15419009 47 8429502088917845034
15475509 35 11959432484498599124
15575132 122 17676487254744116080
15840311 113 18337948021265231285
17349148 13 12894490230985423691
17913733 40 18060705004880718650
18393751 57 18202276979437977347
20567600 247 9511455624489785728
21033648 29 17203051884276573511
21298829 104 18261395516994291720
21756936 100 18187368679917910286
22122407 14 18409442553960247928
22393880 68 14779564386407837071
23559900 14 16485855911735984282
23569914 152 6985822293329723289
23569914 2 17759007840235223664
2748736 6 18409455752552958392
2838139 119 18186804639269688376
3882209 13 16481324493130626754
392239 28 17846784009489918324
4058900 60 17676763262291106878
4258327 124 17968098651306765157
437815 12 7565348647914140786
474113 269 13614239240300319457
5104073 3 16773245127052665562
5364581 5 17346595223169301340
56638632 10 18269840826593325356
6034566 193 18187085052814464063
633830 44 18188212116599817878
6608658 132 16950554515305206944

> <PUBCHEM_SHAPE_MULTIPOLES>
599.78
16.49
3.12
2.09
24.41
1.69
-0.5
15.47
3.75
1.11
0.73
-1.93
-0.01
-1.2

> <PUBCHEM_SHAPE_SELFOVERLAP>
1238.083

> <PUBCHEM_SHAPE_VOLUME>
342.8

> <PUBCHEM_COORDINATE_TYPE>
2
5
10

$$$$

