23724762
  -OEChem-07051213083D

 16 16  0     1  0  0  0  0  0999 V2000
    0.6264    0.3604   -1.6223 F   0  0  0  0  0  0  0  0  0  0  0  0
   -0.6797   -0.6616    0.5426 O   0  0  0  0  0  0  0  0  0  0  0  0
    2.6968    0.1471    1.2615 O   0  0  0  0  0  0  0  0  0  0  0  0
   -2.7351   -1.5522    0.0133 O   0  0  0  0  0  0  0  0  0  0  0  0
    2.5547   -1.1710   -0.5835 O   0  0  0  0  0  0  0  0  0  0  0  0
   -0.1237    0.6607    0.5598 C   0  0  1  0  0  0  0  0  0  0  0  0
    1.0668    0.7179   -0.3822 C   0  0  1  0  0  0  0  0  0  0  0  0
   -1.2506    1.5146    0.1268 C   0  0  0  0  0  0  0  0  0  0  0  0
   -2.3394    0.7940   -0.1197 C   0  0  0  0  0  0  0  0  0  0  0  0
   -1.9826   -0.6016    0.1388 C   0  0  0  0  0  0  0  0  0  0  0  0
    2.1664   -0.2083    0.0650 C   0  0  0  0  0  0  0  0  0  0  0  0
    0.1648    0.8972    1.5899 H   0  0  0  0  0  0  0  0  0  0  0  0
    1.4767    1.7300   -0.4656 H   0  0  0  0  0  0  0  0  0  0  0  0
   -1.1983    2.5894    0.0301 H   0  0  0  0  0  0  0  0  0  0  0  0
   -3.3042    1.1411   -0.4453 H   0  0  0  0  0  0  0  0  0  0  0  0
    3.4163   -0.4598    1.5380 H   0  0  0  0  0  0  0  0  0  0  0  0
  1  7  1  0  0  0  0
  2  6  1  0  0  0  0
  2 10  1  0  0  0  0
  3 11  1  0  0  0  0
  3 16  1  0  0  0  0
  4 10  2  0  0  0  0
  5 11  2  0  0  0  0
  6  7  1  0  0  0  0
  6  8  1  0  0  0  0
  6 12  1  0  0  0  0
  7 11  1  0  0  0  0
  7 13  1  0  0  0  0
  8  9  2  0  0  0  0
  8 14  1  0  0  0  0
  9 10  1  0  0  0  0
  9 15  1  0  0  0  0
M  END
> <PUBCHEM_COMPOUND_CID>
23724762

> <PUBCHEM_CONFORMER_RMSD>
0.6

> <PUBCHEM_CONFORMER_DIVERSEORDER>
1
6
12
10
7
5
13
15
14
9
3
8
16
11
2
4

> <PUBCHEM_MMFF94_PARTIAL_CHARGES>
14
1 -0.34
10 0.71
11 0.66
14 0.15
15 0.15
16 0.5
2 -0.43
3 -0.65
4 -0.57
5 -0.57
6 0.42
7 0.4
8 -0.29
9 -0.14

> <PUBCHEM_EFFECTIVE_ROTOR_COUNT>
2.4

> <PUBCHEM_PHARMACOPHORE_FEATURES>
5
1 3 acceptor
1 4 acceptor
1 5 acceptor
3 3 5 11 anion
5 2 6 8 9 10 rings

> <PUBCHEM_HEAVY_ATOM_COUNT>
11

> <PUBCHEM_ATOM_DEF_STEREO_COUNT>
0

> <PUBCHEM_ATOM_UDEF_STEREO_COUNT>
2

> <PUBCHEM_BOND_DEF_STEREO_COUNT>
0

> <PUBCHEM_BOND_UDEF_STEREO_COUNT>
0

> <PUBCHEM_ISOTOPIC_ATOM_COUNT>
0

> <PUBCHEM_COMPONENT_COUNT>
1

> <PUBCHEM_CACTVS_TAUTO_COUNT>
1

> <PUBCHEM_CONFORMER_ID>
016A02DA00000001

> <PUBCHEM_MMFF94_ENERGY>
6.6885

> <PUBCHEM_FEATURE_SELFOVERLAP>
25.43

> <PUBCHEM_SHAPE_FINGERPRINT>
10857977 72 18187374194196794352
12716758 59 18263927816014182321
12932764 1 17775564273197804444
14128692 85 18272926085889340629
16945 1 18270685401509241033
20653085 51 13254810052741967455
21040471 1 18123463040986884945
23552423 10 18202276987737286963
29004967 10 16805597071046465561
369184 2 17530969119774396777
5084963 1 18187637029157799968

> <PUBCHEM_SHAPE_MULTIPOLES>
195.62
3.99
1.34
0.97
0.82
0.11
0.14
1.15
-0.32
-0.72
0.02
0.49
-0.08
0.17

> <PUBCHEM_SHAPE_SELFOVERLAP>
408.492

> <PUBCHEM_SHAPE_VOLUME>
111.4

> <PUBCHEM_COORDINATE_TYPE>
2
5
10

$$$$

