56928099
  -OEChem-07051213112D

 39 40  0     1  0  0  0  0  0999 V2000
    9.0674    2.4105    0.0000 Mo  0  2  0  0  0  0  0  0  0  0  0  0
    8.0383    2.2952    0.0000 S   0  5  0  0  0  0  0  0  0  0  0  0
    9.4966    1.4682    0.0000 S   0  5  0  0  0  0  0  0  0  0  0  0
   10.4586   -2.2808    0.0000 P   0  0  0  0  0  0  0  0  0  0  0  0
    7.8282   -0.7880    0.0000 O   0  0  0  0  0  0  0  0  0  0  0  0
    9.5945   -1.7775    0.0000 O   0  0  0  0  0  0  0  0  0  0  0  0
    9.9777    2.8243    0.0000 O   0  0  0  0  0  0  0  0  0  0  0  0
    8.9552    3.4042    0.0000 O   0  0  0  0  0  0  0  0  0  0  0  0
    4.3198    2.2812    0.0000 O   0  0  0  0  0  0  0  0  0  0  0  0
   11.3227   -2.7842    0.0000 O   0  0  0  0  0  0  0  0  0  0  0  0
    9.9553   -3.1449    0.0000 O   0  0  0  0  0  0  0  0  0  0  0  0
   10.9620   -1.4168    0.0000 O   0  0  0  0  0  0  0  0  0  0  0  0
    6.0682    1.2466    0.0000 N   0  0  0  0  0  0  0  0  0  0  0  0
    6.0682   -0.7534    0.0000 N   0  0  0  0  0  0  0  0  0  0  0  0
    4.3083   -0.7880    0.0000 N   0  0  0  0  0  0  0  0  0  0  0  0
    3.4022    0.7674    0.0000 N   0  0  0  0  0  0  0  0  0  0  0  0
    2.5381   -0.7775    0.0000 N   0  0  0  0  0  0  0  0  0  0  0  0
    6.9343    0.7466    0.0000 C   0  0  2  0  0  0  0  0  0  0  0  0
    6.9343   -0.2534    0.0000 C   0  0  1  0  0  0  0  0  0  0  0  0
    7.8282    1.2813    0.0000 C   0  0  0  0  0  0  0  0  0  0  0  0
    8.7343   -0.2742    0.0000 C   0  0  1  0  0  0  0  0  0  0  0  0
    8.7343    0.7674    0.0000 C   0  0  0  0  0  0  0  0  0  0  0  0
    5.2022    0.7466    0.0000 C   0  0  0  0  0  0  0  0  0  0  0  0
    5.2022   -0.2534    0.0000 C   0  0  0  0  0  0  0  0  0  0  0  0
    9.5984   -0.7775    0.0000 C   0  0  0  0  0  0  0  0  0  0  0  0
    4.3083    1.2813    0.0000 C   0  0  0  0  0  0  0  0  0  0  0  0
    3.4022   -0.2742    0.0000 C   0  0  0  0  0  0  0  0  0  0  0  0
    6.9277    1.5966    0.0000 H   0  0  0  0  0  0  0  0  0  0  0  0
    6.9277   -1.1034    0.0000 H   0  0  0  0  0  0  0  0  0  0  0  0
    8.7307   -0.8942    0.0000 H   0  0  0  0  0  0  0  0  0  0  0  0
    6.0682    1.8666    0.0000 H   0  0  0  0  0  0  0  0  0  0  0  0
    6.0682   -1.3734    0.0000 H   0  0  0  0  0  0  0  0  0  0  0  0
   10.2085   -0.8875    0.0000 H   0  0  0  0  0  0  0  0  0  0  0  0
    9.8127   -0.1957    0.0000 H   0  0  0  0  0  0  0  0  0  0  0  0
    4.3154   -1.4080    0.0000 H   0  0  0  0  0  0  0  0  0  0  0  0
    2.0000   -0.4696    0.0000 H   0  0  0  0  0  0  0  0  0  0  0  0
    2.5405   -1.3975    0.0000 H   0  0  0  0  0  0  0  0  0  0  0  0
    9.3353   -3.1426    0.0000 H   0  0  0  0  0  0  0  0  0  0  0  0
   11.3203   -3.4042    0.0000 H   0  0  0  0  0  0  0  0  0  0  0  0
  1  7  2  0  0  0  0
  1  8  2  0  0  0  0
  2 20  1  0  0  0  0
  3 22  1  0  0  0  0
  4  6  1  0  0  0  0
  4 10  1  0  0  0  0
  4 11  1  0  0  0  0
  4 12  2  0  0  0  0
  5 19  1  0  0  0  0
  5 21  1  0  0  0  0
  6 25  1  0  0  0  0
  9 26  2  0  0  0  0
 10 39  1  0  0  0  0
 11 38  1  0  0  0  0
 13 18  1  0  0  0  0
 13 23  1  0  0  0  0
 13 31  1  0  0  0  0
 14 19  1  0  0  0  0
 14 24  1  0  0  0  0
 14 32  1  0  0  0  0
 15 24  1  0  0  0  0
 15 27  1  0  0  0  0
 15 35  1  0  0  0  0
 16 26  1  0  0  0  0
 16 27  2  0  0  0  0
 17 27  1  0  0  0  0
 17 36  1  0  0  0  0
 17 37  1  0  0  0  0
 18 19  1  0  0  0  0
 18 20  1  0  0  0  0
 18 28  1  6  0  0  0
 19 29  1  6  0  0  0
 20 22  2  0  0  0  0
 21 22  1  0  0  0  0
 21 25  1  1  0  0  0
 21 30  1  0  0  0  0
 23 24  2  0  0  0  0
 23 26  1  0  0  0  0
 25 33  1  0  0  0  0
 25 34  1  0  0  0  0
M  CHG  3   1   2   2  -1   3  -1
M  END
> <PUBCHEM_COMPOUND_CID>
56928099

> <PUBCHEM_COMPOUND_CANONICALIZED>
1

> <PUBCHEM_CACTVS_COMPLEXITY>
817

> <PUBCHEM_CACTVS_HBOND_ACCEPTOR>
12

> <PUBCHEM_CACTVS_HBOND_DONOR>
6

> <PUBCHEM_CACTVS_ROTATABLE_BOND>
3

> <PUBCHEM_CACTVS_SUBSKEYS>
AAADccBzvAJgAAAAAEAAAAAAAAAAAQAAAAAgQIAAAAAAAEiAAAAAHgQQCCAACDzhwAYBAALABRCoQAVQdICAAAEgAAABCICIAEmDRAAAICAfEAAIUAKaIEIAAAAAAAAAAAAAAAAAAAAAAAAAAAAAAAAAAA==

> <PUBCHEM_IUPAC_OPENEYE_NAME>
(5aR,8R,9aR)-2-amino-4-oxo-8-(phosphonooxymethyl)-1,5,5a,8,9a,10-hexahydropyrano[3,2-g]pteridine-6,7-dithiolate; dioxomolybdenum(2+)

> <PUBCHEM_IUPAC_CAS_NAME>
(5aR,8R,9aR)-2-amino-4-oxo-8-(phosphonooxymethyl)-1,5,5a,8,9a,10-hexahydropyrano[3,2-g]pteridine-6,7-dithiolate; dioxomolybdenum(2+)

> <PUBCHEM_IUPAC_NAME>
(5aR,8R,9aR)-2-amino-4-oxo-8-(phosphonooxymethyl)-1,5,5a,8,9a,10-hexahydropyrano[3,2-g]pteridine-6,7-dithiolate; dioxomolybdenum(2+)

> <PUBCHEM_IUPAC_SYSTEMATIC_NAME>
(5aR,8R,9aR)-2-azanyl-4-oxidanylidene-8-(phosphonooxymethyl)-1,5,5a,8,9a,10-hexahydropyrano[3,2-g]pteridine-6,7-dithiolate; bis(oxidanylidene)molybdenum(2+)

> <PUBCHEM_IUPAC_TRADITIONAL_NAME>
(5aR,8R,9aR)-2-amino-4-keto-8-(phosphonooxymethyl)-1,5,5a,8,9a,10-hexahydropyrano[3,2-g]pteridine-6,7-dithiolate; diketomolybdenum(2+)

> <PUBCHEM_IUPAC_INCHI>
InChI=1S/C10H14N5O6PS2.Mo.2O/c11-10-14-7-4(8(16)15-10)12-3-6(24)5(23)2(21-9(3)13-7)1-20-22(17,18)19;;;/h2-3,9,12,23-24H,1H2,(H2,17,18,19)(H4,11,13,14,15,16);;;/q;+2;;/p-2/t2-,3+,9-;;;/m1.../s1

> <PUBCHEM_IUPAC_INCHIKEY>
HDAJUGGARUFROU-JSUDGWJLSA-L

> <PUBCHEM_EXACT_MASS>
522.891899

> <PUBCHEM_MOLECULAR_FORMULA>
C10H12MoN5O8PS2

> <PUBCHEM_MOLECULAR_WEIGHT>
521.294742

> <PUBCHEM_OPENEYE_CAN_SMILES>
C(C1C(=C(C2C(O1)NC3=C(N2)C(=O)N=C(N3)N)[S-])[S-])OP(=O)(O)O.O=[Mo+2]=O

> <PUBCHEM_OPENEYE_ISO_SMILES>
C([C@@H]1C(=C([C@H]2[C@@H](O1)NC3=C(N2)C(=O)N=C(N3)N)[S-])[S-])OP(=O)(O)O.O=[Mo+2]=O

> <PUBCHEM_CACTVS_TPSA>
204

> <PUBCHEM_MONOISOTOPIC_WEIGHT>
522.891899

> <PUBCHEM_TOTAL_CHARGE>
0

> <PUBCHEM_HEAVY_ATOM_COUNT>
27

> <PUBCHEM_ATOM_DEF_STEREO_COUNT>
3

> <PUBCHEM_ATOM_UDEF_STEREO_COUNT>
0

> <PUBCHEM_BOND_DEF_STEREO_COUNT>
0

> <PUBCHEM_BOND_UDEF_STEREO_COUNT>
0

> <PUBCHEM_ISOTOPIC_ATOM_COUNT>
0

> <PUBCHEM_COMPONENT_COUNT>
2

> <PUBCHEM_CACTVS_TAUTO_COUNT>
17

> <PUBCHEM_NONSTANDARDBOND>
1  2  6
1  3  6

> <PUBCHEM_COORDINATE_TYPE>
1
5
255

> <PUBCHEM_BONDANNOTATIONS>
15  24  8
15  27  8
16  26  8
16  27  8
18  28  6
19  29  6
21  25  5
23  24  8
23  26  8

$$$$

