12076
  -OEChem-06261206293D

 19 19  0     0  0  0  0  0  0999 V2000
   -3.1758    1.4644    0.5004 O   0  0  0  0  0  0  0  0  0  0  0  0
   -3.4912   -0.5601   -0.4837 O   0  0  0  0  0  0  0  0  0  0  0  0
    3.5853    1.1152   -0.0823 O   0  5  0  0  0  0  0  0  0  0  0  0
    3.4993   -1.0720    0.0846 O   0  0  0  0  0  0  0  0  0  0  0  0
   -1.3585   -2.2238    0.1555 N   0  0  0  0  0  0  0  0  0  0  0  0
    2.9348    0.0452   -0.0030 N   0  3  0  0  0  0  0  0  0  0  0  0
   -1.2717    0.2096   -0.0308 C   0  0  0  0  0  0  0  0  0  0  0  0
   -0.6226   -1.0213    0.0654 C   0  0  0  0  0  0  0  0  0  0  0  0
    1.5158    0.1004   -0.0123 C   0  0  0  0  0  0  0  0  0  0  0  0
    0.7712   -1.0758    0.0747 C   0  0  0  0  0  0  0  0  0  0  0  0
   -0.5271    1.3859   -0.1177 C   0  0  0  0  0  0  0  0  0  0  0  0
    0.8667    1.3312   -0.1086 C   0  0  0  0  0  0  0  0  0  0  0  0
   -2.7263    0.3010   -0.0420 C   0  0  0  0  0  0  0  0  0  0  0  0
    1.2564   -2.0467    0.1508 H   0  0  0  0  0  0  0  0  0  0  0  0
   -1.0023    2.3593   -0.2073 H   0  0  0  0  0  0  0  0  0  0  0  0
    1.4145    2.2674   -0.1811 H   0  0  0  0  0  0  0  0  0  0  0  0
   -2.3689   -2.2137    0.1602 H   0  0  0  0  0  0  0  0  0  0  0  0
   -0.8700   -3.1069    0.2248 H   0  0  0  0  0  0  0  0  0  0  0  0
   -4.1552    1.5181    0.4895 H   0  0  0  0  0  0  0  0  0  0  0  0
  1 13  1  0  0  0  0
  1 19  1  0  0  0  0
  2 13  2  0  0  0  0
  3  6  1  0  0  0  0
  4  6  2  0  0  0  0
  5  8  1  0  0  0  0
  5 17  1  0  0  0  0
  5 18  1  0  0  0  0
  6  9  1  0  0  0  0
  7  8  2  0  0  0  0
  7 11  1  0  0  0  0
  7 13  1  0  0  0  0
  8 10  1  0  0  0  0
  9 10  2  0  0  0  0
  9 12  1  0  0  0  0
 10 14  1  0  0  0  0
 11 12  2  0  0  0  0
 11 15  1  0  0  0  0
 12 16  1  0  0  0  0
M  CHG  2   3  -1   6   1
M  END
> <PUBCHEM_COMPOUND_CID>
12076

> <PUBCHEM_CONFORMER_RMSD>
0.6

> <PUBCHEM_CONFORMER_DIVERSEORDER>
1

> <PUBCHEM_MMFF94_PARTIAL_CHARGES>
19
1 -0.65
10 -0.15
11 -0.15
12 -0.15
13 0.63
14 0.15
15 0.15
16 0.15
17 0.4
18 0.4
19 0.5
2 -0.57
3 -0.52
4 -0.52
5 -0.9
6 0.91
7 0.09
8 0.1
9 0.13

> <PUBCHEM_EFFECTIVE_ROTOR_COUNT>
2

> <PUBCHEM_PHARMACOPHORE_FEATURES>
9
1 1 acceptor
1 2 acceptor
1 3 acceptor
1 3 anion
1 4 acceptor
1 5 cation
1 5 donor
3 1 2 13 anion
6 7 8 9 10 11 12 rings

> <PUBCHEM_HEAVY_ATOM_COUNT>
13

> <PUBCHEM_ATOM_DEF_STEREO_COUNT>
0

> <PUBCHEM_ATOM_UDEF_STEREO_COUNT>
0

> <PUBCHEM_BOND_DEF_STEREO_COUNT>
0

> <PUBCHEM_BOND_UDEF_STEREO_COUNT>
0

> <PUBCHEM_ISOTOPIC_ATOM_COUNT>
0

> <PUBCHEM_COMPONENT_COUNT>
1

> <PUBCHEM_CACTVS_TAUTO_COUNT>
2

> <PUBCHEM_CONFORMER_ID>
00002F2C00000001

> <PUBCHEM_MMFF94_ENERGY>
52.0791

> <PUBCHEM_FEATURE_SELFOVERLAP>
45.808

> <PUBCHEM_SHAPE_FINGERPRINT>
10130415 120 18341337764216027184
10219947 1 18271804648400959421
11132069 177 18335991955460924064
12032990 46 18412257341812106875
13380535 76 18409731763582253310
13690532 89 18412830183275599511
14144814 61 18412263934560331216
14325111 11 18410011052388636900
14993402 34 18413673508577935917
15775835 57 18410290354423151705
16945 1 18412538799561267709
18186145 218 18338233868318026732
19026448 4 16081090393714420084
193761 8 17763181341238279933
20645476 183 17773575183880972022
207724 885 18273495658666644485
20871998 184 18188484653854820751
21501502 16 18196369208676847668
23235685 24 18410016549988928333
23402539 116 18261685851511983836
23402655 69 18193294094657867381
23463225 33 18341333396081520450
23552423 10 17984983696011367356
23559900 14 18335137597284052356
2748010 2 18051131397685520237
528886 8 18410860949096385738
54173680 148 18268426837233217755

> <PUBCHEM_SHAPE_MULTIPOLES>
234.09
5.42
1.74
0.61
1.42
0.35
0
-0.51
0.05
-0.33
-0.08
-0.12
-0.02
-0.22

> <PUBCHEM_SHAPE_SELFOVERLAP>
498.249

> <PUBCHEM_SHAPE_VOLUME>
130.4

> <PUBCHEM_COORDINATE_TYPE>
2
5
10

$$$$

