10310
  -OEChem-06261204273D

 22 23  0     0  0  0  0  0  0999 V2000
   -4.7383    0.0001    0.0009 O   0  0  0  0  0  0  0  0  0  0  0  0
    4.7383   -0.0001    0.0009 O   0  0  0  0  0  0  0  0  0  0  0  0
   -0.6716    0.0000   -0.0002 C   0  0  0  0  0  0  0  0  0  0  0  0
    0.6716    0.0001   -0.0002 C   0  0  0  0  0  0  0  0  0  0  0  0
   -1.4043   -1.2565   -0.0002 C   0  0  0  0  0  0  0  0  0  0  0  0
   -1.4042    1.2565   -0.0008 C   0  0  0  0  0  0  0  0  0  0  0  0
    1.4042    1.2565   -0.0002 C   0  0  0  0  0  0  0  0  0  0  0  0
    1.4042   -1.2565   -0.0008 C   0  0  0  0  0  0  0  0  0  0  0  0
   -2.7435   -1.2741    0.0002 C   0  0  0  0  0  0  0  0  0  0  0  0
   -2.7436    1.2740   -0.0005 C   0  0  0  0  0  0  0  0  0  0  0  0
    2.7436    1.2741    0.0002 C   0  0  0  0  0  0  0  0  0  0  0  0
    2.7435   -1.2740   -0.0005 C   0  0  0  0  0  0  0  0  0  0  0  0
   -3.5119    0.0000    0.0006 C   0  0  0  0  0  0  0  0  0  0  0  0
    3.5120    0.0000    0.0006 C   0  0  0  0  0  0  0  0  0  0  0  0
   -0.9406   -2.2317   -0.0003 H   0  0  0  0  0  0  0  0  0  0  0  0
   -0.9407    2.2317   -0.0017 H   0  0  0  0  0  0  0  0  0  0  0  0
    0.9406    2.2317   -0.0003 H   0  0  0  0  0  0  0  0  0  0  0  0
    0.9406   -2.2317   -0.0018 H   0  0  0  0  0  0  0  0  0  0  0  0
   -3.3013   -2.2036    0.0003 H   0  0  0  0  0  0  0  0  0  0  0  0
   -3.3013    2.2034   -0.0009 H   0  0  0  0  0  0  0  0  0  0  0  0
    3.3013    2.2036    0.0003 H   0  0  0  0  0  0  0  0  0  0  0  0
    3.3012   -2.2035   -0.0010 H   0  0  0  0  0  0  0  0  0  0  0  0
  1 13  2  0  0  0  0
  2 14  2  0  0  0  0
  3  4  2  0  0  0  0
  3  5  1  0  0  0  0
  3  6  1  0  0  0  0
  4  7  1  0  0  0  0
  4  8  1  0  0  0  0
  5  9  2  0  0  0  0
  5 15  1  0  0  0  0
  6 10  2  0  0  0  0
  6 16  1  0  0  0  0
  7 11  2  0  0  0  0
  7 17  1  0  0  0  0
  8 12  2  0  0  0  0
  8 18  1  0  0  0  0
  9 13  1  0  0  0  0
  9 19  1  0  0  0  0
 10 13  1  0  0  0  0
 10 20  1  0  0  0  0
 11 14  1  0  0  0  0
 11 21  1  0  0  0  0
 12 14  1  0  0  0  0
 12 22  1  0  0  0  0
M  END
> <PUBCHEM_COMPOUND_CID>
10310

> <PUBCHEM_CONFORMER_RMSD>
0.4

> <PUBCHEM_CONFORMER_DIVERSEORDER>
1

> <PUBCHEM_MMFF94_PARTIAL_CHARGES>
20
1 -0.57
10 -0.14
11 -0.14
12 -0.14
13 0.54
14 0.54
15 0.15
16 0.15
17 0.15
18 0.15
19 0.15
2 -0.57
20 0.15
21 0.15
22 0.15
5 -0.15
6 -0.15
7 -0.15
8 -0.15
9 -0.14

> <PUBCHEM_EFFECTIVE_ROTOR_COUNT>
0

> <PUBCHEM_PHARMACOPHORE_FEATURES>
4
1 1 acceptor
1 2 acceptor
6 3 5 6 9 10 13 rings
6 4 7 8 11 12 14 rings

> <PUBCHEM_HEAVY_ATOM_COUNT>
14

> <PUBCHEM_ATOM_DEF_STEREO_COUNT>
0

> <PUBCHEM_ATOM_UDEF_STEREO_COUNT>
0

> <PUBCHEM_BOND_DEF_STEREO_COUNT>
0

> <PUBCHEM_BOND_UDEF_STEREO_COUNT>
0

> <PUBCHEM_ISOTOPIC_ATOM_COUNT>
0

> <PUBCHEM_COMPONENT_COUNT>
1

> <PUBCHEM_CACTVS_TAUTO_COUNT>
1

> <PUBCHEM_CONFORMER_ID>
0000284600000001

> <PUBCHEM_MMFF94_ENERGY>
50.2961

> <PUBCHEM_FEATURE_SELFOVERLAP>
20.297

> <PUBCHEM_SHAPE_FINGERPRINT>
10608611 8 18410579487005018528
10967382 1 18410573998068163942
11132069 177 18410299077243169688
11471102 20 18410295808904822230
12251169 10 18410575084663078967
13221675 6 18410855464423310979
13380535 76 18410572885640278087
14144814 61 18410575123317784739
14325111 11 18410855481677046177
15196674 1 18410856563934756865
15442244 35 18193838377891635282
15536298 74 18334575746130147718
16945 1 18410855464423129094
17802600 8 18410860961981605761
18186145 218 18338513165666950101
18522853 276 18335140894917193528
200 152 18040439884451547335
20201158 50 18409446994328430490
20279233 1 18410568491888545890
20510252 161 18188207723174983985
20528008 55 18410015420718328679
20645477 70 18336548325498574510
21267235 1 18410846668330360227
21501502 16 18410855460128168301
23402539 116 18260556627849164773
23402655 69 18336271235994326165
23463225 33 18412545422622371284
23559900 14 18263365944498634678
3312278 4 18409445877679053755
474 4 17274250627016945260
5104073 3 18410573955086681056
53812653 166 18335424560580185952
69090 78 18335424560554078415
7364860 26 18333732420748573286
77779 3 18410572885639823364
8809292 202 18272084950883396443
9709674 26 18409724058421655751

> <PUBCHEM_SHAPE_MULTIPOLES>
276.37
7.73
1.56
0.6
0
0
0
0
0
0
0
0
0
0

> <PUBCHEM_SHAPE_SELFOVERLAP>
600.766

> <PUBCHEM_SHAPE_VOLUME>
150.8

> <PUBCHEM_COORDINATE_TYPE>
2
5
10

$$$$

