443000
  -OEChem-07051213002D

 25 26  0     1  0  0  0  0  0999 V2000
    5.5928   -0.8906    0.0000 O   0  0  0  0  0  0  0  0  0  0  0  0
    4.5244   -2.1460    0.0000 O   0  0  0  0  0  0  0  0  0  0  0  0
    2.7643    0.9026    0.0000 O   0  0  0  0  0  0  0  0  0  0  0  0
    2.5369   -1.2611    0.0000 O   0  0  0  0  0  0  0  0  0  0  0  0
    5.3739    2.0239    0.0000 N   0  0  0  0  0  0  0  0  0  0  0  0
    5.8517    0.0753    0.0000 C   0  0  3  0  0  0  0  0  0  0  0  0
    6.1105    1.0413    0.0000 C   0  0  3  0  0  0  0  0  0  0  0  0
    4.3165   -1.1678    0.0000 C   0  0  1  0  0  0  0  0  0  0  0  0
    7.6836   -0.6835    0.0000 C   0  0  0  0  0  0  0  0  0  0  0  0
    7.9424    0.2824    0.0000 C   0  0  0  0  0  0  0  0  0  0  0  0
    3.5075    0.2335    0.0000 C   0  0  1  0  0  0  0  0  0  0  0  0
    3.4030   -0.7611    0.0000 C   0  0  1  0  0  0  0  0  0  0  0  0
    6.0820    0.4219    0.0000 H   0  0  0  0  0  0  0  0  0  0  0  0
    3.8347   -1.5580    0.0000 H   0  0  0  0  0  0  0  0  0  0  0  0
    7.4716   -1.2661    0.0000 H   0  0  0  0  0  0  0  0  0  0  0  0
    8.2749   -0.8699    0.0000 H   0  0  0  0  0  0  0  0  0  0  0  0
    8.5337    0.0960    0.0000 H   0  0  0  0  0  0  0  0  0  0  0  0
    8.1545    0.8651    0.0000 H   0  0  0  0  0  0  0  0  0  0  0  0
    2.9287    0.0113    0.0000 H   0  0  0  0  0  0  0  0  0  0  0  0
    3.4354   -1.3802    0.0000 H   0  0  0  0  0  0  0  0  0  0  0  0
    5.0639    2.5608    0.0000 H   0  0  0  0  0  0  0  0  0  0  0  0
    6.0312   -1.3290    0.0000 H   0  0  0  0  0  0  0  0  0  0  0  0
    4.0637   -2.5608    0.0000 H   0  0  0  0  0  0  0  0  0  0  0  0
    2.8932    1.5090    0.0000 H   0  0  0  0  0  0  0  0  0  0  0  0
    2.0000   -0.9511    0.0000 H   0  0  0  0  0  0  0  0  0  0  0  0
  1  6  1  0  0  0  0
  1 22  1  0  0  0  0
  8  2  1  6  0  0  0
  2 23  1  0  0  0  0
 11  3  1  1  0  0  0
  3 24  1  0  0  0  0
 12  4  1  6  0  0  0
  4 25  1  0  0  0  0
  5  6  1  0  0  0  0
  5  7  1  0  0  0  0
  5 21  1  0  0  0  0
  6  8  1  0  0  0  0
  6  9  1  0  0  0  0
  7 10  1  0  0  0  0
  7 11  1  0  0  0  0
  7 13  1  0  0  0  0
  8 12  1  0  0  0  0
  8 14  1  0  0  0  0
  9 10  1  0  0  0  0
  9 15  1  0  0  0  0
  9 16  1  0  0  0  0
 10 17  1  0  0  0  0
 10 18  1  0  0  0  0
 11 12  1  0  0  0  0
 11 19  1  0  0  0  0
 12 20  1  0  0  0  0
M  END
> <PUBCHEM_COMPOUND_CID>
443000

> <PUBCHEM_COMPOUND_CANONICALIZED>
1

> <PUBCHEM_CACTVS_COMPLEXITY>
200

> <PUBCHEM_CACTVS_HBOND_ACCEPTOR>
5

> <PUBCHEM_CACTVS_HBOND_DONOR>
5

> <PUBCHEM_CACTVS_ROTATABLE_BOND>
0

> <PUBCHEM_CACTVS_SUBSKEYS>
AAADccBiOAAAAAAAAAAAAAAAAAAAAWAAAAAsAAAABgAAAAAAAAAAHgAQCAAACDzhgAYAAALAAgAAAAAAAAAAAAAAAAAAAIAIAAEDEAIAgAAEQAAHEACRAAHw8CUAAAAAAAAAAAAAAAAAAAAAAAAAAAAAAA==

> <PUBCHEM_IUPAC_OPENEYE_NAME>
(2S,3R,4R)-8-azabicyclo[3.2.1]octane-2,3,4,5-tetrol

> <PUBCHEM_IUPAC_CAS_NAME>
(2S,3R,4R)-8-azabicyclo[3.2.1]octane-2,3,4,5-tetrol

> <PUBCHEM_IUPAC_NAME>
(2S,3R,4R)-8-azabicyclo[3.2.1]octane-2,3,4,5-tetrol

> <PUBCHEM_IUPAC_SYSTEMATIC_NAME>
(2S,3R,4R)-8-azabicyclo[3.2.1]octane-2,3,4,5-tetrol

> <PUBCHEM_IUPAC_TRADITIONAL_NAME>
(2S,3R,4R)-8-azabicyclo[3.2.1]octane-2,3,4,5-tetrol

> <PUBCHEM_IUPAC_INCHI>
InChI=1S/C7H13NO4/c9-4-3-1-2-7(12,8-3)6(11)5(4)10/h3-6,8-12H,1-2H2/t3?,4-,5+,6+,7?/m0/s1

> <PUBCHEM_IUPAC_INCHIKEY>
FXFBVZOJVHCEDO-NMACYSKISA-N

> <PUBCHEM_XLOGP3_AA>
-2.4

> <PUBCHEM_EXACT_MASS>
175.084458

> <PUBCHEM_MOLECULAR_FORMULA>
C7H13NO4

> <PUBCHEM_MOLECULAR_WEIGHT>
175.18242

> <PUBCHEM_OPENEYE_CAN_SMILES>
C1CC2(C(C(C(C1N2)O)O)O)O

> <PUBCHEM_OPENEYE_ISO_SMILES>
C1CC2([C@@H]([C@@H]([C@H](C1N2)O)O)O)O

> <PUBCHEM_CACTVS_TPSA>
93

> <PUBCHEM_MONOISOTOPIC_WEIGHT>
175.084458

> <PUBCHEM_TOTAL_CHARGE>
0

> <PUBCHEM_HEAVY_ATOM_COUNT>
12

> <PUBCHEM_ATOM_DEF_STEREO_COUNT>
3

> <PUBCHEM_ATOM_UDEF_STEREO_COUNT>
2

> <PUBCHEM_BOND_DEF_STEREO_COUNT>
0

> <PUBCHEM_BOND_UDEF_STEREO_COUNT>
0

> <PUBCHEM_ISOTOPIC_ATOM_COUNT>
0

> <PUBCHEM_COMPONENT_COUNT>
1

> <PUBCHEM_CACTVS_TAUTO_COUNT>
1

> <PUBCHEM_COORDINATE_TYPE>
1
5
255

> <PUBCHEM_BONDANNOTATIONS>
6  1  3
8  2  6
11  3  5
12  4  6
7  10  3

$$$$

