47205717
  -OEChem-06241223003D

 34 34  0     0  0  0  0  0  0999 V2000
    4.6888   -0.6104   -0.9627 Cl  0  0  0  0  0  0  0  0  0  0  0  0
   -0.6008    1.6007   -1.5891 O   0  0  0  0  0  0  0  0  0  0  0  0
   -0.4685   -2.8283   -0.7306 O   0  0  0  0  0  0  0  0  0  0  0  0
   -1.1332   -0.1766   -0.1322 N   0  0  0  0  0  0  0  0  0  0  0  0
    0.9411   -2.8554    1.0856 N   0  0  0  0  0  0  0  0  0  0  0  0
    3.7091    1.0638    0.7568 N   0  0  0  0  0  0  0  0  0  0  0  0
   -2.4928   -0.3500   -0.5634 C   0  0  0  0  0  0  0  0  0  0  0  0
   -3.4703    0.5057    0.2355 C   0  0  0  0  0  0  0  0  0  0  0  0
   -4.9226    0.3033   -0.2024 C   0  0  0  0  0  0  0  0  0  0  0  0
   -0.6627   -1.0746    0.9280 C   0  0  0  0  0  0  0  0  0  0  0  0
   -0.2932    0.8076   -0.6999 C   0  0  0  0  0  0  0  0  0  0  0  0
   -5.8788    1.1225    0.6505 C   0  0  0  0  0  0  0  0  0  0  0  0
    1.0872    0.8957   -0.1978 C   0  0  0  0  0  0  0  0  0  0  0  0
   -0.0684   -2.3211    0.3137 C   0  0  0  0  0  0  0  0  0  0  0  0
    2.0974    0.1515   -0.7971 C   0  0  0  0  0  0  0  0  0  0  0  0
    1.3865    1.7239    0.8783 C   0  0  0  0  0  0  0  0  0  0  0  0
    3.3801    0.2698   -0.2868 C   0  0  0  0  0  0  0  0  0  0  0  0
    2.7010    1.7720    1.3137 C   0  0  0  0  0  0  0  0  0  0  0  0
   -2.5593   -0.0655   -1.6205 H   0  0  0  0  0  0  0  0  0  0  0  0
   -2.7655   -1.4097   -0.5015 H   0  0  0  0  0  0  0  0  0  0  0  0
   -3.2008    1.5645    0.1329 H   0  0  0  0  0  0  0  0  0  0  0  0
   -3.3771    0.2665    1.3023 H   0  0  0  0  0  0  0  0  0  0  0  0
   -5.1900   -0.7568   -0.1235 H   0  0  0  0  0  0  0  0  0  0  0  0
   -5.0363    0.5903   -1.2541 H   0  0  0  0  0  0  0  0  0  0  0  0
   -1.5083   -1.3674    1.5605 H   0  0  0  0  0  0  0  0  0  0  0  0
    0.0623   -0.5746    1.5739 H   0  0  0  0  0  0  0  0  0  0  0  0
   -5.6557    2.1914    0.5728 H   0  0  0  0  0  0  0  0  0  0  0  0
   -6.9103    0.9657    0.3200 H   0  0  0  0  0  0  0  0  0  0  0  0
   -5.8119    0.8327    1.7040 H   0  0  0  0  0  0  0  0  0  0  0  0
    1.8844   -0.5004   -1.6388 H   0  0  0  0  0  0  0  0  0  0  0  0
    0.6219    2.3172    1.3682 H   0  0  0  0  0  0  0  0  0  0  0  0
    1.4213   -3.7022    0.7996 H   0  0  0  0  0  0  0  0  0  0  0  0
    1.2467   -2.4325    1.9561 H   0  0  0  0  0  0  0  0  0  0  0  0
    2.9865    2.4022    2.1494 H   0  0  0  0  0  0  0  0  0  0  0  0
  1 17  1  0  0  0  0
  2 11  2  0  0  0  0
  3 14  2  0  0  0  0
  4  7  1  0  0  0  0
  4 10  1  0  0  0  0
  4 11  1  0  0  0  0
  5 14  1  0  0  0  0
  5 32  1  0  0  0  0
  5 33  1  0  0  0  0
  6 17  2  0  0  0  0
  6 18  1  0  0  0  0
  7  8  1  0  0  0  0
  7 19  1  0  0  0  0
  7 20  1  0  0  0  0
  8  9  1  0  0  0  0
  8 21  1  0  0  0  0
  8 22  1  0  0  0  0
  9 12  1  0  0  0  0
  9 23  1  0  0  0  0
  9 24  1  0  0  0  0
 10 14  1  0  0  0  0
 10 25  1  0  0  0  0
 10 26  1  0  0  0  0
 11 13  1  0  0  0  0
 12 27  1  0  0  0  0
 12 28  1  0  0  0  0
 12 29  1  0  0  0  0
 13 15  2  0  0  0  0
 13 16  1  0  0  0  0
 15 17  1  0  0  0  0
 15 30  1  0  0  0  0
 16 18  2  0  0  0  0
 16 31  1  0  0  0  0
 18 34  1  0  0  0  0
M  END
> <PUBCHEM_COMPOUND_CID>
47205717

> <PUBCHEM_CONFORMER_RMSD>
0.8

> <PUBCHEM_CONFORMER_DIVERSEORDER>
2
31
289
100
178
139
174
173
141
231
236
266
300
226
76
270
269
325
169
250
255
80
96
321
177
205
181
101
105
287
87
212
233
140
77
282
237
229
249
235
17
245
78
224
138
165
291
104
277
176
196
298
19
121
302
247
92
163
208
293
49
314
221
215
97
214
179
185
111
59
124
254
304
286
315
274
309
283
182
99
211
305
260
168
142
285
201
320
152
322
230
275
66
166
137
26
278
299
129
186
188
207
133
63
127
108
148
158
30
145
244
75
74
263
172
187
130
220
323
276
288
253
306
318
144
98
25
47
204
42
102
113
115
167
327
15
313
265
281
296
67
216
294
116
35
240
46
84
32
73
123
125
88
189
44
85
126
147
110
72
56
89
43
160
60
170
95
198
267
246
150
117
241
217
83
227
295
151
52
103
258
243
206
210
272
319
34
82
38
41
10
280
54
93
134
68
53
307
238
64
290
261
156
183
65
37
143
273
18
109
4
1
184
29
301
268
16
51
175
197
81
39
251
157
202
119
122
264
62
232
3
192
191
218
28
48
324
252
153
164
55
79
5
86
171
180
13
271
194
135
61
57
155
297
107
11
94
162
257
20
209
242
200
71
312
40
234
316
23
70
193
69
114
36
284
27
112
222
120
90
311
225
292
195
259
136
33
50
248
228
310
128
279
22
58
262
8
12
317
149
239
14
326
308
9
219
256
6
154
91
132
146
223
190
131
303
7
159
45
213
199
203
118
21
106
161
24

> <PUBCHEM_MMFF94_PARTIAL_CHARGES>
20
1 -0.18
10 0.36
11 0.54
13 0.09
14 0.57
15 -0.15
16 -0.15
17 0.49
18 0.16
2 -0.57
3 -0.57
30 0.15
31 0.15
32 0.37
33 0.37
34 0.15
4 -0.66
5 -0.8
6 -0.62
7 0.3

> <PUBCHEM_EFFECTIVE_ROTOR_COUNT>
7

> <PUBCHEM_PHARMACOPHORE_FEATURES>
6
1 12 hydrophobe
1 2 acceptor
1 3 acceptor
1 5 donor
1 6 acceptor
6 6 13 15 16 17 18 rings

> <PUBCHEM_HEAVY_ATOM_COUNT>
18

> <PUBCHEM_ATOM_DEF_STEREO_COUNT>
0

> <PUBCHEM_ATOM_UDEF_STEREO_COUNT>
0

> <PUBCHEM_BOND_DEF_STEREO_COUNT>
0

> <PUBCHEM_BOND_UDEF_STEREO_COUNT>
0

> <PUBCHEM_ISOTOPIC_ATOM_COUNT>
0

> <PUBCHEM_COMPONENT_COUNT>
1

> <PUBCHEM_CACTVS_TAUTO_COUNT>
2

> <PUBCHEM_CONFORMER_ID>
02D04D5500000002

> <PUBCHEM_MMFF94_ENERGY>
40.6224

> <PUBCHEM_FEATURE_SELFOVERLAP>
30.446

> <PUBCHEM_SHAPE_MULTIPOLES>
345.62
8.95
2.44
1.19
9.31
1.95
0
-3.42
0.04
-0.73
0.64
-0.51
-0.16
0.46

> <PUBCHEM_SHAPE_SELFOVERLAP>
691.656

> <PUBCHEM_SHAPE_VOLUME>
203.9

> <PUBCHEM_COORDINATE_TYPE>
2
5
10

$$$$

