32921
  -OEChem-07051213132D

 22 22  0     0  0  0  0  0  0999 V2000
    6.1974   -0.6133    0.0000 S   0  0  0  0  0  0  0  0  0  0  0  0
    8.9086   -0.6436    0.0000 F   0  0  0  0  0  0  0  0  0  0  0  0
    8.2665    0.6165    0.0000 F   0  0  0  0  0  0  0  0  0  0  0  0
    7.6485   -1.2856    0.0000 F   0  0  0  0  0  0  0  0  0  0  0  0
    3.9021    1.3127    0.0000 O   0  0  0  0  0  0  0  0  0  0  0  0
    4.4374   -0.3346    0.0000 N   0  0  0  0  0  0  0  0  0  0  0  0
    2.7431    0.0255    0.0000 N   0  0  0  0  0  0  0  0  0  0  0  0
    5.6974    0.9255    0.0000 N   0  0  0  0  0  0  0  0  0  0  0  0
    6.6974    0.9255    0.0000 N   0  0  0  0  0  0  0  0  0  0  0  0
    5.3884   -0.0255    0.0000 C   0  0  0  0  0  0  0  0  0  0  0  0
    4.2294   -1.3127    0.0000 C   0  0  0  0  0  0  0  0  0  0  0  0
    3.6942    0.3346    0.0000 C   0  0  0  0  0  0  0  0  0  0  0  0
    7.0064   -0.0255    0.0000 C   0  0  0  0  0  0  0  0  0  0  0  0
    7.9575   -0.3346    0.0000 C   0  0  0  0  0  0  0  0  0  0  0  0
    2.0000    0.6947    0.0000 C   0  0  0  0  0  0  0  0  0  0  0  0
    3.6230   -1.1838    0.0000 H   0  0  0  0  0  0  0  0  0  0  0  0
    4.1005   -1.9192    0.0000 H   0  0  0  0  0  0  0  0  0  0  0  0
    4.8359   -1.4416    0.0000 H   0  0  0  0  0  0  0  0  0  0  0  0
    2.6142   -0.5809    0.0000 H   0  0  0  0  0  0  0  0  0  0  0  0
    2.4149    1.1554    0.0000 H   0  0  0  0  0  0  0  0  0  0  0  0
    1.5392    1.1095    0.0000 H   0  0  0  0  0  0  0  0  0  0  0  0
    1.5851    0.2339    0.0000 H   0  0  0  0  0  0  0  0  0  0  0  0
  1 10  1  0  0  0  0
  1 13  1  0  0  0  0
  2 14  1  0  0  0  0
  3 14  1  0  0  0  0
  4 14  1  0  0  0  0
  5 12  2  0  0  0  0
  6 10  1  0  0  0  0
  6 11  1  0  0  0  0
  6 12  1  0  0  0  0
  7 12  1  0  0  0  0
  7 15  1  0  0  0  0
  7 19  1  0  0  0  0
  8  9  1  0  0  0  0
  8 10  2  0  0  0  0
  9 13  2  0  0  0  0
 11 16  1  0  0  0  0
 11 17  1  0  0  0  0
 11 18  1  0  0  0  0
 13 14  1  0  0  0  0
 15 20  1  0  0  0  0
 15 21  1  0  0  0  0
 15 22  1  0  0  0  0
M  END
> <PUBCHEM_COMPOUND_CID>
32921

> <PUBCHEM_COMPOUND_CANONICALIZED>
1

> <PUBCHEM_CACTVS_COMPLEXITY>
249

> <PUBCHEM_CACTVS_HBOND_ACCEPTOR>
7

> <PUBCHEM_CACTVS_HBOND_DONOR>
1

> <PUBCHEM_CACTVS_ROTATABLE_BOND>
1

> <PUBCHEM_CACTVS_SUBSKEYS>
AAADcYBjoYBAAAAAAAAAAAAAAAAAAWAAAAAAAAAAAAAAAAABgAAAHwQYAAAAAAABQhQDEAPAAAguAAAgMAAQAIJAABgVAIAIAACAAAAAAAAAAAAICwAAAAAAAAAAAAAAAAAAAAAAAAAAAAAAAAAAAAAAAA==

> <PUBCHEM_IUPAC_OPENEYE_NAME>
1,3-dimethyl-1-[5-(trifluoromethyl)-1,3,4-thiadiazol-2-yl]urea

> <PUBCHEM_IUPAC_CAS_NAME>
1,3-dimethyl-1-[5-(trifluoromethyl)-1,3,4-thiadiazol-2-yl]urea

> <PUBCHEM_IUPAC_NAME>
1,3-dimethyl-1-[5-(trifluoromethyl)-1,3,4-thiadiazol-2-yl]urea

> <PUBCHEM_IUPAC_SYSTEMATIC_NAME>
1,3-dimethyl-1-[5-(trifluoromethyl)-1,3,4-thiadiazol-2-yl]urea

> <PUBCHEM_IUPAC_TRADITIONAL_NAME>
1,3-dimethyl-1-[5-(trifluoromethyl)-1,3,4-thiadiazol-2-yl]urea

> <PUBCHEM_IUPAC_INCHI>
InChI=1S/C6H7F3N4OS/c1-10-4(14)13(2)5-12-11-3(15-5)6(7,8)9/h1-2H3,(H,10,14)

> <PUBCHEM_IUPAC_INCHIKEY>
BBJPZPLAZVZTGR-UHFFFAOYSA-N

> <PUBCHEM_XLOGP3_AA>
0.8

> <PUBCHEM_EXACT_MASS>
240.029267

> <PUBCHEM_MOLECULAR_FORMULA>
C6H7F3N4OS

> <PUBCHEM_MOLECULAR_WEIGHT>
240.20619

> <PUBCHEM_OPENEYE_CAN_SMILES>
CNC(=O)N(C)C1=NN=C(S1)C(F)(F)F

> <PUBCHEM_OPENEYE_ISO_SMILES>
CNC(=O)N(C)C1=NN=C(S1)C(F)(F)F

> <PUBCHEM_CACTVS_TPSA>
86.4

> <PUBCHEM_MONOISOTOPIC_WEIGHT>
240.029267

> <PUBCHEM_TOTAL_CHARGE>
0

> <PUBCHEM_HEAVY_ATOM_COUNT>
15

> <PUBCHEM_ATOM_DEF_STEREO_COUNT>
0

> <PUBCHEM_ATOM_UDEF_STEREO_COUNT>
0

> <PUBCHEM_BOND_DEF_STEREO_COUNT>
0

> <PUBCHEM_BOND_UDEF_STEREO_COUNT>
0

> <PUBCHEM_ISOTOPIC_ATOM_COUNT>
0

> <PUBCHEM_COMPONENT_COUNT>
1

> <PUBCHEM_CACTVS_TAUTO_COUNT>
2

> <PUBCHEM_COORDINATE_TYPE>
1
5
255

> <PUBCHEM_BONDANNOTATIONS>
1  10  8
1  13  8
8  10  8
8  9  8
9  13  8

$$$$

