11700495
  -OEChem-07051213123D

 32 34  0     0  0  0  0  0  0999 V2000
    1.1556    1.9117    0.5833 S   0  0  0  0  0  0  0  0  0  0  0  0
   -2.6772    0.2490   -3.3101 F   0  0  0  0  0  0  0  0  0  0  0  0
    1.1142   -1.8615    1.3458 F   0  0  0  0  0  0  0  0  0  0  0  0
    4.3438    1.2551   -0.2063 F   0  0  0  0  0  0  0  0  0  0  0  0
    0.7767    2.9366    1.5534 O   0  0  0  0  0  0  0  0  0  0  0  0
    1.8240    2.3090   -0.6545 O   0  0  0  0  0  0  0  0  0  0  0  0
   -3.3428   -0.5615    1.9886 O   0  0  0  0  0  0  0  0  0  0  0  0
   -2.1430    0.2197    0.2346 N   0  0  0  0  0  0  0  0  0  0  0  0
    2.1312    0.7355    1.4114 N   0  0  0  0  0  0  0  0  0  0  0  0
   -1.1619    0.6622    1.0355 N   0  0  0  0  0  0  0  0  0  0  0  0
   -0.7115    1.0902   -1.1764 N   0  0  0  0  0  0  0  0  0  0  0  0
   -4.2094   -0.8258   -0.1777 N   0  0  0  0  0  0  0  0  0  0  0  0
   -0.3206    1.1799    0.1342 C   0  0  0  0  0  0  0  0  0  0  0  0
   -1.8695    0.4774   -1.0847 C   0  0  0  0  0  0  0  0  0  0  0  0
    2.7193   -0.2866    0.5830 C   0  0  0  0  0  0  0  0  0  0  0  0
   -3.2964   -0.4199    0.6486 C   0  0  0  0  0  0  0  0  0  0  0  0
   -2.8551    0.0411   -1.9919 C   0  0  0  0  0  0  0  0  0  0  0  0
    2.1772   -1.5647    0.5846 C   0  0  0  0  0  0  0  0  0  0  0  0
    3.8204    0.0209   -0.2048 C   0  0  0  0  0  0  0  0  0  0  0  0
   -3.9523   -0.5743   -1.5166 C   0  0  0  0  0  0  0  0  0  0  0  0
    2.7469   -2.5541   -0.2170 C   0  0  0  0  0  0  0  0  0  0  0  0
    4.3901   -0.9687   -1.0061 C   0  0  0  0  0  0  0  0  0  0  0  0
    3.8532   -2.2561   -1.0123 C   0  0  0  0  0  0  0  0  0  0  0  0
   -4.5130   -1.2153    2.4555 C   0  0  0  0  0  0  0  0  0  0  0  0
    1.6948    0.3563    2.2632 H   0  0  0  0  0  0  0  0  0  0  0  0
   -4.7184   -0.9150   -2.2052 H   0  0  0  0  0  0  0  0  0  0  0  0
    2.3285   -3.5562   -0.2216 H   0  0  0  0  0  0  0  0  0  0  0  0
    5.2514   -0.7364   -1.6254 H   0  0  0  0  0  0  0  0  0  0  0  0
    4.2967   -3.0264   -1.6363 H   0  0  0  0  0  0  0  0  0  0  0  0
   -4.5758   -2.2350    2.0616 H   0  0  0  0  0  0  0  0  0  0  0  0
   -5.4105   -0.6418    2.2010 H   0  0  0  0  0  0  0  0  0  0  0  0
   -4.4520   -1.2786    3.5459 H   0  0  0  0  0  0  0  0  0  0  0  0
  1  5  2  0  0  0  0
  1  6  2  0  0  0  0
  1  9  1  0  0  0  0
  1 13  1  0  0  0  0
  2 17  1  0  0  0  0
  3 18  1  0  0  0  0
  4 19  1  0  0  0  0
  7 16  1  0  0  0  0
  7 24  1  0  0  0  0
  8 10  1  0  0  0  0
  8 14  1  0  0  0  0
  8 16  1  0  0  0  0
  9 15  1  0  0  0  0
  9 25  1  0  0  0  0
 10 13  2  0  0  0  0
 11 13  1  0  0  0  0
 11 14  2  0  0  0  0
 12 16  2  0  0  0  0
 12 20  1  0  0  0  0
 14 17  1  0  0  0  0
 15 18  2  0  0  0  0
 15 19  1  0  0  0  0
 17 20  2  0  0  0  0
 18 21  1  0  0  0  0
 19 22  2  0  0  0  0
 20 26  1  0  0  0  0
 21 23  2  0  0  0  0
 21 27  1  0  0  0  0
 22 23  1  0  0  0  0
 22 28  1  0  0  0  0
 23 29  1  0  0  0  0
 24 30  1  0  0  0  0
 24 31  1  0  0  0  0
 24 32  1  0  0  0  0
M  END
> <PUBCHEM_COMPOUND_CID>
11700495

> <PUBCHEM_CONFORMER_RMSD>
0.8

> <PUBCHEM_CONFORMER_DIVERSEORDER>
1
9
18
45
35
19
32
25
36
24
30
33
29
31
8
17
22
46
38
13
16
14
15
11
43
23
28
39
12
4
3
26
20
21
5
10
34
41
42
27
6
44
40
7
2
37

> <PUBCHEM_MMFF94_PARTIAL_CHARGES>
29
1 1.5
10 -0.71
11 -0.57
12 -0.62
13 0.45
14 0.14
15 0.2
16 0.61
17 0.19
18 0.19
19 0.19
2 -0.15
20 0.02
21 -0.15
22 -0.15
23 -0.15
24 0.28
25 0.42
26 0.15
27 0.15
28 0.15
29 0.15
3 -0.19
4 -0.19
5 -0.65
6 -0.65
7 -0.43
8 0.56
9 -0.76

> <PUBCHEM_EFFECTIVE_ROTOR_COUNT>
4

> <PUBCHEM_PHARMACOPHORE_FEATURES>
9
1 5 acceptor
1 6 acceptor
1 9 donor
3 10 11 13 cation
3 8 11 14 cation
3 8 12 16 cation
5 8 10 11 13 14 rings
6 15 18 19 21 22 23 rings
6 8 12 14 16 17 20 rings

> <PUBCHEM_HEAVY_ATOM_COUNT>
24

> <PUBCHEM_ATOM_DEF_STEREO_COUNT>
0

> <PUBCHEM_ATOM_UDEF_STEREO_COUNT>
0

> <PUBCHEM_BOND_DEF_STEREO_COUNT>
0

> <PUBCHEM_BOND_UDEF_STEREO_COUNT>
0

> <PUBCHEM_ISOTOPIC_ATOM_COUNT>
0

> <PUBCHEM_COMPONENT_COUNT>
1

> <PUBCHEM_CACTVS_TAUTO_COUNT>
1

> <PUBCHEM_CONFORMER_ID>
00B2890F00000001

> <PUBCHEM_MMFF94_ENERGY>
56.8612

> <PUBCHEM_FEATURE_SELFOVERLAP>
48.684

> <PUBCHEM_SHAPE_FINGERPRINT>
10498660 4 16845569842002043398
12363563 72 18192732230544869482
12553582 1 18187369856585871146
12596599 1 17313681419890590750
12633257 1 15502656061052225906
12707595 3 18339654402944211106
12892183 10 14418717860390781670
13103583 49 16515681190998831150
13224815 77 18271812353735948630
13533116 47 18115307753338860067
13544653 18 18408318917052406472
13583140 156 18114456744197405801
15537594 2 17894619375416178406
15635459 17 18342749510981083875
1813 80 17967802882024434676
20291156 8 17967539007812951836
20645477 70 18339093591932138629
21033650 10 15697429087383656270
212916 134 14851870509329422955
21713013 43 17775275114482487662
21731516 1 18041290975107703536
2255824 54 17970079841846574192
23503958 8 16153436029755478559
235170 7 17632290194427103142
23557571 272 17060619996937004405
23559900 14 17058949916358325794
238 59 18197244505905711062
2838139 119 14476376242052285142
3323516 105 18272362066673802538
3472631 163 14907910413489403087
3737641 26 17751625779474738358
46194498 28 17988085487043577781
7097593 13 16515692138601131680

> <PUBCHEM_SHAPE_MULTIPOLES>
433.42
9.07
2.41
2.17
1.03
0.7
0.48
-4.62
-0.02
-2.68
-0.42
3.35
-0.41
0.46

> <PUBCHEM_SHAPE_SELFOVERLAP>
939.644

> <PUBCHEM_SHAPE_VOLUME>
239.9

> <PUBCHEM_COORDINATE_TYPE>
2
5
10

$$$$

