4147
  -OEChem-06251223552D

 46 47  0     0  0  0  0  0  0999 V2000
    7.7331    0.4050    0.0000 O   0  0  0  0  0  0  0  0  0  0  0  0
    4.2690   -5.5950    0.0000 O   0  0  0  0  0  0  0  0  0  0  0  0
    2.5369   -6.5950    0.0000 O   0  0  0  0  0  0  0  0  0  0  0  0
    2.5369   -5.5950    0.0000 N   0  0  0  0  0  0  0  0  0  0  0  0
    6.0010   -0.5950    0.0000 C   0  0  0  0  0  0  0  0  0  0  0  0
    6.0010    0.4050    0.0000 C   0  0  0  0  0  0  0  0  0  0  0  0
    5.1350   -1.0950    0.0000 C   0  0  0  0  0  0  0  0  0  0  0  0
    6.8671    0.9050    0.0000 C   0  0  0  0  0  0  0  0  0  0  0  0
    6.8671    1.9050    0.0000 C   0  0  0  0  0  0  0  0  0  0  0  0
    6.8671    3.9050    0.0000 C   0  0  0  0  0  0  0  0  0  0  0  0
    6.0010    2.4050    0.0000 C   0  0  0  0  0  0  0  0  0  0  0  0
    7.7331    2.4050    0.0000 C   0  0  0  0  0  0  0  0  0  0  0  0
    6.0010    3.4050    0.0000 C   0  0  0  0  0  0  0  0  0  0  0  0
    7.7331    3.4050    0.0000 C   0  0  0  0  0  0  0  0  0  0  0  0
    6.8671    4.9050    0.0000 C   0  0  0  0  0  0  0  0  0  0  0  0
    5.1350   -2.0950    0.0000 C   0  0  0  0  0  0  0  0  0  0  0  0
    7.7331    5.4050    0.0000 C   0  0  0  0  0  0  0  0  0  0  0  0
    6.0010    5.4050    0.0000 C   0  0  0  0  0  0  0  0  0  0  0  0
    4.2690   -2.5950    0.0000 C   0  0  0  0  0  0  0  0  0  0  0  0
    7.7331    6.4050    0.0000 C   0  0  0  0  0  0  0  0  0  0  0  0
    6.0010    6.4050    0.0000 C   0  0  0  0  0  0  0  0  0  0  0  0
    6.8671    6.9050    0.0000 C   0  0  0  0  0  0  0  0  0  0  0  0
    4.2690   -3.5950    0.0000 C   0  0  0  0  0  0  0  0  0  0  0  0
    3.4030   -4.0950    0.0000 C   0  0  0  0  0  0  0  0  0  0  0  0
    3.4030   -5.0950    0.0000 C   0  0  0  0  0  0  0  0  0  0  0  0
    6.2131   -1.1776    0.0000 H   0  0  0  0  0  0  0  0  0  0  0  0
    6.6116   -0.4873    0.0000 H   0  0  0  0  0  0  0  0  0  0  0  0
    5.7890    0.9876    0.0000 H   0  0  0  0  0  0  0  0  0  0  0  0
    5.3905    0.2973    0.0000 H   0  0  0  0  0  0  0  0  0  0  0  0
    4.9230   -0.5124    0.0000 H   0  0  0  0  0  0  0  0  0  0  0  0
    4.5244   -1.2027    0.0000 H   0  0  0  0  0  0  0  0  0  0  0  0
    5.4641    2.0950    0.0000 H   0  0  0  0  0  0  0  0  0  0  0  0
    8.2700    2.0950    0.0000 H   0  0  0  0  0  0  0  0  0  0  0  0
    5.4641    3.7150    0.0000 H   0  0  0  0  0  0  0  0  0  0  0  0
    8.2700    3.7150    0.0000 H   0  0  0  0  0  0  0  0  0  0  0  0
    5.6720   -2.4050    0.0000 H   0  0  0  0  0  0  0  0  0  0  0  0
    8.2700    5.0950    0.0000 H   0  0  0  0  0  0  0  0  0  0  0  0
    5.4641    5.0950    0.0000 H   0  0  0  0  0  0  0  0  0  0  0  0
    3.7320   -2.2850    0.0000 H   0  0  0  0  0  0  0  0  0  0  0  0
    8.2700    6.7150    0.0000 H   0  0  0  0  0  0  0  0  0  0  0  0
    5.4641    6.7150    0.0000 H   0  0  0  0  0  0  0  0  0  0  0  0
    6.8671    7.5250    0.0000 H   0  0  0  0  0  0  0  0  0  0  0  0
    4.8059   -3.9050    0.0000 H   0  0  0  0  0  0  0  0  0  0  0  0
    2.8660   -3.7850    0.0000 H   0  0  0  0  0  0  0  0  0  0  0  0
    2.0000   -5.2850    0.0000 H   0  0  0  0  0  0  0  0  0  0  0  0
    2.0000   -6.9050    0.0000 H   0  0  0  0  0  0  0  0  0  0  0  0
  1  8  2  0  0  0  0
  2 25  2  0  0  0  0
  3  4  1  0  0  0  0
  3 46  1  0  0  0  0
  4 25  1  0  0  0  0
  4 45  1  0  0  0  0
  5  6  1  0  0  0  0
  5  7  1  0  0  0  0
  5 26  1  0  0  0  0
  5 27  1  0  0  0  0
  6  8  1  0  0  0  0
  6 28  1  0  0  0  0
  6 29  1  0  0  0  0
  7 16  1  0  0  0  0
  7 30  1  0  0  0  0
  7 31  1  0  0  0  0
  8  9  1  0  0  0  0
  9 11  2  0  0  0  0
  9 12  1  0  0  0  0
 10 13  2  0  0  0  0
 10 14  1  0  0  0  0
 10 15  1  0  0  0  0
 11 13  1  0  0  0  0
 11 32  1  0  0  0  0
 12 14  2  0  0  0  0
 12 33  1  0  0  0  0
 13 34  1  0  0  0  0
 14 35  1  0  0  0  0
 15 17  2  0  0  0  0
 15 18  1  0  0  0  0
 16 19  2  3  0  0  0
 16 36  1  0  0  0  0
 17 20  1  0  0  0  0
 17 37  1  0  0  0  0
 18 21  2  0  0  0  0
 18 38  1  0  0  0  0
 19 23  1  0  0  0  0
 19 39  1  0  0  0  0
 20 22  2  0  0  0  0
 20 40  1  0  0  0  0
 21 22  1  0  0  0  0
 21 41  1  0  0  0  0
 22 42  1  0  0  0  0
 23 24  2  3  0  0  0
 23 43  1  0  0  0  0
 24 25  1  0  0  0  0
 24 44  1  0  0  0  0
M  END
> <PUBCHEM_COMPOUND_CID>
4147

> <PUBCHEM_COMPOUND_CANONICALIZED>
1

> <PUBCHEM_CACTVS_COMPLEXITY>
470

> <PUBCHEM_CACTVS_HBOND_ACCEPTOR>
3

> <PUBCHEM_CACTVS_HBOND_DONOR>
2

> <PUBCHEM_CACTVS_ROTATABLE_BOND>
8

> <PUBCHEM_CACTVS_SUBSKEYS>
AAADceB6MAAAAAAAAAAAAAAAAAAAAAAAAAAwYAAAAAAAAAABQAAAHgAUCAAADASBmAAwAIBQAACIAqFSEACCAAAkAAAoiAEAAMgIIDKAFRCAIQAgkAAIiYcIiMCOwAAAAAAAAACAAAAAAAAAAAAAAAAAAA==

> <PUBCHEM_IUPAC_OPENEYE_NAME>
9-oxo-9-(4-phenylphenyl)nona-2,4-dienehydroxamic acid

> <PUBCHEM_IUPAC_CAS_NAME>
N-hydroxy-9-oxo-9-(4-phenylphenyl)nona-2,4-dienamide

> <PUBCHEM_IUPAC_NAME>
N-hydroxy-9-oxo-9-(4-phenylphenyl)nona-2,4-dienamide

> <PUBCHEM_IUPAC_SYSTEMATIC_NAME>
N-oxidanyl-9-oxidanylidene-9-(4-phenylphenyl)nona-2,4-dienamide

> <PUBCHEM_IUPAC_TRADITIONAL_NAME>
9-keto-9-(4-phenylphenyl)nona-2,4-dienehydroxamic acid

> <PUBCHEM_IUPAC_INCHI>
InChI=1S/C21H21NO3/c23-20(11-7-2-1-3-8-12-21(24)22-25)19-15-13-18(14-16-19)17-9-5-4-6-10-17/h1,3-6,8-10,12-16,25H,2,7,11H2,(H,22,24)

> <PUBCHEM_IUPAC_INCHIKEY>
NRYMYNMTWFSJMV-UHFFFAOYSA-N

> <PUBCHEM_XLOGP3_AA>
3.7

> <PUBCHEM_EXACT_MASS>
335.152144

> <PUBCHEM_MOLECULAR_FORMULA>
C21H21NO3

> <PUBCHEM_MOLECULAR_WEIGHT>
335.39634

> <PUBCHEM_OPENEYE_CAN_SMILES>
C1=CC=C(C=C1)C2=CC=C(C=C2)C(=O)CCCC=CC=CC(=O)NO

> <PUBCHEM_OPENEYE_ISO_SMILES>
C1=CC=C(C=C1)C2=CC=C(C=C2)C(=O)CCCC=CC=CC(=O)NO

> <PUBCHEM_CACTVS_TPSA>
66.4

> <PUBCHEM_MONOISOTOPIC_WEIGHT>
335.152144

> <PUBCHEM_TOTAL_CHARGE>
0

> <PUBCHEM_HEAVY_ATOM_COUNT>
25

> <PUBCHEM_ATOM_DEF_STEREO_COUNT>
0

> <PUBCHEM_ATOM_UDEF_STEREO_COUNT>
0

> <PUBCHEM_BOND_DEF_STEREO_COUNT>
0

> <PUBCHEM_BOND_UDEF_STEREO_COUNT>
2

> <PUBCHEM_ISOTOPIC_ATOM_COUNT>
0

> <PUBCHEM_COMPONENT_COUNT>
1

> <PUBCHEM_CACTVS_TAUTO_COUNT>
18

> <PUBCHEM_COORDINATE_TYPE>
1
5
255

> <PUBCHEM_BONDANNOTATIONS>
10  13  8
10  14  8
11  13  8
12  14  8
15  17  8
15  18  8
16  19  1
17  20  8
18  21  8
20  22  8
21  22  8
23  24  1
9  11  8
9  12  8

$$$$

