15558620
  -OEChem-07051213103D

 82 86  0     1  0  0  0  0  0999 V2000
    1.3102   -2.6650    1.1763 O   0  0  0  0  0  0  0  0  0  0  0  0
    7.1912   -0.9404    0.5181 O   0  0  0  0  0  0  0  0  0  0  0  0
   -6.4262    0.1946    2.0002 O   0  0  0  0  0  0  0  0  0  0  0  0
   -4.4143   -2.0306    1.0508 O   0  0  0  0  0  0  0  0  0  0  0  0
    1.1351    0.8081   -0.4730 C   0  0  1  0  0  0  0  0  0  0  0  0
    1.6996   -0.3440    0.4589 C   0  0  2  0  0  0  0  0  0  0  0  0
    3.2960   -0.5049    0.4898 C   0  0  2  0  0  0  0  0  0  0  0  0
   -0.4204    1.0141   -0.1561 C   0  0  2  0  0  0  0  0  0  0  0  0
    4.0094    0.7907   -0.0360 C   0  0  1  0  0  0  0  0  0  0  0  0
    1.9017    2.1516   -0.2583 C   0  0  0  0  0  0  0  0  0  0  0  0
    0.8996   -1.6703    0.2410 C   0  0  2  0  0  0  0  0  0  0  0  0
    3.2653    2.0412    0.4257 C   0  0  0  0  0  0  0  0  0  0  0  0
   -1.1484   -0.3050   -0.3211 C   0  0  0  0  0  0  0  0  0  0  0  0
    5.5604    0.8245    0.1726 C   0  0  0  0  0  0  0  0  0  0  0  0
    3.8311   -1.6945   -0.3572 C   0  0  0  0  0  0  0  0  0  0  0  0
   -1.1587    1.9345   -1.1661 C   0  0  0  0  0  0  0  0  0  0  0  0
   -0.6179   -1.4965    0.4046 C   0  0  0  0  0  0  0  0  0  0  0  0
    1.3198    0.3825   -1.9703 C   0  0  0  0  0  0  0  0  0  0  0  0
    3.6662   -0.7981    1.9776 C   0  0  0  0  0  0  0  0  0  0  0  0
   -2.2233   -0.2051   -1.1162 C   0  0  0  0  0  0  0  0  0  0  0  0
   -0.7283    1.5352    1.2736 C   0  0  0  0  0  0  0  0  0  0  0  0
   -2.4244    1.1949   -1.6034 C   0  0  0  0  0  0  0  0  0  0  0  0
    5.2969   -1.5779   -0.7910 C   0  0  0  0  0  0  0  0  0  0  0  0
    6.1058   -0.6053    0.0419 C   0  0  0  0  0  0  0  0  0  0  0  0
    6.0096    1.4467    1.5074 C   0  0  0  0  0  0  0  0  0  0  0  0
    6.2196    1.6454   -0.9588 C   0  0  0  0  0  0  0  0  0  0  0  0
   -3.2002   -1.2586   -1.5058 C   0  0  1  0  0  0  0  0  0  0  0  0
   -4.6450   -0.9157   -1.0765 C   0  0  0  0  0  0  0  0  0  0  0  0
   -3.1448   -1.4816   -3.0210 C   0  0  0  0  0  0  0  0  0  0  0  0
   -4.8356   -0.8106    0.4445 C   0  0  1  0  0  0  0  0  0  0  0  0
   -6.2724   -0.5549    0.7971 C   0  0  2  0  0  0  0  0  0  0  0  0
   -6.8258    0.8295    0.7788 C   0  0  0  0  0  0  0  0  0  0  0  0
   -8.2786    1.1076    0.6772 C   0  0  0  0  0  0  0  0  0  0  0  0
   -5.9531    1.9578    0.3747 C   0  0  0  0  0  0  0  0  0  0  0  0
    1.4568   -0.0271    1.4816 H   0  0  0  0  0  0  0  0  0  0  0  0
    3.8933    0.7790   -1.1273 H   0  0  0  0  0  0  0  0  0  0  0  0
    1.3162    2.8755    0.3134 H   0  0  0  0  0  0  0  0  0  0  0  0
    2.0510    2.6439   -1.2287 H   0  0  0  0  0  0  0  0  0  0  0  0
    1.0989   -2.0757   -0.7557 H   0  0  0  0  0  0  0  0  0  0  0  0
    3.8330    2.9486    0.1909 H   0  0  0  0  0  0  0  0  0  0  0  0
    3.1298    2.0346    1.5130 H   0  0  0  0  0  0  0  0  0  0  0  0
    3.2410   -1.8155   -1.2717 H   0  0  0  0  0  0  0  0  0  0  0  0
    3.7093   -2.6348    0.1949 H   0  0  0  0  0  0  0  0  0  0  0  0
   -0.5607    2.1743   -2.0484 H   0  0  0  0  0  0  0  0  0  0  0  0
   -1.4184    2.9063   -0.7278 H   0  0  0  0  0  0  0  0  0  0  0  0
   -0.8651   -1.3969    1.4696 H   0  0  0  0  0  0  0  0  0  0  0  0
   -1.1068   -2.4239    0.0878 H   0  0  0  0  0  0  0  0  0  0  0  0
    0.6375   -0.4190   -2.2683 H   0  0  0  0  0  0  0  0  0  0  0  0
    1.1512    1.2140   -2.6614 H   0  0  0  0  0  0  0  0  0  0  0  0
    2.3259    0.0218   -2.1855 H   0  0  0  0  0  0  0  0  0  0  0  0
    4.7152   -1.0720    2.1109 H   0  0  0  0  0  0  0  0  0  0  0  0
    3.4557    0.0625    2.6208 H   0  0  0  0  0  0  0  0  0  0  0  0
    3.1022   -1.6406    2.3845 H   0  0  0  0  0  0  0  0  0  0  0  0
   -0.2956    0.9126    2.0609 H   0  0  0  0  0  0  0  0  0  0  0  0
   -0.3757    2.5585    1.4292 H   0  0  0  0  0  0  0  0  0  0  0  0
   -1.8110    1.5552    1.4573 H   0  0  0  0  0  0  0  0  0  0  0  0
   -2.5321    1.2524   -2.6903 H   0  0  0  0  0  0  0  0  0  0  0  0
   -3.3054    1.6501   -1.1417 H   0  0  0  0  0  0  0  0  0  0  0  0
    5.3552   -1.2420   -1.8331 H   0  0  0  0  0  0  0  0  0  0  0  0
    5.7719   -2.5647   -0.7515 H   0  0  0  0  0  0  0  0  0  0  0  0
    5.6296    0.9096    2.3779 H   0  0  0  0  0  0  0  0  0  0  0  0
    7.1029    1.4404    1.5957 H   0  0  0  0  0  0  0  0  0  0  0  0
    5.6923    2.4909    1.5950 H   0  0  0  0  0  0  0  0  0  0  0  0
    5.9882    1.2294   -1.9462 H   0  0  0  0  0  0  0  0  0  0  0  0
    5.8860    2.6882   -0.9466 H   0  0  0  0  0  0  0  0  0  0  0  0
    7.3121    1.6432   -0.8638 H   0  0  0  0  0  0  0  0  0  0  0  0
   -2.9272   -2.2163   -1.0507 H   0  0  0  0  0  0  0  0  0  0  0  0
    1.0539   -2.3653    2.0650 H   0  0  0  0  0  0  0  0  0  0  0  0
   -4.9889   -0.0005   -1.5714 H   0  0  0  0  0  0  0  0  0  0  0  0
   -5.2988   -1.7182   -1.4468 H   0  0  0  0  0  0  0  0  0  0  0  0
   -2.1202   -1.6785   -3.3563 H   0  0  0  0  0  0  0  0  0  0  0  0
   -3.5288   -0.6223   -3.5811 H   0  0  0  0  0  0  0  0  0  0  0  0
   -3.7541   -2.3488   -3.2996 H   0  0  0  0  0  0  0  0  0  0  0  0
   -4.1877   -0.0316    0.8566 H   0  0  0  0  0  0  0  0  0  0  0  0
   -6.9318   -1.3931    0.6185 H   0  0  0  0  0  0  0  0  0  0  0  0
   -3.4431   -2.0276    1.0840 H   0  0  0  0  0  0  0  0  0  0  0  0
   -8.5539    1.3441   -0.3560 H   0  0  0  0  0  0  0  0  0  0  0  0
   -8.5624    1.9548    1.3105 H   0  0  0  0  0  0  0  0  0  0  0  0
   -8.8778    0.2455    0.9900 H   0  0  0  0  0  0  0  0  0  0  0  0
   -6.3883    2.9132    0.6910 H   0  0  0  0  0  0  0  0  0  0  0  0
   -5.8500    1.9969   -0.7140 H   0  0  0  0  0  0  0  0  0  0  0  0
   -4.9544    1.9259    0.8193 H   0  0  0  0  0  0  0  0  0  0  0  0
  1 11  1  0  0  0  0
  1 68  1  0  0  0  0
  2 24  2  0  0  0  0
  3 31  1  0  0  0  0
  3 32  1  0  0  0  0
  4 30  1  0  0  0  0
  4 76  1  0  0  0  0
  5  6  1  0  0  0  0
  5  8  1  0  0  0  0
  5 10  1  0  0  0  0
  5 18  1  0  0  0  0
  6  7  1  0  0  0  0
  6 11  1  0  0  0  0
  6 35  1  0  0  0  0
  7  9  1  0  0  0  0
  7 15  1  0  0  0  0
  7 19  1  0  0  0  0
  8 13  1  0  0  0  0
  8 16  1  0  0  0  0
  8 21  1  0  0  0  0
  9 12  1  0  0  0  0
  9 14  1  0  0  0  0
  9 36  1  0  0  0  0
 10 12  1  0  0  0  0
 10 37  1  0  0  0  0
 10 38  1  0  0  0  0
 11 17  1  0  0  0  0
 11 39  1  0  0  0  0
 12 40  1  0  0  0  0
 12 41  1  0  0  0  0
 13 17  1  0  0  0  0
 13 20  2  0  0  0  0
 14 24  1  0  0  0  0
 14 25  1  0  0  0  0
 14 26  1  0  0  0  0
 15 23  1  0  0  0  0
 15 42  1  0  0  0  0
 15 43  1  0  0  0  0
 16 22  1  0  0  0  0
 16 44  1  0  0  0  0
 16 45  1  0  0  0  0
 17 46  1  0  0  0  0
 17 47  1  0  0  0  0
 18 48  1  0  0  0  0
 18 49  1  0  0  0  0
 18 50  1  0  0  0  0
 19 51  1  0  0  0  0
 19 52  1  0  0  0  0
 19 53  1  0  0  0  0
 20 22  1  0  0  0  0
 20 27  1  0  0  0  0
 21 54  1  0  0  0  0
 21 55  1  0  0  0  0
 21 56  1  0  0  0  0
 22 57  1  0  0  0  0
 22 58  1  0  0  0  0
 23 24  1  0  0  0  0
 23 59  1  0  0  0  0
 23 60  1  0  0  0  0
 25 61  1  0  0  0  0
 25 62  1  0  0  0  0
 25 63  1  0  0  0  0
 26 64  1  0  0  0  0
 26 65  1  0  0  0  0
 26 66  1  0  0  0  0
 27 28  1  0  0  0  0
 27 29  1  0  0  0  0
 27 67  1  0  0  0  0
 28 30  1  0  0  0  0
 28 69  1  0  0  0  0
 28 70  1  0  0  0  0
 29 71  1  0  0  0  0
 29 72  1  0  0  0  0
 29 73  1  0  0  0  0
 30 31  1  0  0  0  0
 30 74  1  0  0  0  0
 31 32  1  0  0  0  0
 31 75  1  0  0  0  0
 32 33  1  0  0  0  0
 32 34  1  0  0  0  0
 33 77  1  0  0  0  0
 33 78  1  0  0  0  0
 33 79  1  0  0  0  0
 34 80  1  0  0  0  0
 34 81  1  0  0  0  0
 34 82  1  0  0  0  0
M  END
> <PUBCHEM_COMPOUND_CID>
15558620

> <PUBCHEM_CONFORMER_RMSD>
1

> <PUBCHEM_CONFORMER_DIVERSEORDER>
1
5
8
7
2
3
6
4

> <PUBCHEM_MMFF94_PARTIAL_CHARGES>
22
1 -0.68
11 0.28
13 -0.28
14 0.06
17 0.14
2 -0.57
20 -0.28
22 0.14
23 0.06
24 0.45
27 0.14
3 -0.3
30 0.38
31 -0.05
32 -0.04
33 0.09
34 0.09
4 -0.68
68 0.4
75 0.1
76 0.4
8 0.14

> <PUBCHEM_EFFECTIVE_ROTOR_COUNT>
6.4

> <PUBCHEM_PHARMACOPHORE_FEATURES>
13
1 1 acceptor
1 1 donor
1 2 acceptor
1 29 hydrophobe
1 3 acceptor
1 4 acceptor
1 4 donor
3 14 25 26 hydrophobe
3 32 33 34 hydrophobe
5 8 13 16 20 22 rings
6 5 6 7 9 10 12 rings
6 5 6 8 11 13 17 rings
6 7 9 14 15 23 24 rings

> <PUBCHEM_HEAVY_ATOM_COUNT>
34

> <PUBCHEM_ATOM_DEF_STEREO_COUNT>
9

> <PUBCHEM_ATOM_UDEF_STEREO_COUNT>
0

> <PUBCHEM_BOND_DEF_STEREO_COUNT>
0

> <PUBCHEM_BOND_UDEF_STEREO_COUNT>
0

> <PUBCHEM_ISOTOPIC_ATOM_COUNT>
0

> <PUBCHEM_COMPONENT_COUNT>
1

> <PUBCHEM_CACTVS_TAUTO_COUNT>
2

> <PUBCHEM_CONFORMER_ID>
00ED67DC00000001

> <PUBCHEM_MMFF94_ENERGY>
138.3282

> <PUBCHEM_FEATURE_SELFOVERLAP>
66.073

> <PUBCHEM_SHAPE_FINGERPRINT>
10076449 9 17346595283994642478
10554248 39 4750883662719452192
10674148 151 18187077344155120060
10906281 52 18268426829180944156
11089746 13 5184349603330136485
11135926 11 18130237028788396195
11456790 92 18410864278598361440
12166972 35 15554447392722201454
12236239 1 18040999509731133303
12422481 6 18334574663967253247
13782708 43 13038916546470992464
14251764 18 18260829281274136285
14840074 17 18412549794862545551
14849402 71 18270393872025348245
14856354 85 18131062702666286743
15021287 119 18412824673260314197
15064986 96 18188196685573828431
15131766 46 15432319040051760872
15142383 8 16081088191029109234
15461852 350 16443070474641462589
15840311 113 18335135397897365061
15849732 13 18186517718332124223
18608769 82 18202562873582081104
20105231 36 18343011220571396634
20511986 3 17603875476633201227
21033648 29 18187661162964067730
21130935 74 18187652358292361422
21150785 3 10447926165792185297
21267235 1 18272088331950787042
21521721 280 18131067096169670200
21792961 116 17203341051434586583
22393880 68 18198360613914950908
23522609 53 18191004747211743828
23559900 14 18195257611744706956
23569917 315 10880002371305294152
24771293 8 18189912911576625736
3178227 256 17989205936895306152
34797466 226 15841262706236399798
350125 39 18343017778970328172
4073 2 18130780119013150675
4093350 32 18113332033453457374
4340502 62 18343588421811114984
44317340 157 18334297578684521452
5028188 123 18114176381495814644
5104073 3 18058181676907578296
6009941 240 17989483048797355841
6086070 43 15792024350398031739
6328613 192 17530684295018562249
6669772 16 12533907462915125863
7226269 152 17530681018280437633
7495541 125 15410895141371999231

> <PUBCHEM_SHAPE_MULTIPOLES>
676.23
18.81
2.32
1.79
12.24
0.01
-0.55
-3.34
5.88
-0.39
-0.03
1.19
0.4
-0.93

> <PUBCHEM_SHAPE_SELFOVERLAP>
1427.692

> <PUBCHEM_SHAPE_VOLUME>
380.9

> <PUBCHEM_COORDINATE_TYPE>
2
5
10

$$$$

