9784
  -OEChem-06261204033D

 29 30  0     0  0  0  0  0  0999 V2000
   -3.3767    2.6718   -0.0075 Cl  0  0  0  0  0  0  0  0  0  0  0  0
    0.8851   -0.5661   -2.4258 O   0  0  0  0  0  0  0  0  0  0  0  0
    0.9315   -0.7857    2.3626 O   0  0  0  0  0  0  0  0  0  0  0  0
    3.0772    2.5679    0.0960 O   0  0  0  0  0  0  0  0  0  0  0  0
    1.9388    1.0030   -1.1374 N   0  0  0  0  0  0  0  0  0  0  0  0
    1.9591    0.8973    1.2032 N   0  0  0  0  0  0  0  0  0  0  0  0
    0.5591   -0.7269   -0.0305 C   0  0  0  0  0  0  0  0  0  0  0  0
    0.8031   -2.2408   -0.1018 C   0  0  0  0  0  0  0  0  0  0  0  0
   -0.9227   -0.4768   -0.0053 C   0  0  0  0  0  0  0  0  0  0  0  0
    1.1399   -0.1134   -1.3078 C   0  0  0  0  0  0  0  0  0  0  0  0
    1.1644   -0.2318    1.2861 C   0  0  0  0  0  0  0  0  0  0  0  0
    2.2837   -2.5552   -0.0968 C   0  0  0  0  0  0  0  0  0  0  0  0
   -1.3990    0.8281   -0.0170 C   0  0  0  0  0  0  0  0  0  0  0  0
   -1.7992   -1.5540    0.0287 C   0  0  0  0  0  0  0  0  0  0  0  0
    2.3667    1.5618    0.0568 C   0  0  0  0  0  0  0  0  0  0  0  0
   -2.7745    1.0596    0.0056 C   0  0  0  0  0  0  0  0  0  0  0  0
   -3.1744   -1.3228    0.0514 C   0  0  0  0  0  0  0  0  0  0  0  0
   -3.6621   -0.0159    0.0397 C   0  0  0  0  0  0  0  0  0  0  0  0
    0.3822   -2.6896   -1.0120 H   0  0  0  0  0  0  0  0  0  0  0  0
    0.3898   -2.7718    0.7665 H   0  0  0  0  0  0  0  0  0  0  0  0
    2.8074   -2.1171   -0.9520 H   0  0  0  0  0  0  0  0  0  0  0  0
    2.7831   -2.2226    0.8182 H   0  0  0  0  0  0  0  0  0  0  0  0
    2.4276   -3.6399   -0.1587 H   0  0  0  0  0  0  0  0  0  0  0  0
    2.2757    1.4480   -1.9868 H   0  0  0  0  0  0  0  0  0  0  0  0
    2.3113    1.2640    2.0831 H   0  0  0  0  0  0  0  0  0  0  0  0
   -0.7150    1.6721   -0.0401 H   0  0  0  0  0  0  0  0  0  0  0  0
   -1.5162   -2.5986    0.0370 H   0  0  0  0  0  0  0  0  0  0  0  0
   -3.8671   -2.1591    0.0773 H   0  0  0  0  0  0  0  0  0  0  0  0
   -4.7363    0.1492    0.0576 H   0  0  0  0  0  0  0  0  0  0  0  0
  1 16  1  0  0  0  0
  2 10  2  0  0  0  0
  3 11  2  0  0  0  0
  4 15  2  0  0  0  0
  5 10  1  0  0  0  0
  5 15  1  0  0  0  0
  5 24  1  0  0  0  0
  6 11  1  0  0  0  0
  6 15  1  0  0  0  0
  6 25  1  0  0  0  0
  7  8  1  0  0  0  0
  7  9  1  0  0  0  0
  7 10  1  0  0  0  0
  7 11  1  0  0  0  0
  8 12  1  0  0  0  0
  8 19  1  0  0  0  0
  8 20  1  0  0  0  0
  9 13  2  0  0  0  0
  9 14  1  0  0  0  0
 12 21  1  0  0  0  0
 12 22  1  0  0  0  0
 12 23  1  0  0  0  0
 13 16  1  0  0  0  0
 13 26  1  0  0  0  0
 14 17  2  0  0  0  0
 14 27  1  0  0  0  0
 16 18  2  0  0  0  0
 17 18  1  0  0  0  0
 17 28  1  0  0  0  0
 18 29  1  0  0  0  0
M  END
> <PUBCHEM_COMPOUND_CID>
9784

> <PUBCHEM_CONFORMER_RMSD>
0.6

> <PUBCHEM_CONFORMER_DIVERSEORDER>
1
11
2
7
10
9
5
4
8
6
3

> <PUBCHEM_MMFF94_PARTIAL_CHARGES>
22
1 -0.18
10 0.57
11 0.57
13 -0.15
14 -0.15
15 0.69
16 0.18
17 -0.15
18 -0.15
2 -0.57
24 0.37
25 0.37
26 0.15
27 0.15
28 0.15
29 0.15
3 -0.57
4 -0.57
5 -0.49
6 -0.49
7 0.27
9 -0.14

> <PUBCHEM_EFFECTIVE_ROTOR_COUNT>
2.6

> <PUBCHEM_PHARMACOPHORE_FEATURES>
8
1 12 hydrophobe
1 2 acceptor
1 3 acceptor
1 4 acceptor
1 5 donor
1 6 donor
6 5 6 7 10 11 15 rings
6 9 13 14 16 17 18 rings

> <PUBCHEM_HEAVY_ATOM_COUNT>
18

> <PUBCHEM_ATOM_DEF_STEREO_COUNT>
0

> <PUBCHEM_ATOM_UDEF_STEREO_COUNT>
0

> <PUBCHEM_BOND_DEF_STEREO_COUNT>
0

> <PUBCHEM_BOND_UDEF_STEREO_COUNT>
0

> <PUBCHEM_ISOTOPIC_ATOM_COUNT>
0

> <PUBCHEM_COMPONENT_COUNT>
1

> <PUBCHEM_CACTVS_TAUTO_COUNT>
5

> <PUBCHEM_CONFORMER_ID>
0000263800000001

> <PUBCHEM_MMFF94_ENERGY>
54.6265

> <PUBCHEM_FEATURE_SELFOVERLAP>
40.636

> <PUBCHEM_SHAPE_FINGERPRINT>
10498660 4 18337673014815138933
10863032 1 18410009935913287886
10948715 1 18338235938719019024
12326174 3 16877947169421387470
12725867 57 17829897890145920108
13132413 78 17974851975618870110
13134695 92 17026021802016242674
13140716 1 18269269239639376721
13464514 151 18264474239054897876
13693222 7 18201996672813430469
13965767 371 17914899966117505093
14648413 74 18338796835477599955
14713325 29 16120993762715514094
14787075 74 16693297089375660299
15775835 57 18129384808486931513
16945 1 18121781625424580662
18981168 100 18340491166006329613
20233049 118 17552072218250456613
20511035 2 17896621632918487887
20600515 1 17463684647499747950
21501502 16 18334015016743598123
21524375 3 17970065548105449916
23114952 82 17750773563009220549
23402539 116 17974294213790601494
23419403 2 16164726090269891810
23559900 14 18264215862554703767
2748010 2 18339637936498625287
305870 269 18411982429787842318
350125 39 18339070610005151715
7364860 26 18410011069653012606
74978 22 18266457796859898733
81228 2 16670803284895334142

> <PUBCHEM_SHAPE_MULTIPOLES>
344.73
5.23
2.68
1.41
4.03
0.62
0.03
2
-0.08
-0.75
-0.01
-1.01
-0.14
0.09

> <PUBCHEM_SHAPE_SELFOVERLAP>
736.226

> <PUBCHEM_SHAPE_VOLUME>
191.4

> <PUBCHEM_COORDINATE_TYPE>
2
5
10

$$$$

