1787
  -OEChem-07051212513D

 48 50  0     1  0  0  0  0  0999 V2000
   -0.5055    1.4039   -0.5944 O   0  0  0  0  0  0  0  0  0  0  0  0
   -6.5569    0.7002    1.0412 O   0  0  0  0  0  0  0  0  0  0  0  0
    7.3479   -0.0382   -0.9698 O   0  0  0  0  0  0  0  0  0  0  0  0
   -6.4918   -1.0444   -0.4368 N   0  0  0  0  0  0  0  0  0  0  0  0
    8.5798    0.2533   -0.3967 N   0  0  0  0  0  0  0  0  0  0  0  0
    2.8111   -0.3575   -0.7153 C   0  0  0  0  0  0  0  0  0  0  0  0
    4.2037    0.0350   -0.2190 C   0  0  0  0  0  0  0  0  0  0  0  0
    1.7835    0.7279   -0.4020 C   0  0  0  0  0  0  0  0  0  0  0  0
    5.2269   -1.0682   -0.5040 C   0  0  0  0  0  0  0  0  0  0  0  0
    0.4031    0.3643   -0.9304 C   0  0  0  0  0  0  0  0  0  0  0  0
   -7.8764   -0.9156    0.0467 C   0  0  2  0  0  0  0  0  0  0  0  0
   -7.7774    0.0035    1.2474 C   0  0  0  0  0  0  0  0  0  0  0  0
    6.6086   -0.6717   -0.0487 C   0  0  0  0  0  0  0  0  0  0  0  0
   -5.8799   -0.0638    0.1500 C   0  0  0  0  0  0  0  0  0  0  0  0
   -4.4742    0.3198   -0.0436 C   0  0  0  0  0  0  0  0  0  0  0  0
   -8.4462   -2.2806    0.3827 C   0  0  0  0  0  0  0  0  0  0  0  0
   -1.8158    1.0450   -0.4116 C   0  0  0  0  0  0  0  0  0  0  0  0
    7.2620   -0.8282    1.1135 C   0  0  0  0  0  0  0  0  0  0  0  0
   -3.6712   -0.3997   -0.9285 C   0  0  0  0  0  0  0  0  0  0  0  0
   -3.9433    1.4033    0.6566 C   0  0  0  0  0  0  0  0  0  0  0  0
   -2.3372   -0.0358   -1.1131 C   0  0  0  0  0  0  0  0  0  0  0  0
   -2.6095    1.7671    0.4719 C   0  0  0  0  0  0  0  0  0  0  0  0
    8.5048   -0.2279    0.8474 C   0  0  0  0  0  0  0  0  0  0  0  0
    9.6541   -0.0915    1.7566 C   0  0  0  0  0  0  0  0  0  0  0  0
    2.5047   -1.2996   -0.2448 H   0  0  0  0  0  0  0  0  0  0  0  0
    2.8445   -0.5322   -1.7975 H   0  0  0  0  0  0  0  0  0  0  0  0
    4.5179    0.9675   -0.7049 H   0  0  0  0  0  0  0  0  0  0  0  0
    4.1689    0.2370    0.8592 H   0  0  0  0  0  0  0  0  0  0  0  0
    2.0965    1.6851   -0.8376 H   0  0  0  0  0  0  0  0  0  0  0  0
    1.7274    0.8954    0.6809 H   0  0  0  0  0  0  0  0  0  0  0  0
    5.2509   -1.2919   -1.5775 H   0  0  0  0  0  0  0  0  0  0  0  0
    4.9336   -1.9922    0.0090 H   0  0  0  0  0  0  0  0  0  0  0  0
    0.1122   -0.5913   -0.4749 H   0  0  0  0  0  0  0  0  0  0  0  0
    0.4353    0.2536   -2.0205 H   0  0  0  0  0  0  0  0  0  0  0  0
   -8.4790   -0.4499   -0.7427 H   0  0  0  0  0  0  0  0  0  0  0  0
   -7.7193   -0.5304    2.2021 H   0  0  0  0  0  0  0  0  0  0  0  0
   -8.6103    0.7119    1.2892 H   0  0  0  0  0  0  0  0  0  0  0  0
   -7.8358   -2.7947    1.1334 H   0  0  0  0  0  0  0  0  0  0  0  0
   -9.4660   -2.1927    0.7707 H   0  0  0  0  0  0  0  0  0  0  0  0
   -8.4719   -2.9170   -0.5082 H   0  0  0  0  0  0  0  0  0  0  0  0
    6.9157   -1.2978    2.0219 H   0  0  0  0  0  0  0  0  0  0  0  0
   -4.0650   -1.2432   -1.4893 H   0  0  0  0  0  0  0  0  0  0  0  0
   -4.5393    1.9863    1.3532 H   0  0  0  0  0  0  0  0  0  0  0  0
   -1.7545   -0.6036   -1.8320 H   0  0  0  0  0  0  0  0  0  0  0  0
   -2.1995    2.6115    1.0185 H   0  0  0  0  0  0  0  0  0  0  0  0
   10.5349   -0.5961    1.3461 H   0  0  0  0  0  0  0  0  0  0  0  0
    9.9027    0.9636    1.9110 H   0  0  0  0  0  0  0  0  0  0  0  0
    9.4419   -0.5323    2.7361 H   0  0  0  0  0  0  0  0  0  0  0  0
  1 10  1  0  0  0  0
  1 17  1  0  0  0  0
  2 12  1  0  0  0  0
  2 14  1  0  0  0  0
  3  5  1  0  0  0  0
  3 13  1  0  0  0  0
  4 11  1  0  0  0  0
  4 14  2  0  0  0  0
  5 23  2  0  0  0  0
  6  7  1  0  0  0  0
  6  8  1  0  0  0  0
  6 25  1  0  0  0  0
  6 26  1  0  0  0  0
  7  9  1  0  0  0  0
  7 27  1  0  0  0  0
  7 28  1  0  0  0  0
  8 10  1  0  0  0  0
  8 29  1  0  0  0  0
  8 30  1  0  0  0  0
  9 13  1  0  0  0  0
  9 31  1  0  0  0  0
  9 32  1  0  0  0  0
 10 33  1  0  0  0  0
 10 34  1  0  0  0  0
 11 12  1  0  0  0  0
 11 16  1  0  0  0  0
 11 35  1  0  0  0  0
 12 36  1  0  0  0  0
 12 37  1  0  0  0  0
 13 18  2  0  0  0  0
 14 15  1  0  0  0  0
 15 19  2  0  0  0  0
 15 20  1  0  0  0  0
 16 38  1  0  0  0  0
 16 39  1  0  0  0  0
 16 40  1  0  0  0  0
 17 21  2  0  0  0  0
 17 22  1  0  0  0  0
 18 23  1  0  0  0  0
 18 41  1  0  0  0  0
 19 21  1  0  0  0  0
 19 42  1  0  0  0  0
 20 22  2  0  0  0  0
 20 43  1  0  0  0  0
 21 44  1  0  0  0  0
 22 45  1  0  0  0  0
 23 24  1  0  0  0  0
 24 46  1  0  0  0  0
 24 47  1  0  0  0  0
 24 48  1  0  0  0  0
M  END
> <PUBCHEM_COMPOUND_CID>
1787

> <PUBCHEM_CONFORMER_RMSD>
1

> <PUBCHEM_CONFORMER_DIVERSEORDER>
1
106
63
103
76
85
143
15
123
139
211
25
115
8
172
84
45
178
47
30
175
88
6
4
130
102
100
179
24
198
160
195
37
109
53
66
18
28
19
140
56
72
186
95
194
10
137
17
90
58
27
202
31
12
152
200
77
151
9
69
149
146
33
16
184
82
64
13
165
86
79
57
99
71
2
78
150
189
49
73
29
209
26
83
153
94
61
7
206
3
44
167
11
170
74
81
204
177
121
34
125
133
203
93
122
50
105
80
68
75
89
101
199
138
180
192
59
65
132
35
117
46
197
42
41
173
40
116
144
114
124
182
104
163
52
169
21
110
156
119
67
126
158
190
70
166
193
188
185
96
159
51
191
196
181
120
162
118
5
147
129
187
112
92
54
174
111
213
113
161
145
142
55
134
155
176
48
62
91
22
39
201
127
157
131
164
148
183
108
36
205
32
128
23
171
136
212
14
38
98
60
168
207
210
87
20
107
97
135
208
43
141
154

> <PUBCHEM_MMFF94_PARTIAL_CHARGES>
25
1 -0.36
10 0.28
11 0.25
12 0.28
13 -0.04
14 0.51
15 0.09
17 0.08
18 -0.15
19 -0.15
2 -0.43
20 -0.15
21 -0.15
22 -0.15
23 0.11
24 0.18
3 -0.02
4 -0.7
41 0.15
42 0.15
43 0.15
44 0.15
45 0.15
5 -0.41
9 0.18

> <PUBCHEM_EFFECTIVE_ROTOR_COUNT>
8.6

> <PUBCHEM_PHARMACOPHORE_FEATURES>
6
1 1 acceptor
1 5 acceptor
4 6 7 8 9 hydrophobe
5 2 4 11 12 14 rings
5 3 5 13 18 23 rings
6 15 17 19 20 21 22 rings

> <PUBCHEM_HEAVY_ATOM_COUNT>
24

> <PUBCHEM_ATOM_DEF_STEREO_COUNT>
0

> <PUBCHEM_ATOM_UDEF_STEREO_COUNT>
1

> <PUBCHEM_BOND_DEF_STEREO_COUNT>
0

> <PUBCHEM_BOND_UDEF_STEREO_COUNT>
0

> <PUBCHEM_ISOTOPIC_ATOM_COUNT>
0

> <PUBCHEM_COMPONENT_COUNT>
1

> <PUBCHEM_CACTVS_TAUTO_COUNT>
1

> <PUBCHEM_CONFORMER_ID>
000006FB00000001

> <PUBCHEM_MMFF94_ENERGY>
47.6757

> <PUBCHEM_FEATURE_SELFOVERLAP>
30.446

> <PUBCHEM_SHAPE_FINGERPRINT>
10 15 16660363696656089391
10066227 49 15123518046847705424
10162869 55 17346877833108653742
10299344 5 18412260636315520340
106641 1 17894351072671556622
10670039 82 12607412096191739127
11181472 205 7060112042575599062
11315181 36 18408884057887905357
11638347 137 18341334483642254514
11719270 70 14405187283801542192
12082328 90 16343712053191772903
12643181 29 17346594150055029875
13885169 127 15984827068486917981
14117953 113 10592043574851729162
14150022 121 17749384918795271233
14251764 18 18334294275401048822
14251764 46 17346598581954460647
14428016 248 5112008361009584938
14617042 71 16298679279214282728
14933364 13 16370730336095577128
15183329 4 10807934886499774420
15247644 1 17489587861597753499
155225 1 7204782480261524363
15690457 1 17704356576447893562
15706992 2 14418130678094537850
1754911 235 11312058742372331707
18335252 98 18113053861997356190
18603816 31 18130225952954015171
2026 5 16845020129786896482
20721686 146 8141548777935025275
21095123 145 5906038280169471717
21095123 293 5400803868894989618
21130935 74 18190457354257232518
21150785 3 15841551872982416652
21360443 89 18188496779312589751
21585482 111 6988059924901276531
21792961 116 12895069643538142565
22224240 67 17894632560886896366
23524908 199 12247693677277777104
23559900 14 13973383713669549021
23576562 1 10519400976456561283
28498 318 12247680483391314424
3383291 50 18411132516191096083
3711267 37 14418131786565671826
4339292 15 18339930329915549767
54076057 127 17458343092212877446
5758199 1 17240203244461431238
5969126 39 17203612605406077053
6201320 82 8790071530865966587
636775 72 15792001347233677529
9953998 17 16877664548226187111
9962374 69 18341616958122037613

> <PUBCHEM_SHAPE_MULTIPOLES>
466.34
34.51
1.4
1.19
37.41
0.14
-0.24
13.19
-13.21
-2.72
-0.14
1
0
-0.46

> <PUBCHEM_SHAPE_SELFOVERLAP>
979.201

> <PUBCHEM_SHAPE_VOLUME>
265.7

> <PUBCHEM_COORDINATE_TYPE>
2
5
10

$$$$

