3045997
  -OEChem-07051213103D

 58 60  0     1  0  0  0  0  0999 V2000
    4.7576   -2.1818    1.4097 O   0  0  0  0  0  0  0  0  0  0  0  0
    6.2324    0.3720   -0.8302 O   0  0  0  0  0  0  0  0  0  0  0  0
    6.4683    2.1648    0.5371 O   0  0  0  0  0  0  0  0  0  0  0  0
    0.9540   -2.9270   -2.3267 O   0  0  0  0  0  0  0  0  0  0  0  0
    0.7131    5.0368   -0.3066 O   0  0  0  0  0  0  0  0  0  0  0  0
   -0.1013   -5.0364   -0.4215 O   0  0  0  0  0  0  0  0  0  0  0  0
   -4.4892   -0.8304    1.5561 O   0  0  0  0  0  0  0  0  0  0  0  0
   -7.1462    0.8724   -1.7796 O   0  0  0  0  0  0  0  0  0  0  0  0
   -5.6773    2.5976   -1.8660 O   0  0  0  0  0  0  0  0  0  0  0  0
    3.9586   -0.3738    0.1321 N   0  0  0  0  0  0  0  0  0  0  0  0
    2.0093   -2.8176   -0.2347 N   0  0  0  0  0  0  0  0  0  0  0  0
   -5.9616    3.1753    0.7518 N   0  0  0  0  0  0  0  0  0  0  0  0
    3.2551   -2.1545   -0.6548 C   0  0  1  0  0  0  0  0  0  0  0  0
    3.1027   -0.6625   -1.0070 C   0  0  0  0  0  0  0  0  0  0  0  0
    4.1406   -1.6680    0.5049 C   0  0  0  0  0  0  0  0  0  0  0  0
    4.4201    0.8691    0.6620 C   0  0  2  0  0  0  0  0  0  0  0  0
    3.4306    1.9809    0.4039 C   0  0  0  0  0  0  0  0  0  0  0  0
    5.8088    1.2080    0.1486 C   0  0  0  0  0  0  0  0  0  0  0  0
    1.0024   -3.1265   -1.1236 C   0  0  0  0  0  0  0  0  0  0  0  0
    3.5659    2.7853   -0.7276 C   0  0  0  0  0  0  0  0  0  0  0  0
    2.3821    2.2034    1.2965 C   0  0  0  0  0  0  0  0  0  0  0  0
    2.6526    3.8121   -0.9666 C   0  0  0  0  0  0  0  0  0  0  0  0
    1.4689    3.2303    1.0577 C   0  0  0  0  0  0  0  0  0  0  0  0
   -0.1736   -3.8026   -0.4615 C   0  0  0  0  0  0  0  0  0  0  0  0
    1.6040    4.0345   -0.0739 C   0  0  0  0  0  0  0  0  0  0  0  0
   -1.2909   -3.0329    0.0620 C   0  0  0  0  0  0  0  0  0  0  0  0
   -6.2764    0.7147    0.9845 C   0  0  0  0  0  0  0  0  0  0  0  0
   -2.3645   -3.6854    0.6683 C   0  0  0  0  0  0  0  0  0  0  0  0
   -1.2893   -1.6420   -0.0427 C   0  0  0  0  0  0  0  0  0  0  0  0
   -6.7016    2.0082    0.2725 C   0  0  2  0  0  0  0  0  0  0  0  0
   -4.7858    0.3941    0.9011 C   0  0  0  0  0  0  0  0  0  0  0  0
   -3.4345   -1.5561    1.0650 C   0  0  0  0  0  0  0  0  0  0  0  0
   -3.4363   -2.9471    1.1698 C   0  0  0  0  0  0  0  0  0  0  0  0
   -2.3611   -0.9036    0.4586 C   0  0  0  0  0  0  0  0  0  0  0  0
   -6.4377    1.8890   -1.2192 C   0  0  0  0  0  0  0  0  0  0  0  0
    3.8098   -2.7454   -1.3919 H   0  0  0  0  0  0  0  0  0  0  0  0
    2.0946   -0.2486   -0.9125 H   0  0  0  0  0  0  0  0  0  0  0  0
    3.5413   -0.3674   -1.9644 H   0  0  0  0  0  0  0  0  0  0  0  0
    4.5501    0.7213    1.7424 H   0  0  0  0  0  0  0  0  0  0  0  0
    1.8748   -3.0638    0.7434 H   0  0  0  0  0  0  0  0  0  0  0  0
    4.3598    2.6259   -1.4516 H   0  0  0  0  0  0  0  0  0  0  0  0
    2.2653    1.5817    2.1801 H   0  0  0  0  0  0  0  0  0  0  0  0
    2.7663    4.4292   -1.8539 H   0  0  0  0  0  0  0  0  0  0  0  0
    0.6536    3.3981    1.7562 H   0  0  0  0  0  0  0  0  0  0  0  0
    7.1195    0.6213   -1.1667 H   0  0  0  0  0  0  0  0  0  0  0  0
   -6.8424   -0.1392    0.5901 H   0  0  0  0  0  0  0  0  0  0  0  0
   -6.5584    0.7759    2.0443 H   0  0  0  0  0  0  0  0  0  0  0  0
   -2.3859   -4.7682    0.7602 H   0  0  0  0  0  0  0  0  0  0  0  0
   -0.4687   -1.0999   -0.5033 H   0  0  0  0  0  0  0  0  0  0  0  0
   -7.7733    2.1848    0.4166 H   0  0  0  0  0  0  0  0  0  0  0  0
   -4.5171    0.3448   -0.1614 H   0  0  0  0  0  0  0  0  0  0  0  0
   -4.2021    1.1893    1.3788 H   0  0  0  0  0  0  0  0  0  0  0  0
   -4.2702   -3.4603    1.6405 H   0  0  0  0  0  0  0  0  0  0  0  0
   -2.3065    0.1785    0.3827 H   0  0  0  0  0  0  0  0  0  0  0  0
    0.9576    5.4904   -1.1315 H   0  0  0  0  0  0  0  0  0  0  0  0
   -6.3379    4.0197    0.3221 H   0  0  0  0  0  0  0  0  0  0  0  0
   -6.1042    3.2791    1.7558 H   0  0  0  0  0  0  0  0  0  0  0  0
   -6.9697    0.7912   -2.7411 H   0  0  0  0  0  0  0  0  0  0  0  0
  1 15  2  0  0  0  0
  2 18  1  0  0  0  0
  2 45  1  0  0  0  0
  3 18  2  0  0  0  0
  4 19  2  0  0  0  0
  5 25  1  0  0  0  0
  5 55  1  0  0  0  0
  6 24  2  0  0  0  0
  7 31  1  0  0  0  0
  7 32  1  0  0  0  0
  8 35  1  0  0  0  0
  8 58  1  0  0  0  0
  9 35  2  0  0  0  0
 10 14  1  0  0  0  0
 10 15  1  0  0  0  0
 10 16  1  0  0  0  0
 11 13  1  0  0  0  0
 11 19  1  0  0  0  0
 11 40  1  0  0  0  0
 12 30  1  0  0  0  0
 12 56  1  0  0  0  0
 12 57  1  0  0  0  0
 13 14  1  0  0  0  0
 13 15  1  0  0  0  0
 13 36  1  0  0  0  0
 14 37  1  0  0  0  0
 14 38  1  0  0  0  0
 16 17  1  0  0  0  0
 16 18  1  0  0  0  0
 16 39  1  0  0  0  0
 17 20  2  0  0  0  0
 17 21  1  0  0  0  0
 19 24  1  0  0  0  0
 20 22  1  0  0  0  0
 20 41  1  0  0  0  0
 21 23  2  0  0  0  0
 21 42  1  0  0  0  0
 22 25  2  0  0  0  0
 22 43  1  0  0  0  0
 23 25  1  0  0  0  0
 23 44  1  0  0  0  0
 24 26  1  0  0  0  0
 26 28  2  0  0  0  0
 26 29  1  0  0  0  0
 27 30  1  0  0  0  0
 27 31  1  0  0  0  0
 27 46  1  0  0  0  0
 27 47  1  0  0  0  0
 28 33  1  0  0  0  0
 28 48  1  0  0  0  0
 29 34  2  0  0  0  0
 29 49  1  0  0  0  0
 30 35  1  0  0  0  0
 30 50  1  0  0  0  0
 31 51  1  0  0  0  0
 31 52  1  0  0  0  0
 32 33  2  0  0  0  0
 32 34  1  0  0  0  0
 33 53  1  0  0  0  0
 34 54  1  0  0  0  0
M  END
> <PUBCHEM_COMPOUND_CID>
3045997

> <PUBCHEM_CONFORMER_RMSD>
1.2

> <PUBCHEM_CONFORMER_DIVERSEORDER>
1
44
45
17
30
26
24
23
20
35
12
18
10
54
41
31
42
29
46
4
39
25
48
19
52
5
28
11
9
15
53
32
38
3
49
47
51
8
22
50
33
13
37
34
40
7
2
21
14
43
16
6
36
27

> <PUBCHEM_MMFF94_PARTIAL_CHARGES>
48
1 -0.57
10 -0.59
11 -0.65
12 -0.99
13 0.28
14 0.22
15 0.58
16 0.5
17 -0.14
18 0.66
19 0.63
2 -0.65
20 -0.15
21 -0.15
22 -0.15
23 -0.15
24 0.48
25 0.08
26 0.09
28 -0.15
29 -0.15
3 -0.57
30 0.33
31 0.28
32 0.08
33 -0.15
34 -0.15
35 0.66
4 -0.57
40 0.37
41 0.15
42 0.15
43 0.15
44 0.15
45 0.5
48 0.15
49 0.15
5 -0.53
53 0.15
54 0.15
55 0.45
56 0.36
57 0.36
58 0.5
6 -0.57
7 -0.36
8 -0.65
9 -0.57

> <PUBCHEM_EFFECTIVE_ROTOR_COUNT>
12.6

> <PUBCHEM_PHARMACOPHORE_FEATURES>
17
1 1 acceptor
1 11 donor
1 12 cation
1 12 donor
1 2 acceptor
1 3 acceptor
1 4 acceptor
1 5 donor
1 6 acceptor
1 7 acceptor
1 8 acceptor
1 9 acceptor
3 2 3 18 anion
3 8 9 35 anion
4 10 13 14 15 rings
6 17 20 21 22 23 25 rings
6 26 28 29 32 33 34 rings

> <PUBCHEM_HEAVY_ATOM_COUNT>
35

> <PUBCHEM_ATOM_DEF_STEREO_COUNT>
3

> <PUBCHEM_ATOM_UDEF_STEREO_COUNT>
0

> <PUBCHEM_BOND_DEF_STEREO_COUNT>
0

> <PUBCHEM_BOND_UDEF_STEREO_COUNT>
0

> <PUBCHEM_ISOTOPIC_ATOM_COUNT>
0

> <PUBCHEM_COMPONENT_COUNT>
1

> <PUBCHEM_CACTVS_TAUTO_COUNT>
4

> <PUBCHEM_CONFORMER_ID>
002E7A6D00000001

> <PUBCHEM_MMFF94_ENERGY>
80.9194

> <PUBCHEM_FEATURE_SELFOVERLAP>
86.384

> <PUBCHEM_SHAPE_FINGERPRINT>
10439779 11 18263092020042431730
10675989 125 18123181578942607811
10811444 77 18410862087911890533
10842077 115 17100045009465198169
11204353 107 18050567335410760416
11273773 38 18338507535366115336
11374522 363 18195247707249793045
11828042 140 17703518808986681581
12925494 130 18338234865103789619
12978246 48 18118390753329675826
13617811 41 16893714939669531811
14117953 113 18335418032362147942
15082195 135 18114756996708343679
15274700 208 17024051272039691080
20715895 44 18336825393996971755
21133410 38 17678720453349861649
21585483 110 18410856581526258241
338550 245 17976816485534271864
4144715 1 18270104722200750730
437795 96 18341894069913563757
4573279 73 18115596920823830367
5109719 28 18337375124774123483

> <PUBCHEM_SHAPE_MULTIPOLES>
652.52
16.71
7.09
1.46
17.33
0
0.4
13.9
0.2
-0.14
1.14
1.13
-0.03
1.84

> <PUBCHEM_SHAPE_SELFOVERLAP>
1391.488

> <PUBCHEM_SHAPE_VOLUME>
359.5

> <PUBCHEM_COORDINATE_TYPE>
2
5
10

$$$$

