91480
  -OEChem-07051213063D

 27 28  0     1  0  0  0  0  0999 V2000
   -0.9370   -0.7141   -2.3320 O   0  0  0  0  0  0  0  0  0  0  0  0
   -3.2887    1.6154    0.8407 O   0  0  0  0  0  0  0  0  0  0  0  0
   -1.3712    0.2832    0.9706 N   0  0  0  0  0  0  0  0  0  0  0  0
   -2.3643    0.5429   -1.0040 N   0  0  0  0  0  0  0  0  0  0  0  0
   -0.5529   -0.5305    0.0824 C   0  0  2  0  0  0  0  0  0  0  0  0
   -0.7584   -2.0103    0.4302 C   0  0  0  0  0  0  0  0  0  0  0  0
    0.8859   -0.0348    0.0495 C   0  0  0  0  0  0  0  0  0  0  0  0
   -1.2781   -0.2645   -1.2458 C   0  0  0  0  0  0  0  0  0  0  0  0
   -2.4455    0.8956    0.3236 C   0  0  0  0  0  0  0  0  0  0  0  0
   -0.2368   -2.3360    1.8189 C   0  0  0  0  0  0  0  0  0  0  0  0
    1.1851    1.2689    0.4473 C   0  0  0  0  0  0  0  0  0  0  0  0
    1.9077   -0.8834   -0.3787 C   0  0  0  0  0  0  0  0  0  0  0  0
    2.5036    1.7230    0.4170 C   0  0  0  0  0  0  0  0  0  0  0  0
    3.2263   -0.4293   -0.4088 C   0  0  0  0  0  0  0  0  0  0  0  0
    3.5243    0.8740   -0.0109 C   0  0  0  0  0  0  0  0  0  0  0  0
   -0.2830   -2.6695   -0.3054 H   0  0  0  0  0  0  0  0  0  0  0  0
   -1.8274   -2.2632    0.3987 H   0  0  0  0  0  0  0  0  0  0  0  0
   -1.1900    0.3965    1.9635 H   0  0  0  0  0  0  0  0  0  0  0  0
   -3.0127    0.8554   -1.7176 H   0  0  0  0  0  0  0  0  0  0  0  0
    0.8355   -2.1486    1.9202 H   0  0  0  0  0  0  0  0  0  0  0  0
   -0.7601   -1.7701    2.5957 H   0  0  0  0  0  0  0  0  0  0  0  0
   -0.3999   -3.3984    2.0309 H   0  0  0  0  0  0  0  0  0  0  0  0
    0.4197    1.9669    0.7728 H   0  0  0  0  0  0  0  0  0  0  0  0
    1.7099   -1.8970   -0.7118 H   0  0  0  0  0  0  0  0  0  0  0  0
    2.7357    2.7390    0.7231 H   0  0  0  0  0  0  0  0  0  0  0  0
    4.0206   -1.0888   -0.7460 H   0  0  0  0  0  0  0  0  0  0  0  0
    4.5507    1.2282   -0.0361 H   0  0  0  0  0  0  0  0  0  0  0  0
  1  8  2  0  0  0  0
  2  9  2  0  0  0  0
  3  5  1  0  0  0  0
  3  9  1  0  0  0  0
  3 18  1  0  0  0  0
  4  8  1  0  0  0  0
  4  9  1  0  0  0  0
  4 19  1  0  0  0  0
  5  6  1  0  0  0  0
  5  7  1  0  0  0  0
  5  8  1  0  0  0  0
  6 10  1  0  0  0  0
  6 16  1  0  0  0  0
  6 17  1  0  0  0  0
  7 11  2  0  0  0  0
  7 12  1  0  0  0  0
 10 20  1  0  0  0  0
 10 21  1  0  0  0  0
 10 22  1  0  0  0  0
 11 13  1  0  0  0  0
 11 23  1  0  0  0  0
 12 14  2  0  0  0  0
 12 24  1  0  0  0  0
 13 15  2  0  0  0  0
 13 25  1  0  0  0  0
 14 15  1  0  0  0  0
 14 26  1  0  0  0  0
 15 27  1  0  0  0  0
M  END
> <PUBCHEM_COMPOUND_CID>
91480

> <PUBCHEM_CONFORMER_RMSD>
0.6

> <PUBCHEM_CONFORMER_DIVERSEORDER>
1
3
5
6
4
2

> <PUBCHEM_MMFF94_PARTIAL_CHARGES>
20
1 -0.57
11 -0.15
12 -0.15
13 -0.15
14 -0.15
15 -0.15
18 0.37
19 0.37
2 -0.57
23 0.15
24 0.15
25 0.15
26 0.15
27 0.15
3 -0.73
4 -0.49
5 0.5
7 -0.14
8 0.57
9 0.69

> <PUBCHEM_EFFECTIVE_ROTOR_COUNT>
2.6

> <PUBCHEM_PHARMACOPHORE_FEATURES>
7
1 1 acceptor
1 10 hydrophobe
1 2 acceptor
1 3 donor
1 4 donor
5 3 4 5 8 9 rings
6 7 11 12 13 14 15 rings

> <PUBCHEM_HEAVY_ATOM_COUNT>
15

> <PUBCHEM_ATOM_DEF_STEREO_COUNT>
0

> <PUBCHEM_ATOM_UDEF_STEREO_COUNT>
1

> <PUBCHEM_BOND_DEF_STEREO_COUNT>
0

> <PUBCHEM_BOND_UDEF_STEREO_COUNT>
0

> <PUBCHEM_ISOTOPIC_ATOM_COUNT>
0

> <PUBCHEM_COMPONENT_COUNT>
1

> <PUBCHEM_CACTVS_TAUTO_COUNT>
5

> <PUBCHEM_CONFORMER_ID>
0001655800000001

> <PUBCHEM_MMFF94_ENERGY>
38.6909

> <PUBCHEM_FEATURE_SELFOVERLAP>
35.592

> <PUBCHEM_SHAPE_FINGERPRINT>
10922049 32 18261662753605101147
11578080 2 11886818443114441247
12491281 212 17821441378639344792
12592029 89 17458893942277775751
12932764 1 16988573355651217480
13024252 1 12678923202410896399
14817 1 13973132080046820175
15309172 13 17775004604504198401
15775835 57 18186799209798172621
15852999 172 17841185214798236374
16945 1 18188765192364720982
18186145 218 18339924912959176932
20082192 1 17558280829884622652
20653085 51 17967809453081628677
21061003 4 17124528234249865419
21501502 16 18198901418721445026
21524375 3 18260263096688523809
23419403 2 16469834502473444327
23559900 14 18338498795982887798
25 1 18338513152940329604
2748010 2 18191860129230305072
298252 57 17603866762270930779
305870 269 18129108994308512177
430814 3 18261396706019003401
528886 8 17313390096722220381
68419 9 17755342072762236607
74978 22 18342181016683540168
81228 2 17558263224523799226
9981440 41 17537749610863088360

> <PUBCHEM_SHAPE_MULTIPOLES>
286.99
4.7
1.99
1.43
2.02
0.9
0.53
-2.4
-0.14
-0.41
-0.98
-0.78
0.38
0.15

> <PUBCHEM_SHAPE_SELFOVERLAP>
615.834

> <PUBCHEM_SHAPE_VOLUME>
159.3

> <PUBCHEM_COORDINATE_TYPE>
2
5
10

$$$$

