162644
  -OEChem-07051213113D

 49 52  0     1  0  0  0  0  0999 V2000
   -1.7993    2.0936   -0.4354 O   0  0  0  0  0  0  0  0  0  0  0  0
   -4.6066   -1.1694    0.1600 O   0  0  0  0  0  0  0  0  0  0  0  0
   -4.0216    1.6308   -0.7579 O   0  0  0  0  0  0  0  0  0  0  0  0
   -0.5734   -0.8334   -0.5178 C   0  0  1  0  0  0  0  0  0  0  0  0
   -1.1384    0.1003    0.5863 C   0  0  2  0  0  0  0  0  0  0  0  0
    0.9876   -0.6961   -0.5473 C   0  0  1  0  0  0  0  0  0  0  0  0
   -2.6617    0.1579    0.6472 C   0  0  2  0  0  0  0  0  0  0  0  0
   -0.7558    1.5566    0.3804 C   0  0  1  0  0  0  0  0  0  0  0  0
   -1.0604   -2.2421   -0.1358 C   0  0  0  0  0  0  0  0  0  0  0  0
    1.4233    0.7611   -0.5500 C   0  0  0  0  0  0  0  0  0  0  0  0
    1.7772   -1.4038    0.5663 C   0  0  0  0  0  0  0  0  0  0  0  0
   -1.0695   -0.5126   -1.9623 C   0  0  0  0  0  0  0  0  0  0  0  0
    0.6075    1.7727   -0.2024 C   0  0  0  0  0  0  0  0  0  0  0  0
   -2.5806   -2.3675   -0.1652 C   0  0  0  0  0  0  0  0  0  0  0  0
   -3.3723   -1.1272    0.2169 C   0  0  0  0  0  0  0  0  0  0  0  0
    2.8825    0.9627   -0.8635 C   0  0  0  0  0  0  0  0  0  0  0  0
    3.7633    0.2276    0.1815 C   0  0  2  0  0  0  0  0  0  0  0  0
    3.2947   -1.2435    0.3485 C   0  0  0  0  0  0  0  0  0  0  0  0
   -2.9431    1.3507   -0.2564 C   0  0  0  0  0  0  0  0  0  0  0  0
   -3.1544    0.5091    2.0612 C   0  0  0  0  0  0  0  0  0  0  0  0
    3.7181    0.9555    1.5394 C   0  0  0  0  0  0  0  0  0  0  0  0
    5.1970    0.2372   -0.2905 C   0  0  0  0  0  0  0  0  0  0  0  0
    6.0858   -0.7199   -0.0034 C   0  0  0  0  0  0  0  0  0  0  0  0
   -0.7335   -0.2362    1.5516 H   0  0  0  0  0  0  0  0  0  0  0  0
    1.3240   -1.1434   -1.4950 H   0  0  0  0  0  0  0  0  0  0  0  0
   -0.7863    2.0960    1.3359 H   0  0  0  0  0  0  0  0  0  0  0  0
   -0.7246   -2.4935    0.8786 H   0  0  0  0  0  0  0  0  0  0  0  0
   -0.6207   -2.9983   -0.7980 H   0  0  0  0  0  0  0  0  0  0  0  0
    1.5523   -2.4762    0.5710 H   0  0  0  0  0  0  0  0  0  0  0  0
    1.4998   -1.0158    1.5532 H   0  0  0  0  0  0  0  0  0  0  0  0
   -0.7259    0.4634   -2.3182 H   0  0  0  0  0  0  0  0  0  0  0  0
   -0.6860   -1.2600   -2.6678 H   0  0  0  0  0  0  0  0  0  0  0  0
   -2.1572   -0.5218   -2.0638 H   0  0  0  0  0  0  0  0  0  0  0  0
    0.9769    2.7945   -0.2176 H   0  0  0  0  0  0  0  0  0  0  0  0
   -2.8880   -3.1829    0.4994 H   0  0  0  0  0  0  0  0  0  0  0  0
   -2.8936   -2.6390   -1.1809 H   0  0  0  0  0  0  0  0  0  0  0  0
    3.0781    0.5762   -1.8731 H   0  0  0  0  0  0  0  0  0  0  0  0
    3.1359    2.0308   -0.8907 H   0  0  0  0  0  0  0  0  0  0  0  0
    3.7908   -1.7224    1.2023 H   0  0  0  0  0  0  0  0  0  0  0  0
    3.5599   -1.8264   -0.5452 H   0  0  0  0  0  0  0  0  0  0  0  0
   -2.7225    1.4443    2.4332 H   0  0  0  0  0  0  0  0  0  0  0  0
   -4.2435    0.6353    2.0818 H   0  0  0  0  0  0  0  0  0  0  0  0
   -2.9034   -0.2870    2.7714 H   0  0  0  0  0  0  0  0  0  0  0  0
    2.7070    0.9896    1.9574 H   0  0  0  0  0  0  0  0  0  0  0  0
    4.3564    0.4605    2.2813 H   0  0  0  0  0  0  0  0  0  0  0  0
    4.0670    1.9910    1.4457 H   0  0  0  0  0  0  0  0  0  0  0  0
    5.5397    1.0982   -0.8603 H   0  0  0  0  0  0  0  0  0  0  0  0
    7.1054   -0.6249   -0.3646 H   0  0  0  0  0  0  0  0  0  0  0  0
    5.8655   -1.5977    0.5896 H   0  0  0  0  0  0  0  0  0  0  0  0
  1  8  1  0  0  0  0
  1 19  1  0  0  0  0
  2 15  2  0  0  0  0
  3 19  2  0  0  0  0
  4  5  1  0  0  0  0
  4  6  1  0  0  0  0
  4  9  1  0  0  0  0
  4 12  1  0  0  0  0
  5  7  1  0  0  0  0
  5  8  1  0  0  0  0
  5 24  1  0  0  0  0
  6 10  1  0  0  0  0
  6 11  1  0  0  0  0
  6 25  1  0  0  0  0
  7 15  1  0  0  0  0
  7 19  1  0  0  0  0
  7 20  1  0  0  0  0
  8 13  1  0  0  0  0
  8 26  1  0  0  0  0
  9 14  1  0  0  0  0
  9 27  1  0  0  0  0
  9 28  1  0  0  0  0
 10 13  2  0  0  0  0
 10 16  1  0  0  0  0
 11 18  1  0  0  0  0
 11 29  1  0  0  0  0
 11 30  1  0  0  0  0
 12 31  1  0  0  0  0
 12 32  1  0  0  0  0
 12 33  1  0  0  0  0
 13 34  1  0  0  0  0
 14 15  1  0  0  0  0
 14 35  1  0  0  0  0
 14 36  1  0  0  0  0
 16 17  1  0  0  0  0
 16 37  1  0  0  0  0
 16 38  1  0  0  0  0
 17 18  1  0  0  0  0
 17 21  1  0  0  0  0
 17 22  1  0  0  0  0
 18 39  1  0  0  0  0
 18 40  1  0  0  0  0
 20 41  1  0  0  0  0
 20 42  1  0  0  0  0
 20 43  1  0  0  0  0
 21 44  1  0  0  0  0
 21 45  1  0  0  0  0
 21 46  1  0  0  0  0
 22 23  2  0  0  0  0
 22 47  1  0  0  0  0
 23 48  1  0  0  0  0
 23 49  1  0  0  0  0
M  END
> <PUBCHEM_COMPOUND_CID>
162644

> <PUBCHEM_CONFORMER_RMSD>
0.6

> <PUBCHEM_CONFORMER_DIVERSEORDER>
1
2

> <PUBCHEM_MMFF94_PARTIAL_CHARGES>
19
1 -0.43
10 -0.28
13 -0.29
14 0.06
15 0.45
16 0.14
17 0.14
19 0.66
2 -0.57
22 -0.29
23 -0.3
3 -0.57
34 0.15
47 0.15
48 0.15
49 0.15
6 0.14
7 0.12
8 0.42

> <PUBCHEM_EFFECTIVE_ROTOR_COUNT>
2.4

> <PUBCHEM_PHARMACOPHORE_FEATURES>
7
1 2 acceptor
1 23 hydrophobe
1 3 acceptor
5 1 5 7 8 19 rings
6 4 5 6 8 10 13 rings
6 4 5 7 9 14 15 rings
6 6 10 11 16 17 18 rings

> <PUBCHEM_HEAVY_ATOM_COUNT>
23

> <PUBCHEM_ATOM_DEF_STEREO_COUNT>
6

> <PUBCHEM_ATOM_UDEF_STEREO_COUNT>
0

> <PUBCHEM_BOND_DEF_STEREO_COUNT>
0

> <PUBCHEM_BOND_UDEF_STEREO_COUNT>
0

> <PUBCHEM_ISOTOPIC_ATOM_COUNT>
0

> <PUBCHEM_COMPONENT_COUNT>
1

> <PUBCHEM_CACTVS_TAUTO_COUNT>
2

> <PUBCHEM_CONFORMER_ID>
00027B5400000001

> <PUBCHEM_MMFF94_ENERGY>
73.2527

> <PUBCHEM_FEATURE_SELFOVERLAP>
35.839

> <PUBCHEM_SHAPE_FINGERPRINT>
10366900 7 17676213506497733128
10863032 1 18340210794667200795
10948715 1 18055077816091515197
11132069 177 18408881841061827182
11315181 36 17530687606844548496
11552529 35 17603871048538126694
11578080 2 16914827091556421702
12011746 2 18409172112469222311
12077114 3 18343303699369838221
12236239 1 17917710206590144924
12403259 415 18260833687241058792
12403814 3 18272645745258957649
12507560 40 18187653462182897928
12633257 1 18335967693380560241
13140716 1 18263916640393337697
13214271 11 18408325496789238918
13224815 77 18409169900682390592
13288520 33 18411134723207433534
13583140 156 18187091654284439430
13675066 3 18333453119236330540
14223421 5 18263648376888769746
14289901 80 18273493476960304488
14787075 74 18341325592241936496
15042514 8 18194115218842122967
15196674 1 18412263930782367452
15209289 33 18343863295275723682
15309172 13 18335693979330541051
15788980 27 18131066039454715048
16752209 62 18339932536399734583
16945 1 18336251427589261077
17349148 13 18259990357289801236
17804303 29 18335137579460903704
1813 80 17561077030168032750
200 152 18202286878962690566
20261772 1 18411692180235137650
20510252 161 18260263083534278465
20600515 1 17822556266614576720
21033648 29 18262532497267918336
21267235 1 18340759364875358482
22182313 1 18261939856205118503
23402539 116 18335144193251383141
23557571 272 18261106370361347670
23559900 14 18335142029310552102
2748010 2 18123737923156914109
296302 2 17203327831698945824
335352 9 18411418427361971909
34934 24 18129666425176184625
350125 39 18339075999693404909
4214541 1 18411418423425433932
4340502 62 17824238588698979505
5104073 3 18334579019317305778
559249 180 18271812358326256578
90316 7 18412542111129252745
9709674 26 18341886407438778202

> <PUBCHEM_SHAPE_MULTIPOLES>
455.72
9.39
2.12
1.25
9.36
0.28
-0.15
0.68
-1.23
-1.46
0.13
-0.41
-0.19
0.02

> <PUBCHEM_SHAPE_SELFOVERLAP>
993.219

> <PUBCHEM_SHAPE_VOLUME>
246.3

> <PUBCHEM_COORDINATE_TYPE>
2
5
10

$$$$

