126220
  -OEChem-07051212493D

 33 35  0     1  0  0  0  0  0999 V2000
    2.0429   -0.4649   -0.9605 O   0  0  0  0  0  0  0  0  0  0  0  0
    1.1335    2.2378    1.2278 O   0  0  0  0  0  0  0  0  0  0  0  0
    3.3712    2.2024   -0.3137 O   0  0  0  0  0  0  0  0  0  0  0  0
    3.8608   -2.5261   -0.4040 O   0  0  0  0  0  0  0  0  0  0  0  0
   -4.3636   -1.1051    1.1766 O   0  0  0  0  0  0  0  0  0  0  0  0
   -0.1969   -0.2746   -0.2007 N   0  0  0  0  0  0  0  0  0  0  0  0
   -1.8660    1.4514   -0.5991 N   0  0  0  0  0  0  0  0  0  0  0  0
   -1.6135   -1.9611    0.2384 N   0  0  0  0  0  0  0  0  0  0  0  0
   -4.1787    0.7804   -0.3999 N   0  0  0  0  0  0  0  0  0  0  0  0
    1.0655    0.4332   -0.4008 C   0  0  1  0  0  0  0  0  0  0  0  0
    1.6783    0.9816    0.8789 C   0  0  1  0  0  0  0  0  0  0  0  0
    3.1454    1.0541    0.5038 C   0  0  1  0  0  0  0  0  0  0  0  0
    3.3257   -0.1988   -0.3475 C   0  0  1  0  0  0  0  0  0  0  0  0
    3.7295   -1.4182    0.4694 C   0  0  0  0  0  0  0  0  0  0  0  0
   -1.4548    0.2156   -0.2972 C   0  0  0  0  0  0  0  0  0  0  0  0
   -0.3449   -1.6044    0.1274 C   0  0  0  0  0  0  0  0  0  0  0  0
   -2.3090   -0.8150   -0.0256 C   0  0  0  0  0  0  0  0  0  0  0  0
   -3.7890   -0.6294   -0.0438 C   0  0  1  0  0  0  0  0  0  0  0  0
   -3.2363    1.6411   -0.6295 C   0  0  0  0  0  0  0  0  0  0  0  0
    0.8753    1.2192   -1.1416 H   0  0  0  0  0  0  0  0  0  0  0  0
    1.5330    0.2909    1.7176 H   0  0  0  0  0  0  0  0  0  0  0  0
    3.8122    1.1217    1.3681 H   0  0  0  0  0  0  0  0  0  0  0  0
    4.0380   -0.0468   -1.1663 H   0  0  0  0  0  0  0  0  0  0  0  0
    2.9788   -1.6763    1.2229 H   0  0  0  0  0  0  0  0  0  0  0  0
    4.6893   -1.2575    0.9690 H   0  0  0  0  0  0  0  0  0  0  0  0
    0.5010   -2.2616    0.2764 H   0  0  0  0  0  0  0  0  0  0  0  0
    1.3108    2.8556    0.4983 H   0  0  0  0  0  0  0  0  0  0  0  0
    4.3082    2.1931   -0.5740 H   0  0  0  0  0  0  0  0  0  0  0  0
   -4.1959   -1.2622   -0.8418 H   0  0  0  0  0  0  0  0  0  0  0  0
   -1.2323    2.2188   -0.7986 H   0  0  0  0  0  0  0  0  0  0  0  0
    3.0030   -2.6562   -0.8435 H   0  0  0  0  0  0  0  0  0  0  0  0
   -3.4991    2.6789   -0.8899 H   0  0  0  0  0  0  0  0  0  0  0  0
   -4.1441   -2.0493    1.2565 H   0  0  0  0  0  0  0  0  0  0  0  0
  1 10  1  0  0  0  0
  1 13  1  0  0  0  0
  2 11  1  0  0  0  0
  2 27  1  0  0  0  0
  3 12  1  0  0  0  0
  3 28  1  0  0  0  0
  4 14  1  0  0  0  0
  4 31  1  0  0  0  0
  5 18  1  0  0  0  0
  5 33  1  0  0  0  0
  6 10  1  0  0  0  0
  6 15  1  0  0  0  0
  6 16  1  0  0  0  0
  7 15  1  0  0  0  0
  7 19  1  0  0  0  0
  7 30  1  0  0  0  0
  8 16  2  0  0  0  0
  8 17  1  0  0  0  0
  9 18  1  0  0  0  0
  9 19  2  0  0  0  0
 10 11  1  0  0  0  0
 10 20  1  0  0  0  0
 11 12  1  0  0  0  0
 11 21  1  0  0  0  0
 12 13  1  0  0  0  0
 12 22  1  0  0  0  0
 13 14  1  0  0  0  0
 13 23  1  0  0  0  0
 14 24  1  0  0  0  0
 14 25  1  0  0  0  0
 15 17  2  0  0  0  0
 16 26  1  0  0  0  0
 17 18  1  0  0  0  0
 18 29  1  0  0  0  0
 19 32  1  0  0  0  0
M  END
> <PUBCHEM_COMPOUND_CID>
126220

> <PUBCHEM_CONFORMER_RMSD>
0.6

> <PUBCHEM_CONFORMER_DIVERSEORDER>
3
7
13
9
6
14
11
1
4
12
5
15
2
8
10

> <PUBCHEM_MMFF94_PARTIAL_CHARGES>
26
1 -0.56
10 0.54
11 0.28
12 0.28
13 0.28
14 0.28
15 -0.07
16 0.04
17 0.05
18 0.71
19 0.44
2 -0.68
26 0.15
27 0.4
28 0.4
3 -0.68
30 0.4
31 0.4
32 0.06
33 0.4
4 -0.68
5 -0.68
6 0.05
7 -0.53
8 -0.57
9 -0.7

> <PUBCHEM_EFFECTIVE_ROTOR_COUNT>
3.4

> <PUBCHEM_PHARMACOPHORE_FEATURES>
15
1 1 acceptor
1 2 acceptor
1 2 donor
1 3 acceptor
1 3 donor
1 4 acceptor
1 4 donor
1 5 acceptor
1 5 donor
1 7 donor
3 6 8 16 cation
3 7 9 19 cation
5 1 10 11 12 13 rings
5 6 8 15 16 17 rings
6 7 9 15 17 18 19 rings

> <PUBCHEM_HEAVY_ATOM_COUNT>
19

> <PUBCHEM_ATOM_DEF_STEREO_COUNT>
5

> <PUBCHEM_ATOM_UDEF_STEREO_COUNT>
0

> <PUBCHEM_BOND_DEF_STEREO_COUNT>
0

> <PUBCHEM_BOND_UDEF_STEREO_COUNT>
0

> <PUBCHEM_ISOTOPIC_ATOM_COUNT>
0

> <PUBCHEM_COMPONENT_COUNT>
1

> <PUBCHEM_CACTVS_TAUTO_COUNT>
2

> <PUBCHEM_CONFORMER_ID>
0001ED0C00000003

> <PUBCHEM_MMFF94_ENERGY>
47.2926

> <PUBCHEM_FEATURE_SELFOVERLAP>
76.247

> <PUBCHEM_SHAPE_FINGERPRINT>
10366900 7 18120377557660551160
10608611 8 18410297973378753621
10922523 26 18412547621603506926
1100329 8 16608010764063854562
11552529 35 17752759135481788259
11578080 2 14129894954882765930
12403259 226 18410299111929994549
12403259 415 18343586274032380061
124424 183 18334581282153133798
12507560 40 18412829075158102428
13134695 92 17677066736274611904
13675066 3 18201718436015187915
14866123 147 16892854606143560122
15196674 1 18412265038783677133
15219456 202 18408325470987831877
15442244 35 18337673126215107208
15653759 3 18413672396176183321
16945 1 18120386358338697412
17804303 29 18341609360325163614
17834074 16 18413672426156681738
18186145 218 17968090910957571943
19049666 15 18409452479170284320
200 152 17603877714738177237
20510252 161 18411417285349102769
20645477 70 18333734632425051350
21501502 16 18263089829224209374
23175994 123 18041560355319423596
23402539 116 18042137586044405181
23493267 7 17417817292097725665
23559900 14 18409171039059649118
2748010 2 18340497707151896005
3004659 81 17986384710961907382
5104073 3 18413107273117004073
633830 44 18272660055873586855
69090 78 18260554385691801807
7364860 26 18409730634701653982
81228 2 17912654510012298211
9709674 26 18412824655573971014

> <PUBCHEM_SHAPE_MULTIPOLES>
341.74
8.12
2.28
0.89
1.72
0.03
0.13
0.99
0.16
-1.19
0.15
-0.01
-0.14
0.93

> <PUBCHEM_SHAPE_SELFOVERLAP>
737.158

> <PUBCHEM_SHAPE_VOLUME>
185.8

> <PUBCHEM_COORDINATE_TYPE>
2
5
10

$$$$

