230047
  -OEChem-07051212482D

 18 19  0     0  0  0  0  0  0999 V2000
    3.7320    1.8273    0.0000 O   0  0  0  0  0  0  0  0  0  0  0  0
    2.0000   -1.1727    0.0000 O   0  0  0  0  0  0  0  0  0  0  0  0
    7.2622    0.8515    0.0000 O   0  0  0  0  0  0  0  0  0  0  0  0
    7.2622   -1.1968    0.0000 O   0  0  0  0  0  0  0  0  0  0  0  0
    3.7320   -1.1727    0.0000 N   0  0  0  0  0  0  0  0  0  0  0  0
    5.4920    0.8620    0.0000 N   0  0  0  0  0  0  0  0  0  0  0  0
    5.4920   -1.2074    0.0000 N   0  0  0  0  0  0  0  0  0  0  0  0
    2.8660    0.3273    0.0000 N   0  0  0  0  0  0  0  0  0  0  0  0
    4.5981    0.3273    0.0000 C   0  0  0  0  0  0  0  0  0  0  0  0
    4.5981   -0.6727    0.0000 C   0  0  0  0  0  0  0  0  0  0  0  0
    3.7320    0.8273    0.0000 C   0  0  0  0  0  0  0  0  0  0  0  0
    2.8660   -0.6727    0.0000 C   0  0  0  0  0  0  0  0  0  0  0  0
    6.3981    0.3481    0.0000 C   0  0  0  0  0  0  0  0  0  0  0  0
    6.3981   -0.6935    0.0000 C   0  0  0  0  0  0  0  0  0  0  0  0
    3.7320   -1.7927    0.0000 H   0  0  0  0  0  0  0  0  0  0  0  0
    5.4848    1.4819    0.0000 H   0  0  0  0  0  0  0  0  0  0  0  0
    5.4848   -1.8273    0.0000 H   0  0  0  0  0  0  0  0  0  0  0  0
    2.3291    0.6373    0.0000 H   0  0  0  0  0  0  0  0  0  0  0  0
  1 11  2  0  0  0  0
  2 12  2  0  0  0  0
  3 13  2  0  0  0  0
  4 14  2  0  0  0  0
  5 10  1  0  0  0  0
  5 12  1  0  0  0  0
  5 15  1  0  0  0  0
  6  9  1  0  0  0  0
  6 13  1  0  0  0  0
  6 16  1  0  0  0  0
  7 10  1  0  0  0  0
  7 14  1  0  0  0  0
  7 17  1  0  0  0  0
  8 11  1  0  0  0  0
  8 12  1  0  0  0  0
  8 18  1  0  0  0  0
  9 10  2  0  0  0  0
  9 11  1  0  0  0  0
 13 14  1  0  0  0  0
M  END
> <PUBCHEM_COMPOUND_CID>
230047

> <PUBCHEM_COMPOUND_CANONICALIZED>
1

> <PUBCHEM_CACTVS_COMPLEXITY>
410

> <PUBCHEM_CACTVS_HBOND_ACCEPTOR>
4

> <PUBCHEM_CACTVS_HBOND_DONOR>
4

> <PUBCHEM_CACTVS_ROTATABLE_BOND>
0

> <PUBCHEM_CACTVS_SUBSKEYS>
AAADcYBjuAAAAAAAAAAAAAAAAAAAAAAAAAAgQAAAAAAAAACwAAAADgAQAAAACAgBgAABAALAAACIAAVQUACAAAAAAAAAAACAAECAQAAAACAQAAAIBSKAAEAAAAAAAAAAAAAAAAAAAAAAAAAAAAAAAAAAAA==

> <PUBCHEM_IUPAC_OPENEYE_NAME>
5,8-dihydro-1H-pteridine-2,4,6,7-tetrone

> <PUBCHEM_IUPAC_CAS_NAME>
5,8-dihydro-1H-pteridine-2,4,6,7-tetrone

> <PUBCHEM_IUPAC_NAME>
5,8-dihydro-1H-pteridine-2,4,6,7-tetrone

> <PUBCHEM_IUPAC_SYSTEMATIC_NAME>
5,8-dihydro-1H-pteridine-2,4,6,7-tetrone

> <PUBCHEM_IUPAC_TRADITIONAL_NAME>
5,8-dihydro-1H-pteridine-2,4,6,7-diquinone

> <PUBCHEM_IUPAC_INCHI>
InChI=1S/C6H4N4O4/c11-3-1-2(9-6(14)10-3)8-5(13)4(12)7-1/h(H,7,12)(H3,8,9,10,11,13,14)

> <PUBCHEM_IUPAC_INCHIKEY>
MVKRISPIRVEPFM-UHFFFAOYSA-N

> <PUBCHEM_XLOGP3_AA>
-2

> <PUBCHEM_EXACT_MASS>
196.023255

> <PUBCHEM_MOLECULAR_FORMULA>
C6H4N4O4

> <PUBCHEM_MOLECULAR_WEIGHT>
196.12036

> <PUBCHEM_OPENEYE_CAN_SMILES>
C12=C(NC(=O)C(=O)N1)NC(=O)NC2=O

> <PUBCHEM_OPENEYE_ISO_SMILES>
C12=C(NC(=O)C(=O)N1)NC(=O)NC2=O

> <PUBCHEM_CACTVS_TPSA>
116

> <PUBCHEM_MONOISOTOPIC_WEIGHT>
196.023255

> <PUBCHEM_TOTAL_CHARGE>
0

> <PUBCHEM_HEAVY_ATOM_COUNT>
14

> <PUBCHEM_ATOM_DEF_STEREO_COUNT>
0

> <PUBCHEM_ATOM_UDEF_STEREO_COUNT>
0

> <PUBCHEM_BOND_DEF_STEREO_COUNT>
0

> <PUBCHEM_BOND_UDEF_STEREO_COUNT>
0

> <PUBCHEM_ISOTOPIC_ATOM_COUNT>
0

> <PUBCHEM_COMPONENT_COUNT>
1

> <PUBCHEM_CACTVS_TAUTO_COUNT>
74

> <PUBCHEM_COORDINATE_TYPE>
1
5
255

> <PUBCHEM_BONDANNOTATIONS>
13  14  8
5  10  8
5  12  8
6  13  8
6  9  8
7  10  8
7  14  8
8  11  8
8  12  8
9  10  8
9  11  8

$$$$

