18177
  -OEChem-07051213143D

  6  5  0     0  0  0  0  0  0999 V2000
    1.2502   -1.4564   -0.1961 Cl  0  0  0  0  0  0  0  0  0  0  0  0
    1.2499    1.4565   -0.1961 Cl  0  0  0  0  0  0  0  0  0  0  0  0
   -2.0558    0.0000   -0.1762 N   0  0  0  0  0  0  0  0  0  0  0  0
    0.4855    0.0001    0.4638 C   0  0  0  0  0  0  0  0  0  0  0  0
   -0.9297   -0.0001    0.1046 C   0  0  0  0  0  0  0  0  0  0  0  0
    0.6258    0.0001    1.5479 H   0  0  0  0  0  0  0  0  0  0  0  0
  1  4  1  0  0  0  0
  2  4  1  0  0  0  0
  3  5  3  0  0  0  0
  4  5  1  0  0  0  0
  4  6  1  0  0  0  0
M  END
> <PUBCHEM_COMPOUND_CID>
18177

> <PUBCHEM_CONFORMER_RMSD>
0.4

> <PUBCHEM_CONFORMER_DIVERSEORDER>
1

> <PUBCHEM_MMFF94_PARTIAL_CHARGES>
5
1 -0.29
2 -0.29
3 -0.56
4 0.78
5 0.36

> <PUBCHEM_EFFECTIVE_ROTOR_COUNT>
0

> <PUBCHEM_PHARMACOPHORE_FEATURES>
1
1 3 acceptor

> <PUBCHEM_HEAVY_ATOM_COUNT>
5

> <PUBCHEM_ATOM_DEF_STEREO_COUNT>
0

> <PUBCHEM_ATOM_UDEF_STEREO_COUNT>
0

> <PUBCHEM_BOND_DEF_STEREO_COUNT>
0

> <PUBCHEM_BOND_UDEF_STEREO_COUNT>
0

> <PUBCHEM_ISOTOPIC_ATOM_COUNT>
0

> <PUBCHEM_COMPONENT_COUNT>
1

> <PUBCHEM_CACTVS_TAUTO_COUNT>
1

> <PUBCHEM_CONFORMER_ID>
0000470100000001

> <PUBCHEM_MMFF94_ENERGY>
-0.0896

> <PUBCHEM_FEATURE_SELFOVERLAP>
5.074

> <PUBCHEM_SHAPE_FINGERPRINT>
139733 1 10014707597864225202
16714656 1 17257079901417033960
20096714 4 18126287445597795296
21040471 1 18050006588901038728
24536 1 18339654390259769385
29004967 10 18339639069900661946
5943 1 17245598517632091558

> <PUBCHEM_SHAPE_MULTIPOLES>
101.66
2.16
1.55
0.68
1.12
0
-0.02
0
0.23
-1.09
0.17
-0.07
0
0

> <PUBCHEM_SHAPE_SELFOVERLAP>
164.97

> <PUBCHEM_SHAPE_VOLUME>
70.1

> <PUBCHEM_COORDINATE_TYPE>
2
5
10

$$$$

