442850
  -OEChem-07051212592D

 27 30  0     0  0  0  0  0  0999 V2000
    6.2392    2.2280    0.0000 O   0  0  0  0  0  0  0  0  0  0  0  0
    4.8454    3.0327    0.0000 O   0  0  0  0  0  0  0  0  0  0  0  0
    2.0000    0.5641    0.0000 O   0  0  0  0  0  0  0  0  0  0  0  0
    2.8522   -0.9875    0.0000 N   0  0  0  0  0  0  0  0  0  0  0  0
    4.6362    0.0609    0.0000 C   0  0  0  0  0  0  0  0  0  0  0  0
    3.7702    0.5609    0.0000 C   0  0  0  0  0  0  0  0  0  0  0  0
    4.6523   -0.9806    0.0000 C   0  0  0  0  0  0  0  0  0  0  0  0
    3.7542   -1.5083    0.0000 C   0  0  0  0  0  0  0  0  0  0  0  0
    5.5022    0.5609    0.0000 C   0  0  0  0  0  0  0  0  0  0  0  0
    5.5022    1.5609    0.0000 C   0  0  0  0  0  0  0  0  0  0  0  0
    4.6362    2.0609    0.0000 C   0  0  0  0  0  0  0  0  0  0  0  0
    3.7702    1.5609    0.0000 C   0  0  0  0  0  0  0  0  0  0  0  0
    2.8602    0.0541    0.0000 C   0  0  0  0  0  0  0  0  0  0  0  0
    5.6042   -1.5012    0.0000 C   0  0  0  0  0  0  0  0  0  0  0  0
    3.7459   -2.5933    0.0000 C   0  0  0  0  0  0  0  0  0  0  0  0
    5.8341    3.1358    0.0000 C   0  0  0  0  0  0  0  0  0  0  0  0
    5.6209   -2.5861    0.0000 C   0  0  0  0  0  0  0  0  0  0  0  0
    4.6855   -3.1358    0.0000 C   0  0  0  0  0  0  0  0  0  0  0  0
    6.0392    0.2509    0.0000 H   0  0  0  0  0  0  0  0  0  0  0  0
    3.2332    1.8709    0.0000 H   0  0  0  0  0  0  0  0  0  0  0  0
    2.3140   -1.2954    0.0000 H   0  0  0  0  0  0  0  0  0  0  0  0
    6.1351   -1.1809    0.0000 H   0  0  0  0  0  0  0  0  0  0  0  0
    3.2077   -2.9012    0.0000 H   0  0  0  0  0  0  0  0  0  0  0  0
    6.4237    3.3276    0.0000 H   0  0  0  0  0  0  0  0  0  0  0  0
    5.7054    3.7423    0.0000 H   0  0  0  0  0  0  0  0  0  0  0  0
    6.1614   -2.8898    0.0000 H   0  0  0  0  0  0  0  0  0  0  0  0
    4.6879   -3.7558    0.0000 H   0  0  0  0  0  0  0  0  0  0  0  0
  1 10  1  0  0  0  0
  1 16  1  0  0  0  0
  2 11  1  0  0  0  0
  2 16  1  0  0  0  0
  3 13  2  0  0  0  0
  4  8  1  0  0  0  0
  4 13  1  0  0  0  0
  4 21  1  0  0  0  0
  5  6  1  0  0  0  0
  5  7  1  0  0  0  0
  5  9  2  0  0  0  0
  6 12  2  0  0  0  0
  6 13  1  0  0  0  0
  7  8  1  0  0  0  0
  7 14  2  0  0  0  0
  8 15  2  0  0  0  0
  9 10  1  0  0  0  0
  9 19  1  0  0  0  0
 10 11  2  0  0  0  0
 11 12  1  0  0  0  0
 12 20  1  0  0  0  0
 14 17  1  0  0  0  0
 14 22  1  0  0  0  0
 15 18  1  0  0  0  0
 15 23  1  0  0  0  0
 16 24  1  0  0  0  0
 16 25  1  0  0  0  0
 17 18  2  0  0  0  0
 17 26  1  0  0  0  0
 18 27  1  0  0  0  0
M  END
> <PUBCHEM_COMPOUND_CID>
442850

> <PUBCHEM_COMPOUND_CANONICALIZED>
1

> <PUBCHEM_CACTVS_COMPLEXITY>
359

> <PUBCHEM_CACTVS_HBOND_ACCEPTOR>
3

> <PUBCHEM_CACTVS_HBOND_DONOR>
1

> <PUBCHEM_CACTVS_ROTATABLE_BOND>
0

> <PUBCHEM_CACTVS_SUBSKEYS>
AAADccByMAAAAAAAAAAAAAAAAAAAASAAAAA8YIAAAAAAAEixQAAAHgAQAAAADAyBmAMwzoLABACIAiVSUACCCAAlIgAIiAEG7MgdJjLEtZukMSpk1BHO6Ye63fPeoAABAAASQABAAAIAACSAAAAAAAAAAA==

> <PUBCHEM_IUPAC_OPENEYE_NAME>
5H-[1,3]dioxolo[4,5-j]phenanthridin-6-one

> <PUBCHEM_IUPAC_CAS_NAME>
5H-[1,3]dioxolo[4,5-j]phenanthridin-6-one

> <PUBCHEM_IUPAC_NAME>
5H-[1,3]dioxolo[4,5-j]phenanthridin-6-one

> <PUBCHEM_IUPAC_SYSTEMATIC_NAME>
5H-[1,3]dioxolo[4,5-j]phenanthridin-6-one

> <PUBCHEM_IUPAC_TRADITIONAL_NAME>
5H-[1,3]dioxolo[4,5-j]phenanthridin-6-one

> <PUBCHEM_IUPAC_INCHI>
InChI=1S/C14H9NO3/c16-14-10-6-13-12(17-7-18-13)5-9(10)8-3-1-2-4-11(8)15-14/h1-6H,7H2,(H,15,16)

> <PUBCHEM_IUPAC_INCHIKEY>
NVOXRHIABFKYOT-UHFFFAOYSA-N

> <PUBCHEM_XLOGP3_AA>
2.3

> <PUBCHEM_EXACT_MASS>
239.058243

> <PUBCHEM_MOLECULAR_FORMULA>
C14H9NO3

> <PUBCHEM_MOLECULAR_WEIGHT>
239.22616

> <PUBCHEM_OPENEYE_CAN_SMILES>
C1OC2=C(O1)C=C3C(=C2)C4=CC=CC=C4NC3=O

> <PUBCHEM_OPENEYE_ISO_SMILES>
C1OC2=C(O1)C=C3C(=C2)C4=CC=CC=C4NC3=O

> <PUBCHEM_CACTVS_TPSA>
47.6

> <PUBCHEM_MONOISOTOPIC_WEIGHT>
239.058243

> <PUBCHEM_TOTAL_CHARGE>
0

> <PUBCHEM_HEAVY_ATOM_COUNT>
18

> <PUBCHEM_ATOM_DEF_STEREO_COUNT>
0

> <PUBCHEM_ATOM_UDEF_STEREO_COUNT>
0

> <PUBCHEM_BOND_DEF_STEREO_COUNT>
0

> <PUBCHEM_BOND_UDEF_STEREO_COUNT>
0

> <PUBCHEM_ISOTOPIC_ATOM_COUNT>
0

> <PUBCHEM_COMPONENT_COUNT>
1

> <PUBCHEM_CACTVS_TAUTO_COUNT>
2

> <PUBCHEM_COORDINATE_TYPE>
1
5
255

> <PUBCHEM_BONDANNOTATIONS>
10  11  8
11  12  8
14  17  8
15  18  8
17  18  8
4  13  8
4  8  8
5  6  8
5  7  8
5  9  8
6  12  8
6  13  8
7  14  8
7  8  8
8  15  8
9  10  8

$$$$

