443332
  -OEChem-07051213023D

 49 51  0     1  0  0  0  0  0999 V2000
    0.4553   -1.1361    0.5038 O   0  0  0  0  0  0  0  0  0  0  0  0
   -0.9237    0.5965    1.2001 O   0  0  0  0  0  0  0  0  0  0  0  0
    1.7686    0.4298   -0.6219 O   0  0  0  0  0  0  0  0  0  0  0  0
    2.6283   -1.6837    2.2319 O   0  0  0  0  0  0  0  0  0  0  0  0
    5.2222   -1.1516    0.9399 O   0  0  0  0  0  0  0  0  0  0  0  0
    5.2498    1.4950   -0.2225 O   0  0  0  0  0  0  0  0  0  0  0  0
   -5.3278    1.1411   -0.2102 O   0  0  0  0  0  0  0  0  0  0  0  0
   -4.8253    1.9970    1.8502 O   0  0  0  0  0  0  0  0  0  0  0  0
    1.6512    2.7827   -2.0382 O   0  0  0  0  0  0  0  0  0  0  0  0
   -1.9111   -1.4052    0.1189 C   0  0  1  0  0  0  0  0  0  0  0  0
   -3.2466   -0.6608   -0.0660 C   0  0  2  0  0  0  0  0  0  0  0  0
   -1.9277   -2.3693   -1.0822 C   0  0  1  0  0  0  0  0  0  0  0  0
   -3.4055   -0.4938   -1.5850 C   0  0  0  0  0  0  0  0  0  0  0  0
   -2.4703   -1.5168   -2.2317 C   0  0  0  0  0  0  0  0  0  0  0  0
   -0.7337   -0.4112    0.1940 C   0  0  2  0  0  0  0  0  0  0  0  0
   -3.2715    0.6271    0.6842 C   0  0  0  0  0  0  0  0  0  0  0  0
   -0.6207   -3.0596   -1.4342 C   0  0  0  0  0  0  0  0  0  0  0  0
    1.5817   -0.2659    0.6085 C   0  0  2  0  0  0  0  0  0  0  0  0
   -2.1798    1.1363    1.2632 C   0  0  0  0  0  0  0  0  0  0  0  0
    2.8075   -1.1196    0.9331 C   0  0  1  0  0  0  0  0  0  0  0  0
    4.0877   -0.2840    0.9149 C   0  0  2  0  0  0  0  0  0  0  0  0
    4.1732    0.5700   -0.3502 C   0  0  1  0  0  0  0  0  0  0  0  0
    2.8694    1.3393   -0.5753 C   0  0  1  0  0  0  0  0  0  0  0  0
   -4.5384    1.3353    0.8676 C   0  0  0  0  0  0  0  0  0  0  0  0
    2.8872    2.1075   -1.8931 C   0  0  0  0  0  0  0  0  0  0  0  0
   -1.9313   -1.9852    1.0517 H   0  0  0  0  0  0  0  0  0  0  0  0
   -4.0523   -1.3113    0.3028 H   0  0  0  0  0  0  0  0  0  0  0  0
   -2.6673   -3.1540   -0.8669 H   0  0  0  0  0  0  0  0  0  0  0  0
   -3.1475    0.5145   -1.9302 H   0  0  0  0  0  0  0  0  0  0  0  0
   -4.4411   -0.6861   -1.8881 H   0  0  0  0  0  0  0  0  0  0  0  0
   -2.9935   -2.1289   -2.9740 H   0  0  0  0  0  0  0  0  0  0  0  0
   -1.6604   -0.9936   -2.7541 H   0  0  0  0  0  0  0  0  0  0  0  0
   -0.6130    0.0920   -0.7740 H   0  0  0  0  0  0  0  0  0  0  0  0
   -0.7779   -3.7781   -2.2459 H   0  0  0  0  0  0  0  0  0  0  0  0
    0.1412   -2.3503   -1.7726 H   0  0  0  0  0  0  0  0  0  0  0  0
   -0.2271   -3.6091   -0.5732 H   0  0  0  0  0  0  0  0  0  0  0  0
    1.4141    0.4478    1.4258 H   0  0  0  0  0  0  0  0  0  0  0  0
    2.8964   -1.9562    0.2288 H   0  0  0  0  0  0  0  0  0  0  0  0
   -2.1656    2.0289    1.8742 H   0  0  0  0  0  0  0  0  0  0  0  0
    4.1516    0.3366    1.8172 H   0  0  0  0  0  0  0  0  0  0  0  0
    4.3943   -0.0739   -1.2102 H   0  0  0  0  0  0  0  0  0  0  0  0
    2.6915    2.0599    0.2346 H   0  0  0  0  0  0  0  0  0  0  0  0
    3.0019    1.4334   -2.7485 H   0  0  0  0  0  0  0  0  0  0  0  0
    3.6904    2.8495   -1.9186 H   0  0  0  0  0  0  0  0  0  0  0  0
    1.8016   -2.1960    2.2150 H   0  0  0  0  0  0  0  0  0  0  0  0
    6.0171   -0.5919    0.9150 H   0  0  0  0  0  0  0  0  0  0  0  0
    5.0593    2.0748    0.5345 H   0  0  0  0  0  0  0  0  0  0  0  0
   -6.1896    1.6018   -0.1239 H   0  0  0  0  0  0  0  0  0  0  0  0
    0.9453    2.1143   -2.0084 H   0  0  0  0  0  0  0  0  0  0  0  0
  1 15  1  0  0  0  0
  1 18  1  0  0  0  0
  2 15  1  0  0  0  0
  2 19  1  0  0  0  0
  3 18  1  0  0  0  0
  3 23  1  0  0  0  0
  4 20  1  0  0  0  0
  4 45  1  0  0  0  0
  5 21  1  0  0  0  0
  5 46  1  0  0  0  0
  6 22  1  0  0  0  0
  6 47  1  0  0  0  0
  7 24  1  0  0  0  0
  7 48  1  0  0  0  0
  8 24  2  0  0  0  0
  9 25  1  0  0  0  0
  9 49  1  0  0  0  0
 10 11  1  0  0  0  0
 10 12  1  0  0  0  0
 10 15  1  0  0  0  0
 10 26  1  0  0  0  0
 11 13  1  0  0  0  0
 11 16  1  0  0  0  0
 11 27  1  0  0  0  0
 12 14  1  0  0  0  0
 12 17  1  0  0  0  0
 12 28  1  0  0  0  0
 13 14  1  0  0  0  0
 13 29  1  0  0  0  0
 13 30  1  0  0  0  0
 14 31  1  0  0  0  0
 14 32  1  0  0  0  0
 15 33  1  0  0  0  0
 16 19  2  0  0  0  0
 16 24  1  0  0  0  0
 17 34  1  0  0  0  0
 17 35  1  0  0  0  0
 17 36  1  0  0  0  0
 18 20  1  0  0  0  0
 18 37  1  0  0  0  0
 19 39  1  0  0  0  0
 20 21  1  0  0  0  0
 20 38  1  0  0  0  0
 21 22  1  0  0  0  0
 21 40  1  0  0  0  0
 22 23  1  0  0  0  0
 22 41  1  0  0  0  0
 23 25  1  0  0  0  0
 23 42  1  0  0  0  0
 25 43  1  0  0  0  0
 25 44  1  0  0  0  0
M  END
> <PUBCHEM_COMPOUND_CID>
443332

> <PUBCHEM_CONFORMER_RMSD>
0.8

> <PUBCHEM_CONFORMER_DIVERSEORDER>
2
28
53
20
38
29
46
45
63
24
3
48
43
16
35
26
37
55
52
41
6
42
34
56
36
12
60
19
33
22
54
18
11
47
59
44
49
30
4
9
7
8
13
32
39
21
31
23
5
50
58
1
40
25
15
61
14
27
17
51
62
57
10

> <PUBCHEM_MMFF94_PARTIAL_CHARGES>
26
1 -0.56
11 0.14
15 0.56
16 -0.12
18 0.56
19 -0.07
2 -0.36
20 0.28
21 0.28
22 0.28
23 0.28
24 0.71
25 0.28
3 -0.56
39 0.15
4 -0.68
45 0.4
46 0.4
47 0.4
48 0.5
49 0.4
5 -0.68
6 -0.68
7 -0.65
8 -0.57
9 -0.68

> <PUBCHEM_EFFECTIVE_ROTOR_COUNT>
6.2

> <PUBCHEM_PHARMACOPHORE_FEATURES>
17
1 1 acceptor
1 2 acceptor
1 3 acceptor
1 4 acceptor
1 4 donor
1 5 acceptor
1 5 donor
1 6 acceptor
1 6 donor
1 7 acceptor
1 8 acceptor
1 9 acceptor
1 9 donor
3 7 8 24 anion
5 10 11 12 13 14 rings
6 2 10 11 15 16 19 rings
6 3 18 20 21 22 23 rings

> <PUBCHEM_HEAVY_ATOM_COUNT>
25

> <PUBCHEM_ATOM_DEF_STEREO_COUNT>
9

> <PUBCHEM_ATOM_UDEF_STEREO_COUNT>
0

> <PUBCHEM_BOND_DEF_STEREO_COUNT>
0

> <PUBCHEM_BOND_UDEF_STEREO_COUNT>
0

> <PUBCHEM_ISOTOPIC_ATOM_COUNT>
0

> <PUBCHEM_COMPONENT_COUNT>
1

> <PUBCHEM_CACTVS_TAUTO_COUNT>
1

> <PUBCHEM_CONFORMER_ID>
0006C3C400000002

> <PUBCHEM_MMFF94_ENERGY>
70.2736

> <PUBCHEM_FEATURE_SELFOVERLAP>
86.568

> <PUBCHEM_SHAPE_FINGERPRINT>
10366900 7 15068614998497392904
10369192 42 15336273379434610420
11370993 144 16845295007450687889
11578080 2 17977988701920743096
11640471 11 18340197497153163820
11796584 16 17313376847465940358
12236239 1 18411422808202109859
12422481 6 18055634168695984561
12616971 3 18272096011004263570
12788726 201 18119529834755575639
13583140 156 17417815075783902715
14251757 17 14634866483529803677
14294032 229 17968375754217882169
15081414 286 17918273135148228172
15375358 24 16226047794727828504
16752209 62 17967824803543151743
17818456 19 18260546783588865448
17980427 23 18262248737631959916
1813 80 17983297316238139338
20511986 3 18337965501782333548
20600515 1 17458350749063257176
20645476 183 18410852127745548351
21033650 10 17459167660284982568
22122407 14 17988353884420553365
22149856 69 17825078624515387737
23366157 5 17901938974878896511
23402539 116 17676780828479850754
23557571 272 16877939395514419737
23559900 14 17167857582793091270
23598288 3 18192137218750384311
23598291 2 18341618057744733942
2838139 119 17844823658174069893
3472631 163 18040994025037395129
38570 142 17771312363439785524
474 4 17988922211297723000
5104073 3 18202287957595425858
513202 73 17624989609508401546
633830 44 18129368325034991244

> <PUBCHEM_SHAPE_MULTIPOLES>
461.66
10.37
2.67
1.94
2.85
0.75
0.51
-4.61
-1.42
-1.33
0.97
0.56
-0.27
-3.47

> <PUBCHEM_SHAPE_SELFOVERLAP>
972.777

> <PUBCHEM_SHAPE_VOLUME>
255.1

> <PUBCHEM_COORDINATE_TYPE>
2
5
10

$$$$

