54960
  -OEChem-07051213003D

 46 47  0     0  0  0  0  0  0999 V2000
    1.7649    1.5802    0.9026 S   0  0  0  0  0  0  0  0  0  0  0  0
    2.0529    0.5363    1.8661 O   0  0  0  0  0  0  0  0  0  0  0  0
    2.3719    2.8917    1.0206 O   0  0  0  0  0  0  0  0  0  0  0  0
    3.6438   -2.0069    1.3166 O   0  0  0  0  0  0  0  0  0  0  0  0
    2.4344   -2.1231   -0.6386 O   0  0  0  0  0  0  0  0  0  0  0  0
   -0.4959   -0.4310    0.2605 O   0  0  0  0  0  0  0  0  0  0  0  0
   -6.7830    1.1608   -0.2304 O   0  0  0  0  0  0  0  0  0  0  0  0
   -4.2604   -2.8309   -0.6468 O   0  0  0  0  0  0  0  0  0  0  0  0
    0.0769    1.7728    0.7295 N   0  0  0  0  0  0  0  0  0  0  0  0
   -2.1528    1.2113    0.3547 N   0  0  0  0  0  0  0  0  0  0  0  0
   -4.4830    1.2000    0.0630 N   0  0  0  0  0  0  0  0  0  0  0  0
   -3.2006   -0.8291   -0.1489 N   0  0  0  0  0  0  0  0  0  0  0  0
    2.1570    0.9556   -0.7134 C   0  0  0  0  0  0  0  0  0  0  0  0
    3.6346    0.7164   -0.7636 C   0  0  0  0  0  0  0  0  0  0  0  0
    4.1783   -0.5150   -0.3979 C   0  0  0  0  0  0  0  0  0  0  0  0
    4.4707    1.7502   -1.1858 C   0  0  0  0  0  0  0  0  0  0  0  0
    5.5579   -0.7128   -0.4545 C   0  0  0  0  0  0  0  0  0  0  0  0
    5.8503    1.5524   -1.2424 C   0  0  0  0  0  0  0  0  0  0  0  0
    6.3939    0.3211   -0.8769 C   0  0  0  0  0  0  0  0  0  0  0  0
    3.3284   -1.6116    0.0461 C   0  0  0  0  0  0  0  0  0  0  0  0
   -0.8579    0.7272    0.4274 C   0  0  0  0  0  0  0  0  0  0  0  0
   -3.3378    0.4915    0.0756 C   0  0  0  0  0  0  0  0  0  0  0  0
   -5.5933    0.4826   -0.2063 C   0  0  0  0  0  0  0  0  0  0  0  0
   -4.3504   -1.4844   -0.4117 C   0  0  0  0  0  0  0  0  0  0  0  0
   -5.5876   -0.8750   -0.4542 C   0  0  0  0  0  0  0  0  0  0  0  0
    2.8761   -3.0829    1.8666 C   0  0  0  0  0  0  0  0  0  0  0  0
   -6.7292    2.5582    0.0322 C   0  0  0  0  0  0  0  0  0  0  0  0
   -2.9601   -3.4057   -0.5901 C   0  0  0  0  0  0  0  0  0  0  0  0
    1.8653    1.7203   -1.4426 H   0  0  0  0  0  0  0  0  0  0  0  0
    1.5762    0.0640   -0.9357 H   0  0  0  0  0  0  0  0  0  0  0  0
    4.0625    2.7150   -1.4749 H   0  0  0  0  0  0  0  0  0  0  0  0
   -0.2788    2.7373    0.7263 H   0  0  0  0  0  0  0  0  0  0  0  0
    5.9964   -1.6679   -0.1766 H   0  0  0  0  0  0  0  0  0  0  0  0
    6.5013    2.3570   -1.5715 H   0  0  0  0  0  0  0  0  0  0  0  0
    7.4679    0.1669   -0.9220 H   0  0  0  0  0  0  0  0  0  0  0  0
   -2.2904    2.2047    0.5195 H   0  0  0  0  0  0  0  0  0  0  0  0
   -6.4948   -1.4260   -0.6679 H   0  0  0  0  0  0  0  0  0  0  0  0
    1.8189   -2.8053    1.9147 H   0  0  0  0  0  0  0  0  0  0  0  0
    3.0115   -3.9874    1.2663 H   0  0  0  0  0  0  0  0  0  0  0  0
    3.2365   -3.2749    2.8806 H   0  0  0  0  0  0  0  0  0  0  0  0
   -6.3463    2.7540    1.0395 H   0  0  0  0  0  0  0  0  0  0  0  0
   -6.1271    3.0765   -0.7216 H   0  0  0  0  0  0  0  0  0  0  0  0
   -7.7490    2.9506   -0.0229 H   0  0  0  0  0  0  0  0  0  0  0  0
   -2.3049   -2.9709   -1.3524 H   0  0  0  0  0  0  0  0  0  0  0  0
   -2.5241   -3.2931    0.4083 H   0  0  0  0  0  0  0  0  0  0  0  0
   -3.0555   -4.4756   -0.7978 H   0  0  0  0  0  0  0  0  0  0  0  0
  1  2  2  0  0  0  0
  1  3  2  0  0  0  0
  1  9  1  0  0  0  0
  1 13  1  0  0  0  0
  4 20  1  0  0  0  0
  4 26  1  0  0  0  0
  5 20  2  0  0  0  0
  6 21  2  0  0  0  0
  7 23  1  0  0  0  0
  7 27  1  0  0  0  0
  8 24  1  0  0  0  0
  8 28  1  0  0  0  0
  9 21  1  0  0  0  0
  9 32  1  0  0  0  0
 10 21  1  0  0  0  0
 10 22  1  0  0  0  0
 10 36  1  0  0  0  0
 11 22  1  0  0  0  0
 11 23  2  0  0  0  0
 12 22  2  0  0  0  0
 12 24  1  0  0  0  0
 13 14  1  0  0  0  0
 13 29  1  0  0  0  0
 13 30  1  0  0  0  0
 14 15  1  0  0  0  0
 14 16  2  0  0  0  0
 15 17  2  0  0  0  0
 15 20  1  0  0  0  0
 16 18  1  0  0  0  0
 16 31  1  0  0  0  0
 17 19  1  0  0  0  0
 17 33  1  0  0  0  0
 18 19  2  0  0  0  0
 18 34  1  0  0  0  0
 19 35  1  0  0  0  0
 23 25  1  0  0  0  0
 24 25  2  0  0  0  0
 25 37  1  0  0  0  0
 26 38  1  0  0  0  0
 26 39  1  0  0  0  0
 26 40  1  0  0  0  0
 27 41  1  0  0  0  0
 27 42  1  0  0  0  0
 27 43  1  0  0  0  0
 28 44  1  0  0  0  0
 28 45  1  0  0  0  0
 28 46  1  0  0  0  0
M  END
> <PUBCHEM_COMPOUND_CID>
54960

> <PUBCHEM_CONFORMER_RMSD>
1

> <PUBCHEM_CONFORMER_DIVERSEORDER>
1
23
60
136
186
115
160
220
162
196
30
193
218
123
189
131
86
65
56
197
180
41
174
205
199
121
208
90
173
222
154
100
21
130
51
109
175
9
150
13
132
7
165
210
101
82
58
24
72
119
148
177
92
203
89
126
16
194
209
147
79
106
149
111
45
73
195
54
171
219
192
88
107
77
125
213
103
151
141
156
61
17
133
201
157
118
113
120
6
163
12
32
140
211
48
35
181
53
28
97
183
38
55
167
5
190
182
43
215
169
117
179
76
96
91
221
67
102
152
206
122
74
112
161
200
207
85
153
124
142
159
52
137
50
129
98
143
11
62
34
178
185
139
198
212
70
75
105
217
26
128
172
66
39
170
216
84
81
184
144
134
15
114
22
87
80
36
3
83
164
158
191
19
42
95
146
187
78
29
63
93
27
204
188
49
59
127
176
71
20
94
10
64
166
31
18
25
14
135
138
47
168
69
214
155
46
44
99
57
202
110
145
108
8
116
33
2
104
40
68
37
4

> <PUBCHEM_MMFF94_PARTIAL_CHARGES>
35
1 1.33
10 -0.55
11 -0.62
12 -0.62
13 0.25
14 -0.14
15 0.09
16 -0.15
17 -0.15
18 -0.15
19 -0.15
2 -0.65
20 0.63
21 0.87
22 0.74
23 0.39
24 0.39
25 -0.15
26 0.28
27 0.28
28 0.28
3 -0.65
31 0.15
32 0.42
33 0.15
34 0.15
35 0.15
36 0.37
37 0.15
4 -0.43
5 -0.57
6 -0.57
7 -0.36
8 -0.36
9 -0.79

> <PUBCHEM_EFFECTIVE_ROTOR_COUNT>
10

> <PUBCHEM_PHARMACOPHORE_FEATURES>
9
1 10 donor
1 2 acceptor
1 3 acceptor
1 5 acceptor
1 6 acceptor
1 8 acceptor
1 9 donor
6 11 12 22 23 24 25 rings
6 14 15 16 17 18 19 rings

> <PUBCHEM_HEAVY_ATOM_COUNT>
28

> <PUBCHEM_ATOM_DEF_STEREO_COUNT>
0

> <PUBCHEM_ATOM_UDEF_STEREO_COUNT>
0

> <PUBCHEM_BOND_DEF_STEREO_COUNT>
0

> <PUBCHEM_BOND_UDEF_STEREO_COUNT>
0

> <PUBCHEM_ISOTOPIC_ATOM_COUNT>
0

> <PUBCHEM_COMPONENT_COUNT>
1

> <PUBCHEM_CACTVS_TAUTO_COUNT>
5

> <PUBCHEM_CONFORMER_ID>
0000D6B000000001

> <PUBCHEM_MMFF94_ENERGY>
72.3044

> <PUBCHEM_FEATURE_SELFOVERLAP>
45.731

> <PUBCHEM_SHAPE_FINGERPRINT>
10595046 47 18342737420721849437
10906281 52 17896304974339503351
11135609 149 16342039752378765314
11186622 123 18265906747908232387
11796584 16 18261106374498033831
12107183 9 17693660724178944808
12788726 201 18041555957346889625
14117953 113 18118124903265088135
15183329 4 18334013930481161425
15250474 111 18340218431109257075
15276724 80 17845657083381655349
15537594 2 18410847755094379403
16993427 108 16484184684775091346
16993438 75 17843671176082032458
17138139 8 18265055739193941410
17857418 61 18335422382868340265
18608769 82 18058438804268985379
18681886 176 17967817111567480158
20511986 3 18411708676935535286
21033648 29 14418418870368321498
21054139 6 18341331098706657334
22393880 68 18335138631379692734
23516275 137 18194658570685771651
23559900 14 18187932733599046089
239999 70 17967811601235553460
3004659 81 18411981394753477900
3411729 13 17241627035105908624
3680242 22 18267304416450494683
4073 2 18059286569976148307
4098825 35 17988644154793545076
4149490 64 17704068512506217474
439807 62 18339638928557494871
44062 13 18187366472520998335
6823239 73 17968102971484371562

> <PUBCHEM_SHAPE_MULTIPOLES>
519.07
17.42
3.33
1.22
13.51
2.04
0.41
-4.02
-5.12
1.19
0.5
-1.51
0.21
-2.05

> <PUBCHEM_SHAPE_SELFOVERLAP>
1079.59

> <PUBCHEM_SHAPE_VOLUME>
296.5

> <PUBCHEM_COORDINATE_TYPE>
2
5
10

$$$$

