46173792
  -OEChem-07051213023D

 56 58  0     1  0  0  0  0  0999 V2000
   -2.2151   -3.1407    0.5773 P   0  0  2  0  0  0  0  0  0  0  0  0
   -4.0528   -0.9068    1.1154 P   0  0  2  0  0  0  0  0  0  0  0  0
    1.8357   -1.0689   -1.4582 O   0  0  0  0  0  0  0  0  0  0  0  0
    2.7676   -3.9299   -2.0221 O   0  0  0  0  0  0  0  0  0  0  0  0
   -0.9358   -3.1411   -0.4129 O   0  0  0  0  0  0  0  0  0  0  0  0
    5.6821   -0.0174   -0.3813 O   0  0  0  0  0  0  0  0  0  0  0  0
   -2.8446   -1.6682    0.3576 O   0  0  0  0  0  0  0  0  0  0  0  0
   -1.5634   -3.0409    2.0545 O   0  0  0  0  0  0  0  0  0  0  0  0
   -4.0373    0.5908    0.5022 O   0  0  0  0  0  0  0  0  0  0  0  0
   -3.1858   -4.2696    0.3877 O   0  0  0  0  0  0  0  0  0  0  0  0
   -2.5037    0.8947   -1.2278 O   0  0  0  0  0  0  0  0  0  0  0  0
    3.8805    3.1207    2.4567 O   0  0  0  0  0  0  0  0  0  0  0  0
   -3.4924   -0.7310    2.6229 O   0  0  0  0  0  0  0  0  0  0  0  0
   -5.3763   -1.6095    1.0247 O   0  0  0  0  0  0  0  0  0  0  0  0
   -2.5541    4.9439   -0.3341 O   0  0  0  0  0  0  0  0  0  0  0  0
   -1.1886    3.8815   -2.4830 O   0  0  0  0  0  0  0  0  0  0  0  0
    3.3781   -0.0720   -0.0083 N   0  0  0  0  0  0  0  0  0  0  0  0
    4.7704    1.5420    1.0319 N   0  0  0  0  0  0  0  0  0  0  0  0
    2.1501   -3.3458   -0.8773 C   0  0  2  0  0  0  0  0  0  0  0  0
    1.1217   -2.3119   -1.3142 C   0  0  1  0  0  0  0  0  0  0  0  0
    3.1631   -2.5210   -0.1174 C   0  0  0  0  0  0  0  0  0  0  0  0
    3.1348   -1.1968   -0.8632 C   0  0  1  0  0  0  0  0  0  0  0  0
    0.0185   -2.1017   -0.2852 C   0  0  0  0  0  0  0  0  0  0  0  0
    2.2995    0.5065    0.6492 C   0  0  0  0  0  0  0  0  0  0  0  0
    4.6803    0.4438    0.1694 C   0  0  0  0  0  0  0  0  0  0  0  0
    2.3892    1.5571    1.4740 C   0  0  0  0  0  0  0  0  0  0  0  0
    3.7294    2.1560    1.7117 C   0  0  0  0  0  0  0  0  0  0  0  0
    1.2138    2.1645    2.1702 C   0  0  0  0  0  0  0  0  0  0  0  0
   -2.8013    1.1975    0.1349 C   0  0  1  0  0  0  0  0  0  0  0  0
   -1.3647    1.5929   -1.7125 C   0  0  2  0  0  0  0  0  0  0  0  0
   -2.9334    2.6770    0.3460 C   0  0  0  0  0  0  0  0  0  0  0  0
   -1.6359    3.0909   -1.6554 C   0  0  0  0  0  0  0  0  0  0  0  0
   -2.4234    3.5858   -0.4963 C   0  0  0  0  0  0  0  0  0  0  0  0
   -1.1064    1.1278   -3.1370 C   0  0  0  0  0  0  0  0  0  0  0  0
    1.7323   -4.1598   -0.2773 H   0  0  0  0  0  0  0  0  0  0  0  0
    0.6865   -2.5625   -2.2882 H   0  0  0  0  0  0  0  0  0  0  0  0
    2.8373   -2.3966    0.9223 H   0  0  0  0  0  0  0  0  0  0  0  0
    4.1685   -2.9537   -0.1063 H   0  0  0  0  0  0  0  0  0  0  0  0
    3.8674   -1.2075   -1.6791 H   0  0  0  0  0  0  0  0  0  0  0  0
   -0.4774   -1.1426   -0.4621 H   0  0  0  0  0  0  0  0  0  0  0  0
    0.4248   -2.0864    0.7298 H   0  0  0  0  0  0  0  0  0  0  0  0
    2.0788   -4.4147   -2.5080 H   0  0  0  0  0  0  0  0  0  0  0  0
    1.3251    0.0693    0.4877 H   0  0  0  0  0  0  0  0  0  0  0  0
    5.6987    1.9301    1.1747 H   0  0  0  0  0  0  0  0  0  0  0  0
    1.0943    3.2122    1.8753 H   0  0  0  0  0  0  0  0  0  0  0  0
    0.2810    1.6438    1.9291 H   0  0  0  0  0  0  0  0  0  0  0  0
    1.3474    2.1209    3.2559 H   0  0  0  0  0  0  0  0  0  0  0  0
   -2.0040    0.8122    0.7819 H   0  0  0  0  0  0  0  0  0  0  0  0
   -0.4910    1.3671   -1.0895 H   0  0  0  0  0  0  0  0  0  0  0  0
   -1.0220   -2.2600    2.2960 H   0  0  0  0  0  0  0  0  0  0  0  0
   -3.4680    3.0164    1.2295 H   0  0  0  0  0  0  0  0  0  0  0  0
   -0.2178    1.6067   -3.5599 H   0  0  0  0  0  0  0  0  0  0  0  0
   -0.9651    0.0420   -3.1656 H   0  0  0  0  0  0  0  0  0  0  0  0
   -1.9601    1.3556   -3.7854 H   0  0  0  0  0  0  0  0  0  0  0  0
   -3.5267   -1.4979    3.2335 H   0  0  0  0  0  0  0  0  0  0  0  0
   -2.0807    5.3738   -1.0672 H   0  0  0  0  0  0  0  0  0  0  0  0
  1  5  1  0  0  0  0
  1  7  1  0  0  0  0
  1  8  1  0  0  0  0
  1 10  2  0  0  0  0
  2  7  1  0  0  0  0
  2  9  1  0  0  0  0
  2 13  1  0  0  0  0
  2 14  2  0  0  0  0
  3 20  1  0  0  0  0
  3 22  1  0  0  0  0
  4 19  1  0  0  0  0
  4 42  1  0  0  0  0
  5 23  1  0  0  0  0
  6 25  2  0  0  0  0
  8 50  1  0  0  0  0
  9 29  1  0  0  0  0
 11 29  1  0  0  0  0
 11 30  1  0  0  0  0
 12 27  2  0  0  0  0
 13 55  1  0  0  0  0
 15 33  1  0  0  0  0
 15 56  1  0  0  0  0
 16 32  2  0  0  0  0
 17 22  1  0  0  0  0
 17 24  1  0  0  0  0
 17 25  1  0  0  0  0
 18 25  1  0  0  0  0
 18 27  1  0  0  0  0
 18 44  1  0  0  0  0
 19 20  1  0  0  0  0
 19 21  1  0  0  0  0
 19 35  1  0  0  0  0
 20 23  1  0  0  0  0
 20 36  1  0  0  0  0
 21 22  1  0  0  0  0
 21 37  1  0  0  0  0
 21 38  1  0  0  0  0
 22 39  1  0  0  0  0
 23 40  1  0  0  0  0
 23 41  1  0  0  0  0
 24 26  2  0  0  0  0
 24 43  1  0  0  0  0
 26 27  1  0  0  0  0
 26 28  1  0  0  0  0
 28 45  1  0  0  0  0
 28 46  1  0  0  0  0
 28 47  1  0  0  0  0
 29 31  1  0  0  0  0
 29 48  1  0  0  0  0
 30 32  1  0  0  0  0
 30 34  1  0  0  0  0
 30 49  1  0  0  0  0
 31 33  2  0  0  0  0
 31 51  1  0  0  0  0
 32 33  1  0  0  0  0
 34 52  1  0  0  0  0
 34 53  1  0  0  0  0
 34 54  1  0  0  0  0
M  END
> <PUBCHEM_COMPOUND_CID>
46173792

> <PUBCHEM_CONFORMER_RMSD>
1.6

> <PUBCHEM_CONFORMER_DIVERSEORDER>
1
75
107
17
92
87
10
53
81
70
100
49
39
54
14
4
37
59
60
63
16
68
110
106
113
25
114
27
99
62
43
32
82
66
71
97
15
45
101
33
40
34
96
52
88
73
94
42
31
89
108
8
36
24
26
47
76
69
35
91
77
38
64
6
109
22
20
50
21
74
80
85
84
57
46
103
111
58
86
51
44
79
90
41
61
105
18
112
55
2
30
95
9
12
104
28
72
78
98
65
13
56
67
23
83
7
5
29
3
102
48
93
11
19

> <PUBCHEM_MMFF94_PARTIAL_CHARGES>
39
1 1.51
10 -0.7
11 -0.56
12 -0.57
13 -0.77
14 -0.7
15 -0.53
16 -0.57
17 -0.47
18 -0.49
19 0.28
2 1.51
20 0.28
22 0.58
23 0.28
24 -0.04
25 0.69
26 -0.12
27 0.62
28 0.14
29 0.7
3 -0.56
30 0.34
31 -0.29
32 0.49
33 0.09
4 -0.68
42 0.4
43 0.15
44 0.37
5 -0.55
50 0.5
51 0.15
55 0.5
56 0.45
6 -0.57
7 -0.54
8 -0.77
9 -0.55

> <PUBCHEM_EFFECTIVE_ROTOR_COUNT>
9.6

> <PUBCHEM_PHARMACOPHORE_FEATURES>
16
1 10 acceptor
1 11 acceptor
1 12 acceptor
1 13 acceptor
1 14 acceptor
1 15 donor
1 16 acceptor
1 18 donor
1 3 acceptor
1 4 acceptor
1 4 donor
1 6 acceptor
1 8 acceptor
5 3 19 20 21 22 rings
6 11 29 30 31 32 33 rings
6 17 18 24 25 26 27 rings

> <PUBCHEM_HEAVY_ATOM_COUNT>
34

> <PUBCHEM_ATOM_DEF_STEREO_COUNT>
5

> <PUBCHEM_ATOM_UDEF_STEREO_COUNT>
0

> <PUBCHEM_BOND_DEF_STEREO_COUNT>
0

> <PUBCHEM_BOND_UDEF_STEREO_COUNT>
0

> <PUBCHEM_ISOTOPIC_ATOM_COUNT>
0

> <PUBCHEM_COMPONENT_COUNT>
1

> <PUBCHEM_CACTVS_TAUTO_COUNT>
24

> <PUBCHEM_CONFORMER_ID>
02C08E6000000001

> <PUBCHEM_MMFF94_ENERGY>
30.6349

> <PUBCHEM_FEATURE_SELFOVERLAP>
81.213

> <PUBCHEM_SHAPE_FINGERPRINT>
10675989 125 16537647522156788224
11595378 159 17846788398830489402
13402501 40 18334854996013249035
14251757 17 18264487463185122322
14279260 333 16892569832643088126
15351339 4 16468396981034897417
15840311 113 17752174372090714739
20600515 1 17487624009307290691
20764821 26 18117855312741992164
23536364 44 17826771923418490006
238 59 17900576571959089884
25019877 29 16665699407991553374
3187 122 18054800489520488307
35225 105 17629515027036027903
3524813 1 18334852788321158347
469060 322 18121523279068318597
474144 1 16974490574051042429
4742675 86 17972061174441531396
508706 21 18409452487791971254
6004065 56 18267309729947109831
7399639 24 18336275539377730424

> <PUBCHEM_SHAPE_MULTIPOLES>
615.27
9.33
6.22
2.44
4.18
0.2
0.4
-0.88
-3.32
-3
0.71
-0.31
-1.21
5.1

> <PUBCHEM_SHAPE_SELFOVERLAP>
1259.853

> <PUBCHEM_SHAPE_VOLUME>
356

> <PUBCHEM_COORDINATE_TYPE>
2
5
10

$$$$

