155464
  -OEChem-07051213083D

 26 28  0     0  0  0  0  0  0999 V2000
    2.3403    2.2139   -0.0008 O   0  0  0  0  0  0  0  0  0  0  0  0
    4.4953    0.5196    0.0001 O   0  0  0  0  0  0  0  0  0  0  0  0
    0.8189    0.3438    0.0001 C   0  0  0  0  0  0  0  0  0  0  0  0
    0.6334   -1.0561   -0.0001 C   0  0  0  0  0  0  0  0  0  0  0  0
   -1.6100    0.6656    0.0001 C   0  0  0  0  0  0  0  0  0  0  0  0
   -1.7955   -0.7343    0.0000 C   0  0  0  0  0  0  0  0  0  0  0  0
   -0.3053    1.1864    0.0002 C   0  0  0  0  0  0  0  0  0  0  0  0
   -0.6713   -1.5769   -0.0002 C   0  0  0  0  0  0  0  0  0  0  0  0
    2.1239    0.8639    0.0003 C   0  0  0  0  0  0  0  0  0  0  0  0
    1.7581   -1.8979   -0.0001 C   0  0  0  0  0  0  0  0  0  0  0  0
   -2.7346    1.5074    0.0002 C   0  0  0  0  0  0  0  0  0  0  0  0
   -3.1004   -1.2543   -0.0001 C   0  0  0  0  0  0  0  0  0  0  0  0
    3.2301    0.0138    0.0003 C   0  0  0  0  0  0  0  0  0  0  0  0
    3.0474   -1.3653    0.0000 C   0  0  0  0  0  0  0  0  0  0  0  0
   -4.0239    0.9748    0.0001 C   0  0  0  0  0  0  0  0  0  0  0  0
   -4.2066   -0.4044   -0.0001 C   0  0  0  0  0  0  0  0  0  0  0  0
   -0.1745    2.2683    0.0004 H   0  0  0  0  0  0  0  0  0  0  0  0
   -0.8144   -2.6575   -0.0004 H   0  0  0  0  0  0  0  0  0  0  0  0
    1.6386   -2.9794   -0.0003 H   0  0  0  0  0  0  0  0  0  0  0  0
   -2.6156    2.5889    0.0003 H   0  0  0  0  0  0  0  0  0  0  0  0
   -3.2668   -2.3297   -0.0002 H   0  0  0  0  0  0  0  0  0  0  0  0
    3.8993   -2.0400   -0.0001 H   0  0  0  0  0  0  0  0  0  0  0  0
   -4.8846    1.6372    0.0001 H   0  0  0  0  0  0  0  0  0  0  0  0
   -5.2101   -0.8199   -0.0002 H   0  0  0  0  0  0  0  0  0  0  0  0
    3.3000    2.3745   -0.0008 H   0  0  0  0  0  0  0  0  0  0  0  0
    5.1314   -0.2163    0.0001 H   0  0  0  0  0  0  0  0  0  0  0  0
  1  9  1  0  0  0  0
  1 25  1  0  0  0  0
  2 13  1  0  0  0  0
  2 26  1  0  0  0  0
  3  4  1  0  0  0  0
  3  7  2  0  0  0  0
  3  9  1  0  0  0  0
  4  8  2  0  0  0  0
  4 10  1  0  0  0  0
  5  6  1  0  0  0  0
  5  7  1  0  0  0  0
  5 11  2  0  0  0  0
  6  8  1  0  0  0  0
  6 12  2  0  0  0  0
  7 17  1  0  0  0  0
  8 18  1  0  0  0  0
  9 13  2  0  0  0  0
 10 14  2  0  0  0  0
 10 19  1  0  0  0  0
 11 15  1  0  0  0  0
 11 20  1  0  0  0  0
 12 16  1  0  0  0  0
 12 21  1  0  0  0  0
 13 14  1  0  0  0  0
 14 22  1  0  0  0  0
 15 16  2  0  0  0  0
 15 23  1  0  0  0  0
 16 24  1  0  0  0  0
M  END
> <PUBCHEM_COMPOUND_CID>
155464

> <PUBCHEM_CONFORMER_RMSD>
0.4

> <PUBCHEM_CONFORMER_DIVERSEORDER>
1

> <PUBCHEM_MMFF94_PARTIAL_CHARGES>
22
1 -0.53
10 -0.15
11 -0.15
12 -0.15
13 0.08
14 -0.15
15 -0.15
16 -0.15
17 0.15
18 0.15
19 0.15
2 -0.53
20 0.15
21 0.15
22 0.15
23 0.15
24 0.15
25 0.45
26 0.45
7 -0.15
8 -0.15
9 0.08

> <PUBCHEM_EFFECTIVE_ROTOR_COUNT>
0

> <PUBCHEM_PHARMACOPHORE_FEATURES>
5
1 1 donor
1 2 donor
6 3 4 5 6 7 8 rings
6 3 4 9 10 13 14 rings
6 5 6 11 12 15 16 rings

> <PUBCHEM_HEAVY_ATOM_COUNT>
16

> <PUBCHEM_ATOM_DEF_STEREO_COUNT>
0

> <PUBCHEM_ATOM_UDEF_STEREO_COUNT>
0

> <PUBCHEM_BOND_DEF_STEREO_COUNT>
0

> <PUBCHEM_BOND_UDEF_STEREO_COUNT>
0

> <PUBCHEM_ISOTOPIC_ATOM_COUNT>
0

> <PUBCHEM_COMPONENT_COUNT>
1

> <PUBCHEM_CACTVS_TAUTO_COUNT>
13

> <PUBCHEM_CONFORMER_ID>
00025F4800000001

> <PUBCHEM_MMFF94_ENERGY>
49.5231

> <PUBCHEM_FEATURE_SELFOVERLAP>
25.428

> <PUBCHEM_SHAPE_FINGERPRINT>
10411042 1 15600328213975005539
10608611 8 18411703201021271477
10616163 171 18336263440523559055
10967382 1 18410855473023626182
10980938 120 18411136973976102834
11132069 177 18410017640947402017
11471102 20 18410578413320898646
12251169 10 18411420613405080709
13140716 1 18194965128006693994
13221675 6 18410575093290144687
13380535 76 18411699880769010530
13897977 150 18410858763216585773
14144814 61 18410574023906429211
14325111 11 18410573998263284289
15196674 1 18410574023811503015
15219456 202 18410854390903026607
15442244 35 18193838377685945930
15536298 74 18334575776063277390
15775835 57 18411415128726581990
16945 1 18410575050356302434
17802600 8 18411705378416605805
18186145 218 18335415824342483597
18522853 276 18408042917984898992
200 152 18113626681505737013
20510252 161 18260828245585884793
20645477 70 18335705004527927535
21267235 1 18410565180759014975
21501502 16 18410575106354310159
221490 88 18412536596354198050
22854114 111 18411981364335252976
2334 1 18410855438943488647
23402539 116 18334022678548386687
23402655 69 18335425711594673461
23463225 33 18412263956019284903
23559900 14 18335705004865348890
2748010 2 18411135848726183495
3312278 4 18408319990904876947
335352 9 18122626325396150303
474 4 17416960639163847092
4990 188 18040987475797175366
5104073 3 18411419543984696187
528886 8 18410298016380998810
53812653 166 18335706043946462056
69090 78 18334862718702193519
7364860 26 18334858320634310412
8809292 202 18272646827342978571
9709674 26 18410287004153917247

> <PUBCHEM_SHAPE_MULTIPOLES>
317.53
7.34
1.96
0.6
0.76
0.06
0
0.77
0
-0.42
0
0.04
-0.02
0

> <PUBCHEM_SHAPE_SELFOVERLAP>
721.648

> <PUBCHEM_SHAPE_VOLUME>
166.4

> <PUBCHEM_COORDINATE_TYPE>
2
5
10

$$$$

