13894
  -OEChem-06241222402D

 26 26  0     0  0  0  0  0  0999 V2000
    5.4641    1.6550    0.0000 S   0  0  0  0  0  0  0  0  0  0  0  0
    7.1962   -1.3450    0.0000 N   0  0  0  0  0  0  0  0  0  0  0  0
    3.7321   -1.3450    0.0000 N   0  0  0  0  0  0  0  0  0  0  0  0
    5.4641   -1.3450    0.0000 N   0  0  0  0  0  0  0  0  0  0  0  0
    4.5981    0.1550    0.0000 N   0  0  0  0  0  0  0  0  0  0  0  0
    6.3301    0.1550    0.0000 N   0  0  0  0  0  0  0  0  0  0  0  0
    8.0622   -0.8450    0.0000 C   0  0  0  0  0  0  0  0  0  0  0  0
    2.8660   -0.8450    0.0000 C   0  0  0  0  0  0  0  0  0  0  0  0
    6.3301   -0.8450    0.0000 C   0  0  0  0  0  0  0  0  0  0  0  0
    4.5981   -0.8450    0.0000 C   0  0  0  0  0  0  0  0  0  0  0  0
    8.9282   -1.3450    0.0000 C   0  0  0  0  0  0  0  0  0  0  0  0
    2.0000   -1.3450    0.0000 C   0  0  0  0  0  0  0  0  0  0  0  0
    5.4641    0.6550    0.0000 C   0  0  0  0  0  0  0  0  0  0  0  0
    8.4607   -0.3701    0.0000 H   0  0  0  0  0  0  0  0  0  0  0  0
    7.6636   -0.3701    0.0000 H   0  0  0  0  0  0  0  0  0  0  0  0
    3.2646   -0.3701    0.0000 H   0  0  0  0  0  0  0  0  0  0  0  0
    2.4675   -0.3701    0.0000 H   0  0  0  0  0  0  0  0  0  0  0  0
    7.1962   -1.9650    0.0000 H   0  0  0  0  0  0  0  0  0  0  0  0
    3.7321   -1.9650    0.0000 H   0  0  0  0  0  0  0  0  0  0  0  0
    8.6182   -1.8819    0.0000 H   0  0  0  0  0  0  0  0  0  0  0  0
    9.4651   -1.6550    0.0000 H   0  0  0  0  0  0  0  0  0  0  0  0
    9.2382   -0.8081    0.0000 H   0  0  0  0  0  0  0  0  0  0  0  0
    1.6900   -0.8081    0.0000 H   0  0  0  0  0  0  0  0  0  0  0  0
    1.4631   -1.6550    0.0000 H   0  0  0  0  0  0  0  0  0  0  0  0
    2.3100   -1.8819    0.0000 H   0  0  0  0  0  0  0  0  0  0  0  0
    6.0010    1.9650    0.0000 H   0  0  0  0  0  0  0  0  0  0  0  0
  1 13  1  0  0  0  0
  1 26  1  0  0  0  0
  2  7  1  0  0  0  0
  2  9  1  0  0  0  0
  2 18  1  0  0  0  0
  3  8  1  0  0  0  0
  3 10  1  0  0  0  0
  3 19  1  0  0  0  0
  4  9  2  0  0  0  0
  4 10  1  0  0  0  0
  5 10  2  0  0  0  0
  5 13  1  0  0  0  0
  6  9  1  0  0  0  0
  6 13  2  0  0  0  0
  7 11  1  0  0  0  0
  7 14  1  0  0  0  0
  7 15  1  0  0  0  0
  8 12  1  0  0  0  0
  8 16  1  0  0  0  0
  8 17  1  0  0  0  0
 11 20  1  0  0  0  0
 11 21  1  0  0  0  0
 11 22  1  0  0  0  0
 12 23  1  0  0  0  0
 12 24  1  0  0  0  0
 12 25  1  0  0  0  0
M  END
> <PUBCHEM_COMPOUND_CID>
13894

> <PUBCHEM_COMPOUND_CANONICALIZED>
1

> <PUBCHEM_CACTVS_COMPLEXITY>
131

> <PUBCHEM_CACTVS_HBOND_ACCEPTOR>
6

> <PUBCHEM_CACTVS_HBOND_DONOR>
3

> <PUBCHEM_CACTVS_ROTATABLE_BOND>
4

> <PUBCHEM_CACTVS_SUBSKEYS>
AAADccBjgABAAAAAAAAAAAAAAAAAAAAAAAAsAAAAAAAAAAABgAAAHAQQAAAAAADBAAQDEAbIEAQgAAAAJAEAUAkAAIABAIAIAACACAAACAAAAAAIEAIAAAAAAAAAAAAAAAAAAAAAAAAAAAAAAAAAAAAAAA==

> <PUBCHEM_IUPAC_OPENEYE_NAME>
4,6-bis(ethylamino)-1,3,5-triazine-2-thiol

> <PUBCHEM_IUPAC_CAS_NAME>
4,6-bis(ethylamino)-1,3,5-triazine-2-thiol

> <PUBCHEM_IUPAC_NAME>
4,6-bis(ethylamino)-1,3,5-triazine-2-thiol

> <PUBCHEM_IUPAC_SYSTEMATIC_NAME>
4,6-bis(ethylamino)-1,3,5-triazine-2-thiol

> <PUBCHEM_IUPAC_TRADITIONAL_NAME>
4,6-bis(ethylamino)-s-triazine-2-thiol

> <PUBCHEM_IUPAC_INCHI>
InChI=1S/C7H13N5S/c1-3-8-5-10-6(9-4-2)12-7(13)11-5/h3-4H2,1-2H3,(H3,8,9,10,11,12,13)

> <PUBCHEM_IUPAC_INCHIKEY>
FNFHKYYENMTFNM-UHFFFAOYSA-N

> <PUBCHEM_XLOGP3>
1.7

> <PUBCHEM_EXACT_MASS>
199.089166

> <PUBCHEM_MOLECULAR_FORMULA>
C7H13N5S

> <PUBCHEM_MOLECULAR_WEIGHT>
199.27662

> <PUBCHEM_OPENEYE_CAN_SMILES>
CCNC1=NC(=NC(=N1)S)NCC

> <PUBCHEM_OPENEYE_ISO_SMILES>
CCNC1=NC(=NC(=N1)S)NCC

> <PUBCHEM_CACTVS_TPSA>
63.7

> <PUBCHEM_MONOISOTOPIC_WEIGHT>
199.089166

> <PUBCHEM_TOTAL_CHARGE>
0

> <PUBCHEM_HEAVY_ATOM_COUNT>
13

> <PUBCHEM_ATOM_DEF_STEREO_COUNT>
0

> <PUBCHEM_ATOM_UDEF_STEREO_COUNT>
0

> <PUBCHEM_BOND_DEF_STEREO_COUNT>
0

> <PUBCHEM_BOND_UDEF_STEREO_COUNT>
0

> <PUBCHEM_ISOTOPIC_ATOM_COUNT>
0

> <PUBCHEM_COMPONENT_COUNT>
1

> <PUBCHEM_CACTVS_TAUTO_COUNT>
10

> <PUBCHEM_COORDINATE_TYPE>
1
5
255

> <PUBCHEM_BONDANNOTATIONS>
4  10  8
4  9  8
5  10  8
5  13  8
6  13  8
6  9  8

$$$$

