5281875
  -OEChem-07051213002D

 59 61  0     0  0  0  0  0  0999 V2000
    7.1962   -4.6830    0.0000 F   0  0  0  0  0  0  0  0  0  0  0  0
    6.1962   -3.6830    0.0000 F   0  0  0  0  0  0  0  0  0  0  0  0
    8.1962   -3.6830    0.0000 F   0  0  0  0  0  0  0  0  0  0  0  0
    2.0000    4.3170    0.0000 F   0  0  0  0  0  0  0  0  0  0  0  0
    2.3660    2.9510    0.0000 F   0  0  0  0  0  0  0  0  0  0  0  0
    3.3660    4.6830    0.0000 F   0  0  0  0  0  0  0  0  0  0  0  0
   11.5263    1.8170    0.0000 N   0  0  0  0  0  0  0  0  0  0  0  0
   10.6603    3.3170    0.0000 N   0  0  0  0  0  0  0  0  0  0  0  0
    9.7942    1.8170    0.0000 N   0  0  0  0  0  0  0  0  0  0  0  0
    8.9282    2.3170    0.0000 N   0  0  0  0  0  0  0  0  0  0  0  0
   12.3923    3.3170    0.0000 C   0  0  0  0  0  0  0  0  0  0  0  0
   12.3923    2.3170    0.0000 C   0  0  0  0  0  0  0  0  0  0  0  0
   11.5263    3.8170    0.0000 C   0  0  0  0  0  0  0  0  0  0  0  0
   13.3923    3.3170    0.0000 C   0  0  0  0  0  0  0  0  0  0  0  0
   12.8923    4.1830    0.0000 C   0  0  0  0  0  0  0  0  0  0  0  0
   10.6603    2.3170    0.0000 C   0  0  0  0  0  0  0  0  0  0  0  0
    8.0622    1.8170    0.0000 C   0  0  0  0  0  0  0  0  0  0  0  0
    7.1962    2.3170    0.0000 C   0  0  0  0  0  0  0  0  0  0  0  0
    8.0622    0.8170    0.0000 C   0  0  0  0  0  0  0  0  0  0  0  0
    7.1962    0.3170    0.0000 C   0  0  0  0  0  0  0  0  0  0  0  0
    6.3301    1.8170    0.0000 C   0  0  0  0  0  0  0  0  0  0  0  0
    7.1962   -0.6830    0.0000 C   0  0  0  0  0  0  0  0  0  0  0  0
    5.4641    2.3170    0.0000 C   0  0  0  0  0  0  0  0  0  0  0  0
    6.3301   -1.1830    0.0000 C   0  0  0  0  0  0  0  0  0  0  0  0
    5.4641    3.3170    0.0000 C   0  0  0  0  0  0  0  0  0  0  0  0
    8.0622   -1.1830    0.0000 C   0  0  0  0  0  0  0  0  0  0  0  0
    4.5981    1.8170    0.0000 C   0  0  0  0  0  0  0  0  0  0  0  0
    7.1962   -2.6830    0.0000 C   0  0  0  0  0  0  0  0  0  0  0  0
    3.7320    3.3170    0.0000 C   0  0  0  0  0  0  0  0  0  0  0  0
    6.3301   -2.1830    0.0000 C   0  0  0  0  0  0  0  0  0  0  0  0
    4.5981    3.8170    0.0000 C   0  0  0  0  0  0  0  0  0  0  0  0
    8.0622   -2.1830    0.0000 C   0  0  0  0  0  0  0  0  0  0  0  0
    3.7320    2.3170    0.0000 C   0  0  0  0  0  0  0  0  0  0  0  0
    7.1962   -3.6830    0.0000 C   0  0  0  0  0  0  0  0  0  0  0  0
    2.8660    3.8170    0.0000 C   0  0  0  0  0  0  0  0  0  0  0  0
   12.6044    1.7344    0.0000 H   0  0  0  0  0  0  0  0  0  0  0  0
   13.0029    2.4247    0.0000 H   0  0  0  0  0  0  0  0  0  0  0  0
   11.9248    4.2919    0.0000 H   0  0  0  0  0  0  0  0  0  0  0  0
   11.1278    4.2919    0.0000 H   0  0  0  0  0  0  0  0  0  0  0  0
   13.3923    2.6970    0.0000 H   0  0  0  0  0  0  0  0  0  0  0  0
   13.4292    3.8730    0.0000 H   0  0  0  0  0  0  0  0  0  0  0  0
   14.0123    3.3170    0.0000 H   0  0  0  0  0  0  0  0  0  0  0  0
   13.3923    3.9370    0.0000 H   0  0  0  0  0  0  0  0  0  0  0  0
   13.2023    4.7200    0.0000 H   0  0  0  0  0  0  0  0  0  0  0  0
   12.3554    4.4930    0.0000 H   0  0  0  0  0  0  0  0  0  0  0  0
   11.5263    1.1970    0.0000 H   0  0  0  0  0  0  0  0  0  0  0  0
    9.7942    1.1970    0.0000 H   0  0  0  0  0  0  0  0  0  0  0  0
    7.1962    2.9370    0.0000 H   0  0  0  0  0  0  0  0  0  0  0  0
    8.5991    0.5070    0.0000 H   0  0  0  0  0  0  0  0  0  0  0  0
    6.3301    1.1970    0.0000 H   0  0  0  0  0  0  0  0  0  0  0  0
    6.6592    0.6270    0.0000 H   0  0  0  0  0  0  0  0  0  0  0  0
    5.7932   -0.8730    0.0000 H   0  0  0  0  0  0  0  0  0  0  0  0
    6.0010    3.6270    0.0000 H   0  0  0  0  0  0  0  0  0  0  0  0
    8.5991   -0.8730    0.0000 H   0  0  0  0  0  0  0  0  0  0  0  0
    4.5981    1.1970    0.0000 H   0  0  0  0  0  0  0  0  0  0  0  0
    4.5981    4.4370    0.0000 H   0  0  0  0  0  0  0  0  0  0  0  0
    5.7932   -2.4930    0.0000 H   0  0  0  0  0  0  0  0  0  0  0  0
    3.1951    2.0070    0.0000 H   0  0  0  0  0  0  0  0  0  0  0  0
    8.5991   -2.4930    0.0000 H   0  0  0  0  0  0  0  0  0  0  0  0
  1 34  1  0  0  0  0
  2 34  1  0  0  0  0
  3 34  1  0  0  0  0
  4 35  1  0  0  0  0
  5 35  1  0  0  0  0
  6 35  1  0  0  0  0
  7 12  1  0  0  0  0
  7 16  1  0  0  0  0
  7 46  1  0  0  0  0
  8 13  1  0  0  0  0
  8 16  2  0  0  0  0
  9 10  1  0  0  0  0
  9 16  1  0  0  0  0
  9 47  1  0  0  0  0
 10 17  2  0  0  0  0
 11 12  1  0  0  0  0
 11 13  1  0  0  0  0
 11 14  1  0  0  0  0
 11 15  1  0  0  0  0
 12 36  1  0  0  0  0
 12 37  1  0  0  0  0
 13 38  1  0  0  0  0
 13 39  1  0  0  0  0
 14 40  1  0  0  0  0
 14 42  1  0  0  0  0
 14 43  1  0  0  0  0
 15 41  1  0  0  0  0
 15 44  1  0  0  0  0
 15 45  1  0  0  0  0
 17 18  1  0  0  0  0
 17 19  1  0  0  0  0
 18 21  2  0  0  0  0
 18 48  1  0  0  0  0
 19 20  2  0  0  0  0
 19 49  1  0  0  0  0
 20 22  1  0  0  0  0
 20 51  1  0  0  0  0
 21 23  1  0  0  0  0
 21 50  1  0  0  0  0
 22 24  2  0  0  0  0
 22 26  1  0  0  0  0
 23 25  2  0  0  0  0
 23 27  1  0  0  0  0
 24 30  1  0  0  0  0
 24 52  1  0  0  0  0
 25 31  1  0  0  0  0
 25 53  1  0  0  0  0
 26 32  2  0  0  0  0
 26 54  1  0  0  0  0
 27 33  2  0  0  0  0
 27 55  1  0  0  0  0
 28 30  2  0  0  0  0
 28 32  1  0  0  0  0
 28 34  1  0  0  0  0
 29 31  2  0  0  0  0
 29 33  1  0  0  0  0
 29 35  1  0  0  0  0
 30 57  1  0  0  0  0
 31 56  1  0  0  0  0
 32 59  1  0  0  0  0
 33 58  1  0  0  0  0
M  END
> <PUBCHEM_COMPOUND_CID>
5281875

> <PUBCHEM_COMPOUND_CANONICALIZED>
1

> <PUBCHEM_CACTVS_COMPLEXITY>
763

> <PUBCHEM_CACTVS_HBOND_ACCEPTOR>
8

> <PUBCHEM_CACTVS_HBOND_DONOR>
2

> <PUBCHEM_CACTVS_ROTATABLE_BOND>
6

> <PUBCHEM_CACTVS_SUBSKEYS>
AAADceB7gcAAAAAAAAAAAAAAAAAAAAAAAAAwYIAAAAAAAAABQAAAHQAYAAAADgjBGBQzAILiAACgAyBiJAASAAEgAAANiIAYAJiIICKAWRCEIAAwiAIIiAcAgAAOQAAAAAAAAACAAAAAAAAAAAAAAAAAAA==

> <PUBCHEM_IUPAC_OPENEYE_NAME>
5,5-dimethyl-N-[[(E)-3-[4-(trifluoromethyl)phenyl]-1-[(E)-2-[4-(trifluoromethyl)phenyl]vinyl]prop-2-enylidene]amino]-4,6-dihydro-1H-pyrimidin-2-amine

> <PUBCHEM_IUPAC_CAS_NAME>
N-[[(1E,4E)-1,5-bis[4-(trifluoromethyl)phenyl]penta-1,4-dien-3-ylidene]amino]-5,5-dimethyl-4,6-dihydro-1H-pyrimidin-2-amine

> <PUBCHEM_IUPAC_NAME>
N-[[(1E,4E)-1,5-bis[4-(trifluoromethyl)phenyl]penta-1,4-dien-3-ylidene]amino]-5,5-dimethyl-4,6-dihydro-1H-pyrimidin-2-amine

> <PUBCHEM_IUPAC_SYSTEMATIC_NAME>
N-[[(1E,4E)-1,5-bis[4-(trifluoromethyl)phenyl]penta-1,4-dien-3-ylidene]amino]-5,5-dimethyl-4,6-dihydro-1H-pyrimidin-2-amine

> <PUBCHEM_IUPAC_TRADITIONAL_NAME>
(5,5-dimethyl-4,6-dihydro-1H-pyrimidin-2-yl)-[[(E)-3-[4-(trifluoromethyl)phenyl]-1-[(E)-2-[4-(trifluoromethyl)phenyl]vinyl]prop-2-enylidene]amino]amine

> <PUBCHEM_IUPAC_INCHI>
InChI=1S/C25H24F6N4/c1-23(2)15-32-22(33-16-23)35-34-21(13-7-17-3-9-19(10-4-17)24(26,27)28)14-8-18-5-11-20(12-6-18)25(29,30)31/h3-14H,15-16H2,1-2H3,(H2,32,33,35)/b13-7+,14-8+

> <PUBCHEM_IUPAC_INCHIKEY>
IQVNEKKDSLOHHK-FNCQTZNRSA-N

> <PUBCHEM_XLOGP3_AA>
6.4

> <PUBCHEM_EXACT_MASS>
494.190516

> <PUBCHEM_MOLECULAR_FORMULA>
C25H24F6N4

> <PUBCHEM_MOLECULAR_WEIGHT>
494.475279

> <PUBCHEM_OPENEYE_CAN_SMILES>
CC1(CNC(=NC1)NN=C(C=CC2=CC=C(C=C2)C(F)(F)F)C=CC3=CC=C(C=C3)C(F)(F)F)C

> <PUBCHEM_OPENEYE_ISO_SMILES>
CC1(CN=C(NC1)NN=C(/C=C/C2=CC=C(C=C2)C(F)(F)F)/C=C/C3=CC=C(C=C3)C(F)(F)F)C

> <PUBCHEM_CACTVS_TPSA>
48.8

> <PUBCHEM_MONOISOTOPIC_WEIGHT>
494.190516

> <PUBCHEM_TOTAL_CHARGE>
0

> <PUBCHEM_HEAVY_ATOM_COUNT>
35

> <PUBCHEM_ATOM_DEF_STEREO_COUNT>
0

> <PUBCHEM_ATOM_UDEF_STEREO_COUNT>
0

> <PUBCHEM_BOND_DEF_STEREO_COUNT>
2

> <PUBCHEM_BOND_UDEF_STEREO_COUNT>
0

> <PUBCHEM_ISOTOPIC_ATOM_COUNT>
0

> <PUBCHEM_COMPONENT_COUNT>
1

> <PUBCHEM_CACTVS_TAUTO_COUNT>
3

> <PUBCHEM_COORDINATE_TYPE>
1
5
255

> <PUBCHEM_BONDANNOTATIONS>
22  24  8
22  26  8
23  25  8
23  27  8
24  30  8
25  31  8
26  32  8
27  33  8
28  30  8
28  32  8
29  31  8
29  33  8

$$$$

