854337
  -OEChem-06241222483D

 30 31  0     1  0  0  0  0  0999 V2000
   -1.4483   -1.5396    1.5466 S   0  0  0  0  0  0  0  0  0  0  0  0
   -5.2950    0.5479    0.0943 O   0  0  0  0  0  0  0  0  0  0  0  0
   -3.7063    1.7135   -1.0518 O   0  0  0  0  0  0  0  0  0  0  0  0
    4.4669    0.5381   -0.4306 O   0  0  0  0  0  0  0  0  0  0  0  0
    2.6104    2.0149    1.0181 O   0  0  0  0  0  0  0  0  0  0  0  0
   -1.8700   -0.1657   -0.6989 N   0  0  0  0  0  0  0  0  0  0  0  0
   -0.9309   -1.1599   -0.1617 C   0  0  1  0  0  0  0  0  0  0  0  0
   -3.1773   -0.4388   -0.0999 C   0  0  1  0  0  0  0  0  0  0  0  0
   -2.9771   -0.5850    1.4022 C   0  0  0  0  0  0  0  0  0  0  0  0
    0.5079   -0.7046   -0.2308 C   0  0  0  0  0  0  0  0  0  0  0  0
   -4.0532    0.7275   -0.4186 C   0  0  0  0  0  0  0  0  0  0  0  0
    0.9067    0.4582    0.4310 C   0  0  0  0  0  0  0  0  0  0  0  0
    1.4421   -1.4450   -0.9576 C   0  0  0  0  0  0  0  0  0  0  0  0
    2.2349    0.8790    0.3664 C   0  0  0  0  0  0  0  0  0  0  0  0
    2.7704   -1.0242   -1.0223 C   0  0  0  0  0  0  0  0  0  0  0  0
    3.1668    0.1378   -0.3602 C   0  0  0  0  0  0  0  0  0  0  0  0
    5.3520    0.0459    0.5738 C   0  0  0  0  0  0  0  0  0  0  0  0
   -1.0521   -2.0856   -0.7368 H   0  0  0  0  0  0  0  0  0  0  0  0
   -3.6121   -1.3386   -0.5531 H   0  0  0  0  0  0  0  0  0  0  0  0
   -2.8511    0.3799    1.9054 H   0  0  0  0  0  0  0  0  0  0  0  0
   -3.8067   -1.1188    1.8751 H   0  0  0  0  0  0  0  0  0  0  0  0
   -1.5743    0.7648   -0.4021 H   0  0  0  0  0  0  0  0  0  0  0  0
    0.1955    1.0494    1.0030 H   0  0  0  0  0  0  0  0  0  0  0  0
    1.1489   -2.3523   -1.4790 H   0  0  0  0  0  0  0  0  0  0  0  0
    3.4908   -1.6061   -1.5908 H   0  0  0  0  0  0  0  0  0  0  0  0
   -5.8861    1.3055   -0.1030 H   0  0  0  0  0  0  0  0  0  0  0  0
    3.5515    2.1796    0.8352 H   0  0  0  0  0  0  0  0  0  0  0  0
    5.4367   -1.0433    0.5068 H   0  0  0  0  0  0  0  0  0  0  0  0
    5.0070    0.3343    1.5718 H   0  0  0  0  0  0  0  0  0  0  0  0
    6.3393    0.4844    0.4050 H   0  0  0  0  0  0  0  0  0  0  0  0
  1  7  1  0  0  0  0
  1  9  1  0  0  0  0
  2 11  1  0  0  0  0
  2 26  1  0  0  0  0
  3 11  2  0  0  0  0
  4 16  1  0  0  0  0
  4 17  1  0  0  0  0
  5 14  1  0  0  0  0
  5 27  1  0  0  0  0
  6  7  1  0  0  0  0
  6  8  1  0  0  0  0
  6 22  1  0  0  0  0
  7 10  1  0  0  0  0
  7 18  1  0  0  0  0
  8  9  1  0  0  0  0
  8 11  1  0  0  0  0
  8 19  1  0  0  0  0
  9 20  1  0  0  0  0
  9 21  1  0  0  0  0
 10 12  2  0  0  0  0
 10 13  1  0  0  0  0
 12 14  1  0  0  0  0
 12 23  1  0  0  0  0
 13 15  2  0  0  0  0
 13 24  1  0  0  0  0
 14 16  2  0  0  0  0
 15 16  1  0  0  0  0
 15 25  1  0  0  0  0
 17 28  1  0  0  0  0
 17 29  1  0  0  0  0
 17 30  1  0  0  0  0
M  END
> <PUBCHEM_COMPOUND_CID>
854337

> <PUBCHEM_CONFORMER_RMSD>
0.6

> <PUBCHEM_CONFORMER_DIVERSEORDER>
1
35
21
15
23
17
24
31
26
8
36
18
14
5
30
13
12
27
29
2
34
11
33
28
6
25
19
22
3
32
9
20
7
10
4
16

> <PUBCHEM_MMFF94_PARTIAL_CHARGES>
23
1 -0.46
10 -0.14
11 0.66
12 -0.15
13 -0.15
14 0.08
15 -0.15
16 0.08
17 0.28
2 -0.65
22 0.36
23 0.15
24 0.15
25 0.15
26 0.5
27 0.45
3 -0.57
4 -0.36
5 -0.53
6 -0.9
7 0.64
8 0.33
9 0.23

> <PUBCHEM_EFFECTIVE_ROTOR_COUNT>
4

> <PUBCHEM_PHARMACOPHORE_FEATURES>
9
1 2 acceptor
1 3 acceptor
1 4 acceptor
1 5 donor
1 6 cation
1 6 donor
3 2 3 11 anion
5 1 6 7 8 9 rings
6 10 12 13 14 15 16 rings

> <PUBCHEM_HEAVY_ATOM_COUNT>
17

> <PUBCHEM_ATOM_DEF_STEREO_COUNT>
2

> <PUBCHEM_ATOM_UDEF_STEREO_COUNT>
0

> <PUBCHEM_BOND_DEF_STEREO_COUNT>
0

> <PUBCHEM_BOND_UDEF_STEREO_COUNT>
0

> <PUBCHEM_ISOTOPIC_ATOM_COUNT>
0

> <PUBCHEM_COMPONENT_COUNT>
1

> <PUBCHEM_CACTVS_TAUTO_COUNT>
3

> <PUBCHEM_CONFORMER_ID>
000D094100000001

> <PUBCHEM_MMFF94_ENERGY>
47.0067

> <PUBCHEM_FEATURE_SELFOVERLAP>
45.725

> <PUBCHEM_SHAPE_FINGERPRINT>
10608611 8 18337673018640328309
11401426 45 17676491631626747422
11471102 20 18113333128812127070
11543360 7 17822302266790941783
12119455 92 18333734615334735790
12236239 1 16081083801140074327
12251169 10 13686295773054030379
124424 183 18412824668690526954
12500047 106 18130787832626688394
12507557 5 18041279880917027930
12596602 18 15482378781966850261
13583140 156 18340204102844955642
13922767 16 18187366502443078008
14993402 34 16443062807149022750
15375358 24 18410570691128001390
16945 1 17895740825911105286
1813 80 13470410028200818586
18186145 218 17967803951249822999
18219364 16 18260818263886768363
192875 21 16588021286394453664
19422 9 15338542843737003218
19862831 5 16225766307135202303
200 152 16515684450662432195
20233049 118 18413108364218258908
20279233 1 18412255134172640423
20281475 54 8790620211897617542
20300324 65 13984657053359657747
20645477 56 18412823582253711403
20645477 70 17968933214359002854
21618674 57 18130793369171400746
21639500 275 17676488302483741872
221357 26 18114184189620192741
22892500 29 18259705592653134260
231179 274 18407760343802522166
23402539 116 18272658930317939727
23402655 69 17821729472366263469
23493267 7 18131633370021493168
23557571 272 18271515395824135851
23559900 14 18129932477701230822
25 1 18334294292354239903
276578 36 17203611522836823947
351380 180 18410577292476800593
3524813 1 18411427219371367325
3545911 37 18040996232913861567
4028521 119 18411140277185852645
4072396 5 18187655734431717458
603831 33 15357695331381186351
77492 1 16153415173452200579
9971528 1 17240474824112942820

> <PUBCHEM_SHAPE_MULTIPOLES>
325.24
9.76
1.55
1.21
0.16
0.17
0.22
3.31
0.11
-0.37
0.15
-0.12
-0.23
1.35

> <PUBCHEM_SHAPE_SELFOVERLAP>
672.703

> <PUBCHEM_SHAPE_VOLUME>
188.4

> <PUBCHEM_COORDINATE_TYPE>
2
5
10

$$$$

