6857704
  -OEChem-07051213152D

 82 85  0     1  0  0  0  0  0999 V2000
    6.8671   -2.0000    0.0000 O   0  0  0  0  0  0  0  0  0  0  0  0
    9.4651   -2.5000    0.0000 O   0  0  0  0  0  0  0  0  0  0  0  0
   10.3312   -4.0000    0.0000 O   0  0  0  0  0  0  0  0  0  0  0  0
    7.7331   -0.5000    0.0000 O   0  0  0  0  0  0  0  0  0  0  0  0
    6.8671    2.0000    0.0000 O   0  0  0  0  0  0  0  0  0  0  0  0
   12.9292   -2.5000    0.0000 O   0  0  0  0  0  0  0  0  0  0  0  0
    6.8671   -4.0000    0.0000 O   0  0  0  0  0  0  0  0  0  0  0  0
    8.5991   -5.0000    0.0000 O   0  0  0  0  0  0  0  0  0  0  0  0
    5.1350   -1.0000    0.0000 O   0  0  0  0  0  0  0  0  0  0  0  0
    5.1350    1.0000    0.0000 O   0  0  0  0  0  0  0  0  0  0  0  0
   12.0632   -5.0000    0.0000 O   0  0  0  0  0  0  0  0  0  0  0  0
   10.3312   -2.0000    0.0000 O   0  0  0  0  0  0  0  0  0  0  0  0
   12.0632   -1.0000    0.0000 O   0  0  0  0  0  0  0  0  0  0  0  0
    5.1350    2.0000    0.0000 O   0  0  0  0  0  0  0  0  0  0  0  0
    9.4651    0.5000    0.0000 O   0  0  0  0  0  0  0  0  0  0  0  0
   14.6613   -3.5000    0.0000 O   0  0  0  0  0  0  0  0  0  0  0  0
    6.8671    4.0000    0.0000 O   0  0  0  0  0  0  0  0  0  0  0  0
    5.1350    5.0000    0.0000 O   0  0  0  0  0  0  0  0  0  0  0  0
    2.5369    2.5000    0.0000 O   0  0  0  0  0  0  0  0  0  0  0  0
    3.4030    1.0000    0.0000 O   0  0  0  0  0  0  0  0  0  0  0  0
    7.7331   -2.5000    0.0000 C   0  0  2  0  0  0  0  0  0  0  0  0
    7.7331   -3.5000    0.0000 C   0  0  2  0  0  0  0  0  0  0  0  0
    8.5991   -4.0000    0.0000 C   0  0  2  0  0  0  0  0  0  0  0  0
    8.5991   -2.0000    0.0000 C   0  0  2  0  0  0  0  0  0  0  0  0
    9.4651   -3.5000    0.0000 C   0  0  1  0  0  0  0  0  0  0  0  0
    6.8671   -1.0000    0.0000 C   0  0  2  0  0  0  0  0  0  0  0  0
    6.8671    1.0000    0.0000 C   0  0  1  0  0  0  0  0  0  0  0  0
    6.0010   -0.5000    0.0000 C   0  0  1  0  0  0  0  0  0  0  0  0
    6.0010    0.5000    0.0000 C   0  0  1  0  0  0  0  0  0  0  0  0
   11.1972   -3.5000    0.0000 C   0  0  1  0  0  0  0  0  0  0  0  0
    7.7331    0.5000    0.0000 C   0  0  1  0  0  0  0  0  0  0  0  0
   12.0632   -4.0000    0.0000 C   0  0  1  0  0  0  0  0  0  0  0  0
   11.1972   -2.5000    0.0000 C   0  0  2  0  0  0  0  0  0  0  0  0
   12.9292   -3.5000    0.0000 C   0  0  1  0  0  0  0  0  0  0  0  0
    8.5991   -1.0000    0.0000 C   0  0  0  0  0  0  0  0  0  0  0  0
   12.0632   -2.0000    0.0000 C   0  0  1  0  0  0  0  0  0  0  0  0
    8.5991    1.0000    0.0000 C   0  0  0  0  0  0  0  0  0  0  0  0
    6.0010    2.5000    0.0000 C   0  0  2  0  0  0  0  0  0  0  0  0
   13.7953   -4.0000    0.0000 C   0  0  0  0  0  0  0  0  0  0  0  0
    6.0010    3.5000    0.0000 C   0  0  1  0  0  0  0  0  0  0  0  0
    5.1350    4.0000    0.0000 C   0  0  2  0  0  0  0  0  0  0  0  0
    4.2690    3.5000    0.0000 C   0  0  0  0  0  0  0  0  0  0  0  0
    4.2690    2.5000    0.0000 C   0  0  0  0  0  0  0  0  0  0  0  0
    3.4030    2.0000    0.0000 C   0  0  0  0  0  0  0  0  0  0  0  0
    7.7331   -1.8800    0.0000 H   0  0  0  0  0  0  0  0  0  0  0  0
    7.7331   -4.1200    0.0000 H   0  0  0  0  0  0  0  0  0  0  0  0
    8.0622   -4.3100    0.0000 H   0  0  0  0  0  0  0  0  0  0  0  0
    9.1360   -1.6900    0.0000 H   0  0  0  0  0  0  0  0  0  0  0  0
    9.4651   -4.1200    0.0000 H   0  0  0  0  0  0  0  0  0  0  0  0
    6.3301   -1.3100    0.0000 H   0  0  0  0  0  0  0  0  0  0  0  0
    6.3301    1.3100    0.0000 H   0  0  0  0  0  0  0  0  0  0  0  0
    5.4641   -0.1900    0.0000 H   0  0  0  0  0  0  0  0  0  0  0  0
    5.4641    0.1900    0.0000 H   0  0  0  0  0  0  0  0  0  0  0  0
   10.6603   -3.1900    0.0000 H   0  0  0  0  0  0  0  0  0  0  0  0
    8.2700    0.1900    0.0000 H   0  0  0  0  0  0  0  0  0  0  0  0
   12.6002   -4.3100    0.0000 H   0  0  0  0  0  0  0  0  0  0  0  0
   10.6603   -2.8100    0.0000 H   0  0  0  0  0  0  0  0  0  0  0  0
   13.4662   -3.1900    0.0000 H   0  0  0  0  0  0  0  0  0  0  0  0
    9.2191   -1.0000    0.0000 H   0  0  0  0  0  0  0  0  0  0  0  0
    8.5991   -0.3800    0.0000 H   0  0  0  0  0  0  0  0  0  0  0  0
    7.9791   -1.0000    0.0000 H   0  0  0  0  0  0  0  0  0  0  0  0
   11.5263   -1.6900    0.0000 H   0  0  0  0  0  0  0  0  0  0  0  0
    8.9976    1.4750    0.0000 H   0  0  0  0  0  0  0  0  0  0  0  0
    8.2006    1.4750    0.0000 H   0  0  0  0  0  0  0  0  0  0  0  0
    6.8671   -4.6200    0.0000 H   0  0  0  0  0  0  0  0  0  0  0  0
    6.5380    2.8100    0.0000 H   0  0  0  0  0  0  0  0  0  0  0  0
    9.1360   -5.3100    0.0000 H   0  0  0  0  0  0  0  0  0  0  0  0
   13.3967   -4.4750    0.0000 H   0  0  0  0  0  0  0  0  0  0  0  0
   14.1938   -4.4750    0.0000 H   0  0  0  0  0  0  0  0  0  0  0  0
    5.1350   -1.6200    0.0000 H   0  0  0  0  0  0  0  0  0  0  0  0
    4.5981    0.6900    0.0000 H   0  0  0  0  0  0  0  0  0  0  0  0
    6.5380    3.1900    0.0000 H   0  0  0  0  0  0  0  0  0  0  0  0
   12.6002   -5.3100    0.0000 H   0  0  0  0  0  0  0  0  0  0  0  0
   10.3312   -1.3800    0.0000 H   0  0  0  0  0  0  0  0  0  0  0  0
    5.6720    4.3100    0.0000 H   0  0  0  0  0  0  0  0  0  0  0  0
   12.6002   -0.6900    0.0000 H   0  0  0  0  0  0  0  0  0  0  0  0
   10.0021    0.8100    0.0000 H   0  0  0  0  0  0  0  0  0  0  0  0
    3.7320    3.8100    0.0000 H   0  0  0  0  0  0  0  0  0  0  0  0
   15.1982   -3.8100    0.0000 H   0  0  0  0  0  0  0  0  0  0  0  0
    6.8671    4.6200    0.0000 H   0  0  0  0  0  0  0  0  0  0  0  0
    4.5981    5.3100    0.0000 H   0  0  0  0  0  0  0  0  0  0  0  0
    2.0000    2.1900    0.0000 H   0  0  0  0  0  0  0  0  0  0  0  0
 21  1  1  1  0  0  0
 26  1  1  1  0  0  0
  2 24  1  0  0  0  0
  2 25  1  0  0  0  0
 25  3  1  1  0  0  0
 30  3  1  6  0  0  0
  4 26  1  0  0  0  0
  4 31  1  0  0  0  0
 27  5  1  6  0  0  0
 38  5  1  6  0  0  0
  6 34  1  0  0  0  0
  6 36  1  0  0  0  0
 22  7  1  6  0  0  0
  7 65  1  0  0  0  0
 23  8  1  6  0  0  0
  8 67  1  0  0  0  0
 28  9  1  6  0  0  0
  9 70  1  0  0  0  0
 29 10  1  1  0  0  0
 10 71  1  0  0  0  0
 32 11  1  1  0  0  0
 11 73  1  0  0  0  0
 33 12  1  1  0  0  0
 12 74  1  0  0  0  0
 36 13  1  6  0  0  0
 13 76  1  0  0  0  0
 14 38  1  0  0  0  0
 14 43  1  0  0  0  0
 15 37  1  0  0  0  0
 15 77  1  0  0  0  0
 16 39  1  0  0  0  0
 16 79  1  0  0  0  0
 40 17  1  1  0  0  0
 17 80  1  0  0  0  0
 41 18  1  6  0  0  0
 18 81  1  0  0  0  0
 19 44  1  0  0  0  0
 19 82  1  0  0  0  0
 20 44  2  0  0  0  0
 21 22  1  0  0  0  0
 21 24  1  0  0  0  0
 21 45  1  0  0  0  0
 22 23  1  0  0  0  0
 22 46  1  0  0  0  0
 23 25  1  0  0  0  0
 23 47  1  0  0  0  0
 24 35  1  6  0  0  0
 24 48  1  0  0  0  0
 25 49  1  0  0  0  0
 26 28  1  0  0  0  0
 26 50  1  0  0  0  0
 27 29  1  0  0  0  0
 27 31  1  0  0  0  0
 27 51  1  0  0  0  0
 28 29  1  0  0  0  0
 28 52  1  0  0  0  0
 29 53  1  0  0  0  0
 30 32  1  0  0  0  0
 30 33  1  0  0  0  0
 30 54  1  0  0  0  0
 31 37  1  1  0  0  0
 31 55  1  0  0  0  0
 32 34  1  0  0  0  0
 32 56  1  0  0  0  0
 33 36  1  0  0  0  0
 33 57  1  0  0  0  0
 34 39  1  6  0  0  0
 34 58  1  0  0  0  0
 35 59  1  0  0  0  0
 35 60  1  0  0  0  0
 35 61  1  0  0  0  0
 36 62  1  0  0  0  0
 37 63  1  0  0  0  0
 37 64  1  0  0  0  0
 38 40  1  0  0  0  0
 38 66  1  0  0  0  0
 39 68  1  0  0  0  0
 39 69  1  0  0  0  0
 40 41  1  0  0  0  0
 40 72  1  0  0  0  0
 41 42  1  0  0  0  0
 41 75  1  0  0  0  0
 42 43  2  0  0  0  0
 42 78  1  0  0  0  0
 43 44  1  0  0  0  0
M  END
> <PUBCHEM_COMPOUND_CID>
6857704

> <PUBCHEM_COMPOUND_CANONICALIZED>
1

> <PUBCHEM_CACTVS_COMPLEXITY>
999

> <PUBCHEM_CACTVS_HBOND_ACCEPTOR>
20

> <PUBCHEM_CACTVS_HBOND_DONOR>
12

> <PUBCHEM_CACTVS_ROTATABLE_BOND>
9

> <PUBCHEM_CACTVS_SUBSKEYS>
AAADcfB4PgAAAAAAAAAAAAAAAAAAAAAAAAAkSJEAAAAAAAAAAAAAGgAACAAACBSwgAMCCAAABgCIACDSCAIACAAgIAAACABAAEgRFAIAAAQiUAAFwAAPEYPAYAwAAAAAAAAAAAAAAAAAAAAAAAAAAAAAAA==

> <PUBCHEM_IUPAC_OPENEYE_NAME>
(2R,3R,4S)-2-[(2R,3S,4R,5R,6S)-6-[(2S,3R,4S,5R,6S)-4,5-dihydroxy-2-methyl-6-[(2R,3R,4S,5R,6R)-2,3,5-trihydroxy-6-(hydroxymethyl)tetrahydropyran-4-yl]oxy-tetrahydropyran-3-yl]oxy-4,5-dihydroxy-2-(hydroxymethyl)tetrahydropyran-3-yl]oxy-3,4-dihydroxy-3,4-dihydro-2H-pyran-6-carboxylic acid

> <PUBCHEM_IUPAC_CAS_NAME>
(2R,3R,4S)-2-[[(2R,3S,4R,5R,6S)-6-[[(2S,3R,4S,5R,6S)-4,5-dihydroxy-2-methyl-6-[[(2R,3R,4S,5R,6R)-2,3,5-trihydroxy-6-(hydroxymethyl)-4-oxanyl]oxy]-3-oxanyl]oxy]-4,5-dihydroxy-2-(hydroxymethyl)-3-oxanyl]oxy]-3,4-dihydroxy-3,4-dihydro-2H-pyran-6-carboxylic acid

> <PUBCHEM_IUPAC_NAME>
(2R,3R,4S)-2-[(2R,3S,4R,5R,6S)-6-[(2S,3R,4S,5R,6S)-4,5-dihydroxy-2-methyl-6-[(2R,3R,4S,5R,6R)-2,3,5-trihydroxy-6-(hydroxymethyl)oxan-4-yl]oxyoxan-3-yl]oxy-4,5-dihydroxy-2-(hydroxymethyl)oxan-3-yl]oxy-3,4-dihydroxy-3,4-dihydro-2H-pyran-6-carboxylic acid

> <PUBCHEM_IUPAC_SYSTEMATIC_NAME>
(2R,3R,4S)-2-[(2R,3S,4R,5R,6S)-2-(hydroxymethyl)-6-[(2S,3R,4S,5R,6S)-6-[(2R,3R,4S,5R,6R)-2-(hydroxymethyl)-3,5,6-tris(oxidanyl)oxan-4-yl]oxy-2-methyl-4,5-bis(oxidanyl)oxan-3-yl]oxy-4,5-bis(oxidanyl)oxan-3-yl]oxy-3,4-bis(oxidanyl)-3,4-dihydro-2H-pyran-6-carboxylic acid

> <PUBCHEM_IUPAC_TRADITIONAL_NAME>
(2R,3R,4S)-2-[(2R,3S,4R,5R,6S)-6-[(2S,3R,4S,5R,6S)-4,5-dihydroxy-2-methyl-6-[(2R,3R,4S,5R,6R)-2,3,5-trihydroxy-6-methylol-tetrahydropyran-4-yl]oxy-tetrahydropyran-3-yl]oxy-4,5-dihydroxy-2-methylol-tetrahydropyran-3-yl]oxy-3,4-dihydroxy-3,4-dihydro-2H-pyran-6-carboxylic acid

> <PUBCHEM_IUPAC_INCHI>
InChI=1S/C24H38O20/c1-5-17(12(30)14(32)23(38-5)44-19-11(29)8(3-25)39-21(37)16(19)34)42-24-15(33)13(31)18(9(4-26)41-24)43-22-10(28)6(27)2-7(40-22)20(35)36/h2,5-6,8-19,21-34,37H,3-4H2,1H3,(H,35,36)/t5-,6-,8+,9+,10+,11+,12-,13+,14+,15+,16+,17-,18+,19-,21+,22-,23-,24-/m0/s1

> <PUBCHEM_IUPAC_INCHIKEY>
JMDPLHPAGLYHCI-DPADXCMISA-N

> <PUBCHEM_XLOGP3_AA>
-6.5

> <PUBCHEM_EXACT_MASS>
646.195644

> <PUBCHEM_MOLECULAR_FORMULA>
C24H38O20

> <PUBCHEM_MOLECULAR_WEIGHT>
646.54652

> <PUBCHEM_OPENEYE_CAN_SMILES>
CC1C(C(C(C(O1)OC2C(C(OC(C2O)O)CO)O)O)O)OC3C(C(C(C(O3)CO)OC4C(C(C=C(O4)C(=O)O)O)O)O)O

> <PUBCHEM_OPENEYE_ISO_SMILES>
C[C@H]1[C@@H]([C@H]([C@H]([C@@H](O1)O[C@H]2[C@@H]([C@H](O[C@H]([C@@H]2O)O)CO)O)O)O)O[C@H]3[C@@H]([C@H]([C@@H]([C@H](O3)CO)O[C@H]4[C@@H]([C@H](C=C(O4)C(=O)O)O)O)O)O

> <PUBCHEM_CACTVS_TPSA>
324

> <PUBCHEM_MONOISOTOPIC_WEIGHT>
646.195644

> <PUBCHEM_TOTAL_CHARGE>
0

> <PUBCHEM_HEAVY_ATOM_COUNT>
44

> <PUBCHEM_ATOM_DEF_STEREO_COUNT>
18

> <PUBCHEM_ATOM_UDEF_STEREO_COUNT>
0

> <PUBCHEM_BOND_DEF_STEREO_COUNT>
0

> <PUBCHEM_BOND_UDEF_STEREO_COUNT>
0

> <PUBCHEM_ISOTOPIC_ATOM_COUNT>
0

> <PUBCHEM_COMPONENT_COUNT>
1

> <PUBCHEM_CACTVS_TAUTO_COUNT>
1

> <PUBCHEM_COORDINATE_TYPE>
1
5
255

> <PUBCHEM_BONDANNOTATIONS>
21  1  5
26  1  5
29  10  5
32  11  5
33  12  5
36  13  6
40  17  5
41  18  6
24  35  6
25  3  5
30  3  6
31  37  5
34  39  6
27  5  6
38  5  6
22  7  6
23  8  6
28  9  6

$$$$

