9831416
  -OEChem-07051213082D

 62 61  0     0  0  0  0  0  0999 V2000
   11.5263   -3.3100    0.0000 O   0  0  0  0  0  0  0  0  0  0  0  0
   10.6603   -4.8100    0.0000 O   0  0  0  0  0  0  0  0  0  0  0  0
    9.7942   -2.3100    0.0000 C   0  0  0  0  0  0  0  0  0  0  0  0
    9.7942   -3.3100    0.0000 C   0  0  0  0  0  0  0  0  0  0  0  0
    9.7942   -0.3100    0.0000 C   0  0  0  0  0  0  0  0  0  0  0  0
   10.6603   -1.8100    0.0000 C   0  0  0  0  0  0  0  0  0  0  0  0
   10.6603   -0.8100    0.0000 C   0  0  0  0  0  0  0  0  0  0  0  0
    8.0622    0.6900    0.0000 C   0  0  0  0  0  0  0  0  0  0  0  0
    9.7942    0.6900    0.0000 C   0  0  0  0  0  0  0  0  0  0  0  0
    6.3301   -0.3100    0.0000 C   0  0  0  0  0  0  0  0  0  0  0  0
    8.9282    1.1900    0.0000 C   0  0  0  0  0  0  0  0  0  0  0  0
    4.5981    0.6900    0.0000 C   0  0  0  0  0  0  0  0  0  0  0  0
    8.0622   -0.3100    0.0000 C   0  0  0  0  0  0  0  0  0  0  0  0
    7.1962   -0.8100    0.0000 C   0  0  0  0  0  0  0  0  0  0  0  0
   10.6603   -3.8100    0.0000 C   0  0  0  0  0  0  0  0  0  0  0  0
    5.4641   -0.8100    0.0000 C   0  0  0  0  0  0  0  0  0  0  0  0
    4.5981    2.6900    0.0000 C   0  0  0  0  0  0  0  0  0  0  0  0
    4.5981   -0.3100    0.0000 C   0  0  0  0  0  0  0  0  0  0  0  0
    3.7320    1.1900    0.0000 C   0  0  0  0  0  0  0  0  0  0  0  0
    3.7320    2.1900    0.0000 C   0  0  0  0  0  0  0  0  0  0  0  0
    4.5981    3.6900    0.0000 C   0  0  0  0  0  0  0  0  0  0  0  0
    2.8660    3.6900    0.0000 C   0  0  0  0  0  0  0  0  0  0  0  0
    3.7320    4.1900    0.0000 C   0  0  0  0  0  0  0  0  0  0  0  0
   12.3923   -3.8100    0.0000 C   0  0  0  0  0  0  0  0  0  0  0  0
    2.0000    4.1900    0.0000 C   0  0  0  0  0  0  0  0  0  0  0  0
   13.2583   -3.3100    0.0000 C   0  0  0  0  0  0  0  0  0  0  0  0
    9.5822   -1.7274    0.0000 H   0  0  0  0  0  0  0  0  0  0  0  0
    9.1836   -2.4177    0.0000 H   0  0  0  0  0  0  0  0  0  0  0  0
    9.1836   -3.2023    0.0000 H   0  0  0  0  0  0  0  0  0  0  0  0
    9.5822   -3.8926    0.0000 H   0  0  0  0  0  0  0  0  0  0  0  0
    9.1836   -0.2023    0.0000 H   0  0  0  0  0  0  0  0  0  0  0  0
    9.5822   -0.8926    0.0000 H   0  0  0  0  0  0  0  0  0  0  0  0
   11.1972   -2.1200    0.0000 H   0  0  0  0  0  0  0  0  0  0  0  0
   11.1972   -0.5000    0.0000 H   0  0  0  0  0  0  0  0  0  0  0  0
    7.8501    1.2726    0.0000 H   0  0  0  0  0  0  0  0  0  0  0  0
    7.4516    0.5823    0.0000 H   0  0  0  0  0  0  0  0  0  0  0  0
   10.3312    1.0000    0.0000 H   0  0  0  0  0  0  0  0  0  0  0  0
    6.7287    0.1649    0.0000 H   0  0  0  0  0  0  0  0  0  0  0  0
    5.9316    0.1649    0.0000 H   0  0  0  0  0  0  0  0  0  0  0  0
    8.9282    1.8100    0.0000 H   0  0  0  0  0  0  0  0  0  0  0  0
    5.2087    0.5823    0.0000 H   0  0  0  0  0  0  0  0  0  0  0  0
    4.8101    1.2726    0.0000 H   0  0  0  0  0  0  0  0  0  0  0  0
    8.5991   -0.6200    0.0000 H   0  0  0  0  0  0  0  0  0  0  0  0
    7.1962   -1.4300    0.0000 H   0  0  0  0  0  0  0  0  0  0  0  0
    4.8101    2.1074    0.0000 H   0  0  0  0  0  0  0  0  0  0  0  0
    5.2087    2.7977    0.0000 H   0  0  0  0  0  0  0  0  0  0  0  0
    5.4641   -1.4300    0.0000 H   0  0  0  0  0  0  0  0  0  0  0  0
    4.0611   -0.6200    0.0000 H   0  0  0  0  0  0  0  0  0  0  0  0
    3.1951    0.8800    0.0000 H   0  0  0  0  0  0  0  0  0  0  0  0
    3.1951    2.5000    0.0000 H   0  0  0  0  0  0  0  0  0  0  0  0
    5.1350    4.0000    0.0000 H   0  0  0  0  0  0  0  0  0  0  0  0
    2.4675    3.2151    0.0000 H   0  0  0  0  0  0  0  0  0  0  0  0
    3.2646    3.2151    0.0000 H   0  0  0  0  0  0  0  0  0  0  0  0
    3.7320    4.8100    0.0000 H   0  0  0  0  0  0  0  0  0  0  0  0
   11.9938   -4.2850    0.0000 H   0  0  0  0  0  0  0  0  0  0  0  0
   12.7908   -4.2850    0.0000 H   0  0  0  0  0  0  0  0  0  0  0  0
    2.3100    4.7269    0.0000 H   0  0  0  0  0  0  0  0  0  0  0  0
    1.4631    4.5000    0.0000 H   0  0  0  0  0  0  0  0  0  0  0  0
    1.6900    3.6531    0.0000 H   0  0  0  0  0  0  0  0  0  0  0  0
   13.5683   -3.8469    0.0000 H   0  0  0  0  0  0  0  0  0  0  0  0
   13.7953   -3.0000    0.0000 H   0  0  0  0  0  0  0  0  0  0  0  0
   12.9483   -2.7731    0.0000 H   0  0  0  0  0  0  0  0  0  0  0  0
  1 15  1  0  0  0  0
  1 24  1  0  0  0  0
  2 15  2  0  0  0  0
  3  4  1  0  0  0  0
  3  6  1  0  0  0  0
  3 27  1  0  0  0  0
  3 28  1  0  0  0  0
  4 15  1  0  0  0  0
  4 29  1  0  0  0  0
  4 30  1  0  0  0  0
  5  7  1  0  0  0  0
  5  9  1  0  0  0  0
  5 31  1  0  0  0  0
  5 32  1  0  0  0  0
  6  7  2  0  0  0  0
  6 33  1  0  0  0  0
  7 34  1  0  0  0  0
  8 11  1  0  0  0  0
  8 13  1  0  0  0  0
  8 35  1  0  0  0  0
  8 36  1  0  0  0  0
  9 11  2  0  0  0  0
  9 37  1  0  0  0  0
 10 14  1  0  0  0  0
 10 16  1  0  0  0  0
 10 38  1  0  0  0  0
 10 39  1  0  0  0  0
 11 40  1  0  0  0  0
 12 18  1  0  0  0  0
 12 19  1  0  0  0  0
 12 41  1  0  0  0  0
 12 42  1  0  0  0  0
 13 14  2  0  0  0  0
 13 43  1  0  0  0  0
 14 44  1  0  0  0  0
 16 18  2  0  0  0  0
 16 47  1  0  0  0  0
 17 20  1  0  0  0  0
 17 21  1  0  0  0  0
 17 45  1  0  0  0  0
 17 46  1  0  0  0  0
 18 48  1  0  0  0  0
 19 20  2  0  0  0  0
 19 49  1  0  0  0  0
 20 50  1  0  0  0  0
 21 23  2  0  0  0  0
 21 51  1  0  0  0  0
 22 23  1  0  0  0  0
 22 25  1  0  0  0  0
 22 52  1  0  0  0  0
 22 53  1  0  0  0  0
 23 54  1  0  0  0  0
 24 26  1  0  0  0  0
 24 55  1  0  0  0  0
 24 56  1  0  0  0  0
 25 57  1  0  0  0  0
 25 58  1  0  0  0  0
 25 59  1  0  0  0  0
 26 60  1  0  0  0  0
 26 61  1  0  0  0  0
 26 62  1  0  0  0  0
M  END
> <PUBCHEM_COMPOUND_CID>
9831416

> <PUBCHEM_COMPOUND_CANONICALIZED>
1

> <PUBCHEM_CACTVS_COMPLEXITY>
490

> <PUBCHEM_CACTVS_HBOND_ACCEPTOR>
2

> <PUBCHEM_CACTVS_HBOND_DONOR>
0

> <PUBCHEM_CACTVS_ROTATABLE_BOND>
16

> <PUBCHEM_CACTVS_SUBSKEYS>
AAADcfB4MAAAAAAAAAAAAAAAAAAAAAAAAAAAAAAAAAAAAAAAAAAAGgAAAAAACACggAICCAAABACIACDSCAAAAAAgAAAICAEAAAgAABAAAQACAAAEgAAIAAIAAAAAAAAAAAAAAAAAAAAAAAAAAAAAAAAAAA==

> <PUBCHEM_IUPAC_OPENEYE_NAME>
ethyl (4Z,7Z,10Z,13Z,16Z,19Z)-docosa-4,7,10,13,16,19-hexaenoate

> <PUBCHEM_IUPAC_CAS_NAME>
(4Z,7Z,10Z,13Z,16Z,19Z)-docosa-4,7,10,13,16,19-hexaenoic acid ethyl ester

> <PUBCHEM_IUPAC_NAME>
ethyl (4Z,7Z,10Z,13Z,16Z,19Z)-docosa-4,7,10,13,16,19-hexaenoate

> <PUBCHEM_IUPAC_SYSTEMATIC_NAME>
ethyl (4Z,7Z,10Z,13Z,16Z,19Z)-docosa-4,7,10,13,16,19-hexaenoate

> <PUBCHEM_IUPAC_TRADITIONAL_NAME>
(4Z,7Z,10Z,13Z,16Z,19Z)-docosa-4,7,10,13,16,19-hexaenoic acid ethyl ester

> <PUBCHEM_IUPAC_INCHI>
InChI=1S/C24H36O2/c1-3-5-6-7-8-9-10-11-12-13-14-15-16-17-18-19-20-21-22-23-24(25)26-4-2/h5-6,8-9,11-12,14-15,17-18,20-21H,3-4,7,10,13,16,19,22-23H2,1-2H3/b6-5-,9-8-,12-11-,15-14-,18-17-,21-20-

> <PUBCHEM_IUPAC_INCHIKEY>
ITNKVODZACVXDS-YNUSHXQLSA-N

> <PUBCHEM_XLOGP3_AA>
6.9

> <PUBCHEM_EXACT_MASS>
356.27153

> <PUBCHEM_MOLECULAR_FORMULA>
C24H36O2

> <PUBCHEM_MOLECULAR_WEIGHT>
356.54144

> <PUBCHEM_OPENEYE_CAN_SMILES>
CCC=CCC=CCC=CCC=CCC=CCC=CCCC(=O)OCC

> <PUBCHEM_OPENEYE_ISO_SMILES>
CC/C=C\C/C=C\C/C=C\C/C=C\C/C=C\C/C=C\CCC(=O)OCC

> <PUBCHEM_CACTVS_TPSA>
26.3

> <PUBCHEM_MONOISOTOPIC_WEIGHT>
356.27153

> <PUBCHEM_TOTAL_CHARGE>
0

> <PUBCHEM_HEAVY_ATOM_COUNT>
26

> <PUBCHEM_ATOM_DEF_STEREO_COUNT>
0

> <PUBCHEM_ATOM_UDEF_STEREO_COUNT>
0

> <PUBCHEM_BOND_DEF_STEREO_COUNT>
6

> <PUBCHEM_BOND_UDEF_STEREO_COUNT>
0

> <PUBCHEM_ISOTOPIC_ATOM_COUNT>
0

> <PUBCHEM_COMPONENT_COUNT>
1

> <PUBCHEM_CACTVS_TAUTO_COUNT>
1

> <PUBCHEM_COORDINATE_TYPE>
1
5
255

$$$$

