443313
  -OEChem-07051213023D

 52 55  0     0  0  0  0  0  0999 V2000
    5.4351   -4.3212    0.0014 Cl  0  0  0  0  0  0  0  0  0  0  0  0
   -1.5661    1.9123   -0.0036 O   0  0  0  0  0  0  0  0  0  0  0  0
    2.2253    4.7697    0.0017 N   0  3  0  0  0  0  0  0  0  0  0  0
   -5.5023   -0.7961   -0.0020 N   0  0  0  0  0  0  0  0  0  0  0  0
    0.1926   -0.3494   -0.0008 C   0  0  0  0  0  0  0  0  0  0  0  0
    0.7051    0.9116   -0.0016 C   0  0  0  0  0  0  0  0  0  0  0  0
   -1.2860   -0.4924   -0.0007 C   0  0  0  0  0  0  0  0  0  0  0  0
   -0.1890    2.0821   -0.0024 C   0  0  0  0  0  0  0  0  0  0  0  0
   -2.0891    0.6477   -0.0024 C   0  0  0  0  0  0  0  0  0  0  0  0
    1.1000   -1.5028   -0.0001 C   0  0  0  0  0  0  0  0  0  0  0  0
    2.1530    1.1679   -0.0018 C   0  0  0  0  0  0  0  0  0  0  0  0
   -1.9198   -1.7461    0.0008 C   0  0  0  0  0  0  0  0  0  0  0  0
    0.2951    3.3336   -0.0018 C   0  0  0  0  0  0  0  0  0  0  0  0
   -3.4844    0.5535   -0.0029 C   0  0  0  0  0  0  0  0  0  0  0  0
    1.7565    3.5743   -0.0001 C   0  0  0  0  0  0  0  0  0  0  0  0
   -4.0966   -0.6960   -0.0015 C   0  0  0  0  0  0  0  0  0  0  0  0
    2.6637    2.4061   -0.0015 C   0  0  0  0  0  0  0  0  0  0  0  0
   -3.3140   -1.8462    0.0004 C   0  0  0  0  0  0  0  0  0  0  0  0
    1.5231   -2.0412   -1.2079 C   0  0  0  0  0  0  0  0  0  0  0  0
    1.5232   -2.0402    1.2081 C   0  0  0  0  0  0  0  0  0  0  0  0
    2.8168   -3.6852    0.0009 C   0  0  0  0  0  0  0  0  0  0  0  0
    2.3856   -3.1376   -1.2073 C   0  0  0  0  0  0  0  0  0  0  0  0
    2.3857   -3.1364    1.2086 C   0  0  0  0  0  0  0  0  0  0  0  0
    1.3299    5.9550    0.0031 C   0  0  0  0  0  0  0  0  0  0  0  0
    3.6878    5.0302    0.0025 C   0  0  0  0  0  0  0  0  0  0  0  0
   -6.1467   -2.0950   -0.0004 C   0  0  0  0  0  0  0  0  0  0  0  0
   -6.3242    0.3984    0.0101 C   0  0  0  0  0  0  0  0  0  0  0  0
    3.7397   -4.8568    0.0012 C   0  0  0  0  0  0  0  0  0  0  0  0
    2.8557    0.3416   -0.0026 H   0  0  0  0  0  0  0  0  0  0  0  0
   -1.3454   -2.6692    0.0022 H   0  0  0  0  0  0  0  0  0  0  0  0
   -0.4067    4.1596   -0.0023 H   0  0  0  0  0  0  0  0  0  0  0  0
   -4.0526    1.4792   -0.0046 H   0  0  0  0  0  0  0  0  0  0  0  0
    3.7409    2.5200   -0.0017 H   0  0  0  0  0  0  0  0  0  0  0  0
   -3.7379   -2.8456    0.0019 H   0  0  0  0  0  0  0  0  0  0  0  0
    1.1949   -1.6249   -2.1568 H   0  0  0  0  0  0  0  0  0  0  0  0
    1.1949   -1.6228    2.1566 H   0  0  0  0  0  0  0  0  0  0  0  0
    2.7153   -3.5551   -2.1550 H   0  0  0  0  0  0  0  0  0  0  0  0
    2.7155   -3.5530    2.1567 H   0  0  0  0  0  0  0  0  0  0  0  0
    0.7201    5.9417   -0.9048 H   0  0  0  0  0  0  0  0  0  0  0  0
    0.7177    5.9379    0.9094 H   0  0  0  0  0  0  0  0  0  0  0  0
    1.9253    6.8722    0.0059 H   0  0  0  0  0  0  0  0  0  0  0  0
    4.1251    4.6018    0.9089 H   0  0  0  0  0  0  0  0  0  0  0  0
    4.1257    4.6045   -0.9049 H   0  0  0  0  0  0  0  0  0  0  0  0
    3.8749    6.1075    0.0041 H   0  0  0  0  0  0  0  0  0  0  0  0
   -5.8851   -2.6651    0.8980 H   0  0  0  0  0  0  0  0  0  0  0  0
   -5.8776   -2.6713   -0.8926 H   0  0  0  0  0  0  0  0  0  0  0  0
   -7.2388   -2.0054   -0.0061 H   0  0  0  0  0  0  0  0  0  0  0  0
   -6.1393    0.9969    0.9091 H   0  0  0  0  0  0  0  0  0  0  0  0
   -7.3926    0.1549    0.0124 H   0  0  0  0  0  0  0  0  0  0  0  0
   -6.1466    1.0099   -0.8815 H   0  0  0  0  0  0  0  0  0  0  0  0
    3.5824   -5.4874   -0.8802 H   0  0  0  0  0  0  0  0  0  0  0  0
    3.5821   -5.4872    0.8826 H   0  0  0  0  0  0  0  0  0  0  0  0
  1 28  1  0  0  0  0
  2  8  1  0  0  0  0
  2  9  1  0  0  0  0
  3 15  2  0  0  0  0
  3 24  1  0  0  0  0
  3 25  1  0  0  0  0
  4 16  1  0  0  0  0
  4 26  1  0  0  0  0
  4 27  1  0  0  0  0
  5  6  2  0  0  0  0
  5  7  1  0  0  0  0
  5 10  1  0  0  0  0
  6  8  1  0  0  0  0
  6 11  1  0  0  0  0
  7  9  2  0  0  0  0
  7 12  1  0  0  0  0
  8 13  2  0  0  0  0
  9 14  1  0  0  0  0
 10 19  2  0  0  0  0
 10 20  1  0  0  0  0
 11 17  2  0  0  0  0
 11 29  1  0  0  0  0
 12 18  2  0  0  0  0
 12 30  1  0  0  0  0
 13 15  1  0  0  0  0
 13 31  1  0  0  0  0
 14 16  2  0  0  0  0
 14 32  1  0  0  0  0
 15 17  1  0  0  0  0
 16 18  1  0  0  0  0
 17 33  1  0  0  0  0
 18 34  1  0  0  0  0
 19 22  1  0  0  0  0
 19 35  1  0  0  0  0
 20 23  2  0  0  0  0
 20 36  1  0  0  0  0
 21 22  2  0  0  0  0
 21 23  1  0  0  0  0
 21 28  1  0  0  0  0
 22 37  1  0  0  0  0
 23 38  1  0  0  0  0
 24 39  1  0  0  0  0
 24 40  1  0  0  0  0
 24 41  1  0  0  0  0
 25 42  1  0  0  0  0
 25 43  1  0  0  0  0
 25 44  1  0  0  0  0
 26 45  1  0  0  0  0
 26 46  1  0  0  0  0
 26 47  1  0  0  0  0
 27 48  1  0  0  0  0
 27 49  1  0  0  0  0
 27 50  1  0  0  0  0
 28 51  1  0  0  0  0
 28 52  1  0  0  0  0
M  CHG  1   3   1
M  END
> <PUBCHEM_COMPOUND_CID>
443313

> <PUBCHEM_CONFORMER_RMSD>
0.8

> <PUBCHEM_CONFORMER_DIVERSEORDER>
1

> <PUBCHEM_MMFF94_PARTIAL_CHARGES>
37
1 -0.29
10 0.03
11 -0.15
12 -0.15
13 -0.14
14 -0.15
15 0.37
16 0.1
17 -0.14
18 -0.15
19 -0.15
2 -0.16
20 -0.15
21 -0.14
22 -0.15
23 -0.15
24 0.35
25 0.35
26 0.37
27 0.37
28 0.43
29 0.15
3 -0.09
30 0.15
31 0.15
32 0.15
33 0.15
34 0.15
35 0.15
36 0.15
37 0.15
38 0.15
4 -0.84
5 -0.06
7 0.03
8 0.08
9 0.08

> <PUBCHEM_EFFECTIVE_ROTOR_COUNT>
3

> <PUBCHEM_PHARMACOPHORE_FEATURES>
6
1 2 acceptor
1 4 cation
6 10 19 20 21 22 23 rings
6 2 5 6 7 8 9 rings
6 6 8 11 13 15 17 rings
6 7 9 12 14 16 18 rings

> <PUBCHEM_HEAVY_ATOM_COUNT>
28

> <PUBCHEM_ATOM_DEF_STEREO_COUNT>
0

> <PUBCHEM_ATOM_UDEF_STEREO_COUNT>
0

> <PUBCHEM_BOND_DEF_STEREO_COUNT>
0

> <PUBCHEM_BOND_UDEF_STEREO_COUNT>
0

> <PUBCHEM_ISOTOPIC_ATOM_COUNT>
0

> <PUBCHEM_COMPONENT_COUNT>
1

> <PUBCHEM_CACTVS_TAUTO_COUNT>
1

> <PUBCHEM_CONFORMER_ID>
0006C3B100000001

> <PUBCHEM_MMFF94_ENERGY>
117.0372

> <PUBCHEM_FEATURE_SELFOVERLAP>
30.502

> <PUBCHEM_SHAPE_FINGERPRINT>
10050765 1 18410572861194313683
10411042 1 18266458900419145603
11056379 131 17617088553078780854
11578080 2 17416982792283160174
12107183 9 17908721535698803736
12788726 201 17692224740745053462
13009979 54 17968651752541195451
13140716 1 18122908625144062897
13540713 4 18130509653018502015
13540713 5 18186517675804678171
13590594 115 18123177168042707049
13757389 114 17184736439146873830
13785724 45 18264484164835049627
138480 1 18410856594004815685
13955234 65 18338791217955834595
14508225 48 18121232123404108221
14790565 3 17906451031048894389
15042514 8 17833548281825293083
15198563 99 17905327682082906036
15230672 131 17908699533087722388
15347591 1 18410856522436199375
15400415 2 17834114143973035909
15664445 248 18408597055076794582
15927050 60 17833550094702314798
16087824 20 17618222145757606853
17492 89 18409730626413348123
17980427 26 18192157001263839766
19319366 153 17973444308925421693
20028762 73 18118125771032571758
20101258 96 18050276261381531810
20600515 1 17754728665311625181
21033650 10 17403707426904306902
21049683 271 18272075115650888510
21120745 212 17979063105459148982
21133410 221 16820862884831123938
21133410 32 16269067282630165738
21133665 82 18121210979951003940
21796203 349 17978752939953819315
21927370 108 18121480604205421387
22311459 1 18411137991762143092
23366157 5 18342453721236669093
23559900 14 18411423925489991523
255183 451 18334011739605047655
283562 15 16822783842090819321
3091708 16 9214597375824902523
335352 9 17978228262544039228
3418910 222 18267581494187659594
38695281 34 18050288059503654329
4058900 60 18125428722917012657
4409770 3 17478048723476796621
5265222 85 17909538463773319084
5385378 56 18266169548994394089
563151 97 17905054651550307071
6058803 2 18187362087765434219
6669772 16 18119239559384977556
6673363 416 18192979634717718278
6679774 75 18054809303637419218
6700243 42 17464231088137195206
77188 2 18338517572240105190
9658208 31 17397544208341493016
9981440 41 17908424654435901697

> <PUBCHEM_SHAPE_MULTIPOLES>
562.27
10.07
8.55
0.82
12.31
13.24
0
-13.98
-0.01
-12.61
-0.01
-0.49
-0.51
0

> <PUBCHEM_SHAPE_SELFOVERLAP>
1222.092

> <PUBCHEM_SHAPE_VOLUME>
311.2

> <PUBCHEM_COORDINATE_TYPE>
2
5
10

$$$$

