12699
  -OEChem-06261207153D

 12 11  0     0  0  0  0  0  0999 V2000
    2.0569    0.7102   -0.0001 O   0  0  0  0  0  0  0  0  0  0  0  0
   -2.4307   -0.3186    0.0000 O   0  0  0  0  0  0  0  0  0  0  0  0
   -0.2226    0.2718    0.0000 N   0  0  0  0  0  0  0  0  0  0  0  0
    1.3790   -1.4589    0.0002 N   0  0  0  0  0  0  0  0  0  0  0  0
   -1.2827   -0.7763   -0.0001 N   0  0  0  0  0  0  0  0  0  0  0  0
   -0.6256    1.6719    0.0002 C   0  0  0  0  0  0  0  0  0  0  0  0
    1.1257   -0.1001   -0.0001 C   0  0  0  0  0  0  0  0  0  0  0  0
   -1.2196    1.8738   -0.8962 H   0  0  0  0  0  0  0  0  0  0  0  0
    0.2446    2.3336    0.0003 H   0  0  0  0  0  0  0  0  0  0  0  0
   -1.2196    1.8735    0.8966 H   0  0  0  0  0  0  0  0  0  0  0  0
    0.6549   -2.1678    0.0002 H   0  0  0  0  0  0  0  0  0  0  0  0
    2.3344   -1.8012    0.0004 H   0  0  0  0  0  0  0  0  0  0  0  0
  1  7  2  0  0  0  0
  2  5  2  0  0  0  0
  3  5  1  0  0  0  0
  3  6  1  0  0  0  0
  3  7  1  0  0  0  0
  4  7  1  0  0  0  0
  4 11  1  0  0  0  0
  4 12  1  0  0  0  0
  6  8  1  0  0  0  0
  6  9  1  0  0  0  0
  6 10  1  0  0  0  0
M  END
> <PUBCHEM_COMPOUND_CID>
12699

> <PUBCHEM_CONFORMER_RMSD>
0.4

> <PUBCHEM_CONFORMER_DIVERSEORDER>
1
3
8
6
9
7
5
2
4

> <PUBCHEM_MMFF94_PARTIAL_CHARGES>
9
1 -0.57
11 0.37
12 0.37
2 -0.16
3 -0.18
4 -0.8
5 -0.02
6 0.3
7 0.69

> <PUBCHEM_EFFECTIVE_ROTOR_COUNT>
2

> <PUBCHEM_PHARMACOPHORE_FEATURES>
2
1 1 acceptor
1 4 donor

> <PUBCHEM_HEAVY_ATOM_COUNT>
7

> <PUBCHEM_ATOM_DEF_STEREO_COUNT>
0

> <PUBCHEM_ATOM_UDEF_STEREO_COUNT>
0

> <PUBCHEM_BOND_DEF_STEREO_COUNT>
0

> <PUBCHEM_BOND_UDEF_STEREO_COUNT>
0

> <PUBCHEM_ISOTOPIC_ATOM_COUNT>
0

> <PUBCHEM_COMPONENT_COUNT>
1

> <PUBCHEM_CACTVS_TAUTO_COUNT>
2

> <PUBCHEM_CONFORMER_ID>
0000319B00000001

> <PUBCHEM_MMFF94_ENERGY>
12.9053

> <PUBCHEM_FEATURE_SELFOVERLAP>
10.148

> <PUBCHEM_SHAPE_FINGERPRINT>
139733 1 9295292737558346881
16714656 1 18335697179102282060
18185500 45 18336266721756779575
20096714 4 18120936109625483532
21040471 1 18050286955839289092
23552423 10 18200306753105324486
24536 1 18194418889892444284
29004967 10 18342732971124934459
5460574 1 9295021162586813507

> <PUBCHEM_SHAPE_MULTIPOLES>
117.38
2.59
1.48
0.54
0.48
0.29
0
-0.44
0
-0.01
0
-0.01
0.03
0

> <PUBCHEM_SHAPE_SELFOVERLAP>
213.063

> <PUBCHEM_SHAPE_VOLUME>
75.2

> <PUBCHEM_COORDINATE_TYPE>
2
5
10

$$$$

