17395470
  -OEChem-06241222503D

 45 47  0     0  0  0  0  0  0999 V2000
   -1.7529   -0.8007   -2.0936 O   0  0  0  0  0  0  0  0  0  0  0  0
   -6.1625    2.2531    1.0522 O   0  0  0  0  0  0  0  0  0  0  0  0
    2.7242   -1.2708   -0.0885 N   0  0  0  0  0  0  0  0  0  0  0  0
    2.6774   -1.7684    1.1590 N   0  0  0  0  0  0  0  0  0  0  0  0
   -1.6366   -1.8580   -0.0193 N   0  0  0  0  0  0  0  0  0  0  0  0
   -5.1111    1.2190   -0.7276 N   0  0  0  0  0  0  0  0  0  0  0  0
    0.7758   -2.2551   -0.0092 C   0  0  0  0  0  0  0  0  0  0  0  0
    1.6097   -1.5347   -0.8291 C   0  0  0  0  0  0  0  0  0  0  0  0
    1.4849   -2.3687    1.2017 C   0  0  0  0  0  0  0  0  0  0  0  0
    3.8942   -0.5367   -0.5115 C   0  0  0  0  0  0  0  0  0  0  0  0
   -0.5885   -2.8012   -0.3369 C   0  0  0  0  0  0  0  0  0  0  0  0
    1.4508   -1.0824   -2.2245 C   0  0  0  0  0  0  0  0  0  0  0  0
    3.7559    0.9329   -0.2191 C   0  0  0  0  0  0  0  0  0  0  0  0
    1.0591   -3.0484    2.4379 C   0  0  0  0  0  0  0  0  0  0  0  0
    4.1910    1.4447    1.0034 C   0  0  0  0  0  0  0  0  0  0  0  0
    3.1922    1.7833   -1.1702 C   0  0  0  0  0  0  0  0  0  0  0  0
   -2.1295   -0.9365   -0.9284 C   0  0  0  0  0  0  0  0  0  0  0  0
   -3.1884   -0.0936   -0.3735 C   0  0  0  0  0  0  0  0  0  0  0  0
    4.0623    2.8070    1.2747 C   0  0  0  0  0  0  0  0  0  0  0  0
    3.0637    3.1454   -0.8991 C   0  0  0  0  0  0  0  0  0  0  0  0
    3.4988    3.6572    0.3235 C   0  0  0  0  0  0  0  0  0  0  0  0
   -4.0999    0.4219   -1.2076 C   0  0  0  0  0  0  0  0  0  0  0  0
   -3.2658    0.1876    1.0392 C   0  0  0  0  0  0  0  0  0  0  0  0
   -4.2416    0.9615    1.5341 C   0  0  0  0  0  0  0  0  0  0  0  0
   -5.2629    1.5416    0.6122 C   0  0  0  0  0  0  0  0  0  0  0  0
    4.0839   -0.7180   -1.5734 H   0  0  0  0  0  0  0  0  0  0  0  0
    4.7612   -0.9533    0.0174 H   0  0  0  0  0  0  0  0  0  0  0  0
   -0.6508   -3.0699   -1.3968 H   0  0  0  0  0  0  0  0  0  0  0  0
   -0.7812   -3.7101    0.2431 H   0  0  0  0  0  0  0  0  0  0  0  0
    0.7539   -1.7313   -2.7650 H   0  0  0  0  0  0  0  0  0  0  0  0
    2.3842   -1.1070   -2.7922 H   0  0  0  0  0  0  0  0  0  0  0  0
    1.0430   -0.0680   -2.2557 H   0  0  0  0  0  0  0  0  0  0  0  0
    0.9902   -4.1289    2.2760 H   0  0  0  0  0  0  0  0  0  0  0  0
    1.7609   -2.8763    3.2608 H   0  0  0  0  0  0  0  0  0  0  0  0
    0.0766   -2.6864    2.7584 H   0  0  0  0  0  0  0  0  0  0  0  0
   -2.0445   -1.9498    0.9043 H   0  0  0  0  0  0  0  0  0  0  0  0
    4.6312    0.7930    1.7533 H   0  0  0  0  0  0  0  0  0  0  0  0
    2.8681    1.4081   -2.1356 H   0  0  0  0  0  0  0  0  0  0  0  0
    4.4010    3.2056    2.2265 H   0  0  0  0  0  0  0  0  0  0  0  0
    2.6295    3.8085   -1.6416 H   0  0  0  0  0  0  0  0  0  0  0  0
    3.3998    4.7181    0.5341 H   0  0  0  0  0  0  0  0  0  0  0  0
   -4.1130    0.2554   -2.2778 H   0  0  0  0  0  0  0  0  0  0  0  0
   -2.5091   -0.1781    1.7237 H   0  0  0  0  0  0  0  0  0  0  0  0
   -5.7789    1.5862   -1.3993 H   0  0  0  0  0  0  0  0  0  0  0  0
   -4.3058    1.2009    2.5887 H   0  0  0  0  0  0  0  0  0  0  0  0
  1 17  2  0  0  0  0
  2 25  2  0  0  0  0
  3  4  1  0  0  0  0
  3  8  1  0  0  0  0
  3 10  1  0  0  0  0
  4  9  2  0  0  0  0
  5 11  1  0  0  0  0
  5 17  1  0  0  0  0
  5 36  1  0  0  0  0
  6 22  1  0  0  0  0
  6 25  1  0  0  0  0
  6 44  1  0  0  0  0
  7  8  2  0  0  0  0
  7  9  1  0  0  0  0
  7 11  1  0  0  0  0
  8 12  1  0  0  0  0
  9 14  1  0  0  0  0
 10 13  1  0  0  0  0
 10 26  1  0  0  0  0
 10 27  1  0  0  0  0
 11 28  1  0  0  0  0
 11 29  1  0  0  0  0
 12 30  1  0  0  0  0
 12 31  1  0  0  0  0
 12 32  1  0  0  0  0
 13 15  2  0  0  0  0
 13 16  1  0  0  0  0
 14 33  1  0  0  0  0
 14 34  1  0  0  0  0
 14 35  1  0  0  0  0
 15 19  1  0  0  0  0
 15 37  1  0  0  0  0
 16 20  2  0  0  0  0
 16 38  1  0  0  0  0
 17 18  1  0  0  0  0
 18 22  2  0  0  0  0
 18 23  1  0  0  0  0
 19 21  2  0  0  0  0
 19 39  1  0  0  0  0
 20 21  1  0  0  0  0
 20 40  1  0  0  0  0
 21 41  1  0  0  0  0
 22 42  1  0  0  0  0
 23 24  2  0  0  0  0
 23 43  1  0  0  0  0
 24 25  1  0  0  0  0
 24 45  1  0  0  0  0
M  END
> <PUBCHEM_COMPOUND_CID>
17395470

> <PUBCHEM_CONFORMER_RMSD>
0.8

> <PUBCHEM_CONFORMER_DIVERSEORDER>
2
197
73
146
128
118
243
6
236
224
172
187
129
3
42
138
104
27
229
166
174
209
93
212
232
228
201
46
116
94
192
248
195
215
105
87
115
159
22
185
18
237
83
149
160
144
199
137
41
234
106
117
204
132
31
14
216
112
158
226
162
70
99
198
98
130
109
28
88
173
123
148
183
82
190
10
110
193
206
238
214
38
179
181
176
122
220
90
63
154
191
113
143
219
80
140
164
168
57
152
65
75
221
203
126
186
1
125
108
200
54
167
163
225
189
194
101
25
135
231
202
127
156
161
147
252
8
210
36
139
78
58
182
235
227
153
141
77
9
207
86
35
250
213
136
177
184
92
4
196
29
97
145
222
155
85
157
56
233
7
60
64
223
175
61
239
121
119
34
68
178
124
21
134
76
114
20
15
251
246
79
71
91
111
169
37
208
81
170
45
49
171
13
218
55
69
205
50
48
44
131
53
211
26
95
12
103
72
107
84
217
100
59
102
16
242
39
11
249
52
32
43
247
241
240
67
244
62
30
24
180
188
230
133
5
151
40
17
120
47
245
74
33
150
66
89
96
51
19
142
165
23

> <PUBCHEM_MMFF94_PARTIAL_CHARGES>
35
1 -0.57
10 0.4
11 0.48
12 0.18
13 -0.14
14 0.18
15 -0.15
16 -0.15
17 0.62
18 0.01
19 -0.15
2 -0.57
20 -0.15
21 -0.15
22 -0.04
23 -0.15
24 -0.14
25 0.62
3 0.31
36 0.37
37 0.15
38 0.15
39 0.15
4 -0.71
40 0.15
41 0.15
42 0.15
43 0.15
44 0.37
45 0.15
5 -0.73
6 -0.54
7 -0.18
8 -0.33
9 0.11

> <PUBCHEM_EFFECTIVE_ROTOR_COUNT>
6

> <PUBCHEM_PHARMACOPHORE_FEATURES>
8
1 1 acceptor
1 2 acceptor
1 4 acceptor
1 5 donor
1 6 donor
5 3 4 7 8 9 rings
6 13 15 16 19 20 21 rings
6 6 18 22 23 24 25 rings

> <PUBCHEM_HEAVY_ATOM_COUNT>
25

> <PUBCHEM_ATOM_DEF_STEREO_COUNT>
0

> <PUBCHEM_ATOM_UDEF_STEREO_COUNT>
0

> <PUBCHEM_BOND_DEF_STEREO_COUNT>
0

> <PUBCHEM_BOND_UDEF_STEREO_COUNT>
0

> <PUBCHEM_ISOTOPIC_ATOM_COUNT>
0

> <PUBCHEM_COMPONENT_COUNT>
1

> <PUBCHEM_CACTVS_TAUTO_COUNT>
5

> <PUBCHEM_CONFORMER_ID>
01096F0E00000002

> <PUBCHEM_MMFF94_ENERGY>
51.5674

> <PUBCHEM_FEATURE_SELFOVERLAP>
40.594

> <PUBCHEM_SHAPE_FINGERPRINT>
10794284 68 16899039363614267506
10937287 8 18335984160048029870
11070050 100 17489583484925091690
11221954 11 18193265296400454654
11796584 16 11671517727891718354
12633257 1 17987533528296529788
12824470 246 11527957763207436902
12925494 130 18124880316377548549
13590594 115 18122624131195635930
13878862 14 17986413271981924573
13965767 371 18272091629520683631
14251740 57 11455889165458196912
14251764 38 18120655734524696392
14251764 75 18337383821260529505
14848178 5 10807944729900243181
14848178 96 18336829697522475400
14955137 171 18056200417385256554
15142526 21 18342456998033147699
15475509 84 17482283999269512586
17810953 82 18408881853947339701
17980427 23 17970373536347984042
19752476 56 18259985955365281268
20238998 120 17112412217518633611
21033648 29 17489320723278976229
21315763 76 18336278889473333021
21475661 188 18411696565365176076
21860390 5 18187076300040094582
21864079 5 18333450919596195295
22122407 14 18193826266680551289
22182937 141 18125438614263319826
23559900 14 17895750841411369567
245318 6 18269824355219743493
2838139 119 17896890854965387312
3472631 163 18186521042562971661
376196 1 18189056404559792866
44062 13 9438590988589795223
474 4 18410577266564539646
5895379 119 17459463532224035544
6328613 192 18126570008367562844
633830 44 18337676313196788382
653340 110 17844512319741208483
7288768 16 18128256679686884064

> <PUBCHEM_SHAPE_MULTIPOLES>
482.83
11.43
4.2
1.87
12.6
0.77
-0.07
12.39
-2.13
-3.59
-1.44
0.02
-0.69
-0.89

> <PUBCHEM_SHAPE_SELFOVERLAP>
1038.564

> <PUBCHEM_SHAPE_VOLUME>
267.2

> <PUBCHEM_COORDINATE_TYPE>
2
5
10

$$$$

