23724744
  -OEChem-07051213083D

 53 55  0     1  0  0  0  0  0999 V2000
    3.3283   -0.7718    0.4519 O   0  0  0  0  0  0  0  0  0  0  0  0
    7.4134   -0.9805    0.0841 O   0  0  0  0  0  0  0  0  0  0  0  0
    5.8068   -3.3407   -0.3672 O   0  0  0  0  0  0  0  0  0  0  0  0
    3.3613    1.5573    0.3163 O   0  0  0  0  0  0  0  0  0  0  0  0
    5.9657    1.4344   -0.7838 O   0  0  0  0  0  0  0  0  0  0  0  0
    1.6578   -2.9532    0.3689 O   0  0  0  0  0  0  0  0  0  0  0  0
   -0.8744    2.1719    2.4065 O   0  0  0  0  0  0  0  0  0  0  0  0
   -0.5589    1.8669   -2.3727 O   0  0  0  0  0  0  0  0  0  0  0  0
   -2.7033    3.3128   -0.1705 O   0  0  0  0  0  0  0  0  0  0  0  0
   -7.9284   -3.2890   -0.0299 O   0  0  0  0  0  0  0  0  0  0  0  0
    5.3195   -2.1328    0.2113 C   0  0  1  0  0  0  0  0  0  0  0  0
    6.0677   -0.9448   -0.3937 C   0  0  1  0  0  0  0  0  0  0  0  0
    3.8158   -2.0176   -0.0495 C   0  0  1  0  0  0  0  0  0  0  0  0
    5.4197    0.3802    0.0085 C   0  0  2  0  0  0  0  0  0  0  0  0
    3.9074    0.3492   -0.2121 C   0  0  1  0  0  0  0  0  0  0  0  0
    3.0355   -3.1296    0.6444 C   0  0  0  0  0  0  0  0  0  0  0  0
    2.0058    1.7116    0.2165 C   0  0  0  0  0  0  0  0  0  0  0  0
    1.4011    1.7128   -1.0367 C   0  0  0  0  0  0  0  0  0  0  0  0
    1.2418    1.8653    1.3693 C   0  0  0  0  0  0  0  0  0  0  0  0
   -0.1405    2.0215    1.2678 C   0  0  0  0  0  0  0  0  0  0  0  0
    0.0187    1.8690   -1.1382 C   0  0  0  0  0  0  0  0  0  0  0  0
   -0.7521    2.0232    0.0142 C   0  0  0  0  0  0  0  0  0  0  0  0
   -2.1976    2.1852   -0.0918 C   0  0  0  0  0  0  0  0  0  0  0  0
   -3.0590    0.9562   -0.0715 C   0  0  0  0  0  0  0  0  0  0  0  0
   -4.3945    1.0602   -0.1386 C   0  0  0  0  0  0  0  0  0  0  0  0
   -5.3237   -0.0830   -0.1108 C   0  0  0  0  0  0  0  0  0  0  0  0
   -4.8531   -1.3472   -0.4263 C   0  0  0  0  0  0  0  0  0  0  0  0
   -6.6493    0.1286    0.2314 C   0  0  0  0  0  0  0  0  0  0  0  0
   -5.7326   -2.4297   -0.3994 C   0  0  0  0  0  0  0  0  0  0  0  0
   -7.5286   -0.9538    0.2586 C   0  0  0  0  0  0  0  0  0  0  0  0
   -7.0704   -2.2329   -0.0569 C   0  0  0  0  0  0  0  0  0  0  0  0
    5.5215   -2.1804    1.2884 H   0  0  0  0  0  0  0  0  0  0  0  0
    6.1246   -1.0307   -1.4858 H   0  0  0  0  0  0  0  0  0  0  0  0
    3.5967   -2.0699   -1.1247 H   0  0  0  0  0  0  0  0  0  0  0  0
    5.6534    0.6154    1.0537 H   0  0  0  0  0  0  0  0  0  0  0  0
    3.6952    0.2952   -1.2880 H   0  0  0  0  0  0  0  0  0  0  0  0
    3.3346   -4.1188    0.2863 H   0  0  0  0  0  0  0  0  0  0  0  0
    3.1661   -3.0930    1.7310 H   0  0  0  0  0  0  0  0  0  0  0  0
    7.7917   -1.8381   -0.1753 H   0  0  0  0  0  0  0  0  0  0  0  0
    5.6253   -3.3109   -1.3221 H   0  0  0  0  0  0  0  0  0  0  0  0
    5.7701    1.2430   -1.7170 H   0  0  0  0  0  0  0  0  0  0  0  0
    1.4054   -2.0685    0.6843 H   0  0  0  0  0  0  0  0  0  0  0  0
    1.9997    1.6115   -1.9379 H   0  0  0  0  0  0  0  0  0  0  0  0
    1.7206    1.8628    2.3451 H   0  0  0  0  0  0  0  0  0  0  0  0
   -1.8121    2.3063    2.1952 H   0  0  0  0  0  0  0  0  0  0  0  0
    0.1310    1.7460   -3.0474 H   0  0  0  0  0  0  0  0  0  0  0  0
   -2.5348    0.0123    0.0243 H   0  0  0  0  0  0  0  0  0  0  0  0
   -4.8638    2.0388   -0.2065 H   0  0  0  0  0  0  0  0  0  0  0  0
   -3.8267   -1.5437   -0.7193 H   0  0  0  0  0  0  0  0  0  0  0  0
   -7.0212    1.1188    0.4810 H   0  0  0  0  0  0  0  0  0  0  0  0
   -5.3646   -3.4207   -0.6516 H   0  0  0  0  0  0  0  0  0  0  0  0
   -8.5695   -0.7944    0.5267 H   0  0  0  0  0  0  0  0  0  0  0  0
   -7.4429   -4.0957   -0.2742 H   0  0  0  0  0  0  0  0  0  0  0  0
  1 13  1  0  0  0  0
  1 15  1  0  0  0  0
  2 12  1  0  0  0  0
  2 39  1  0  0  0  0
  3 11  1  0  0  0  0
  3 40  1  0  0  0  0
  4 15  1  0  0  0  0
  4 17  1  0  0  0  0
  5 14  1  0  0  0  0
  5 41  1  0  0  0  0
  6 16  1  0  0  0  0
  6 42  1  0  0  0  0
  7 20  1  0  0  0  0
  7 45  1  0  0  0  0
  8 21  1  0  0  0  0
  8 46  1  0  0  0  0
  9 23  2  0  0  0  0
 10 31  1  0  0  0  0
 10 53  1  0  0  0  0
 11 12  1  0  0  0  0
 11 13  1  0  0  0  0
 11 32  1  0  0  0  0
 12 14  1  0  0  0  0
 12 33  1  0  0  0  0
 13 16  1  0  0  0  0
 13 34  1  0  0  0  0
 14 15  1  0  0  0  0
 14 35  1  0  0  0  0
 15 36  1  0  0  0  0
 16 37  1  0  0  0  0
 16 38  1  0  0  0  0
 17 18  2  0  0  0  0
 17 19  1  0  0  0  0
 18 21  1  0  0  0  0
 18 43  1  0  0  0  0
 19 20  2  0  0  0  0
 19 44  1  0  0  0  0
 20 22  1  0  0  0  0
 21 22  2  0  0  0  0
 22 23  1  0  0  0  0
 23 24  1  0  0  0  0
 24 25  2  0  0  0  0
 24 47  1  0  0  0  0
 25 26  1  0  0  0  0
 25 48  1  0  0  0  0
 26 27  2  0  0  0  0
 26 28  1  0  0  0  0
 27 29  1  0  0  0  0
 27 49  1  0  0  0  0
 28 30  2  0  0  0  0
 28 50  1  0  0  0  0
 29 31  2  0  0  0  0
 29 51  1  0  0  0  0
 30 31  1  0  0  0  0
 30 52  1  0  0  0  0
M  END
> <PUBCHEM_COMPOUND_CID>
23724744

> <PUBCHEM_CONFORMER_RMSD>
1

> <PUBCHEM_CONFORMER_DIVERSEORDER>
1
17
65
78
55
47
101
160
107
126
97
35
10
106
119
110
152
19
93
89
157
42
48
8
99
90
16
158
118
130
86
83
13
46
11
124
85
23
135
7
161
57
132
123
139
134
150
15
133
3
41
31
80
28
33
2
43
140
14
142
145
87
60
22
64
45
117
39
105
79
100
5
149
54
4
98
62
122
69
138
67
146
128
56
136
94
76
49
104
84
109
166
72
103
88
131
148
68
164
165
71
113
120
37
38
51
82
159
81
147
21
115
52
70
121
74
111
36
50
27
58
6
151
162
53
143
114
63
24
141
125
153
29
40
144
26
154
102
137
44
96
155
116
77
66
108
18
112
32
91
59
167
20
75
34
25
95
156
163
30
127
9
73
92
12
129
61

> <PUBCHEM_MMFF94_PARTIAL_CHARGES>
46
1 -0.56
10 -0.53
11 0.28
12 0.28
13 0.28
14 0.28
15 0.56
16 0.28
17 0.08
18 -0.15
19 -0.15
2 -0.68
20 0.08
21 0.08
22 0.09
23 0.47
24 -0.14
25 -0.18
26 0.03
27 -0.15
28 -0.15
29 -0.15
3 -0.68
30 -0.15
31 0.08
39 0.4
4 -0.36
40 0.4
41 0.4
42 0.4
43 0.15
44 0.15
45 0.45
46 0.45
47 0.15
48 0.15
49 0.15
5 -0.68
50 0.15
51 0.15
52 0.15
53 0.45
6 -0.68
7 -0.53
8 -0.53
9 -0.57

> <PUBCHEM_EFFECTIVE_ROTOR_COUNT>
7.2

> <PUBCHEM_PHARMACOPHORE_FEATURES>
17
1 1 acceptor
1 10 donor
1 2 acceptor
1 2 donor
1 3 acceptor
1 3 donor
1 4 acceptor
1 5 acceptor
1 5 donor
1 6 acceptor
1 6 donor
1 7 donor
1 8 donor
1 9 acceptor
6 1 11 12 13 14 15 rings
6 17 18 19 20 21 22 rings
6 26 27 28 29 30 31 rings

> <PUBCHEM_HEAVY_ATOM_COUNT>
31

> <PUBCHEM_ATOM_DEF_STEREO_COUNT>
5

> <PUBCHEM_ATOM_UDEF_STEREO_COUNT>
0

> <PUBCHEM_BOND_DEF_STEREO_COUNT>
1

> <PUBCHEM_BOND_UDEF_STEREO_COUNT>
0

> <PUBCHEM_ISOTOPIC_ATOM_COUNT>
0

> <PUBCHEM_COMPONENT_COUNT>
1

> <PUBCHEM_CACTVS_TAUTO_COUNT>
33

> <PUBCHEM_CONFORMER_ID>
016A02C800000001

> <PUBCHEM_MMFF94_ENERGY>
104.5493

> <PUBCHEM_FEATURE_SELFOVERLAP>
86.325

> <PUBCHEM_SHAPE_FINGERPRINT>
10939801 23 18189334580896177604
11497681 19 18412823603770674996
11578080 2 12822146622823311158
117089 54 18127682726735067787
11796584 16 18263080071280474669
12633257 1 16588308229381788845
1361 2 18202278066407659428
1361 4 18410572898715025590
13631057 29 18409448111336367288
13690498 29 18273220828669349637
13782708 43 18411704313191051792
13911987 19 14405182889580824233
14068700 675 18408601461381437881
14251764 30 18410015420887413113
14394314 77 18409725180230916457
15064981 113 13685729606661163658
15238133 3 7492992003971980752
15352257 5 18411982451510793475
15475509 35 18260271815165991464
15721738 202 18260268576934730266
17134984 74 17917713491623325322
20028762 73 18264208187881390014
20567600 247 18412262818406820121
20715895 44 10159703503354335844
20721686 56 18342454820938948331
20775530 9 18339095855744030183
21133410 62 18130245791313198783
21197605 99 18409166606785918166
23522609 53 18120902141057460561
23559900 14 18410866464304808017
23569917 315 18337105796366618230
25269216 80 16486972900202008623
2748736 6 9583521993140566147
2838139 119 10087629395304259497
3004659 81 18059861615111596673
33382 64 18410012143395051145
3610482 184 15122684651689066837
437795 51 17895203169357928216
439807 62 18411418419278166159
44880168 125 16877662391630391854
46194498 28 17489308538219868021
463206 1 18336829672090307843
465052 167 18040995120290868484
474113 269 18113913620256238719
5104073 3 17603301544913076833
5718773 13 18410013217658666247
636775 8 18114733924412230508
6697151 62 17604733118001344417
7970288 3 18267587910604639839

> <PUBCHEM_SHAPE_MULTIPOLES>
579.27
20.76
4.17
1.16
15.59
2.04
0.07
20.28
-1.14
0.25
0.23
-0.1
-0.9
-0.44

> <PUBCHEM_SHAPE_SELFOVERLAP>
1244.806

> <PUBCHEM_SHAPE_VOLUME>
316.6

> <PUBCHEM_COORDINATE_TYPE>
2
5
10

$$$$

