158239
  -OEChem-07051213063D

 16 16  0     1  0  0  0  0  0999 V2000
    3.2511    0.0787    0.3248 Br  0  0  0  0  0  0  0  0  0  0  0  0
   -1.2220    1.9078   -0.7474 O   0  0  0  0  0  0  0  0  0  0  0  0
   -2.0574   -1.0348    1.0162 O   0  0  0  0  0  0  0  0  0  0  0  0
   -0.9007    0.9678    0.2806 C   0  0  1  0  0  0  0  0  0  0  0  0
   -1.4715   -0.4079   -0.1262 C   0  0  1  0  0  0  0  0  0  0  0  0
    0.5920    0.9957    0.4816 C   0  0  0  0  0  0  0  0  0  0  0  0
   -0.4566   -1.3579   -0.7004 C   0  0  0  0  0  0  0  0  0  0  0  0
    1.4008    0.0036    0.0761 C   0  0  0  0  0  0  0  0  0  0  0  0
    0.8643   -1.1531   -0.6054 C   0  0  0  0  0  0  0  0  0  0  0  0
   -1.3819    1.3210    1.1995 H   0  0  0  0  0  0  0  0  0  0  0  0
   -2.2709   -0.2791   -0.8664 H   0  0  0  0  0  0  0  0  0  0  0  0
    1.0033    1.8768    0.9681 H   0  0  0  0  0  0  0  0  0  0  0  0
   -0.8223   -2.2507   -1.1996 H   0  0  0  0  0  0  0  0  0  0  0  0
    1.5490   -1.8776   -1.0350 H   0  0  0  0  0  0  0  0  0  0  0  0
   -0.8288    1.5907   -1.5788 H   0  0  0  0  0  0  0  0  0  0  0  0
   -2.7863   -0.4669    1.3194 H   0  0  0  0  0  0  0  0  0  0  0  0
  1  8  1  0  0  0  0
  2  4  1  0  0  0  0
  2 15  1  0  0  0  0
  3  5  1  0  0  0  0
  3 16  1  0  0  0  0
  4  5  1  0  0  0  0
  4  6  1  0  0  0  0
  4 10  1  0  0  0  0
  5  7  1  0  0  0  0
  5 11  1  0  0  0  0
  6  8  2  0  0  0  0
  6 12  1  0  0  0  0
  7  9  2  0  0  0  0
  7 13  1  0  0  0  0
  8  9  1  0  0  0  0
  9 14  1  0  0  0  0
M  END
> <PUBCHEM_COMPOUND_CID>
158239

> <PUBCHEM_CONFORMER_RMSD>
0.4

> <PUBCHEM_CONFORMER_DIVERSEORDER>
2
6
5
4
3
1

> <PUBCHEM_MMFF94_PARTIAL_CHARGES>
14
1 -0.11
12 0.15
13 0.15
14 0.15
15 0.4
16 0.4
2 -0.68
3 -0.68
4 0.42
5 0.42
6 -0.29
7 -0.29
8 0.11
9 -0.15

> <PUBCHEM_EFFECTIVE_ROTOR_COUNT>
0.4

> <PUBCHEM_PHARMACOPHORE_FEATURES>
6
1 1 hydrophobe
1 2 acceptor
1 2 donor
1 3 acceptor
1 3 donor
6 4 5 6 7 8 9 rings

> <PUBCHEM_HEAVY_ATOM_COUNT>
9

> <PUBCHEM_ATOM_DEF_STEREO_COUNT>
0

> <PUBCHEM_ATOM_UDEF_STEREO_COUNT>
2

> <PUBCHEM_BOND_DEF_STEREO_COUNT>
0

> <PUBCHEM_BOND_UDEF_STEREO_COUNT>
0

> <PUBCHEM_ISOTOPIC_ATOM_COUNT>
0

> <PUBCHEM_COMPONENT_COUNT>
1

> <PUBCHEM_CACTVS_TAUTO_COUNT>
1

> <PUBCHEM_CONFORMER_ID>
00026A1F00000002

> <PUBCHEM_MMFF94_ENERGY>
11.3846

> <PUBCHEM_FEATURE_SELFOVERLAP>
30.446

> <PUBCHEM_SHAPE_FINGERPRINT>
10857977 72 18338232665690208666
13024252 1 17632306661294480498
15310529 11 18130790032076815320
16714656 1 18261674779365817342
16945 1 18042113293614368158
18185500 45 17036143502245023158
20645464 45 17386014940466410978
21040471 1 18120376711726184052
21922407 69 16916199157597749142
23235685 24 18188779486084791784
23552423 10 18412261774798683110
241688 4 15666751896455635242
2748010 2 18189329254968003246
29004967 10 18270392785287060058
369184 2 17346887758034379896
5084963 1 17750246828357097650

> <PUBCHEM_SHAPE_MULTIPOLES>
179.42
3.32
1.61
0.88
2.74
0.21
0.05
-0.02
0.62
-0.61
-0.32
-0.25
-0.04
0.37

> <PUBCHEM_SHAPE_SELFOVERLAP>
349.164

> <PUBCHEM_SHAPE_VOLUME>
111.2

> <PUBCHEM_COORDINATE_TYPE>
2
5
10

$$$$

