17396277
  -OEChem-06241222552D

 35 37  0     0  0  0  0  0  0999 V2000
    3.0878    1.1566    0.0000 O   0  0  0  0  0  0  0  0  0  0  0  0
    4.8198    1.1566    0.0000 N   0  0  0  0  0  0  0  0  0  0  0  0
    2.5878   -3.3822    0.0000 N   0  0  0  0  0  0  0  0  0  0  0  0
    6.5798    2.1219    0.0000 N   0  0  0  0  0  0  0  0  0  0  0  0
    3.5878   -3.3822    0.0000 N   0  0  0  0  0  0  0  0  0  0  0  0
    5.6859    2.6566    0.0000 C   0  0  0  0  0  0  0  0  0  0  0  0
    4.8198    2.1566    0.0000 C   0  0  0  0  0  0  0  0  0  0  0  0
    5.6859    3.6566    0.0000 C   0  0  0  0  0  0  0  0  0  0  0  0
    3.9538    2.6566    0.0000 C   0  0  0  0  0  0  0  0  0  0  0  0
    4.8198    4.1566    0.0000 C   0  0  0  0  0  0  0  0  0  0  0  0
    3.9538    3.6566    0.0000 C   0  0  0  0  0  0  0  0  0  0  0  0
    6.5798    4.1913    0.0000 C   0  0  0  0  0  0  0  0  0  0  0  0
    3.0878   -1.8434    0.0000 C   0  0  0  0  0  0  0  0  0  0  0  0
    2.2788   -2.4312    0.0000 C   0  0  0  0  0  0  0  0  0  0  0  0
    3.9538    0.6566    0.0000 C   0  0  0  0  0  0  0  0  0  0  0  0
    3.0878   -0.8434    0.0000 C   0  0  0  0  0  0  0  0  0  0  0  0
    7.4859    3.6774    0.0000 C   0  0  0  0  0  0  0  0  0  0  0  0
    3.9538   -0.3434    0.0000 C   0  0  0  0  0  0  0  0  0  0  0  0
    7.4859    2.6358    0.0000 C   0  0  0  0  0  0  0  0  0  0  0  0
    3.8968   -2.4312    0.0000 C   0  0  0  0  0  0  0  0  0  0  0  0
    2.0000   -4.1913    0.0000 C   0  0  0  0  0  0  0  0  0  0  0  0
    3.4169    2.3466    0.0000 H   0  0  0  0  0  0  0  0  0  0  0  0
    4.8198    4.7766    0.0000 H   0  0  0  0  0  0  0  0  0  0  0  0
    5.3568    0.8466    0.0000 H   0  0  0  0  0  0  0  0  0  0  0  0
    3.4169    3.9666    0.0000 H   0  0  0  0  0  0  0  0  0  0  0  0
    6.5726    4.8112    0.0000 H   0  0  0  0  0  0  0  0  0  0  0  0
    1.6891   -2.2396    0.0000 H   0  0  0  0  0  0  0  0  0  0  0  0
    2.5508   -0.5334    0.0000 H   0  0  0  0  0  0  0  0  0  0  0  0
    8.0216    3.9895    0.0000 H   0  0  0  0  0  0  0  0  0  0  0  0
    4.4908   -0.6534    0.0000 H   0  0  0  0  0  0  0  0  0  0  0  0
    4.4865   -2.2396    0.0000 H   0  0  0  0  0  0  0  0  0  0  0  0
    8.0216    2.3237    0.0000 H   0  0  0  0  0  0  0  0  0  0  0  0
    1.4984   -3.8268    0.0000 H   0  0  0  0  0  0  0  0  0  0  0  0
    1.6356   -4.6928    0.0000 H   0  0  0  0  0  0  0  0  0  0  0  0
    2.5016   -4.5557    0.0000 H   0  0  0  0  0  0  0  0  0  0  0  0
  1 15  2  0  0  0  0
  2  7  1  0  0  0  0
  2 15  1  0  0  0  0
  2 24  1  0  0  0  0
  3  5  1  0  0  0  0
  3 14  1  0  0  0  0
  3 21  1  0  0  0  0
  4  6  1  0  0  0  0
  4 19  2  0  0  0  0
  5 20  2  0  0  0  0
  6  7  1  0  0  0  0
  6  8  2  0  0  0  0
  7  9  2  0  0  0  0
  8 10  1  0  0  0  0
  8 12  1  0  0  0  0
  9 11  1  0  0  0  0
  9 22  1  0  0  0  0
 10 11  2  0  0  0  0
 10 23  1  0  0  0  0
 11 25  1  0  0  0  0
 12 17  2  0  0  0  0
 12 26  1  0  0  0  0
 13 14  2  0  0  0  0
 13 16  1  0  0  0  0
 13 20  1  0  0  0  0
 14 27  1  0  0  0  0
 15 18  1  0  0  0  0
 16 18  2  0  0  0  0
 16 28  1  0  0  0  0
 17 19  1  0  0  0  0
 17 29  1  0  0  0  0
 18 30  1  0  0  0  0
 19 32  1  0  0  0  0
 20 31  1  0  0  0  0
 21 33  1  0  0  0  0
 21 34  1  0  0  0  0
 21 35  1  0  0  0  0
M  END
> <PUBCHEM_COMPOUND_CID>
17396277

> <PUBCHEM_COMPOUND_CANONICALIZED>
1

> <PUBCHEM_CACTVS_COMPLEXITY>
398

> <PUBCHEM_CACTVS_HBOND_ACCEPTOR>
3

> <PUBCHEM_CACTVS_HBOND_DONOR>
1

> <PUBCHEM_CACTVS_ROTATABLE_BOND>
3

> <PUBCHEM_CACTVS_SUBSKEYS>
AAADccB7oAAAAAAAAAAAAAAAAAAAAWAAAAA8QAAAAAAAAACx/AAAHgAYAAAADAjBngQ+wPLIEACqAzV3VACShCAxkiAY2CA4dNgIYOLA0dGUpAhgnADIyYcQgIAOAAAAQAACACAAAACAAAQAQAAAAAAAAA==

> <PUBCHEM_IUPAC_OPENEYE_NAME>
(E)-3-(1-methylpyrazol-4-yl)-N-(8-quinolyl)prop-2-enamide

> <PUBCHEM_IUPAC_CAS_NAME>
(E)-3-(1-methyl-4-pyrazolyl)-N-(8-quinolinyl)-2-propenamide

> <PUBCHEM_IUPAC_NAME>
(E)-3-(1-methylpyrazol-4-yl)-N-quinolin-8-ylprop-2-enamide

> <PUBCHEM_IUPAC_SYSTEMATIC_NAME>
(E)-3-(1-methylpyrazol-4-yl)-N-quinolin-8-yl-prop-2-enamide

> <PUBCHEM_IUPAC_TRADITIONAL_NAME>
(E)-3-(1-methylpyrazol-4-yl)-N-(8-quinolyl)acrylamide

> <PUBCHEM_IUPAC_INCHI>
InChI=1S/C16H14N4O/c1-20-11-12(10-18-20)7-8-15(21)19-14-6-2-4-13-5-3-9-17-16(13)14/h2-11H,1H3,(H,19,21)/b8-7+

> <PUBCHEM_IUPAC_INCHIKEY>
AMVFROJVZZOGMJ-BQYQJAHWSA-N

> <PUBCHEM_XLOGP3>
2.3

> <PUBCHEM_EXACT_MASS>
278.116761

> <PUBCHEM_MOLECULAR_FORMULA>
C16H14N4O

> <PUBCHEM_MOLECULAR_WEIGHT>
278.30856

> <PUBCHEM_OPENEYE_CAN_SMILES>
CN1C=C(C=N1)C=CC(=O)NC2=CC=CC3=C2N=CC=C3

> <PUBCHEM_OPENEYE_ISO_SMILES>
CN1C=C(C=N1)/C=C/C(=O)NC2=CC=CC3=C2N=CC=C3

> <PUBCHEM_CACTVS_TPSA>
59.8

> <PUBCHEM_MONOISOTOPIC_WEIGHT>
278.116761

> <PUBCHEM_TOTAL_CHARGE>
0

> <PUBCHEM_HEAVY_ATOM_COUNT>
21

> <PUBCHEM_ATOM_DEF_STEREO_COUNT>
0

> <PUBCHEM_ATOM_UDEF_STEREO_COUNT>
0

> <PUBCHEM_BOND_DEF_STEREO_COUNT>
1

> <PUBCHEM_BOND_UDEF_STEREO_COUNT>
0

> <PUBCHEM_ISOTOPIC_ATOM_COUNT>
0

> <PUBCHEM_COMPONENT_COUNT>
1

> <PUBCHEM_CACTVS_TAUTO_COUNT>
2

> <PUBCHEM_COORDINATE_TYPE>
1
5
255

> <PUBCHEM_BONDANNOTATIONS>
10  11  8
12  17  8
13  14  8
13  20  8
17  19  8
3  14  8
3  5  8
4  19  8
4  6  8
5  20  8
6  7  8
6  8  8
7  9  8
8  10  8
8  12  8
9  11  8

$$$$

