14880662
  -OEChem-07051213132D

 19 19  0     1  0  0  0  0  0999 V2000
    6.0068   -1.2736    0.0000 Cl  0  0  0  0  0  0  0  0  0  0  0  0
    3.1590    0.7955    0.0000 S   0  0  3  0  0  0  0  0  0  0  0  0
    4.9190    1.0742    0.0000 S   0  0  0  0  0  0  0  0  0  0  0  0
    2.4158    0.1263    0.0000 O   0  0  0  0  0  0  0  0  0  0  0  0
    3.2435   -2.0826    0.0000 N   0  0  0  0  0  0  0  0  0  0  0  0
    7.6302    1.1045    0.0000 N   0  0  0  0  0  0  0  0  0  0  0  0
    4.1100    0.4865    0.0000 C   0  0  0  0  0  0  0  0  0  0  0  0
    2.9511    1.7736    0.0000 C   0  0  0  0  0  0  0  0  0  0  0  0
    4.4190   -0.4646    0.0000 C   0  0  0  0  0  0  0  0  0  0  0  0
    2.0000    2.0826    0.0000 C   0  0  0  0  0  0  0  0  0  0  0  0
    5.4190   -0.4646    0.0000 C   0  0  0  0  0  0  0  0  0  0  0  0
    5.7281    0.4865    0.0000 C   0  0  0  0  0  0  0  0  0  0  0  0
    3.8313   -1.2736    0.0000 C   0  0  0  0  0  0  0  0  0  0  0  0
    6.6791    0.7955    0.0000 C   0  0  0  0  0  0  0  0  0  0  0  0
    3.5707    1.7953    0.0000 H   0  0  0  0  0  0  0  0  0  0  0  0
    3.0373    2.3876    0.0000 H   0  0  0  0  0  0  0  0  0  0  0  0
    2.1916    2.6723    0.0000 H   0  0  0  0  0  0  0  0  0  0  0  0
    1.4103    2.2742    0.0000 H   0  0  0  0  0  0  0  0  0  0  0  0
    1.8084    1.4930    0.0000 H   0  0  0  0  0  0  0  0  0  0  0  0
  1 11  1  0  0  0  0
  2  4  2  0  0  0  0
  2  7  1  0  0  0  0
  2  8  1  0  0  0  0
  3  7  1  0  0  0  0
  3 12  1  0  0  0  0
  5 13  3  0  0  0  0
  6 14  3  0  0  0  0
  7  9  2  0  0  0  0
  8 10  1  0  0  0  0
  8 15  1  0  0  0  0
  8 16  1  0  0  0  0
  9 11  1  0  0  0  0
  9 13  1  0  0  0  0
 10 17  1  0  0  0  0
 10 18  1  0  0  0  0
 10 19  1  0  0  0  0
 11 12  2  0  0  0  0
 12 14  1  0  0  0  0
M  END
> <PUBCHEM_COMPOUND_CID>
14880662

> <PUBCHEM_COMPOUND_CANONICALIZED>
1

> <PUBCHEM_CACTVS_COMPLEXITY>
342

> <PUBCHEM_CACTVS_HBOND_ACCEPTOR>
5

> <PUBCHEM_CACTVS_HBOND_DONOR>
0

> <PUBCHEM_CACTVS_ROTATABLE_BOND>
2

> <PUBCHEM_CACTVS_SUBSKEYS>
AAADcYBzIABkAAAAAAAAAAAAAAAAASAAAAAAAAAAAAAAAAABgAAAHAYAAAAADAKFWCCCAYAAAAqUBgBAAEBjAYAgDBAAiBAAAogIoCKgEBCAAAAggAAoiA4AAAAMAAAAAAAAAAAAAAAAAAAAAAAAAAAAAA==

> <PUBCHEM_IUPAC_OPENEYE_NAME>
3-chloro-5-ethylsulfinyl-thiophene-2,4-dicarbonitrile

> <PUBCHEM_IUPAC_CAS_NAME>
3-chloro-5-ethylsulfinylthiophene-2,4-dicarbonitrile

> <PUBCHEM_IUPAC_NAME>
3-chloro-5-ethylsulfinylthiophene-2,4-dicarbonitrile

> <PUBCHEM_IUPAC_SYSTEMATIC_NAME>
3-chloranyl-5-ethylsulfinyl-thiophene-2,4-dicarbonitrile

> <PUBCHEM_IUPAC_TRADITIONAL_NAME>
3-chloro-5-ethylsulfinyl-thiophene-2,4-dicarbonitrile

> <PUBCHEM_IUPAC_INCHI>
InChI=1S/C8H5ClN2OS2/c1-2-14(12)8-5(3-10)7(9)6(4-11)13-8/h2H2,1H3

> <PUBCHEM_IUPAC_INCHIKEY>
GNOOAFGERMHQJE-UHFFFAOYSA-N

> <PUBCHEM_XLOGP3_AA>
1.8

> <PUBCHEM_EXACT_MASS>
243.953182

> <PUBCHEM_MOLECULAR_FORMULA>
C8H5ClN2OS2

> <PUBCHEM_MOLECULAR_WEIGHT>
244.7211

> <PUBCHEM_OPENEYE_CAN_SMILES>
CCS(=O)C1=C(C(=C(S1)C#N)Cl)C#N

> <PUBCHEM_OPENEYE_ISO_SMILES>
CCS(=O)C1=C(C(=C(S1)C#N)Cl)C#N

> <PUBCHEM_CACTVS_TPSA>
112

> <PUBCHEM_MONOISOTOPIC_WEIGHT>
243.953182

> <PUBCHEM_TOTAL_CHARGE>
0

> <PUBCHEM_HEAVY_ATOM_COUNT>
14

> <PUBCHEM_ATOM_DEF_STEREO_COUNT>
0

> <PUBCHEM_ATOM_UDEF_STEREO_COUNT>
1

> <PUBCHEM_BOND_DEF_STEREO_COUNT>
0

> <PUBCHEM_BOND_UDEF_STEREO_COUNT>
0

> <PUBCHEM_ISOTOPIC_ATOM_COUNT>
0

> <PUBCHEM_COMPONENT_COUNT>
1

> <PUBCHEM_CACTVS_TAUTO_COUNT>
1

> <PUBCHEM_COORDINATE_TYPE>
1
5
255

> <PUBCHEM_BONDANNOTATIONS>
11  12  8
2  8  3
3  12  8
3  7  8
7  9  8
9  11  8

$$$$

