20218
  -OEChem-07051212473D

 26 27  0     1  0  0  0  0  0999 V2000
    1.9547    1.8311   -0.0966 O   0  0  0  0  0  0  0  0  0  0  0  0
   -2.7576    0.8578    0.2223 O   0  0  0  0  0  0  0  0  0  0  0  0
    0.0715   -1.1034   -0.3386 C   0  0  0  0  0  0  0  0  0  0  0  0
    0.6105   -0.0730    0.6978 C   0  0  2  0  0  0  0  0  0  0  0  0
   -0.8632   -0.0685   -1.0169 C   0  0  2  0  0  0  0  0  0  0  0  0
   -0.6586    0.4695    1.4028 C   0  0  0  0  0  0  0  0  0  0  0  0
    0.0631    1.0883   -1.4410 C   0  0  0  0  0  0  0  0  0  0  0  0
    1.0239    1.0574   -0.2592 C   0  0  0  0  0  0  0  0  0  0  0  0
   -1.6025    0.4622    0.2094 C   0  0  0  0  0  0  0  0  0  0  0  0
   -0.6909   -2.3024    0.2608 C   0  0  0  0  0  0  0  0  0  0  0  0
    1.1477   -1.6861   -1.2769 C   0  0  0  0  0  0  0  0  0  0  0  0
    1.7013   -0.5328    1.6362 C   0  0  0  0  0  0  0  0  0  0  0  0
   -1.5302   -0.4548   -1.7882 H   0  0  0  0  0  0  0  0  0  0  0  0
   -0.5308    1.4888    1.7776 H   0  0  0  0  0  0  0  0  0  0  0  0
   -1.0291   -0.1969    2.1850 H   0  0  0  0  0  0  0  0  0  0  0  0
   -0.4528    2.0508   -1.4877 H   0  0  0  0  0  0  0  0  0  0  0  0
    0.5969    0.8764   -2.3697 H   0  0  0  0  0  0  0  0  0  0  0  0
   -1.1200   -2.9186   -0.5379 H   0  0  0  0  0  0  0  0  0  0  0  0
   -1.5191   -2.0209    0.9166 H   0  0  0  0  0  0  0  0  0  0  0  0
   -0.0172   -2.9378    0.8462 H   0  0  0  0  0  0  0  0  0  0  0  0
    0.6791   -2.2004   -2.1236 H   0  0  0  0  0  0  0  0  0  0  0  0
    1.7701   -2.4161   -0.7468 H   0  0  0  0  0  0  0  0  0  0  0  0
    1.8294   -0.9368   -1.6887 H   0  0  0  0  0  0  0  0  0  0  0  0
    1.9988    0.2757    2.3132 H   0  0  0  0  0  0  0  0  0  0  0  0
    1.3712   -1.3775    2.2488 H   0  0  0  0  0  0  0  0  0  0  0  0
    2.5987   -0.8384    1.0883 H   0  0  0  0  0  0  0  0  0  0  0  0
  1  8  2  0  0  0  0
  2  9  2  0  0  0  0
  3  4  1  0  0  0  0
  3  5  1  0  0  0  0
  3 10  1  0  0  0  0
  3 11  1  0  0  0  0
  4  6  1  0  0  0  0
  4  8  1  0  0  0  0
  4 12  1  0  0  0  0
  5  7  1  0  0  0  0
  5  9  1  0  0  0  0
  5 13  1  0  0  0  0
  6  9  1  0  0  0  0
  6 14  1  0  0  0  0
  6 15  1  0  0  0  0
  7  8  1  0  0  0  0
  7 16  1  0  0  0  0
  7 17  1  0  0  0  0
 10 18  1  0  0  0  0
 10 19  1  0  0  0  0
 10 20  1  0  0  0  0
 11 21  1  0  0  0  0
 11 22  1  0  0  0  0
 11 23  1  0  0  0  0
 12 24  1  0  0  0  0
 12 25  1  0  0  0  0
 12 26  1  0  0  0  0
M  END
> <PUBCHEM_COMPOUND_CID>
20218

> <PUBCHEM_CONFORMER_RMSD>
0.4

> <PUBCHEM_CONFORMER_DIVERSEORDER>
2
1

> <PUBCHEM_MMFF94_PARTIAL_CHARGES>
8
1 -0.57
2 -0.57
4 0.06
5 0.06
6 0.06
7 0.06
8 0.45
9 0.45

> <PUBCHEM_EFFECTIVE_ROTOR_COUNT>
0.6

> <PUBCHEM_PHARMACOPHORE_FEATURES>
4
1 1 acceptor
1 2 acceptor
3 3 10 11 hydrophobe
7 3 4 5 6 7 8 9 rings

> <PUBCHEM_HEAVY_ATOM_COUNT>
12

> <PUBCHEM_ATOM_DEF_STEREO_COUNT>
0

> <PUBCHEM_ATOM_UDEF_STEREO_COUNT>
2

> <PUBCHEM_BOND_DEF_STEREO_COUNT>
0

> <PUBCHEM_BOND_UDEF_STEREO_COUNT>
0

> <PUBCHEM_ISOTOPIC_ATOM_COUNT>
0

> <PUBCHEM_COMPONENT_COUNT>
1

> <PUBCHEM_CACTVS_TAUTO_COUNT>
4

> <PUBCHEM_CONFORMER_ID>
00004EFA00000002

> <PUBCHEM_MMFF94_ENERGY>
46.9631

> <PUBCHEM_FEATURE_SELFOVERLAP>
20.297

> <PUBCHEM_SHAPE_FINGERPRINT>
10702982 57 18267305339530268096
12423570 1 11092265457309510528
13024252 1 15766428690255401364
137420 1 14664675982629559350
14817 1 9868421853655001118
15557651 10 17846202389112993388
16945 1 18057068915247340144
19837323 101 17898843548302293756
21040471 1 18113626655197927897
23419403 2 16689561241222855592
241688 4 17613424966985301394
369184 2 17319279918741140596
5084963 1 17833318285983486647

> <PUBCHEM_SHAPE_MULTIPOLES>
235.22
2.18
1.93
1.49
0.9
0.6
0.09
-0.52
0.44
-0.55
-0.35
-0.37
0.03
0.05

> <PUBCHEM_SHAPE_SELFOVERLAP>
507.58

> <PUBCHEM_SHAPE_VOLUME>
137.5

> <PUBCHEM_COORDINATE_TYPE>
2
5
10

$$$$

