155381
  -OEChem-07051213102D

 44 46  0     0  0  0  0  0  0999 V2000
    4.3198    1.7744    0.0000 O   0  0  0  0  0  0  0  0  0  0  0  0
    7.8167    1.7744    0.0000 O   0  0  0  0  0  0  0  0  0  0  0  0
    9.5984    0.7639    0.0000 O   0  0  0  0  0  0  0  0  0  0  0  0
    6.0682    1.7398    0.0000 O   0  0  0  0  0  0  0  0  0  0  0  0
    6.0682   -2.2602    0.0000 O   0  0  0  0  0  0  0  0  0  0  0  0
    9.5984   -1.2844    0.0000 O   0  0  0  0  0  0  0  0  0  0  0  0
    2.5381    0.7639    0.0000 O   0  0  0  0  0  0  0  0  0  0  0  0
    5.2022    0.2398    0.0000 C   0  0  0  0  0  0  0  0  0  0  0  0
    6.9343    0.2398    0.0000 C   0  0  0  0  0  0  0  0  0  0  0  0
    5.2022   -0.7602    0.0000 C   0  0  0  0  0  0  0  0  0  0  0  0
    6.9343   -0.7602    0.0000 C   0  0  0  0  0  0  0  0  0  0  0  0
    6.0682    0.7398    0.0000 C   0  0  0  0  0  0  0  0  0  0  0  0
    6.0682   -1.2602    0.0000 C   0  0  0  0  0  0  0  0  0  0  0  0
    4.3083    0.7744    0.0000 C   0  0  0  0  0  0  0  0  0  0  0  0
    7.8282    0.7744    0.0000 C   0  0  0  0  0  0  0  0  0  0  0  0
    4.3083   -1.2949    0.0000 C   0  0  0  0  0  0  0  0  0  0  0  0
    3.4022   -0.7810    0.0000 C   0  0  0  0  0  0  0  0  0  0  0  0
    7.8282   -1.2949    0.0000 C   0  0  0  0  0  0  0  0  0  0  0  0
    3.4022    0.2606    0.0000 C   0  0  0  0  0  0  0  0  0  0  0  0
    8.7343    0.2606    0.0000 C   0  0  0  0  0  0  0  0  0  0  0  0
    8.7343   -0.7810    0.0000 C   0  0  0  0  0  0  0  0  0  0  0  0
    2.5381   -1.2844    0.0000 C   0  0  0  0  0  0  0  0  0  0  0  0
    3.4597    2.2844    0.0000 C   0  0  0  0  0  0  0  0  0  0  0  0
    8.6768    2.2844    0.0000 C   0  0  0  0  0  0  0  0  0  0  0  0
   10.4663    0.2673    0.0000 C   0  0  0  0  0  0  0  0  0  0  0  0
    9.5945   -2.2844    0.0000 C   0  0  0  0  0  0  0  0  0  0  0  0
    4.3154   -1.9148    0.0000 H   0  0  0  0  0  0  0  0  0  0  0  0
    7.8210   -1.9148    0.0000 H   0  0  0  0  0  0  0  0  0  0  0  0
    2.2261   -0.7486    0.0000 H   0  0  0  0  0  0  0  0  0  0  0  0
    2.0024   -1.5964    0.0000 H   0  0  0  0  0  0  0  0  0  0  0  0
    2.8502   -1.8201    0.0000 H   0  0  0  0  0  0  0  0  0  0  0  0
    2.0000    0.4560    0.0000 H   0  0  0  0  0  0  0  0  0  0  0  0
    8.9930    1.7510    0.0000 H   0  0  0  0  0  0  0  0  0  0  0  0
    9.2102    2.6006    0.0000 H   0  0  0  0  0  0  0  0  0  0  0  0
    8.3606    2.8177    0.0000 H   0  0  0  0  0  0  0  0  0  0  0  0
    3.7758    2.8177    0.0000 H   0  0  0  0  0  0  0  0  0  0  0  0
    2.9263    2.6006    0.0000 H   0  0  0  0  0  0  0  0  0  0  0  0
    3.1435    1.7510    0.0000 H   0  0  0  0  0  0  0  0  0  0  0  0
   10.1584   -0.2709    0.0000 H   0  0  0  0  0  0  0  0  0  0  0  0
   11.0045   -0.0407    0.0000 H   0  0  0  0  0  0  0  0  0  0  0  0
   10.7743    0.8054    0.0000 H   0  0  0  0  0  0  0  0  0  0  0  0
    8.9745   -2.2820    0.0000 H   0  0  0  0  0  0  0  0  0  0  0  0
    9.5921   -2.9044    0.0000 H   0  0  0  0  0  0  0  0  0  0  0  0
   10.2145   -2.2868    0.0000 H   0  0  0  0  0  0  0  0  0  0  0  0
  1 14  1  0  0  0  0
  1 23  1  0  0  0  0
  2 15  1  0  0  0  0
  2 24  1  0  0  0  0
  3 20  1  0  0  0  0
  3 25  1  0  0  0  0
  4 12  2  0  0  0  0
  5 13  2  0  0  0  0
  6 21  1  0  0  0  0
  6 26  1  0  0  0  0
  7 19  1  0  0  0  0
  7 32  1  0  0  0  0
  8 10  2  0  0  0  0
  8 12  1  0  0  0  0
  8 14  1  0  0  0  0
  9 11  1  0  0  0  0
  9 12  1  0  0  0  0
  9 15  2  0  0  0  0
 10 13  1  0  0  0  0
 10 16  1  0  0  0  0
 11 13  1  0  0  0  0
 11 18  2  0  0  0  0
 14 19  2  0  0  0  0
 15 20  1  0  0  0  0
 16 17  2  0  0  0  0
 16 27  1  0  0  0  0
 17 19  1  0  0  0  0
 17 22  1  0  0  0  0
 18 21  1  0  0  0  0
 18 28  1  0  0  0  0
 20 21  2  0  0  0  0
 22 29  1  0  0  0  0
 22 30  1  0  0  0  0
 22 31  1  0  0  0  0
 23 36  1  0  0  0  0
 23 37  1  0  0  0  0
 23 38  1  0  0  0  0
 24 33  1  0  0  0  0
 24 34  1  0  0  0  0
 24 35  1  0  0  0  0
 25 39  1  0  0  0  0
 25 40  1  0  0  0  0
 25 41  1  0  0  0  0
 26 42  1  0  0  0  0
 26 43  1  0  0  0  0
 26 44  1  0  0  0  0
M  END
> <PUBCHEM_COMPOUND_CID>
155381

> <PUBCHEM_COMPOUND_CANONICALIZED>
1

> <PUBCHEM_CACTVS_COMPLEXITY>
550

> <PUBCHEM_CACTVS_HBOND_ACCEPTOR>
7

> <PUBCHEM_CACTVS_HBOND_DONOR>
1

> <PUBCHEM_CACTVS_ROTATABLE_BOND>
4

> <PUBCHEM_CACTVS_SUBSKEYS>
AAADceB4OAAAAAAAAAAAAAAAAAAAAAAAAAAwYMAAAAAAAADBQAAAGgAACAAADASAmAIyBoAABgCIAqBSAAACCAAkIAAAiAEGiMgNJzaGNRqAcWMl4BULuYeL7PzO4AADCAAYQADAAAYQADCAAAAAAAAAAA==

> <PUBCHEM_IUPAC_OPENEYE_NAME>
2-hydroxy-1,6,7,8-tetramethoxy-3-methyl-anthracene-9,10-dione

> <PUBCHEM_IUPAC_CAS_NAME>
2-hydroxy-1,6,7,8-tetramethoxy-3-methylanthracene-9,10-dione

> <PUBCHEM_IUPAC_NAME>
2-hydroxy-1,6,7,8-tetramethoxy-3-methylanthracene-9,10-dione

> <PUBCHEM_IUPAC_SYSTEMATIC_NAME>
1,2,3,8-tetramethoxy-6-methyl-7-oxidanyl-anthracene-9,10-dione

> <PUBCHEM_IUPAC_TRADITIONAL_NAME>
2-hydroxy-1,6,7,8-tetramethoxy-3-methyl-9,10-anthraquinone

> <PUBCHEM_IUPAC_INCHI>
InChI=1S/C19H18O7/c1-8-6-9-12(18(25-4)14(8)20)16(22)13-10(15(9)21)7-11(23-2)17(24-3)19(13)26-5/h6-7,20H,1-5H3

> <PUBCHEM_IUPAC_INCHIKEY>
ZMDXTRSTKHTSCE-UHFFFAOYSA-N

> <PUBCHEM_XLOGP3_AA>
2.8

> <PUBCHEM_EXACT_MASS>
358.105253

> <PUBCHEM_MOLECULAR_FORMULA>
C19H18O7

> <PUBCHEM_MOLECULAR_WEIGHT>
358.34202

> <PUBCHEM_OPENEYE_CAN_SMILES>
CC1=C(C(=C2C(=C1)C(=O)C3=CC(=C(C(=C3C2=O)OC)OC)OC)OC)O

> <PUBCHEM_OPENEYE_ISO_SMILES>
CC1=C(C(=C2C(=C1)C(=O)C3=CC(=C(C(=C3C2=O)OC)OC)OC)OC)O

> <PUBCHEM_CACTVS_TPSA>
91.3

> <PUBCHEM_MONOISOTOPIC_WEIGHT>
358.105253

> <PUBCHEM_TOTAL_CHARGE>
0

> <PUBCHEM_HEAVY_ATOM_COUNT>
26

> <PUBCHEM_ATOM_DEF_STEREO_COUNT>
0

> <PUBCHEM_ATOM_UDEF_STEREO_COUNT>
0

> <PUBCHEM_BOND_DEF_STEREO_COUNT>
0

> <PUBCHEM_BOND_UDEF_STEREO_COUNT>
0

> <PUBCHEM_ISOTOPIC_ATOM_COUNT>
0

> <PUBCHEM_COMPONENT_COUNT>
1

> <PUBCHEM_CACTVS_TAUTO_COUNT>
13

> <PUBCHEM_COORDINATE_TYPE>
1
5
255

> <PUBCHEM_BONDANNOTATIONS>
10  16  8
11  18  8
14  19  8
15  20  8
16  17  8
17  19  8
18  21  8
20  21  8
8  10  8
8  14  8
9  11  8
9  15  8

$$$$

