5281830
  -OEChem-07051213002D

 35 36  0     1  0  0  0  0  0999 V2000
    4.5981   -3.9050    0.0000 O   0  0  0  0  0  0  0  0  0  0  0  0
    2.0000    3.5950    0.0000 O   0  0  0  0  0  0  0  0  0  0  0  0
    4.5981    0.0950    0.0000 C   0  0  2  0  0  0  0  0  0  0  0  0
    4.5981   -0.9050    0.0000 C   0  0  0  0  0  0  0  0  0  0  0  0
    5.4641    0.5950    0.0000 C   0  0  0  0  0  0  0  0  0  0  0  0
    3.7320   -1.4050    0.0000 C   0  0  0  0  0  0  0  0  0  0  0  0
    5.4641   -1.4050    0.0000 C   0  0  0  0  0  0  0  0  0  0  0  0
    3.7320    0.5950    0.0000 C   0  0  0  0  0  0  0  0  0  0  0  0
    5.4641    1.5950    0.0000 C   0  0  0  0  0  0  0  0  0  0  0  0
    4.5981    2.0950    0.0000 C   0  0  0  0  0  0  0  0  0  0  0  0
    3.7320   -2.4050    0.0000 C   0  0  0  0  0  0  0  0  0  0  0  0
    5.4641   -2.4050    0.0000 C   0  0  0  0  0  0  0  0  0  0  0  0
    4.5981   -2.9050    0.0000 C   0  0  0  0  0  0  0  0  0  0  0  0
    4.5981    3.0950    0.0000 C   0  0  0  0  0  0  0  0  0  0  0  0
    3.7320    1.5950    0.0000 C   0  0  0  0  0  0  0  0  0  0  0  0
    3.7320    3.5950    0.0000 C   0  0  0  0  0  0  0  0  0  0  0  0
    2.8660    2.0950    0.0000 C   0  0  0  0  0  0  0  0  0  0  0  0
    2.8660    0.0950    0.0000 C   0  0  0  0  0  0  0  0  0  0  0  0
    2.8660    3.0950    0.0000 C   0  0  0  0  0  0  0  0  0  0  0  0
    4.5981    0.7150    0.0000 H   0  0  0  0  0  0  0  0  0  0  0  0
    6.0010    0.2850    0.0000 H   0  0  0  0  0  0  0  0  0  0  0  0
    3.1951   -1.0950    0.0000 H   0  0  0  0  0  0  0  0  0  0  0  0
    6.0010   -1.0950    0.0000 H   0  0  0  0  0  0  0  0  0  0  0  0
    3.7320    1.2150    0.0000 H   0  0  0  0  0  0  0  0  0  0  0  0
    6.0010    1.9050    0.0000 H   0  0  0  0  0  0  0  0  0  0  0  0
    3.1951   -2.7150    0.0000 H   0  0  0  0  0  0  0  0  0  0  0  0
    6.0010   -2.7150    0.0000 H   0  0  0  0  0  0  0  0  0  0  0  0
    5.1350    3.4050    0.0000 H   0  0  0  0  0  0  0  0  0  0  0  0
    3.7320    0.9750    0.0000 H   0  0  0  0  0  0  0  0  0  0  0  0
    3.7320    4.2150    0.0000 H   0  0  0  0  0  0  0  0  0  0  0  0
    2.3291    1.7850    0.0000 H   0  0  0  0  0  0  0  0  0  0  0  0
    2.3291    0.4050    0.0000 H   0  0  0  0  0  0  0  0  0  0  0  0
    2.8660   -0.5250    0.0000 H   0  0  0  0  0  0  0  0  0  0  0  0
    4.0611   -4.2150    0.0000 H   0  0  0  0  0  0  0  0  0  0  0  0
    2.0000    4.2150    0.0000 H   0  0  0  0  0  0  0  0  0  0  0  0
  1 13  1  0  0  0  0
  1 34  1  0  0  0  0
  2 19  1  0  0  0  0
  2 35  1  0  0  0  0
  3  4  1  0  0  0  0
  3  5  1  1  0  0  0
  3  8  1  0  0  0  0
  3 20  1  0  0  0  0
  4  6  2  0  0  0  0
  4  7  1  0  0  0  0
  5  9  2  0  0  0  0
  5 21  1  0  0  0  0
  6 11  1  0  0  0  0
  6 22  1  0  0  0  0
  7 12  2  0  0  0  0
  7 23  1  0  0  0  0
  8 18  2  0  0  0  0
  8 24  1  0  0  0  0
  9 10  1  0  0  0  0
  9 25  1  0  0  0  0
 10 14  2  0  0  0  0
 10 15  1  0  0  0  0
 11 13  2  0  0  0  0
 11 26  1  0  0  0  0
 12 13  1  0  0  0  0
 12 27  1  0  0  0  0
 14 16  1  0  0  0  0
 14 28  1  0  0  0  0
 15 17  2  0  0  0  0
 15 29  1  0  0  0  0
 16 19  2  0  0  0  0
 16 30  1  0  0  0  0
 17 19  1  0  0  0  0
 17 31  1  0  0  0  0
 18 32  1  0  0  0  0
 18 33  1  0  0  0  0
M  END
> <PUBCHEM_COMPOUND_CID>
5281830

> <PUBCHEM_COMPOUND_CANONICALIZED>
1

> <PUBCHEM_CACTVS_COMPLEXITY>
294

> <PUBCHEM_CACTVS_HBOND_ACCEPTOR>
2

> <PUBCHEM_CACTVS_HBOND_DONOR>
2

> <PUBCHEM_CACTVS_ROTATABLE_BOND>
4

> <PUBCHEM_CACTVS_SUBSKEYS>
AAADceB4MAAAAAAAAAAAAAAAAAAAAAAAAAAwYAAAAAAAAAABQAAAGgAACAAADQSAmAAwBoAAAgCAAiBCAAACAAAgIAAIiAAGCIgIJiKCERKAcAAkwBEImAeAwNAOoAAAAAAAAABAAAAAAAAAAAAAAAAAAA==

> <PUBCHEM_IUPAC_OPENEYE_NAME>
4-[(1Z,3S)-3-(4-hydroxyphenyl)penta-1,4-dienyl]phenol

> <PUBCHEM_IUPAC_CAS_NAME>
4-[(1Z,3S)-3-(4-hydroxyphenyl)penta-1,4-dienyl]phenol

> <PUBCHEM_IUPAC_NAME>
4-[(1Z,3S)-3-(4-hydroxyphenyl)penta-1,4-dienyl]phenol

> <PUBCHEM_IUPAC_SYSTEMATIC_NAME>
4-[(1Z,3S)-3-(4-hydroxyphenyl)penta-1,4-dienyl]phenol

> <PUBCHEM_IUPAC_TRADITIONAL_NAME>
4-[(1Z,3S)-3-(4-hydroxyphenyl)penta-1,4-dienyl]phenol

> <PUBCHEM_IUPAC_INCHI>
InChI=1S/C17H16O2/c1-2-14(15-7-11-17(19)12-8-15)6-3-13-4-9-16(18)10-5-13/h2-12,14,18-19H,1H2/b6-3-/t14-/m0/s1

> <PUBCHEM_IUPAC_INCHIKEY>
VEAUNWQYYMXIRB-XSHSDMCLSA-N

> <PUBCHEM_XLOGP3_AA>
4.4

> <PUBCHEM_EXACT_MASS>
252.11503

> <PUBCHEM_MOLECULAR_FORMULA>
C17H16O2

> <PUBCHEM_MOLECULAR_WEIGHT>
252.30774

> <PUBCHEM_OPENEYE_CAN_SMILES>
C=CC(C=CC1=CC=C(C=C1)O)C2=CC=C(C=C2)O

> <PUBCHEM_OPENEYE_ISO_SMILES>
C=C[C@@H](/C=C\C1=CC=C(C=C1)O)C2=CC=C(C=C2)O

> <PUBCHEM_CACTVS_TPSA>
40.5

> <PUBCHEM_MONOISOTOPIC_WEIGHT>
252.11503

> <PUBCHEM_TOTAL_CHARGE>
0

> <PUBCHEM_HEAVY_ATOM_COUNT>
19

> <PUBCHEM_ATOM_DEF_STEREO_COUNT>
1

> <PUBCHEM_ATOM_UDEF_STEREO_COUNT>
0

> <PUBCHEM_BOND_DEF_STEREO_COUNT>
1

> <PUBCHEM_BOND_UDEF_STEREO_COUNT>
0

> <PUBCHEM_ISOTOPIC_ATOM_COUNT>
0

> <PUBCHEM_COMPONENT_COUNT>
1

> <PUBCHEM_CACTVS_TAUTO_COUNT>
6

> <PUBCHEM_COORDINATE_TYPE>
1
5
255

> <PUBCHEM_BONDANNOTATIONS>
10  14  8
10  15  8
11  13  8
12  13  8
14  16  8
15  17  8
16  19  8
17  19  8
3  5  5
4  6  8
4  7  8
6  11  8
7  12  8

$$$$

