439282
  -OEChem-07051212443D

 20 19  0     1  0  0  0  0  0999 V2000
   -1.0158    1.4344    1.1603 O   0  0  0  0  0  0  0  0  0  0  0  0
   -2.7401    0.9715   -0.2396 O   0  0  0  0  0  0  0  0  0  0  0  0
    2.6075    0.8905    0.7391 O   0  0  0  0  0  0  0  0  0  0  0  0
    2.1861   -1.3390    0.7886 O   0  0  0  0  0  0  0  0  0  0  0  0
   -2.2585   -1.7198    0.0500 N   0  0  0  0  0  0  0  0  0  0  0  0
   -1.1477   -0.7844    0.2332 C   0  0  1  0  0  0  0  0  0  0  0  0
   -0.1565   -0.8963   -0.9345 C   0  0  0  0  0  0  0  0  0  0  0  0
    1.0262    0.0354   -0.7940 C   0  0  0  0  0  0  0  0  0  0  0  0
   -1.7333    0.6084    0.3574 C   0  0  0  0  0  0  0  0  0  0  0  0
    1.9903   -0.2331    0.3059 C   0  0  0  0  0  0  0  0  0  0  0  0
    1.2417    1.0323   -1.6665 C   0  0  0  0  0  0  0  0  0  0  0  0
   -0.6589   -1.0361    1.1819 H   0  0  0  0  0  0  0  0  0  0  0  0
    0.2148   -1.9267   -1.0126 H   0  0  0  0  0  0  0  0  0  0  0  0
   -0.6809   -0.6923   -1.8784 H   0  0  0  0  0  0  0  0  0  0  0  0
   -2.8550   -1.7091    0.8768 H   0  0  0  0  0  0  0  0  0  0  0  0
   -1.8963   -2.6696   -0.0258 H   0  0  0  0  0  0  0  0  0  0  0  0
    0.5532    1.2180   -2.4848 H   0  0  0  0  0  0  0  0  0  0  0  0
    2.1045    1.6863   -1.5998 H   0  0  0  0  0  0  0  0  0  0  0  0
   -1.4070    2.3329    1.2041 H   0  0  0  0  0  0  0  0  0  0  0  0
    3.2324    0.7069    1.4727 H   0  0  0  0  0  0  0  0  0  0  0  0
  1  9  1  0  0  0  0
  1 19  1  0  0  0  0
  2  9  2  0  0  0  0
  3 10  1  0  0  0  0
  3 20  1  0  0  0  0
  4 10  2  0  0  0  0
  5  6  1  0  0  0  0
  5 15  1  0  0  0  0
  5 16  1  0  0  0  0
  6  7  1  0  0  0  0
  6  9  1  0  0  0  0
  6 12  1  0  0  0  0
  7  8  1  0  0  0  0
  7 13  1  0  0  0  0
  7 14  1  0  0  0  0
  8 10  1  0  0  0  0
  8 11  2  0  0  0  0
 11 17  1  0  0  0  0
 11 18  1  0  0  0  0
M  END
> <PUBCHEM_COMPOUND_CID>
439282

> <PUBCHEM_CONFORMER_RMSD>
0.6

> <PUBCHEM_CONFORMER_DIVERSEORDER>
1
6
24
39
22
20
40
9
28
32
23
26
14
31
5
4
36
19
21
17
16
41
13
33
29
37
11
2
10
27
18
7
15
35
25
38
30
8
3
34
12

> <PUBCHEM_MMFF94_PARTIAL_CHARGES>
17
1 -0.65
10 0.71
11 -0.3
15 0.36
16 0.36
17 0.15
18 0.15
19 0.5
2 -0.57
20 0.5
3 -0.65
4 -0.57
5 -0.99
6 0.33
7 0.14
8 -0.12
9 0.66

> <PUBCHEM_EFFECTIVE_ROTOR_COUNT>
4

> <PUBCHEM_PHARMACOPHORE_FEATURES>
9
1 1 acceptor
1 11 hydrophobe
1 2 acceptor
1 3 acceptor
1 4 acceptor
1 5 cation
1 5 donor
3 1 2 9 anion
3 3 4 10 anion

> <PUBCHEM_HEAVY_ATOM_COUNT>
11

> <PUBCHEM_ATOM_DEF_STEREO_COUNT>
1

> <PUBCHEM_ATOM_UDEF_STEREO_COUNT>
0

> <PUBCHEM_BOND_DEF_STEREO_COUNT>
0

> <PUBCHEM_BOND_UDEF_STEREO_COUNT>
0

> <PUBCHEM_ISOTOPIC_ATOM_COUNT>
0

> <PUBCHEM_COMPONENT_COUNT>
1

> <PUBCHEM_CACTVS_TAUTO_COUNT>
1

> <PUBCHEM_CONFORMER_ID>
0006B3F200000001

> <PUBCHEM_MMFF94_ENERGY>
14.0873

> <PUBCHEM_FEATURE_SELFOVERLAP>
45.786

> <PUBCHEM_SHAPE_FINGERPRINT>
10857977 72 17750505187930740431
12423570 1 8154573634687633822
12897270 3 5545188415744047237
13839132 238 17749658705542501124
15775835 57 18411411830239463880
16945 1 18191588768342537322
20653091 64 17345749673173410766
21040471 1 18117820308621178349
21922407 69 17844789417760394142
23552423 10 18130499751995408039
25610 171 17894348877996009787
29004967 10 16774078492431453820
369184 2 18409172112363733707
5084963 1 18269823350033163967

> <PUBCHEM_SHAPE_MULTIPOLES>
197.92
3.61
1.52
1.23
0.27
0.2
-0.21
-0.08
0.69
0.38
0.05
-0.46
-0.34
-0.48

> <PUBCHEM_SHAPE_SELFOVERLAP>
385.547

> <PUBCHEM_SHAPE_VOLUME>
118.7

> <PUBCHEM_COORDINATE_TYPE>
2
5
10

$$$$

