12083
  -OEChem-06261206293D

 20 20  0     0  0  0  0  0  0999 V2000
   -3.0655   -0.8848   -0.0003 O   0  0  0  0  0  0  0  0  0  0  0  0
   -3.0642    1.4171   -0.0010 O   0  0  0  0  0  0  0  0  0  0  0  0
    3.8883    0.8946   -0.0028 O   0  5  0  0  0  0  0  0  0  0  0  0
    3.7004   -1.2926   -0.0006 O   0  0  0  0  0  0  0  0  0  0  0  0
    3.1883   -0.1469   -0.0010 N   0  3  0  0  0  0  0  0  0  0  0  0
   -1.0057    0.2141    0.0016 C   0  0  0  0  0  0  0  0  0  0  0  0
    1.7738   -0.0252    0.0010 C   0  0  0  0  0  0  0  0  0  0  0  0
   -0.2072    1.3578    0.0014 C   0  0  0  0  0  0  0  0  0  0  0  0
   -0.4144   -1.0493    0.0017 C   0  0  0  0  0  0  0  0  0  0  0  0
    1.1825    1.2381    0.0009 C   0  0  0  0  0  0  0  0  0  0  0  0
    0.9753   -1.1689    0.0014 C   0  0  0  0  0  0  0  0  0  0  0  0
   -2.4545    0.3395    0.0005 C   0  0  0  0  0  0  0  0  0  0  0  0
   -4.4971   -0.8936   -0.0028 C   0  0  0  0  0  0  0  0  0  0  0  0
   -0.6478    2.3514    0.0012 H   0  0  0  0  0  0  0  0  0  0  0  0
   -0.9963   -1.9668    0.0016 H   0  0  0  0  0  0  0  0  0  0  0  0
    1.7730    2.1508    0.0004 H   0  0  0  0  0  0  0  0  0  0  0  0
    1.4017   -2.1689    0.0010 H   0  0  0  0  0  0  0  0  0  0  0  0
   -4.8312   -1.9344   -0.0028 H   0  0  0  0  0  0  0  0  0  0  0  0
   -4.8754   -0.4015   -0.9037 H   0  0  0  0  0  0  0  0  0  0  0  0
   -4.8786   -0.4006    0.8962 H   0  0  0  0  0  0  0  0  0  0  0  0
  1 12  1  0  0  0  0
  1 13  1  0  0  0  0
  2 12  2  0  0  0  0
  3  5  1  0  0  0  0
  4  5  2  0  0  0  0
  5  7  1  0  0  0  0
  6  8  2  0  0  0  0
  6  9  1  0  0  0  0
  6 12  1  0  0  0  0
  7 10  2  0  0  0  0
  7 11  1  0  0  0  0
  8 10  1  0  0  0  0
  8 14  1  0  0  0  0
  9 11  2  0  0  0  0
  9 15  1  0  0  0  0
 10 16  1  0  0  0  0
 11 17  1  0  0  0  0
 13 18  1  0  0  0  0
 13 19  1  0  0  0  0
 13 20  1  0  0  0  0
M  CHG  2   3  -1   5   1
M  END
> <PUBCHEM_COMPOUND_CID>
12083

> <PUBCHEM_CONFORMER_RMSD>
0.6

> <PUBCHEM_CONFORMER_DIVERSEORDER>
1
2

> <PUBCHEM_MMFF94_PARTIAL_CHARGES>
17
1 -0.43
10 -0.15
11 -0.15
12 0.63
13 0.28
14 0.15
15 0.15
16 0.15
17 0.15
2 -0.57
3 -0.52
4 -0.52
5 0.91
6 0.09
7 0.13
8 -0.15
9 -0.15

> <PUBCHEM_EFFECTIVE_ROTOR_COUNT>
3

> <PUBCHEM_PHARMACOPHORE_FEATURES>
5
1 2 acceptor
1 3 acceptor
1 3 anion
1 4 acceptor
6 6 7 8 9 10 11 rings

> <PUBCHEM_HEAVY_ATOM_COUNT>
13

> <PUBCHEM_ATOM_DEF_STEREO_COUNT>
0

> <PUBCHEM_ATOM_UDEF_STEREO_COUNT>
0

> <PUBCHEM_BOND_DEF_STEREO_COUNT>
0

> <PUBCHEM_BOND_UDEF_STEREO_COUNT>
0

> <PUBCHEM_ISOTOPIC_ATOM_COUNT>
0

> <PUBCHEM_COMPONENT_COUNT>
1

> <PUBCHEM_CACTVS_TAUTO_COUNT>
1

> <PUBCHEM_CONFORMER_ID>
00002F3300000001

> <PUBCHEM_MMFF94_ENERGY>
39.9491

> <PUBCHEM_FEATURE_SELFOVERLAP>
25.453

> <PUBCHEM_SHAPE_FINGERPRINT>
10219947 1 18408038507143169646
11062470 55 10231758889910883887
11471102 20 18411142424110000165
11543360 7 15769763624670051686
11806522 49 18339364063434738831
12032990 46 18409726283266975294
12932764 1 17022915552792350005
13581323 91 16732985306005049845
13690532 89 18411983563385109650
14144814 61 18410856572524711099
14252887 29 18041548191808725471
14325111 11 18410856576967494720
14993402 34 18342173345523673012
15196674 1 18410855481608299012
16945 1 18410577245142437571
18186145 218 18059858406422509782
18522853 276 18407759222926886145
193761 8 17689997830187356772
19422 9 18410570712497199848
200 152 18114471089440622631
20201158 50 18341892987412844363
20645477 70 18336267932848230839
21267235 1 18410284822284007630
21501925 9 18411424985681833632
23402539 116 18334021596179750263
23402655 69 18264785422937833677
23463225 33 18412545448487179030
2748010 2 17978789013045780366
3312278 4 18336264643235344425
5104073 3 18410012160490057337
7364860 26 18192430771054039288
8809292 202 18129938971454340595

> <PUBCHEM_SHAPE_MULTIPOLES>
239.08
7
1.49
0.58
1.39
0.13
0
-1.33
0.01
-0.01
0
0.04
0
0

> <PUBCHEM_SHAPE_SELFOVERLAP>
500.927

> <PUBCHEM_SHAPE_VOLUME>
135.8

> <PUBCHEM_COORDINATE_TYPE>
2
5
10

$$$$

