47205124
  -OEChem-06241222583D

 33 34  0     0  0  0  0  0  0999 V2000
    2.0571   -0.0244   -2.8114 Br  0  0  0  0  0  0  0  0  0  0  0  0
    0.7594    1.7788   -0.2972 S   0  0  0  0  0  0  0  0  0  0  0  0
    5.0266   -2.1079    0.9047 F   0  0  0  0  0  0  0  0  0  0  0  0
    0.4907    2.4843    0.9413 O   0  0  0  0  0  0  0  0  0  0  0  0
    1.1400    2.5142   -1.4879 O   0  0  0  0  0  0  0  0  0  0  0  0
   -0.5565    0.7735   -0.6727 N   0  0  0  0  0  0  0  0  0  0  0  0
   -1.0437   -0.2088    0.3255 C   0  0  0  0  0  0  0  0  0  0  0  0
   -2.4948   -0.5216    0.1620 C   0  0  0  0  0  0  0  0  0  0  0  0
   -3.4746    0.3767    0.5844 C   0  0  0  0  0  0  0  0  0  0  0  0
    2.0406    0.6012    0.0136 C   0  0  0  0  0  0  0  0  0  0  0  0
   -2.8645   -1.7327   -0.4229 C   0  0  0  0  0  0  0  0  0  0  0  0
   -4.8241    0.0640    0.4219 C   0  0  0  0  0  0  0  0  0  0  0  0
    2.6086   -0.1694   -1.0009 C   0  0  0  0  0  0  0  0  0  0  0  0
    2.4813    0.4568    1.3292 C   0  0  0  0  0  0  0  0  0  0  0  0
   -3.1032    1.6794    1.2133 C   0  0  0  0  0  0  0  0  0  0  0  0
   -4.2142   -2.0455   -0.5855 C   0  0  0  0  0  0  0  0  0  0  0  0
   -5.1940   -1.1471   -0.1631 C   0  0  0  0  0  0  0  0  0  0  0  0
    3.6173   -1.0845   -0.6999 C   0  0  0  0  0  0  0  0  0  0  0  0
    3.4901   -0.4583    1.6301 C   0  0  0  0  0  0  0  0  0  0  0  0
    4.0580   -1.2289    0.6156 C   0  0  0  0  0  0  0  0  0  0  0  0
   -0.8490    0.1409    1.3449 H   0  0  0  0  0  0  0  0  0  0  0  0
   -0.4495   -1.1234    0.2053 H   0  0  0  0  0  0  0  0  0  0  0  0
   -0.7122    0.5204   -1.6567 H   0  0  0  0  0  0  0  0  0  0  0  0
   -2.1139   -2.4427   -0.7599 H   0  0  0  0  0  0  0  0  0  0  0  0
   -5.6006    0.7524    0.7449 H   0  0  0  0  0  0  0  0  0  0  0  0
    2.0596    1.0366    2.1446 H   0  0  0  0  0  0  0  0  0  0  0  0
   -2.4993    1.5234    2.1128 H   0  0  0  0  0  0  0  0  0  0  0  0
   -2.5575    2.3118    0.5066 H   0  0  0  0  0  0  0  0  0  0  0  0
   -3.9906    2.2424    1.5241 H   0  0  0  0  0  0  0  0  0  0  0  0
   -4.5022   -2.9881   -1.0415 H   0  0  0  0  0  0  0  0  0  0  0  0
   -6.2448   -1.3906   -0.2899 H   0  0  0  0  0  0  0  0  0  0  0  0
    4.0727   -1.6945   -1.4758 H   0  0  0  0  0  0  0  0  0  0  0  0
    3.8332   -0.5721    2.6542 H   0  0  0  0  0  0  0  0  0  0  0  0
  1 13  1  0  0  0  0
  2  4  2  0  0  0  0
  2  5  2  0  0  0  0
  2  6  1  0  0  0  0
  2 10  1  0  0  0  0
  3 20  1  0  0  0  0
  6  7  1  0  0  0  0
  6 23  1  0  0  0  0
  7  8  1  0  0  0  0
  7 21  1  0  0  0  0
  7 22  1  0  0  0  0
  8  9  1  0  0  0  0
  8 11  2  0  0  0  0
  9 12  2  0  0  0  0
  9 15  1  0  0  0  0
 10 13  2  0  0  0  0
 10 14  1  0  0  0  0
 11 16  1  0  0  0  0
 11 24  1  0  0  0  0
 12 17  1  0  0  0  0
 12 25  1  0  0  0  0
 13 18  1  0  0  0  0
 14 19  2  0  0  0  0
 14 26  1  0  0  0  0
 15 27  1  0  0  0  0
 15 28  1  0  0  0  0
 15 29  1  0  0  0  0
 16 17  2  0  0  0  0
 16 30  1  0  0  0  0
 17 31  1  0  0  0  0
 18 20  2  0  0  0  0
 18 32  1  0  0  0  0
 19 20  1  0  0  0  0
 19 33  1  0  0  0  0
M  END
> <PUBCHEM_COMPOUND_CID>
47205124

> <PUBCHEM_CONFORMER_RMSD>
0.6

> <PUBCHEM_CONFORMER_DIVERSEORDER>
1
101
81
117
31
85
100
57
48
116
18
70
60
54
108
32
105
64
114
97
94
55
39
78
14
51
44
99
111
93
79
27
91
15
10
118
23
43
77
68
52
88
96
112
66
19
95
49
6
92
13
11
36
87
65
89
50
17
71
58
46
107
115
8
42
28
75
33
2
109
53
86
80
110
102
104
113
62
40
69
76
22
5
83
82
25
59
24
56
45
106
21
9
29
16
98
61
67
12
26
84
72
7
74
3
63
30
103
37
35
73
38
90
34
41
47
4
20

> <PUBCHEM_MMFF94_PARTIAL_CHARGES>
28
1 -0.11
10 -0.01
11 -0.15
12 -0.15
13 0.11
14 -0.15
15 0.14
16 -0.15
17 -0.15
18 -0.15
19 -0.15
2 1.45
20 0.19
23 0.42
24 0.15
25 0.15
26 0.15
3 -0.19
30 0.15
31 0.15
32 0.15
33 0.15
4 -0.65
5 -0.65
6 -0.91
7 0.5
8 -0.14
9 -0.14

> <PUBCHEM_EFFECTIVE_ROTOR_COUNT>
4

> <PUBCHEM_PHARMACOPHORE_FEATURES>
6
1 1 hydrophobe
1 4 acceptor
1 5 acceptor
1 6 donor
6 10 13 14 18 19 20 rings
6 8 9 11 12 16 17 rings

> <PUBCHEM_HEAVY_ATOM_COUNT>
20

> <PUBCHEM_ATOM_DEF_STEREO_COUNT>
0

> <PUBCHEM_ATOM_UDEF_STEREO_COUNT>
0

> <PUBCHEM_BOND_DEF_STEREO_COUNT>
0

> <PUBCHEM_BOND_UDEF_STEREO_COUNT>
0

> <PUBCHEM_ISOTOPIC_ATOM_COUNT>
0

> <PUBCHEM_COMPONENT_COUNT>
1

> <PUBCHEM_CACTVS_TAUTO_COUNT>
1

> <PUBCHEM_CONFORMER_ID>
02D04B0400000001

> <PUBCHEM_MMFF94_ENERGY>
36.8351

> <PUBCHEM_FEATURE_SELFOVERLAP>
30.464

> <PUBCHEM_SHAPE_FINGERPRINT>
11370993 70 16805325508849337551
11578080 2 17988379121189521020
12346177 29 18334300889866975365
12363563 72 18408600353263537779
12553582 1 17846503655283199442
12633257 1 18114730595390829241
12892183 10 17676779720605057672
13533116 47 18267026055609513723
13583140 156 16443355303122584649
13675066 3 17167858677735367253
14178342 30 18187919646780479587
14341114 328 5328738569516641119
15188451 53 17968108490823587431
15210252 30 10159700217974244318
15885798 251 18410576205713145713
16752209 62 17489038153038339593
17349148 13 18333731291367639487
17492 89 18193840345235206723
1813 80 18131068268431926580
18186145 218 14117511039096291749
19078846 21 18341323470232900861
20369508 70 18272934877666400493
20388580 30 17418373614758321358
20600515 1 18188485903780240776
20626108 58 18411705344051495243
20645477 70 16630239234218533478
21033648 29 16081367500667108627
21713013 43 15195269920296199593
221357 26 14836129866179733703
2255824 54 18057882454957006732
22646028 1 18411419488646018587
22646028 28 18411700967569634339
23557571 272 17458612450310969849
23559900 14 17531791494548406557
2637199 183 8718827613278974398
3060560 45 15410897340706542922
312423 11 18269823247418276513
3323516 105 14189280556766349184
49207404 50 16515401880374083028
4990 188 13326855534671329858
5104073 3 18115300082463843307
5281201 14 15554449578602228263
602551 16 18189330337399975560
633830 44 15625954088743422263
6823239 73 17532069653815269508
7471813 234 17846775239393657460
960060 61 17274822428560164895
9709674 26 18042680594807880775
9841814 1 18335130952025776712
9971528 1 18343590611669663464
9981440 41 17331685643949927825

> <PUBCHEM_SHAPE_MULTIPOLES>
397.39
10.34
2.23
1.75
5.99
0.63
1.02
-5.97
-2.57
0.29
0
-2.35
0.05
-1.13

> <PUBCHEM_SHAPE_SELFOVERLAP>
817.374

> <PUBCHEM_SHAPE_VOLUME>
232.6

> <PUBCHEM_COORDINATE_TYPE>
2
5
10

$$$$

