79914
  -OEChem-07051213132D

 36 37  0     0  0  0  0  0  0999 V2000
    2.8660   -5.2500    0.0000 Cl  0  0  0  0  0  0  0  0  0  0  0  0
    5.0981    2.8840    0.0000 S   0  0  0  0  0  0  0  0  0  0  0  0
    4.5981    3.7500    0.0000 P   0  0  0  0  0  0  0  0  0  0  0  0
    3.7320    3.2500    0.0000 O   0  0  0  0  0  0  0  0  0  0  0  0
    5.4641    4.2500    0.0000 O   0  0  0  0  0  0  0  0  0  0  0  0
    4.0981    4.6160    0.0000 O   0  0  0  0  0  0  0  0  0  0  0  0
    3.7320   -0.7500    0.0000 N   0  0  0  0  0  0  0  0  0  0  0  0
    2.8660   -1.2500    0.0000 N   0  0  0  0  0  0  0  0  0  0  0  0
    3.7320    2.2500    0.0000 C   0  0  0  0  0  0  0  0  0  0  0  0
    3.7320    0.2500    0.0000 C   0  0  0  0  0  0  0  0  0  0  0  0
    2.8660    1.7500    0.0000 C   0  0  0  0  0  0  0  0  0  0  0  0
    4.5981    1.7500    0.0000 C   0  0  0  0  0  0  0  0  0  0  0  0
    2.8660    0.7500    0.0000 C   0  0  0  0  0  0  0  0  0  0  0  0
    4.5981    0.7500    0.0000 C   0  0  0  0  0  0  0  0  0  0  0  0
    2.8660   -2.2500    0.0000 C   0  0  0  0  0  0  0  0  0  0  0  0
    2.0000   -2.7500    0.0000 C   0  0  0  0  0  0  0  0  0  0  0  0
    3.7320   -2.7500    0.0000 C   0  0  0  0  0  0  0  0  0  0  0  0
    2.0000   -3.7500    0.0000 C   0  0  0  0  0  0  0  0  0  0  0  0
    3.7320   -3.7500    0.0000 C   0  0  0  0  0  0  0  0  0  0  0  0
    2.8660   -4.2500    0.0000 C   0  0  0  0  0  0  0  0  0  0  0  0
    3.0981    4.6160    0.0000 C   0  0  0  0  0  0  0  0  0  0  0  0
    5.4641    5.2500    0.0000 C   0  0  0  0  0  0  0  0  0  0  0  0
    2.3291    2.0600    0.0000 H   0  0  0  0  0  0  0  0  0  0  0  0
    5.1350    2.0600    0.0000 H   0  0  0  0  0  0  0  0  0  0  0  0
    2.3291    0.4400    0.0000 H   0  0  0  0  0  0  0  0  0  0  0  0
    5.1350    0.4400    0.0000 H   0  0  0  0  0  0  0  0  0  0  0  0
    1.4631   -2.4400    0.0000 H   0  0  0  0  0  0  0  0  0  0  0  0
    4.2690   -2.4400    0.0000 H   0  0  0  0  0  0  0  0  0  0  0  0
    1.4631   -4.0600    0.0000 H   0  0  0  0  0  0  0  0  0  0  0  0
    4.2690   -4.0600    0.0000 H   0  0  0  0  0  0  0  0  0  0  0  0
    3.0981    5.2360    0.0000 H   0  0  0  0  0  0  0  0  0  0  0  0
    2.4781    4.6160    0.0000 H   0  0  0  0  0  0  0  0  0  0  0  0
    3.0981    3.9960    0.0000 H   0  0  0  0  0  0  0  0  0  0  0  0
    6.0841    5.2500    0.0000 H   0  0  0  0  0  0  0  0  0  0  0  0
    5.4641    5.8700    0.0000 H   0  0  0  0  0  0  0  0  0  0  0  0
    4.8441    5.2500    0.0000 H   0  0  0  0  0  0  0  0  0  0  0  0
  1 20  1  0  0  0  0
  2  3  2  0  0  0  0
  3  4  1  0  0  0  0
  3  5  1  0  0  0  0
  3  6  1  0  0  0  0
  4  9  1  0  0  0  0
  5 22  1  0  0  0  0
  6 21  1  0  0  0  0
  7  8  2  0  0  0  0
  7 10  1  0  0  0  0
  8 15  1  0  0  0  0
  9 11  2  0  0  0  0
  9 12  1  0  0  0  0
 10 13  2  0  0  0  0
 10 14  1  0  0  0  0
 11 13  1  0  0  0  0
 11 23  1  0  0  0  0
 12 14  2  0  0  0  0
 12 24  1  0  0  0  0
 13 25  1  0  0  0  0
 14 26  1  0  0  0  0
 15 16  2  0  0  0  0
 15 17  1  0  0  0  0
 16 18  1  0  0  0  0
 16 27  1  0  0  0  0
 17 19  2  0  0  0  0
 17 28  1  0  0  0  0
 18 20  2  0  0  0  0
 18 29  1  0  0  0  0
 19 20  1  0  0  0  0
 19 30  1  0  0  0  0
 21 31  1  0  0  0  0
 21 32  1  0  0  0  0
 21 33  1  0  0  0  0
 22 34  1  0  0  0  0
 22 35  1  0  0  0  0
 22 36  1  0  0  0  0
M  END
> <PUBCHEM_COMPOUND_CID>
79914

> <PUBCHEM_COMPOUND_CANONICALIZED>
1

> <PUBCHEM_CACTVS_COMPLEXITY>
403

> <PUBCHEM_CACTVS_HBOND_ACCEPTOR>
6

> <PUBCHEM_CACTVS_HBOND_DONOR>
0

> <PUBCHEM_CACTVS_ROTATABLE_BOND>
6

> <PUBCHEM_CACTVS_SUBSKEYS>
AAADccBzMAJEAAAAAAAAAAAAAAAAAAAAAAAwYAAAAAAAAAABQAAAHgIIACAACA6BkCIyxoAAARCCACRCQACCAAAgJwAIiAAGbogIJiKBk5OAMABkwBEIyAewQAAAAEBAAAAAAAAAgIAAAAAAAAAAAAAAAA==

> <PUBCHEM_IUPAC_OPENEYE_NAME>
(4-chlorophenyl)-(4-dimethoxyphosphinothioyloxyphenyl)diazene

> <PUBCHEM_IUPAC_CAS_NAME>
(4-chlorophenyl)-(4-dimethoxyphosphinothioyloxyphenyl)diazene

> <PUBCHEM_IUPAC_NAME>
(4-chlorophenyl)-(4-dimethoxyphosphinothioyloxyphenyl)diazene

> <PUBCHEM_IUPAC_SYSTEMATIC_NAME>
(4-chlorophenyl)-(4-dimethoxyphosphinothioyloxyphenyl)diazene

> <PUBCHEM_IUPAC_TRADITIONAL_NAME>
(4-chlorophenyl)-(4-dimethoxythiophosphoryloxyphenyl)diazene

> <PUBCHEM_IUPAC_INCHI>
InChI=1S/C14H14ClN2O3PS/c1-18-21(22,19-2)20-14-9-7-13(8-10-14)17-16-12-5-3-11(15)4-6-12/h3-10H,1-2H3

> <PUBCHEM_IUPAC_INCHIKEY>
DCEAEHHJGXAROU-UHFFFAOYSA-N

> <PUBCHEM_XLOGP3>
5.4

> <PUBCHEM_EXACT_MASS>
356.015128

> <PUBCHEM_MOLECULAR_FORMULA>
C14H14ClN2O3PS

> <PUBCHEM_MOLECULAR_WEIGHT>
356.764322

> <PUBCHEM_OPENEYE_CAN_SMILES>
COP(=S)(OC)OC1=CC=C(C=C1)N=NC2=CC=C(C=C2)Cl

> <PUBCHEM_OPENEYE_ISO_SMILES>
COP(=S)(OC)OC1=CC=C(C=C1)N=NC2=CC=C(C=C2)Cl

> <PUBCHEM_CACTVS_TPSA>
84.5

> <PUBCHEM_MONOISOTOPIC_WEIGHT>
356.015128

> <PUBCHEM_TOTAL_CHARGE>
0

> <PUBCHEM_HEAVY_ATOM_COUNT>
22

> <PUBCHEM_ATOM_DEF_STEREO_COUNT>
0

> <PUBCHEM_ATOM_UDEF_STEREO_COUNT>
0

> <PUBCHEM_BOND_DEF_STEREO_COUNT>
0

> <PUBCHEM_BOND_UDEF_STEREO_COUNT>
0

> <PUBCHEM_ISOTOPIC_ATOM_COUNT>
0

> <PUBCHEM_COMPONENT_COUNT>
1

> <PUBCHEM_CACTVS_TAUTO_COUNT>
1

> <PUBCHEM_COORDINATE_TYPE>
1
5
255

> <PUBCHEM_BONDANNOTATIONS>
10  13  8
10  14  8
11  13  8
12  14  8
15  16  8
15  17  8
16  18  8
17  19  8
18  20  8
19  20  8
9  11  8
9  12  8

$$$$

