56928122
  -OEChem-07051213153D

 81 84  0     1  0  0  0  0  0999 V2000
   -6.8385   -0.3407    1.0143 O   0  0  0  0  0  0  0  0  0  0  0  0
   -0.6228    0.5487   -1.2544 C   0  0  1  0  0  0  0  0  0  0  0  0
   -1.2996    1.1249    0.0732 C   0  0  1  0  0  0  0  0  0  0  0  0
   -2.5335    0.2729    0.6814 C   0  0  2  0  0  0  0  0  0  0  0  0
    0.9600    0.8206   -1.3218 C   0  0  2  0  0  0  0  0  0  0  0  0
   -3.3159   -0.3877   -0.4936 C   0  0  1  0  0  0  0  0  0  0  0  0
    1.7235    0.4940   -0.0039 C   0  0  2  0  0  0  0  0  0  0  0  0
   -0.9289   -0.9648   -1.3616 C   0  0  0  0  0  0  0  0  0  0  0  0
   -0.2814    1.5384    1.1608 C   0  0  0  0  0  0  0  0  0  0  0  0
   -2.4134   -1.3530   -1.2882 C   0  0  0  0  0  0  0  0  0  0  0  0
   -4.7687   -0.9438   -0.2015 C   0  0  0  0  0  0  0  0  0  0  0  0
    0.8909    0.5819    1.2731 C   0  0  0  0  0  0  0  0  0  0  0  0
   -3.4800    1.2710    1.4157 C   0  0  0  0  0  0  0  0  0  0  0  0
    1.2927    2.3244   -1.5567 C   0  0  0  0  0  0  0  0  0  0  0  0
   -1.2682    1.2445   -2.4999 C   0  0  0  0  0  0  0  0  0  0  0  0
    2.8766    1.4803    0.0053 C   0  0  0  0  0  0  0  0  0  0  0  0
   -2.0692   -0.7814    1.7169 C   0  0  0  0  0  0  0  0  0  0  0  0
   -5.5746    0.1466    0.5661 C   0  0  2  0  0  0  0  0  0  0  0  0
    1.6482    0.0176   -2.4708 C   0  0  0  0  0  0  0  0  0  0  0  0
   -4.8376    0.6870    1.7881 C   0  0  0  0  0  0  0  0  0  0  0  0
    2.7066    2.5432   -1.0348 C   0  0  0  0  0  0  0  0  0  0  0  0
   -5.4787   -1.1993   -1.5618 C   0  0  0  0  0  0  0  0  0  0  0  0
   -4.8258   -2.2912    0.5526 C   0  0  0  0  0  0  0  0  0  0  0  0
    3.9491    1.3970    0.8032 C   0  0  0  0  0  0  0  0  0  0  0  0
    4.1001    0.2810    1.8145 C   0  0  0  0  0  0  0  0  0  0  0  0
    5.0780    2.3846    0.7069 C   0  0  0  0  0  0  0  0  0  0  0  0
    5.3641   -0.5682    1.6254 C   0  0  0  0  0  0  0  0  0  0  0  0
    5.3936   -1.2643    0.2922 C   0  0  0  0  0  0  0  0  0  0  0  0
    5.0044   -2.5192   -0.0026 C   0  0  0  0  0  0  0  0  0  0  0  0
    4.4300   -3.5063    0.9732 C   0  0  0  0  0  0  0  0  0  0  0  0
    5.1192   -3.0387   -1.4115 C   0  0  0  0  0  0  0  0  0  0  0  0
   -1.7487    2.0809   -0.2351 H   0  0  0  0  0  0  0  0  0  0  0  0
   -3.5277    0.4536   -1.1653 H   0  0  0  0  0  0  0  0  0  0  0  0
    2.1274   -0.5252   -0.0696 H   0  0  0  0  0  0  0  0  0  0  0  0
   -0.3760   -1.5020   -0.5830 H   0  0  0  0  0  0  0  0  0  0  0  0
   -0.5537   -1.3700   -2.3091 H   0  0  0  0  0  0  0  0  0  0  0  0
   -0.7642    1.6445    2.1374 H   0  0  0  0  0  0  0  0  0  0  0  0
    0.0962    2.5453    0.9522 H   0  0  0  0  0  0  0  0  0  0  0  0
   -2.4604   -2.3682   -0.8835 H   0  0  0  0  0  0  0  0  0  0  0  0
   -2.7960   -1.4246   -2.3141 H   0  0  0  0  0  0  0  0  0  0  0  0
    1.4879    0.8934    2.1372 H   0  0  0  0  0  0  0  0  0  0  0  0
    0.5370   -0.4235    1.5173 H   0  0  0  0  0  0  0  0  0  0  0  0
   -3.6620    2.1447    0.7758 H   0  0  0  0  0  0  0  0  0  0  0  0
   -3.0038    1.6553    2.3252 H   0  0  0  0  0  0  0  0  0  0  0  0
    0.6029    2.9889   -1.0281 H   0  0  0  0  0  0  0  0  0  0  0  0
    1.2322    2.6019   -2.6159 H   0  0  0  0  0  0  0  0  0  0  0  0
   -1.1696    2.3338   -2.4515 H   0  0  0  0  0  0  0  0  0  0  0  0
   -2.3332    1.0440   -2.6141 H   0  0  0  0  0  0  0  0  0  0  0  0
   -0.8076    0.9114   -3.4343 H   0  0  0  0  0  0  0  0  0  0  0  0
   -1.4247   -1.5484    1.2854 H   0  0  0  0  0  0  0  0  0  0  0  0
   -2.8998   -1.3045    2.1854 H   0  0  0  0  0  0  0  0  0  0  0  0
   -1.5324   -0.3265    2.5545 H   0  0  0  0  0  0  0  0  0  0  0  0
   -5.7805    0.9827   -0.1153 H   0  0  0  0  0  0  0  0  0  0  0  0
    1.2012    0.2263   -3.4462 H   0  0  0  0  0  0  0  0  0  0  0  0
    2.7137    0.2582   -2.5598 H   0  0  0  0  0  0  0  0  0  0  0  0
    1.5988   -1.0619   -2.2950 H   0  0  0  0  0  0  0  0  0  0  0  0
   -4.7403   -0.0855    2.5586 H   0  0  0  0  0  0  0  0  0  0  0  0
   -5.4448    1.4723    2.2573 H   0  0  0  0  0  0  0  0  0  0  0  0
    2.7936    3.5562   -0.6300 H   0  0  0  0  0  0  0  0  0  0  0  0
    3.4350    2.4141   -1.8428 H   0  0  0  0  0  0  0  0  0  0  0  0
   -4.1762   -3.0481    0.1065 H   0  0  0  0  0  0  0  0  0  0  0  0
   -4.5724   -2.2038    1.6086 H   0  0  0  0  0  0  0  0  0  0  0  0
   -5.8408   -2.7079    0.5271 H   0  0  0  0  0  0  0  0  0  0  0  0
   -5.4551   -0.3071   -2.1975 H   0  0  0  0  0  0  0  0  0  0  0  0
   -5.0103   -2.0205   -2.1144 H   0  0  0  0  0  0  0  0  0  0  0  0
   -6.5317   -1.4674   -1.4168 H   0  0  0  0  0  0  0  0  0  0  0  0
   -7.3144    0.4021    1.4233 H   0  0  0  0  0  0  0  0  0  0  0  0
    3.2518   -0.4070    1.8402 H   0  0  0  0  0  0  0  0  0  0  0  0
    4.1380    0.7373    2.8124 H   0  0  0  0  0  0  0  0  0  0  0  0
    5.3418    2.7441    1.7077 H   0  0  0  0  0  0  0  0  0  0  0  0
    5.9636    1.9149    0.2678 H   0  0  0  0  0  0  0  0  0  0  0  0
    4.8532    3.2706    0.1089 H   0  0  0  0  0  0  0  0  0  0  0  0
    5.4304   -1.2944    2.4432 H   0  0  0  0  0  0  0  0  0  0  0  0
    6.2660    0.0487    1.7199 H   0  0  0  0  0  0  0  0  0  0  0  0
    5.7850   -0.6515   -0.5194 H   0  0  0  0  0  0  0  0  0  0  0  0
    5.7623   -3.9246   -1.4373 H   0  0  0  0  0  0  0  0  0  0  0  0
    3.4558   -3.8614    0.6202 H   0  0  0  0  0  0  0  0  0  0  0  0
    5.5462   -2.2987   -2.0966 H   0  0  0  0  0  0  0  0  0  0  0  0
    4.1312   -3.3138   -1.7953 H   0  0  0  0  0  0  0  0  0  0  0  0
    4.2750   -3.0842    1.9691 H   0  0  0  0  0  0  0  0  0  0  0  0
    5.0964   -4.3690    1.0745 H   0  0  0  0  0  0  0  0  0  0  0  0
  1 18  1  0  0  0  0
  1 67  1  0  0  0  0
  2  3  1  0  0  0  0
  2  5  1  0  0  0  0
  2  8  1  0  0  0  0
  2 15  1  0  0  0  0
  3  4  1  0  0  0  0
  3  9  1  0  0  0  0
  3 32  1  0  0  0  0
  4  6  1  0  0  0  0
  4 13  1  0  0  0  0
  4 17  1  0  0  0  0
  5  7  1  0  0  0  0
  5 14  1  0  0  0  0
  5 19  1  0  0  0  0
  6 10  1  0  0  0  0
  6 11  1  0  0  0  0
  6 33  1  0  0  0  0
  7 12  1  0  0  0  0
  7 16  1  0  0  0  0
  7 34  1  0  0  0  0
  8 10  1  0  0  0  0
  8 35  1  0  0  0  0
  8 36  1  0  0  0  0
  9 12  1  0  0  0  0
  9 37  1  0  0  0  0
  9 38  1  0  0  0  0
 10 39  1  0  0  0  0
 10 40  1  0  0  0  0
 11 18  1  0  0  0  0
 11 22  1  0  0  0  0
 11 23  1  0  0  0  0
 12 41  1  0  0  0  0
 12 42  1  0  0  0  0
 13 20  1  0  0  0  0
 13 43  1  0  0  0  0
 13 44  1  0  0  0  0
 14 21  1  0  0  0  0
 14 45  1  0  0  0  0
 14 46  1  0  0  0  0
 15 47  1  0  0  0  0
 15 48  1  0  0  0  0
 15 49  1  0  0  0  0
 16 21  1  0  0  0  0
 16 24  2  0  0  0  0
 17 50  1  0  0  0  0
 17 51  1  0  0  0  0
 17 52  1  0  0  0  0
 18 20  1  0  0  0  0
 18 53  1  0  0  0  0
 19 54  1  0  0  0  0
 19 55  1  0  0  0  0
 19 56  1  0  0  0  0
 20 57  1  0  0  0  0
 20 58  1  0  0  0  0
 21 59  1  0  0  0  0
 21 60  1  0  0  0  0
 22 64  1  0  0  0  0
 22 65  1  0  0  0  0
 22 66  1  0  0  0  0
 23 61  1  0  0  0  0
 23 62  1  0  0  0  0
 23 63  1  0  0  0  0
 24 25  1  0  0  0  0
 24 26  1  0  0  0  0
 25 27  1  0  0  0  0
 25 68  1  0  0  0  0
 25 69  1  0  0  0  0
 26 70  1  0  0  0  0
 26 71  1  0  0  0  0
 26 72  1  0  0  0  0
 27 28  1  0  0  0  0
 27 73  1  0  0  0  0
 27 74  1  0  0  0  0
 28 29  2  0  0  0  0
 28 75  1  0  0  0  0
 29 30  1  0  0  0  0
 29 31  1  0  0  0  0
 30 77  1  0  0  0  0
 30 80  1  0  0  0  0
 30 81  1  0  0  0  0
 31 76  1  0  0  0  0
 31 78  1  0  0  0  0
 31 79  1  0  0  0  0
M  END
> <PUBCHEM_COMPOUND_CID>
56928122

> <PUBCHEM_CONFORMER_RMSD>
0.8

> <PUBCHEM_CONFORMER_DIVERSEORDER>
3
56
89
79
67
75
112
109
11
58
46
62
83
40
45
115
73
116
61
76
36
85
118
8
82
38
14
102
65
64
117
71
49
72
16
84
39
66
94
53
98
41
70
18
95
29
107
88
52
42
10
100
114
113
5
96
78
101
22
24
97
31
12
86
106
4
74
44
19
103
99
30
43
17
104
77
59
13
35
2
93
21
37
80
110
15
68
48
1
87
50
20
108
81
32
9
69
111
34
27
90
92
6
33
60
51
26
91
105
7
47
55
57
23
54
63
28
25

> <PUBCHEM_MMFF94_PARTIAL_CHARGES>
15
1 -0.68
16 -0.28
18 0.28
21 0.14
24 -0.28
25 0.14
26 0.14
27 0.14
28 -0.29
29 -0.28
30 0.14
31 0.14
67 0.4
7 0.14
75 0.15

> <PUBCHEM_EFFECTIVE_ROTOR_COUNT>
5

> <PUBCHEM_PHARMACOPHORE_FEATURES>
10
1 1 acceptor
1 1 donor
1 26 hydrophobe
3 11 22 23 hydrophobe
3 29 30 31 hydrophobe
4 24 25 27 28 hydrophobe
5 5 7 14 16 21 rings
6 2 3 4 6 8 10 rings
6 2 3 5 7 9 12 rings
6 4 6 11 13 18 20 rings

> <PUBCHEM_HEAVY_ATOM_COUNT>
31

> <PUBCHEM_ATOM_DEF_STEREO_COUNT>
4

> <PUBCHEM_ATOM_UDEF_STEREO_COUNT>
3

> <PUBCHEM_BOND_DEF_STEREO_COUNT>
1

> <PUBCHEM_BOND_UDEF_STEREO_COUNT>
0

> <PUBCHEM_ISOTOPIC_ATOM_COUNT>
0

> <PUBCHEM_COMPONENT_COUNT>
1

> <PUBCHEM_CACTVS_TAUTO_COUNT>
1

> <PUBCHEM_CONFORMER_ID>
0364A77A00000003

> <PUBCHEM_MMFF94_ENERGY>
131.7687

> <PUBCHEM_FEATURE_SELFOVERLAP>
51.021

> <PUBCHEM_SHAPE_FINGERPRINT>
10 15 15791739550947751272
10074138 170 15069494573149660926
10319926 262 17095795624466997454
10692045 39 17604702403845665231
10928967 22 17988087819580636714
12107183 9 17972028399556918400
12236239 1 18338238159016878545
12373685 5 17530690914138327999
12422481 6 16950565548991423150
12633257 1 15140976036401574090
13533116 47 18334297552534883842
13583140 156 17459776798960472240
13692114 37 17758957408913914601
13782708 43 18202288034314473307
13914758 101 18339088176764368381
14211702 104 18341607054392527699
14251764 30 18192426601295052774
15001296 14 18409737239882106730
15064986 96 15719953670317777982
15163728 17 8141500420222596470
15484559 13 5205240633558908482
17349148 13 18343013364033870921
173720 79 16950286217103374133
1813 80 18131351942769529004
21267235 1 13758078468385612609
21421861 104 18040996246199527918
21792934 111 17749657606969617465
21859007 373 18046904055241180181
2260408 40 18187937192365384536
23559900 14 18130220471783603856
27425 322 17902786363743041436
2838139 119 8574711299774331850
3117164 225 18115305708380357432
3459 39 14923951158287623918
3633792 109 18339098050815164935
3680242 22 17531240651849044123
3886686 26 16885522998147766386
404807 14 17687739854190601714
4093350 32 17774716472903562788
5104073 3 17822273688057624147
513202 73 18199471137121559017
5326457 24 18339929190699657015
6823239 73 15123504774755461141
77296 10 18187364346021570099
7918774 8 17632572786005542362
86090 222 17847057796575689114

> <PUBCHEM_SHAPE_MULTIPOLES>
632.1
14.28
2.95
2.19
3.96
1.59
-0.63
7.72
4.95
-4.89
-0.33
0.15
-0.27
-0.4

> <PUBCHEM_SHAPE_SELFOVERLAP>
1311.161

> <PUBCHEM_SHAPE_VOLUME>
357.1

> <PUBCHEM_COORDINATE_TYPE>
2
5
10

$$$$

