5284462
  -OEChem-07051213053D

 28 28  0     0  0  0  0  0  0999 V2000
   -0.7909    2.6754   -1.7366 Cl  0  0  0  0  0  0  0  0  0  0  0  0
   -2.8639   -2.0714    1.7558 Cl  0  0  0  0  0  0  0  0  0  0  0  0
   -4.7070   -0.7739   -0.5652 Cl  0  0  0  0  0  0  0  0  0  0  0  0
    2.6068    2.8623    1.7662 Cl  0  0  0  0  0  0  0  0  0  0  0  0
    1.6837   -0.8388   -0.7138 P   0  0  0  0  0  0  0  0  0  0  0  0
    1.7748    0.6900   -0.1884 O   0  0  0  0  0  0  0  0  0  0  0  0
    3.1515   -1.1010   -1.3475 O   0  0  0  0  0  0  0  0  0  0  0  0
    1.7115   -1.7053    0.6550 O   0  0  0  0  0  0  0  0  0  0  0  0
    0.5313   -1.1300   -1.6323 O   0  0  0  0  0  0  0  0  0  0  0  0
   -0.5665    0.7969    0.2398 C   0  0  0  0  0  0  0  0  0  0  0  0
    0.7945    1.2881    0.5291 C   0  0  0  0  0  0  0  0  0  0  0  0
   -1.3453    1.3618   -0.7580 C   0  0  0  0  0  0  0  0  0  0  0  0
   -1.0371   -0.2567    1.0091 C   0  0  0  0  0  0  0  0  0  0  0  0
   -2.3177   -0.7571    0.7742 C   0  0  0  0  0  0  0  0  0  0  0  0
   -2.6260    0.8615   -0.9930 C   0  0  0  0  0  0  0  0  0  0  0  0
   -3.1123   -0.1979   -0.2268 C   0  0  0  0  0  0  0  0  0  0  0  0
    1.0378    2.2622    1.4164 C   0  0  0  0  0  0  0  0  0  0  0  0
    4.2893   -0.8489   -0.5415 C   0  0  0  0  0  0  0  0  0  0  0  0
    1.7853   -3.1171    0.5576 C   0  0  0  0  0  0  0  0  0  0  0  0
   -0.4266   -0.6822    1.8023 H   0  0  0  0  0  0  0  0  0  0  0  0
   -3.2452    1.2979   -1.7742 H   0  0  0  0  0  0  0  0  0  0  0  0
    0.2726    2.7620    1.9965 H   0  0  0  0  0  0  0  0  0  0  0  0
    5.1826   -1.1190   -1.1106 H   0  0  0  0  0  0  0  0  0  0  0  0
    4.2631   -1.4487    0.3711 H   0  0  0  0  0  0  0  0  0  0  0  0
    4.3450    0.2129   -0.2883 H   0  0  0  0  0  0  0  0  0  0  0  0
    2.6843   -3.4171    0.0136 H   0  0  0  0  0  0  0  0  0  0  0  0
    0.8978   -3.4981    0.0454 H   0  0  0  0  0  0  0  0  0  0  0  0
    1.8220   -3.5361    1.5660 H   0  0  0  0  0  0  0  0  0  0  0  0
  1 12  1  0  0  0  0
  2 14  1  0  0  0  0
  3 16  1  0  0  0  0
  4 17  1  0  0  0  0
  5  6  1  0  0  0  0
  5  7  1  0  0  0  0
  5  8  1  0  0  0  0
  5  9  2  0  0  0  0
  6 11  1  0  0  0  0
  7 18  1  0  0  0  0
  8 19  1  0  0  0  0
 10 11  1  0  0  0  0
 10 12  1  0  0  0  0
 10 13  2  0  0  0  0
 11 17  2  0  0  0  0
 12 15  2  0  0  0  0
 13 14  1  0  0  0  0
 13 20  1  0  0  0  0
 14 16  2  0  0  0  0
 15 16  1  0  0  0  0
 15 21  1  0  0  0  0
 17 22  1  0  0  0  0
 18 23  1  0  0  0  0
 18 24  1  0  0  0  0
 18 25  1  0  0  0  0
 19 26  1  0  0  0  0
 19 27  1  0  0  0  0
 19 28  1  0  0  0  0
M  END
> <PUBCHEM_COMPOUND_CID>
5284462

> <PUBCHEM_CONFORMER_RMSD>
0.6

> <PUBCHEM_CONFORMER_DIVERSEORDER>
2
55
36
22
74
29
18
61
14
12
67
6
21
51
31
24
69
13
62
64
5
11
44
73
71
9
53
42
68
28
7
43
54
46
25
60
49
19
48
23
59
70
41
38
39
10
8
57
37
16
56
50
3
52
65
63
33
4
58
40
35
26
20
66
27
30
47
45
1
72
17
15
34
32

> <PUBCHEM_MMFF94_PARTIAL_CHARGES>
22
1 -0.18
10 0.03
11 0.05
12 0.18
13 -0.15
14 0.18
15 -0.15
16 0.18
17 -0.01
18 0.28
19 0.28
2 -0.18
20 0.15
21 0.15
22 0.15
3 -0.18
4 -0.14
5 1.51
6 -0.35
7 -0.55
8 -0.55
9 -0.7

> <PUBCHEM_EFFECTIVE_ROTOR_COUNT>
5

> <PUBCHEM_PHARMACOPHORE_FEATURES>
2
1 9 acceptor
6 10 12 13 14 15 16 rings

> <PUBCHEM_HEAVY_ATOM_COUNT>
19

> <PUBCHEM_ATOM_DEF_STEREO_COUNT>
0

> <PUBCHEM_ATOM_UDEF_STEREO_COUNT>
0

> <PUBCHEM_BOND_DEF_STEREO_COUNT>
1

> <PUBCHEM_BOND_UDEF_STEREO_COUNT>
0

> <PUBCHEM_ISOTOPIC_ATOM_COUNT>
0

> <PUBCHEM_COMPONENT_COUNT>
1

> <PUBCHEM_CACTVS_TAUTO_COUNT>
1

> <PUBCHEM_CONFORMER_ID>
0050A26E00000002

> <PUBCHEM_MMFF94_ENERGY>
44.7064

> <PUBCHEM_FEATURE_SELFOVERLAP>
10.148

> <PUBCHEM_SHAPE_FINGERPRINT>
10366900 7 18341896302763645342
108231 29 18335686253085549090
12788726 201 17684076268640512840
14178342 30 18126278650121711915
14787075 74 18336539444223150358
14817 1 6882051790391309853
16945 1 18058437863058463620
1813 80 16806144666940391924
19049666 15 18340216279441054489
20645477 70 18114188488855484823
20871999 31 17989208187663871989
21061003 4 18113888399089683904
22182313 1 18199188378477232283
22802520 49 18201719587219274249
23402539 116 17917430985753872909
23419403 2 18191851354190094098
23526113 38 18048053044332380789
23557571 272 18129955493824399413
23559900 14 18131634461133135644
2748010 2 18198903608843633747
298252 57 14637103800081179696
3286 77 18186801361639903285
4340502 62 17388268836145021651
7364860 26 17968382242910860720
77492 1 16009025038792180569
81228 2 18059581316987891981
84936 31 17749396914390384556
9709674 26 18057597870524713686

> <PUBCHEM_SHAPE_MULTIPOLES>
378.86
6.29
3.22
1.73
1.89
0.13
-0.17
-2.43
0.49
-2.06
-0.71
-0.27
0.54
2.28

> <PUBCHEM_SHAPE_SELFOVERLAP>
731.155

> <PUBCHEM_SHAPE_VOLUME>
235

> <PUBCHEM_COORDINATE_TYPE>
2
5
10

$$$$

