47205497
  -OEChem-06241222592D

 34 35  0     1  0  0  0  0  0999 V2000
    5.0032    0.5339    0.0000 S   0  0  0  0  0  0  0  0  0  0  0  0
    6.7985    0.9211    0.0000 O   0  0  0  0  0  0  0  0  0  0  0  0
    8.7006    0.3031    0.0000 N   0  0  0  0  0  0  0  0  0  0  0  0
    6.2633   -0.7262    0.0000 N   0  0  0  0  0  0  0  0  0  0  0  0
    4.5032   -1.0050    0.0000 N   0  0  0  0  0  0  0  0  0  0  0  0
    9.5096    1.7043    0.0000 N   0  0  0  0  0  0  0  0  0  0  0  0
    7.9575   -0.3661    0.0000 C   0  0  3  0  0  0  0  0  0  0  0  0
    2.7431   -0.7262    0.0000 C   0  0  0  0  0  0  0  0  0  0  0  0
    3.6942   -0.4172    0.0000 C   0  0  0  0  0  0  0  0  0  0  0  0
    7.0064   -0.0570    0.0000 C   0  0  0  0  0  0  0  0  0  0  0  0
    8.1654   -1.3442    0.0000 C   0  0  0  0  0  0  0  0  0  0  0  0
    2.0000   -0.0570    0.0000 C   0  0  0  0  0  0  0  0  0  0  0  0
    2.5352   -1.7043    0.0000 C   0  0  0  0  0  0  0  0  0  0  0  0
    5.3122   -0.4172    0.0000 C   0  0  0  0  0  0  0  0  0  0  0  0
    4.0032    0.5339    0.0000 C   0  0  0  0  0  0  0  0  0  0  0  0
    9.6788    0.0952    0.0000 C   0  0  0  0  0  0  0  0  0  0  0  0
    8.5961    1.2976    0.0000 C   0  0  0  0  0  0  0  0  0  0  0  0
   10.1788    0.9612    0.0000 C   0  0  0  0  0  0  0  0  0  0  0  0
    8.5472   -0.5577    0.0000 H   0  0  0  0  0  0  0  0  0  0  0  0
    3.2039   -1.1410    0.0000 H   0  0  0  0  0  0  0  0  0  0  0  0
    7.5590   -1.4731    0.0000 H   0  0  0  0  0  0  0  0  0  0  0  0
    8.2943   -1.9507    0.0000 H   0  0  0  0  0  0  0  0  0  0  0  0
    8.7719   -1.2153    0.0000 H   0  0  0  0  0  0  0  0  0  0  0  0
    1.9288   -1.5754    0.0000 H   0  0  0  0  0  0  0  0  0  0  0  0
    2.4063   -2.3108    0.0000 H   0  0  0  0  0  0  0  0  0  0  0  0
    2.4149    0.4037    0.0000 H   0  0  0  0  0  0  0  0  0  0  0  0
    1.5392    0.3578    0.0000 H   0  0  0  0  0  0  0  0  0  0  0  0
    1.5851   -0.5178    0.0000 H   0  0  0  0  0  0  0  0  0  0  0  0
    3.1417   -1.8332    0.0000 H   0  0  0  0  0  0  0  0  0  0  0  0
    6.3922   -1.3326    0.0000 H   0  0  0  0  0  0  0  0  0  0  0  0
    3.6388    1.0355    0.0000 H   0  0  0  0  0  0  0  0  0  0  0  0
    9.9310   -0.4712    0.0000 H   0  0  0  0  0  0  0  0  0  0  0  0
    8.0592    1.6076    0.0000 H   0  0  0  0  0  0  0  0  0  0  0  0
   10.7954    1.0260    0.0000 H   0  0  0  0  0  0  0  0  0  0  0  0
  1 14  1  0  0  0  0
  1 15  1  0  0  0  0
  2 10  2  0  0  0  0
  3  7  1  0  0  0  0
  3 16  1  0  0  0  0
  3 17  1  0  0  0  0
  4 10  1  0  0  0  0
  4 14  1  0  0  0  0
  4 30  1  0  0  0  0
  5  9  1  0  0  0  0
  5 14  2  0  0  0  0
  6 17  2  0  0  0  0
  6 18  1  0  0  0  0
  7 10  1  0  0  0  0
  7 11  1  0  0  0  0
  7 19  1  0  0  0  0
  8  9  1  0  0  0  0
  8 12  1  0  0  0  0
  8 13  1  0  0  0  0
  8 20  1  0  0  0  0
  9 15  2  0  0  0  0
 11 21  1  0  0  0  0
 11 22  1  0  0  0  0
 11 23  1  0  0  0  0
 12 26  1  0  0  0  0
 12 27  1  0  0  0  0
 12 28  1  0  0  0  0
 13 24  1  0  0  0  0
 13 25  1  0  0  0  0
 13 29  1  0  0  0  0
 15 31  1  0  0  0  0
 16 18  2  0  0  0  0
 16 32  1  0  0  0  0
 17 33  1  0  0  0  0
 18 34  1  0  0  0  0
M  END
> <PUBCHEM_COMPOUND_CID>
47205497

> <PUBCHEM_COMPOUND_CANONICALIZED>
1

> <PUBCHEM_CACTVS_COMPLEXITY>
300

> <PUBCHEM_CACTVS_HBOND_ACCEPTOR>
4

> <PUBCHEM_CACTVS_HBOND_DONOR>
1

> <PUBCHEM_CACTVS_ROTATABLE_BOND>
4

> <PUBCHEM_CACTVS_SUBSKEYS>
AAADceBzoABAAAAAAAAAAAAAAAAAAWLAAAAAAAAAAAAAAAAB4AAAHgQQAAAADSjF1gSvkRfMEAisARV3dAAA8K1xGrkJQBW4MAiAaAAgCSAUAAAIEQKAACAAAAAIAAAAAAAAAAAAAAAAAAAAAAAAAAAAAA==

> <PUBCHEM_IUPAC_OPENEYE_NAME>
2-imidazol-1-yl-N-(4-isopropylthiazol-2-yl)propanamide

> <PUBCHEM_IUPAC_CAS_NAME>
2-(1-imidazolyl)-N-(4-propan-2-yl-2-thiazolyl)propanamide

> <PUBCHEM_IUPAC_NAME>
2-imidazol-1-yl-N-(4-propan-2-yl-1,3-thiazol-2-yl)propanamide

> <PUBCHEM_IUPAC_SYSTEMATIC_NAME>
2-imidazol-1-yl-N-(4-propan-2-yl-1,3-thiazol-2-yl)propanamide

> <PUBCHEM_IUPAC_TRADITIONAL_NAME>
2-imidazol-1-yl-N-(4-isopropylthiazol-2-yl)propionamide

> <PUBCHEM_IUPAC_INCHI>
InChI=1S/C12H16N4OS/c1-8(2)10-6-18-12(14-10)15-11(17)9(3)16-5-4-13-7-16/h4-9H,1-3H3,(H,14,15,17)

> <PUBCHEM_IUPAC_INCHIKEY>
IIPZJKYSBTXILJ-UHFFFAOYSA-N

> <PUBCHEM_XLOGP3_AA>
1.9

> <PUBCHEM_EXACT_MASS>
264.104482

> <PUBCHEM_MOLECULAR_FORMULA>
C12H16N4OS

> <PUBCHEM_MOLECULAR_WEIGHT>
264.34664

> <PUBCHEM_OPENEYE_CAN_SMILES>
CC(C)C1=CSC(=N1)NC(=O)C(C)N2C=CN=C2

> <PUBCHEM_OPENEYE_ISO_SMILES>
CC(C)C1=CSC(=N1)NC(=O)C(C)N2C=CN=C2

> <PUBCHEM_CACTVS_TPSA>
88

> <PUBCHEM_MONOISOTOPIC_WEIGHT>
264.104482

> <PUBCHEM_TOTAL_CHARGE>
0

> <PUBCHEM_HEAVY_ATOM_COUNT>
18

> <PUBCHEM_ATOM_DEF_STEREO_COUNT>
0

> <PUBCHEM_ATOM_UDEF_STEREO_COUNT>
1

> <PUBCHEM_BOND_DEF_STEREO_COUNT>
0

> <PUBCHEM_BOND_UDEF_STEREO_COUNT>
0

> <PUBCHEM_ISOTOPIC_ATOM_COUNT>
0

> <PUBCHEM_COMPONENT_COUNT>
1

> <PUBCHEM_CACTVS_TAUTO_COUNT>
5

> <PUBCHEM_COORDINATE_TYPE>
1
5
255

> <PUBCHEM_BONDANNOTATIONS>
1  14  8
1  15  8
16  18  8
3  16  8
3  17  8
5  14  8
5  9  8
6  17  8
6  18  8
7  11  3
9  15  8

$$$$

