135260
  -OEChem-07051213093D

 54 55  0     1  0  0  0  0  0999 V2000
    1.5076   -1.2732   -0.6050 O   0  0  0  0  0  0  0  0  0  0  0  0
    1.5429   -2.8644   -2.2794 O   0  0  0  0  0  0  0  0  0  0  0  0
    2.4428    0.9084    1.3656 N   0  0  0  0  0  0  0  0  0  0  0  0
   -0.4309    0.0494    0.2425 C   0  0  0  0  0  0  0  0  0  0  0  0
    0.1785   -0.0791    1.7025 C   0  0  0  0  0  0  0  0  0  0  0  0
    0.0765   -1.2412   -0.5573 C   0  0  2  0  0  0  0  0  0  0  0  0
    1.7111   -0.2624    1.8543 C   0  0  2  0  0  0  0  0  0  0  0  0
    0.1550    1.3594   -0.3729 C   0  0  0  0  0  0  0  0  0  0  0  0
   -1.9891    0.0192    0.2102 C   0  0  0  0  0  0  0  0  0  0  0  0
   -0.4318   -2.6093   -0.0488 C   0  0  0  0  0  0  0  0  0  0  0  0
    2.0777   -0.4763    3.3262 C   0  0  0  0  0  0  0  0  0  0  0  0
   -0.1976    2.5384    0.2091 C   0  0  0  0  0  0  0  0  0  0  0  0
   -2.5957    0.0957   -1.0075 C   0  0  0  0  0  0  0  0  0  0  0  0
    0.9789    1.2335   -1.4492 C   0  0  0  0  0  0  0  0  0  0  0  0
   -2.6423   -0.0823    1.4016 C   0  0  0  0  0  0  0  0  0  0  0  0
   -1.9521   -2.7182   -0.1250 C   0  0  0  0  0  0  0  0  0  0  0  0
    0.3259    3.7088   -0.3404 C   0  0  0  0  0  0  0  0  0  0  0  0
   -3.9899    0.0684   -1.0365 C   0  0  0  0  0  0  0  0  0  0  0  0
    1.5024    2.4039   -1.9987 C   0  0  0  0  0  0  0  0  0  0  0  0
   -4.0366   -0.1097    1.3724 C   0  0  0  0  0  0  0  0  0  0  0  0
    3.8773    0.6989    1.4746 C   0  0  0  0  0  0  0  0  0  0  0  0
    2.0459   -2.3050   -1.3146 C   0  0  0  0  0  0  0  0  0  0  0  0
    1.1759    3.6416   -1.4441 C   0  0  0  0  0  0  0  0  0  0  0  0
   -4.7103   -0.0344    0.1534 C   0  0  0  0  0  0  0  0  0  0  0  0
    3.3781   -2.6700   -0.7333 C   0  0  0  0  0  0  0  0  0  0  0  0
   -0.2685   -0.9522    2.1960 H   0  0  0  0  0  0  0  0  0  0  0  0
   -0.1211    0.7835    2.3150 H   0  0  0  0  0  0  0  0  0  0  0  0
   -0.2704   -1.1609   -1.5978 H   0  0  0  0  0  0  0  0  0  0  0  0
    2.0447   -1.1862    1.3906 H   0  0  0  0  0  0  0  0  0  0  0  0
   -0.0865   -2.8048    0.9724 H   0  0  0  0  0  0  0  0  0  0  0  0
   -0.0295   -3.4391   -0.6367 H   0  0  0  0  0  0  0  0  0  0  0  0
    3.1098   -0.8160    3.4606 H   0  0  0  0  0  0  0  0  0  0  0  0
    1.4432   -1.2547    3.7667 H   0  0  0  0  0  0  0  0  0  0  0  0
    1.9300    0.4336    3.9195 H   0  0  0  0  0  0  0  0  0  0  0  0
   -0.8623    2.6053    1.0629 H   0  0  0  0  0  0  0  0  0  0  0  0
   -2.0517    0.1897   -1.9405 H   0  0  0  0  0  0  0  0  0  0  0  0
    1.2174    0.3432   -2.0062 H   0  0  0  0  0  0  0  0  0  0  0  0
   -2.1773   -0.1275    2.3763 H   0  0  0  0  0  0  0  0  0  0  0  0
    2.1764    1.7400    1.8916 H   0  0  0  0  0  0  0  0  0  0  0  0
   -2.3736   -2.3648   -1.0651 H   0  0  0  0  0  0  0  0  0  0  0  0
   -2.1828   -3.7943   -0.1335 H   0  0  0  0  0  0  0  0  0  0  0  0
   -2.4650   -2.3892    0.7722 H   0  0  0  0  0  0  0  0  0  0  0  0
    0.0698    4.6726    0.0898 H   0  0  0  0  0  0  0  0  0  0  0  0
   -4.5147    0.1300   -1.9853 H   0  0  0  0  0  0  0  0  0  0  0  0
    2.1481    2.3551   -2.8709 H   0  0  0  0  0  0  0  0  0  0  0  0
   -4.5987   -0.1862    2.2987 H   0  0  0  0  0  0  0  0  0  0  0  0
    4.3863    1.4708    0.8877 H   0  0  0  0  0  0  0  0  0  0  0  0
    4.2415    0.7993    2.5015 H   0  0  0  0  0  0  0  0  0  0  0  0
    4.1915   -0.2667    1.0670 H   0  0  0  0  0  0  0  0  0  0  0  0
    1.5795    4.5531   -1.8750 H   0  0  0  0  0  0  0  0  0  0  0  0
   -5.7960   -0.0544    0.1309 H   0  0  0  0  0  0  0  0  0  0  0  0
    3.2617   -2.9776    0.3086 H   0  0  0  0  0  0  0  0  0  0  0  0
    4.0628   -1.8229   -0.8161 H   0  0  0  0  0  0  0  0  0  0  0  0
    3.7978   -3.5099   -1.2948 H   0  0  0  0  0  0  0  0  0  0  0  0
  1  6  1  0  0  0  0
  1 22  1  0  0  0  0
  2 22  2  0  0  0  0
  3  7  1  0  0  0  0
  3 21  1  0  0  0  0
  3 39  1  0  0  0  0
  4  5  1  0  0  0  0
  4  6  1  0  0  0  0
  4  8  1  0  0  0  0
  4  9  1  0  0  0  0
  5  7  1  0  0  0  0
  5 26  1  0  0  0  0
  5 27  1  0  0  0  0
  6 10  1  0  0  0  0
  6 28  1  0  0  0  0
  7 11  1  0  0  0  0
  7 29  1  0  0  0  0
  8 12  2  0  0  0  0
  8 14  1  0  0  0  0
  9 13  2  0  0  0  0
  9 15  1  0  0  0  0
 10 16  1  0  0  0  0
 10 30  1  0  0  0  0
 10 31  1  0  0  0  0
 11 32  1  0  0  0  0
 11 33  1  0  0  0  0
 11 34  1  0  0  0  0
 12 17  1  0  0  0  0
 12 35  1  0  0  0  0
 13 18  1  0  0  0  0
 13 36  1  0  0  0  0
 14 19  2  0  0  0  0
 14 37  1  0  0  0  0
 15 20  2  0  0  0  0
 15 38  1  0  0  0  0
 16 40  1  0  0  0  0
 16 41  1  0  0  0  0
 16 42  1  0  0  0  0
 17 23  2  0  0  0  0
 17 43  1  0  0  0  0
 18 24  2  0  0  0  0
 18 44  1  0  0  0  0
 19 23  1  0  0  0  0
 19 45  1  0  0  0  0
 20 24  1  0  0  0  0
 20 46  1  0  0  0  0
 21 47  1  0  0  0  0
 21 48  1  0  0  0  0
 21 49  1  0  0  0  0
 22 25  1  0  0  0  0
 23 50  1  0  0  0  0
 24 51  1  0  0  0  0
 25 52  1  0  0  0  0
 25 53  1  0  0  0  0
 25 54  1  0  0  0  0
M  END
> <PUBCHEM_COMPOUND_CID>
135260

> <PUBCHEM_CONFORMER_RMSD>
1

> <PUBCHEM_CONFORMER_DIVERSEORDER>
2
6
7
1
10
9
8
5
4
3

> <PUBCHEM_MMFF94_PARTIAL_CHARGES>
32
1 -0.43
12 -0.15
13 -0.15
14 -0.15
15 -0.15
17 -0.15
18 -0.15
19 -0.15
2 -0.57
20 -0.15
21 0.27
22 0.66
23 -0.15
24 -0.15
25 0.06
3 -0.9
35 0.15
36 0.15
37 0.15
38 0.15
39 0.36
4 0.29
43 0.15
44 0.15
45 0.15
46 0.15
50 0.15
51 0.15
6 0.28
7 0.27
8 -0.14
9 -0.14

> <PUBCHEM_EFFECTIVE_ROTOR_COUNT>
9

> <PUBCHEM_PHARMACOPHORE_FEATURES>
6
1 16 hydrophobe
1 2 acceptor
1 3 cation
1 3 donor
6 8 12 14 17 19 23 rings
6 9 13 15 18 20 24 rings

> <PUBCHEM_HEAVY_ATOM_COUNT>
25

> <PUBCHEM_ATOM_DEF_STEREO_COUNT>
2

> <PUBCHEM_ATOM_UDEF_STEREO_COUNT>
0

> <PUBCHEM_BOND_DEF_STEREO_COUNT>
0

> <PUBCHEM_BOND_UDEF_STEREO_COUNT>
0

> <PUBCHEM_ISOTOPIC_ATOM_COUNT>
0

> <PUBCHEM_COMPONENT_COUNT>
1

> <PUBCHEM_CACTVS_TAUTO_COUNT>
1

> <PUBCHEM_CONFORMER_ID>
0002105C00000002

> <PUBCHEM_MMFF94_ENERGY>
112.8726

> <PUBCHEM_FEATURE_SELFOVERLAP>
30.446

> <PUBCHEM_SHAPE_FINGERPRINT>
10165383 225 17895486834577795928
10863032 1 16298685901146562071
11101153 10 18053636322452363974
11135609 12 18337670794391439123
11578080 2 17751357502347056809
13132413 78 17703529742965561480
13140716 1 18121775024207877577
13681431 1 18342734135103711421
13911987 19 17912328126536112958
14022347 108 18129094692320663219
14178342 30 18115305566741590035
14181834 199 18129677283117318157
14817 1 11052603045270578376
14863182 85 17968670306689273999
14955137 171 18270676476609411480
15238133 3 17272859959798824789
16945 1 18266725922772668853
17349148 13 18117859723884499135
17357779 13 18119819259367669469
17980427 23 18049190802849512923
17980427 26 16228054382248055528
1813 80 18340763857352705707
20600515 1 18201168744430644017
20691752 17 18337959020518272763
21524375 3 17552067399424030357
22149856 69 18115014227380619875
22182313 1 18267595782557091629
23419403 2 17390252638357282178
23559900 14 18335132077908698723
2748010 2 18194973056769724781
81228 2 17694511737968865929
9999458 23 17386581154088835296

> <PUBCHEM_SHAPE_MULTIPOLES>
497.77
5.85
3.89
2.34
5.16
1.8
-1.1
-1.43
-1.28
-2.8
2.54
-1.9
-0.52
0.28

> <PUBCHEM_SHAPE_SELFOVERLAP>
1044.952

> <PUBCHEM_SHAPE_VOLUME>
278.6

> <PUBCHEM_COORDINATE_TYPE>
2
5
10

$$$$

