92805
  -OEChem-07051213103D

 69 72  0     1  0  0  0  0  0999 V2000
   -1.6646   -2.3737    0.0146 O   0  0  0  0  0  0  0  0  0  0  0  0
   -4.0655   -2.6140    1.4067 O   0  0  0  0  0  0  0  0  0  0  0  0
   -4.9027   -0.7517   -3.3013 O   0  0  0  0  0  0  0  0  0  0  0  0
    6.4863   -1.4166   -2.5528 O   0  0  0  0  0  0  0  0  0  0  0  0
    7.3105   -1.0902   -0.4621 O   0  0  0  0  0  0  0  0  0  0  0  0
   -1.1194   -0.2641    1.0908 C   0  0  1  0  0  0  0  0  0  0  0  0
    0.3622   -0.4762    0.7467 C   0  0  1  0  0  0  0  0  0  0  0  0
    1.1770    0.8347    0.7455 C   0  0  1  0  0  0  0  0  0  0  0  0
   -1.7450    0.7032    0.0255 C   0  0  1  0  0  0  0  0  0  0  0  0
   -3.2755    0.9739    0.3005 C   0  0  2  0  0  0  0  0  0  0  0  0
    2.5800    0.2544    0.4405 C   0  0  2  0  0  0  0  0  0  0  0  0
   -4.0390   -0.3943    0.3667 C   0  0  2  0  0  0  0  0  0  0  0  0
    0.6030    1.7358   -0.3550 C   0  0  0  0  0  0  0  0  0  0  0  0
   -0.9000    1.9958   -0.1510 C   0  0  0  0  0  0  0  0  0  0  0  0
   -1.8952   -1.5920    1.1841 C   0  0  1  0  0  0  0  0  0  0  0  0
    1.1927   -1.4138    1.6190 C   0  0  0  0  0  0  0  0  0  0  0  0
   -3.3954   -1.3551    1.3935 C   0  0  2  0  0  0  0  0  0  0  0  0
    2.6497   -1.0152    1.3205 C   0  0  0  0  0  0  0  0  0  0  0  0
   -3.9332    1.8650   -0.7944 C   0  0  0  0  0  0  0  0  0  0  0  0
    1.1683    1.5904    2.0976 C   0  0  0  0  0  0  0  0  0  0  0  0
   -4.2220   -1.0465   -1.0235 C   0  0  0  0  0  0  0  0  0  0  0  0
    3.7644    1.1866    0.6515 C   0  0  1  0  0  0  0  0  0  0  0  0
   -3.4743    1.7405    1.6361 C   0  0  0  0  0  0  0  0  0  0  0  0
   -4.0633    1.1909   -2.1524 C   0  0  0  0  0  0  0  0  0  0  0  0
   -4.8600   -0.1011   -2.0356 C   0  0  1  0  0  0  0  0  0  0  0  0
    5.0835    0.4468    0.3481 C   0  0  0  0  0  0  0  0  0  0  0  0
    3.6010    2.4456   -0.2065 C   0  0  0  0  0  0  0  0  0  0  0  0
    5.1502   -0.1398   -1.0634 C   0  0  0  0  0  0  0  0  0  0  0  0
    6.4261   -0.9193   -1.2897 C   0  0  0  0  0  0  0  0  0  0  0  0
   -1.1827    0.2026    2.0787 H   0  0  0  0  0  0  0  0  0  0  0  0
    0.4055   -0.8936   -0.2721 H   0  0  0  0  0  0  0  0  0  0  0  0
   -1.6755    0.2000   -0.9470 H   0  0  0  0  0  0  0  0  0  0  0  0
    2.5536   -0.0693   -0.6084 H   0  0  0  0  0  0  0  0  0  0  0  0
   -5.0612   -0.1976    0.7245 H   0  0  0  0  0  0  0  0  0  0  0  0
    0.7467    1.2731   -1.3399 H   0  0  0  0  0  0  0  0  0  0  0  0
    1.0811    2.7148   -0.3958 H   0  0  0  0  0  0  0  0  0  0  0  0
   -1.0324    2.6580    0.7100 H   0  0  0  0  0  0  0  0  0  0  0  0
   -1.2537    2.5532   -1.0254 H   0  0  0  0  0  0  0  0  0  0  0  0
   -1.5178   -2.1912    2.0206 H   0  0  0  0  0  0  0  0  0  0  0  0
    1.0120   -2.4660    1.3769 H   0  0  0  0  0  0  0  0  0  0  0  0
    0.9693   -1.2753    2.6827 H   0  0  0  0  0  0  0  0  0  0  0  0
   -3.5380   -0.9345    2.3950 H   0  0  0  0  0  0  0  0  0  0  0  0
    3.1776   -0.8387    2.2646 H   0  0  0  0  0  0  0  0  0  0  0  0
    3.1714   -1.8237    0.7969 H   0  0  0  0  0  0  0  0  0  0  0  0
   -3.3968    2.8130   -0.9076 H   0  0  0  0  0  0  0  0  0  0  0  0
   -4.9445    2.1446   -0.4655 H   0  0  0  0  0  0  0  0  0  0  0  0
    1.6306    1.0101    2.9023 H   0  0  0  0  0  0  0  0  0  0  0  0
    1.7093    2.5393    2.0325 H   0  0  0  0  0  0  0  0  0  0  0  0
    0.1584    1.8404    2.4333 H   0  0  0  0  0  0  0  0  0  0  0  0
   -3.2802   -1.4007   -1.4459 H   0  0  0  0  0  0  0  0  0  0  0  0
   -4.8550   -1.9392   -0.9434 H   0  0  0  0  0  0  0  0  0  0  0  0
    3.8254    1.5024    1.7004 H   0  0  0  0  0  0  0  0  0  0  0  0
   -3.0041    1.2488    2.4904 H   0  0  0  0  0  0  0  0  0  0  0  0
   -3.0704    2.7568    1.5800 H   0  0  0  0  0  0  0  0  0  0  0  0
   -4.5407    1.8369    1.8730 H   0  0  0  0  0  0  0  0  0  0  0  0
   -4.5651    1.8677   -2.8549 H   0  0  0  0  0  0  0  0  0  0  0  0
   -3.0775    0.9958   -2.5910 H   0  0  0  0  0  0  0  0  0  0  0  0
   -5.8926    0.1154   -1.7368 H   0  0  0  0  0  0  0  0  0  0  0  0
   -1.4364   -1.8038   -0.7345 H   0  0  0  0  0  0  0  0  0  0  0  0
    5.9234    1.1402    0.4889 H   0  0  0  0  0  0  0  0  0  0  0  0
    5.2419   -0.3501    1.0853 H   0  0  0  0  0  0  0  0  0  0  0  0
   -3.7653   -3.1228    0.6347 H   0  0  0  0  0  0  0  0  0  0  0  0
    3.2447    2.2228   -1.2170 H   0  0  0  0  0  0  0  0  0  0  0  0
    2.9469    3.1791    0.2685 H   0  0  0  0  0  0  0  0  0  0  0  0
    4.5674    2.9529   -0.3146 H   0  0  0  0  0  0  0  0  0  0  0  0
   -5.3144   -0.1373   -3.9326 H   0  0  0  0  0  0  0  0  0  0  0  0
    4.3385   -0.8488   -1.2441 H   0  0  0  0  0  0  0  0  0  0  0  0
    5.1061    0.6603   -1.8095 H   0  0  0  0  0  0  0  0  0  0  0  0
    7.3133   -1.9209   -2.7079 H   0  0  0  0  0  0  0  0  0  0  0  0
  1 15  1  0  0  0  0
  1 59  1  0  0  0  0
  2 17  1  0  0  0  0
  2 62  1  0  0  0  0
  3 25  1  0  0  0  0
  3 66  1  0  0  0  0
  4 29  1  0  0  0  0
  4 69  1  0  0  0  0
  5 29  2  0  0  0  0
  6  7  1  0  0  0  0
  6  9  1  0  0  0  0
  6 15  1  0  0  0  0
  6 30  1  0  0  0  0
  7  8  1  0  0  0  0
  7 16  1  0  0  0  0
  7 31  1  0  0  0  0
  8 11  1  0  0  0  0
  8 13  1  0  0  0  0
  8 20  1  0  0  0  0
  9 10  1  0  0  0  0
  9 14  1  0  0  0  0
  9 32  1  0  0  0  0
 10 12  1  0  0  0  0
 10 19  1  0  0  0  0
 10 23  1  0  0  0  0
 11 18  1  0  0  0  0
 11 22  1  0  0  0  0
 11 33  1  0  0  0  0
 12 17  1  0  0  0  0
 12 21  1  0  0  0  0
 12 34  1  0  0  0  0
 13 14  1  0  0  0  0
 13 35  1  0  0  0  0
 13 36  1  0  0  0  0
 14 37  1  0  0  0  0
 14 38  1  0  0  0  0
 15 17  1  0  0  0  0
 15 39  1  0  0  0  0
 16 18  1  0  0  0  0
 16 40  1  0  0  0  0
 16 41  1  0  0  0  0
 17 42  1  0  0  0  0
 18 43  1  0  0  0  0
 18 44  1  0  0  0  0
 19 24  1  0  0  0  0
 19 45  1  0  0  0  0
 19 46  1  0  0  0  0
 20 47  1  0  0  0  0
 20 48  1  0  0  0  0
 20 49  1  0  0  0  0
 21 25  1  0  0  0  0
 21 50  1  0  0  0  0
 21 51  1  0  0  0  0
 22 26  1  0  0  0  0
 22 27  1  0  0  0  0
 22 52  1  0  0  0  0
 23 53  1  0  0  0  0
 23 54  1  0  0  0  0
 23 55  1  0  0  0  0
 24 25  1  0  0  0  0
 24 56  1  0  0  0  0
 24 57  1  0  0  0  0
 25 58  1  0  0  0  0
 26 28  1  0  0  0  0
 26 60  1  0  0  0  0
 26 61  1  0  0  0  0
 27 63  1  0  0  0  0
 27 64  1  0  0  0  0
 27 65  1  0  0  0  0
 28 29  1  0  0  0  0
 28 67  1  0  0  0  0
 28 68  1  0  0  0  0
M  END
> <PUBCHEM_COMPOUND_CID>
92805

> <PUBCHEM_CONFORMER_RMSD>
0.8

> <PUBCHEM_CONFORMER_DIVERSEORDER>
4
7
1
5
3
2
6

> <PUBCHEM_MMFF94_PARTIAL_CHARGES>
14
1 -0.68
15 0.28
17 0.28
2 -0.68
25 0.28
28 0.06
29 0.66
3 -0.68
4 -0.65
5 -0.57
59 0.4
62 0.4
66 0.4
69 0.5

> <PUBCHEM_EFFECTIVE_ROTOR_COUNT>
6.2

> <PUBCHEM_PHARMACOPHORE_FEATURES>
14
1 1 acceptor
1 1 donor
1 2 acceptor
1 2 donor
1 27 hydrophobe
1 3 acceptor
1 3 donor
1 4 acceptor
1 5 acceptor
3 4 5 29 anion
5 7 8 11 16 18 rings
6 10 12 19 21 24 25 rings
6 6 7 8 9 13 14 rings
6 6 9 10 12 15 17 rings

> <PUBCHEM_HEAVY_ATOM_COUNT>
29

> <PUBCHEM_ATOM_DEF_STEREO_COUNT>
11

> <PUBCHEM_ATOM_UDEF_STEREO_COUNT>
0

> <PUBCHEM_BOND_DEF_STEREO_COUNT>
0

> <PUBCHEM_BOND_UDEF_STEREO_COUNT>
0

> <PUBCHEM_ISOTOPIC_ATOM_COUNT>
0

> <PUBCHEM_COMPONENT_COUNT>
1

> <PUBCHEM_CACTVS_TAUTO_COUNT>
1

> <PUBCHEM_CONFORMER_ID>
00016A8500000004

> <PUBCHEM_MMFF94_ENERGY>
106.2299

> <PUBCHEM_FEATURE_SELFOVERLAP>
71.229

> <PUBCHEM_SHAPE_FINGERPRINT>
10498660 4 17917440799738611929
10670039 82 17561364011087088516
11135926 11 18060137699893886274
11578080 2 16486423216601218047
11796584 16 16298943277241038804
1200032 147 17487056923559761249
12596602 18 14345796054830324438
12788726 201 18042126630047713465
12954195 1 18338789147961192608
13224815 77 18201446839442211537
13583140 156 15841559587034350665
13690498 29 17845363354520604331
13782708 43 17603587448206310222
14211702 104 15574709193046259076
14251751 18 16443068300744419572
14790565 3 17912656988472782925
14931854 50 18200896031851582845
15183329 4 18201432602237424634
15188451 53 14779556664378236525
15575132 122 16415473853121948366
15788980 27 17385719197302647744
17349148 13 15213298573812893736
17492 54 17773902898971002421
17780758 139 13912323495056974583
1813 80 15574984071148816752
19377110 9 5184056068528325170
19958102 18 18271522096184328526
20567600 247 17385446540210365766
20775438 99 16668292095127306111
21267235 1 18272077267392496147
21637258 2 16950569891519844326
21709351 56 17632857503898676892
22122407 14 13973670746692552500
22393880 68 18130791127114037018
23379529 103 17681572341736444151
23559900 14 18411982434563345016
23569914 152 17614863128474118646
2838139 119 15051441701140850950
350125 39 18060135397965183529
392239 28 9943519700724021726
4015057 19 18041562438563432432
4058900 60 16702024235483116298
4258327 124 15841834456609595919
46194498 28 18198048180681913060
5104073 3 5400796193825458250
531348 171 17385999645491946173
5364581 5 7853558098642782034
6608658 132 16845577560280022652

> <PUBCHEM_SHAPE_MULTIPOLES>
567.46
14.06
2.37
2.24
19.14
0.38
1.48
1.28
10.51
-1.61
-0.48
-0.65
-0.15
1.46

> <PUBCHEM_SHAPE_SELFOVERLAP>
1190.727

> <PUBCHEM_SHAPE_VOLUME>
318.2

> <PUBCHEM_COORDINATE_TYPE>
2
5
10

$$$$

