656816
  -OEChem-07051213042D

 54 53  0     1  0  0  0  0  0999 V2000
    4.2690    1.6550    0.0000 O   0  0  0  0  0  0  0  0  0  0  0  0
    2.5369   -1.3450    0.0000 O   0  0  0  0  0  0  0  0  0  0  0  0
    2.5369    0.6550    0.0000 N   0  0  0  0  0  0  0  0  0  0  0  0
    7.7331    0.6550    0.0000 C   0  0  0  0  0  0  0  0  0  0  0  0
    6.8671    0.1550    0.0000 C   0  0  0  0  0  0  0  0  0  0  0  0
    8.5991    0.1550    0.0000 C   0  0  0  0  0  0  0  0  0  0  0  0
    6.0010    0.6550    0.0000 C   0  0  0  0  0  0  0  0  0  0  0  0
    9.4651    0.6550    0.0000 C   0  0  0  0  0  0  0  0  0  0  0  0
    5.1350    0.1550    0.0000 C   0  0  0  0  0  0  0  0  0  0  0  0
   10.3312    0.1550    0.0000 C   0  0  0  0  0  0  0  0  0  0  0  0
    4.2690    0.6550    0.0000 C   0  0  2  0  0  0  0  0  0  0  0  0
   11.1972    0.6550    0.0000 C   0  0  0  0  0  0  0  0  0  0  0  0
   12.0632    0.1550    0.0000 C   0  0  0  0  0  0  0  0  0  0  0  0
    3.4030    0.1550    0.0000 C   0  0  2  0  0  0  0  0  0  0  0  0
   12.9292    0.6550    0.0000 C   0  0  0  0  0  0  0  0  0  0  0  0
   13.7953    0.1550    0.0000 C   0  0  0  0  0  0  0  0  0  0  0  0
    3.4030   -0.8450    0.0000 C   0  0  0  0  0  0  0  0  0  0  0  0
   14.6613    0.6550    0.0000 C   0  0  0  0  0  0  0  0  0  0  0  0
   15.5273    0.1550    0.0000 C   0  0  0  0  0  0  0  0  0  0  0  0
    8.1316    1.1300    0.0000 H   0  0  0  0  0  0  0  0  0  0  0  0
    7.3346    1.1300    0.0000 H   0  0  0  0  0  0  0  0  0  0  0  0
    6.4685   -0.3199    0.0000 H   0  0  0  0  0  0  0  0  0  0  0  0
    7.2656   -0.3199    0.0000 H   0  0  0  0  0  0  0  0  0  0  0  0
    8.2006   -0.3199    0.0000 H   0  0  0  0  0  0  0  0  0  0  0  0
    8.9976   -0.3199    0.0000 H   0  0  0  0  0  0  0  0  0  0  0  0
    6.3996    1.1300    0.0000 H   0  0  0  0  0  0  0  0  0  0  0  0
    5.6025    1.1300    0.0000 H   0  0  0  0  0  0  0  0  0  0  0  0
    9.8637    1.1300    0.0000 H   0  0  0  0  0  0  0  0  0  0  0  0
    9.0666    1.1300    0.0000 H   0  0  0  0  0  0  0  0  0  0  0  0
    4.7365   -0.3199    0.0000 H   0  0  0  0  0  0  0  0  0  0  0  0
    5.5335   -0.3199    0.0000 H   0  0  0  0  0  0  0  0  0  0  0  0
    9.9326   -0.3199    0.0000 H   0  0  0  0  0  0  0  0  0  0  0  0
   10.7297   -0.3199    0.0000 H   0  0  0  0  0  0  0  0  0  0  0  0
    4.8059    0.9650    0.0000 H   0  0  0  0  0  0  0  0  0  0  0  0
   11.5957    1.1300    0.0000 H   0  0  0  0  0  0  0  0  0  0  0  0
   10.7987    1.1300    0.0000 H   0  0  0  0  0  0  0  0  0  0  0  0
   11.6647   -0.3199    0.0000 H   0  0  0  0  0  0  0  0  0  0  0  0
   12.4617   -0.3199    0.0000 H   0  0  0  0  0  0  0  0  0  0  0  0
    3.4030    0.7750    0.0000 H   0  0  0  0  0  0  0  0  0  0  0  0
   13.3278    1.1300    0.0000 H   0  0  0  0  0  0  0  0  0  0  0  0
   12.5307    1.1300    0.0000 H   0  0  0  0  0  0  0  0  0  0  0  0
   13.3967   -0.3199    0.0000 H   0  0  0  0  0  0  0  0  0  0  0  0
   14.1938   -0.3199    0.0000 H   0  0  0  0  0  0  0  0  0  0  0  0
    3.6150   -1.4276    0.0000 H   0  0  0  0  0  0  0  0  0  0  0  0
    4.0135   -0.7373    0.0000 H   0  0  0  0  0  0  0  0  0  0  0  0
   15.0598    1.1300    0.0000 H   0  0  0  0  0  0  0  0  0  0  0  0
   14.2628    1.1300    0.0000 H   0  0  0  0  0  0  0  0  0  0  0  0
    2.0000    0.3450    0.0000 H   0  0  0  0  0  0  0  0  0  0  0  0
    2.5369    1.2750    0.0000 H   0  0  0  0  0  0  0  0  0  0  0  0
    4.8059    1.9650    0.0000 H   0  0  0  0  0  0  0  0  0  0  0  0
   15.2173   -0.3819    0.0000 H   0  0  0  0  0  0  0  0  0  0  0  0
   16.0643   -0.1550    0.0000 H   0  0  0  0  0  0  0  0  0  0  0  0
   15.8373    0.6919    0.0000 H   0  0  0  0  0  0  0  0  0  0  0  0
    2.5369   -1.9650    0.0000 H   0  0  0  0  0  0  0  0  0  0  0  0
 11  1  1  6  0  0  0
  1 50  1  0  0  0  0
  2 17  1  0  0  0  0
  2 54  1  0  0  0  0
 14  3  1  6  0  0  0
  3 48  1  0  0  0  0
  3 49  1  0  0  0  0
  4  5  1  0  0  0  0
  4  6  1  0  0  0  0
  4 20  1  0  0  0  0
  4 21  1  0  0  0  0
  5  7  1  0  0  0  0
  5 22  1  0  0  0  0
  5 23  1  0  0  0  0
  6  8  1  0  0  0  0
  6 24  1  0  0  0  0
  6 25  1  0  0  0  0
  7  9  1  0  0  0  0
  7 26  1  0  0  0  0
  7 27  1  0  0  0  0
  8 10  1  0  0  0  0
  8 28  1  0  0  0  0
  8 29  1  0  0  0  0
  9 11  1  0  0  0  0
  9 30  1  0  0  0  0
  9 31  1  0  0  0  0
 10 12  1  0  0  0  0
 10 32  1  0  0  0  0
 10 33  1  0  0  0  0
 11 14  1  0  0  0  0
 11 34  1  0  0  0  0
 12 13  1  0  0  0  0
 12 35  1  0  0  0  0
 12 36  1  0  0  0  0
 13 15  1  0  0  0  0
 13 37  1  0  0  0  0
 13 38  1  0  0  0  0
 14 17  1  0  0  0  0
 14 39  1  0  0  0  0
 15 16  1  0  0  0  0
 15 40  1  0  0  0  0
 15 41  1  0  0  0  0
 16 18  1  0  0  0  0
 16 42  1  0  0  0  0
 16 43  1  0  0  0  0
 17 44  1  0  0  0  0
 17 45  1  0  0  0  0
 18 19  1  0  0  0  0
 18 46  1  0  0  0  0
 18 47  1  0  0  0  0
 19 51  1  0  0  0  0
 19 52  1  0  0  0  0
 19 53  1  0  0  0  0
M  END
> <PUBCHEM_COMPOUND_CID>
656816

> <PUBCHEM_COMPOUND_CANONICALIZED>
1

> <PUBCHEM_CACTVS_COMPLEXITY>
176

> <PUBCHEM_CACTVS_HBOND_ACCEPTOR>
3

> <PUBCHEM_CACTVS_HBOND_DONOR>
3

> <PUBCHEM_CACTVS_ROTATABLE_BOND>
14

> <PUBCHEM_CACTVS_SUBSKEYS>
AAADcfB6MAAAAAAAAAAAAAAAAAAAAAAAAAAAAAAAAAAAAAAAAAAAHgAQCAAACDzhgAYCAABAAgAAAAAAAAAAAAAAAAAAAIAAAAACEAIAgAAAQAAFEAAAAAGQwKAAAAAAAAAAAAAAAAAAAAAAAAAAAAAAAA==

> <PUBCHEM_IUPAC_OPENEYE_NAME>
(2S,3R)-2-aminohexadecane-1,3-diol

> <PUBCHEM_IUPAC_CAS_NAME>
(2S,3R)-2-aminohexadecane-1,3-diol

> <PUBCHEM_IUPAC_NAME>
(2S,3R)-2-aminohexadecane-1,3-diol

> <PUBCHEM_IUPAC_SYSTEMATIC_NAME>
(2S,3R)-2-azanylhexadecane-1,3-diol

> <PUBCHEM_IUPAC_TRADITIONAL_NAME>
(2S,3R)-2-aminohexadecane-1,3-diol

> <PUBCHEM_IUPAC_INCHI>
InChI=1S/C16H35NO2/c1-2-3-4-5-6-7-8-9-10-11-12-13-16(19)15(17)14-18/h15-16,18-19H,2-14,17H2,1H3/t15-,16+/m0/s1

> <PUBCHEM_IUPAC_INCHIKEY>
ZKLREJQHRKUJHD-JKSUJKDBSA-N

> <PUBCHEM_XLOGP3_AA>
4.7

> <PUBCHEM_EXACT_MASS>
273.266779

> <PUBCHEM_MOLECULAR_FORMULA>
C16H35NO2

> <PUBCHEM_MOLECULAR_WEIGHT>
273.4546

> <PUBCHEM_OPENEYE_CAN_SMILES>
CCCCCCCCCCCCCC(C(CO)N)O

> <PUBCHEM_OPENEYE_ISO_SMILES>
CCCCCCCCCCCCC[C@H]([C@H](CO)N)O

> <PUBCHEM_CACTVS_TPSA>
66.5

> <PUBCHEM_MONOISOTOPIC_WEIGHT>
273.266779

> <PUBCHEM_TOTAL_CHARGE>
0

> <PUBCHEM_HEAVY_ATOM_COUNT>
19

> <PUBCHEM_ATOM_DEF_STEREO_COUNT>
2

> <PUBCHEM_ATOM_UDEF_STEREO_COUNT>
0

> <PUBCHEM_BOND_DEF_STEREO_COUNT>
0

> <PUBCHEM_BOND_UDEF_STEREO_COUNT>
0

> <PUBCHEM_ISOTOPIC_ATOM_COUNT>
0

> <PUBCHEM_COMPONENT_COUNT>
1

> <PUBCHEM_CACTVS_TAUTO_COUNT>
1

> <PUBCHEM_COORDINATE_TYPE>
1
5
255

> <PUBCHEM_BONDANNOTATIONS>
11  1  6
14  3  6

$$$$

