11953893
  -OEChem-07051212532D

 43 42  0     0  0  0  0  0  0999 V2000
   10.3312    3.6550    0.0000 I   0  5  0  0  0  0  0  0  0  0  0  0
   10.3312    6.1550    0.0000 I   0  5  0  0  0  0  0  0  0  0  0  0
    4.0010    4.3100    0.0000 O   0  0  0  0  0  0  0  0  0  0  0  0
    8.3312    1.8100    0.0000 O   0  0  0  0  0  0  0  0  0  0  0  0
    0.5369    7.3100    0.0000 O   0  0  0  0  0  0  0  0  0  0  0  0
    2.2690   10.3100    0.0000 O   0  0  0  0  0  0  0  0  0  0  0  0
    3.1350    5.8100    0.0000 N   0  0  0  0  0  0  0  0  0  0  0  0
    4.8671    2.8100    0.0000 N   0  3  0  0  0  0  0  0  0  0  0  0
    2.2690    9.3100    0.0000 N   0  3  0  0  0  0  0  0  0  0  0  0
    0.5369    6.3100    0.0000 N   0  0  0  0  0  0  0  0  0  0  0  0
    7.4651    0.3100    0.0000 N   0  0  0  0  0  0  0  0  0  0  0  0
    3.1350    4.8100    0.0000 C   0  0  0  0  0  0  0  0  0  0  0  0
    2.2690    6.3100    0.0000 C   0  0  0  0  0  0  0  0  0  0  0  0
    4.0010    3.3100    0.0000 C   0  0  0  0  0  0  0  0  0  0  0  0
    4.0010    6.3100    0.0000 C   0  0  0  0  0  0  0  0  0  0  0  0
    2.2690    7.3100    0.0000 C   0  0  0  0  0  0  0  0  0  0  0  0
    3.1350    7.8100    0.0000 C   0  0  0  0  0  0  0  0  0  0  0  0
    4.0010    7.3100    0.0000 C   0  0  0  0  0  0  0  0  0  0  0  0
    5.7331    3.3100    0.0000 C   0  0  0  0  0  0  0  0  0  0  0  0
    4.8671    1.8100    0.0000 C   0  0  0  0  0  0  0  0  0  0  0  0
    6.5991    1.8100    0.0000 C   0  0  0  0  0  0  0  0  0  0  0  0
    6.5991    2.8100    0.0000 C   0  0  0  0  0  0  0  0  0  0  0  0
    5.7331    1.3100    0.0000 C   0  0  0  0  0  0  0  0  0  0  0  0
    1.4030    5.8100    0.0000 C   0  0  0  0  0  0  0  0  0  0  0  0
    3.1350    8.8100    0.0000 C   0  0  0  0  0  0  0  0  0  0  0  0
    7.4651    1.3100    0.0000 C   0  0  0  0  0  0  0  0  0  0  0  0
    2.5244    4.9177    0.0000 H   0  0  0  0  0  0  0  0  0  0  0  0
    2.9230    4.2274    0.0000 H   0  0  0  0  0  0  0  0  0  0  0  0
    3.3905    3.4177    0.0000 H   0  0  0  0  0  0  0  0  0  0  0  0
    3.7890    2.7274    0.0000 H   0  0  0  0  0  0  0  0  0  0  0  0
    4.5380    6.0000    0.0000 H   0  0  0  0  0  0  0  0  0  0  0  0
    1.7320    7.6200    0.0000 H   0  0  0  0  0  0  0  0  0  0  0  0
    4.5380    7.6200    0.0000 H   0  0  0  0  0  0  0  0  0  0  0  0
    5.7331    3.9300    0.0000 H   0  0  0  0  0  0  0  0  0  0  0  0
    4.3301    1.5000    0.0000 H   0  0  0  0  0  0  0  0  0  0  0  0
    7.1360    3.1200    0.0000 H   0  0  0  0  0  0  0  0  0  0  0  0
    5.7331    0.6900    0.0000 H   0  0  0  0  0  0  0  0  0  0  0  0
    1.4030    5.1900    0.0000 H   0  0  0  0  0  0  0  0  0  0  0  0
    3.6720    9.1200    0.0000 H   0  0  0  0  0  0  0  0  0  0  0  0
    1.7320    9.0000    0.0000 H   0  0  0  0  0  0  0  0  0  0  0  0
    8.0021    0.0000    0.0000 H   0  0  0  0  0  0  0  0  0  0  0  0
    6.9282    0.0000    0.0000 H   0  0  0  0  0  0  0  0  0  0  0  0
    0.0000    7.6200    0.0000 H   0  0  0  0  0  0  0  0  0  0  0  0
  3 12  1  0  0  0  0
  3 14  1  0  0  0  0
  4 26  2  0  0  0  0
  5 10  1  0  0  0  0
  5 43  1  0  0  0  0
  6  9  2  0  0  0  0
  7 12  1  0  0  0  0
  7 13  1  0  0  0  0
  7 15  1  0  0  0  0
  8 14  1  0  0  0  0
  8 19  2  0  0  0  0
  8 20  1  0  0  0  0
  9 25  1  0  0  0  0
  9 40  1  0  0  0  0
 10 24  2  0  0  0  0
 11 26  1  0  0  0  0
 11 41  1  0  0  0  0
 11 42  1  0  0  0  0
 12 27  1  0  0  0  0
 12 28  1  0  0  0  0
 13 16  2  0  0  0  0
 13 24  1  0  0  0  0
 14 29  1  0  0  0  0
 14 30  1  0  0  0  0
 15 18  2  0  0  0  0
 15 31  1  0  0  0  0
 16 17  1  0  0  0  0
 16 32  1  0  0  0  0
 17 18  1  0  0  0  0
 17 25  2  0  0  0  0
 18 33  1  0  0  0  0
 19 22  1  0  0  0  0
 19 34  1  0  0  0  0
 20 23  2  0  0  0  0
 20 35  1  0  0  0  0
 21 22  2  0  0  0  0
 21 23  1  0  0  0  0
 21 26  1  0  0  0  0
 22 36  1  0  0  0  0
 23 37  1  0  0  0  0
 24 38  1  0  0  0  0
 25 39  1  0  0  0  0
M  CHG  4   1  -1   2  -1   8   1   9   1
M  END
> <PUBCHEM_COMPOUND_CID>
11953893

> <PUBCHEM_COMPOUND_CANONICALIZED>
1

> <PUBCHEM_CACTVS_COMPLEXITY>
576

> <PUBCHEM_CACTVS_HBOND_ACCEPTOR>
8

> <PUBCHEM_CACTVS_HBOND_DONOR>
3

> <PUBCHEM_CACTVS_ROTATABLE_BOND>
7

> <PUBCHEM_CACTVS_SUBSKEYS>
AAADceBzuAAAAwAAAAAAAAAAAAAAAAAAAAAsQAAAAAAAAAABgAAAHgAUCAAADAjBmgY8gJNcFACpAjV3VgCCgCA1AiAI2KE4ZNgIIHLAlZGEIQhggADIyYYUAAAKAAAAAAAAAAAAAAAAAAAAAAAAAAAAAA==

> <PUBCHEM_IUPAC_OPENEYE_NAME>
[(Z)-[1-[(4-carbamoylpyridin-1-ium-1-yl)methoxymethyl]-2-[(Z)-hydroxyiminomethyl]-4-pyridylidene]methyl]-oxo-ammonium diiodide

> <PUBCHEM_IUPAC_CAS_NAME>
[(Z)-[1-[(4-carbamoyl-1-pyridin-1-iumyl)methoxymethyl]-2-[(Z)-hydroxyiminomethyl]-4-pyridinylidene]methyl]-oxoammonium diiodide

> <PUBCHEM_IUPAC_NAME>
[(Z)-[1-[(4-carbamoylpyridin-1-ium-1-yl)methoxymethyl]-2-[(Z)-hydroxyiminomethyl]pyridin-4-ylidene]methyl]-oxoazanium diiodide

> <PUBCHEM_IUPAC_SYSTEMATIC_NAME>
[(Z)-[1-[(4-aminocarbonylpyridin-1-ium-1-yl)methoxymethyl]-2-[(Z)-hydroxyiminomethyl]pyridin-4-ylidene]methyl]-oxidanylidene-azanium diiodide

> <PUBCHEM_IUPAC_TRADITIONAL_NAME>
[(Z)-[1-[(4-carbamoylpyridin-1-ium-1-yl)methoxymethyl]-2-[(Z)-hydroximinomethyl]-4-pyridylidene]methyl]-keto-ammonium diiodide

> <PUBCHEM_IUPAC_INCHI>
InChI=1S/C15H15N5O4.2HI/c16-15(21)13-2-4-19(5-3-13)10-24-11-20-6-1-12(8-17-22)7-14(20)9-18-23;;/h1-9H,10-11H2,(H2-,16,21,22,23);2*1H

> <PUBCHEM_IUPAC_INCHIKEY>
ABYVDBPOASKQRT-UHFFFAOYSA-N

> <PUBCHEM_EXACT_MASS>
584.937

> <PUBCHEM_MOLECULAR_FORMULA>
C15H17I2N5O4

> <PUBCHEM_MOLECULAR_WEIGHT>
585.13552

> <PUBCHEM_OPENEYE_CAN_SMILES>
C1=CN(C(=CC1=C[NH+]=O)C=NO)COC[N+]2=CC=C(C=C2)C(=O)N.[I-].[I-]

> <PUBCHEM_OPENEYE_ISO_SMILES>
C\1=CN(C(=C/C1=C\[NH+]=O)/C=N\O)COC[N+]2=CC=C(C=C2)C(=O)N.[I-].[I-]

> <PUBCHEM_CACTVS_TPSA>
123

> <PUBCHEM_MONOISOTOPIC_WEIGHT>
584.937

> <PUBCHEM_TOTAL_CHARGE>
0

> <PUBCHEM_HEAVY_ATOM_COUNT>
26

> <PUBCHEM_ATOM_DEF_STEREO_COUNT>
0

> <PUBCHEM_ATOM_UDEF_STEREO_COUNT>
0

> <PUBCHEM_BOND_DEF_STEREO_COUNT>
2

> <PUBCHEM_BOND_UDEF_STEREO_COUNT>
0

> <PUBCHEM_ISOTOPIC_ATOM_COUNT>
0

> <PUBCHEM_COMPONENT_COUNT>
3

> <PUBCHEM_CACTVS_TAUTO_COUNT>
10

> <PUBCHEM_COORDINATE_TYPE>
1
5
255

> <PUBCHEM_BONDANNOTATIONS>
19  22  8
20  23  8
21  22  8
21  23  8
8  19  8
8  20  8

$$$$

