441762
  -OEChem-07051212562D

 54 59  0     1  0  0  0  0  0999 V2000
    6.6712    2.9362    0.0000 O   0  0  0  0  0  0  0  0  0  0  0  0
    3.0054    2.8685    0.0000 O   0  0  0  0  0  0  0  0  0  0  0  0
    2.3032   -0.3854    0.0000 O   0  0  0  0  0  0  0  0  0  0  0  0
    5.1578   -2.6854    0.0000 O   0  0  0  0  0  0  0  0  0  0  0  0
    4.6496   -0.0889    0.0000 N   0  0  0  0  0  0  0  0  0  0  0  0
    4.1076    0.5713    0.0000 C   0  0  1  0  0  0  0  0  0  0  0  0
    5.3971    2.1884    0.0000 C   0  0  2  0  0  0  0  0  0  0  0  0
    4.5064    1.6293    0.0000 C   0  0  1  0  0  0  0  0  0  0  0  0
    5.6019    1.2910    0.0000 C   0  0  3  0  0  0  0  0  0  0  0  0
    5.0280    0.5713    0.0000 C   0  0  3  0  0  0  0  0  0  0  0  0
    3.5337    1.2910    0.0000 C   0  0  1  0  0  0  0  0  0  0  0  0
    2.6235    1.1538    0.0000 C   0  0  1  0  0  0  0  0  0  0  0  0
    4.5678    2.5877    0.0000 C   0  0  0  0  0  0  0  0  0  0  0  0
    6.4815    1.0197    0.0000 C   0  0  0  0  0  0  0  0  0  0  0  0
    3.7713   -0.2855    0.0000 C   0  0  0  0  0  0  0  0  0  0  0  0
    6.0719    2.8144    0.0000 C   0  0  0  0  0  0  0  0  0  0  0  0
    7.1562    1.6458    0.0000 C   0  0  1  0  0  0  0  0  0  0  0  0
    6.3883    1.9770    0.0000 C   0  0  0  0  0  0  0  0  0  0  0  0
    3.7385    2.1884    0.0000 C   0  0  0  0  0  0  0  0  0  0  0  0
    2.2872    0.2970    0.0000 C   0  0  0  0  0  0  0  0  0  0  0  0
    6.9514    2.5431    0.0000 C   0  0  0  0  0  0  0  0  0  0  0  0
    2.8611   -0.4227    0.0000 C   0  0  0  0  0  0  0  0  0  0  0  0
    3.1564    0.1361    0.0000 C   0  0  0  0  0  0  0  0  0  0  0  0
    2.0000    1.9356    0.0000 C   0  0  0  0  0  0  0  0  0  0  0  0
    5.1524   -0.9533    0.0000 C   0  0  0  0  0  0  0  0  0  0  0  0
    7.6845    3.2233    0.0000 C   0  0  0  0  0  0  0  0  0  0  0  0
    4.6551   -1.8210    0.0000 C   0  0  0  0  0  0  0  0  0  0  0  0
    4.1376    2.3951    0.0000 H   0  0  0  0  0  0  0  0  0  0  0  0
    5.8525    0.4787    0.0000 H   0  0  0  0  0  0  0  0  0  0  0  0
    5.7311    0.0936    0.0000 H   0  0  0  0  0  0  0  0  0  0  0  0
    2.9555    1.9141    0.0000 H   0  0  0  0  0  0  0  0  0  0  0  0
    4.9544    3.0725    0.0000 H   0  0  0  0  0  0  0  0  0  0  0  0
    4.1812    3.0725    0.0000 H   0  0  0  0  0  0  0  0  0  0  0  0
    6.1986    0.4680    0.0000 H   0  0  0  0  0  0  0  0  0  0  0  0
    6.9757    0.6453    0.0000 H   0  0  0  0  0  0  0  0  0  0  0  0
    3.7558   -0.9053    0.0000 H   0  0  0  0  0  0  0  0  0  0  0  0
    4.3790   -0.4083    0.0000 H   0  0  0  0  0  0  0  0  0  0  0  0
    6.3547    3.3662    0.0000 H   0  0  0  0  0  0  0  0  0  0  0  0
    5.5776    3.1888    0.0000 H   0  0  0  0  0  0  0  0  0  0  0  0
    7.9685    1.3952    0.0000 H   0  0  0  0  0  0  0  0  0  0  0  0
    1.7582    0.6203    0.0000 H   0  0  0  0  0  0  0  0  0  0  0  0
    1.8770   -0.1679    0.0000 H   0  0  0  0  0  0  0  0  0  0  0  0
    2.3166   -0.7192    0.0000 H   0  0  0  0  0  0  0  0  0  0  0  0
    3.0586   -1.0104    0.0000 H   0  0  0  0  0  0  0  0  0  0  0  0
    2.4847    2.3222    0.0000 H   0  0  0  0  0  0  0  0  0  0  0  0
    1.6134    2.4204    0.0000 H   0  0  0  0  0  0  0  0  0  0  0  0
    1.5153    1.5491    0.0000 H   0  0  0  0  0  0  0  0  0  0  0  0
    5.6286   -1.3504    0.0000 H   0  0  0  0  0  0  0  0  0  0  0  0
    5.6260   -0.5533    0.0000 H   0  0  0  0  0  0  0  0  0  0  0  0
    8.2769    3.0406    0.0000 H   0  0  0  0  0  0  0  0  0  0  0  0
    7.5465    3.8278    0.0000 H   0  0  0  0  0  0  0  0  0  0  0  0
    4.1789   -1.4239    0.0000 H   0  0  0  0  0  0  0  0  0  0  0  0
    4.1814   -2.2210    0.0000 H   0  0  0  0  0  0  0  0  0  0  0  0
    4.8495   -3.2233    0.0000 H   0  0  0  0  0  0  0  0  0  0  0  0
  1 18  2  0  0  0  0
  2 19  2  0  0  0  0
  3 23  2  0  0  0  0
  4 27  1  0  0  0  0
  4 54  1  0  0  0  0
  5 10  1  0  0  0  0
  5 23  1  0  0  0  0
  5 25  1  0  0  0  0
  6  8  1  0  0  0  0
  6 10  1  0  0  0  0
  6 11  1  0  0  0  0
  6 15  1  6  0  0  0
  7  8  1  0  0  0  0
  7  9  1  0  0  0  0
  7 13  1  1  0  0  0
  7 16  1  0  0  0  0
  8 18  1  0  0  0  0
  8 28  1  6  0  0  0
  9 10  1  0  0  0  0
  9 14  1  0  0  0  0
  9 29  1  0  0  0  0
 10 30  1  0  0  0  0
 11 12  1  0  0  0  0
 11 19  1  0  0  0  0
 11 31  1  6  0  0  0
 12 20  1  0  0  0  0
 12 23  1  0  0  0  0
 12 24  1  1  0  0  0
 13 19  1  0  0  0  0
 13 32  1  0  0  0  0
 13 33  1  0  0  0  0
 14 17  1  0  0  0  0
 14 34  1  0  0  0  0
 14 35  1  0  0  0  0
 15 22  1  0  0  0  0
 15 36  1  0  0  0  0
 15 37  1  0  0  0  0
 16 21  1  0  0  0  0
 16 38  1  0  0  0  0
 16 39  1  0  0  0  0
 17 18  1  0  0  0  0
 17 21  1  0  0  0  0
 17 40  1  6  0  0  0
 20 22  1  0  0  0  0
 20 41  1  0  0  0  0
 20 42  1  0  0  0  0
 21 26  2  0  0  0  0
 22 43  1  0  0  0  0
 22 44  1  0  0  0  0
 24 45  1  0  0  0  0
 24 46  1  0  0  0  0
 24 47  1  0  0  0  0
 25 27  1  0  0  0  0
 25 48  1  0  0  0  0
 25 49  1  0  0  0  0
 26 50  1  0  0  0  0
 26 51  1  0  0  0  0
 27 52  1  0  0  0  0
 27 53  1  0  0  0  0
M  END
> <PUBCHEM_COMPOUND_CID>
441762

> <PUBCHEM_COMPOUND_CANONICALIZED>
1

> <PUBCHEM_CACTVS_COMPLEXITY>
834

> <PUBCHEM_CACTVS_HBOND_ACCEPTOR>
4

> <PUBCHEM_CACTVS_HBOND_DONOR>
1

> <PUBCHEM_CACTVS_ROTATABLE_BOND>
2

> <PUBCHEM_CACTVS_SUBSKEYS>
AAADceB6OAAAAAAAAAAAAAAAAAAAAYAAAAA8YMGDBgAWAFjAAAAAHgAACAAADyzhgAYCAAMAAgCIAoFSEAAAAAAgAAAAAAEIAAgCEBIAgQAEAAAAhgCQAAEdi8C/gAAAAAAAAACAAAQAACAAASAACQAAAA==

> <PUBCHEM_IUPAC_INCHI>
InChI=1S/C22H27NO4/c1-11-9-21-10-14(25)16-20(2)4-3-5-22(16)17(21)15(26)12(11)8-13(21)18(22)23(6-7-24)19(20)27/h12-13,16-18,24H,1,3-10H2,2H3/t12-,13?,16-,17-,18?,20-,21+,22+/m1/s1

> <PUBCHEM_IUPAC_INCHIKEY>
SOOGRVQQQMCVQZ-YVFUZPLQSA-N

> <PUBCHEM_XLOGP3_AA>
0.3

> <PUBCHEM_EXACT_MASS>
369.194008

> <PUBCHEM_MOLECULAR_FORMULA>
C22H27NO4

> <PUBCHEM_MOLECULAR_WEIGHT>
369.45408

> <PUBCHEM_OPENEYE_CAN_SMILES>
CC12CCCC34C1C(=O)CC56C3C(=O)C(CC5C4N(C2=O)CCO)C(=C)C6

> <PUBCHEM_OPENEYE_ISO_SMILES>
C[C@@]12CCC[C@]34[C@@H]1C(=O)C[C@]56[C@H]3C(=O)[C@H](CC5C4N(C2=O)CCO)C(=C)C6

> <PUBCHEM_CACTVS_TPSA>
74.7

> <PUBCHEM_MONOISOTOPIC_WEIGHT>
369.194008

> <PUBCHEM_TOTAL_CHARGE>
0

> <PUBCHEM_HEAVY_ATOM_COUNT>
27

> <PUBCHEM_ATOM_DEF_STEREO_COUNT>
6

> <PUBCHEM_ATOM_UDEF_STEREO_COUNT>
2

> <PUBCHEM_BOND_DEF_STEREO_COUNT>
0

> <PUBCHEM_BOND_UDEF_STEREO_COUNT>
0

> <PUBCHEM_ISOTOPIC_ATOM_COUNT>
0

> <PUBCHEM_COMPONENT_COUNT>
1

> <PUBCHEM_CACTVS_TAUTO_COUNT>
2

> <PUBCHEM_COORDINATE_TYPE>
1
5
255

> <PUBCHEM_BONDANNOTATIONS>
10  30  3
11  31  6
12  24  5
17  40  6
6  15  6
7  13  5
8  28  6
9  29  3

$$$$

