443388
  -OEChem-07051213023D

 58 60  0     1  0  0  0  0  0999 V2000
    3.3461    0.6074   -2.7946 O   0  0  0  0  0  0  0  0  0  0  0  0
    7.1899    0.3869   -2.5031 O   0  0  0  0  0  0  0  0  0  0  0  0
    6.4262   -1.2234   -1.0980 O   0  0  0  0  0  0  0  0  0  0  0  0
   -6.7963   -0.5215    1.9547 O   0  0  0  0  0  0  0  0  0  0  0  0
    7.2688    0.9129    3.7036 O   0  0  0  0  0  0  0  0  0  0  0  0
    7.1651    2.9233    2.6572 O   0  0  0  0  0  0  0  0  0  0  0  0
   -1.6156   -2.0788    0.1555 N   0  0  3  0  0  0  0  0  0  0  0  0
    4.2213    0.4237   -0.6551 N   0  0  0  0  0  0  0  0  0  0  0  0
   -6.0249    2.4146   -0.6595 N   0  0  0  0  0  0  0  0  0  0  0  0
   -7.3366    1.5462    1.1281 N   0  0  0  0  0  0  0  0  0  0  0  0
   -7.7672    3.6466    0.1819 N   0  0  0  0  0  0  0  0  0  0  0  0
   -2.7470   -2.2309   -0.7332 C   0  0  0  0  0  0  0  0  0  0  0  0
   -3.6046   -1.0104   -0.7192 C   0  0  0  0  0  0  0  0  0  0  0  0
    5.5028    1.0252   -0.9461 C   0  0  1  0  0  0  0  0  0  0  0  0
   -0.4183   -1.4998   -0.2831 C   0  0  0  0  0  0  0  0  0  0  0  0
    6.0897    1.7781    0.2541 C   0  0  0  0  0  0  0  0  0  0  0  0
   -4.6525   -0.9073    0.1955 C   0  0  0  0  0  0  0  0  0  0  0  0
   -5.4493    0.2408    0.2022 C   0  0  0  0  0  0  0  0  0  0  0  0
   -1.7500   -2.5326    1.5391 C   0  0  0  0  0  0  0  0  0  0  0  0
    1.9682   -0.3486   -1.1556 C   0  0  0  0  0  0  0  0  0  0  0  0
   -5.2054    1.2853   -0.6986 C   0  0  0  0  0  0  0  0  0  0  0  0
   -3.3550    0.0255   -1.6197 C   0  0  0  0  0  0  0  0  0  0  0  0
    6.3979    0.9259    1.4919 C   0  0  0  0  0  0  0  0  0  0  0  0
    0.3826   -0.7913    0.6126 C   0  0  0  0  0  0  0  0  0  0  0  0
   -0.0258   -1.6329   -1.6150 C   0  0  0  0  0  0  0  0  0  0  0  0
    3.2126    0.2514   -1.6103 C   0  0  0  0  0  0  0  0  0  0  0  0
   -4.1526    1.1711   -1.6102 C   0  0  0  0  0  0  0  0  0  0  0  0
    1.5758   -0.2157    0.1763 C   0  0  0  0  0  0  0  0  0  0  0  0
    1.1674   -1.0573   -2.0512 C   0  0  0  0  0  0  0  0  0  0  0  0
    6.4075   -0.0628   -1.4872 C   0  0  0  0  0  0  0  0  0  0  0  0
   -6.5774    0.3899    1.1627 C   0  0  0  0  0  0  0  0  0  0  0  0
   -7.0494    2.4793    0.2578 C   0  0  0  0  0  0  0  0  0  0  0  0
    6.9632    1.7171    2.6517 C   0  0  0  0  0  0  0  0  0  0  0  0
   -0.7767   -3.5870    1.8343 C   0  0  0  0  0  0  0  0  0  0  0  0
    0.0197   -4.4511    2.0805 C   0  0  0  0  0  0  0  0  0  0  0  0
   -3.3519   -3.0933   -0.4186 H   0  0  0  0  0  0  0  0  0  0  0  0
   -2.4831   -2.4922   -1.7627 H   0  0  0  0  0  0  0  0  0  0  0  0
    5.3376    1.7477   -1.7556 H   0  0  0  0  0  0  0  0  0  0  0  0
    7.0160    2.2756   -0.0621 H   0  0  0  0  0  0  0  0  0  0  0  0
    5.3953    2.5780    0.5436 H   0  0  0  0  0  0  0  0  0  0  0  0
   -4.8437   -1.7171    0.8943 H   0  0  0  0  0  0  0  0  0  0  0  0
   -1.6622   -1.6966    2.2414 H   0  0  0  0  0  0  0  0  0  0  0  0
   -2.7537   -2.9406    1.7118 H   0  0  0  0  0  0  0  0  0  0  0  0
    4.1025    0.0135    0.2647 H   0  0  0  0  0  0  0  0  0  0  0  0
   -2.5447   -0.0457   -2.3399 H   0  0  0  0  0  0  0  0  0  0  0  0
    7.1320    0.1551    1.2337 H   0  0  0  0  0  0  0  0  0  0  0  0
    5.4857    0.4383    1.8504 H   0  0  0  0  0  0  0  0  0  0  0  0
    0.1045   -0.6402    1.6507 H   0  0  0  0  0  0  0  0  0  0  0  0
   -0.5918   -2.2012   -2.3446 H   0  0  0  0  0  0  0  0  0  0  0  0
   -3.9469    1.9696   -2.3186 H   0  0  0  0  0  0  0  0  0  0  0  0
    2.1541    0.3557    0.8969 H   0  0  0  0  0  0  0  0  0  0  0  0
    1.4623   -1.1815   -3.0901 H   0  0  0  0  0  0  0  0  0  0  0  0
   -5.8469    3.1694   -1.3107 H   0  0  0  0  0  0  0  0  0  0  0  0
    7.7632   -0.3225   -2.8641 H   0  0  0  0  0  0  0  0  0  0  0  0
   -7.5383    4.3657   -0.4956 H   0  0  0  0  0  0  0  0  0  0  0  0
   -8.5497    3.8226    0.8027 H   0  0  0  0  0  0  0  0  0  0  0  0
    7.6524    1.4193    4.4512 H   0  0  0  0  0  0  0  0  0  0  0  0
    0.7265   -5.2172    2.2984 H   0  0  0  0  0  0  0  0  0  0  0  0
  1 26  2  0  0  0  0
  2 30  1  0  0  0  0
  2 54  1  0  0  0  0
  3 30  2  0  0  0  0
  4 31  2  0  0  0  0
  5 33  1  0  0  0  0
  5 57  1  0  0  0  0
  6 33  2  0  0  0  0
  7 12  1  0  0  0  0
  7 15  1  0  0  0  0
  7 19  1  0  0  0  0
  8 14  1  0  0  0  0
  8 26  1  0  0  0  0
  8 44  1  0  0  0  0
  9 21  1  0  0  0  0
  9 32  1  0  0  0  0
  9 53  1  0  0  0  0
 10 31  1  0  0  0  0
 10 32  2  0  0  0  0
 11 32  1  0  0  0  0
 11 55  1  0  0  0  0
 11 56  1  0  0  0  0
 12 13  1  0  0  0  0
 12 36  1  0  0  0  0
 12 37  1  0  0  0  0
 13 17  2  0  0  0  0
 13 22  1  0  0  0  0
 14 16  1  0  0  0  0
 14 30  1  0  0  0  0
 14 38  1  0  0  0  0
 15 24  2  0  0  0  0
 15 25  1  0  0  0  0
 16 23  1  0  0  0  0
 16 39  1  0  0  0  0
 16 40  1  0  0  0  0
 17 18  1  0  0  0  0
 17 41  1  0  0  0  0
 18 21  2  0  0  0  0
 18 31  1  0  0  0  0
 19 34  1  0  0  0  0
 19 42  1  0  0  0  0
 19 43  1  0  0  0  0
 20 26  1  0  0  0  0
 20 28  2  0  0  0  0
 20 29  1  0  0  0  0
 21 27  1  0  0  0  0
 22 27  2  0  0  0  0
 22 45  1  0  0  0  0
 23 33  1  0  0  0  0
 23 46  1  0  0  0  0
 23 47  1  0  0  0  0
 24 28  1  0  0  0  0
 24 48  1  0  0  0  0
 25 29  2  0  0  0  0
 25 49  1  0  0  0  0
 27 50  1  0  0  0  0
 28 51  1  0  0  0  0
 29 52  1  0  0  0  0
 34 35  3  0  0  0  0
 35 58  1  0  0  0  0
M  END
> <PUBCHEM_COMPOUND_CID>
443388

> <PUBCHEM_CONFORMER_RMSD>
1.2

> <PUBCHEM_CONFORMER_DIVERSEORDER>
20
4
91
48
65
9
62
103
78
105
51
52
23
109
27
39
45
60
98
57
80
104
100
97
56
108
113
17
54
73
86
35
114
46
76
29
37
61
90
47
19
93
110
67
31
79
41
64
42
117
111
88
82
28
55
40
81
94
106
84
115
63
50
116
75
89
95
25
43
10
99
53
70
92
30
22
18
107
77
74
49
5
6
33
87
13
36
44
38
68
96
3
118
71
102
1
12
72
34
58
83
26
69
32
101
112
14
59
8
66
11
21
85
24
7
15
16
2

> <PUBCHEM_MMFF94_PARTIAL_CHARGES>
48
1 -0.57
10 -0.66
11 -0.85
12 0.51
13 -0.14
14 0.36
15 0.1
17 -0.15
18 0.09
19 0.57
2 -0.65
20 0.09
21 0.1
22 -0.15
23 0.06
24 -0.15
25 -0.15
26 0.54
27 -0.15
28 -0.15
29 -0.15
3 -0.57
30 0.66
31 0.69
32 0.55
33 0.66
34 -0.2
35 -0.18
4 -0.57
41 0.15
44 0.37
45 0.15
48 0.15
49 0.15
5 -0.65
50 0.15
51 0.15
52 0.15
53 0.4
54 0.5
55 0.4
56 0.4
57 0.5
58 0.18
6 -0.57
7 -0.84
8 -0.73
9 -0.55

> <PUBCHEM_EFFECTIVE_ROTOR_COUNT>
11

> <PUBCHEM_PHARMACOPHORE_FEATURES>
17
1 1 acceptor
1 10 donor
1 11 donor
1 2 acceptor
1 3 acceptor
1 35 hydrophobe
1 4 acceptor
1 5 acceptor
1 6 acceptor
1 7 cation
1 8 donor
1 9 donor
3 2 3 30 anion
3 5 6 33 anion
6 13 17 18 21 22 27 rings
6 15 20 24 25 28 29 rings
6 9 10 18 21 31 32 rings

> <PUBCHEM_HEAVY_ATOM_COUNT>
35

> <PUBCHEM_ATOM_DEF_STEREO_COUNT>
1

> <PUBCHEM_ATOM_UDEF_STEREO_COUNT>
0

> <PUBCHEM_BOND_DEF_STEREO_COUNT>
0

> <PUBCHEM_BOND_UDEF_STEREO_COUNT>
0

> <PUBCHEM_ISOTOPIC_ATOM_COUNT>
0

> <PUBCHEM_COMPONENT_COUNT>
1

> <PUBCHEM_CACTVS_TAUTO_COUNT>
12

> <PUBCHEM_CONFORMER_ID>
0006C3FC00000014

> <PUBCHEM_MMFF94_ENERGY>
108.9902

> <PUBCHEM_FEATURE_SELFOVERLAP>
86.537

> <PUBCHEM_SHAPE_FINGERPRINT>
10280341 67 18263375827335155033
10554248 39 15647320945413827668
10677351 27 15769780139921878218
11297750 10 15432592784082661551
11387372 6 13470692537815950417
12988421 55 18131362907573388919
13782708 43 10807949171323773208
13878862 14 16805042905266775440
14068700 675 5906051400429715555
14556957 393 13912590650343845346
14849402 71 16701156591907197644
15082195 135 14418121904209497348
15183329 4 14996564053501395101
15350500 55 17459198391841836792
15352257 5 13110966427085364464
15357212 105 17628612203847764108
15392192 29 16415211066455129090
16993089 31 12967142622216964504
16994733 274 17749117676980631705
19246450 95 17416712278152841188
20511986 3 16660934266820471438
21033648 29 18261395490986435590
21223535 225 16951113110457364345
21362857 166 7709471515777046608
21424621 283 18341604928066555011
21756936 100 18343014481147718447
21814621 53 18261107444589131026
23522609 53 16772932724364843974
23559900 14 7204190912677447783
2838139 119 18333729118045382461
397638 26 18411985771087925132
4280585 95 6771864044046718183
504579 68 13840255962902547552
5385378 56 17988637562040006827
563151 248 16773798069400315890
6058803 2 16913677801727326270
6691757 9 17916601838260243818
9980921 177 18338243781709142842

> <PUBCHEM_SHAPE_MULTIPOLES>
660.16
24.02
3.65
2.83
9.4
2.66
-1.32
-24.4
-11.31
-4.2
-2.5
6.66
-0.49
2.05

> <PUBCHEM_SHAPE_SELFOVERLAP>
1411.223

> <PUBCHEM_SHAPE_VOLUME>
361.2

> <PUBCHEM_COORDINATE_TYPE>
2
5
10

$$$$

