5280520
  -OEChem-07051212473D

 30 32  0     0  0  0  0  0  0999 V2000
    1.4947    1.8317   -0.2206 O   0  0  0  0  0  0  0  0  0  0  0  0
    0.0830   -1.9926   -0.0459 O   0  0  0  0  0  0  0  0  0  0  0  0
   -1.9793    0.2994    2.2361 O   0  0  0  0  0  0  0  0  0  0  0  0
    5.9947    0.3361    0.0170 O   0  0  0  0  0  0  0  0  0  0  0  0
   -6.0137   -0.2435   -0.2337 O   0  0  0  0  0  0  0  0  0  0  0  0
   -0.4154    0.3327   -0.1644 C   0  0  0  0  0  0  0  0  0  0  0  0
    1.9418   -0.5478   -0.0497 C   0  0  0  0  0  0  0  0  0  0  0  0
   -1.8797    0.1830   -0.1625 C   0  0  0  0  0  0  0  0  0  0  0  0
    0.4969   -0.8409   -0.0788 C   0  0  0  0  0  0  0  0  0  0  0  0
    2.3671    0.7781   -0.1239 C   0  0  0  0  0  0  0  0  0  0  0  0
    0.1506    1.5475   -0.2257 C   0  0  0  0  0  0  0  0  0  0  0  0
    2.8767   -1.5818    0.0468 C   0  0  0  0  0  0  0  0  0  0  0  0
   -2.6060    0.1717    1.0318 C   0  0  0  0  0  0  0  0  0  0  0  0
    3.7296    1.0777   -0.1023 C   0  0  0  0  0  0  0  0  0  0  0  0
   -2.5521    0.0500   -1.3805 C   0  0  0  0  0  0  0  0  0  0  0  0
    4.6647    0.0472   -0.0057 C   0  0  0  0  0  0  0  0  0  0  0  0
    4.2389   -1.2795    0.0689 C   0  0  0  0  0  0  0  0  0  0  0  0
   -3.9934    0.0285    1.0078 C   0  0  0  0  0  0  0  0  0  0  0  0
   -3.9393   -0.0934   -1.4045 C   0  0  0  0  0  0  0  0  0  0  0  0
   -4.6600   -0.1041   -0.2102 C   0  0  0  0  0  0  0  0  0  0  0  0
   -0.4124    2.4708   -0.2856 H   0  0  0  0  0  0  0  0  0  0  0  0
    2.5660   -2.6211    0.1054 H   0  0  0  0  0  0  0  0  0  0  0  0
   -2.0061    0.0552   -2.3212 H   0  0  0  0  0  0  0  0  0  0  0  0
    4.0635    2.1106   -0.1602 H   0  0  0  0  0  0  0  0  0  0  0  0
    4.9602   -2.0891    0.1445 H   0  0  0  0  0  0  0  0  0  0  0  0
   -4.5569    0.0200    1.9377 H   0  0  0  0  0  0  0  0  0  0  0  0
   -4.4530   -0.1964   -2.3564 H   0  0  0  0  0  0  0  0  0  0  0  0
   -2.6430    0.2689    2.9464 H   0  0  0  0  0  0  0  0  0  0  0  0
    6.4965   -0.4941    0.0873 H   0  0  0  0  0  0  0  0  0  0  0  0
   -6.3484   -0.2295    0.6793 H   0  0  0  0  0  0  0  0  0  0  0  0
  1 10  1  0  0  0  0
  1 11  1  0  0  0  0
  2  9  2  0  0  0  0
  3 13  1  0  0  0  0
  3 28  1  0  0  0  0
  4 16  1  0  0  0  0
  4 29  1  0  0  0  0
  5 20  1  0  0  0  0
  5 30  1  0  0  0  0
  6  8  1  0  0  0  0
  6  9  1  0  0  0  0
  6 11  2  0  0  0  0
  7  9  1  0  0  0  0
  7 10  2  0  0  0  0
  7 12  1  0  0  0  0
  8 13  2  0  0  0  0
  8 15  1  0  0  0  0
 10 14  1  0  0  0  0
 11 21  1  0  0  0  0
 12 17  2  0  0  0  0
 12 22  1  0  0  0  0
 13 18  1  0  0  0  0
 14 16  2  0  0  0  0
 14 24  1  0  0  0  0
 15 19  2  0  0  0  0
 15 23  1  0  0  0  0
 16 17  1  0  0  0  0
 17 25  1  0  0  0  0
 18 20  2  0  0  0  0
 18 26  1  0  0  0  0
 19 20  1  0  0  0  0
 19 27  1  0  0  0  0
M  END
> <PUBCHEM_COMPOUND_CID>
5280520

> <PUBCHEM_CONFORMER_RMSD>
0.6

> <PUBCHEM_CONFORMER_DIVERSEORDER>
1
3
4
5
2

> <PUBCHEM_MMFF94_PARTIAL_CHARGES>
30
1 -0.16
10 0.08
11 -0.07
12 -0.15
13 0.08
14 -0.15
15 -0.15
16 0.08
17 -0.15
18 -0.15
19 -0.15
2 -0.57
20 0.08
21 0.15
22 0.15
23 0.15
24 0.15
25 0.15
26 0.15
27 0.15
28 0.45
29 0.45
3 -0.53
30 0.45
4 -0.53
5 -0.53
6 -0.01
7 0.09
8 0.03
9 0.47

> <PUBCHEM_EFFECTIVE_ROTOR_COUNT>
1

> <PUBCHEM_PHARMACOPHORE_FEATURES>
8
1 1 acceptor
1 2 acceptor
1 3 donor
1 4 donor
1 5 donor
6 1 6 7 9 10 11 rings
6 7 10 12 14 16 17 rings
6 8 13 15 18 19 20 rings

> <PUBCHEM_HEAVY_ATOM_COUNT>
20

> <PUBCHEM_ATOM_DEF_STEREO_COUNT>
0

> <PUBCHEM_ATOM_UDEF_STEREO_COUNT>
0

> <PUBCHEM_BOND_DEF_STEREO_COUNT>
0

> <PUBCHEM_BOND_UDEF_STEREO_COUNT>
0

> <PUBCHEM_ISOTOPIC_ATOM_COUNT>
0

> <PUBCHEM_COMPONENT_COUNT>
1

> <PUBCHEM_CACTVS_TAUTO_COUNT>
45

> <PUBCHEM_CONFORMER_ID>
0050930800000001

> <PUBCHEM_MMFF94_ENERGY>
60.289

> <PUBCHEM_FEATURE_SELFOVERLAP>
40.623

> <PUBCHEM_SHAPE_FINGERPRINT>
10 15 17846224303107490248
11471102 20 18413108359965164844
11796584 16 16128656366639141074
12011746 2 18273493481192013510
12107183 9 16593346440288365674
12236239 1 17822009817882509253
13140716 1 18195528095820661240
13533116 47 17676488388578786206
13583140 156 17131834248687581010
13862211 1 18411704318150676774
14386348 63 17775281664233377905
14573314 32 16702306783922010267
15196674 1 18339644563485476364
15375358 24 17775565346902478002
15788980 27 16917347026204340426
15848702 151 17895750819835877278
17349148 13 18260267451479185834
17862501 102 17675925408359555480
1813 80 18262222417798148556
19489759 90 16343988017725156399
200 152 18334298677874402217
20279233 1 17632571660592021090
20645477 70 18271811275989483022
21033648 29 18059309698327980300
21033650 10 16517059935925691360
21267235 1 18410852201034253670
21641784 216 18059276765194261460
23175994 123 17988639696965625477
23402539 116 15864076472679422405
23557571 272 16773802523270670396
23559900 14 16630244800939286978
23569943 247 17680128953668632582
26918003 58 18202280299114919817
34797466 226 16200136716946353270
4340502 62 16487258781192725122
5104073 3 18268436909347960104
542803 24 17675924300300184555
602551 16 15285654156897483110
7495541 125 17060048216546659749
77492 1 17821726131029413101

> <PUBCHEM_SHAPE_MULTIPOLES>
382.24
11.24
1.4
1.12
0.06
0.1
0.29
0.67
-0.47
-1.33
-0.06
1.45
-0.05
-0.14

> <PUBCHEM_SHAPE_SELFOVERLAP>
855.994

> <PUBCHEM_SHAPE_VOLUME>
201.5

> <PUBCHEM_COORDINATE_TYPE>
2
5
10

$$$$

