345512
  -OEChem-07051213003D

 43 46  0     0  0  0  0  0  0999 V2000
   -3.6075   -0.5340   -0.1726 O   0  0  0  0  0  0  0  0  0  0  0  0
    0.0800   -3.3594    0.3538 O   0  0  0  0  0  0  0  0  0  0  0  0
    2.4013   -2.3353    0.4494 O   0  0  0  0  0  0  0  0  0  0  0  0
    0.9395    1.4116    0.2079 N   0  0  0  0  0  0  0  0  0  0  0  0
   -4.2381    0.7584   -0.0732 C   0  0  0  0  0  0  0  0  0  0  0  0
    0.0018    0.3555    0.1148 C   0  0  0  0  0  0  0  0  0  0  0  0
   -1.3933    0.5191   -0.0925 C   0  0  0  0  0  0  0  0  0  0  0  0
    0.4909   -0.9700    0.2110 C   0  0  0  0  0  0  0  0  0  0  0  0
   -2.2455   -0.6010   -0.0262 C   0  0  0  0  0  0  0  0  0  0  0  0
   -3.3439    1.9004   -0.4730 C   0  0  0  0  0  0  0  0  0  0  0  0
    2.3301    1.2276    0.0214 C   0  0  0  0  0  0  0  0  0  0  0  0
   -2.0141    1.7824   -0.5002 C   0  0  0  0  0  0  0  0  0  0  0  0
   -0.3646   -2.0760    0.2417 C   0  0  0  0  0  0  0  0  0  0  0  0
    2.8642   -0.0709    0.0276 C   0  0  0  0  0  0  0  0  0  0  0  0
    1.9538   -1.2126    0.2535 C   0  0  0  0  0  0  0  0  0  0  0  0
   -1.7346   -1.8859    0.1473 C   0  0  0  0  0  0  0  0  0  0  0  0
   -4.7305    0.9424    1.3667 C   0  0  0  0  0  0  0  0  0  0  0  0
   -5.4412    0.7018   -1.0233 C   0  0  0  0  0  0  0  0  0  0  0  0
    0.5526    2.6615    0.8724 C   0  0  0  0  0  0  0  0  0  0  0  0
    3.2213    2.2950   -0.1881 C   0  0  0  0  0  0  0  0  0  0  0  0
    4.2348   -0.3006   -0.1466 C   0  0  0  0  0  0  0  0  0  0  0  0
    4.5893    2.0712   -0.3682 C   0  0  0  0  0  0  0  0  0  0  0  0
    5.0951    0.7753   -0.3450 C   0  0  0  0  0  0  0  0  0  0  0  0
    0.3585   -4.0565   -0.8586 C   0  0  0  0  0  0  0  0  0  0  0  0
   -3.7966    2.8493   -0.7478 H   0  0  0  0  0  0  0  0  0  0  0  0
   -1.4057    2.6105   -0.8373 H   0  0  0  0  0  0  0  0  0  0  0  0
   -2.4076   -2.7397    0.1780 H   0  0  0  0  0  0  0  0  0  0  0  0
   -5.2856    1.8786    1.4914 H   0  0  0  0  0  0  0  0  0  0  0  0
   -5.3812    0.1119    1.6646 H   0  0  0  0  0  0  0  0  0  0  0  0
   -3.8928    0.9450    2.0742 H   0  0  0  0  0  0  0  0  0  0  0  0
   -5.1160    0.5331   -2.0572 H   0  0  0  0  0  0  0  0  0  0  0  0
   -6.1008   -0.1360   -0.7680 H   0  0  0  0  0  0  0  0  0  0  0  0
   -6.0314    1.6244   -0.9945 H   0  0  0  0  0  0  0  0  0  0  0  0
    0.4656    3.4768    0.1463 H   0  0  0  0  0  0  0  0  0  0  0  0
    1.2906    2.9545    1.6305 H   0  0  0  0  0  0  0  0  0  0  0  0
   -0.3887    2.5758    1.4260 H   0  0  0  0  0  0  0  0  0  0  0  0
    2.8654    3.3217   -0.2280 H   0  0  0  0  0  0  0  0  0  0  0  0
    4.6453   -1.3064   -0.1340 H   0  0  0  0  0  0  0  0  0  0  0  0
    5.2582    2.9118   -0.5292 H   0  0  0  0  0  0  0  0  0  0  0  0
    6.1584    0.6036   -0.4841 H   0  0  0  0  0  0  0  0  0  0  0  0
   -0.5789   -4.3545   -1.3384 H   0  0  0  0  0  0  0  0  0  0  0  0
    0.9270   -4.9578   -0.6135 H   0  0  0  0  0  0  0  0  0  0  0  0
    0.9485   -3.4462   -1.5502 H   0  0  0  0  0  0  0  0  0  0  0  0
  1  5  1  0  0  0  0
  1  9  1  0  0  0  0
  2 13  1  0  0  0  0
  2 24  1  0  0  0  0
  3 15  2  0  0  0  0
  4  6  1  0  0  0  0
  4 11  1  0  0  0  0
  4 19  1  0  0  0  0
  5 10  1  0  0  0  0
  5 17  1  0  0  0  0
  5 18  1  0  0  0  0
  6  7  2  0  0  0  0
  6  8  1  0  0  0  0
  7  9  1  0  0  0  0
  7 12  1  0  0  0  0
  8 13  2  0  0  0  0
  8 15  1  0  0  0  0
  9 16  2  0  0  0  0
 10 12  2  0  0  0  0
 10 25  1  0  0  0  0
 11 14  1  0  0  0  0
 11 20  2  0  0  0  0
 12 26  1  0  0  0  0
 13 16  1  0  0  0  0
 14 15  1  0  0  0  0
 14 21  2  0  0  0  0
 16 27  1  0  0  0  0
 17 28  1  0  0  0  0
 17 29  1  0  0  0  0
 17 30  1  0  0  0  0
 18 31  1  0  0  0  0
 18 32  1  0  0  0  0
 18 33  1  0  0  0  0
 19 34  1  0  0  0  0
 19 35  1  0  0  0  0
 19 36  1  0  0  0  0
 20 22  1  0  0  0  0
 20 37  1  0  0  0  0
 21 23  1  0  0  0  0
 21 38  1  0  0  0  0
 22 23  2  0  0  0  0
 22 39  1  0  0  0  0
 23 40  1  0  0  0  0
 24 41  1  0  0  0  0
 24 42  1  0  0  0  0
 24 43  1  0  0  0  0
M  END
> <PUBCHEM_COMPOUND_CID>
345512

> <PUBCHEM_CONFORMER_RMSD>
0.6

> <PUBCHEM_CONFORMER_DIVERSEORDER>
1
2

> <PUBCHEM_MMFF94_PARTIAL_CHARGES>
29
1 -0.36
10 -0.29
11 0.1
12 -0.18
13 0.08
14 0.09
15 0.4
16 -0.15
19 0.37
2 -0.36
20 -0.15
21 -0.15
22 -0.15
23 -0.15
24 0.28
25 0.15
26 0.15
27 0.15
3 -0.57
37 0.15
38 0.15
39 0.15
4 -0.57
40 0.15
5 0.42
6 0.1
7 0.03
8 0.09
9 0.08

> <PUBCHEM_EFFECTIVE_ROTOR_COUNT>
1.4

> <PUBCHEM_PHARMACOPHORE_FEATURES>
9
1 1 acceptor
1 2 acceptor
1 3 acceptor
1 4 cation
3 5 17 18 hydrophobe
6 1 5 7 9 10 12 rings
6 11 14 20 21 22 23 rings
6 4 6 8 11 14 15 rings
6 6 7 8 9 13 16 rings

> <PUBCHEM_HEAVY_ATOM_COUNT>
24

> <PUBCHEM_ATOM_DEF_STEREO_COUNT>
0

> <PUBCHEM_ATOM_UDEF_STEREO_COUNT>
0

> <PUBCHEM_BOND_DEF_STEREO_COUNT>
0

> <PUBCHEM_BOND_UDEF_STEREO_COUNT>
0

> <PUBCHEM_ISOTOPIC_ATOM_COUNT>
0

> <PUBCHEM_COMPONENT_COUNT>
1

> <PUBCHEM_CACTVS_TAUTO_COUNT>
1

> <PUBCHEM_CONFORMER_ID>
000545A800000001

> <PUBCHEM_MMFF94_ENERGY>
112.7641

> <PUBCHEM_FEATURE_SELFOVERLAP>
45.759

> <PUBCHEM_SHAPE_FINGERPRINT>
10411042 1 17330274382142258291
10493431 412 18410851023469461497
10616163 171 18340486668743047151
10693767 8 17969229004272047726
10906281 52 18115849863963404468
10967382 1 18411139177098913042
1100329 8 18410297991175502706
11370993 70 18413111653888751796
11578080 2 13253354234996617068
12173636 292 18339647750029463484
12236239 1 17749389295456050633
12592029 89 18341611559316647578
12644460 14 18202002170107526802
12788726 201 17677324043090871817
12838862 33 18339663177642200236
13140716 1 18411699910844350994
13583140 156 16486991560970051589
138480 1 17834678575357371302
14787075 74 18335423465289938637
14790565 3 18409439297890032673
15196674 1 18339923723290068104
1601671 61 18413388739509235968
16087824 20 18050568440251148615
16945 1 18121791538441312466
19591789 44 18338797810297889611
20645477 70 18269563895670317047
20739085 24 18198603613878733121
20775438 99 16526424244252132159
21033650 10 17170079691192781384
21267235 1 18410848893144284720
21857420 4 12947773990112099933
22182313 1 18266717148038717702
23227448 37 18339360743303524676
2334 1 18410578374808630762
23558518 356 17623295970479598696
23559900 14 18121790679453238394
238 59 17695671632514944517
2748010 2 18411414016472743466
3084891 72 18334857221075326968
335352 9 18411982473323142974
34934 24 18337677417272291530
350125 39 18266453201371700699
3680242 22 18341897428661898760
394222 165 18130794490184349602
4280585 95 17469883750013576470
474 4 18410293640078375459
5104073 3 18341332189200985952
6138700 20 18266174131803990342
633830 44 18187640353636612749
7364860 26 18265897054145595527
7808743 9 18125159338716351784
81228 2 17621333342081281979
8272917 22 18264486355125802935
9709674 26 18263919939513549614

> <PUBCHEM_SHAPE_MULTIPOLES>
471.32
9.46
3.6
0.85
2.12
3.29
0.05
-5.86
-1.17
-1.24
-0.22
0.59
-0.1
-0.1

> <PUBCHEM_SHAPE_SELFOVERLAP>
1051.425

> <PUBCHEM_SHAPE_VOLUME>
251

> <PUBCHEM_COORDINATE_TYPE>
2
5
10

$$$$

