12556
  -OEChem-06261207053D

 22 23  0     1  0  0  0  0  0999 V2000
    2.0819   -2.4103    0.0087 O   0  0  0  0  0  0  0  0  0  0  0  0
   -3.0489    1.4668   -0.0026 O   0  0  0  0  0  0  0  0  0  0  0  0
   -3.1641   -1.3058    0.0319 O   0  0  0  0  0  0  0  0  0  0  0  0
    1.8102    1.1010   -0.0643 N   0  0  3  0  0  0  0  0  0  0  0  0
    0.5022    0.6582   -0.0336 C   0  0  0  0  0  0  0  0  0  0  0  0
    2.7107   -0.0445    0.0078 C   0  0  0  0  0  0  0  0  0  0  0  0
    0.4050   -0.7329   -0.0139 C   0  0  0  0  0  0  0  0  0  0  0  0
    1.7716   -1.2346   -0.0022 C   0  0  0  0  0  0  0  0  0  0  0  0
   -0.6666    1.4020   -0.0284 C   0  0  0  0  0  0  0  0  0  0  0  0
   -0.7889   -1.4272    0.0080 C   0  0  0  0  0  0  0  0  0  0  0  0
    2.2433    2.4642    0.0851 C   0  0  0  0  0  0  0  0  0  0  0  0
   -1.8982    0.7334   -0.0068 C   0  0  0  0  0  0  0  0  0  0  0  0
   -1.9581   -0.6703    0.0102 C   0  0  0  0  0  0  0  0  0  0  0  0
    3.2850   -0.0368    0.9389 H   0  0  0  0  0  0  0  0  0  0  0  0
    3.3676   -0.0790   -0.8657 H   0  0  0  0  0  0  0  0  0  0  0  0
   -0.6315    2.4874   -0.0435 H   0  0  0  0  0  0  0  0  0  0  0  0
   -0.8167   -2.5107    0.0261 H   0  0  0  0  0  0  0  0  0  0  0  0
    1.7540    3.1147   -0.6472 H   0  0  0  0  0  0  0  0  0  0  0  0
    3.3240    2.5479   -0.0705 H   0  0  0  0  0  0  0  0  0  0  0  0
    2.0172    2.8338    1.0906 H   0  0  0  0  0  0  0  0  0  0  0  0
   -2.8222    2.4125   -0.0161 H   0  0  0  0  0  0  0  0  0  0  0  0
   -3.8650   -0.6310    0.0310 H   0  0  0  0  0  0  0  0  0  0  0  0
  1  8  2  0  0  0  0
  2 12  1  0  0  0  0
  2 21  1  0  0  0  0
  3 13  1  0  0  0  0
  3 22  1  0  0  0  0
  4  5  1  0  0  0  0
  4  6  1  0  0  0  0
  4 11  1  0  0  0  0
  5  7  1  0  0  0  0
  5  9  2  0  0  0  0
  6  8  1  0  0  0  0
  6 14  1  0  0  0  0
  6 15  1  0  0  0  0
  7  8  1  0  0  0  0
  7 10  2  0  0  0  0
  9 12  1  0  0  0  0
  9 16  1  0  0  0  0
 10 13  1  0  0  0  0
 10 17  1  0  0  0  0
 11 18  1  0  0  0  0
 11 19  1  0  0  0  0
 11 20  1  0  0  0  0
 12 13  2  0  0  0  0
M  END
> <PUBCHEM_COMPOUND_CID>
12556

> <PUBCHEM_CONFORMER_RMSD>
0.4

> <PUBCHEM_CONFORMER_DIVERSEORDER>
1

> <PUBCHEM_MMFF94_PARTIAL_CHARGES>
17
1 -0.57
10 -0.15
11 0.37
12 0.08
13 0.08
16 0.15
17 0.15
2 -0.53
21 0.45
22 0.45
3 -0.53
4 -0.84
5 0.1
6 0.43
7 0.09
8 0.42
9 -0.15

> <PUBCHEM_EFFECTIVE_ROTOR_COUNT>
0.4

> <PUBCHEM_PHARMACOPHORE_FEATURES>
6
1 1 acceptor
1 2 donor
1 3 donor
1 4 cation
5 4 5 6 7 8 rings
6 5 7 9 10 12 13 rings

> <PUBCHEM_HEAVY_ATOM_COUNT>
13

> <PUBCHEM_ATOM_DEF_STEREO_COUNT>
0

> <PUBCHEM_ATOM_UDEF_STEREO_COUNT>
0

> <PUBCHEM_BOND_DEF_STEREO_COUNT>
0

> <PUBCHEM_BOND_UDEF_STEREO_COUNT>
0

> <PUBCHEM_ISOTOPIC_ATOM_COUNT>
0

> <PUBCHEM_COMPONENT_COUNT>
1

> <PUBCHEM_CACTVS_TAUTO_COUNT>
18

> <PUBCHEM_CONFORMER_ID>
0000310C00000001

> <PUBCHEM_MMFF94_ENERGY>
40.5933

> <PUBCHEM_FEATURE_SELFOVERLAP>
30.54

> <PUBCHEM_SHAPE_FINGERPRINT>
10608611 8 18412267233311849573
10967382 1 18194683889226881933
12524768 44 18343303669093920981
13380535 21 18340192059867017693
13380535 76 18268997475204004962
13897977 150 18411141342010687901
14325111 11 18410855430185047821
14648413 74 18411698819911776744
16945 1 18410575054703848374
17990270 104 18410575119218275490
193761 8 18410575084678916173
19973954 147 18410292531781510745
20511035 2 18115039600511632783
20645477 70 18336268959931022535
21501502 16 18410856559840295109
2334 1 18410855438906558901
23552423 10 18413386531610988367
23559900 14 18191583258939084270
241688 4 17906171011928245824
2748010 2 18411981364551537461
5084963 1 18187362099611093226
528886 8 18338240473840324473
53812653 166 18335425690135693680
7364860 26 18335138691836107004

> <PUBCHEM_SHAPE_MULTIPOLES>
244.94
4.27
2.38
0.59
1.44
0.1
0
0.36
-0.05
-1.04
-0.03
-0.02
0.01
0.04

> <PUBCHEM_SHAPE_SELFOVERLAP>
535.694

> <PUBCHEM_SHAPE_VOLUME>
135.9

> <PUBCHEM_COORDINATE_TYPE>
2
5
10

$$$$

