23675743
  -OEChem-07051213042D

 50 51  0     1  0  0  0  0  0999 V2000
    2.2629    8.1031    0.0000 Cl  0  0  0  0  0  0  0  0  0  0  0  0
    6.3328    4.2633    0.0000 S   0  0  0  0  0  0  0  0  0  0  0  0
    6.2817    0.0000    0.0000 Na  0  3  0  0  0  0  0  0  0  0  0  0
    3.6678    2.2416    0.0000 O   0  0  0  0  0  0  0  0  0  0  0  0
    5.9727    0.9511    0.0000 O   0  5  0  0  0  0  0  0  0  0  0  0
    7.6199    1.4863    0.0000 O   0  0  0  0  0  0  0  0  0  0  0  0
    2.4405    3.4448    0.0000 O   0  0  0  0  0  0  0  0  0  0  0  0
    0.5555    5.8562    0.0000 O   0  0  0  0  0  0  0  0  0  0  0  0
    4.1156   10.6295    0.0000 O   0  0  0  0  0  0  0  0  0  0  0  0
    5.3817    2.9543    0.0000 N   0  0  0  0  0  0  0  0  0  0  0  0
    3.6678    4.6670    0.0000 N   0  0  0  0  0  0  0  0  0  0  0  0
    1.2641    6.5619    0.0000 N   0  0  0  0  0  0  0  0  0  0  0  0
    5.3817    3.9543    0.0000 C   0  0  1  0  0  0  0  0  0  0  0  0
    6.9206    3.4543    0.0000 C   0  0  0  0  0  0  0  0  0  0  0  0
    6.3328    2.6453    0.0000 C   0  0  2  0  0  0  0  0  0  0  0  0
    4.3734    3.9584    0.0000 C   0  0  1  0  0  0  0  0  0  0  0  0
    4.3734    2.9501    0.0000 C   0  0  0  0  0  0  0  0  0  0  0  0
    7.7296    4.0421    0.0000 C   0  0  0  0  0  0  0  0  0  0  0  0
    7.7296    2.8665    0.0000 C   0  0  0  0  0  0  0  0  0  0  0  0
    6.6418    1.6942    0.0000 C   0  0  0  0  0  0  0  0  0  0  0  0
    2.7013    4.4101    0.0000 C   0  0  0  0  0  0  0  0  0  0  0  0
    1.9957    5.1187    0.0000 C   0  0  0  0  0  0  0  0  0  0  0  0
    2.1541    6.1061    0.0000 C   0  0  0  0  0  0  0  0  0  0  0  0
    1.0077    4.9643    0.0000 C   0  0  0  0  0  0  0  0  0  0  0  0
    3.0461    6.5582    0.0000 C   0  0  0  0  0  0  0  0  0  0  0  0
    0.5518    4.0742    0.0000 C   0  0  0  0  0  0  0  0  0  0  0  0
    3.1005    7.5568    0.0000 C   0  0  0  0  0  0  0  0  0  0  0  0
    3.8836    6.0119    0.0000 C   0  0  0  0  0  0  0  0  0  0  0  0
    3.9924    8.0089    0.0000 C   0  0  0  0  0  0  0  0  0  0  0  0
    4.7756    6.4640    0.0000 C   0  0  0  0  0  0  0  0  0  0  0  0
    4.8300    7.4625    0.0000 C   0  0  0  0  0  0  0  0  0  0  0  0
    5.2505    4.7941    0.0000 H   0  0  0  0  0  0  0  0  0  0  0  0
    5.8944    2.2069    0.0000 H   0  0  0  0  0  0  0  0  0  0  0  0
    4.6125    4.5305    0.0000 H   0  0  0  0  0  0  0  0  0  0  0  0
    8.0940    3.5405    0.0000 H   0  0  0  0  0  0  0  0  0  0  0  0
    8.2312    4.4065    0.0000 H   0  0  0  0  0  0  0  0  0  0  0  0
    7.3651    4.5437    0.0000 H   0  0  0  0  0  0  0  0  0  0  0  0
    7.3651    2.3649    0.0000 H   0  0  0  0  0  0  0  0  0  0  0  0
    8.2312    2.5021    0.0000 H   0  0  0  0  0  0  0  0  0  0  0  0
    8.0940    3.3681    0.0000 H   0  0  0  0  0  0  0  0  0  0  0  0
    3.8295    5.2655    0.0000 H   0  0  0  0  0  0  0  0  0  0  0  0
    0.0000    4.3568    0.0000 H   0  0  0  0  0  0  0  0  0  0  0  0
    0.2692    3.5224    0.0000 H   0  0  0  0  0  0  0  0  0  0  0  0
    1.1037    3.7916    0.0000 H   0  0  0  0  0  0  0  0  0  0  0  0
    3.8499    5.3928    0.0000 H   0  0  0  0  0  0  0  0  0  0  0  0
    4.0261    8.6280    0.0000 H   0  0  0  0  0  0  0  0  0  0  0  0
    5.2948    6.1253    0.0000 H   0  0  0  0  0  0  0  0  0  0  0  0
    5.3830    7.7429    0.0000 H   0  0  0  0  0  0  0  0  0  0  0  0
    4.6525   10.9395    0.0000 H   0  0  0  0  0  0  0  0  0  0  0  0
    3.5786   10.9395    0.0000 H   0  0  0  0  0  0  0  0  0  0  0  0
  1 27  1  0  0  0  0
  2 13  1  0  0  0  0
  2 14  1  0  0  0  0
  4 17  2  0  0  0  0
  5 20  1  0  0  0  0
  6 20  2  0  0  0  0
  7 21  2  0  0  0  0
  8 12  1  0  0  0  0
  8 24  1  0  0  0  0
  9 49  1  0  0  0  0
  9 50  1  0  0  0  0
 10 13  1  0  0  0  0
 10 15  1  0  0  0  0
 10 17  1  0  0  0  0
 16 11  1  1  0  0  0
 11 21  1  0  0  0  0
 11 41  1  0  0  0  0
 12 23  2  0  0  0  0
 13 16  1  0  0  0  0
 13 32  1  6  0  0  0
 14 15  1  0  0  0  0
 14 18  1  0  0  0  0
 14 19  1  0  0  0  0
 15 20  1  6  0  0  0
 15 33  1  0  0  0  0
 16 17  1  0  0  0  0
 16 34  1  0  0  0  0
 18 35  1  0  0  0  0
 18 36  1  0  0  0  0
 18 37  1  0  0  0  0
 19 38  1  0  0  0  0
 19 39  1  0  0  0  0
 19 40  1  0  0  0  0
 21 22  1  0  0  0  0
 22 23  1  0  0  0  0
 22 24  2  0  0  0  0
 23 25  1  0  0  0  0
 24 26  1  0  0  0  0
 25 27  1  0  0  0  0
 25 28  2  0  0  0  0
 26 42  1  0  0  0  0
 26 43  1  0  0  0  0
 26 44  1  0  0  0  0
 27 29  2  0  0  0  0
 28 30  1  0  0  0  0
 28 45  1  0  0  0  0
 29 31  1  0  0  0  0
 29 46  1  0  0  0  0
 30 31  2  0  0  0  0
 30 47  1  0  0  0  0
 31 48  1  0  0  0  0
M  CHG  2   3   1   5  -1
M  END
> <PUBCHEM_COMPOUND_CID>
23675743

> <PUBCHEM_COMPOUND_CANONICALIZED>
1

> <PUBCHEM_CACTVS_COMPLEXITY>
728

> <PUBCHEM_CACTVS_HBOND_ACCEPTOR>
8

> <PUBCHEM_CACTVS_HBOND_DONOR>
2

> <PUBCHEM_CACTVS_ROTATABLE_BOND>
4

> <PUBCHEM_CACTVS_SUBSKEYS>
AAADceB7OCBEAAAAAAAAAAAAAABYAWLAAAAwAAAABYAAAAABwAAAHgYUCAAADC7F3iSyjJPQAAipA6XyWgCCAABkJRAomKGsTtoKZr6p07OUMchmthi4yUeYyOCOAAAAAAABAAAAAAAAAAIAAAAAAAAAAA==

> <PUBCHEM_IUPAC_OPENEYE_NAME>
sodium (2S,5R,6R)-6-[[3-(2-chlorophenyl)-5-methyl-isoxazole-4-carbonyl]amino]-3,3-dimethyl-7-oxo-4-thia-1-azabicyclo[3.2.0]heptane-2-carboxylate hydrate

> <PUBCHEM_IUPAC_CAS_NAME>
sodium (2S,5R,6R)-6-[[[3-(2-chlorophenyl)-5-methyl-4-isoxazolyl]-oxomethyl]amino]-3,3-dimethyl-7-oxo-4-thia-1-azabicyclo[3.2.0]heptane-2-carboxylate hydrate

> <PUBCHEM_IUPAC_NAME>
sodium (2S,5R,6R)-6-[[3-(2-chlorophenyl)-5-methyl-1,2-oxazole-4-carbonyl]amino]-3,3-dimethyl-7-oxo-4-thia-1-azabicyclo[3.2.0]heptane-2-carboxylate hydrate

> <PUBCHEM_IUPAC_SYSTEMATIC_NAME>
sodium (2S,5R,6R)-6-[[3-(2-chlorophenyl)-5-methyl-1,2-oxazol-4-yl]carbonylamino]-3,3-dimethyl-7-oxidanylidene-4-thia-1-azabicyclo[3.2.0]heptane-2-carboxylate hydrate

> <PUBCHEM_IUPAC_TRADITIONAL_NAME>
sodium (2S,5R,6R)-6-[[3-(2-chlorophenyl)-5-methyl-isoxazole-4-carbonyl]amino]-7-keto-3,3-dimethyl-4-thia-1-azabicyclo[3.2.0]heptane-2-carboxylate hydrate

> <PUBCHEM_IUPAC_INCHI>
InChI=1S/C19H18ClN3O5S.Na.H2O/c1-8-11(12(22-28-8)9-6-4-5-7-10(9)20)15(24)21-13-16(25)23-14(18(26)27)19(2,3)29-17(13)23;;/h4-7,13-14,17H,1-3H3,(H,21,24)(H,26,27);;1H2/q;+1;/p-1/t13-,14+,17-;;/m1../s1

> <PUBCHEM_IUPAC_INCHIKEY>
KCUWTKOTPIUBRI-VICXVTCVSA-M

> <PUBCHEM_EXACT_MASS>
475.058078

> <PUBCHEM_MOLECULAR_FORMULA>
C19H19ClN3NaO6S

> <PUBCHEM_MOLECULAR_WEIGHT>
475.878429

> <PUBCHEM_OPENEYE_CAN_SMILES>
CC1=C(C(=NO1)C2=CC=CC=C2Cl)C(=O)NC3C4N(C3=O)C(C(S4)(C)C)C(=O)[O-].O.[Na+]

> <PUBCHEM_OPENEYE_ISO_SMILES>
CC1=C(C(=NO1)C2=CC=CC=C2Cl)C(=O)N[C@H]3[C@@H]4N(C3=O)[C@H](C(S4)(C)C)C(=O)[O-].O.[Na+]

> <PUBCHEM_CACTVS_TPSA>
142

> <PUBCHEM_MONOISOTOPIC_WEIGHT>
475.058078

> <PUBCHEM_TOTAL_CHARGE>
0

> <PUBCHEM_HEAVY_ATOM_COUNT>
31

> <PUBCHEM_ATOM_DEF_STEREO_COUNT>
3

> <PUBCHEM_ATOM_UDEF_STEREO_COUNT>
0

> <PUBCHEM_BOND_DEF_STEREO_COUNT>
0

> <PUBCHEM_BOND_UDEF_STEREO_COUNT>
0

> <PUBCHEM_ISOTOPIC_ATOM_COUNT>
0

> <PUBCHEM_COMPONENT_COUNT>
3

> <PUBCHEM_CACTVS_TAUTO_COUNT>
4

> <PUBCHEM_NONSTANDARDBOND>
3  5  7

> <PUBCHEM_COORDINATE_TYPE>
1
5
255

> <PUBCHEM_BONDANNOTATIONS>
16  11  5
12  23  8
13  32  6
15  20  6
22  23  8
22  24  8
25  27  8
25  28  8
27  29  8
28  30  8
29  31  8
30  31  8
8  12  8
8  24  8

$$$$

