91572
  -OEChem-07051212593D

 42 46  0     1  0  0  0  0  0999 V2000
   -0.2517    0.0853   -1.7318 O   0  0  0  0  0  0  0  0  0  0  0  0
   -2.5835    1.5535    1.1055 O   0  0  0  0  0  0  0  0  0  0  0  0
    3.8394    0.1278    0.9191 O   0  0  0  0  0  0  0  0  0  0  0  0
   -5.0661   -2.4717    1.3802 O   0  0  0  0  0  0  0  0  0  0  0  0
   -1.1101    2.1395   -0.7797 C   0  0  2  0  0  0  0  0  0  0  0  0
   -1.4738    0.8370   -1.5107 C   0  0  2  0  0  0  0  0  0  0  0  0
    0.1888    1.7296   -0.1786 C   0  0  0  0  0  0  0  0  0  0  0  0
   -2.1965    2.5806    0.1880 C   0  0  0  0  0  0  0  0  0  0  0  0
    0.6324    0.5660   -0.7945 C   0  0  0  0  0  0  0  0  0  0  0  0
   -2.4597   -0.0179   -0.7505 C   0  0  0  0  0  0  0  0  0  0  0  0
    1.8492   -0.0203   -0.4760 C   0  0  0  0  0  0  0  0  0  0  0  0
   -2.9460    0.3790    0.5007 C   0  0  0  0  0  0  0  0  0  0  0  0
    0.9564    2.3548    0.7868 C   0  0  0  0  0  0  0  0  0  0  0  0
    2.6246    0.6014    0.5065 C   0  0  0  0  0  0  0  0  0  0  0  0
    4.3660   -1.0774    0.3235 C   0  0  0  0  0  0  0  0  0  0  0  0
    2.1803    1.7795    1.1338 C   0  0  0  0  0  0  0  0  0  0  0  0
   -2.8861   -1.2417   -1.2868 C   0  0  0  0  0  0  0  0  0  0  0  0
    2.3222   -1.2345   -1.1140 C   0  0  0  0  0  0  0  0  0  0  0  0
    3.5038   -1.7252   -0.7342 C   0  0  0  0  0  0  0  0  0  0  0  0
   -3.8078   -0.4510    1.2221 C   0  0  0  0  0  0  0  0  0  0  0  0
    5.7187   -0.6981   -0.2905 C   0  0  0  0  0  0  0  0  0  0  0  0
    4.5815   -2.0672    1.4746 C   0  0  0  0  0  0  0  0  0  0  0  0
   -3.7628   -2.0610   -0.5748 C   0  0  0  0  0  0  0  0  0  0  0  0
   -4.2190   -1.6679    0.6814 C   0  0  0  0  0  0  0  0  0  0  0  0
   -0.9022    2.9344   -1.5073 H   0  0  0  0  0  0  0  0  0  0  0  0
   -1.9113    1.0764   -2.4885 H   0  0  0  0  0  0  0  0  0  0  0  0
   -1.8565    3.4337    0.7854 H   0  0  0  0  0  0  0  0  0  0  0  0
   -3.0881    2.9134   -0.3594 H   0  0  0  0  0  0  0  0  0  0  0  0
    0.6285    3.2729    1.2618 H   0  0  0  0  0  0  0  0  0  0  0  0
    2.7953    2.2571    1.8930 H   0  0  0  0  0  0  0  0  0  0  0  0
   -2.5285   -1.5676   -2.2604 H   0  0  0  0  0  0  0  0  0  0  0  0
    1.7258   -1.7221   -1.8753 H   0  0  0  0  0  0  0  0  0  0  0  0
    3.8683   -2.6350   -1.2052 H   0  0  0  0  0  0  0  0  0  0  0  0
   -4.1660   -0.1452    2.2022 H   0  0  0  0  0  0  0  0  0  0  0  0
    5.5910    0.0441   -1.0878 H   0  0  0  0  0  0  0  0  0  0  0  0
    6.3718   -0.2352    0.4587 H   0  0  0  0  0  0  0  0  0  0  0  0
    6.2381   -1.5669   -0.7096 H   0  0  0  0  0  0  0  0  0  0  0  0
    5.2150   -1.6278    2.2542 H   0  0  0  0  0  0  0  0  0  0  0  0
    3.6290   -2.3179    1.9572 H   0  0  0  0  0  0  0  0  0  0  0  0
    5.0498   -2.9975    1.1346 H   0  0  0  0  0  0  0  0  0  0  0  0
   -4.0762   -3.0068   -1.0087 H   0  0  0  0  0  0  0  0  0  0  0  0
   -5.2450   -3.2719    0.8569 H   0  0  0  0  0  0  0  0  0  0  0  0
  1  6  1  0  0  0  0
  1  9  1  0  0  0  0
  2  8  1  0  0  0  0
  2 12  1  0  0  0  0
  3 14  1  0  0  0  0
  3 15  1  0  0  0  0
  4 24  1  0  0  0  0
  4 42  1  0  0  0  0
  5  6  1  0  0  0  0
  5  7  1  0  0  0  0
  5  8  1  0  0  0  0
  5 25  1  0  0  0  0
  6 10  1  0  0  0  0
  6 26  1  0  0  0  0
  7  9  2  0  0  0  0
  7 13  1  0  0  0  0
  8 27  1  0  0  0  0
  8 28  1  0  0  0  0
  9 11  1  0  0  0  0
 10 12  2  0  0  0  0
 10 17  1  0  0  0  0
 11 14  2  0  0  0  0
 11 18  1  0  0  0  0
 12 20  1  0  0  0  0
 13 16  2  0  0  0  0
 13 29  1  0  0  0  0
 14 16  1  0  0  0  0
 15 19  1  0  0  0  0
 15 21  1  0  0  0  0
 15 22  1  0  0  0  0
 16 30  1  0  0  0  0
 17 23  2  0  0  0  0
 17 31  1  0  0  0  0
 18 19  2  0  0  0  0
 18 32  1  0  0  0  0
 19 33  1  0  0  0  0
 20 24  2  0  0  0  0
 20 34  1  0  0  0  0
 21 35  1  0  0  0  0
 21 36  1  0  0  0  0
 21 37  1  0  0  0  0
 22 38  1  0  0  0  0
 22 39  1  0  0  0  0
 22 40  1  0  0  0  0
 23 24  1  0  0  0  0
 23 41  1  0  0  0  0
M  END
> <PUBCHEM_COMPOUND_CID>
91572

> <PUBCHEM_CONFORMER_RMSD>
0.6

> <PUBCHEM_CONFORMER_DIVERSEORDER>
1
2

> <PUBCHEM_MMFF94_PARTIAL_CHARGES>
30
1 -0.36
10 -0.14
11 0.03
12 0.08
13 -0.15
14 0.08
15 0.42
16 -0.15
17 -0.15
18 -0.18
19 -0.29
2 -0.36
20 -0.15
23 -0.15
24 0.08
29 0.15
3 -0.36
30 0.15
31 0.15
32 0.15
33 0.15
34 0.15
4 -0.53
41 0.15
42 0.45
5 0.14
6 0.42
7 -0.14
8 0.28
9 0.08

> <PUBCHEM_EFFECTIVE_ROTOR_COUNT>
1

> <PUBCHEM_PHARMACOPHORE_FEATURES>
10
1 1 acceptor
1 2 acceptor
1 3 acceptor
1 4 donor
3 15 21 22 hydrophobe
5 1 5 6 7 9 rings
6 10 12 17 20 23 24 rings
6 2 5 6 8 10 12 rings
6 3 11 14 15 18 19 rings
6 7 9 11 13 14 16 rings

> <PUBCHEM_HEAVY_ATOM_COUNT>
24

> <PUBCHEM_ATOM_DEF_STEREO_COUNT>
2

> <PUBCHEM_ATOM_UDEF_STEREO_COUNT>
0

> <PUBCHEM_BOND_DEF_STEREO_COUNT>
0

> <PUBCHEM_BOND_UDEF_STEREO_COUNT>
0

> <PUBCHEM_ISOTOPIC_ATOM_COUNT>
0

> <PUBCHEM_COMPONENT_COUNT>
1

> <PUBCHEM_CACTVS_TAUTO_COUNT>
3

> <PUBCHEM_CONFORMER_ID>
000165B400000001

> <PUBCHEM_MMFF94_ENERGY>
81.9689

> <PUBCHEM_FEATURE_SELFOVERLAP>
51.168

> <PUBCHEM_SHAPE_FINGERPRINT>
10498660 4 8574445196759867195
10928967 22 18410578392189758966
11370993 144 17169259536800377438
11552529 35 17603592932157087943
11578080 2 17988934344443925669
11640471 11 6266616426306430813
11796584 16 17773610505834445386
12363563 72 18130785625239948483
12422481 6 17972004120971847091
12553582 1 18261385611939331799
12633257 1 17530959147118960803
12714826 92 18341611585155178932
12824470 246 17988369259854002546
12892183 10 17968374550745694649
13103583 49 18261379053745875235
13140716 1 18187372068494470544
13224815 77 18271245027484971038
13544653 18 18341056216013914885
13583140 156 17822581593661661280
14142880 1 6338951149225557465
14223421 5 18260271828072089485
14251764 30 18041547131648344086
14341114 176 18114177501922953202
14341114 328 16733818680200964323
14787075 74 18412542090281566040
14790565 3 17471861294469100368
14848178 5 17774454857639402882
14848178 96 9079123266891144474
14955137 171 17676199187567560240
14957384 54 5978100224392169322
15163728 17 7925625661367492776
15209289 33 18413105069530008610
15238133 3 15574979646583207707
15475509 84 17821997723255306369
17780758 139 18188499098035247410
1813 80 18060413599475318229
18186145 218 12535051066734671108
19862831 5 13901906721768609940
200 152 15267337453078497092
20028762 73 17823144427609684679
20681677 274 18335989662037993873
20775530 9 17985827025820720347
21033648 29 16226620709258805586
22393880 68 11959722764147476816
22950370 63 18335134315517607574
23559900 14 18271817808286626389
2838139 119 7853573478714492698
5104073 3 18261403303579355226
5486654 36 18410008866297704465
633830 44 14116660133582548382
7097593 13 17968094158153411757
7970288 3 18130219355367349371

> <PUBCHEM_SHAPE_MULTIPOLES>
470.43
10.15
2.78
1.47
4.74
0.4
-0.02
-8.29
3.24
-1.44
0.59
-0.39
-0.27
0.53

> <PUBCHEM_SHAPE_SELFOVERLAP>
1068.436

> <PUBCHEM_SHAPE_VOLUME>
245.4

> <PUBCHEM_COORDINATE_TYPE>
2
5
10

$$$$

