64
  -OEChem-07051212513D

 16 16  0     1  0  0  0  0  0999 V2000
   -3.0253   -0.8729    0.2927 Cl  0  0  0  0  0  0  0  0  0  0  0  0
    3.0300    0.8754    0.2841 Cl  0  0  0  0  0  0  0  0  0  0  0  0
   -1.6401    1.6232   -0.9613 O   0  0  0  0  0  0  0  0  0  0  0  0
    1.6229   -1.6420   -0.9571 O   0  0  0  0  0  0  0  0  0  0  0  0
   -1.0635    1.0510    0.2115 C   0  0  1  0  0  0  0  0  0  0  0  0
    1.0676   -1.0457    0.2136 C   0  0  1  0  0  0  0  0  0  0  0  0
   -1.3556   -0.4240    0.2292 C   0  0  0  0  0  0  0  0  0  0  0  0
    1.3597    0.4294    0.2275 C   0  0  0  0  0  0  0  0  0  0  0  0
    0.4067    1.3735    0.2281 C   0  0  0  0  0  0  0  0  0  0  0  0
   -0.4025   -1.3681    0.2317 C   0  0  0  0  0  0  0  0  0  0  0  0
   -1.5251    1.5301    1.0834 H   0  0  0  0  0  0  0  0  0  0  0  0
    1.5378   -1.5128    1.0875 H   0  0  0  0  0  0  0  0  0  0  0  0
    0.6780    2.4263    0.2489 H   0  0  0  0  0  0  0  0  0  0  0  0
   -0.6753   -2.4204    0.2593 H   0  0  0  0  0  0  0  0  0  0  0  0
   -2.5989    1.4627   -0.9277 H   0  0  0  0  0  0  0  0  0  0  0  0
    1.5190   -2.6059   -0.8778 H   0  0  0  0  0  0  0  0  0  0  0  0
  1  7  1  0  0  0  0
  2  8  1  0  0  0  0
  3  5  1  0  0  0  0
  3 15  1  0  0  0  0
  4  6  1  0  0  0  0
  4 16  1  0  0  0  0
  5  7  1  0  0  0  0
  5  9  1  0  0  0  0
  5 11  1  0  0  0  0
  6  8  1  0  0  0  0
  6 10  1  0  0  0  0
  6 12  1  0  0  0  0
  7 10  2  0  0  0  0
  8  9  2  0  0  0  0
  9 13  1  0  0  0  0
 10 14  1  0  0  0  0
M  END
> <PUBCHEM_COMPOUND_CID>
64

> <PUBCHEM_CONFORMER_RMSD>
0.4

> <PUBCHEM_CONFORMER_DIVERSEORDER>
2
1
3

> <PUBCHEM_MMFF94_PARTIAL_CHARGES>
12
1 -0.14
10 -0.29
13 0.15
14 0.15
15 0.4
16 0.4
2 -0.14
3 -0.68
4 -0.68
5 0.56
6 0.56
9 -0.29

> <PUBCHEM_EFFECTIVE_ROTOR_COUNT>
0.4

> <PUBCHEM_PHARMACOPHORE_FEATURES>
5
1 3 acceptor
1 3 donor
1 4 acceptor
1 4 donor
6 5 6 7 8 9 10 rings

> <PUBCHEM_HEAVY_ATOM_COUNT>
10

> <PUBCHEM_ATOM_DEF_STEREO_COUNT>
0

> <PUBCHEM_ATOM_UDEF_STEREO_COUNT>
2

> <PUBCHEM_BOND_DEF_STEREO_COUNT>
0

> <PUBCHEM_BOND_UDEF_STEREO_COUNT>
0

> <PUBCHEM_ISOTOPIC_ATOM_COUNT>
0

> <PUBCHEM_COMPONENT_COUNT>
1

> <PUBCHEM_CACTVS_TAUTO_COUNT>
1

> <PUBCHEM_CONFORMER_ID>
0000004000000002

> <PUBCHEM_MMFF94_ENERGY>
4.0415

> <PUBCHEM_FEATURE_SELFOVERLAP>
25.371

> <PUBCHEM_SHAPE_FINGERPRINT>
12423570 1 14585054607812702377
161256 15 18337660992658208887
16945 1 18338798896882385010
18185500 45 15381621357178462106
20201158 50 18410857625050362779
20588541 1 18338229345617217691
20711978 78 17676201411532165399
21040471 1 17694506240167627297
23235685 24 18335705975058212744
23402655 69 18336846259791783349
23552423 10 18271518818432951106
241688 4 18267574895893507488
2748010 2 18338797934809710663
29004967 10 18339073796496384739
5084963 1 18411419475476267296

> <PUBCHEM_SHAPE_MULTIPOLES>
197.8
3.76
1.81
0.79
0.01
0.01
0.09
-0.01
-0.3
0
0.35
0
0
0.49

> <PUBCHEM_SHAPE_SELFOVERLAP>
384.457

> <PUBCHEM_SHAPE_VOLUME>
121.1

> <PUBCHEM_COORDINATE_TYPE>
2
5
10

$$$$

