10555
  -OEChem-06261204413D

 12 11  0     0  0  0  0  0  0999 V2000
   -2.2364    0.0007    0.0000 Cl  0  0  0  0  0  0  0  0  0  0  0  0
    0.4893    0.0197    0.0000 C   0  0  0  0  0  0  0  0  0  0  0  0
    1.7968    0.7640    0.0000 C   0  0  0  0  0  0  0  0  0  0  0  0
    0.6202   -1.4777    0.0000 C   0  0  0  0  0  0  0  0  0  0  0  0
   -0.6699    0.6933    0.0001 C   0  0  0  0  0  0  0  0  0  0  0  0
    2.3811    0.5044   -0.8888 H   0  0  0  0  0  0  0  0  0  0  0  0
    2.3811    0.5045    0.8889 H   0  0  0  0  0  0  0  0  0  0  0  0
    1.6564    1.8503    0.0000 H   0  0  0  0  0  0  0  0  0  0  0  0
    1.1706   -1.8067    0.8878 H   0  0  0  0  0  0  0  0  0  0  0  0
   -0.3410   -1.9982    0.0000 H   0  0  0  0  0  0  0  0  0  0  0  0
    1.1705   -1.8067   -0.8878 H   0  0  0  0  0  0  0  0  0  0  0  0
   -0.7251    1.7749    0.0001 H   0  0  0  0  0  0  0  0  0  0  0  0
  1  5  1  0  0  0  0
  2  3  1  0  0  0  0
  2  4  1  0  0  0  0
  2  5  2  0  0  0  0
  3  6  1  0  0  0  0
  3  7  1  0  0  0  0
  3  8  1  0  0  0  0
  4  9  1  0  0  0  0
  4 10  1  0  0  0  0
  4 11  1  0  0  0  0
  5 12  1  0  0  0  0
M  END
> <PUBCHEM_COMPOUND_CID>
10555

> <PUBCHEM_CONFORMER_RMSD>
0.4

> <PUBCHEM_CONFORMER_DIVERSEORDER>
1

> <PUBCHEM_MMFF94_PARTIAL_CHARGES>
6
1 -0.14
12 0.15
2 -0.28
3 0.14
4 0.14
5 -0.01

> <PUBCHEM_EFFECTIVE_ROTOR_COUNT>
0

> <PUBCHEM_PHARMACOPHORE_FEATURES>
1
3 2 3 4 hydrophobe

> <PUBCHEM_HEAVY_ATOM_COUNT>
5

> <PUBCHEM_ATOM_DEF_STEREO_COUNT>
0

> <PUBCHEM_ATOM_UDEF_STEREO_COUNT>
0

> <PUBCHEM_BOND_DEF_STEREO_COUNT>
0

> <PUBCHEM_BOND_UDEF_STEREO_COUNT>
0

> <PUBCHEM_ISOTOPIC_ATOM_COUNT>
0

> <PUBCHEM_COMPONENT_COUNT>
1

> <PUBCHEM_CACTVS_TAUTO_COUNT>
1

> <PUBCHEM_CONFORMER_ID>
0000293B00000001

> <PUBCHEM_MMFF94_ENERGY>
3.0383

> <PUBCHEM_FEATURE_SELFOVERLAP>
5.074

> <PUBCHEM_SHAPE_FINGERPRINT>
139733 1 9293558807668739523
16714656 1 18268706113112378100
20096714 4 18408886200585728784
21015797 1 9654992469042989640
21040471 1 18338798892740456868
24536 1 18194978541395449761
29004967 10 18272644658405307121
5460574 1 9223239541677881729
5943 1 4818490313175162374

> <PUBCHEM_SHAPE_MULTIPOLES>
104.77
2.54
1.26
0.62
1.07
0.48
0
-0.44
0
-0.42
0
0.02
0
0

> <PUBCHEM_SHAPE_SELFOVERLAP>
175.413

> <PUBCHEM_SHAPE_VOLUME>
71.5

> <PUBCHEM_COORDINATE_TYPE>
2
5
10

$$$$

