5281424
  -OEChem-07051212573D

 39 40  0     1  0  0  0  0  0999 V2000
   -2.5963    1.4342   -0.2808 O   0  0  0  0  0  0  0  0  0  0  0  0
   -0.5409   -2.6480    1.0236 O   0  0  0  0  0  0  0  0  0  0  0  0
   -4.6912    0.5088   -0.4229 O   0  0  0  0  0  0  0  0  0  0  0  0
    3.5226   -2.2688   -1.4087 O   0  0  0  0  0  0  0  0  0  0  0  0
   -1.3471   -0.4137    0.5330 C   0  0  2  0  0  0  0  0  0  0  0  0
   -1.2359    0.9349   -0.2116 C   0  0  2  0  0  0  0  0  0  0  0  0
   -0.2336   -1.4683    0.2712 C   0  0  1  0  0  0  0  0  0  0  0  0
   -0.4154    2.0695    0.4478 C   0  0  0  0  0  0  0  0  0  0  0  0
   -2.7243   -0.8105    0.0658 C   0  0  0  0  0  0  0  0  0  0  0  0
    1.0360    2.1076    0.0214 C   0  0  0  0  0  0  0  0  0  0  0  0
    1.1129   -1.0259    0.7618 C   0  0  0  0  0  0  0  0  0  0  0  0
   -3.4905    0.4123   -0.2461 C   0  0  0  0  0  0  0  0  0  0  0  0
    2.2742   -0.8941    0.0872 C   0  0  0  0  0  0  0  0  0  0  0  0
    3.4409   -0.1876    0.7723 C   0  0  0  0  0  0  0  0  0  0  0  0
    3.3869    1.3497    0.5902 C   0  0  0  0  0  0  0  0  0  0  0  0
    2.0034    1.8484    0.9237 C   0  0  0  0  0  0  0  0  0  0  0  0
   -3.2918   -2.0026   -0.1426 C   0  0  0  0  0  0  0  0  0  0  0  0
    1.2861    2.3427   -1.4437 C   0  0  0  0  0  0  0  0  0  0  0  0
    2.5040   -1.2885   -1.3415 C   0  0  0  0  0  0  0  0  0  0  0  0
   -1.4304   -0.2346    1.6148 H   0  0  0  0  0  0  0  0  0  0  0  0
   -0.9218    0.7774   -1.2508 H   0  0  0  0  0  0  0  0  0  0  0  0
   -0.2301   -1.7419   -0.7876 H   0  0  0  0  0  0  0  0  0  0  0  0
   -0.5130    1.9954    1.5385 H   0  0  0  0  0  0  0  0  0  0  0  0
   -0.8597    3.0415    0.1927 H   0  0  0  0  0  0  0  0  0  0  0  0
    1.1062   -0.7144    1.8075 H   0  0  0  0  0  0  0  0  0  0  0  0
    3.4318   -0.4197    1.8463 H   0  0  0  0  0  0  0  0  0  0  0  0
    4.3987   -0.5688    0.3993 H   0  0  0  0  0  0  0  0  0  0  0  0
    3.6858    1.6015   -0.4313 H   0  0  0  0  0  0  0  0  0  0  0  0
    4.1152    1.8273    1.2550 H   0  0  0  0  0  0  0  0  0  0  0  0
    1.7251    1.7371    1.9710 H   0  0  0  0  0  0  0  0  0  0  0  0
   -2.7685   -2.9318    0.0437 H   0  0  0  0  0  0  0  0  0  0  0  0
   -4.3085   -2.0924   -0.5123 H   0  0  0  0  0  0  0  0  0  0  0  0
    0.0965   -3.3361    0.7653 H   0  0  0  0  0  0  0  0  0  0  0  0
    0.6176    3.1256   -1.8185 H   0  0  0  0  0  0  0  0  0  0  0  0
    1.1102    1.4338   -2.0253 H   0  0  0  0  0  0  0  0  0  0  0  0
    2.3035    2.6895   -1.6444 H   0  0  0  0  0  0  0  0  0  0  0  0
    2.8282   -0.4219   -1.9260 H   0  0  0  0  0  0  0  0  0  0  0  0
    1.6153   -1.6925   -1.8309 H   0  0  0  0  0  0  0  0  0  0  0  0
    3.2147   -3.0505   -0.9185 H   0  0  0  0  0  0  0  0  0  0  0  0
  1  6  1  0  0  0  0
  1 12  1  0  0  0  0
  2  7  1  0  0  0  0
  2 33  1  0  0  0  0
  3 12  2  0  0  0  0
  4 19  1  0  0  0  0
  4 39  1  0  0  0  0
  5  6  1  0  0  0  0
  5  7  1  0  0  0  0
  5  9  1  0  0  0  0
  5 20  1  0  0  0  0
  6  8  1  0  0  0  0
  6 21  1  0  0  0  0
  7 11  1  0  0  0  0
  7 22  1  0  0  0  0
  8 10  1  0  0  0  0
  8 23  1  0  0  0  0
  8 24  1  0  0  0  0
  9 12  1  0  0  0  0
  9 17  2  0  0  0  0
 10 16  2  0  0  0  0
 10 18  1  0  0  0  0
 11 13  2  0  0  0  0
 11 25  1  0  0  0  0
 13 14  1  0  0  0  0
 13 19  1  0  0  0  0
 14 15  1  0  0  0  0
 14 26  1  0  0  0  0
 14 27  1  0  0  0  0
 15 16  1  0  0  0  0
 15 28  1  0  0  0  0
 15 29  1  0  0  0  0
 16 30  1  0  0  0  0
 17 31  1  0  0  0  0
 17 32  1  0  0  0  0
 18 34  1  0  0  0  0
 18 35  1  0  0  0  0
 18 36  1  0  0  0  0
 19 37  1  0  0  0  0
 19 38  1  0  0  0  0
M  END
> <PUBCHEM_COMPOUND_CID>
5281424

> <PUBCHEM_CONFORMER_RMSD>
0.6

> <PUBCHEM_CONFORMER_DIVERSEORDER>
2
6
5
4
3
1

> <PUBCHEM_MMFF94_PARTIAL_CHARGES>
25
1 -0.43
10 -0.28
11 -0.29
12 0.71
13 -0.28
14 0.14
15 0.14
16 -0.29
17 -0.3
18 0.14
19 0.42
2 -0.68
25 0.15
3 -0.57
30 0.15
31 0.15
32 0.15
33 0.4
39 0.4
4 -0.68
5 0.14
6 0.28
7 0.42
8 0.14
9 -0.12

> <PUBCHEM_EFFECTIVE_ROTOR_COUNT>
2

> <PUBCHEM_PHARMACOPHORE_FEATURES>
6
1 2 acceptor
1 2 donor
1 3 acceptor
1 4 acceptor
1 4 donor
5 1 5 6 9 12 rings

> <PUBCHEM_HEAVY_ATOM_COUNT>
19

> <PUBCHEM_ATOM_DEF_STEREO_COUNT>
3

> <PUBCHEM_ATOM_UDEF_STEREO_COUNT>
0

> <PUBCHEM_BOND_DEF_STEREO_COUNT>
2

> <PUBCHEM_BOND_UDEF_STEREO_COUNT>
0

> <PUBCHEM_ISOTOPIC_ATOM_COUNT>
0

> <PUBCHEM_COMPONENT_COUNT>
1

> <PUBCHEM_CACTVS_TAUTO_COUNT>
1

> <PUBCHEM_CONFORMER_ID>
0050969000000002

> <PUBCHEM_MMFF94_ENERGY>
48.2374

> <PUBCHEM_FEATURE_SELFOVERLAP>
30.446

> <PUBCHEM_SHAPE_FINGERPRINT>
10062212 137 18266473026713833651
10616163 171 17908984301069023689
10922523 26 18411142398577813501
10967382 1 18340494447129014195
11132069 177 18410863156899473523
11680986 33 18409724041251770850
116883 192 18262798587560634040
12011746 2 18409167706117827636
12596599 1 18187074075009995539
13140716 1 18413107239031500505
14181834 199 18059010562756770532
14251745 187 18409175410777427960
14790565 3 16387880840288027144
15196674 1 18340212881905450704
15536298 74 18334579035843189337
15635459 17 18334858341808492694
15848702 151 17967812811846352543
16945 1 18192715776334994833
17357779 13 18336553831851921740
18186145 218 18343304781817589295
19591789 44 16604333980011654825
20511035 2 17979080375464727944
20600515 1 18201727232403349456
20645477 70 18335147479344593109
20691752 17 17489597722989427993
20905425 154 17764299548922128878
21249577 43 18411986849103604577
21501502 16 18197779903860193009
22721475 48 18341612568697401680
22802520 49 18043804501633529022
2334 1 18268991990720587601
23402539 116 18338530693893117922
23419403 2 17536632777763738434
23463225 33 18199476480071574289
23557571 272 18262798458474316499
23559900 14 18408604786218653686
2748010 2 18412827979767349257
3060560 45 18338810012511389951
42630746 31 18410862040735607441
495365 180 17605575274265142784
5262128 65 18114168787497613134
5939293 188 18339371768558939552
7364860 26 18259984851337081644
81228 2 18195516228419873056
84936 31 17168145650375835534
9709674 26 18338234843244077619

> <PUBCHEM_SHAPE_MULTIPOLES>
367.53
6.56
2.9
1.12
3.48
0.12
-0.29
0.82
-0.72
-0.97
-0.34
-0.88
0.12
0.87

> <PUBCHEM_SHAPE_SELFOVERLAP>
758.387

> <PUBCHEM_SHAPE_VOLUME>
209.9

> <PUBCHEM_COORDINATE_TYPE>
2
5
10

$$$$

