151284
  -OEChem-07051212483D

 29 28  0     1  0  0  0  0  0999 V2000
    0.5632   -1.8311   -0.8473 O   0  0  0  0  0  0  0  0  0  0  0  0
   -3.0869    1.8870    0.8547 O   0  0  0  0  0  0  0  0  0  0  0  0
   -4.1230    1.2620   -1.0629 O   0  0  0  0  0  0  0  0  0  0  0  0
    3.2494    1.9535    0.0883 O   0  0  0  0  0  0  0  0  0  0  0  0
    5.0281    0.7200   -0.5665 O   0  0  0  0  0  0  0  0  0  0  0  0
    1.6144   -0.0949    0.2823 N   0  0  0  0  0  0  0  0  0  0  0  0
   -4.4460   -1.2678   -0.0171 N   0  0  0  0  0  0  0  0  0  0  0  0
   -2.0119   -1.0155   -0.0973 C   0  0  0  0  0  0  0  0  0  0  0  0
   -0.7854   -0.2240    0.3615 C   0  0  0  0  0  0  0  0  0  0  0  0
   -3.3241   -0.4594    0.4666 C   0  0  1  0  0  0  0  0  0  0  0  0
    2.9716   -0.4473   -0.0655 C   0  0  2  0  0  0  0  0  0  0  0  0
    0.5150   -0.8258   -0.1436 C   0  0  0  0  0  0  0  0  0  0  0  0
    3.5530   -1.3966    0.9714 C   0  0  0  0  0  0  0  0  0  0  0  0
   -3.5726    0.9598   -0.0114 C   0  0  0  0  0  0  0  0  0  0  0  0
    3.8551    0.7800   -0.2132 C   0  0  0  0  0  0  0  0  0  0  0  0
   -2.0398   -1.0128   -1.1957 H   0  0  0  0  0  0  0  0  0  0  0  0
   -1.8990   -2.0641    0.2083 H   0  0  0  0  0  0  0  0  0  0  0  0
   -0.7471   -0.1942    1.4569 H   0  0  0  0  0  0  0  0  0  0  0  0
   -0.8318    0.8065   -0.0079 H   0  0  0  0  0  0  0  0  0  0  0  0
   -3.3293   -0.4775    1.5617 H   0  0  0  0  0  0  0  0  0  0  0  0
    2.9498   -0.9398   -1.0449 H   0  0  0  0  0  0  0  0  0  0  0  0
    1.4684    0.7154    0.8780 H   0  0  0  0  0  0  0  0  0  0  0  0
    3.5939   -0.9243    1.9597 H   0  0  0  0  0  0  0  0  0  0  0  0
    2.9460   -2.3038    1.0610 H   0  0  0  0  0  0  0  0  0  0  0  0
    4.5725   -1.6956    0.7055 H   0  0  0  0  0  0  0  0  0  0  0  0
   -4.3296   -2.2309    0.2967 H   0  0  0  0  0  0  0  0  0  0  0  0
   -4.4327   -1.3052   -1.0362 H   0  0  0  0  0  0  0  0  0  0  0  0
   -3.2382    2.8015    0.5338 H   0  0  0  0  0  0  0  0  0  0  0  0
    3.8565    2.7169   -0.0151 H   0  0  0  0  0  0  0  0  0  0  0  0
  1 12  2  0  0  0  0
  2 14  1  0  0  0  0
  2 28  1  0  0  0  0
  3 14  2  0  0  0  0
  4 15  1  0  0  0  0
  4 29  1  0  0  0  0
  5 15  2  0  0  0  0
  6 11  1  0  0  0  0
  6 12  1  0  0  0  0
  6 22  1  0  0  0  0
  7 10  1  0  0  0  0
  7 26  1  0  0  0  0
  7 27  1  0  0  0  0
  8  9  1  0  0  0  0
  8 10  1  0  0  0  0
  8 16  1  0  0  0  0
  8 17  1  0  0  0  0
  9 12  1  0  0  0  0
  9 18  1  0  0  0  0
  9 19  1  0  0  0  0
 10 14  1  0  0  0  0
 10 20  1  0  0  0  0
 11 13  1  0  0  0  0
 11 15  1  0  0  0  0
 11 21  1  0  0  0  0
 13 23  1  0  0  0  0
 13 24  1  0  0  0  0
 13 25  1  0  0  0  0
M  END
> <PUBCHEM_COMPOUND_CID>
151284

> <PUBCHEM_CONFORMER_RMSD>
0.8

> <PUBCHEM_CONFORMER_DIVERSEORDER>
1
68
85
86
49
35
46
73
29
31
22
87
53
64
5
41
18
83
36
84
48
50
59
76
20
3
6
26
75
81
7
62
45
24
42
72
51
55
2
13
4
34
9
61
57
77
43
80
17
67
37
52
69
79
60
8
44
74
33
21
63
15
16
38
70
25
23
32
71
82
19
39
12
10
66
27
88
54
47
78
58
11
65
56
14
28
40
30

> <PUBCHEM_MMFF94_PARTIAL_CHARGES>
18
1 -0.57
10 0.33
11 0.36
12 0.57
14 0.66
15 0.66
2 -0.65
22 0.37
26 0.36
27 0.36
28 0.5
29 0.5
3 -0.57
4 -0.65
5 -0.57
6 -0.73
7 -0.99
9 0.06

> <PUBCHEM_EFFECTIVE_ROTOR_COUNT>
7

> <PUBCHEM_PHARMACOPHORE_FEATURES>
10
1 1 acceptor
1 2 acceptor
1 3 acceptor
1 4 acceptor
1 5 acceptor
1 6 donor
1 7 cation
1 7 donor
3 2 3 14 anion
3 4 5 15 anion

> <PUBCHEM_HEAVY_ATOM_COUNT>
15

> <PUBCHEM_ATOM_DEF_STEREO_COUNT>
2

> <PUBCHEM_ATOM_UDEF_STEREO_COUNT>
0

> <PUBCHEM_BOND_DEF_STEREO_COUNT>
0

> <PUBCHEM_BOND_UDEF_STEREO_COUNT>
0

> <PUBCHEM_ISOTOPIC_ATOM_COUNT>
0

> <PUBCHEM_COMPONENT_COUNT>
1

> <PUBCHEM_CACTVS_TAUTO_COUNT>
2

> <PUBCHEM_CONFORMER_ID>
00024EF400000001

> <PUBCHEM_MMFF94_ENERGY>
16.7576

> <PUBCHEM_FEATURE_SELFOVERLAP>
50.863

> <PUBCHEM_SHAPE_FINGERPRINT>
10014705 185 18059579126590974789
12670546 56 17632305591742265307
13081056 2 18261670376813498288
13675066 3 16773791554177279875
13705890 14 6844199840253741250
14123255 352 18342740732162681805
14123255 52 18336266735100461378
14252887 29 13542469778348570416
14415576 193 18335416898116021110
15239154 128 18413106160583479428
17834072 32 18410291445445260013
17834072 33 18341898463116403466
18186145 218 18341608260871408514
18915474 69 7997961375817409466
200 152 8502657008724094406
20233049 118 18113617876786194904
20281407 28 10375867476506097767
20645477 56 18200026378405054781
20645477 70 18260541264746404902
21652331 79 18410291367935330209
23402539 116 18270967847787175983
23402655 69 18334573542970329956
23557571 272 17895183394969365583
23559900 14 18117842320287112774
26918003 58 9583248214486592294
4214541 1 18413671313786447939
4921388 177 14346084083726350909
5104073 3 18343865536731389377
633830 44 18342176704215050406
77779 3 18343301470128869666
81539 233 18261109707715045590

> <PUBCHEM_SHAPE_MULTIPOLES>
269.38
10.26
1.79
0.84
0.89
0.37
0.01
2.82
-0.42
-0.1
0.03
-0.07
-0.02
-0.38

> <PUBCHEM_SHAPE_SELFOVERLAP>
521.722

> <PUBCHEM_SHAPE_VOLUME>
161.8

> <PUBCHEM_COORDINATE_TYPE>
2
5
10

$$$$

