252378
  -OEChem-07051213063D

 48 52  0     1  0  0  0  0  0999 V2000
   -1.4282    1.7473   -1.7088 O   0  0  0  0  0  0  0  0  0  0  0  0
    5.1858   -1.2027    0.3181 O   0  0  0  0  0  0  0  0  0  0  0  0
   -5.0413   -0.6856    1.7616 O   0  0  0  0  0  0  0  0  0  0  0  0
    0.6717    0.7653   -0.1584 C   0  0  2  0  0  0  0  0  0  0  0  0
   -0.1852   -0.5351   -0.0143 C   0  0  1  0  0  0  0  0  0  0  0  0
    1.9929    0.5456    0.5721 C   0  0  1  0  0  0  0  0  0  0  0  0
    2.8100   -0.6054   -0.0576 C   0  0  2  0  0  0  0  0  0  0  0  0
   -1.6451   -0.3562   -0.5702 C   0  0  1  0  0  0  0  0  0  0  0  0
    0.5861   -1.7527   -0.5818 C   0  0  0  0  0  0  0  0  0  0  0  0
    1.9905   -1.9025    0.0454 C   0  0  0  0  0  0  0  0  0  0  0  0
   -0.1175    1.9962    0.3174 C   0  0  0  0  0  0  0  0  0  0  0  0
    2.9993    1.6850    0.6739 C   0  0  0  0  0  0  0  0  0  0  0  0
   -1.5301    1.9837   -0.2810 C   0  0  2  0  0  0  0  0  0  0  0  0
    4.0549   -0.5394    0.8491 C   0  0  2  0  0  0  0  0  0  0  0  0
   -2.2732    0.7817    0.1819 C   0  0  0  0  0  0  0  0  0  0  0  0
    4.3247    0.9720    1.0029 C   0  0  0  0  0  0  0  0  0  0  0  0
   -1.6695    0.3296   -1.9413 C   0  0  0  0  0  0  0  0  0  0  0  0
   -2.4509   -1.6612   -0.4725 C   0  0  0  0  0  0  0  0  0  0  0  0
    3.2170   -0.3841   -1.5382 C   0  0  0  0  0  0  0  0  0  0  0  0
   -3.9417   -1.4443   -0.2428 C   0  0  0  0  0  0  0  0  0  0  0  0
   -3.3800    0.7581    0.9274 C   0  0  0  0  0  0  0  0  0  0  0  0
   -4.1701   -0.4953    0.9172 C   0  0  0  0  0  0  0  0  0  0  0  0
    0.8916    0.9297   -1.2198 H   0  0  0  0  0  0  0  0  0  0  0  0
   -0.2936   -0.7286    1.0659 H   0  0  0  0  0  0  0  0  0  0  0  0
    1.7415    0.2714    1.6103 H   0  0  0  0  0  0  0  0  0  0  0  0
    0.6672   -1.6699   -1.6710 H   0  0  0  0  0  0  0  0  0  0  0  0
    0.0361   -2.6793   -0.3850 H   0  0  0  0  0  0  0  0  0  0  0  0
    1.8687   -2.1821    1.1000 H   0  0  0  0  0  0  0  0  0  0  0  0
    2.5203   -2.7342   -0.4341 H   0  0  0  0  0  0  0  0  0  0  0  0
    0.4083    2.8991   -0.0157 H   0  0  0  0  0  0  0  0  0  0  0  0
   -0.1686    2.0297    1.4126 H   0  0  0  0  0  0  0  0  0  0  0  0
    2.7276    2.4043    1.4530 H   0  0  0  0  0  0  0  0  0  0  0  0
    3.0834    2.2348   -0.2700 H   0  0  0  0  0  0  0  0  0  0  0  0
   -2.0552    2.9273   -0.1072 H   0  0  0  0  0  0  0  0  0  0  0  0
    3.8379   -0.9758    1.8323 H   0  0  0  0  0  0  0  0  0  0  0  0
    5.1268    1.3189    0.3416 H   0  0  0  0  0  0  0  0  0  0  0  0
    4.6406    1.1926    2.0288 H   0  0  0  0  0  0  0  0  0  0  0  0
   -0.9083   -0.0498   -2.6298 H   0  0  0  0  0  0  0  0  0  0  0  0
   -2.6448    0.2450   -2.4358 H   0  0  0  0  0  0  0  0  0  0  0  0
   -2.0856   -2.2512    0.3791 H   0  0  0  0  0  0  0  0  0  0  0  0
   -2.2971   -2.2748   -1.3679 H   0  0  0  0  0  0  0  0  0  0  0  0
    3.8114   -1.2298   -1.9035 H   0  0  0  0  0  0  0  0  0  0  0  0
    2.3567   -0.2947   -2.2064 H   0  0  0  0  0  0  0  0  0  0  0  0
    3.8234    0.5163   -1.6768 H   0  0  0  0  0  0  0  0  0  0  0  0
   -4.4195   -2.4030   -0.0133 H   0  0  0  0  0  0  0  0  0  0  0  0
   -4.4279   -1.0295   -1.1325 H   0  0  0  0  0  0  0  0  0  0  0  0
   -3.7900    1.6336    1.4137 H   0  0  0  0  0  0  0  0  0  0  0  0
    5.9315   -1.0364    0.9195 H   0  0  0  0  0  0  0  0  0  0  0  0
  1 13  1  0  0  0  0
  1 17  1  0  0  0  0
  2 14  1  0  0  0  0
  2 48  1  0  0  0  0
  3 22  2  0  0  0  0
  4  5  1  0  0  0  0
  4  6  1  0  0  0  0
  4 11  1  0  0  0  0
  4 23  1  0  0  0  0
  5  8  1  0  0  0  0
  5  9  1  0  0  0  0
  5 24  1  0  0  0  0
  6  7  1  0  0  0  0
  6 12  1  0  0  0  0
  6 25  1  0  0  0  0
  7 10  1  0  0  0  0
  7 14  1  0  0  0  0
  7 19  1  0  0  0  0
  8 15  1  0  0  0  0
  8 17  1  0  0  0  0
  8 18  1  0  0  0  0
  9 10  1  0  0  0  0
  9 26  1  0  0  0  0
  9 27  1  0  0  0  0
 10 28  1  0  0  0  0
 10 29  1  0  0  0  0
 11 13  1  0  0  0  0
 11 30  1  0  0  0  0
 11 31  1  0  0  0  0
 12 16  1  0  0  0  0
 12 32  1  0  0  0  0
 12 33  1  0  0  0  0
 13 15  1  0  0  0  0
 13 34  1  0  0  0  0
 14 16  1  0  0  0  0
 14 35  1  0  0  0  0
 15 21  2  0  0  0  0
 16 36  1  0  0  0  0
 16 37  1  0  0  0  0
 17 38  1  0  0  0  0
 17 39  1  0  0  0  0
 18 20  1  0  0  0  0
 18 40  1  0  0  0  0
 18 41  1  0  0  0  0
 19 42  1  0  0  0  0
 19 43  1  0  0  0  0
 19 44  1  0  0  0  0
 20 22  1  0  0  0  0
 20 45  1  0  0  0  0
 20 46  1  0  0  0  0
 21 22  1  0  0  0  0
 21 47  1  0  0  0  0
M  END
> <PUBCHEM_COMPOUND_CID>
252378

> <PUBCHEM_CONFORMER_RMSD>
0.6

> <PUBCHEM_CONFORMER_DIVERSEORDER>
1

> <PUBCHEM_MMFF94_PARTIAL_CHARGES>
13
1 -0.56
13 0.42
14 0.28
15 -0.28
17 0.28
2 -0.68
20 0.06
21 -0.14
22 0.49
3 -0.57
47 0.15
48 0.4
8 0.14

> <PUBCHEM_EFFECTIVE_ROTOR_COUNT>
2

> <PUBCHEM_PHARMACOPHORE_FEATURES>
8
1 1 acceptor
1 2 acceptor
1 2 donor
1 3 acceptor
5 6 7 12 14 16 rings
6 4 5 6 7 9 10 rings
6 8 15 18 20 21 22 rings
8 1 4 5 8 11 13 15 17 rings

> <PUBCHEM_HEAVY_ATOM_COUNT>
22

> <PUBCHEM_ATOM_DEF_STEREO_COUNT>
7

> <PUBCHEM_ATOM_UDEF_STEREO_COUNT>
0

> <PUBCHEM_BOND_DEF_STEREO_COUNT>
0

> <PUBCHEM_BOND_UDEF_STEREO_COUNT>
0

> <PUBCHEM_ISOTOPIC_ATOM_COUNT>
0

> <PUBCHEM_COMPONENT_COUNT>
1

> <PUBCHEM_CACTVS_TAUTO_COUNT>
2

> <PUBCHEM_CONFORMER_ID>
0003D9DA00000001

> <PUBCHEM_MMFF94_ENERGY>
86.0151

> <PUBCHEM_FEATURE_SELFOVERLAP>
40.692

> <PUBCHEM_SHAPE_FINGERPRINT>
10366900 7 18060134340981404522
11132069 177 18409167692895159543
11315181 36 13470406695527158350
11552529 35 17386294168896268247
11578080 2 17056970876964272478
11796584 16 16056603123508851723
12236239 1 13398637177603841255
12251169 10 18260824891406090011
12403259 226 18339372941385425112
12403259 415 18408893940712973192
12403814 3 18202005425824676997
12553582 1 18341605993292135343
12633257 1 18260544515672345707
12714826 92 17918280865561632189
128620 24 17203609272410883252
12892183 10 17894618254498253483
13140716 1 18266176123808667299
13214271 11 18334299798776535573
13224815 77 18411705382874928100
13544653 18 18272088262761772963
13581323 91 18060706104328672280
13583140 156 17344938328329585376
13675066 3 17240484727732397736
14178342 30 18268712890729293104
14223421 5 18337953518490651271
14289901 80 17131832122599738912
14341114 328 17604139346749709353
14790565 3 17834108650314160584
15163728 17 14130153263027350163
15196674 1 18335425655691396768
15209289 33 18412823598969597610
15209294 21 17676203550789888843
15238133 3 16226037903613241018
15309172 13 18334298673226208519
16945 1 18263651821357699588
17349148 13 15769775771027215946
17844478 74 18343022207128849261
17980427 23 17168137907119831265
1813 80 17846207835458656901
18186145 218 18259710008253826902
18222031 100 17988639645483760591
19141452 34 18333732386579128847
19862831 5 10015868690775165864
200 152 18041861531606397175
20028762 73 18116147758553401471
20261772 1 18335419045457380794
21069387 34 13326857750795398418
21267235 1 18408316679205951954
21304303 282 15908877242189340837
21637258 2 16558467479561462347
22182313 1 18265053702851357692
22854114 59 18335137583449701795
23184049 59 18334572408808806899
23402539 116 17060340750990148534
23557571 272 17702954754271382093
23559900 14 17702387449374330250
2748010 2 18337120084455800028
2838139 119 13913433001558939707
296302 2 7060373730278988490
312423 11 17489579087116008948
350125 39 18410572890541685960
465052 167 17988065704724931371
5104073 3 18336838584289560936
633830 44 15719683052643695088

> <PUBCHEM_SHAPE_MULTIPOLES>
435.14
8.8
2.05
1.35
1.54
0.19
-0.37
-1.91
3.68
0.1
-0.12
-0.68
0.15
0.49

> <PUBCHEM_SHAPE_SELFOVERLAP>
961.066

> <PUBCHEM_SHAPE_VOLUME>
231.3

> <PUBCHEM_COORDINATE_TYPE>
2
5
10

$$$$

