28619
  -OEChem-07051212563D

 28 29  0     0  0  0  0  0  0999 V2000
   -1.3038    1.0998    0.0001 O   0  0  0  0  0  0  0  0  0  0  0  0
    3.4286    1.0984    0.0000 O   0  0  0  0  0  0  0  0  0  0  0  0
   -2.5805    0.4252    0.0001 C   0  0  0  0  0  0  0  0  0  0  0  0
   -2.5314   -1.0847    0.0002 C   0  0  0  0  0  0  0  0  0  0  0  0
   -0.1569    0.3574   -0.0002 C   0  0  0  0  0  0  0  0  0  0  0  0
   -3.3214    0.9055   -1.2534 C   0  0  0  0  0  0  0  0  0  0  0  0
   -3.3213    0.9061    1.2533 C   0  0  0  0  0  0  0  0  0  0  0  0
   -0.1391   -1.0389   -0.0001 C   0  0  0  0  0  0  0  0  0  0  0  0
   -1.3903   -1.7769    0.0003 C   0  0  0  0  0  0  0  0  0  0  0  0
    1.0426    1.0743   -0.0003 C   0  0  0  0  0  0  0  0  0  0  0  0
    1.0879   -1.7130    0.0000 C   0  0  0  0  0  0  0  0  0  0  0  0
    2.2618    0.3982   -0.0003 C   0  0  0  0  0  0  0  0  0  0  0  0
    2.2845   -0.9947   -0.0001 C   0  0  0  0  0  0  0  0  0  0  0  0
    4.6393    0.3433    0.0005 C   0  0  0  0  0  0  0  0  0  0  0  0
   -3.4733   -1.6279    0.0004 H   0  0  0  0  0  0  0  0  0  0  0  0
   -3.3832    2.0000   -1.2753 H   0  0  0  0  0  0  0  0  0  0  0  0
   -2.7835    0.6096   -2.1622 H   0  0  0  0  0  0  0  0  0  0  0  0
   -4.3387    0.5025   -1.3095 H   0  0  0  0  0  0  0  0  0  0  0  0
   -2.7834    0.6105    2.1622 H   0  0  0  0  0  0  0  0  0  0  0  0
   -3.3831    2.0006    1.2747 H   0  0  0  0  0  0  0  0  0  0  0  0
   -4.3386    0.5032    1.3096 H   0  0  0  0  0  0  0  0  0  0  0  0
   -1.3832   -2.8602    0.0005 H   0  0  0  0  0  0  0  0  0  0  0  0
    1.0276    2.1617   -0.0002 H   0  0  0  0  0  0  0  0  0  0  0  0
    1.1243   -2.8000    0.0002 H   0  0  0  0  0  0  0  0  0  0  0  0
    3.1951   -1.5841    0.0000 H   0  0  0  0  0  0  0  0  0  0  0  0
    4.7382   -0.2590   -0.9089 H   0  0  0  0  0  0  0  0  0  0  0  0
    4.7376   -0.2588    0.9101 H   0  0  0  0  0  0  0  0  0  0  0  0
    5.4672    1.0600    0.0007 H   0  0  0  0  0  0  0  0  0  0  0  0
  1  3  1  0  0  0  0
  1  5  1  0  0  0  0
  2 12  1  0  0  0  0
  2 14  1  0  0  0  0
  3  4  1  0  0  0  0
  3  6  1  0  0  0  0
  3  7  1  0  0  0  0
  4  9  2  0  0  0  0
  4 15  1  0  0  0  0
  5  8  2  0  0  0  0
  5 10  1  0  0  0  0
  6 16  1  0  0  0  0
  6 17  1  0  0  0  0
  6 18  1  0  0  0  0
  7 19  1  0  0  0  0
  7 20  1  0  0  0  0
  7 21  1  0  0  0  0
  8  9  1  0  0  0  0
  8 11  1  0  0  0  0
  9 22  1  0  0  0  0
 10 12  2  0  0  0  0
 10 23  1  0  0  0  0
 11 13  2  0  0  0  0
 11 24  1  0  0  0  0
 12 13  1  0  0  0  0
 13 25  1  0  0  0  0
 14 26  1  0  0  0  0
 14 27  1  0  0  0  0
 14 28  1  0  0  0  0
M  END
> <PUBCHEM_COMPOUND_CID>
28619

> <PUBCHEM_CONFORMER_RMSD>
0.6

> <PUBCHEM_CONFORMER_DIVERSEORDER>
1

> <PUBCHEM_MMFF94_PARTIAL_CHARGES>
17
1 -0.36
10 -0.15
11 -0.15
12 0.08
13 -0.15
14 0.28
15 0.15
2 -0.36
22 0.15
23 0.15
24 0.15
25 0.15
3 0.42
4 -0.29
5 0.08
8 0.03
9 -0.18

> <PUBCHEM_EFFECTIVE_ROTOR_COUNT>
1.4

> <PUBCHEM_PHARMACOPHORE_FEATURES>
5
1 1 acceptor
1 2 acceptor
3 3 6 7 hydrophobe
6 1 3 4 5 8 9 rings
6 5 8 10 11 12 13 rings

> <PUBCHEM_HEAVY_ATOM_COUNT>
14

> <PUBCHEM_ATOM_DEF_STEREO_COUNT>
0

> <PUBCHEM_ATOM_UDEF_STEREO_COUNT>
0

> <PUBCHEM_BOND_DEF_STEREO_COUNT>
0

> <PUBCHEM_BOND_UDEF_STEREO_COUNT>
0

> <PUBCHEM_ISOTOPIC_ATOM_COUNT>
0

> <PUBCHEM_COMPONENT_COUNT>
1

> <PUBCHEM_CACTVS_TAUTO_COUNT>
1

> <PUBCHEM_CONFORMER_ID>
00006FCB00000001

> <PUBCHEM_MMFF94_ENERGY>
50.5326

> <PUBCHEM_FEATURE_SELFOVERLAP>
25.401

> <PUBCHEM_SHAPE_FINGERPRINT>
10608611 8 18410859828368695996
11132069 177 18412270519177861976
11543360 7 15647343991754689184
12382932 28 18410009944307991915
12491281 212 18261384568251592635
12932764 1 17988639743867153099
13024252 1 15769781226052347907
13214271 11 17131833166097495893
13380535 21 18410000044461492162
13380535 76 18410014338302596350
13897977 150 18409731759255156757
14144814 61 18409448106735288929
14325111 11 18410575072020887072
14897335 6 18410299120293140798
15219456 202 18201156658508528783
15309172 13 18412258445618494227
15536298 74 18261391191592588982
15775835 57 18410289220272009345
16945 1 18266741470485597895
17844478 74 17917416662428336801
18186145 218 18335977644888291708
200 152 18041288669037449975
20279233 1 17988923400924373633
20645477 70 18268438008337503871
20715346 28 17917423289425685487
21501502 16 18408889541943931418
23402539 116 17749393675858455788
23402655 69 18263378017778200941
23463225 33 18343024397989340618
23559900 14 18260264123971489540
25 1 18409730698392959854
2748010 2 18410567388129599158
305870 269 17917438656528923282
5104073 3 18411139100454179842
528886 8 18410017628104815082
53812653 166 18334577927978913072
6333449 129 18335984181564836927
7364860 26 18263361563579537646

> <PUBCHEM_SHAPE_MULTIPOLES>
276.37
6.62
1.68
0.84
3.95
0.59
0
-2.27
0
-0.22
0
-0.78
-0.2
0

> <PUBCHEM_SHAPE_SELFOVERLAP>
590.107

> <PUBCHEM_SHAPE_VOLUME>
155.2

> <PUBCHEM_COORDINATE_TYPE>
2
5
10

$$$$

