6670
  -OEChem-06261201262D

 24 25  0     0  0  0  0  0  0999 V2000
    4.2690   -0.8623    0.0000 S   0  0  0  0  0  0  0  0  0  0  0  0
    4.2690   -1.8623    0.0000 O   0  0  0  0  0  0  0  0  0  0  0  0
    3.2690   -0.8623    0.0000 O   0  0  0  0  0  0  0  0  0  0  0  0
    5.2690   -0.8623    0.0000 O   0  0  0  0  0  0  0  0  0  0  0  0
    2.5369    0.1377    0.0000 N   0  0  0  0  0  0  0  0  0  0  0  0
    5.1350    0.6377    0.0000 C   0  0  0  0  0  0  0  0  0  0  0  0
    4.2690    0.1377    0.0000 C   0  0  0  0  0  0  0  0  0  0  0  0
    5.1350    1.6377    0.0000 C   0  0  0  0  0  0  0  0  0  0  0  0
    3.4030    0.6377    0.0000 C   0  0  0  0  0  0  0  0  0  0  0  0
    4.2690    2.1377    0.0000 C   0  0  0  0  0  0  0  0  0  0  0  0
    6.0290    0.1030    0.0000 C   0  0  0  0  0  0  0  0  0  0  0  0
    3.4030    1.6377    0.0000 C   0  0  0  0  0  0  0  0  0  0  0  0
    6.0290    2.1723    0.0000 C   0  0  0  0  0  0  0  0  0  0  0  0
    6.9350    0.6169    0.0000 C   0  0  0  0  0  0  0  0  0  0  0  0
    6.9350    1.6585    0.0000 C   0  0  0  0  0  0  0  0  0  0  0  0
    4.2690    2.7577    0.0000 H   0  0  0  0  0  0  0  0  0  0  0  0
    6.0218   -0.5170    0.0000 H   0  0  0  0  0  0  0  0  0  0  0  0
    2.8660    1.9477    0.0000 H   0  0  0  0  0  0  0  0  0  0  0  0
    6.0218    2.7923    0.0000 H   0  0  0  0  0  0  0  0  0  0  0  0
    7.4708    0.3048    0.0000 H   0  0  0  0  0  0  0  0  0  0  0  0
    7.4708    1.9706    0.0000 H   0  0  0  0  0  0  0  0  0  0  0  0
    2.0000    0.4477    0.0000 H   0  0  0  0  0  0  0  0  0  0  0  0
    2.5369   -0.4823    0.0000 H   0  0  0  0  0  0  0  0  0  0  0  0
    4.8059   -2.1723    0.0000 H   0  0  0  0  0  0  0  0  0  0  0  0
  1  2  1  0  0  0  0
  1  3  2  0  0  0  0
  1  4  2  0  0  0  0
  1  7  1  0  0  0  0
  2 24  1  0  0  0  0
  5  9  1  0  0  0  0
  5 22  1  0  0  0  0
  5 23  1  0  0  0  0
  6  7  1  0  0  0  0
  6  8  1  0  0  0  0
  6 11  2  0  0  0  0
  7  9  2  0  0  0  0
  8 10  1  0  0  0  0
  8 13  2  0  0  0  0
  9 12  1  0  0  0  0
 10 12  2  0  0  0  0
 10 16  1  0  0  0  0
 11 14  1  0  0  0  0
 11 17  1  0  0  0  0
 12 18  1  0  0  0  0
 13 15  1  0  0  0  0
 13 19  1  0  0  0  0
 14 15  2  0  0  0  0
 14 20  1  0  0  0  0
 15 21  1  0  0  0  0
M  END
> <PUBCHEM_COMPOUND_CID>
6670

> <PUBCHEM_COMPOUND_CANONICALIZED>
1

> <PUBCHEM_CACTVS_COMPLEXITY>
322

> <PUBCHEM_CACTVS_HBOND_ACCEPTOR>
4

> <PUBCHEM_CACTVS_HBOND_DONOR>
2

> <PUBCHEM_CACTVS_ROTATABLE_BOND>
1

> <PUBCHEM_CACTVS_SUBSKEYS>
AAADccByMABAAAAAAAAAAAAAAAAAAAAAAAAwYAAAAAAAAADBUAAAHAQQCAAADAiBWAAwwcBAAIKAAiRCQHDCAEAgAgAIiBQAZIgIICKAkZGAIABgkAAIyAcQgIAOiAAAwAAUAQAQAAGAACgCAAAAAAAAAA==

> <PUBCHEM_IUPAC_OPENEYE_NAME>
2-aminonaphthalene-1-sulfonic acid

> <PUBCHEM_IUPAC_CAS_NAME>
2-amino-1-naphthalenesulfonic acid

> <PUBCHEM_IUPAC_NAME>
2-aminonaphthalene-1-sulfonic acid

> <PUBCHEM_IUPAC_SYSTEMATIC_NAME>
2-azanylnaphthalene-1-sulfonic acid

> <PUBCHEM_IUPAC_TRADITIONAL_NAME>
2-aminonaphthalene-1-sulfonic acid

> <PUBCHEM_IUPAC_INCHI>
InChI=1S/C10H9NO3S/c11-9-6-5-7-3-1-2-4-8(7)10(9)15(12,13)14/h1-6H,11H2,(H,12,13,14)

> <PUBCHEM_IUPAC_INCHIKEY>
GWIAAIUASRVOIA-UHFFFAOYSA-N

> <PUBCHEM_XLOGP3_AA>
1.8

> <PUBCHEM_EXACT_MASS>
223.030314

> <PUBCHEM_MOLECULAR_FORMULA>
C10H9NO3S

> <PUBCHEM_MOLECULAR_WEIGHT>
223.24836

> <PUBCHEM_OPENEYE_CAN_SMILES>
C1=CC=C2C(=C1)C=CC(=C2S(=O)(=O)O)N

> <PUBCHEM_OPENEYE_ISO_SMILES>
C1=CC=C2C(=C1)C=CC(=C2S(=O)(=O)O)N

> <PUBCHEM_CACTVS_TPSA>
88.8

> <PUBCHEM_MONOISOTOPIC_WEIGHT>
223.030314

> <PUBCHEM_TOTAL_CHARGE>
0

> <PUBCHEM_HEAVY_ATOM_COUNT>
15

> <PUBCHEM_ATOM_DEF_STEREO_COUNT>
0

> <PUBCHEM_ATOM_UDEF_STEREO_COUNT>
0

> <PUBCHEM_BOND_DEF_STEREO_COUNT>
0

> <PUBCHEM_BOND_UDEF_STEREO_COUNT>
0

> <PUBCHEM_ISOTOPIC_ATOM_COUNT>
0

> <PUBCHEM_COMPONENT_COUNT>
1

> <PUBCHEM_CACTVS_TAUTO_COUNT>
1

> <PUBCHEM_COORDINATE_TYPE>
1
5
255

> <PUBCHEM_BONDANNOTATIONS>
10  12  8
11  14  8
13  15  8
14  15  8
6  11  8
6  7  8
6  8  8
7  9  8
8  10  8
8  13  8
9  12  8

$$$$

