53297397
  -OEChem-07051213122D

 77 82  0     1  0  0  0  0  0999 V2000
    5.4942    4.2160    0.0000 O   0  0  0  0  0  0  0  0  0  0  0  0
    6.3890    1.7262    0.0000 O   0  0  0  0  0  0  0  0  0  0  0  0
    3.7622    4.1959    0.0000 O   0  0  0  0  0  0  0  0  0  0  0  0
    5.5404    0.2162    0.0000 O   0  0  0  0  0  0  0  0  0  0  0  0
    3.7738    3.1960    0.0000 O   0  0  0  0  0  0  0  0  0  0  0  0
    3.7275    7.1957    0.0000 O   0  0  0  0  0  0  0  0  0  0  0  0
    2.0072    6.1758    0.0000 O   0  0  0  0  0  0  0  0  0  0  0  0
    3.7920   -2.8121    0.0000 O   0  0  0  0  0  0  0  0  0  0  0  0
    4.6962   -1.3152    0.0000 O   0  0  0  0  0  0  0  0  0  0  0  0
    8.1603   -3.3152    0.0000 O   0  0  0  0  0  0  0  0  0  0  0  0
    9.0644   -1.8184    0.0000 O   0  0  0  0  0  0  0  0  0  0  0  0
    8.2524   -4.3608    0.0000 O   0  0  0  0  0  0  0  0  0  0  0  0
    5.5057    3.2160    0.0000 C   0  0  1  0  0  0  0  0  0  0  0  0
    4.6455    2.7061    0.0000 C   0  0  1  0  0  0  0  0  0  0  0  0
    6.3775    2.7261    0.0000 C   0  0  1  0  0  0  0  0  0  0  0  0
    4.6224    4.7059    0.0000 C   0  0  2  0  0  0  0  0  0  0  0  0
    4.6571    1.7061    0.0000 C   0  0  0  0  0  0  0  0  0  0  0  0
    4.6108    5.7059    0.0000 C   0  0  0  0  0  0  0  0  0  0  0  0
    3.7391    6.1958    0.0000 C   0  0  2  0  0  0  0  0  0  0  0  0
    5.5289    1.2162    0.0000 C   0  0  1  0  0  0  0  0  0  0  0  0
    2.8789    5.6858    0.0000 C   0  0  1  0  0  0  0  0  0  0  0  0
    2.8905    4.6859    0.0000 C   0  0  1  0  0  0  0  0  0  0  0  0
    7.2377    3.2361    0.0000 C   0  0  0  0  0  0  0  0  0  0  0  0
    2.0303    4.1759    0.0000 C   0  0  0  0  0  0  0  0  0  0  0  0
    5.5622   -2.8152    0.0000 C   0  0  0  0  0  0  0  0  0  0  0  0
    6.4122   -0.2737    0.0000 C   0  0  0  0  0  0  0  0  0  0  0  0
    4.6522   -3.3221    0.0000 C   0  0  1  0  0  0  0  0  0  0  0  0
    6.4282   -1.3152    0.0000 C   0  0  0  0  0  0  0  0  0  0  0  0
    6.4282   -3.3152    0.0000 C   0  0  0  0  0  0  0  0  0  0  0  0
    4.6442   -4.3637    0.0000 C   0  0  0  0  0  0  0  0  0  0  0  0
    6.4443   -4.3567    0.0000 C   0  0  0  0  0  0  0  0  0  0  0  0
    5.5462   -4.8845    0.0000 C   0  0  0  0  0  0  0  0  0  0  0  0
    7.2942   -1.8152    0.0000 C   0  0  0  0  0  0  0  0  0  0  0  0
    5.5622   -1.8152    0.0000 C   0  0  0  0  0  0  0  0  0  0  0  0
    7.2942   -2.8152    0.0000 C   0  0  0  0  0  0  0  0  0  0  0  0
    7.3102    0.2540    0.0000 C   0  0  0  0  0  0  0  0  0  0  0  0
    8.2042   -1.3084    0.0000 C   0  0  0  0  0  0  0  0  0  0  0  0
    7.3962   -4.8774    0.0000 C   0  0  0  0  0  0  0  0  0  0  0  0
    5.5379   -5.9694    0.0000 C   0  0  0  0  0  0  0  0  0  0  0  0
    8.2123   -0.2668    0.0000 C   0  0  0  0  0  0  0  0  0  0  0  0
    6.4775   -6.5119    0.0000 C   0  0  0  0  0  0  0  0  0  0  0  0
    7.4129   -5.9622    0.0000 C   0  0  0  0  0  0  0  0  0  0  0  0
    6.4814   -7.5119    0.0000 C   0  0  0  0  0  0  0  0  0  0  0  0
    6.0390    3.5322    0.0000 H   0  0  0  0  0  0  0  0  0  0  0  0
    4.6384    3.3260    0.0000 H   0  0  0  0  0  0  0  0  0  0  0  0
    6.9180    2.4223    0.0000 H   0  0  0  0  0  0  0  0  0  0  0  0
    4.6296    4.0860    0.0000 H   0  0  0  0  0  0  0  0  0  0  0  0
    4.0453    1.8067    0.0000 H   0  0  0  0  0  0  0  0  0  0  0  0
    4.4518    1.1211    0.0000 H   0  0  0  0  0  0  0  0  0  0  0  0
    5.2226    5.6053    0.0000 H   0  0  0  0  0  0  0  0  0  0  0  0
    4.8162    6.2909    0.0000 H   0  0  0  0  0  0  0  0  0  0  0  0
    4.2724    6.5120    0.0000 H   0  0  0  0  0  0  0  0  0  0  0  0
    4.9955    0.9000    0.0000 H   0  0  0  0  0  0  0  0  0  0  0  0
    2.3456    5.3696    0.0000 H   0  0  0  0  0  0  0  0  0  0  0  0
    2.8976    4.0659    0.0000 H   0  0  0  0  0  0  0  0  0  0  0  0
    7.5538    2.7028    0.0000 H   0  0  0  0  0  0  0  0  0  0  0  0
    7.7710    3.5523    0.0000 H   0  0  0  0  0  0  0  0  0  0  0  0
    6.9215    3.7694    0.0000 H   0  0  0  0  0  0  0  0  0  0  0  0
    1.7141    4.7092    0.0000 H   0  0  0  0  0  0  0  0  0  0  0  0
    1.4970    3.8597    0.0000 H   0  0  0  0  0  0  0  0  0  0  0  0
    2.3465    3.6426    0.0000 H   0  0  0  0  0  0  0  0  0  0  0  0
    3.2405    2.8798    0.0000 H   0  0  0  0  0  0  0  0  0  0  0  0
    4.1123   -3.6269    0.0000 H   0  0  0  0  0  0  0  0  0  0  0  0
    4.0342   -4.2529    0.0000 H   0  0  0  0  0  0  0  0  0  0  0  0
    4.4306   -4.9457    0.0000 H   0  0  0  0  0  0  0  0  0  0  0  0
    4.2609    7.5119    0.0000 H   0  0  0  0  0  0  0  0  0  0  0  0
    2.0000    6.7957    0.0000 H   0  0  0  0  0  0  0  0  0  0  0  0
    7.3078    0.8740    0.0000 H   0  0  0  0  0  0  0  0  0  0  0  0
    4.9998   -6.2774    0.0000 H   0  0  0  0  0  0  0  0  0  0  0  0
    8.7504    0.0412    0.0000 H   0  0  0  0  0  0  0  0  0  0  0  0
    7.9534   -6.2660    0.0000 H   0  0  0  0  0  0  0  0  0  0  0  0
    3.2515   -3.1158    0.0000 H   0  0  0  0  0  0  0  0  0  0  0  0
    5.8614   -7.5143    0.0000 H   0  0  0  0  0  0  0  0  0  0  0  0
    6.4838   -8.1319    0.0000 H   0  0  0  0  0  0  0  0  0  0  0  0
    7.1014   -7.5095    0.0000 H   0  0  0  0  0  0  0  0  0  0  0  0
    9.6049   -1.5146    0.0000 H   0  0  0  0  0  0  0  0  0  0  0  0
    8.7952   -4.6604    0.0000 H   0  0  0  0  0  0  0  0  0  0  0  0
 13  1  1  6  0  0  0
 16  1  1  6  0  0  0
  2 15  1  0  0  0  0
  2 20  1  0  0  0  0
  3 16  1  0  0  0  0
  3 22  1  0  0  0  0
 20  4  1  1  0  0  0
  4 26  1  0  0  0  0
 14  5  1  1  0  0  0
  5 62  1  0  0  0  0
 19  6  1  6  0  0  0
  6 66  1  0  0  0  0
 21  7  1  1  0  0  0
  7 67  1  0  0  0  0
 27  8  1  1  0  0  0
  8 72  1  0  0  0  0
  9 34  2  0  0  0  0
 10 35  2  0  0  0  0
 11 37  1  0  0  0  0
 11 76  1  0  0  0  0
 12 38  1  0  0  0  0
 12 77  1  0  0  0  0
 13 14  1  0  0  0  0
 13 15  1  0  0  0  0
 13 44  1  0  0  0  0
 14 17  1  0  0  0  0
 14 45  1  0  0  0  0
 15 23  1  1  0  0  0
 15 46  1  0  0  0  0
 16 18  1  0  0  0  0
 16 47  1  0  0  0  0
 17 20  1  0  0  0  0
 17 48  1  0  0  0  0
 17 49  1  0  0  0  0
 18 19  1  0  0  0  0
 18 50  1  0  0  0  0
 18 51  1  0  0  0  0
 19 21  1  0  0  0  0
 19 52  1  0  0  0  0
 20 53  1  0  0  0  0
 21 22  1  0  0  0  0
 21 54  1  0  0  0  0
 22 24  1  6  0  0  0
 22 55  1  0  0  0  0
 23 56  1  0  0  0  0
 23 57  1  0  0  0  0
 23 58  1  0  0  0  0
 24 59  1  0  0  0  0
 24 60  1  0  0  0  0
 24 61  1  0  0  0  0
 25 27  1  0  0  0  0
 25 29  2  0  0  0  0
 25 34  1  0  0  0  0
 26 28  2  0  0  0  0
 26 36  1  0  0  0  0
 27 30  1  0  0  0  0
 27 63  1  0  0  0  0
 28 33  1  0  0  0  0
 28 34  1  0  0  0  0
 29 31  1  0  0  0  0
 29 35  1  0  0  0  0
 30 32  1  0  0  0  0
 30 64  1  0  0  0  0
 30 65  1  0  0  0  0
 31 32  2  0  0  0  0
 31 38  1  0  0  0  0
 32 39  1  0  0  0  0
 33 35  1  0  0  0  0
 33 37  2  0  0  0  0
 36 40  2  0  0  0  0
 36 68  1  0  0  0  0
 37 40  1  0  0  0  0
 38 42  2  0  0  0  0
 39 41  2  0  0  0  0
 39 69  1  0  0  0  0
 40 70  1  0  0  0  0
 41 42  1  0  0  0  0
 41 43  1  0  0  0  0
 42 71  1  0  0  0  0
 43 73  1  0  0  0  0
 43 74  1  0  0  0  0
 43 75  1  0  0  0  0
M  END
> <PUBCHEM_COMPOUND_CID>
53297397

> <PUBCHEM_COMPOUND_CANONICALIZED>
1

> <PUBCHEM_CACTVS_COMPLEXITY>
1110

> <PUBCHEM_CACTVS_HBOND_ACCEPTOR>
12

> <PUBCHEM_CACTVS_HBOND_DONOR>
6

> <PUBCHEM_CACTVS_ROTATABLE_BOND>
4

> <PUBCHEM_CACTVS_SUBSKEYS>
AAADcfB4PAAAAAAAAAAAAAAAAAAAAAAAAAA0aIECAAAAAADBQAAAGgAACAAADBSwmAMyDoAABgCIAqBSAAACCAAkIAAIiAEGCMgdNjaGNRqieWCl4BEPuQfL6PyOwQADAAAYAACCAAYAADAAAAAAAAAAAA==

> <PUBCHEM_IUPAC_OPENEYE_NAME>
(6R)-8-[(2S,4R,5S,6R)-5-[(2S,4R,5S,6R)-4,5-dihydroxy-6-methyl-tetrahydropyran-2-yl]oxy-4-hydroxy-6-methyl-tetrahydropyran-2-yl]oxy-1,6,11-trihydroxy-3-methyl-5,6-dihydrobenzo[a]anthracene-7,12-dione

> <PUBCHEM_IUPAC_CAS_NAME>
(6R)-8-[[(2S,4R,5S,6R)-5-[[(2S,4R,5S,6R)-4,5-dihydroxy-6-methyl-2-oxanyl]oxy]-4-hydroxy-6-methyl-2-oxanyl]oxy]-1,6,11-trihydroxy-3-methyl-5,6-dihydrobenzo[a]anthracene-7,12-dione

> <PUBCHEM_IUPAC_NAME>
(6R)-8-[(2S,4R,5S,6R)-5-[(2S,4R,5S,6R)-4,5-dihydroxy-6-methyloxan-2-yl]oxy-4-hydroxy-6-methyloxan-2-yl]oxy-1,6,11-trihydroxy-3-methyl-5,6-dihydrobenzo[a]anthracene-7,12-dione

> <PUBCHEM_IUPAC_SYSTEMATIC_NAME>
(6R)-3-methyl-8-[(2S,4R,5S,6R)-6-methyl-5-[(2S,4R,5S,6R)-6-methyl-4,5-bis(oxidanyl)oxan-2-yl]oxy-4-oxidanyl-oxan-2-yl]oxy-1,6,11-tris(oxidanyl)-5,6-dihydrobenzo[a]anthracene-7,12-dione

> <PUBCHEM_IUPAC_TRADITIONAL_NAME>
(6R)-8-[(2S,4R,5S,6R)-5-[(2S,4R,5S,6R)-4,5-dihydroxy-6-methyl-tetrahydropyran-2-yl]oxy-4-hydroxy-6-methyl-tetrahydropyran-2-yl]oxy-1,6,11-trihydroxy-3-methyl-5,6-dihydrobenz[a]anthracene-7,12-quinone

> <PUBCHEM_IUPAC_INCHI>
InChI=1S/C31H34O12/c1-11-6-14-8-17(34)25-27(23(14)16(33)7-11)30(39)24-15(32)4-5-20(26(24)29(25)38)42-21-10-19(36)31(13(3)41-21)43-22-9-18(35)28(37)12(2)40-22/h4-7,12-13,17-19,21-22,28,31-37H,8-10H2,1-3H3/t12-,13-,17-,18-,19-,21+,22+,28-,31-/m1/s1

> <PUBCHEM_IUPAC_INCHIKEY>
OUHUAIDDBQQIFA-MXODATPMSA-N

> <PUBCHEM_XLOGP3_AA>
1.7

> <PUBCHEM_EXACT_MASS>
598.205027

> <PUBCHEM_MOLECULAR_FORMULA>
C31H34O12

> <PUBCHEM_MOLECULAR_WEIGHT>
598.59446

> <PUBCHEM_OPENEYE_CAN_SMILES>
CC1C(C(CC(O1)OC2C(OC(CC2O)OC3=C4C(=C(C=C3)O)C(=O)C5=C(C4=O)C(CC6=CC(=CC(=C65)O)C)O)C)O)O

> <PUBCHEM_OPENEYE_ISO_SMILES>
C[C@@H]1[C@H]([C@@H](C[C@@H](O1)O[C@@H]2[C@H](O[C@H](C[C@H]2O)OC3=C4C(=C(C=C3)O)C(=O)C5=C(C4=O)[C@@H](CC6=CC(=CC(=C65)O)C)O)C)O)O

> <PUBCHEM_CACTVS_TPSA>
192

> <PUBCHEM_MONOISOTOPIC_WEIGHT>
598.205027

> <PUBCHEM_TOTAL_CHARGE>
0

> <PUBCHEM_HEAVY_ATOM_COUNT>
43

> <PUBCHEM_ATOM_DEF_STEREO_COUNT>
9

> <PUBCHEM_ATOM_UDEF_STEREO_COUNT>
0

> <PUBCHEM_BOND_DEF_STEREO_COUNT>
0

> <PUBCHEM_BOND_UDEF_STEREO_COUNT>
0

> <PUBCHEM_ISOTOPIC_ATOM_COUNT>
0

> <PUBCHEM_COMPONENT_COUNT>
1

> <PUBCHEM_CACTVS_TAUTO_COUNT>
132

> <PUBCHEM_COORDINATE_TYPE>
1
5
255

> <PUBCHEM_BONDANNOTATIONS>
13  1  6
16  1  6
15  23  5
22  24  6
26  28  8
26  36  8
28  33  8
31  32  8
31  38  8
32  39  8
33  37  8
36  40  8
37  40  8
38  42  8
39  41  8
20  4  5
41  42  8
14  5  5
19  6  6
21  7  5
27  8  5

$$$$

