16818
  -OEChem-07051213062D

 51 54  0     1  0  0  0  0  0999 V2000
    9.6737    1.8120    0.0000 O   0  0  0  0  0  0  0  0  0  0  0  0
    2.5405   -0.0398    0.0000 O   0  0  0  0  0  0  0  0  0  0  0  0
    2.5244   -2.1314    0.0000 O   0  0  0  0  0  0  0  0  0  0  0  0
    7.9174    0.9209    0.0000 C   0  0  1  0  0  0  0  0  0  0  0  0
    7.9174   -0.0791    0.0000 C   0  0  2  0  0  0  0  0  0  0  0  0
    7.0514   -0.5791    0.0000 C   0  0  1  0  0  0  0  0  0  0  0  0
    6.1854   -0.0791    0.0000 C   0  0  2  0  0  0  0  0  0  0  0  0
    8.8637    1.2257    0.0000 C   0  0  2  0  0  0  0  0  0  0  0  0
    7.0514    1.4209    0.0000 C   0  0  0  0  0  0  0  0  0  0  0  0
    8.8637   -0.3838    0.0000 C   0  0  0  0  0  0  0  0  0  0  0  0
    6.1854    0.9209    0.0000 C   0  0  0  0  0  0  0  0  0  0  0  0
    9.4473    0.4209    0.0000 C   0  0  0  0  0  0  0  0  0  0  0  0
    5.2754   -0.5859    0.0000 C   0  0  1  0  0  0  0  0  0  0  0  0
    7.0675   -1.6206    0.0000 C   0  0  0  0  0  0  0  0  0  0  0  0
    7.9174    1.9209    0.0000 C   0  0  0  0  0  0  0  0  0  0  0  0
    6.1694   -2.1483    0.0000 C   0  0  0  0  0  0  0  0  0  0  0  0
    5.2674   -1.6275    0.0000 C   0  0  0  0  0  0  0  0  0  0  0  0
    8.5563    2.1772    0.0000 C   0  0  0  0  0  0  0  0  0  0  0  0
    5.2831    0.4140    0.0000 C   0  0  0  0  0  0  0  0  0  0  0  0
    4.3486   -0.0218    0.0000 C   0  0  0  0  0  0  0  0  0  0  0  0
    4.3319   -2.1772    0.0000 C   0  0  0  0  0  0  0  0  0  0  0  0
    3.4007   -0.5498    0.0000 C   0  0  0  0  0  0  0  0  0  0  0  0
    3.3923   -1.6348    0.0000 C   0  0  0  0  0  0  0  0  0  0  0  0
    8.0074   -0.9243    0.0000 H   0  0  0  0  0  0  0  0  0  0  0  0
    7.7908   -0.9984    0.0000 H   0  0  0  0  0  0  0  0  0  0  0  0
    6.9215    0.3459    0.0000 H   0  0  0  0  0  0  0  0  0  0  0  0
    7.4500    1.8959    0.0000 H   0  0  0  0  0  0  0  0  0  0  0  0
    6.6529    1.8959    0.0000 H   0  0  0  0  0  0  0  0  0  0  0  0
    8.6126   -0.9507    0.0000 H   0  0  0  0  0  0  0  0  0  0  0  0
    9.4010   -0.6930    0.0000 H   0  0  0  0  0  0  0  0  0  0  0  0
    5.9733    1.5035    0.0000 H   0  0  0  0  0  0  0  0  0  0  0  0
    5.5748    0.8133    0.0000 H   0  0  0  0  0  0  0  0  0  0  0  0
    9.9081    0.0062    0.0000 H   0  0  0  0  0  0  0  0  0  0  0  0
    9.9081    0.8357    0.0000 H   0  0  0  0  0  0  0  0  0  0  0  0
    7.2855   -2.2010    0.0000 H   0  0  0  0  0  0  0  0  0  0  0  0
    7.6766   -1.5051    0.0000 H   0  0  0  0  0  0  0  0  0  0  0  0
    8.5374    1.9209    0.0000 H   0  0  0  0  0  0  0  0  0  0  0  0
    7.9174    2.5409    0.0000 H   0  0  0  0  0  0  0  0  0  0  0  0
    7.2974    1.9209    0.0000 H   0  0  0  0  0  0  0  0  0  0  0  0
    5.7721   -2.6243    0.0000 H   0  0  0  0  0  0  0  0  0  0  0  0
    6.5704   -2.6212    0.0000 H   0  0  0  0  0  0  0  0  0  0  0  0
    9.1463    2.3678    0.0000 H   0  0  0  0  0  0  0  0  0  0  0  0
    8.3657    2.7672    0.0000 H   0  0  0  0  0  0  0  0  0  0  0  0
    7.9663    1.9867    0.0000 H   0  0  0  0  0  0  0  0  0  0  0  0
    5.9031    0.4093    0.0000 H   0  0  0  0  0  0  0  0  0  0  0  0
    5.2879    1.0340    0.0000 H   0  0  0  0  0  0  0  0  0  0  0  0
    4.6631    0.4188    0.0000 H   0  0  0  0  0  0  0  0  0  0  0  0
    4.3605    0.5980    0.0000 H   0  0  0  0  0  0  0  0  0  0  0  0
   10.2397    1.5589    0.0000 H   0  0  0  0  0  0  0  0  0  0  0  0
    4.3343   -2.7972    0.0000 H   0  0  0  0  0  0  0  0  0  0  0  0
    2.0000   -0.3436    0.0000 H   0  0  0  0  0  0  0  0  0  0  0  0
  8  1  1  1  0  0  0
  1 49  1  0  0  0  0
  2 22  1  0  0  0  0
  2 51  1  0  0  0  0
  3 23  2  0  0  0  0
  4  5  1  0  0  0  0
  4  8  1  0  0  0  0
  4  9  1  0  0  0  0
  4 15  1  1  0  0  0
  5  6  1  0  0  0  0
  5 10  1  0  0  0  0
  5 24  1  6  0  0  0
  6  7  1  0  0  0  0
  6 14  1  0  0  0  0
  6 25  1  1  0  0  0
  7 11  1  0  0  0  0
  7 13  1  0  0  0  0
  7 26  1  6  0  0  0
  8 12  1  0  0  0  0
  8 18  1  0  0  0  0
  9 11  1  0  0  0  0
  9 27  1  0  0  0  0
  9 28  1  0  0  0  0
 10 12  1  0  0  0  0
 10 29  1  0  0  0  0
 10 30  1  0  0  0  0
 11 31  1  0  0  0  0
 11 32  1  0  0  0  0
 12 33  1  0  0  0  0
 12 34  1  0  0  0  0
 13 17  1  0  0  0  0
 13 19  1  1  0  0  0
 13 20  1  0  0  0  0
 14 16  1  0  0  0  0
 14 35  1  0  0  0  0
 14 36  1  0  0  0  0
 15 37  1  0  0  0  0
 15 38  1  0  0  0  0
 15 39  1  0  0  0  0
 16 17  1  0  0  0  0
 16 40  1  0  0  0  0
 16 41  1  0  0  0  0
 17 21  2  0  0  0  0
 18 42  1  0  0  0  0
 18 43  1  0  0  0  0
 18 44  1  0  0  0  0
 19 45  1  0  0  0  0
 19 46  1  0  0  0  0
 19 47  1  0  0  0  0
 20 22  2  0  0  0  0
 20 48  1  0  0  0  0
 21 23  1  0  0  0  0
 21 50  1  0  0  0  0
 22 23  1  0  0  0  0
M  END
> <PUBCHEM_COMPOUND_CID>
16818

> <PUBCHEM_COMPOUND_CANONICALIZED>
1

> <PUBCHEM_CACTVS_COMPLEXITY>
633

> <PUBCHEM_CACTVS_HBOND_ACCEPTOR>
3

> <PUBCHEM_CACTVS_HBOND_DONOR>
2

> <PUBCHEM_CACTVS_ROTATABLE_BOND>
0

> <PUBCHEM_CACTVS_SUBSKEYS>
AAADceB4MAAAAAAAAAAAAAAAAAAAAYAAAAAwYIAAAAAAAGDAAAAAGgAACAAAD0SAgAACAAAAAgCIAqBSAAIAAAAgIAAACABAAEgAAAIAAQAAQAAEwAAIAYOAwPAPgAAAAAAAAACAAAQAACAAAYAADAAAAA==

> <PUBCHEM_IUPAC_OPENEYE_NAME>
(8R,9S,10S,13S,14S,17S)-2,17-dihydroxy-10,13,17-trimethyl-7,8,9,11,12,14,15,16-octahydro-6H-cyclopenta[a]phenanthren-3-one

> <PUBCHEM_IUPAC_CAS_NAME>
(8R,9S,10S,13S,14S,17S)-2,17-dihydroxy-10,13,17-trimethyl-7,8,9,11,12,14,15,16-octahydro-6H-cyclopenta[a]phenanthren-3-one

> <PUBCHEM_IUPAC_NAME>
(8R,9S,10S,13S,14S,17S)-2,17-dihydroxy-10,13,17-trimethyl-7,8,9,11,12,14,15,16-octahydro-6H-cyclopenta[a]phenanthren-3-one

> <PUBCHEM_IUPAC_SYSTEMATIC_NAME>
(8R,9S,10S,13S,14S,17S)-10,13,17-trimethyl-2,17-bis(oxidanyl)-7,8,9,11,12,14,15,16-octahydro-6H-cyclopenta[a]phenanthren-3-one

> <PUBCHEM_IUPAC_TRADITIONAL_NAME>
(8R,9S,10S,13S,14S,17S)-2,17-dihydroxy-10,13,17-trimethyl-7,8,9,11,12,14,15,16-octahydro-6H-cyclopenta[a]phenanthren-3-one

> <PUBCHEM_IUPAC_INCHI>
InChI=1S/C20H28O3/c1-18-11-17(22)16(21)10-12(18)4-5-13-14(18)6-8-19(2)15(13)7-9-20(19,3)23/h10-11,13-15,22-23H,4-9H2,1-3H3/t13-,14+,15+,18+,19+,20+/m1/s1

> <PUBCHEM_IUPAC_INCHIKEY>
LWCFGFNTFZFVOY-LUCRAQOWSA-N

> <PUBCHEM_XLOGP3>
3.4

> <PUBCHEM_EXACT_MASS>
316.203845

> <PUBCHEM_MOLECULAR_FORMULA>
C20H28O3

> <PUBCHEM_MOLECULAR_WEIGHT>
316.43452

> <PUBCHEM_OPENEYE_CAN_SMILES>
CC12CCC3C(C1CCC2(C)O)CCC4=CC(=O)C(=CC34C)O

> <PUBCHEM_OPENEYE_ISO_SMILES>
C[C@]12CC[C@H]3[C@H]([C@@H]1CC[C@]2(C)O)CCC4=CC(=O)C(=C[C@]34C)O

> <PUBCHEM_CACTVS_TPSA>
57.5

> <PUBCHEM_MONOISOTOPIC_WEIGHT>
316.203845

> <PUBCHEM_TOTAL_CHARGE>
0

> <PUBCHEM_HEAVY_ATOM_COUNT>
23

> <PUBCHEM_ATOM_DEF_STEREO_COUNT>
6

> <PUBCHEM_ATOM_UDEF_STEREO_COUNT>
0

> <PUBCHEM_BOND_DEF_STEREO_COUNT>
0

> <PUBCHEM_BOND_UDEF_STEREO_COUNT>
0

> <PUBCHEM_ISOTOPIC_ATOM_COUNT>
0

> <PUBCHEM_COMPONENT_COUNT>
1

> <PUBCHEM_CACTVS_TAUTO_COUNT>
27

> <PUBCHEM_COORDINATE_TYPE>
1
5
255

> <PUBCHEM_BONDANNOTATIONS>
8  1  5
13  19  5
4  15  5
5  24  6
6  25  5
7  26  6

$$$$

