24820753
  -OEChem-07051212523D

 88 94  0     1  0  0  0  0  0999 V2000
    0.3034   -2.2711    0.2184 O   0  0  0  0  0  0  0  0  0  0  0  0
   -6.0164    0.9300   -1.2401 O   0  0  0  0  0  0  0  0  0  0  0  0
   -5.5306    1.6028    1.6042 O   0  0  0  0  0  0  0  0  0  0  0  0
   -2.2849   -3.3351    0.5466 O   0  0  0  0  0  0  0  0  0  0  0  0
    2.6477    1.0918   -0.4376 O   0  0  0  0  0  0  0  0  0  0  0  0
    0.6872   -2.3726   -3.3392 O   0  0  0  0  0  0  0  0  0  0  0  0
    2.0893   -2.9869   -1.6413 O   0  0  0  0  0  0  0  0  0  0  0  0
   -6.4447    3.6438    1.2654 O   0  0  0  0  0  0  0  0  0  0  0  0
    1.9462   -1.1568    3.4821 O   0  0  0  0  0  0  0  0  0  0  0  0
    4.6100    0.1705    0.4252 O   0  0  0  0  0  0  0  0  0  0  0  0
    4.1762    2.4792   -2.3733 O   0  0  0  0  0  0  0  0  0  0  0  0
    6.9163    3.0157   -1.4329 O   0  0  0  0  0  0  0  0  0  0  0  0
    8.1419    0.5898   -0.4487 O   0  0  0  0  0  0  0  0  0  0  0  0
    5.6216   -2.0469    1.6965 O   0  0  0  0  0  0  0  0  0  0  0  0
   -0.4221   -1.1226   -0.2687 C   0  0  1  0  0  0  0  0  0  0  0  0
   -1.8132   -0.9358    0.4335 C   0  0  1  0  0  0  0  0  0  0  0  0
   -2.4490    0.3244   -0.2585 C   0  0  1  0  0  0  0  0  0  0  0  0
   -3.9876    0.4727   -0.0573 C   0  0  2  0  0  0  0  0  0  0  0  0
    0.4381    0.1444   -0.5419 C   0  0  1  0  0  0  0  0  0  0  0  0
   -4.5689   -0.8229   -0.6449 C   0  0  1  0  0  0  0  0  0  0  0  0
   -0.1243   -2.3497   -1.1387 C   0  0  1  0  0  0  0  0  0  0  0  0
   -1.6352    1.6150   -0.0333 C   0  0  0  0  0  0  0  0  0  0  0  0
   -0.1368    1.3826    0.1812 C   0  0  0  0  0  0  0  0  0  0  0  0
   -4.6936    1.4731   -0.9770 C   0  0  2  0  0  0  0  0  0  0  0  0
   -2.7291   -2.2016    0.3299 C   0  0  0  0  0  0  0  0  0  0  0  0
   -4.2360   -2.0500    0.1677 C   0  0  0  0  0  0  0  0  0  0  0  0
   -6.0167   -0.4959   -1.0021 C   0  0  0  0  0  0  0  0  0  0  0  0
   -1.6229   -0.7804    1.9654 C   0  0  0  0  0  0  0  0  0  0  0  0
   -4.3477    0.7966    1.4153 C   0  0  0  0  0  0  0  0  0  0  0  0
    1.8900   -0.0414   -0.0465 C   0  0  2  0  0  0  0  0  0  0  0  0
    0.4945    0.4587   -2.0568 C   0  0  0  0  0  0  0  0  0  0  0  0
   -4.8678    2.8473   -0.3557 C   0  0  0  0  0  0  0  0  0  0  0  0
    0.9999   -2.6058   -2.0419 C   0  0  0  0  0  0  0  0  0  0  0  0
   -7.0514   -0.8363    0.0703 C   0  0  0  0  0  0  0  0  0  0  0  0
   -6.4380   -1.1710   -2.3134 C   0  0  0  0  0  0  0  0  0  0  0  0
   -5.6839    2.7522    0.9035 C   0  0  0  0  0  0  0  0  0  0  0  0
    1.9383   -0.2076    1.4448 C   0  0  0  0  0  0  0  0  0  0  0  0
    4.0013    0.7454   -0.7287 C   0  0  2  0  0  0  0  0  0  0  0  0
    2.0614    0.8171    2.4133 C   0  0  0  0  0  0  0  0  0  0  0  0
    1.8721   -1.3895    2.1453 C   0  0  0  0  0  0  0  0  0  0  0  0
    4.7351    2.0210   -1.1423 C   0  0  1  0  0  0  0  0  0  0  0  0
    2.0613    0.1883    3.6367 C   0  0  0  0  0  0  0  0  0  0  0  0
    6.2311    1.7668   -1.3278 C   0  0  2  0  0  0  0  0  0  0  0  0
    5.9637   -0.2227    0.1923 C   0  0  1  0  0  0  0  0  0  0  0  0
    6.8149    1.0059   -0.1373 C   0  0  1  0  0  0  0  0  0  0  0  0
    6.4591   -0.9325    1.4483 C   0  0  0  0  0  0  0  0  0  0  0  0
   -2.3282    0.1376   -1.3377 H   0  0  0  0  0  0  0  0  0  0  0  0
   -4.0685   -0.9858   -1.6150 H   0  0  0  0  0  0  0  0  0  0  0  0
   -0.9700   -2.9809   -1.3811 H   0  0  0  0  0  0  0  0  0  0  0  0
   -1.7661    2.2599   -0.9123 H   0  0  0  0  0  0  0  0  0  0  0  0
   -2.0101    2.1972    0.8134 H   0  0  0  0  0  0  0  0  0  0  0  0
    0.3957    2.2963   -0.1159 H   0  0  0  0  0  0  0  0  0  0  0  0
   -0.0112    1.3378    1.2587 H   0  0  0  0  0  0  0  0  0  0  0  0
   -4.1860    1.5607   -1.9453 H   0  0  0  0  0  0  0  0  0  0  0  0
   -4.6891   -2.0390    1.1622 H   0  0  0  0  0  0  0  0  0  0  0  0
   -4.6069   -2.9412   -0.3521 H   0  0  0  0  0  0  0  0  0  0  0  0
   -0.9305   -1.5340    2.3542 H   0  0  0  0  0  0  0  0  0  0  0  0
   -2.5585   -0.9502    2.5076 H   0  0  0  0  0  0  0  0  0  0  0  0
   -1.2604    0.1943    2.2847 H   0  0  0  0  0  0  0  0  0  0  0  0
   -3.5462    1.3339    1.9289 H   0  0  0  0  0  0  0  0  0  0  0  0
   -4.5184   -0.1084    2.0000 H   0  0  0  0  0  0  0  0  0  0  0  0
    2.3301   -0.9308   -0.5010 H   0  0  0  0  0  0  0  0  0  0  0  0
    1.2876   -0.0921   -2.5684 H   0  0  0  0  0  0  0  0  0  0  0  0
    0.7125    1.5181   -2.2396 H   0  0  0  0  0  0  0  0  0  0  0  0
   -0.4511    0.2357   -2.5602 H   0  0  0  0  0  0  0  0  0  0  0  0
   -3.9139    3.3289   -0.1287 H   0  0  0  0  0  0  0  0  0  0  0  0
   -5.4254    3.4840   -1.0526 H   0  0  0  0  0  0  0  0  0  0  0  0
   -7.1521   -1.9189    0.2004 H   0  0  0  0  0  0  0  0  0  0  0  0
   -6.8061   -0.4075    1.0426 H   0  0  0  0  0  0  0  0  0  0  0  0
   -8.0333   -0.4306   -0.2000 H   0  0  0  0  0  0  0  0  0  0  0  0
   -5.7887   -0.8654   -3.1421 H   0  0  0  0  0  0  0  0  0  0  0  0
   -6.4096   -2.2624   -2.2321 H   0  0  0  0  0  0  0  0  0  0  0  0
   -7.4528   -0.8693   -2.5979 H   0  0  0  0  0  0  0  0  0  0  0  0
    4.0030    0.0224   -1.5564 H   0  0  0  0  0  0  0  0  0  0  0  0
    1.4466   -2.5443   -3.9359 H   0  0  0  0  0  0  0  0  0  0  0  0
    2.1498    1.8820    2.2509 H   0  0  0  0  0  0  0  0  0  0  0  0
    1.8407   -2.4368    1.8859 H   0  0  0  0  0  0  0  0  0  0  0  0
    4.5685    2.8150   -0.4046 H   0  0  0  0  0  0  0  0  0  0  0  0
    2.1341    0.5370    4.6564 H   0  0  0  0  0  0  0  0  0  0  0  0
    6.4243    1.2328   -2.2656 H   0  0  0  0  0  0  0  0  0  0  0  0
    5.9783   -0.9463   -0.6342 H   0  0  0  0  0  0  0  0  0  0  0  0
    6.8765    1.6724    0.7316 H   0  0  0  0  0  0  0  0  0  0  0  0
    4.3087    1.7852   -3.0415 H   0  0  0  0  0  0  0  0  0  0  0  0
    7.4881   -1.2852    1.3315 H   0  0  0  0  0  0  0  0  0  0  0  0
    6.3992   -0.2708    2.3189 H   0  0  0  0  0  0  0  0  0  0  0  0
    6.7488    3.5220   -0.6197 H   0  0  0  0  0  0  0  0  0  0  0  0
    8.0967   -0.0134   -1.2103 H   0  0  0  0  0  0  0  0  0  0  0  0
    5.9488   -2.4779    2.5044 H   0  0  0  0  0  0  0  0  0  0  0  0
  1 15  1  0  0  0  0
  1 21  1  0  0  0  0
  2 24  1  0  0  0  0
  2 27  1  0  0  0  0
  3 29  1  0  0  0  0
  3 36  1  0  0  0  0
  4 25  2  0  0  0  0
  5 30  1  0  0  0  0
  5 38  1  0  0  0  0
  6 33  1  0  0  0  0
  6 75  1  0  0  0  0
  7 33  2  0  0  0  0
  8 36  2  0  0  0  0
  9 40  1  0  0  0  0
  9 42  1  0  0  0  0
 10 38  1  0  0  0  0
 10 44  1  0  0  0  0
 11 41  1  0  0  0  0
 11 83  1  0  0  0  0
 12 43  1  0  0  0  0
 12 86  1  0  0  0  0
 13 45  1  0  0  0  0
 13 87  1  0  0  0  0
 14 46  1  0  0  0  0
 14 88  1  0  0  0  0
 15 16  1  0  0  0  0
 15 19  1  0  0  0  0
 15 21  1  0  0  0  0
 16 17  1  0  0  0  0
 16 25  1  0  0  0  0
 16 28  1  0  0  0  0
 17 18  1  0  0  0  0
 17 22  1  0  0  0  0
 17 47  1  0  0  0  0
 18 20  1  0  0  0  0
 18 24  1  0  0  0  0
 18 29  1  0  0  0  0
 19 23  1  0  0  0  0
 19 30  1  0  0  0  0
 19 31  1  0  0  0  0
 20 26  1  0  0  0  0
 20 27  1  0  0  0  0
 20 48  1  0  0  0  0
 21 33  1  0  0  0  0
 21 49  1  0  0  0  0
 22 23  1  0  0  0  0
 22 50  1  0  0  0  0
 22 51  1  0  0  0  0
 23 52  1  0  0  0  0
 23 53  1  0  0  0  0
 24 32  1  0  0  0  0
 24 54  1  0  0  0  0
 25 26  1  0  0  0  0
 26 55  1  0  0  0  0
 26 56  1  0  0  0  0
 27 34  1  0  0  0  0
 27 35  1  0  0  0  0
 28 57  1  0  0  0  0
 28 58  1  0  0  0  0
 28 59  1  0  0  0  0
 29 60  1  0  0  0  0
 29 61  1  0  0  0  0
 30 37  1  0  0  0  0
 30 62  1  0  0  0  0
 31 63  1  0  0  0  0
 31 64  1  0  0  0  0
 31 65  1  0  0  0  0
 32 36  1  0  0  0  0
 32 66  1  0  0  0  0
 32 67  1  0  0  0  0
 34 68  1  0  0  0  0
 34 69  1  0  0  0  0
 34 70  1  0  0  0  0
 35 71  1  0  0  0  0
 35 72  1  0  0  0  0
 35 73  1  0  0  0  0
 37 39  1  0  0  0  0
 37 40  2  0  0  0  0
 38 41  1  0  0  0  0
 38 74  1  0  0  0  0
 39 42  2  0  0  0  0
 39 76  1  0  0  0  0
 40 77  1  0  0  0  0
 41 43  1  0  0  0  0
 41 78  1  0  0  0  0
 42 79  1  0  0  0  0
 43 45  1  0  0  0  0
 43 80  1  0  0  0  0
 44 45  1  0  0  0  0
 44 46  1  0  0  0  0
 44 81  1  0  0  0  0
 45 82  1  0  0  0  0
 46 84  1  0  0  0  0
 46 85  1  0  0  0  0
M  END
> <PUBCHEM_COMPOUND_CID>
24820753

> <PUBCHEM_CONFORMER_RMSD>
1.2

> <PUBCHEM_CONFORMER_DIVERSEORDER>
1
9
12
5
10
14
11
3
13
8
7
2
6
4

> <PUBCHEM_MMFF94_PARTIAL_CHARGES>
46
1 -0.3
10 -0.56
11 -0.68
12 -0.68
13 -0.68
14 -0.68
15 -0.04
16 0.16
19 0.09
2 -0.56
21 0.05
24 0.28
25 0.45
26 0.06
27 0.28
29 0.28
3 -0.43
30 0.46
32 0.06
33 0.72
36 0.66
37 -0.18
38 0.56
39 -0.15
4 -0.57
40 -0.01
41 0.28
42 -0.01
43 0.28
44 0.28
45 0.28
46 0.28
49 0.1
5 -0.56
6 -0.65
7 -0.57
75 0.5
76 0.15
77 0.15
79 0.15
8 -0.57
83 0.4
86 0.4
87 0.4
88 0.4
9 -0.28

> <PUBCHEM_EFFECTIVE_ROTOR_COUNT>
9.4

> <PUBCHEM_PHARMACOPHORE_FEATURES>
25
1 1 acceptor
1 10 acceptor
1 11 acceptor
1 11 donor
1 12 acceptor
1 12 donor
1 13 acceptor
1 13 donor
1 14 acceptor
1 14 donor
1 2 acceptor
1 4 acceptor
1 5 acceptor
1 6 acceptor
1 7 acceptor
1 8 acceptor
1 9 acceptor
3 27 34 35 hydrophobe
3 6 7 33 anion
5 2 18 20 24 27 rings
5 9 37 39 40 42 rings
6 10 38 41 43 44 45 rings
6 15 16 17 19 22 23 rings
6 16 17 18 20 25 26 rings
6 3 18 24 29 32 36 rings

> <PUBCHEM_HEAVY_ATOM_COUNT>
46

> <PUBCHEM_ATOM_DEF_STEREO_COUNT>
14

> <PUBCHEM_ATOM_UDEF_STEREO_COUNT>
0

> <PUBCHEM_BOND_DEF_STEREO_COUNT>
0

> <PUBCHEM_BOND_UDEF_STEREO_COUNT>
0

> <PUBCHEM_ISOTOPIC_ATOM_COUNT>
0

> <PUBCHEM_COMPONENT_COUNT>
1

> <PUBCHEM_CACTVS_TAUTO_COUNT>
2

> <PUBCHEM_CONFORMER_ID>
017ABC1100000001

> <PUBCHEM_MMFF94_ENERGY>
179.9144

> <PUBCHEM_FEATURE_SELFOVERLAP>
127.438

> <PUBCHEM_SHAPE_FINGERPRINT>
10670039 82 18407762538700005249
10674148 151 18059576859476139104
10906281 52 18335692888456372577
10930396 42 16733565887849547178
11007060 377 18269834233375174240
11578080 2 18115855443141447635
117089 54 5616388485840707341
12166972 35 6555415344780788450
12422481 6 18272373109219298246
13726171 33 18337940217040947712
13782708 43 17168148892628017335
13811026 1 18040718107800736526
14747281 78 17313661672253371745
14856354 85 18261393309137839655
15082195 135 18260841405761526589
15183329 4 18343022185912436668
1577012 14 18412823603449382396
15840311 113 17132119039279188063
17349148 13 18338813255918157747
17980427 23 18272643528802801589
18608769 82 18334851668379400083
18681886 176 18262244317551689993
19309040 13 17271704115696331068
19315092 285 6988055514084953044
20511986 3 17774454779997149205
21033648 29 17531263728671577945
21033650 10 17967531281746996673
23191077 185 18263371291532516988
23559900 14 18043252542612233631
3633792 109 17417266415307942575
4169191 19 18343865519562056292
44802255 64 17972863784335006798
5265222 85 17970064449152744836
6086070 43 16733273434123583067
6328613 192 18272091591076590978
6523845 18 17240760649796760699

> <PUBCHEM_SHAPE_MULTIPOLES>
864.49
18.36
3.28
2.67
7.64
0.2
1.04
9.78
-3.05
-1.83
-0.87
1.94
-0.6
-3.11

> <PUBCHEM_SHAPE_SELFOVERLAP>
1888.869

> <PUBCHEM_SHAPE_VOLUME>
464.1

> <PUBCHEM_COORDINATE_TYPE>
2
5
10

$$$$

