3317
  -OEChem-06251223202D

 78 81  0     1  0  0  0  0  0999 V2000
    5.6973    0.8376    0.0000 O   0  0  0  0  0  0  0  0  0  0  0  0
    5.4795    3.9058    0.0000 O   0  0  0  0  0  0  0  0  0  0  0  0
    7.4049    6.0105    0.0000 O   0  0  0  0  0  0  0  0  0  0  0  0
    6.5814    6.9938    0.0000 O   0  0  0  0  0  0  0  0  0  0  0  0
    6.6840   -0.5859    0.0000 O   0  0  0  0  0  0  0  0  0  0  0  0
   10.0600    3.9363    0.0000 O   0  0  0  0  0  0  0  0  0  0  0  0
    7.3752    2.0007    0.0000 C   0  0  3  0  0  0  0  0  0  0  0  0
    6.5192    1.4073    0.0000 C   0  0  3  0  0  0  0  0  0  0  0  0
    7.4614    0.9621    0.0000 C   0  0  0  0  0  0  0  0  0  0  0  0
    7.2814    3.0381    0.0000 C   0  0  3  0  0  0  0  0  0  0  0  0
    6.3804    3.4719    0.0000 C   0  0  3  0  0  0  0  0  0  0  0  0
    5.5807    1.8592    0.0000 C   0  0  0  0  0  0  0  0  0  0  0  0
    5.5108    2.8985    0.0000 C   0  0  3  0  0  0  0  0  0  0  0  0
    8.4580    1.0446    0.0000 C   0  0  0  0  0  0  0  0  0  0  0  0
    7.0345    0.0579    0.0000 C   0  0  0  0  0  0  0  0  0  0  0  0
    6.1579    4.4469    0.0000 C   0  0  3  0  0  0  0  0  0  0  0  0
    8.1824    3.4719    0.0000 C   0  0  0  0  0  0  0  0  0  0  0  0
    6.7814    5.2287    0.0000 C   0  0  3  0  0  0  0  0  0  0  0  0
    4.5128    2.8353    0.0000 C   0  0  0  0  0  0  0  0  0  0  0  0
    8.4049    4.4469    0.0000 C   0  0  0  0  0  0  0  0  0  0  0  0
    7.7814    5.2287    0.0000 C   0  0  0  0  0  0  0  0  0  0  0  0
    5.2281    4.7986    0.0000 C   0  0  0  0  0  0  0  0  0  0  0  0
    6.2316    6.0569    0.0000 C   0  0  0  0  0  0  0  0  0  0  0  0
    5.7797   -0.1590    0.0000 C   0  0  0  0  0  0  0  0  0  0  0  0
    5.2736    5.7916    0.0000 C   0  0  0  0  0  0  0  0  0  0  0  0
    9.3798    4.6694    0.0000 C   0  0  0  0  0  0  0  0  0  0  0  0
    4.9578   -0.7287    0.0000 C   0  0  0  0  0  0  0  0  0  0  0  0
    4.4918    6.4151    0.0000 C   0  0  0  0  0  0  0  0  0  0  0  0
    5.0402   -1.7253    0.0000 C   0  0  0  0  0  0  0  0  0  0  0  0
    4.2184   -2.2949    0.0000 C   0  0  0  0  0  0  0  0  0  0  0  0
    4.3008   -3.2915    0.0000 C   0  0  0  0  0  0  0  0  0  0  0  0
    3.4789   -3.8612    0.0000 C   0  0  0  0  0  0  0  0  0  0  0  0
    3.5613   -4.8578    0.0000 C   0  0  0  0  0  0  0  0  0  0  0  0
    2.7395   -5.4275    0.0000 C   0  0  0  0  0  0  0  0  0  0  0  0
    2.8219   -6.4241    0.0000 C   0  0  0  0  0  0  0  0  0  0  0  0
    2.0000   -6.9938    0.0000 C   0  0  0  0  0  0  0  0  0  0  0  0
    8.2221    2.0741    0.0000 H   0  0  0  0  0  0  0  0  0  0  0  0
    8.0208    2.6188    0.0000 H   0  0  0  0  0  0  0  0  0  0  0  0
    4.9641    1.9241    0.0000 H   0  0  0  0  0  0  0  0  0  0  0  0
    5.4112    1.2628    0.0000 H   0  0  0  0  0  0  0  0  0  0  0  0
    5.2410    3.7045    0.0000 H   0  0  0  0  0  0  0  0  0  0  0  0
    8.5091    0.4267    0.0000 H   0  0  0  0  0  0  0  0  0  0  0  0
    9.0759    1.0956    0.0000 H   0  0  0  0  0  0  0  0  0  0  0  0
    8.4069    1.6624    0.0000 H   0  0  0  0  0  0  0  0  0  0  0  0
    6.4738    0.3225    0.0000 H   0  0  0  0  0  0  0  0  0  0  0  0
    6.7698   -0.5028    0.0000 H   0  0  0  0  0  0  0  0  0  0  0  0
    7.5951   -0.2068    0.0000 H   0  0  0  0  0  0  0  0  0  0  0  0
    5.5171    3.8884    0.0000 H   0  0  0  0  0  0  0  0  0  0  0  0
    8.6671    3.0854    0.0000 H   0  0  0  0  0  0  0  0  0  0  0  0
    4.4737    3.4541    0.0000 H   0  0  0  0  0  0  0  0  0  0  0  0
    3.8941    2.7961    0.0000 H   0  0  0  0  0  0  0  0  0  0  0  0
    4.5520    2.2165    0.0000 H   0  0  0  0  0  0  0  0  0  0  0  0
    4.8612    3.8595    0.0000 H   0  0  0  0  0  0  0  0  0  0  0  0
    8.3400    5.4977    0.0000 H   0  0  0  0  0  0  0  0  0  0  0  0
    7.6434    5.8332    0.0000 H   0  0  0  0  0  0  0  0  0  0  0  0
    4.7101    4.4579    0.0000 H   0  0  0  0  0  0  0  0  0  0  0  0
    8.0180    5.9181    0.0000 H   0  0  0  0  0  0  0  0  0  0  0  0
    9.9006    5.0058    0.0000 H   0  0  0  0  0  0  0  0  0  0  0  0
    9.1390    5.2407    0.0000 H   0  0  0  0  0  0  0  0  0  0  0  0
    4.6985   -0.1655    0.0000 H   0  0  0  0  0  0  0  0  0  0  0  0
    4.3582   -0.8863    0.0000 H   0  0  0  0  0  0  0  0  0  0  0  0
    4.8783    6.8998    0.0000 H   0  0  0  0  0  0  0  0  0  0  0  0
    4.0070    6.8017    0.0000 H   0  0  0  0  0  0  0  0  0  0  0  0
    4.1052    5.9304    0.0000 H   0  0  0  0  0  0  0  0  0  0  0  0
   10.6644    4.0743    0.0000 H   0  0  0  0  0  0  0  0  0  0  0  0
    5.6009   -1.9900    0.0000 H   0  0  0  0  0  0  0  0  0  0  0  0
    3.6577   -2.0302    0.0000 H   0  0  0  0  0  0  0  0  0  0  0  0
    4.8614   -3.5562    0.0000 H   0  0  0  0  0  0  0  0  0  0  0  0
    2.9182   -3.5965    0.0000 H   0  0  0  0  0  0  0  0  0  0  0  0
    3.8207   -5.4210    0.0000 H   0  0  0  0  0  0  0  0  0  0  0  0
    4.1610   -4.7002    0.0000 H   0  0  0  0  0  0  0  0  0  0  0  0
    2.4801   -4.8643    0.0000 H   0  0  0  0  0  0  0  0  0  0  0  0
    2.1398   -5.5851    0.0000 H   0  0  0  0  0  0  0  0  0  0  0  0
    3.0812   -6.9872    0.0000 H   0  0  0  0  0  0  0  0  0  0  0  0
    3.4215   -6.2665    0.0000 H   0  0  0  0  0  0  0  0  0  0  0  0
    1.6468   -6.4842    0.0000 H   0  0  0  0  0  0  0  0  0  0  0  0
    1.4904   -7.3470    0.0000 H   0  0  0  0  0  0  0  0  0  0  0  0
    2.3532   -7.5033    0.0000 H   0  0  0  0  0  0  0  0  0  0  0  0
  1  8  1  0  0  0  0
  1 24  1  0  0  0  0
  2 11  1  0  0  0  0
  2 53  1  0  0  0  0
  3 18  1  0  0  0  0
  3 57  1  0  0  0  0
  4 23  2  0  0  0  0
  5 24  2  0  0  0  0
  6 26  1  0  0  0  0
  6 65  1  0  0  0  0
  7  8  1  0  0  0  0
  7  9  1  0  0  0  0
  7 10  1  0  0  0  0
  7 37  1  0  0  0  0
  8  9  1  0  0  0  0
  8 12  1  0  0  0  0
  9 14  1  0  0  0  0
  9 15  1  0  0  0  0
 10 11  1  0  0  0  0
 10 17  1  0  0  0  0
 10 38  1  0  0  0  0
 11 13  1  0  0  0  0
 11 16  1  0  0  0  0
 12 13  1  0  0  0  0
 12 39  1  0  0  0  0
 12 40  1  0  0  0  0
 13 19  1  0  0  0  0
 13 41  1  0  0  0  0
 14 42  1  0  0  0  0
 14 43  1  0  0  0  0
 14 44  1  0  0  0  0
 15 45  1  0  0  0  0
 15 46  1  0  0  0  0
 15 47  1  0  0  0  0
 16 18  1  0  0  0  0
 16 22  1  0  0  0  0
 16 48  1  0  0  0  0
 17 20  2  0  0  0  0
 17 49  1  0  0  0  0
 18 21  1  0  0  0  0
 18 23  1  0  0  0  0
 19 50  1  0  0  0  0
 19 51  1  0  0  0  0
 19 52  1  0  0  0  0
 20 21  1  0  0  0  0
 20 26  1  0  0  0  0
 21 54  1  0  0  0  0
 21 55  1  0  0  0  0
 22 25  2  0  0  0  0
 22 56  1  0  0  0  0
 23 25  1  0  0  0  0
 24 27  1  0  0  0  0
 25 28  1  0  0  0  0
 26 58  1  0  0  0  0
 26 59  1  0  0  0  0
 27 29  1  0  0  0  0
 27 60  1  0  0  0  0
 27 61  1  0  0  0  0
 28 62  1  0  0  0  0
 28 63  1  0  0  0  0
 28 64  1  0  0  0  0
 29 30  2  3  0  0  0
 29 66  1  0  0  0  0
 30 31  1  0  0  0  0
 30 67  1  0  0  0  0
 31 32  2  3  0  0  0
 31 68  1  0  0  0  0
 32 33  1  0  0  0  0
 32 69  1  0  0  0  0
 33 34  1  0  0  0  0
 33 70  1  0  0  0  0
 33 71  1  0  0  0  0
 34 35  1  0  0  0  0
 34 72  1  0  0  0  0
 34 73  1  0  0  0  0
 35 36  1  0  0  0  0
 35 74  1  0  0  0  0
 35 75  1  0  0  0  0
 36 76  1  0  0  0  0
 36 77  1  0  0  0  0
 36 78  1  0  0  0  0
M  END
> <PUBCHEM_COMPOUND_CID>
3317

> <PUBCHEM_COMPOUND_CANONICALIZED>
1

> <PUBCHEM_CACTVS_COMPLEXITY>
1030

> <PUBCHEM_CACTVS_HBOND_ACCEPTOR>
6

> <PUBCHEM_CACTVS_HBOND_DONOR>
3

> <PUBCHEM_CACTVS_ROTATABLE_BOND>
9

> <PUBCHEM_CACTVS_SUBSKEYS>
AAADcfB4OAAAAAAAAAAAAAAAGAAAAQAAAAAwAAAABggAAACAAAAAGgAACAAAD0SggAICCAAABgCIAqDSCAIAAAAgAAAICAFAAEgIFBIAAQACUAAFwAAIkYPK7PyPgAAAAAAAAADCAAYAADAAAAAAAAAAAA==

> <PUBCHEM_IUPAC_INCHI>
InChI=1S/C30H42O6/c1-6-7-8-9-10-11-12-13-24(32)36-29-16-20(3)30(35)22(25(29)27(29,4)5)15-21(18-31)17-28(34)23(30)14-19(2)26(28)33/h9-12,14-15,20,22-23,25,31,34-35H,6-8,13,16-18H2,1-5H3

> <PUBCHEM_IUPAC_INCHIKEY>
AZEXNJIEBDRVJS-UHFFFAOYSA-N

> <PUBCHEM_XLOGP3_AA>
3.8

> <PUBCHEM_EXACT_MASS>
498.298139

> <PUBCHEM_MOLECULAR_FORMULA>
C30H42O6

> <PUBCHEM_MOLECULAR_WEIGHT>
498.65088

> <PUBCHEM_OPENEYE_CAN_SMILES>
CCCCC=CC=CCC(=O)OC12CC(C3(C(C1C2(C)C)C=C(CC4(C3C=C(C4=O)C)O)CO)O)C

> <PUBCHEM_OPENEYE_ISO_SMILES>
CCCCC=CC=CCC(=O)OC12CC(C3(C(C1C2(C)C)C=C(CC4(C3C=C(C4=O)C)O)CO)O)C

> <PUBCHEM_CACTVS_TPSA>
104

> <PUBCHEM_MONOISOTOPIC_WEIGHT>
498.298139

> <PUBCHEM_TOTAL_CHARGE>
0

> <PUBCHEM_HEAVY_ATOM_COUNT>
36

> <PUBCHEM_ATOM_DEF_STEREO_COUNT>
0

> <PUBCHEM_ATOM_UDEF_STEREO_COUNT>
7

> <PUBCHEM_BOND_DEF_STEREO_COUNT>
0

> <PUBCHEM_BOND_UDEF_STEREO_COUNT>
2

> <PUBCHEM_ISOTOPIC_ATOM_COUNT>
0

> <PUBCHEM_COMPONENT_COUNT>
1

> <PUBCHEM_CACTVS_TAUTO_COUNT>
3

> <PUBCHEM_COORDINATE_TYPE>
1
5
255

> <PUBCHEM_BONDANNOTATIONS>
8  1  3
10  38  3
13  41  3
16  48  3
11  2  3
29  30  1
18  3  3
31  32  1
7  37  3

$$$$

