5016
  -OEChem-06261200283D

 43 45  0     1  0  0  0  0  0999 V2000
   -2.3066    3.0974    1.9476 Br  0  0  0  0  0  0  0  0  0  0  0  0
    1.1192    3.7274   -1.9134 O   0  0  0  0  0  0  0  0  0  0  0  0
   -0.7056    4.6195   -0.0804 O   0  0  0  0  0  0  0  0  0  0  0  0
   -1.7772   -1.7310   -0.2627 N   0  0  2  0  0  0  0  0  0  0  0  0
    0.5612   -0.9313   -0.5530 C   0  0  1  0  0  0  0  0  0  0  0  0
   -0.3701   -2.0465   -0.0092 C   0  0  0  0  0  0  0  0  0  0  0  0
    0.1639    0.5326   -0.3519 C   0  0  0  0  0  0  0  0  0  0  0  0
   -2.3907   -0.9768    0.8413 C   0  0  0  0  0  0  0  0  0  0  0  0
   -1.4865    0.0496    1.5361 C   0  0  0  0  0  0  0  0  0  0  0  0
   -0.7809    0.9846    0.5906 C   0  0  0  0  0  0  0  0  0  0  0  0
    1.9945   -1.2076   -0.1069 C   0  0  0  0  0  0  0  0  0  0  0  0
   -2.5597   -2.9321   -0.5498 C   0  0  0  0  0  0  0  0  0  0  0  0
    0.7876    1.4869   -1.1856 C   0  0  0  0  0  0  0  0  0  0  0  0
   -1.0682    2.3599    0.6771 C   0  0  0  0  0  0  0  0  0  0  0  0
    0.4911    2.8457   -1.0886 C   0  0  0  0  0  0  0  0  0  0  0  0
    2.4512   -0.6862    1.0974 C   0  0  0  0  0  0  0  0  0  0  0  0
    2.8271   -1.9779   -0.9095 C   0  0  0  0  0  0  0  0  0  0  0  0
   -0.4384    3.2827   -0.1557 C   0  0  0  0  0  0  0  0  0  0  0  0
   -3.9644   -2.5941   -0.9446 C   0  0  0  0  0  0  0  0  0  0  0  0
    3.7610   -0.9388    1.5053 C   0  0  0  0  0  0  0  0  0  0  0  0
    4.1368   -2.2306   -0.5014 C   0  0  0  0  0  0  0  0  0  0  0  0
    4.6036   -1.7110    0.7060 C   0  0  0  0  0  0  0  0  0  0  0  0
   -5.0492   -3.0223   -0.2888 C   0  0  0  0  0  0  0  0  0  0  0  0
    0.5319   -1.0578   -1.6482 H   0  0  0  0  0  0  0  0  0  0  0  0
   -0.0869   -2.9709   -0.5343 H   0  0  0  0  0  0  0  0  0  0  0  0
   -0.1881   -2.2723    1.0498 H   0  0  0  0  0  0  0  0  0  0  0  0
   -2.7476   -1.6604    1.6241 H   0  0  0  0  0  0  0  0  0  0  0  0
   -3.2658   -0.4376    0.4569 H   0  0  0  0  0  0  0  0  0  0  0  0
   -0.7172   -0.4593    2.1316 H   0  0  0  0  0  0  0  0  0  0  0  0
   -2.0929    0.5433    2.2967 H   0  0  0  0  0  0  0  0  0  0  0  0
   -2.5417   -3.6255    0.3015 H   0  0  0  0  0  0  0  0  0  0  0  0
   -2.1146   -3.4649   -1.4000 H   0  0  0  0  0  0  0  0  0  0  0  0
    1.5169    1.1615   -1.9261 H   0  0  0  0  0  0  0  0  0  0  0  0
    1.8127   -0.0948    1.7463 H   0  0  0  0  0  0  0  0  0  0  0  0
    2.4747   -2.3899   -1.8509 H   0  0  0  0  0  0  0  0  0  0  0  0
   -4.1033   -1.9717   -1.8254 H   0  0  0  0  0  0  0  0  0  0  0  0
    4.1236   -0.5373    2.4471 H   0  0  0  0  0  0  0  0  0  0  0  0
    4.7930   -2.8325   -1.1233 H   0  0  0  0  0  0  0  0  0  0  0  0
    5.6231   -1.9085    1.0242 H   0  0  0  0  0  0  0  0  0  0  0  0
    0.7949    4.6219   -1.7100 H   0  0  0  0  0  0  0  0  0  0  0  0
   -1.3710    4.7600    0.6147 H   0  0  0  0  0  0  0  0  0  0  0  0
   -6.0412   -2.7462   -0.6290 H   0  0  0  0  0  0  0  0  0  0  0  0
   -4.9687   -3.6490    0.5924 H   0  0  0  0  0  0  0  0  0  0  0  0
  1 14  1  0  0  0  0
  2 15  1  0  0  0  0
  2 40  1  0  0  0  0
  3 18  1  0  0  0  0
  3 41  1  0  0  0  0
  4  6  1  0  0  0  0
  4  8  1  0  0  0  0
  4 12  1  0  0  0  0
  5  6  1  0  0  0  0
  5  7  1  0  0  0  0
  5 11  1  0  0  0  0
  5 24  1  0  0  0  0
  6 25  1  0  0  0  0
  6 26  1  0  0  0  0
  7 10  1  0  0  0  0
  7 13  2  0  0  0  0
  8  9  1  0  0  0  0
  8 27  1  0  0  0  0
  8 28  1  0  0  0  0
  9 10  1  0  0  0  0
  9 29  1  0  0  0  0
  9 30  1  0  0  0  0
 10 14  2  0  0  0  0
 11 16  2  0  0  0  0
 11 17  1  0  0  0  0
 12 19  1  0  0  0  0
 12 31  1  0  0  0  0
 12 32  1  0  0  0  0
 13 15  1  0  0  0  0
 13 33  1  0  0  0  0
 14 18  1  0  0  0  0
 15 18  2  0  0  0  0
 16 20  1  0  0  0  0
 16 34  1  0  0  0  0
 17 21  2  0  0  0  0
 17 35  1  0  0  0  0
 19 23  2  0  0  0  0
 19 36  1  0  0  0  0
 20 22  2  0  0  0  0
 20 37  1  0  0  0  0
 21 22  1  0  0  0  0
 21 38  1  0  0  0  0
 22 39  1  0  0  0  0
 23 42  1  0  0  0  0
 23 43  1  0  0  0  0
M  END
> <PUBCHEM_COMPOUND_CID>
5016

> <PUBCHEM_CONFORMER_RMSD>
0.6

> <PUBCHEM_CONFORMER_DIVERSEORDER>
5
24
8
6
26
29
2
39
34
17
11
15
4
22
36
14
9
10
3
23
19
27
7
37
31
1
25
21
33
35
38
28
16
13
30
18
12
20
32
40

> <PUBCHEM_MMFF94_PARTIAL_CHARGES>
34
1 -0.11
10 -0.14
11 -0.14
12 0.41
13 -0.15
14 0.11
15 0.08
16 -0.15
17 -0.15
18 0.08
19 -0.29
2 -0.53
20 -0.15
21 -0.15
22 -0.15
23 -0.3
3 -0.53
33 0.15
34 0.15
35 0.15
36 0.15
37 0.15
38 0.15
39 0.15
4 -0.81
40 0.45
41 0.45
42 0.15
43 0.15
5 0.29
6 0.27
7 -0.14
8 0.27
9 0.14

> <PUBCHEM_EFFECTIVE_ROTOR_COUNT>
4

> <PUBCHEM_PHARMACOPHORE_FEATURES>
8
1 1 hydrophobe
1 2 donor
1 23 hydrophobe
1 3 donor
1 4 cation
6 11 16 17 20 21 22 rings
6 7 10 13 14 15 18 rings
7 4 5 6 7 8 9 10 rings

> <PUBCHEM_HEAVY_ATOM_COUNT>
23

> <PUBCHEM_ATOM_DEF_STEREO_COUNT>
0

> <PUBCHEM_ATOM_UDEF_STEREO_COUNT>
1

> <PUBCHEM_BOND_DEF_STEREO_COUNT>
0

> <PUBCHEM_BOND_UDEF_STEREO_COUNT>
0

> <PUBCHEM_ISOTOPIC_ATOM_COUNT>
0

> <PUBCHEM_COMPONENT_COUNT>
1

> <PUBCHEM_CACTVS_TAUTO_COUNT>
31

> <PUBCHEM_CONFORMER_ID>
0000139800000005

> <PUBCHEM_MMFF94_ENERGY>
75.0709

> <PUBCHEM_FEATURE_SELFOVERLAP>
40.609

> <PUBCHEM_SHAPE_FINGERPRINT>
10165383 225 17613137986361482416
11045515 52 18343312443844372103
11115154 58 17534098309437015581
11265709 11 18410293575427428363
11578080 2 16055447493521738143
11833330 49 18339932600945504867
12293681 160 17253686306144603545
12553582 1 18340469098190620942
13004483 165 18337408083488437194
13083527 12 18337679594377631416
13134695 92 17971211230869087015
13140716 1 18341040891291027979
13294875 104 17251748958055387177
133893 2 17984969415176529825
13681431 1 18198908006853240926
13757389 114 17975948162958024228
13955234 65 17836085572605569211
14178000 15 18264772064961561327
14955137 171 17831585271481095682
15420108 30 17902752484080810585
17357779 13 18189640330595807831
1813 80 18411141294565957734
21033648 29 17614570658845535240
21120745 212 18336531768821277708
21202864 24 18121491620917165960
21304303 172 18334012804761763043
21304303 282 17189310299769641142
21344244 78 18117000988044521563
21452121 199 18338801100211222387
21524375 3 17405990038242699986
22112679 90 18199165425939562478
23419403 2 17904523694169878609
23559900 14 18050015393737612995
23598288 3 17842819277928890398
238 59 16613090494925853372
394222 165 17261890853119978843
458136 41 16966596647367554920
5265222 85 17691658488637794846
621550 34 17112959228911281537
6442390 28 17687461686227250224
6443956 14 18265626385401417203
7399639 24 18042989635222469858
7471813 234 18189905223220772655
7808743 9 18196083581416158644
81228 2 18340487871418429226
84936 182 17615969911739813127
9925002 15 18339907307719763580
9981440 41 16973953467290829544

> <PUBCHEM_SHAPE_MULTIPOLES>
462.55
6.85
5.62
1.53
4.32
3.69
0.2
-8.31
1.41
-6.42
-1.77
0.06
1.08
-1.71

> <PUBCHEM_SHAPE_SELFOVERLAP>
977.722

> <PUBCHEM_SHAPE_VOLUME>
263.5

> <PUBCHEM_COORDINATE_TYPE>
2
5
10

$$$$

