7857
  -OEChem-06261202243D

  7  6  0     0  0  0  0  0  0999 V2000
   -1.6447    0.4873    0.0000 O   0  0  0  0  0  0  0  0  0  0  0  0
    1.7400    0.2501    0.0000 N   0  0  0  0  0  0  0  0  0  0  0  0
   -0.7387   -0.6083    0.0000 C   0  0  0  0  0  0  0  0  0  0  0  0
    0.6434   -0.1291    0.0000 C   0  0  0  0  0  0  0  0  0  0  0  0
   -0.9339   -1.2168   -0.8883 H   0  0  0  0  0  0  0  0  0  0  0  0
   -0.9339   -1.2169    0.8881 H   0  0  0  0  0  0  0  0  0  0  0  0
   -2.5430    0.1149    0.0000 H   0  0  0  0  0  0  0  0  0  0  0  0
  1  3  1  0  0  0  0
  1  7  1  0  0  0  0
  2  4  3  0  0  0  0
  3  4  1  0  0  0  0
  3  5  1  0  0  0  0
  3  6  1  0  0  0  0
M  END
> <PUBCHEM_COMPOUND_CID>
7857

> <PUBCHEM_CONFORMER_RMSD>
0.4

> <PUBCHEM_CONFORMER_DIVERSEORDER>
1

> <PUBCHEM_MMFF94_PARTIAL_CHARGES>
5
1 -0.68
2 -0.56
3 0.48
4 0.36
7 0.4

> <PUBCHEM_EFFECTIVE_ROTOR_COUNT>
0

> <PUBCHEM_PHARMACOPHORE_FEATURES>
3
1 1 acceptor
1 1 donor
1 2 acceptor

> <PUBCHEM_HEAVY_ATOM_COUNT>
4

> <PUBCHEM_ATOM_DEF_STEREO_COUNT>
0

> <PUBCHEM_ATOM_UDEF_STEREO_COUNT>
0

> <PUBCHEM_BOND_DEF_STEREO_COUNT>
0

> <PUBCHEM_BOND_UDEF_STEREO_COUNT>
0

> <PUBCHEM_ISOTOPIC_ATOM_COUNT>
0

> <PUBCHEM_COMPONENT_COUNT>
1

> <PUBCHEM_CACTVS_TAUTO_COUNT>
1

> <PUBCHEM_CONFORMER_ID>
00001EB100000001

> <PUBCHEM_MMFF94_ENERGY>
0.6744

> <PUBCHEM_FEATURE_SELFOVERLAP>
15.223

> <PUBCHEM_SHAPE_FINGERPRINT>
139733 1 18410856581204322823
21015797 1 18126000464420023318
5460574 1 18410856572572190214

> <PUBCHEM_SHAPE_MULTIPOLES>
71.47
2.06
0.74
0.57
0.17
0.06
0
-0.38
0
-0.15
0
0
0.02
0

> <PUBCHEM_SHAPE_SELFOVERLAP>
120.988

> <PUBCHEM_SHAPE_VOLUME>
46.4

> <PUBCHEM_COORDINATE_TYPE>
2
5
10

$$$$

