73337
  -OEChem-07051212573D

 49 52  0     1  0  0  0  0  0999 V2000
   -1.2827   -2.4793   -0.6528 O   0  0  0  0  0  0  0  0  0  0  0  0
    0.8408   -4.0754   -0.4886 O   0  0  0  0  0  0  0  0  0  0  0  0
   -2.7609   -1.2370    0.7436 O   0  0  0  0  0  0  0  0  0  0  0  0
   -4.7796    0.4914    0.5474 O   0  0  0  0  0  0  0  0  0  0  0  0
    2.9663    2.0435    0.0711 N   0  3  0  0  0  0  0  0  0  0  0  0
    1.5201    1.5098    0.3088 C   0  0  2  0  0  0  0  0  0  0  0  0
    3.9403    1.0874    0.7798 C   0  0  0  0  0  0  0  0  0  0  0  0
    1.3424    0.0134    0.0838 C   0  0  0  0  0  0  0  0  0  0  0  0
    0.4823    2.3038   -0.5086 C   0  0  0  0  0  0  0  0  0  0  0  0
    3.8595   -0.3184    0.2006 C   0  0  0  0  0  0  0  0  0  0  0  0
    2.4567   -0.8460    0.0771 C   0  0  0  0  0  0  0  0  0  0  0  0
    3.1396    3.4227    0.7230 C   0  0  0  0  0  0  0  0  0  0  0  0
    3.3262    2.1747   -1.4099 C   0  0  0  0  0  0  0  0  0  0  0  0
    0.0272   -0.5043   -0.0491 C   0  0  0  0  0  0  0  0  0  0  0  0
   -0.9163    1.8032   -0.2219 C   0  0  0  0  0  0  0  0  0  0  0  0
   -1.1304    0.4226   -0.0088 C   0  0  0  0  0  0  0  0  0  0  0  0
    2.2669   -2.2196   -0.1104 C   0  0  0  0  0  0  0  0  0  0  0  0
   -0.1202   -1.8901   -0.2347 C   0  0  0  0  0  0  0  0  0  0  0  0
    0.9868   -2.7379   -0.2654 C   0  0  0  0  0  0  0  0  0  0  0  0
   -1.9911    2.7053   -0.2207 C   0  0  0  0  0  0  0  0  0  0  0  0
   -2.4471   -0.0010    0.2460 C   0  0  0  0  0  0  0  0  0  0  0  0
   -3.5115    0.9052    0.2621 C   0  0  0  0  0  0  0  0  0  0  0  0
   -3.2848    2.2559    0.0239 C   0  0  0  0  0  0  0  0  0  0  0  0
    0.6560   -4.9055    0.6555 C   0  0  0  0  0  0  0  0  0  0  0  0
   -5.5864    0.0754   -0.5517 C   0  0  0  0  0  0  0  0  0  0  0  0
    1.3328    1.6752    1.3803 H   0  0  0  0  0  0  0  0  0  0  0  0
    3.6703    1.0876    1.8435 H   0  0  0  0  0  0  0  0  0  0  0  0
    4.9526    1.4946    0.6755 H   0  0  0  0  0  0  0  0  0  0  0  0
    0.6473    2.1947   -1.5874 H   0  0  0  0  0  0  0  0  0  0  0  0
    0.5385    3.3695   -0.2653 H   0  0  0  0  0  0  0  0  0  0  0  0
    4.4425   -0.9847    0.8489 H   0  0  0  0  0  0  0  0  0  0  0  0
    4.3318   -0.3471   -0.7886 H   0  0  0  0  0  0  0  0  0  0  0  0
    2.8612    3.3476    1.7780 H   0  0  0  0  0  0  0  0  0  0  0  0
    4.1889    3.7181    0.6256 H   0  0  0  0  0  0  0  0  0  0  0  0
    2.5041    4.1454    0.2063 H   0  0  0  0  0  0  0  0  0  0  0  0
    3.0568    1.2536   -1.9317 H   0  0  0  0  0  0  0  0  0  0  0  0
    2.7764    3.0204   -1.8324 H   0  0  0  0  0  0  0  0  0  0  0  0
    4.4016    2.3614   -1.4864 H   0  0  0  0  0  0  0  0  0  0  0  0
    3.1259   -2.8861   -0.1466 H   0  0  0  0  0  0  0  0  0  0  0  0
   -1.8224    3.7631   -0.4053 H   0  0  0  0  0  0  0  0  0  0  0  0
   -4.1076    2.9652    0.0368 H   0  0  0  0  0  0  0  0  0  0  0  0
   -1.1364   -3.4282   -0.8065 H   0  0  0  0  0  0  0  0  0  0  0  0
   -3.7135   -1.2852    0.9319 H   0  0  0  0  0  0  0  0  0  0  0  0
   -0.2377   -4.6054    1.2119 H   0  0  0  0  0  0  0  0  0  0  0  0
    1.5353   -4.8605    1.3059 H   0  0  0  0  0  0  0  0  0  0  0  0
    0.5257   -5.9360    0.3141 H   0  0  0  0  0  0  0  0  0  0  0  0
   -6.5540   -0.2523   -0.1621 H   0  0  0  0  0  0  0  0  0  0  0  0
   -5.1199   -0.7623   -1.0800 H   0  0  0  0  0  0  0  0  0  0  0  0
   -5.7509    0.9090   -1.2418 H   0  0  0  0  0  0  0  0  0  0  0  0
  1 18  1  0  0  0  0
  1 42  1  0  0  0  0
  2 19  1  0  0  0  0
  2 24  1  0  0  0  0
  3 21  1  0  0  0  0
  3 43  1  0  0  0  0
  4 22  1  0  0  0  0
  4 25  1  0  0  0  0
  5  6  1  0  0  0  0
  5  7  1  0  0  0  0
  5 12  1  0  0  0  0
  5 13  1  0  0  0  0
  6  8  1  0  0  0  0
  6  9  1  0  0  0  0
  6 26  1  0  0  0  0
  7 10  1  0  0  0  0
  7 27  1  0  0  0  0
  7 28  1  0  0  0  0
  8 11  1  0  0  0  0
  8 14  2  0  0  0  0
  9 15  1  0  0  0  0
  9 29  1  0  0  0  0
  9 30  1  0  0  0  0
 10 11  1  0  0  0  0
 10 31  1  0  0  0  0
 10 32  1  0  0  0  0
 11 17  2  0  0  0  0
 12 33  1  0  0  0  0
 12 34  1  0  0  0  0
 12 35  1  0  0  0  0
 13 36  1  0  0  0  0
 13 37  1  0  0  0  0
 13 38  1  0  0  0  0
 14 16  1  0  0  0  0
 14 18  1  0  0  0  0
 15 16  2  0  0  0  0
 15 20  1  0  0  0  0
 16 21  1  0  0  0  0
 17 19  1  0  0  0  0
 17 39  1  0  0  0  0
 18 19  2  0  0  0  0
 20 23  2  0  0  0  0
 20 40  1  0  0  0  0
 21 22  2  0  0  0  0
 22 23  1  0  0  0  0
 23 41  1  0  0  0  0
 24 44  1  0  0  0  0
 24 45  1  0  0  0  0
 24 46  1  0  0  0  0
 25 47  1  0  0  0  0
 25 48  1  0  0  0  0
 25 49  1  0  0  0  0
M  CHG  1   5   1
M  END
> <PUBCHEM_COMPOUND_CID>
73337

> <PUBCHEM_CONFORMER_RMSD>
0.6

> <PUBCHEM_CONFORMER_DIVERSEORDER>
1
4
3
2

> <PUBCHEM_MMFF94_PARTIAL_CHARGES>
28
1 -0.53
10 0.14
11 -0.14
12 0.5
13 0.5
15 -0.14
17 -0.15
18 0.08
19 0.08
2 -0.36
20 -0.15
21 0.08
22 0.08
23 -0.15
24 0.28
25 0.28
3 -0.53
39 0.15
4 -0.36
40 0.15
41 0.15
42 0.45
43 0.45
5 -1.01
6 0.65
7 0.5
8 -0.14
9 0.14

> <PUBCHEM_EFFECTIVE_ROTOR_COUNT>
2.8

> <PUBCHEM_PHARMACOPHORE_FEATURES>
9
1 1 donor
1 2 acceptor
1 3 donor
1 4 acceptor
1 5 cation
6 15 16 20 21 22 23 rings
6 5 6 7 8 10 11 rings
6 6 8 9 14 15 16 rings
6 8 11 14 17 18 19 rings

> <PUBCHEM_HEAVY_ATOM_COUNT>
25

> <PUBCHEM_ATOM_DEF_STEREO_COUNT>
1

> <PUBCHEM_ATOM_UDEF_STEREO_COUNT>
0

> <PUBCHEM_BOND_DEF_STEREO_COUNT>
0

> <PUBCHEM_BOND_UDEF_STEREO_COUNT>
0

> <PUBCHEM_ISOTOPIC_ATOM_COUNT>
0

> <PUBCHEM_COMPONENT_COUNT>
1

> <PUBCHEM_CACTVS_TAUTO_COUNT>
43

> <PUBCHEM_CONFORMER_ID>
00011E7900000001

> <PUBCHEM_MMFF94_ENERGY>
117.8271

> <PUBCHEM_FEATURE_SELFOVERLAP>
45.787

> <PUBCHEM_SHAPE_FINGERPRINT>
10074138 170 17761244049353320154
10090160 65 18411708677294328655
10411042 1 17617659199603092239
10616163 171 18412822469324347465
10906281 52 18271507751004063713
10967382 1 18410292557503919700
1100329 8 18409452462423198106
11370993 70 18408891706649575376
12107183 9 17396974035012326225
12173636 292 18265337213732523108
12403259 226 17837773687767286981
12553582 1 17038939010543007679
12592029 89 18409445916381082977
12788726 201 16901020095108903284
12839892 36 18339095846663206307
13140716 1 18410859823883772914
13583140 156 16987744366353655368
138480 1 17977947117988750186
14178342 30 18120663693072846040
14223421 5 18268429229461085461
14787075 74 17968384442266568497
14790565 3 18194955258462868301
14863182 85 18270666598443158325
15042514 8 17907297646469746186
16728300 4 17413058696067784858
16945 1 18338517563697643332
17138139 8 17462595835215684431
17492 89 18193840573163690539
19591789 44 18410007719736471996
19930381 70 18266743669687974265
20028762 73 18260276221818625383
20739085 24 18270661143576703497
20905425 154 17905323284068205326
21197605 99 18266169531904695867
21267235 1 18411410743681166729
21285901 2 17846788433775907541
21524375 3 18259985959238047646
221490 88 18051125088642598795
22149856 69 18339342108469049913
2334 1 18266741277301545542
23366157 5 18056752354735607311
23558518 356 18125996320325780721
23559900 14 18266748076271821889
2748010 2 18340196406263021604
3091708 16 9261933554792988554
335352 9 18409450255084295244
350125 39 18411418393408505892
5104073 3 18267019647396970065
6438718 38 17606958382704526582
7364860 26 18265331883778172772
7808743 9 17906452130771850240
81228 2 17614298666528573970
9709674 26 18268423723719226475

> <PUBCHEM_SHAPE_MULTIPOLES>
486.03
7.57
4.98
0.84
7.27
5.04
-0.08
-3.97
0.37
-3.18
0.1
-0.29
-0.17
0.06

> <PUBCHEM_SHAPE_SELFOVERLAP>
1066.946

> <PUBCHEM_SHAPE_VOLUME>
263.9

> <PUBCHEM_COORDINATE_TYPE>
2
5
10

$$$$

