442354
  -OEChem-07051212572D

 46 47  0     1  0  0  0  0  0999 V2000
    4.7717   -2.3688    0.0000 O   0  0  0  0  0  0  0  0  0  0  0  0
    4.5981    1.6160    0.0000 O   0  0  0  0  0  0  0  0  0  0  0  0
    4.5981   -3.1160    0.0000 O   0  0  0  0  0  0  0  0  0  0  0  0
    2.0000   -0.8840    0.0000 O   0  0  0  0  0  0  0  0  0  0  0  0
    2.8660    1.6160    0.0000 O   0  0  0  0  0  0  0  0  0  0  0  0
    5.4641   -0.8840    0.0000 C   0  0  2  0  0  0  0  0  0  0  0  0
    5.4641    0.1160    0.0000 C   0  0  2  0  0  0  0  0  0  0  0  0
    6.3580    0.6507    0.0000 C   0  0  0  0  0  0  0  0  0  0  0  0
    6.3580   -1.4186    0.0000 C   0  0  0  0  0  0  0  0  0  0  0  0
    4.5981   -1.3840    0.0000 C   0  0  1  0  0  0  0  0  0  0  0  0
    7.2641    0.1368    0.0000 C   0  0  0  0  0  0  0  0  0  0  0  0
    4.5981    0.6160    0.0000 C   0  0  1  0  0  0  0  0  0  0  0  0
    7.2641   -0.9048    0.0000 C   0  0  0  0  0  0  0  0  0  0  0  0
    5.8062   -1.8236    0.0000 C   0  0  0  0  0  0  0  0  0  0  0  0
    6.8480    1.5224    0.0000 C   0  0  0  0  0  0  0  0  0  0  0  0
    5.8481    1.5109    0.0000 C   0  0  0  0  0  0  0  0  0  0  0  0
    3.7320   -0.8840    0.0000 C   0  0  0  0  0  0  0  0  0  0  0  0
    3.7320    0.1160    0.0000 C   0  0  0  0  0  0  0  0  0  0  0  0
    4.0981   -2.2500    0.0000 C   0  0  0  0  0  0  0  0  0  0  0  0
    2.8660   -1.3840    0.0000 C   0  0  0  0  0  0  0  0  0  0  0  0
    3.7320    2.1160    0.0000 C   0  0  0  0  0  0  0  0  0  0  0  0
    3.7320    3.1160    0.0000 C   0  0  0  0  0  0  0  0  0  0  0  0
    5.4576    0.9660    0.0000 H   0  0  0  0  0  0  0  0  0  0  0  0
    5.9534   -1.8884    0.0000 H   0  0  0  0  0  0  0  0  0  0  0  0
    6.7517   -1.8976    0.0000 H   0  0  0  0  0  0  0  0  0  0  0  0
    7.8750    0.0307    0.0000 H   0  0  0  0  0  0  0  0  0  0  0  0
    7.4732    0.7205    0.0000 H   0  0  0  0  0  0  0  0  0  0  0  0
    5.1350    0.9260    0.0000 H   0  0  0  0  0  0  0  0  0  0  0  0
    7.4732   -1.4885    0.0000 H   0  0  0  0  0  0  0  0  0  0  0  0
    7.8750   -0.7987    0.0000 H   0  0  0  0  0  0  0  0  0  0  0  0
    5.2236   -2.0357    0.0000 H   0  0  0  0  0  0  0  0  0  0  0  0
    6.0183   -2.4062    0.0000 H   0  0  0  0  0  0  0  0  0  0  0  0
    6.3888   -1.6115    0.0000 H   0  0  0  0  0  0  0  0  0  0  0  0
    7.3885    1.2187    0.0000 H   0  0  0  0  0  0  0  0  0  0  0  0
    7.1518    2.0629    0.0000 H   0  0  0  0  0  0  0  0  0  0  0  0
    6.3075    1.8262    0.0000 H   0  0  0  0  0  0  0  0  0  0  0  0
    6.3814    1.8271    0.0000 H   0  0  0  0  0  0  0  0  0  0  0  0
    5.5319    2.0442    0.0000 H   0  0  0  0  0  0  0  0  0  0  0  0
    5.3148    1.1947    0.0000 H   0  0  0  0  0  0  0  0  0  0  0  0
    3.1951    0.4260    0.0000 H   0  0  0  0  0  0  0  0  0  0  0  0
    3.4781   -2.2500    0.0000 H   0  0  0  0  0  0  0  0  0  0  0  0
    5.3543   -2.5808    0.0000 H   0  0  0  0  0  0  0  0  0  0  0  0
    2.8660   -2.0040    0.0000 H   0  0  0  0  0  0  0  0  0  0  0  0
    4.3520    3.1160    0.0000 H   0  0  0  0  0  0  0  0  0  0  0  0
    3.7320    3.7360    0.0000 H   0  0  0  0  0  0  0  0  0  0  0  0
    3.1120    3.1160    0.0000 H   0  0  0  0  0  0  0  0  0  0  0  0
 10  1  1  6  0  0  0
  1 42  1  0  0  0  0
 12  2  1  1  0  0  0
  2 21  1  0  0  0  0
  3 19  2  0  0  0  0
  4 20  2  0  0  0  0
  5 21  2  0  0  0  0
  6  7  1  0  0  0  0
  6  9  1  0  0  0  0
  6 10  1  0  0  0  0
  6 14  1  1  0  0  0
  7  8  1  0  0  0  0
  7 12  1  0  0  0  0
  7 23  1  6  0  0  0
  8 11  1  0  0  0  0
  8 15  1  0  0  0  0
  8 16  1  0  0  0  0
  9 13  1  0  0  0  0
  9 24  1  0  0  0  0
  9 25  1  0  0  0  0
 10 17  1  0  0  0  0
 10 19  1  0  0  0  0
 11 13  1  0  0  0  0
 11 26  1  0  0  0  0
 11 27  1  0  0  0  0
 12 18  1  0  0  0  0
 12 28  1  0  0  0  0
 13 29  1  0  0  0  0
 13 30  1  0  0  0  0
 14 31  1  0  0  0  0
 14 32  1  0  0  0  0
 14 33  1  0  0  0  0
 15 34  1  0  0  0  0
 15 35  1  0  0  0  0
 15 36  1  0  0  0  0
 16 37  1  0  0  0  0
 16 38  1  0  0  0  0
 16 39  1  0  0  0  0
 17 18  2  0  0  0  0
 17 20  1  0  0  0  0
 18 40  1  0  0  0  0
 19 41  1  0  0  0  0
 20 43  1  0  0  0  0
 21 22  1  0  0  0  0
 22 44  1  0  0  0  0
 22 45  1  0  0  0  0
 22 46  1  0  0  0  0
M  END
> <PUBCHEM_COMPOUND_CID>
442354

> <PUBCHEM_COMPOUND_CANONICALIZED>
1

> <PUBCHEM_CACTVS_COMPLEXITY>
535

> <PUBCHEM_CACTVS_HBOND_ACCEPTOR>
5

> <PUBCHEM_CACTVS_HBOND_DONOR>
1

> <PUBCHEM_CACTVS_ROTATABLE_BOND>
4

> <PUBCHEM_CACTVS_SUBSKEYS>
AAADceB4OAAAAAAAAAAAAAAAAAAAAAAAAAAwQAAAAAAAAACAAAAAGgAACAAAD1SggAICCAAABgCIAijSiAIAAAAgAAAACAFAAEgABBYAIQACUAAEoAAIMYPJzODPgAAAAAAAAAAAAAQAACAAAAAAAAAAAA==

> <PUBCHEM_IUPAC_OPENEYE_NAME>
[(1R,4S,4aS,8aS)-3,4-diformyl-4-hydroxy-4a,8,8-trimethyl-5,6,7,8a-tetrahydro-1H-naphthalen-1-yl] acetate

> <PUBCHEM_IUPAC_CAS_NAME>
acetic acid [(1R,4S,4aS,8aS)-3,4-diformyl-4-hydroxy-4a,8,8-trimethyl-5,6,7,8a-tetrahydro-1H-naphthalen-1-yl] ester

> <PUBCHEM_IUPAC_NAME>
[(1R,4S,4aS,8aS)-3,4-diformyl-4-hydroxy-4a,8,8-trimethyl-5,6,7,8a-tetrahydro-1H-naphthalen-1-yl] acetate

> <PUBCHEM_IUPAC_SYSTEMATIC_NAME>
[(1R,4S,4aS,8aS)-3,4-dimethanoyl-4a,8,8-trimethyl-4-oxidanyl-5,6,7,8a-tetrahydro-1H-naphthalen-1-yl] ethanoate

> <PUBCHEM_IUPAC_TRADITIONAL_NAME>
acetic acid [(1R,4S,4aS,8aS)-3,4-diformyl-4-hydroxy-4a,8,8-trimethyl-5,6,7,8a-tetrahydro-1H-naphthalen-1-yl] ester

> <PUBCHEM_IUPAC_INCHI>
InChI=1S/C17H24O5/c1-11(20)22-13-8-12(9-18)17(21,10-19)16(4)7-5-6-15(2,3)14(13)16/h8-10,13-14,21H,5-7H2,1-4H3/t13-,14+,16+,17-/m1/s1

> <PUBCHEM_IUPAC_INCHIKEY>
UKLMEFSRPRDOLD-YQFWSFKMSA-N

> <PUBCHEM_XLOGP3_AA>
2.3

> <PUBCHEM_EXACT_MASS>
308.162374

> <PUBCHEM_MOLECULAR_FORMULA>
C17H24O5

> <PUBCHEM_MOLECULAR_WEIGHT>
308.36946

> <PUBCHEM_OPENEYE_CAN_SMILES>
CC(=O)OC1C=C(C(C2(C1C(CCC2)(C)C)C)(C=O)O)C=O

> <PUBCHEM_OPENEYE_ISO_SMILES>
CC(=O)O[C@@H]1C=C([C@@]([C@@]2([C@@H]1C(CCC2)(C)C)C)(C=O)O)C=O

> <PUBCHEM_CACTVS_TPSA>
80.7

> <PUBCHEM_MONOISOTOPIC_WEIGHT>
308.162374

> <PUBCHEM_TOTAL_CHARGE>
0

> <PUBCHEM_HEAVY_ATOM_COUNT>
22

> <PUBCHEM_ATOM_DEF_STEREO_COUNT>
4

> <PUBCHEM_ATOM_UDEF_STEREO_COUNT>
0

> <PUBCHEM_BOND_DEF_STEREO_COUNT>
0

> <PUBCHEM_BOND_UDEF_STEREO_COUNT>
0

> <PUBCHEM_ISOTOPIC_ATOM_COUNT>
0

> <PUBCHEM_COMPONENT_COUNT>
1

> <PUBCHEM_CACTVS_TAUTO_COUNT>
1

> <PUBCHEM_COORDINATE_TYPE>
1
5
255

> <PUBCHEM_BONDANNOTATIONS>
10  1  6
12  2  5
6  14  5
7  23  6

$$$$

