7278
  -OEChem-06261201582D

  4  3  0     0  0  0  0  0  0999 V2000
    3.4030    0.5600    0.0000 Cl  0  0  0  0  0  0  0  0  0  0  0  0
    2.5369    0.0600    0.0000 Al  0  0  0  0  0  0  0  0  0  0  0  0
    2.0000    0.3700    0.0000 H   0  0  0  0  0  0  0  0  0  0  0  0
    2.5369   -0.5600    0.0000 H   0  0  0  0  0  0  0  0  0  0  0  0
  1  2  1  0  0  0  0
  2  3  1  0  0  0  0
  2  4  1  0  0  0  0
M  END
> <PUBCHEM_COMPOUND_CID>
7278

> <PUBCHEM_COMPOUND_CANONICALIZED>
1

> <PUBCHEM_CACTVS_COMPLEXITY>
2

> <PUBCHEM_CACTVS_HBOND_ACCEPTOR>
0

> <PUBCHEM_CACTVS_HBOND_DONOR>
0

> <PUBCHEM_CACTVS_ROTATABLE_BOND>
0

> <PUBCHEM_CACTVS_SUBSKEYS>
AAADcQAAAAAEABAAAAAAAAAAAAAAAAAAAAAAAAAAAAAAAAAAAAAAAAAAAAMAAAAAAAAAAAAAAAAAAAAAAAAAAAAAAAAAAAAAAAAAAAAAAAAAAAAAAAAAAAAAAAAAAAAAAAAAAAAAAAAAAAAAAAAAAAAAAA==

> <PUBCHEM_IUPAC_OPENEYE_NAME>
chloroalumane

> <PUBCHEM_IUPAC_CAS_NAME>
chloroalumane

> <PUBCHEM_IUPAC_NAME>
chloroalumane

> <PUBCHEM_IUPAC_SYSTEMATIC_NAME>
chloranylalumane

> <PUBCHEM_IUPAC_TRADITIONAL_NAME>
chloroalumane

> <PUBCHEM_IUPAC_INCHI>
InChI=1S/Al.ClH.2H/h;1H;;/q+1;;;/p-1

> <PUBCHEM_IUPAC_INCHIKEY>
SOGXWMAAMKKQCB-UHFFFAOYSA-M

> <PUBCHEM_EXACT_MASS>
63.966041

> <PUBCHEM_MOLECULAR_FORMULA>
AlClH2

> <PUBCHEM_MOLECULAR_WEIGHT>
64.450419

> <PUBCHEM_OPENEYE_CAN_SMILES>
[AlH2]Cl

> <PUBCHEM_OPENEYE_ISO_SMILES>
[AlH2]Cl

> <PUBCHEM_CACTVS_TPSA>
0

> <PUBCHEM_MONOISOTOPIC_WEIGHT>
63.966041

> <PUBCHEM_TOTAL_CHARGE>
0

> <PUBCHEM_HEAVY_ATOM_COUNT>
2

> <PUBCHEM_ATOM_DEF_STEREO_COUNT>
0

> <PUBCHEM_ATOM_UDEF_STEREO_COUNT>
0

> <PUBCHEM_BOND_DEF_STEREO_COUNT>
0

> <PUBCHEM_BOND_UDEF_STEREO_COUNT>
0

> <PUBCHEM_ISOTOPIC_ATOM_COUNT>
0

> <PUBCHEM_COMPONENT_COUNT>
1

> <PUBCHEM_CACTVS_TAUTO_COUNT>
1

> <PUBCHEM_COORDINATE_TYPE>
1
5
255

$$$$

