165581
  -OEChem-07051213103D

 32 32  0     0  0  0  0  0  0999 V2000
   -3.2287    2.0124    0.0630 O   0  0  0  0  0  0  0  0  0  0  0  0
   -4.4420   -0.4593    0.4407 O   0  0  0  0  0  0  0  0  0  0  0  0
    3.4158    0.0872    0.1679 N   0  3  0  0  0  0  0  0  0  0  0  0
    1.9519   -0.0508    0.5600 C   0  0  0  0  0  0  0  0  0  0  0  0
    1.0791   -0.1570   -0.6859 C   0  0  0  0  0  0  0  0  0  0  0  0
    4.2701    0.1886    1.4234 C   0  0  0  0  0  0  0  0  0  0  0  0
    3.8419   -1.1312   -0.6384 C   0  0  0  0  0  0  0  0  0  0  0  0
    3.5997    1.3420   -0.6734 C   0  0  0  0  0  0  0  0  0  0  0  0
   -0.3973   -0.2347   -0.3850 C   0  0  0  0  0  0  0  0  0  0  0  0
   -1.1362    0.9352   -0.3006 C   0  0  0  0  0  0  0  0  0  0  0  0
   -0.9892   -1.4742   -0.1982 C   0  0  0  0  0  0  0  0  0  0  0  0
   -2.5010    0.8638   -0.0222 C   0  0  0  0  0  0  0  0  0  0  0  0
   -2.3541   -1.5455    0.0803 C   0  0  0  0  0  0  0  0  0  0  0  0
   -3.1100   -0.3765    0.1683 C   0  0  0  0  0  0  0  0  0  0  0  0
    1.6854    0.8264    1.1623 H   0  0  0  0  0  0  0  0  0  0  0  0
    1.8566   -0.9426    1.1917 H   0  0  0  0  0  0  0  0  0  0  0  0
    1.2166    0.6948   -1.3597 H   0  0  0  0  0  0  0  0  0  0  0  0
    1.3306   -1.0444   -1.2773 H   0  0  0  0  0  0  0  0  0  0  0  0
    4.1235   -0.7199    2.0150 H   0  0  0  0  0  0  0  0  0  0  0  0
    5.3189    0.2849    1.1272 H   0  0  0  0  0  0  0  0  0  0  0  0
    3.9510    1.0700    1.9876 H   0  0  0  0  0  0  0  0  0  0  0  0
    3.3913   -1.1021   -1.6334 H   0  0  0  0  0  0  0  0  0  0  0  0
    4.9309   -1.0992   -0.7478 H   0  0  0  0  0  0  0  0  0  0  0  0
    3.5487   -2.0336   -0.0938 H   0  0  0  0  0  0  0  0  0  0  0  0
    3.1899    1.1908   -1.6748 H   0  0  0  0  0  0  0  0  0  0  0  0
    3.1164    2.1816   -0.1652 H   0  0  0  0  0  0  0  0  0  0  0  0
    4.6742    1.5318   -0.7648 H   0  0  0  0  0  0  0  0  0  0  0  0
   -0.6576    1.9001   -0.4466 H   0  0  0  0  0  0  0  0  0  0  0  0
   -0.4086   -2.3901   -0.2619 H   0  0  0  0  0  0  0  0  0  0  0  0
   -2.8225   -2.5147    0.2283 H   0  0  0  0  0  0  0  0  0  0  0  0
   -2.6422    2.7718   -0.0964 H   0  0  0  0  0  0  0  0  0  0  0  0
   -4.8060    0.4428    0.4643 H   0  0  0  0  0  0  0  0  0  0  0  0
  1 12  1  0  0  0  0
  1 31  1  0  0  0  0
  2 14  1  0  0  0  0
  2 32  1  0  0  0  0
  3  4  1  0  0  0  0
  3  6  1  0  0  0  0
  3  7  1  0  0  0  0
  3  8  1  0  0  0  0
  4  5  1  0  0  0  0
  4 15  1  0  0  0  0
  4 16  1  0  0  0  0
  5  9  1  0  0  0  0
  5 17  1  0  0  0  0
  5 18  1  0  0  0  0
  6 19  1  0  0  0  0
  6 20  1  0  0  0  0
  6 21  1  0  0  0  0
  7 22  1  0  0  0  0
  7 23  1  0  0  0  0
  7 24  1  0  0  0  0
  8 25  1  0  0  0  0
  8 26  1  0  0  0  0
  8 27  1  0  0  0  0
  9 10  2  0  0  0  0
  9 11  1  0  0  0  0
 10 12  1  0  0  0  0
 10 28  1  0  0  0  0
 11 13  2  0  0  0  0
 11 29  1  0  0  0  0
 12 14  2  0  0  0  0
 13 14  1  0  0  0  0
 13 30  1  0  0  0  0
M  CHG  1   3   1
M  END
> <PUBCHEM_COMPOUND_CID>
165581

> <PUBCHEM_CONFORMER_RMSD>
0.6

> <PUBCHEM_CONFORMER_DIVERSEORDER>
2
1

> <PUBCHEM_MMFF94_PARTIAL_CHARGES>
19
1 -0.53
10 -0.15
11 -0.15
12 0.08
13 -0.15
14 0.08
2 -0.53
28 0.15
29 0.15
3 -1.01
30 0.15
31 0.45
32 0.45
4 0.5
5 0.14
6 0.5
7 0.5
8 0.5
9 -0.14

> <PUBCHEM_EFFECTIVE_ROTOR_COUNT>
3

> <PUBCHEM_PHARMACOPHORE_FEATURES>
4
1 1 donor
1 2 donor
1 3 cation
6 9 10 11 12 13 14 rings

> <PUBCHEM_HEAVY_ATOM_COUNT>
14

> <PUBCHEM_ATOM_DEF_STEREO_COUNT>
0

> <PUBCHEM_ATOM_UDEF_STEREO_COUNT>
0

> <PUBCHEM_BOND_DEF_STEREO_COUNT>
0

> <PUBCHEM_BOND_UDEF_STEREO_COUNT>
0

> <PUBCHEM_ISOTOPIC_ATOM_COUNT>
0

> <PUBCHEM_COMPONENT_COUNT>
1

> <PUBCHEM_CACTVS_TAUTO_COUNT>
18

> <PUBCHEM_CONFORMER_ID>
000286CD00000002

> <PUBCHEM_MMFF94_ENERGY>
43.7417

> <PUBCHEM_FEATURE_SELFOVERLAP>
20.301

> <PUBCHEM_SHAPE_FINGERPRINT>
10608611 8 18333734628198466988
11132069 177 18409733958278386308
12119455 92 17240765111935192887
12251169 10 18341335517726591564
12507560 40 18260551143138848270
12932764 1 17458065928596795822
13024252 1 13758078502449659455
13581323 91 18412543197602543167
13675066 3 18259990387866300946
13897977 58 18341605967327334541
14144814 61 18202567284740301902
14289901 80 18410854330889516146
14325111 11 18410291432280380628
15219456 202 18114459062709579462
15669948 3 18337672992865548894
18186145 218 16298105376297514516
190213 19 18202285796852367598
19050596 39 18271249322409939082
19422 9 18131632274999991666
200 152 14764635204614313362
20279233 1 17603871087603795174
20510252 161 18334009523443568577
20528008 55 18334579027253228783
20645464 45 18040992960270016943
20645477 56 18187652379392053960
20645477 70 16515677871358136742
2255824 54 17346313766168368604
22854114 59 17676206844718587714
23048698 100 17489588939660131348
23402539 116 18336554846023353271
23557571 272 18188195568053441988
23559900 14 18263077872489068046
2748010 2 18123454236794330999
3248919 1 18339934740171404414
42 15 18342174479426960298
43471831 8 18201441432105240227
449060 50 18187088321748630816
474 4 16986861338716624532
5104073 3 18410855486209202834
5374978 207 18341896251360993096
573450 72 18200887235136224034
69090 78 18040438780561030759
77492 1 17632572734513180222
77779 3 18411696582729609678
90316 7 17917436470316905148

> <PUBCHEM_SHAPE_MULTIPOLES>
271.39
8.57
1.55
0.91
3.15
0.19
0.15
0.64
1.51
-0.8
-0.16
0.91
0.01
0.1

> <PUBCHEM_SHAPE_SELFOVERLAP>
547.14

> <PUBCHEM_SHAPE_VOLUME>
161.8

> <PUBCHEM_COORDINATE_TYPE>
2
5
10

$$$$

