10449
  -OEChem-06261204332D

 10  9  0     0  0  0  0  0  0999 V2000
    6.3301    0.0000    0.0000 F   0  0  0  0  0  0  0  0  0  0  0  0
    2.0000    0.5000    0.0000 O   0  0  0  0  0  0  0  0  0  0  0  0
    3.7320   -0.5000    0.0000 N   0  0  0  0  0  0  0  0  0  0  0  0
    4.5981    0.0000    0.0000 C   0  0  0  0  0  0  0  0  0  0  0  0
    5.4641   -0.5000    0.0000 C   0  0  0  0  0  0  0  0  0  0  0  0
    2.8660    0.0000    0.0000 C   0  0  0  0  0  0  0  0  0  0  0  0
    4.9966    0.4749    0.0000 H   0  0  0  0  0  0  0  0  0  0  0  0
    4.1996    0.4749    0.0000 H   0  0  0  0  0  0  0  0  0  0  0  0
    5.0656   -0.9749    0.0000 H   0  0  0  0  0  0  0  0  0  0  0  0
    5.8626   -0.9749    0.0000 H   0  0  0  0  0  0  0  0  0  0  0  0
  1  5  1  0  0  0  0
  2  6  2  0  0  0  0
  3  4  1  0  0  0  0
  3  6  2  0  0  0  0
  4  5  1  0  0  0  0
  4  7  1  0  0  0  0
  4  8  1  0  0  0  0
  5  9  1  0  0  0  0
  5 10  1  0  0  0  0
M  END
> <PUBCHEM_COMPOUND_CID>
10449

> <PUBCHEM_COMPOUND_CANONICALIZED>
1

> <PUBCHEM_CACTVS_COMPLEXITY>
67.2

> <PUBCHEM_CACTVS_HBOND_ACCEPTOR>
3

> <PUBCHEM_CACTVS_HBOND_DONOR>
0

> <PUBCHEM_CACTVS_ROTATABLE_BOND>
2

> <PUBCHEM_CACTVS_SUBSKEYS>
AAADcYBCIQAAAAAAAAAAAAAAAAAAAAAAAAAAAAAAAAAAAAAAAAAAHwAAAAAAAADBAAQAAAIAAAAoAAAAFAAAAAAAAAAAAAAAAAAAAAAAAAAAAAAAAAAAAAAAAAAAAAAAAAAAAAAAAAAAAAAAAAAAAAAAAA==

> <PUBCHEM_IUPAC_OPENEYE_NAME>
1-fluoro-2-isocyanato-ethane

> <PUBCHEM_IUPAC_CAS_NAME>
1-fluoro-2-isocyanatoethane

> <PUBCHEM_IUPAC_NAME>
1-fluoro-2-isocyanatoethane

> <PUBCHEM_IUPAC_SYSTEMATIC_NAME>
1-fluoranyl-2-isocyanato-ethane

> <PUBCHEM_IUPAC_TRADITIONAL_NAME>
1-fluoro-2-isocyanato-ethane

> <PUBCHEM_IUPAC_INCHI>
InChI=1S/C3H4FNO/c4-1-2-5-3-6/h1-2H2

> <PUBCHEM_IUPAC_INCHIKEY>
JNAJXLFIFYAWRN-UHFFFAOYSA-N

> <PUBCHEM_XLOGP3_AA>
1.3

> <PUBCHEM_EXACT_MASS>
89.027692

> <PUBCHEM_MOLECULAR_FORMULA>
C3H4FNO

> <PUBCHEM_MOLECULAR_WEIGHT>
89.068363

> <PUBCHEM_OPENEYE_CAN_SMILES>
C(CF)N=C=O

> <PUBCHEM_OPENEYE_ISO_SMILES>
C(CF)N=C=O

> <PUBCHEM_CACTVS_TPSA>
29.4

> <PUBCHEM_MONOISOTOPIC_WEIGHT>
89.027692

> <PUBCHEM_TOTAL_CHARGE>
0

> <PUBCHEM_HEAVY_ATOM_COUNT>
6

> <PUBCHEM_ATOM_DEF_STEREO_COUNT>
0

> <PUBCHEM_ATOM_UDEF_STEREO_COUNT>
0

> <PUBCHEM_BOND_DEF_STEREO_COUNT>
0

> <PUBCHEM_BOND_UDEF_STEREO_COUNT>
0

> <PUBCHEM_ISOTOPIC_ATOM_COUNT>
0

> <PUBCHEM_COMPONENT_COUNT>
1

> <PUBCHEM_CACTVS_TAUTO_COUNT>
1

> <PUBCHEM_COORDINATE_TYPE>
1
5
255

$$$$

