46173891
  -OEChem-07051213103D

 47 48  0     1  0  0  0  0  0999 V2000
   -2.4032    0.0744   -1.0111 O   0  0  0  0  0  0  0  0  0  0  0  0
   -1.2013    1.5105    2.1410 O   0  0  0  0  0  0  0  0  0  0  0  0
   -2.8592   -3.7378    0.5578 O   0  0  0  0  0  0  0  0  0  0  0  0
   -1.4677    4.3907    0.3444 O   0  0  0  0  0  0  0  0  0  0  0  0
    1.4708   -1.6232   -0.6210 O   0  0  0  0  0  0  0  0  0  0  0  0
    0.7312    4.0856    0.8142 O   0  0  0  0  0  0  0  0  0  0  0  0
    0.8486    1.2205   -2.3843 O   0  0  0  0  0  0  0  0  0  0  0  0
    4.2590   -2.0372   -1.0145 O   0  0  0  0  0  0  0  0  0  0  0  0
   -3.5605   -1.5040    0.2662 N   0  0  0  0  0  0  0  0  0  0  0  0
    0.7223    1.5652   -0.0939 N   0  0  0  0  0  0  0  0  0  0  0  0
    3.5663    1.4280   -0.4323 N   0  0  0  0  0  0  0  0  0  0  0  0
    3.0507   -2.4829    2.4600 N   0  0  0  0  0  0  0  0  0  0  0  0
   -3.4362   -0.9377   -1.0837 C   0  0  2  0  0  0  0  0  0  0  0  0
   -1.8466    0.0821    0.3330 C   0  0  2  0  0  0  0  0  0  0  0  0
   -2.8698   -0.6577    1.2202 C   0  0  0  0  0  0  0  0  0  0  0  0
   -3.0859   -2.3527   -1.5728 C   0  0  0  0  0  0  0  0  0  0  0  0
   -1.6035    1.5119    0.7720 C   0  0  2  0  0  0  0  0  0  0  0  0
   -3.1542   -2.7583   -0.0888 C   0  0  0  0  0  0  0  0  0  0  0  0
   -0.5610    2.2278   -0.0929 C   0  0  1  0  0  0  0  0  0  0  0  0
   -0.3307    3.6481    0.3902 C   0  0  0  0  0  0  0  0  0  0  0  0
    2.6667    0.4202   -0.9912 C   0  0  2  0  0  0  0  0  0  0  0  0
    1.3274    1.1110   -1.2566 C   0  0  0  0  0  0  0  0  0  0  0  0
    2.4556   -0.7688   -0.0295 C   0  0  2  0  0  0  0  0  0  0  0  0
    3.7364   -1.5907    0.2401 C   0  0  1  0  0  0  0  0  0  0  0  0
    3.5447   -2.8248    1.1335 C   0  0  0  0  0  0  0  0  0  0  0  0
   -4.3794   -0.5315   -1.4615 H   0  0  0  0  0  0  0  0  0  0  0  0
   -0.9213   -0.5046    0.3084 H   0  0  0  0  0  0  0  0  0  0  0  0
   -3.6132    0.0195    1.6515 H   0  0  0  0  0  0  0  0  0  0  0  0
   -2.3852   -1.2456    2.0048 H   0  0  0  0  0  0  0  0  0  0  0  0
   -3.8404   -2.8322   -2.2010 H   0  0  0  0  0  0  0  0  0  0  0  0
   -2.0937   -2.4646   -2.0168 H   0  0  0  0  0  0  0  0  0  0  0  0
   -2.5462    2.0701    0.7190 H   0  0  0  0  0  0  0  0  0  0  0  0
   -0.9215    2.3026   -1.1255 H   0  0  0  0  0  0  0  0  0  0  0  0
    1.2285    1.5132    0.7848 H   0  0  0  0  0  0  0  0  0  0  0  0
   -0.3737    1.0041    2.2065 H   0  0  0  0  0  0  0  0  0  0  0  0
    3.0480    0.0752   -1.9597 H   0  0  0  0  0  0  0  0  0  0  0  0
    2.0456   -0.4297    0.9270 H   0  0  0  0  0  0  0  0  0  0  0  0
    4.4990   -0.9479    0.6934 H   0  0  0  0  0  0  0  0  0  0  0  0
    2.8631   -3.5408    0.6592 H   0  0  0  0  0  0  0  0  0  0  0  0
    4.5042   -3.3466    1.2310 H   0  0  0  0  0  0  0  0  0  0  0  0
    4.4922    1.0261   -0.2948 H   0  0  0  0  0  0  0  0  0  0  0  0
    3.6895    2.1852   -1.1040 H   0  0  0  0  0  0  0  0  0  0  0  0
   -1.3225    5.3022    0.6765 H   0  0  0  0  0  0  0  0  0  0  0  0
    1.7802   -1.8730   -1.5079 H   0  0  0  0  0  0  0  0  0  0  0  0
    3.6489   -2.7014   -1.3770 H   0  0  0  0  0  0  0  0  0  0  0  0
    2.1080   -2.1028    2.3915 H   0  0  0  0  0  0  0  0  0  0  0  0
    2.9696   -3.3321    3.0181 H   0  0  0  0  0  0  0  0  0  0  0  0
  1 13  1  0  0  0  0
  1 14  1  0  0  0  0
  2 17  1  0  0  0  0
  2 35  1  0  0  0  0
  3 18  2  0  0  0  0
  4 20  1  0  0  0  0
  4 43  1  0  0  0  0
  5 23  1  0  0  0  0
  5 44  1  0  0  0  0
  6 20  2  0  0  0  0
  7 22  2  0  0  0  0
  8 24  1  0  0  0  0
  8 45  1  0  0  0  0
  9 13  1  0  0  0  0
  9 15  1  0  0  0  0
  9 18  1  0  0  0  0
 10 19  1  0  0  0  0
 10 22  1  0  0  0  0
 10 34  1  0  0  0  0
 11 21  1  0  0  0  0
 11 41  1  0  0  0  0
 11 42  1  0  0  0  0
 12 25  1  0  0  0  0
 12 46  1  0  0  0  0
 12 47  1  0  0  0  0
 13 16  1  0  0  0  0
 13 26  1  0  0  0  0
 14 15  1  0  0  0  0
 14 17  1  0  0  0  0
 14 27  1  0  0  0  0
 15 28  1  0  0  0  0
 15 29  1  0  0  0  0
 16 18  1  0  0  0  0
 16 30  1  0  0  0  0
 16 31  1  0  0  0  0
 17 19  1  0  0  0  0
 17 32  1  0  0  0  0
 19 20  1  0  0  0  0
 19 33  1  0  0  0  0
 21 22  1  0  0  0  0
 21 23  1  0  0  0  0
 21 36  1  0  0  0  0
 23 24  1  0  0  0  0
 23 37  1  0  0  0  0
 24 25  1  0  0  0  0
 24 38  1  0  0  0  0
 25 39  1  0  0  0  0
 25 40  1  0  0  0  0
M  END
> <PUBCHEM_COMPOUND_CID>
46173891

> <PUBCHEM_CONFORMER_RMSD>
1

> <PUBCHEM_CONFORMER_DIVERSEORDER>
1
270
295
64
39
302
54
208
205
277
129
184
140
75
274
49
57
145
247
311
136
215
45
206
242
3
186
150
289
285
152
267
249
281
292
79
218
211
62
160
110
134
123
213
224
118
265
158
228
20
236
170
99
272
246
50
222
141
268
305
22
256
304
187
156
10
48
104
9
135
83
106
190
115
191
193
94
276
111
269
239
296
254
165
220
283
71
248
72
309
149
203
8
217
41
233
76
181
290
315
33
232
168
185
202
293
264
40
286
278
24
15
210
162
244
183
53
154
214
263
310
235
262
250
275
17
88
300
166
175
234
196
23
26
174
133
138
201
52
312
96
87
261
122
46
209
119
299
301
303
137
70
314
219
63
107
194
241
78
229
259
182
105
212
85
100
143
95
308
109
225
27
189
131
148
84
298
273
253
307
155
124
230
19
260
164
92
297
197
29
44
28
77
227
80
51
43
226
198
221
35
73
271
117
125
243
4
195
98
288
171
139
237
284
172
255
42
280
159
231
167
207
2
108
147
86
127
126
161
132
178
121
177
180
36
69
66
173
128
258
216
112
169
116
93
153
306
179
266
61
103
157
223
251
257
67
7
204
142
163
58
31
200
90
144
287
120
199
313
240
91
21
192
81
65
291
294
60
6
14
97
101
146
55
188
279
245
37
176
32
282
102
59
113
114
56
11
252
16
82
238
89
25
5
18
130
12
34
68
13
47
38
151
74
30

> <PUBCHEM_MMFF94_PARTIAL_CHARGES>
34
1 -0.54
10 -0.73
11 -0.99
12 -0.99
13 0.48
14 0.28
15 0.3
16 0.05
17 0.28
18 0.58
19 0.36
2 -0.68
20 0.66
21 0.33
22 0.57
23 0.28
24 0.28
25 0.27
3 -0.57
34 0.37
35 0.4
4 -0.65
41 0.36
42 0.36
43 0.5
44 0.4
45 0.4
46 0.36
47 0.36
5 -0.68
6 -0.57
7 -0.57
8 -0.68
9 -0.59

> <PUBCHEM_EFFECTIVE_ROTOR_COUNT>
9.8

> <PUBCHEM_PHARMACOPHORE_FEATURES>
18
1 1 acceptor
1 10 donor
1 11 cation
1 11 donor
1 12 cation
1 12 donor
1 2 acceptor
1 2 donor
1 3 acceptor
1 4 acceptor
1 5 acceptor
1 5 donor
1 6 acceptor
1 7 acceptor
1 8 acceptor
1 8 donor
3 4 6 20 anion
7 1 9 13 14 15 16 18 rings

> <PUBCHEM_HEAVY_ATOM_COUNT>
25

> <PUBCHEM_ATOM_DEF_STEREO_COUNT>
4

> <PUBCHEM_ATOM_UDEF_STEREO_COUNT>
3

> <PUBCHEM_BOND_DEF_STEREO_COUNT>
0

> <PUBCHEM_BOND_UDEF_STEREO_COUNT>
0

> <PUBCHEM_ISOTOPIC_ATOM_COUNT>
0

> <PUBCHEM_COMPONENT_COUNT>
1

> <PUBCHEM_CACTVS_TAUTO_COUNT>
4

> <PUBCHEM_CONFORMER_ID>
02C08EC300000001

> <PUBCHEM_MMFF94_ENERGY>
60.22

> <PUBCHEM_FEATURE_SELFOVERLAP>
91.409

> <PUBCHEM_SHAPE_FINGERPRINT>
114674 6 17693374439002490155
11578080 2 18271540739988956172
12156800 1 15370159511384340213
12403259 327 4966243884243744279
12539773 59 17337603700739986464
12553582 1 18335408054804738935
12788726 201 18266741474843654449
13004483 165 18337679710305097869
14787075 74 18121769535751623548
14844126 61 18195813096480212698
20291156 8 18411132524221322214
20567600 347 17333945148770950131
20602899 9 17480045401911619428
20775530 9 18341896259872442959
21452121 199 18338529555367750568
23598288 3 18124851672643675801
23728640 28 17979353393239356785
257057 1 18408604747110468805
3027735 51 17905626740877661991
392239 28 18263085418804610112
4017518 198 17183075072376895518
463206 1 18270957921416291138
81228 2 17896300584556242949
9795274 37 18127976312691105059

> <PUBCHEM_SHAPE_MULTIPOLES>
447.61
7.1
5.19
1.7
2.58
3.29
0.15
-7.92
-0.21
-0.85
1.57
0.37
-0.38
-1.68

> <PUBCHEM_SHAPE_SELFOVERLAP>
917.727

> <PUBCHEM_SHAPE_VOLUME>
256.2

> <PUBCHEM_COORDINATE_TYPE>
2
5
10

$$$$

