440588
  -OEChem-07051212502D

 45 50  0     1  0  0  0  0  0999 V2000
    6.2970    3.5673    0.0000 O   0  0  0  0  0  0  0  0  0  0  0  0
    4.8517    4.4167    0.0000 O   0  0  0  0  0  0  0  0  0  0  0  0
    2.8718    1.3337    0.0000 O   0  0  0  0  0  0  0  0  0  0  0  0
    7.2979   -3.5278    0.0000 O   0  0  0  0  0  0  0  0  0  0  0  0
    5.7924   -4.4125    0.0000 O   0  0  0  0  0  0  0  0  0  0  0  0
    2.8560   -1.7083    0.0000 O   0  0  0  0  0  0  0  0  0  0  0  0
    6.3740    0.3368    0.0000 N   0  0  3  0  0  0  0  0  0  0  0  0
    5.5080   -0.1632    0.0000 C   0  0  0  0  0  0  0  0  0  0  0  0
    5.5080    1.8368    0.0000 C   0  0  0  0  0  0  0  0  0  0  0  0
    4.6419    0.3368    0.0000 C   0  0  0  0  0  0  0  0  0  0  0  0
    6.3740    1.3368    0.0000 C   0  0  0  0  0  0  0  0  0  0  0  0
    4.6419    1.3368    0.0000 C   0  0  0  0  0  0  0  0  0  0  0  0
    5.5240   -1.2047    0.0000 C   0  0  0  0  0  0  0  0  0  0  0  0
    5.5240    2.8783    0.0000 C   0  0  0  0  0  0  0  0  0  0  0  0
    4.6260   -1.7324    0.0000 C   0  0  0  0  0  0  0  0  0  0  0  0
    3.7319   -0.1700    0.0000 C   0  0  0  0  0  0  0  0  0  0  0  0
    3.7319    1.8437    0.0000 C   0  0  0  0  0  0  0  0  0  0  0  0
    3.7239   -1.2116    0.0000 C   0  0  0  0  0  0  0  0  0  0  0  0
    4.6260    3.4061    0.0000 C   0  0  0  0  0  0  0  0  0  0  0  0
    7.2400   -0.1632    0.0000 C   0  0  0  0  0  0  0  0  0  0  0  0
    6.4760   -1.7253    0.0000 C   0  0  0  0  0  0  0  0  0  0  0  0
    3.7239    2.8853    0.0000 C   0  0  0  0  0  0  0  0  0  0  0  0
    4.6176   -2.8174    0.0000 C   0  0  0  0  0  0  0  0  0  0  0  0
    6.4927   -2.8102    0.0000 C   0  0  0  0  0  0  0  0  0  0  0  0
    5.5572   -3.3599    0.0000 C   0  0  0  0  0  0  0  0  0  0  0  0
    5.8824    4.5161    0.0000 C   0  0  0  0  0  0  0  0  0  0  0  0
    6.8660   -4.5161    0.0000 C   0  0  0  0  0  0  0  0  0  0  0  0
    2.0000    1.8236    0.0000 C   0  0  0  0  0  0  0  0  0  0  0  0
    6.9846    1.2292    0.0000 H   0  0  0  0  0  0  0  0  0  0  0  0
    6.5860    1.9194    0.0000 H   0  0  0  0  0  0  0  0  0  0  0  0
    3.1986    0.1462    0.0000 H   0  0  0  0  0  0  0  0  0  0  0  0
    6.9300   -0.7001    0.0000 H   0  0  0  0  0  0  0  0  0  0  0  0
    7.7770   -0.4732    0.0000 H   0  0  0  0  0  0  0  0  0  0  0  0
    7.5500    0.3738    0.0000 H   0  0  0  0  0  0  0  0  0  0  0  0
    7.0068   -1.4050    0.0000 H   0  0  0  0  0  0  0  0  0  0  0  0
    3.1858    3.1932    0.0000 H   0  0  0  0  0  0  0  0  0  0  0  0
    4.0795   -3.1253    0.0000 H   0  0  0  0  0  0  0  0  0  0  0  0
    6.4734    4.7033    0.0000 H   0  0  0  0  0  0  0  0  0  0  0  0
    5.7583    5.1235    0.0000 H   0  0  0  0  0  0  0  0  0  0  0  0
    6.7419   -5.1235    0.0000 H   0  0  0  0  0  0  0  0  0  0  0  0
    7.4570   -4.7033    0.0000 H   0  0  0  0  0  0  0  0  0  0  0  0
    2.3202   -1.3962    0.0000 H   0  0  0  0  0  0  0  0  0  0  0  0
    2.3038    2.3641    0.0000 H   0  0  0  0  0  0  0  0  0  0  0  0
    1.4595    2.1274    0.0000 H   0  0  0  0  0  0  0  0  0  0  0  0
    1.6962    1.2832    0.0000 H   0  0  0  0  0  0  0  0  0  0  0  0
  1 14  1  0  0  0  0
  1 26  1  0  0  0  0
  2 19  1  0  0  0  0
  2 26  1  0  0  0  0
  3 17  1  0  0  0  0
  3 28  1  0  0  0  0
  4 24  1  0  0  0  0
  4 27  1  0  0  0  0
  5 25  1  0  0  0  0
  5 27  1  0  0  0  0
  6 18  1  0  0  0  0
  6 42  1  0  0  0  0
  7  8  1  0  0  0  0
  7 11  1  0  0  0  0
  7 20  1  0  0  0  0
  8 10  2  0  0  0  0
  8 13  1  0  0  0  0
  9 11  1  0  0  0  0
  9 12  1  0  0  0  0
  9 14  2  0  0  0  0
 10 12  1  0  0  0  0
 10 16  1  0  0  0  0
 11 29  1  0  0  0  0
 11 30  1  0  0  0  0
 12 17  2  0  0  0  0
 13 15  1  0  0  0  0
 13 21  2  0  0  0  0
 14 19  1  0  0  0  0
 15 18  1  0  0  0  0
 15 23  2  0  0  0  0
 16 18  2  0  0  0  0
 16 31  1  0  0  0  0
 17 22  1  0  0  0  0
 19 22  2  0  0  0  0
 20 32  1  0  0  0  0
 20 33  1  0  0  0  0
 20 34  1  0  0  0  0
 21 24  1  0  0  0  0
 21 35  1  0  0  0  0
 22 36  1  0  0  0  0
 23 25  1  0  0  0  0
 23 37  1  0  0  0  0
 24 25  2  0  0  0  0
 26 38  1  0  0  0  0
 26 39  1  0  0  0  0
 27 40  1  0  0  0  0
 27 41  1  0  0  0  0
 28 43  1  0  0  0  0
 28 44  1  0  0  0  0
 28 45  1  0  0  0  0
M  END
> <PUBCHEM_COMPOUND_CID>
440588

> <PUBCHEM_COMPOUND_CANONICALIZED>
1

> <PUBCHEM_CACTVS_COMPLEXITY>
605

> <PUBCHEM_CACTVS_HBOND_ACCEPTOR>
7

> <PUBCHEM_CACTVS_HBOND_DONOR>
1

> <PUBCHEM_CACTVS_ROTATABLE_BOND>
1

> <PUBCHEM_CACTVS_SUBSKEYS>
AAADceB6OAAAAAAAAAAAAAAAAAAAASJAAAA8YMEAAAAAAEjxVAAAHgAACAAADAzBmAcyzsMABgCAAiRCQACCCAAhIAAAiAAOzIgdJyLGsJukcCpnwBXO+Afw8P8O4UADSAAaQADCgAaQADSAAAAAAAAAAA==

> <PUBCHEM_IUPAC_INCHI>
InChI=1S/C21H17NO6/c1-22-7-13-19(17(24-2)6-18-21(13)28-9-27-18)12-3-14(23)10-4-15-16(26-8-25-15)5-11(10)20(12)22/h3-6,23H,7-9H2,1-2H3

> <PUBCHEM_IUPAC_INCHIKEY>
LEHAJESKGINQOW-UHFFFAOYSA-N

> <PUBCHEM_XLOGP3_AA>
3.7

> <PUBCHEM_EXACT_MASS>
379.105587

> <PUBCHEM_MOLECULAR_FORMULA>
C21H17NO6

> <PUBCHEM_MOLECULAR_WEIGHT>
379.36278

> <PUBCHEM_OPENEYE_CAN_SMILES>
CN1CC2=C3C(=CC(=C2C4=C1C5=CC6=C(C=C5C(=C4)O)OCO6)OC)OCO3

> <PUBCHEM_OPENEYE_ISO_SMILES>
CN1CC2=C3C(=CC(=C2C4=C1C5=CC6=C(C=C5C(=C4)O)OCO6)OC)OCO3

> <PUBCHEM_CACTVS_TPSA>
69.6

> <PUBCHEM_MONOISOTOPIC_WEIGHT>
379.105587

> <PUBCHEM_TOTAL_CHARGE>
0

> <PUBCHEM_HEAVY_ATOM_COUNT>
28

> <PUBCHEM_ATOM_DEF_STEREO_COUNT>
0

> <PUBCHEM_ATOM_UDEF_STEREO_COUNT>
0

> <PUBCHEM_BOND_DEF_STEREO_COUNT>
0

> <PUBCHEM_BOND_UDEF_STEREO_COUNT>
0

> <PUBCHEM_ISOTOPIC_ATOM_COUNT>
0

> <PUBCHEM_COMPONENT_COUNT>
1

> <PUBCHEM_CACTVS_TAUTO_COUNT>
2

> <PUBCHEM_COORDINATE_TYPE>
1
5
255

> <PUBCHEM_BONDANNOTATIONS>
10  16  8
12  17  8
13  15  8
13  21  8
14  19  8
15  18  8
15  23  8
16  18  8
17  22  8
19  22  8
21  24  8
23  25  8
24  25  8
8  10  8
8  13  8
9  12  8
9  14  8

$$$$

