796857
  -OEChem-07051213023D

 22 22  0     0  0  0  0  0  0999 V2000
    4.4518    0.4041   -0.0823 O   0  0  0  0  0  0  0  0  0  0  0  0
   -3.8548   -1.1033    0.2213 O   0  0  0  0  0  0  0  0  0  0  0  0
    0.3629   -0.2919    0.0715 C   0  0  0  0  0  0  0  0  0  0  0  0
    0.8549    1.0065    0.2038 C   0  0  0  0  0  0  0  0  0  0  0  0
    1.2450   -1.3567   -0.1125 C   0  0  0  0  0  0  0  0  0  0  0  0
   -1.0698   -0.5367    0.1257 C   0  0  0  0  0  0  0  0  0  0  0  0
    2.2290    1.2402    0.1519 C   0  0  0  0  0  0  0  0  0  0  0  0
    2.6192   -1.1231   -0.1643 C   0  0  0  0  0  0  0  0  0  0  0  0
    3.1113    0.1755   -0.0321 C   0  0  0  0  0  0  0  0  0  0  0  0
   -2.0252    0.3956   -0.0839 C   0  0  0  0  0  0  0  0  0  0  0  0
   -3.4711    0.0397   -0.0159 C   0  0  0  0  0  0  0  0  0  0  0  0
   -4.4532    1.1501   -0.2831 C   0  0  0  0  0  0  0  0  0  0  0  0
    0.2084    1.8634    0.3690 H   0  0  0  0  0  0  0  0  0  0  0  0
    0.8801   -2.3756   -0.2189 H   0  0  0  0  0  0  0  0  0  0  0  0
   -1.3618   -1.5616    0.3439 H   0  0  0  0  0  0  0  0  0  0  0  0
    2.6005    2.2557    0.2607 H   0  0  0  0  0  0  0  0  0  0  0  0
    3.3016   -1.9565   -0.3082 H   0  0  0  0  0  0  0  0  0  0  0  0
   -1.7986    1.4258   -0.3318 H   0  0  0  0  0  0  0  0  0  0  0  0
   -4.7620    1.1164   -1.3308 H   0  0  0  0  0  0  0  0  0  0  0  0
   -5.3249    1.0223    0.3653 H   0  0  0  0  0  0  0  0  0  0  0  0
   -4.0142    2.1268   -0.0621 H   0  0  0  0  0  0  0  0  0  0  0  0
    4.6133    1.3571    0.0263 H   0  0  0  0  0  0  0  0  0  0  0  0
  1  9  1  0  0  0  0
  1 22  1  0  0  0  0
  2 11  2  0  0  0  0
  3  4  2  0  0  0  0
  3  5  1  0  0  0  0
  3  6  1  0  0  0  0
  4  7  1  0  0  0  0
  4 13  1  0  0  0  0
  5  8  2  0  0  0  0
  5 14  1  0  0  0  0
  6 10  2  0  0  0  0
  6 15  1  0  0  0  0
  7  9  2  0  0  0  0
  7 16  1  0  0  0  0
  8  9  1  0  0  0  0
  8 17  1  0  0  0  0
 10 11  1  0  0  0  0
 10 18  1  0  0  0  0
 11 12  1  0  0  0  0
 12 19  1  0  0  0  0
 12 20  1  0  0  0  0
 12 21  1  0  0  0  0
M  END
> <PUBCHEM_COMPOUND_CID>
796857

> <PUBCHEM_CONFORMER_RMSD>
0.6

> <PUBCHEM_CONFORMER_DIVERSEORDER>
1
3
2

> <PUBCHEM_MMFF94_PARTIAL_CHARGES>
19
1 -0.53
10 -0.14
11 0.49
12 0.06
13 0.15
14 0.15
15 0.15
16 0.15
17 0.15
18 0.15
2 -0.57
22 0.45
3 0.03
4 -0.15
5 -0.15
6 -0.18
7 -0.15
8 -0.15
9 0.08

> <PUBCHEM_EFFECTIVE_ROTOR_COUNT>
2

> <PUBCHEM_PHARMACOPHORE_FEATURES>
3
1 1 donor
1 2 acceptor
6 3 4 5 7 8 9 rings

> <PUBCHEM_HEAVY_ATOM_COUNT>
12

> <PUBCHEM_ATOM_DEF_STEREO_COUNT>
0

> <PUBCHEM_ATOM_UDEF_STEREO_COUNT>
0

> <PUBCHEM_BOND_DEF_STEREO_COUNT>
1

> <PUBCHEM_BOND_UDEF_STEREO_COUNT>
0

> <PUBCHEM_ISOTOPIC_ATOM_COUNT>
0

> <PUBCHEM_COMPONENT_COUNT>
1

> <PUBCHEM_CACTVS_TAUTO_COUNT>
4

> <PUBCHEM_CONFORMER_ID>
000C28B900000001

> <PUBCHEM_MMFF94_ENERGY>
28.9872

> <PUBCHEM_FEATURE_SELFOVERLAP>
15.223

> <PUBCHEM_SHAPE_FINGERPRINT>
10219947 1 17967811673658881110
10608611 8 18412267211968784409
11062470 55 18410855477308030986
11401426 45 18259709990868320352
11471102 20 18408606993335750876
12500047 106 18343025488879502151
12932764 1 17168155532926661273
13380535 76 18411135814303589754
13922767 16 18334581230655945224
14144814 61 18261108603818097371
14325111 11 18410856551434950875
14415576 193 18412542093833105340
14911166 2 18334848408213820884
14993402 34 17312823779414238308
15442244 35 17975410535925648625
18186145 218 18340766039481006471
190213 19 17676204675934079003
200 152 17967820448762233485
20201158 50 18411697698951764155
20279233 1 18201715163445261363
20606313 2 18408886247962172916
20645477 56 18201440311746087997
20645477 70 18261675994815740919
21119208 17 17749108898114977277
22485316 2 18343023311003996515
23402539 116 17918283042714243436
23402655 69 18334016120397251557
4990 188 18040987445584672222
5104073 3 18411419522747269027
77779 3 18411135844673763695

> <PUBCHEM_SHAPE_MULTIPOLES>
235.22
8.11
1.34
0.62
4.65
0.06
0
-1.25
-0.47
-0.14
0
0.04
-0.01
0.28

> <PUBCHEM_SHAPE_SELFOVERLAP>
485.488

> <PUBCHEM_SHAPE_VOLUME>
135.4

> <PUBCHEM_COORDINATE_TYPE>
2
5
10

$$$$

