9845244
  -OEChem-07051213112D

 31 32  0     1  0  0  0  0  0999 V2000
    6.1030    1.5442    0.0000 O   0  0  0  0  0  0  0  0  0  0  0  0
    6.7210   -1.9674    0.0000 O   0  0  0  0  0  0  0  0  0  0  0  0
    2.8660   -1.2122    0.0000 O   0  0  0  0  0  0  0  0  0  0  0  0
    7.1176    2.1736    0.0000 O   0  0  0  0  0  0  0  0  0  0  0  0
    6.4103    0.5926    0.0000 C   0  0  3  0  0  0  0  0  0  0  0  0
    5.4641    0.2878    0.0000 C   0  0  0  0  0  0  0  0  0  0  0  0
    5.4641   -0.7122    0.0000 C   0  0  0  0  0  0  0  0  0  0  0  0
    6.9939   -0.2122    0.0000 C   0  0  0  0  0  0  0  0  0  0  0  0
    6.4103   -1.0169    0.0000 C   0  0  0  0  0  0  0  0  0  0  0  0
    7.2204    1.1789    0.0000 C   0  0  0  0  0  0  0  0  0  0  0  0
    4.5981    0.7878    0.0000 C   0  0  0  0  0  0  0  0  0  0  0  0
    4.5981   -1.2122    0.0000 C   0  0  0  0  0  0  0  0  0  0  0  0
    3.7320   -0.7122    0.0000 C   0  0  0  0  0  0  0  0  0  0  0  0
    3.7320    0.2878    0.0000 C   0  0  0  0  0  0  0  0  0  0  0  0
    8.1332    0.7706    0.0000 C   0  0  0  0  0  0  0  0  0  0  0  0
    7.6995   -2.1736    0.0000 C   0  0  0  0  0  0  0  0  0  0  0  0
    2.0000   -0.7122    0.0000 C   0  0  0  0  0  0  0  0  0  0  0  0
    7.6139   -0.2122    0.0000 H   0  0  0  0  0  0  0  0  0  0  0  0
    4.5981    1.4078    0.0000 H   0  0  0  0  0  0  0  0  0  0  0  0
    4.5981   -1.8322    0.0000 H   0  0  0  0  0  0  0  0  0  0  0  0
    3.1951    0.5978    0.0000 H   0  0  0  0  0  0  0  0  0  0  0  0
    5.4967    1.6741    0.0000 H   0  0  0  0  0  0  0  0  0  0  0  0
    7.8800    0.2047    0.0000 H   0  0  0  0  0  0  0  0  0  0  0  0
    8.6992    0.5175    0.0000 H   0  0  0  0  0  0  0  0  0  0  0  0
    8.3864    1.3366    0.0000 H   0  0  0  0  0  0  0  0  0  0  0  0
    7.5716   -2.7803    0.0000 H   0  0  0  0  0  0  0  0  0  0  0  0
    8.3062   -2.3015    0.0000 H   0  0  0  0  0  0  0  0  0  0  0  0
    7.8274   -1.5670    0.0000 H   0  0  0  0  0  0  0  0  0  0  0  0
    2.3100   -0.1752    0.0000 H   0  0  0  0  0  0  0  0  0  0  0  0
    1.4631   -0.4022    0.0000 H   0  0  0  0  0  0  0  0  0  0  0  0
    1.6900   -1.2491    0.0000 H   0  0  0  0  0  0  0  0  0  0  0  0
  1  5  1  0  0  0  0
  1 22  1  0  0  0  0
  2  9  1  0  0  0  0
  2 16  1  0  0  0  0
  3 13  1  0  0  0  0
  3 17  1  0  0  0  0
  4 10  2  0  0  0  0
  5  6  1  0  0  0  0
  5  8  1  0  0  0  0
  5 10  1  0  0  0  0
  6  7  2  0  0  0  0
  6 11  1  0  0  0  0
  7  9  1  0  0  0  0
  7 12  1  0  0  0  0
  8  9  2  0  0  0  0
  8 18  1  0  0  0  0
 10 15  1  0  0  0  0
 11 14  2  0  0  0  0
 11 19  1  0  0  0  0
 12 13  2  0  0  0  0
 12 20  1  0  0  0  0
 13 14  1  0  0  0  0
 14 21  1  0  0  0  0
 15 23  1  0  0  0  0
 15 24  1  0  0  0  0
 15 25  1  0  0  0  0
 16 26  1  0  0  0  0
 16 27  1  0  0  0  0
 16 28  1  0  0  0  0
 17 29  1  0  0  0  0
 17 30  1  0  0  0  0
 17 31  1  0  0  0  0
M  END
> <PUBCHEM_COMPOUND_CID>
9845244

> <PUBCHEM_COMPOUND_CANONICALIZED>
1

> <PUBCHEM_CACTVS_COMPLEXITY>
349

> <PUBCHEM_CACTVS_HBOND_ACCEPTOR>
4

> <PUBCHEM_CACTVS_HBOND_DONOR>
1

> <PUBCHEM_CACTVS_ROTATABLE_BOND>
3

> <PUBCHEM_CACTVS_SUBSKEYS>
AAADccBwOAAAAAAAAAAAAAAAAAAAAQAAAAAwAAAAAAAAAEABAAAAGgAACAAADESAmAIyBoAABgCIAqBSAAICCAAgIAAIiAFGCIgMJjKENRqAcCAkwBEIuAfI7PyOoAABAAAQAABAAAIAACAAAAAAAAAAAA==

> <PUBCHEM_IUPAC_OPENEYE_NAME>
1-(1-hydroxy-3,5-dimethoxy-inden-1-yl)ethanone

> <PUBCHEM_IUPAC_CAS_NAME>
1-(1-hydroxy-3,5-dimethoxy-1-indenyl)ethanone

> <PUBCHEM_IUPAC_NAME>
1-(1-hydroxy-3,5-dimethoxyinden-1-yl)ethanone

> <PUBCHEM_IUPAC_SYSTEMATIC_NAME>
1-(3,5-dimethoxy-1-oxidanyl-inden-1-yl)ethanone

> <PUBCHEM_IUPAC_TRADITIONAL_NAME>
1-(1-hydroxy-3,5-dimethoxy-inden-1-yl)ethanone

> <PUBCHEM_IUPAC_INCHI>
InChI=1S/C13H14O4/c1-8(14)13(15)7-12(17-3)10-6-9(16-2)4-5-11(10)13/h4-7,15H,1-3H3

> <PUBCHEM_IUPAC_INCHIKEY>
BIUULCNWWFDCPG-UHFFFAOYSA-N

> <PUBCHEM_XLOGP3_AA>
1

> <PUBCHEM_EXACT_MASS>
234.089209

> <PUBCHEM_MOLECULAR_FORMULA>
C13H14O4

> <PUBCHEM_MOLECULAR_WEIGHT>
234.24786

> <PUBCHEM_OPENEYE_CAN_SMILES>
CC(=O)C1(C=C(C2=C1C=CC(=C2)OC)OC)O

> <PUBCHEM_OPENEYE_ISO_SMILES>
CC(=O)C1(C=C(C2=C1C=CC(=C2)OC)OC)O

> <PUBCHEM_CACTVS_TPSA>
55.8

> <PUBCHEM_MONOISOTOPIC_WEIGHT>
234.089209

> <PUBCHEM_TOTAL_CHARGE>
0

> <PUBCHEM_HEAVY_ATOM_COUNT>
17

> <PUBCHEM_ATOM_DEF_STEREO_COUNT>
0

> <PUBCHEM_ATOM_UDEF_STEREO_COUNT>
1

> <PUBCHEM_BOND_DEF_STEREO_COUNT>
0

> <PUBCHEM_BOND_UDEF_STEREO_COUNT>
0

> <PUBCHEM_ISOTOPIC_ATOM_COUNT>
0

> <PUBCHEM_COMPONENT_COUNT>
1

> <PUBCHEM_CACTVS_TAUTO_COUNT>
2

> <PUBCHEM_COORDINATE_TYPE>
1
5
255

> <PUBCHEM_BONDANNOTATIONS>
11  14  8
12  13  8
13  14  8
5  10  3
6  11  8
6  7  8
7  12  8

$$$$

