17395356
  -OEChem-06241222493D

 53 54  0     1  0  0  0  0  0999 V2000
   -4.2198   -1.8514   -0.6303 S   0  0  0  0  0  0  0  0  0  0  0  0
    3.7112   -1.0864   -1.5106 O   0  0  0  0  0  0  0  0  0  0  0  0
    3.9917   -2.1408    1.0462 O   0  0  0  0  0  0  0  0  0  0  0  0
   -0.8801    2.5829    1.4059 O   0  0  0  0  0  0  0  0  0  0  0  0
   -2.0870    0.0734   -1.4811 O   0  0  0  0  0  0  0  0  0  0  0  0
    0.5263    2.9665   -0.4042 N   0  0  0  0  0  0  0  0  0  0  0  0
   -2.8885    1.9255   -0.3816 N   0  0  0  0  0  0  0  0  0  0  0  0
    1.7721    3.0220    0.3267 C   0  0  1  0  0  0  0  0  0  0  0  0
    2.3651    1.6424    0.5153 C   0  0  0  0  0  0  0  0  0  0  0  0
    2.7386    3.9877   -0.3560 C   0  0  0  0  0  0  0  0  0  0  0  0
    2.7712    0.9000   -0.5937 C   0  0  0  0  0  0  0  0  0  0  0  0
    2.5059    1.1133    1.7982 C   0  0  0  0  0  0  0  0  0  0  0  0
    3.3182   -0.3713   -0.4198 C   0  0  0  0  0  0  0  0  0  0  0  0
    3.4589   -0.9004    0.8631 C   0  0  0  0  0  0  0  0  0  0  0  0
    3.0526   -0.1582    1.9721 C   0  0  0  0  0  0  0  0  0  0  0  0
   -0.7027    2.7501    0.2019 C   0  0  0  0  0  0  0  0  0  0  0  0
   -1.8334    2.7988   -0.8035 C   0  0  0  0  0  0  0  0  0  0  0  0
    2.7106   -1.3924   -2.4799 C   0  0  0  0  0  0  0  0  0  0  0  0
    3.1681   -3.1115    1.6892 C   0  0  0  0  0  0  0  0  0  0  0  0
   -2.9483    0.5793   -0.7593 C   0  0  0  0  0  0  0  0  0  0  0  0
   -4.0744   -0.1956   -0.2194 C   0  0  0  0  0  0  0  0  0  0  0  0
    3.0689   -2.6943   -3.1643 C   0  0  0  0  0  0  0  0  0  0  0  0
    3.5261   -4.4863    1.1662 C   0  0  0  0  0  0  0  0  0  0  0  0
   -5.0887    0.2213    0.6142 C   0  0  0  0  0  0  0  0  0  0  0  0
   -5.6432   -2.0148    0.3076 C   0  0  0  0  0  0  0  0  0  0  0  0
   -5.9976   -0.8327    0.9196 C   0  0  0  0  0  0  0  0  0  0  0  0
   -6.3218   -3.3271    0.3776 C   0  0  0  0  0  0  0  0  0  0  0  0
    1.5443    3.4426    1.3150 H   0  0  0  0  0  0  0  0  0  0  0  0
    3.6851    4.0504    0.1921 H   0  0  0  0  0  0  0  0  0  0  0  0
    2.3069    4.9940   -0.4021 H   0  0  0  0  0  0  0  0  0  0  0  0
    2.9652    3.6879   -1.3852 H   0  0  0  0  0  0  0  0  0  0  0  0
    0.5704    3.0414   -1.4166 H   0  0  0  0  0  0  0  0  0  0  0  0
    2.6653    1.3096   -1.5950 H   0  0  0  0  0  0  0  0  0  0  0  0
    2.1954    1.6794    2.6723 H   0  0  0  0  0  0  0  0  0  0  0  0
    3.1633   -0.5541    2.9779 H   0  0  0  0  0  0  0  0  0  0  0  0
   -2.2251    3.8198   -0.8403 H   0  0  0  0  0  0  0  0  0  0  0  0
   -1.4923    2.5107   -1.8026 H   0  0  0  0  0  0  0  0  0  0  0  0
   -3.5959    2.3179    0.2301 H   0  0  0  0  0  0  0  0  0  0  0  0
    2.6701   -0.5835   -3.2172 H   0  0  0  0  0  0  0  0  0  0  0  0
    1.7246   -1.4921   -2.0091 H   0  0  0  0  0  0  0  0  0  0  0  0
    2.1057   -2.9180    1.4949 H   0  0  0  0  0  0  0  0  0  0  0  0
    3.3435   -3.0663    2.7695 H   0  0  0  0  0  0  0  0  0  0  0  0
    2.3268   -2.9538   -3.9244 H   0  0  0  0  0  0  0  0  0  0  0  0
    3.1276   -3.5091   -2.4351 H   0  0  0  0  0  0  0  0  0  0  0  0
    4.0523   -2.6220   -3.6404 H   0  0  0  0  0  0  0  0  0  0  0  0
    3.3691   -4.5393    0.0838 H   0  0  0  0  0  0  0  0  0  0  0  0
    4.5843   -4.7037    1.3451 H   0  0  0  0  0  0  0  0  0  0  0  0
    2.9206   -5.2584    1.6489 H   0  0  0  0  0  0  0  0  0  0  0  0
   -5.1983    1.2254    1.0017 H   0  0  0  0  0  0  0  0  0  0  0  0
   -6.8657   -0.7238    1.5572 H   0  0  0  0  0  0  0  0  0  0  0  0
   -6.6397   -3.6577   -0.6169 H   0  0  0  0  0  0  0  0  0  0  0  0
   -5.6592   -4.0890    0.8015 H   0  0  0  0  0  0  0  0  0  0  0  0
   -7.2145   -3.2759    1.0102 H   0  0  0  0  0  0  0  0  0  0  0  0
  1 21  1  0  0  0  0
  1 25  1  0  0  0  0
  2 13  1  0  0  0  0
  2 18  1  0  0  0  0
  3 14  1  0  0  0  0
  3 19  1  0  0  0  0
  4 16  2  0  0  0  0
  5 20  2  0  0  0  0
  6  8  1  0  0  0  0
  6 16  1  0  0  0  0
  6 32  1  0  0  0  0
  7 17  1  0  0  0  0
  7 20  1  0  0  0  0
  7 38  1  0  0  0  0
  8  9  1  0  0  0  0
  8 10  1  0  0  0  0
  8 28  1  0  0  0  0
  9 11  2  0  0  0  0
  9 12  1  0  0  0  0
 10 29  1  0  0  0  0
 10 30  1  0  0  0  0
 10 31  1  0  0  0  0
 11 13  1  0  0  0  0
 11 33  1  0  0  0  0
 12 15  2  0  0  0  0
 12 34  1  0  0  0  0
 13 14  2  0  0  0  0
 14 15  1  0  0  0  0
 15 35  1  0  0  0  0
 16 17  1  0  0  0  0
 17 36  1  0  0  0  0
 17 37  1  0  0  0  0
 18 22  1  0  0  0  0
 18 39  1  0  0  0  0
 18 40  1  0  0  0  0
 19 23  1  0  0  0  0
 19 41  1  0  0  0  0
 19 42  1  0  0  0  0
 20 21  1  0  0  0  0
 21 24  2  0  0  0  0
 22 43  1  0  0  0  0
 22 44  1  0  0  0  0
 22 45  1  0  0  0  0
 23 46  1  0  0  0  0
 23 47  1  0  0  0  0
 23 48  1  0  0  0  0
 24 26  1  0  0  0  0
 24 49  1  0  0  0  0
 25 26  2  0  0  0  0
 25 27  1  0  0  0  0
 26 50  1  0  0  0  0
 27 51  1  0  0  0  0
 27 52  1  0  0  0  0
 27 53  1  0  0  0  0
M  END
> <PUBCHEM_COMPOUND_CID>
17395356

> <PUBCHEM_CONFORMER_RMSD>
1

> <PUBCHEM_CONFORMER_DIVERSEORDER>
1
49
24
94
99
93
108
100
82
72
7
48
84
20
40
90
2
86
107
44
98
33
19
96
50
78
52
63
115
16
104
112
81
89
77
103
13
5
55
73
39
75
61
92
83
38
34
113
105
87
79
18
37
65
54
15
102
109
106
10
43
80
66
91
45
6
64
25
114
21
110
95
42
58
28
68
51
101
85
46
97
74
69
59
88
23
14
17
67
32
4
70
22
71
53
57
27
9
12
36
8
111
30
62
29
11
3
76
41
60
31
35
47
56
26

> <PUBCHEM_MMFF94_PARTIAL_CHARGES>
31
1 -0.08
11 -0.15
12 -0.15
13 0.08
14 0.08
15 -0.15
16 0.57
17 0.36
18 0.28
19 0.28
2 -0.36
20 0.71
21 -0.05
24 -0.15
25 -0.14
26 -0.15
27 0.18
3 -0.36
32 0.37
33 0.15
34 0.15
35 0.15
38 0.37
4 -0.57
49 0.15
5 -0.57
50 0.15
6 -0.73
7 -0.73
8 0.44
9 -0.14

> <PUBCHEM_EFFECTIVE_ROTOR_COUNT>
11

> <PUBCHEM_PHARMACOPHORE_FEATURES>
8
1 2 acceptor
1 3 acceptor
1 4 acceptor
1 5 acceptor
1 6 donor
1 7 donor
5 1 21 24 25 26 rings
6 9 11 12 13 14 15 rings

> <PUBCHEM_HEAVY_ATOM_COUNT>
27

> <PUBCHEM_ATOM_DEF_STEREO_COUNT>
0

> <PUBCHEM_ATOM_UDEF_STEREO_COUNT>
1

> <PUBCHEM_BOND_DEF_STEREO_COUNT>
0

> <PUBCHEM_BOND_UDEF_STEREO_COUNT>
0

> <PUBCHEM_ISOTOPIC_ATOM_COUNT>
0

> <PUBCHEM_COMPONENT_COUNT>
1

> <PUBCHEM_CACTVS_TAUTO_COUNT>
4

> <PUBCHEM_CONFORMER_ID>
01096E9C00000001

> <PUBCHEM_MMFF94_ENERGY>
63.7619

> <PUBCHEM_FEATURE_SELFOVERLAP>
40.599

> <PUBCHEM_SHAPE_FINGERPRINT>
10928967 22 18341319068186964651
11135609 12 17896312700716819030
11991303 11 17273426182950219749
12107183 9 18337102480313860097
12655387 17 18267580386122474861
13533116 47 18119528735659704907
1361 2 18053948355683444171
14251740 57 18188199902081469479
14863182 85 18055075367734108692
150020 26 17241877886079296047
15003188 105 18343019960924412830
15664445 248 17914884345126537861
17492 89 18341622528774060041
1813 80 17631737050506608485
19301679 30 18339358545166524689
1979834 28 17821727204586685983
20775530 9 18261397775160139084
21315759 227 18341624757766946175
25222932 49 18341338812035514638
345986 75 18113335302261076553
44062 13 18129391560761180669
44317340 157 10807669874354164165
50080093 196 17905066758547045847
7970288 3 18269279121816176323
88748 71 18271529805117465641

> <PUBCHEM_SHAPE_MULTIPOLES>
526.06
13.01
5.43
2.09
22.71
0.7
-1.17
11.82
2.03
-4.1
0.59
-3.03
1.83
0.43

> <PUBCHEM_SHAPE_SELFOVERLAP>
1073.315

> <PUBCHEM_SHAPE_VOLUME>
306.3

> <PUBCHEM_COORDINATE_TYPE>
2
5
10

$$$$

