65072
  -OEChem-07051212473D

 28 27  0     1  0  0  0  0  0999 V2000
    2.1772    1.5755   -1.1839 O   0  0  0  0  0  0  0  0  0  0  0  0
    3.0218    1.6558    0.9191 O   0  0  0  0  0  0  0  0  0  0  0  0
   -3.9665   -0.1036    1.1557 O   0  0  0  0  0  0  0  0  0  0  0  0
    4.0436   -0.8945    0.5559 N   0  0  0  0  0  0  0  0  0  0  0  0
   -2.5873   -0.0130   -0.7166 N   0  0  0  0  0  0  0  0  0  0  0  0
   -3.7029    1.8693    0.0119 N   0  0  0  0  0  0  0  0  0  0  0  0
    0.3410   -0.8792   -0.4043 C   0  0  0  0  0  0  0  0  0  0  0  0
    1.6292   -1.2311    0.3467 C   0  0  0  0  0  0  0  0  0  0  0  0
   -0.9023   -1.6276    0.0934 C   0  0  0  0  0  0  0  0  0  0  0  0
    2.8579   -0.4988   -0.2087 C   0  0  1  0  0  0  0  0  0  0  0  0
   -2.1681   -1.3852   -0.7236 C   0  0  0  0  0  0  0  0  0  0  0  0
    2.7155    1.0073   -0.0736 C   0  0  0  0  0  0  0  0  0  0  0  0
   -3.4593    0.5249    0.2281 C   0  0  0  0  0  0  0  0  0  0  0  0
    0.1459    0.1953   -0.3183 H   0  0  0  0  0  0  0  0  0  0  0  0
    0.4812   -1.0941   -1.4710 H   0  0  0  0  0  0  0  0  0  0  0  0
    1.4922   -0.9858    1.4084 H   0  0  0  0  0  0  0  0  0  0  0  0
    1.7903   -2.3152    0.2880 H   0  0  0  0  0  0  0  0  0  0  0  0
   -1.0846   -1.3507    1.1394 H   0  0  0  0  0  0  0  0  0  0  0  0
   -0.6919   -2.7041    0.0854 H   0  0  0  0  0  0  0  0  0  0  0  0
    3.0220   -0.7532   -1.2619 H   0  0  0  0  0  0  0  0  0  0  0  0
   -2.9804   -2.0061   -0.3302 H   0  0  0  0  0  0  0  0  0  0  0  0
   -2.0047   -1.6707   -1.7681 H   0  0  0  0  0  0  0  0  0  0  0  0
    4.8740   -0.4758    0.1379 H   0  0  0  0  0  0  0  0  0  0  0  0
    4.1717   -1.9035    0.4892 H   0  0  0  0  0  0  0  0  0  0  0  0
   -2.2205    0.6034   -1.4355 H   0  0  0  0  0  0  0  0  0  0  0  0
    2.0757    2.5463   -1.0851 H   0  0  0  0  0  0  0  0  0  0  0  0
   -3.2745    2.3711   -0.7587 H   0  0  0  0  0  0  0  0  0  0  0  0
   -4.3196    2.3962    0.6212 H   0  0  0  0  0  0  0  0  0  0  0  0
  1 12  1  0  0  0  0
  1 26  1  0  0  0  0
  2 12  2  0  0  0  0
  3 13  2  0  0  0  0
  4 10  1  0  0  0  0
  4 23  1  0  0  0  0
  4 24  1  0  0  0  0
  5 11  1  0  0  0  0
  5 13  1  0  0  0  0
  5 25  1  0  0  0  0
  6 13  1  0  0  0  0
  6 27  1  0  0  0  0
  6 28  1  0  0  0  0
  7  8  1  0  0  0  0
  7  9  1  0  0  0  0
  7 14  1  0  0  0  0
  7 15  1  0  0  0  0
  8 10  1  0  0  0  0
  8 16  1  0  0  0  0
  8 17  1  0  0  0  0
  9 11  1  0  0  0  0
  9 18  1  0  0  0  0
  9 19  1  0  0  0  0
 10 12  1  0  0  0  0
 10 20  1  0  0  0  0
 11 21  1  0  0  0  0
 11 22  1  0  0  0  0
M  END
> <PUBCHEM_COMPOUND_CID>
65072

> <PUBCHEM_CONFORMER_RMSD>
0.8

> <PUBCHEM_CONFORMER_DIVERSEORDER>
1
10
83
23
63
11
86
20
46
60
65
34
16
45
14
30
4
33
74
77
19
50
68
52
39
66
71
17
85
24
5
41
75
26
87
8
7
43
27
53
61
6
32
44
29
72
62
42
84
25
28
73
21
82
36
81
69
70
76
18
57
35
37
9
49
89
40
80
88
2
64
3
12
79
67
15
78
13
31
51
56
22
59
38
47
48
58
55
54

> <PUBCHEM_MMFF94_PARTIAL_CHARGES>
16
1 -0.65
10 0.33
11 0.3
12 0.66
13 0.69
2 -0.57
23 0.36
24 0.36
25 0.37
26 0.5
27 0.37
28 0.37
3 -0.57
4 -0.99
5 -0.73
6 -0.8

> <PUBCHEM_EFFECTIVE_ROTOR_COUNT>
7

> <PUBCHEM_PHARMACOPHORE_FEATURES>
8
1 1 acceptor
1 2 acceptor
1 3 acceptor
1 4 cation
1 4 donor
1 5 donor
1 6 donor
3 1 2 12 anion

> <PUBCHEM_HEAVY_ATOM_COUNT>
13

> <PUBCHEM_ATOM_DEF_STEREO_COUNT>
1

> <PUBCHEM_ATOM_UDEF_STEREO_COUNT>
0

> <PUBCHEM_BOND_DEF_STEREO_COUNT>
0

> <PUBCHEM_BOND_UDEF_STEREO_COUNT>
0

> <PUBCHEM_ISOTOPIC_ATOM_COUNT>
0

> <PUBCHEM_COMPONENT_COUNT>
1

> <PUBCHEM_CACTVS_TAUTO_COUNT>
3

> <PUBCHEM_CONFORMER_ID>
0000FE3000000001

> <PUBCHEM_MMFF94_ENERGY>
7.2242

> <PUBCHEM_FEATURE_SELFOVERLAP>
40.703

> <PUBCHEM_SHAPE_FINGERPRINT>
10149128 111 18260261967027403995
12162725 195 18337115578961467775
122479 349 18411414029716315579
12932764 1 17203342099591352902
13897977 13 18342166753260667333
13922767 16 18335145306180844386
15775835 57 18334853883553506380
17041 49 18341622529206518002
177051 138 11312063144560556403
17802600 8 18409738382321710445
17834072 32 18262519324893014025
18186145 218 18259981578408471918
20233049 118 18041286559786300312
20281407 28 10375868576165529119
21524375 3 18335422387369425839
21652331 79 18409728439762583593
23557571 272 17023466309397187942
6430166 295 18336269032385835746
9882013 296 15482098367551337983

> <PUBCHEM_SHAPE_MULTIPOLES>
234.98
8
1.91
0.93
2.4
0.46
0.01
2.63
-1.53
-0.06
0.06
0.06
0.11
-0.34

> <PUBCHEM_SHAPE_SELFOVERLAP>
443.179

> <PUBCHEM_SHAPE_VOLUME>
144.4

> <PUBCHEM_COORDINATE_TYPE>
2
5
10

$$$$

