5281721
  -OEChem-07051212592D

 36 37  0     1  0  0  0  0  0999 V2000
    4.9344   -0.3063    0.0000 O   0  0  0  0  0  0  0  0  0  0  0  0
    8.4299   -0.5077    0.0000 O   0  0  0  0  0  0  0  0  0  0  0  0
    3.2872    0.2290    0.0000 O   0  0  0  0  0  0  0  0  0  0  0  0
    6.1945    1.9538    0.0000 N   0  0  3  0  0  0  0  0  0  0  0  0
    6.1945    0.9538    0.0000 C   0  0  1  0  0  0  0  0  0  0  0  0
    5.2435    0.6448    0.0000 C   0  0  2  0  0  0  0  0  0  0  0  0
    4.6557    1.4538    0.0000 C   0  0  0  0  0  0  0  0  0  0  0  0
    5.2435    2.2628    0.0000 C   0  0  0  0  0  0  0  0  0  0  0  0
    7.1407    0.6491    0.0000 C   0  0  0  0  0  0  0  0  0  0  0  0
    7.1407    2.2585    0.0000 C   0  0  0  0  0  0  0  0  0  0  0  0
    7.7244    1.4538    0.0000 C   0  0  0  0  0  0  0  0  0  0  0  0
    7.4514   -0.3015    0.0000 C   0  0  0  0  0  0  0  0  0  0  0  0
    3.9563   -0.5142    0.0000 C   0  0  0  0  0  0  0  0  0  0  0  0
    3.6473   -1.4652    0.0000 C   0  0  0  0  0  0  0  0  0  0  0  0
    4.3164   -2.2084    0.0000 C   0  0  0  0  0  0  0  0  0  0  0  0
    2.6691   -1.6732    0.0000 C   0  0  0  0  0  0  0  0  0  0  0  0
    2.0000   -0.9300    0.0000 C   0  0  0  0  0  0  0  0  0  0  0  0
    6.1956    0.1038    0.0000 H   0  0  0  0  0  0  0  0  0  0  0  0
    4.6311    0.5478    0.0000 H   0  0  0  0  0  0  0  0  0  0  0  0
    4.1949    1.8687    0.0000 H   0  0  0  0  0  0  0  0  0  0  0  0
    4.1949    1.0389    0.0000 H   0  0  0  0  0  0  0  0  0  0  0  0
    5.4956    2.8292    0.0000 H   0  0  0  0  0  0  0  0  0  0  0  0
    4.7065    2.5728    0.0000 H   0  0  0  0  0  0  0  0  0  0  0  0
    7.6781    2.5678    0.0000 H   0  0  0  0  0  0  0  0  0  0  0  0
    6.8897    2.8254    0.0000 H   0  0  0  0  0  0  0  0  0  0  0  0
    8.3444    1.4538    0.0000 H   0  0  0  0  0  0  0  0  0  0  0  0
    6.8376   -0.3888    0.0000 H   0  0  0  0  0  0  0  0  0  0  0  0
    7.4308   -0.9211    0.0000 H   0  0  0  0  0  0  0  0  0  0  0  0
    8.6225   -1.0970    0.0000 H   0  0  0  0  0  0  0  0  0  0  0  0
    3.8557   -2.6232    0.0000 H   0  0  0  0  0  0  0  0  0  0  0  0
    4.7313   -2.6691    0.0000 H   0  0  0  0  0  0  0  0  0  0  0  0
    4.7772   -1.7935    0.0000 H   0  0  0  0  0  0  0  0  0  0  0  0
    2.4775   -2.2628    0.0000 H   0  0  0  0  0  0  0  0  0  0  0  0
    2.4608   -0.5152    0.0000 H   0  0  0  0  0  0  0  0  0  0  0  0
    1.5851   -0.4693    0.0000 H   0  0  0  0  0  0  0  0  0  0  0  0
    1.5392   -1.3449    0.0000 H   0  0  0  0  0  0  0  0  0  0  0  0
  6  1  1  1  0  0  0
  1 13  1  0  0  0  0
  2 12  1  0  0  0  0
  2 29  1  0  0  0  0
  3 13  2  0  0  0  0
  4  5  1  0  0  0  0
  4  8  1  0  0  0  0
  4 10  1  0  0  0  0
  5  6  1  0  0  0  0
  5  9  1  0  0  0  0
  5 18  1  1  0  0  0
  6  7  1  0  0  0  0
  6 19  1  0  0  0  0
  7  8  1  0  0  0  0
  7 20  1  0  0  0  0
  7 21  1  0  0  0  0
  8 22  1  0  0  0  0
  8 23  1  0  0  0  0
  9 11  2  0  0  0  0
  9 12  1  0  0  0  0
 10 11  1  0  0  0  0
 10 24  1  0  0  0  0
 10 25  1  0  0  0  0
 11 26  1  0  0  0  0
 12 27  1  0  0  0  0
 12 28  1  0  0  0  0
 13 14  1  0  0  0  0
 14 15  1  0  0  0  0
 14 16  2  0  0  0  0
 15 30  1  0  0  0  0
 15 31  1  0  0  0  0
 15 32  1  0  0  0  0
 16 17  1  0  0  0  0
 16 33  1  0  0  0  0
 17 34  1  0  0  0  0
 17 35  1  0  0  0  0
 17 36  1  0  0  0  0
M  END
> <PUBCHEM_COMPOUND_CID>
5281721

> <PUBCHEM_COMPOUND_CANONICALIZED>
1

> <PUBCHEM_CACTVS_COMPLEXITY>
373

> <PUBCHEM_CACTVS_HBOND_ACCEPTOR>
4

> <PUBCHEM_CACTVS_HBOND_DONOR>
1

> <PUBCHEM_CACTVS_ROTATABLE_BOND>
4

> <PUBCHEM_CACTVS_SUBSKEYS>
AAADceByMAAAAAAAAAAAAAAAAAAAAWIAAAAAAAAAAAAQAAAAAAAAHgAACAAADDzhgAYCCAMABgCIAiDSCACAAAAgAAAACAEIAEgCFAIAoQAHUAAGwACYMYPQQAAAAAAAAAAAAAAAAAAAAAAAAAAAAAAAAA==

> <PUBCHEM_IUPAC_OPENEYE_NAME>
[(1S,8R)-7-(hydroxymethyl)-2,3,5,8-tetrahydro-1H-pyrrolizin-1-yl] (Z)-2-methylbut-2-enoate

> <PUBCHEM_IUPAC_CAS_NAME>
(Z)-2-methyl-2-butenoic acid [(1S,8R)-7-(hydroxymethyl)-2,3,5,8-tetrahydro-1H-pyrrolizin-1-yl] ester

> <PUBCHEM_IUPAC_NAME>
[(1S,8R)-7-(hydroxymethyl)-2,3,5,8-tetrahydro-1H-pyrrolizin-1-yl] (Z)-2-methylbut-2-enoate

> <PUBCHEM_IUPAC_SYSTEMATIC_NAME>
[(1S,8R)-7-(hydroxymethyl)-2,3,5,8-tetrahydro-1H-pyrrolizin-1-yl] (Z)-2-methylbut-2-enoate

> <PUBCHEM_IUPAC_TRADITIONAL_NAME>
(Z)-2-methylbut-2-enoic acid [(1S,8R)-7-methylol-2,3,5,8-tetrahydro-1H-pyrrolizin-1-yl] ester

> <PUBCHEM_IUPAC_INCHI>
InChI=1S/C13H19NO3/c1-3-9(2)13(16)17-11-5-7-14-6-4-10(8-15)12(11)14/h3-4,11-12,15H,5-8H2,1-2H3/b9-3-/t11-,12+/m0/s1

> <PUBCHEM_IUPAC_INCHIKEY>
TYGYPIIOOQNWBU-ZVRIXJHSSA-N

> <PUBCHEM_XLOGP3_AA>
0.5

> <PUBCHEM_EXACT_MASS>
237.136493

> <PUBCHEM_MOLECULAR_FORMULA>
C13H19NO3

> <PUBCHEM_MOLECULAR_WEIGHT>
237.29486

> <PUBCHEM_OPENEYE_CAN_SMILES>
CC=C(C)C(=O)OC1CCN2C1C(=CC2)CO

> <PUBCHEM_OPENEYE_ISO_SMILES>
C/C=C(/C)\C(=O)O[C@H]1CCN2[C@@H]1C(=CC2)CO

> <PUBCHEM_CACTVS_TPSA>
49.8

> <PUBCHEM_MONOISOTOPIC_WEIGHT>
237.136493

> <PUBCHEM_TOTAL_CHARGE>
0

> <PUBCHEM_HEAVY_ATOM_COUNT>
17

> <PUBCHEM_ATOM_DEF_STEREO_COUNT>
2

> <PUBCHEM_ATOM_UDEF_STEREO_COUNT>
0

> <PUBCHEM_BOND_DEF_STEREO_COUNT>
1

> <PUBCHEM_BOND_UDEF_STEREO_COUNT>
0

> <PUBCHEM_ISOTOPIC_ATOM_COUNT>
0

> <PUBCHEM_COMPONENT_COUNT>
1

> <PUBCHEM_CACTVS_TAUTO_COUNT>
1

> <PUBCHEM_COORDINATE_TYPE>
1
5
255

> <PUBCHEM_BONDANNOTATIONS>
6  1  5
5  18  5

$$$$

