582689
  -OEChem-06241222433D

 34 35  0     1  0  0  0  0  0999 V2000
    2.4228   -0.8434    1.5517 O   0  0  0  0  0  0  0  0  0  0  0  0
    2.0312   -0.0700   -0.6030 N   0  0  0  0  0  0  0  0  0  0  0  0
   -1.8876    1.2743    1.6453 N   0  0  0  0  0  0  0  0  0  0  0  0
    1.5045   -3.3269    0.8246 N   0  0  0  0  0  0  0  0  0  0  0  0
    0.8396    2.0903   -0.6415 C   0  0  0  0  0  0  0  0  0  0  0  0
    2.1600    1.3425   -0.3254 C   0  0  2  0  0  0  0  0  0  0  0  0
   -0.3369    1.5711    0.0852 C   0  0  0  0  0  0  0  0  0  0  0  0
   -1.2182    0.5434   -0.3533 C   0  0  0  0  0  0  0  0  0  0  0  0
   -2.1818    0.3770    0.6436 C   0  0  0  0  0  0  0  0  0  0  0  0
   -0.7742    2.0003    1.3171 C   0  0  0  0  0  0  0  0  0  0  0  0
    3.3371    1.9140   -1.1096 C   0  0  0  0  0  0  0  0  0  0  0  0
   -1.2887   -0.2634   -1.5064 C   0  0  0  0  0  0  0  0  0  0  0  0
   -3.2167   -0.5597    0.5446 C   0  0  0  0  0  0  0  0  0  0  0  0
    2.1745   -1.0522    0.3663 C   0  0  0  0  0  0  0  0  0  0  0  0
   -2.3185   -1.2046   -1.6190 C   0  0  0  0  0  0  0  0  0  0  0  0
   -3.2665   -1.3489   -0.6080 C   0  0  0  0  0  0  0  0  0  0  0  0
    2.0194   -2.4437   -0.2122 C   0  0  0  0  0  0  0  0  0  0  0  0
    0.6477    2.0442   -1.7219 H   0  0  0  0  0  0  0  0  0  0  0  0
    0.9718    3.1552   -0.4083 H   0  0  0  0  0  0  0  0  0  0  0  0
    2.3761    1.4701    0.7427 H   0  0  0  0  0  0  0  0  0  0  0  0
   -0.3940    2.7555    1.9908 H   0  0  0  0  0  0  0  0  0  0  0  0
    4.2658    1.3929   -0.8524 H   0  0  0  0  0  0  0  0  0  0  0  0
    3.4726    2.9779   -0.8898 H   0  0  0  0  0  0  0  0  0  0  0  0
    3.1851    1.8047   -2.1892 H   0  0  0  0  0  0  0  0  0  0  0  0
    1.8431   -0.3446   -1.5628 H   0  0  0  0  0  0  0  0  0  0  0  0
   -2.4172    1.3807    2.4995 H   0  0  0  0  0  0  0  0  0  0  0  0
   -0.5607   -0.1638   -2.3062 H   0  0  0  0  0  0  0  0  0  0  0  0
   -3.9553   -0.6728    1.3312 H   0  0  0  0  0  0  0  0  0  0  0  0
   -2.3780   -1.8294   -2.5062 H   0  0  0  0  0  0  0  0  0  0  0  0
   -4.0578   -2.0863   -0.7162 H   0  0  0  0  0  0  0  0  0  0  0  0
    3.0022   -2.7869   -0.5495 H   0  0  0  0  0  0  0  0  0  0  0  0
    1.3353   -2.4386   -1.0666 H   0  0  0  0  0  0  0  0  0  0  0  0
    1.4072   -4.2686    0.4468 H   0  0  0  0  0  0  0  0  0  0  0  0
    0.5652   -3.0315    1.0894 H   0  0  0  0  0  0  0  0  0  0  0  0
  1 14  2  0  0  0  0
  2  6  1  0  0  0  0
  2 14  1  0  0  0  0
  2 25  1  0  0  0  0
  3  9  1  0  0  0  0
  3 10  1  0  0  0  0
  3 26  1  0  0  0  0
  4 17  1  0  0  0  0
  4 33  1  0  0  0  0
  4 34  1  0  0  0  0
  5  6  1  0  0  0  0
  5  7  1  0  0  0  0
  5 18  1  0  0  0  0
  5 19  1  0  0  0  0
  6 11  1  0  0  0  0
  6 20  1  0  0  0  0
  7  8  1  0  0  0  0
  7 10  2  0  0  0  0
  8  9  1  0  0  0  0
  8 12  2  0  0  0  0
  9 13  2  0  0  0  0
 10 21  1  0  0  0  0
 11 22  1  0  0  0  0
 11 23  1  0  0  0  0
 11 24  1  0  0  0  0
 12 15  1  0  0  0  0
 12 27  1  0  0  0  0
 13 16  1  0  0  0  0
 13 28  1  0  0  0  0
 14 17  1  0  0  0  0
 15 16  2  0  0  0  0
 15 29  1  0  0  0  0
 16 30  1  0  0  0  0
 17 31  1  0  0  0  0
 17 32  1  0  0  0  0
M  END
> <PUBCHEM_COMPOUND_CID>
582689

> <PUBCHEM_CONFORMER_RMSD>
0.6

> <PUBCHEM_CONFORMER_DIVERSEORDER>
1
17
54
12
49
51
32
29
55
64
37
56
57
4
22
6
66
14
27
61
7
45
36
25
65
60
31
41
44
63
38
26
3
58
8
42
39
2
46
5
47
18
16
33
13
43
59
50
40
52
11
15
35
23
9
24
10
28
34
53
62
48
19
20
21
30

> <PUBCHEM_MMFF94_PARTIAL_CHARGES>
24
1 -0.57
10 -0.3
12 -0.15
13 -0.15
14 0.57
15 -0.15
16 -0.15
17 0.33
2 -0.73
21 0.15
25 0.37
26 0.27
27 0.15
28 0.15
29 0.15
3 0.03
30 0.15
33 0.36
34 0.36
4 -0.99
5 0.18
6 0.3
7 -0.18
9 -0.15

> <PUBCHEM_EFFECTIVE_ROTOR_COUNT>
5

> <PUBCHEM_PHARMACOPHORE_FEATURES>
8
1 1 acceptor
1 2 donor
1 3 cation
1 3 donor
1 4 cation
1 4 donor
5 3 7 8 9 10 rings
6 8 9 12 13 15 16 rings

> <PUBCHEM_HEAVY_ATOM_COUNT>
17

> <PUBCHEM_ATOM_DEF_STEREO_COUNT>
0

> <PUBCHEM_ATOM_UDEF_STEREO_COUNT>
1

> <PUBCHEM_BOND_DEF_STEREO_COUNT>
0

> <PUBCHEM_BOND_UDEF_STEREO_COUNT>
0

> <PUBCHEM_ISOTOPIC_ATOM_COUNT>
0

> <PUBCHEM_COMPONENT_COUNT>
1

> <PUBCHEM_CACTVS_TAUTO_COUNT>
2

> <PUBCHEM_CONFORMER_ID>
0008E42100000001

> <PUBCHEM_MMFF94_ENERGY>
22.805

> <PUBCHEM_FEATURE_SELFOVERLAP>
40.686

> <PUBCHEM_SHAPE_FINGERPRINT>
10064457 181 17765422150526268179
11321824 6 17261043636524556898
11578080 2 18117304525973299913
12202030 40 16773496829020804585
13538477 17 18113611300674423125
13583140 156 18126258919263954969
14787075 74 17463981155025739448
15279307 12 18261938726370223828
15375462 189 18189330174159413689
16752209 62 17749104500548696093
16945 1 18196661691839575261
18981168 100 7780928814318158220
19777482 4 17831334895951170983
20645477 70 18202009802444019223
21160774 45 17623838033737709194
21330990 113 14735619763068271161
21731516 1 18187370904404741807
22112679 90 17894353246114919181
22445834 79 18335409188544307641
22713034 7 18341888606297970682
22802520 49 17774741834437441357
23236772 104 18115573847188435636
23388829 49 18335148591329548940
23419403 2 15739468931176968532
23598291 2 18191849309675098908
23598294 1 17531789329847966097
23728640 28 16255345703774305538
2748010 2 16388994636612863597
34934 24 18114173095492781353
598444 67 16461910957516038255
81228 2 17550973797818751656

> <PUBCHEM_SHAPE_MULTIPOLES>
329.04
5.11
2.94
1.49
0.28
1.7
0.05
0.81
-0.71
-1.99
0.62
0.31
-0.07
-1.63

> <PUBCHEM_SHAPE_SELFOVERLAP>
693.969

> <PUBCHEM_SHAPE_VOLUME>
186

> <PUBCHEM_COORDINATE_TYPE>
2
5
10

$$$$

