15559464
  -OEChem-07051213102D

 43 47  0     1  0  0  0  0  0999 V2000
    7.5596   -2.5737    0.0000 O   0  0  0  0  0  0  0  0  0  0  0  0
    6.2860   -1.3999    0.0000 O   0  0  0  0  0  0  0  0  0  0  0  0
    6.9654    2.1163    0.0000 N   0  0  3  0  0  0  0  0  0  0  0  0
    4.5124    0.9988    0.0000 N   0  0  0  0  0  0  0  0  0  0  0  0
    6.6564    3.0673    0.0000 C   0  0  0  0  0  0  0  0  0  0  0  0
    5.0091    2.5321    0.0000 C   0  0  0  0  0  0  0  0  0  0  0  0
    6.2962    1.3731    0.0000 C   0  0  0  0  0  0  0  0  0  0  0  0
    5.6782    3.2752    0.0000 C   0  0  0  0  0  0  0  0  0  0  0  0
    5.3181    1.5810    0.0000 C   0  0  0  0  0  0  0  0  0  0  0  0
    7.9875    1.9154    0.0000 C   0  0  0  0  0  0  0  0  0  0  0  0
    4.0150    2.5295    0.0000 C   0  0  0  0  0  0  0  0  0  0  0  0
    8.3170    0.9273    0.0000 C   0  0  0  0  0  0  0  0  0  0  0  0
    6.6028    0.3776    0.0000 C   0  0  0  0  0  0  0  0  0  0  0  0
    7.6200    0.1532    0.0000 C   0  0  0  0  0  0  0  0  0  0  0  0
    3.7086    1.5838    0.0000 C   0  0  0  0  0  0  0  0  0  0  0  0
    3.3334    3.3090    0.0000 C   0  0  0  0  0  0  0  0  0  0  0  0
    7.9393   -0.8837    0.0000 C   0  0  0  0  0  0  0  0  0  0  0  0
    9.3816    0.7181    0.0000 C   0  0  0  0  0  0  0  0  0  0  0  0
    2.6994    1.3521    0.0000 C   0  0  0  0  0  0  0  0  0  0  0  0
    8.9988   -1.1175    0.0000 C   0  0  0  0  0  0  0  0  0  0  0  0
    9.7248   -0.3112    0.0000 C   0  0  0  0  0  0  0  0  0  0  0  0
    2.3191    3.1007    0.0000 C   0  0  0  0  0  0  0  0  0  0  0  0
    2.0000    2.1156    0.0000 C   0  0  0  0  0  0  0  0  0  0  0  0
    7.2616   -1.6191    0.0000 C   0  0  0  0  0  0  0  0  0  0  0  0
    6.8820   -3.3090    0.0000 C   0  0  0  0  0  0  0  0  0  0  0  0
    7.2703    3.1536    0.0000 H   0  0  0  0  0  0  0  0  0  0  0  0
    6.6780    3.6869    0.0000 H   0  0  0  0  0  0  0  0  0  0  0  0
    5.9105    3.8501    0.0000 H   0  0  0  0  0  0  0  0  0  0  0  0
    5.1524    3.6038    0.0000 H   0  0  0  0  0  0  0  0  0  0  0  0
    8.6005    2.0080    0.0000 H   0  0  0  0  0  0  0  0  0  0  0  0
    8.0011    2.5353    0.0000 H   0  0  0  0  0  0  0  0  0  0  0  0
    6.1826   -0.0783    0.0000 H   0  0  0  0  0  0  0  0  0  0  0  0
    4.5113    0.3788    0.0000 H   0  0  0  0  0  0  0  0  0  0  0  0
    3.5313    3.8966    0.0000 H   0  0  0  0  0  0  0  0  0  0  0  0
    9.7911    1.1836    0.0000 H   0  0  0  0  0  0  0  0  0  0  0  0
    2.5152    0.7601    0.0000 H   0  0  0  0  0  0  0  0  0  0  0  0
    9.1881   -1.7079    0.0000 H   0  0  0  0  0  0  0  0  0  0  0  0
   10.3318   -0.4377    0.0000 H   0  0  0  0  0  0  0  0  0  0  0  0
    1.9056    3.5626    0.0000 H   0  0  0  0  0  0  0  0  0  0  0  0
    1.3942    1.9838    0.0000 H   0  0  0  0  0  0  0  0  0  0  0  0
    6.4260   -2.8888    0.0000 H   0  0  0  0  0  0  0  0  0  0  0  0
    6.4618   -3.7649    0.0000 H   0  0  0  0  0  0  0  0  0  0  0  0
    7.3379   -3.7292    0.0000 H   0  0  0  0  0  0  0  0  0  0  0  0
  1 24  1  0  0  0  0
  1 25  1  0  0  0  0
  2 24  2  0  0  0  0
  3  5  1  0  0  0  0
  3  7  1  0  0  0  0
  3 10  1  0  0  0  0
  4  9  1  0  0  0  0
  4 15  1  0  0  0  0
  4 33  1  0  0  0  0
  5  8  1  0  0  0  0
  5 26  1  0  0  0  0
  5 27  1  0  0  0  0
  6  8  1  0  0  0  0
  6  9  2  0  0  0  0
  6 11  1  0  0  0  0
  7  9  1  0  0  0  0
  7 13  2  0  0  0  0
  8 28  1  0  0  0  0
  8 29  1  0  0  0  0
 10 12  1  0  0  0  0
 10 30  1  0  0  0  0
 10 31  1  0  0  0  0
 11 15  1  0  0  0  0
 11 16  2  0  0  0  0
 12 14  2  0  0  0  0
 12 18  1  0  0  0  0
 13 14  1  0  0  0  0
 13 32  1  0  0  0  0
 14 17  1  0  0  0  0
 15 19  2  0  0  0  0
 16 22  1  0  0  0  0
 16 34  1  0  0  0  0
 17 20  2  0  0  0  0
 17 24  1  0  0  0  0
 18 21  2  0  0  0  0
 18 35  1  0  0  0  0
 19 23  1  0  0  0  0
 19 36  1  0  0  0  0
 20 21  1  0  0  0  0
 20 37  1  0  0  0  0
 21 38  1  0  0  0  0
 22 23  2  0  0  0  0
 22 39  1  0  0  0  0
 23 40  1  0  0  0  0
 25 41  1  0  0  0  0
 25 42  1  0  0  0  0
 25 43  1  0  0  0  0
M  END
> <PUBCHEM_COMPOUND_CID>
15559464

> <PUBCHEM_COMPOUND_CANONICALIZED>
1

> <PUBCHEM_CACTVS_COMPLEXITY>
574

> <PUBCHEM_CACTVS_HBOND_ACCEPTOR>
3

> <PUBCHEM_CACTVS_HBOND_DONOR>
1

> <PUBCHEM_CACTVS_ROTATABLE_BOND>
2

> <PUBCHEM_CACTVS_SUBSKEYS>
AAADceB7MAAAAAAAAAAAAAAAAAAAAWAAAAA8YIEAAAAAAFiB9AAAHgAQAAAADAjBngYyyPPJlACoAyTyTACCgCAlAiAImSE4bNgIZvLAtZmUMQhk0AHI6YeY2eKOgAACAAASAAAAAAQAACQAAAAAAAAAAA==

> <PUBCHEM_IUPAC_OPENEYE_NAME>
methyl 3,11,12,14-tetrahydroyohimban-19-carboxylate

> <PUBCHEM_IUPAC_CAS_NAME>
3,11,12,14-tetrahydroyohimban-19-carboxylic acid methyl ester

> <PUBCHEM_IUPAC_NAME>
methyl 3,11,12,14-tetrahydroyohimban-19-carboxylate

> <PUBCHEM_IUPAC_SYSTEMATIC_NAME>
methyl 3,11,12,14-tetrahydroyohimban-19-carboxylate

> <PUBCHEM_IUPAC_TRADITIONAL_NAME>
3,11,12,14-tetrahydroyohimban-19-carboxylic acid methyl ester

> <PUBCHEM_IUPAC_INCHI>
InChI=1S/C21H18N2O2/c1-25-21(24)16-7-4-5-13-12-23-10-9-15-14-6-2-3-8-18(14)22-20(15)19(23)11-17(13)16/h2-8,11,22H,9-10,12H2,1H3

> <PUBCHEM_IUPAC_INCHIKEY>
XXMFILHAOYZMSG-UHFFFAOYSA-N

> <PUBCHEM_XLOGP3_AA>
3.8

> <PUBCHEM_EXACT_MASS>
330.136828

> <PUBCHEM_MOLECULAR_FORMULA>
C21H18N2O2

> <PUBCHEM_MOLECULAR_WEIGHT>
330.37982

> <PUBCHEM_OPENEYE_CAN_SMILES>
COC(=O)C1=C2C=C3C4=C(CCN3CC2=CC=C1)C5=CC=CC=C5N4

> <PUBCHEM_OPENEYE_ISO_SMILES>
COC(=O)C1=C2C=C3C4=C(CCN3CC2=CC=C1)C5=CC=CC=C5N4

> <PUBCHEM_CACTVS_TPSA>
45.3

> <PUBCHEM_MONOISOTOPIC_WEIGHT>
330.136828

> <PUBCHEM_TOTAL_CHARGE>
0

> <PUBCHEM_HEAVY_ATOM_COUNT>
25

> <PUBCHEM_ATOM_DEF_STEREO_COUNT>
0

> <PUBCHEM_ATOM_UDEF_STEREO_COUNT>
0

> <PUBCHEM_BOND_DEF_STEREO_COUNT>
0

> <PUBCHEM_BOND_UDEF_STEREO_COUNT>
0

> <PUBCHEM_ISOTOPIC_ATOM_COUNT>
0

> <PUBCHEM_COMPONENT_COUNT>
1

> <PUBCHEM_CACTVS_TAUTO_COUNT>
5

> <PUBCHEM_COORDINATE_TYPE>
1
5
255

> <PUBCHEM_BONDANNOTATIONS>
11  15  8
11  16  8
12  14  8
12  18  8
14  17  8
15  19  8
16  22  8
17  20  8
18  21  8
19  23  8
20  21  8
22  23  8
4  15  8
4  9  8
6  11  8
6  9  8

$$$$

