17395872
  -OEChem-06241222522D

 45 47  0     1  0  0  0  0  0999 V2000
    2.0000   -4.1193    0.0000 F   0  0  0  0  0  0  0  0  0  0  0  0
    4.8255    2.5444    0.0000 O   0  0  0  0  0  0  0  0  0  0  0  0
    6.5856   -0.5042    0.0000 O   0  0  0  0  0  0  0  0  0  0  0  0
    5.4641    0.8807    0.0000 N   0  0  0  0  0  0  0  0  0  0  0  0
    7.0468    1.2171    0.0000 N   0  0  0  0  0  0  0  0  0  0  0  0
    4.5981   -0.6193    0.0000 N   0  0  3  0  0  0  0  0  0  0  0  0
    6.5468    2.0831    0.0000 C   0  0  3  0  0  0  0  0  0  0  0  0
    6.9535    2.9967    0.0000 C   0  0  0  0  0  0  0  0  0  0  0  0
    5.5686    1.8752    0.0000 C   0  0  0  0  0  0  0  0  0  0  0  0
    4.5981    0.3807    0.0000 C   0  0  0  0  0  0  0  0  0  0  0  0
    6.3776    0.4740    0.0000 C   0  0  0  0  0  0  0  0  0  0  0  0
    7.9480    3.1012    0.0000 C   0  0  0  0  0  0  0  0  0  0  0  0
    3.7320   -1.1193    0.0000 C   0  0  0  0  0  0  0  0  0  0  0  0
    5.4641   -1.1193    0.0000 C   0  0  0  0  0  0  0  0  0  0  0  0
    3.7320   -2.1193    0.0000 C   0  0  0  0  0  0  0  0  0  0  0  0
    8.5358    2.2922    0.0000 C   0  0  0  0  0  0  0  0  0  0  0  0
    8.3548    4.0148    0.0000 C   0  0  0  0  0  0  0  0  0  0  0  0
    2.8660   -2.6193    0.0000 C   0  0  0  0  0  0  0  0  0  0  0  0
    4.5981   -2.6193    0.0000 C   0  0  0  0  0  0  0  0  0  0  0  0
    9.5303    2.3967    0.0000 C   0  0  0  0  0  0  0  0  0  0  0  0
    9.3493    4.1193    0.0000 C   0  0  0  0  0  0  0  0  0  0  0  0
    9.9371    3.3103    0.0000 C   0  0  0  0  0  0  0  0  0  0  0  0
    2.8660   -3.6193    0.0000 C   0  0  0  0  0  0  0  0  0  0  0  0
    4.5981   -3.6193    0.0000 C   0  0  0  0  0  0  0  0  0  0  0  0
    3.7320   -4.1193    0.0000 C   0  0  0  0  0  0  0  0  0  0  0  0
    7.1659    2.1156    0.0000 H   0  0  0  0  0  0  0  0  0  0  0  0
    6.9968    3.6152    0.0000 H   0  0  0  0  0  0  0  0  0  0  0  0
    6.3519    3.1467    0.0000 H   0  0  0  0  0  0  0  0  0  0  0  0
    4.3860    0.9633    0.0000 H   0  0  0  0  0  0  0  0  0  0  0  0
    3.9875    0.2730    0.0000 H   0  0  0  0  0  0  0  0  0  0  0  0
    7.6634    1.1523    0.0000 H   0  0  0  0  0  0  0  0  0  0  0  0
    3.5200   -0.5367    0.0000 H   0  0  0  0  0  0  0  0  0  0  0  0
    3.1215   -1.2270    0.0000 H   0  0  0  0  0  0  0  0  0  0  0  0
    5.1541   -1.6562    0.0000 H   0  0  0  0  0  0  0  0  0  0  0  0
    6.0010   -1.4293    0.0000 H   0  0  0  0  0  0  0  0  0  0  0  0
    5.7741   -0.5824    0.0000 H   0  0  0  0  0  0  0  0  0  0  0  0
    8.2836    1.7258    0.0000 H   0  0  0  0  0  0  0  0  0  0  0  0
    7.9904    4.5164    0.0000 H   0  0  0  0  0  0  0  0  0  0  0  0
    2.3291   -2.3093    0.0000 H   0  0  0  0  0  0  0  0  0  0  0  0
    5.1350   -2.3093    0.0000 H   0  0  0  0  0  0  0  0  0  0  0  0
    9.8948    1.8951    0.0000 H   0  0  0  0  0  0  0  0  0  0  0  0
    9.6015    4.6857    0.0000 H   0  0  0  0  0  0  0  0  0  0  0  0
   10.5537    3.3751    0.0000 H   0  0  0  0  0  0  0  0  0  0  0  0
    5.1350   -3.9293    0.0000 H   0  0  0  0  0  0  0  0  0  0  0  0
    3.7320   -4.7393    0.0000 H   0  0  0  0  0  0  0  0  0  0  0  0
  1 23  1  0  0  0  0
  2  9  2  0  0  0  0
  3 11  2  0  0  0  0
  4  9  1  0  0  0  0
  4 10  1  0  0  0  0
  4 11  1  0  0  0  0
  5  7  1  0  0  0  0
  5 11  1  0  0  0  0
  5 31  1  0  0  0  0
  6 10  1  0  0  0  0
  6 13  1  0  0  0  0
  6 14  1  0  0  0  0
  7  8  1  0  0  0  0
  7  9  1  0  0  0  0
  7 26  1  0  0  0  0
  8 12  1  0  0  0  0
  8 27  1  0  0  0  0
  8 28  1  0  0  0  0
 10 29  1  0  0  0  0
 10 30  1  0  0  0  0
 12 16  2  0  0  0  0
 12 17  1  0  0  0  0
 13 15  1  0  0  0  0
 13 32  1  0  0  0  0
 13 33  1  0  0  0  0
 14 34  1  0  0  0  0
 14 35  1  0  0  0  0
 14 36  1  0  0  0  0
 15 18  2  0  0  0  0
 15 19  1  0  0  0  0
 16 20  1  0  0  0  0
 16 37  1  0  0  0  0
 17 21  2  0  0  0  0
 17 38  1  0  0  0  0
 18 23  1  0  0  0  0
 18 39  1  0  0  0  0
 19 24  2  0  0  0  0
 19 40  1  0  0  0  0
 20 22  2  0  0  0  0
 20 41  1  0  0  0  0
 21 22  1  0  0  0  0
 21 42  1  0  0  0  0
 22 43  1  0  0  0  0
 23 25  2  0  0  0  0
 24 25  1  0  0  0  0
 24 44  1  0  0  0  0
 25 45  1  0  0  0  0
M  END
> <PUBCHEM_COMPOUND_CID>
17395872

> <PUBCHEM_COMPOUND_CANONICALIZED>
1

> <PUBCHEM_CACTVS_COMPLEXITY>
481

> <PUBCHEM_CACTVS_HBOND_ACCEPTOR>
4

> <PUBCHEM_CACTVS_HBOND_DONOR>
1

> <PUBCHEM_CACTVS_ROTATABLE_BOND>
6

> <PUBCHEM_CACTVS_SUBSKEYS>
AAADceB7MQAAAAAAAAAAAAAAAAAAAWAAAAAwYAAAAAAAAAABQAAAHwAQAAAADCjBmAwzAIPAAACIAiFSEACCAAAgAAAIiIGIBIiIYDKAkTGUIAholyIIiAcYiICOAAAAAAAAAAAAAAAAAAAAAAAAAAAAAA==

> <PUBCHEM_IUPAC_OPENEYE_NAME>
5-benzyl-3-[[(3-fluorophenyl)methyl-methyl-amino]methyl]imidazolidine-2,4-dione

> <PUBCHEM_IUPAC_CAS_NAME>
3-[[(3-fluorophenyl)methyl-methylamino]methyl]-5-(phenylmethyl)imidazolidine-2,4-dione

> <PUBCHEM_IUPAC_NAME>
5-benzyl-3-[[(3-fluorophenyl)methyl-methylamino]methyl]imidazolidine-2,4-dione

> <PUBCHEM_IUPAC_SYSTEMATIC_NAME>
3-[[(3-fluorophenyl)methyl-methyl-amino]methyl]-5-(phenylmethyl)imidazolidine-2,4-dione

> <PUBCHEM_IUPAC_TRADITIONAL_NAME>
5-benzyl-3-[[(3-fluorobenzyl)-methyl-amino]methyl]hydantoin

> <PUBCHEM_IUPAC_INCHI>
InChI=1S/C19H20FN3O2/c1-22(12-15-8-5-9-16(20)10-15)13-23-18(24)17(21-19(23)25)11-14-6-3-2-4-7-14/h2-10,17H,11-13H2,1H3,(H,21,25)

> <PUBCHEM_IUPAC_INCHIKEY>
IWTYUXYPGIJHDR-UHFFFAOYSA-N

> <PUBCHEM_XLOGP3_AA>
2.9

> <PUBCHEM_EXACT_MASS>
341.153955

> <PUBCHEM_MOLECULAR_FORMULA>
C19H20FN3O2

> <PUBCHEM_MOLECULAR_WEIGHT>
341.379403

> <PUBCHEM_OPENEYE_CAN_SMILES>
CN(CC1=CC(=CC=C1)F)CN2C(=O)C(NC2=O)CC3=CC=CC=C3

> <PUBCHEM_OPENEYE_ISO_SMILES>
CN(CC1=CC(=CC=C1)F)CN2C(=O)C(NC2=O)CC3=CC=CC=C3

> <PUBCHEM_CACTVS_TPSA>
52.6

> <PUBCHEM_MONOISOTOPIC_WEIGHT>
341.153955

> <PUBCHEM_TOTAL_CHARGE>
0

> <PUBCHEM_HEAVY_ATOM_COUNT>
25

> <PUBCHEM_ATOM_DEF_STEREO_COUNT>
0

> <PUBCHEM_ATOM_UDEF_STEREO_COUNT>
1

> <PUBCHEM_BOND_DEF_STEREO_COUNT>
0

> <PUBCHEM_BOND_UDEF_STEREO_COUNT>
0

> <PUBCHEM_ISOTOPIC_ATOM_COUNT>
0

> <PUBCHEM_COMPONENT_COUNT>
1

> <PUBCHEM_CACTVS_TAUTO_COUNT>
4

> <PUBCHEM_COORDINATE_TYPE>
1
5
255

> <PUBCHEM_BONDANNOTATIONS>
12  16  8
12  17  8
15  18  8
15  19  8
16  20  8
17  21  8
18  23  8
19  24  8
20  22  8
21  22  8
23  25  8
24  25  8
7  8  3

$$$$

