104836
  -OEChem-07051213003D

 52 54  0     1  0  0  0  0  0999 V2000
    0.3208   -1.6928   -1.6656 O   0  0  0  0  0  0  0  0  0  0  0  0
   -1.7503   -2.8562    1.1372 O   0  0  0  0  0  0  0  0  0  0  0  0
   -2.8967   -4.3282   -0.8550 O   0  0  0  0  0  0  0  0  0  0  0  0
    0.8246   -3.2670    1.4505 O   0  0  0  0  0  0  0  0  0  0  0  0
    1.8997   -3.3970   -0.5553 O   0  0  0  0  0  0  0  0  0  0  0  0
   -4.4082    2.8394    0.3206 O   0  0  0  0  0  0  0  0  0  0  0  0
   -2.0826    3.6378    1.6153 O   0  0  0  0  0  0  0  0  0  0  0  0
    2.8368    2.7478   -1.6785 O   0  0  0  0  0  0  0  0  0  0  0  0
    4.8695   -0.0889    1.6014 O   0  0  0  0  0  0  0  0  0  0  0  0
    5.0715    1.9723   -0.2371 O   0  0  0  0  0  0  0  0  0  0  0  0
   -0.0200   -1.9357   -0.3017 C   0  0  2  0  0  0  0  0  0  0  0  0
   -1.4419   -2.5411   -0.2267 C   0  0  2  0  0  0  0  0  0  0  0  0
    0.1070   -0.6482    0.5727 C   0  0  2  0  0  0  0  0  0  0  0  0
   -2.4753   -1.5143   -0.7295 C   0  0  0  0  0  0  0  0  0  0  0  0
   -1.1094    0.2761    0.4818 C   0  0  0  0  0  0  0  0  0  0  0  0
   -2.3110   -0.1423   -0.1203 C   0  0  0  0  0  0  0  0  0  0  0  0
   -1.5882   -3.8331   -1.0466 C   0  0  0  0  0  0  0  0  0  0  0  0
    1.4479    0.0598    0.3542 C   0  0  0  0  0  0  0  0  0  0  0  0
    1.0131   -2.9379    0.1491 C   0  0  0  0  0  0  0  0  0  0  0  0
   -1.0707    1.5483    1.0867 C   0  0  0  0  0  0  0  0  0  0  0  0
   -3.4035    0.7412   -0.1812 C   0  0  0  0  0  0  0  0  0  0  0  0
    1.5339    1.0918   -0.5704 C   0  0  0  0  0  0  0  0  0  0  0  0
    2.5592   -0.3394    1.0841 C   0  0  0  0  0  0  0  0  0  0  0  0
   -2.1670    2.4095    1.0329 C   0  0  0  0  0  0  0  0  0  0  0  0
   -3.3307    2.0098    0.3891 C   0  0  0  0  0  0  0  0  0  0  0  0
    2.7546    1.7369   -0.7690 C   0  0  0  0  0  0  0  0  0  0  0  0
    3.7799    0.3058    0.8855 C   0  0  0  0  0  0  0  0  0  0  0  0
    3.8776    1.3439   -0.0410 C   0  0  0  0  0  0  0  0  0  0  0  0
   -4.4828    3.7147   -0.8033 C   0  0  0  0  0  0  0  0  0  0  0  0
    1.6422    3.0871   -2.3800 C   0  0  0  0  0  0  0  0  0  0  0  0
    0.0960   -0.9460    1.6328 H   0  0  0  0  0  0  0  0  0  0  0  0
   -3.4851   -1.8686   -0.4837 H   0  0  0  0  0  0  0  0  0  0  0  0
   -2.4125   -1.4058   -1.8197 H   0  0  0  0  0  0  0  0  0  0  0  0
   -0.8966   -4.6115   -0.7095 H   0  0  0  0  0  0  0  0  0  0  0  0
   -1.4293   -3.6650   -2.1161 H   0  0  0  0  0  0  0  0  0  0  0  0
   -0.1809    1.8780    1.6192 H   0  0  0  0  0  0  0  0  0  0  0  0
   -0.1034   -0.8644   -1.9448 H   0  0  0  0  0  0  0  0  0  0  0  0
   -1.8638   -2.0355    1.6427 H   0  0  0  0  0  0  0  0  0  0  0  0
   -4.3245    0.4279   -0.6690 H   0  0  0  0  0  0  0  0  0  0  0  0
    0.6491    1.3402   -1.1433 H   0  0  0  0  0  0  0  0  0  0  0  0
    2.4848   -1.1363    1.8182 H   0  0  0  0  0  0  0  0  0  0  0  0
   -3.0172   -4.4858    0.0971 H   0  0  0  0  0  0  0  0  0  0  0  0
    1.4881   -3.9181    1.7633 H   0  0  0  0  0  0  0  0  0  0  0  0
   -2.9402    4.0862    1.5174 H   0  0  0  0  0  0  0  0  0  0  0  0
    4.6148   -0.8196    2.1906 H   0  0  0  0  0  0  0  0  0  0  0  0
   -3.6066    4.3694   -0.8448 H   0  0  0  0  0  0  0  0  0  0  0  0
   -4.5647    3.1385   -1.7304 H   0  0  0  0  0  0  0  0  0  0  0  0
   -5.3775    4.3341   -0.6962 H   0  0  0  0  0  0  0  0  0  0  0  0
    4.9484    2.6610   -0.9134 H   0  0  0  0  0  0  0  0  0  0  0  0
    0.8631    3.4512   -1.7012 H   0  0  0  0  0  0  0  0  0  0  0  0
    1.2959    2.2613   -3.0108 H   0  0  0  0  0  0  0  0  0  0  0  0
    1.8887    3.9160   -3.0518 H   0  0  0  0  0  0  0  0  0  0  0  0
  1 11  1  0  0  0  0
  1 37  1  0  0  0  0
  2 12  1  0  0  0  0
  2 38  1  0  0  0  0
  3 17  1  0  0  0  0
  3 42  1  0  0  0  0
  4 19  1  0  0  0  0
  4 43  1  0  0  0  0
  5 19  2  0  0  0  0
  6 25  1  0  0  0  0
  6 29  1  0  0  0  0
  7 24  1  0  0  0  0
  7 44  1  0  0  0  0
  8 26  1  0  0  0  0
  8 30  1  0  0  0  0
  9 27  1  0  0  0  0
  9 45  1  0  0  0  0
 10 28  1  0  0  0  0
 10 49  1  0  0  0  0
 11 12  1  0  0  0  0
 11 13  1  0  0  0  0
 11 19  1  0  0  0  0
 12 14  1  0  0  0  0
 12 17  1  0  0  0  0
 13 15  1  0  0  0  0
 13 18  1  0  0  0  0
 13 31  1  0  0  0  0
 14 16  1  0  0  0  0
 14 32  1  0  0  0  0
 14 33  1  0  0  0  0
 15 16  1  0  0  0  0
 15 20  2  0  0  0  0
 16 21  2  0  0  0  0
 17 34  1  0  0  0  0
 17 35  1  0  0  0  0
 18 22  1  0  0  0  0
 18 23  2  0  0  0  0
 20 24  1  0  0  0  0
 20 36  1  0  0  0  0
 21 25  1  0  0  0  0
 21 39  1  0  0  0  0
 22 26  2  0  0  0  0
 22 40  1  0  0  0  0
 23 27  1  0  0  0  0
 23 41  1  0  0  0  0
 24 25  2  0  0  0  0
 26 28  1  0  0  0  0
 27 28  2  0  0  0  0
 29 46  1  0  0  0  0
 29 47  1  0  0  0  0
 29 48  1  0  0  0  0
 30 50  1  0  0  0  0
 30 51  1  0  0  0  0
 30 52  1  0  0  0  0
M  END
> <PUBCHEM_COMPOUND_CID>
104836

> <PUBCHEM_CONFORMER_RMSD>
0.8

> <PUBCHEM_CONFORMER_DIVERSEORDER>
1
13
14
4
12
3
10
9
8
2
11
6
5
7

> <PUBCHEM_MMFF94_PARTIAL_CHARGES>
41
1 -0.68
10 -0.53
11 0.34
12 0.28
13 0.29
14 0.14
15 -0.14
16 -0.14
17 0.28
18 -0.14
19 0.66
2 -0.68
20 -0.15
21 -0.15
22 -0.15
23 -0.15
24 0.08
25 0.08
26 0.08
27 0.08
28 0.08
29 0.28
3 -0.68
30 0.28
36 0.15
37 0.4
38 0.4
39 0.15
4 -0.65
40 0.15
41 0.15
42 0.4
43 0.5
44 0.45
45 0.45
49 0.45
5 -0.57
6 -0.36
7 -0.53
8 -0.36
9 -0.53

> <PUBCHEM_EFFECTIVE_ROTOR_COUNT>
5.8

> <PUBCHEM_PHARMACOPHORE_FEATURES>
17
1 1 acceptor
1 1 donor
1 10 donor
1 2 acceptor
1 2 donor
1 3 acceptor
1 3 donor
1 4 acceptor
1 5 acceptor
1 6 acceptor
1 7 donor
1 8 acceptor
1 9 donor
3 4 5 19 anion
6 11 12 13 14 15 16 rings
6 15 16 20 21 24 25 rings
6 18 22 23 26 27 28 rings

> <PUBCHEM_HEAVY_ATOM_COUNT>
30

> <PUBCHEM_ATOM_DEF_STEREO_COUNT>
3

> <PUBCHEM_ATOM_UDEF_STEREO_COUNT>
0

> <PUBCHEM_BOND_DEF_STEREO_COUNT>
0

> <PUBCHEM_BOND_UDEF_STEREO_COUNT>
0

> <PUBCHEM_ISOTOPIC_ATOM_COUNT>
0

> <PUBCHEM_COMPONENT_COUNT>
1

> <PUBCHEM_CACTVS_TAUTO_COUNT>
122

> <PUBCHEM_CONFORMER_ID>
0001998400000001

> <PUBCHEM_MMFF94_ENERGY>
113.3597

> <PUBCHEM_FEATURE_SELFOVERLAP>
86.38

> <PUBCHEM_SHAPE_FINGERPRINT>
10411042 1 17759252799072610467
1100329 8 18119529834955139299
11370993 70 18263650726062281681
11513181 2 17823429377214456919
11582403 64 15723103714579031690
11640471 11 18201712912592579220
12160290 23 18048284822290092713
12173636 292 18266180526244857444
12422481 6 17907605840622927626
12553582 1 17544746838026287826
12788726 201 18050557448468605590
13009979 54 18268157461569270042
13140716 1 18044942268713969321
13583140 156 17275390919285018809
138480 1 17182777113446752667
13965767 371 18126307421986743664
14790565 3 17758950811837892218
15420108 30 18122641688346429235
15439362 3 18193553591743299572
15475509 8 17323195292691146559
16752209 62 18192434061188541278
17818456 19 18408890629182249448
19319366 153 17048522908648340206
20642791 105 18339936904471145529
20642791 239 16828951501311343445
20739085 24 17836078244821188584
20775438 99 15809772340629605886
21285901 2 17391040700041569687
2132832 1 17982466892806154084
2255824 54 17904195180937974819
22907989 373 18118674427145142477
23558518 356 18341891853409914730
23559900 14 17825677908541808626
283562 15 18195532488844633531
350125 39 18191011507816535755
352729 6 18338791221802226819
474 4 18269552913186013113
7164475 11 18193554463573804772
9981440 41 18410016537067324867

> <PUBCHEM_SHAPE_MULTIPOLES>
558.69
7.47
5.71
1.51
2.45
2.99
0.33
-7.23
-0.59
-4.07
1.48
0.61
-0.69
-1.83

> <PUBCHEM_SHAPE_SELFOVERLAP>
1222.363

> <PUBCHEM_SHAPE_VOLUME>
300.6

> <PUBCHEM_COORDINATE_TYPE>
2
5
10

$$$$

