608116
  -OEChem-07051213053D

 30 31  0     0  0  0  0  0  0999 V2000
   -4.7205   -1.5662    0.0945 O   0  0  0  0  0  0  0  0  0  0  0  0
    4.6881   -1.6146    0.2249 O   0  0  0  0  0  0  0  0  0  0  0  0
    0.0057    1.4916   -0.2844 C   0  0  0  0  0  0  0  0  0  0  0  0
   -1.2432    0.6833   -0.1842 C   0  0  0  0  0  0  0  0  0  0  0  0
    1.2788    0.6473   -0.1458 C   0  0  0  0  0  0  0  0  0  0  0  0
    0.0560    2.7319    0.6438 C   0  0  0  0  0  0  0  0  0  0  0  0
   -1.7794    0.0839   -1.3237 C   0  0  0  0  0  0  0  0  0  0  0  0
    2.1560    0.6072   -1.2023 C   0  0  0  0  0  0  0  0  0  0  0  0
   -1.8754    0.5267    1.0494 C   0  0  0  0  0  0  0  0  0  0  0  0
    1.4881   -0.0336    1.0293 C   0  0  0  0  0  0  0  0  0  0  0  0
   -2.9479   -0.6720   -1.2299 C   0  0  0  0  0  0  0  0  0  0  0  0
    3.3136   -0.1608   -1.0763 C   0  0  0  0  0  0  0  0  0  0  0  0
   -3.0439   -0.2293    1.1433 C   0  0  0  0  0  0  0  0  0  0  0  0
    2.6457   -0.8015    1.1554 C   0  0  0  0  0  0  0  0  0  0  0  0
   -3.5802   -0.8287    0.0036 C   0  0  0  0  0  0  0  0  0  0  0  0
    3.5586   -0.8652    0.1026 C   0  0  0  0  0  0  0  0  0  0  0  0
    0.0061    1.9266   -1.2958 H   0  0  0  0  0  0  0  0  0  0  0  0
    0.9212    3.3569    0.3931 H   0  0  0  0  0  0  0  0  0  0  0  0
    0.1525    2.4665    1.7018 H   0  0  0  0  0  0  0  0  0  0  0  0
   -0.8451    3.3441    0.5266 H   0  0  0  0  0  0  0  0  0  0  0  0
   -1.2969    0.1951   -2.2912 H   0  0  0  0  0  0  0  0  0  0  0  0
    1.9752    1.1514   -2.1238 H   0  0  0  0  0  0  0  0  0  0  0  0
   -1.4842    0.9728    1.9583 H   0  0  0  0  0  0  0  0  0  0  0  0
    0.7987    0.0113    1.8649 H   0  0  0  0  0  0  0  0  0  0  0  0
   -3.3553   -1.1341   -2.1251 H   0  0  0  0  0  0  0  0  0  0  0  0
    4.0209   -0.2065   -1.9000 H   0  0  0  0  0  0  0  0  0  0  0  0
   -3.5313   -0.3493    2.1070 H   0  0  0  0  0  0  0  0  0  0  0  0
    2.8262   -1.3434    2.0799 H   0  0  0  0  0  0  0  0  0  0  0  0
   -4.9476   -1.9054   -0.7884 H   0  0  0  0  0  0  0  0  0  0  0  0
    4.6953   -2.0322    1.1032 H   0  0  0  0  0  0  0  0  0  0  0  0
  1 15  1  0  0  0  0
  1 29  1  0  0  0  0
  2 16  1  0  0  0  0
  2 30  1  0  0  0  0
  3  4  1  0  0  0  0
  3  5  1  0  0  0  0
  3  6  1  0  0  0  0
  3 17  1  0  0  0  0
  4  7  2  0  0  0  0
  4  9  1  0  0  0  0
  5  8  2  0  0  0  0
  5 10  1  0  0  0  0
  6 18  1  0  0  0  0
  6 19  1  0  0  0  0
  6 20  1  0  0  0  0
  7 11  1  0  0  0  0
  7 21  1  0  0  0  0
  8 12  1  0  0  0  0
  8 22  1  0  0  0  0
  9 13  2  0  0  0  0
  9 23  1  0  0  0  0
 10 14  2  0  0  0  0
 10 24  1  0  0  0  0
 11 15  2  0  0  0  0
 11 25  1  0  0  0  0
 12 16  2  0  0  0  0
 12 26  1  0  0  0  0
 13 15  1  0  0  0  0
 13 27  1  0  0  0  0
 14 16  1  0  0  0  0
 14 28  1  0  0  0  0
M  END
> <PUBCHEM_COMPOUND_CID>
608116

> <PUBCHEM_CONFORMER_RMSD>
0.6

> <PUBCHEM_CONFORMER_DIVERSEORDER>
1
3
2
4

> <PUBCHEM_MMFF94_PARTIAL_CHARGES>
25
1 -0.53
10 -0.15
11 -0.15
12 -0.15
13 -0.15
14 -0.15
15 0.08
16 0.08
2 -0.53
21 0.15
22 0.15
23 0.15
24 0.15
25 0.15
26 0.15
27 0.15
28 0.15
29 0.45
3 0.29
30 0.45
4 -0.14
5 -0.14
7 -0.15
8 -0.15
9 -0.15

> <PUBCHEM_EFFECTIVE_ROTOR_COUNT>
2

> <PUBCHEM_PHARMACOPHORE_FEATURES>
5
1 1 donor
1 2 donor
1 6 hydrophobe
6 4 7 9 11 13 15 rings
6 5 8 10 12 14 16 rings

> <PUBCHEM_HEAVY_ATOM_COUNT>
16

> <PUBCHEM_ATOM_DEF_STEREO_COUNT>
0

> <PUBCHEM_ATOM_UDEF_STEREO_COUNT>
0

> <PUBCHEM_BOND_DEF_STEREO_COUNT>
0

> <PUBCHEM_BOND_UDEF_STEREO_COUNT>
0

> <PUBCHEM_ISOTOPIC_ATOM_COUNT>
0

> <PUBCHEM_COMPONENT_COUNT>
1

> <PUBCHEM_CACTVS_TAUTO_COUNT>
3

> <PUBCHEM_CONFORMER_ID>
0009477400000001

> <PUBCHEM_MMFF94_ENERGY>
46.0585

> <PUBCHEM_FEATURE_SELFOVERLAP>
25.371

> <PUBCHEM_SHAPE_FINGERPRINT>
10618630 7 18410011069784628102
11046707 91 18336265729671977682
11543360 7 15985098591850459774
11578080 2 18339657688521528420
12251169 10 15430038742486188209
12363563 72 18409731763539561506
12507560 40 14924216161943305200
12553582 1 18187082832205323118
12633257 1 15719400511808316906
12707595 3 18411989026715255613
12892183 10 15864061113443731687
13296908 3 18409456881348557029
13581323 91 16588298372030534253
13705890 14 17489868237352037244
14576447 43 17846780732746557930
15239191 94 18411416202547800143
15375462 189 18411129212838271728
15653759 3 16081083792244171699
15906896 17 17981602981282553969
16945 1 17560793295352844936
1741750 31 9727339234802747980
17804303 29 16298927836485534613
1813 80 18187354428915807068
18186145 218 14620789405503772508
19422 9 18412252943712776837
200 152 18059855086344231106
20112054 13 7060374834006559698
20281475 54 18271802393891067721
20361792 2 18408046195171780293
20645477 70 18059576853951998927
20671657 53 18411418380312568473
20871999 31 15841557379441804679
21065199 12 15140675890790759199
21296965 67 18410014329601891921
21524375 3 9007056855148194709
21713013 43 17275386478162565111
21731228 192 5545192835234019628
21731516 1 18408605855079954437
2255824 54 18192426364206356821
22646028 28 18411700993197078246
23402539 116 18342175626605020090
23402655 69 15769504234483567542
23559900 14 15267061428694827216
25 1 13038909983702922252
27216 239 6988020389072428527
2838139 119 11814740040413943854
2871803 45 16988844964465693635
3082319 5 15985109634168984775
3286 77 18341052909126480095
4028521 119 12967131609762860119
465052 167 18337944572855086719
5262128 65 15769765871011625870
7364860 26 17679301871151250921
7970288 3 18409729564522691599
81228 2 18116997903751788809
83771 10 18410291414979308932
94968 8 18272651199360956467

> <PUBCHEM_SHAPE_MULTIPOLES>
317.53
7.72
1.73
1.34
0.02
0.97
0.1
-5.6
-0.06
-0.09
-0.29
0.07
-0.03
-0.46

> <PUBCHEM_SHAPE_SELFOVERLAP>
684.068

> <PUBCHEM_SHAPE_VOLUME>
175.3

> <PUBCHEM_COORDINATE_TYPE>
2
5
10

$$$$

