47205248
  -OEChem-06241222582D

 37 37  0     1  0  0  0  0  0999 V2000
    6.3301    2.0000    0.0000 O   0  0  0  0  0  0  0  0  0  0  0  0
    2.8660    1.0000    0.0000 O   0  0  0  0  0  0  0  0  0  0  0  0
    4.5981   -4.0000    0.0000 O   0  5  0  0  0  0  0  0  0  0  0  0
    2.8660   -4.0000    0.0000 O   0  0  0  0  0  0  0  0  0  0  0  0
    4.5981    1.0000    0.0000 N   0  0  0  0  0  0  0  0  0  0  0  0
    5.4641    3.5000    0.0000 N   0  0  0  0  0  0  0  0  0  0  0  0
    3.7320   -3.5000    0.0000 N   0  3  0  0  0  0  0  0  0  0  0  0
    4.5981    2.0000    0.0000 C   0  0  3  0  0  0  0  0  0  0  0  0
    5.4641    2.5000    0.0000 C   0  0  0  0  0  0  0  0  0  0  0  0
    3.7320    2.5000    0.0000 C   0  0  0  0  0  0  0  0  0  0  0  0
    3.7320   -0.5000    0.0000 C   0  0  0  0  0  0  0  0  0  0  0  0
    3.7320    0.5000    0.0000 C   0  0  0  0  0  0  0  0  0  0  0  0
    2.8660   -2.0000    0.0000 C   0  0  0  0  0  0  0  0  0  0  0  0
    2.8660   -1.0000    0.0000 C   0  0  0  0  0  0  0  0  0  0  0  0
    4.5981   -1.0000    0.0000 C   0  0  0  0  0  0  0  0  0  0  0  0
    3.7320   -2.5000    0.0000 C   0  0  0  0  0  0  0  0  0  0  0  0
    4.5981   -2.0000    0.0000 C   0  0  0  0  0  0  0  0  0  0  0  0
    6.3301    4.0000    0.0000 C   0  0  0  0  0  0  0  0  0  0  0  0
    4.5981    4.0000    0.0000 C   0  0  0  0  0  0  0  0  0  0  0  0
    2.0000   -2.5000    0.0000 C   0  0  0  0  0  0  0  0  0  0  0  0
    5.1350    1.6900    0.0000 H   0  0  0  0  0  0  0  0  0  0  0  0
    5.1350    0.6900    0.0000 H   0  0  0  0  0  0  0  0  0  0  0  0
    4.0420    3.0369    0.0000 H   0  0  0  0  0  0  0  0  0  0  0  0
    3.1951    2.8100    0.0000 H   0  0  0  0  0  0  0  0  0  0  0  0
    3.4220    1.9631    0.0000 H   0  0  0  0  0  0  0  0  0  0  0  0
    2.3291   -0.6900    0.0000 H   0  0  0  0  0  0  0  0  0  0  0  0
    5.1350   -0.6900    0.0000 H   0  0  0  0  0  0  0  0  0  0  0  0
    5.1350   -2.3100    0.0000 H   0  0  0  0  0  0  0  0  0  0  0  0
    6.6401    3.4631    0.0000 H   0  0  0  0  0  0  0  0  0  0  0  0
    6.8671    4.3100    0.0000 H   0  0  0  0  0  0  0  0  0  0  0  0
    6.0201    4.5369    0.0000 H   0  0  0  0  0  0  0  0  0  0  0  0
    4.9081    4.5369    0.0000 H   0  0  0  0  0  0  0  0  0  0  0  0
    4.0611    4.3100    0.0000 H   0  0  0  0  0  0  0  0  0  0  0  0
    4.2881    3.4631    0.0000 H   0  0  0  0  0  0  0  0  0  0  0  0
    1.6900   -1.9631    0.0000 H   0  0  0  0  0  0  0  0  0  0  0  0
    1.4631   -2.8100    0.0000 H   0  0  0  0  0  0  0  0  0  0  0  0
    2.3100   -3.0369    0.0000 H   0  0  0  0  0  0  0  0  0  0  0  0
  1  9  2  0  0  0  0
  2 12  2  0  0  0  0
  3  7  1  0  0  0  0
  4  7  2  0  0  0  0
  5  8  1  0  0  0  0
  5 12  1  0  0  0  0
  5 22  1  0  0  0  0
  6  9  1  0  0  0  0
  6 18  1  0  0  0  0
  6 19  1  0  0  0  0
  7 16  1  0  0  0  0
  8  9  1  0  0  0  0
  8 10  1  0  0  0  0
  8 21  1  0  0  0  0
 10 23  1  0  0  0  0
 10 24  1  0  0  0  0
 10 25  1  0  0  0  0
 11 12  1  0  0  0  0
 11 14  2  0  0  0  0
 11 15  1  0  0  0  0
 13 14  1  0  0  0  0
 13 16  2  0  0  0  0
 13 20  1  0  0  0  0
 14 26  1  0  0  0  0
 15 17  2  0  0  0  0
 15 27  1  0  0  0  0
 16 17  1  0  0  0  0
 17 28  1  0  0  0  0
 18 29  1  0  0  0  0
 18 30  1  0  0  0  0
 18 31  1  0  0  0  0
 19 32  1  0  0  0  0
 19 33  1  0  0  0  0
 19 34  1  0  0  0  0
 20 35  1  0  0  0  0
 20 36  1  0  0  0  0
 20 37  1  0  0  0  0
M  CHG  2   3  -1   7   1
M  END
> <PUBCHEM_COMPOUND_CID>
47205248

> <PUBCHEM_COMPOUND_CANONICALIZED>
1

> <PUBCHEM_CACTVS_COMPLEXITY>
392

> <PUBCHEM_CACTVS_HBOND_ACCEPTOR>
4

> <PUBCHEM_CACTVS_HBOND_DONOR>
1

> <PUBCHEM_CACTVS_ROTATABLE_BOND>
3

> <PUBCHEM_CACTVS_SUBSKEYS>
AAADceBzOAAAAAAAAAAAAAAAAAAAAAAAAAAwAAAAAAAAAAABAAAAHgAUAAAADCjBmAQywIPQQACJAiVSUwCCAAAkAgAoiIGIZMoIYDKAlbGUIQhglgCIyYcYiUCeCAACAAACAAAQAAQAAAQAAAAAAAAAAA==

> <PUBCHEM_IUPAC_OPENEYE_NAME>
N-[2-(dimethylamino)-1-methyl-2-oxo-ethyl]-3-methyl-4-nitro-benzamide

> <PUBCHEM_IUPAC_CAS_NAME>
N-[1-(dimethylamino)-1-oxopropan-2-yl]-3-methyl-4-nitrobenzamide

> <PUBCHEM_IUPAC_NAME>
N-[1-(dimethylamino)-1-oxopropan-2-yl]-3-methyl-4-nitrobenzamide

> <PUBCHEM_IUPAC_SYSTEMATIC_NAME>
N-[1-(dimethylamino)-1-oxidanylidene-propan-2-yl]-3-methyl-4-nitro-benzamide

> <PUBCHEM_IUPAC_TRADITIONAL_NAME>
N-[2-(dimethylamino)-2-keto-1-methyl-ethyl]-3-methyl-4-nitro-benzamide

> <PUBCHEM_IUPAC_INCHI>
InChI=1S/C13H17N3O4/c1-8-7-10(5-6-11(8)16(19)20)12(17)14-9(2)13(18)15(3)4/h5-7,9H,1-4H3,(H,14,17)

> <PUBCHEM_IUPAC_INCHIKEY>
YBCRWXAAUSXXAH-UHFFFAOYSA-N

> <PUBCHEM_XLOGP3_AA>
1.3

> <PUBCHEM_EXACT_MASS>
279.121906

> <PUBCHEM_MOLECULAR_FORMULA>
C13H17N3O4

> <PUBCHEM_MOLECULAR_WEIGHT>
279.29178

> <PUBCHEM_OPENEYE_CAN_SMILES>
CC1=C(C=CC(=C1)C(=O)NC(C)C(=O)N(C)C)[N+](=O)[O-]

> <PUBCHEM_OPENEYE_ISO_SMILES>
CC1=C(C=CC(=C1)C(=O)NC(C)C(=O)N(C)C)[N+](=O)[O-]

> <PUBCHEM_CACTVS_TPSA>
95.2

> <PUBCHEM_MONOISOTOPIC_WEIGHT>
279.121906

> <PUBCHEM_TOTAL_CHARGE>
0

> <PUBCHEM_HEAVY_ATOM_COUNT>
20

> <PUBCHEM_ATOM_DEF_STEREO_COUNT>
0

> <PUBCHEM_ATOM_UDEF_STEREO_COUNT>
1

> <PUBCHEM_BOND_DEF_STEREO_COUNT>
0

> <PUBCHEM_BOND_UDEF_STEREO_COUNT>
0

> <PUBCHEM_ISOTOPIC_ATOM_COUNT>
0

> <PUBCHEM_COMPONENT_COUNT>
1

> <PUBCHEM_CACTVS_TAUTO_COUNT>
2

> <PUBCHEM_COORDINATE_TYPE>
1
5
255

> <PUBCHEM_BONDANNOTATIONS>
11  14  8
11  15  8
13  14  8
13  16  8
15  17  8
16  17  8
8  10  3

$$$$

