9663
  -OEChem-06261203552D

  7  6  0     0  0  0  0  0  0999 V2000
    2.0000    0.7500    0.0000 Cl  0  0  0  0  0  0  0  0  0  0  0  0
    4.5981    0.2500    0.0000 F   0  0  0  0  0  0  0  0  0  0  0  0
    2.8660   -0.7500    0.0000 O   0  0  0  0  0  0  0  0  0  0  0  0
    3.7320    0.7500    0.0000 C   0  0  0  0  0  0  0  0  0  0  0  0
    2.8660    0.2500    0.0000 C   0  0  0  0  0  0  0  0  0  0  0  0
    4.1306    1.2250    0.0000 H   0  0  0  0  0  0  0  0  0  0  0  0
    3.3335    1.2250    0.0000 H   0  0  0  0  0  0  0  0  0  0  0  0
  1  5  1  0  0  0  0
  2  4  1  0  0  0  0
  3  5  2  0  0  0  0
  4  5  1  0  0  0  0
  4  6  1  0  0  0  0
  4  7  1  0  0  0  0
M  END
> <PUBCHEM_COMPOUND_CID>
9663

> <PUBCHEM_COMPOUND_CANONICALIZED>
1

> <PUBCHEM_CACTVS_COMPLEXITY>
44.9

> <PUBCHEM_CACTVS_HBOND_ACCEPTOR>
2

> <PUBCHEM_CACTVS_HBOND_DONOR>
0

> <PUBCHEM_CACTVS_ROTATABLE_BOND>
1

> <PUBCHEM_CACTVS_SUBSKEYS>
AAADcQBAIQAEAAAAAAAAAAAAAAAAAAAAAAAAAAAAAAAAAAAAAAAAGwIAAAAAAAKAgAAAAAAAAAAIAEAYAAAAAAAAAAAAAAAAAAAAAAAAAAAAAAAAAAAAAAAAAAAAAAAAAAAAAAAAAAAAAAAAAAAAAAAAAA==

> <PUBCHEM_IUPAC_OPENEYE_NAME>
2-fluoroacetyl chloride

> <PUBCHEM_IUPAC_CAS_NAME>
2-fluoroacetyl chloride

> <PUBCHEM_IUPAC_NAME>
2-fluoroacetyl chloride

> <PUBCHEM_IUPAC_SYSTEMATIC_NAME>
2-fluoranylethanoyl chloride

> <PUBCHEM_IUPAC_TRADITIONAL_NAME>
2-fluoroacetyl chloride

> <PUBCHEM_IUPAC_INCHI>
InChI=1S/C2H2ClFO/c3-2(5)1-4/h1H2

> <PUBCHEM_IUPAC_INCHIKEY>
ZBHDTYQJAQDBIH-UHFFFAOYSA-N

> <PUBCHEM_XLOGP3_AA>
1.1

> <PUBCHEM_EXACT_MASS>
95.977821

> <PUBCHEM_MOLECULAR_FORMULA>
C2H2ClFO

> <PUBCHEM_MOLECULAR_WEIGHT>
96.488083

> <PUBCHEM_OPENEYE_CAN_SMILES>
C(C(=O)Cl)F

> <PUBCHEM_OPENEYE_ISO_SMILES>
C(C(=O)Cl)F

> <PUBCHEM_CACTVS_TPSA>
17.1

> <PUBCHEM_MONOISOTOPIC_WEIGHT>
95.977821

> <PUBCHEM_TOTAL_CHARGE>
0

> <PUBCHEM_HEAVY_ATOM_COUNT>
5

> <PUBCHEM_ATOM_DEF_STEREO_COUNT>
0

> <PUBCHEM_ATOM_UDEF_STEREO_COUNT>
0

> <PUBCHEM_BOND_DEF_STEREO_COUNT>
0

> <PUBCHEM_BOND_UDEF_STEREO_COUNT>
0

> <PUBCHEM_ISOTOPIC_ATOM_COUNT>
0

> <PUBCHEM_COMPONENT_COUNT>
1

> <PUBCHEM_CACTVS_TAUTO_COUNT>
1

> <PUBCHEM_COORDINATE_TYPE>
1
5
255

$$$$

