11954147
  -OEChem-07051213073D

 66 69  0     1  0  0  0  0  0999 V2000
    2.9886   -1.9725    0.0395 O   0  0  0  0  0  0  0  0  0  0  0  0
    3.1473    1.2250    0.4799 O   0  0  0  0  0  0  0  0  0  0  0  0
   -6.6017    0.9958    2.0652 O   0  0  0  0  0  0  0  0  0  0  0  0
    4.6514   -0.7299    1.0471 O   0  0  0  0  0  0  0  0  0  0  0  0
    3.3388    2.8458   -1.1510 O   0  0  0  0  0  0  0  0  0  0  0  0
    0.0707    0.1831   -0.2947 C   0  0  2  0  0  0  0  0  0  0  0  0
    0.6642   -1.2400   -0.3122 C   0  0  2  0  0  0  0  0  0  0  0  0
   -1.3410    0.2377   -0.8867 C   0  0  1  0  0  0  0  0  0  0  0  0
   -2.2764   -0.6945   -0.0338 C   0  0  1  0  0  0  0  0  0  0  0  0
   -3.7616   -0.6483   -0.5462 C   0  0  2  0  0  0  0  0  0  0  0  0
   -0.2170   -2.1363    0.5671 C   0  0  0  0  0  0  0  0  0  0  0  0
    2.0553   -0.9329    0.2735 C   0  0  2  0  0  0  0  0  0  0  0  0
   -1.6862   -2.1225    0.1046 C   0  0  0  0  0  0  0  0  0  0  0  0
    1.1729    1.0418   -0.9160 C   0  0  0  0  0  0  0  0  0  0  0  0
    2.4757    0.3711   -0.4370 C   0  0  1  0  0  0  0  0  0  0  0  0
   -1.8781    1.6801   -0.9453 C   0  0  0  0  0  0  0  0  0  0  0  0
   -4.1646    0.8319   -0.5218 C   0  0  0  0  0  0  0  0  0  0  0  0
    0.7959   -1.8714   -1.7216 C   0  0  0  0  0  0  0  0  0  0  0  0
   -3.3390    1.7432   -1.3956 C   0  0  0  0  0  0  0  0  0  0  0  0
   -4.7428   -1.4838    0.3249 C   0  0  0  0  0  0  0  0  0  0  0  0
   -3.8934   -1.2241   -1.9793 C   0  0  0  0  0  0  0  0  0  0  0  0
   -5.0969   -0.8231    1.6445 C   0  0  0  0  0  0  0  0  0  0  0  0
   -5.0816    1.3572    0.3076 C   0  0  0  0  0  0  0  0  0  0  0  0
   -5.6948    0.5342    1.3765 C   0  0  0  0  0  0  0  0  0  0  0  0
    4.2682   -1.7439    0.4800 C   0  0  0  0  0  0  0  0  0  0  0  0
    3.5288    2.4462   -0.0105 C   0  0  0  0  0  0  0  0  0  0  0  0
    5.1321   -2.9403    0.1565 C   0  0  0  0  0  0  0  0  0  0  0  0
    4.2230    3.2260    1.0814 C   0  0  0  0  0  0  0  0  0  0  0  0
    6.5706   -2.7440    0.6022 C   0  0  0  0  0  0  0  0  0  0  0  0
    4.6918    4.5885    0.6012 C   0  0  0  0  0  0  0  0  0  0  0  0
   -0.0138    0.5122    0.7549 H   0  0  0  0  0  0  0  0  0  0  0  0
   -1.3015   -0.1290   -1.9176 H   0  0  0  0  0  0  0  0  0  0  0  0
   -2.2765   -0.2786    0.9862 H   0  0  0  0  0  0  0  0  0  0  0  0
   -0.1791   -1.7936    1.6094 H   0  0  0  0  0  0  0  0  0  0  0  0
    0.1590   -3.1664    0.5686 H   0  0  0  0  0  0  0  0  0  0  0  0
    1.9814   -0.7755    1.3591 H   0  0  0  0  0  0  0  0  0  0  0  0
   -1.7724   -2.6627   -0.8434 H   0  0  0  0  0  0  0  0  0  0  0  0
   -2.2613   -2.6950    0.8401 H   0  0  0  0  0  0  0  0  0  0  0  0
    1.1116    1.0076   -2.0098 H   0  0  0  0  0  0  0  0  0  0  0  0
    1.0479    2.0823   -0.6023 H   0  0  0  0  0  0  0  0  0  0  0  0
    3.1440    0.1703   -1.2844 H   0  0  0  0  0  0  0  0  0  0  0  0
   -1.7843    2.1476    0.0440 H   0  0  0  0  0  0  0  0  0  0  0  0
   -1.2709    2.2787   -1.6344 H   0  0  0  0  0  0  0  0  0  0  0  0
    1.4513   -1.2931   -2.3803 H   0  0  0  0  0  0  0  0  0  0  0  0
    1.2192   -2.8805   -1.6534 H   0  0  0  0  0  0  0  0  0  0  0  0
   -0.1648   -1.9663   -2.2345 H   0  0  0  0  0  0  0  0  0  0  0  0
   -3.4328    1.4557   -2.4481 H   0  0  0  0  0  0  0  0  0  0  0  0
   -3.6841    2.7825   -1.3330 H   0  0  0  0  0  0  0  0  0  0  0  0
   -5.6821   -1.6270   -0.2306 H   0  0  0  0  0  0  0  0  0  0  0  0
   -4.3602   -2.4930    0.5059 H   0  0  0  0  0  0  0  0  0  0  0  0
   -4.8990   -1.0468   -2.3808 H   0  0  0  0  0  0  0  0  0  0  0  0
   -3.7291   -2.3073   -1.9881 H   0  0  0  0  0  0  0  0  0  0  0  0
   -3.1894   -0.7864   -2.6912 H   0  0  0  0  0  0  0  0  0  0  0  0
   -5.8403   -1.4342    2.1682 H   0  0  0  0  0  0  0  0  0  0  0  0
   -4.2252   -0.7095    2.2961 H   0  0  0  0  0  0  0  0  0  0  0  0
   -5.3261    2.4138    0.3027 H   0  0  0  0  0  0  0  0  0  0  0  0
    5.1070   -3.1020   -0.9263 H   0  0  0  0  0  0  0  0  0  0  0  0
    4.7115   -3.8168    0.6604 H   0  0  0  0  0  0  0  0  0  0  0  0
    3.5224    3.3549    1.9131 H   0  0  0  0  0  0  0  0  0  0  0  0
    5.0861    2.6464    1.4253 H   0  0  0  0  0  0  0  0  0  0  0  0
    7.0188   -1.8736    0.1114 H   0  0  0  0  0  0  0  0  0  0  0  0
    7.1706   -3.6245    0.3529 H   0  0  0  0  0  0  0  0  0  0  0  0
    6.6286   -2.5848    1.6841 H   0  0  0  0  0  0  0  0  0  0  0  0
    5.3975    4.4908   -0.2304 H   0  0  0  0  0  0  0  0  0  0  0  0
    5.1907    5.1276    1.4123 H   0  0  0  0  0  0  0  0  0  0  0  0
    3.8483    5.1949    0.2549 H   0  0  0  0  0  0  0  0  0  0  0  0
  1 12  1  0  0  0  0
  1 25  1  0  0  0  0
  2 15  1  0  0  0  0
  2 26  1  0  0  0  0
  3 24  2  0  0  0  0
  4 25  2  0  0  0  0
  5 26  2  0  0  0  0
  6  7  1  0  0  0  0
  6  8  1  0  0  0  0
  6 14  1  0  0  0  0
  6 31  1  0  0  0  0
  7 11  1  0  0  0  0
  7 12  1  0  0  0  0
  7 18  1  0  0  0  0
  8  9  1  0  0  0  0
  8 16  1  0  0  0  0
  8 32  1  0  0  0  0
  9 10  1  0  0  0  0
  9 13  1  0  0  0  0
  9 33  1  0  0  0  0
 10 17  1  0  0  0  0
 10 20  1  0  0  0  0
 10 21  1  0  0  0  0
 11 13  1  0  0  0  0
 11 34  1  0  0  0  0
 11 35  1  0  0  0  0
 12 15  1  0  0  0  0
 12 36  1  0  0  0  0
 13 37  1  0  0  0  0
 13 38  1  0  0  0  0
 14 15  1  0  0  0  0
 14 39  1  0  0  0  0
 14 40  1  0  0  0  0
 15 41  1  0  0  0  0
 16 19  1  0  0  0  0
 16 42  1  0  0  0  0
 16 43  1  0  0  0  0
 17 19  1  0  0  0  0
 17 23  2  0  0  0  0
 18 44  1  0  0  0  0
 18 45  1  0  0  0  0
 18 46  1  0  0  0  0
 19 47  1  0  0  0  0
 19 48  1  0  0  0  0
 20 22  1  0  0  0  0
 20 49  1  0  0  0  0
 20 50  1  0  0  0  0
 21 51  1  0  0  0  0
 21 52  1  0  0  0  0
 21 53  1  0  0  0  0
 22 24  1  0  0  0  0
 22 54  1  0  0  0  0
 22 55  1  0  0  0  0
 23 24  1  0  0  0  0
 23 56  1  0  0  0  0
 25 27  1  0  0  0  0
 26 28  1  0  0  0  0
 27 29  1  0  0  0  0
 27 57  1  0  0  0  0
 27 58  1  0  0  0  0
 28 30  1  0  0  0  0
 28 59  1  0  0  0  0
 28 60  1  0  0  0  0
 29 61  1  0  0  0  0
 29 62  1  0  0  0  0
 29 63  1  0  0  0  0
 30 64  1  0  0  0  0
 30 65  1  0  0  0  0
 30 66  1  0  0  0  0
M  END
> <PUBCHEM_COMPOUND_CID>
11954147

> <PUBCHEM_CONFORMER_RMSD>
1

> <PUBCHEM_CONFORMER_DIVERSEORDER>
1
6
4
3
5
7
2

> <PUBCHEM_MMFF94_PARTIAL_CHARGES>
18
1 -0.43
10 0.14
12 0.28
15 0.28
17 -0.28
19 0.14
2 -0.43
22 0.06
23 -0.14
24 0.49
25 0.66
26 0.66
27 0.06
28 0.06
3 -0.57
4 -0.57
5 -0.57
56 0.15

> <PUBCHEM_EFFECTIVE_ROTOR_COUNT>
7.8

> <PUBCHEM_PHARMACOPHORE_FEATURES>
9
1 29 hydrophobe
1 3 acceptor
1 30 hydrophobe
1 4 acceptor
1 5 acceptor
5 6 7 12 14 15 rings
6 10 17 20 22 23 24 rings
6 6 7 8 9 11 13 rings
6 8 9 10 16 17 19 rings

> <PUBCHEM_HEAVY_ATOM_COUNT>
30

> <PUBCHEM_ATOM_DEF_STEREO_COUNT>
7

> <PUBCHEM_ATOM_UDEF_STEREO_COUNT>
0

> <PUBCHEM_BOND_DEF_STEREO_COUNT>
0

> <PUBCHEM_BOND_UDEF_STEREO_COUNT>
0

> <PUBCHEM_ISOTOPIC_ATOM_COUNT>
0

> <PUBCHEM_COMPONENT_COUNT>
1

> <PUBCHEM_CACTVS_TAUTO_COUNT>
5

> <PUBCHEM_CONFORMER_ID>
00B667E300000001

> <PUBCHEM_MMFF94_ENERGY>
83.687

> <PUBCHEM_FEATURE_SELFOVERLAP>
45.786

> <PUBCHEM_SHAPE_FINGERPRINT>
10319926 262 17774727557907996865
11331351 85 17750797843250609038
11405975 8 18408604772922145723
11545043 162 17560802181761226951
12035758 1 18339090397041180754
12166972 35 18260833739107460906
12403259 415 18202004343392880165
12422481 6 18341890805764545789
12616971 3 18260550030462977767
12633257 1 18335420196851513927
12788726 201 17313650607927195697
12925494 130 18198065974874982061
13140716 1 18412823594943493039
13224815 77 18412546501002008791
13540713 4 18059309719797470933
13540713 5 18042137465928070806
13583140 156 16270826445610320253
13590594 115 18267305516183389032
13757389 114 17116340777555243428
13782708 43 17345759728024998474
14341114 176 18340486759200857682
14739800 52 17823423703873791168
14849402 71 18411695470607841288
14950920 106 18339911697814150355
14955137 171 18264208183417000806
15021287 119 18262531380655289022
15238133 3 17168139087581385409
15348495 7 18342452638868319115
15475509 35 16988570142883650026
15927050 60 18120656830348103022
16126227 98 17833829366145538040
17844677 252 18410013264307181479
18785283 64 18412824673143593942
20739085 24 18271514356030593613
21033648 144 18340497655290288639
21033648 29 17346332491814355527
21267235 1 18130781321429965007
21792934 111 18131066066016121449
21859007 373 17415870086553209429
21927370 108 18192148429416737626
22182313 1 17702968988104049268
23559900 14 18339092565783153258
24771293 8 18187664479317454842
24771750 20 18198893735779444252
249057 25 17822302270922248743
268830 7 18335989692266197709
2838139 119 17606400952101117632
3178227 256 18270673285607225890
335352 9 18270123547009851191
3411729 13 18337390431879245048
350125 39 18341889718895064508
3680242 22 18334850619542243065
392239 28 18339070584335588177
4093350 32 17458057158932960380
5104073 3 18411413982471636891
5252454 2 18044383729539609912
5385378 56 18338235956432086712
7495541 125 18272929466403363470
9981440 41 17980489962330077624

> <PUBCHEM_SHAPE_MULTIPOLES>
588.04
14.55
4.02
1.46
1.06
3.17
0.03
0.34
-6.55
-8.84
-0.51
1.85
0.11
-0.12

> <PUBCHEM_SHAPE_SELFOVERLAP>
1243.744

> <PUBCHEM_SHAPE_VOLUME>
325.4

> <PUBCHEM_COORDINATE_TYPE>
2
5
10

$$$$

