439406
  -OEChem-07051212453D

 28 27  0     1  0  0  0  0  0999 V2000
    0.1974    0.1009    0.0836 O   0  0  0  0  0  0  0  0  0  0  0  0
   -4.6932    1.6262    0.8486 O   0  0  0  0  0  0  0  0  0  0  0  0
   -5.5500    0.4718   -0.9049 O   0  0  0  0  0  0  0  0  0  0  0  0
    1.4141   -1.8213    0.4628 O   0  0  0  0  0  0  0  0  0  0  0  0
    6.2320   -0.1200   -0.1414 O   0  0  0  0  0  0  0  0  0  0  0  0
    4.8980    1.7041   -0.3769 O   0  0  0  0  0  0  0  0  0  0  0  0
   -3.7657   -1.5337   -0.6563 N   0  0  0  0  0  0  0  0  0  0  0  0
   -2.2261    0.2861    0.0677 C   0  0  0  0  0  0  0  0  0  0  0  0
   -3.5862   -0.4038    0.2551 C   0  0  1  0  0  0  0  0  0  0  0  0
   -1.0129   -0.6247    0.2417 C   0  0  0  0  0  0  0  0  0  0  0  0
    2.5421    0.2932    0.0260 C   0  0  0  0  0  0  0  0  0  0  0  0
   -4.7094    0.5815   -0.0218 C   0  0  0  0  0  0  0  0  0  0  0  0
    1.3538   -0.6240    0.2202 C   0  0  0  0  0  0  0  0  0  0  0  0
    3.8776   -0.4392    0.0743 C   0  0  0  0  0  0  0  0  0  0  0  0
    5.0284    0.5030   -0.1789 C   0  0  0  0  0  0  0  0  0  0  0  0
   -2.1331    1.1224    0.7733 H   0  0  0  0  0  0  0  0  0  0  0  0
   -2.1742    0.7555   -0.9246 H   0  0  0  0  0  0  0  0  0  0  0  0
   -3.6936   -0.7679    1.2827 H   0  0  0  0  0  0  0  0  0  0  0  0
   -1.0362   -1.0713    1.2430 H   0  0  0  0  0  0  0  0  0  0  0  0
   -1.0401   -1.4292   -0.5023 H   0  0  0  0  0  0  0  0  0  0  0  0
    2.5094    1.0597    0.8093 H   0  0  0  0  0  0  0  0  0  0  0  0
    2.4285    0.7873   -0.9464 H   0  0  0  0  0  0  0  0  0  0  0  0
   -3.6968   -1.2179   -1.6228 H   0  0  0  0  0  0  0  0  0  0  0  0
   -4.6978   -1.9293   -0.5421 H   0  0  0  0  0  0  0  0  0  0  0  0
    3.9020   -1.2256   -0.6883 H   0  0  0  0  0  0  0  0  0  0  0  0
    4.0163   -0.9009    1.0582 H   0  0  0  0  0  0  0  0  0  0  0  0
   -5.4216    2.2593    0.6725 H   0  0  0  0  0  0  0  0  0  0  0  0
    6.9726    0.5041   -0.2972 H   0  0  0  0  0  0  0  0  0  0  0  0
  1 10  1  0  0  0  0
  1 13  1  0  0  0  0
  2 12  1  0  0  0  0
  2 27  1  0  0  0  0
  3 12  2  0  0  0  0
  4 13  2  0  0  0  0
  5 15  1  0  0  0  0
  5 28  1  0  0  0  0
  6 15  2  0  0  0  0
  7  9  1  0  0  0  0
  7 23  1  0  0  0  0
  7 24  1  0  0  0  0
  8  9  1  0  0  0  0
  8 10  1  0  0  0  0
  8 16  1  0  0  0  0
  8 17  1  0  0  0  0
  9 12  1  0  0  0  0
  9 18  1  0  0  0  0
 10 19  1  0  0  0  0
 10 20  1  0  0  0  0
 11 13  1  0  0  0  0
 11 14  1  0  0  0  0
 11 21  1  0  0  0  0
 11 22  1  0  0  0  0
 14 15  1  0  0  0  0
 14 25  1  0  0  0  0
 14 26  1  0  0  0  0
M  END
> <PUBCHEM_COMPOUND_CID>
439406

> <PUBCHEM_CONFORMER_RMSD>
0.8

> <PUBCHEM_CONFORMER_DIVERSEORDER>
1
125
100
133
19
159
46
37
181
130
174
131
179
143
68
80
42
107
122
172
77
54
167
59
148
155
11
90
6
79
33
34
27
43
47
4
16
121
24
117
108
141
78
92
21
126
89
38
175
91
109
63
52
10
64
81
139
127
41
110
162
152
177
44
53
129
65
176
164
119
178
114
17
145
112
58
48
149
60
20
71
50
163
8
123
94
158
12
142
32
135
140
39
151
66
13
161
153
124
73
25
35
97
26
115
7
85
5
180
2
23
98
171
61
106
40
166
57
75
87
96
95
14
136
30
156
76
82
74
62
137
93
160
31
55
88
118
165
86
56
147
128
67
83
116
120
146
36
173
104
18
157
144
168
28
150
51
170
3
72
99
29
22
69
132
138
105
49
169
154
102
111
15
9
84
134
101
70
103
45
113

> <PUBCHEM_MMFF94_PARTIAL_CHARGES>
18
1 -0.43
10 0.28
11 0.06
12 0.66
13 0.66
14 0.06
15 0.66
2 -0.65
23 0.36
24 0.36
27 0.5
28 0.5
3 -0.57
4 -0.57
5 -0.65
6 -0.57
7 -0.99
9 0.33

> <PUBCHEM_EFFECTIVE_ROTOR_COUNT>
8

> <PUBCHEM_PHARMACOPHORE_FEATURES>
9
1 2 acceptor
1 3 acceptor
1 4 acceptor
1 5 acceptor
1 6 acceptor
1 7 cation
1 7 donor
3 2 3 12 anion
3 5 6 15 anion

> <PUBCHEM_HEAVY_ATOM_COUNT>
15

> <PUBCHEM_ATOM_DEF_STEREO_COUNT>
1

> <PUBCHEM_ATOM_UDEF_STEREO_COUNT>
0

> <PUBCHEM_BOND_DEF_STEREO_COUNT>
0

> <PUBCHEM_BOND_UDEF_STEREO_COUNT>
0

> <PUBCHEM_ISOTOPIC_ATOM_COUNT>
0

> <PUBCHEM_COMPONENT_COUNT>
1

> <PUBCHEM_CACTVS_TAUTO_COUNT>
1

> <PUBCHEM_CONFORMER_ID>
0006B46E00000001

> <PUBCHEM_MMFF94_ENERGY>
12.678

> <PUBCHEM_FEATURE_SELFOVERLAP>
45.786

> <PUBCHEM_SHAPE_FINGERPRINT>
10014705 185 18273219707745707957
100836 57 18273208695006488204
10912923 1 18342463637889154314
11401426 45 18342176661101320727
12091667 2 18335700524718463650
12596602 18 13254793530024190948
12714333 28 18334014990889248968
13288520 33 7637401830877789019
13533116 47 16773527663197613000
14251718 22 16805045111930101069
14252887 29 11311784998763885472
14350574 20 5906041561007143743
14455015 7 6483351149166941637
14528608 73 18408606933353927764
15048467 5 18413108385693062845
15242439 84 17458065958265927923
15501527 16 18342454837864869091
17834072 33 18187367601416655118
17834076 25 18272089400574704515
20281389 69 18131918164844789269
20645477 56 17561647663200670111
20645477 70 18114460188091673182
212847 35 18341611491515224016
23402539 116 18334861601815303478
23402655 69 18334576858168221627
300161 21 18202290207799734779
3545911 37 18411138039518174515
42 15 11024106551289025747
42788 4 18411699880963773552
441001 317 18186799201477088385
49783359 22 10879991346149559721
542803 24 18413670222796040112

> <PUBCHEM_SHAPE_MULTIPOLES>
268.5
14.71
1.35
0.72
4.31
0.03
0.01
-4.68
1.86
-0.21
-0.05
-0.49
-0.03
-0.68

> <PUBCHEM_SHAPE_SELFOVERLAP>
517.449

> <PUBCHEM_SHAPE_VOLUME>
161.9

> <PUBCHEM_COORDINATE_TYPE>
2
5
10

$$$$

