854047
  -OEChem-06241222473D

 14 14  0     0  0  0  0  0  0999 V2000
   -0.7153   -2.4562   -0.2312 Cl  0  0  0  0  0  0  0  0  0  0  0  0
    3.7907    0.0200   -0.0117 Cl  0  0  0  0  0  0  0  0  0  0  0  0
   -2.6052    1.0656   -0.9409 O   0  0  0  0  0  0  0  0  0  0  0  0
   -2.8255   -0.2571    0.8945 O   0  0  0  0  0  0  0  0  0  0  0  0
    1.4118   -1.0054   -0.0972 N   0  0  0  0  0  0  0  0  0  0  0  0
   -0.6457    0.2553    0.0520 C   0  0  0  0  0  0  0  0  0  0  0  0
    0.0781    1.4368    0.1691 C   0  0  0  0  0  0  0  0  0  0  0  0
    0.0623   -0.9287   -0.0776 C   0  0  0  0  0  0  0  0  0  0  0  0
    1.4680    1.3986    0.1533 C   0  0  0  0  0  0  0  0  0  0  0  0
    2.0813    0.1634    0.0193 C   0  0  0  0  0  0  0  0  0  0  0  0
   -2.1003    0.3078    0.0703 C   0  0  0  0  0  0  0  0  0  0  0  0
   -0.4262    2.3936    0.2768 H   0  0  0  0  0  0  0  0  0  0  0  0
    2.0416    2.3148    0.2446 H   0  0  0  0  0  0  0  0  0  0  0  0
   -3.5855    1.0958   -0.9199 H   0  0  0  0  0  0  0  0  0  0  0  0
  1  8  1  0  0  0  0
  2 10  1  0  0  0  0
  3 11  1  0  0  0  0
  3 14  1  0  0  0  0
  4 11  2  0  0  0  0
  5  8  1  0  0  0  0
  5 10  2  0  0  0  0
  6  7  1  0  0  0  0
  6  8  2  0  0  0  0
  6 11  1  0  0  0  0
  7  9  2  0  0  0  0
  7 12  1  0  0  0  0
  9 10  1  0  0  0  0
  9 13  1  0  0  0  0
M  END
> <PUBCHEM_COMPOUND_CID>
854047

> <PUBCHEM_CONFORMER_RMSD>
0.4

> <PUBCHEM_CONFORMER_DIVERSEORDER>
1
2

> <PUBCHEM_MMFF94_PARTIAL_CHARGES>
14
1 -0.18
10 0.49
11 0.63
12 0.15
13 0.15
14 0.5
2 -0.18
3 -0.65
4 -0.57
5 -0.62
6 0.09
7 -0.15
8 0.49
9 -0.15

> <PUBCHEM_EFFECTIVE_ROTOR_COUNT>
1

> <PUBCHEM_PHARMACOPHORE_FEATURES>
5
1 3 acceptor
1 4 acceptor
1 5 acceptor
3 3 4 11 anion
6 5 6 7 8 9 10 rings

> <PUBCHEM_HEAVY_ATOM_COUNT>
11

> <PUBCHEM_ATOM_DEF_STEREO_COUNT>
0

> <PUBCHEM_ATOM_UDEF_STEREO_COUNT>
0

> <PUBCHEM_BOND_DEF_STEREO_COUNT>
0

> <PUBCHEM_BOND_UDEF_STEREO_COUNT>
0

> <PUBCHEM_ISOTOPIC_ATOM_COUNT>
0

> <PUBCHEM_COMPONENT_COUNT>
1

> <PUBCHEM_CACTVS_TAUTO_COUNT>
1

> <PUBCHEM_CONFORMER_ID>
000D081F00000001

> <PUBCHEM_MMFF94_ENERGY>
28.3186

> <PUBCHEM_FEATURE_SELFOVERLAP>
25.429

> <PUBCHEM_SHAPE_FINGERPRINT>
12032990 46 18410283740273677618
12423570 1 11133905410173514953
13380535 21 18120927305296279456
14325111 11 18411981368862484744
14993402 34 18409452487807678676
15310529 11 17275108336053712640
16945 1 18335421270471830128
193761 8 17832707872552211968
20645476 183 17774140350290725518
21040471 1 18409732820191278056
21501502 16 18048876299621781740
23235685 24 18334015003600116504
23402655 69 18193012623786284893
23552423 10 18054792771843805740
23559900 14 18261105263367535492
241688 4 15960344582289236667
2748010 2 18122061172266872236
29004967 10 18411695521424463641
5084963 1 18187652353680265825
528886 8 18336833081882559489

> <PUBCHEM_SHAPE_MULTIPOLES>
213.39
4.41
1.88
0.73
1.97
0.98
0.01
-0.53
-0.07
-0.5
0.15
-0.3
-0.06
0.21

> <PUBCHEM_SHAPE_SELFOVERLAP>
431.078

> <PUBCHEM_SHAPE_VOLUME>
126.9

> <PUBCHEM_COORDINATE_TYPE>
2
5
10

$$$$

