636427
  -OEChem-07051213032D

 60 60  0     1  0  0  0  0  0999 V2000
    2.8660   -7.8100    0.0000 I   0  0  0  0  0  0  0  0  0  0  0  0
    9.7942    7.1900    0.0000 O   0  0  0  0  0  0  0  0  0  0  0  0
    8.0622    7.1900    0.0000 O   0  0  0  0  0  0  0  0  0  0  0  0
    7.1962    2.6900    0.0000 C   0  0  0  0  0  0  0  0  0  0  0  0
    6.3301    2.1900    0.0000 C   0  0  0  0  0  0  0  0  0  0  0  0
    7.1962    3.6900    0.0000 C   0  0  0  0  0  0  0  0  0  0  0  0
    6.3301    1.1900    0.0000 C   0  0  0  0  0  0  0  0  0  0  0  0
    8.0622    4.1900    0.0000 C   0  0  0  0  0  0  0  0  0  0  0  0
    5.4641    0.6900    0.0000 C   0  0  0  0  0  0  0  0  0  0  0  0
    8.0622    5.1900    0.0000 C   0  0  3  0  0  0  0  0  0  0  0  0
    5.4641   -0.3100    0.0000 C   0  0  0  0  0  0  0  0  0  0  0  0
    4.5981   -0.8100    0.0000 C   0  0  0  0  0  0  0  0  0  0  0  0
    4.5981   -1.8100    0.0000 C   0  0  0  0  0  0  0  0  0  0  0  0
    3.7320   -2.3100    0.0000 C   0  0  0  0  0  0  0  0  0  0  0  0
    8.9282    5.6900    0.0000 C   0  0  0  0  0  0  0  0  0  0  0  0
    3.7320   -3.3100    0.0000 C   0  0  0  0  0  0  0  0  0  0  0  0
    7.1962    5.6900    0.0000 C   0  0  0  0  0  0  0  0  0  0  0  0
    2.8660   -3.8100    0.0000 C   0  0  0  0  0  0  0  0  0  0  0  0
    8.9282    6.6900    0.0000 C   0  0  0  0  0  0  0  0  0  0  0  0
    2.8660   -4.8100    0.0000 C   0  0  0  0  0  0  0  0  0  0  0  0
    2.0000   -5.3100    0.0000 C   0  0  0  0  0  0  0  0  0  0  0  0
    3.7320   -5.3100    0.0000 C   0  0  0  0  0  0  0  0  0  0  0  0
    2.0000   -6.3100    0.0000 C   0  0  0  0  0  0  0  0  0  0  0  0
    3.7320   -6.3100    0.0000 C   0  0  0  0  0  0  0  0  0  0  0  0
    2.8660   -6.8100    0.0000 C   0  0  0  0  0  0  0  0  0  0  0  0
    7.4082    2.1074    0.0000 H   0  0  0  0  0  0  0  0  0  0  0  0
    7.8067    2.7977    0.0000 H   0  0  0  0  0  0  0  0  0  0  0  0
    6.1181    2.7726    0.0000 H   0  0  0  0  0  0  0  0  0  0  0  0
    5.7196    2.0823    0.0000 H   0  0  0  0  0  0  0  0  0  0  0  0
    6.9841    4.2726    0.0000 H   0  0  0  0  0  0  0  0  0  0  0  0
    6.5856    3.5823    0.0000 H   0  0  0  0  0  0  0  0  0  0  0  0
    6.5422    0.6074    0.0000 H   0  0  0  0  0  0  0  0  0  0  0  0
    6.9407    1.2977    0.0000 H   0  0  0  0  0  0  0  0  0  0  0  0
    8.2742    3.6074    0.0000 H   0  0  0  0  0  0  0  0  0  0  0  0
    8.6728    4.2977    0.0000 H   0  0  0  0  0  0  0  0  0  0  0  0
    5.2520    1.2726    0.0000 H   0  0  0  0  0  0  0  0  0  0  0  0
    4.8535    0.5823    0.0000 H   0  0  0  0  0  0  0  0  0  0  0  0
    8.0622    5.8100    0.0000 H   0  0  0  0  0  0  0  0  0  0  0  0
    5.6762   -0.8926    0.0000 H   0  0  0  0  0  0  0  0  0  0  0  0
    6.0747   -0.2023    0.0000 H   0  0  0  0  0  0  0  0  0  0  0  0
    4.3860   -0.2274    0.0000 H   0  0  0  0  0  0  0  0  0  0  0  0
    3.9875   -0.9177    0.0000 H   0  0  0  0  0  0  0  0  0  0  0  0
    4.8101   -2.3926    0.0000 H   0  0  0  0  0  0  0  0  0  0  0  0
    5.2087   -1.7023    0.0000 H   0  0  0  0  0  0  0  0  0  0  0  0
    3.5200   -1.7274    0.0000 H   0  0  0  0  0  0  0  0  0  0  0  0
    3.1215   -2.4177    0.0000 H   0  0  0  0  0  0  0  0  0  0  0  0
    9.1403    5.1074    0.0000 H   0  0  0  0  0  0  0  0  0  0  0  0
    9.5388    5.7977    0.0000 H   0  0  0  0  0  0  0  0  0  0  0  0
    3.9441   -3.8926    0.0000 H   0  0  0  0  0  0  0  0  0  0  0  0
    4.3426   -3.2023    0.0000 H   0  0  0  0  0  0  0  0  0  0  0  0
    7.5062    6.2269    0.0000 H   0  0  0  0  0  0  0  0  0  0  0  0
    6.6592    6.0000    0.0000 H   0  0  0  0  0  0  0  0  0  0  0  0
    6.8862    5.1531    0.0000 H   0  0  0  0  0  0  0  0  0  0  0  0
    2.6540   -3.2274    0.0000 H   0  0  0  0  0  0  0  0  0  0  0  0
    2.2554   -3.9177    0.0000 H   0  0  0  0  0  0  0  0  0  0  0  0
    1.4631   -5.0000    0.0000 H   0  0  0  0  0  0  0  0  0  0  0  0
    4.2690   -5.0000    0.0000 H   0  0  0  0  0  0  0  0  0  0  0  0
    9.7942    7.8100    0.0000 H   0  0  0  0  0  0  0  0  0  0  0  0
    1.4631   -6.6200    0.0000 H   0  0  0  0  0  0  0  0  0  0  0  0
    4.2690   -6.6200    0.0000 H   0  0  0  0  0  0  0  0  0  0  0  0
  1 25  1  0  0  0  0
  2 19  1  0  0  0  0
  2 58  1  0  0  0  0
  3 19  2  0  0  0  0
  4  5  1  0  0  0  0
  4  6  1  0  0  0  0
  4 26  1  0  0  0  0
  4 27  1  0  0  0  0
  5  7  1  0  0  0  0
  5 28  1  0  0  0  0
  5 29  1  0  0  0  0
  6  8  1  0  0  0  0
  6 30  1  0  0  0  0
  6 31  1  0  0  0  0
  7  9  1  0  0  0  0
  7 32  1  0  0  0  0
  7 33  1  0  0  0  0
  8 10  1  0  0  0  0
  8 34  1  0  0  0  0
  8 35  1  0  0  0  0
  9 11  1  0  0  0  0
  9 36  1  0  0  0  0
  9 37  1  0  0  0  0
 10 15  1  0  0  0  0
 10 17  1  0  0  0  0
 10 38  1  0  0  0  0
 11 12  1  0  0  0  0
 11 39  1  0  0  0  0
 11 40  1  0  0  0  0
 12 13  1  0  0  0  0
 12 41  1  0  0  0  0
 12 42  1  0  0  0  0
 13 14  1  0  0  0  0
 13 43  1  0  0  0  0
 13 44  1  0  0  0  0
 14 16  1  0  0  0  0
 14 45  1  0  0  0  0
 14 46  1  0  0  0  0
 15 19  1  0  0  0  0
 15 47  1  0  0  0  0
 15 48  1  0  0  0  0
 16 18  1  0  0  0  0
 16 49  1  0  0  0  0
 16 50  1  0  0  0  0
 17 51  1  0  0  0  0
 17 52  1  0  0  0  0
 17 53  1  0  0  0  0
 18 20  1  0  0  0  0
 18 54  1  0  0  0  0
 18 55  1  0  0  0  0
 20 21  2  0  0  0  0
 20 22  1  0  0  0  0
 21 23  1  0  0  0  0
 21 56  1  0  0  0  0
 22 24  2  0  0  0  0
 22 57  1  0  0  0  0
 23 25  2  0  0  0  0
 23 59  1  0  0  0  0
 24 25  1  0  0  0  0
 24 60  1  0  0  0  0
M  ISO  1   1 123
M  END
> <PUBCHEM_COMPOUND_CID>
636427

> <PUBCHEM_COMPOUND_CANONICALIZED>
1

> <PUBCHEM_CACTVS_COMPLEXITY>
324

> <PUBCHEM_CACTVS_HBOND_ACCEPTOR>
2

> <PUBCHEM_CACTVS_HBOND_DONOR>
1

> <PUBCHEM_CACTVS_ROTATABLE_BOND>
15

> <PUBCHEM_CACTVS_SUBSKEYS>
AAADcfB4MAAAAgAAAAAAAAAAAAAAAAAAAAAwAAAAAAAAAAABAAAAGgAgCAAADQCCmAAyCIAAAgCIAiDSCAACAAAgAAAIiAEAAIgIIDKAERCAYAAkgAAIiAeIyOCOAAAAAAAAAAAAAAAAAAAAAAAAAAAAAA==

> <PUBCHEM_IUPAC_OPENEYE_NAME>
15-(4-iodanylphenyl)-3-methyl-pentadecanoic acid

> <PUBCHEM_IUPAC_CAS_NAME>
15-(4-iodanylphenyl)-3-methylpentadecanoic acid

> <PUBCHEM_IUPAC_NAME>
15-(4-iodanylphenyl)-3-methylpentadecanoic acid

> <PUBCHEM_IUPAC_SYSTEMATIC_NAME>
15-(4-iodanylphenyl)-3-methyl-pentadecanoic acid

> <PUBCHEM_IUPAC_TRADITIONAL_NAME>
15-(4-iodanylphenyl)-3-methyl-pentadecanoic acid

> <PUBCHEM_IUPAC_INCHI>
InChI=1S/C22H35IO2/c1-19(18-22(24)25)12-10-8-6-4-2-3-5-7-9-11-13-20-14-16-21(23)17-15-20/h14-17,19H,2-13,18H2,1H3,(H,24,25)/i23-4

> <PUBCHEM_IUPAC_INCHIKEY>
NPCIWINHUDIWAV-NSYCNWAXSA-N

> <PUBCHEM_XLOGP3_AA>
9.1

> <PUBCHEM_EXACT_MASS>
454.169294

> <PUBCHEM_MOLECULAR_FORMULA>
C22H35IO2

> <PUBCHEM_MOLECULAR_WEIGHT>
454.417689

> <PUBCHEM_OPENEYE_CAN_SMILES>
CC(CCCCCCCCCCCCC1=CC=C(C=C1)I)CC(=O)O

> <PUBCHEM_OPENEYE_ISO_SMILES>
CC(CCCCCCCCCCCCC1=CC=C(C=C1)[123I])CC(=O)O

> <PUBCHEM_CACTVS_TPSA>
37.3

> <PUBCHEM_MONOISOTOPIC_WEIGHT>
454.169294

> <PUBCHEM_TOTAL_CHARGE>
0

> <PUBCHEM_HEAVY_ATOM_COUNT>
25

> <PUBCHEM_ATOM_DEF_STEREO_COUNT>
0

> <PUBCHEM_ATOM_UDEF_STEREO_COUNT>
1

> <PUBCHEM_BOND_DEF_STEREO_COUNT>
0

> <PUBCHEM_BOND_UDEF_STEREO_COUNT>
0

> <PUBCHEM_ISOTOPIC_ATOM_COUNT>
1

> <PUBCHEM_COMPONENT_COUNT>
1

> <PUBCHEM_CACTVS_TAUTO_COUNT>
1

> <PUBCHEM_COORDINATE_TYPE>
1
5
255

> <PUBCHEM_BONDANNOTATIONS>
10  17  3
20  21  8
20  22  8
21  23  8
22  24  8
23  25  8
24  25  8

$$$$

