644101
  -OEChem-07051213092D

 50 51  0     1  0  0  0  0  0999 V2000
    3.4030   -0.2694    0.0000 P   0  0  0  0  0  0  0  0  0  0  0  0
    7.5991    0.7306    0.0000 O   0  0  0  0  0  0  0  0  0  0  0  0
    8.5991   -0.2694    0.0000 O   0  0  0  0  0  0  0  0  0  0  0  0
    6.8671   -0.2694    0.0000 O   0  0  0  0  0  0  0  0  0  0  0  0
    9.8592    1.9906    0.0000 O   0  0  0  0  0  0  0  0  0  0  0  0
    8.0991    3.2694    0.0000 O   0  0  0  0  0  0  0  0  0  0  0  0
    8.5991   -2.2694    0.0000 O   0  0  0  0  0  0  0  0  0  0  0  0
    6.8671   -3.2694    0.0000 O   0  0  0  0  0  0  0  0  0  0  0  0
    5.1350   -2.2694    0.0000 O   0  0  0  0  0  0  0  0  0  0  0  0
   10.2933    1.0907    0.0000 O   0  0  0  0  0  0  0  0  0  0  0  0
    6.1311    2.9688    0.0000 O   0  0  0  0  0  0  0  0  0  0  0  0
    4.2690   -0.7694    0.0000 O   0  0  0  0  0  0  0  0  0  0  0  0
    2.5369    0.2306    0.0000 O   0  0  0  0  0  0  0  0  0  0  0  0
    2.9030   -1.1354    0.0000 O   0  0  0  0  0  0  0  0  0  0  0  0
    3.9030    0.5966    0.0000 O   0  0  0  0  0  0  0  0  0  0  0  0
    8.5991    0.7306    0.0000 C   0  0  1  0  0  0  0  0  0  0  0  0
    8.9081    1.6816    0.0000 C   0  0  2  0  0  0  0  0  0  0  0  0
    8.0991    2.2694    0.0000 C   0  0  1  0  0  0  0  0  0  0  0  0
    7.2901    1.6816    0.0000 C   0  0  1  0  0  0  0  0  0  0  0  0
    7.7331   -0.7694    0.0000 C   0  0  1  0  0  0  0  0  0  0  0  0
    7.7331   -1.7694    0.0000 C   0  0  1  0  0  0  0  0  0  0  0  0
    6.8671   -2.2694    0.0000 C   0  0  2  0  0  0  0  0  0  0  0  0
    6.0010   -1.7694    0.0000 C   0  0  1  0  0  0  0  0  0  0  0  0
    6.0010   -0.7694    0.0000 C   0  0  1  0  0  0  0  0  0  0  0  0
    9.5502    0.4216    0.0000 C   0  0  0  0  0  0  0  0  0  0  0  0
    6.3390    1.9906    0.0000 C   0  0  0  0  0  0  0  0  0  0  0  0
    5.1350   -0.2694    0.0000 C   0  0  0  0  0  0  0  0  0  0  0  0
    9.3465    1.2432    0.0000 H   0  0  0  0  0  0  0  0  0  0  0  0
    7.5467    2.5509    0.0000 H   0  0  0  0  0  0  0  0  0  0  0  0
    6.8517    1.2432    0.0000 H   0  0  0  0  0  0  0  0  0  0  0  0
    7.7331   -0.1494    0.0000 H   0  0  0  0  0  0  0  0  0  0  0  0
    7.7331   -2.3894    0.0000 H   0  0  0  0  0  0  0  0  0  0  0  0
    6.3301   -2.5794    0.0000 H   0  0  0  0  0  0  0  0  0  0  0  0
    5.4641   -1.4594    0.0000 H   0  0  0  0  0  0  0  0  0  0  0  0
    6.0010   -0.1494    0.0000 H   0  0  0  0  0  0  0  0  0  0  0  0
    9.2591   -0.1259    0.0000 H   0  0  0  0  0  0  0  0  0  0  0  0
   10.0387    0.0399    0.0000 H   0  0  0  0  0  0  0  0  0  0  0  0
    5.7194    1.9690    0.0000 H   0  0  0  0  0  0  0  0  0  0  0  0
    6.2528    1.3767    0.0000 H   0  0  0  0  0  0  0  0  0  0  0  0
    5.5335    0.2055    0.0000 H   0  0  0  0  0  0  0  0  0  0  0  0
    4.7365    0.2055    0.0000 H   0  0  0  0  0  0  0  0  0  0  0  0
    9.9881    2.5971    0.0000 H   0  0  0  0  0  0  0  0  0  0  0  0
    8.6360    3.5794    0.0000 H   0  0  0  0  0  0  0  0  0  0  0  0
    8.5991   -2.8894    0.0000 H   0  0  0  0  0  0  0  0  0  0  0  0
    6.3301   -3.5794    0.0000 H   0  0  0  0  0  0  0  0  0  0  0  0
    5.1350   -2.8894    0.0000 H   0  0  0  0  0  0  0  0  0  0  0  0
   10.8830    0.8991    0.0000 H   0  0  0  0  0  0  0  0  0  0  0  0
    5.5415    3.1604    0.0000 H   0  0  0  0  0  0  0  0  0  0  0  0
    2.0000   -0.0794    0.0000 H   0  0  0  0  0  0  0  0  0  0  0  0
    2.2830   -1.1354    0.0000 H   0  0  0  0  0  0  0  0  0  0  0  0
  1 12  1  0  0  0  0
  1 13  1  0  0  0  0
  1 14  1  0  0  0  0
  1 15  2  0  0  0  0
  2 16  1  0  0  0  0
  2 19  1  0  0  0  0
 16  3  1  6  0  0  0
 20  3  1  6  0  0  0
  4 20  1  0  0  0  0
  4 24  1  0  0  0  0
 17  5  1  6  0  0  0
  5 42  1  0  0  0  0
 18  6  1  1  0  0  0
  6 43  1  0  0  0  0
 21  7  1  6  0  0  0
  7 44  1  0  0  0  0
 22  8  1  1  0  0  0
  8 45  1  0  0  0  0
 23  9  1  6  0  0  0
  9 46  1  0  0  0  0
 10 25  1  0  0  0  0
 10 47  1  0  0  0  0
 11 26  1  0  0  0  0
 11 48  1  0  0  0  0
 12 27  1  0  0  0  0
 13 49  1  0  0  0  0
 14 50  1  0  0  0  0
 16 17  1  0  0  0  0
 16 25  1  0  0  0  0
 17 18  1  0  0  0  0
 17 28  1  0  0  0  0
 18 19  1  0  0  0  0
 18 29  1  0  0  0  0
 19 26  1  6  0  0  0
 19 30  1  0  0  0  0
 20 21  1  0  0  0  0
 20 31  1  0  0  0  0
 21 22  1  0  0  0  0
 21 32  1  0  0  0  0
 22 23  1  0  0  0  0
 22 33  1  0  0  0  0
 23 24  1  0  0  0  0
 23 34  1  0  0  0  0
 24 27  1  1  0  0  0
 24 35  1  0  0  0  0
 25 36  1  0  0  0  0
 25 37  1  0  0  0  0
 26 38  1  0  0  0  0
 26 39  1  0  0  0  0
 27 40  1  0  0  0  0
 27 41  1  0  0  0  0
M  END
> <PUBCHEM_COMPOUND_CID>
644101

> <PUBCHEM_COMPOUND_CANONICALIZED>
1

> <PUBCHEM_CACTVS_COMPLEXITY>
542

> <PUBCHEM_CACTVS_HBOND_ACCEPTOR>
14

> <PUBCHEM_CACTVS_HBOND_DONOR>
9

> <PUBCHEM_CACTVS_ROTATABLE_BOND>
7

> <PUBCHEM_CACTVS_SUBSKEYS>
AAADceBwPAIAAAAAAAAAAAAAAAAAASAAAAAkAAAAAAAAAAAAAAAAGgAACCAACBSwgAMACAAABxAAQAAAAIAAAAAAAAAAAAAAAAAREAIAAAAiQAAFAAAHAAHAYAwAAAAAAAAAAAAAAAAAAAAAAAAAAAAAAA==

> <PUBCHEM_IUPAC_OPENEYE_NAME>
[(2R,3S,4S,5R,6R)-6-[(2S,3S,4S,5R)-3,4-dihydroxy-2,5-bis(hydroxymethyl)tetrahydrofuran-2-yl]oxy-3,4,5-trihydroxy-tetrahydropyran-2-yl]methyl dihydrogen phosphate

> <PUBCHEM_IUPAC_CAS_NAME>
[(2R,3S,4S,5R,6R)-6-[[(2S,3S,4S,5R)-3,4-dihydroxy-2,5-bis(hydroxymethyl)-2-oxolanyl]oxy]-3,4,5-trihydroxy-2-oxanyl]methyl dihydrogen phosphate

> <PUBCHEM_IUPAC_NAME>
[(2R,3S,4S,5R,6R)-6-[(2S,3S,4S,5R)-3,4-dihydroxy-2,5-bis(hydroxymethyl)oxolan-2-yl]oxy-3,4,5-trihydroxyoxan-2-yl]methyl dihydrogen phosphate

> <PUBCHEM_IUPAC_SYSTEMATIC_NAME>
[(2R,3S,4S,5R,6R)-6-[(2S,3S,4S,5R)-2,5-bis(hydroxymethyl)-3,4-bis(oxidanyl)oxolan-2-yl]oxy-3,4,5-tris(oxidanyl)oxan-2-yl]methyl dihydrogen phosphate

> <PUBCHEM_IUPAC_TRADITIONAL_NAME>
[(2R,3S,4S,5R,6R)-6-[(2S,3S,4S,5R)-3,4-dihydroxy-2,5-dimethylol-tetrahydrofuran-2-yl]oxy-3,4,5-trihydroxy-tetrahydropyran-2-yl]methyl dihydrogen phosphate

> <PUBCHEM_IUPAC_INCHI>
InChI=1S/C12H23O14P/c13-1-4-7(16)10(19)12(3-14,25-4)26-11-9(18)8(17)6(15)5(24-11)2-23-27(20,21)22/h4-11,13-19H,1-3H2,(H2,20,21,22)/t4-,5-,6-,7-,8+,9-,10+,11-,12+/m1/s1

> <PUBCHEM_IUPAC_INCHIKEY>
WQQSIXKPRAUZJL-UGDNZRGBSA-N

> <PUBCHEM_XLOGP3>
-5.3

> <PUBCHEM_EXACT_MASS>
422.082542

> <PUBCHEM_MOLECULAR_FORMULA>
C12H23O14P

> <PUBCHEM_MOLECULAR_WEIGHT>
422.276382

> <PUBCHEM_OPENEYE_CAN_SMILES>
C(C1C(C(C(O1)(CO)OC2C(C(C(C(O2)COP(=O)(O)O)O)O)O)O)O)O

> <PUBCHEM_OPENEYE_ISO_SMILES>
C([C@@H]1[C@H]([C@@H]([C@](O1)(CO)O[C@@H]2[C@@H]([C@H]([C@@H]([C@H](O2)COP(=O)(O)O)O)O)O)O)O)O

> <PUBCHEM_CACTVS_TPSA>
236

> <PUBCHEM_MONOISOTOPIC_WEIGHT>
422.082542

> <PUBCHEM_TOTAL_CHARGE>
0

> <PUBCHEM_HEAVY_ATOM_COUNT>
27

> <PUBCHEM_ATOM_DEF_STEREO_COUNT>
9

> <PUBCHEM_ATOM_UDEF_STEREO_COUNT>
0

> <PUBCHEM_BOND_DEF_STEREO_COUNT>
0

> <PUBCHEM_BOND_UDEF_STEREO_COUNT>
0

> <PUBCHEM_ISOTOPIC_ATOM_COUNT>
0

> <PUBCHEM_COMPONENT_COUNT>
1

> <PUBCHEM_CACTVS_TAUTO_COUNT>
1

> <PUBCHEM_COORDINATE_TYPE>
1
5
255

> <PUBCHEM_BONDANNOTATIONS>
19  26  6
24  27  5
16  3  6
20  3  6
17  5  6
18  6  5
21  7  6
22  8  5
23  9  6

$$$$

