440998
  -OEChem-07051212513D

 16 15  0     0  0  0  0  0  0999 V2000
   -2.9328    0.8376   -0.8437 O   0  0  0  0  0  0  0  0  0  0  0  0
    2.4264    1.2037    0.1652 O   0  0  0  0  0  0  0  0  0  0  0  0
   -2.4951   -1.1858    0.0790 O   0  0  0  0  0  0  0  0  0  0  0  0
    1.0310   -0.6523    0.2929 N   0  0  0  0  0  0  0  0  0  0  0  0
   -1.0215    0.6006    0.3187 N   0  0  0  0  0  0  0  0  0  0  0  0
    2.9986   -0.7542   -0.8885 N   0  0  0  0  0  0  0  0  0  0  0  0
   -0.0067   -0.0610    1.1124 C   0  0  0  0  0  0  0  0  0  0  0  0
    2.1671    0.0344   -0.1141 C   0  0  0  0  0  0  0  0  0  0  0  0
   -2.1670   -0.0230   -0.1219 C   0  0  0  0  0  0  0  0  0  0  0  0
    0.4317    0.6853    1.7814 H   0  0  0  0  0  0  0  0  0  0  0  0
   -0.4609   -0.8612    1.7042 H   0  0  0  0  0  0  0  0  0  0  0  0
    0.9039   -1.6088   -0.0229 H   0  0  0  0  0  0  0  0  0  0  0  0
   -0.8704    1.5701    0.0579 H   0  0  0  0  0  0  0  0  0  0  0  0
    2.7677   -1.7173   -1.1076 H   0  0  0  0  0  0  0  0  0  0  0  0
    3.8694   -0.3911   -1.2613 H   0  0  0  0  0  0  0  0  0  0  0  0
   -3.7547    0.4112   -1.1678 H   0  0  0  0  0  0  0  0  0  0  0  0
  1  9  1  0  0  0  0
  1 16  1  0  0  0  0
  2  8  2  0  0  0  0
  3  9  2  0  0  0  0
  4  7  1  0  0  0  0
  4  8  1  0  0  0  0
  4 12  1  0  0  0  0
  5  7  1  0  0  0  0
  5  9  1  0  0  0  0
  5 13  1  0  0  0  0
  6  8  1  0  0  0  0
  6 14  1  0  0  0  0
  6 15  1  0  0  0  0
  7 10  1  0  0  0  0
  7 11  1  0  0  0  0
M  END
> <PUBCHEM_COMPOUND_CID>
440998

> <PUBCHEM_CONFORMER_RMSD>
0.6

> <PUBCHEM_CONFORMER_DIVERSEORDER>
4
15
5
14
9
10
3
13
7
11
1
6
12
2
8

> <PUBCHEM_MMFF94_PARTIAL_CHARGES>
14
1 -0.65
12 0.37
13 0.37
14 0.37
15 0.37
16 0.5
2 -0.57
3 -0.57
4 -0.73
5 -0.73
6 -0.8
7 0.6
8 0.69
9 0.78

> <PUBCHEM_EFFECTIVE_ROTOR_COUNT>
4

> <PUBCHEM_PHARMACOPHORE_FEATURES>
6
1 2 acceptor
1 3 acceptor
1 4 donor
1 5 donor
1 6 donor
3 1 3 9 anion

> <PUBCHEM_HEAVY_ATOM_COUNT>
9

> <PUBCHEM_ATOM_DEF_STEREO_COUNT>
0

> <PUBCHEM_ATOM_UDEF_STEREO_COUNT>
0

> <PUBCHEM_BOND_DEF_STEREO_COUNT>
0

> <PUBCHEM_BOND_UDEF_STEREO_COUNT>
0

> <PUBCHEM_ISOTOPIC_ATOM_COUNT>
0

> <PUBCHEM_COMPONENT_COUNT>
1

> <PUBCHEM_CACTVS_TAUTO_COUNT>
6

> <PUBCHEM_CONFORMER_ID>
0006BAA600000004

> <PUBCHEM_MMFF94_ENERGY>
4.595

> <PUBCHEM_FEATURE_SELFOVERLAP>
30.529

> <PUBCHEM_SHAPE_FINGERPRINT>
10149128 111 15841260545086894412
12897270 3 18410575101842948109
12932764 1 18131068246719661363
14390081 3 17846504733404509693
20653085 51 17988633108132079305
29004967 10 16370443345526368346
3248919 1 17967535683233945291

> <PUBCHEM_SHAPE_MULTIPOLES>
152.66
4.94
1.03
0.89
0.01
0.02
0.07
-0.02
-1.59
-0.01
-0.05
0.02
-0.01
0.43

> <PUBCHEM_SHAPE_SELFOVERLAP>
287.04

> <PUBCHEM_SHAPE_VOLUME>
93.2

> <PUBCHEM_COORDINATE_TYPE>
2
5
10

$$$$

