442032
  -OEChem-07051212562D

 95101  0     1  0  0  0  0  0999 V2000
   10.4869    3.3665    0.0000 O   0  0  0  0  0  0  0  0  0  0  0  0
   10.1449    1.5776    0.0000 O   0  0  0  0  0  0  0  0  0  0  0  0
    9.2588    1.0932    0.0000 O   0  0  0  0  0  0  0  0  0  0  0  0
    9.3647   -0.4833    0.0000 O   0  0  0  0  0  0  0  0  0  0  0  0
   11.2924   -1.6012    0.0000 O   0  0  0  0  0  0  0  0  0  0  0  0
   13.3221    3.4103    0.0000 O   0  0  0  0  0  0  0  0  0  0  0  0
   12.9100    4.1182    0.0000 O   0  0  0  0  0  0  0  0  0  0  0  0
   11.7342    4.9299    0.0000 O   0  0  0  0  0  0  0  0  0  0  0  0
   14.6043    3.3794    0.0000 O   0  0  0  0  0  0  0  0  0  0  0  0
   13.0191   -1.4651    0.0000 O   0  0  0  0  0  0  0  0  0  0  0  0
   11.0751    1.4604    0.0000 C   0  0  1  0  0  0  0  0  0  0  0  0
   11.9761    1.0265    0.0000 C   0  0  2  0  0  0  0  0  0  0  0  0
   10.8526    2.4354    0.0000 C   0  0  1  0  0  0  0  0  0  0  0  0
   11.4761    3.2172    0.0000 C   0  0  1  0  0  0  0  0  0  0  0  0
   10.2055    0.8870    0.0000 C   0  0  2  0  0  0  0  0  0  0  0  0
   12.8771    1.4604    0.0000 C   0  0  1  0  0  0  0  0  0  0  0  0
   12.0699   -0.0109    0.0000 C   0  0  1  0  0  0  0  0  0  0  0  0
   10.2754   -0.1523    0.0000 C   0  0  2  0  0  0  0  0  0  0  0  0
   13.0996    2.4354    0.0000 C   0  0  1  0  0  0  0  0  0  0  0  0
   11.2139   -0.6042    0.0000 C   0  0  2  0  0  0  0  0  0  0  0  0
   12.4761    3.2172    0.0000 C   0  0  2  0  0  0  0  0  0  0  0  0
    8.7520    0.2673    0.0000 C   0  0  3  0  0  0  0  0  0  0  0  0
   12.0996    3.9990    0.0000 C   0  0  0  0  0  0  0  0  0  0  0  0
   13.7317    0.9528    0.0000 C   0  0  0  0  0  0  0  0  0  0  0  0
   12.9759   -0.4343    0.0000 C   0  0  0  0  0  0  0  0  0  0  0  0
   14.0899    2.5219    0.0000 C   0  0  0  0  0  0  0  0  0  0  0  0
   10.2253   -1.1510    0.0000 C   0  0  0  0  0  0  0  0  0  0  0  0
    7.7543    0.2003    0.0000 C   0  0  0  0  0  0  0  0  0  0  0  0
   14.4798    1.6075    0.0000 C   0  0  0  0  0  0  0  0  0  0  0  0
    7.3134   -0.6973    0.0000 C   0  0  0  0  0  0  0  0  0  0  0  0
    9.3354   -1.6071    0.0000 C   0  0  0  0  0  0  0  0  0  0  0  0
   10.1753   -2.1498    0.0000 C   0  0  0  0  0  0  0  0  0  0  0  0
   15.4547    1.3849    0.0000 C   0  0  0  0  0  0  0  0  0  0  0  0
   12.1951   -2.0316    0.0000 C   0  0  0  0  0  0  0  0  0  0  0  0
    6.3157   -0.7643    0.0000 C   0  0  0  0  0  0  0  0  0  0  0  0
   12.2736   -3.0285    0.0000 C   0  0  0  0  0  0  0  0  0  0  0  0
    5.8749   -1.6619    0.0000 C   0  0  0  0  0  0  0  0  0  0  0  0
    4.8771   -1.7290    0.0000 C   0  0  0  0  0  0  0  0  0  0  0  0
   11.4496   -3.5950    0.0000 C   0  0  0  0  0  0  0  0  0  0  0  0
   13.1763   -3.4589    0.0000 C   0  0  0  0  0  0  0  0  0  0  0  0
    4.4363   -2.6266    0.0000 C   0  0  0  0  0  0  0  0  0  0  0  0
   11.5281   -4.5919    0.0000 C   0  0  0  0  0  0  0  0  0  0  0  0
   13.2548   -4.4558    0.0000 C   0  0  0  0  0  0  0  0  0  0  0  0
   12.4308   -5.0223    0.0000 C   0  0  0  0  0  0  0  0  0  0  0  0
    3.4386   -2.6936    0.0000 C   0  0  0  0  0  0  0  0  0  0  0  0
    2.9978   -3.5912    0.0000 C   0  0  0  0  0  0  0  0  0  0  0  0
    2.0000   -3.6583    0.0000 C   0  0  0  0  0  0  0  0  0  0  0  0
   10.5503    2.1290    0.0000 H   0  0  0  0  0  0  0  0  0  0  0  0
   10.0404    2.1847    0.0000 H   0  0  0  0  0  0  0  0  0  0  0  0
    9.5192    1.3885    0.0000 H   0  0  0  0  0  0  0  0  0  0  0  0
   12.8400    0.6112    0.0000 H   0  0  0  0  0  0  0  0  0  0  0  0
   12.5774    0.3453    0.0000 H   0  0  0  0  0  0  0  0  0  0  0  0
   11.7740   -0.8700    0.0000 H   0  0  0  0  0  0  0  0  0  0  0  0
   13.0922    3.2866    0.0000 H   0  0  0  0  0  0  0  0  0  0  0  0
   12.5098    3.5342    0.0000 H   0  0  0  0  0  0  0  0  0  0  0  0
   12.6286    4.3223    0.0000 H   0  0  0  0  0  0  0  0  0  0  0  0
   13.7884    0.3354    0.0000 H   0  0  0  0  0  0  0  0  0  0  0  0
   12.7133   -0.9960    0.0000 H   0  0  0  0  0  0  0  0  0  0  0  0
   13.5375   -0.6968    0.0000 H   0  0  0  0  0  0  0  0  0  0  0  0
   13.2384    0.1274    0.0000 H   0  0  0  0  0  0  0  0  0  0  0  0
    7.8208    0.8167    0.0000 H   0  0  0  0  0  0  0  0  0  0  0  0
    7.1588    0.3728    0.0000 H   0  0  0  0  0  0  0  0  0  0  0  0
   13.9146    3.5930    0.0000 H   0  0  0  0  0  0  0  0  0  0  0  0
   12.5607    4.6304    0.0000 H   0  0  0  0  0  0  0  0  0  0  0  0
    7.2470   -1.3137    0.0000 H   0  0  0  0  0  0  0  0  0  0  0  0
    7.9090   -0.8698    0.0000 H   0  0  0  0  0  0  0  0  0  0  0  0
    9.0526   -1.0553    0.0000 H   0  0  0  0  0  0  0  0  0  0  0  0
    8.7836   -1.8898    0.0000 H   0  0  0  0  0  0  0  0  0  0  0  0
    9.6181   -2.1588    0.0000 H   0  0  0  0  0  0  0  0  0  0  0  0
   11.1212    5.0223    0.0000 H   0  0  0  0  0  0  0  0  0  0  0  0
    9.6235   -2.4325    0.0000 H   0  0  0  0  0  0  0  0  0  0  0  0
   10.6960   -2.4863    0.0000 H   0  0  0  0  0  0  0  0  0  0  0  0
   15.3168    0.7805    0.0000 H   0  0  0  0  0  0  0  0  0  0  0  0
   16.0592    1.2470    0.0000 H   0  0  0  0  0  0  0  0  0  0  0  0
   15.5927    1.9894    0.0000 H   0  0  0  0  0  0  0  0  0  0  0  0
    6.3822   -0.1479    0.0000 H   0  0  0  0  0  0  0  0  0  0  0  0
    5.7202   -0.5918    0.0000 H   0  0  0  0  0  0  0  0  0  0  0  0
    5.8084   -2.2784    0.0000 H   0  0  0  0  0  0  0  0  0  0  0  0
    6.4704   -1.8345    0.0000 H   0  0  0  0  0  0  0  0  0  0  0  0
    4.9436   -1.1126    0.0000 H   0  0  0  0  0  0  0  0  0  0  0  0
    4.2816   -1.5565    0.0000 H   0  0  0  0  0  0  0  0  0  0  0  0
   10.8899   -3.3281    0.0000 H   0  0  0  0  0  0  0  0  0  0  0  0
   13.6872   -3.1076    0.0000 H   0  0  0  0  0  0  0  0  0  0  0  0
    4.3698   -3.2430    0.0000 H   0  0  0  0  0  0  0  0  0  0  0  0
    5.0318   -2.7991    0.0000 H   0  0  0  0  0  0  0  0  0  0  0  0
   11.0172   -4.9431    0.0000 H   0  0  0  0  0  0  0  0  0  0  0  0
   13.8145   -4.7226    0.0000 H   0  0  0  0  0  0  0  0  0  0  0  0
   12.4795   -5.6404    0.0000 H   0  0  0  0  0  0  0  0  0  0  0  0
    3.5050   -2.0772    0.0000 H   0  0  0  0  0  0  0  0  0  0  0  0
    2.8430   -2.5211    0.0000 H   0  0  0  0  0  0  0  0  0  0  0  0
    2.9313   -4.2076    0.0000 H   0  0  0  0  0  0  0  0  0  0  0  0
    3.5933   -3.7637    0.0000 H   0  0  0  0  0  0  0  0  0  0  0  0
    1.9584   -3.0397    0.0000 H   0  0  0  0  0  0  0  0  0  0  0  0
    1.3814   -3.6998    0.0000 H   0  0  0  0  0  0  0  0  0  0  0  0
    2.0416   -4.2769    0.0000 H   0  0  0  0  0  0  0  0  0  0  0  0
  1 13  1  0  0  0  0
  1 14  1  0  0  0  0
 12  2  1  6  0  0  0
  2 22  1  0  0  0  0
  3 15  1  0  0  0  0
  3 22  1  0  0  0  0
  4 18  1  0  0  0  0
  4 22  1  0  0  0  0
 20  5  1  1  0  0  0
  5 34  1  0  0  0  0
 19  6  1  1  0  0  0
  6 63  1  0  0  0  0
 21  7  1  1  0  0  0
  7 64  1  0  0  0  0
  8 23  1  0  0  0  0
  8 70  1  0  0  0  0
  9 26  2  0  0  0  0
 10 34  2  0  0  0  0
 11 12  1  0  0  0  0
 11 13  1  0  0  0  0
 11 15  1  0  0  0  0
 11 48  1  1  0  0  0
 12 16  1  0  0  0  0
 12 17  1  0  0  0  0
 13 14  1  0  0  0  0
 13 49  1  1  0  0  0
 14 21  1  0  0  0  0
 14 23  1  1  0  0  0
 15 18  1  0  0  0  0
 15 50  1  1  0  0  0
 16 19  1  0  0  0  0
 16 24  1  0  0  0  0
 16 51  1  6  0  0  0
 17 20  1  0  0  0  0
 17 25  1  6  0  0  0
 17 52  1  0  0  0  0
 18 20  1  0  0  0  0
 18 27  1  1  0  0  0
 19 21  1  0  0  0  0
 19 26  1  0  0  0  0
 20 53  1  0  0  0  0
 21 54  1  0  0  0  0
 22 28  1  0  0  0  0
 23 55  1  0  0  0  0
 23 56  1  0  0  0  0
 24 29  2  0  0  0  0
 24 57  1  0  0  0  0
 25 58  1  0  0  0  0
 25 59  1  0  0  0  0
 25 60  1  0  0  0  0
 26 29  1  0  0  0  0
 27 31  1  0  0  0  0
 27 32  2  0  0  0  0
 28 30  1  0  0  0  0
 28 61  1  0  0  0  0
 28 62  1  0  0  0  0
 29 33  1  0  0  0  0
 30 35  1  0  0  0  0
 30 65  1  0  0  0  0
 30 66  1  0  0  0  0
 31 67  1  0  0  0  0
 31 68  1  0  0  0  0
 31 69  1  0  0  0  0
 32 71  1  0  0  0  0
 32 72  1  0  0  0  0
 33 73  1  0  0  0  0
 33 74  1  0  0  0  0
 33 75  1  0  0  0  0
 34 36  1  0  0  0  0
 35 37  1  0  0  0  0
 35 76  1  0  0  0  0
 35 77  1  0  0  0  0
 36 39  2  0  0  0  0
 36 40  1  0  0  0  0
 37 38  1  0  0  0  0
 37 78  1  0  0  0  0
 37 79  1  0  0  0  0
 38 41  1  0  0  0  0
 38 80  1  0  0  0  0
 38 81  1  0  0  0  0
 39 42  1  0  0  0  0
 39 82  1  0  0  0  0
 40 43  2  0  0  0  0
 40 83  1  0  0  0  0
 41 45  1  0  0  0  0
 41 84  1  0  0  0  0
 41 85  1  0  0  0  0
 42 44  2  0  0  0  0
 42 86  1  0  0  0  0
 43 44  1  0  0  0  0
 43 87  1  0  0  0  0
 44 88  1  0  0  0  0
 45 46  1  0  0  0  0
 45 89  1  0  0  0  0
 45 90  1  0  0  0  0
 46 47  1  0  0  0  0
 46 91  1  0  0  0  0
 46 92  1  0  0  0  0
 47 93  1  0  0  0  0
 47 94  1  0  0  0  0
 47 95  1  0  0  0  0
M  END
> <PUBCHEM_COMPOUND_CID>
442032

> <PUBCHEM_COMPOUND_CANONICALIZED>
1

> <PUBCHEM_CACTVS_COMPLEXITY>
1320

> <PUBCHEM_CACTVS_HBOND_ACCEPTOR>
10

> <PUBCHEM_CACTVS_HBOND_DONOR>
3

> <PUBCHEM_CACTVS_ROTATABLE_BOND>
13

> <PUBCHEM_CACTVS_SUBSKEYS>
AAADcfB8PAAAAAAAAAAAAAAAEgAAASIAAAA0YIAABogSAACBAAAAGgAACAAADVSgmAIyCIAABgCIAqDSCAICAAAkAAAIiAFACMgZNjaANRiicQAl4AEPqYfK7PzOgAAAAAAAAADCAAYQADCAAAAAAAAAAA==

> <PUBCHEM_IUPAC_INCHI>
InChI=1S/C37H48O10/c1-6-7-8-9-10-11-15-18-34-45-30-26-29-33(20-38,44-29)32(41)35(42)25(19-22(4)27(35)39)37(26,47-34)23(5)28(36(30,46-34)21(2)3)43-31(40)24-16-13-12-14-17-24/h12-14,16-17,19,23,25-26,28-30,32,38,41-42H,2,6-11,15,18,20H2,1,3-5H3/t23-,25-,26+,28-,29+,30-,32-,33+,34?,35-,36+,37+/m1/s1

> <PUBCHEM_IUPAC_INCHIKEY>
MAKBJYBPYTYDBJ-OMLIOTFFSA-N

> <PUBCHEM_XLOGP3_AA>
5.8

> <PUBCHEM_EXACT_MASS>
652.324748

> <PUBCHEM_MOLECULAR_FORMULA>
C37H48O10

> <PUBCHEM_MOLECULAR_WEIGHT>
652.77102

> <PUBCHEM_OPENEYE_CAN_SMILES>
CCCCCCCCCC12OC3C4C5C(O5)(C(C6(C(C4(O1)C(C(C3(O2)C(=C)C)OC(=O)C7=CC=CC=C7)C)C=C(C6=O)C)O)O)CO

> <PUBCHEM_OPENEYE_ISO_SMILES>
CCCCCCCCCC12O[C@@H]3[C@@H]4[C@H]5[C@](O5)([C@H]([C@]6([C@H]([C@@]4(O1)[C@@H]([C@H]([C@@]3(O2)C(=C)C)OC(=O)C7=CC=CC=C7)C)C=C(C6=O)C)O)O)CO

> <PUBCHEM_CACTVS_TPSA>
144

> <PUBCHEM_MONOISOTOPIC_WEIGHT>
652.324748

> <PUBCHEM_TOTAL_CHARGE>
0

> <PUBCHEM_HEAVY_ATOM_COUNT>
47

> <PUBCHEM_ATOM_DEF_STEREO_COUNT>
11

> <PUBCHEM_ATOM_UDEF_STEREO_COUNT>
1

> <PUBCHEM_BOND_DEF_STEREO_COUNT>
0

> <PUBCHEM_BOND_UDEF_STEREO_COUNT>
0

> <PUBCHEM_ISOTOPIC_ATOM_COUNT>
0

> <PUBCHEM_COMPONENT_COUNT>
1

> <PUBCHEM_CACTVS_TAUTO_COUNT>
3

> <PUBCHEM_COORDINATE_TYPE>
1
5
255

> <PUBCHEM_BONDANNOTATIONS>
11  48  5
13  49  5
14  23  5
15  50  5
16  51  6
17  25  6
18  27  5
12  2  6
22  28  3
36  39  8
36  40  8
39  42  8
40  43  8
42  44  8
43  44  8
20  5  5
19  6  5
21  7  5

$$$$

