13490
  -OEChem-06261214432D

 60 61  0     0  0  0  0  0  0999 V2000
    6.3301    0.2500    0.0000 S   0  0  0  0  0  0  0  0  0  0  0  0
    4.5981   -3.7500    0.0000 O   0  0  0  0  0  0  0  0  0  0  0  0
    8.9282    3.7500    0.0000 O   0  0  0  0  0  0  0  0  0  0  0  0
    4.5981    0.2500    0.0000 N   0  0  0  0  0  0  0  0  0  0  0  0
    5.4641    1.7500    0.0000 N   0  0  0  0  0  0  0  0  0  0  0  0
    2.8660   -5.7500    0.0000 C   0  0  0  0  0  0  0  0  0  0  0  0
    9.7942    6.2500    0.0000 C   0  0  0  0  0  0  0  0  0  0  0  0
    3.7321   -5.2500    0.0000 C   0  0  0  0  0  0  0  0  0  0  0  0
    9.7942    5.2500    0.0000 C   0  0  0  0  0  0  0  0  0  0  0  0
    3.7321   -4.2500    0.0000 C   0  0  0  0  0  0  0  0  0  0  0  0
    8.9282    4.7500    0.0000 C   0  0  0  0  0  0  0  0  0  0  0  0
    2.8660   -6.7500    0.0000 C   0  0  0  0  0  0  0  0  0  0  0  0
    2.0000   -5.2500    0.0000 C   0  0  0  0  0  0  0  0  0  0  0  0
   10.6603    6.7500    0.0000 C   0  0  0  0  0  0  0  0  0  0  0  0
    8.9282    6.7500    0.0000 C   0  0  0  0  0  0  0  0  0  0  0  0
    4.5981   -2.7500    0.0000 C   0  0  0  0  0  0  0  0  0  0  0  0
    8.0622    3.2500    0.0000 C   0  0  0  0  0  0  0  0  0  0  0  0
    5.4641   -2.2500    0.0000 C   0  0  0  0  0  0  0  0  0  0  0  0
    3.7321   -2.2500    0.0000 C   0  0  0  0  0  0  0  0  0  0  0  0
    7.1962    3.7500    0.0000 C   0  0  0  0  0  0  0  0  0  0  0  0
    8.0622    2.2500    0.0000 C   0  0  0  0  0  0  0  0  0  0  0  0
    4.5981   -0.7500    0.0000 C   0  0  0  0  0  0  0  0  0  0  0  0
    5.4641   -1.2500    0.0000 C   0  0  0  0  0  0  0  0  0  0  0  0
    3.7321   -1.2500    0.0000 C   0  0  0  0  0  0  0  0  0  0  0  0
    6.3301    2.2500    0.0000 C   0  0  0  0  0  0  0  0  0  0  0  0
    6.3301    3.2500    0.0000 C   0  0  0  0  0  0  0  0  0  0  0  0
    7.1962    1.7500    0.0000 C   0  0  0  0  0  0  0  0  0  0  0  0
    5.4641    0.7500    0.0000 C   0  0  0  0  0  0  0  0  0  0  0  0
    2.8660   -5.1300    0.0000 H   0  0  0  0  0  0  0  0  0  0  0  0
    9.2573    5.9400    0.0000 H   0  0  0  0  0  0  0  0  0  0  0  0
    3.9441   -5.8326    0.0000 H   0  0  0  0  0  0  0  0  0  0  0  0
    4.3426   -5.1423    0.0000 H   0  0  0  0  0  0  0  0  0  0  0  0
   10.0063    4.6674    0.0000 H   0  0  0  0  0  0  0  0  0  0  0  0
   10.4048    5.3577    0.0000 H   0  0  0  0  0  0  0  0  0  0  0  0
    3.5200   -3.6674    0.0000 H   0  0  0  0  0  0  0  0  0  0  0  0
    3.1215   -4.3577    0.0000 H   0  0  0  0  0  0  0  0  0  0  0  0
    8.7162    5.3326    0.0000 H   0  0  0  0  0  0  0  0  0  0  0  0
    8.3176    4.6423    0.0000 H   0  0  0  0  0  0  0  0  0  0  0  0
    2.2460   -6.7500    0.0000 H   0  0  0  0  0  0  0  0  0  0  0  0
    2.8660   -7.3700    0.0000 H   0  0  0  0  0  0  0  0  0  0  0  0
    3.4860   -6.7500    0.0000 H   0  0  0  0  0  0  0  0  0  0  0  0
    2.3100   -4.7131    0.0000 H   0  0  0  0  0  0  0  0  0  0  0  0
    1.4631   -4.9400    0.0000 H   0  0  0  0  0  0  0  0  0  0  0  0
    1.6900   -5.7869    0.0000 H   0  0  0  0  0  0  0  0  0  0  0  0
   10.9703    6.2131    0.0000 H   0  0  0  0  0  0  0  0  0  0  0  0
   11.1972    7.0600    0.0000 H   0  0  0  0  0  0  0  0  0  0  0  0
   10.3503    7.2869    0.0000 H   0  0  0  0  0  0  0  0  0  0  0  0
    9.2382    7.2869    0.0000 H   0  0  0  0  0  0  0  0  0  0  0  0
    8.3913    7.0600    0.0000 H   0  0  0  0  0  0  0  0  0  0  0  0
    8.6182    6.2131    0.0000 H   0  0  0  0  0  0  0  0  0  0  0  0
    6.0010   -2.5600    0.0000 H   0  0  0  0  0  0  0  0  0  0  0  0
    3.1951   -2.5600    0.0000 H   0  0  0  0  0  0  0  0  0  0  0  0
    7.1962    4.3700    0.0000 H   0  0  0  0  0  0  0  0  0  0  0  0
    8.5991    1.9400    0.0000 H   0  0  0  0  0  0  0  0  0  0  0  0
    6.0010   -0.9400    0.0000 H   0  0  0  0  0  0  0  0  0  0  0  0
    3.1951   -0.9400    0.0000 H   0  0  0  0  0  0  0  0  0  0  0  0
    5.7932    3.5600    0.0000 H   0  0  0  0  0  0  0  0  0  0  0  0
    7.1962    1.1300    0.0000 H   0  0  0  0  0  0  0  0  0  0  0  0
    4.0611    0.5600    0.0000 H   0  0  0  0  0  0  0  0  0  0  0  0
    6.8671    0.5600    0.0000 H   0  0  0  0  0  0  0  0  0  0  0  0
  1 28  1  0  0  0  0
  1 60  1  0  0  0  0
  2 10  1  0  0  0  0
  2 16  1  0  0  0  0
  3 11  1  0  0  0  0
  3 17  1  0  0  0  0
  4 22  1  0  0  0  0
  4 28  1  0  0  0  0
  4 59  1  0  0  0  0
  5 25  1  0  0  0  0
  5 28  2  0  0  0  0
  6  8  1  0  0  0  0
  6 12  1  0  0  0  0
  6 13  1  0  0  0  0
  6 29  1  0  0  0  0
  7  9  1  0  0  0  0
  7 14  1  0  0  0  0
  7 15  1  0  0  0  0
  7 30  1  0  0  0  0
  8 10  1  0  0  0  0
  8 31  1  0  0  0  0
  8 32  1  0  0  0  0
  9 11  1  0  0  0  0
  9 33  1  0  0  0  0
  9 34  1  0  0  0  0
 10 35  1  0  0  0  0
 10 36  1  0  0  0  0
 11 37  1  0  0  0  0
 11 38  1  0  0  0  0
 12 39  1  0  0  0  0
 12 40  1  0  0  0  0
 12 41  1  0  0  0  0
 13 42  1  0  0  0  0
 13 43  1  0  0  0  0
 13 44  1  0  0  0  0
 14 45  1  0  0  0  0
 14 46  1  0  0  0  0
 14 47  1  0  0  0  0
 15 48  1  0  0  0  0
 15 49  1  0  0  0  0
 15 50  1  0  0  0  0
 16 18  2  0  0  0  0
 16 19  1  0  0  0  0
 17 20  2  0  0  0  0
 17 21  1  0  0  0  0
 18 23  1  0  0  0  0
 18 51  1  0  0  0  0
 19 24  2  0  0  0  0
 19 52  1  0  0  0  0
 20 26  1  0  0  0  0
 20 53  1  0  0  0  0
 21 27  2  0  0  0  0
 21 54  1  0  0  0  0
 22 23  2  0  0  0  0
 22 24  1  0  0  0  0
 23 55  1  0  0  0  0
 24 56  1  0  0  0  0
 25 26  2  0  0  0  0
 25 27  1  0  0  0  0
 26 57  1  0  0  0  0
 27 58  1  0  0  0  0
M  END
> <PUBCHEM_COMPOUND_CID>
13490

> <PUBCHEM_COMPOUND_CANONICALIZED>
1

> <PUBCHEM_CACTVS_COMPLEXITY>
440

> <PUBCHEM_CACTVS_HBOND_ACCEPTOR>
4

> <PUBCHEM_CACTVS_HBOND_DONOR>
2

> <PUBCHEM_CACTVS_ROTATABLE_BOND>
11

> <PUBCHEM_CACTVS_SUBSKEYS>
AAADcfB7MABAAAAAAAAAAAAAAAAAAAAAAAAwYAAAAAAAAAABQAAAHgQQAAAADQyhkAIzxoLABASgACRCZACCGAEhIgAJiAAGbIgMJiLEuZuGOCjk0BFI6AewQAAIAEAAAAAAAAAAgAAAAAAAAAAAAAAAAA==

> <PUBCHEM_IUPAC_OPENEYE_NAME>
1,3-bis(4-isopentyloxyphenyl)isothiourea

> <PUBCHEM_IUPAC_CAS_NAME>
N,N'-bis[4-(3-methylbutoxy)phenyl]carbamimidothioic acid

> <PUBCHEM_IUPAC_NAME>
N,N'-bis[4-(3-methylbutoxy)phenyl]carbamimidothioic acid

> <PUBCHEM_IUPAC_SYSTEMATIC_NAME>
N,N'-bis[4-(3-methylbutoxy)phenyl]carbamimidothioic acid

> <PUBCHEM_IUPAC_TRADITIONAL_NAME>
1,3-bis(4-isoamoxyphenyl)isothiourea

> <PUBCHEM_IUPAC_INCHI>
InChI=1S/C23H32N2O2S/c1-17(2)13-15-26-21-9-5-19(6-10-21)24-23(28)25-20-7-11-22(12-8-20)27-16-14-18(3)4/h5-12,17-18H,13-16H2,1-4H3,(H2,24,25,28)

> <PUBCHEM_IUPAC_INCHIKEY>
BWBONKHPVHMQHE-UHFFFAOYSA-N

> <PUBCHEM_XLOGP3_AA>
6.8

> <PUBCHEM_EXACT_MASS>
400.218449

> <PUBCHEM_MOLECULAR_FORMULA>
C23H32N2O2S

> <PUBCHEM_MOLECULAR_WEIGHT>
400.57738

> <PUBCHEM_OPENEYE_CAN_SMILES>
CC(C)CCOC1=CC=C(C=C1)NC(=NC2=CC=C(C=C2)OCCC(C)C)S

> <PUBCHEM_OPENEYE_ISO_SMILES>
CC(C)CCOC1=CC=C(C=C1)NC(=NC2=CC=C(C=C2)OCCC(C)C)S

> <PUBCHEM_CACTVS_TPSA>
43.8

> <PUBCHEM_MONOISOTOPIC_WEIGHT>
400.218449

> <PUBCHEM_TOTAL_CHARGE>
0

> <PUBCHEM_HEAVY_ATOM_COUNT>
28

> <PUBCHEM_ATOM_DEF_STEREO_COUNT>
0

> <PUBCHEM_ATOM_UDEF_STEREO_COUNT>
0

> <PUBCHEM_BOND_DEF_STEREO_COUNT>
0

> <PUBCHEM_BOND_UDEF_STEREO_COUNT>
0

> <PUBCHEM_ISOTOPIC_ATOM_COUNT>
0

> <PUBCHEM_COMPONENT_COUNT>
1

> <PUBCHEM_CACTVS_TAUTO_COUNT>
2

> <PUBCHEM_COORDINATE_TYPE>
1
5
255

> <PUBCHEM_BONDANNOTATIONS>
16  18  8
16  19  8
17  20  8
17  21  8
18  23  8
19  24  8
20  26  8
21  27  8
22  23  8
22  24  8
25  26  8
25  27  8

$$$$

