8695
  -OEChem-06261203002D

 45 44  0     0  0  0  0  0  0999 V2000
    7.4871    5.5785    0.0000 Cl  0  0  0  0  0  0  0  0  0  0  0  0
    3.2181    8.1200    0.0000 O   0  0  0  0  0  0  0  0  0  0  0  0
    1.4860    8.1200    0.0000 O   0  0  0  0  0  0  0  0  0  0  0  0
    2.3521    3.6200    0.0000 N   0  0  0  0  0  0  0  0  0  0  0  0
    4.0841   10.6200    0.0000 N   0  0  0  0  0  0  0  0  0  0  0  0
    1.4860    2.1200    0.0000 C   0  0  0  0  0  0  0  0  0  0  0  0
    1.4860    3.1200    0.0000 C   0  0  0  0  0  0  0  0  0  0  0  0
    0.6200    1.6200    0.0000 C   0  0  0  0  0  0  0  0  0  0  0  0
    2.3521    4.6200    0.0000 C   0  0  0  0  0  0  0  0  0  0  0  0
    4.0841    9.6200    0.0000 C   0  0  0  0  0  0  0  0  0  0  0  0
    0.6200    0.6200    0.0000 C   0  0  0  0  0  0  0  0  0  0  0  0
    3.2181    9.1200    0.0000 C   0  0  0  0  0  0  0  0  0  0  0  0
    2.3521    6.6200    0.0000 C   0  0  0  0  0  0  0  0  0  0  0  0
    3.2181    5.1200    0.0000 C   0  0  0  0  0  0  0  0  0  0  0  0
    1.4860    5.1200    0.0000 C   0  0  0  0  0  0  0  0  0  0  0  0
    3.2181    6.1200    0.0000 C   0  0  0  0  0  0  0  0  0  0  0  0
    1.4860    6.1200    0.0000 C   0  0  0  0  0  0  0  0  0  0  0  0
    2.3521    7.6200    0.0000 C   0  0  0  0  0  0  0  0  0  0  0  0
    4.9501   11.1200    0.0000 C   0  0  0  0  0  0  0  0  0  0  0  0
    3.2181   11.1200    0.0000 C   0  0  0  0  0  0  0  0  0  0  0  0
    1.6981    1.5374    0.0000 H   0  0  0  0  0  0  0  0  0  0  0  0
    2.0966    2.2277    0.0000 H   0  0  0  0  0  0  0  0  0  0  0  0
    1.2740    3.7026    0.0000 H   0  0  0  0  0  0  0  0  0  0  0  0
    0.8754    3.0123    0.0000 H   0  0  0  0  0  0  0  0  0  0  0  0
    0.4079    2.2026    0.0000 H   0  0  0  0  0  0  0  0  0  0  0  0
    0.0094    1.5123    0.0000 H   0  0  0  0  0  0  0  0  0  0  0  0
    2.8890    3.3100    0.0000 H   0  0  0  0  0  0  0  0  0  0  0  0
    4.2962    9.0374    0.0000 H   0  0  0  0  0  0  0  0  0  0  0  0
    4.6947    9.7277    0.0000 H   0  0  0  0  0  0  0  0  0  0  0  0
    3.0060    9.7026    0.0000 H   0  0  0  0  0  0  0  0  0  0  0  0
    2.6075    9.0123    0.0000 H   0  0  0  0  0  0  0  0  0  0  0  0
    0.0000    0.6200    0.0000 H   0  0  0  0  0  0  0  0  0  0  0  0
    0.6200    0.0000    0.0000 H   0  0  0  0  0  0  0  0  0  0  0  0
    1.2400    0.6200    0.0000 H   0  0  0  0  0  0  0  0  0  0  0  0
    3.7550    4.8100    0.0000 H   0  0  0  0  0  0  0  0  0  0  0  0
    0.9491    4.8100    0.0000 H   0  0  0  0  0  0  0  0  0  0  0  0
    3.7550    6.4300    0.0000 H   0  0  0  0  0  0  0  0  0  0  0  0
    0.9491    6.4300    0.0000 H   0  0  0  0  0  0  0  0  0  0  0  0
    5.2601   10.5831    0.0000 H   0  0  0  0  0  0  0  0  0  0  0  0
    5.4871   11.4300    0.0000 H   0  0  0  0  0  0  0  0  0  0  0  0
    4.6401   11.6569    0.0000 H   0  0  0  0  0  0  0  0  0  0  0  0
    3.5281   11.6569    0.0000 H   0  0  0  0  0  0  0  0  0  0  0  0
    2.6811   11.4300    0.0000 H   0  0  0  0  0  0  0  0  0  0  0  0
    2.9081   10.5831    0.0000 H   0  0  0  0  0  0  0  0  0  0  0  0
    8.4871    5.5785    0.0000 H   0  0  0  0  0  0  0  0  0  0  0  0
  1 45  1  0  0  0  0
  2 12  1  0  0  0  0
  2 18  1  0  0  0  0
  3 18  2  0  0  0  0
  4  7  1  0  0  0  0
  4  9  1  0  0  0  0
  4 27  1  0  0  0  0
  5 10  1  0  0  0  0
  5 19  1  0  0  0  0
  5 20  1  0  0  0  0
  6  7  1  0  0  0  0
  6  8  1  0  0  0  0
  6 21  1  0  0  0  0
  6 22  1  0  0  0  0
  7 23  1  0  0  0  0
  7 24  1  0  0  0  0
  8 11  1  0  0  0  0
  8 25  1  0  0  0  0
  8 26  1  0  0  0  0
  9 14  2  0  0  0  0
  9 15  1  0  0  0  0
 10 12  1  0  0  0  0
 10 28  1  0  0  0  0
 10 29  1  0  0  0  0
 11 32  1  0  0  0  0
 11 33  1  0  0  0  0
 11 34  1  0  0  0  0
 12 30  1  0  0  0  0
 12 31  1  0  0  0  0
 13 16  2  0  0  0  0
 13 17  1  0  0  0  0
 13 18  1  0  0  0  0
 14 16  1  0  0  0  0
 14 35  1  0  0  0  0
 15 17  2  0  0  0  0
 15 36  1  0  0  0  0
 16 37  1  0  0  0  0
 17 38  1  0  0  0  0
 19 39  1  0  0  0  0
 19 40  1  0  0  0  0
 19 41  1  0  0  0  0
 20 42  1  0  0  0  0
 20 43  1  0  0  0  0
 20 44  1  0  0  0  0
M  END
> <PUBCHEM_COMPOUND_CID>
8695

> <PUBCHEM_COMPOUND_CANONICALIZED>
1

> <PUBCHEM_CACTVS_COMPLEXITY>
249

> <PUBCHEM_CACTVS_HBOND_ACCEPTOR>
4

> <PUBCHEM_CACTVS_HBOND_DONOR>
2

> <PUBCHEM_CACTVS_ROTATABLE_BOND>
9

> <PUBCHEM_CACTVS_SUBSKEYS>
AAADceBzMAAEAAAAAAAAAAAAAAAAAAAAAAAwAAAAAAAAAAABAAAAHgAQAAAADAjhmAYyyIPABACIAiTSSACCAAAlAgAIiIEIbMgKJjLAtZmHMQhk0AHY6YeY2SOeCAAAAAAAAAAQAAAAAAAAAAAAAAAAAA==

> <PUBCHEM_IUPAC_OPENEYE_NAME>
2-(dimethylamino)ethyl 4-(butylamino)benzoate hydrochloride

> <PUBCHEM_IUPAC_CAS_NAME>
4-(butylamino)benzoic acid 2-(dimethylamino)ethyl ester hydrochloride

> <PUBCHEM_IUPAC_NAME>
2-(dimethylamino)ethyl 4-(butylamino)benzoate hydrochloride

> <PUBCHEM_IUPAC_SYSTEMATIC_NAME>
2-(dimethylamino)ethyl 4-(butylamino)benzoate hydrochloride

> <PUBCHEM_IUPAC_TRADITIONAL_NAME>
4-(butylamino)benzoic acid 2-(dimethylamino)ethyl ester hydrochloride

> <PUBCHEM_IUPAC_INCHI>
InChI=1S/C15H24N2O2.ClH/c1-4-5-10-16-14-8-6-13(7-9-14)15(18)19-12-11-17(2)3;/h6-9,16H,4-5,10-12H2,1-3H3;1H

> <PUBCHEM_IUPAC_INCHIKEY>
PPWHTZKZQNXVAE-UHFFFAOYSA-N

> <PUBCHEM_EXACT_MASS>
300.160456

> <PUBCHEM_MOLECULAR_FORMULA>
C15H25ClN2O2

> <PUBCHEM_MOLECULAR_WEIGHT>
300.8242

> <PUBCHEM_OPENEYE_CAN_SMILES>
CCCCNC1=CC=C(C=C1)C(=O)OCCN(C)C.Cl

> <PUBCHEM_OPENEYE_ISO_SMILES>
CCCCNC1=CC=C(C=C1)C(=O)OCCN(C)C.Cl

> <PUBCHEM_CACTVS_TPSA>
41.6

> <PUBCHEM_MONOISOTOPIC_WEIGHT>
300.160456

> <PUBCHEM_TOTAL_CHARGE>
0

> <PUBCHEM_HEAVY_ATOM_COUNT>
20

> <PUBCHEM_ATOM_DEF_STEREO_COUNT>
0

> <PUBCHEM_ATOM_UDEF_STEREO_COUNT>
0

> <PUBCHEM_BOND_DEF_STEREO_COUNT>
0

> <PUBCHEM_BOND_UDEF_STEREO_COUNT>
0

> <PUBCHEM_ISOTOPIC_ATOM_COUNT>
0

> <PUBCHEM_COMPONENT_COUNT>
2

> <PUBCHEM_CACTVS_TAUTO_COUNT>
3

> <PUBCHEM_COORDINATE_TYPE>
1
5
255

> <PUBCHEM_BONDANNOTATIONS>
13  16  8
13  17  8
14  16  8
15  17  8
9  14  8
9  15  8

$$$$

