5281876
  -OEChem-07051213002D

 95102  0     1  0  0  0  0  0999 V2000
    7.7790   -3.1396    0.0000 O   0  0  0  0  0  0  0  0  0  0  0  0
   10.2650   -3.4549    0.0000 O   0  0  0  0  0  0  0  0  0  0  0  0
    8.7695    0.6266    0.0000 O   0  0  0  0  0  0  0  0  0  0  0  0
    6.3836   -1.0609    0.0000 O   0  0  0  0  0  0  0  0  0  0  0  0
    2.7678   -1.6834    0.0000 O   0  0  0  0  0  0  0  0  0  0  0  0
   10.1574    0.8518    0.0000 O   0  0  0  0  0  0  0  0  0  0  0  0
    7.2088    0.2463    0.0000 O   0  0  0  0  0  0  0  0  0  0  0  0
   12.9647   -1.4077    0.0000 O   0  0  0  0  0  0  0  0  0  0  0  0
    4.4903   -3.4914    0.0000 O   0  0  0  0  0  0  0  0  0  0  0  0
    2.0000   -3.4184    0.0000 O   0  0  0  0  0  0  0  0  0  0  0  0
   12.9991   -2.3711    0.0000 O   0  0  0  0  0  0  0  0  0  0  0  0
   11.8925   -3.7035    0.0000 O   0  0  0  0  0  0  0  0  0  0  0  0
    6.9533    1.2448    0.0000 O   0  0  0  0  0  0  0  0  0  0  0  0
    8.6240    1.7016    0.0000 O   0  0  0  0  0  0  0  0  0  0  0  0
   11.7677    1.4898    0.0000 O   0  0  0  0  0  0  0  0  0  0  0  0
   13.2438    0.3018    0.0000 O   0  0  0  0  0  0  0  0  0  0  0  0
    8.1956   -1.5850    0.0000 C   0  0  2  0  0  0  0  0  0  0  0  0
    9.8592   -0.9259    0.0000 C   0  0  2  0  0  0  0  0  0  0  0  0
    8.8354   -0.7709    0.0000 C   0  0  1  0  0  0  0  0  0  0  0  0
    7.2027   -1.6344    0.0000 C   0  0  1  0  0  0  0  0  0  0  0  0
   10.2295   -1.8929    0.0000 C   0  0  1  0  0  0  0  0  0  0  0  0
    8.5510   -2.5133    0.0000 C   0  0  1  0  0  0  0  0  0  0  0  0
    6.9439   -2.6004    0.0000 C   0  0  1  0  0  0  0  0  0  0  0  0
    9.5710   -2.6920    0.0000 C   0  0  2  0  0  0  0  0  0  0  0  0
   11.2919   -2.0789    0.0000 C   0  0  1  0  0  0  0  0  0  0  0  0
    5.1120   -1.8415    0.0000 C   0  0  1  0  0  0  0  0  0  0  0  0
    5.3708   -0.8756    0.0000 C   0  0  2  0  0  0  0  0  0  0  0  0
   10.5257   -0.0779    0.0000 C   0  0  2  0  0  0  0  0  0  0  0  0
    8.1843    0.0263    0.0000 C   0  0  1  0  0  0  0  0  0  0  0  0
    9.7957    0.1015    0.0000 C   0  0  0  0  0  0  0  0  0  0  0  0
    4.6342    0.1070    0.0000 C   0  0  0  0  0  0  0  0  0  0  0  0
    7.8380   -0.6511    0.0000 C   0  0  0  0  0  0  0  0  0  0  0  0
   11.9778   -1.2466    0.0000 C   0  0  1  0  0  0  0  0  0  0  0  0
   11.2365   -3.1088    0.0000 C   0  0  0  0  0  0  0  0  0  0  0  0
    3.5768   -3.0847    0.0000 C   0  0  1  0  0  0  0  0  0  0  0  0
   11.5921   -0.2393    0.0000 C   0  0  0  0  0  0  0  0  0  0  0  0
    6.6851   -3.5663    0.0000 C   0  0  0  0  0  0  0  0  0  0  0  0
    2.6632   -2.6780    0.0000 C   0  0  2  0  0  0  0  0  0  0  0  0
   12.0611   -2.7178    0.0000 C   0  0  0  0  0  0  0  0  0  0  0  0
    7.9205    0.9909    0.0000 C   0  0  0  0  0  0  0  0  0  0  0  0
    3.4703   -4.0730    0.0000 C   0  0  0  0  0  0  0  0  0  0  0  0
    2.4978   -4.2789    0.0000 C   0  0  0  0  0  0  0  0  0  0  0  0
   10.7784    1.6357    0.0000 C   0  0  0  0  0  0  0  0  0  0  0  0
   13.5977   -0.6335    0.0000 C   0  0  0  0  0  0  0  0  0  0  0  0
   13.7684   -3.0100    0.0000 C   0  0  0  0  0  0  0  0  0  0  0  0
   10.4100    2.5654    0.0000 C   0  0  0  0  0  0  0  0  0  0  0  0
    6.6895    2.2094    0.0000 C   0  0  0  0  0  0  0  0  0  0  0  0
   14.5847   -0.7946    0.0000 C   0  0  0  0  0  0  0  0  0  0  0  0
    9.4207    2.7112    0.0000 C   0  0  0  0  0  0  0  0  0  0  0  0
   11.0310    3.3492    0.0000 C   0  0  0  0  0  0  0  0  0  0  0  0
   10.6627    4.2789    0.0000 C   0  0  0  0  0  0  0  0  0  0  0  0
    9.2563   -0.0324    0.0000 H   0  0  0  0  0  0  0  0  0  0  0  0
   10.7700   -1.2369    0.0000 H   0  0  0  0  0  0  0  0  0  0  0  0
    8.7647   -3.3360    0.0000 H   0  0  0  0  0  0  0  0  0  0  0  0
    9.1612   -3.4367    0.0000 H   0  0  0  0  0  0  0  0  0  0  0  0
    4.8919   -2.6626    0.0000 H   0  0  0  0  0  0  0  0  0  0  0  0
    5.5908   -0.0546    0.0000 H   0  0  0  0  0  0  0  0  0  0  0  0
    9.9122    0.0114    0.0000 H   0  0  0  0  0  0  0  0  0  0  0  0
   10.4115    0.0295    0.0000 H   0  0  0  0  0  0  0  0  0  0  0  0
    9.9758    0.6948    0.0000 H   0  0  0  0  0  0  0  0  0  0  0  0
    4.9520    0.6394    0.0000 H   0  0  0  0  0  0  0  0  0  0  0  0
    4.0210    0.1990    0.0000 H   0  0  0  0  0  0  0  0  0  0  0  0
    8.4170   -0.4294    0.0000 H   0  0  0  0  0  0  0  0  0  0  0  0
    7.6163   -0.0721    0.0000 H   0  0  0  0  0  0  0  0  0  0  0  0
    7.2590   -0.8728    0.0000 H   0  0  0  0  0  0  0  0  0  0  0  0
   12.3693   -0.7658    0.0000 H   0  0  0  0  0  0  0  0  0  0  0  0
   11.3659   -3.7152    0.0000 H   0  0  0  0  0  0  0  0  0  0  0  0
   11.8546   -3.0603    0.0000 H   0  0  0  0  0  0  0  0  0  0  0  0
   12.2006   -0.1200    0.0000 H   0  0  0  0  0  0  0  0  0  0  0  0
   11.5787    0.3806    0.0000 H   0  0  0  0  0  0  0  0  0  0  0  0
    6.0862   -3.4058    0.0000 H   0  0  0  0  0  0  0  0  0  0  0  0
    6.5246   -4.1652    0.0000 H   0  0  0  0  0  0  0  0  0  0  0  0
    7.2840   -3.7268    0.0000 H   0  0  0  0  0  0  0  0  0  0  0  0
    5.8217   -1.3229    0.0000 H   0  0  0  0  0  0  0  0  0  0  0  0
    1.8867   -2.3322    0.0000 H   0  0  0  0  0  0  0  0  0  0  0  0
    3.9304   -4.4887    0.0000 H   0  0  0  0  0  0  0  0  0  0  0  0
    6.6168    0.0620    0.0000 H   0  0  0  0  0  0  0  0  0  0  0  0
    4.5552   -4.1080    0.0000 H   0  0  0  0  0  0  0  0  0  0  0  0
    2.2456   -4.8453    0.0000 H   0  0  0  0  0  0  0  0  0  0  0  0
   13.3722   -3.4870    0.0000 H   0  0  0  0  0  0  0  0  0  0  0  0
   14.2453   -3.4062    0.0000 H   0  0  0  0  0  0  0  0  0  0  0  0
   14.1645   -2.5331    0.0000 H   0  0  0  0  0  0  0  0  0  0  0  0
    7.2876    2.3729    0.0000 H   0  0  0  0  0  0  0  0  0  0  0  0
    6.5260    2.8074    0.0000 H   0  0  0  0  0  0  0  0  0  0  0  0
    6.0915    2.0458    0.0000 H   0  0  0  0  0  0  0  0  0  0  0  0
   14.4848   -1.4065    0.0000 H   0  0  0  0  0  0  0  0  0  0  0  0
   15.1966   -0.8945    0.0000 H   0  0  0  0  0  0  0  0  0  0  0  0
   14.6845   -0.1827    0.0000 H   0  0  0  0  0  0  0  0  0  0  0  0
    9.5112    3.3246    0.0000 H   0  0  0  0  0  0  0  0  0  0  0  0
    8.8074    2.8016    0.0000 H   0  0  0  0  0  0  0  0  0  0  0  0
    9.3303    2.0979    0.0000 H   0  0  0  0  0  0  0  0  0  0  0  0
   11.6444    3.2588    0.0000 H   0  0  0  0  0  0  0  0  0  0  0  0
   11.2391    4.5072    0.0000 H   0  0  0  0  0  0  0  0  0  0  0  0
   10.4343    4.8553    0.0000 H   0  0  0  0  0  0  0  0  0  0  0  0
   10.0863    4.0505    0.0000 H   0  0  0  0  0  0  0  0  0  0  0  0
  1 22  1  0  0  0  0
  1 23  1  0  0  0  0
  2 24  1  0  0  0  0
  2 34  1  0  0  0  0
  3 29  1  0  0  0  0
  3 30  1  0  0  0  0
 20  4  1  1  0  0  0
  4 74  1  0  0  0  0
  5 27  1  0  0  0  0
  5 38  1  0  0  0  0
 28  6  1  1  0  0  0
  6 43  1  0  0  0  0
 29  7  1  6  0  0  0
  7 77  1  0  0  0  0
 33  8  1  1  0  0  0
  8 44  1  0  0  0  0
 35  9  1  6  0  0  0
  9 78  1  0  0  0  0
 10 38  1  0  0  0  0
 10 42  1  0  0  0  0
 11 39  1  0  0  0  0
 11 45  1  0  0  0  0
 12 39  2  0  0  0  0
 13 40  1  0  0  0  0
 13 47  1  0  0  0  0
 14 40  2  0  0  0  0
 15 43  2  0  0  0  0
 16 44  2  0  0  0  0
 17 19  1  0  0  0  0
 17 20  1  0  0  0  0
 17 22  1  0  0  0  0
 17 32  1  6  0  0  0
 18 19  1  0  0  0  0
 18 21  1  0  0  0  0
 18 28  1  0  0  0  0
 18 30  1  6  0  0  0
 19 29  1  0  0  0  0
 19 52  1  1  0  0  0
 20 23  1  0  0  0  0
 20 27  1  0  0  0  0
 21 24  1  0  0  0  0
 21 25  1  0  0  0  0
 21 53  1  1  0  0  0
 22 24  1  0  0  0  0
 22 54  1  6  0  0  0
 23 26  1  0  0  0  0
 23 37  1  1  0  0  0
 24 55  1  6  0  0  0
 25 33  1  0  0  0  0
 25 34  1  0  0  0  0
 25 39  1  6  0  0  0
 26 31  1  0  0  0  0
 26 35  1  0  0  0  0
 26 56  1  1  0  0  0
 27 31  1  0  0  0  0
 27 57  1  6  0  0  0
 28 36  1  0  0  0  0
 28 58  1  0  0  0  0
 29 40  1  0  0  0  0
 30 59  1  0  0  0  0
 30 60  1  0  0  0  0
 31 61  1  0  0  0  0
 31 62  1  0  0  0  0
 32 63  1  0  0  0  0
 32 64  1  0  0  0  0
 32 65  1  0  0  0  0
 33 36  1  0  0  0  0
 33 66  1  0  0  0  0
 34 67  1  0  0  0  0
 34 68  1  0  0  0  0
 35 38  1  0  0  0  0
 35 41  1  0  0  0  0
 36 69  1  0  0  0  0
 36 70  1  0  0  0  0
 37 71  1  0  0  0  0
 37 72  1  0  0  0  0
 37 73  1  0  0  0  0
 38 75  1  6  0  0  0
 41 42  2  0  0  0  0
 41 76  1  0  0  0  0
 42 79  1  0  0  0  0
 43 46  1  0  0  0  0
 44 48  1  0  0  0  0
 45 80  1  0  0  0  0
 45 81  1  0  0  0  0
 45 82  1  0  0  0  0
 46 49  1  0  0  0  0
 46 50  2  0  0  0  0
 47 83  1  0  0  0  0
 47 84  1  0  0  0  0
 47 85  1  0  0  0  0
 48 86  1  0  0  0  0
 48 87  1  0  0  0  0
 48 88  1  0  0  0  0
 49 89  1  0  0  0  0
 49 90  1  0  0  0  0
 49 91  1  0  0  0  0
 50 51  1  0  0  0  0
 50 92  1  0  0  0  0
 51 93  1  0  0  0  0
 51 94  1  0  0  0  0
 51 95  1  0  0  0  0
M  END
> <PUBCHEM_COMPOUND_CID>
5281876

> <PUBCHEM_COMPOUND_CANONICALIZED>
1

> <PUBCHEM_CACTVS_COMPLEXITY>
1660

> <PUBCHEM_CACTVS_HBOND_ACCEPTOR>
16

> <PUBCHEM_CACTVS_HBOND_DONOR>
3

> <PUBCHEM_CACTVS_ROTATABLE_BOND>
9

> <PUBCHEM_CACTVS_SUBSKEYS>
AAADcfB8PgAAAAAAAAAAAAAAAAAAAaJEiBA0YIAABIASAEjAAAAAGgAACAAAD1SwgAMCCAAABgCIAiDSCAIACAAgIAAICAFAAEgRBBYAIQQiUAAF4AAHMYHK7PzPgAAAAAAAAADAAAYQADCAAYQADCAAAA==

> <PUBCHEM_IUPAC_INCHI>
InChI=1S/C35H44O16/c1-8-15(2)24(37)49-18-12-19(48-16(3)36)32(26(38)43-6)13-46-21-22(32)31(18)14-47-34(41,27(39)44-7)25(31)29(4)23(21)51-30(5)17-11-20(35(29,30)42)50-28-33(17,40)9-10-45-28/h8-10,17-23,25,28,40-42H,11-14H2,1-7H3/b15-8+/t17-,18+,19-,20+,21-,22-,23-,25+,28+,29-,30-,31+,32+,33+,34+,35+/m1/s1

> <PUBCHEM_IUPAC_INCHIKEY>
PRHIFRRGZHSCGI-WKVRWLKDSA-N

> <PUBCHEM_XLOGP3_AA>
-0.6

> <PUBCHEM_EXACT_MASS>
720.262935

> <PUBCHEM_MOLECULAR_FORMULA>
C35H44O16

> <PUBCHEM_MOLECULAR_WEIGHT>
720.71426

> <PUBCHEM_OPENEYE_CAN_SMILES>
CC=C(C)C(=O)OC1CC(C2(COC3C2C14COC(C4C5(C3OC6(C5(C7CC6C8(C=COC8O7)O)O)C)C)(C(=O)OC)O)C(=O)OC)OC(=O)C

> <PUBCHEM_OPENEYE_ISO_SMILES>
C/C=C(\C)/C(=O)O[C@H]1C[C@H]([C@]2(CO[C@@H]3[C@@H]2[C@]14CO[C@@]([C@H]4[C@]5([C@@H]3O[C@]6([C@@]5([C@@H]7C[C@H]6[C@]8(C=CO[C@H]8O7)O)O)C)C)(C(=O)OC)O)C(=O)OC)OC(=O)C

> <PUBCHEM_CACTVS_TPSA>
212

> <PUBCHEM_MONOISOTOPIC_WEIGHT>
720.262935

> <PUBCHEM_TOTAL_CHARGE>
0

> <PUBCHEM_HEAVY_ATOM_COUNT>
51

> <PUBCHEM_ATOM_DEF_STEREO_COUNT>
16

> <PUBCHEM_ATOM_UDEF_STEREO_COUNT>
0

> <PUBCHEM_BOND_DEF_STEREO_COUNT>
1

> <PUBCHEM_BOND_UDEF_STEREO_COUNT>
0

> <PUBCHEM_ISOTOPIC_ATOM_COUNT>
0

> <PUBCHEM_COMPONENT_COUNT>
1

> <PUBCHEM_CACTVS_TAUTO_COUNT>
1

> <PUBCHEM_COORDINATE_TYPE>
1
5
255

> <PUBCHEM_BONDANNOTATIONS>
17  32  6
18  30  6
19  52  5
21  53  5
22  54  6
23  37  5
24  55  6
25  39  6
26  56  5
27  57  6
38  75  6
20  4  5
28  6  5
29  7  6
33  8  5
35  9  6

$$$$

