3034380
  -OEChem-07051213123D

 59 60  0     0  0  0  0  0  0999 V2000
    2.2225   -0.7224    2.7407 S   0  0  0  0  0  0  0  0  0  0  0  0
   -3.1109    1.2135   -0.9244 O   0  0  0  0  0  0  0  0  0  0  0  0
    2.1933   -0.1012    0.0441 N   0  0  0  0  0  0  0  0  0  0  0  0
    4.2136   -0.7328    1.0401 N   0  0  0  0  0  0  0  0  0  0  0  0
    0.4530    1.5654   -0.1768 C   0  0  0  0  0  0  0  0  0  0  0  0
   -0.0739   -0.7745   -0.4670 C   0  0  0  0  0  0  0  0  0  0  0  0
    0.8373    0.2348   -0.2037 C   0  0  0  0  0  0  0  0  0  0  0  0
    1.4262    2.6641    0.1052 C   0  0  0  0  0  0  0  0  0  0  0  0
    0.3274   -2.2136   -0.4990 C   0  0  0  0  0  0  0  0  0  0  0  0
    4.9783   -0.6358   -0.1900 C   0  0  0  0  0  0  0  0  0  0  0  0
   -0.8801    1.8959   -0.4202 C   0  0  0  0  0  0  0  0  0  0  0  0
   -1.4070   -0.4440   -0.7105 C   0  0  0  0  0  0  0  0  0  0  0  0
   -1.8102    0.8911   -0.6870 C   0  0  0  0  0  0  0  0  0  0  0  0
    1.5719    3.6361   -1.0793 C   0  0  0  0  0  0  0  0  0  0  0  0
    1.0741    3.4443    1.3845 C   0  0  0  0  0  0  0  0  0  0  0  0
   -0.3876   -3.0455    0.5809 C   0  0  0  0  0  0  0  0  0  0  0  0
    0.1102   -2.8518   -1.8828 C   0  0  0  0  0  0  0  0  0  0  0  0
    2.8576   -0.4830    1.2041 C   0  0  0  0  0  0  0  0  0  0  0  0
    4.4078   -1.6230   -1.2136 C   0  0  0  0  0  0  0  0  0  0  0  0
    6.4453   -0.9759    0.0972 C   0  0  0  0  0  0  0  0  0  0  0  0
    4.8800    0.7932   -0.7364 C   0  0  0  0  0  0  0  0  0  0  0  0
   -4.0865    0.4598   -0.2938 C   0  0  0  0  0  0  0  0  0  0  0  0
   -3.9425    0.1589    1.0486 C   0  0  0  0  0  0  0  0  0  0  0  0
   -5.1793    0.0269   -1.0227 C   0  0  0  0  0  0  0  0  0  0  0  0
   -4.9248   -0.6009    1.6836 C   0  0  0  0  0  0  0  0  0  0  0  0
   -6.1616   -0.7328   -0.3875 C   0  0  0  0  0  0  0  0  0  0  0  0
   -6.0343   -1.0467    0.9656 C   0  0  0  0  0  0  0  0  0  0  0  0
    2.4281    2.2646    0.2813 H   0  0  0  0  0  0  0  0  0  0  0  0
    1.3971   -2.3266   -0.2972 H   0  0  0  0  0  0  0  0  0  0  0  0
   -1.2138    2.9303   -0.4061 H   0  0  0  0  0  0  0  0  0  0  0  0
   -2.1244   -1.2273   -0.9415 H   0  0  0  0  0  0  0  0  0  0  0  0
    2.7603    0.2914   -0.6849 H   0  0  0  0  0  0  0  0  0  0  0  0
    1.8486    3.0968   -1.9921 H   0  0  0  0  0  0  0  0  0  0  0  0
    2.3555    4.3741   -0.8757 H   0  0  0  0  0  0  0  0  0  0  0  0
    0.6451    4.1838   -1.2798 H   0  0  0  0  0  0  0  0  0  0  0  0
    0.1284    3.9881    1.2879 H   0  0  0  0  0  0  0  0  0  0  0  0
    1.8553    4.1772    1.6141 H   0  0  0  0  0  0  0  0  0  0  0  0
    0.9862    2.7682    2.2421 H   0  0  0  0  0  0  0  0  0  0  0  0
   -1.4652   -3.1157    0.3967 H   0  0  0  0  0  0  0  0  0  0  0  0
    0.0101   -4.0661    0.6037 H   0  0  0  0  0  0  0  0  0  0  0  0
   -0.2489   -2.6087    1.5749 H   0  0  0  0  0  0  0  0  0  0  0  0
    0.6331   -2.2827   -2.6594 H   0  0  0  0  0  0  0  0  0  0  0  0
    0.4997   -3.8757   -1.8980 H   0  0  0  0  0  0  0  0  0  0  0  0
   -0.9496   -2.8971   -2.1553 H   0  0  0  0  0  0  0  0  0  0  0  0
    4.7125   -1.0283    1.8744 H   0  0  0  0  0  0  0  0  0  0  0  0
    3.4190   -1.3800   -1.6060 H   0  0  0  0  0  0  0  0  0  0  0  0
    4.3454   -2.6319   -0.7876 H   0  0  0  0  0  0  0  0  0  0  0  0
    5.0676   -1.6830   -2.0882 H   0  0  0  0  0  0  0  0  0  0  0  0
    6.8746   -0.2829    0.8304 H   0  0  0  0  0  0  0  0  0  0  0  0
    7.0560   -0.9279   -0.8112 H   0  0  0  0  0  0  0  0  0  0  0  0
    6.5415   -1.9866    0.5112 H   0  0  0  0  0  0  0  0  0  0  0  0
    4.1974    0.9143   -1.5839 H   0  0  0  0  0  0  0  0  0  0  0  0
    5.8496    1.1061   -1.1469 H   0  0  0  0  0  0  0  0  0  0  0  0
    4.6366    1.5274    0.0392 H   0  0  0  0  0  0  0  0  0  0  0  0
   -3.1000    0.5136    1.6351 H   0  0  0  0  0  0  0  0  0  0  0  0
   -5.2793    0.2701   -2.0762 H   0  0  0  0  0  0  0  0  0  0  0  0
   -4.8285   -0.8412    2.7385 H   0  0  0  0  0  0  0  0  0  0  0  0
   -7.0257   -1.0800   -0.9465 H   0  0  0  0  0  0  0  0  0  0  0  0
   -6.7999   -1.6373    1.4603 H   0  0  0  0  0  0  0  0  0  0  0  0
  1 18  2  0  0  0  0
  2 13  1  0  0  0  0
  2 22  1  0  0  0  0
  3  7  1  0  0  0  0
  3 18  1  0  0  0  0
  3 32  1  0  0  0  0
  4 10  1  0  0  0  0
  4 18  1  0  0  0  0
  4 45  1  0  0  0  0
  5  7  2  0  0  0  0
  5  8  1  0  0  0  0
  5 11  1  0  0  0  0
  6  7  1  0  0  0  0
  6  9  1  0  0  0  0
  6 12  2  0  0  0  0
  8 14  1  0  0  0  0
  8 15  1  0  0  0  0
  8 28  1  0  0  0  0
  9 16  1  0  0  0  0
  9 17  1  0  0  0  0
  9 29  1  0  0  0  0
 10 19  1  0  0  0  0
 10 20  1  0  0  0  0
 10 21  1  0  0  0  0
 11 13  2  0  0  0  0
 11 30  1  0  0  0  0
 12 13  1  0  0  0  0
 12 31  1  0  0  0  0
 14 33  1  0  0  0  0
 14 34  1  0  0  0  0
 14 35  1  0  0  0  0
 15 36  1  0  0  0  0
 15 37  1  0  0  0  0
 15 38  1  0  0  0  0
 16 39  1  0  0  0  0
 16 40  1  0  0  0  0
 16 41  1  0  0  0  0
 17 42  1  0  0  0  0
 17 43  1  0  0  0  0
 17 44  1  0  0  0  0
 19 46  1  0  0  0  0
 19 47  1  0  0  0  0
 19 48  1  0  0  0  0
 20 49  1  0  0  0  0
 20 50  1  0  0  0  0
 20 51  1  0  0  0  0
 21 52  1  0  0  0  0
 21 53  1  0  0  0  0
 21 54  1  0  0  0  0
 22 23  2  0  0  0  0
 22 24  1  0  0  0  0
 23 25  1  0  0  0  0
 23 55  1  0  0  0  0
 24 26  2  0  0  0  0
 24 56  1  0  0  0  0
 25 27  2  0  0  0  0
 25 57  1  0  0  0  0
 26 27  1  0  0  0  0
 26 58  1  0  0  0  0
 27 59  1  0  0  0  0
M  END
> <PUBCHEM_COMPOUND_CID>
3034380

> <PUBCHEM_CONFORMER_RMSD>
0.8

> <PUBCHEM_CONFORMER_DIVERSEORDER>
1
32
43
23
25
8
39
27
46
13
11
44
2
30
14
24
41
9
45
26
33
16
4
42
7
15
34
5
40
3
29
22
35
37
28
20
12
38
10
21
36
6
19
17
31
18

> <PUBCHEM_MMFF94_PARTIAL_CHARGES>
29
1 -0.38
10 0.3
11 -0.15
12 -0.15
13 0.08
18 0.5
2 -0.17
22 0.08
23 -0.15
24 -0.15
25 -0.15
26 -0.15
27 -0.15
3 -0.55
30 0.15
31 0.15
32 0.37
4 -0.73
45 0.37
5 -0.14
55 0.15
56 0.15
57 0.15
58 0.15
59 0.15
6 -0.14
7 0.12
8 0.14
9 0.14

> <PUBCHEM_EFFECTIVE_ROTOR_COUNT>
8

> <PUBCHEM_PHARMACOPHORE_FEATURES>
9
1 1 acceptor
1 2 acceptor
1 3 donor
1 4 donor
3 8 14 15 hydrophobe
3 9 16 17 hydrophobe
4 10 19 20 21 hydrophobe
6 22 23 24 25 26 27 rings
6 5 6 7 11 12 13 rings

> <PUBCHEM_HEAVY_ATOM_COUNT>
27

> <PUBCHEM_ATOM_DEF_STEREO_COUNT>
0

> <PUBCHEM_ATOM_UDEF_STEREO_COUNT>
0

> <PUBCHEM_BOND_DEF_STEREO_COUNT>
0

> <PUBCHEM_BOND_UDEF_STEREO_COUNT>
0

> <PUBCHEM_ISOTOPIC_ATOM_COUNT>
0

> <PUBCHEM_COMPONENT_COUNT>
1

> <PUBCHEM_CACTVS_TAUTO_COUNT>
3

> <PUBCHEM_CONFORMER_ID>
002E4D0C00000001

> <PUBCHEM_MMFF94_ENERGY>
121.6705

> <PUBCHEM_FEATURE_SELFOVERLAP>
45.711

> <PUBCHEM_SHAPE_FINGERPRINT>
10076449 9 18260822722964667582
10366900 7 17989210360901362705
10906281 52 18126292084827419029
1100329 8 18337391534899798190
11045977 3 18060700555267920803
11445158 3 18272652303283571356
11488393 25 17825663623523586151
11578080 2 17243024436726668994
12011746 2 18202003235375778619
12035758 1 18333735706409442338
12166972 35 17967251971038385201
12236239 1 17703228524809836886
12553582 1 18340787995327449894
12633257 1 18339632379080008971
12788726 201 18263645225010678104
13140716 1 18264208011438752759
13583140 156 17631752507761142255
13862211 1 18410577305230028822
14787075 74 17775564251654318698
14790565 3 18410006671807507356
14849402 71 18042963186175837201
14955137 171 18334571343414220388
15849732 13 18407761421918337438
15927050 60 17903918859990987532
1601671 61 18408042926722636934
17492 89 18053949734616073522
1813 80 18187917417560993916
18222031 100 18336275599485815857
18681886 176 18335427837387226537
19319366 153 17775291539070521850
20028762 73 18115030706231326383
21033648 29 17677351509585558025
21267235 1 18411415142455444404
21285901 2 18041273387633300198
21682296 61 18335976575114666919
23558518 356 17479747018054481856
23559900 14 17131834223234658557
23569943 247 17605827251523243526
283562 15 18192993936029820272
3178227 256 18411689972806726211
350125 39 18412824664506764797
3737641 26 17751913859588715822
4340502 62 16774078470956812586
465052 167 18343578530016337043
469060 322 18266728268030820512
474229 33 18413670227313040735
6669772 16 18056470648158341012
7495541 125 18060417993242698877

> <PUBCHEM_SHAPE_MULTIPOLES>
543.67
12.66
3.31
1.7
6.19
1.93
-0.87
-4.62
-0.99
-1.97
0.55
-0.27
-0.44
0.37

> <PUBCHEM_SHAPE_SELFOVERLAP>
1121.005

> <PUBCHEM_SHAPE_VOLUME>
318.3

> <PUBCHEM_COORDINATE_TYPE>
2
5
10

$$$$

