92236
  -OEChem-07051213013D

 28 29  0     1  0  0  0  0  0999 V2000
    1.8458   -0.8524   -0.5330 O   0  0  0  0  0  0  0  0  0  0  0  0
    4.2003    1.5209    0.8027 O   0  0  0  0  0  0  0  0  0  0  0  0
    3.4331    1.1735   -1.3050 O   0  0  0  0  0  0  0  0  0  0  0  0
   -1.5410    0.4916   -0.0703 C   0  0  0  0  0  0  0  0  0  0  0  0
   -2.2878   -0.7090   -0.0058 C   0  0  0  0  0  0  0  0  0  0  0  0
    0.4966   -0.8053   -0.3609 C   0  0  0  0  0  0  0  0  0  0  0  0
   -0.1495    0.4261   -0.2481 C   0  0  0  0  0  0  0  0  0  0  0  0
    2.6516   -0.2675    0.4889 C   0  0  1  0  0  0  0  0  0  0  0  0
   -1.6209   -1.9395   -0.1210 C   0  0  0  0  0  0  0  0  0  0  0  0
   -0.2378   -1.9858   -0.2974 C   0  0  0  0  0  0  0  0  0  0  0  0
   -2.2079    1.7221    0.0451 C   0  0  0  0  0  0  0  0  0  0  0  0
   -3.6794   -0.6435    0.1722 C   0  0  0  0  0  0  0  0  0  0  0  0
    3.5592   -1.3493    1.0477 C   0  0  0  0  0  0  0  0  0  0  0  0
   -3.5911    1.7683    0.2214 C   0  0  0  0  0  0  0  0  0  0  0  0
   -4.3256    0.5878    0.2848 C   0  0  0  0  0  0  0  0  0  0  0  0
    3.4545    0.8621   -0.1213 C   0  0  0  0  0  0  0  0  0  0  0  0
    0.4295    1.3460   -0.3087 H   0  0  0  0  0  0  0  0  0  0  0  0
    2.0391    0.1499    1.2986 H   0  0  0  0  0  0  0  0  0  0  0  0
   -2.1747   -2.8749   -0.0741 H   0  0  0  0  0  0  0  0  0  0  0  0
    0.2607   -2.9474   -0.3841 H   0  0  0  0  0  0  0  0  0  0  0  0
   -1.6543    2.6576   -0.0014 H   0  0  0  0  0  0  0  0  0  0  0  0
   -4.2734   -1.5536    0.2248 H   0  0  0  0  0  0  0  0  0  0  0  0
    4.2075   -1.7590    0.2647 H   0  0  0  0  0  0  0  0  0  0  0  0
    2.9680   -2.1835    1.4405 H   0  0  0  0  0  0  0  0  0  0  0  0
    4.1975   -0.9664    1.8500 H   0  0  0  0  0  0  0  0  0  0  0  0
   -4.0947    2.7266    0.3092 H   0  0  0  0  0  0  0  0  0  0  0  0
   -5.4024    0.6246    0.4222 H   0  0  0  0  0  0  0  0  0  0  0  0
    4.7110    2.2569    0.4030 H   0  0  0  0  0  0  0  0  0  0  0  0
  1  6  1  0  0  0  0
  1  8  1  0  0  0  0
  2 16  1  0  0  0  0
  2 28  1  0  0  0  0
  3 16  2  0  0  0  0
  4  5  1  0  0  0  0
  4  7  1  0  0  0  0
  4 11  2  0  0  0  0
  5  9  1  0  0  0  0
  5 12  2  0  0  0  0
  6  7  2  0  0  0  0
  6 10  1  0  0  0  0
  7 17  1  0  0  0  0
  8 13  1  0  0  0  0
  8 16  1  0  0  0  0
  8 18  1  0  0  0  0
  9 10  2  0  0  0  0
  9 19  1  0  0  0  0
 10 20  1  0  0  0  0
 11 14  1  0  0  0  0
 11 21  1  0  0  0  0
 12 15  1  0  0  0  0
 12 22  1  0  0  0  0
 13 23  1  0  0  0  0
 13 24  1  0  0  0  0
 13 25  1  0  0  0  0
 14 15  2  0  0  0  0
 14 26  1  0  0  0  0
 15 27  1  0  0  0  0
M  END
> <PUBCHEM_COMPOUND_CID>
92236

> <PUBCHEM_CONFORMER_RMSD>
0.6

> <PUBCHEM_CONFORMER_DIVERSEORDER>
1
24
11
8
20
32
14
16
10
31
18
28
3
25
39
37
5
36
22
13
2
7
27
30
35
26
38
6
19
9
23
12
17
21
15
4
34
29
33

> <PUBCHEM_MMFF94_PARTIAL_CHARGES>
21
1 -0.36
10 -0.15
11 -0.15
12 -0.15
14 -0.15
15 -0.15
16 0.66
17 0.15
19 0.15
2 -0.65
20 0.15
21 0.15
22 0.15
26 0.15
27 0.15
28 0.5
3 -0.57
6 0.08
7 -0.15
8 0.34
9 -0.15

> <PUBCHEM_EFFECTIVE_ROTOR_COUNT>
3

> <PUBCHEM_PHARMACOPHORE_FEATURES>
6
1 1 acceptor
1 2 acceptor
1 3 acceptor
3 2 3 16 anion
6 4 5 11 12 14 15 rings
6 4 5 6 7 9 10 rings

> <PUBCHEM_HEAVY_ATOM_COUNT>
16

> <PUBCHEM_ATOM_DEF_STEREO_COUNT>
0

> <PUBCHEM_ATOM_UDEF_STEREO_COUNT>
1

> <PUBCHEM_BOND_DEF_STEREO_COUNT>
0

> <PUBCHEM_BOND_UDEF_STEREO_COUNT>
0

> <PUBCHEM_ISOTOPIC_ATOM_COUNT>
0

> <PUBCHEM_COMPONENT_COUNT>
1

> <PUBCHEM_CACTVS_TAUTO_COUNT>
1

> <PUBCHEM_CONFORMER_ID>
0001684C00000001

> <PUBCHEM_MMFF94_ENERGY>
47.2415

> <PUBCHEM_FEATURE_SELFOVERLAP>
30.538

> <PUBCHEM_SHAPE_FINGERPRINT>
10608611 8 18336264655935486941
11132069 177 18411700984712547829
11543360 7 14851899036148826785
12173636 292 18408608058582527629
122479 349 18410853274121917403
12251169 10 18343026631145669658
12390115 104 18042946814050252089
12403814 3 17989492913751613749
13380535 76 18336829796602070455
13583140 156 17131838702653205617
13675066 3 17203608220196695155
15196674 1 18409730677245151545
15669948 3 18335704888352683943
15775835 57 18412261727168674152
16945 1 18339348747882132639
17846911 113 18333735749269152035
1813 80 17059214925116342134
18186145 218 17896027913866635943
19050596 39 18342462534367291778
19862831 5 6338956646192742005
20510252 161 18260824899906321577
20645477 56 18334293132923936512
21524375 3 18335987574742195943
21652331 79 18410575071878780689
2255824 54 17847058909314940346
23402539 116 18335994095088055631
23463225 33 18343022232835258454
23557571 272 18043516236107717550
23559900 14 18044371853807304638
2748010 2 18122612023661710063
474 4 17416959526851720004
4921388 177 14852182688763725469
5104073 3 18411978091965813251
5374978 207 18412827997010470169
6333272 397 18410571812050986713
633830 44 18041840735153366189
7097593 13 18128553737032369786
7364860 26 17974006446708622047
90316 7 17632299033527872669
9709674 26 18408599288128232711

> <PUBCHEM_SHAPE_MULTIPOLES>
311.66
8.21
2.04
0.84
2.59
0.16
0.01
-3.17
-1.43
-0.2
0
0.65
-0.04
-0.47

> <PUBCHEM_SHAPE_SELFOVERLAP>
671.32

> <PUBCHEM_SHAPE_VOLUME>
172.3

> <PUBCHEM_COORDINATE_TYPE>
2
5
10

$$$$

