198695
  -OEChem-07051213033D

 30 31  0     1  0  0  0  0  0999 V2000
   -0.4651   -1.7789    0.0375 O   0  0  0  0  0  0  0  0  0  0  0  0
   -4.3563   -0.5321    0.0270 O   0  0  0  0  0  0  0  0  0  0  0  0
    1.1940   -0.1762   -0.2389 N   0  0  0  0  0  0  0  0  0  0  0  0
   -2.2447   -0.2386    0.9950 N   0  0  0  0  0  0  0  0  0  0  0  0
   -1.0184    0.4351    0.6742 C   0  0  2  0  0  0  0  0  0  0  0  0
    2.1647   -1.1333   -0.7740 C   0  0  0  0  0  0  0  0  0  0  0  0
    1.6670    1.2128   -0.1826 C   0  0  0  0  0  0  0  0  0  0  0  0
    3.4725   -1.0809    0.0111 C   0  0  0  0  0  0  0  0  0  0  0  0
    2.9666    1.3106    0.6133 C   0  0  0  0  0  0  0  0  0  0  0  0
    4.0209    0.3436    0.0767 C   0  0  0  0  0  0  0  0  0  0  0  0
   -1.4291    1.4564   -0.3693 C   0  0  0  0  0  0  0  0  0  0  0  0
   -0.0786   -0.6109    0.1297 C   0  0  0  0  0  0  0  0  0  0  0  0
   -2.6586    0.8409   -1.0370 C   0  0  0  0  0  0  0  0  0  0  0  0
   -3.2350   -0.0485    0.0373 C   0  0  0  0  0  0  0  0  0  0  0  0
   -0.6060    0.8790    1.5848 H   0  0  0  0  0  0  0  0  0  0  0  0
    2.3370   -0.8707   -1.8245 H   0  0  0  0  0  0  0  0  0  0  0  0
    1.7621   -2.1509   -0.7527 H   0  0  0  0  0  0  0  0  0  0  0  0
    0.9505    1.8829    0.2911 H   0  0  0  0  0  0  0  0  0  0  0  0
    1.8198    1.5514   -1.2138 H   0  0  0  0  0  0  0  0  0  0  0  0
    4.2119   -1.7443   -0.4506 H   0  0  0  0  0  0  0  0  0  0  0  0
    3.2996   -1.4462    1.0311 H   0  0  0  0  0  0  0  0  0  0  0  0
    2.7671    1.0746    1.6662 H   0  0  0  0  0  0  0  0  0  0  0  0
    3.3500    2.3363    0.5777 H   0  0  0  0  0  0  0  0  0  0  0  0
    4.9106    0.3709    0.7156 H   0  0  0  0  0  0  0  0  0  0  0  0
    4.3332    0.6621   -0.9253 H   0  0  0  0  0  0  0  0  0  0  0  0
   -0.6861    1.7072   -1.1291 H   0  0  0  0  0  0  0  0  0  0  0  0
   -1.7255    2.3883    0.1288 H   0  0  0  0  0  0  0  0  0  0  0  0
   -2.3802    0.2205   -1.8947 H   0  0  0  0  0  0  0  0  0  0  0  0
   -3.3793    1.6032   -1.3425 H   0  0  0  0  0  0  0  0  0  0  0  0
   -2.3684   -0.8278    1.8126 H   0  0  0  0  0  0  0  0  0  0  0  0
  1 12  2  0  0  0  0
  2 14  2  0  0  0  0
  3  6  1  0  0  0  0
  3  7  1  0  0  0  0
  3 12  1  0  0  0  0
  4  5  1  0  0  0  0
  4 14  1  0  0  0  0
  4 30  1  0  0  0  0
  5 11  1  0  0  0  0
  5 12  1  0  0  0  0
  5 15  1  0  0  0  0
  6  8  1  0  0  0  0
  6 16  1  0  0  0  0
  6 17  1  0  0  0  0
  7  9  1  0  0  0  0
  7 18  1  0  0  0  0
  7 19  1  0  0  0  0
  8 10  1  0  0  0  0
  8 20  1  0  0  0  0
  8 21  1  0  0  0  0
  9 10  1  0  0  0  0
  9 22  1  0  0  0  0
  9 23  1  0  0  0  0
 10 24  1  0  0  0  0
 10 25  1  0  0  0  0
 11 13  1  0  0  0  0
 11 26  1  0  0  0  0
 11 27  1  0  0  0  0
 13 14  1  0  0  0  0
 13 28  1  0  0  0  0
 13 29  1  0  0  0  0
M  END
> <PUBCHEM_COMPOUND_CID>
198695

> <PUBCHEM_CONFORMER_RMSD>
0.6

> <PUBCHEM_CONFORMER_DIVERSEORDER>
1
11
8
10
5
12
4
6
2
9
7
3

> <PUBCHEM_MMFF94_PARTIAL_CHARGES>
11
1 -0.57
12 0.57
13 0.06
14 0.57
2 -0.57
3 -0.66
30 0.37
4 -0.73
5 0.36
6 0.3
7 0.3

> <PUBCHEM_EFFECTIVE_ROTOR_COUNT>
4

> <PUBCHEM_PHARMACOPHORE_FEATURES>
5
1 1 acceptor
1 2 acceptor
1 4 donor
5 4 5 11 13 14 rings
6 3 6 7 8 9 10 rings

> <PUBCHEM_HEAVY_ATOM_COUNT>
14

> <PUBCHEM_ATOM_DEF_STEREO_COUNT>
1

> <PUBCHEM_ATOM_UDEF_STEREO_COUNT>
0

> <PUBCHEM_BOND_DEF_STEREO_COUNT>
0

> <PUBCHEM_BOND_UDEF_STEREO_COUNT>
0

> <PUBCHEM_ISOTOPIC_ATOM_COUNT>
0

> <PUBCHEM_COMPONENT_COUNT>
1

> <PUBCHEM_CACTVS_TAUTO_COUNT>
3

> <PUBCHEM_CONFORMER_ID>
0003082700000001

> <PUBCHEM_MMFF94_ENERGY>
25.689

> <PUBCHEM_FEATURE_SELFOVERLAP>
25.371

> <PUBCHEM_SHAPE_FINGERPRINT>
10608611 8 18411985771188444244
12032990 46 18413385449284413505
12251169 10 18411989035895891096
124424 183 18130509721104761770
12932764 1 18272365407984350330
13380535 76 18334575711802499686
13581323 91 18344148077092038630
13690532 89 18410575119387074042
14115302 16 6988040201798808568
14144814 61 18335980947786662144
14325111 11 18410856585499452532
14897335 6 18261114024272617986
14993402 34 14189571940200807339
15219456 202 18411703205078784037
15775835 57 18040435460408587092
16945 1 18333726936070094036
17802600 8 18411141346342383496
18175812 5 18272083886063497887
18186145 218 18261950846741383972
19422 9 17313379050335379831
200 152 17967538986322349597
20201158 50 18408601470139644498
20279233 1 18201716254150527322
20528008 55 18409449159102529106
20645477 70 18261958560471317798
20715346 28 18272365373846008584
21639500 275 17968671436197016240
23402539 116 18411430504888966941
23402655 69 18187367661541247420
23557571 272 18131634508620661573
23559900 14 18201723993882178090
2748010 2 18340767160256675804
3286 77 18335422387042137828
69090 78 18335706013660443583
74978 22 14189278340599998236

> <PUBCHEM_SHAPE_MULTIPOLES>
266.41
7.04
1.49
0.86
0.39
0.02
-0.03
0.17
0.03
-0.54
-0.09
0.21
-0.07
0.55

> <PUBCHEM_SHAPE_SELFOVERLAP>
547.856

> <PUBCHEM_SHAPE_VOLUME>
153.1

> <PUBCHEM_COORDINATE_TYPE>
2
5
10

$$$$

