47205804
  -OEChem-06241223003D

 36 36  0     0  0  0  0  0  0999 V2000
   -3.3974    0.4591   -1.2711 O   0  0  0  0  0  0  0  0  0  0  0  0
   -0.7745   -1.1860    1.3043 O   0  0  0  0  0  0  0  0  0  0  0  0
    1.1105    0.9170   -1.0178 O   0  0  0  0  0  0  0  0  0  0  0  0
   -3.3063   -1.3302    0.2051 N   0  0  0  0  0  0  0  0  0  0  0  0
    0.1198   -1.6415   -0.7878 N   0  0  0  0  0  0  0  0  0  0  0  0
    1.3941   -1.2986   -0.4064 N   0  0  0  0  0  0  0  0  0  0  0  0
   -4.9470    0.3856    0.5878 C   0  0  0  0  0  0  0  0  0  0  0  0
   -5.5137    1.7069    0.0767 C   0  0  0  0  0  0  0  0  0  0  0  0
   -3.8085   -0.1292   -0.2745 C   0  0  0  0  0  0  0  0  0  0  0  0
   -2.2185   -2.0244   -0.4422 C   0  0  0  0  0  0  0  0  0  0  0  0
   -6.6290    2.2193    0.9731 C   0  0  0  0  0  0  0  0  0  0  0  0
   -0.9036   -1.5532    0.1388 C   0  0  0  0  0  0  0  0  0  0  0  0
    3.2005    0.3037   -0.1439 C   0  0  0  0  0  0  0  0  0  0  0  0
    1.8037    0.0122   -0.5596 C   0  0  0  0  0  0  0  0  0  0  0  0
    3.8979    1.3577   -0.7341 C   0  0  0  0  0  0  0  0  0  0  0  0
    3.8143   -0.4770    0.8358 C   0  0  0  0  0  0  0  0  0  0  0  0
    5.2093    1.6313   -0.3446 C   0  0  0  0  0  0  0  0  0  0  0  0
    5.1256   -0.2035    1.2253 C   0  0  0  0  0  0  0  0  0  0  0  0
    5.8229    0.8508    0.6353 C   0  0  0  0  0  0  0  0  0  0  0  0
   -5.7346   -0.3770    0.6087 H   0  0  0  0  0  0  0  0  0  0  0  0
   -4.5707    0.5102    1.6103 H   0  0  0  0  0  0  0  0  0  0  0  0
   -5.8969    1.5796   -0.9428 H   0  0  0  0  0  0  0  0  0  0  0  0
   -4.7186    2.4603    0.0244 H   0  0  0  0  0  0  0  0  0  0  0  0
   -2.3293   -3.0948   -0.2462 H   0  0  0  0  0  0  0  0  0  0  0  0
   -2.2598   -1.8465   -1.5215 H   0  0  0  0  0  0  0  0  0  0  0  0
   -3.6991   -1.7364    1.0494 H   0  0  0  0  0  0  0  0  0  0  0  0
   -7.4555    1.5030    1.0192 H   0  0  0  0  0  0  0  0  0  0  0  0
   -7.0209    3.1657    0.5874 H   0  0  0  0  0  0  0  0  0  0  0  0
   -6.2661    2.3918    1.9914 H   0  0  0  0  0  0  0  0  0  0  0  0
    0.0007   -1.9687   -1.7407 H   0  0  0  0  0  0  0  0  0  0  0  0
    1.9801   -2.0610   -0.0852 H   0  0  0  0  0  0  0  0  0  0  0  0
    3.4387    1.9744   -1.5022 H   0  0  0  0  0  0  0  0  0  0  0  0
    3.2968   -1.2884    1.3389 H   0  0  0  0  0  0  0  0  0  0  0  0
    5.7527    2.4515   -0.8044 H   0  0  0  0  0  0  0  0  0  0  0  0
    5.6019   -0.8069    1.9925 H   0  0  0  0  0  0  0  0  0  0  0  0
    6.8433    1.0646    0.9396 H   0  0  0  0  0  0  0  0  0  0  0  0
  1  9  2  0  0  0  0
  2 12  2  0  0  0  0
  3 14  2  0  0  0  0
  4  9  1  0  0  0  0
  4 10  1  0  0  0  0
  4 26  1  0  0  0  0
  5  6  1  0  0  0  0
  5 12  1  0  0  0  0
  5 30  1  0  0  0  0
  6 14  1  0  0  0  0
  6 31  1  0  0  0  0
  7  8  1  0  0  0  0
  7  9  1  0  0  0  0
  7 20  1  0  0  0  0
  7 21  1  0  0  0  0
  8 11  1  0  0  0  0
  8 22  1  0  0  0  0
  8 23  1  0  0  0  0
 10 12  1  0  0  0  0
 10 24  1  0  0  0  0
 10 25  1  0  0  0  0
 11 27  1  0  0  0  0
 11 28  1  0  0  0  0
 11 29  1  0  0  0  0
 13 14  1  0  0  0  0
 13 15  2  0  0  0  0
 13 16  1  0  0  0  0
 15 17  1  0  0  0  0
 15 32  1  0  0  0  0
 16 18  2  0  0  0  0
 16 33  1  0  0  0  0
 17 19  2  0  0  0  0
 17 34  1  0  0  0  0
 18 19  1  0  0  0  0
 18 35  1  0  0  0  0
 19 36  1  0  0  0  0
M  END
> <PUBCHEM_COMPOUND_CID>
47205804

> <PUBCHEM_CONFORMER_RMSD>
0.8

> <PUBCHEM_CONFORMER_DIVERSEORDER>
1
21
90
4
149
84
114
28
136
83
97
120
112
99
45
13
102
147
71
89
115
96
18
29
31
127
37
133
12
130
50
14
69
131
61
33
140
143
30
67
108
2
51
3
10
145
128
135
53
66
146
82
139
17
111
79
78
94
5
137
25
101
64
119
77
36
122
104
150
11
100
95
65
93
35
118
42
39
110
40
116
126
76
129
15
44
87
132
74
80
142
20
68
43
144
54
34
134
23
73
24
16
124
123
46
19
52
49
125
60
56
138
81
88
91
98
47
107
26
27
121
9
63
92
8
141
7
85
55
86
103
148
72
105
106
109
6
22
57
117
62
113
58
75
41
38
32
48
70
59

> <PUBCHEM_MMFF94_PARTIAL_CHARGES>
25
1 -0.57
10 0.36
12 0.57
13 0.09
14 0.54
15 -0.15
16 -0.15
17 -0.15
18 -0.15
19 -0.15
2 -0.57
26 0.37
3 -0.57
30 0.37
31 0.37
32 0.15
33 0.15
34 0.15
35 0.15
36 0.15
4 -0.73
5 -0.43
6 -0.43
7 0.06
9 0.57

> <PUBCHEM_EFFECTIVE_ROTOR_COUNT>
9

> <PUBCHEM_PHARMACOPHORE_FEATURES>
8
1 1 acceptor
1 11 hydrophobe
1 2 acceptor
1 3 acceptor
1 4 donor
1 5 donor
1 6 donor
6 13 15 16 17 18 19 rings

> <PUBCHEM_HEAVY_ATOM_COUNT>
19

> <PUBCHEM_ATOM_DEF_STEREO_COUNT>
0

> <PUBCHEM_ATOM_UDEF_STEREO_COUNT>
0

> <PUBCHEM_BOND_DEF_STEREO_COUNT>
0

> <PUBCHEM_BOND_UDEF_STEREO_COUNT>
0

> <PUBCHEM_ISOTOPIC_ATOM_COUNT>
0

> <PUBCHEM_COMPONENT_COUNT>
1

> <PUBCHEM_CACTVS_TAUTO_COUNT>
8

> <PUBCHEM_CONFORMER_ID>
02D04DAC00000001

> <PUBCHEM_MMFF94_ENERGY>
35.6663

> <PUBCHEM_FEATURE_SELFOVERLAP>
42.134

> <PUBCHEM_SHAPE_FINGERPRINT>
11089746 13 18187938214309202584
117890 112 18333733511570182808
12107183 9 18269846470196085890
12596602 18 17704351048318822257
12895836 83 17167867491541281629
13167372 99 18410856577088866288
13785724 45 17908429396286648482
14123255 352 18408039602544439929
14123256 34 10519978284190260297
14251764 18 18131072589142697918
14251764 30 12607411017759146040
14251764 75 17391334575343946233
15188451 53 14548727371376749329
15238133 3 18271519823898410348
15880784 105 11743831474269296935
18222031 100 7565339812538522239
200 152 7276561931483958430
20028762 73 11815889050864456209
20281389 69 18409730642648211969
20621476 66 18410569578647322540
20871999 31 4967613858715828059
21033648 29 18041007189406991786
21054139 6 7781524711314360444
21196832 93 6698934610176138997
21315759 148 14405192784973951236
21421861 104 17916599751306980778
21637258 2 11455888040508509313
21774942 28 16588861429194926840
22950370 63 10087647013054548094
23402539 116 18114469984779530693
23559900 14 17894900816402656246
268830 7 18059023769949685860
270888 7 18261954163237215657
2748736 6 18335706104577807193
2767999 5 18333736831722496177
2838139 119 18259992569572784077
2871803 45 6555408695912698135
3014063 24 12319440062591997817
314194 84 8286202781265802620
351380 3 10231751180750763681
3680242 22 18342735255910892617
4259306 186 8286206036893262529
465052 167 11527936872707632849
5104073 3 17988650627715007128
5385378 56 18339921640062702867
7970288 3 10231747869421143145
8272917 22 18342460353036127930

> <PUBCHEM_SHAPE_MULTIPOLES>
358.46
16.02
2.11
1.1
7.71
0.01
-0.1
11.98
-4.16
2.21
0.01
-0.26
0.06
-1.16

> <PUBCHEM_SHAPE_SELFOVERLAP>
726.206

> <PUBCHEM_SHAPE_VOLUME>
207.3

> <PUBCHEM_COORDINATE_TYPE>
2
5
10

$$$$

