442317
  -OEChem-07051212573D

 38 43  0     1  0  0  0  0  0999 V2000
    0.2958   -2.5915    1.3310 O   0  0  0  0  0  0  0  0  0  0  0  0
    5.9172   -0.1042   -0.0912 O   0  0  0  0  0  0  0  0  0  0  0  0
    4.9316    2.0358    0.4103 O   0  0  0  0  0  0  0  0  0  0  0  0
   -4.4534    2.0327   -0.0642 O   0  0  0  0  0  0  0  0  0  0  0  0
   -5.9825    0.1803    0.0629 O   0  0  0  0  0  0  0  0  0  0  0  0
   -0.1776    1.5497   -0.1420 N   0  0  0  0  0  0  0  0  0  0  0  0
    0.1455   -2.2174   -0.0370 C   0  0  1  0  0  0  0  0  0  0  0  0
   -0.5063   -0.8525   -0.0811 C   0  0  0  0  0  0  0  0  0  0  0  0
    1.5058   -2.2624   -0.7456 C   0  0  0  0  0  0  0  0  0  0  0  0
    2.3863   -1.0895   -0.3874 C   0  0  0  0  0  0  0  0  0  0  0  0
    1.7884    0.1696   -0.1070 C   0  0  0  0  0  0  0  0  0  0  0  0
    0.3172    0.2893   -0.1124 C   0  0  0  0  0  0  0  0  0  0  0  0
   -1.9173   -0.6782   -0.0341 C   0  0  0  0  0  0  0  0  0  0  0  0
   -2.4234    0.6414   -0.0682 C   0  0  0  0  0  0  0  0  0  0  0  0
    3.7829   -1.2418   -0.4072 C   0  0  0  0  0  0  0  0  0  0  0  0
    2.6265    1.2664    0.1745 C   0  0  0  0  0  0  0  0  0  0  0  0
    4.5575   -0.1394   -0.1235 C   0  0  0  0  0  0  0  0  0  0  0  0
    3.9953    1.0798    0.1603 C   0  0  0  0  0  0  0  0  0  0  0  0
   -3.8041    0.8329   -0.0349 C   0  0  0  0  0  0  0  0  0  0  0  0
   -2.8610   -1.7446    0.0517 C   0  0  0  0  0  0  0  0  0  0  0  0
   -1.5171    1.6974   -0.1264 C   0  0  0  0  0  0  0  0  0  0  0  0
   -4.6829   -0.2205    0.0390 C   0  0  0  0  0  0  0  0  0  0  0  0
   -4.2424   -1.5216    0.0866 C   0  0  0  0  0  0  0  0  0  0  0  0
    6.1479    1.2775    0.2511 C   0  0  0  0  0  0  0  0  0  0  0  0
   -5.8297    1.6108   -0.0052 C   0  0  0  0  0  0  0  0  0  0  0  0
   -0.4828   -2.9729   -0.5190 H   0  0  0  0  0  0  0  0  0  0  0  0
    1.3585   -2.2435   -1.8330 H   0  0  0  0  0  0  0  0  0  0  0  0
    2.0148   -3.1988   -0.4859 H   0  0  0  0  0  0  0  0  0  0  0  0
    4.2406   -2.1974   -0.6410 H   0  0  0  0  0  0  0  0  0  0  0  0
    2.2237    2.2481    0.4052 H   0  0  0  0  0  0  0  0  0  0  0  0
   -2.5269   -2.7785    0.0979 H   0  0  0  0  0  0  0  0  0  0  0  0
   -1.8502    2.7310   -0.1550 H   0  0  0  0  0  0  0  0  0  0  0  0
   -0.5458   -2.4299    1.7901 H   0  0  0  0  0  0  0  0  0  0  0  0
   -4.9355   -2.3530    0.1506 H   0  0  0  0  0  0  0  0  0  0  0  0
    6.7487    1.7397   -0.5406 H   0  0  0  0  0  0  0  0  0  0  0  0
    6.7121    1.3174    1.1900 H   0  0  0  0  0  0  0  0  0  0  0  0
   -6.3483    1.9779   -0.8983 H   0  0  0  0  0  0  0  0  0  0  0  0
   -6.2962    2.0570    0.8806 H   0  0  0  0  0  0  0  0  0  0  0  0
  1  7  1  0  0  0  0
  1 33  1  0  0  0  0
  2 17  1  0  0  0  0
  2 24  1  0  0  0  0
  3 18  1  0  0  0  0
  3 24  1  0  0  0  0
  4 19  1  0  0  0  0
  4 25  1  0  0  0  0
  5 22  1  0  0  0  0
  5 25  1  0  0  0  0
  6 12  2  0  0  0  0
  6 21  1  0  0  0  0
  7  8  1  0  0  0  0
  7  9  1  0  0  0  0
  7 26  1  0  0  0  0
  8 12  1  0  0  0  0
  8 13  2  0  0  0  0
  9 10  1  0  0  0  0
  9 27  1  0  0  0  0
  9 28  1  0  0  0  0
 10 11  1  0  0  0  0
 10 15  2  0  0  0  0
 11 12  1  0  0  0  0
 11 16  2  0  0  0  0
 13 14  1  0  0  0  0
 13 20  1  0  0  0  0
 14 19  1  0  0  0  0
 14 21  2  0  0  0  0
 15 17  1  0  0  0  0
 15 29  1  0  0  0  0
 16 18  1  0  0  0  0
 16 30  1  0  0  0  0
 17 18  2  0  0  0  0
 19 22  2  0  0  0  0
 20 23  2  0  0  0  0
 20 31  1  0  0  0  0
 21 32  1  0  0  0  0
 22 23  1  0  0  0  0
 23 34  1  0  0  0  0
 24 35  1  0  0  0  0
 24 36  1  0  0  0  0
 25 37  1  0  0  0  0
 25 38  1  0  0  0  0
M  END
> <PUBCHEM_COMPOUND_CID>
442317

> <PUBCHEM_CONFORMER_RMSD>
0.6

> <PUBCHEM_CONFORMER_DIVERSEORDER>
1

> <PUBCHEM_MMFF94_PARTIAL_CHARGES>
28
1 -0.68
10 -0.14
12 0.31
15 -0.15
16 -0.15
17 0.08
18 0.08
19 0.08
2 -0.36
20 -0.15
21 0.16
22 0.08
23 -0.15
24 0.56
25 0.56
29 0.15
3 -0.36
30 0.15
31 0.15
32 0.15
33 0.4
34 0.15
4 -0.36
5 -0.36
6 -0.62
7 0.42
8 -0.14
9 0.14

> <PUBCHEM_EFFECTIVE_ROTOR_COUNT>
1.6

> <PUBCHEM_PHARMACOPHORE_FEATURES>
13
1 1 acceptor
1 1 donor
1 2 acceptor
1 3 acceptor
1 4 acceptor
1 5 acceptor
1 6 acceptor
5 2 3 17 18 24 rings
5 4 5 19 22 25 rings
6 10 11 15 16 17 18 rings
6 13 14 19 20 22 23 rings
6 6 8 12 13 14 21 rings
6 7 8 9 10 11 12 rings

> <PUBCHEM_HEAVY_ATOM_COUNT>
25

> <PUBCHEM_ATOM_DEF_STEREO_COUNT>
1

> <PUBCHEM_ATOM_UDEF_STEREO_COUNT>
0

> <PUBCHEM_BOND_DEF_STEREO_COUNT>
0

> <PUBCHEM_BOND_UDEF_STEREO_COUNT>
0

> <PUBCHEM_ISOTOPIC_ATOM_COUNT>
0

> <PUBCHEM_COMPONENT_COUNT>
1

> <PUBCHEM_CACTVS_TAUTO_COUNT>
1

> <PUBCHEM_CONFORMER_ID>
0006BFCD00000001

> <PUBCHEM_MMFF94_ENERGY>
76.2574

> <PUBCHEM_FEATURE_SELFOVERLAP>
66.344

> <PUBCHEM_SHAPE_FINGERPRINT>
10 15 18273210876591658897
10366900 7 13984664767542810751
10411042 1 17618222811050406187
10906281 52 18269817783971969124
11578080 2 17058104439182117199
11595378 159 17131845312128235684
12107183 9 17688306106888568424
12236239 1 17775286045516874484
12403259 415 18114466648049053256
12788726 201 16950840439888862121
12838862 33 18338817661784885957
13402501 40 18409730651407068328
13785724 45 17905893931210611450
14528608 73 18333170565584583820
14787075 74 18335987484310155105
14790565 3 18410852127318410428
15196674 1 18409729564569241942
17980427 23 18059571334823903324
1813 80 17132111355371543125
18608769 82 18339357467056302795
19784866 170 18413107273185477537
200 152 17821449066794094381
20642791 178 18129086849689801557
21033648 29 18187938214135246896
21236236 1 18337111168531104079
21267235 1 18411129217697754391
21279426 13 18337388360966322614
21304253 335 18413101770973786300
21421861 104 17844535619574330947
23227448 37 18261112924318197414
23402539 116 18410297969252435678
23559900 14 18334860502420070936
2916195 48 18336268955282152936
3004659 81 18413105091911757910
335352 9 18408885149083515830
34797466 226 17530958077387157261
34934 24 18409171038949152255
350125 39 18410292510781895724
3545911 37 18408884044401350493
3680242 22 18269838769145228658
38695281 34 18186801391683984983
4073 2 18201996587003846482
4214541 1 18410011035562293069
4340502 62 16630807716395605930
474 4 18130781257036545591
474229 33 18410012113456555678
5104073 3 18342451599618031003
5486654 2 18408881815608736100
6138700 20 18411135879239490222
9709674 26 18409160030489355063
9981440 41 18273210885403568835

> <PUBCHEM_SHAPE_MULTIPOLES>
480.16
13.36
2.44
0.7
1.27
0.59
-0.05
-6.19
-0.44
-0.18
-0.15
0.12
0.2
0.56

> <PUBCHEM_SHAPE_SELFOVERLAP>
1119.691

> <PUBCHEM_SHAPE_VOLUME>
242.2

> <PUBCHEM_COORDINATE_TYPE>
2
5
10

$$$$

