586265
  -OEChem-06241222463D

 36 37  0     0  0  0  0  0  0999 V2000
   -0.9825    4.9126    0.3410 Cl  0  0  0  0  0  0  0  0  0  0  0  0
    0.3111   -1.3133   -0.4197 O   0  0  0  0  0  0  0  0  0  0  0  0
    1.0189   -1.8385    1.7120 O   0  0  0  0  0  0  0  0  0  0  0  0
   -0.9265   -1.8190   -0.0534 N   0  0  0  0  0  0  0  0  0  0  0  0
   -3.2490   -1.2716   -0.2562 N   0  0  0  0  0  0  0  0  0  0  0  0
   -1.7456    0.5219   -0.0036 C   0  0  0  0  0  0  0  0  0  0  0  0
   -2.0007   -0.9468   -0.1178 C   0  0  0  0  0  0  0  0  0  0  0  0
   -1.7476    1.0926    1.2474 C   0  0  0  0  0  0  0  0  0  0  0  0
   -1.5187    1.2410   -1.1531 C   0  0  0  0  0  0  0  0  0  0  0  0
   -3.5660   -2.6895   -0.3640 C   0  0  0  0  0  0  0  0  0  0  0  0
   -1.5087    2.4626    1.3549 C   0  0  0  0  0  0  0  0  0  0  0  0
   -1.2798    2.6112   -1.0456 C   0  0  0  0  0  0  0  0  0  0  0  0
    2.5163   -0.8340    0.1524 C   0  0  0  0  0  0  0  0  0  0  0  0
   -1.2750    3.2220    0.2083 C   0  0  0  0  0  0  0  0  0  0  0  0
    3.6777   -1.3400    0.7010 C   0  0  0  0  0  0  0  0  0  0  0  0
    2.5294    0.1689   -0.7960 C   0  0  0  0  0  0  0  0  0  0  0  0
    1.2120   -1.3862    0.5941 C   0  0  0  0  0  0  0  0  0  0  0  0
   -5.0662   -2.8524   -0.4985 C   0  0  0  0  0  0  0  0  0  0  0  0
    4.9034   -0.8214    0.2837 C   0  0  0  0  0  0  0  0  0  0  0  0
    3.7552    0.6876   -1.2134 C   0  0  0  0  0  0  0  0  0  0  0  0
    4.9422    0.1925   -0.6735 C   0  0  0  0  0  0  0  0  0  0  0  0
   -1.9279    0.5045    2.1420 H   0  0  0  0  0  0  0  0  0  0  0  0
   -1.5205    0.7689   -2.1306 H   0  0  0  0  0  0  0  0  0  0  0  0
   -3.0824   -3.1283   -1.2445 H   0  0  0  0  0  0  0  0  0  0  0  0
   -3.2324   -3.2312    0.5287 H   0  0  0  0  0  0  0  0  0  0  0  0
   -1.5076    2.9250    2.3387 H   0  0  0  0  0  0  0  0  0  0  0  0
   -1.0987    3.1901   -1.9477 H   0  0  0  0  0  0  0  0  0  0  0  0
   -1.0251   -2.8265   -0.1170 H   0  0  0  0  0  0  0  0  0  0  0  0
    3.6606   -2.1316    1.4443 H   0  0  0  0  0  0  0  0  0  0  0  0
    1.6213    0.5825   -1.2232 H   0  0  0  0  0  0  0  0  0  0  0  0
   -5.3320   -3.9106   -0.5816 H   0  0  0  0  0  0  0  0  0  0  0  0
   -5.5846   -2.4347    0.3710 H   0  0  0  0  0  0  0  0  0  0  0  0
   -5.4378   -2.3335   -1.3884 H   0  0  0  0  0  0  0  0  0  0  0  0
    5.8277   -1.2074    0.7035 H   0  0  0  0  0  0  0  0  0  0  0  0
    3.7855    1.4792   -1.9563 H   0  0  0  0  0  0  0  0  0  0  0  0
    5.8966    0.5967   -0.9980 H   0  0  0  0  0  0  0  0  0  0  0  0
  1 14  1  0  0  0  0
  2  4  1  0  0  0  0
  2 17  1  0  0  0  0
  3 17  2  0  0  0  0
  4  7  1  0  0  0  0
  4 28  1  0  0  0  0
  5  7  2  0  0  0  0
  5 10  1  0  0  0  0
  6  7  1  0  0  0  0
  6  8  2  0  0  0  0
  6  9  1  0  0  0  0
  8 11  1  0  0  0  0
  8 22  1  0  0  0  0
  9 12  2  0  0  0  0
  9 23  1  0  0  0  0
 10 18  1  0  0  0  0
 10 24  1  0  0  0  0
 10 25  1  0  0  0  0
 11 14  2  0  0  0  0
 11 26  1  0  0  0  0
 12 14  1  0  0  0  0
 12 27  1  0  0  0  0
 13 15  2  0  0  0  0
 13 16  1  0  0  0  0
 13 17  1  0  0  0  0
 15 19  1  0  0  0  0
 15 29  1  0  0  0  0
 16 20  2  0  0  0  0
 16 30  1  0  0  0  0
 18 31  1  0  0  0  0
 18 32  1  0  0  0  0
 18 33  1  0  0  0  0
 19 21  2  0  0  0  0
 19 34  1  0  0  0  0
 20 21  1  0  0  0  0
 20 35  1  0  0  0  0
 21 36  1  0  0  0  0
M  END
> <PUBCHEM_COMPOUND_CID>
586265

> <PUBCHEM_CONFORMER_RMSD>
0.8

> <PUBCHEM_CONFORMER_DIVERSEORDER>
1
60
120
136
137
52
105
22
132
36
130
80
111
44
106
94
47
54
35
28
133
6
109
39
96
9
5
70
110
116
86
20
24
71
11
82
29
73
41
92
93
75
23
88
43
134
108
140
139
2
98
90
103
48
115
40
84
32
62
15
129
127
83
17
113
125
38
128
57
8
46
34
14
50
79
19
55
95
100
27
91
135
21
123
89
7
3
107
45
72
85
114
69
97
99
65
63
42
58
102
56
26
101
64
13
138
126
4
49
51
25
112
31
119
66
124
30
131
104
12
68
74
16
78
59
10
67
53
117
118
33
122
76
77
81
18
121
61
37
87

> <PUBCHEM_MMFF94_PARTIAL_CHARGES>
30
1 -0.18
10 0.25
11 -0.15
12 -0.15
13 0.09
14 0.18
15 -0.15
16 -0.15
17 0.63
19 -0.15
2 -0.13
20 -0.15
21 -0.15
22 0.15
23 0.15
26 0.15
27 0.15
28 0.4
29 0.15
3 -0.57
30 0.15
34 0.15
35 0.15
36 0.15
4 -0.47
5 -0.7
6 0.09
7 0.41
8 -0.15
9 -0.15

> <PUBCHEM_EFFECTIVE_ROTOR_COUNT>
6

> <PUBCHEM_PHARMACOPHORE_FEATURES>
5
1 3 acceptor
1 4 donor
3 4 5 7 cation
6 13 15 16 19 20 21 rings
6 6 8 9 11 12 14 rings

> <PUBCHEM_HEAVY_ATOM_COUNT>
21

> <PUBCHEM_ATOM_DEF_STEREO_COUNT>
0

> <PUBCHEM_ATOM_UDEF_STEREO_COUNT>
0

> <PUBCHEM_BOND_DEF_STEREO_COUNT>
0

> <PUBCHEM_BOND_UDEF_STEREO_COUNT>
0

> <PUBCHEM_ISOTOPIC_ATOM_COUNT>
0

> <PUBCHEM_COMPONENT_COUNT>
1

> <PUBCHEM_CACTVS_TAUTO_COUNT>
2

> <PUBCHEM_CONFORMER_ID>
0008F21900000001

> <PUBCHEM_MMFF94_ENERGY>
62.9736

> <PUBCHEM_FEATURE_SELFOVERLAP>
25.371

> <PUBCHEM_SHAPE_FINGERPRINT>
11045515 52 18271529693638096631
11265709 11 18336823083668212175
11582403 64 15549120490882783237
11640471 11 17832997413509464904
11725454 13 15548825843194078453
12173636 292 17975980078775734077
12403260 363 18272373070970637458
12788726 201 18343029895036374739
13009979 54 18056221252186765466
13583140 156 17459776859301108098
138480 1 15671821753119248205
13899415 154 18267011766174347895
14347332 77 18409164454727949126
14955137 171 18120626112478329475
17492 89 18339927120847660946
17980427 26 16668254626239134621
1813 80 18042398037446618671
18222031 100 18042131951427751063
200 152 18131356275869817303
20510252 161 18410576197228718986
20600515 1 18115013101075502935
22907989 373 18338811116201700469
23352939 185 18116144476595798915
23402539 116 18335986384904698255
23419403 2 18121242903920039253
23557571 272 18333726910010621022
23558518 356 18126001804635144291
283562 15 18341897402280794994
469060 322 18336537253030200722
532947 4 17689434888818959157
7164475 11 18411138065135406798
7399639 24 17895482436399597374

> <PUBCHEM_SHAPE_MULTIPOLES>
412.34
8.45
4.68
1.21
6.91
5.4
0.16
-6.74
-1.54
-6.34
0.42
0.16
0.27
-1.41

> <PUBCHEM_SHAPE_SELFOVERLAP>
865.183

> <PUBCHEM_SHAPE_VOLUME>
233.6

> <PUBCHEM_COORDINATE_TYPE>
2
5
10

$$$$

