9957
  -OEChem-06261204133D

 17 17  0     0  0  0  0  0  0999 V2000
   -1.6098    1.8166   -0.0002 F   0  0  0  0  0  0  0  0  0  0  0  0
    2.9557    0.3562   -0.0001 N   0  0  0  0  0  0  0  0  0  0  0  0
   -1.1537   -0.5131   -0.0003 C   0  0  0  0  0  0  0  0  0  0  0  0
   -0.7213    0.8130   -0.0002 C   0  0  0  0  0  0  0  0  0  0  0  0
   -0.2213   -1.5507   -0.0003 C   0  0  0  0  0  0  0  0  0  0  0  0
    1.5757    0.0641    0.0003 C   0  0  0  0  0  0  0  0  0  0  0  0
    0.6434    1.1016    0.0003 C   0  0  0  0  0  0  0  0  0  0  0  0
    1.1434   -1.2621    0.0000 C   0  0  0  0  0  0  0  0  0  0  0  0
   -2.6120   -0.8255    0.0005 C   0  0  0  0  0  0  0  0  0  0  0  0
   -0.5431   -2.5888    0.0009 H   0  0  0  0  0  0  0  0  0  0  0  0
    0.9673    2.1391    0.0004 H   0  0  0  0  0  0  0  0  0  0  0  0
    1.8601   -2.0794    0.0002 H   0  0  0  0  0  0  0  0  0  0  0  0
   -3.0526   -0.5639    0.9678 H   0  0  0  0  0  0  0  0  0  0  0  0
   -3.1242   -0.2645   -0.7883 H   0  0  0  0  0  0  0  0  0  0  0  0
   -2.8009   -1.8888   -0.1818 H   0  0  0  0  0  0  0  0  0  0  0  0
    3.6322   -0.3956    0.0010 H   0  0  0  0  0  0  0  0  0  0  0  0
    3.2695    1.3175    0.0013 H   0  0  0  0  0  0  0  0  0  0  0  0
  1  4  1  0  0  0  0
  2  6  1  0  0  0  0
  2 16  1  0  0  0  0
  2 17  1  0  0  0  0
  3  4  2  0  0  0  0
  3  5  1  0  0  0  0
  3  9  1  0  0  0  0
  4  7  1  0  0  0  0
  5  8  2  0  0  0  0
  5 10  1  0  0  0  0
  6  7  2  0  0  0  0
  6  8  1  0  0  0  0
  7 11  1  0  0  0  0
  8 12  1  0  0  0  0
  9 13  1  0  0  0  0
  9 14  1  0  0  0  0
  9 15  1  0  0  0  0
M  END
> <PUBCHEM_COMPOUND_CID>
9957

> <PUBCHEM_CONFORMER_RMSD>
0.4

> <PUBCHEM_CONFORMER_DIVERSEORDER>
1

> <PUBCHEM_MMFF94_PARTIAL_CHARGES>
14
1 -0.19
10 0.15
11 0.15
12 0.15
16 0.4
17 0.4
2 -0.9
3 -0.14
4 0.19
5 -0.15
6 0.1
7 -0.15
8 -0.15
9 0.14

> <PUBCHEM_EFFECTIVE_ROTOR_COUNT>
0

> <PUBCHEM_PHARMACOPHORE_FEATURES>
3
1 2 cation
1 2 donor
6 3 4 5 6 7 8 rings

> <PUBCHEM_HEAVY_ATOM_COUNT>
9

> <PUBCHEM_ATOM_DEF_STEREO_COUNT>
0

> <PUBCHEM_ATOM_UDEF_STEREO_COUNT>
0

> <PUBCHEM_BOND_DEF_STEREO_COUNT>
0

> <PUBCHEM_BOND_UDEF_STEREO_COUNT>
0

> <PUBCHEM_ISOTOPIC_ATOM_COUNT>
0

> <PUBCHEM_COMPONENT_COUNT>
1

> <PUBCHEM_CACTVS_TAUTO_COUNT>
1

> <PUBCHEM_CONFORMER_ID>
000026E500000001

> <PUBCHEM_MMFF94_ENERGY>
28.7947

> <PUBCHEM_FEATURE_SELFOVERLAP>
15.223

> <PUBCHEM_SHAPE_FINGERPRINT>
15310529 11 14490457695330736474
16714656 1 18337951186465918766
16945 1 18410856516753576038
18185500 45 18193841435702738551
193761 8 18050286165354504935
21040471 1 18194401327686839840
23402655 69 18265070166489872453
23552423 10 18199743807626419902
2748010 2 18266176312839767918
29004967 10 18342452591396740659
5084963 1 18187079529491529602

> <PUBCHEM_SHAPE_MULTIPOLES>
172.96
3.13
1.66
0.6
0.43
0.2
0
-0.07
0
-0.39
0
-0.01
-0.03
0

> <PUBCHEM_SHAPE_SELFOVERLAP>
359.86

> <PUBCHEM_SHAPE_VOLUME>
100

> <PUBCHEM_COORDINATE_TYPE>
2
5
10

$$$$

