51090881
  -OEChem-06241223002D

 41 44  0     0  0  0  0  0  0999 V2000
    8.4939    2.3341    0.0000 O   0  0  0  0  0  0  0  0  0  0  0  0
    2.0000    0.9680    0.0000 O   0  5  0  0  0  0  0  0  0  0  0  0
    2.8660   -0.5320    0.0000 O   0  0  0  0  0  0  0  0  0  0  0  0
    8.4939    0.6020    0.0000 N   0  0  0  0  0  0  0  0  0  0  0  0
    6.4103    2.2728    0.0000 N   0  0  0  0  0  0  0  0  0  0  0  0
    9.4939   -2.8621    0.0000 N   0  0  0  0  0  0  0  0  0  0  0  0
    2.8660    0.4680    0.0000 N   0  3  0  0  0  0  0  0  0  0  0  0
    9.4939    0.6020    0.0000 C   0  0  0  0  0  0  0  0  0  0  0  0
   10.3600    1.1020    0.0000 C   0  0  0  0  0  0  0  0  0  0  0  0
   10.3600    0.1020    0.0000 C   0  0  0  0  0  0  0  0  0  0  0  0
    7.9939   -0.2640    0.0000 C   0  0  0  0  0  0  0  0  0  0  0  0
    7.9939    1.4680    0.0000 C   0  0  0  0  0  0  0  0  0  0  0  0
    6.9939    1.4680    0.0000 C   0  0  0  0  0  0  0  0  0  0  0  0
    8.4939   -1.1300    0.0000 C   0  0  0  0  0  0  0  0  0  0  0  0
    6.4103    0.6633    0.0000 C   0  0  0  0  0  0  0  0  0  0  0  0
    5.4641    0.9680    0.0000 C   0  0  0  0  0  0  0  0  0  0  0  0
    5.4641    1.9680    0.0000 C   0  0  0  0  0  0  0  0  0  0  0  0
    9.4939   -1.1300    0.0000 C   0  0  0  0  0  0  0  0  0  0  0  0
    7.9939   -1.9961    0.0000 C   0  0  0  0  0  0  0  0  0  0  0  0
    4.5981    0.4680    0.0000 C   0  0  0  0  0  0  0  0  0  0  0  0
    4.5981    2.4680    0.0000 C   0  0  0  0  0  0  0  0  0  0  0  0
    3.7320    0.9680    0.0000 C   0  0  0  0  0  0  0  0  0  0  0  0
    9.9939   -1.9961    0.0000 C   0  0  0  0  0  0  0  0  0  0  0  0
    8.4939   -2.8621    0.0000 C   0  0  0  0  0  0  0  0  0  0  0  0
    3.7320    1.9680    0.0000 C   0  0  0  0  0  0  0  0  0  0  0  0
    9.3335    1.2009    0.0000 H   0  0  0  0  0  0  0  0  0  0  0  0
   10.9705    1.2097    0.0000 H   0  0  0  0  0  0  0  0  0  0  0  0
   10.1479    1.6846    0.0000 H   0  0  0  0  0  0  0  0  0  0  0  0
   10.1479   -0.4806    0.0000 H   0  0  0  0  0  0  0  0  0  0  0  0
   10.9705   -0.0057    0.0000 H   0  0  0  0  0  0  0  0  0  0  0  0
    7.5190    0.1345    0.0000 H   0  0  0  0  0  0  0  0  0  0  0  0
    7.5190   -0.6625    0.0000 H   0  0  0  0  0  0  0  0  0  0  0  0
    6.6029    0.0740    0.0000 H   0  0  0  0  0  0  0  0  0  0  0  0
    6.6029    2.8621    0.0000 H   0  0  0  0  0  0  0  0  0  0  0  0
    9.8039   -0.5931    0.0000 H   0  0  0  0  0  0  0  0  0  0  0  0
    7.3739   -1.9961    0.0000 H   0  0  0  0  0  0  0  0  0  0  0  0
    4.5981   -0.1520    0.0000 H   0  0  0  0  0  0  0  0  0  0  0  0
    4.5981    3.0880    0.0000 H   0  0  0  0  0  0  0  0  0  0  0  0
    3.1951    2.2780    0.0000 H   0  0  0  0  0  0  0  0  0  0  0  0
   10.6139   -1.9961    0.0000 H   0  0  0  0  0  0  0  0  0  0  0  0
    8.1839   -3.3990    0.0000 H   0  0  0  0  0  0  0  0  0  0  0  0
  1 12  2  0  0  0  0
  2  7  1  0  0  0  0
  3  7  2  0  0  0  0
  4  8  1  0  0  0  0
  4 11  1  0  0  0  0
  4 12  1  0  0  0  0
  5 13  1  0  0  0  0
  5 17  1  0  0  0  0
  5 34  1  0  0  0  0
  6 23  2  0  0  0  0
  6 24  1  0  0  0  0
  7 22  1  0  0  0  0
  8  9  1  0  0  0  0
  8 10  1  0  0  0  0
  8 26  1  0  0  0  0
  9 10  1  0  0  0  0
  9 27  1  0  0  0  0
  9 28  1  0  0  0  0
 10 29  1  0  0  0  0
 10 30  1  0  0  0  0
 11 14  1  0  0  0  0
 11 31  1  0  0  0  0
 11 32  1  0  0  0  0
 12 13  1  0  0  0  0
 13 15  2  0  0  0  0
 14 18  2  0  0  0  0
 14 19  1  0  0  0  0
 15 16  1  0  0  0  0
 15 33  1  0  0  0  0
 16 17  2  0  0  0  0
 16 20  1  0  0  0  0
 17 21  1  0  0  0  0
 18 23  1  0  0  0  0
 18 35  1  0  0  0  0
 19 24  2  0  0  0  0
 19 36  1  0  0  0  0
 20 22  2  0  0  0  0
 20 37  1  0  0  0  0
 21 25  2  0  0  0  0
 21 38  1  0  0  0  0
 22 25  1  0  0  0  0
 23 40  1  0  0  0  0
 24 41  1  0  0  0  0
 25 39  1  0  0  0  0
M  CHG  2   2  -1   7   1
M  END
> <PUBCHEM_COMPOUND_CID>
51090881

> <PUBCHEM_COMPOUND_CANONICALIZED>
1

> <PUBCHEM_CACTVS_COMPLEXITY>
513

> <PUBCHEM_CACTVS_HBOND_ACCEPTOR>
4

> <PUBCHEM_CACTVS_HBOND_DONOR>
1

> <PUBCHEM_CACTVS_ROTATABLE_BOND>
4

> <PUBCHEM_CACTVS_SUBSKEYS>
AAADceB7sAAAAAAAAAAAAAAAGAAAAWAAAAA8QAAAAAAAAFgB/AAAHgAUAAAADCjBngQ8wPPZ0ACpAzV3VwCCgCA3AiAo2SG4ZNoIYPLAlbGUIQhglgDIyYcYiYCeAACAQAACAAAAAQCAAAQAAAAAAAAAAA==

> <PUBCHEM_IUPAC_OPENEYE_NAME>
N-cyclopropyl-5-nitro-N-(4-pyridylmethyl)-1H-indole-2-carboxamide

> <PUBCHEM_IUPAC_CAS_NAME>
N-cyclopropyl-5-nitro-N-(pyridin-4-ylmethyl)-1H-indole-2-carboxamide

> <PUBCHEM_IUPAC_NAME>
N-cyclopropyl-5-nitro-N-(pyridin-4-ylmethyl)-1H-indole-2-carboxamide

> <PUBCHEM_IUPAC_SYSTEMATIC_NAME>
N-cyclopropyl-5-nitro-N-(pyridin-4-ylmethyl)-1H-indole-2-carboxamide

> <PUBCHEM_IUPAC_TRADITIONAL_NAME>
N-cyclopropyl-5-nitro-N-(4-pyridylmethyl)-1H-indole-2-carboxamide

> <PUBCHEM_IUPAC_INCHI>
InChI=1S/C18H16N4O3/c23-18(21(14-1-2-14)11-12-5-7-19-8-6-12)17-10-13-9-15(22(24)25)3-4-16(13)20-17/h3-10,14,20H,1-2,11H2

> <PUBCHEM_IUPAC_INCHIKEY>
ZWZKJDPVZKECHF-UHFFFAOYSA-N

> <PUBCHEM_XLOGP3_AA>
2.6

> <PUBCHEM_EXACT_MASS>
336.12224

> <PUBCHEM_MOLECULAR_FORMULA>
C18H16N4O3

> <PUBCHEM_MOLECULAR_WEIGHT>
336.34464

> <PUBCHEM_OPENEYE_CAN_SMILES>
C1CC1N(CC2=CC=NC=C2)C(=O)C3=CC4=C(N3)C=CC(=C4)[N+](=O)[O-]

> <PUBCHEM_OPENEYE_ISO_SMILES>
C1CC1N(CC2=CC=NC=C2)C(=O)C3=CC4=C(N3)C=CC(=C4)[N+](=O)[O-]

> <PUBCHEM_CACTVS_TPSA>
94.8

> <PUBCHEM_MONOISOTOPIC_WEIGHT>
336.12224

> <PUBCHEM_TOTAL_CHARGE>
0

> <PUBCHEM_HEAVY_ATOM_COUNT>
25

> <PUBCHEM_ATOM_DEF_STEREO_COUNT>
0

> <PUBCHEM_ATOM_UDEF_STEREO_COUNT>
0

> <PUBCHEM_BOND_DEF_STEREO_COUNT>
0

> <PUBCHEM_BOND_UDEF_STEREO_COUNT>
0

> <PUBCHEM_ISOTOPIC_ATOM_COUNT>
0

> <PUBCHEM_COMPONENT_COUNT>
1

> <PUBCHEM_CACTVS_TAUTO_COUNT>
5

> <PUBCHEM_COORDINATE_TYPE>
1
5
255

> <PUBCHEM_BONDANNOTATIONS>
13  15  8
14  18  8
14  19  8
15  16  8
16  17  8
16  20  8
17  21  8
18  23  8
19  24  8
20  22  8
21  25  8
22  25  8
5  13  8
5  17  8
6  23  8
6  24  8

$$$$

