13397
  -OEChem-06261209393D

 16 16  0     0  0  0  0  0  0999 V2000
   -3.4561    0.0001    0.2726 Cl  0  0  0  0  0  0  0  0  0  0  0  0
    3.1342    0.0005    0.8167 O   0  0  0  0  0  0  0  0  0  0  0  0
    1.0212   -0.0002   -0.2748 C   0  0  0  0  0  0  0  0  0  0  0  0
    2.5016   -0.0003   -0.4571 C   0  0  0  0  0  0  0  0  0  0  0  0
    0.3290   -1.2082   -0.1899 C   0  0  0  0  0  0  0  0  0  0  0  0
    0.3290    1.2079   -0.1903 C   0  0  0  0  0  0  0  0  0  0  0  0
   -1.0555   -1.2080   -0.0205 C   0  0  0  0  0  0  0  0  0  0  0  0
   -1.0556    1.2081   -0.0208 C   0  0  0  0  0  0  0  0  0  0  0  0
   -1.7479    0.0000    0.0641 C   0  0  0  0  0  0  0  0  0  0  0  0
    2.8367   -0.8808   -1.0160 H   0  0  0  0  0  0  0  0  0  0  0  0
    2.8362    0.8820   -1.0128 H   0  0  0  0  0  0  0  0  0  0  0  0
    0.8574   -2.1557   -0.2528 H   0  0  0  0  0  0  0  0  0  0  0  0
    0.8575    2.1555   -0.2535 H   0  0  0  0  0  0  0  0  0  0  0  0
   -1.5819   -2.1569    0.0443 H   0  0  0  0  0  0  0  0  0  0  0  0
   -1.5818    2.1570    0.0438 H   0  0  0  0  0  0  0  0  0  0  0  0
    2.7339   -0.7023    1.3566 H   0  0  0  0  0  0  0  0  0  0  0  0
  1  9  1  0  0  0  0
  2  4  1  0  0  0  0
  2 16  1  0  0  0  0
  3  4  1  0  0  0  0
  3  5  2  0  0  0  0
  3  6  1  0  0  0  0
  4 10  1  0  0  0  0
  4 11  1  0  0  0  0
  5  7  1  0  0  0  0
  5 12  1  0  0  0  0
  6  8  2  0  0  0  0
  6 13  1  0  0  0  0
  7  9  2  0  0  0  0
  7 14  1  0  0  0  0
  8  9  1  0  0  0  0
  8 15  1  0  0  0  0
M  END
> <PUBCHEM_COMPOUND_CID>
13397

> <PUBCHEM_CONFORMER_RMSD>
0.4

> <PUBCHEM_CONFORMER_DIVERSEORDER>
1

> <PUBCHEM_MMFF94_PARTIAL_CHARGES>
14
1 -0.18
12 0.15
13 0.15
14 0.15
15 0.15
16 0.4
2 -0.68
3 -0.14
4 0.42
5 -0.15
6 -0.15
7 -0.15
8 -0.15
9 0.18

> <PUBCHEM_EFFECTIVE_ROTOR_COUNT>
1

> <PUBCHEM_PHARMACOPHORE_FEATURES>
3
1 2 acceptor
1 2 donor
6 3 5 6 7 8 9 rings

> <PUBCHEM_HEAVY_ATOM_COUNT>
9

> <PUBCHEM_ATOM_DEF_STEREO_COUNT>
0

> <PUBCHEM_ATOM_UDEF_STEREO_COUNT>
0

> <PUBCHEM_BOND_DEF_STEREO_COUNT>
0

> <PUBCHEM_BOND_UDEF_STEREO_COUNT>
0

> <PUBCHEM_ISOTOPIC_ATOM_COUNT>
0

> <PUBCHEM_COMPONENT_COUNT>
1

> <PUBCHEM_CACTVS_TAUTO_COUNT>
1

> <PUBCHEM_CONFORMER_ID>
0000345500000001

> <PUBCHEM_MMFF94_ENERGY>
19.5448

> <PUBCHEM_FEATURE_SELFOVERLAP>
15.223

> <PUBCHEM_SHAPE_FINGERPRINT>
10219947 1 18411414016577965641
10857977 72 18410295795856422633
11062470 55 16225763021569577969
14325111 11 18410008866329339613
15310529 11 16702303433900124228
16945 1 18410851062229343917
193761 8 17618782900227333077
20645464 45 17894918416840712922
21040471 1 18338509867163747756
23235685 24 18409448093992844237
23402655 69 18193572275489601045
23552423 10 17841427029677527924
2748010 2 18122901203387405783
29004967 10 18342727533801845633
369184 2 18335991917001241210
5084963 1 18261945349246496628

> <PUBCHEM_SHAPE_MULTIPOLES>
181.22
4.33
1.27
0.71
0.26
0
0.03
0
0.75
0.2
-0.07
-0.21
0
0

> <PUBCHEM_SHAPE_SELFOVERLAP>
363.473

> <PUBCHEM_SHAPE_VOLUME>
108.2

> <PUBCHEM_COORDINATE_TYPE>
2
5
10

$$$$

