184884
  -OEChem-07051213093D

 31 34  0     0  0  0  0  0  0999 V2000
   -5.4689    2.1820   -0.0197 Br  0  0  0  0  0  0  0  0  0  0  0  0
   -0.2778    0.8239    0.0275 N   0  0  0  0  0  0  0  0  0  0  0  0
    2.4965    1.7176    0.0883 N   0  0  0  0  0  0  0  0  0  0  0  0
    2.2133   -1.8962    0.0259 N   0  0  0  0  0  0  0  0  0  0  0  0
    4.2711    0.1309    0.0743 C   0  0  0  0  0  0  0  0  0  0  0  0
    0.4104   -0.3648    0.0212 C   0  0  0  0  0  0  0  0  0  0  0  0
    2.8005    0.4533    0.0599 C   0  0  0  0  0  0  0  0  0  0  0  0
    4.8208    1.4659   -0.3703 C   0  0  0  0  0  0  0  0  0  0  0  0
    1.7764   -0.6159    0.0351 C   0  0  0  0  0  0  0  0  0  0  0  0
   -0.5325   -1.3918   -0.0024 C   0  0  0  0  0  0  0  0  0  0  0  0
    3.7811    2.4404    0.1464 C   0  0  0  0  0  0  0  0  0  0  0  0
   -1.8264   -0.7812   -0.0109 C   0  0  0  0  0  0  0  0  0  0  0  0
   -1.6348    0.6010    0.0087 C   0  0  0  0  0  0  0  0  0  0  0  0
   -0.0749   -2.7187   -0.0124 C   0  0  0  0  0  0  0  0  0  0  0  0
   -3.1463   -1.2789   -0.0332 C   0  0  0  0  0  0  0  0  0  0  0  0
   -2.6970    1.5124    0.0076 C   0  0  0  0  0  0  0  0  0  0  0  0
    1.3021   -2.8950    0.0028 C   0  0  0  0  0  0  0  0  0  0  0  0
   -4.2186   -0.3797   -0.0345 C   0  0  0  0  0  0  0  0  0  0  0  0
   -3.9949    0.9948   -0.0142 C   0  0  0  0  0  0  0  0  0  0  0  0
    4.5753   -0.1186    1.0953 H   0  0  0  0  0  0  0  0  0  0  0  0
    4.5349   -0.6772   -0.6110 H   0  0  0  0  0  0  0  0  0  0  0  0
    5.8241    1.6682    0.0144 H   0  0  0  0  0  0  0  0  0  0  0  0
    4.8609    1.5078   -1.4657 H   0  0  0  0  0  0  0  0  0  0  0  0
    3.9851    2.7375    1.1812 H   0  0  0  0  0  0  0  0  0  0  0  0
    3.7426    3.3415   -0.4732 H   0  0  0  0  0  0  0  0  0  0  0  0
    0.1519    1.7386    0.0440 H   0  0  0  0  0  0  0  0  0  0  0  0
   -0.7519   -3.5651   -0.0307 H   0  0  0  0  0  0  0  0  0  0  0  0
   -3.3367   -2.3484   -0.0490 H   0  0  0  0  0  0  0  0  0  0  0  0
   -2.5082    2.5815    0.0230 H   0  0  0  0  0  0  0  0  0  0  0  0
    1.7246   -3.8953   -0.0035 H   0  0  0  0  0  0  0  0  0  0  0  0
   -5.2308   -0.7774   -0.0521 H   0  0  0  0  0  0  0  0  0  0  0  0
  1 19  1  0  0  0  0
  2  6  1  0  0  0  0
  2 13  1  0  0  0  0
  2 26  1  0  0  0  0
  3  7  2  0  0  0  0
  3 11  1  0  0  0  0
  4  9  2  0  0  0  0
  4 17  1  0  0  0  0
  5  7  1  0  0  0  0
  5  8  1  0  0  0  0
  5 20  1  0  0  0  0
  5 21  1  0  0  0  0
  6  9  1  0  0  0  0
  6 10  2  0  0  0  0
  7  9  1  0  0  0  0
  8 11  1  0  0  0  0
  8 22  1  0  0  0  0
  8 23  1  0  0  0  0
 10 12  1  0  0  0  0
 10 14  1  0  0  0  0
 11 24  1  0  0  0  0
 11 25  1  0  0  0  0
 12 13  2  0  0  0  0
 12 15  1  0  0  0  0
 13 16  1  0  0  0  0
 14 17  2  0  0  0  0
 14 27  1  0  0  0  0
 15 18  2  0  0  0  0
 15 28  1  0  0  0  0
 16 19  2  0  0  0  0
 16 29  1  0  0  0  0
 17 30  1  0  0  0  0
 18 19  1  0  0  0  0
 18 31  1  0  0  0  0
M  END
> <PUBCHEM_COMPOUND_CID>
184884

> <PUBCHEM_CONFORMER_RMSD>
0.6

> <PUBCHEM_CONFORMER_DIVERSEORDER>
1
3
2

> <PUBCHEM_MMFF94_PARTIAL_CHARGES>
22
1 -0.11
11 0.25
13 -0.15
14 -0.15
15 -0.15
16 -0.15
17 0.16
18 -0.15
19 0.11
2 0.03
26 0.27
27 0.15
28 0.15
29 0.15
3 -0.7
30 0.15
31 0.15
4 -0.62
5 0.06
6 -0.15
7 0.3
9 0.4

> <PUBCHEM_EFFECTIVE_ROTOR_COUNT>
1.6

> <PUBCHEM_PHARMACOPHORE_FEATURES>
9
1 1 hydrophobe
1 2 cation
1 2 donor
1 3 acceptor
1 4 acceptor
5 2 6 10 12 13 rings
5 3 5 7 8 11 rings
6 12 13 15 16 18 19 rings
6 4 6 9 10 14 17 rings

> <PUBCHEM_HEAVY_ATOM_COUNT>
19

> <PUBCHEM_ATOM_DEF_STEREO_COUNT>
0

> <PUBCHEM_ATOM_UDEF_STEREO_COUNT>
0

> <PUBCHEM_BOND_DEF_STEREO_COUNT>
0

> <PUBCHEM_BOND_UDEF_STEREO_COUNT>
0

> <PUBCHEM_ISOTOPIC_ATOM_COUNT>
0

> <PUBCHEM_COMPONENT_COUNT>
1

> <PUBCHEM_CACTVS_TAUTO_COUNT>
3

> <PUBCHEM_CONFORMER_ID>
0002D23400000001

> <PUBCHEM_MMFF94_ENERGY>
39.5225

> <PUBCHEM_FEATURE_SELFOVERLAP>
45.855

> <PUBCHEM_SHAPE_FINGERPRINT>
10411042 1 17401767922356879243
10498660 4 18409728460794568197
10608611 8 18269275823618519445
10967382 1 18410575119028124538
1100329 8 17328018184097010632
12173636 292 18193843630794803118
12390115 104 18263626429542960489
12403259 327 16200429148189710432
12403259 415 18261672563105086400
12592029 89 18412825793929975210
12644460 14 18272086166527790674
12730499 353 18339915004691093307
12769317 202 18337121158319462657
12788726 201 17052721982099077762
13140716 1 18342456001754007963
13583140 156 16845025497941594963
138480 1 17906172102797905666
14123255 52 18410294670812367688
14528608 73 18408045108845611461
14787075 74 18188772717595952931
14790565 3 18339354163324794061
15042514 8 17908418061176649626
15196674 1 18411138030321532934
15342168 16 18343579633717560973
15536298 74 18335138738790954318
17834072 32 18411418371648871796
18186145 218 18187916305032166242
19591789 44 18192994811918026227
19784866 170 18343015606049010257
19784866 9 18409732893205638064
20157964 124 18267308810687029653
204376 136 18411979130968096322
20510252 161 18190454948552742586
20645477 70 18189055468241377847
21452121 103 18340492277970108579
21524375 3 18413109433607060850
22950370 63 9223240671196245320
23227448 37 18191305979221671092
23366157 5 18058446667958321850
23402539 116 18261398806263481044
23402655 69 18261114084069941909
23558518 356 17767689361035649754
23559900 14 18263930010605716722
25 1 18409733962842456902
25147074 1 18263944248881180431
3091708 16 9190719264662233874
335352 9 18410574033108397710
34934 24 18409733993313299501
350125 39 18340769359680610940
3545911 37 18411979187230250909
394222 165 18343590650435386562
474 4 18411418448947441505
474229 33 18339360734803786659
5104073 3 18271521005198799747
6034566 193 18055044606930310885
6138700 20 18337666551280034486
6333272 397 18411699846656841234
633830 44 18335140899043206766
7364860 26 18264768938156953958
7808743 9 18051415072345590584
8272917 22 18263924500241329591
84936 182 18260832630562884288
9709674 26 18410570730025878271
9981440 41 18340772541813943906

> <PUBCHEM_SHAPE_MULTIPOLES>
382.01
9.91
2.99
0.62
3.16
0.89
0
-8.19
-0.29
-0.95
0.01
0.02
-0.03
-0.05

> <PUBCHEM_SHAPE_SELFOVERLAP>
846.733

> <PUBCHEM_SHAPE_VOLUME>
210.5

> <PUBCHEM_COORDINATE_TYPE>
2
5
10

$$$$

