6080
  -OEChem-06261201053D

 41 41  0     1  0  0  0  0  0999 V2000
   -0.9130    0.0886   -2.1066 O   0  0  0  0  0  0  0  0  0  0  0  0
   -0.0839   -2.0053   -0.2032 O   0  0  0  0  0  0  0  0  0  0  0  0
    4.0758    1.5974    0.1314 O   0  0  0  0  0  0  0  0  0  0  0  0
   -3.0287    0.8847   -0.3636 N   0  0  0  0  0  0  0  0  0  0  0  0
   -1.7399    0.4191    0.1636 C   0  0  1  0  0  0  0  0  0  0  0  0
   -0.6211    0.7228   -0.8583 C   0  0  1  0  0  0  0  0  0  0  0  0
   -4.1066    0.5372    0.5458 C   0  0  0  0  0  0  0  0  0  0  0  0
    0.7449    0.2321   -0.4281 C   0  0  0  0  0  0  0  0  0  0  0  0
   -1.5060    1.1038    1.5115 C   0  0  0  0  0  0  0  0  0  0  0  0
   -4.1801   -0.9767    0.7250 C   0  0  0  0  0  0  0  0  0  0  0  0
   -5.4228    1.0899    0.0083 C   0  0  0  0  0  0  0  0  0  0  0  0
    0.9358   -1.1051   -0.1249 C   0  0  0  0  0  0  0  0  0  0  0  0
    1.7813    1.1471   -0.3477 C   0  0  0  0  0  0  0  0  0  0  0  0
    3.0461    0.7114    0.0477 C   0  0  0  0  0  0  0  0  0  0  0  0
    2.2007   -1.5407    0.2703 C   0  0  0  0  0  0  0  0  0  0  0  0
    3.2558   -0.6323    0.3567 C   0  0  0  0  0  0  0  0  0  0  0  0
    0.2192   -3.3583    0.1306 C   0  0  0  0  0  0  0  0  0  0  0  0
    5.3424    1.0841    0.5415 C   0  0  0  0  0  0  0  0  0  0  0  0
   -1.7873   -0.6572    0.3077 H   0  0  0  0  0  0  0  0  0  0  0  0
   -0.5864    1.8027   -1.0533 H   0  0  0  0  0  0  0  0  0  0  0  0
   -3.0017    1.8944   -0.5045 H   0  0  0  0  0  0  0  0  0  0  0  0
   -3.9948    1.0095    1.5268 H   0  0  0  0  0  0  0  0  0  0  0  0
   -0.4775    0.9535    1.8568 H   0  0  0  0  0  0  0  0  0  0  0  0
   -1.6653    2.1870    1.4548 H   0  0  0  0  0  0  0  0  0  0  0  0
   -2.1327    0.6966    2.3108 H   0  0  0  0  0  0  0  0  0  0  0  0
   -4.1276   -1.5050   -0.2342 H   0  0  0  0  0  0  0  0  0  0  0  0
   -5.1321   -1.2571    1.1915 H   0  0  0  0  0  0  0  0  0  0  0  0
   -3.3983   -1.3646    1.3853 H   0  0  0  0  0  0  0  0  0  0  0  0
   -5.3796    2.1797   -0.0988 H   0  0  0  0  0  0  0  0  0  0  0  0
   -5.6664    0.6630   -0.9713 H   0  0  0  0  0  0  0  0  0  0  0  0
   -6.2497    0.8581    0.6886 H   0  0  0  0  0  0  0  0  0  0  0  0
    1.6260    2.1957   -0.5862 H   0  0  0  0  0  0  0  0  0  0  0  0
   -1.8004    0.3790   -2.3781 H   0  0  0  0  0  0  0  0  0  0  0  0
    2.4372   -2.5680    0.5255 H   0  0  0  0  0  0  0  0  0  0  0  0
    4.2122   -1.0369    0.6702 H   0  0  0  0  0  0  0  0  0  0  0  0
    0.5232   -3.4574    1.1782 H   0  0  0  0  0  0  0  0  0  0  0  0
    0.9510   -3.7907   -0.5602 H   0  0  0  0  0  0  0  0  0  0  0  0
   -0.7056   -3.9329    0.0134 H   0  0  0  0  0  0  0  0  0  0  0  0
    6.0436    1.9250    0.5528 H   0  0  0  0  0  0  0  0  0  0  0  0
    5.7316    0.3532   -0.1754 H   0  0  0  0  0  0  0  0  0  0  0  0
    5.3043    0.6861    1.5612 H   0  0  0  0  0  0  0  0  0  0  0  0
  1  6  1  0  0  0  0
  1 33  1  0  0  0  0
  2 12  1  0  0  0  0
  2 17  1  0  0  0  0
  3 14  1  0  0  0  0
  3 18  1  0  0  0  0
  4  5  1  0  0  0  0
  4  7  1  0  0  0  0
  4 21  1  0  0  0  0
  5  6  1  0  0  0  0
  5  9  1  0  0  0  0
  5 19  1  0  0  0  0
  6  8  1  0  0  0  0
  6 20  1  0  0  0  0
  7 10  1  0  0  0  0
  7 11  1  0  0  0  0
  7 22  1  0  0  0  0
  8 12  2  0  0  0  0
  8 13  1  0  0  0  0
  9 23  1  0  0  0  0
  9 24  1  0  0  0  0
  9 25  1  0  0  0  0
 10 26  1  0  0  0  0
 10 27  1  0  0  0  0
 10 28  1  0  0  0  0
 11 29  1  0  0  0  0
 11 30  1  0  0  0  0
 11 31  1  0  0  0  0
 12 15  1  0  0  0  0
 13 14  2  0  0  0  0
 13 32  1  0  0  0  0
 14 16  1  0  0  0  0
 15 16  2  0  0  0  0
 15 34  1  0  0  0  0
 16 35  1  0  0  0  0
 17 36  1  0  0  0  0
 17 37  1  0  0  0  0
 17 38  1  0  0  0  0
 18 39  1  0  0  0  0
 18 40  1  0  0  0  0
 18 41  1  0  0  0  0
M  END
> <PUBCHEM_COMPOUND_CID>
6080

> <PUBCHEM_CONFORMER_RMSD>
0.8

> <PUBCHEM_CONFORMER_DIVERSEORDER>
2
36
18
43
26
30
40
27
6
16
37
41
31
29
42
39
33
15
28
5
38
7
23
20
13
25
1
32
19
24
8
34
22
3
11
10
12
17
4
21
35
14
9

> <PUBCHEM_MMFF94_PARTIAL_CHARGES>
20
1 -0.68
12 0.08
13 -0.15
14 0.08
15 -0.15
16 -0.15
17 0.28
18 0.28
2 -0.36
21 0.36
3 -0.36
32 0.15
33 0.4
34 0.15
35 0.15
4 -0.9
5 0.27
6 0.42
7 0.27
8 -0.14

> <PUBCHEM_EFFECTIVE_ROTOR_COUNT>
6

> <PUBCHEM_PHARMACOPHORE_FEATURES>
8
1 1 acceptor
1 1 donor
1 2 acceptor
1 3 acceptor
1 4 cation
1 4 donor
3 7 10 11 hydrophobe
6 8 12 13 14 15 16 rings

> <PUBCHEM_HEAVY_ATOM_COUNT>
18

> <PUBCHEM_ATOM_DEF_STEREO_COUNT>
0

> <PUBCHEM_ATOM_UDEF_STEREO_COUNT>
2

> <PUBCHEM_BOND_DEF_STEREO_COUNT>
0

> <PUBCHEM_BOND_UDEF_STEREO_COUNT>
0

> <PUBCHEM_ISOTOPIC_ATOM_COUNT>
0

> <PUBCHEM_COMPONENT_COUNT>
1

> <PUBCHEM_CACTVS_TAUTO_COUNT>
1

> <PUBCHEM_CONFORMER_ID>
000017C000000002

> <PUBCHEM_MMFF94_ENERGY>
58.324

> <PUBCHEM_FEATURE_SELFOVERLAP>
40.599

> <PUBCHEM_SHAPE_FINGERPRINT>
10493431 412 18339364063471597056
11132069 177 18131347510015087107
11370993 70 18341894108610240379
12119455 92 18202289090981624212
12236239 1 17894353297517623373
12251169 10 18059855039010069452
12596602 18 17677311910789033419
14341114 328 18040428910926183475
14787075 74 18114747010544733971
14943859 89 17022901229329735996
15196674 1 18411698785937426531
15207287 21 17418370298737529443
15219456 202 17988088905774234933
15295992 7 17677903323105486192
15309172 13 18341897398307009212
15342168 16 18341891840741239004
15375358 24 18201997768246076307
16945 1 18122337149432346694
200 152 18333454257476705337
204376 136 18410572868512721218
20645477 70 18269838769456548815
21524375 3 18114179744175579768
22079108 93 18261116214405382264
22224240 67 18410859828479173697
22854114 59 18413386540227452641
23402539 116 18113905922566944100
23532345 42 17346589777308524583
23557571 272 14853327245850193774
23559900 14 18340487892977349907
25147074 1 17771067099643271364
26918003 58 18342175583470900001
2748010 2 17985001524974598868
296302 2 18335417989443909137
33824 294 18342174518060664547
4340502 62 18409444778541816411
474 4 18260830371716275208
474229 33 18338234864924655443
5104073 3 18271237335435902041
5486654 2 18335697204824749345
633830 44 18113893909543404429
81228 2 17766577758737799434
8272917 22 18263921210549529893

> <PUBCHEM_SHAPE_MULTIPOLES>
347.84
9.28
2.25
1.07
3
2.32
-0.22
-4.7
2.19
-0.82
0.18
0.44
-0.19
0.16

> <PUBCHEM_SHAPE_SELFOVERLAP>
702.839

> <PUBCHEM_SHAPE_VOLUME>
205.6

> <PUBCHEM_COORDINATE_TYPE>
2
5
10

$$$$

