251431
  -OEChem-07051213063D

 29 30  0     1  0  0  0  0  0999 V2000
   -0.5243   -1.3972   -0.3246 N   0  0  3  0  0  0  0  0  0  0  0  0
   -1.8722    0.4026   -1.1119 N   0  0  0  0  0  0  0  0  0  0  0  0
    0.5810   -1.1151   -1.2050 C   0  0  0  0  0  0  0  0  0  0  0  0
    1.6428   -0.3056   -0.5403 C   0  0  0  0  0  0  0  0  0  0  0  0
   -1.5536   -0.4661   -0.1174 C   0  0  0  0  0  0  0  0  0  0  0  0
   -0.5693   -2.6954    0.3532 C   0  0  0  0  0  0  0  0  0  0  0  0
    1.5919    1.0876   -0.5907 C   0  0  0  0  0  0  0  0  0  0  0  0
    2.6865   -0.9415    0.1322 C   0  0  0  0  0  0  0  0  0  0  0  0
   -2.2038   -0.4830    1.1131 C   0  0  0  0  0  0  0  0  0  0  0  0
    2.5847    1.8447    0.0310 C   0  0  0  0  0  0  0  0  0  0  0  0
    3.6793   -0.1842    0.7539 C   0  0  0  0  0  0  0  0  0  0  0  0
    3.6284    1.2090    0.7033 C   0  0  0  0  0  0  0  0  0  0  0  0
   -3.2267    0.4329    1.3330 C   0  0  0  0  0  0  0  0  0  0  0  0
   -2.8715    1.2779   -0.8616 C   0  0  0  0  0  0  0  0  0  0  0  0
   -3.5731    1.3335    0.3319 C   0  0  0  0  0  0  0  0  0  0  0  0
    0.2423   -0.6090   -2.1192 H   0  0  0  0  0  0  0  0  0  0  0  0
    1.0247   -2.0473   -1.5803 H   0  0  0  0  0  0  0  0  0  0  0  0
   -1.5785   -3.1221    0.3313 H   0  0  0  0  0  0  0  0  0  0  0  0
   -0.2344   -2.6012    1.3915 H   0  0  0  0  0  0  0  0  0  0  0  0
    0.0901   -3.4215   -0.1351 H   0  0  0  0  0  0  0  0  0  0  0  0
    0.7884    1.5981   -1.1143 H   0  0  0  0  0  0  0  0  0  0  0  0
    2.7370   -2.0260    0.1806 H   0  0  0  0  0  0  0  0  0  0  0  0
   -1.9407   -1.1642    1.9148 H   0  0  0  0  0  0  0  0  0  0  0  0
    2.5457    2.9294   -0.0092 H   0  0  0  0  0  0  0  0  0  0  0  0
    4.4918   -0.6791    1.2780 H   0  0  0  0  0  0  0  0  0  0  0  0
    4.4015    1.7985    1.1874 H   0  0  0  0  0  0  0  0  0  0  0  0
   -3.7507    0.4478    2.2840 H   0  0  0  0  0  0  0  0  0  0  0  0
   -3.1024    1.9591   -1.6739 H   0  0  0  0  0  0  0  0  0  0  0  0
   -4.3663    2.0569    0.4816 H   0  0  0  0  0  0  0  0  0  0  0  0
  1  3  1  0  0  0  0
  1  5  1  0  0  0  0
  1  6  1  0  0  0  0
  2  5  1  0  0  0  0
  2 14  2  0  0  0  0
  3  4  1  0  0  0  0
  3 16  1  0  0  0  0
  3 17  1  0  0  0  0
  4  7  2  0  0  0  0
  4  8  1  0  0  0  0
  5  9  2  0  0  0  0
  6 18  1  0  0  0  0
  6 19  1  0  0  0  0
  6 20  1  0  0  0  0
  7 10  1  0  0  0  0
  7 21  1  0  0  0  0
  8 11  2  0  0  0  0
  8 22  1  0  0  0  0
  9 13  1  0  0  0  0
  9 23  1  0  0  0  0
 10 12  2  0  0  0  0
 10 24  1  0  0  0  0
 11 12  1  0  0  0  0
 11 25  1  0  0  0  0
 12 26  1  0  0  0  0
 13 15  2  0  0  0  0
 13 27  1  0  0  0  0
 14 15  1  0  0  0  0
 14 28  1  0  0  0  0
 15 29  1  0  0  0  0
M  END
> <PUBCHEM_COMPOUND_CID>
251431

> <PUBCHEM_CONFORMER_RMSD>
0.6

> <PUBCHEM_CONFORMER_DIVERSEORDER>
1
28
38
12
19
9
18
14
25
26
24
13
15
29
3
20
21
16
4
11
37
10
7
36
5
39
27
34
8
30
32
23
35
22
31
2
33
6
17

> <PUBCHEM_MMFF94_PARTIAL_CHARGES>
24
1 -0.84
10 -0.15
11 -0.15
12 -0.15
13 -0.15
14 0.16
15 -0.15
2 -0.62
21 0.15
22 0.15
23 0.15
24 0.15
25 0.15
26 0.15
27 0.15
28 0.15
29 0.15
3 0.51
4 -0.14
5 0.41
6 0.37
7 -0.15
8 -0.15
9 -0.15

> <PUBCHEM_EFFECTIVE_ROTOR_COUNT>
3

> <PUBCHEM_PHARMACOPHORE_FEATURES>
4
1 1 cation
1 2 acceptor
6 2 5 9 13 14 15 rings
6 4 7 8 10 11 12 rings

> <PUBCHEM_HEAVY_ATOM_COUNT>
15

> <PUBCHEM_ATOM_DEF_STEREO_COUNT>
0

> <PUBCHEM_ATOM_UDEF_STEREO_COUNT>
0

> <PUBCHEM_BOND_DEF_STEREO_COUNT>
0

> <PUBCHEM_BOND_UDEF_STEREO_COUNT>
0

> <PUBCHEM_ISOTOPIC_ATOM_COUNT>
0

> <PUBCHEM_COMPONENT_COUNT>
1

> <PUBCHEM_CACTVS_TAUTO_COUNT>
1

> <PUBCHEM_CONFORMER_ID>
0003D62700000001

> <PUBCHEM_MMFF94_ENERGY>
53.4413

> <PUBCHEM_FEATURE_SELFOVERLAP>
20.297

> <PUBCHEM_SHAPE_FINGERPRINT>
10618630 7 10519988166445375400
11127187 94 7637405116427680121
11615756 56 18339363071076007253
11640471 11 17167865295910783205
12077114 3 18202572790714562069
12251169 10 18271805675077309284
12382932 28 18410009897227141640
12696612 119 18201430325192711980
12824470 246 14044020696146271433
12892183 10 17489870448891157160
13764800 53 17823682093031669418
14178342 30 18198074573340817610
15239191 94 13110965331462437584
15276787 5 17418097641196795384
15653759 3 17704351091073153304
15775835 57 17749111101391151425
16945 1 18261107538597844182
18186145 218 18114736131023308054
18219364 16 18412829118144919565
18981168 100 17461128046783730326
19049666 15 17699010904936272973
19422 9 12247677218461879878
20281407 28 11167942450363000830
20361792 2 12103843432290411211
20871999 31 7276836757988217731
21524375 3 18261115162143734423
21713013 43 7493283343898233209
21731228 192 18411980256281520803
21731516 1 12679466369634039638
22169311 14 17846498153377390912
23402539 116 18264783056041646815
23419403 2 16408193105750039831
23557571 272 13912619237920135395
27216 239 18339923693157050425
305870 269 18340490074699676667
351380 180 18342746247111796581
474 4 18114460149478580593
6333272 397 18409164407361326699
7097593 13 18059583455743909970
81228 2 18053090727607378643
83771 10 10375865299068214701
90316 7 16415474991383480741
94968 8 10519691281057694832

> <PUBCHEM_SHAPE_MULTIPOLES>
298.73
6.67
2.07
1.17
0.67
0.76
-0.03
-3.28
-1.98
0.07
-0.02
-0.47
-0.02
0.32

> <PUBCHEM_SHAPE_SELFOVERLAP>
632.315

> <PUBCHEM_SHAPE_VOLUME>
165.9

> <PUBCHEM_COORDINATE_TYPE>
2
5
10

$$$$

