46173789
  -OEChem-07051213023D

 59 61  0     1  0  0  0  0  0999 V2000
   -0.3008    3.6218    0.5014 P   0  0  2  0  0  0  0  0  0  0  0  0
   -2.4498    1.9104    1.5549 P   0  0  1  0  0  0  0  0  0  0  0  0
    3.2222    1.2718   -0.3190 O   0  0  0  0  0  0  0  0  0  0  0  0
    4.0792    1.1873   -3.2567 O   0  0  0  0  0  0  0  0  0  0  0  0
    1.1468    3.1366   -0.0338 O   0  0  0  0  0  0  0  0  0  0  0  0
   -1.4742   -0.5517   -0.4823 O   0  0  0  0  0  0  0  0  0  0  0  0
   -2.7264    0.3437    1.2831 O   0  0  0  0  0  0  0  0  0  0  0  0
   -3.2716   -2.3606    0.7696 O   0  0  0  0  0  0  0  0  0  0  0  0
   -1.0786    2.2286    0.7598 O   0  0  0  0  0  0  0  0  0  0  0  0
   -4.6386   -3.0461   -1.5313 O   0  0  0  0  0  0  0  0  0  0  0  0
    4.4919   -2.6274    0.1743 O   0  0  0  0  0  0  0  0  0  0  0  0
   -2.1726   -3.1847   -2.6698 O   0  0  0  0  0  0  0  0  0  0  0  0
   -1.0286    4.2049   -0.8203 O   0  0  0  0  0  0  0  0  0  0  0  0
   -0.2814    4.5537    1.6776 O   0  0  0  0  0  0  0  0  0  0  0  0
   -3.5725    2.6803    0.6807 O   0  0  0  0  0  0  0  0  0  0  0  0
    1.2729   -3.1176    3.4218 O   0  0  0  0  0  0  0  0  0  0  0  0
   -2.4233    2.2951    3.0058 O   0  0  0  0  0  0  0  0  0  0  0  0
    2.9085   -0.9284    0.4127 N   0  0  0  0  0  0  0  0  0  0  0  0
    2.8808   -2.8590    1.7901 N   0  0  0  0  0  0  0  0  0  0  0  0
    2.8108    0.9882   -2.6365 C   0  0  2  0  0  0  0  0  0  0  0  0
    2.6536    1.9421   -1.4606 C   0  0  1  0  0  0  0  0  0  0  0  0
    2.7726   -0.3728   -1.9807 C   0  0  0  0  0  0  0  0  0  0  0  0
    3.4369   -0.1100   -0.6391 C   0  0  1  0  0  0  0  0  0  0  0  0
    1.1974    2.2556   -1.1422 C   0  0  0  0  0  0  0  0  0  0  0  0
   -3.7436   -1.3271   -0.1006 C   0  0  1  0  0  0  0  0  0  0  0  0
   -2.7748   -0.1439   -0.0558 C   0  0  2  0  0  0  0  0  0  0  0  0
   -3.8407   -1.8805   -1.5170 C   0  0  1  0  0  0  0  0  0  0  0  0
    1.7916   -0.4780    1.1057 C   0  0  0  0  0  0  0  0  0  0  0  0
    3.5010   -2.1662    0.7446 C   0  0  0  0  0  0  0  0  0  0  0  0
   -1.4057   -1.0769   -1.8014 C   0  0  1  0  0  0  0  0  0  0  0  0
   -2.4434   -2.1660   -2.0359 C   0  0  0  0  0  0  0  0  0  0  0  0
    1.2004   -1.1437    2.1054 C   0  0  0  0  0  0  0  0  0  0  0  0
   -1.5070    0.0160   -2.8558 C   0  0  0  0  0  0  0  0  0  0  0  0
    1.7677   -2.4566    2.5125 C   0  0  0  0  0  0  0  0  0  0  0  0
   -0.0007   -0.6387    2.8386 C   0  0  0  0  0  0  0  0  0  0  0  0
    2.0438    1.1078   -3.4076 H   0  0  0  0  0  0  0  0  0  0  0  0
    3.2164    2.8722   -1.5962 H   0  0  0  0  0  0  0  0  0  0  0  0
    3.2963   -1.1520   -2.5432 H   0  0  0  0  0  0  0  0  0  0  0  0
    1.7334   -0.6906   -1.8488 H   0  0  0  0  0  0  0  0  0  0  0  0
    4.5200   -0.2618   -0.7182 H   0  0  0  0  0  0  0  0  0  0  0  0
    0.6243    1.3550   -0.9196 H   0  0  0  0  0  0  0  0  0  0  0  0
    0.7454    2.7466   -2.0093 H   0  0  0  0  0  0  0  0  0  0  0  0
   -4.7324   -1.0415    0.2736 H   0  0  0  0  0  0  0  0  0  0  0  0
    4.0843    2.0875   -3.6244 H   0  0  0  0  0  0  0  0  0  0  0  0
   -3.1376    0.6554   -0.7098 H   0  0  0  0  0  0  0  0  0  0  0  0
   -4.3033   -1.1410   -2.1801 H   0  0  0  0  0  0  0  0  0  0  0  0
    1.3778    0.4762    0.8231 H   0  0  0  0  0  0  0  0  0  0  0  0
   -0.4228   -1.5523   -1.8852 H   0  0  0  0  0  0  0  0  0  0  0  0
    3.2907   -3.7529    2.0463 H   0  0  0  0  0  0  0  0  0  0  0  0
   -0.7736    0.8048   -2.6761 H   0  0  0  0  0  0  0  0  0  0  0  0
   -1.3395   -0.3947   -3.8570 H   0  0  0  0  0  0  0  0  0  0  0  0
   -2.4929    0.4916   -2.8602 H   0  0  0  0  0  0  0  0  0  0  0  0
   -2.3386   -2.5339    0.5584 H   0  0  0  0  0  0  0  0  0  0  0  0
   -4.7423   -3.3188   -2.4590 H   0  0  0  0  0  0  0  0  0  0  0  0
   -0.8747   -1.2562    2.6114 H   0  0  0  0  0  0  0  0  0  0  0  0
   -0.2244    0.3976    2.5771 H   0  0  0  0  0  0  0  0  0  0  0  0
    0.1704   -0.6650    3.9199 H   0  0  0  0  0  0  0  0  0  0  0  0
   -1.1890    3.6147   -1.5867 H   0  0  0  0  0  0  0  0  0  0  0  0
   -3.6803    3.6485    0.7950 H   0  0  0  0  0  0  0  0  0  0  0  0
  1  5  1  0  0  0  0
  1  9  1  0  0  0  0
  1 13  1  0  0  0  0
  1 14  2  0  0  0  0
  2  7  1  0  0  0  0
  2  9  1  0  0  0  0
  2 15  1  0  0  0  0
  2 17  2  0  0  0  0
  3 21  1  0  0  0  0
  3 23  1  0  0  0  0
  4 20  1  0  0  0  0
  4 44  1  0  0  0  0
  5 24  1  0  0  0  0
  6 26  1  0  0  0  0
  6 30  1  0  0  0  0
  7 26  1  0  0  0  0
  8 25  1  0  0  0  0
  8 53  1  0  0  0  0
 10 27  1  0  0  0  0
 10 54  1  0  0  0  0
 11 29  2  0  0  0  0
 12 31  2  0  0  0  0
 13 58  1  0  0  0  0
 15 59  1  0  0  0  0
 16 34  2  0  0  0  0
 18 23  1  0  0  0  0
 18 28  1  0  0  0  0
 18 29  1  0  0  0  0
 19 29  1  0  0  0  0
 19 34  1  0  0  0  0
 19 49  1  0  0  0  0
 20 21  1  0  0  0  0
 20 22  1  0  0  0  0
 20 36  1  0  0  0  0
 21 24  1  0  0  0  0
 21 37  1  0  0  0  0
 22 23  1  0  0  0  0
 22 38  1  0  0  0  0
 22 39  1  0  0  0  0
 23 40  1  0  0  0  0
 24 41  1  0  0  0  0
 24 42  1  0  0  0  0
 25 26  1  0  0  0  0
 25 27  1  0  0  0  0
 25 43  1  0  0  0  0
 26 45  1  0  0  0  0
 27 31  1  0  0  0  0
 27 46  1  0  0  0  0
 28 32  2  0  0  0  0
 28 47  1  0  0  0  0
 30 31  1  0  0  0  0
 30 33  1  0  0  0  0
 30 48  1  0  0  0  0
 32 34  1  0  0  0  0
 32 35  1  0  0  0  0
 33 50  1  0  0  0  0
 33 51  1  0  0  0  0
 33 52  1  0  0  0  0
 35 55  1  0  0  0  0
 35 56  1  0  0  0  0
 35 57  1  0  0  0  0
M  END
> <PUBCHEM_COMPOUND_CID>
46173789

> <PUBCHEM_CONFORMER_RMSD>
1.6

> <PUBCHEM_CONFORMER_DIVERSEORDER>
1
7
4
53
112
73
84
32
40
63
111
86
99
101
26
107
54
100
43
28
48
25
42
14
77
96
23
11
2
45
113
57
71
47
80
88
19
27
52
18
70
36
56
66
58
78
85
64
89
33
105
34
106
35
8
108
92
59
91
67
49
82
115
12
17
62
50
103
69
5
22
110
75
104
114
44
81
68
31
94
29
102
93
83
30
116
55
97
39
90
20
24
74
15
79
95
9
109
60
6
10
87
51
3
46
21
65
16
41
37
61
98
13
38
76
72

> <PUBCHEM_MMFF94_PARTIAL_CHARGES>
40
1 1.51
10 -0.68
11 -0.57
12 -0.57
13 -0.77
14 -0.7
15 -0.77
16 -0.57
17 -0.7
18 -0.47
19 -0.49
2 1.51
20 0.28
21 0.28
23 0.58
24 0.28
25 0.28
26 0.56
27 0.34
28 -0.04
29 0.69
3 -0.56
30 0.34
31 0.45
32 -0.12
34 0.62
35 0.14
4 -0.68
44 0.4
47 0.15
49 0.37
5 -0.55
53 0.4
54 0.4
58 0.5
59 0.5
6 -0.56
7 -0.55
8 -0.68
9 -0.54

> <PUBCHEM_EFFECTIVE_ROTOR_COUNT>
10

> <PUBCHEM_PHARMACOPHORE_FEATURES>
19
1 10 acceptor
1 10 donor
1 11 acceptor
1 12 acceptor
1 13 acceptor
1 14 acceptor
1 15 acceptor
1 16 acceptor
1 17 acceptor
1 19 donor
1 3 acceptor
1 4 acceptor
1 4 donor
1 6 acceptor
1 8 acceptor
1 8 donor
5 3 20 21 22 23 rings
6 18 19 28 29 32 34 rings
6 6 25 26 27 30 31 rings

> <PUBCHEM_HEAVY_ATOM_COUNT>
35

> <PUBCHEM_ATOM_DEF_STEREO_COUNT>
7

> <PUBCHEM_ATOM_UDEF_STEREO_COUNT>
0

> <PUBCHEM_BOND_DEF_STEREO_COUNT>
0

> <PUBCHEM_BOND_UDEF_STEREO_COUNT>
0

> <PUBCHEM_ISOTOPIC_ATOM_COUNT>
0

> <PUBCHEM_COMPONENT_COUNT>
1

> <PUBCHEM_CACTVS_TAUTO_COUNT>
21

> <PUBCHEM_CONFORMER_ID>
02C08E5D00000001

> <PUBCHEM_MMFF94_ENERGY>
35.9036

> <PUBCHEM_FEATURE_SELFOVERLAP>
96.456

> <PUBCHEM_SHAPE_FINGERPRINT>
10032420 55 18194120707557211068
10721379 63 18054538849382959745
11427363 43 17266989670874740347
12539773 59 18341056306303576303
12788726 201 18337380660285444773
13642711 20 17763730001851780274
14114206 34 18199166447788923276
14279260 333 17983822788633801878
14856354 85 15974675544132679418
15324115 91 17557732186536083087
15403338 16 17629744924141105449
15484559 13 15885228551263109143
161222 619 16464727245245024233
19026451 147 18046360638287045407
19319366 153 17986082258362207176
20567600 347 16676150179944782381
20600515 1 17538899867423613483
23598288 3 18196369449131907576
238 59 17060073518331219870
27425 322 16761622159513640132
3493558 16 17404057054431561839
35225 105 17536059961563763517
6438718 38 17693098874185193578
86090 222 17047676275921077947

> <PUBCHEM_SHAPE_MULTIPOLES>
629.98
7.32
5.14
3.62
0.48
3.48
-0.12
-4.61
2.95
1.06
-1.82
-0.57
-1.26
-4.79

> <PUBCHEM_SHAPE_SELFOVERLAP>
1287.926

> <PUBCHEM_SHAPE_VOLUME>
365.7

> <PUBCHEM_COORDINATE_TYPE>
2
5
10

$$$$

