25418
  -OEChem-07051213133D

 14 13  0     0  0  0  0  0  0999 V2000
    1.5955    1.1693    0.2279 O   0  0  0  0  0  0  0  0  0  0  0  0
    0.1500   -0.3637    0.2061 N   0  0  0  0  0  0  0  0  0  0  0  0
    0.7344    0.6091   -0.4608 N   0  0  0  0  0  0  0  0  0  0  0  0
   -1.2769   -0.5300   -0.1041 C   0  0  0  0  0  0  0  0  0  0  0  0
   -2.0438    0.7596    0.1037 C   0  0  0  0  0  0  0  0  0  0  0  0
    0.8408   -1.6443    0.0273 C   0  0  0  0  0  0  0  0  0  0  0  0
   -1.4245   -0.8759   -1.1361 H   0  0  0  0  0  0  0  0  0  0  0  0
   -1.7069   -1.2911    0.5591 H   0  0  0  0  0  0  0  0  0  0  0  0
   -1.8974    1.1544    1.1152 H   0  0  0  0  0  0  0  0  0  0  0  0
   -1.7615    1.5353   -0.6159 H   0  0  0  0  0  0  0  0  0  0  0  0
   -3.1164    0.5773   -0.0248 H   0  0  0  0  0  0  0  0  0  0  0  0
    0.3890   -2.4173    0.6601 H   0  0  0  0  0  0  0  0  0  0  0  0
    1.8923   -1.5750    0.3336 H   0  0  0  0  0  0  0  0  0  0  0  0
    0.8107   -1.9931   -1.0128 H   0  0  0  0  0  0  0  0  0  0  0  0
  1  3  2  0  0  0  0
  2  3  1  0  0  0  0
  2  4  1  0  0  0  0
  2  6  1  0  0  0  0
  4  5  1  0  0  0  0
  4  7  1  0  0  0  0
  4  8  1  0  0  0  0
  5  9  1  0  0  0  0
  5 10  1  0  0  0  0
  5 11  1  0  0  0  0
  6 12  1  0  0  0  0
  6 13  1  0  0  0  0
  6 14  1  0  0  0  0
M  END
> <PUBCHEM_COMPOUND_CID>
25418

> <PUBCHEM_CONFORMER_RMSD>
0.4

> <PUBCHEM_CONFORMER_DIVERSEORDER>
2
25
17
8
21
16
23
7
22
18
10
19
24
20
9
6
1
13
5
14
15
3
4
12
11

> <PUBCHEM_MMFF94_PARTIAL_CHARGES>
5
1 -0.16
2 -0.36
3 -0.01
4 0.27
6 0.27

> <PUBCHEM_EFFECTIVE_ROTOR_COUNT>
2

> <PUBCHEM_PHARMACOPHORE_FEATURES>
0

> <PUBCHEM_HEAVY_ATOM_COUNT>
6

> <PUBCHEM_ATOM_DEF_STEREO_COUNT>
0

> <PUBCHEM_ATOM_UDEF_STEREO_COUNT>
0

> <PUBCHEM_BOND_DEF_STEREO_COUNT>
0

> <PUBCHEM_BOND_UDEF_STEREO_COUNT>
0

> <PUBCHEM_ISOTOPIC_ATOM_COUNT>
0

> <PUBCHEM_COMPONENT_COUNT>
1

> <PUBCHEM_CACTVS_TAUTO_COUNT>
1

> <PUBCHEM_CONFORMER_ID>
0000634A00000002

> <PUBCHEM_MMFF94_ENERGY>
8.9114

> <PUBCHEM_FEATURE_SELFOVERLAP>
0

> <PUBCHEM_SHAPE_FINGERPRINT>
139733 1 8860928469929714351
16714656 1 17763171449844084350
20096714 4 18409163316244350601
21040471 1 18339640014777428236
23552449 1 17255123341934464272
24536 1 18339936994886757835
29004967 10 18053658367548653107
5943 1 14062845627350073118

> <PUBCHEM_SHAPE_MULTIPOLES>
107.65
2.25
1.48
0.62
1.09
0.08
-0.01
-0.34
0.1
-0.77
0.04
0.01
0
-0.01

> <PUBCHEM_SHAPE_SELFOVERLAP>
188.34

> <PUBCHEM_SHAPE_VOLUME>
73

> <PUBCHEM_COORDINATE_TYPE>
2
5
10

$$$$

