126779
  -OEChem-07051213032D

 68 72  0     1  0  0  0  0  0999 V2000
    5.9812    0.9316    0.0000 O   0  0  0  0  0  0  0  0  0  0  0  0
    4.0636   -1.6277    0.0000 O   0  0  0  0  0  0  0  0  0  0  0  0
    4.2493    0.9516    0.0000 O   0  0  0  0  0  0  0  0  0  0  0  0
    7.7296   -3.1030    0.0000 O   0  0  0  0  0  0  0  0  0  0  0  0
    7.7296    0.8970    0.0000 O   0  0  0  0  0  0  0  0  0  0  0  0
    2.5405    2.9715    0.0000 O   0  0  0  0  0  0  0  0  0  0  0  0
    5.1210   -3.6476    0.0000 O   0  0  0  0  0  0  0  0  0  0  0  0
    6.8530   -3.6276    0.0000 O   0  0  0  0  0  0  0  0  0  0  0  0
    9.4780    0.9316    0.0000 O   0  0  0  0  0  0  0  0  0  0  0  0
    9.4780   -3.1376    0.0000 O   0  0  0  0  0  0  0  0  0  0  0  0
   11.3153    0.9746    0.0000 O   0  0  0  0  0  0  0  0  0  0  0  0
    4.2840    3.9514    0.0000 N   0  0  0  0  0  0  0  0  0  0  0  0
    5.0636   -1.6238    0.0000 C   0  0  2  0  0  0  0  0  0  0  0  0
    5.0636   -0.5822    0.0000 C   0  0  0  0  0  0  0  0  0  0  0  0
    5.9697   -2.1377    0.0000 C   0  0  1  0  0  0  0  0  0  0  0  0
    5.9697   -0.0684    0.0000 C   0  0  1  0  0  0  0  0  0  0  0  0
    6.8636   -1.6030    0.0000 C   0  0  0  0  0  0  0  0  0  0  0  0
    6.8636   -0.6030    0.0000 C   0  0  0  0  0  0  0  0  0  0  0  0
    4.5669   -2.4918    0.0000 C   0  0  0  0  0  0  0  0  0  0  0  0
    5.1210    1.4415    0.0000 C   0  0  2  0  0  0  0  0  0  0  0  0
    5.1326    2.4415    0.0000 C   0  0  0  0  0  0  0  0  0  0  0  0
    7.7296   -2.1030    0.0000 C   0  0  0  0  0  0  0  0  0  0  0  0
    7.7296   -0.1030    0.0000 C   0  0  0  0  0  0  0  0  0  0  0  0
    4.2724    2.9514    0.0000 C   0  0  1  0  0  0  0  0  0  0  0  0
    5.9812   -3.1376    0.0000 C   0  0  0  0  0  0  0  0  0  0  0  0
    3.4007    2.4615    0.0000 C   0  0  1  0  0  0  0  0  0  0  0  0
    3.3891    1.4616    0.0000 C   0  0  2  0  0  0  0  0  0  0  0  0
    8.5957   -1.6030    0.0000 C   0  0  0  0  0  0  0  0  0  0  0  0
    8.5957   -0.6030    0.0000 C   0  0  0  0  0  0  0  0  0  0  0  0
    3.5670   -2.4956    0.0000 C   0  0  0  0  0  0  0  0  0  0  0  0
    2.5174    0.9716    0.0000 C   0  0  0  0  0  0  0  0  0  0  0  0
    9.4896   -0.0684    0.0000 C   0  0  0  0  0  0  0  0  0  0  0  0
    9.4896   -2.1377    0.0000 C   0  0  0  0  0  0  0  0  0  0  0  0
   10.3957   -0.5822    0.0000 C   0  0  0  0  0  0  0  0  0  0  0  0
   10.3957   -1.6238    0.0000 C   0  0  0  0  0  0  0  0  0  0  0  0
   11.3268   -0.0253    0.0000 C   0  0  0  0  0  0  0  0  0  0  0  0
   11.3268   -2.1808    0.0000 C   0  0  0  0  0  0  0  0  0  0  0  0
   12.2706   -0.5605    0.0000 C   0  0  0  0  0  0  0  0  0  0  0  0
   12.2706   -1.6455    0.0000 C   0  0  0  0  0  0  0  0  0  0  0  0
    4.8545    0.0015    0.0000 H   0  0  0  0  0  0  0  0  0  0  0  0
    4.4527   -0.6883    0.0000 H   0  0  0  0  0  0  0  0  0  0  0  0
    6.5107   -2.4404    0.0000 H   0  0  0  0  0  0  0  0  0  0  0  0
    5.4357    0.2468    0.0000 H   0  0  0  0  0  0  0  0  0  0  0  0
    4.4616   -3.1028    0.0000 H   0  0  0  0  0  0  0  0  0  0  0  0
    5.1504   -2.7016    0.0000 H   0  0  0  0  0  0  0  0  0  0  0  0
    5.6615    1.7453    0.0000 H   0  0  0  0  0  0  0  0  0  0  0  0
    5.7419    2.3268    0.0000 H   0  0  0  0  0  0  0  0  0  0  0  0
    5.3514    3.0216    0.0000 H   0  0  0  0  0  0  0  0  0  0  0  0
    3.7391    3.2676    0.0000 H   0  0  0  0  0  0  0  0  0  0  0  0
    3.4078    3.0815    0.0000 H   0  0  0  0  0  0  0  0  0  0  0  0
    3.3819    0.8416    0.0000 H   0  0  0  0  0  0  0  0  0  0  0  0
    3.7515   -1.0920    0.0000 H   0  0  0  0  0  0  0  0  0  0  0  0
    3.5646   -1.8757    0.0000 H   0  0  0  0  0  0  0  0  0  0  0  0
    2.9470   -2.4980    0.0000 H   0  0  0  0  0  0  0  0  0  0  0  0
    3.5693   -3.1156    0.0000 H   0  0  0  0  0  0  0  0  0  0  0  0
    2.2136    1.5121    0.0000 H   0  0  0  0  0  0  0  0  0  0  0  0
    1.9769    0.6678    0.0000 H   0  0  0  0  0  0  0  0  0  0  0  0
    2.8211    0.4311    0.0000 H   0  0  0  0  0  0  0  0  0  0  0  0
    4.8245    4.2552    0.0000 H   0  0  0  0  0  0  0  0  0  0  0  0
    3.7507    4.2676    0.0000 H   0  0  0  0  0  0  0  0  0  0  0  0
    8.2666   -3.4130    0.0000 H   0  0  0  0  0  0  0  0  0  0  0  0
    8.2666    1.2070    0.0000 H   0  0  0  0  0  0  0  0  0  0  0  0
    2.0000    2.6677    0.0000 H   0  0  0  0  0  0  0  0  0  0  0  0
    5.1282   -4.2676    0.0000 H   0  0  0  0  0  0  0  0  0  0  0  0
   11.3197   -2.8007    0.0000 H   0  0  0  0  0  0  0  0  0  0  0  0
   12.8063   -0.2485    0.0000 H   0  0  0  0  0  0  0  0  0  0  0  0
   12.8063   -1.9576    0.0000 H   0  0  0  0  0  0  0  0  0  0  0  0
   11.8486    1.2908    0.0000 H   0  0  0  0  0  0  0  0  0  0  0  0
 16  1  1  6  0  0  0
 20  1  1  6  0  0  0
 13  2  1  6  0  0  0
  2 52  1  0  0  0  0
  3 20  1  0  0  0  0
  3 27  1  0  0  0  0
  4 22  1  0  0  0  0
  4 61  1  0  0  0  0
  5 23  1  0  0  0  0
  5 62  1  0  0  0  0
 26  6  1  1  0  0  0
  6 63  1  0  0  0  0
  7 25  1  0  0  0  0
  7 64  1  0  0  0  0
  8 25  2  0  0  0  0
  9 32  2  0  0  0  0
 10 33  2  0  0  0  0
 11 36  1  0  0  0  0
 11 68  1  0  0  0  0
 24 12  1  1  0  0  0
 12 59  1  0  0  0  0
 12 60  1  0  0  0  0
 13 14  1  0  0  0  0
 13 15  1  0  0  0  0
 13 19  1  0  0  0  0
 14 16  1  0  0  0  0
 14 40  1  0  0  0  0
 14 41  1  0  0  0  0
 15 17  1  0  0  0  0
 15 25  1  1  0  0  0
 15 42  1  0  0  0  0
 16 18  1  0  0  0  0
 16 43  1  0  0  0  0
 17 18  1  0  0  0  0
 17 22  2  0  0  0  0
 18 23  2  0  0  0  0
 19 30  1  0  0  0  0
 19 44  1  0  0  0  0
 19 45  1  0  0  0  0
 20 21  1  0  0  0  0
 20 46  1  0  0  0  0
 21 24  1  0  0  0  0
 21 47  1  0  0  0  0
 21 48  1  0  0  0  0
 22 28  1  0  0  0  0
 23 29  1  0  0  0  0
 24 26  1  0  0  0  0
 24 49  1  0  0  0  0
 26 27  1  0  0  0  0
 26 50  1  0  0  0  0
 27 31  1  1  0  0  0
 27 51  1  0  0  0  0
 28 29  2  0  0  0  0
 28 33  1  0  0  0  0
 29 32  1  0  0  0  0
 30 53  1  0  0  0  0
 30 54  1  0  0  0  0
 30 55  1  0  0  0  0
 31 56  1  0  0  0  0
 31 57  1  0  0  0  0
 31 58  1  0  0  0  0
 32 34  1  0  0  0  0
 33 35  1  0  0  0  0
 34 35  2  0  0  0  0
 34 36  1  0  0  0  0
 35 37  1  0  0  0  0
 36 38  2  0  0  0  0
 37 39  2  0  0  0  0
 37 65  1  0  0  0  0
 38 39  1  0  0  0  0
 38 66  1  0  0  0  0
 39 67  1  0  0  0  0
M  END
> <PUBCHEM_COMPOUND_CID>
126779

> <PUBCHEM_COMPOUND_CANONICALIZED>
1

> <PUBCHEM_CACTVS_COMPLEXITY>
993

> <PUBCHEM_CACTVS_HBOND_ACCEPTOR>
12

> <PUBCHEM_CACTVS_HBOND_DONOR>
7

> <PUBCHEM_CACTVS_ROTATABLE_BOND>
4

> <PUBCHEM_CACTVS_SUBSKEYS>
AAADceB6PAAAAAAAAAAAAAAAAAAAAAAAAAA0YMGCAAAAAADBQAAAHgAQCAAADXzxmAcyDoBABgCIAqDSCAACAAAkIAAIiIEGCMgbNzaCtRqicUAn8BEPuYfL7PzOwQADAAAYAADCAAYQADAAAAAAAAAAAA==

> <PUBCHEM_IUPAC_OPENEYE_NAME>
(1R,2R,4S)-4-[(2R,4S,5S,6S)-4-amino-5-hydroxy-6-methyl-tetrahydropyran-2-yl]oxy-2-ethyl-2,5,7,12-tetrahydroxy-6,11-dioxo-3,4-dihydro-1H-tetracene-1-carboxylic acid

> <PUBCHEM_IUPAC_CAS_NAME>
(1R,2R,4S)-4-[[(2R,4S,5S,6S)-4-amino-5-hydroxy-6-methyl-2-oxanyl]oxy]-2-ethyl-2,5,7,12-tetrahydroxy-6,11-dioxo-3,4-dihydro-1H-tetracene-1-carboxylic acid

> <PUBCHEM_IUPAC_NAME>
(1R,2R,4S)-4-[(2R,4S,5S,6S)-4-amino-5-hydroxy-6-methyloxan-2-yl]oxy-2-ethyl-2,5,7,12-tetrahydroxy-6,11-dioxo-3,4-dihydro-1H-tetracene-1-carboxylic acid

> <PUBCHEM_IUPAC_SYSTEMATIC_NAME>
(1R,2R,4S)-4-[(2R,4S,5S,6S)-4-azanyl-6-methyl-5-oxidanyl-oxan-2-yl]oxy-2-ethyl-2,5,7,12-tetrakis(oxidanyl)-6,11-bis(oxidanylidene)-3,4-dihydro-1H-tetracene-1-carboxylic acid

> <PUBCHEM_IUPAC_TRADITIONAL_NAME>
(1R,2R,4S)-4-[(2R,4S,5S,6S)-4-amino-5-hydroxy-6-methyl-tetrahydropyran-2-yl]oxy-2-ethyl-2,5,7,12-tetrahydroxy-6,11-diketo-3,4-dihydro-1H-tetracene-1-carboxylic acid

> <PUBCHEM_IUPAC_INCHI>
InChI=1S/C27H29NO11/c1-3-27(37)8-13(39-14-7-11(28)21(30)9(2)38-14)16-17(20(27)26(35)36)25(34)18-19(24(16)33)23(32)15-10(22(18)31)5-4-6-12(15)29/h4-6,9,11,13-14,20-21,29-30,33-34,37H,3,7-8,28H2,1-2H3,(H,35,36)/t9-,11-,13-,14-,20-,21+,27+/m0/s1

> <PUBCHEM_IUPAC_INCHIKEY>
MMYTYGXIKKVLES-AGMCFEMXSA-N

> <PUBCHEM_XLOGP3>
0.2

> <PUBCHEM_EXACT_MASS>
543.174061

> <PUBCHEM_MOLECULAR_FORMULA>
C27H29NO11

> <PUBCHEM_MOLECULAR_WEIGHT>
543.51926

> <PUBCHEM_OPENEYE_CAN_SMILES>
CCC1(CC(C2=C(C3=C(C(=C2C1C(=O)O)O)C(=O)C4=C(C3=O)C(=CC=C4)O)O)OC5CC(C(C(O5)C)O)N)O

> <PUBCHEM_OPENEYE_ISO_SMILES>
CC[C@]1(C[C@@H](C2=C(C3=C(C(=C2[C@H]1C(=O)O)O)C(=O)C4=C(C3=O)C(=CC=C4)O)O)O[C@H]5C[C@@H]([C@@H]([C@@H](O5)C)O)N)O

> <PUBCHEM_CACTVS_TPSA>
217

> <PUBCHEM_MONOISOTOPIC_WEIGHT>
543.174061

> <PUBCHEM_TOTAL_CHARGE>
0

> <PUBCHEM_HEAVY_ATOM_COUNT>
39

> <PUBCHEM_ATOM_DEF_STEREO_COUNT>
7

> <PUBCHEM_ATOM_UDEF_STEREO_COUNT>
0

> <PUBCHEM_BOND_DEF_STEREO_COUNT>
0

> <PUBCHEM_BOND_UDEF_STEREO_COUNT>
0

> <PUBCHEM_ISOTOPIC_ATOM_COUNT>
0

> <PUBCHEM_COMPONENT_COUNT>
1

> <PUBCHEM_CACTVS_TAUTO_COUNT>
263

> <PUBCHEM_COORDINATE_TYPE>
1
5
255

> <PUBCHEM_BONDANNOTATIONS>
16  1  6
20  1  6
24  12  5
15  25  5
17  18  8
17  22  8
18  23  8
13  2  6
22  28  8
23  29  8
27  31  5
28  29  8
34  35  8
34  36  8
35  37  8
36  38  8
37  39  8
38  39  8
26  6  5

$$$$

