439962
  -OEChem-07051212483D

 22 22  0     1  0  0  0  0  0999 V2000
    0.7634   -1.0732    0.0015 O   0  0  0  0  0  0  0  0  0  0  0  0
   -1.8315    2.1524    0.1130 O   0  0  0  0  0  0  0  0  0  0  0  0
    0.6427    1.5042    1.1677 O   0  0  0  0  0  0  0  0  0  0  0  0
   -2.8576   -0.5756   -0.2364 O   0  0  0  0  0  0  0  0  0  0  0  0
   -0.9639   -2.5586    0.5153 O   0  0  0  0  0  0  0  0  0  0  0  0
    3.2709   -0.5045    0.3058 O   0  0  0  0  0  0  0  0  0  0  0  0
   -1.0981    1.0672   -0.4477 C   0  0  1  0  0  0  0  0  0  0  0  0
    0.3955    1.3122   -0.2284 C   0  0  2  0  0  0  0  0  0  0  0  0
   -1.5328   -0.2566    0.1885 C   0  0  2  0  0  0  0  0  0  0  0  0
    1.1770    0.0916   -0.7048 C   0  0  1  0  0  0  0  0  0  0  0  0
   -0.6056   -1.4005   -0.2385 C   0  0  1  0  0  0  0  0  0  0  0  0
    2.6400    0.2414   -0.4359 C   0  0  0  0  0  0  0  0  0  0  0  0
   -1.3253    1.0474   -1.5208 H   0  0  0  0  0  0  0  0  0  0  0  0
    0.7254    2.2225   -0.7413 H   0  0  0  0  0  0  0  0  0  0  0  0
   -1.5622   -0.1596    1.2807 H   0  0  0  0  0  0  0  0  0  0  0  0
    1.0536   -0.0696   -1.7824 H   0  0  0  0  0  0  0  0  0  0  0  0
   -0.7409   -1.6562   -1.2959 H   0  0  0  0  0  0  0  0  0  0  0  0
    3.1425    1.0723   -0.9601 H   0  0  0  0  0  0  0  0  0  0  0  0
   -1.5309    2.9668   -0.3251 H   0  0  0  0  0  0  0  0  0  0  0  0
    0.0997    2.2576    1.4566 H   0  0  0  0  0  0  0  0  0  0  0  0
   -3.4290    0.1720    0.0093 H   0  0  0  0  0  0  0  0  0  0  0  0
   -1.1747   -2.2829    1.4229 H   0  0  0  0  0  0  0  0  0  0  0  0
  1 10  1  0  0  0  0
  1 11  1  0  0  0  0
  2  7  1  0  0  0  0
  2 19  1  0  0  0  0
  3  8  1  0  0  0  0
  3 20  1  0  0  0  0
  4  9  1  0  0  0  0
  4 21  1  0  0  0  0
  5 11  1  0  0  0  0
  5 22  1  0  0  0  0
  6 12  2  0  0  0  0
  7  8  1  0  0  0  0
  7  9  1  0  0  0  0
  7 13  1  0  0  0  0
  8 10  1  0  0  0  0
  8 14  1  0  0  0  0
  9 11  1  0  0  0  0
  9 15  1  0  0  0  0
 10 12  1  0  0  0  0
 10 16  1  0  0  0  0
 11 17  1  0  0  0  0
 12 18  1  0  0  0  0
M  END
> <PUBCHEM_COMPOUND_CID>
439962

> <PUBCHEM_CONFORMER_RMSD>
0.6

> <PUBCHEM_CONFORMER_DIVERSEORDER>
1
3
4
2

> <PUBCHEM_MMFF94_PARTIAL_CHARGES>
17
1 -0.56
10 0.34
11 0.56
12 0.45
18 0.06
19 0.4
2 -0.68
20 0.4
21 0.4
22 0.4
3 -0.68
4 -0.68
5 -0.68
6 -0.57
7 0.28
8 0.28
9 0.28

> <PUBCHEM_EFFECTIVE_ROTOR_COUNT>
2.2

> <PUBCHEM_PHARMACOPHORE_FEATURES>
11
1 1 acceptor
1 2 acceptor
1 2 donor
1 3 acceptor
1 3 donor
1 4 acceptor
1 4 donor
1 5 acceptor
1 5 donor
1 6 acceptor
6 1 7 8 9 10 11 rings

> <PUBCHEM_HEAVY_ATOM_COUNT>
12

> <PUBCHEM_ATOM_DEF_STEREO_COUNT>
4

> <PUBCHEM_ATOM_UDEF_STEREO_COUNT>
1

> <PUBCHEM_BOND_DEF_STEREO_COUNT>
0

> <PUBCHEM_BOND_UDEF_STEREO_COUNT>
0

> <PUBCHEM_ISOTOPIC_ATOM_COUNT>
0

> <PUBCHEM_COMPONENT_COUNT>
1

> <PUBCHEM_CACTVS_TAUTO_COUNT>
2

> <PUBCHEM_CONFORMER_ID>
0006B69A00000001

> <PUBCHEM_MMFF94_ENERGY>
24.3636

> <PUBCHEM_FEATURE_SELFOVERLAP>
55.896

> <PUBCHEM_SHAPE_FINGERPRINT>
12423570 1 7365032824241695160
12716758 59 18336542828245792838
13024252 1 13830127304193673340
16945 1 18340193124971324070
193761 8 17546723760027623863
20511035 2 17974285422066393063
20871998 184 18261668173521889910
21040471 1 18339634671927828460
22344851 341 18050844717372224067
23552423 10 17769087947856985326
2748010 2 18195236952234283367
29004967 10 17023179444389371764
369184 2 18187368748499996692
5084963 1 18260830379973523433
528862 383 17622725736024039121
53812653 166 18261679288944659569

> <PUBCHEM_SHAPE_MULTIPOLES>
211.74
3.45
2.1
0.79
1.6
0.3
-0.06
0.33
0.07
-1.07
-0.35
0.13
-0.13
0.06

> <PUBCHEM_SHAPE_SELFOVERLAP>
427.995

> <PUBCHEM_SHAPE_VOLUME>
120.5

> <PUBCHEM_COORDINATE_TYPE>
2
5
10

$$$$

