441018
  -OEChem-07051212513D

 45 46  0     1  0  0  0  0  0999 V2000
   -3.9150    0.1116    0.9159 P   0  0  1  0  0  0  0  0  0  0  0  0
    0.7544    1.9628    1.2164 O   0  0  0  0  0  0  0  0  0  0  0  0
   -0.1735    3.8315   -0.9369 O   0  0  0  0  0  0  0  0  0  0  0  0
    1.2538    1.9746   -2.3346 O   0  0  0  0  0  0  0  0  0  0  0  0
   -2.7733    1.2320    0.6670 O   0  0  0  0  0  0  0  0  0  0  0  0
    4.2008    1.3532   -0.9367 O   0  0  0  0  0  0  0  0  0  0  0  0
   -3.2842   -1.2596    0.3323 O   0  0  0  0  0  0  0  0  0  0  0  0
   -3.8975   -0.1284    2.5162 O   0  0  0  0  0  0  0  0  0  0  0  0
   -5.2674    0.4572    0.3617 O   0  0  0  0  0  0  0  0  0  0  0  0
    4.5523   -2.8032    1.0244 O   0  0  0  0  0  0  0  0  0  0  0  0
   -3.2182   -0.6852   -1.8848 O   0  0  0  0  0  0  0  0  0  0  0  0
    2.3860    0.5601    0.3028 N   0  0  0  0  0  0  0  0  0  0  0  0
    4.3737   -0.7168    0.0400 N   0  0  0  0  0  0  0  0  0  0  0  0
   -0.5054    2.4591   -0.7273 C   0  0  1  0  0  0  0  0  0  0  0  0
    0.6574    1.5719   -1.1187 C   0  0  2  0  0  0  0  0  0  0  0  0
   -0.5959    2.2224    0.7741 C   0  0  1  0  0  0  0  0  0  0  0  0
    1.5893    1.7309    0.0702 C   0  0  1  0  0  0  0  0  0  0  0  0
   -1.4553    1.0207    1.1433 C   0  0  0  0  0  0  0  0  0  0  0  0
    3.6855    0.4692   -0.2490 C   0  0  0  0  0  0  0  0  0  0  0  0
    1.8796   -0.4826    1.0700 C   0  0  0  0  0  0  0  0  0  0  0  0
    2.5475   -1.6069    1.3368 C   0  0  0  0  0  0  0  0  0  0  0  0
    3.9112   -1.7816    0.7977 C   0  0  0  0  0  0  0  0  0  0  0  0
   -3.0182   -1.4846   -0.9808 C   0  0  0  0  0  0  0  0  0  0  0  0
   -2.4372   -2.8605   -1.1769 C   0  0  0  0  0  0  0  0  0  0  0  0
   -0.9222   -2.8810   -1.0074 C   0  0  0  0  0  0  0  0  0  0  0  0
   -0.3284   -4.2668   -1.2157 C   0  0  0  0  0  0  0  0  0  0  0  0
   -1.4238    2.2518   -1.2830 H   0  0  0  0  0  0  0  0  0  0  0  0
    0.3209    0.5334   -1.2254 H   0  0  0  0  0  0  0  0  0  0  0  0
   -0.9613    3.1152    1.2944 H   0  0  0  0  0  0  0  0  0  0  0  0
    2.2446    2.6017   -0.0533 H   0  0  0  0  0  0  0  0  0  0  0  0
   -1.0681    0.0993    0.7025 H   0  0  0  0  0  0  0  0  0  0  0  0
   -1.4663    0.8860    2.2301 H   0  0  0  0  0  0  0  0  0  0  0  0
   -0.0022    3.9449   -1.8874 H   0  0  0  0  0  0  0  0  0  0  0  0
    0.5699    1.9287   -3.0244 H   0  0  0  0  0  0  0  0  0  0  0  0
    0.8853   -0.3744    1.4773 H   0  0  0  0  0  0  0  0  0  0  0  0
    5.3095   -0.8038   -0.3465 H   0  0  0  0  0  0  0  0  0  0  0  0
    2.1202   -2.3990    1.9394 H   0  0  0  0  0  0  0  0  0  0  0  0
   -4.3642    0.5102    3.0963 H   0  0  0  0  0  0  0  0  0  0  0  0
   -2.7170   -3.2000   -2.1814 H   0  0  0  0  0  0  0  0  0  0  0  0
   -2.9206   -3.5522   -0.4768 H   0  0  0  0  0  0  0  0  0  0  0  0
   -0.4625   -2.1798   -1.7144 H   0  0  0  0  0  0  0  0  0  0  0  0
   -0.6598   -2.5250   -0.0039 H   0  0  0  0  0  0  0  0  0  0  0  0
    0.7577   -4.2374   -1.0832 H   0  0  0  0  0  0  0  0  0  0  0  0
   -0.5395   -4.6346   -2.2248 H   0  0  0  0  0  0  0  0  0  0  0  0
   -0.7406   -4.9806   -0.4955 H   0  0  0  0  0  0  0  0  0  0  0  0
  1  5  1  0  0  0  0
  1  7  1  0  0  0  0
  1  8  1  0  0  0  0
  1  9  2  0  0  0  0
  2 16  1  0  0  0  0
  2 17  1  0  0  0  0
  3 14  1  0  0  0  0
  3 33  1  0  0  0  0
  4 15  1  0  0  0  0
  4 34  1  0  0  0  0
  5 18  1  0  0  0  0
  6 19  2  0  0  0  0
  7 23  1  0  0  0  0
  8 38  1  0  0  0  0
 10 22  2  0  0  0  0
 11 23  2  0  0  0  0
 12 17  1  0  0  0  0
 12 19  1  0  0  0  0
 12 20  1  0  0  0  0
 13 19  1  0  0  0  0
 13 22  1  0  0  0  0
 13 36  1  0  0  0  0
 14 15  1  0  0  0  0
 14 16  1  0  0  0  0
 14 27  1  0  0  0  0
 15 17  1  0  0  0  0
 15 28  1  0  0  0  0
 16 18  1  0  0  0  0
 16 29  1  0  0  0  0
 17 30  1  0  0  0  0
 18 31  1  0  0  0  0
 18 32  1  0  0  0  0
 20 21  2  0  0  0  0
 20 35  1  0  0  0  0
 21 22  1  0  0  0  0
 21 37  1  0  0  0  0
 23 24  1  0  0  0  0
 24 25  1  0  0  0  0
 24 39  1  0  0  0  0
 24 40  1  0  0  0  0
 25 26  1  0  0  0  0
 25 41  1  0  0  0  0
 25 42  1  0  0  0  0
 26 43  1  0  0  0  0
 26 44  1  0  0  0  0
 26 45  1  0  0  0  0
M  END
> <PUBCHEM_COMPOUND_CID>
441018

> <PUBCHEM_CONFORMER_RMSD>
1

> <PUBCHEM_CONFORMER_DIVERSEORDER>
1
181
218
34
28
101
90
129
72
145
250
153
40
39
115
113
54
105
171
151
37
157
36
234
276
247
128
170
24
119
201
178
209
143
50
197
174
102
207
32
255
202
125
243
258
198
210
118
164
184
86
88
227
223
38
146
133
124
188
97
112
20
65
257
66
215
158
96
73
114
205
238
206
149
15
275
216
272
95
109
251
161
19
219
155
49
192
48
14
58
137
18
127
59
154
43
99
57
152
31
61
249
213
228
108
175
269
162
239
135
165
182
199
144
180
147
98
274
187
21
221
134
186
179
82
139
121
77
167
196
41
27
173
75
74
70
244
194
60
208
263
232
176
103
191
140
80
254
92
130
52
94
236
225
142
150
45
138
30
91
89
104
177
25
79
16
256
195
262
120
7
29
67
55
148
166
265
248
183
62
131
246
9
237
159
136
217
126
46
224
42
172
226
242
100
69
10
83
11
78
233
163
93
235
22
267
190
204
3
5
44
68
111
17
87
229
220
241
33
261
156
47
116
12
253
56
169
81
53
193
231
117
268
203
259
85
64
106
211
160
245
168
71
8
212
266
189
23
271
26
260
35
240
185
51
110
273
270
230
63
214
4
6
122
76
107
132
123
222
84
13
252
264
141
2
200

> <PUBCHEM_MMFF94_PARTIAL_CHARGES>
30
1 1.51
10 -0.57
11 -0.57
12 -0.47
13 -0.49
14 0.28
15 0.28
16 0.28
17 0.58
18 0.28
19 0.69
2 -0.56
20 -0.04
21 -0.14
22 0.62
23 0.66
24 0.06
3 -0.68
33 0.4
34 0.4
35 0.15
36 0.37
37 0.15
38 0.5
4 -0.68
5 -0.55
6 -0.57
7 -0.42
8 -0.77
9 -0.7

> <PUBCHEM_EFFECTIVE_ROTOR_COUNT>
9

> <PUBCHEM_PHARMACOPHORE_FEATURES>
14
1 10 acceptor
1 11 acceptor
1 13 donor
1 2 acceptor
1 26 hydrophobe
1 3 acceptor
1 3 donor
1 4 acceptor
1 4 donor
1 6 acceptor
1 8 acceptor
1 9 acceptor
5 2 14 15 16 17 rings
6 12 13 19 20 21 22 rings

> <PUBCHEM_HEAVY_ATOM_COUNT>
26

> <PUBCHEM_ATOM_DEF_STEREO_COUNT>
4

> <PUBCHEM_ATOM_UDEF_STEREO_COUNT>
0

> <PUBCHEM_BOND_DEF_STEREO_COUNT>
0

> <PUBCHEM_BOND_UDEF_STEREO_COUNT>
0

> <PUBCHEM_ISOTOPIC_ATOM_COUNT>
0

> <PUBCHEM_COMPONENT_COUNT>
1

> <PUBCHEM_CACTVS_TAUTO_COUNT>
3

> <PUBCHEM_CONFORMER_ID>
0006BABA00000001

> <PUBCHEM_MMFF94_ENERGY>
31.8538

> <PUBCHEM_FEATURE_SELFOVERLAP>
71.065

> <PUBCHEM_SHAPE_FINGERPRINT>
11578080 2 18264793041334805448
121448 382 17040625099087914649
12422481 6 17905303458794709617
12553582 1 18412832377924649720
12633257 1 17675923222237078537
13004483 165 18341901838960867168
14117953 113 18191590967650597399
14251757 17 15985112907060801508
14725015 67 15531376739220467458
14787075 74 18117556224453210168
14840074 17 18339912796650615502
15403338 16 17558840717769566339
15537594 2 18339909450960775946
20261772 1 18335983159473624530
20291156 8 18410578353212364579
20600515 1 17386549311391622777
20775530 9 17903652786566884759
235170 7 15913325788546303818
3027735 51 17902259993244422983
46194498 28 16701734930970818269
7064713 232 17968375766168666099

> <PUBCHEM_SHAPE_MULTIPOLES>
470.26
8.36
4.38
1.78
0.27
2.36
0.04
3.17
-2.34
0.19
1.86
-0.73
-0.1
-2.3

> <PUBCHEM_SHAPE_SELFOVERLAP>
955.278

> <PUBCHEM_SHAPE_VOLUME>
274.3

> <PUBCHEM_COORDINATE_TYPE>
2
5
10

$$$$

