124017
  -OEChem-07051213102D

 68 73  0     1  0  0  0  0  0999 V2000
    6.8671    4.0336    0.0000 O   0  0  0  0  0  0  0  0  0  0  0  0
    6.8831   -2.0079    0.0000 O   0  0  0  0  0  0  0  0  0  0  0  0
    5.1350    2.0336    0.0000 O   0  0  0  0  0  0  0  0  0  0  0  0
    5.1350    1.0336    0.0000 O   0  0  0  0  0  0  0  0  0  0  0  0
    4.2151   -2.5115    0.0000 O   0  0  0  0  0  0  0  0  0  0  0  0
    8.7179    0.3599    0.0000 O   0  0  0  0  0  0  0  0  0  0  0  0
    9.2610    1.2256    0.0000 O   0  0  0  0  0  0  0  0  0  0  0  0
   10.3972    4.0577    0.0000 O   0  0  0  0  0  0  0  0  0  0  0  0
    4.2690    6.5336    0.0000 O   0  0  0  0  0  0  0  0  0  0  0  0
    2.5369    5.5336    0.0000 O   0  0  0  0  0  0  0  0  0  0  0  0
    4.2646   -5.5423    0.0000 O   0  0  0  0  0  0  0  0  0  0  0  0
    6.0005   -6.5357    0.0000 O   0  0  0  0  0  0  0  0  0  0  0  0
    6.8671    2.0336    0.0000 C   0  0  1  0  0  0  0  0  0  0  0  0
    6.0010    2.5336    0.0000 C   0  0  2  0  0  0  0  0  0  0  0  0
    6.0010    3.5336    0.0000 C   0  0  1  0  0  0  0  0  0  0  0  0
    6.8671    1.0336    0.0000 C   0  0  0  0  0  0  0  0  0  0  0  0
    7.7331    2.5336    0.0000 C   0  0  0  0  0  0  0  0  0  0  0  0
    6.0010   -0.4664    0.0000 C   0  0  0  0  0  0  0  0  0  0  0  0
    5.0910   -0.9733    0.0000 C   0  0  0  0  0  0  0  0  0  0  0  0
    6.0010    0.5336    0.0000 C   0  0  0  0  0  0  0  0  0  0  0  0
    5.0830   -2.0149    0.0000 C   0  0  2  0  0  0  0  0  0  0  0  0
    7.7331    3.5336    0.0000 C   0  0  0  0  0  0  0  0  0  0  0  0
    5.9851   -2.5357    0.0000 C   0  0  1  0  0  0  0  0  0  0  0  0
    6.8671   -0.9664    0.0000 C   0  0  0  0  0  0  0  0  0  0  0  0
    7.7331    0.5336    0.0000 C   0  0  0  0  0  0  0  0  0  0  0  0
    5.1350    4.0336    0.0000 C   0  0  0  0  0  0  0  0  0  0  0  0
    8.6270    1.9989    0.0000 C   0  0  0  0  0  0  0  0  0  0  0  0
    7.7331   -0.4664    0.0000 C   0  0  0  0  0  0  0  0  0  0  0  0
    8.6270    4.0682    0.0000 C   0  0  0  0  0  0  0  0  0  0  0  0
    5.9889   -3.5357    0.0000 C   0  0  0  0  0  0  0  0  0  0  0  0
    9.5331    2.5128    0.0000 C   0  0  0  0  0  0  0  0  0  0  0  0
    5.1350    5.0336    0.0000 C   0  0  0  0  0  0  0  0  0  0  0  0
    4.2690    3.5336    0.0000 C   0  0  0  0  0  0  0  0  0  0  0  0
    9.5331    3.5544    0.0000 C   0  0  0  0  0  0  0  0  0  0  0  0
    5.1248   -4.0390    0.0000 C   0  0  0  0  0  0  0  0  0  0  0  0
    6.8569   -4.0323    0.0000 C   0  0  0  0  0  0  0  0  0  0  0  0
    4.2690    5.5336    0.0000 C   0  0  0  0  0  0  0  0  0  0  0  0
    3.4030    4.0336    0.0000 C   0  0  0  0  0  0  0  0  0  0  0  0
    3.4030    5.0336    0.0000 C   0  0  0  0  0  0  0  0  0  0  0  0
    5.1287   -5.0390    0.0000 C   0  0  0  0  0  0  0  0  0  0  0  0
    6.8607   -5.0323    0.0000 C   0  0  0  0  0  0  0  0  0  0  0  0
    5.9966   -5.5357    0.0000 C   0  0  0  0  0  0  0  0  0  0  0  0
    6.1309    1.6086    0.0000 H   0  0  0  0  0  0  0  0  0  0  0  0
    5.4641    2.8436    0.0000 H   0  0  0  0  0  0  0  0  0  0  0  0
    5.4641    3.2236    0.0000 H   0  0  0  0  0  0  0  0  0  0  0  0
    4.8865   -0.3880    0.0000 H   0  0  0  0  0  0  0  0  0  0  0  0
    4.4794   -1.0747    0.0000 H   0  0  0  0  0  0  0  0  0  0  0  0
    4.5479   -1.7018    0.0000 H   0  0  0  0  0  0  0  0  0  0  0  0
    5.4488   -2.8467    0.0000 H   0  0  0  0  0  0  0  0  0  0  0  0
    8.2700   -0.7764    0.0000 H   0  0  0  0  0  0  0  0  0  0  0  0
    4.5981    2.3436    0.0000 H   0  0  0  0  0  0  0  0  0  0  0  0
    8.6199    4.6882    0.0000 H   0  0  0  0  0  0  0  0  0  0  0  0
   10.0688    2.2007    0.0000 H   0  0  0  0  0  0  0  0  0  0  0  0
    5.6720    5.3436    0.0000 H   0  0  0  0  0  0  0  0  0  0  0  0
    4.2690    2.9136    0.0000 H   0  0  0  0  0  0  0  0  0  0  0  0
    4.5981    0.7236    0.0000 H   0  0  0  0  0  0  0  0  0  0  0  0
    3.6793   -2.1995    0.0000 H   0  0  0  0  0  0  0  0  0  0  0  0
    8.9300   -0.2227    0.0000 H   0  0  0  0  0  0  0  0  0  0  0  0
    4.5867   -3.7311    0.0000 H   0  0  0  0  0  0  0  0  0  0  0  0
    7.3926   -3.7203    0.0000 H   0  0  0  0  0  0  0  0  0  0  0  0
    2.8660    3.7236    0.0000 H   0  0  0  0  0  0  0  0  0  0  0  0
    9.8728    1.3263    0.0000 H   0  0  0  0  0  0  0  0  0  0  0  0
    7.3989   -5.3402    0.0000 H   0  0  0  0  0  0  0  0  0  0  0  0
   10.3948    4.6777    0.0000 H   0  0  0  0  0  0  0  0  0  0  0  0
    3.7320    6.8436    0.0000 H   0  0  0  0  0  0  0  0  0  0  0  0
    2.0000    5.2236    0.0000 H   0  0  0  0  0  0  0  0  0  0  0  0
    4.2670   -6.1623    0.0000 H   0  0  0  0  0  0  0  0  0  0  0  0
    6.5386   -6.8436    0.0000 H   0  0  0  0  0  0  0  0  0  0  0  0
  1 15  1  0  0  0  0
  1 22  1  0  0  0  0
  2 23  1  0  0  0  0
  2 24  1  0  0  0  0
 14  3  1  1  0  0  0
  3 51  1  0  0  0  0
  4 20  1  0  0  0  0
  4 56  1  0  0  0  0
 21  5  1  6  0  0  0
  5 57  1  0  0  0  0
  6 25  1  0  0  0  0
  6 58  1  0  0  0  0
  7 27  1  0  0  0  0
  7 62  1  0  0  0  0
  8 34  1  0  0  0  0
  8 64  1  0  0  0  0
  9 37  1  0  0  0  0
  9 65  1  0  0  0  0
 10 39  1  0  0  0  0
 10 66  1  0  0  0  0
 11 40  1  0  0  0  0
 11 67  1  0  0  0  0
 12 42  1  0  0  0  0
 12 68  1  0  0  0  0
 13 14  1  0  0  0  0
 13 16  1  0  0  0  0
 13 17  1  0  0  0  0
 13 43  1  1  0  0  0
 14 15  1  0  0  0  0
 14 44  1  0  0  0  0
 15 26  1  1  0  0  0
 15 45  1  0  0  0  0
 16 20  2  0  0  0  0
 16 25  1  0  0  0  0
 17 22  1  0  0  0  0
 17 27  2  0  0  0  0
 18 19  1  0  0  0  0
 18 20  1  0  0  0  0
 18 24  2  0  0  0  0
 19 21  1  0  0  0  0
 19 46  1  0  0  0  0
 19 47  1  0  0  0  0
 21 23  1  0  0  0  0
 21 48  1  0  0  0  0
 22 29  2  0  0  0  0
 23 30  1  6  0  0  0
 23 49  1  0  0  0  0
 24 28  1  0  0  0  0
 25 28  2  0  0  0  0
 26 32  2  0  0  0  0
 26 33  1  0  0  0  0
 27 31  1  0  0  0  0
 28 50  1  0  0  0  0
 29 34  1  0  0  0  0
 29 52  1  0  0  0  0
 30 35  2  0  0  0  0
 30 36  1  0  0  0  0
 31 34  2  0  0  0  0
 31 53  1  0  0  0  0
 32 37  1  0  0  0  0
 32 54  1  0  0  0  0
 33 38  2  0  0  0  0
 33 55  1  0  0  0  0
 35 40  1  0  0  0  0
 35 59  1  0  0  0  0
 36 41  2  0  0  0  0
 36 60  1  0  0  0  0
 37 39  2  0  0  0  0
 38 39  1  0  0  0  0
 38 61  1  0  0  0  0
 40 42  2  0  0  0  0
 41 42  1  0  0  0  0
 41 63  1  0  0  0  0
M  END
> <PUBCHEM_COMPOUND_CID>
124017

> <PUBCHEM_COMPOUND_CANONICALIZED>
1

> <PUBCHEM_CACTVS_COMPLEXITY>
925

> <PUBCHEM_CACTVS_HBOND_ACCEPTOR>
12

> <PUBCHEM_CACTVS_HBOND_DONOR>
10

> <PUBCHEM_CACTVS_ROTATABLE_BOND>
3

> <PUBCHEM_CACTVS_SUBSKEYS>
AAADceB4PAAAAAAAAAAAAAAAAAAAAAAAAAA0aMGCAAAAAACRVAAAGgAACAAADRSgmAIwBoAABgCAAiBCAAACCAAgIAAIiAAGiIgNNyKGMRqCeCGlwBULuAfA4PwOoAADCAAIQABAAAYQABCAAAAAAAAAAA==

> <PUBCHEM_IUPAC_OPENEYE_NAME>
(2R,3R)-2-(3,4-dihydroxyphenyl)-6-[(2R,3R,4S)-2-(3,4-dihydroxyphenyl)-3,5,7-trihydroxy-chroman-4-yl]chromane-3,5,7-triol

> <PUBCHEM_IUPAC_CAS_NAME>
(2R,3R)-2-(3,4-dihydroxyphenyl)-6-[(2R,3R,4S)-2-(3,4-dihydroxyphenyl)-3,5,7-trihydroxy-3,4-dihydro-2H-1-benzopyran-4-yl]-3,4-dihydro-2H-1-benzopyran-3,5,7-triol

> <PUBCHEM_IUPAC_NAME>
(2R,3R)-2-(3,4-dihydroxyphenyl)-6-[(2R,3R,4S)-2-(3,4-dihydroxyphenyl)-3,5,7-trihydroxy-3,4-dihydro-2H-chromen-4-yl]-3,4-dihydro-2H-chromene-3,5,7-triol

> <PUBCHEM_IUPAC_SYSTEMATIC_NAME>
(2R,3R)-2-[3,4-bis(oxidanyl)phenyl]-6-[(2R,3R,4S)-2-[3,4-bis(oxidanyl)phenyl]-3,5,7-tris(oxidanyl)-3,4-dihydro-2H-chromen-4-yl]-3,4-dihydro-2H-chromene-3,5,7-triol

> <PUBCHEM_IUPAC_TRADITIONAL_NAME>
(2R,3R)-2-(3,4-dihydroxyphenyl)-6-[(2R,3R,4S)-2-(3,4-dihydroxyphenyl)-3,5,7-trihydroxy-chroman-4-yl]chroman-3,5,7-triol

> <PUBCHEM_IUPAC_INCHI>
InChI=1S/C30H26O12/c31-13-7-19(36)24-23(8-13)42-30(12-2-4-16(33)18(35)6-12)28(40)26(24)25-20(37)10-22-14(27(25)39)9-21(38)29(41-22)11-1-3-15(32)17(34)5-11/h1-8,10,21,26,28-40H,9H2/t21-,26-,28-,29-,30-/m1/s1

> <PUBCHEM_IUPAC_INCHIKEY>
GMISZFQPFDAPGI-CVJZBMGUSA-N

> <PUBCHEM_XLOGP3_AA>
2.4

> <PUBCHEM_EXACT_MASS>
578.142426

> <PUBCHEM_MOLECULAR_FORMULA>
C30H26O12

> <PUBCHEM_MOLECULAR_WEIGHT>
578.52024

> <PUBCHEM_OPENEYE_CAN_SMILES>
C1C(C(OC2=CC(=C(C(=C21)O)C3C(C(OC4=CC(=CC(=C34)O)O)C5=CC(=C(C=C5)O)O)O)O)C6=CC(=C(C=C6)O)O)O

> <PUBCHEM_OPENEYE_ISO_SMILES>
C1[C@H]([C@H](OC2=CC(=C(C(=C21)O)[C@@H]3[C@H]([C@H](OC4=CC(=CC(=C34)O)O)C5=CC(=C(C=C5)O)O)O)O)C6=CC(=C(C=C6)O)O)O

> <PUBCHEM_CACTVS_TPSA>
221

> <PUBCHEM_MONOISOTOPIC_WEIGHT>
578.142426

> <PUBCHEM_TOTAL_CHARGE>
0

> <PUBCHEM_HEAVY_ATOM_COUNT>
42

> <PUBCHEM_ATOM_DEF_STEREO_COUNT>
5

> <PUBCHEM_ATOM_UDEF_STEREO_COUNT>
0

> <PUBCHEM_BOND_DEF_STEREO_COUNT>
0

> <PUBCHEM_BOND_UDEF_STEREO_COUNT>
0

> <PUBCHEM_ISOTOPIC_ATOM_COUNT>
0

> <PUBCHEM_COMPONENT_COUNT>
1

> <PUBCHEM_CACTVS_TAUTO_COUNT>
986

> <PUBCHEM_COORDINATE_TYPE>
1
5
255

> <PUBCHEM_BONDANNOTATIONS>
13  43  5
15  26  5
16  20  8
16  25  8
17  22  8
17  27  8
18  20  8
18  24  8
22  29  8
23  30  6
24  28  8
25  28  8
26  32  8
26  33  8
27  31  8
29  34  8
14  3  5
30  35  8
30  36  8
31  34  8
32  37  8
33  38  8
35  40  8
36  41  8
37  39  8
38  39  8
40  42  8
41  42  8
21  5  6

$$$$

