13536
  -OEChem-06241222393D

 10  9  0     0  0  0  0  0  0999 V2000
   -0.9244   -0.7769    0.0003 O   0  0  0  0  0  0  0  0  0  0  0  0
   -0.4041    1.4780    0.0000 O   0  0  0  0  0  0  0  0  0  0  0  0
   -2.3221   -0.4682   -0.0003 C   0  0  0  0  0  0  0  0  0  0  0  0
   -0.0904    0.2970    0.0003 C   0  0  0  0  0  0  0  0  0  0  0  0
    1.2934   -0.1001   -0.0002 C   0  0  0  0  0  0  0  0  0  0  0  0
    2.4476   -0.4297    0.0000 C   0  0  0  0  0  0  0  0  0  0  0  0
   -2.5858    0.0957    0.8997 H   0  0  0  0  0  0  0  0  0  0  0  0
   -2.8783   -1.4093   -0.0003 H   0  0  0  0  0  0  0  0  0  0  0  0
   -2.5850    0.0954   -0.9006 H   0  0  0  0  0  0  0  0  0  0  0  0
    3.4717   -0.7221    0.0002 H   0  0  0  0  0  0  0  0  0  0  0  0
  1  3  1  0  0  0  0
  1  4  1  0  0  0  0
  2  4  2  0  0  0  0
  3  7  1  0  0  0  0
  3  8  1  0  0  0  0
  3  9  1  0  0  0  0
  4  5  1  0  0  0  0
  5  6  3  0  0  0  0
  6 10  1  0  0  0  0
M  END
> <PUBCHEM_COMPOUND_CID>
13536

> <PUBCHEM_CONFORMER_RMSD>
0.4

> <PUBCHEM_CONFORMER_DIVERSEORDER>
1

> <PUBCHEM_MMFF94_PARTIAL_CHARGES>
7
1 -0.43
10 0.18
2 -0.57
3 0.28
4 0.83
5 -0.1
6 -0.18

> <PUBCHEM_EFFECTIVE_ROTOR_COUNT>
1

> <PUBCHEM_PHARMACOPHORE_FEATURES>
2
1 2 acceptor
1 6 hydrophobe

> <PUBCHEM_HEAVY_ATOM_COUNT>
6

> <PUBCHEM_ATOM_DEF_STEREO_COUNT>
0

> <PUBCHEM_ATOM_UDEF_STEREO_COUNT>
0

> <PUBCHEM_BOND_DEF_STEREO_COUNT>
0

> <PUBCHEM_BOND_UDEF_STEREO_COUNT>
0

> <PUBCHEM_ISOTOPIC_ATOM_COUNT>
0

> <PUBCHEM_COMPONENT_COUNT>
1

> <PUBCHEM_CACTVS_TAUTO_COUNT>
1

> <PUBCHEM_CONFORMER_ID>
000034E000000001

> <PUBCHEM_MMFF94_ENERGY>
4.7603

> <PUBCHEM_FEATURE_SELFOVERLAP>
10.148

> <PUBCHEM_SHAPE_FINGERPRINT>
139733 1 9295296040282708962
16714656 1 18409447007223758479
21040471 1 17762056940401786532
23552423 10 18128811035527154046
29004967 10 18340484469735473154
5460574 1 9295293836959367266

> <PUBCHEM_SHAPE_MULTIPOLES>
111.74
3.12
1.04
0.58
0.23
0.35
0
-0.94
0
-0.21
0
0.02
-0.01
0

> <PUBCHEM_SHAPE_SELFOVERLAP>
205.463

> <PUBCHEM_SHAPE_VOLUME>
70.6

> <PUBCHEM_COORDINATE_TYPE>
2
5
10

$$$$

