47205574
  -OEChem-06241222593D

 34 36  0     0  0  0  0  0  0999 V2000
    5.3072   -1.4252    0.8994 S   0  0  0  0  0  0  0  0  0  0  0  0
    2.1034    1.5200   -0.8622 O   0  0  0  0  0  0  0  0  0  0  0  0
   -2.2489    0.0052    0.0719 N   0  0  0  0  0  0  0  0  0  0  0  0
    2.9487   -0.2804    0.3948 N   0  0  0  0  0  0  0  0  0  0  0  0
   -4.1528   -1.3050   -0.2704 N   0  0  0  0  0  0  0  0  0  0  0  0
   -4.3317    1.0606    0.1528 N   0  0  0  0  0  0  0  0  0  0  0  0
    5.0018    0.6109   -0.6262 N   0  0  0  0  0  0  0  0  0  0  0  0
    6.3582    0.3373   -0.6349 N   0  0  0  0  0  0  0  0  0  0  0  0
    0.6127    0.1812    0.4079 C   0  0  0  0  0  0  0  0  0  0  0  0
   -0.0168   -0.8381   -0.5386 C   0  0  0  0  0  0  0  0  0  0  0  0
   -0.2788    1.4160    0.5152 C   0  0  0  0  0  0  0  0  0  0  0  0
   -1.4360   -1.2035   -0.1054 C   0  0  0  0  0  0  0  0  0  0  0  0
   -1.6936    1.0424    0.9529 C   0  0  0  0  0  0  0  0  0  0  0  0
    1.9667    0.5667   -0.1024 C   0  0  0  0  0  0  0  0  0  0  0  0
   -3.6432   -0.0840   -0.0196 C   0  0  0  0  0  0  0  0  0  0  0  0
    4.3389   -0.2337    0.1344 C   0  0  0  0  0  0  0  0  0  0  0  0
   -5.4986   -1.3546   -0.3523 C   0  0  0  0  0  0  0  0  0  0  0  0
   -5.6720    0.9385    0.0580 C   0  0  0  0  0  0  0  0  0  0  0  0
   -6.3171   -0.2548   -0.1953 C   0  0  0  0  0  0  0  0  0  0  0  0
    6.6520   -0.6996    0.1200 C   0  0  0  0  0  0  0  0  0  0  0  0
    0.7072   -0.2612    1.4087 H   0  0  0  0  0  0  0  0  0  0  0  0
    0.1495    2.1332    1.2261 H   0  0  0  0  0  0  0  0  0  0  0  0
   -0.3385    1.9319   -0.4527 H   0  0  0  0  0  0  0  0  0  0  0  0
   -0.0432   -0.4314   -1.5588 H   0  0  0  0  0  0  0  0  0  0  0  0
    0.5949   -1.7473   -0.5848 H   0  0  0  0  0  0  0  0  0  0  0  0
   -2.2867    1.9640    0.9398 H   0  0  0  0  0  0  0  0  0  0  0  0
   -1.6863    0.6748    1.9867 H   0  0  0  0  0  0  0  0  0  0  0  0
   -1.4130   -1.7726    0.8322 H   0  0  0  0  0  0  0  0  0  0  0  0
   -1.8519   -1.8567   -0.8819 H   0  0  0  0  0  0  0  0  0  0  0  0
    2.6760   -1.0378    1.0165 H   0  0  0  0  0  0  0  0  0  0  0  0
   -5.9148   -2.3358   -0.5542 H   0  0  0  0  0  0  0  0  0  0  0  0
   -6.2319    1.8573    0.1960 H   0  0  0  0  0  0  0  0  0  0  0  0
   -7.3943   -0.3235   -0.2660 H   0  0  0  0  0  0  0  0  0  0  0  0
    7.6614   -1.0670    0.2406 H   0  0  0  0  0  0  0  0  0  0  0  0
  1 16  1  0  0  0  0
  1 20  1  0  0  0  0
  2 14  2  0  0  0  0
  3 12  1  0  0  0  0
  3 13  1  0  0  0  0
  3 15  1  0  0  0  0
  4 14  1  0  0  0  0
  4 16  1  0  0  0  0
  4 30  1  0  0  0  0
  5 15  1  0  0  0  0
  5 17  2  0  0  0  0
  6 15  2  0  0  0  0
  6 18  1  0  0  0  0
  7  8  1  0  0  0  0
  7 16  2  0  0  0  0
  8 20  2  0  0  0  0
  9 10  1  0  0  0  0
  9 11  1  0  0  0  0
  9 14  1  0  0  0  0
  9 21  1  0  0  0  0
 10 12  1  0  0  0  0
 10 24  1  0  0  0  0
 10 25  1  0  0  0  0
 11 13  1  0  0  0  0
 11 22  1  0  0  0  0
 11 23  1  0  0  0  0
 12 28  1  0  0  0  0
 12 29  1  0  0  0  0
 13 26  1  0  0  0  0
 13 27  1  0  0  0  0
 17 19  1  0  0  0  0
 17 31  1  0  0  0  0
 18 19  2  0  0  0  0
 18 32  1  0  0  0  0
 19 33  1  0  0  0  0
 20 34  1  0  0  0  0
M  END
> <PUBCHEM_COMPOUND_CID>
47205574

> <PUBCHEM_CONFORMER_RMSD>
0.8

> <PUBCHEM_CONFORMER_DIVERSEORDER>
3
8
28
34
30
24
40
44
42
15
20
39
22
14
21
18
31
43
36
7
4
9
45
33
35
32
6
16
11
23
27
26
19
25
10
17
38
29
2
41
37
13
1
5
12

> <PUBCHEM_MMFF94_PARTIAL_CHARGES>
23
1 -0.08
12 0.37
13 0.37
14 0.57
15 0.72
16 0.44
17 0.16
18 0.16
19 -0.15
2 -0.57
20 0.23
3 -0.84
30 0.37
31 0.15
32 0.15
33 0.15
34 0.15
4 -0.49
5 -0.62
6 -0.62
7 -0.34
8 -0.34
9 0.06

> <PUBCHEM_EFFECTIVE_ROTOR_COUNT>
5.2

> <PUBCHEM_PHARMACOPHORE_FEATURES>
8
1 2 acceptor
1 4 donor
1 5 acceptor
1 8 acceptor
4 3 5 6 15 cation
5 1 7 8 16 20 rings
6 3 9 10 11 12 13 rings
6 5 6 15 17 18 19 rings

> <PUBCHEM_HEAVY_ATOM_COUNT>
20

> <PUBCHEM_ATOM_DEF_STEREO_COUNT>
0

> <PUBCHEM_ATOM_UDEF_STEREO_COUNT>
0

> <PUBCHEM_BOND_DEF_STEREO_COUNT>
0

> <PUBCHEM_BOND_UDEF_STEREO_COUNT>
0

> <PUBCHEM_ISOTOPIC_ATOM_COUNT>
0

> <PUBCHEM_COMPONENT_COUNT>
1

> <PUBCHEM_CACTVS_TAUTO_COUNT>
3

> <PUBCHEM_CONFORMER_ID>
02D04CC600000003

> <PUBCHEM_MMFF94_ENERGY>
51.0718

> <PUBCHEM_FEATURE_SELFOVERLAP>
40.594

> <PUBCHEM_SHAPE_FINGERPRINT>
10 15 16950859046325627994
10968037 39 18409728452130312808
11315181 36 17967811635552782425
11524674 6 16443349762783838607
12091667 2 18131912667929851817
12166972 35 18410854334852771673
12236239 1 18413388739624988176
12516196 113 17967817145626648936
13288520 33 18334295358160003569
13533116 47 18201162148094275890
13590594 115 17775001314676269437
13862211 1 18187368709824406431
1420 363 16805321093590820994
14251752 14 18343307002226146957
14251764 18 18413107255689253295
14251764 46 18410576192775203786
15183329 4 18202568392630945615
17834072 33 18413389830594160634
18006028 8 17748829613450456857
18681886 176 18335145249818612712
19489759 90 18040715879171333801
200 152 18411419509603851513
20612939 158 17846212216030270052
21150785 3 18342452626247024540
21267235 1 18335980879615967411
21709351 56 18341621399725058685
220451 1 18413668023815197058
22079108 93 5256397301963718838
22224240 67 14345801547744946860
23035841 295 18408041818715987811
23198884 109 17275103938139102889
23402539 116 18186806876567542637
23522609 53 18197751436564728756
23536379 177 18131070449974593488
23559900 14 18188780439535980849
29717793 49 18412257351166666486
3004659 81 18412824686207850124
335352 9 18334298661269604709
34797466 226 17313097524378633516
397830 11 15792597139852957386
4073 2 17774436067352421378
42788 4 18410856559645070824
4340502 62 4823217225200544932
4463277 17 18410293605676432504
465052 167 18113898260935988886
5104073 3 18187642441286040219
559249 180 18409452496724940015
6138700 20 18409166640401675970

> <PUBCHEM_SHAPE_MULTIPOLES>
379.68
17.5
1.43
0.81
6.58
0.05
-0.05
3.54
1.01
-0.48
-0.04
0.46
-0.05
-1.06

> <PUBCHEM_SHAPE_SELFOVERLAP>
793.173

> <PUBCHEM_SHAPE_VOLUME>
215.9

> <PUBCHEM_COORDINATE_TYPE>
2
5
10

$$$$

