4336
  -OEChem-06261200032D

 61 60  0     1  0  0  0  0  0999 V2000
    7.1962    3.0000    0.0000 S   0  0  0  0  0  0  0  0  0  0  0  0
    6.3301    4.5000    0.0000 O   0  0  0  0  0  0  0  0  0  0  0  0
    7.1962    6.0000    0.0000 O   0  0  0  0  0  0  0  0  0  0  0  0
    9.7942    3.5000    0.0000 O   0  0  0  0  0  0  0  0  0  0  0  0
    8.9282    5.0000    0.0000 N   0  0  0  0  0  0  0  0  0  0  0  0
    5.4641   -1.0000    0.0000 C   0  0  0  0  0  0  0  0  0  0  0  0
    5.4641    0.0000    0.0000 C   0  0  0  0  0  0  0  0  0  0  0  0
    3.7320   -3.0000    0.0000 C   0  0  0  0  0  0  0  0  0  0  0  0
    4.5981   -2.5000    0.0000 C   0  0  0  0  0  0  0  0  0  0  0  0
    4.5981   -1.5000    0.0000 C   0  0  0  0  0  0  0  0  0  0  0  0
    6.3301    0.5000    0.0000 C   0  0  0  0  0  0  0  0  0  0  0  0
    3.7320   -4.0000    0.0000 C   0  0  0  0  0  0  0  0  0  0  0  0
    6.3301    1.5000    0.0000 C   0  0  0  0  0  0  0  0  0  0  0  0
    8.0622    4.5000    0.0000 C   0  0  3  0  0  0  0  0  0  0  0  0
    5.4641   -3.0000    0.0000 C   0  0  0  0  0  0  0  0  0  0  0  0
    7.1962    2.0000    0.0000 C   0  0  0  0  0  0  0  0  0  0  0  0
    8.0622    3.5000    0.0000 C   0  0  0  0  0  0  0  0  0  0  0  0
    7.1962    0.0000    0.0000 C   0  0  0  0  0  0  0  0  0  0  0  0
    2.8660   -4.5000    0.0000 C   0  0  0  0  0  0  0  0  0  0  0  0
    2.8660   -5.5000    0.0000 C   0  0  0  0  0  0  0  0  0  0  0  0
    7.1962    5.0000    0.0000 C   0  0  0  0  0  0  0  0  0  0  0  0
    2.0000   -6.0000    0.0000 C   0  0  0  0  0  0  0  0  0  0  0  0
    3.7320   -6.0000    0.0000 C   0  0  0  0  0  0  0  0  0  0  0  0
    9.7942    4.5000    0.0000 C   0  0  0  0  0  0  0  0  0  0  0  0
   10.6603    5.0000    0.0000 C   0  0  0  0  0  0  0  0  0  0  0  0
    5.4641    5.0000    0.0000 C   0  0  0  0  0  0  0  0  0  0  0  0
    5.2520    0.5826    0.0000 H   0  0  0  0  0  0  0  0  0  0  0  0
    4.8535   -0.1077    0.0000 H   0  0  0  0  0  0  0  0  0  0  0  0
    5.6762   -1.5826    0.0000 H   0  0  0  0  0  0  0  0  0  0  0  0
    6.0747   -0.8923    0.0000 H   0  0  0  0  0  0  0  0  0  0  0  0
    3.5200   -2.4174    0.0000 H   0  0  0  0  0  0  0  0  0  0  0  0
    3.1215   -3.1077    0.0000 H   0  0  0  0  0  0  0  0  0  0  0  0
    4.0611   -1.1900    0.0000 H   0  0  0  0  0  0  0  0  0  0  0  0
    3.9441   -4.5826    0.0000 H   0  0  0  0  0  0  0  0  0  0  0  0
    4.3426   -3.8923    0.0000 H   0  0  0  0  0  0  0  0  0  0  0  0
    5.7932    1.8100    0.0000 H   0  0  0  0  0  0  0  0  0  0  0  0
    8.0622    5.3500    0.0000 H   0  0  0  0  0  0  0  0  0  0  0  0
    5.1541   -3.5369    0.0000 H   0  0  0  0  0  0  0  0  0  0  0  0
    6.0010   -3.3100    0.0000 H   0  0  0  0  0  0  0  0  0  0  0  0
    5.7741   -2.4631    0.0000 H   0  0  0  0  0  0  0  0  0  0  0  0
    7.4082    1.4174    0.0000 H   0  0  0  0  0  0  0  0  0  0  0  0
    7.8067    2.1077    0.0000 H   0  0  0  0  0  0  0  0  0  0  0  0
    8.2742    2.9174    0.0000 H   0  0  0  0  0  0  0  0  0  0  0  0
    8.6728    3.6077    0.0000 H   0  0  0  0  0  0  0  0  0  0  0  0
    6.8862   -0.5369    0.0000 H   0  0  0  0  0  0  0  0  0  0  0  0
    7.7331   -0.3100    0.0000 H   0  0  0  0  0  0  0  0  0  0  0  0
    7.5062    0.5369    0.0000 H   0  0  0  0  0  0  0  0  0  0  0  0
    2.3291   -4.1900    0.0000 H   0  0  0  0  0  0  0  0  0  0  0  0
    8.9282    5.6200    0.0000 H   0  0  0  0  0  0  0  0  0  0  0  0
    1.6900   -5.4631    0.0000 H   0  0  0  0  0  0  0  0  0  0  0  0
    1.4631   -6.3100    0.0000 H   0  0  0  0  0  0  0  0  0  0  0  0
    2.3100   -6.5369    0.0000 H   0  0  0  0  0  0  0  0  0  0  0  0
    3.4220   -6.5369    0.0000 H   0  0  0  0  0  0  0  0  0  0  0  0
    4.2690   -6.3100    0.0000 H   0  0  0  0  0  0  0  0  0  0  0  0
    4.0420   -5.4631    0.0000 H   0  0  0  0  0  0  0  0  0  0  0  0
   10.9703    4.4631    0.0000 H   0  0  0  0  0  0  0  0  0  0  0  0
   11.1972    5.3100    0.0000 H   0  0  0  0  0  0  0  0  0  0  0  0
   10.3503    5.5369    0.0000 H   0  0  0  0  0  0  0  0  0  0  0  0
    5.7741    5.5369    0.0000 H   0  0  0  0  0  0  0  0  0  0  0  0
    4.9272    5.3100    0.0000 H   0  0  0  0  0  0  0  0  0  0  0  0
    5.1541    4.4631    0.0000 H   0  0  0  0  0  0  0  0  0  0  0  0
  1 16  1  0  0  0  0
  1 17  1  0  0  0  0
  2 21  1  0  0  0  0
  2 26  1  0  0  0  0
  3 21  2  0  0  0  0
  4 24  2  0  0  0  0
  5 14  1  0  0  0  0
  5 24  1  0  0  0  0
  5 49  1  0  0  0  0
  6  7  1  0  0  0  0
  6 10  1  0  0  0  0
  6 29  1  0  0  0  0
  6 30  1  0  0  0  0
  7 11  1  0  0  0  0
  7 27  1  0  0  0  0
  7 28  1  0  0  0  0
  8  9  1  0  0  0  0
  8 12  1  0  0  0  0
  8 31  1  0  0  0  0
  8 32  1  0  0  0  0
  9 10  2  3  0  0  0
  9 15  1  0  0  0  0
 10 33  1  0  0  0  0
 11 13  2  3  0  0  0
 11 18  1  0  0  0  0
 12 19  1  0  0  0  0
 12 34  1  0  0  0  0
 12 35  1  0  0  0  0
 13 16  1  0  0  0  0
 13 36  1  0  0  0  0
 14 17  1  0  0  0  0
 14 21  1  0  0  0  0
 14 37  1  0  0  0  0
 15 38  1  0  0  0  0
 15 39  1  0  0  0  0
 15 40  1  0  0  0  0
 16 41  1  0  0  0  0
 16 42  1  0  0  0  0
 17 43  1  0  0  0  0
 17 44  1  0  0  0  0
 18 45  1  0  0  0  0
 18 46  1  0  0  0  0
 18 47  1  0  0  0  0
 19 20  2  0  0  0  0
 19 48  1  0  0  0  0
 20 22  1  0  0  0  0
 20 23  1  0  0  0  0
 22 50  1  0  0  0  0
 22 51  1  0  0  0  0
 22 52  1  0  0  0  0
 23 53  1  0  0  0  0
 23 54  1  0  0  0  0
 23 55  1  0  0  0  0
 24 25  1  0  0  0  0
 25 56  1  0  0  0  0
 25 57  1  0  0  0  0
 25 58  1  0  0  0  0
 26 59  1  0  0  0  0
 26 60  1  0  0  0  0
 26 61  1  0  0  0  0
M  END
> <PUBCHEM_COMPOUND_CID>
4336

> <PUBCHEM_COMPOUND_CANONICALIZED>
1

> <PUBCHEM_CACTVS_COMPLEXITY>
531

> <PUBCHEM_CACTVS_HBOND_ACCEPTOR>
4

> <PUBCHEM_CACTVS_HBOND_DONOR>
1

> <PUBCHEM_CACTVS_ROTATABLE_BOND>
13

> <PUBCHEM_CACTVS_SUBSKEYS>
AAADcfB6MABAAAAAAAAAAAAAAAAAAAAAAAAAAAAAAAAAAAAAAAAAHgQQAAAADCjFwAaCCALABAiIAiHSGAAAAAAgABAACIGIAAgCAAIgASABAAAAlgC4AAIAAAAAAAAAAAAAAAAAAAAAAAAAAAAAAAAAAA==

> <PUBCHEM_IUPAC_OPENEYE_NAME>
methyl 2-acetamido-3-(3,7,11-trimethyldodeca-2,6,10-trienylsulfanyl)propanoate

> <PUBCHEM_IUPAC_CAS_NAME>
2-acetamido-3-(3,7,11-trimethyldodeca-2,6,10-trienylthio)propanoic acid methyl ester

> <PUBCHEM_IUPAC_NAME>
methyl 2-acetamido-3-(3,7,11-trimethyldodeca-2,6,10-trienylsulfanyl)propanoate

> <PUBCHEM_IUPAC_SYSTEMATIC_NAME>
methyl 2-acetamido-3-(3,7,11-trimethyldodeca-2,6,10-trienylsulfanyl)propanoate

> <PUBCHEM_IUPAC_TRADITIONAL_NAME>
2-acetamido-3-(3,7,11-trimethyldodeca-2,6,10-trienylthio)propionic acid methyl ester

> <PUBCHEM_IUPAC_INCHI>
InChI=1S/C21H35NO3S/c1-16(2)9-7-10-17(3)11-8-12-18(4)13-14-26-15-20(21(24)25-6)22-19(5)23/h9,11,13,20H,7-8,10,12,14-15H2,1-6H3,(H,22,23)

> <PUBCHEM_IUPAC_INCHIKEY>
MXSBUVKSWFWHTQ-UHFFFAOYSA-N

> <PUBCHEM_XLOGP3_AA>
5.4

> <PUBCHEM_EXACT_MASS>
381.233765

> <PUBCHEM_MOLECULAR_FORMULA>
C21H35NO3S

> <PUBCHEM_MOLECULAR_WEIGHT>
381.5725

> <PUBCHEM_OPENEYE_CAN_SMILES>
CC(=CCCC(=CCCC(=CCSCC(C(=O)OC)NC(=O)C)C)C)C

> <PUBCHEM_OPENEYE_ISO_SMILES>
CC(=CCCC(=CCCC(=CCSCC(C(=O)OC)NC(=O)C)C)C)C

> <PUBCHEM_CACTVS_TPSA>
80.7

> <PUBCHEM_MONOISOTOPIC_WEIGHT>
381.233765

> <PUBCHEM_TOTAL_CHARGE>
0

> <PUBCHEM_HEAVY_ATOM_COUNT>
26

> <PUBCHEM_ATOM_DEF_STEREO_COUNT>
0

> <PUBCHEM_ATOM_UDEF_STEREO_COUNT>
1

> <PUBCHEM_BOND_DEF_STEREO_COUNT>
0

> <PUBCHEM_BOND_UDEF_STEREO_COUNT>
2

> <PUBCHEM_ISOTOPIC_ATOM_COUNT>
0

> <PUBCHEM_COMPONENT_COUNT>
1

> <PUBCHEM_CACTVS_TAUTO_COUNT>
2

> <PUBCHEM_COORDINATE_TYPE>
1
5
255

> <PUBCHEM_BONDANNOTATIONS>
11  13  1
14  37  3
9  10  1

$$$$

