3761
  -OEChem-06251223393D

 55 58  0     1  0  0  0  0  0999 V2000
   -3.5139   -1.1319    0.8831 O   0  0  0  0  0  0  0  0  0  0  0  0
   -0.7209    1.8667   -0.0693 O   0  0  0  0  0  0  0  0  0  0  0  0
    0.5914   -1.9681    0.8922 O   0  0  0  0  0  0  0  0  0  0  0  0
    3.0346   -0.8666    1.4565 O   0  0  0  0  0  0  0  0  0  0  0  0
    3.7156    3.2983   -0.7146 O   0  0  0  0  0  0  0  0  0  0  0  0
   -7.1197    1.7082   -0.2923 O   0  0  0  0  0  0  0  0  0  0  0  0
   -1.1670   -0.4361    0.4169 C   0  0  0  0  0  0  0  0  0  0  0  0
   -2.1668   -1.5608    0.5883 C   0  0  2  0  0  0  0  0  0  0  0  0
   -1.5803    0.8036    0.1157 C   0  0  0  0  0  0  0  0  0  0  0  0
    1.1537    0.3541    0.4762 C   0  0  0  0  0  0  0  0  0  0  0  0
    0.2615   -0.6606    0.6043 C   0  0  0  0  0  0  0  0  0  0  0  0
   -3.0105    1.0619   -0.0361 C   0  0  0  0  0  0  0  0  0  0  0  0
    0.6508    1.6613    0.0285 C   0  0  0  0  0  0  0  0  0  0  0  0
   -3.9139    0.0707    0.3631 C   0  0  0  0  0  0  0  0  0  0  0  0
    2.5965    0.2317    0.7391 C   0  0  0  0  0  0  0  0  0  0  0  0
   -2.2213   -2.4689   -0.6062 C   0  0  0  0  0  0  0  0  0  0  0  0
    3.4695    1.1862    0.3669 C   0  0  0  0  0  0  0  0  0  0  0  0
    1.4896    2.6396   -0.3323 C   0  0  0  0  0  0  0  0  0  0  0  0
   -3.5113    2.2726   -0.5338 C   0  0  0  0  0  0  0  0  0  0  0  0
    2.9579    2.4388   -0.2746 C   0  0  0  0  0  0  0  0  0  0  0  0
   -5.2918    0.2894    0.2883 C   0  0  0  0  0  0  0  0  0  0  0  0
    4.9510    1.1210    0.5940 C   0  0  0  0  0  0  0  0  0  0  0  0
   -1.9691   -3.7913   -0.6480 C   0  0  0  0  0  0  0  0  0  0  0  0
   -4.8888    2.4851   -0.6240 C   0  0  0  0  0  0  0  0  0  0  0  0
   -5.7780    1.4958   -0.2107 C   0  0  0  0  0  0  0  0  0  0  0  0
    5.6573    0.4696   -0.5532 C   0  0  0  0  0  0  0  0  0  0  0  0
   -2.0689   -4.5619   -1.9350 C   0  0  0  0  0  0  0  0  0  0  0  0
   -1.5747   -4.6051    0.5519 C   0  0  0  0  0  0  0  0  0  0  0  0
    6.3744   -0.6706   -0.5393 C   0  0  0  0  0  0  0  0  0  0  0  0
    7.0624   -1.2753   -1.7303 C   0  0  0  0  0  0  0  0  0  0  0  0
    6.5309   -1.4577    0.7347 C   0  0  0  0  0  0  0  0  0  0  0  0
   -1.9077   -2.1005    1.4991 H   0  0  0  0  0  0  0  0  0  0  0  0
   -2.5089   -1.9827   -1.5387 H   0  0  0  0  0  0  0  0  0  0  0  0
    1.1274    3.5951   -0.6958 H   0  0  0  0  0  0  0  0  0  0  0  0
   -2.8422    3.0669   -0.8556 H   0  0  0  0  0  0  0  0  0  0  0  0
   -5.9853   -0.4818    0.6144 H   0  0  0  0  0  0  0  0  0  0  0  0
    5.3623    2.1315    0.7146 H   0  0  0  0  0  0  0  0  0  0  0  0
    5.1589    0.6492    1.5580 H   0  0  0  0  0  0  0  0  0  0  0  0
   -5.2543    3.4315   -1.0139 H   0  0  0  0  0  0  0  0  0  0  0  0
    0.0034   -2.2956    1.5908 H   0  0  0  0  0  0  0  0  0  0  0  0
    5.5826    0.9990   -1.5028 H   0  0  0  0  0  0  0  0  0  0  0  0
   -2.8264   -5.3477   -1.8494 H   0  0  0  0  0  0  0  0  0  0  0  0
   -2.3453   -3.9246   -2.7815 H   0  0  0  0  0  0  0  0  0  0  0  0
   -1.1074   -5.0292   -2.1715 H   0  0  0  0  0  0  0  0  0  0  0  0
   -0.5362   -4.9376    0.4509 H   0  0  0  0  0  0  0  0  0  0  0  0
   -1.6684   -4.0879    1.5070 H   0  0  0  0  0  0  0  0  0  0  0  0
   -2.2100   -5.4953    0.6206 H   0  0  0  0  0  0  0  0  0  0  0  0
    2.2701   -1.3574    1.7981 H   0  0  0  0  0  0  0  0  0  0  0  0
   -7.2767    2.5950   -0.6597 H   0  0  0  0  0  0  0  0  0  0  0  0
    8.1360   -1.3739   -1.5406 H   0  0  0  0  0  0  0  0  0  0  0  0
    6.9362   -0.6566   -2.6249 H   0  0  0  0  0  0  0  0  0  0  0  0
    6.6513   -2.2661   -1.9485 H   0  0  0  0  0  0  0  0  0  0  0  0
    5.7648   -1.2704    1.4877 H   0  0  0  0  0  0  0  0  0  0  0  0
    6.4717   -2.5308    0.5183 H   0  0  0  0  0  0  0  0  0  0  0  0
    7.5123   -1.2598    1.1780 H   0  0  0  0  0  0  0  0  0  0  0  0
  1  8  1  0  0  0  0
  1 14  1  0  0  0  0
  2  9  1  0  0  0  0
  2 13  1  0  0  0  0
  3 11  1  0  0  0  0
  3 40  1  0  0  0  0
  4 15  1  0  0  0  0
  4 48  1  0  0  0  0
  5 20  2  0  0  0  0
  6 25  1  0  0  0  0
  6 49  1  0  0  0  0
  7  8  1  0  0  0  0
  7  9  2  0  0  0  0
  7 11  1  0  0  0  0
  8 16  1  0  0  0  0
  8 32  1  0  0  0  0
  9 12  1  0  0  0  0
 10 11  2  0  0  0  0
 10 13  1  0  0  0  0
 10 15  1  0  0  0  0
 12 14  2  0  0  0  0
 12 19  1  0  0  0  0
 13 18  2  0  0  0  0
 14 21  1  0  0  0  0
 15 17  2  0  0  0  0
 16 23  2  0  0  0  0
 16 33  1  0  0  0  0
 17 20  1  0  0  0  0
 17 22  1  0  0  0  0
 18 20  1  0  0  0  0
 18 34  1  0  0  0  0
 19 24  2  0  0  0  0
 19 35  1  0  0  0  0
 21 25  2  0  0  0  0
 21 36  1  0  0  0  0
 22 26  1  0  0  0  0
 22 37  1  0  0  0  0
 22 38  1  0  0  0  0
 23 27  1  0  0  0  0
 23 28  1  0  0  0  0
 24 25  1  0  0  0  0
 24 39  1  0  0  0  0
 26 29  2  0  0  0  0
 26 41  1  0  0  0  0
 27 42  1  0  0  0  0
 27 43  1  0  0  0  0
 27 44  1  0  0  0  0
 28 45  1  0  0  0  0
 28 46  1  0  0  0  0
 28 47  1  0  0  0  0
 29 30  1  0  0  0  0
 29 31  1  0  0  0  0
 30 50  1  0  0  0  0
 30 51  1  0  0  0  0
 30 52  1  0  0  0  0
 31 53  1  0  0  0  0
 31 54  1  0  0  0  0
 31 55  1  0  0  0  0
M  END
> <PUBCHEM_COMPOUND_CID>
3761

> <PUBCHEM_CONFORMER_RMSD>
0.8

> <PUBCHEM_CONFORMER_DIVERSEORDER>
7
9
14
5
13
1
11
8
6
3
10
4
2
12

> <PUBCHEM_MMFF94_PARTIAL_CHARGES>
39
1 -0.36
11 0.08
12 0.03
13 0.08
14 0.08
15 0.08
16 -0.29
17 -0.12
18 -0.14
19 -0.15
2 -0.15
20 0.54
21 -0.15
22 0.28
23 -0.28
24 -0.15
25 0.08
26 -0.29
27 0.14
28 0.14
29 -0.28
3 -0.53
30 0.14
31 0.14
33 0.15
34 0.15
35 0.15
36 0.15
39 0.15
4 -0.53
40 0.45
41 0.15
48 0.45
49 0.45
5 -0.57
6 -0.53
7 -0.14
8 0.56
9 0.05

> <PUBCHEM_EFFECTIVE_ROTOR_COUNT>
3.4

> <PUBCHEM_PHARMACOPHORE_FEATURES>
12
1 1 acceptor
1 2 acceptor
1 3 donor
1 4 donor
1 5 acceptor
1 6 donor
3 23 27 28 hydrophobe
3 29 30 31 hydrophobe
6 1 7 8 9 12 14 rings
6 10 13 15 17 18 20 rings
6 12 14 19 21 24 25 rings
6 2 7 9 10 11 13 rings

> <PUBCHEM_HEAVY_ATOM_COUNT>
31

> <PUBCHEM_ATOM_DEF_STEREO_COUNT>
0

> <PUBCHEM_ATOM_UDEF_STEREO_COUNT>
1

> <PUBCHEM_BOND_DEF_STEREO_COUNT>
0

> <PUBCHEM_BOND_UDEF_STEREO_COUNT>
0

> <PUBCHEM_ISOTOPIC_ATOM_COUNT>
0

> <PUBCHEM_COMPONENT_COUNT>
1

> <PUBCHEM_CACTVS_TAUTO_COUNT>
69

> <PUBCHEM_CONFORMER_ID>
00000EB100000007

> <PUBCHEM_MMFF94_ENERGY>
89.658

> <PUBCHEM_FEATURE_SELFOVERLAP>
60.978

> <PUBCHEM_SHAPE_FINGERPRINT>
10050765 1 18267304227629863968
10254770 206 18124888013085543834
10462674 125 14569317710513078734
11297010 23 18125740112963569637
11524674 6 18040157335575147447
11796584 16 18261110764914894186
11991303 11 18413107255895449903
12643181 29 18408884062509862022
12788726 201 18121235181827725635
13008946 267 17610888372950545001
138480 1 17690848182721314899
14068700 686 17543635232182323128
14347332 77 18120376458355353430
14790565 3 18339924938565866217
14856354 85 16702010976686776105
15042514 8 18195805168498422843
15131766 46 15481808075307417422
15183329 4 18339918320675182776
15276724 80 18048875191858069903
15361156 5 18129087945327909300
15927050 60 18409172125576690127
16090146 7 18187914118888700963
17492 89 18050283674759094726
18603816 31 17313396651280535246
18681886 176 18412269445067312481
19301676 85 18118952827511773966
19301679 30 17979353058253909482
19319366 153 17559956691948959258
19958102 18 18411429400908266407
20775438 99 16962151936922679381
21033648 29 18261690224232517913
21133410 171 17039571900256619562
21267235 1 18343576339757265049
21279426 13 18341892996113802052
21307412 95 18188190105725629342
21703447 108 17612608725794005536
21781051 124 18129639947177389697
21781055 127 18117534414456351889
23559900 14 18334016060684804808
23569917 315 18334288756907001279
23576562 1 18200864072747174132
249057 3 18411418423367645588
3004659 81 18201995556749706812
335352 9 18413671326734867876
3383291 50 18334015016464146899
340366 18 18411132520279640148
350125 39 18273496801233920977
3633792 109 18187927360811165065
38695281 34 18410294748417230131
4017518 198 18114183077023535086
4073 2 17988358145101496808
44062 13 18336260142194157174
513202 73 18197487429626082707
5265222 85 18412258415685637412
633830 44 17488465178794981288
6669772 16 18115024224951447551
7970288 3 17396705281207104286

> <PUBCHEM_SHAPE_MULTIPOLES>
602.75
15.26
4.71
1.12
12.49
5.63
0.24
-3.91
3.08
-3.81
1.66
0.72
0.8
0.08

> <PUBCHEM_SHAPE_SELFOVERLAP>
1318.635

> <PUBCHEM_SHAPE_VOLUME>
325.2

> <PUBCHEM_COORDINATE_TYPE>
2
5
10

$$$$

