2131
  -OEChem-07051212542D

 78 79  0     0  0  0  0  0  0999 V2000
   11.5263    4.7500    0.0000 Cl  0  0  0  0  0  0  0  0  0  0  0  0
    2.0000   -4.7500    0.0000 Cl  0  0  0  0  0  0  0  0  0  0  0  0
    8.0622   -0.2500    0.0000 O   0  0  0  0  0  0  0  0  0  0  0  0
    5.4641    0.2500    0.0000 O   0  0  0  0  0  0  0  0  0  0  0  0
    8.9282    3.2500    0.0000 N   0  3  0  0  0  0  0  0  0  0  0  0
    4.5981   -3.2500    0.0000 N   0  3  0  0  0  0  0  0  0  0  0  0
    7.1962    1.2500    0.0000 N   0  0  0  0  0  0  0  0  0  0  0  0
    6.3301   -1.2500    0.0000 N   0  0  0  0  0  0  0  0  0  0  0  0
    8.0622    2.7500    0.0000 C   0  0  0  0  0  0  0  0  0  0  0  0
    5.4641   -2.7500    0.0000 C   0  0  0  0  0  0  0  0  0  0  0  0
    3.7320   -3.7500    0.0000 C   0  0  0  0  0  0  0  0  0  0  0  0
    9.7942    3.7500    0.0000 C   0  0  0  0  0  0  0  0  0  0  0  0
    4.0981   -2.3840    0.0000 C   0  0  0  0  0  0  0  0  0  0  0  0
    5.0981   -4.1160    0.0000 C   0  0  0  0  0  0  0  0  0  0  0  0
    8.4282    4.1160    0.0000 C   0  0  0  0  0  0  0  0  0  0  0  0
    9.4282    2.3840    0.0000 C   0  0  0  0  0  0  0  0  0  0  0  0
    8.0622    1.7500    0.0000 C   0  0  0  0  0  0  0  0  0  0  0  0
    5.4641   -1.7500    0.0000 C   0  0  0  0  0  0  0  0  0  0  0  0
    3.7320   -4.7500    0.0000 C   0  0  0  0  0  0  0  0  0  0  0  0
    9.7942    4.7500    0.0000 C   0  0  0  0  0  0  0  0  0  0  0  0
    3.0981   -2.3840    0.0000 C   0  0  0  0  0  0  0  0  0  0  0  0
    6.0981   -4.1160    0.0000 C   0  0  0  0  0  0  0  0  0  0  0  0
    7.4282    4.1160    0.0000 C   0  0  0  0  0  0  0  0  0  0  0  0
   10.4282    2.3840    0.0000 C   0  0  0  0  0  0  0  0  0  0  0  0
    2.8660   -5.2500    0.0000 C   0  0  0  0  0  0  0  0  0  0  0  0
   10.6603    5.2500    0.0000 C   0  0  0  0  0  0  0  0  0  0  0  0
    8.9282    5.2500    0.0000 C   0  0  0  0  0  0  0  0  0  0  0  0
    4.5981   -5.2500    0.0000 C   0  0  0  0  0  0  0  0  0  0  0  0
    6.3301   -0.2500    0.0000 C   0  0  0  0  0  0  0  0  0  0  0  0
    7.1962    0.2500    0.0000 C   0  0  0  0  0  0  0  0  0  0  0  0
   10.6603    6.2500    0.0000 C   0  0  0  0  0  0  0  0  0  0  0  0
    2.8660   -6.2500    0.0000 C   0  0  0  0  0  0  0  0  0  0  0  0
    4.5981   -6.2500    0.0000 C   0  0  0  0  0  0  0  0  0  0  0  0
    8.9282    6.2500    0.0000 C   0  0  0  0  0  0  0  0  0  0  0  0
    3.7320   -6.7500    0.0000 C   0  0  0  0  0  0  0  0  0  0  0  0
    9.7942    6.7500    0.0000 C   0  0  0  0  0  0  0  0  0  0  0  0
    7.8501    3.3326    0.0000 H   0  0  0  0  0  0  0  0  0  0  0  0
    7.4516    2.6423    0.0000 H   0  0  0  0  0  0  0  0  0  0  0  0
    5.6762   -3.3326    0.0000 H   0  0  0  0  0  0  0  0  0  0  0  0
    6.0747   -2.6423    0.0000 H   0  0  0  0  0  0  0  0  0  0  0  0
    3.5200   -3.1674    0.0000 H   0  0  0  0  0  0  0  0  0  0  0  0
    3.1215   -3.8577    0.0000 H   0  0  0  0  0  0  0  0  0  0  0  0
   10.0063    3.1674    0.0000 H   0  0  0  0  0  0  0  0  0  0  0  0
   10.4048    3.8577    0.0000 H   0  0  0  0  0  0  0  0  0  0  0  0
    4.5155   -4.3281    0.0000 H   0  0  0  0  0  0  0  0  0  0  0  0
    5.2057   -4.7266    0.0000 H   0  0  0  0  0  0  0  0  0  0  0  0
    4.6807   -2.1719    0.0000 H   0  0  0  0  0  0  0  0  0  0  0  0
    3.9904   -1.7734    0.0000 H   0  0  0  0  0  0  0  0  0  0  0  0
    9.0108    4.3281    0.0000 H   0  0  0  0  0  0  0  0  0  0  0  0
    8.3205    4.7266    0.0000 H   0  0  0  0  0  0  0  0  0  0  0  0
    8.8456    2.1719    0.0000 H   0  0  0  0  0  0  0  0  0  0  0  0
    9.5359    1.7734    0.0000 H   0  0  0  0  0  0  0  0  0  0  0  0
    5.2520   -1.1674    0.0000 H   0  0  0  0  0  0  0  0  0  0  0  0
    4.8535   -1.8577    0.0000 H   0  0  0  0  0  0  0  0  0  0  0  0
    8.2742    1.1674    0.0000 H   0  0  0  0  0  0  0  0  0  0  0  0
    8.6728    1.8577    0.0000 H   0  0  0  0  0  0  0  0  0  0  0  0
    3.0981   -1.7640    0.0000 H   0  0  0  0  0  0  0  0  0  0  0  0
    2.4781   -2.3840    0.0000 H   0  0  0  0  0  0  0  0  0  0  0  0
    3.0981   -3.0040    0.0000 H   0  0  0  0  0  0  0  0  0  0  0  0
    6.0981   -4.7360    0.0000 H   0  0  0  0  0  0  0  0  0  0  0  0
    6.7181   -4.1160    0.0000 H   0  0  0  0  0  0  0  0  0  0  0  0
    6.0981   -3.4960    0.0000 H   0  0  0  0  0  0  0  0  0  0  0  0
    7.4282    4.7360    0.0000 H   0  0  0  0  0  0  0  0  0  0  0  0
    6.8082    4.1160    0.0000 H   0  0  0  0  0  0  0  0  0  0  0  0
    7.4282    3.4960    0.0000 H   0  0  0  0  0  0  0  0  0  0  0  0
   10.4282    1.7640    0.0000 H   0  0  0  0  0  0  0  0  0  0  0  0
   11.0482    2.3840    0.0000 H   0  0  0  0  0  0  0  0  0  0  0  0
   10.4282    3.0040    0.0000 H   0  0  0  0  0  0  0  0  0  0  0  0
    6.6592    1.5600    0.0000 H   0  0  0  0  0  0  0  0  0  0  0  0
    6.8671   -1.5600    0.0000 H   0  0  0  0  0  0  0  0  0  0  0  0
    5.1350   -4.9400    0.0000 H   0  0  0  0  0  0  0  0  0  0  0  0
    8.3913    4.9400    0.0000 H   0  0  0  0  0  0  0  0  0  0  0  0
    2.3291   -6.5600    0.0000 H   0  0  0  0  0  0  0  0  0  0  0  0
   11.1972    6.5600    0.0000 H   0  0  0  0  0  0  0  0  0  0  0  0
    5.1350   -6.5600    0.0000 H   0  0  0  0  0  0  0  0  0  0  0  0
    8.3913    6.5600    0.0000 H   0  0  0  0  0  0  0  0  0  0  0  0
    3.7320   -7.3700    0.0000 H   0  0  0  0  0  0  0  0  0  0  0  0
    9.7942    7.3700    0.0000 H   0  0  0  0  0  0  0  0  0  0  0  0
  1 26  1  0  0  0  0
  2 25  1  0  0  0  0
  3 30  2  0  0  0  0
  4 29  2  0  0  0  0
  5  9  1  0  0  0  0
  5 12  1  0  0  0  0
  5 15  1  0  0  0  0
  5 16  1  0  0  0  0
  6 10  1  0  0  0  0
  6 11  1  0  0  0  0
  6 13  1  0  0  0  0
  6 14  1  0  0  0  0
  7 17  1  0  0  0  0
  7 30  1  0  0  0  0
  7 69  1  0  0  0  0
  8 18  1  0  0  0  0
  8 29  1  0  0  0  0
  8 70  1  0  0  0  0
  9 17  1  0  0  0  0
  9 37  1  0  0  0  0
  9 38  1  0  0  0  0
 10 18  1  0  0  0  0
 10 39  1  0  0  0  0
 10 40  1  0  0  0  0
 11 19  1  0  0  0  0
 11 41  1  0  0  0  0
 11 42  1  0  0  0  0
 12 20  1  0  0  0  0
 12 43  1  0  0  0  0
 12 44  1  0  0  0  0
 13 21  1  0  0  0  0
 13 47  1  0  0  0  0
 13 48  1  0  0  0  0
 14 22  1  0  0  0  0
 14 45  1  0  0  0  0
 14 46  1  0  0  0  0
 15 23  1  0  0  0  0
 15 49  1  0  0  0  0
 15 50  1  0  0  0  0
 16 24  1  0  0  0  0
 16 51  1  0  0  0  0
 16 52  1  0  0  0  0
 17 55  1  0  0  0  0
 17 56  1  0  0  0  0
 18 53  1  0  0  0  0
 18 54  1  0  0  0  0
 19 25  1  0  0  0  0
 19 28  2  0  0  0  0
 20 26  1  0  0  0  0
 20 27  2  0  0  0  0
 21 57  1  0  0  0  0
 21 58  1  0  0  0  0
 21 59  1  0  0  0  0
 22 60  1  0  0  0  0
 22 61  1  0  0  0  0
 22 62  1  0  0  0  0
 23 63  1  0  0  0  0
 23 64  1  0  0  0  0
 23 65  1  0  0  0  0
 24 66  1  0  0  0  0
 24 67  1  0  0  0  0
 24 68  1  0  0  0  0
 25 32  2  0  0  0  0
 26 31  2  0  0  0  0
 27 34  1  0  0  0  0
 27 72  1  0  0  0  0
 28 33  1  0  0  0  0
 28 71  1  0  0  0  0
 29 30  1  0  0  0  0
 31 36  1  0  0  0  0
 31 74  1  0  0  0  0
 32 35  1  0  0  0  0
 32 73  1  0  0  0  0
 33 35  2  0  0  0  0
 33 75  1  0  0  0  0
 34 36  2  0  0  0  0
 34 76  1  0  0  0  0
 35 77  1  0  0  0  0
 36 78  1  0  0  0  0
M  CHG  2   5   1   6   1
M  END
> <PUBCHEM_COMPOUND_CID>
2131

> <PUBCHEM_COMPOUND_CANONICALIZED>
1

> <PUBCHEM_CACTVS_COMPLEXITY>
614

> <PUBCHEM_CACTVS_HBOND_ACCEPTOR>
2

> <PUBCHEM_CACTVS_HBOND_DONOR>
2

> <PUBCHEM_CACTVS_ROTATABLE_BOND>
14

> <PUBCHEM_CACTVS_SUBSKEYS>
AAADcfB7sAAGAAAAAAAAAAAAAAAAAAAAAAAwYAAAAAAAAAABQAAAHgIQAAAADALBmCQyAIPAAACIAiFSEACCAAAgBQAIiICIBogIYCKBkzGUIAhglgCIiAcQgAAOAAAAAAABAAAAAAAAAAIAAAAAAAAAAA==

> <PUBCHEM_IUPAC_OPENEYE_NAME>
(2-chlorophenyl)methyl-[2-[[2-[2-[(2-chlorophenyl)methyl-diethyl-ammonio]ethylamino]-2-oxo-acetyl]amino]ethyl]-diethyl-ammonium

> <PUBCHEM_IUPAC_CAS_NAME>
(2-chlorophenyl)methyl-[2-[[2-[2-[(2-chlorophenyl)methyl-diethylammonio]ethylamino]-1,2-dioxoethyl]amino]ethyl]-diethylammonium

> <PUBCHEM_IUPAC_NAME>
(2-chlorophenyl)methyl-[2-[[2-[2-[(2-chlorophenyl)methyl-diethylazaniumyl]ethylamino]-2-oxoacetyl]amino]ethyl]-diethylazanium

> <PUBCHEM_IUPAC_SYSTEMATIC_NAME>
(2-chlorophenyl)methyl-[2-[[2-[2-[(2-chlorophenyl)methyl-diethyl-azaniumyl]ethylamino]-2-oxidanylidene-ethanoyl]amino]ethyl]-diethyl-azanium

> <PUBCHEM_IUPAC_TRADITIONAL_NAME>
(2-chlorobenzyl)-[2-[[2-[2-[(2-chlorobenzyl)-diethyl-ammonio]ethylamino]-2-keto-acetyl]amino]ethyl]-diethyl-ammonium

> <PUBCHEM_IUPAC_INCHI>
InChI=1S/C28H40Cl2N4O2/c1-5-33(6-2,21-23-13-9-11-15-25(23)29)19-17-31-27(35)28(36)32-18-20-34(7-3,8-4)22-24-14-10-12-16-26(24)30/h9-16H,5-8,17-22H2,1-4H3/p+2

> <PUBCHEM_IUPAC_INCHIKEY>
OMHBPUNFVFNHJK-UHFFFAOYSA-P

> <PUBCHEM_XLOGP3_AA>
5.1

> <PUBCHEM_EXACT_MASS>
536.268482

> <PUBCHEM_MOLECULAR_FORMULA>
C28H42Cl2N4O2+2

> <PUBCHEM_MOLECULAR_WEIGHT>
537.56468

> <PUBCHEM_OPENEYE_CAN_SMILES>
CC[N+](CC)(CCNC(=O)C(=O)NCC[N+](CC)(CC)CC1=CC=CC=C1Cl)CC2=CC=CC=C2Cl

> <PUBCHEM_OPENEYE_ISO_SMILES>
CC[N+](CC)(CCNC(=O)C(=O)NCC[N+](CC)(CC)CC1=CC=CC=C1Cl)CC2=CC=CC=C2Cl

> <PUBCHEM_CACTVS_TPSA>
58.2

> <PUBCHEM_MONOISOTOPIC_WEIGHT>
536.268482

> <PUBCHEM_TOTAL_CHARGE>
2

> <PUBCHEM_HEAVY_ATOM_COUNT>
36

> <PUBCHEM_ATOM_DEF_STEREO_COUNT>
0

> <PUBCHEM_ATOM_UDEF_STEREO_COUNT>
0

> <PUBCHEM_BOND_DEF_STEREO_COUNT>
0

> <PUBCHEM_BOND_UDEF_STEREO_COUNT>
0

> <PUBCHEM_ISOTOPIC_ATOM_COUNT>
0

> <PUBCHEM_COMPONENT_COUNT>
1

> <PUBCHEM_CACTVS_TAUTO_COUNT>
3

> <PUBCHEM_COORDINATE_TYPE>
1
5
255

> <PUBCHEM_BONDANNOTATIONS>
19  25  8
19  28  8
20  26  8
20  27  8
25  32  8
26  31  8
27  34  8
28  33  8
31  36  8
32  35  8
33  35  8
34  36  8

$$$$

