479499
  -OEChem-07051213103D

 49 50  0     1  0  0  0  0  0999 V2000
    1.9603   -0.0266   -0.1039 O   0  0  0  0  0  0  0  0  0  0  0  0
   -0.2010    1.3659    1.2636 O   0  0  0  0  0  0  0  0  0  0  0  0
   -2.2755    1.4862    2.8014 O   0  0  0  0  0  0  0  0  0  0  0  0
   -2.9814   -1.0255   -2.6226 O   0  0  0  0  0  0  0  0  0  0  0  0
   -5.1612   -0.9821   -1.1999 O   0  0  0  0  0  0  0  0  0  0  0  0
    1.1544   -1.9903   -1.0091 O   0  0  0  0  0  0  0  0  0  0  0  0
    1.2277    0.7322   -1.0598 C   0  0  1  0  0  0  0  0  0  0  0  0
   -0.2303    0.4262   -0.8959 C   0  0  0  0  0  0  0  0  0  0  0  0
    1.5709    2.2207   -0.9251 C   0  0  0  0  0  0  0  0  0  0  0  0
   -2.3019    0.5244    0.5734 C   0  0  0  0  0  0  0  0  0  0  0  0
   -0.8657    0.8172    0.3921 C   0  0  0  0  0  0  0  0  0  0  0  0
   -3.0345   -0.0998   -0.4374 C   0  0  0  0  0  0  0  0  0  0  0  0
   -0.9470   -0.1716   -1.8546 C   0  0  0  0  0  0  0  0  0  0  0  0
   -2.3842   -0.4775   -1.7042 C   0  0  0  0  0  0  0  0  0  0  0  0
    3.0205    2.5416   -1.1845 C   0  0  0  0  0  0  0  0  0  0  0  0
   -2.9319    0.8775    1.7729 C   0  0  0  0  0  0  0  0  0  0  0  0
   -4.3951   -0.3713   -0.2520 C   0  0  0  0  0  0  0  0  0  0  0  0
    4.0202    2.6318   -0.2868 C   0  0  0  0  0  0  0  0  0  0  0  0
   -4.2883    0.6055    1.9552 C   0  0  0  0  0  0  0  0  0  0  0  0
   -5.0183   -0.0176    0.9449 C   0  0  0  0  0  0  0  0  0  0  0  0
    1.8299   -1.3823   -0.1960 C   0  0  0  0  0  0  0  0  0  0  0  0
    5.4505    2.9570   -0.6123 C   0  0  0  0  0  0  0  0  0  0  0  0
    3.7507    2.4136    1.1782 C   0  0  0  0  0  0  0  0  0  0  0  0
    2.6439   -1.9851    0.8864 C   0  0  0  0  0  0  0  0  0  0  0  0
    3.2143   -3.2028    0.8468 C   0  0  0  0  0  0  0  0  0  0  0  0
    4.0185   -3.6898    2.0252 C   0  0  0  0  0  0  0  0  0  0  0  0
    3.1544   -4.1775   -0.2959 C   0  0  0  0  0  0  0  0  0  0  0  0
    1.5679    0.4164   -2.0573 H   0  0  0  0  0  0  0  0  0  0  0  0
    1.2876    2.6359    0.0443 H   0  0  0  0  0  0  0  0  0  0  0  0
    0.9774    2.7902   -1.6538 H   0  0  0  0  0  0  0  0  0  0  0  0
   -0.4928   -0.4560   -2.7990 H   0  0  0  0  0  0  0  0  0  0  0  0
    3.2688    2.6988   -2.2331 H   0  0  0  0  0  0  0  0  0  0  0  0
   -4.7835    0.8761    2.8841 H   0  0  0  0  0  0  0  0  0  0  0  0
   -6.0741   -0.2257    1.0978 H   0  0  0  0  0  0  0  0  0  0  0  0
    5.5919    3.1195   -1.6858 H   0  0  0  0  0  0  0  0  0  0  0  0
    6.1076    2.1358   -0.3087 H   0  0  0  0  0  0  0  0  0  0  0  0
    5.7632    3.8678   -0.0917 H   0  0  0  0  0  0  0  0  0  0  0  0
    3.9318    3.3416    1.7310 H   0  0  0  0  0  0  0  0  0  0  0  0
    4.4321    1.6489    1.5681 H   0  0  0  0  0  0  0  0  0  0  0  0
    2.7411    2.0793    1.4211 H   0  0  0  0  0  0  0  0  0  0  0  0
    2.7890   -1.3544    1.7608 H   0  0  0  0  0  0  0  0  0  0  0  0
   -1.3433    1.6277    2.5784 H   0  0  0  0  0  0  0  0  0  0  0  0
   -4.6342   -1.1879   -1.9866 H   0  0  0  0  0  0  0  0  0  0  0  0
    3.5957   -4.6233    2.4110 H   0  0  0  0  0  0  0  0  0  0  0  0
    4.0333   -2.9679    2.8486 H   0  0  0  0  0  0  0  0  0  0  0  0
    5.0559   -3.8742    1.7271 H   0  0  0  0  0  0  0  0  0  0  0  0
    2.7758   -3.7415   -1.2222 H   0  0  0  0  0  0  0  0  0  0  0  0
    2.5191   -5.0289   -0.0316 H   0  0  0  0  0  0  0  0  0  0  0  0
    4.1579   -4.5555   -0.5211 H   0  0  0  0  0  0  0  0  0  0  0  0
  1  7  1  0  0  0  0
  1 21  1  0  0  0  0
  2 11  2  0  0  0  0
  3 16  1  0  0  0  0
  3 42  1  0  0  0  0
  4 14  2  0  0  0  0
  5 17  1  0  0  0  0
  5 43  1  0  0  0  0
  6 21  2  0  0  0  0
  7  8  1  0  0  0  0
  7  9  1  0  0  0  0
  7 28  1  0  0  0  0
  8 11  1  0  0  0  0
  8 13  2  0  0  0  0
  9 15  1  0  0  0  0
  9 29  1  0  0  0  0
  9 30  1  0  0  0  0
 10 11  1  0  0  0  0
 10 12  1  0  0  0  0
 10 16  2  0  0  0  0
 12 14  1  0  0  0  0
 12 17  2  0  0  0  0
 13 14  1  0  0  0  0
 13 31  1  0  0  0  0
 15 18  2  0  0  0  0
 15 32  1  0  0  0  0
 16 19  1  0  0  0  0
 17 20  1  0  0  0  0
 18 22  1  0  0  0  0
 18 23  1  0  0  0  0
 19 20  2  0  0  0  0
 19 33  1  0  0  0  0
 20 34  1  0  0  0  0
 21 24  1  0  0  0  0
 22 35  1  0  0  0  0
 22 36  1  0  0  0  0
 22 37  1  0  0  0  0
 23 38  1  0  0  0  0
 23 39  1  0  0  0  0
 23 40  1  0  0  0  0
 24 25  2  0  0  0  0
 24 41  1  0  0  0  0
 25 26  1  0  0  0  0
 25 27  1  0  0  0  0
 26 44  1  0  0  0  0
 26 45  1  0  0  0  0
 26 46  1  0  0  0  0
 27 47  1  0  0  0  0
 27 48  1  0  0  0  0
 27 49  1  0  0  0  0
M  END
> <PUBCHEM_COMPOUND_CID>
479499

> <PUBCHEM_CONFORMER_RMSD>
0.8

> <PUBCHEM_CONFORMER_DIVERSEORDER>
2
151
46
117
150
71
8
30
47
59
27
91
167
10
65
119
14
168
160
152
175
178
58
18
158
166
87
73
37
110
67
108
144
96
95
153
6
148
189
179
100
156
180
89
52
159
79
174
35
55
56
50
93
3
138
187
123
177
77
83
171
169
112
26
92
140
49
113
74
182
111
48
136
86
124
146
132
184
139
32
81
176
142
162
127
45
126
134
25
42
114
41
135
21
122
170
129
15
188
128
4
102
125
161
75
1
192
143
5
165
24
64
54
172
149
7
133
33
131
9
22
39
104
118
137
98
106
183
145
40
51
105
141
34
16
53
103
72
66
36
116
78
19
44
99
23
11
38
31
62
191
82
12
84
17
157
20
88
61
29
68
163
90
107
28
76
186
43
121
109
13
85
60
57
101
97
69
63
173
115
94
80
120
154
190
130
185
164
155
181
147
70

> <PUBCHEM_MMFF94_PARTIAL_CHARGES>
34
1 -0.43
10 0.09
11 0.47
12 0.09
13 -0.14
14 0.47
15 -0.29
16 0.08
17 0.08
18 -0.28
19 -0.15
2 -0.57
20 -0.15
21 0.71
22 0.14
23 0.14
24 -0.14
25 -0.28
26 0.14
27 0.14
3 -0.53
31 0.15
32 0.15
33 0.15
34 0.15
4 -0.57
41 0.15
42 0.45
43 0.45
5 -0.53
6 -0.57
7 0.42
8 -0.12
9 0.14

> <PUBCHEM_EFFECTIVE_ROTOR_COUNT>
6

> <PUBCHEM_PHARMACOPHORE_FEATURES>
9
1 2 acceptor
1 3 donor
1 4 acceptor
1 5 donor
1 6 acceptor
3 18 22 23 hydrophobe
3 25 26 27 hydrophobe
6 10 12 16 17 19 20 rings
6 8 10 11 12 13 14 rings

> <PUBCHEM_HEAVY_ATOM_COUNT>
27

> <PUBCHEM_ATOM_DEF_STEREO_COUNT>
1

> <PUBCHEM_ATOM_UDEF_STEREO_COUNT>
0

> <PUBCHEM_BOND_DEF_STEREO_COUNT>
0

> <PUBCHEM_BOND_UDEF_STEREO_COUNT>
0

> <PUBCHEM_ISOTOPIC_ATOM_COUNT>
0

> <PUBCHEM_COMPONENT_COUNT>
1

> <PUBCHEM_CACTVS_TAUTO_COUNT>
12

> <PUBCHEM_CONFORMER_ID>
0007510B00000002

> <PUBCHEM_MMFF94_ENERGY>
68.9614

> <PUBCHEM_FEATURE_SELFOVERLAP>
45.69

> <PUBCHEM_SHAPE_FINGERPRINT>
11578080 2 18342177825323185061
12236239 1 18041834017735286188
12363563 72 17843683506779689842
12553582 1 18195525028919197550
12592029 89 18129393613496812668
133893 2 18341339963302599118
13533116 47 18199732761418544819
13583140 156 18337099056997779177
13631057 29 17975975363344787495
13726171 33 17096340922395529385
13911987 19 17842827841899214980
14739800 52 17531258227098046648
15219462 58 17913173646656128001
15842332 3 18041008340268478791
1813 80 18192990654580062278
18681886 176 16443620182161670792
18915476 22 18131359587294260276
20101258 96 17982738772846446492
20511986 3 18113340786544169469
20603629 256 18343015614195729346
20693207 138 17060053804547278447
21796203 349 18053077782945324842
22182313 1 17132119052121664175
23559900 14 15769773580736488430
244849 19 17560807670898243117
25147074 1 18113623378238166615
394222 165 18115013139376410170
4340502 62 18268695131323919171
474 4 18265606589960797892
7288768 16 17465682095456494384

> <PUBCHEM_SHAPE_MULTIPOLES>
520.43
10.32
4.18
2.17
3.34
3.42
0.36
-0.91
2.02
-10.77
0.75
1.98
0.08
-2.44

> <PUBCHEM_SHAPE_SELFOVERLAP>
1106.791

> <PUBCHEM_SHAPE_VOLUME>
286.8

> <PUBCHEM_COORDINATE_TYPE>
2
5
10

$$$$

