3827
  -OEChem-06251223423D

 41 44  0     0  0  0  0  0  0999 V2000
    2.3054   -3.2801   -0.1027 S   0  0  0  0  0  0  0  0  0  0  0  0
    3.5671   -1.1778    1.6277 O   0  0  0  0  0  0  0  0  0  0  0  0
   -4.1344    0.0568    0.4175 N   0  0  0  0  0  0  0  0  0  0  0  0
   -1.4209   -0.0426   -0.5625 C   0  0  0  0  0  0  0  0  0  0  0  0
   -2.3139   -1.2498   -0.6532 C   0  0  0  0  0  0  0  0  0  0  0  0
   -2.1617    1.2645   -0.4868 C   0  0  0  0  0  0  0  0  0  0  0  0
   -3.3824   -1.2093    0.4453 C   0  0  0  0  0  0  0  0  0  0  0  0
   -3.2362    1.2088    0.6050 C   0  0  0  0  0  0  0  0  0  0  0  0
   -0.0842   -0.1266   -0.5200 C   0  0  0  0  0  0  0  0  0  0  0  0
    0.6527    1.1643   -0.4306 C   0  0  0  0  0  0  0  0  0  0  0  0
    0.5948   -1.4052   -0.5300 C   0  0  0  0  0  0  0  0  0  0  0  0
    1.5559    1.3988    0.6250 C   0  0  0  0  0  0  0  0  0  0  0  0
   -5.1803    0.0527    1.4401 C   0  0  0  0  0  0  0  0  0  0  0  0
    1.7294   -1.6921    0.2154 C   0  0  0  0  0  0  0  0  0  0  0  0
    1.7701    0.3701    1.7042 C   0  0  0  0  0  0  0  0  0  0  0  0
    2.4544   -0.8809    1.1881 C   0  0  0  0  0  0  0  0  0  0  0  0
    0.4905    2.1436   -1.4262 C   0  0  0  0  0  0  0  0  0  0  0  0
    0.1990   -2.5209   -1.3394 C   0  0  0  0  0  0  0  0  0  0  0  0
    2.2662    2.6086    0.6687 C   0  0  0  0  0  0  0  0  0  0  0  0
    1.0396   -3.5999   -1.1978 C   0  0  0  0  0  0  0  0  0  0  0  0
    1.2013    3.3423   -1.3673 C   0  0  0  0  0  0  0  0  0  0  0  0
    2.0874    3.5749   -0.3204 C   0  0  0  0  0  0  0  0  0  0  0  0
   -2.7912   -1.2749   -1.6406 H   0  0  0  0  0  0  0  0  0  0  0  0
   -1.8556   -2.2169   -0.4763 H   0  0  0  0  0  0  0  0  0  0  0  0
   -1.5742    2.1469   -0.2353 H   0  0  0  0  0  0  0  0  0  0  0  0
   -2.6354    1.4589   -1.4580 H   0  0  0  0  0  0  0  0  0  0  0  0
   -4.0715   -2.0477    0.2836 H   0  0  0  0  0  0  0  0  0  0  0  0
   -2.9131   -1.3590    1.4277 H   0  0  0  0  0  0  0  0  0  0  0  0
   -2.7593    1.1725    1.5943 H   0  0  0  0  0  0  0  0  0  0  0  0
   -3.8181    2.1379    0.5587 H   0  0  0  0  0  0  0  0  0  0  0  0
   -5.8773   -0.7762    1.2740 H   0  0  0  0  0  0  0  0  0  0  0  0
   -5.7714    0.9738    1.3893 H   0  0  0  0  0  0  0  0  0  0  0  0
   -4.7700   -0.0389    2.4523 H   0  0  0  0  0  0  0  0  0  0  0  0
    2.3892    0.7866    2.5089 H   0  0  0  0  0  0  0  0  0  0  0  0
    0.8175    0.0997    2.1762 H   0  0  0  0  0  0  0  0  0  0  0  0
   -0.1644    1.9751   -2.2788 H   0  0  0  0  0  0  0  0  0  0  0  0
   -0.5949   -2.5332   -2.0762 H   0  0  0  0  0  0  0  0  0  0  0  0
    2.9672    2.8063    1.4760 H   0  0  0  0  0  0  0  0  0  0  0  0
    0.9836   -4.5500   -1.7102 H   0  0  0  0  0  0  0  0  0  0  0  0
    1.0704    4.0893   -2.1448 H   0  0  0  0  0  0  0  0  0  0  0  0
    2.6439    4.5065   -0.2760 H   0  0  0  0  0  0  0  0  0  0  0  0
  1 14  1  0  0  0  0
  1 20  1  0  0  0  0
  2 16  2  0  0  0  0
  3  7  1  0  0  0  0
  3  8  1  0  0  0  0
  3 13  1  0  0  0  0
  4  5  1  0  0  0  0
  4  6  1  0  0  0  0
  4  9  2  0  0  0  0
  5  7  1  0  0  0  0
  5 23  1  0  0  0  0
  5 24  1  0  0  0  0
  6  8  1  0  0  0  0
  6 25  1  0  0  0  0
  6 26  1  0  0  0  0
  7 27  1  0  0  0  0
  7 28  1  0  0  0  0
  8 29  1  0  0  0  0
  8 30  1  0  0  0  0
  9 10  1  0  0  0  0
  9 11  1  0  0  0  0
 10 12  1  0  0  0  0
 10 17  2  0  0  0  0
 11 14  2  0  0  0  0
 11 18  1  0  0  0  0
 12 15  1  0  0  0  0
 12 19  2  0  0  0  0
 13 31  1  0  0  0  0
 13 32  1  0  0  0  0
 13 33  1  0  0  0  0
 14 16  1  0  0  0  0
 15 16  1  0  0  0  0
 15 34  1  0  0  0  0
 15 35  1  0  0  0  0
 17 21  1  0  0  0  0
 17 36  1  0  0  0  0
 18 20  2  0  0  0  0
 18 37  1  0  0  0  0
 19 22  1  0  0  0  0
 19 38  1  0  0  0  0
 20 39  1  0  0  0  0
 21 22  2  0  0  0  0
 21 40  1  0  0  0  0
 22 41  1  0  0  0  0
M  END
> <PUBCHEM_COMPOUND_CID>
3827

> <PUBCHEM_CONFORMER_RMSD>
0.6

> <PUBCHEM_CONFORMER_DIVERSEORDER>
2
3
1
4

> <PUBCHEM_MMFF94_PARTIAL_CHARGES>
28
1 -0.08
10 0.03
11 -0.05
12 -0.14
13 0.27
14 -0.05
15 0.2
16 0.59
17 -0.15
18 -0.15
19 -0.15
2 -0.57
20 -0.11
21 -0.15
22 -0.15
3 -0.81
36 0.15
37 0.15
38 0.15
39 0.15
4 -0.28
40 0.15
41 0.15
5 0.14
6 0.14
7 0.27
8 0.27
9 0.02

> <PUBCHEM_EFFECTIVE_ROTOR_COUNT>
1.2

> <PUBCHEM_PHARMACOPHORE_FEATURES>
6
1 2 acceptor
1 3 cation
5 1 11 14 18 20 rings
6 10 12 17 19 21 22 rings
6 3 4 5 6 7 8 rings
7 9 10 11 12 14 15 16 rings

> <PUBCHEM_HEAVY_ATOM_COUNT>
22

> <PUBCHEM_ATOM_DEF_STEREO_COUNT>
0

> <PUBCHEM_ATOM_UDEF_STEREO_COUNT>
0

> <PUBCHEM_BOND_DEF_STEREO_COUNT>
0

> <PUBCHEM_BOND_UDEF_STEREO_COUNT>
0

> <PUBCHEM_ISOTOPIC_ATOM_COUNT>
0

> <PUBCHEM_COMPONENT_COUNT>
1

> <PUBCHEM_CACTVS_TAUTO_COUNT>
2

> <PUBCHEM_CONFORMER_ID>
00000EF300000002

> <PUBCHEM_MMFF94_ENERGY>
73.0091

> <PUBCHEM_FEATURE_SELFOVERLAP>
30.475

> <PUBCHEM_SHAPE_FINGERPRINT>
10382601 240 18200309914196226440
10906281 52 17908731735844828124
12035758 1 17910125929600434601
12422481 6 18123503594606197464
12553582 1 18339927128988410390
12633257 1 18343025493016383595
12644460 14 18269815597939091089
12716301 132 16899353819137584178
12788726 201 17622710338524734578
13140716 1 18337953368483612355
13681431 1 18196065932398578756
14022347 108 17695342968648155629
14223421 5 18343017757948814941
14363568 33 18410291437039753416
14790565 3 18409164390493207000
14955137 171 18409158918498435570
15279307 12 17836375843326622588
15420108 30 18335710377320725732
1601671 61 18408880772026446614
16945 1 18188784957788354038
17357779 13 17688892133812307221
1813 80 18199178667023146570
19591789 44 18338798901747077676
20510252 161 17039792235861012454
20600515 1 17556871539298014668
20739085 24 18412265043020856184
21330990 113 16749854335426543113
21524375 3 17909260291499468389
22182313 1 17103991556726102394
2255824 54 18339069411255608701
23419403 2 16887269009342612192
23558518 356 16900737515898719772
23559900 14 18338785798007722079
2748010 2 17685806865962526214
3380486 145 18048623656554931159
3610482 184 16478228221780875388
394222 165 18055066567023918017
4409770 3 17333372805634212703
5104073 3 18270378544409870833
6287921 2 18334858281631860875
6786 2 16973295567904551476
7097593 13 18334295413720531851
7364860 26 18409156714921866845
81228 2 17547852318255712604
9841814 1 18059280063517348387

> <PUBCHEM_SHAPE_MULTIPOLES>
445.75
6.01
4.47
1.48
9.19
0.19
-0.2
-0.3
-3.5
-4.61
1.88
-0.43
0.05
-0.32

> <PUBCHEM_SHAPE_SELFOVERLAP>
971.026

> <PUBCHEM_SHAPE_VOLUME>
243.5

> <PUBCHEM_COORDINATE_TYPE>
2
5
10

$$$$

