10781
  -OEChem-06261204572D

 44 44  0     1  0  0  0  0  0999 V2000
    9.1360    4.2975    0.0000 Cl  0  0  0  0  0  0  0  0  0  0  0  0
    4.0010    3.6200    0.0000 O   0  0  0  0  0  0  0  0  0  0  0  0
    3.1350    2.1200    0.0000 O   0  0  0  0  0  0  0  0  0  0  0  0
    2.2690    6.6200    0.0000 N   0  0  3  0  0  0  0  0  0  0  0  0
    1.4030    7.1200    0.0000 C   0  0  3  0  0  0  0  0  0  0  0  0
    1.4030    8.1200    0.0000 C   0  0  0  0  0  0  0  0  0  0  0  0
    3.1350    7.1200    0.0000 C   0  0  0  0  0  0  0  0  0  0  0  0
    2.2690    8.6200    0.0000 C   0  0  0  0  0  0  0  0  0  0  0  0
    3.1350    8.1200    0.0000 C   0  0  0  0  0  0  0  0  0  0  0  0
    2.2690    5.6200    0.0000 C   0  0  0  0  0  0  0  0  0  0  0  0
    0.5369    6.6200    0.0000 C   0  0  0  0  0  0  0  0  0  0  0  0
    3.1350    5.1200    0.0000 C   0  0  0  0  0  0  0  0  0  0  0  0
    3.1350    4.1200    0.0000 C   0  0  0  0  0  0  0  0  0  0  0  0
    4.0010    2.6200    0.0000 C   0  0  0  0  0  0  0  0  0  0  0  0
    4.8671    2.1200    0.0000 C   0  0  0  0  0  0  0  0  0  0  0  0
    4.8671    1.1200    0.0000 C   0  0  0  0  0  0  0  0  0  0  0  0
    5.7331    2.6200    0.0000 C   0  0  0  0  0  0  0  0  0  0  0  0
    5.7331    0.6200    0.0000 C   0  0  0  0  0  0  0  0  0  0  0  0
    6.5991    2.1200    0.0000 C   0  0  0  0  0  0  0  0  0  0  0  0
    6.5991    1.1200    0.0000 C   0  0  0  0  0  0  0  0  0  0  0  0
    1.4030    6.2700    0.0000 H   0  0  0  0  0  0  0  0  0  0  0  0
    1.1909    8.7026    0.0000 H   0  0  0  0  0  0  0  0  0  0  0  0
    0.7924    8.0123    0.0000 H   0  0  0  0  0  0  0  0  0  0  0  0
    3.3471    6.5374    0.0000 H   0  0  0  0  0  0  0  0  0  0  0  0
    3.7456    7.2277    0.0000 H   0  0  0  0  0  0  0  0  0  0  0  0
    2.6675    9.0950    0.0000 H   0  0  0  0  0  0  0  0  0  0  0  0
    1.8705    9.0950    0.0000 H   0  0  0  0  0  0  0  0  0  0  0  0
    3.7456    8.0123    0.0000 H   0  0  0  0  0  0  0  0  0  0  0  0
    3.3471    8.7026    0.0000 H   0  0  0  0  0  0  0  0  0  0  0  0
    1.6584    5.7277    0.0000 H   0  0  0  0  0  0  0  0  0  0  0  0
    2.0569    5.0374    0.0000 H   0  0  0  0  0  0  0  0  0  0  0  0
    0.2269    7.1569    0.0000 H   0  0  0  0  0  0  0  0  0  0  0  0
    0.0000    6.3100    0.0000 H   0  0  0  0  0  0  0  0  0  0  0  0
    0.8469    6.0831    0.0000 H   0  0  0  0  0  0  0  0  0  0  0  0
    3.7456    5.0123    0.0000 H   0  0  0  0  0  0  0  0  0  0  0  0
    3.3471    5.7026    0.0000 H   0  0  0  0  0  0  0  0  0  0  0  0
    2.5244    4.2277    0.0000 H   0  0  0  0  0  0  0  0  0  0  0  0
    2.9230    3.5374    0.0000 H   0  0  0  0  0  0  0  0  0  0  0  0
    4.3301    0.8100    0.0000 H   0  0  0  0  0  0  0  0  0  0  0  0
    5.7331    3.2400    0.0000 H   0  0  0  0  0  0  0  0  0  0  0  0
    5.7331    0.0000    0.0000 H   0  0  0  0  0  0  0  0  0  0  0  0
    7.1360    2.4300    0.0000 H   0  0  0  0  0  0  0  0  0  0  0  0
    7.1360    0.8100    0.0000 H   0  0  0  0  0  0  0  0  0  0  0  0
   10.1360    4.2975    0.0000 H   0  0  0  0  0  0  0  0  0  0  0  0
  1 44  1  0  0  0  0
  2 13  1  0  0  0  0
  2 14  1  0  0  0  0
  3 14  2  0  0  0  0
  4  5  1  0  0  0  0
  4  7  1  0  0  0  0
  4 10  1  0  0  0  0
  5  6  1  0  0  0  0
  5 11  1  0  0  0  0
  5 21  1  0  0  0  0
  6  8  1  0  0  0  0
  6 22  1  0  0  0  0
  6 23  1  0  0  0  0
  7  9  1  0  0  0  0
  7 24  1  0  0  0  0
  7 25  1  0  0  0  0
  8  9  1  0  0  0  0
  8 26  1  0  0  0  0
  8 27  1  0  0  0  0
  9 28  1  0  0  0  0
  9 29  1  0  0  0  0
 10 12  1  0  0  0  0
 10 30  1  0  0  0  0
 10 31  1  0  0  0  0
 11 32  1  0  0  0  0
 11 33  1  0  0  0  0
 11 34  1  0  0  0  0
 12 13  1  0  0  0  0
 12 35  1  0  0  0  0
 12 36  1  0  0  0  0
 13 37  1  0  0  0  0
 13 38  1  0  0  0  0
 14 15  1  0  0  0  0
 15 16  2  0  0  0  0
 15 17  1  0  0  0  0
 16 18  1  0  0  0  0
 16 39  1  0  0  0  0
 17 19  2  0  0  0  0
 17 40  1  0  0  0  0
 18 20  2  0  0  0  0
 18 41  1  0  0  0  0
 19 20  1  0  0  0  0
 19 42  1  0  0  0  0
 20 43  1  0  0  0  0
M  END
> <PUBCHEM_COMPOUND_CID>
10781

> <PUBCHEM_COMPOUND_CANONICALIZED>
1

> <PUBCHEM_CACTVS_COMPLEXITY>
274

> <PUBCHEM_CACTVS_HBOND_ACCEPTOR>
3

> <PUBCHEM_CACTVS_HBOND_DONOR>
1

> <PUBCHEM_CACTVS_ROTATABLE_BOND>
6

> <PUBCHEM_CACTVS_SUBSKEYS>
AAADceB6MAAEAAAAAAAAAAAAAAAAAAAAAAA8QAAAAAAAAAABAAAAHgAAAAAADCjhmAYyCIMABACIAiDSCAACAAAkAAAIiAEICMgIJjKAtRiGMQAmwAGIqYeYyCCOAAAAAAAAAAAAAAAAAAAAAAAAAAAAAA==

> <PUBCHEM_IUPAC_OPENEYE_NAME>
3-(2-methyl-1-piperidyl)propyl benzoate hydrochloride

> <PUBCHEM_IUPAC_CAS_NAME>
benzoic acid 3-(2-methyl-1-piperidinyl)propyl ester hydrochloride

> <PUBCHEM_IUPAC_NAME>
3-(2-methylpiperidin-1-yl)propyl benzoate hydrochloride

> <PUBCHEM_IUPAC_SYSTEMATIC_NAME>
3-(2-methylpiperidin-1-yl)propyl benzoate hydrochloride

> <PUBCHEM_IUPAC_TRADITIONAL_NAME>
benzoic acid 3-(2-methylpiperidino)propyl ester hydrochloride

> <PUBCHEM_IUPAC_INCHI>
InChI=1S/C16H23NO2.ClH/c1-14-8-5-6-11-17(14)12-7-13-19-16(18)15-9-3-2-4-10-15;/h2-4,9-10,14H,5-8,11-13H2,1H3;1H

> <PUBCHEM_IUPAC_INCHIKEY>
ZXSGQNYQJIUMQN-UHFFFAOYSA-N

> <PUBCHEM_EXACT_MASS>
297.149557

> <PUBCHEM_MOLECULAR_FORMULA>
C16H24ClNO2

> <PUBCHEM_MOLECULAR_WEIGHT>
297.82026

> <PUBCHEM_OPENEYE_CAN_SMILES>
CC1CCCCN1CCCOC(=O)C2=CC=CC=C2.Cl

> <PUBCHEM_OPENEYE_ISO_SMILES>
CC1CCCCN1CCCOC(=O)C2=CC=CC=C2.Cl

> <PUBCHEM_CACTVS_TPSA>
29.5

> <PUBCHEM_MONOISOTOPIC_WEIGHT>
297.149557

> <PUBCHEM_TOTAL_CHARGE>
0

> <PUBCHEM_HEAVY_ATOM_COUNT>
20

> <PUBCHEM_ATOM_DEF_STEREO_COUNT>
0

> <PUBCHEM_ATOM_UDEF_STEREO_COUNT>
1

> <PUBCHEM_BOND_DEF_STEREO_COUNT>
0

> <PUBCHEM_BOND_UDEF_STEREO_COUNT>
0

> <PUBCHEM_ISOTOPIC_ATOM_COUNT>
0

> <PUBCHEM_COMPONENT_COUNT>
2

> <PUBCHEM_CACTVS_TAUTO_COUNT>
1

> <PUBCHEM_COORDINATE_TYPE>
1
5
255

> <PUBCHEM_BONDANNOTATIONS>
15  16  8
15  17  8
16  18  8
17  19  8
18  20  8
19  20  8
5  21  3

$$$$

