114776
  -OEChem-07051212463D

 52 55  0     1  0  0  0  0  0999 V2000
    3.9680    0.9933    0.3873 O   0  0  0  0  0  0  0  0  0  0  0  0
    3.3583   -2.3743   -0.9386 O   0  0  0  0  0  0  0  0  0  0  0  0
    5.9378   -1.6096   -2.1203 O   0  0  0  0  0  0  0  0  0  0  0  0
    7.4392    0.0627   -0.3163 O   0  0  0  0  0  0  0  0  0  0  0  0
    5.2294    2.8595    1.9593 O   0  0  0  0  0  0  0  0  0  0  0  0
    1.4238   -2.0770    1.2784 O   0  0  0  0  0  0  0  0  0  0  0  0
    2.2529    2.0098   -1.0389 O   0  0  0  0  0  0  0  0  0  0  0  0
   -2.2327    0.6882   -0.2727 O   0  0  0  0  0  0  0  0  0  0  0  0
   -1.0755   -2.7102    1.6539 O   0  0  0  0  0  0  0  0  0  0  0  0
   -7.8456   -1.3652   -0.4281 O   0  0  0  0  0  0  0  0  0  0  0  0
   -8.5145    1.3283   -0.5803 O   0  0  0  0  0  0  0  0  0  0  0  0
    3.9004   -1.0537   -0.9458 C   0  0  2  0  0  0  0  0  0  0  0  0
    5.4272   -1.1417   -0.8707 C   0  0  2  0  0  0  0  0  0  0  0  0
    3.3343   -0.2833    0.2569 C   0  0  2  0  0  0  0  0  0  0  0  0
    6.0497    0.2255   -0.5889 C   0  0  1  0  0  0  0  0  0  0  0  0
    5.3749    0.8924    0.6112 C   0  0  1  0  0  0  0  0  0  0  0  0
    1.8426   -0.0452    0.1264 C   0  0  0  0  0  0  0  0  0  0  0  0
    5.9040    2.3037    0.8452 C   0  0  0  0  0  0  0  0  0  0  0  0
    0.9376   -0.9677    0.6529 C   0  0  0  0  0  0  0  0  0  0  0  0
    1.3795    1.1010   -0.5213 C   0  0  0  0  0  0  0  0  0  0  0  0
   -0.4338   -0.7351    0.5262 C   0  0  0  0  0  0  0  0  0  0  0  0
    0.0089    1.3298   -0.6454 C   0  0  0  0  0  0  0  0  0  0  0  0
   -0.8982    0.4090   -0.1204 C   0  0  0  0  0  0  0  0  0  0  0  0
   -1.4122   -1.6881    1.0721 C   0  0  0  0  0  0  0  0  0  0  0  0
   -3.1577   -0.2125    0.2331 C   0  0  0  0  0  0  0  0  0  0  0  0
   -2.8355   -1.3436    0.8803 C   0  0  0  0  0  0  0  0  0  0  0  0
   -4.5631    0.1879    0.0201 C   0  0  0  0  0  0  0  0  0  0  0  0
   -5.5587   -0.7843   -0.1058 C   0  0  0  0  0  0  0  0  0  0  0  0
   -4.9031    1.5407   -0.0575 C   0  0  0  0  0  0  0  0  0  0  0  0
   -6.8860   -0.4057   -0.3080 C   0  0  0  0  0  0  0  0  0  0  0  0
   -6.2302    1.9192   -0.2596 C   0  0  0  0  0  0  0  0  0  0  0  0
   -7.2217    0.9461   -0.3847 C   0  0  0  0  0  0  0  0  0  0  0  0
    3.6066   -0.5870   -1.8937 H   0  0  0  0  0  0  0  0  0  0  0  0
    5.7424   -1.8718   -0.1151 H   0  0  0  0  0  0  0  0  0  0  0  0
    3.5214   -0.8331    1.1888 H   0  0  0  0  0  0  0  0  0  0  0  0
    5.9620    0.8569   -1.4816 H   0  0  0  0  0  0  0  0  0  0  0  0
    5.5407    0.3124    1.5293 H   0  0  0  0  0  0  0  0  0  0  0  0
    5.7134    2.9509   -0.0173 H   0  0  0  0  0  0  0  0  0  0  0  0
    6.9770    2.3045    1.0567 H   0  0  0  0  0  0  0  0  0  0  0  0
    3.6133   -2.7999   -0.1022 H   0  0  0  0  0  0  0  0  0  0  0  0
    5.5151   -2.4661   -2.3035 H   0  0  0  0  0  0  0  0  0  0  0  0
    7.5267   -0.4881    0.4803 H   0  0  0  0  0  0  0  0  0  0  0  0
   -0.3498    2.2234   -1.1499 H   0  0  0  0  0  0  0  0  0  0  0  0
    4.2772    2.8504    1.7611 H   0  0  0  0  0  0  0  0  0  0  0  0
    0.7013   -2.6422    1.5902 H   0  0  0  0  0  0  0  0  0  0  0  0
    3.1410    1.6287   -1.1157 H   0  0  0  0  0  0  0  0  0  0  0  0
   -3.5595   -2.0323    1.2996 H   0  0  0  0  0  0  0  0  0  0  0  0
   -5.3285   -1.8464   -0.0728 H   0  0  0  0  0  0  0  0  0  0  0  0
   -4.1530    2.3211    0.0451 H   0  0  0  0  0  0  0  0  0  0  0  0
   -6.4858    2.9738   -0.3165 H   0  0  0  0  0  0  0  0  0  0  0  0
   -8.6141   -1.0025   -0.8975 H   0  0  0  0  0  0  0  0  0  0  0  0
   -9.1121    0.6148   -0.3042 H   0  0  0  0  0  0  0  0  0  0  0  0
  1 14  1  0  0  0  0
  1 16  1  0  0  0  0
  2 12  1  0  0  0  0
  2 40  1  0  0  0  0
  3 13  1  0  0  0  0
  3 41  1  0  0  0  0
  4 15  1  0  0  0  0
  4 42  1  0  0  0  0
  5 18  1  0  0  0  0
  5 44  1  0  0  0  0
  6 19  1  0  0  0  0
  6 45  1  0  0  0  0
  7 20  1  0  0  0  0
  7 46  1  0  0  0  0
  8 23  1  0  0  0  0
  8 25  1  0  0  0  0
  9 24  2  0  0  0  0
 10 30  1  0  0  0  0
 10 51  1  0  0  0  0
 11 32  1  0  0  0  0
 11 52  1  0  0  0  0
 12 13  1  0  0  0  0
 12 14  1  0  0  0  0
 12 33  1  0  0  0  0
 13 15  1  0  0  0  0
 13 34  1  0  0  0  0
 14 17  1  0  0  0  0
 14 35  1  0  0  0  0
 15 16  1  0  0  0  0
 15 36  1  0  0  0  0
 16 18  1  0  0  0  0
 16 37  1  0  0  0  0
 17 19  2  0  0  0  0
 17 20  1  0  0  0  0
 18 38  1  0  0  0  0
 18 39  1  0  0  0  0
 19 21  1  0  0  0  0
 20 22  2  0  0  0  0
 21 23  2  0  0  0  0
 21 24  1  0  0  0  0
 22 23  1  0  0  0  0
 22 43  1  0  0  0  0
 24 26  1  0  0  0  0
 25 26  2  0  0  0  0
 25 27  1  0  0  0  0
 26 47  1  0  0  0  0
 27 28  2  0  0  0  0
 27 29  1  0  0  0  0
 28 30  1  0  0  0  0
 28 48  1  0  0  0  0
 29 31  2  0  0  0  0
 29 49  1  0  0  0  0
 30 32  2  0  0  0  0
 31 32  1  0  0  0  0
 31 50  1  0  0  0  0
M  END
> <PUBCHEM_COMPOUND_CID>
114776

> <PUBCHEM_CONFORMER_RMSD>
0.8

> <PUBCHEM_CONFORMER_DIVERSEORDER>
3
20
18
21
24
10
22
12
13
19
1
11
17
9
23
15
6
14
5
8
7
16
2
4

> <PUBCHEM_MMFF94_PARTIAL_CHARGES>
45
1 -0.56
10 -0.53
11 -0.53
12 0.28
13 0.28
14 0.42
15 0.28
16 0.28
17 -0.14
18 0.28
19 0.08
2 -0.68
20 0.08
21 0.09
22 -0.15
23 0.08
24 0.47
25 0.05
26 -0.14
27 0.03
28 -0.15
29 -0.15
3 -0.68
30 0.08
31 -0.15
32 0.08
4 -0.68
40 0.4
41 0.4
42 0.4
43 0.15
44 0.4
45 0.45
46 0.45
47 0.15
48 0.15
49 0.15
5 -0.68
50 0.15
51 0.45
52 0.45
6 -0.53
7 -0.53
8 -0.16
9 -0.57

> <PUBCHEM_EFFECTIVE_ROTOR_COUNT>
4.2

> <PUBCHEM_PHARMACOPHORE_FEATURES>
19
1 1 acceptor
1 10 donor
1 11 donor
1 2 acceptor
1 2 donor
1 3 acceptor
1 3 donor
1 4 acceptor
1 4 donor
1 5 acceptor
1 5 donor
1 6 donor
1 7 donor
1 8 acceptor
1 9 acceptor
6 1 12 13 14 15 16 rings
6 17 19 20 21 22 23 rings
6 27 28 29 30 31 32 rings
6 8 21 23 24 25 26 rings

> <PUBCHEM_HEAVY_ATOM_COUNT>
32

> <PUBCHEM_ATOM_DEF_STEREO_COUNT>
5

> <PUBCHEM_ATOM_UDEF_STEREO_COUNT>
0

> <PUBCHEM_BOND_DEF_STEREO_COUNT>
0

> <PUBCHEM_BOND_UDEF_STEREO_COUNT>
0

> <PUBCHEM_ISOTOPIC_ATOM_COUNT>
0

> <PUBCHEM_COMPONENT_COUNT>
1

> <PUBCHEM_CACTVS_TAUTO_COUNT>
162

> <PUBCHEM_CONFORMER_ID>
0001C05800000003

> <PUBCHEM_MMFF94_ENERGY>
104.24

> <PUBCHEM_FEATURE_SELFOVERLAP>
96.462

> <PUBCHEM_SHAPE_FINGERPRINT>
10050765 1 17842831127490504108
10816530 90 17774712083631817308
10835480 77 18261112937377230928
11007060 377 18413102867108169259
11181472 205 17096072732285239073
11315181 36 18114179744945875681
12236239 1 18334016112345146577
12516196 113 18408042909812059397
12741549 16 18114471141366164720
12838862 33 18059308598884638229
13533116 47 17748825233021437210
13617811 41 17703785942212664732
14040221 8 15936406784920539385
14170010 4 18411699867947379764
14251764 18 17703794713026155105
14294032 229 17131557235960377989
14394314 77 18339640166094204017
14556957 393 16298373639812886361
14933364 13 18260830410492072645
15131766 46 17025456387433141328
15183329 4 17846778516369015557
1577012 14 18272377507930505635
15849732 13 18260267447447865869
15927050 60 18202847643248303467
18608769 82 18129935690616245923
18681886 176 18408610240932329057
20157964 124 17967532359572933672
21033648 29 18191037716176728232
21150785 3 17749109993658587935
21267235 1 18341887482003073627
21792934 111 17987814019198261056
21859007 373 17560540455155569981
23516275 100 18338245842820184992
23559900 14 18409729534578428016
23569943 247 18049152568930520178
23576562 1 17344609475336648167
24771293 8 18271530801281398661
3004659 81 17988920063481973764
3044373 193 17822008675427145828
335352 9 18131348592146379518
3383291 50 18059288756848199891
34797466 226 17749385953501645132
350125 39 18060422439050957997
3633792 109 18113613521314582875
4073 2 18272086046052636210
4093350 32 18040718069499243966
5385378 56 17703514397195217003
5758199 1 18202001054001637425
6328613 192 17774710974854813436

> <PUBCHEM_SHAPE_MULTIPOLES>
593.98
21.58
2.4
1.2
18.42
0.11
-0.08
6.19
4.51
-1.33
-0.61
-1.68
-0.23
2.52

> <PUBCHEM_SHAPE_SELFOVERLAP>
1313.753

> <PUBCHEM_SHAPE_VOLUME>
314.8

> <PUBCHEM_COORDINATE_TYPE>
2
5
10

$$$$

