128057
  -OEChem-07051213072D

 17 16  0     1  0  0  0  0  0999 V2000
    6.0010    1.6550    0.0000 F   0  0  0  0  0  0  0  0  0  0  0  0
    6.0010   -0.3450    0.0000 O   0  0  0  0  0  0  0  0  0  0  0  0
    2.5369   -0.3450    0.0000 O   0  0  0  0  0  0  0  0  0  0  0  0
    3.4030    1.1550    0.0000 O   0  0  0  0  0  0  0  0  0  0  0  0
    4.2690   -1.3450    0.0000 N   0  0  0  0  0  0  0  0  0  0  0  0
    5.1350    0.1550    0.0000 C   0  0  1  0  0  0  0  0  0  0  0  0
    4.2690   -0.3450    0.0000 C   0  0  1  0  0  0  0  0  0  0  0  0
    5.1350    1.1550    0.0000 C   0  0  0  0  0  0  0  0  0  0  0  0
    3.4030    0.1550    0.0000 C   0  0  0  0  0  0  0  0  0  0  0  0
    5.1350   -0.4650    0.0000 H   0  0  0  0  0  0  0  0  0  0  0  0
    4.8059   -0.6550    0.0000 H   0  0  0  0  0  0  0  0  0  0  0  0
    4.9230    1.7376    0.0000 H   0  0  0  0  0  0  0  0  0  0  0  0
    4.5244    1.0473    0.0000 H   0  0  0  0  0  0  0  0  0  0  0  0
    3.7320   -1.6550    0.0000 H   0  0  0  0  0  0  0  0  0  0  0  0
    4.8059   -1.6550    0.0000 H   0  0  0  0  0  0  0  0  0  0  0  0
    6.5380   -0.0350    0.0000 H   0  0  0  0  0  0  0  0  0  0  0  0
    2.0000   -0.0350    0.0000 H   0  0  0  0  0  0  0  0  0  0  0  0
  1  8  1  0  0  0  0
  6  2  1  1  0  0  0
  2 16  1  0  0  0  0
  3  9  1  0  0  0  0
  3 17  1  0  0  0  0
  4  9  2  0  0  0  0
  7  5  1  6  0  0  0
  5 14  1  0  0  0  0
  5 15  1  0  0  0  0
  6  7  1  0  0  0  0
  6  8  1  0  0  0  0
  6 10  1  0  0  0  0
  7  9  1  0  0  0  0
  7 11  1  0  0  0  0
  8 12  1  0  0  0  0
  8 13  1  0  0  0  0
M  END
> <PUBCHEM_COMPOUND_CID>
128057

> <PUBCHEM_COMPOUND_CANONICALIZED>
1

> <PUBCHEM_CACTVS_COMPLEXITY>
108

> <PUBCHEM_CACTVS_HBOND_ACCEPTOR>
5

> <PUBCHEM_CACTVS_HBOND_DONOR>
3

> <PUBCHEM_CACTVS_ROTATABLE_BOND>
3

> <PUBCHEM_CACTVS_SUBSKEYS>
AAADccBiMQAAAAAAAAAAAAAAAAAAAAAAAAAAAAAAAAAAAAAAAAAAHwAQCAAACDzhgAYACABAAgAIAACQCAAAAAAAAAAAAIGAAAACEBQAAAAAQAAFMAAAAAAAAAAAAAAAAAAAAAAAAAAAAAAAAAAAAAAAAA==

> <PUBCHEM_IUPAC_OPENEYE_NAME>
(2S,3S)-2-amino-4-fluoro-3-hydroxy-butanoic acid

> <PUBCHEM_IUPAC_CAS_NAME>
(2S,3S)-2-amino-4-fluoro-3-hydroxybutanoic acid

> <PUBCHEM_IUPAC_NAME>
(2S,3S)-2-amino-4-fluoro-3-hydroxybutanoic acid

> <PUBCHEM_IUPAC_SYSTEMATIC_NAME>
(2S,3S)-2-azanyl-4-fluoranyl-3-oxidanyl-butanoic acid

> <PUBCHEM_IUPAC_TRADITIONAL_NAME>
(2S,3S)-2-amino-4-fluoro-3-hydroxy-butyric acid

> <PUBCHEM_IUPAC_INCHI>
InChI=1S/C4H8FNO3/c5-1-2(7)3(6)4(8)9/h2-3,7H,1,6H2,(H,8,9)/t2-,3+/m1/s1

> <PUBCHEM_IUPAC_INCHIKEY>
GTFWIYJIEXNAOL-GBXIJSLDSA-N

> <PUBCHEM_XLOGP3>
-3

> <PUBCHEM_EXACT_MASS>
137.048821

> <PUBCHEM_MOLECULAR_FORMULA>
C4H8FNO3

> <PUBCHEM_MOLECULAR_WEIGHT>
137.109623

> <PUBCHEM_OPENEYE_CAN_SMILES>
C(C(C(C(=O)O)N)O)F

> <PUBCHEM_OPENEYE_ISO_SMILES>
C([C@H]([C@@H](C(=O)O)N)O)F

> <PUBCHEM_CACTVS_TPSA>
83.6

> <PUBCHEM_MONOISOTOPIC_WEIGHT>
137.048821

> <PUBCHEM_TOTAL_CHARGE>
0

> <PUBCHEM_HEAVY_ATOM_COUNT>
9

> <PUBCHEM_ATOM_DEF_STEREO_COUNT>
2

> <PUBCHEM_ATOM_UDEF_STEREO_COUNT>
0

> <PUBCHEM_BOND_DEF_STEREO_COUNT>
0

> <PUBCHEM_BOND_UDEF_STEREO_COUNT>
0

> <PUBCHEM_ISOTOPIC_ATOM_COUNT>
0

> <PUBCHEM_COMPONENT_COUNT>
1

> <PUBCHEM_CACTVS_TAUTO_COUNT>
1

> <PUBCHEM_COORDINATE_TYPE>
1
5
255

> <PUBCHEM_BONDANNOTATIONS>
6  2  5
7  5  6

$$$$

