3016713
  -OEChem-07051213093D

 24 23  0     0  0  0  0  0  0999 V2000
   -5.7104    0.3607    0.0295 S   0  0  0  0  0  0  0  0  0  0  0  0
    4.5474    0.7891    0.0377 O   0  0  0  0  0  0  0  0  0  0  0  0
    3.6163   -1.2807    0.0127 O   0  0  0  0  0  0  0  0  0  0  0  0
   -0.3992    0.4852    0.0147 C   0  0  0  0  0  0  0  0  0  0  0  0
   -1.5986   -0.4669   -0.0016 C   0  0  0  0  0  0  0  0  0  0  0  0
    0.9552   -0.2349    0.0076 C   0  0  0  0  0  0  0  0  0  0  0  0
   -2.9197    0.3117   -0.0084 C   0  0  0  0  0  0  0  0  0  0  0  0
    2.1770    0.6828   -0.0600 C   0  0  0  0  0  0  0  0  0  0  0  0
   -4.1588   -0.5826   -0.0217 C   0  0  0  0  0  0  0  0  0  0  0  0
    3.4910   -0.0643   -0.0106 C   0  0  0  0  0  0  0  0  0  0  0  0
   -0.4550    1.1285    0.9014 H   0  0  0  0  0  0  0  0  0  0  0  0
   -0.4525    1.1458   -0.8596 H   0  0  0  0  0  0  0  0  0  0  0  0
   -1.5611   -1.1213    0.8773 H   0  0  0  0  0  0  0  0  0  0  0  0
   -1.5476   -1.1097   -0.8883 H   0  0  0  0  0  0  0  0  0  0  0  0
    0.9860   -0.9252   -0.8455 H   0  0  0  0  0  0  0  0  0  0  0  0
    1.0257   -0.8618    0.9060 H   0  0  0  0  0  0  0  0  0  0  0  0
   -2.9487    0.9594    0.8775 H   0  0  0  0  0  0  0  0  0  0  0  0
   -2.9386    0.9709   -0.8859 H   0  0  0  0  0  0  0  0  0  0  0  0
    2.1507    1.2612   -0.9900 H   0  0  0  0  0  0  0  0  0  0  0  0
    2.1519    1.3767    0.7878 H   0  0  0  0  0  0  0  0  0  0  0  0
   -4.1652   -1.2022   -0.9244 H   0  0  0  0  0  0  0  0  0  0  0  0
   -4.1449   -1.2561    0.8415 H   0  0  0  0  0  0  0  0  0  0  0  0
   -6.5329   -0.6984    0.0068 H   0  0  0  0  0  0  0  0  0  0  0  0
    5.4022    0.3100    0.0839 H   0  0  0  0  0  0  0  0  0  0  0  0
  1  9  1  0  0  0  0
  1 23  1  0  0  0  0
  2 10  1  0  0  0  0
  2 24  1  0  0  0  0
  3 10  2  0  0  0  0
  4  5  1  0  0  0  0
  4  6  1  0  0  0  0
  4 11  1  0  0  0  0
  4 12  1  0  0  0  0
  5  7  1  0  0  0  0
  5 13  1  0  0  0  0
  5 14  1  0  0  0  0
  6  8  1  0  0  0  0
  6 15  1  0  0  0  0
  6 16  1  0  0  0  0
  7  9  1  0  0  0  0
  7 17  1  0  0  0  0
  7 18  1  0  0  0  0
  8 10  1  0  0  0  0
  8 19  1  0  0  0  0
  8 20  1  0  0  0  0
  9 21  1  0  0  0  0
  9 22  1  0  0  0  0
M  END
> <PUBCHEM_COMPOUND_CID>
3016713

> <PUBCHEM_CONFORMER_RMSD>
0.6

> <PUBCHEM_CONFORMER_DIVERSEORDER>
1
168
31
13
169
21
38
45
174
165
48
158
81
163
61
102
11
148
60
3
172
159
82
100
153
152
120
83
170
134
150
39
65
164
41
49
54
17
171
94
37
22
35
155
110
137
117
118
75
138
71
99
98
156
91
160
63
56
50
72
175
30
24
46
66
51
68
154
122
129
20
28
105
173
79
113
130
58
59
166
9
145
151
23
128
44
43
143
73
78
74
5
10
167
123
101
14
19
86
55
162
27
64
89
146
33
141
124
161
107
108
104
95
133
93
136
90
25
80
7
116
18
106
76
131
157
36
15
57
42
87
77
47
26
70
109
119
127
139
121
84
40
52
140
62
149
53
85
112
69
88
34
29
115
6
147
126
132
32
96
114
67
92
97
8
103
111
135
2
16
144
125
4
142
12

> <PUBCHEM_MMFF94_PARTIAL_CHARGES>
8
1 -0.41
10 0.66
2 -0.65
23 0.18
24 0.5
3 -0.57
8 0.06
9 0.23

> <PUBCHEM_EFFECTIVE_ROTOR_COUNT>
6

> <PUBCHEM_PHARMACOPHORE_FEATURES>
4
1 2 acceptor
1 3 acceptor
3 2 3 10 anion
5 4 5 6 7 8 hydrophobe

> <PUBCHEM_HEAVY_ATOM_COUNT>
10

> <PUBCHEM_ATOM_DEF_STEREO_COUNT>
0

> <PUBCHEM_ATOM_UDEF_STEREO_COUNT>
0

> <PUBCHEM_BOND_DEF_STEREO_COUNT>
0

> <PUBCHEM_BOND_UDEF_STEREO_COUNT>
0

> <PUBCHEM_ISOTOPIC_ATOM_COUNT>
0

> <PUBCHEM_COMPONENT_COUNT>
1

> <PUBCHEM_CACTVS_TAUTO_COUNT>
1

> <PUBCHEM_CONFORMER_ID>
002E080900000001

> <PUBCHEM_MMFF94_ENERGY>
4.5703

> <PUBCHEM_FEATURE_SELFOVERLAP>
20.356

> <PUBCHEM_SHAPE_FINGERPRINT>
11062470 55 18259703389060461676
14123238 8 17095241415120189493
1420 363 7493001895287152277
15242433 33 18407759222510258710
15501527 16 18340486772845960445
17834072 33 18187650159147098053
17834076 25 15285356214931801733
18342897 14 18187364324694374313
190213 19 17846495928605300461
20645477 70 18337953497475296494
20719005 15 18411136939811276901
20767249 13 7637399627538467053
22485316 2 18408606946202042735
23402539 116 18113343011880034853
366044 4 18342458132326773003
42 15 18411417323655408279
42788 4 18410292510639003109
522135 26 18411418423383274870

> <PUBCHEM_SHAPE_MULTIPOLES>
197.91
11.84
0.94
0.61
5.84
0.1
0
-0.53
0.1
-0.44
0
0.13
-0.01
-0.02

> <PUBCHEM_SHAPE_SELFOVERLAP>
347.745

> <PUBCHEM_SHAPE_VOLUME>
130.4

> <PUBCHEM_COORDINATE_TYPE>
2
5
10

$$$$

