9926
  -OEChem-06261204112D

 42 43  0     0  0  0  0  0  0999 V2000
    9.3306    3.8784    0.0000 Cl  0  0  0  0  0  0  0  0  0  0  0  0
    2.4777    4.2078    0.0000 O   0  0  0  0  0  0  0  0  0  0  0  0
    5.7899    4.5679    0.0000 N   0  0  0  0  0  0  0  0  0  0  0  0
    4.0957    4.2078    0.0000 C   0  0  0  0  0  0  0  0  0  0  0  0
    5.0468    3.8988    0.0000 C   0  0  0  0  0  0  0  0  0  0  0  0
    3.2867    3.6200    0.0000 C   0  0  0  0  0  0  0  0  0  0  0  0
    3.7867    5.1588    0.0000 C   0  0  0  0  0  0  0  0  0  0  0  0
    2.7867    5.1588    0.0000 C   0  0  0  0  0  0  0  0  0  0  0  0
    3.2867    2.6200    0.0000 C   0  0  0  0  0  0  0  0  0  0  0  0
    2.1989    5.9679    0.0000 C   0  0  0  0  0  0  0  0  0  0  0  0
    6.7410    4.2589    0.0000 C   0  0  0  0  0  0  0  0  0  0  0  0
    5.5820    5.5460    0.0000 C   0  0  0  0  0  0  0  0  0  0  0  0
    2.4207    2.1200    0.0000 C   0  0  0  0  0  0  0  0  0  0  0  0
    4.1527    2.1200    0.0000 C   0  0  0  0  0  0  0  0  0  0  0  0
    2.6056    6.8814    0.0000 C   0  0  0  0  0  0  0  0  0  0  0  0
    1.2044    5.8633    0.0000 C   0  0  0  0  0  0  0  0  0  0  0  0
    2.4207    1.1200    0.0000 C   0  0  0  0  0  0  0  0  0  0  0  0
    4.1527    1.1200    0.0000 C   0  0  0  0  0  0  0  0  0  0  0  0
    2.0179    7.6904    0.0000 C   0  0  0  0  0  0  0  0  0  0  0  0
    0.6166    6.6724    0.0000 C   0  0  0  0  0  0  0  0  0  0  0  0
    3.2867    0.6200    0.0000 C   0  0  0  0  0  0  0  0  0  0  0  0
    1.0233    7.5859    0.0000 C   0  0  0  0  0  0  0  0  0  0  0  0
    4.7557    3.3513    0.0000 H   0  0  0  0  0  0  0  0  0  0  0  0
    5.5353    3.5171    0.0000 H   0  0  0  0  0  0  0  0  0  0  0  0
    4.1511    5.6604    0.0000 H   0  0  0  0  0  0  0  0  0  0  0  0
    6.5494    3.6692    0.0000 H   0  0  0  0  0  0  0  0  0  0  0  0
    6.1884    5.6750    0.0000 H   0  0  0  0  0  0  0  0  0  0  0  0
    5.4531    6.1525    0.0000 H   0  0  0  0  0  0  0  0  0  0  0  0
    4.9756    5.4171    0.0000 H   0  0  0  0  0  0  0  0  0  0  0  0
    7.3306    4.0673    0.0000 H   0  0  0  0  0  0  0  0  0  0  0  0
    6.9326    4.8485    0.0000 H   0  0  0  0  0  0  0  0  0  0  0  0
    1.8837    2.4300    0.0000 H   0  0  0  0  0  0  0  0  0  0  0  0
    4.6897    2.4300    0.0000 H   0  0  0  0  0  0  0  0  0  0  0  0
    3.2222    6.9462    0.0000 H   0  0  0  0  0  0  0  0  0  0  0  0
    0.9522    5.2969    0.0000 H   0  0  0  0  0  0  0  0  0  0  0  0
    1.8837    0.8100    0.0000 H   0  0  0  0  0  0  0  0  0  0  0  0
    4.6897    0.8100    0.0000 H   0  0  0  0  0  0  0  0  0  0  0  0
    2.2700    8.2568    0.0000 H   0  0  0  0  0  0  0  0  0  0  0  0
    0.0000    6.6075    0.0000 H   0  0  0  0  0  0  0  0  0  0  0  0
    3.2867    0.0000    0.0000 H   0  0  0  0  0  0  0  0  0  0  0  0
    0.6589    8.0875    0.0000 H   0  0  0  0  0  0  0  0  0  0  0  0
   10.3306    3.8784    0.0000 H   0  0  0  0  0  0  0  0  0  0  0  0
  1 42  1  0  0  0  0
  2  6  1  0  0  0  0
  2  8  1  0  0  0  0
  3  5  1  0  0  0  0
  3 11  1  0  0  0  0
  3 12  1  0  0  0  0
  4  5  1  0  0  0  0
  4  6  2  0  0  0  0
  4  7  1  0  0  0  0
  5 23  1  0  0  0  0
  5 24  1  0  0  0  0
  6  9  1  0  0  0  0
  7  8  2  0  0  0  0
  7 25  1  0  0  0  0
  8 10  1  0  0  0  0
  9 13  2  0  0  0  0
  9 14  1  0  0  0  0
 10 15  2  0  0  0  0
 10 16  1  0  0  0  0
 11 26  1  0  0  0  0
 11 30  1  0  0  0  0
 11 31  1  0  0  0  0
 12 27  1  0  0  0  0
 12 28  1  0  0  0  0
 12 29  1  0  0  0  0
 13 17  1  0  0  0  0
 13 32  1  0  0  0  0
 14 18  2  0  0  0  0
 14 33  1  0  0  0  0
 15 19  1  0  0  0  0
 15 34  1  0  0  0  0
 16 20  2  0  0  0  0
 16 35  1  0  0  0  0
 17 21  2  0  0  0  0
 17 36  1  0  0  0  0
 18 21  1  0  0  0  0
 18 37  1  0  0  0  0
 19 22  2  0  0  0  0
 19 38  1  0  0  0  0
 20 22  1  0  0  0  0
 20 39  1  0  0  0  0
 21 40  1  0  0  0  0
 22 41  1  0  0  0  0
M  END
> <PUBCHEM_COMPOUND_CID>
9926

> <PUBCHEM_COMPOUND_CANONICALIZED>
1

> <PUBCHEM_CACTVS_COMPLEXITY>
305

> <PUBCHEM_CACTVS_HBOND_ACCEPTOR>
2

> <PUBCHEM_CACTVS_HBOND_DONOR>
1

> <PUBCHEM_CACTVS_ROTATABLE_BOND>
4

> <PUBCHEM_CACTVS_SUBSKEYS>
AAADceB6IAAEAAAAAAAAAAAAAAAAASAAAAAwYAAAAAAAAAAB0AAAHgAAAAAADATBmAQyBIMABECIAqBSAACCCAAkIAAIiAEODMgMJjqEtRuGOSjmwBEIqYe8yPCOAAAAAAAAAAAAAAAAAAAAAAAAAAAAAA==

> <PUBCHEM_IUPAC_OPENEYE_NAME>
1-(2,5-diphenyl-3-furyl)-N,N-dimethyl-methanamine hydrochloride

> <PUBCHEM_IUPAC_CAS_NAME>
1-(2,5-diphenyl-3-furanyl)-N,N-dimethylmethanamine hydrochloride

> <PUBCHEM_IUPAC_NAME>
1-(2,5-diphenylfuran-3-yl)-N,N-dimethylmethanamine hydrochloride

> <PUBCHEM_IUPAC_SYSTEMATIC_NAME>
1-(2,5-diphenylfuran-3-yl)-N,N-dimethyl-methanamine hydrochloride

> <PUBCHEM_IUPAC_TRADITIONAL_NAME>
(2,5-diphenyl-3-furyl)methyl-dimethyl-amine hydrochloride

> <PUBCHEM_IUPAC_INCHI>
InChI=1S/C19H19NO.ClH/c1-20(2)14-17-13-18(15-9-5-3-6-10-15)21-19(17)16-11-7-4-8-12-16;/h3-13H,14H2,1-2H3;1H

> <PUBCHEM_IUPAC_INCHIKEY>
BKXQYUZPSLFXPV-UHFFFAOYSA-N

> <PUBCHEM_EXACT_MASS>
313.123342

> <PUBCHEM_MOLECULAR_FORMULA>
C19H20ClNO

> <PUBCHEM_MOLECULAR_WEIGHT>
313.8212

> <PUBCHEM_OPENEYE_CAN_SMILES>
CN(C)CC1=C(OC(=C1)C2=CC=CC=C2)C3=CC=CC=C3.Cl

> <PUBCHEM_OPENEYE_ISO_SMILES>
CN(C)CC1=C(OC(=C1)C2=CC=CC=C2)C3=CC=CC=C3.Cl

> <PUBCHEM_CACTVS_TPSA>
16.4

> <PUBCHEM_MONOISOTOPIC_WEIGHT>
313.123342

> <PUBCHEM_TOTAL_CHARGE>
0

> <PUBCHEM_HEAVY_ATOM_COUNT>
22

> <PUBCHEM_ATOM_DEF_STEREO_COUNT>
0

> <PUBCHEM_ATOM_UDEF_STEREO_COUNT>
0

> <PUBCHEM_BOND_DEF_STEREO_COUNT>
0

> <PUBCHEM_BOND_UDEF_STEREO_COUNT>
0

> <PUBCHEM_ISOTOPIC_ATOM_COUNT>
0

> <PUBCHEM_COMPONENT_COUNT>
2

> <PUBCHEM_CACTVS_TAUTO_COUNT>
1

> <PUBCHEM_COORDINATE_TYPE>
1
5
255

> <PUBCHEM_BONDANNOTATIONS>
10  15  8
10  16  8
13  17  8
14  18  8
15  19  8
16  20  8
17  21  8
18  21  8
19  22  8
2  6  8
2  8  8
20  22  8
4  6  8
4  7  8
7  8  8
9  13  8
9  14  8

$$$$

