5281592
  -OEChem-07051212583D

 75 77  0     1  0  0  0  0  0999 V2000
    1.5396    1.6197   -1.8482 O   0  0  0  0  0  0  0  0  0  0  0  0
   -2.6901    1.4862   -1.3792 O   0  0  0  0  0  0  0  0  0  0  0  0
   -4.7916   -1.4640   -2.1049 O   0  0  0  0  0  0  0  0  0  0  0  0
    2.9443   -1.9730    1.7579 O   0  0  0  0  0  0  0  0  0  0  0  0
   -1.2234    2.0023    0.3475 N   0  0  0  0  0  0  0  0  0  0  0  0
   -4.1771    2.1279    1.3021 N   0  0  0  0  0  0  0  0  0  0  0  0
    1.2114    0.6877    0.2457 N   0  0  0  0  0  0  0  0  0  0  0  0
    0.8127   -1.9958    0.8360 N   0  0  0  0  0  0  0  0  0  0  0  0
    0.4588    3.7739    0.2408 C   0  0  2  0  0  0  0  0  0  0  0  0
   -0.1702    2.5828   -0.4707 C   0  0  1  0  0  0  0  0  0  0  0  0
    1.4961    4.4511   -0.6759 C   0  0  0  0  0  0  0  0  0  0  0  0
   -3.3535    0.9869    0.8954 C   0  0  2  0  0  0  0  0  0  0  0  0
    0.9042    1.5505   -0.7949 C   0  0  0  0  0  0  0  0  0  0  0  0
    1.0720    3.3261    1.5711 C   0  0  0  0  0  0  0  0  0  0  0  0
   -2.4039    1.4988   -0.1837 C   0  0  0  0  0  0  0  0  0  0  0  0
   -4.2665   -0.1454    0.3940 C   0  0  0  0  0  0  0  0  0  0  0  0
    2.3486   -0.2225    0.1989 C   0  0  1  0  0  0  0  0  0  0  0  0
    0.9033    5.0306   -1.9523 C   0  0  0  0  0  0  0  0  0  0  0  0
   -3.5301   -1.3905   -0.0488 C   0  0  0  0  0  0  0  0  0  0  0  0
    3.6223    0.4959    0.6316 C   0  0  0  0  0  0  0  0  0  0  0  0
   -3.3358    3.2011    1.8280 C   0  0  0  0  0  0  0  0  0  0  0  0
   -5.1634    1.7140    2.2983 C   0  0  0  0  0  0  0  0  0  0  0  0
    2.0716   -1.4522    1.0638 C   0  0  0  0  0  0  0  0  0  0  0  0
   -2.5570   -1.9887    0.7638 C   0  0  0  0  0  0  0  0  0  0  0  0
   -3.8390   -1.9868   -1.2792 C   0  0  0  0  0  0  0  0  0  0  0  0
    4.8548   -0.2042    0.1268 C   0  0  0  0  0  0  0  0  0  0  0  0
   -1.8737   -3.1369    0.3395 C   0  0  0  0  0  0  0  0  0  0  0  0
   -3.1750   -3.1410   -1.6972 C   0  0  0  0  0  0  0  0  0  0  0  0
   -2.1927   -3.7152   -0.8922 C   0  0  0  0  0  0  0  0  0  0  0  0
   -0.8239   -3.7254    1.1747 C   0  0  0  0  0  0  0  0  0  0  0  0
    5.4486   -1.1895    0.9042 C   0  0  0  0  0  0  0  0  0  0  0  0
    5.3816    0.1438   -1.1097 C   0  0  0  0  0  0  0  0  0  0  0  0
    0.3800   -3.1759    1.3904 C   0  0  0  0  0  0  0  0  0  0  0  0
    6.5911   -1.8388    0.4362 C   0  0  0  0  0  0  0  0  0  0  0  0
    6.5240   -0.5057   -1.5775 C   0  0  0  0  0  0  0  0  0  0  0  0
    7.1286   -1.4971   -0.8045 C   0  0  0  0  0  0  0  0  0  0  0  0
   -6.1265   -1.9308   -1.9276 C   0  0  0  0  0  0  0  0  0  0  0  0
   -0.3290    4.5037    0.4715 H   0  0  0  0  0  0  0  0  0  0  0  0
   -0.6309    2.8839   -1.4171 H   0  0  0  0  0  0  0  0  0  0  0  0
    2.3349    3.7894   -0.9153 H   0  0  0  0  0  0  0  0  0  0  0  0
    1.9392    5.2850   -0.1151 H   0  0  0  0  0  0  0  0  0  0  0  0
   -2.7639    0.6264    1.7487 H   0  0  0  0  0  0  0  0  0  0  0  0
   -1.0507    1.8507    1.3345 H   0  0  0  0  0  0  0  0  0  0  0  0
    0.3892    2.7873    2.2303 H   0  0  0  0  0  0  0  0  0  0  0  0
    1.3709    4.2223    2.1305 H   0  0  0  0  0  0  0  0  0  0  0  0
    1.9909    2.7509    1.4465 H   0  0  0  0  0  0  0  0  0  0  0  0
   -4.8985    0.2422   -0.4142 H   0  0  0  0  0  0  0  0  0  0  0  0
   -4.9428   -0.5036    1.1785 H   0  0  0  0  0  0  0  0  0  0  0  0
    2.4394   -0.5739   -0.8377 H   0  0  0  0  0  0  0  0  0  0  0  0
    0.6434    0.6974    1.0870 H   0  0  0  0  0  0  0  0  0  0  0  0
    1.6496    5.6494   -2.4614 H   0  0  0  0  0  0  0  0  0  0  0  0
    0.0358    5.6615   -1.7348 H   0  0  0  0  0  0  0  0  0  0  0  0
    0.5997    4.2483   -2.6533 H   0  0  0  0  0  0  0  0  0  0  0  0
    3.6682    0.6013    1.7239 H   0  0  0  0  0  0  0  0  0  0  0  0
    3.6364    1.5243    0.2464 H   0  0  0  0  0  0  0  0  0  0  0  0
   -2.8022    3.7378    1.0384 H   0  0  0  0  0  0  0  0  0  0  0  0
   -2.6387    2.8616    2.6026 H   0  0  0  0  0  0  0  0  0  0  0  0
   -3.9614    3.9776    2.2873 H   0  0  0  0  0  0  0  0  0  0  0  0
   -5.9831    1.1420    1.8524 H   0  0  0  0  0  0  0  0  0  0  0  0
   -5.6568    2.5899    2.7379 H   0  0  0  0  0  0  0  0  0  0  0  0
   -4.7190    1.1428    3.1216 H   0  0  0  0  0  0  0  0  0  0  0  0
   -2.3222   -1.5581    1.7347 H   0  0  0  0  0  0  0  0  0  0  0  0
   -3.4157   -3.5973   -2.6539 H   0  0  0  0  0  0  0  0  0  0  0  0
    0.1785   -1.5011    0.2146 H   0  0  0  0  0  0  0  0  0  0  0  0
   -1.6785   -4.6088   -1.2375 H   0  0  0  0  0  0  0  0  0  0  0  0
   -1.0651   -4.6805    1.6332 H   0  0  0  0  0  0  0  0  0  0  0  0
    5.1124   -1.4180    1.9087 H   0  0  0  0  0  0  0  0  0  0  0  0
    4.9170    0.9126   -1.7207 H   0  0  0  0  0  0  0  0  0  0  0  0
    1.0901   -3.6881    2.0318 H   0  0  0  0  0  0  0  0  0  0  0  0
    7.0742   -2.5962    1.0467 H   0  0  0  0  0  0  0  0  0  0  0  0
    6.9430   -0.2393   -2.5434 H   0  0  0  0  0  0  0  0  0  0  0  0
    8.0208   -1.9993   -1.1668 H   0  0  0  0  0  0  0  0  0  0  0  0
   -6.7778   -1.3708   -2.6041 H   0  0  0  0  0  0  0  0  0  0  0  0
   -6.4667   -1.7672   -0.9002 H   0  0  0  0  0  0  0  0  0  0  0  0
   -6.1939   -2.9941   -2.1785 H   0  0  0  0  0  0  0  0  0  0  0  0
  1 13  2  0  0  0  0
  2 15  2  0  0  0  0
  3 25  1  0  0  0  0
  3 37  1  0  0  0  0
  4 23  2  0  0  0  0
  5 10  1  0  0  0  0
  5 15  1  0  0  0  0
  5 43  1  0  0  0  0
  6 12  1  0  0  0  0
  6 21  1  0  0  0  0
  6 22  1  0  0  0  0
  7 13  1  0  0  0  0
  7 17  1  0  0  0  0
  7 50  1  0  0  0  0
  8 23  1  0  0  0  0
  8 33  1  0  0  0  0
  8 64  1  0  0  0  0
  9 10  1  0  0  0  0
  9 11  1  0  0  0  0
  9 14  1  0  0  0  0
  9 38  1  0  0  0  0
 10 13  1  0  0  0  0
 10 39  1  0  0  0  0
 11 18  1  0  0  0  0
 11 40  1  0  0  0  0
 11 41  1  0  0  0  0
 12 15  1  0  0  0  0
 12 16  1  0  0  0  0
 12 42  1  0  0  0  0
 14 44  1  0  0  0  0
 14 45  1  0  0  0  0
 14 46  1  0  0  0  0
 16 19  1  0  0  0  0
 16 47  1  0  0  0  0
 16 48  1  0  0  0  0
 17 20  1  0  0  0  0
 17 23  1  0  0  0  0
 17 49  1  0  0  0  0
 18 51  1  0  0  0  0
 18 52  1  0  0  0  0
 18 53  1  0  0  0  0
 19 24  1  0  0  0  0
 19 25  2  0  0  0  0
 20 26  1  0  0  0  0
 20 54  1  0  0  0  0
 20 55  1  0  0  0  0
 21 56  1  0  0  0  0
 21 57  1  0  0  0  0
 21 58  1  0  0  0  0
 22 59  1  0  0  0  0
 22 60  1  0  0  0  0
 22 61  1  0  0  0  0
 24 27  2  0  0  0  0
 24 62  1  0  0  0  0
 25 28  1  0  0  0  0
 26 31  2  0  0  0  0
 26 32  1  0  0  0  0
 27 29  1  0  0  0  0
 27 30  1  0  0  0  0
 28 29  2  0  0  0  0
 28 63  1  0  0  0  0
 29 65  1  0  0  0  0
 30 33  2  0  0  0  0
 30 66  1  0  0  0  0
 31 34  1  0  0  0  0
 31 67  1  0  0  0  0
 32 35  2  0  0  0  0
 32 68  1  0  0  0  0
 33 69  1  0  0  0  0
 34 36  2  0  0  0  0
 34 70  1  0  0  0  0
 35 36  1  0  0  0  0
 35 71  1  0  0  0  0
 36 72  1  0  0  0  0
 37 73  1  0  0  0  0
 37 74  1  0  0  0  0
 37 75  1  0  0  0  0
M  END
> <PUBCHEM_COMPOUND_CID>
5281592

> <PUBCHEM_CONFORMER_RMSD>
1

> <PUBCHEM_CONFORMER_DIVERSEORDER>
1
7
2
4
5
6
3

> <PUBCHEM_MMFF94_PARTIAL_CHARGES>
46
1 -0.57
10 0.36
12 0.33
13 0.57
15 0.57
16 0.14
17 0.36
19 -0.14
2 -0.57
20 0.14
21 0.27
22 0.27
23 0.57
24 -0.15
25 0.08
26 -0.14
27 0.03
28 -0.15
29 -0.15
3 -0.36
30 -0.18
31 -0.15
32 -0.15
33 -0.04
34 -0.15
35 -0.15
36 -0.15
37 0.28
4 -0.57
43 0.37
5 -0.73
50 0.37
6 -0.81
62 0.15
63 0.15
64 0.37
65 0.15
66 0.15
67 0.15
68 0.15
69 0.15
7 -0.73
70 0.15
71 0.15
72 0.15
8 -0.54

> <PUBCHEM_EFFECTIVE_ROTOR_COUNT>
7.4

> <PUBCHEM_PHARMACOPHORE_FEATURES>
12
1 1 acceptor
1 14 hydrophobe
1 18 hydrophobe
1 2 acceptor
1 3 acceptor
1 4 acceptor
1 5 donor
1 6 cation
1 7 donor
1 8 donor
6 19 24 25 27 28 29 rings
6 26 31 32 34 35 36 rings

> <PUBCHEM_HEAVY_ATOM_COUNT>
37

> <PUBCHEM_ATOM_DEF_STEREO_COUNT>
4

> <PUBCHEM_ATOM_UDEF_STEREO_COUNT>
0

> <PUBCHEM_BOND_DEF_STEREO_COUNT>
1

> <PUBCHEM_BOND_UDEF_STEREO_COUNT>
0

> <PUBCHEM_ISOTOPIC_ATOM_COUNT>
0

> <PUBCHEM_COMPONENT_COUNT>
1

> <PUBCHEM_CACTVS_TAUTO_COUNT>
8

> <PUBCHEM_CONFORMER_ID>
0050973800000001

> <PUBCHEM_MMFF94_ENERGY>
130.9482

> <PUBCHEM_FEATURE_SELFOVERLAP>
60.901

> <PUBCHEM_SHAPE_FINGERPRINT>
10290309 65 17616245218743339632
10670039 82 18412267250692484266
10815517 723 18340480192633718558
10864689 126 18192435384154734312
10940486 97 18409724080023430573
1100329 8 18341320128954157424
11513181 2 18042967764463340055
12107698 1 18114468864167859935
12788726 201 18270972344596920682
13761468 95 18125156297509604926
13782708 43 16660368034674058646
14068700 675 18261689086018054799
14117953 113 18408890667968856909
14394314 77 18341607178497952385
14840074 17 18059282279483122104
14931854 50 18270418130406558655
15183329 4 18343586244369100398
15297060 5 17969496181360242858
15420108 30 17972597964424606937
16112460 7 18339072696789902857
19311894 1 18411418414625184930
20775438 99 17109067541611773863
21796203 349 17912042231916618457
21814621 53 16515972579171764858
23559900 14 18120105991553258947
24771293 8 18338237060518464464
3610482 184 18269531919855277982
4017518 198 17969782071911214063
437795 70 18335413565728282358
463206 1 18272359854939802736
50677037 204 18412265021841483704
508180 173 18340217318965168747
5171179 24 18115028477158480848
6608658 132 18339369659550622899
9896288 288 17972865132385596881

> <PUBCHEM_SHAPE_MULTIPOLES>
718.04
13.67
6.17
1.98
15.34
4.29
-0.25
-8.23
-2.95
-2.67
-0.55
-1.56
0.28
-3.69

> <PUBCHEM_SHAPE_SELFOVERLAP>
1505.417

> <PUBCHEM_SHAPE_VOLUME>
402.2

> <PUBCHEM_COORDINATE_TYPE>
2
5
10

$$$$

