234453
  -OEChem-07051213063D

 52 55  0     1  0  0  0  0  0999 V2000
   -3.8305    0.9106    0.4685 O   0  0  0  0  0  0  0  0  0  0  0  0
    6.1699   -0.1800    0.3181 O   0  0  0  0  0  0  0  0  0  0  0  0
   -5.9329    0.1081    0.5702 O   0  0  0  0  0  0  0  0  0  0  0  0
    1.9521    0.4161   -0.2028 C   0  0  2  0  0  0  0  0  0  0  0  0
    0.4433    0.5032    0.2425 C   0  0  2  0  0  0  0  0  0  0  0  0
   -0.4218   -0.6636   -0.3335 C   0  0  2  0  0  0  0  0  0  0  0  0
    2.4878   -0.9832    0.2333 C   0  0  1  0  0  0  0  0  0  0  0  0
   -1.8786   -0.5558    0.1966 C   0  0  1  0  0  0  0  0  0  0  0  0
    0.2075   -2.0293   -0.0004 C   0  0  0  0  0  0  0  0  0  0  0  0
   -2.5238    0.7994   -0.1559 C   0  0  2  0  0  0  0  0  0  0  0  0
   -0.2115    1.8717   -0.0389 C   0  0  0  0  0  0  0  0  0  0  0  0
    1.6812   -2.1260   -0.3852 C   0  0  0  0  0  0  0  0  0  0  0  0
    2.8034    1.4947    0.5283 C   0  0  0  0  0  0  0  0  0  0  0  0
   -1.6625    1.9260    0.4350 C   0  0  0  0  0  0  0  0  0  0  0  0
    3.9900   -1.1580   -0.0232 C   0  0  0  0  0  0  0  0  0  0  0  0
    2.0887    0.6414   -1.7308 C   0  0  0  0  0  0  0  0  0  0  0  0
   -2.8133   -1.6727   -0.2629 C   0  0  0  0  0  0  0  0  0  0  0  0
    4.3103    1.3301    0.3198 C   0  0  0  0  0  0  0  0  0  0  0  0
    4.7976   -0.0688    0.6806 C   0  0  2  0  0  0  0  0  0  0  0  0
   -2.7429    1.0432   -1.6623 C   0  0  0  0  0  0  0  0  0  0  0  0
   -4.1843   -1.5058    0.3707 C   0  0  0  0  0  0  0  0  0  0  0  0
   -4.7297   -0.1013    0.4324 C   0  0  0  0  0  0  0  0  0  0  0  0
    0.4347    0.3850    1.3377 H   0  0  0  0  0  0  0  0  0  0  0  0
   -0.4518   -0.5830   -1.4259 H   0  0  0  0  0  0  0  0  0  0  0  0
    2.3546   -1.0610    1.3238 H   0  0  0  0  0  0  0  0  0  0  0  0
   -1.8329   -0.6302    1.2945 H   0  0  0  0  0  0  0  0  0  0  0  0
   -0.3255   -2.8308   -0.5234 H   0  0  0  0  0  0  0  0  0  0  0  0
    0.1049   -2.2278    1.0742 H   0  0  0  0  0  0  0  0  0  0  0  0
   -0.1730    2.1067   -1.1072 H   0  0  0  0  0  0  0  0  0  0  0  0
    0.3360    2.6677    0.4767 H   0  0  0  0  0  0  0  0  0  0  0  0
    2.0716   -3.0893   -0.0344 H   0  0  0  0  0  0  0  0  0  0  0  0
    1.7840   -2.1319   -1.4763 H   0  0  0  0  0  0  0  0  0  0  0  0
    2.5954    1.4546    1.6057 H   0  0  0  0  0  0  0  0  0  0  0  0
    2.5241    2.5006    0.1944 H   0  0  0  0  0  0  0  0  0  0  0  0
   -1.6893    1.8685    1.5319 H   0  0  0  0  0  0  0  0  0  0  0  0
   -2.0960    2.9045    0.1911 H   0  0  0  0  0  0  0  0  0  0  0  0
    4.3222   -2.1376    0.3450 H   0  0  0  0  0  0  0  0  0  0  0  0
    4.2158   -1.1674   -1.0962 H   0  0  0  0  0  0  0  0  0  0  0  0
    1.8215    1.6673   -2.0056 H   0  0  0  0  0  0  0  0  0  0  0  0
    3.1112    0.4847   -2.0855 H   0  0  0  0  0  0  0  0  0  0  0  0
    1.4510   -0.0270   -2.3145 H   0  0  0  0  0  0  0  0  0  0  0  0
   -2.4296   -2.6566    0.0267 H   0  0  0  0  0  0  0  0  0  0  0  0
   -2.8975   -1.6857   -1.3553 H   0  0  0  0  0  0  0  0  0  0  0  0
    4.5817    1.5656   -0.7166 H   0  0  0  0  0  0  0  0  0  0  0  0
    4.8476    2.0693    0.9275 H   0  0  0  0  0  0  0  0  0  0  0  0
    4.7299   -0.2039    1.7670 H   0  0  0  0  0  0  0  0  0  0  0  0
   -3.1614    2.0436   -1.8271 H   0  0  0  0  0  0  0  0  0  0  0  0
   -1.8237    0.9649   -2.2478 H   0  0  0  0  0  0  0  0  0  0  0  0
   -3.4760    0.3490   -2.0858 H   0  0  0  0  0  0  0  0  0  0  0  0
   -4.1483   -1.8690    1.4051 H   0  0  0  0  0  0  0  0  0  0  0  0
   -4.9023   -2.1282   -0.1754 H   0  0  0  0  0  0  0  0  0  0  0  0
    6.4665   -1.0729    0.5637 H   0  0  0  0  0  0  0  0  0  0  0  0
  1 10  1  0  0  0  0
  1 22  1  0  0  0  0
  2 19  1  0  0  0  0
  2 52  1  0  0  0  0
  3 22  2  0  0  0  0
  4  5  1  0  0  0  0
  4  7  1  0  0  0  0
  4 13  1  0  0  0  0
  4 16  1  0  0  0  0
  5  6  1  0  0  0  0
  5 11  1  0  0  0  0
  5 23  1  0  0  0  0
  6  8  1  0  0  0  0
  6  9  1  0  0  0  0
  6 24  1  0  0  0  0
  7 12  1  0  0  0  0
  7 15  1  0  0  0  0
  7 25  1  0  0  0  0
  8 10  1  0  0  0  0
  8 17  1  0  0  0  0
  8 26  1  0  0  0  0
  9 12  1  0  0  0  0
  9 27  1  0  0  0  0
  9 28  1  0  0  0  0
 10 14  1  0  0  0  0
 10 20  1  0  0  0  0
 11 14  1  0  0  0  0
 11 29  1  0  0  0  0
 11 30  1  0  0  0  0
 12 31  1  0  0  0  0
 12 32  1  0  0  0  0
 13 18  1  0  0  0  0
 13 33  1  0  0  0  0
 13 34  1  0  0  0  0
 14 35  1  0  0  0  0
 14 36  1  0  0  0  0
 15 19  1  0  0  0  0
 15 37  1  0  0  0  0
 15 38  1  0  0  0  0
 16 39  1  0  0  0  0
 16 40  1  0  0  0  0
 16 41  1  0  0  0  0
 17 21  1  0  0  0  0
 17 42  1  0  0  0  0
 17 43  1  0  0  0  0
 18 19  1  0  0  0  0
 18 44  1  0  0  0  0
 18 45  1  0  0  0  0
 19 46  1  0  0  0  0
 20 47  1  0  0  0  0
 20 48  1  0  0  0  0
 20 49  1  0  0  0  0
 21 22  1  0  0  0  0
 21 50  1  0  0  0  0
 21 51  1  0  0  0  0
M  END
> <PUBCHEM_COMPOUND_CID>
234453

> <PUBCHEM_CONFORMER_RMSD>
0.6

> <PUBCHEM_CONFORMER_DIVERSEORDER>
1

> <PUBCHEM_MMFF94_PARTIAL_CHARGES>
8
1 -0.43
10 0.28
19 0.28
2 -0.68
21 0.06
22 0.66
3 -0.57
52 0.4

> <PUBCHEM_EFFECTIVE_ROTOR_COUNT>
2.2

> <PUBCHEM_PHARMACOPHORE_FEATURES>
7
1 2 acceptor
1 2 donor
1 3 acceptor
6 1 8 10 17 21 22 rings
6 4 5 6 7 9 12 rings
6 4 7 13 15 18 19 rings
6 5 6 8 10 11 14 rings

> <PUBCHEM_HEAVY_ATOM_COUNT>
22

> <PUBCHEM_ATOM_DEF_STEREO_COUNT>
7

> <PUBCHEM_ATOM_UDEF_STEREO_COUNT>
0

> <PUBCHEM_BOND_DEF_STEREO_COUNT>
0

> <PUBCHEM_BOND_UDEF_STEREO_COUNT>
0

> <PUBCHEM_ISOTOPIC_ATOM_COUNT>
0

> <PUBCHEM_COMPONENT_COUNT>
1

> <PUBCHEM_CACTVS_TAUTO_COUNT>
1

> <PUBCHEM_CONFORMER_ID>
000393D500000001

> <PUBCHEM_MMFF94_ENERGY>
67.4306

> <PUBCHEM_FEATURE_SELFOVERLAP>
35.569

> <PUBCHEM_SHAPE_FINGERPRINT>
10 15 18339654343875356168
10967382 1 18409166618863120210
11089746 13 17312827069733869993
11132069 177 18341609300649094027
11578080 2 16914267444564700278
12107183 9 17761210320621788042
12236239 1 17917992776440747984
12403259 226 18411706517000001932
12403259 415 18412272722448988868
12403814 3 17989207040965632341
128620 24 18273214196659069383
13140716 1 18264770956564346617
13224815 77 18410855473018351455
13402501 40 18411135822798332179
13533116 47 17489597800373024666
13583140 156 17059237910905110438
13675066 3 18272370862513525979
13862211 1 18410015403317277191
14178342 30 18339354283451730161
14223421 5 18265051512423291644
14341114 176 18411978091886996482
14787075 74 18340209587554725818
14790565 3 17977940194364975060
15163728 17 14491854170336158793
15196674 1 18409449146101615195
15536298 74 18334009514589863606
15788980 27 17418097611100453717
16945 1 18194125345967961142
17349148 13 18060138734690386088
1813 80 17346312717389305268
18186145 218 18408887347589735012
18522853 276 18409446998823611059
19141452 34 18335419033200219735
200 152 18259711090490730991
21033648 29 18340226144844095144
21267235 1 18410567405820833370
21421861 104 18128820922235973562
22182313 1 18341333408686789575
23402539 116 18187653470145020142
23557571 272 17775006825276915773
23559900 14 18409453570229439336
26918003 58 18060135427644865123
296302 2 15936411134730275300
335352 9 18409166601688519607
34934 24 18335423469869709991
350125 39 18411135814699046680
3545911 37 18410855473023639186
4214541 1 18411139155682410697
474229 33 18409730651359589042
5104073 3 18338517572229569506
7364860 26 18188769582259517894
9709674 26 18262797496401544798

> <PUBCHEM_SHAPE_MULTIPOLES>
435.14
10.72
2.08
0.99
0.58
0.29
0.41
0.36
-2.43
-0.07
0.02
-0.07
-0.24
0.26

> <PUBCHEM_SHAPE_SELFOVERLAP>
921.654

> <PUBCHEM_SHAPE_VOLUME>
239.3

> <PUBCHEM_COORDINATE_TYPE>
2
5
10

$$$$

