12492
  -OEChem-06261207002D

 42 43  0     1  0  0  0  0  0999 V2000
    2.0000    1.3450    0.0000 Cl  0  0  0  0  0  0  0  0  0  0  0  0
    3.7320    2.3450    0.0000 S   0  0  0  0  0  0  0  0  0  0  0  0
    6.3301   -0.1550    0.0000 O   0  0  0  0  0  0  0  0  0  0  0  0
    4.7320    2.3450    0.0000 O   0  0  0  0  0  0  0  0  0  0  0  0
    2.7320    2.3450    0.0000 O   0  0  0  0  0  0  0  0  0  0  0  0
    6.3301   -2.1550    0.0000 N   0  0  0  0  0  0  0  0  0  0  0  0
    5.4641   -1.6550    0.0000 N   0  0  0  0  0  0  0  0  0  0  0  0
    3.7320    3.3450    0.0000 N   0  0  0  0  0  0  0  0  0  0  0  0
    6.3301   -3.1550    0.0000 C   0  0  1  0  0  0  0  0  0  0  0  0
    7.1962   -1.6550    0.0000 C   0  0  2  0  0  0  0  0  0  0  0  0
    8.0622   -2.1550    0.0000 C   0  0  0  0  0  0  0  0  0  0  0  0
    7.1962   -3.6550    0.0000 C   0  0  0  0  0  0  0  0  0  0  0  0
    8.0622   -3.1550    0.0000 C   0  0  0  0  0  0  0  0  0  0  0  0
    7.1962   -0.6550    0.0000 C   0  0  0  0  0  0  0  0  0  0  0  0
    5.4641   -3.6550    0.0000 C   0  0  0  0  0  0  0  0  0  0  0  0
    5.4641   -0.6550    0.0000 C   0  0  0  0  0  0  0  0  0  0  0  0
    4.5981   -0.1550    0.0000 C   0  0  0  0  0  0  0  0  0  0  0  0
    4.5981    0.8450    0.0000 C   0  0  0  0  0  0  0  0  0  0  0  0
    3.7320   -0.6550    0.0000 C   0  0  0  0  0  0  0  0  0  0  0  0
    3.7320    1.3450    0.0000 C   0  0  0  0  0  0  0  0  0  0  0  0
    2.8660   -0.1550    0.0000 C   0  0  0  0  0  0  0  0  0  0  0  0
    2.8660    0.8450    0.0000 C   0  0  0  0  0  0  0  0  0  0  0  0
    5.7932   -2.8450    0.0000 H   0  0  0  0  0  0  0  0  0  0  0  0
    6.6592   -1.3450    0.0000 H   0  0  0  0  0  0  0  0  0  0  0  0
    8.6728   -2.2627    0.0000 H   0  0  0  0  0  0  0  0  0  0  0  0
    8.2742   -1.5724    0.0000 H   0  0  0  0  0  0  0  0  0  0  0  0
    6.7976   -4.1300    0.0000 H   0  0  0  0  0  0  0  0  0  0  0  0
    7.5947   -4.1300    0.0000 H   0  0  0  0  0  0  0  0  0  0  0  0
    8.2742   -3.7376    0.0000 H   0  0  0  0  0  0  0  0  0  0  0  0
    8.6728   -3.0473    0.0000 H   0  0  0  0  0  0  0  0  0  0  0  0
    7.8162   -0.6550    0.0000 H   0  0  0  0  0  0  0  0  0  0  0  0
    7.1962   -0.0350    0.0000 H   0  0  0  0  0  0  0  0  0  0  0  0
    6.5762   -0.6550    0.0000 H   0  0  0  0  0  0  0  0  0  0  0  0
    5.1541   -3.1181    0.0000 H   0  0  0  0  0  0  0  0  0  0  0  0
    4.9272   -3.9650    0.0000 H   0  0  0  0  0  0  0  0  0  0  0  0
    5.7741   -4.1919    0.0000 H   0  0  0  0  0  0  0  0  0  0  0  0
    4.9272   -1.9650    0.0000 H   0  0  0  0  0  0  0  0  0  0  0  0
    5.1350    1.1550    0.0000 H   0  0  0  0  0  0  0  0  0  0  0  0
    3.7320   -1.2750    0.0000 H   0  0  0  0  0  0  0  0  0  0  0  0
    2.3291   -0.4650    0.0000 H   0  0  0  0  0  0  0  0  0  0  0  0
    4.2690    3.6550    0.0000 H   0  0  0  0  0  0  0  0  0  0  0  0
    3.1951    3.6550    0.0000 H   0  0  0  0  0  0  0  0  0  0  0  0
  1 22  1  0  0  0  0
  2  4  2  0  0  0  0
  2  5  2  0  0  0  0
  2  8  1  0  0  0  0
  2 20  1  0  0  0  0
  3 16  2  0  0  0  0
  6  7  1  0  0  0  0
  6  9  1  0  0  0  0
  6 10  1  0  0  0  0
  7 16  1  0  0  0  0
  7 37  1  0  0  0  0
  8 41  1  0  0  0  0
  8 42  1  0  0  0  0
  9 12  1  0  0  0  0
  9 15  1  1  0  0  0
  9 23  1  0  0  0  0
 10 11  1  0  0  0  0
 10 14  1  1  0  0  0
 10 24  1  0  0  0  0
 11 13  1  0  0  0  0
 11 25  1  0  0  0  0
 11 26  1  0  0  0  0
 12 13  1  0  0  0  0
 12 27  1  0  0  0  0
 12 28  1  0  0  0  0
 13 29  1  0  0  0  0
 13 30  1  0  0  0  0
 14 31  1  0  0  0  0
 14 32  1  0  0  0  0
 14 33  1  0  0  0  0
 15 34  1  0  0  0  0
 15 35  1  0  0  0  0
 15 36  1  0  0  0  0
 16 17  1  0  0  0  0
 17 18  2  0  0  0  0
 17 19  1  0  0  0  0
 18 20  1  0  0  0  0
 18 38  1  0  0  0  0
 19 21  2  0  0  0  0
 19 39  1  0  0  0  0
 20 22  2  0  0  0  0
 21 22  1  0  0  0  0
 21 40  1  0  0  0  0
M  END
> <PUBCHEM_COMPOUND_CID>
12492

> <PUBCHEM_COMPOUND_CANONICALIZED>
1

> <PUBCHEM_CACTVS_COMPLEXITY>
498

> <PUBCHEM_CACTVS_HBOND_ACCEPTOR>
5

> <PUBCHEM_CACTVS_HBOND_DONOR>
2

> <PUBCHEM_CACTVS_ROTATABLE_BOND>
3

> <PUBCHEM_CACTVS_SUBSKEYS>
AAADceBzMABEAAAAAAAAAAAAAAAAAAAAAAA8QAAAAAAAAAABAAAAHgYYQAAADCrB2CQyAYJiAAKIAiFSEHDCABAkBQAaqBkIBsgIIDKBlxGEIQBggACIiYcYiACOBAAAgAAAAIAIAAEAAAABAAAAAAAAAA==

> <PUBCHEM_IUPAC_OPENEYE_NAME>
4-chloro-N-[(2S,6R)-2,6-dimethyl-1-piperidyl]-3-sulfamoyl-benzamide

> <PUBCHEM_IUPAC_CAS_NAME>
4-chloro-N-[(2S,6R)-2,6-dimethyl-1-piperidinyl]-3-sulfamoylbenzamide

> <PUBCHEM_IUPAC_NAME>
4-chloro-N-[(2S,6R)-2,6-dimethylpiperidin-1-yl]-3-sulfamoylbenzamide

> <PUBCHEM_IUPAC_SYSTEMATIC_NAME>
4-chloranyl-N-[(2S,6R)-2,6-dimethylpiperidin-1-yl]-3-sulfamoyl-benzamide

> <PUBCHEM_IUPAC_TRADITIONAL_NAME>
4-chloro-N-[(2S,6R)-2,6-dimethylpiperidino]-3-sulfamoyl-benzamide

> <PUBCHEM_IUPAC_INCHI>
InChI=1S/C14H20ClN3O3S/c1-9-4-3-5-10(2)18(9)17-14(19)11-6-7-12(15)13(8-11)22(16,20)21/h6-10H,3-5H2,1-2H3,(H,17,19)(H2,16,20,21)/t9-,10+

> <PUBCHEM_IUPAC_INCHIKEY>
LBXHRAWDUMTPSE-AOOOYVTPSA-N

> <PUBCHEM_XLOGP3_AA>
2.3

> <PUBCHEM_EXACT_MASS>
345.09139

> <PUBCHEM_MOLECULAR_FORMULA>
C14H20ClN3O3S

> <PUBCHEM_MOLECULAR_WEIGHT>
345.8449

> <PUBCHEM_OPENEYE_CAN_SMILES>
CC1CCCC(N1NC(=O)C2=CC(=C(C=C2)Cl)S(=O)(=O)N)C

> <PUBCHEM_OPENEYE_ISO_SMILES>
C[C@@H]1CCC[C@@H](N1NC(=O)C2=CC(=C(C=C2)Cl)S(=O)(=O)N)C

> <PUBCHEM_CACTVS_TPSA>
101

> <PUBCHEM_MONOISOTOPIC_WEIGHT>
345.09139

> <PUBCHEM_TOTAL_CHARGE>
0

> <PUBCHEM_HEAVY_ATOM_COUNT>
22

> <PUBCHEM_ATOM_DEF_STEREO_COUNT>
2

> <PUBCHEM_ATOM_UDEF_STEREO_COUNT>
0

> <PUBCHEM_BOND_DEF_STEREO_COUNT>
0

> <PUBCHEM_BOND_UDEF_STEREO_COUNT>
0

> <PUBCHEM_ISOTOPIC_ATOM_COUNT>
0

> <PUBCHEM_COMPONENT_COUNT>
1

> <PUBCHEM_CACTVS_TAUTO_COUNT>
2

> <PUBCHEM_COORDINATE_TYPE>
1
5
255

> <PUBCHEM_BONDANNOTATIONS>
10  14  5
17  18  8
17  19  8
18  20  8
19  21  8
20  22  8
21  22  8
9  15  5

$$$$

