688100
  -OEChem-07051212503D

 26 26  0     1  0  0  0  0  0999 V2000
    2.6186   -0.1400   -1.5002 O   0  0  0  0  0  0  0  0  0  0  0  0
   -2.2131    1.5236   -0.5657 O   0  0  0  0  0  0  0  0  0  0  0  0
   -3.3698   -0.8966    0.1632 O   0  0  0  0  0  0  0  0  0  0  0  0
    4.2428    0.7993    0.6858 N   0  0  0  0  0  0  0  0  0  0  0  0
    2.2447   -0.4199   -0.1445 C   0  0  2  0  0  0  0  0  0  0  0  0
    0.7606   -0.5426   -0.0647 C   0  0  0  0  0  0  0  0  0  0  0  0
    2.7887    0.6893    0.7777 C   0  0  0  0  0  0  0  0  0  0  0  0
   -0.0469    0.5573   -0.3546 C   0  0  0  0  0  0  0  0  0  0  0  0
    0.1799   -1.7571    0.3007 C   0  0  0  0  0  0  0  0  0  0  0  0
   -1.4349    0.4426   -0.2791 C   0  0  0  0  0  0  0  0  0  0  0  0
   -1.2081   -1.8717    0.3763 C   0  0  0  0  0  0  0  0  0  0  0  0
   -2.0156   -0.7718    0.0863 C   0  0  0  0  0  0  0  0  0  0  0  0
   -2.5469    2.3876    0.5188 C   0  0  0  0  0  0  0  0  0  0  0  0
    2.7181   -1.3734    0.1217 H   0  0  0  0  0  0  0  0  0  0  0  0
    2.5025    0.4927    1.8173 H   0  0  0  0  0  0  0  0  0  0  0  0
    2.3794    1.6659    0.4985 H   0  0  0  0  0  0  0  0  0  0  0  0
    0.3903    1.5064   -0.6540 H   0  0  0  0  0  0  0  0  0  0  0  0
    0.7951   -2.6231    0.5299 H   0  0  0  0  0  0  0  0  0  0  0  0
   -1.6474   -2.8237    0.6623 H   0  0  0  0  0  0  0  0  0  0  0  0
    3.5859   -0.0407   -1.5185 H   0  0  0  0  0  0  0  0  0  0  0  0
    4.6699   -0.0830    0.9649 H   0  0  0  0  0  0  0  0  0  0  0  0
    4.5710    1.4989    1.3504 H   0  0  0  0  0  0  0  0  0  0  0  0
   -3.5895   -1.8055    0.4310 H   0  0  0  0  0  0  0  0  0  0  0  0
   -1.6420    2.8247    0.9530 H   0  0  0  0  0  0  0  0  0  0  0  0
   -3.1076    1.8447    1.2861 H   0  0  0  0  0  0  0  0  0  0  0  0
   -3.1747    3.1952    0.1327 H   0  0  0  0  0  0  0  0  0  0  0  0
  1  5  1  0  0  0  0
  1 20  1  0  0  0  0
  2 10  1  0  0  0  0
  2 13  1  0  0  0  0
  3 12  1  0  0  0  0
  3 23  1  0  0  0  0
  4  7  1  0  0  0  0
  4 21  1  0  0  0  0
  4 22  1  0  0  0  0
  5  6  1  0  0  0  0
  5  7  1  0  0  0  0
  5 14  1  0  0  0  0
  6  8  2  0  0  0  0
  6  9  1  0  0  0  0
  7 15  1  0  0  0  0
  7 16  1  0  0  0  0
  8 10  1  0  0  0  0
  8 17  1  0  0  0  0
  9 11  2  0  0  0  0
  9 18  1  0  0  0  0
 10 12  2  0  0  0  0
 11 12  1  0  0  0  0
 11 19  1  0  0  0  0
 13 24  1  0  0  0  0
 13 25  1  0  0  0  0
 13 26  1  0  0  0  0
M  END
> <PUBCHEM_COMPOUND_CID>
688100

> <PUBCHEM_CONFORMER_RMSD>
0.6

> <PUBCHEM_CONFORMER_DIVERSEORDER>
1
12
6
15
11
7
14
10
5
3
8
9
16
13
4
2

> <PUBCHEM_MMFF94_PARTIAL_CHARGES>
20
1 -0.68
10 0.08
11 -0.15
12 0.08
13 0.28
17 0.15
18 0.15
19 0.15
2 -0.36
20 0.4
21 0.36
22 0.36
23 0.45
3 -0.53
4 -0.99
5 0.42
6 -0.14
7 0.27
8 -0.15
9 -0.15

> <PUBCHEM_EFFECTIVE_ROTOR_COUNT>
3

> <PUBCHEM_PHARMACOPHORE_FEATURES>
7
1 1 acceptor
1 1 donor
1 2 acceptor
1 3 donor
1 4 cation
1 4 donor
6 6 8 9 10 11 12 rings

> <PUBCHEM_HEAVY_ATOM_COUNT>
13

> <PUBCHEM_ATOM_DEF_STEREO_COUNT>
1

> <PUBCHEM_ATOM_UDEF_STEREO_COUNT>
0

> <PUBCHEM_BOND_DEF_STEREO_COUNT>
0

> <PUBCHEM_BOND_UDEF_STEREO_COUNT>
0

> <PUBCHEM_ISOTOPIC_ATOM_COUNT>
0

> <PUBCHEM_COMPONENT_COUNT>
1

> <PUBCHEM_CACTVS_TAUTO_COUNT>
3

> <PUBCHEM_CONFORMER_ID>
000A7FE400000001

> <PUBCHEM_MMFF94_ENERGY>
38.2348

> <PUBCHEM_FEATURE_SELFOVERLAP>
35.522

> <PUBCHEM_SHAPE_FINGERPRINT>
10608611 8 18334017177133344616
11132069 177 18410286995895707419
12716758 59 18337665407916283230
12932764 1 18113612391690984134
13024252 1 12175637182345417855
13380535 21 18123454232098423743
13764800 53 18338227267069434929
13839132 238 18335140925034536668
14325111 11 18411704317770524362
14614273 12 18130799991963472357
14897335 6 18269563908528838637
15219456 202 18186518826170046446
15279308 16 18040720272785974096
15310529 11 15357965768154841419
15775835 57 18272374221447158944
16945 1 18341886351482676055
17846911 113 18340211799578908243
18186145 218 18041270075754617264
19837323 101 18408323315162253499
20510252 161 18408041805773050881
20645464 45 18260831479653923810
20653085 51 17459184256249578489
20671657 1 17905606953752228435
20871998 184 18263641766850257463
21040471 1 18270678787138298975
21501502 16 18268992166519269739
21524375 3 18124032592394373191
22802520 49 17896869057526059012
23402539 116 18265630809180815551
23500284 214 18334574689220501384
23557571 272 18187925023741963246
23559900 14 18263074587377364766
2748010 2 18198616829735507719
305870 269 18199758101256358834
3248919 1 17489300889046409410
53812653 166 18408889572055935105
6333449 129 18410580595232869669
7364860 26 18048884288071626362
81228 2 18270391698918913819

> <PUBCHEM_SHAPE_MULTIPOLES>
244.94
5.43
2.02
0.89
3.45
0.35
-0.15
2.06
0.69
-1.71
0.39
0.48
0.09
0.31

> <PUBCHEM_SHAPE_SELFOVERLAP>
502.012

> <PUBCHEM_SHAPE_VOLUME>
142.5

> <PUBCHEM_COORDINATE_TYPE>
2
5
10

$$$$

