17395962
  -OEChem-06241222532D

 33 35  0     0  0  0  0  0  0999 V2000
    8.0321   -0.5008    0.0000 S   0  0  0  0  0  0  0  0  0  0  0  0
   10.3534   -1.7702    0.0000 O   0  0  0  0  0  0  0  0  0  0  0  0
    4.5274    0.4118    0.0000 N   0  0  0  0  0  0  0  0  0  0  0  0
    6.3518    0.0563    0.0000 N   0  0  0  0  0  0  0  0  0  0  0  0
    5.7123   -1.9118    0.0000 N   0  0  0  0  0  0  0  0  0  0  0  0
    6.7328   -1.7031    0.0000 N   0  0  0  0  0  0  0  0  0  0  0  0
    3.7183   -0.1760    0.0000 C   0  0  0  0  0  0  0  0  0  0  0  0
    4.0274   -1.1271    0.0000 C   0  0  0  0  0  0  0  0  0  0  0  0
    5.3364   -0.1760    0.0000 C   0  0  0  0  0  0  0  0  0  0  0  0
    5.0274   -1.1271    0.0000 C   0  0  0  0  0  0  0  0  0  0  0  0
    4.5274    1.4118    0.0000 C   0  0  0  0  0  0  0  0  0  0  0  0
    2.7029    0.0563    0.0000 C   0  0  0  0  0  0  0  0  0  0  0  0
    3.3424   -1.9118    0.0000 C   0  0  0  0  0  0  0  0  0  0  0  0
    3.6613    1.9118    0.0000 C   0  0  0  0  0  0  0  0  0  0  0  0
    2.0000   -0.7124    0.0000 C   0  0  0  0  0  0  0  0  0  0  0  0
    2.3219   -1.7031    0.0000 C   0  0  0  0  0  0  0  0  0  0  0  0
    7.0547   -0.7124    0.0000 C   0  0  0  0  0  0  0  0  0  0  0  0
    8.7040   -1.2413    0.0000 C   0  0  0  0  0  0  0  0  0  0  0  0
    9.6814   -1.0296    0.0000 C   0  0  0  0  0  0  0  0  0  0  0  0
    5.1379    1.3041    0.0000 H   0  0  0  0  0  0  0  0  0  0  0  0
    4.7394    1.9944    0.0000 H   0  0  0  0  0  0  0  0  0  0  0  0
    2.5182    0.6481    0.0000 H   0  0  0  0  0  0  0  0  0  0  0  0
    3.5408   -2.4992    0.0000 H   0  0  0  0  0  0  0  0  0  0  0  0
    3.9713    2.4487    0.0000 H   0  0  0  0  0  0  0  0  0  0  0  0
    3.1244    2.2218    0.0000 H   0  0  0  0  0  0  0  0  0  0  0  0
    3.3513    1.3748    0.0000 H   0  0  0  0  0  0  0  0  0  0  0  0
    1.3940   -0.5812    0.0000 H   0  0  0  0  0  0  0  0  0  0  0  0
    1.9088   -2.1654    0.0000 H   0  0  0  0  0  0  0  0  0  0  0  0
    8.1795   -1.5719    0.0000 H   0  0  0  0  0  0  0  0  0  0  0  0
    8.9385   -1.8153    0.0000 H   0  0  0  0  0  0  0  0  0  0  0  0
   10.2059   -0.6991    0.0000 H   0  0  0  0  0  0  0  0  0  0  0  0
    9.4469   -0.4557    0.0000 H   0  0  0  0  0  0  0  0  0  0  0  0
   10.9593   -1.6390    0.0000 H   0  0  0  0  0  0  0  0  0  0  0  0
  1 17  1  0  0  0  0
  1 18  1  0  0  0  0
  2 19  1  0  0  0  0
  2 33  1  0  0  0  0
  3  7  1  0  0  0  0
  3  9  1  0  0  0  0
  3 11  1  0  0  0  0
  4  9  1  0  0  0  0
  4 17  2  0  0  0  0
  5  6  2  0  0  0  0
  5 10  1  0  0  0  0
  6 17  1  0  0  0  0
  7  8  1  0  0  0  0
  7 12  2  0  0  0  0
  8 10  1  0  0  0  0
  8 13  2  0  0  0  0
  9 10  2  0  0  0  0
 11 14  1  0  0  0  0
 11 20  1  0  0  0  0
 11 21  1  0  0  0  0
 12 15  1  0  0  0  0
 12 22  1  0  0  0  0
 13 16  1  0  0  0  0
 13 23  1  0  0  0  0
 14 24  1  0  0  0  0
 14 25  1  0  0  0  0
 14 26  1  0  0  0  0
 15 16  2  0  0  0  0
 15 27  1  0  0  0  0
 16 28  1  0  0  0  0
 18 19  1  0  0  0  0
 18 29  1  0  0  0  0
 18 30  1  0  0  0  0
 19 31  1  0  0  0  0
 19 32  1  0  0  0  0
M  END
> <PUBCHEM_COMPOUND_CID>
17395962

> <PUBCHEM_COMPOUND_CANONICALIZED>
1

> <PUBCHEM_CACTVS_COMPLEXITY>
306

> <PUBCHEM_CACTVS_HBOND_ACCEPTOR>
5

> <PUBCHEM_CACTVS_HBOND_DONOR>
1

> <PUBCHEM_CACTVS_ROTATABLE_BOND>
4

> <PUBCHEM_CACTVS_SUBSKEYS>
AAADccBzoABAAAAAAAAAAAAAAAAAAWAAAAA8QAAAAAAAAFgB/gAAHgQICAAADAjl3waz8P8MEgiiAyZiZACS1C9hErAd2CA4dJiIeOLA2dGUpAhoiALIyCcQgIAOAAAAAAACAAAAAAAAAAQAAAAAAAAAAA==

> <PUBCHEM_IUPAC_OPENEYE_NAME>
2-[(5-ethyl-[1,2,4]triazino[5,6-b]indol-3-yl)sulfanyl]ethanol

> <PUBCHEM_IUPAC_CAS_NAME>
2-[(5-ethyl-[1,2,4]triazino[5,6-b]indol-3-yl)thio]ethanol

> <PUBCHEM_IUPAC_NAME>
2-[(5-ethyl-[1,2,4]triazino[5,6-b]indol-3-yl)sulfanyl]ethanol

> <PUBCHEM_IUPAC_SYSTEMATIC_NAME>
2-[(5-ethyl-[1,2,4]triazino[5,6-b]indol-3-yl)sulfanyl]ethanol

> <PUBCHEM_IUPAC_TRADITIONAL_NAME>
2-[(5-ethyl-[1,2,4]triazin[5,6-b]indol-3-yl)thio]ethanol

> <PUBCHEM_IUPAC_INCHI>
InChI=1S/C13H14N4OS/c1-2-17-10-6-4-3-5-9(10)11-12(17)14-13(16-15-11)19-8-7-18/h3-6,18H,2,7-8H2,1H3

> <PUBCHEM_IUPAC_INCHIKEY>
VVCAYZIJWYSMAR-UHFFFAOYSA-N

> <PUBCHEM_XLOGP3_AA>
1.5

> <PUBCHEM_EXACT_MASS>
274.088832

> <PUBCHEM_MOLECULAR_FORMULA>
C13H14N4OS

> <PUBCHEM_MOLECULAR_WEIGHT>
274.34146

> <PUBCHEM_OPENEYE_CAN_SMILES>
CCN1C2=CC=CC=C2C3=C1N=C(N=N3)SCCO

> <PUBCHEM_OPENEYE_ISO_SMILES>
CCN1C2=CC=CC=C2C3=C1N=C(N=N3)SCCO

> <PUBCHEM_CACTVS_TPSA>
89.1

> <PUBCHEM_MONOISOTOPIC_WEIGHT>
274.088832

> <PUBCHEM_TOTAL_CHARGE>
0

> <PUBCHEM_HEAVY_ATOM_COUNT>
19

> <PUBCHEM_ATOM_DEF_STEREO_COUNT>
0

> <PUBCHEM_ATOM_UDEF_STEREO_COUNT>
0

> <PUBCHEM_BOND_DEF_STEREO_COUNT>
0

> <PUBCHEM_BOND_UDEF_STEREO_COUNT>
0

> <PUBCHEM_ISOTOPIC_ATOM_COUNT>
0

> <PUBCHEM_COMPONENT_COUNT>
1

> <PUBCHEM_CACTVS_TAUTO_COUNT>
1

> <PUBCHEM_COORDINATE_TYPE>
1
5
255

> <PUBCHEM_BONDANNOTATIONS>
12  15  8
13  16  8
15  16  8
3  7  8
3  9  8
4  17  8
4  9  8
5  10  8
5  6  8
6  17  8
7  12  8
7  8  8
8  10  8
8  13  8
9  10  8

$$$$

