11954126
  -OEChem-07051213073D

 22 24  0     0  0  0  0  0  0999 V2000
    3.0869   -2.2277   -0.0009 Cl  0  0  0  0  0  0  0  0  0  0  0  0
    4.8554    0.4959   -0.0002 Cl  0  0  0  0  0  0  0  0  0  0  0  0
    0.0932   -1.5434    0.0006 O   0  0  0  0  0  0  0  0  0  0  0  0
   -4.6418    1.1749    0.0004 O   0  0  0  0  0  0  0  0  0  0  0  0
    0.3308    0.7055    0.0005 C   0  0  0  0  0  0  0  0  0  0  0  0
   -1.0620    0.4009    0.0001 C   0  0  0  0  0  0  0  0  0  0  0  0
    0.9911   -0.5192    0.0005 C   0  0  0  0  0  0  0  0  0  0  0  0
   -1.1504   -0.9877    0.0005 C   0  0  0  0  0  0  0  0  0  0  0  0
   -2.2548    1.1472   -0.0011 C   0  0  0  0  0  0  0  0  0  0  0  0
    1.1030    1.8817    0.0005 C   0  0  0  0  0  0  0  0  0  0  0  0
    2.3779   -0.6598    0.0002 C   0  0  0  0  0  0  0  0  0  0  0  0
   -2.3518   -1.6945    0.0001 C   0  0  0  0  0  0  0  0  0  0  0  0
   -3.4784    0.4639   -0.0008 C   0  0  0  0  0  0  0  0  0  0  0  0
    2.5002    1.7720    0.0000 C   0  0  0  0  0  0  0  0  0  0  0  0
    3.1239    0.5222   -0.0004 C   0  0  0  0  0  0  0  0  0  0  0  0
   -3.5233   -0.9320   -0.0001 C   0  0  0  0  0  0  0  0  0  0  0  0
    0.6331    2.8608    0.0005 H   0  0  0  0  0  0  0  0  0  0  0  0
   -2.2302    2.2332   -0.0014 H   0  0  0  0  0  0  0  0  0  0  0  0
   -2.3786   -2.7777    0.0004 H   0  0  0  0  0  0  0  0  0  0  0  0
    3.0909    2.6858   -0.0001 H   0  0  0  0  0  0  0  0  0  0  0  0
   -4.4805   -1.4489    0.0002 H   0  0  0  0  0  0  0  0  0  0  0  0
   -5.3910    0.5546    0.0010 H   0  0  0  0  0  0  0  0  0  0  0  0
  1 11  1  0  0  0  0
  2 15  1  0  0  0  0
  3  7  1  0  0  0  0
  3  8  1  0  0  0  0
  4 13  1  0  0  0  0
  4 22  1  0  0  0  0
  5  6  1  0  0  0  0
  5  7  2  0  0  0  0
  5 10  1  0  0  0  0
  6  8  2  0  0  0  0
  6  9  1  0  0  0  0
  7 11  1  0  0  0  0
  8 12  1  0  0  0  0
  9 13  2  0  0  0  0
  9 18  1  0  0  0  0
 10 14  2  0  0  0  0
 10 17  1  0  0  0  0
 11 15  2  0  0  0  0
 12 16  2  0  0  0  0
 12 19  1  0  0  0  0
 13 16  1  0  0  0  0
 14 15  1  0  0  0  0
 14 20  1  0  0  0  0
 16 21  1  0  0  0  0
M  END
> <PUBCHEM_COMPOUND_CID>
11954126

> <PUBCHEM_CONFORMER_RMSD>
0.4

> <PUBCHEM_CONFORMER_DIVERSEORDER>
1

> <PUBCHEM_MMFF94_PARTIAL_CHARGES>
20
1 -0.18
10 -0.15
11 0.18
12 -0.15
13 0.08
14 -0.15
15 0.18
16 -0.15
17 0.15
18 0.15
19 0.15
2 -0.18
20 0.15
21 0.15
22 0.45
3 -0.28
4 -0.53
7 0.14
8 0.14
9 -0.15

> <PUBCHEM_EFFECTIVE_ROTOR_COUNT>
0

> <PUBCHEM_PHARMACOPHORE_FEATURES>
5
1 3 acceptor
1 4 donor
5 3 5 6 7 8 rings
6 5 7 10 11 14 15 rings
6 6 8 9 12 13 16 rings

> <PUBCHEM_HEAVY_ATOM_COUNT>
16

> <PUBCHEM_ATOM_DEF_STEREO_COUNT>
0

> <PUBCHEM_ATOM_UDEF_STEREO_COUNT>
0

> <PUBCHEM_BOND_DEF_STEREO_COUNT>
0

> <PUBCHEM_BOND_UDEF_STEREO_COUNT>
0

> <PUBCHEM_ISOTOPIC_ATOM_COUNT>
0

> <PUBCHEM_COMPONENT_COUNT>
1

> <PUBCHEM_CACTVS_TAUTO_COUNT>
3

> <PUBCHEM_CONFORMER_ID>
00B667CE00000001

> <PUBCHEM_MMFF94_ENERGY>
32.5259

> <PUBCHEM_FEATURE_SELFOVERLAP>
25.573

> <PUBCHEM_SHAPE_FINGERPRINT>
10062212 137 18337681831813239786
10411042 1 17185595166466443427
10608611 8 18410577240953322617
10616163 171 18336826368743739487
10967382 1 18410855485919071078
10980938 120 18411418401897901914
11132069 177 18410578378924204496
11471102 20 18410578417568263260
116883 192 18044931526879481446
12251169 10 18411138026031853393
13140716 1 18411138064797563107
13380535 76 18410573963676919983
13571099 22 18334011726450392310
14144814 61 18410575076088988219
14325111 11 18410856525538695937
14897335 6 18409169900434405711
15196674 1 18410573993752123622
15219456 202 18410290315567998935
15442244 35 18265331883698921720
15536298 74 18334857242671612494
15775835 57 18342173362592902125
16945 1 18266459793582023366
17804303 29 18410008797668086492
18186145 218 17917715720632093511
19591789 44 15956377535846447816
200 152 17967536740101842125
20645477 70 18335140942009132535
21267235 1 18338790122359508503
21421861 104 17773325736649104066
21501502 16 18410295770276633207
221490 88 18340760451607605530
2334 1 18410855447306823266
23402539 116 18187653483035333260
23402655 69 18334863848347255253
23463225 33 18411419526989442382
23559900 14 18335421296674312974
2748010 2 18411419509598537790
3312278 4 18336261262747669530
335352 9 18266741474827901983
34934 24 18408891737088619742
3545911 37 18409728460810041617
5104073 3 18411138030369104123
528886 8 18410016519961022216
53812653 166 18335987493306434168
69090 78 18408046208394071359
7364860 26 18335421292205337310
7832392 63 18408608028338564060
8809292 202 18200591371950792242
9709674 26 18411132498446535806

> <PUBCHEM_SHAPE_MULTIPOLES>
321.27
7.84
2.08
0.61
0.43
0.41
0
-0.77
0
-0.65
0
-0.05
0
0

> <PUBCHEM_SHAPE_SELFOVERLAP>
708.803

> <PUBCHEM_SHAPE_VOLUME>
176.2

> <PUBCHEM_COORDINATE_TYPE>
2
5
10

$$$$

