46173841
  -OEChem-07051213092D

 65 67  0     1  0  0  0  0  0999 V2000
    6.1069    0.8007    0.0000 O   0  0  0  0  0  0  0  0  0  0  0  0
    7.9332   -0.6325    0.0000 O   0  0  0  0  0  0  0  0  0  0  0  0
    5.6873   -1.2314    0.0000 O   0  0  0  0  0  0  0  0  0  0  0  0
    5.1241   -2.3671    0.0000 O   0  0  0  0  0  0  0  0  0  0  0  0
    2.8660    1.5346    0.0000 O   0  0  0  0  0  0  0  0  0  0  0  0
    3.7200   -3.0346    0.0000 O   0  0  0  0  0  0  0  0  0  0  0  0
    8.0280   -2.4063    0.0000 O   0  0  0  0  0  0  0  0  0  0  0  0
    4.9989    2.3832    0.0000 O   0  0  0  0  0  0  0  0  0  0  0  0
    3.7320    3.0346    0.0000 O   0  0  0  0  0  0  0  0  0  0  0  0
    4.5981   -0.4654    0.0000 C   0  0  1  0  0  0  0  0  0  0  0  0
    3.7320    0.0346    0.0000 C   0  0  1  0  0  0  0  0  0  0  0  0
    5.4641    0.0346    0.0000 C   0  0  1  0  0  0  0  0  0  0  0  0
    6.3301   -0.4654    0.0000 C   0  0  1  0  0  0  0  0  0  0  0  0
    4.6141   -1.5069    0.0000 C   0  0  1  0  0  0  0  0  0  0  0  0
    3.7320    1.0346    0.0000 C   0  0  1  0  0  0  0  0  0  0  0  0
    6.5393   -1.4372    0.0000 C   0  0  2  0  0  0  0  0  0  0  0  0
    7.1962    0.0346    0.0000 C   0  0  2  0  0  0  0  0  0  0  0  0
    2.8220   -0.4722    0.0000 C   0  0  0  0  0  0  0  0  0  0  0  0
    2.8660    0.5346    0.0000 C   0  0  0  0  0  0  0  0  0  0  0  0
    4.5981    1.5346    0.0000 C   0  0  0  0  0  0  0  0  0  0  0  0
    3.7161   -2.0346    0.0000 C   0  0  0  0  0  0  0  0  0  0  0  0
    5.5577   -1.8380    0.0000 C   0  0  0  0  0  0  0  0  0  0  0  0
    2.8140   -1.5138    0.0000 C   0  0  0  0  0  0  0  0  0  0  0  0
    7.5280   -1.5402    0.0000 C   0  0  0  0  0  0  0  0  0  0  0  0
    7.1962    1.0346    0.0000 C   0  0  0  0  0  0  0  0  0  0  0  0
    5.4641    1.0346    0.0000 C   0  0  0  0  0  0  0  0  0  0  0  0
    6.3331   -2.4157    0.0000 C   0  0  0  0  0  0  0  0  0  0  0  0
    6.3301    1.5346    0.0000 C   0  0  0  0  0  0  0  0  0  0  0  0
    5.7649    1.7404    0.0000 C   0  0  0  0  0  0  0  0  0  0  0  0
    6.8301    2.4006    0.0000 C   0  0  0  0  0  0  0  0  0  0  0  0
    2.8660    2.5346    0.0000 C   0  0  0  0  0  0  0  0  0  0  0  0
    5.9385    2.7252    0.0000 C   0  0  0  0  0  0  0  0  0  0  0  0
    2.0000    3.0346    0.0000 C   0  0  0  0  0  0  0  0  0  0  0  0
    5.3374   -0.8847    0.0000 H   0  0  0  0  0  0  0  0  0  0  0  0
    5.0656    0.5096    0.0000 H   0  0  0  0  0  0  0  0  0  0  0  0
    3.7320    1.6546    0.0000 H   0  0  0  0  0  0  0  0  0  0  0  0
    5.9193   -1.4385    0.0000 H   0  0  0  0  0  0  0  0  0  0  0  0
    7.9731    0.3793    0.0000 H   0  0  0  0  0  0  0  0  0  0  0  0
    2.2887   -0.1560    0.0000 H   0  0  0  0  0  0  0  0  0  0  0  0
    3.1760    1.0716    0.0000 H   0  0  0  0  0  0  0  0  0  0  0  0
    2.3291    0.8446    0.0000 H   0  0  0  0  0  0  0  0  0  0  0  0
    2.5560   -0.0023    0.0000 H   0  0  0  0  0  0  0  0  0  0  0  0
    4.9966    2.0096    0.0000 H   0  0  0  0  0  0  0  0  0  0  0  0
    4.1996    2.0096    0.0000 H   0  0  0  0  0  0  0  0  0  0  0  0
    5.3524   -2.4230    0.0000 H   0  0  0  0  0  0  0  0  0  0  0  0
    6.1427   -2.0433    0.0000 H   0  0  0  0  0  0  0  0  0  0  0  0
    5.7630   -1.2530    0.0000 H   0  0  0  0  0  0  0  0  0  0  0  0
    2.2759   -1.8218    0.0000 H   0  0  0  0  0  0  0  0  0  0  0  0
    7.7331    1.3446    0.0000 H   0  0  0  0  0  0  0  0  0  0  0  0
    5.0656    0.5597    0.0000 H   0  0  0  0  0  0  0  0  0  0  0  0
    5.8626    0.5597    0.0000 H   0  0  0  0  0  0  0  0  0  0  0  0
    5.7264   -2.2878    0.0000 H   0  0  0  0  0  0  0  0  0  0  0  0
    6.2053   -3.0224    0.0000 H   0  0  0  0  0  0  0  0  0  0  0  0
    6.9398   -2.5436    0.0000 H   0  0  0  0  0  0  0  0  0  0  0  0
    5.2124   -0.8327    0.0000 H   0  0  0  0  0  0  0  0  0  0  0  0
    4.8204   -2.9076    0.0000 H   0  0  0  0  0  0  0  0  0  0  0  0
    7.3671    2.0906    0.0000 H   0  0  0  0  0  0  0  0  0  0  0  0
    7.1401    2.9376    0.0000 H   0  0  0  0  0  0  0  0  0  0  0  0
    6.2932    2.7106    0.0000 H   0  0  0  0  0  0  0  0  0  0  0  0
    6.5491    2.6175    0.0000 H   0  0  0  0  0  0  0  0  0  0  0  0
    6.0462    3.3358    0.0000 H   0  0  0  0  0  0  0  0  0  0  0  0
    5.3279    2.8328    0.0000 H   0  0  0  0  0  0  0  0  0  0  0  0
    2.3100    3.5716    0.0000 H   0  0  0  0  0  0  0  0  0  0  0  0
    1.4631    3.3446    0.0000 H   0  0  0  0  0  0  0  0  0  0  0  0
    1.6900    2.4977    0.0000 H   0  0  0  0  0  0  0  0  0  0  0  0
 12  1  1  6  0  0  0
  1 29  1  0  0  0  0
  2 17  1  0  0  0  0
  2 24  1  0  0  0  0
 13  3  1  6  0  0  0
  3 55  1  0  0  0  0
 14  4  1  6  0  0  0
  4 56  1  0  0  0  0
 15  5  1  6  0  0  0
  5 31  1  0  0  0  0
  6 21  2  0  0  0  0
  7 24  2  0  0  0  0
  8 29  2  0  0  0  0
  9 31  2  0  0  0  0
 10 11  1  0  0  0  0
 10 12  1  0  0  0  0
 10 14  1  0  0  0  0
 10 34  1  6  0  0  0
 11 15  1  0  0  0  0
 11 18  1  0  0  0  0
 11 19  1  1  0  0  0
 12 13  1  0  0  0  0
 12 35  1  0  0  0  0
 13 16  1  0  0  0  0
 13 17  1  0  0  0  0
 14 21  1  0  0  0  0
 14 22  1  0  0  0  0
 15 20  1  0  0  0  0
 15 36  1  0  0  0  0
 16 24  1  0  0  0  0
 16 27  1  6  0  0  0
 16 37  1  0  0  0  0
 17 25  1  0  0  0  0
 17 38  1  1  0  0  0
 18 23  2  0  0  0  0
 18 39  1  0  0  0  0
 19 40  1  0  0  0  0
 19 41  1  0  0  0  0
 19 42  1  0  0  0  0
 20 26  1  0  0  0  0
 20 43  1  0  0  0  0
 20 44  1  0  0  0  0
 21 23  1  0  0  0  0
 22 45  1  0  0  0  0
 22 46  1  0  0  0  0
 22 47  1  0  0  0  0
 23 48  1  0  0  0  0
 25 28  2  0  0  0  0
 25 49  1  0  0  0  0
 26 28  1  0  0  0  0
 26 50  1  0  0  0  0
 26 51  1  0  0  0  0
 27 52  1  0  0  0  0
 27 53  1  0  0  0  0
 27 54  1  0  0  0  0
 28 30  1  0  0  0  0
 29 32  1  0  0  0  0
 30 57  1  0  0  0  0
 30 58  1  0  0  0  0
 30 59  1  0  0  0  0
 31 33  1  0  0  0  0
 32 60  1  0  0  0  0
 32 61  1  0  0  0  0
 32 62  1  0  0  0  0
 33 63  1  0  0  0  0
 33 64  1  0  0  0  0
 33 65  1  0  0  0  0
M  END
> <PUBCHEM_COMPOUND_CID>
46173841

> <PUBCHEM_COMPOUND_CANONICALIZED>
1

> <PUBCHEM_CACTVS_COMPLEXITY>
936

> <PUBCHEM_CACTVS_HBOND_ACCEPTOR>
9

> <PUBCHEM_CACTVS_HBOND_DONOR>
2

> <PUBCHEM_CACTVS_ROTATABLE_BOND>
4

> <PUBCHEM_CACTVS_SUBSKEYS>
AAADcfB4PAAAAAAAAAAAAAAAAAAAASAAAAAgAAAAAAAAAACAAAAAGgAACAAAD1SggAICCAAABgCIAqDSCAIAAAAgAAAICAFAAEgBBBYAIQACUAAF4AALIYPK7PzPgAAAAAAAAAAAAAAAAAAAAAAAAAAAAA==

> <PUBCHEM_IUPAC_INCHI>
InChI=1S/C24H32O9/c1-12-7-8-17(31-14(3)25)22(5)10-9-16(27)23(6,29)19(22)20(32-15(4)26)24(30)13(2)21(28)33-18(24)11-12/h9-11,13,17-20,29-30H,7-8H2,1-6H3/b12-11-/t13-,17+,18-,19+,20-,22+,23+,24-/m0/s1

> <PUBCHEM_IUPAC_INCHIKEY>
RVHOXFYBIJIBSC-BJFYZETDSA-N

> <PUBCHEM_XLOGP3_AA>
1

> <PUBCHEM_EXACT_MASS>
464.204633

> <PUBCHEM_MOLECULAR_FORMULA>
C24H32O9

> <PUBCHEM_MOLECULAR_WEIGHT>
464.50548

> <PUBCHEM_OPENEYE_CAN_SMILES>
CC1C(=O)OC2C1(C(C3C(C=CC(=O)C3(C)O)(C(CCC(=C2)C)OC(=O)C)C)OC(=O)C)O

> <PUBCHEM_OPENEYE_ISO_SMILES>
C[C@H]1C(=O)O[C@@H]/2[C@@]1([C@H]([C@@H]3[C@](C=CC(=O)[C@@]3(C)O)([C@@H](CC/C(=C2)/C)OC(=O)C)C)OC(=O)C)O

> <PUBCHEM_CACTVS_TPSA>
136

> <PUBCHEM_MONOISOTOPIC_WEIGHT>
464.204633

> <PUBCHEM_TOTAL_CHARGE>
0

> <PUBCHEM_HEAVY_ATOM_COUNT>
33

> <PUBCHEM_ATOM_DEF_STEREO_COUNT>
8

> <PUBCHEM_ATOM_UDEF_STEREO_COUNT>
0

> <PUBCHEM_BOND_DEF_STEREO_COUNT>
1

> <PUBCHEM_BOND_UDEF_STEREO_COUNT>
0

> <PUBCHEM_ISOTOPIC_ATOM_COUNT>
0

> <PUBCHEM_COMPONENT_COUNT>
1

> <PUBCHEM_CACTVS_TAUTO_COUNT>
2

> <PUBCHEM_COORDINATE_TYPE>
1
5
255

> <PUBCHEM_BONDANNOTATIONS>
12  1  6
10  34  6
11  19  5
16  27  6
17  38  5
13  3  6
14  4  6
15  5  6

$$$$

