129395
  -OEChem-07051213033D

 57 60  0     1  0  0  0  0  0999 V2000
    2.9946    0.3896    2.3598 O   0  0  0  0  0  0  0  0  0  0  0  0
    4.1732   -1.7316    1.0608 O   0  0  0  0  0  0  0  0  0  0  0  0
    3.8581   -2.2912   -1.5857 O   0  0  0  0  0  0  0  0  0  0  0  0
    5.0949   -0.1360   -2.7850 O   0  0  0  0  0  0  0  0  0  0  0  0
    1.8843   -3.0031    0.8522 O   0  0  0  0  0  0  0  0  0  0  0  0
    1.7422    2.3279    0.3079 O   0  0  0  0  0  0  0  0  0  0  0  0
    4.7906    2.0524    1.3545 O   0  0  0  0  0  0  0  0  0  0  0  0
   -0.7087    2.3262    0.1892 O   0  0  0  0  0  0  0  0  0  0  0  0
   -5.3954   -2.0037   -0.1212 O   0  0  0  0  0  0  0  0  0  0  0  0
   -5.8982    0.9582   -1.5917 O   0  0  0  0  0  0  0  0  0  0  0  0
   -6.3103    1.1547    0.6646 O   0  0  0  0  0  0  0  0  0  0  0  0
    3.1584   -1.0076    0.3603 C   0  0  1  0  0  0  0  0  0  0  0  0
    3.0575    0.4092    0.9353 C   0  0  1  0  0  0  0  0  0  0  0  0
    3.4656   -0.9857   -1.1557 C   0  0  1  0  0  0  0  0  0  0  0  0
    1.8777   -1.8033    0.5902 C   0  0  0  0  0  0  0  0  0  0  0  0
    1.7810    1.1174    0.5109 C   0  0  0  0  0  0  0  0  0  0  0  0
    0.5886   -1.0856    0.4516 C   0  0  0  0  0  0  0  0  0  0  0  0
    0.5452    0.3072    0.3916 C   0  0  0  0  0  0  0  0  0  0  0  0
    4.3106    1.2143    0.5922 C   0  0  0  0  0  0  0  0  0  0  0  0
    4.5269    0.0146   -1.5328 C   0  0  0  0  0  0  0  0  0  0  0  0
    4.9345    1.0109   -0.7392 C   0  0  0  0  0  0  0  0  0  0  0  0
   -0.6844    0.9595    0.2314 C   0  0  0  0  0  0  0  0  0  0  0  0
   -0.5978   -1.8259    0.3663 C   0  0  0  0  0  0  0  0  0  0  0  0
   -1.8804    0.2282    0.1399 C   0  0  0  0  0  0  0  0  0  0  0  0
   -1.8367   -1.1827    0.2102 C   0  0  0  0  0  0  0  0  0  0  0  0
   -3.1202    0.8696   -0.0177 C   0  0  0  0  0  0  0  0  0  0  0  0
    2.9366    1.7038    2.8942 C   0  0  0  0  0  0  0  0  0  0  0  0
   -3.0338   -1.9121    0.1197 C   0  0  0  0  0  0  0  0  0  0  0  0
   -4.2997    0.1299   -0.1053 C   0  0  0  0  0  0  0  0  0  0  0  0
   -4.2567   -1.2590   -0.0366 C   0  0  0  0  0  0  0  0  0  0  0  0
   -3.2680    2.3620   -0.1054 C   0  0  0  0  0  0  0  0  0  0  0  0
    4.3728    0.5994   -3.7518 C   0  0  0  0  0  0  0  0  0  0  0  0
   -5.5911    0.7920   -0.2711 C   0  0  0  0  0  0  0  0  0  0  0  0
   -6.0678   -2.2989    1.1009 C   0  0  0  0  0  0  0  0  0  0  0  0
   -7.1442    1.5994   -1.8847 C   0  0  0  0  0  0  0  0  0  0  0  0
    2.5599   -0.7360   -1.7213 H   0  0  0  0  0  0  0  0  0  0  0  0
    5.7173    1.6988   -1.0386 H   0  0  0  0  0  0  0  0  0  0  0  0
    4.0011   -1.6402    2.0139 H   0  0  0  0  0  0  0  0  0  0  0  0
   -0.5672   -2.9133    0.4111 H   0  0  0  0  0  0  0  0  0  0  0  0
    4.6290   -2.5571   -1.0555 H   0  0  0  0  0  0  0  0  0  0  0  0
    3.8157    1.8613    3.5297 H   0  0  0  0  0  0  0  0  0  0  0  0
    2.0827    1.7173    3.5821 H   0  0  0  0  0  0  0  0  0  0  0  0
    2.8002    2.5662    2.2405 H   0  0  0  0  0  0  0  0  0  0  0  0
   -3.0155   -2.9995    0.1703 H   0  0  0  0  0  0  0  0  0  0  0  0
    0.1128    2.6633   -0.2004 H   0  0  0  0  0  0  0  0  0  0  0  0
   -2.7227    2.7512   -0.9722 H   0  0  0  0  0  0  0  0  0  0  0  0
   -4.2901    2.7245   -0.2395 H   0  0  0  0  0  0  0  0  0  0  0  0
   -2.9266    2.8363    0.8212 H   0  0  0  0  0  0  0  0  0  0  0  0
    4.3797    1.6721   -3.5281 H   0  0  0  0  0  0  0  0  0  0  0  0
    3.3416    0.2402   -3.8390 H   0  0  0  0  0  0  0  0  0  0  0  0
    4.8596    0.4566   -4.7214 H   0  0  0  0  0  0  0  0  0  0  0  0
   -5.4606   -2.9752    1.7110 H   0  0  0  0  0  0  0  0  0  0  0  0
   -7.0105   -2.7980    0.8607 H   0  0  0  0  0  0  0  0  0  0  0  0
   -6.2890   -1.3878    1.6646 H   0  0  0  0  0  0  0  0  0  0  0  0
   -7.9745    1.0119   -1.4818 H   0  0  0  0  0  0  0  0  0  0  0  0
   -7.2492    1.6592   -2.9712 H   0  0  0  0  0  0  0  0  0  0  0  0
   -7.1523    2.6131   -1.4733 H   0  0  0  0  0  0  0  0  0  0  0  0
  1 13  1  0  0  0  0
  1 27  1  0  0  0  0
  2 12  1  0  0  0  0
  2 38  1  0  0  0  0
  3 14  1  0  0  0  0
  3 40  1  0  0  0  0
  4 20  1  0  0  0  0
  4 32  1  0  0  0  0
  5 15  2  0  0  0  0
  6 16  2  0  0  0  0
  7 19  2  0  0  0  0
  8 22  1  0  0  0  0
  8 45  1  0  0  0  0
  9 30  1  0  0  0  0
  9 34  1  0  0  0  0
 10 33  1  0  0  0  0
 10 35  1  0  0  0  0
 11 33  2  0  0  0  0
 12 13  1  0  0  0  0
 12 14  1  0  0  0  0
 12 15  1  0  0  0  0
 13 16  1  0  0  0  0
 13 19  1  0  0  0  0
 14 20  1  0  0  0  0
 14 36  1  0  0  0  0
 15 17  1  0  0  0  0
 16 18  1  0  0  0  0
 17 18  2  0  0  0  0
 17 23  1  0  0  0  0
 18 22  1  0  0  0  0
 19 21  1  0  0  0  0
 20 21  2  0  0  0  0
 21 37  1  0  0  0  0
 22 24  2  0  0  0  0
 23 25  2  0  0  0  0
 23 39  1  0  0  0  0
 24 25  1  0  0  0  0
 24 26  1  0  0  0  0
 25 28  1  0  0  0  0
 26 29  2  0  0  0  0
 26 31  1  0  0  0  0
 27 41  1  0  0  0  0
 27 42  1  0  0  0  0
 27 43  1  0  0  0  0
 28 30  2  0  0  0  0
 28 44  1  0  0  0  0
 29 30  1  0  0  0  0
 29 33  1  0  0  0  0
 31 46  1  0  0  0  0
 31 47  1  0  0  0  0
 31 48  1  0  0  0  0
 32 49  1  0  0  0  0
 32 50  1  0  0  0  0
 32 51  1  0  0  0  0
 34 52  1  0  0  0  0
 34 53  1  0  0  0  0
 34 54  1  0  0  0  0
 35 55  1  0  0  0  0
 35 56  1  0  0  0  0
 35 57  1  0  0  0  0
M  END
> <PUBCHEM_COMPOUND_CID>
129395

> <PUBCHEM_CONFORMER_RMSD>
0.8

> <PUBCHEM_CONFORMER_DIVERSEORDER>
2
3
1
4

> <PUBCHEM_MMFF94_PARTIAL_CHARGES>
39
1 -0.56
10 -0.43
11 -0.57
12 0.34
13 0.4
14 0.42
15 0.42
16 0.42
17 0.09
18 0.09
19 0.49
2 -0.68
20 -0.06
21 -0.14
22 0.08
23 -0.15
26 -0.14
27 0.28
28 -0.15
29 0.09
3 -0.68
30 0.08
31 0.14
32 0.28
33 0.63
34 0.28
35 0.28
37 0.15
38 0.4
39 0.15
4 -0.36
40 0.4
44 0.15
45 0.45
5 -0.57
6 -0.57
7 -0.57
8 -0.53
9 -0.36

> <PUBCHEM_EFFECTIVE_ROTOR_COUNT>
5.2

> <PUBCHEM_PHARMACOPHORE_FEATURES>
16
1 1 acceptor
1 11 acceptor
1 2 acceptor
1 2 donor
1 3 acceptor
1 3 donor
1 4 acceptor
1 5 acceptor
1 6 acceptor
1 7 acceptor
1 8 donor
1 9 acceptor
6 12 13 14 19 20 21 rings
6 12 13 15 16 17 18 rings
6 17 18 22 23 24 25 rings
6 24 25 26 28 29 30 rings

> <PUBCHEM_HEAVY_ATOM_COUNT>
35

> <PUBCHEM_ATOM_DEF_STEREO_COUNT>
3

> <PUBCHEM_ATOM_UDEF_STEREO_COUNT>
0

> <PUBCHEM_BOND_DEF_STEREO_COUNT>
0

> <PUBCHEM_BOND_UDEF_STEREO_COUNT>
0

> <PUBCHEM_ISOTOPIC_ATOM_COUNT>
0

> <PUBCHEM_COMPONENT_COUNT>
1

> <PUBCHEM_CACTVS_TAUTO_COUNT>
22

> <PUBCHEM_CONFORMER_ID>
0001F97300000002

> <PUBCHEM_MMFF94_ENERGY>
153.8013

> <PUBCHEM_FEATURE_SELFOVERLAP>
81.339

> <PUBCHEM_SHAPE_FINGERPRINT>
10498660 4 18412824685701480544
10554248 39 17488485103507191095
12236239 1 17489877020143556200
12403259 415 18261673684355002467
13224815 77 18341899588397633922
13617811 41 18201717298165242693
13726171 33 17486746641999571300
13782708 43 17313101922087645623
14790565 3 18197497324829552209
15082195 135 18201434766262625861
15131766 46 16486397777224698549
15183329 4 18259985998488800317
15196674 1 18411706478292269739
15210252 30 18060128822159666260
15238133 3 17918280831196508576
15324884 4 17612007310915827714
15664445 248 18340480063785433956
15968369 26 18337956808479156031
1601671 61 18272654532234466084
17909252 39 18114173198767097362
18608769 82 18338793399715052299
19319366 153 18060420256675185707
19377110 9 16056881312840744643
21033648 29 18041852709680306995
21057603 130 14924212864389513764
21279426 13 18410856585932105703
22122407 14 16128366112649921117
2215653 11 18113338630681083613
22393880 68 18261393316973783047
23559900 14 18261392217477946985
23569914 152 17029375398924125373
239999 70 18041277682574494464
3004659 81 18202001083871645178
34797466 226 17749106652089596543
350125 39 18340495551357875474
376196 1 17390528306875930000
4093350 32 16950281810303424065
46194498 28 17896025577905762588
5104073 3 18411143541382052067
513532 50 17095814282453810242
6823239 73 18333167263150326624

> <PUBCHEM_SHAPE_MULTIPOLES>
655.72
15.23
2.69
2.16
18.04
0.73
-1.23
-2.63
-5.68
1.16
0.43
-4.1
-0.88
1.72

> <PUBCHEM_SHAPE_SELFOVERLAP>
1467.799

> <PUBCHEM_SHAPE_VOLUME>
345

> <PUBCHEM_COORDINATE_TYPE>
2
5
10

$$$$

