11265
  -OEChem-06261205273D

 19 18  0     0  0  0  0  0  0999 V2000
    0.4196   -1.1757    0.7572 O   0  0  0  0  0  0  0  0  0  0  0  0
   -1.1327    0.2821   -0.3792 C   0  0  0  0  0  0  0  0  0  0  0  0
    0.2592   -0.1927    0.0336 C   0  0  0  0  0  0  0  0  0  0  0  0
    1.4298    0.6345   -0.4756 C   0  0  0  0  0  0  0  0  0  0  0  0
   -1.6624    1.2775    0.6461 C   0  0  0  0  0  0  0  0  0  0  0  0
   -2.0867   -0.8990   -0.5376 C   0  0  0  0  0  0  0  0  0  0  0  0
    2.7731    0.0733   -0.0446 C   0  0  0  0  0  0  0  0  0  0  0  0
   -1.0449    0.7756   -1.3545 H   0  0  0  0  0  0  0  0  0  0  0  0
    1.3217    1.6559   -0.0974 H   0  0  0  0  0  0  0  0  0  0  0  0
    1.3812    0.6578   -1.5693 H   0  0  0  0  0  0  0  0  0  0  0  0
   -0.9947    2.1408    0.7359 H   0  0  0  0  0  0  0  0  0  0  0  0
   -1.7421    0.8208    1.6389 H   0  0  0  0  0  0  0  0  0  0  0  0
   -2.6525    1.6457    0.3583 H   0  0  0  0  0  0  0  0  0  0  0  0
   -1.6862   -1.6281   -1.2504 H   0  0  0  0  0  0  0  0  0  0  0  0
   -2.2446   -1.4191    0.4137 H   0  0  0  0  0  0  0  0  0  0  0  0
   -3.0618   -0.5640   -0.9062 H   0  0  0  0  0  0  0  0  0  0  0  0
    2.8571    0.0490    1.0470 H   0  0  0  0  0  0  0  0  0  0  0  0
    2.9096   -0.9483   -0.4144 H   0  0  0  0  0  0  0  0  0  0  0  0
    3.5874    0.6906   -0.4362 H   0  0  0  0  0  0  0  0  0  0  0  0
  1  3  2  0  0  0  0
  2  3  1  0  0  0  0
  2  5  1  0  0  0  0
  2  6  1  0  0  0  0
  2  8  1  0  0  0  0
  3  4  1  0  0  0  0
  4  7  1  0  0  0  0
  4  9  1  0  0  0  0
  4 10  1  0  0  0  0
  5 11  1  0  0  0  0
  5 12  1  0  0  0  0
  5 13  1  0  0  0  0
  6 14  1  0  0  0  0
  6 15  1  0  0  0  0
  6 16  1  0  0  0  0
  7 17  1  0  0  0  0
  7 18  1  0  0  0  0
  7 19  1  0  0  0  0
M  END
> <PUBCHEM_COMPOUND_CID>
11265

> <PUBCHEM_CONFORMER_RMSD>
0.4

> <PUBCHEM_CONFORMER_DIVERSEORDER>
1
18
12
6
8
19
2
11
10
16
15
13
4
3
14
20
17
7
5
9

> <PUBCHEM_MMFF94_PARTIAL_CHARGES>
4
1 -0.57
2 0.06
3 0.45
4 0.06

> <PUBCHEM_EFFECTIVE_ROTOR_COUNT>
2

> <PUBCHEM_PHARMACOPHORE_FEATURES>
3
1 1 acceptor
1 7 hydrophobe
3 2 5 6 hydrophobe

> <PUBCHEM_HEAVY_ATOM_COUNT>
7

> <PUBCHEM_ATOM_DEF_STEREO_COUNT>
0

> <PUBCHEM_ATOM_UDEF_STEREO_COUNT>
0

> <PUBCHEM_BOND_DEF_STEREO_COUNT>
0

> <PUBCHEM_BOND_UDEF_STEREO_COUNT>
0

> <PUBCHEM_ISOTOPIC_ATOM_COUNT>
0

> <PUBCHEM_COMPONENT_COUNT>
1

> <PUBCHEM_CACTVS_TAUTO_COUNT>
3

> <PUBCHEM_CONFORMER_ID>
00002C0100000001

> <PUBCHEM_MMFF94_ENERGY>
3.7097

> <PUBCHEM_FEATURE_SELFOVERLAP>
15.223

> <PUBCHEM_SHAPE_FINGERPRINT>
14390081 3 18113903775194150344
15310529 11 17385442103113236900
16714656 1 17895193264419187407
20096714 4 18339355378636365316
21040471 1 17897726706718744865
23552423 10 18339919411185412982
24536 1 17969798547057451829
29004967 10 13912316859195241926
5084963 1 18201725020110252148
5460574 1 8935009174179239372

> <PUBCHEM_SHAPE_MULTIPOLES>
138.19
3.33
1.19
0.82
1.5
0.1
0.03
0.08
-0.27
-0.61
0.17
-0.06
-0.03
-0.39

> <PUBCHEM_SHAPE_SELFOVERLAP>
247.441

> <PUBCHEM_SHAPE_VOLUME>
90.8

> <PUBCHEM_COORDINATE_TYPE>
2
5
10

$$$$

