441663
  -OEChem-07051212552D

 56 60  0     1  0  0  0  0  0999 V2000
    6.8793   -1.0660    0.0000 O   0  0  0  0  0  0  0  0  0  0  0  0
    6.8716    0.9340    0.0000 O   0  0  0  0  0  0  0  0  0  0  0  0
   11.2755   -0.5765    0.0000 O   0  0  0  0  0  0  0  0  0  0  0  0
    5.1511   -2.0726    0.0000 O   0  0  0  0  0  0  0  0  0  0  0  0
   11.2755   -3.5765    0.0000 O   0  0  0  0  0  0  0  0  0  0  0  0
    4.2639    3.4240    0.0000 O   0  0  0  0  0  0  0  0  0  0  0  0
   13.0239   -3.6111    0.0000 O   0  0  0  0  0  0  0  0  0  0  0  0
    2.5357    2.4173    0.0000 O   0  0  0  0  0  0  0  0  0  0  0  0
   14.8057   -0.5524    0.0000 O   0  0  0  0  0  0  0  0  0  0  0  0
    6.0075    0.4307    0.0000 C   0  0  1  0  0  0  0  0  0  0  0  0
    6.0114   -0.5693    0.0000 C   0  0  1  0  0  0  0  0  0  0  0  0
   10.4095   -1.0765    0.0000 C   0  0  2  0  0  0  0  0  0  0  0  0
    9.5435   -0.5765    0.0000 C   0  0  0  0  0  0  0  0  0  0  0  0
    7.7434   -0.5626    0.0000 C   0  0  0  0  0  0  0  0  0  0  0  0
    7.7396    0.4373    0.0000 C   0  0  0  0  0  0  0  0  0  0  0  0
   10.4095   -2.0765    0.0000 C   0  0  0  0  0  0  0  0  0  0  0  0
    5.1396    0.9273    0.0000 C   0  0  0  0  0  0  0  0  0  0  0  0
    8.6394   -1.0939    0.0000 C   0  0  0  0  0  0  0  0  0  0  0  0
    5.1473   -1.0727    0.0000 C   0  0  0  0  0  0  0  0  0  0  0  0
    9.5395    0.4651    0.0000 C   0  0  0  0  0  0  0  0  0  0  0  0
    8.6314    0.9754    0.0000 C   0  0  0  0  0  0  0  0  0  0  0  0
   11.2755   -2.5765    0.0000 C   0  0  0  0  0  0  0  0  0  0  0  0
   12.1416   -2.0765    0.0000 C   0  0  0  0  0  0  0  0  0  0  0  0
   12.1416   -1.0765    0.0000 C   0  0  0  0  0  0  0  0  0  0  0  0
    5.1357    1.9273    0.0000 C   0  0  0  0  0  0  0  0  0  0  0  0
    4.2755    0.4240    0.0000 C   0  0  0  0  0  0  0  0  0  0  0  0
   13.0355   -2.6112    0.0000 C   0  0  0  0  0  0  0  0  0  0  0  0
   13.0355   -0.5419    0.0000 C   0  0  0  0  0  0  0  0  0  0  0  0
    4.2678    2.4240    0.0000 C   0  0  0  0  0  0  0  0  0  0  0  0
    3.4075    0.9207    0.0000 C   0  0  0  0  0  0  0  0  0  0  0  0
    3.4037    1.9206    0.0000 C   0  0  0  0  0  0  0  0  0  0  0  0
   13.9416   -1.0557    0.0000 C   0  0  0  0  0  0  0  0  0  0  0  0
   13.9416   -2.0973    0.0000 C   0  0  0  0  0  0  0  0  0  0  0  0
    5.1280    3.9273    0.0000 C   0  0  0  0  0  0  0  0  0  0  0  0
    5.4718    0.1186    0.0000 H   0  0  0  0  0  0  0  0  0  0  0  0
    6.0138   -1.1893    0.0000 H   0  0  0  0  0  0  0  0  0  0  0  0
   10.4095   -0.4565    0.0000 H   0  0  0  0  0  0  0  0  0  0  0  0
    9.7989   -1.9689    0.0000 H   0  0  0  0  0  0  0  0  0  0  0  0
   10.1975   -2.6591    0.0000 H   0  0  0  0  0  0  0  0  0  0  0  0
    8.6346   -1.7138    0.0000 H   0  0  0  0  0  0  0  0  0  0  0  0
    4.9330   -0.4909    0.0000 H   0  0  0  0  0  0  0  0  0  0  0  0
    4.5371   -1.1827    0.0000 H   0  0  0  0  0  0  0  0  0  0  0  0
   10.0740    0.7792    0.0000 H   0  0  0  0  0  0  0  0  0  0  0  0
    8.6219    1.5954    0.0000 H   0  0  0  0  0  0  0  0  0  0  0  0
    5.6715    2.2394    0.0000 H   0  0  0  0  0  0  0  0  0  0  0  0
    4.2779   -0.1960    0.0000 H   0  0  0  0  0  0  0  0  0  0  0  0
   13.0283    0.0781    0.0000 H   0  0  0  0  0  0  0  0  0  0  0  0
    2.8718    0.6086    0.0000 H   0  0  0  0  0  0  0  0  0  0  0  0
    4.6154   -2.3847    0.0000 H   0  0  0  0  0  0  0  0  0  0  0  0
   14.4773   -2.4094    0.0000 H   0  0  0  0  0  0  0  0  0  0  0  0
   13.5573   -3.9273    0.0000 H   0  0  0  0  0  0  0  0  0  0  0  0
    2.0000    2.1052    0.0000 H   0  0  0  0  0  0  0  0  0  0  0  0
   15.3438   -0.8603    0.0000 H   0  0  0  0  0  0  0  0  0  0  0  0
    5.4401    3.3916    0.0000 H   0  0  0  0  0  0  0  0  0  0  0  0
    5.6638    4.2394    0.0000 H   0  0  0  0  0  0  0  0  0  0  0  0
    4.8159    4.4630    0.0000 H   0  0  0  0  0  0  0  0  0  0  0  0
  1 11  1  0  0  0  0
  1 14  1  0  0  0  0
  2 10  1  0  0  0  0
  2 15  1  0  0  0  0
  3 12  1  0  0  0  0
  3 24  1  0  0  0  0
  4 19  1  0  0  0  0
  4 49  1  0  0  0  0
  5 22  2  0  0  0  0
  6 29  1  0  0  0  0
  6 34  1  0  0  0  0
  7 27  1  0  0  0  0
  7 51  1  0  0  0  0
  8 31  1  0  0  0  0
  8 52  1  0  0  0  0
  9 32  1  0  0  0  0
  9 53  1  0  0  0  0
 10 11  1  0  0  0  0
 10 17  1  1  0  0  0
 10 35  1  0  0  0  0
 11 19  1  6  0  0  0
 11 36  1  0  0  0  0
 12 13  1  1  0  0  0
 12 16  1  0  0  0  0
 12 37  1  0  0  0  0
 13 18  2  0  0  0  0
 13 20  1  0  0  0  0
 14 15  2  0  0  0  0
 14 18  1  0  0  0  0
 15 21  1  0  0  0  0
 16 22  1  0  0  0  0
 16 38  1  0  0  0  0
 16 39  1  0  0  0  0
 17 25  2  0  0  0  0
 17 26  1  0  0  0  0
 18 40  1  0  0  0  0
 19 41  1  0  0  0  0
 19 42  1  0  0  0  0
 20 21  2  0  0  0  0
 20 43  1  0  0  0  0
 21 44  1  0  0  0  0
 22 23  1  0  0  0  0
 23 24  1  0  0  0  0
 23 27  2  0  0  0  0
 24 28  2  0  0  0  0
 25 29  1  0  0  0  0
 25 45  1  0  0  0  0
 26 30  2  0  0  0  0
 26 46  1  0  0  0  0
 27 33  1  0  0  0  0
 28 32  1  0  0  0  0
 28 47  1  0  0  0  0
 29 31  2  0  0  0  0
 30 31  1  0  0  0  0
 30 48  1  0  0  0  0
 32 33  2  0  0  0  0
 33 50  1  0  0  0  0
 34 54  1  0  0  0  0
 34 55  1  0  0  0  0
 34 56  1  0  0  0  0
M  END
> <PUBCHEM_COMPOUND_CID>
441663

> <PUBCHEM_COMPOUND_CANONICALIZED>
1

> <PUBCHEM_CACTVS_COMPLEXITY>
719

> <PUBCHEM_CACTVS_HBOND_ACCEPTOR>
9

> <PUBCHEM_CACTVS_HBOND_DONOR>
4

> <PUBCHEM_CACTVS_ROTATABLE_BOND>
4

> <PUBCHEM_CACTVS_SUBSKEYS>
AAADceB4PAAAAAAAAAAAAAAAAAAAAAAAAAA0aMECAAAAAACRUAAAGgAACAAADBSgmAIyBoAABgCIAqBSAAACCAAkIAAIiAEGiMgNNzaGNRqCeWOl4BULuQfI7PzOIAABCAAIQABAAAIQABCAAAAAAAAAAA==

> <PUBCHEM_IUPAC_OPENEYE_NAME>
(2S)-5,7-dihydroxy-2-[(2R,3R)-2-(4-hydroxy-3-methoxy-phenyl)-3-(hydroxymethyl)-2,3-dihydro-1,4-benzodioxin-6-yl]chroman-4-one

> <PUBCHEM_IUPAC_CAS_NAME>
(2S)-5,7-dihydroxy-2-[(2R,3R)-2-(4-hydroxy-3-methoxyphenyl)-3-(hydroxymethyl)-2,3-dihydro-1,4-benzodioxin-6-yl]-3,4-dihydro-2H-1-benzopyran-4-one

> <PUBCHEM_IUPAC_NAME>
(2S)-5,7-dihydroxy-2-[(2R,3R)-2-(4-hydroxy-3-methoxyphenyl)-3-(hydroxymethyl)-2,3-dihydro-1,4-benzodioxin-6-yl]-2,3-dihydrochromen-4-one

> <PUBCHEM_IUPAC_SYSTEMATIC_NAME>
(2S)-2-[(2R,3R)-3-(hydroxymethyl)-2-(3-methoxy-4-oxidanyl-phenyl)-2,3-dihydro-1,4-benzodioxin-6-yl]-5,7-bis(oxidanyl)-2,3-dihydrochromen-4-one

> <PUBCHEM_IUPAC_TRADITIONAL_NAME>
(2S)-5,7-dihydroxy-2-[(2R,3R)-2-(4-hydroxy-3-methoxy-phenyl)-3-methylol-2,3-dihydro-1,4-benzodioxin-6-yl]chroman-4-one

> <PUBCHEM_IUPAC_INCHI>
InChI=1S/C25H22O9/c1-31-20-7-13(2-4-15(20)28)25-23(11-26)33-21-6-12(3-5-18(21)34-25)19-10-17(30)24-16(29)8-14(27)9-22(24)32-19/h2-9,19,23,25-29H,10-11H2,1H3/t19-,23+,25+/m0/s1

> <PUBCHEM_IUPAC_INCHIKEY>
CRPGUMMYQABYES-DNVKUUNQSA-N

> <PUBCHEM_XLOGP3_AA>
3

> <PUBCHEM_EXACT_MASS>
466.126382

> <PUBCHEM_MOLECULAR_FORMULA>
C25H22O9

> <PUBCHEM_MOLECULAR_WEIGHT>
466.43678

> <PUBCHEM_OPENEYE_CAN_SMILES>
COC1=C(C=CC(=C1)C2C(OC3=C(O2)C=CC(=C3)C4CC(=O)C5=C(C=C(C=C5O4)O)O)CO)O

> <PUBCHEM_OPENEYE_ISO_SMILES>
COC1=C(C=CC(=C1)[C@@H]2[C@H](OC3=C(O2)C=CC(=C3)[C@@H]4CC(=O)C5=C(C=C(C=C5O4)O)O)CO)O

> <PUBCHEM_CACTVS_TPSA>
135

> <PUBCHEM_MONOISOTOPIC_WEIGHT>
466.126382

> <PUBCHEM_TOTAL_CHARGE>
0

> <PUBCHEM_HEAVY_ATOM_COUNT>
34

> <PUBCHEM_ATOM_DEF_STEREO_COUNT>
3

> <PUBCHEM_ATOM_UDEF_STEREO_COUNT>
0

> <PUBCHEM_BOND_DEF_STEREO_COUNT>
0

> <PUBCHEM_BOND_UDEF_STEREO_COUNT>
0

> <PUBCHEM_ISOTOPIC_ATOM_COUNT>
0

> <PUBCHEM_COMPONENT_COUNT>
1

> <PUBCHEM_CACTVS_TAUTO_COUNT>
63

> <PUBCHEM_COORDINATE_TYPE>
1
5
255

> <PUBCHEM_BONDANNOTATIONS>
10  17  5
11  19  6
12  13  5
13  18  8
13  20  8
14  15  8
14  18  8
15  21  8
17  25  8
17  26  8
20  21  8
23  24  8
23  27  8
24  28  8
25  29  8
26  30  8
27  33  8
28  32  8
29  31  8
30  31  8
32  33  8

$$$$

