5280620
  -OEChem-07051212482D

 33 37  0     1  0  0  0  0  0999 V2000
    3.5229   -2.0967    0.0000 O   0  0  0  0  0  0  0  0  0  0  0  0
    2.0000   -0.9849    0.0000 O   0  0  0  0  0  0  0  0  0  0  0  0
    5.3191    0.7496    0.0000 O   0  0  0  0  0  0  0  0  0  0  0  0
    7.0672   -2.2919    0.0000 O   0  0  0  0  0  0  0  0  0  0  0  0
    7.9714   -0.7951    0.0000 O   0  0  0  0  0  0  0  0  0  0  0  0
    8.9273    0.7745    0.0000 O   0  0  0  0  0  0  0  0  0  0  0  0
    3.5229   -0.4872    0.0000 C   0  0  2  0  0  0  0  0  0  0  0  0
    2.9393   -1.2919    0.0000 C   0  0  1  0  0  0  0  0  0  0  0  0
    4.4691   -0.7919    0.0000 C   0  0  0  0  0  0  0  0  0  0  0  0
    4.4691   -1.7919    0.0000 C   0  0  0  0  0  0  0  0  0  0  0  0
    5.3351   -0.2919    0.0000 C   0  0  0  0  0  0  0  0  0  0  0  0
    2.9393    0.3103    0.0000 C   0  0  0  0  0  0  0  0  0  0  0  0
    6.2012   -0.7919    0.0000 C   0  0  0  0  0  0  0  0  0  0  0  0
    5.3351   -2.2919    0.0000 C   0  0  0  0  0  0  0  0  0  0  0  0
    2.0000    0.0033    0.0000 C   0  0  0  0  0  0  0  0  0  0  0  0
    6.2012   -1.7919    0.0000 C   0  0  0  0  0  0  0  0  0  0  0  0
    7.1112   -0.2851    0.0000 C   0  0  0  0  0  0  0  0  0  0  0  0
    7.1192    0.7565    0.0000 C   0  0  0  0  0  0  0  0  0  0  0  0
    6.2171    1.2773    0.0000 C   0  0  0  0  0  0  0  0  0  0  0  0
    8.0671    1.2845    0.0000 C   0  0  0  0  0  0  0  0  0  0  0  0
    6.2004    2.3622    0.0000 C   0  0  0  0  0  0  0  0  0  0  0  0
    8.0755    2.3694    0.0000 C   0  0  0  0  0  0  0  0  0  0  0  0
    7.1358    2.9119    0.0000 C   0  0  0  0  0  0  0  0  0  0  0  0
    4.0204    0.2020    0.0000 H   0  0  0  0  0  0  0  0  0  0  0  0
    2.4388   -1.9789    0.0000 H   0  0  0  0  0  0  0  0  0  0  0  0
    3.1294    0.9004    0.0000 H   0  0  0  0  0  0  0  0  0  0  0  0
    5.3351   -2.9119    0.0000 H   0  0  0  0  0  0  0  0  0  0  0  0
    1.4981    0.3673    0.0000 H   0  0  0  0  0  0  0  0  0  0  0  0
    5.6599    2.6660    0.0000 H   0  0  0  0  0  0  0  0  0  0  0  0
    7.0672   -2.9119    0.0000 H   0  0  0  0  0  0  0  0  0  0  0  0
    8.6136    2.6774    0.0000 H   0  0  0  0  0  0  0  0  0  0  0  0
    7.1334    3.5319    0.0000 H   0  0  0  0  0  0  0  0  0  0  0  0
    9.4678    1.0783    0.0000 H   0  0  0  0  0  0  0  0  0  0  0  0
  1  8  1  0  0  0  0
  1 10  1  0  0  0  0
  2  8  1  0  0  0  0
  2 15  1  0  0  0  0
  3 11  1  0  0  0  0
  3 19  1  0  0  0  0
  4 16  1  0  0  0  0
  4 30  1  0  0  0  0
  5 17  2  0  0  0  0
  6 20  1  0  0  0  0
  6 33  1  0  0  0  0
  7  8  1  0  0  0  0
  7  9  1  0  0  0  0
  7 12  1  0  0  0  0
  7 24  1  6  0  0  0
  8 25  1  6  0  0  0
  9 10  2  0  0  0  0
  9 11  1  0  0  0  0
 10 14  1  0  0  0  0
 11 13  2  0  0  0  0
 12 15  2  0  0  0  0
 12 26  1  0  0  0  0
 13 16  1  0  0  0  0
 13 17  1  0  0  0  0
 14 16  2  0  0  0  0
 14 27  1  0  0  0  0
 15 28  1  0  0  0  0
 17 18  1  0  0  0  0
 18 19  1  0  0  0  0
 18 20  2  0  0  0  0
 19 21  2  0  0  0  0
 20 22  1  0  0  0  0
 21 23  1  0  0  0  0
 21 29  1  0  0  0  0
 22 23  2  0  0  0  0
 22 31  1  0  0  0  0
 23 32  1  0  0  0  0
M  END
> <PUBCHEM_COMPOUND_CID>
5280620

> <PUBCHEM_COMPOUND_CANONICALIZED>
1

> <PUBCHEM_CACTVS_COMPLEXITY>
547

> <PUBCHEM_CACTVS_HBOND_ACCEPTOR>
6

> <PUBCHEM_CACTVS_HBOND_DONOR>
2

> <PUBCHEM_CACTVS_ROTATABLE_BOND>
0

> <PUBCHEM_CACTVS_SUBSKEYS>
AAADccB4OAAAAAAAAAAAAAAAAAAAASIAAAA0YIAAAAAQAEiRQAAAGgAACAAADQSwmAMwDoAABgCIAqBSAAACCAAkIAAIiAEGCMgcJzaGNRqieWCl4BUMuQfI7PzOoAACCAAIAABAAAQQABAAAAAAAAAAAA==

> <PUBCHEM_IUPAC_INCHI>
InChI=1S/C17H10O6/c18-8-2-1-3-10-13(8)15(20)14-9(19)6-11-12(16(14)22-10)7-4-5-21-17(7)23-11/h1-7,17-19H/t7-,17+/m0/s1

> <PUBCHEM_IUPAC_INCHIKEY>
RQQOEIJLJPCYJR-BWKAKNAASA-N

> <PUBCHEM_XLOGP3_AA>
3

> <PUBCHEM_EXACT_MASS>
310.047738

> <PUBCHEM_MOLECULAR_FORMULA>
C17H10O6

> <PUBCHEM_MOLECULAR_WEIGHT>
310.2577

> <PUBCHEM_OPENEYE_CAN_SMILES>
C1=CC2=C(C(=C1)O)C(=O)C3=C(C=C4C(=C3O2)C5C=COC5O4)O

> <PUBCHEM_OPENEYE_ISO_SMILES>
C1=CC2=C(C(=C1)O)C(=O)C3=C(C=C4C(=C3O2)[C@@H]5C=CO[C@@H]5O4)O

> <PUBCHEM_CACTVS_TPSA>
85.2

> <PUBCHEM_MONOISOTOPIC_WEIGHT>
310.047738

> <PUBCHEM_TOTAL_CHARGE>
0

> <PUBCHEM_HEAVY_ATOM_COUNT>
23

> <PUBCHEM_ATOM_DEF_STEREO_COUNT>
2

> <PUBCHEM_ATOM_UDEF_STEREO_COUNT>
0

> <PUBCHEM_BOND_DEF_STEREO_COUNT>
0

> <PUBCHEM_BOND_UDEF_STEREO_COUNT>
0

> <PUBCHEM_ISOTOPIC_ATOM_COUNT>
0

> <PUBCHEM_COMPONENT_COUNT>
1

> <PUBCHEM_CACTVS_TAUTO_COUNT>
24

> <PUBCHEM_COORDINATE_TYPE>
1
5
255

> <PUBCHEM_BONDANNOTATIONS>
10  14  8
11  13  8
13  16  8
13  17  8
14  16  8
17  18  8
18  19  8
18  20  8
19  21  8
20  22  8
21  23  8
22  23  8
3  11  8
3  19  8
7  24  6
8  25  6
9  10  8
9  11  8

$$$$

