17395302
  -OEChem-06241222493D

 49 51  0     0  0  0  0  0  0999 V2000
    3.8163    0.5032    1.0553 S   0  0  0  0  0  0  0  0  0  0  0  0
    3.8621    0.0262    2.4206 O   0  0  0  0  0  0  0  0  0  0  0  0
    4.9118    1.2631    0.4930 O   0  0  0  0  0  0  0  0  0  0  0  0
   -1.6204    2.9150   -1.6836 O   0  0  0  0  0  0  0  0  0  0  0  0
    2.3581    1.3700    0.8152 N   0  0  0  0  0  0  0  0  0  0  0  0
   -0.2380    2.2937    0.0729 N   0  0  0  0  0  0  0  0  0  0  0  0
   -2.5686    1.8938    0.1374 N   0  0  0  0  0  0  0  0  0  0  0  0
    1.1470    0.7710    1.4476 C   0  0  0  0  0  0  0  0  0  0  0  0
    2.0864    1.7865   -0.5916 C   0  0  0  0  0  0  0  0  0  0  0  0
    0.0009    1.7803    1.4307 C   0  0  0  0  0  0  0  0  0  0  0  0
    0.9580    2.8095   -0.5994 C   0  0  0  0  0  0  0  0  0  0  0  0
   -1.4840    2.4010   -0.5682 C   0  0  0  0  0  0  0  0  0  0  0  0
    3.5238   -0.8866    0.0069 C   0  0  0  0  0  0  0  0  0  0  0  0
   -3.9152    1.9362   -0.3874 C   0  0  0  0  0  0  0  0  0  0  0  0
    3.9122   -0.8443   -1.3321 C   0  0  0  0  0  0  0  0  0  0  0  0
    2.9041   -2.0273    0.5175 C   0  0  0  0  0  0  0  0  0  0  0  0
   -4.2651    0.6946   -1.2041 C   0  0  0  0  0  0  0  0  0  0  0  0
   -4.1972   -0.5789   -0.3974 C   0  0  0  0  0  0  0  0  0  0  0  0
    3.6807   -1.9422   -2.1607 C   0  0  0  0  0  0  0  0  0  0  0  0
    2.6727   -3.1253   -0.3110 C   0  0  0  0  0  0  0  0  0  0  0  0
    3.0611   -3.0827   -1.6501 C   0  0  0  0  0  0  0  0  0  0  0  0
   -3.0030   -1.2963   -0.3260 C   0  0  0  0  0  0  0  0  0  0  0  0
   -5.3282   -1.0385    0.2773 C   0  0  0  0  0  0  0  0  0  0  0  0
   -2.9399   -2.4734    0.4198 C   0  0  0  0  0  0  0  0  0  0  0  0
   -5.2650   -2.2155    1.0232 C   0  0  0  0  0  0  0  0  0  0  0  0
   -4.0708   -2.9329    1.0944 C   0  0  0  0  0  0  0  0  0  0  0  0
    1.3540    0.4985    2.4871 H   0  0  0  0  0  0  0  0  0  0  0  0
    0.8419   -0.1270    0.9003 H   0  0  0  0  0  0  0  0  0  0  0  0
    1.7833    0.9236   -1.1934 H   0  0  0  0  0  0  0  0  0  0  0  0
    2.9781    2.2404   -1.0348 H   0  0  0  0  0  0  0  0  0  0  0  0
   -0.8754    1.3183    1.8812 H   0  0  0  0  0  0  0  0  0  0  0  0
    0.2582    2.6498    2.0481 H   0  0  0  0  0  0  0  0  0  0  0  0
    1.2596    3.7155   -0.0595 H   0  0  0  0  0  0  0  0  0  0  0  0
    0.7340    3.1021   -1.6298 H   0  0  0  0  0  0  0  0  0  0  0  0
   -2.4610    1.4617    1.0433 H   0  0  0  0  0  0  0  0  0  0  0  0
   -4.5882    2.0351    0.4716 H   0  0  0  0  0  0  0  0  0  0  0  0
   -4.0338    2.8312   -1.0078 H   0  0  0  0  0  0  0  0  0  0  0  0
    4.3952    0.0334   -1.7523 H   0  0  0  0  0  0  0  0  0  0  0  0
    2.5903   -2.0817    1.5560 H   0  0  0  0  0  0  0  0  0  0  0  0
   -3.5934    0.6101   -2.0683 H   0  0  0  0  0  0  0  0  0  0  0  0
   -5.2740    0.8065   -1.6209 H   0  0  0  0  0  0  0  0  0  0  0  0
    3.9823   -1.9090   -3.2035 H   0  0  0  0  0  0  0  0  0  0  0  0
    2.1889   -4.0129    0.0859 H   0  0  0  0  0  0  0  0  0  0  0  0
    2.8803   -3.9374   -2.2953 H   0  0  0  0  0  0  0  0  0  0  0  0
   -2.1143   -0.9508   -0.8476 H   0  0  0  0  0  0  0  0  0  0  0  0
   -6.2637   -0.4873    0.2311 H   0  0  0  0  0  0  0  0  0  0  0  0
   -2.0099   -3.0316    0.4754 H   0  0  0  0  0  0  0  0  0  0  0  0
   -6.1454   -2.5732    1.5491 H   0  0  0  0  0  0  0  0  0  0  0  0
   -4.0216   -3.8492    1.6753 H   0  0  0  0  0  0  0  0  0  0  0  0
  1  2  2  0  0  0  0
  1  3  2  0  0  0  0
  1  5  1  0  0  0  0
  1 13  1  0  0  0  0
  4 12  2  0  0  0  0
  5  8  1  0  0  0  0
  5  9  1  0  0  0  0
  6 10  1  0  0  0  0
  6 11  1  0  0  0  0
  6 12  1  0  0  0  0
  7 12  1  0  0  0  0
  7 14  1  0  0  0  0
  7 35  1  0  0  0  0
  8 10  1  0  0  0  0
  8 27  1  0  0  0  0
  8 28  1  0  0  0  0
  9 11  1  0  0  0  0
  9 29  1  0  0  0  0
  9 30  1  0  0  0  0
 10 31  1  0  0  0  0
 10 32  1  0  0  0  0
 11 33  1  0  0  0  0
 11 34  1  0  0  0  0
 13 15  2  0  0  0  0
 13 16  1  0  0  0  0
 14 17  1  0  0  0  0
 14 36  1  0  0  0  0
 14 37  1  0  0  0  0
 15 19  1  0  0  0  0
 15 38  1  0  0  0  0
 16 20  2  0  0  0  0
 16 39  1  0  0  0  0
 17 18  1  0  0  0  0
 17 40  1  0  0  0  0
 17 41  1  0  0  0  0
 18 22  2  0  0  0  0
 18 23  1  0  0  0  0
 19 21  2  0  0  0  0
 19 42  1  0  0  0  0
 20 21  1  0  0  0  0
 20 43  1  0  0  0  0
 21 44  1  0  0  0  0
 22 24  1  0  0  0  0
 22 45  1  0  0  0  0
 23 25  2  0  0  0  0
 23 46  1  0  0  0  0
 24 26  2  0  0  0  0
 24 47  1  0  0  0  0
 25 26  1  0  0  0  0
 25 48  1  0  0  0  0
 26 49  1  0  0  0  0
M  END
> <PUBCHEM_COMPOUND_CID>
17395302

> <PUBCHEM_CONFORMER_RMSD>
1

> <PUBCHEM_CONFORMER_DIVERSEORDER>
1
70
30
16
47
21
57
23
46
63
52
32
54
20
17
37
73
67
76
41
25
72
28
2
22
69
15
53
12
58
10
65
66
68
48
56
43
6
27
13
42
78
59
49
74
34
51
61
5
7
36
64
35
44
11
29
24
4
40
45
55
9
75
3
71
31
62
60
19
50
26
18
39
14
33
8
38
77

> <PUBCHEM_MMFF94_PARTIAL_CHARGES>
37
1 1.45
10 0.3
11 0.3
12 0.69
13 -0.01
14 0.3
15 -0.15
16 -0.15
17 0.14
18 -0.14
19 -0.15
2 -0.65
20 -0.15
21 -0.15
22 -0.15
23 -0.15
24 -0.15
25 -0.15
26 -0.15
3 -0.65
35 0.37
38 0.15
39 0.15
4 -0.57
42 0.15
43 0.15
44 0.15
45 0.15
46 0.15
47 0.15
48 0.15
49 0.15
5 -0.85
6 -0.66
7 -0.73
8 0.36
9 0.36

> <PUBCHEM_EFFECTIVE_ROTOR_COUNT>
8.2

> <PUBCHEM_PHARMACOPHORE_FEATURES>
7
1 2 acceptor
1 3 acceptor
1 4 acceptor
1 7 donor
6 13 15 16 19 20 21 rings
6 18 22 23 24 25 26 rings
6 5 6 8 9 10 11 rings

> <PUBCHEM_HEAVY_ATOM_COUNT>
26

> <PUBCHEM_ATOM_DEF_STEREO_COUNT>
0

> <PUBCHEM_ATOM_UDEF_STEREO_COUNT>
0

> <PUBCHEM_BOND_DEF_STEREO_COUNT>
0

> <PUBCHEM_BOND_UDEF_STEREO_COUNT>
0

> <PUBCHEM_ISOTOPIC_ATOM_COUNT>
0

> <PUBCHEM_COMPONENT_COUNT>
1

> <PUBCHEM_CACTVS_TAUTO_COUNT>
2

> <PUBCHEM_CONFORMER_ID>
01096E6600000001

> <PUBCHEM_MMFF94_ENERGY>
47.0344

> <PUBCHEM_FEATURE_SELFOVERLAP>
35.538

> <PUBCHEM_SHAPE_FINGERPRINT>
10794284 68 17910403788936914376
10928967 22 18057031634941929875
11315621 136 18341883074723173724
11828532 37 17343500004255401323
12422481 6 18043559199319960802
12623949 98 17409909351326874715
13255334 9 18409729607476613021
13402501 40 18410576145562738435
13583140 156 17022913366659889128
1361 87 18045208594893147687
13911882 115 18333450932987265496
14251757 17 18410575119318710507
14251757 5 18197766902931196759
14659021 117 16169175887090761838
17093844 170 18409735058265008226
17909252 39 18262224612642701610
17913733 40 17169294588751050506
1979834 28 18188769427213446899
20403669 9 18341616980092901859
20765182 20 18115291298923672879
20775530 9 18335134323580430863
21315759 227 18271531909688526367
23559900 14 18410012182107447972
3052486 1 18202569488116820162
3737641 26 18186793686538502922
4394409 98 16619570973753190327
46194498 28 18127967516792559759
463206 1 17400075769708611978
484989 97 18189043344314021182
508706 21 18341619265078651263
574716 61 16630234870721412101
613672 6 18339374010595048261
6433294 58 18265054811080098318
6823239 73 18336262435791030686

> <PUBCHEM_SHAPE_MULTIPOLES>
506.37
11.69
4.32
1.71
6.93
0.67
0.03
6.76
0.45
0.62
-0.89
-1.48
0.2
3.18

> <PUBCHEM_SHAPE_SELFOVERLAP>
1051.093

> <PUBCHEM_SHAPE_VOLUME>
287.4

> <PUBCHEM_COORDINATE_TYPE>
2
5
10

$$$$

