11811
  -OEChem-07051212483D

 28 28  0     1  0  0  0  0  0999 V2000
    0.7289    0.7340   -1.5246 O   0  0  0  0  0  0  0  0  0  0  0  0
   -3.9510    1.5043    0.4352 O   0  0  0  0  0  0  0  0  0  0  0  0
    3.3899    1.7768    0.0276 O   0  0  0  0  0  0  0  0  0  0  0  0
    2.7233    0.5465    1.8114 O   0  0  0  0  0  0  0  0  0  0  0  0
    3.9263   -1.5172    0.0516 N   0  0  0  0  0  0  0  0  0  0  0  0
   -1.3357    1.9932   -0.4326 N   0  0  0  0  0  0  0  0  0  0  0  0
    1.5429   -1.1846   -0.3568 C   0  0  0  0  0  0  0  0  0  0  0  0
    2.9266   -0.5330   -0.3702 C   0  0  1  0  0  0  0  0  0  0  0  0
    0.4561   -0.2174   -0.7940 C   0  0  0  0  0  0  0  0  0  0  0  0
   -0.9508   -0.4100   -0.3335 C   0  0  0  0  0  0  0  0  0  0  0  0
   -1.7811    0.6763   -0.1717 C   0  0  0  0  0  0  0  0  0  0  0  0
   -1.3632   -1.7018   -0.0854 C   0  0  0  0  0  0  0  0  0  0  0  0
   -3.0901    0.4620    0.2601 C   0  0  0  0  0  0  0  0  0  0  0  0
    2.9855    0.6214    0.6178 C   0  0  0  0  0  0  0  0  0  0  0  0
   -2.6721   -1.9161    0.3463 C   0  0  0  0  0  0  0  0  0  0  0  0
   -3.5356   -0.8344    0.5189 C   0  0  0  0  0  0  0  0  0  0  0  0
    1.3105   -1.5400    0.6550 H   0  0  0  0  0  0  0  0  0  0  0  0
    1.5239   -2.0412   -1.0412 H   0  0  0  0  0  0  0  0  0  0  0  0
    3.1756   -0.1753   -1.3753 H   0  0  0  0  0  0  0  0  0  0  0  0
   -0.7179   -2.5627   -0.2264 H   0  0  0  0  0  0  0  0  0  0  0  0
    3.7205   -1.8461    0.9941 H   0  0  0  0  0  0  0  0  0  0  0  0
    4.8469   -1.0814    0.0886 H   0  0  0  0  0  0  0  0  0  0  0  0
   -3.0204   -2.9255    0.5445 H   0  0  0  0  0  0  0  0  0  0  0  0
   -4.5543   -1.0087    0.8544 H   0  0  0  0  0  0  0  0  0  0  0  0
   -1.8911    2.7978   -0.1827 H   0  0  0  0  0  0  0  0  0  0  0  0
   -0.3811    2.1531   -0.7248 H   0  0  0  0  0  0  0  0  0  0  0  0
   -3.5907    2.3051    0.0249 H   0  0  0  0  0  0  0  0  0  0  0  0
    3.4346    2.5182    0.6685 H   0  0  0  0  0  0  0  0  0  0  0  0
  1  9  2  0  0  0  0
  2 13  1  0  0  0  0
  2 27  1  0  0  0  0
  3 14  1  0  0  0  0
  3 28  1  0  0  0  0
  4 14  2  0  0  0  0
  5  8  1  0  0  0  0
  5 21  1  0  0  0  0
  5 22  1  0  0  0  0
  6 11  1  0  0  0  0
  6 25  1  0  0  0  0
  6 26  1  0  0  0  0
  7  8  1  0  0  0  0
  7  9  1  0  0  0  0
  7 17  1  0  0  0  0
  7 18  1  0  0  0  0
  8 14  1  0  0  0  0
  8 19  1  0  0  0  0
  9 10  1  0  0  0  0
 10 11  2  0  0  0  0
 10 12  1  0  0  0  0
 11 13  1  0  0  0  0
 12 15  2  0  0  0  0
 12 20  1  0  0  0  0
 13 16  2  0  0  0  0
 15 16  1  0  0  0  0
 15 23  1  0  0  0  0
 16 24  1  0  0  0  0
M  END
> <PUBCHEM_COMPOUND_CID>
11811

> <PUBCHEM_CONFORMER_RMSD>
0.6

> <PUBCHEM_CONFORMER_DIVERSEORDER>
1
47
38
16
66
17
59
64
31
61
45
3
4
10
40
44
48
22
56
30
62
63
43
60
39
8
2
25
41
28
29
20
18
54
35
52
57
11
26
6
21
13
51
46
27
36
32
58
15
33
65
42
55
24
34
12
53
14
50
37
19
9
23
5
7
49

> <PUBCHEM_MMFF94_PARTIAL_CHARGES>
25
1 -0.57
10 0.09
11 0.1
12 -0.15
13 0.08
14 0.66
15 -0.15
16 -0.15
2 -0.53
20 0.15
21 0.36
22 0.36
23 0.15
24 0.15
25 0.4
26 0.4
27 0.45
28 0.5
3 -0.65
4 -0.57
5 -0.99
6 -0.9
7 0.06
8 0.33
9 0.42

> <PUBCHEM_EFFECTIVE_ROTOR_COUNT>
4

> <PUBCHEM_PHARMACOPHORE_FEATURES>
10
1 1 acceptor
1 2 donor
1 3 acceptor
1 4 acceptor
1 5 cation
1 5 donor
1 6 cation
1 6 donor
3 3 4 14 anion
6 10 11 12 13 15 16 rings

> <PUBCHEM_HEAVY_ATOM_COUNT>
16

> <PUBCHEM_ATOM_DEF_STEREO_COUNT>
1

> <PUBCHEM_ATOM_UDEF_STEREO_COUNT>
0

> <PUBCHEM_BOND_DEF_STEREO_COUNT>
0

> <PUBCHEM_BOND_UDEF_STEREO_COUNT>
0

> <PUBCHEM_ISOTOPIC_ATOM_COUNT>
0

> <PUBCHEM_COMPONENT_COUNT>
1

> <PUBCHEM_CACTVS_TAUTO_COUNT>
21

> <PUBCHEM_CONFORMER_ID>
00002E2300000001

> <PUBCHEM_MMFF94_ENERGY>
49.815

> <PUBCHEM_FEATURE_SELFOVERLAP>
50.806

> <PUBCHEM_SHAPE_FINGERPRINT>
10608611 8 18334858328823441832
11132069 177 18411423894892048225
12119455 92 17458912646944459975
122479 349 18187644747467335905
12251169 10 18340773723304184062
12382932 28 18411696569623142131
12500047 106 18339080496640208423
12507560 40 18334294249573261482
12633257 1 18336830912987248994
12932764 1 17203336619270663902
13296908 3 18411417293406209278
13705890 14 11815901145702578158
14289901 80 18335702672207438514
14866123 147 16242073503500830950
15219456 202 18259703397750746506
15653759 3 18409167727291873266
15775835 57 17240771631732516656
16945 1 18059854004276288319
17804303 29 18338789134722875966
17834072 14 18270412594182573103
18175812 5 18334574654839378118
18186145 218 18041551550657422879
19049666 15 18045216304464671958
20361792 2 16271930397859630118
20510252 161 18334850611315720545
20528008 55 18335424577654618423
20645476 183 5328464804270055373
21065199 12 18408604738578355330
21501925 9 18200590281408764055
22169311 14 18335139825459761202
23388829 49 17906177256489018903
23402539 116 18335144198522536919
23557571 272 18115014217661348743
23559900 14 18408885174383950838
2748010 2 17624969826756329423
5104073 3 18411133636601813938
69090 78 18334861645029045327
84936 182 16971131033521606613
90316 7 17989491839930934853
9882013 296 18129104424695378660

> <PUBCHEM_SHAPE_MULTIPOLES>
295.83
7.06
1.92
1.01
1.56
0.07
0.12
0.34
1.86
-0.5
0.01
0.55
0.17
0.35

> <PUBCHEM_SHAPE_SELFOVERLAP>
620.293

> <PUBCHEM_SHAPE_VOLUME>
165.7

> <PUBCHEM_COORDINATE_TYPE>
2
5
10

$$$$

