442828
  -OEChem-07051212592D

 38 41  0     1  0  0  0  0  0999 V2000
    6.1621   -0.8598    0.0000 O   0  0  0  0  0  0  0  0  0  0  0  0
    8.3061    1.2087    0.0000 O   0  0  0  0  0  0  0  0  0  0  0  0
    6.3498    1.6246    0.0000 O   0  0  0  0  0  0  0  0  0  0  0  0
    2.6726    0.0445    0.0000 O   0  0  0  0  0  0  0  0  0  0  0  0
   10.9457   -1.1354    0.0000 O   0  0  0  0  0  0  0  0  0  0  0  0
    6.6589    0.6735    0.0000 C   0  0  2  0  0  0  0  0  0  0  0  0
    6.9679   -0.2776    0.0000 C   0  0  1  0  0  0  0  0  0  0  0  0
    5.6648    0.6709    0.0000 C   0  0  0  0  0  0  0  0  0  0  0  0
    7.3280    1.4166    0.0000 C   0  0  0  0  0  0  0  0  0  0  0  0
    7.9460   -0.4855    0.0000 C   0  0  0  0  0  0  0  0  0  0  0  0
    5.3584   -0.2748    0.0000 C   0  0  0  0  0  0  0  0  0  0  0  0
    8.6152    0.2577    0.0000 C   0  0  0  0  0  0  0  0  0  0  0  0
    4.9832    1.4504    0.0000 C   0  0  0  0  0  0  0  0  0  0  0  0
    8.2526   -1.4810    0.0000 C   0  0  0  0  0  0  0  0  0  0  0  0
    4.3492   -0.5065    0.0000 C   0  0  0  0  0  0  0  0  0  0  0  0
    9.6372    0.0568    0.0000 C   0  0  0  0  0  0  0  0  0  0  0  0
    3.9689    1.2421    0.0000 C   0  0  0  0  0  0  0  0  0  0  0  0
    3.6498    0.2570    0.0000 C   0  0  0  0  0  0  0  0  0  0  0  0
    9.2698   -1.7054    0.0000 C   0  0  0  0  0  0  0  0  0  0  0  0
    9.9668   -0.9313    0.0000 C   0  0  0  0  0  0  0  0  0  0  0  0
    2.0000    0.7845    0.0000 C   0  0  0  0  0  0  0  0  0  0  0  0
   11.2584   -2.0853    0.0000 C   0  0  0  0  0  0  0  0  0  0  0  0
    7.1435   -1.1092    0.0000 H   0  0  0  0  0  0  0  0  0  0  0  0
    7.5602    1.9915    0.0000 H   0  0  0  0  0  0  0  0  0  0  0  0
    6.8022    1.7452    0.0000 H   0  0  0  0  0  0  0  0  0  0  0  0
    5.1811    2.0380    0.0000 H   0  0  0  0  0  0  0  0  0  0  0  0
    6.7647    2.0853    0.0000 H   0  0  0  0  0  0  0  0  0  0  0  0
    7.8324   -1.9369    0.0000 H   0  0  0  0  0  0  0  0  0  0  0  0
    4.1650   -1.0985    0.0000 H   0  0  0  0  0  0  0  0  0  0  0  0
   10.0467    0.5224    0.0000 H   0  0  0  0  0  0  0  0  0  0  0  0
    3.5554    1.7040    0.0000 H   0  0  0  0  0  0  0  0  0  0  0  0
    9.4591   -2.2958    0.0000 H   0  0  0  0  0  0  0  0  0  0  0  0
    2.4588    1.2015    0.0000 H   0  0  0  0  0  0  0  0  0  0  0  0
    1.5830    1.2432    0.0000 H   0  0  0  0  0  0  0  0  0  0  0  0
    1.5412    0.3674    0.0000 H   0  0  0  0  0  0  0  0  0  0  0  0
   10.6695   -2.2792    0.0000 H   0  0  0  0  0  0  0  0  0  0  0  0
   11.4522   -2.6742    0.0000 H   0  0  0  0  0  0  0  0  0  0  0  0
   11.8473   -1.8914    0.0000 H   0  0  0  0  0  0  0  0  0  0  0  0
  1  7  1  0  0  0  0
  1 11  1  0  0  0  0
  2  9  1  0  0  0  0
  2 12  1  0  0  0  0
  6  3  1  6  0  0  0
  3 27  1  0  0  0  0
  4 18  1  0  0  0  0
  4 21  1  0  0  0  0
  5 20  1  0  0  0  0
  5 22  1  0  0  0  0
  6  7  1  0  0  0  0
  6  8  1  0  0  0  0
  6  9  1  0  0  0  0
  7 10  1  0  0  0  0
  7 23  1  6  0  0  0
  8 11  2  0  0  0  0
  8 13  1  0  0  0  0
  9 24  1  0  0  0  0
  9 25  1  0  0  0  0
 10 12  2  0  0  0  0
 10 14  1  0  0  0  0
 11 15  1  0  0  0  0
 12 16  1  0  0  0  0
 13 17  2  0  0  0  0
 13 26  1  0  0  0  0
 14 19  2  0  0  0  0
 14 28  1  0  0  0  0
 15 18  2  0  0  0  0
 15 29  1  0  0  0  0
 16 20  2  0  0  0  0
 16 30  1  0  0  0  0
 17 18  1  0  0  0  0
 17 31  1  0  0  0  0
 19 20  1  0  0  0  0
 19 32  1  0  0  0  0
 21 33  1  0  0  0  0
 21 34  1  0  0  0  0
 21 35  1  0  0  0  0
 22 36  1  0  0  0  0
 22 37  1  0  0  0  0
 22 38  1  0  0  0  0
M  END
> <PUBCHEM_COMPOUND_CID>
442828

> <PUBCHEM_COMPOUND_CANONICALIZED>
1

> <PUBCHEM_CACTVS_COMPLEXITY>
416

> <PUBCHEM_CACTVS_HBOND_ACCEPTOR>
5

> <PUBCHEM_CACTVS_HBOND_DONOR>
1

> <PUBCHEM_CACTVS_ROTATABLE_BOND>
2

> <PUBCHEM_CACTVS_SUBSKEYS>
AAADceB4OAAAAAAAAAAAAAAAAAAAASAAAAA0YIAAAAAAAEiRQAAAGgAACAAADFSgmAIyBoAABgCAAiBCAAACCAAgIAAIiAAGCIgNJyKEMRqCeCClwBULuAfA4PwOoAAACAAIAABAAAAQABAAAAAAAAAAAA==

> <PUBCHEM_IUPAC_OPENEYE_NAME>
(6aR,11aR)-3,9-dimethoxy-6,11a-dihydrobenzofuro[3,2-c]chromen-6a-ol

> <PUBCHEM_IUPAC_CAS_NAME>
(6aR,11aR)-3,9-dimethoxy-6,11a-dihydrobenzofuro[3,2-c][1]benzopyran-6a-ol

> <PUBCHEM_IUPAC_NAME>
(6aR,11aR)-3,9-dimethoxy-6,11a-dihydro-[1]benzofuro[3,2-c]chromen-6a-ol

> <PUBCHEM_IUPAC_SYSTEMATIC_NAME>
(6aR,11aR)-3,9-dimethoxy-6,11a-dihydro-[1]benzofuro[3,2-c]chromen-6a-ol

> <PUBCHEM_IUPAC_TRADITIONAL_NAME>
(6aR,11aR)-3,9-dimethoxy-6,11a-dihydrobenzofuro[3,2-c]chromen-6a-ol

> <PUBCHEM_IUPAC_INCHI>
InChI=1S/C17H16O5/c1-19-10-3-5-12-14(7-10)21-9-17(18)13-6-4-11(20-2)8-15(13)22-16(12)17/h3-8,16,18H,9H2,1-2H3/t16-,17+/m1/s1

> <PUBCHEM_IUPAC_INCHIKEY>
VVPGAJNPGZZNBM-SJORKVTESA-N

> <PUBCHEM_XLOGP3_AA>
1.9

> <PUBCHEM_EXACT_MASS>
300.099774

> <PUBCHEM_MOLECULAR_FORMULA>
C17H16O5

> <PUBCHEM_MOLECULAR_WEIGHT>
300.30594

> <PUBCHEM_OPENEYE_CAN_SMILES>
COC1=CC2=C(C=C1)C3C(CO2)(C4=C(O3)C=C(C=C4)OC)O

> <PUBCHEM_OPENEYE_ISO_SMILES>
COC1=CC2=C(C=C1)[C@@H]3[C@](CO2)(C4=C(O3)C=C(C=C4)OC)O

> <PUBCHEM_CACTVS_TPSA>
57.2

> <PUBCHEM_MONOISOTOPIC_WEIGHT>
300.099774

> <PUBCHEM_TOTAL_CHARGE>
0

> <PUBCHEM_HEAVY_ATOM_COUNT>
22

> <PUBCHEM_ATOM_DEF_STEREO_COUNT>
2

> <PUBCHEM_ATOM_UDEF_STEREO_COUNT>
0

> <PUBCHEM_BOND_DEF_STEREO_COUNT>
0

> <PUBCHEM_BOND_UDEF_STEREO_COUNT>
0

> <PUBCHEM_ISOTOPIC_ATOM_COUNT>
0

> <PUBCHEM_COMPONENT_COUNT>
1

> <PUBCHEM_CACTVS_TAUTO_COUNT>
1

> <PUBCHEM_COORDINATE_TYPE>
1
5
255

> <PUBCHEM_BONDANNOTATIONS>
10  12  8
10  14  8
11  15  8
12  16  8
13  17  8
14  19  8
15  18  8
16  20  8
17  18  8
19  20  8
6  3  6
7  23  6
8  11  8
8  13  8

$$$$

