91612
  -OEChem-07051213122D

 42 43  0     0  0  0  0  0  0999 V2000
    2.1648    0.4216    0.0000 Cl  0  0  0  0  0  0  0  0  0  0  0  0
    4.3968    2.9604    0.0000 O   0  0  0  0  0  0  0  0  0  0  0  0
    5.6569    1.7003    0.0000 O   0  0  0  0  0  0  0  0  0  0  0  0
    5.6288   -2.5784    0.0000 O   0  0  0  0  0  0  0  0  0  0  0  0
    3.8968    1.4216    0.0000 N   0  0  0  0  0  0  0  0  0  0  0  0
    3.0878    2.0094    0.0000 N   0  0  0  0  0  0  0  0  0  0  0  0
    3.8968   -2.5784    0.0000 N   0  0  0  0  0  0  0  0  0  0  0  0
    4.7628   -4.0784    0.0000 N   0  0  0  0  0  0  0  0  0  0  0  0
    2.8090    3.7694    0.0000 C   0  0  0  0  0  0  0  0  0  0  0  0
    3.3968    2.9604    0.0000 C   0  0  0  0  0  0  0  0  0  0  0  0
    2.2212    4.5784    0.0000 C   0  0  0  0  0  0  0  0  0  0  0  0
    3.6180    4.3572    0.0000 C   0  0  0  0  0  0  0  0  0  0  0  0
    2.0000    3.1816    0.0000 C   0  0  0  0  0  0  0  0  0  0  0  0
    3.8968    0.4216    0.0000 C   0  0  0  0  0  0  0  0  0  0  0  0
    4.7058    2.0094    0.0000 C   0  0  0  0  0  0  0  0  0  0  0  0
    3.0308   -0.0784    0.0000 C   0  0  0  0  0  0  0  0  0  0  0  0
    4.7628   -0.0784    0.0000 C   0  0  0  0  0  0  0  0  0  0  0  0
    3.8968   -1.5784    0.0000 C   0  0  0  0  0  0  0  0  0  0  0  0
    3.0308   -1.0784    0.0000 C   0  0  0  0  0  0  0  0  0  0  0  0
    4.7628   -1.0784    0.0000 C   0  0  0  0  0  0  0  0  0  0  0  0
    4.7628   -3.0784    0.0000 C   0  0  0  0  0  0  0  0  0  0  0  0
    5.6288   -4.5784    0.0000 C   0  0  0  0  0  0  0  0  0  0  0  0
    3.8968   -4.5784    0.0000 C   0  0  0  0  0  0  0  0  0  0  0  0
    1.6356    3.6832    0.0000 H   0  0  0  0  0  0  0  0  0  0  0  0
    1.4984    2.8172    0.0000 H   0  0  0  0  0  0  0  0  0  0  0  0
    2.3644    2.6800    0.0000 H   0  0  0  0  0  0  0  0  0  0  0  0
    3.9825    3.8556    0.0000 H   0  0  0  0  0  0  0  0  0  0  0  0
    4.1196    4.7216    0.0000 H   0  0  0  0  0  0  0  0  0  0  0  0
    3.2536    4.8588    0.0000 H   0  0  0  0  0  0  0  0  0  0  0  0
    2.7228    4.9429    0.0000 H   0  0  0  0  0  0  0  0  0  0  0  0
    1.8568    5.0800    0.0000 H   0  0  0  0  0  0  0  0  0  0  0  0
    1.7196    4.2140    0.0000 H   0  0  0  0  0  0  0  0  0  0  0  0
    5.2998    0.2316    0.0000 H   0  0  0  0  0  0  0  0  0  0  0  0
    2.4938   -1.3884    0.0000 H   0  0  0  0  0  0  0  0  0  0  0  0
    5.2998   -1.3884    0.0000 H   0  0  0  0  0  0  0  0  0  0  0  0
    3.3599   -2.8884    0.0000 H   0  0  0  0  0  0  0  0  0  0  0  0
    3.5868   -4.0415    0.0000 H   0  0  0  0  0  0  0  0  0  0  0  0
    3.3599   -4.8884    0.0000 H   0  0  0  0  0  0  0  0  0  0  0  0
    4.2068   -5.1154    0.0000 H   0  0  0  0  0  0  0  0  0  0  0  0
    5.3188   -5.1154    0.0000 H   0  0  0  0  0  0  0  0  0  0  0  0
    6.1658   -4.8884    0.0000 H   0  0  0  0  0  0  0  0  0  0  0  0
    5.9389   -4.0415    0.0000 H   0  0  0  0  0  0  0  0  0  0  0  0
  1 16  1  0  0  0  0
  2 10  1  0  0  0  0
  2 15  1  0  0  0  0
  3 15  2  0  0  0  0
  4 21  2  0  0  0  0
  5  6  1  0  0  0  0
  5 14  1  0  0  0  0
  5 15  1  0  0  0  0
  6 10  2  0  0  0  0
  7 18  1  0  0  0  0
  7 21  1  0  0  0  0
  7 36  1  0  0  0  0
  8 21  1  0  0  0  0
  8 22  1  0  0  0  0
  8 23  1  0  0  0  0
  9 10  1  0  0  0  0
  9 11  1  0  0  0  0
  9 12  1  0  0  0  0
  9 13  1  0  0  0  0
 11 30  1  0  0  0  0
 11 31  1  0  0  0  0
 11 32  1  0  0  0  0
 12 27  1  0  0  0  0
 12 28  1  0  0  0  0
 12 29  1  0  0  0  0
 13 24  1  0  0  0  0
 13 25  1  0  0  0  0
 13 26  1  0  0  0  0
 14 16  2  0  0  0  0
 14 17  1  0  0  0  0
 16 19  1  0  0  0  0
 17 20  2  0  0  0  0
 17 33  1  0  0  0  0
 18 19  2  0  0  0  0
 18 20  1  0  0  0  0
 19 34  1  0  0  0  0
 20 35  1  0  0  0  0
 22 40  1  0  0  0  0
 22 41  1  0  0  0  0
 22 42  1  0  0  0  0
 23 37  1  0  0  0  0
 23 38  1  0  0  0  0
 23 39  1  0  0  0  0
M  END
> <PUBCHEM_COMPOUND_CID>
91612

> <PUBCHEM_COMPOUND_CANONICALIZED>
1

> <PUBCHEM_CACTVS_COMPLEXITY>
515

> <PUBCHEM_CACTVS_HBOND_ACCEPTOR>
4

> <PUBCHEM_CACTVS_HBOND_DONOR>
1

> <PUBCHEM_CACTVS_ROTATABLE_BOND>
3

> <PUBCHEM_CACTVS_SUBSKEYS>
AAADceBzsAAEAAAAAAAAAAAAAAAAAQAAAAAwAAAAAAAAAAABAAAAHgIYAAAADgqBkCQzyIPABACoACRiWACSBAAhBwAaiAAoZoiIICLBk5HMIAhongJIyCcQAAAAAACAAAIAABAAAQAABAAAIAAAAAAAAA==

> <PUBCHEM_IUPAC_OPENEYE_NAME>
3-[4-(5-tert-butyl-2-oxo-1,3,4-oxadiazol-3-yl)-3-chloro-phenyl]-1,1-dimethyl-urea

> <PUBCHEM_IUPAC_CAS_NAME>
3-[4-(5-tert-butyl-2-oxo-1,3,4-oxadiazol-3-yl)-3-chlorophenyl]-1,1-dimethylurea

> <PUBCHEM_IUPAC_NAME>
3-[4-(5-tert-butyl-2-oxo-1,3,4-oxadiazol-3-yl)-3-chlorophenyl]-1,1-dimethylurea

> <PUBCHEM_IUPAC_SYSTEMATIC_NAME>
3-[4-(5-tert-butyl-2-oxidanylidene-1,3,4-oxadiazol-3-yl)-3-chloranyl-phenyl]-1,1-dimethyl-urea

> <PUBCHEM_IUPAC_TRADITIONAL_NAME>
3-[4-(5-tert-butyl-2-keto-1,3,4-oxadiazol-3-yl)-3-chloro-phenyl]-1,1-dimethyl-urea

> <PUBCHEM_IUPAC_INCHI>
InChI=1S/C15H19ClN4O3/c1-15(2,3)12-18-20(14(22)23-12)11-7-6-9(8-10(11)16)17-13(21)19(4)5/h6-8H,1-5H3,(H,17,21)

> <PUBCHEM_IUPAC_INCHIKEY>
DHWRNDJOGMTCPB-UHFFFAOYSA-N

> <PUBCHEM_XLOGP3>
2.6

> <PUBCHEM_EXACT_MASS>
338.114568

> <PUBCHEM_MOLECULAR_FORMULA>
C15H19ClN4O3

> <PUBCHEM_MOLECULAR_WEIGHT>
338.78936

> <PUBCHEM_OPENEYE_CAN_SMILES>
CC(C)(C)C1=NN(C(=O)O1)C2=C(C=C(C=C2)NC(=O)N(C)C)Cl

> <PUBCHEM_OPENEYE_ISO_SMILES>
CC(C)(C)C1=NN(C(=O)O1)C2=C(C=C(C=C2)NC(=O)N(C)C)Cl

> <PUBCHEM_CACTVS_TPSA>
74.2

> <PUBCHEM_MONOISOTOPIC_WEIGHT>
338.114568

> <PUBCHEM_TOTAL_CHARGE>
0

> <PUBCHEM_HEAVY_ATOM_COUNT>
23

> <PUBCHEM_ATOM_DEF_STEREO_COUNT>
0

> <PUBCHEM_ATOM_UDEF_STEREO_COUNT>
0

> <PUBCHEM_BOND_DEF_STEREO_COUNT>
0

> <PUBCHEM_BOND_UDEF_STEREO_COUNT>
0

> <PUBCHEM_ISOTOPIC_ATOM_COUNT>
0

> <PUBCHEM_COMPONENT_COUNT>
1

> <PUBCHEM_CACTVS_TAUTO_COUNT>
2

> <PUBCHEM_COORDINATE_TYPE>
1
5
255

> <PUBCHEM_BONDANNOTATIONS>
14  16  8
14  17  8
16  19  8
17  20  8
18  19  8
18  20  8
2  10  8
2  15  8
5  15  8
5  6  8
6  10  8

$$$$

