124702
  -OEChem-07051212593D

 24 24  0     1  0  0  0  0  0999 V2000
   -1.7600    1.6484    0.8177 O   0  0  0  0  0  0  0  0  0  0  0  0
    0.8461    2.1991   -0.8559 O   0  0  0  0  0  0  0  0  0  0  0  0
   -3.1869   -1.0021   -0.4614 O   0  0  0  0  0  0  0  0  0  0  0  0
    3.1974   -1.4026   -0.0961 O   0  0  0  0  0  0  0  0  0  0  0  0
    0.3880   -1.0891    0.4999 N   0  0  0  0  0  0  0  0  0  0  0  0
   -1.0094   -0.6300    0.4596 C   0  0  1  0  0  0  0  0  0  0  0  0
    1.1994   -0.1068   -0.2219 C   0  0  1  0  0  0  0  0  0  0  0  0
   -0.9648    0.8240   -0.0203 C   0  0  2  0  0  0  0  0  0  0  0  0
    0.5034    1.2059    0.0954 C   0  0  2  0  0  0  0  0  0  0  0  0
   -1.8622   -1.5066   -0.4529 C   0  0  0  0  0  0  0  0  0  0  0  0
    2.6489   -0.1402    0.2359 C   0  0  0  0  0  0  0  0  0  0  0  0
   -1.4311   -0.6807    1.4720 H   0  0  0  0  0  0  0  0  0  0  0  0
    1.1588   -0.3296   -1.2965 H   0  0  0  0  0  0  0  0  0  0  0  0
   -1.3199    0.9449   -1.0504 H   0  0  0  0  0  0  0  0  0  0  0  0
    0.7441    1.5855    1.0964 H   0  0  0  0  0  0  0  0  0  0  0  0
    0.6872   -1.1166    1.4755 H   0  0  0  0  0  0  0  0  0  0  0  0
   -1.8846   -2.5444   -0.1035 H   0  0  0  0  0  0  0  0  0  0  0  0
   -1.4884   -1.5035   -1.4824 H   0  0  0  0  0  0  0  0  0  0  0  0
    2.7524    0.0180    1.3151 H   0  0  0  0  0  0  0  0  0  0  0  0
    3.2380    0.6275   -0.2750 H   0  0  0  0  0  0  0  0  0  0  0  0
   -1.4336    1.5640    1.7297 H   0  0  0  0  0  0  0  0  0  0  0  0
    1.7961    2.3824   -0.7621 H   0  0  0  0  0  0  0  0  0  0  0  0
   -3.5245   -1.0431    0.4496 H   0  0  0  0  0  0  0  0  0  0  0  0
    2.6731   -2.0806    0.3635 H   0  0  0  0  0  0  0  0  0  0  0  0
  1  8  1  0  0  0  0
  1 21  1  0  0  0  0
  2  9  1  0  0  0  0
  2 22  1  0  0  0  0
  3 10  1  0  0  0  0
  3 23  1  0  0  0  0
  4 11  1  0  0  0  0
  4 24  1  0  0  0  0
  5  6  1  0  0  0  0
  5  7  1  0  0  0  0
  5 16  1  0  0  0  0
  6  8  1  0  0  0  0
  6 10  1  0  0  0  0
  6 12  1  0  0  0  0
  7  9  1  0  0  0  0
  7 11  1  0  0  0  0
  7 13  1  0  0  0  0
  8  9  1  0  0  0  0
  8 14  1  0  0  0  0
  9 15  1  0  0  0  0
 10 17  1  0  0  0  0
 10 18  1  0  0  0  0
 11 19  1  0  0  0  0
 11 20  1  0  0  0  0
M  END
> <PUBCHEM_COMPOUND_CID>
124702

> <PUBCHEM_CONFORMER_RMSD>
0.6

> <PUBCHEM_CONFORMER_DIVERSEORDER>
1
2

> <PUBCHEM_MMFF94_PARTIAL_CHARGES>
16
1 -0.68
10 0.28
11 0.28
16 0.36
2 -0.68
21 0.4
22 0.4
23 0.4
24 0.4
3 -0.68
4 -0.68
5 -0.9
6 0.27
7 0.27
8 0.28
9 0.28

> <PUBCHEM_EFFECTIVE_ROTOR_COUNT>
3

> <PUBCHEM_PHARMACOPHORE_FEATURES>
11
1 1 acceptor
1 1 donor
1 2 acceptor
1 2 donor
1 3 acceptor
1 3 donor
1 4 acceptor
1 4 donor
1 5 cation
1 5 donor
5 5 6 7 8 9 rings

> <PUBCHEM_HEAVY_ATOM_COUNT>
11

> <PUBCHEM_ATOM_DEF_STEREO_COUNT>
4

> <PUBCHEM_ATOM_UDEF_STEREO_COUNT>
0

> <PUBCHEM_BOND_DEF_STEREO_COUNT>
0

> <PUBCHEM_BOND_UDEF_STEREO_COUNT>
0

> <PUBCHEM_ISOTOPIC_ATOM_COUNT>
0

> <PUBCHEM_COMPONENT_COUNT>
1

> <PUBCHEM_CACTVS_TAUTO_COUNT>
1

> <PUBCHEM_CONFORMER_ID>
0001E71E00000001

> <PUBCHEM_MMFF94_ENERGY>
19.9137

> <PUBCHEM_FEATURE_SELFOVERLAP>
55.821

> <PUBCHEM_SHAPE_FINGERPRINT>
14128692 85 18336266734493858446
16945 1 18196081145315230928
18185500 45 18342176703992958514
20871998 184 18113900506539291982
21040471 1 18120647200018380504
23552423 10 18197778808316484951
241688 4 18341899622899920488
2748010 2 18411421738950275926
5084963 1 18411985736664805353

> <PUBCHEM_SHAPE_MULTIPOLES>
197.92
3.85
1.95
0.77
0.52
0.67
0
-1.97
-0.29
-0.09
-0.19
-0.1
0.13
-0.47

> <PUBCHEM_SHAPE_SELFOVERLAP>
390.483

> <PUBCHEM_SHAPE_VOLUME>
120.2

> <PUBCHEM_COORDINATE_TYPE>
2
5
10

$$$$

