53297410
  -OEChem-07051213123D

111114  0     1  0  0  0  0  0999 V2000
   -3.5842    0.3755   -2.7534 O   0  0  0  0  0  0  0  0  0  0  0  0
   -5.1383   -0.7703   -0.1996 O   0  0  0  0  0  0  0  0  0  0  0  0
   -1.3228   -2.4042   -0.4713 O   0  0  0  0  0  0  0  0  0  0  0  0
    5.5753   -0.9758   -0.5003 O   0  0  0  0  0  0  0  0  0  0  0  0
   -6.9877    0.4661   -0.8889 O   0  0  0  0  0  0  0  0  0  0  0  0
    6.0724    1.2159    0.1270 O   0  0  0  0  0  0  0  0  0  0  0  0
   -7.8423   -0.7006    2.0606 O   0  0  0  0  0  0  0  0  0  0  0  0
   -6.9421    1.8792    2.9228 O   0  0  0  0  0  0  0  0  0  0  0  0
    7.9133   -1.8679    0.8087 O   0  0  0  0  0  0  0  0  0  0  0  0
   -9.2576    1.8017    1.5228 O   0  0  0  0  0  0  0  0  0  0  0  0
    0.6389    3.3940   -1.9347 O   0  0  0  0  0  0  0  0  0  0  0  0
   -0.6103   -1.4787    1.5238 O   0  0  0  0  0  0  0  0  0  0  0  0
   10.0336    0.2022    1.0031 N   0  0  0  0  0  0  0  0  0  0  0  0
   -2.7409   -0.6350   -2.1933 C   0  0  2  0  0  0  0  0  0  0  0  0
   -3.4273   -1.8008   -1.5102 C   0  0  1  0  0  0  0  0  0  0  0  0
   -2.7793    0.7745   -1.6297 C   0  0  1  0  0  0  0  0  0  0  0  0
   -2.7135   -2.1193   -0.1727 C   0  0  1  0  0  0  0  0  0  0  0  0
   -4.9343   -1.5922   -1.3318 C   0  0  0  0  0  0  0  0  0  0  0  0
   -1.5812    1.6095   -1.7849 C   0  0  0  0  0  0  0  0  0  0  0  0
   -3.2829   -3.3405    0.5450 C   0  0  0  0  0  0  0  0  0  0  0  0
    4.1657   -0.6953   -0.4716 C   0  0  1  0  0  0  0  0  0  0  0  0
    3.7907   -0.1319   -1.8705 C   0  0  2  0  0  0  0  0  0  0  0  0
   -6.5246   -0.5271    0.0363 C   0  0  2  0  0  0  0  0  0  0  0  0
    8.6043    0.4181    1.2326 C   0  0  2  0  0  0  0  0  0  0  0  0
   -6.6780   -0.0860    1.5034 C   0  0  1  0  0  0  0  0  0  0  0  0
    7.7637   -0.5223    0.3583 C   0  0  2  0  0  0  0  0  0  0  0  0
    6.2766   -0.1608    0.4386 C   0  0  2  0  0  0  0  0  0  0  0  0
    2.4087    0.5385   -1.9913 C   0  0  0  0  0  0  0  0  0  0  0  0
   -6.8393    1.4325    1.5777 C   0  0  1  0  0  0  0  0  0  0  0  0
    8.2534    1.8786    0.9380 C   0  0  0  0  0  0  0  0  0  0  0  0
    3.4327   -1.9808    0.0011 C   0  0  2  0  0  0  0  0  0  0  0  0
    2.1042    1.6896   -1.0124 C   0  0  2  0  0  0  0  0  0  0  0  0
   -8.0525    1.9026    0.7641 C   0  0  1  0  0  0  0  0  0  0  0  0
    6.7423    2.0905    1.0378 C   0  0  1  0  0  0  0  0  0  0  0  0
   -8.2314    1.0526   -0.5053 C   0  0  1  0  0  0  0  0  0  0  0  0
   -0.4504    1.4701   -1.0797 C   0  0  0  0  0  0  0  0  0  0  0  0
   -3.2113   -4.5787   -0.3279 C   0  0  0  0  0  0  0  0  0  0  0  0
    0.7482    2.2999   -1.3857 C   0  0  0  0  0  0  0  0  0  0  0  0
    3.9350   -1.1895   -2.9775 C   0  0  0  0  0  0  0  0  0  0  0  0
    2.0111   -1.7161    0.4319 C   0  0  0  0  0  0  0  0  0  0  0  0
   -0.3985   -2.0143    0.4470 C   0  0  0  0  0  0  0  0  0  0  0  0
    4.1546   -2.6313    1.1948 C   0  0  0  0  0  0  0  0  0  0  0  0
    3.1822    2.7745   -1.0168 C   0  0  0  0  0  0  0  0  0  0  0  0
    6.3639    3.5194    0.6734 C   0  0  0  0  0  0  0  0  0  0  0  0
   -8.7350    1.8986   -1.6688 C   0  0  0  0  0  0  0  0  0  0  0  0
    0.9403   -2.3254   -0.0955 C   0  0  0  0  0  0  0  0  0  0  0  0
   10.4864   -0.9978    1.7044 C   0  0  0  0  0  0  0  0  0  0  0  0
   10.8007    1.3690    1.4356 C   0  0  0  0  0  0  0  0  0  0  0  0
   -7.5877   -2.0446    2.4424 C   0  0  0  0  0  0  0  0  0  0  0  0
   -6.5446    3.2341    3.0428 C   0  0  0  0  0  0  0  0  0  0  0  0
   -1.8773   -0.9421   -2.7718 H   0  0  0  0  0  0  0  0  0  0  0  0
   -3.2895   -2.6338   -2.2111 H   0  0  0  0  0  0  0  0  0  0  0  0
   -3.3098    0.9528   -0.7023 H   0  0  0  0  0  0  0  0  0  0  0  0
   -2.7698   -1.2473    0.4906 H   0  0  0  0  0  0  0  0  0  0  0  0
   -5.3947   -1.1544   -2.2245 H   0  0  0  0  0  0  0  0  0  0  0  0
   -5.4170   -2.5618   -1.1608 H   0  0  0  0  0  0  0  0  0  0  0  0
   -1.6394    2.3703   -2.5592 H   0  0  0  0  0  0  0  0  0  0  0  0
   -4.3148   -3.1695    0.8682 H   0  0  0  0  0  0  0  0  0  0  0  0
   -2.6966   -3.5328    1.4518 H   0  0  0  0  0  0  0  0  0  0  0  0
    3.9560    0.0828    0.2738 H   0  0  0  0  0  0  0  0  0  0  0  0
    4.5426    0.6310   -2.1153 H   0  0  0  0  0  0  0  0  0  0  0  0
   -7.0964   -1.4409   -0.1611 H   0  0  0  0  0  0  0  0  0  0  0  0
    8.3666    0.2347    2.2912 H   0  0  0  0  0  0  0  0  0  0  0  0
   -5.8088   -0.3772    2.1082 H   0  0  0  0  0  0  0  0  0  0  0  0
    8.0979   -0.4818   -0.6860 H   0  0  0  0  0  0  0  0  0  0  0  0
    5.8913   -0.3715    1.4446 H   0  0  0  0  0  0  0  0  0  0  0  0
    2.3140    0.9326   -3.0140 H   0  0  0  0  0  0  0  0  0  0  0  0
    1.6256   -0.2238   -1.9176 H   0  0  0  0  0  0  0  0  0  0  0  0
   -5.9294    1.8554    1.1261 H   0  0  0  0  0  0  0  0  0  0  0  0
    8.5751    2.1424   -0.0793 H   0  0  0  0  0  0  0  0  0  0  0  0
    8.7134    2.5764    1.6467 H   0  0  0  0  0  0  0  0  0  0  0  0
    3.4530   -2.7256   -0.8031 H   0  0  0  0  0  0  0  0  0  0  0  0
    2.0189    1.3083    0.0116 H   0  0  0  0  0  0  0  0  0  0  0  0
   -7.9237    2.9625    0.5167 H   0  0  0  0  0  0  0  0  0  0  0  0
    6.3927    1.8837    2.0573 H   0  0  0  0  0  0  0  0  0  0  0  0
   -8.9630    0.2497   -0.3427 H   0  0  0  0  0  0  0  0  0  0  0  0
   -0.3498    0.7027   -0.3233 H   0  0  0  0  0  0  0  0  0  0  0  0
   -2.1984   -4.7707   -0.6947 H   0  0  0  0  0  0  0  0  0  0  0  0
   -3.5158   -5.4544    0.2560 H   0  0  0  0  0  0  0  0  0  0  0  0
   -3.8880   -4.5215   -1.1848 H   0  0  0  0  0  0  0  0  0  0  0  0
    3.1546   -1.9541   -2.9114 H   0  0  0  0  0  0  0  0  0  0  0  0
    4.9095   -1.6860   -2.9318 H   0  0  0  0  0  0  0  0  0  0  0  0
    3.8521   -0.7222   -3.9652 H   0  0  0  0  0  0  0  0  0  0  0  0
    1.8837   -1.0018    1.2430 H   0  0  0  0  0  0  0  0  0  0  0  0
    4.2395   -1.9412    2.0414 H   0  0  0  0  0  0  0  0  0  0  0  0
    5.1586   -2.9708    0.9210 H   0  0  0  0  0  0  0  0  0  0  0  0
    3.6084   -3.5158    1.5444 H   0  0  0  0  0  0  0  0  0  0  0  0
    2.9008    3.6048   -0.3599 H   0  0  0  0  0  0  0  0  0  0  0  0
    4.1331    2.3835   -0.6696 H   0  0  0  0  0  0  0  0  0  0  0  0
    3.3314    3.1835   -2.0222 H   0  0  0  0  0  0  0  0  0  0  0  0
    5.2959    3.6865    0.8433 H   0  0  0  0  0  0  0  0  0  0  0  0
    6.5564    3.7231   -0.3856 H   0  0  0  0  0  0  0  0  0  0  0  0
    6.9163    4.2444    1.2791 H   0  0  0  0  0  0  0  0  0  0  0  0
   -8.8565    1.2788   -2.5638 H   0  0  0  0  0  0  0  0  0  0  0  0
   -9.6958    2.3678   -1.4370 H   0  0  0  0  0  0  0  0  0  0  0  0
   -8.0125    2.6808   -1.9270 H   0  0  0  0  0  0  0  0  0  0  0  0
    1.0267   -3.0342   -0.9110 H   0  0  0  0  0  0  0  0  0  0  0  0
    7.6040   -1.9134    1.7296 H   0  0  0  0  0  0  0  0  0  0  0  0
   11.5811   -1.0676    1.6713 H   0  0  0  0  0  0  0  0  0  0  0  0
   10.1469   -1.9161    1.2213 H   0  0  0  0  0  0  0  0  0  0  0  0
   10.1936   -1.0109    2.7605 H   0  0  0  0  0  0  0  0  0  0  0  0
   11.8747    1.1475    1.3823 H   0  0  0  0  0  0  0  0  0  0  0  0
   10.5919    1.6567    2.4731 H   0  0  0  0  0  0  0  0  0  0  0  0
   10.6823    2.2289    0.7679 H   0  0  0  0  0  0  0  0  0  0  0  0
   -9.9817    2.1464    0.9729 H   0  0  0  0  0  0  0  0  0  0  0  0
   -7.2672   -2.6618    1.5992 H   0  0  0  0  0  0  0  0  0  0  0  0
   -6.8353   -2.0799    3.2367 H   0  0  0  0  0  0  0  0  0  0  0  0
   -8.5168   -2.4653    2.8372 H   0  0  0  0  0  0  0  0  0  0  0  0
   -5.5054    3.3677    2.7257 H   0  0  0  0  0  0  0  0  0  0  0  0
   -7.2030    3.8974    2.4752 H   0  0  0  0  0  0  0  0  0  0  0  0
   -6.6142    3.5147    4.0978 H   0  0  0  0  0  0  0  0  0  0  0  0
  1 14  1  0  0  0  0
  1 16  1  0  0  0  0
  2 18  1  0  0  0  0
  2 23  1  0  0  0  0
  3 17  1  0  0  0  0
  3 41  1  0  0  0  0
  4 21  1  0  0  0  0
  4 27  1  0  0  0  0
  5 23  1  0  0  0  0
  5 35  1  0  0  0  0
  6 27  1  0  0  0  0
  6 34  1  0  0  0  0
  7 25  1  0  0  0  0
  7 49  1  0  0  0  0
  8 29  1  0  0  0  0
  8 50  1  0  0  0  0
  9 26  1  0  0  0  0
  9 98  1  0  0  0  0
 10 33  1  0  0  0  0
 10105  1  0  0  0  0
 11 38  2  0  0  0  0
 12 41  2  0  0  0  0
 13 24  1  0  0  0  0
 13 47  1  0  0  0  0
 13 48  1  0  0  0  0
 14 15  1  0  0  0  0
 14 16  1  0  0  0  0
 14 51  1  0  0  0  0
 15 17  1  0  0  0  0
 15 18  1  0  0  0  0
 15 52  1  0  0  0  0
 16 19  1  0  0  0  0
 16 53  1  0  0  0  0
 17 20  1  0  0  0  0
 17 54  1  0  0  0  0
 18 55  1  0  0  0  0
 18 56  1  0  0  0  0
 19 36  2  0  0  0  0
 19 57  1  0  0  0  0
 20 37  1  0  0  0  0
 20 58  1  0  0  0  0
 20 59  1  0  0  0  0
 21 22  1  0  0  0  0
 21 31  1  0  0  0  0
 21 60  1  0  0  0  0
 22 28  1  0  0  0  0
 22 39  1  0  0  0  0
 22 61  1  0  0  0  0
 23 25  1  0  0  0  0
 23 62  1  0  0  0  0
 24 26  1  0  0  0  0
 24 30  1  0  0  0  0
 24 63  1  0  0  0  0
 25 29  1  0  0  0  0
 25 64  1  0  0  0  0
 26 27  1  0  0  0  0
 26 65  1  0  0  0  0
 27 66  1  0  0  0  0
 28 32  1  0  0  0  0
 28 67  1  0  0  0  0
 28 68  1  0  0  0  0
 29 33  1  0  0  0  0
 29 69  1  0  0  0  0
 30 34  1  0  0  0  0
 30 70  1  0  0  0  0
 30 71  1  0  0  0  0
 31 40  1  0  0  0  0
 31 42  1  0  0  0  0
 31 72  1  0  0  0  0
 32 38  1  0  0  0  0
 32 43  1  0  0  0  0
 32 73  1  0  0  0  0
 33 35  1  0  0  0  0
 33 74  1  0  0  0  0
 34 44  1  0  0  0  0
 34 75  1  0  0  0  0
 35 45  1  0  0  0  0
 35 76  1  0  0  0  0
 36 38  1  0  0  0  0
 36 77  1  0  0  0  0
 37 78  1  0  0  0  0
 37 79  1  0  0  0  0
 37 80  1  0  0  0  0
 39 81  1  0  0  0  0
 39 82  1  0  0  0  0
 39 83  1  0  0  0  0
 40 46  2  0  0  0  0
 40 84  1  0  0  0  0
 41 46  1  0  0  0  0
 42 85  1  0  0  0  0
 42 86  1  0  0  0  0
 42 87  1  0  0  0  0
 43 88  1  0  0  0  0
 43 89  1  0  0  0  0
 43 90  1  0  0  0  0
 44 91  1  0  0  0  0
 44 92  1  0  0  0  0
 44 93  1  0  0  0  0
 45 94  1  0  0  0  0
 45 95  1  0  0  0  0
 45 96  1  0  0  0  0
 46 97  1  0  0  0  0
 47 99  1  0  0  0  0
 47100  1  0  0  0  0
 47101  1  0  0  0  0
 48102  1  0  0  0  0
 48103  1  0  0  0  0
 48104  1  0  0  0  0
 49106  1  0  0  0  0
 49107  1  0  0  0  0
 49108  1  0  0  0  0
 50109  1  0  0  0  0
 50110  1  0  0  0  0
 50111  1  0  0  0  0
M  END
> <PUBCHEM_COMPOUND_CID>
53297410

> <PUBCHEM_CONFORMER_RMSD>
1.4

> <PUBCHEM_CONFORMER_DIVERSEORDER>
1
88
38
13
18
25
21
87
69
15
26
75
72
22
14
8
33
86
84
56
37
82
46
55
58
60
47
11
4
7
9
89
83
24
80
65
77
31
52
29
41
76
39
81
45
78
54
49
48
16
53
40
64
68
10
57
62
67
63
44
27
85
3
30
51
2
59
73
42
19
17
12
43
71
36
5
34
28
66
50
32
35
74
79
20
23
70
6
61

> <PUBCHEM_MMFF94_PARTIAL_CHARGES>
48
1 -0.3
10 -0.68
105 0.4
11 -0.57
12 -0.57
13 -0.81
14 -0.05
15 0.09
16 0.09
17 0.28
18 0.28
19 -0.19
2 -0.56
21 0.28
23 0.56
24 0.27
25 0.28
26 0.28
27 0.56
29 0.28
3 -0.43
31 0.14
32 0.06
33 0.28
34 0.28
35 0.28
36 -0.14
38 0.49
4 -0.56
40 -0.29
41 0.71
46 -0.14
47 0.27
48 0.27
49 0.28
5 -0.56
50 0.28
51 0.1
53 0.1
57 0.15
6 -0.56
7 -0.56
77 0.15
8 -0.56
84 0.15
9 -0.68
97 0.15
98 0.4

> <PUBCHEM_EFFECTIVE_ROTOR_COUNT>
13.2

> <PUBCHEM_PHARMACOPHORE_FEATURES>
17
1 1 acceptor
1 10 acceptor
1 10 donor
1 11 acceptor
1 12 acceptor
1 13 cation
1 2 acceptor
1 37 hydrophobe
1 4 acceptor
1 5 acceptor
1 6 acceptor
1 7 acceptor
1 8 acceptor
1 9 acceptor
1 9 donor
6 5 23 25 29 33 35 rings
6 6 24 26 27 30 34 rings

> <PUBCHEM_HEAVY_ATOM_COUNT>
50

> <PUBCHEM_ATOM_DEF_STEREO_COUNT>
17

> <PUBCHEM_ATOM_UDEF_STEREO_COUNT>
0

> <PUBCHEM_BOND_DEF_STEREO_COUNT>
2

> <PUBCHEM_BOND_UDEF_STEREO_COUNT>
0

> <PUBCHEM_ISOTOPIC_ATOM_COUNT>
0

> <PUBCHEM_COMPONENT_COUNT>
1

> <PUBCHEM_CACTVS_TAUTO_COUNT>
2

> <PUBCHEM_CONFORMER_ID>
032D410200000001

> <PUBCHEM_MMFF94_ENERGY>
154.5311

> <PUBCHEM_FEATURE_SELFOVERLAP>
86.369

> <PUBCHEM_SHAPE_FINGERPRINT>
10190206 1 15285635534653192683
11456790 92 18060698373245199264
13560911 43 16056883529233878294
13811026 1 18201722833792543846
14394314 77 18410295804990202437
19315958 150 17749383793397366086
21867018 265 11455890260759221153
24771293 8 18335140873278775150
3383291 50 17561084687562140442
3711267 37 18259980474707417856
4093350 32 17822284687189060822
44280117 145 18043820783918566942
44802255 64 16153429446261463903

> <PUBCHEM_SHAPE_MULTIPOLES>
953.56
34.18
4.1
2.62
24.55
0.66
-0.02
-14.86
-23.7
-2.26
-0.74
-3.51
-1.03
-1.1

> <PUBCHEM_SHAPE_SELFOVERLAP>
1936.893

> <PUBCHEM_SHAPE_VOLUME>
549.1

> <PUBCHEM_COORDINATE_TYPE>
2
5
10

$$$$

