5282074
  -OEChem-07051213023D

 31 33  0     0  0  0  0  0  0999 V2000
    1.3058    2.0207   -0.1791 O   0  0  0  0  0  0  0  0  0  0  0  0
    2.4900   -2.6732    0.0490 O   0  0  0  0  0  0  0  0  0  0  0  0
    0.0270   -1.8531   -0.0969 O   0  0  0  0  0  0  0  0  0  0  0  0
   -2.1098    0.3101    2.2415 O   0  0  0  0  0  0  0  0  0  0  0  0
    5.8554    0.6751    0.0180 O   0  0  0  0  0  0  0  0  0  0  0  0
   -6.1265   -0.3113   -0.2387 O   0  0  0  0  0  0  0  0  0  0  0  0
    1.8348   -0.3454   -0.0664 C   0  0  0  0  0  0  0  0  0  0  0  0
   -0.5514    0.4558   -0.1584 C   0  0  0  0  0  0  0  0  0  0  0  0
    2.2142    0.9957   -0.1085 C   0  0  0  0  0  0  0  0  0  0  0  0
    0.4009   -0.6874   -0.1020 C   0  0  0  0  0  0  0  0  0  0  0  0
   -2.0097    0.2557   -0.1593 C   0  0  0  0  0  0  0  0  0  0  0  0
    2.8050   -1.3486    0.0043 C   0  0  0  0  0  0  0  0  0  0  0  0
   -0.0277    1.6905   -0.1903 C   0  0  0  0  0  0  0  0  0  0  0  0
    3.5655    1.3415   -0.0804 C   0  0  0  0  0  0  0  0  0  0  0  0
   -2.7334    0.1902    1.0347 C   0  0  0  0  0  0  0  0  0  0  0  0
   -2.6785    0.1294   -1.3799 C   0  0  0  0  0  0  0  0  0  0  0  0
    4.1560   -1.0002    0.0330 C   0  0  0  0  0  0  0  0  0  0  0  0
    4.5357    0.3418   -0.0094 C   0  0  0  0  0  0  0  0  0  0  0  0
   -4.1150   -0.0001    1.0080 C   0  0  0  0  0  0  0  0  0  0  0  0
   -4.0601   -0.0613   -1.4065 C   0  0  0  0  0  0  0  0  0  0  0  0
   -4.7783   -0.1259   -0.2126 C   0  0  0  0  0  0  0  0  0  0  0  0
   -0.6223    2.5951   -0.2274 H   0  0  0  0  0  0  0  0  0  0  0  0
    3.8636    2.3864   -0.1135 H   0  0  0  0  0  0  0  0  0  0  0  0
   -2.1343    0.1763   -2.3204 H   0  0  0  0  0  0  0  0  0  0  0  0
    4.9113   -1.7808    0.0884 H   0  0  0  0  0  0  0  0  0  0  0  0
   -4.6767   -0.0506    1.9377 H   0  0  0  0  0  0  0  0  0  0  0  0
   -4.5713   -0.1587   -2.3604 H   0  0  0  0  0  0  0  0  0  0  0  0
    1.5287   -2.7959    0.0461 H   0  0  0  0  0  0  0  0  0  0  0  0
   -2.7710    0.2395    2.9511 H   0  0  0  0  0  0  0  0  0  0  0  0
    6.3855   -0.1388    0.0675 H   0  0  0  0  0  0  0  0  0  0  0  0
   -6.4601   -0.3310    0.6747 H   0  0  0  0  0  0  0  0  0  0  0  0
  1  9  1  0  0  0  0
  1 13  1  0  0  0  0
  2 12  1  0  0  0  0
  2 28  1  0  0  0  0
  3 10  2  0  0  0  0
  4 15  1  0  0  0  0
  4 29  1  0  0  0  0
  5 18  1  0  0  0  0
  5 30  1  0  0  0  0
  6 21  1  0  0  0  0
  6 31  1  0  0  0  0
  7  9  1  0  0  0  0
  7 10  1  0  0  0  0
  7 12  2  0  0  0  0
  8 10  1  0  0  0  0
  8 11  1  0  0  0  0
  8 13  2  0  0  0  0
  9 14  2  0  0  0  0
 11 15  2  0  0  0  0
 11 16  1  0  0  0  0
 12 17  1  0  0  0  0
 13 22  1  0  0  0  0
 14 18  1  0  0  0  0
 14 23  1  0  0  0  0
 15 19  1  0  0  0  0
 16 20  2  0  0  0  0
 16 24  1  0  0  0  0
 17 18  2  0  0  0  0
 17 25  1  0  0  0  0
 19 21  2  0  0  0  0
 19 26  1  0  0  0  0
 20 21  1  0  0  0  0
 20 27  1  0  0  0  0
M  END
> <PUBCHEM_COMPOUND_CID>
5282074

> <PUBCHEM_CONFORMER_RMSD>
0.6

> <PUBCHEM_CONFORMER_DIVERSEORDER>
1
3
4
2
5
6

> <PUBCHEM_MMFF94_PARTIAL_CHARGES>
31
1 -0.16
10 0.47
11 0.03
12 0.08
13 -0.07
14 -0.15
15 0.08
16 -0.15
17 -0.15
18 0.08
19 -0.15
2 -0.53
20 -0.15
21 0.08
22 0.15
23 0.15
24 0.15
25 0.15
26 0.15
27 0.15
28 0.45
29 0.45
3 -0.57
30 0.45
31 0.45
4 -0.53
5 -0.53
6 -0.53
7 0.09
8 -0.01
9 0.08

> <PUBCHEM_EFFECTIVE_ROTOR_COUNT>
1

> <PUBCHEM_PHARMACOPHORE_FEATURES>
9
1 1 acceptor
1 2 donor
1 3 acceptor
1 4 donor
1 5 donor
1 6 donor
6 1 7 8 9 10 13 rings
6 11 15 16 19 20 21 rings
6 7 9 12 14 17 18 rings

> <PUBCHEM_HEAVY_ATOM_COUNT>
21

> <PUBCHEM_ATOM_DEF_STEREO_COUNT>
0

> <PUBCHEM_ATOM_UDEF_STEREO_COUNT>
0

> <PUBCHEM_BOND_DEF_STEREO_COUNT>
0

> <PUBCHEM_BOND_UDEF_STEREO_COUNT>
0

> <PUBCHEM_ISOTOPIC_ATOM_COUNT>
0

> <PUBCHEM_COMPONENT_COUNT>
1

> <PUBCHEM_CACTVS_TAUTO_COUNT>
108

> <PUBCHEM_CONFORMER_ID>
0050991A00000001

> <PUBCHEM_MMFF94_ENERGY>
64.9652

> <PUBCHEM_FEATURE_SELFOVERLAP>
45.697

> <PUBCHEM_SHAPE_FINGERPRINT>
10 15 17917438567379290168
11370993 70 15985104123836876938
11471102 20 18412263935024515860
11796584 16 16128657461803093024
12011746 2 18341889693209533254
12107183 9 17394436340156730995
12236239 1 17821728342958572085
12596602 18 17458628878159749027
13140716 1 18194965145782895864
13533116 47 17821729472113491079
13583140 156 17060342894537597000
13862211 1 18411140277386319078
14386348 63 17847057787800552547
15196674 1 18339363084113630084
15375358 24 17846778515978605970
15788980 27 15052011273269145368
16945 1 18411695487629117132
1813 80 18261377997078561852
19489759 90 16343989113015656893
200 152 18333734624130275065
20279233 1 17703785929195601083
20645477 70 18342461486342816198
21033648 29 18059029318604918341
21033650 10 16372380689731626248
21065198 48 17895187861228944875
21267235 1 18410007780351642230
21285901 2 17917999424585801887
21641784 216 18058996385397346460
23175994 123 18060415811821611181
23402539 116 15864074265124345485
23557571 272 16916791811397550613
23559900 14 16702020924200565002
26918003 58 18130786750257701129
2748010 2 18123755524402359052
2871803 45 18272089439598616822
335352 9 18410854336059988652
33824 294 18341896311849465186
34797466 226 15430313582171398208
42630746 31 18408603660741920094
474 4 17897455986351213112
5104073 3 18267873954951891432
5283173 99 17702956966459504205
542803 24 17603585231443814505
602551 16 15213596558538181629
77492 1 17749389269654305941

> <PUBCHEM_SHAPE_MULTIPOLES>
396.95
11.07
1.65
1.1
2.41
0.44
0.28
0.32
-0.46
-1.89
-0.06
1.46
-0.07
-0.12

> <PUBCHEM_SHAPE_SELFOVERLAP>
891.217

> <PUBCHEM_SHAPE_VOLUME>
208.7

> <PUBCHEM_COORDINATE_TYPE>
2
5
10

$$$$

