39681
  -OEChem-07051213012D

 36 36  0     0  0  0  0  0  0999 V2000
    5.4071   -1.8184    0.0000 S   0  0  0  0  0  0  0  0  0  0  0  0
    3.7891   -1.8184    0.0000 S   0  0  0  0  0  0  0  0  0  0  0  0
    5.4641    1.2694    0.0000 O   0  0  0  0  0  0  0  0  0  0  0  0
    3.7320    1.2694    0.0000 O   0  0  0  0  0  0  0  0  0  0  0  0
    2.8660   -0.2306    0.0000 O   0  0  0  0  0  0  0  0  0  0  0  0
    6.3301   -0.2306    0.0000 O   0  0  0  0  0  0  0  0  0  0  0  0
    4.5981   -0.2306    0.0000 C   0  0  0  0  0  0  0  0  0  0  0  0
    4.5981   -1.2306    0.0000 C   0  0  0  0  0  0  0  0  0  0  0  0
    4.0981   -2.7694    0.0000 C   0  0  0  0  0  0  0  0  0  0  0  0
    5.0981   -2.7694    0.0000 C   0  0  0  0  0  0  0  0  0  0  0  0
    2.8660    1.7694    0.0000 C   0  0  0  0  0  0  0  0  0  0  0  0
    6.3301    1.7694    0.0000 C   0  0  0  0  0  0  0  0  0  0  0  0
    5.4641    0.2694    0.0000 C   0  0  0  0  0  0  0  0  0  0  0  0
    3.7320    0.2694    0.0000 C   0  0  0  0  0  0  0  0  0  0  0  0
    2.8660    2.7694    0.0000 C   0  0  0  0  0  0  0  0  0  0  0  0
    6.3301    2.7694    0.0000 C   0  0  0  0  0  0  0  0  0  0  0  0
    2.0000    1.2694    0.0000 C   0  0  0  0  0  0  0  0  0  0  0  0
    7.1962    1.2694    0.0000 C   0  0  0  0  0  0  0  0  0  0  0  0
    3.4916   -2.8983    0.0000 H   0  0  0  0  0  0  0  0  0  0  0  0
    4.1629   -3.3860    0.0000 H   0  0  0  0  0  0  0  0  0  0  0  0
    5.0333   -3.3860    0.0000 H   0  0  0  0  0  0  0  0  0  0  0  0
    5.7045   -2.8983    0.0000 H   0  0  0  0  0  0  0  0  0  0  0  0
    5.7932    2.0794    0.0000 H   0  0  0  0  0  0  0  0  0  0  0  0
    2.8660    1.1494    0.0000 H   0  0  0  0  0  0  0  0  0  0  0  0
    3.4860    2.7694    0.0000 H   0  0  0  0  0  0  0  0  0  0  0  0
    2.8660    3.3894    0.0000 H   0  0  0  0  0  0  0  0  0  0  0  0
    2.2460    2.7694    0.0000 H   0  0  0  0  0  0  0  0  0  0  0  0
    6.9501    2.7694    0.0000 H   0  0  0  0  0  0  0  0  0  0  0  0
    6.3301    3.3894    0.0000 H   0  0  0  0  0  0  0  0  0  0  0  0
    5.7101    2.7694    0.0000 H   0  0  0  0  0  0  0  0  0  0  0  0
    1.6900    1.8064    0.0000 H   0  0  0  0  0  0  0  0  0  0  0  0
    1.4631    0.9594    0.0000 H   0  0  0  0  0  0  0  0  0  0  0  0
    2.3100    0.7325    0.0000 H   0  0  0  0  0  0  0  0  0  0  0  0
    6.8862    0.7325    0.0000 H   0  0  0  0  0  0  0  0  0  0  0  0
    7.7331    0.9594    0.0000 H   0  0  0  0  0  0  0  0  0  0  0  0
    7.5062    1.8064    0.0000 H   0  0  0  0  0  0  0  0  0  0  0  0
  1  8  1  0  0  0  0
  1 10  1  0  0  0  0
  2  8  1  0  0  0  0
  2  9  1  0  0  0  0
  3 12  1  0  0  0  0
  3 13  1  0  0  0  0
  4 11  1  0  0  0  0
  4 14  1  0  0  0  0
  5 14  2  0  0  0  0
  6 13  2  0  0  0  0
  7  8  2  0  0  0  0
  7 13  1  0  0  0  0
  7 14  1  0  0  0  0
  9 10  1  0  0  0  0
  9 19  1  0  0  0  0
  9 20  1  0  0  0  0
 10 21  1  0  0  0  0
 10 22  1  0  0  0  0
 11 15  1  0  0  0  0
 11 17  1  0  0  0  0
 11 24  1  0  0  0  0
 12 16  1  0  0  0  0
 12 18  1  0  0  0  0
 12 23  1  0  0  0  0
 15 25  1  0  0  0  0
 15 26  1  0  0  0  0
 15 27  1  0  0  0  0
 16 28  1  0  0  0  0
 16 29  1  0  0  0  0
 16 30  1  0  0  0  0
 17 31  1  0  0  0  0
 17 32  1  0  0  0  0
 17 33  1  0  0  0  0
 18 34  1  0  0  0  0
 18 35  1  0  0  0  0
 18 36  1  0  0  0  0
M  END
> <PUBCHEM_COMPOUND_CID>
39681

> <PUBCHEM_COMPOUND_CANONICALIZED>
1

> <PUBCHEM_CACTVS_COMPLEXITY>
329

> <PUBCHEM_CACTVS_HBOND_ACCEPTOR>
6

> <PUBCHEM_CACTVS_HBOND_DONOR>
0

> <PUBCHEM_CACTVS_ROTATABLE_BOND>
6

> <PUBCHEM_CACTVS_SUBSKEYS>
AAADceBwOABgAAAAAAAAAAAAAAAAASAAAAAAAAAAAAAAAAAAAAAAGgQAAAAADBSkwAKCCAAABAiIAgDQCAAAAQAAABAAAAEAAEAABAQIIAACAAABIAAAIAAAAAAAAAAAAAAAAAAAAAAAAAAAAAAAAAAAAA==

> <PUBCHEM_IUPAC_OPENEYE_NAME>
diisopropyl 2-(1,3-dithiolan-2-ylidene)propanedioate

> <PUBCHEM_IUPAC_CAS_NAME>
2-(1,3-dithiolan-2-ylidene)propanedioic acid dipropan-2-yl ester

> <PUBCHEM_IUPAC_NAME>
dipropan-2-yl 2-(1,3-dithiolan-2-ylidene)propanedioate

> <PUBCHEM_IUPAC_SYSTEMATIC_NAME>
dipropan-2-yl 2-(1,3-dithiolan-2-ylidene)propanedioate

> <PUBCHEM_IUPAC_TRADITIONAL_NAME>
2-(1,3-dithiolan-2-ylidene)malonic acid diisopropyl ester

> <PUBCHEM_IUPAC_INCHI>
InChI=1S/C12H18O4S2/c1-7(2)15-10(13)9(11(14)16-8(3)4)12-17-5-6-18-12/h7-8H,5-6H2,1-4H3

> <PUBCHEM_IUPAC_INCHIKEY>
UFHLMYOGRXOCSL-UHFFFAOYSA-N

> <PUBCHEM_XLOGP3>
3.3

> <PUBCHEM_EXACT_MASS>
290.064651

> <PUBCHEM_MOLECULAR_FORMULA>
C12H18O4S2

> <PUBCHEM_MOLECULAR_WEIGHT>
290.39892

> <PUBCHEM_OPENEYE_CAN_SMILES>
CC(C)OC(=O)C(=C1SCCS1)C(=O)OC(C)C

> <PUBCHEM_OPENEYE_ISO_SMILES>
CC(C)OC(=O)C(=C1SCCS1)C(=O)OC(C)C

> <PUBCHEM_CACTVS_TPSA>
103

> <PUBCHEM_MONOISOTOPIC_WEIGHT>
290.064651

> <PUBCHEM_TOTAL_CHARGE>
0

> <PUBCHEM_HEAVY_ATOM_COUNT>
18

> <PUBCHEM_ATOM_DEF_STEREO_COUNT>
0

> <PUBCHEM_ATOM_UDEF_STEREO_COUNT>
0

> <PUBCHEM_BOND_DEF_STEREO_COUNT>
0

> <PUBCHEM_BOND_UDEF_STEREO_COUNT>
0

> <PUBCHEM_ISOTOPIC_ATOM_COUNT>
0

> <PUBCHEM_COMPONENT_COUNT>
1

> <PUBCHEM_CACTVS_TAUTO_COUNT>
1

> <PUBCHEM_COORDINATE_TYPE>
1
5
255

$$$$

