129974
  -OEChem-07051212592D

 31 33  0     0  0  0  0  0  0999 V2000
    8.2103   -0.8047    0.0000 O   0  0  0  0  0  0  0  0  0  0  0  0
    8.2103    0.8047    0.0000 O   0  0  0  0  0  0  0  0  0  0  0  0
    6.3981   -2.0000    0.0000 O   0  0  0  0  0  0  0  0  0  0  0  0
    6.3981    2.0000    0.0000 O   0  0  0  0  0  0  0  0  0  0  0  0
    2.8680   -1.0241    0.0000 O   0  0  0  0  0  0  0  0  0  0  0  0
    2.8680    1.0241    0.0000 O   0  0  0  0  0  0  0  0  0  0  0  0
    4.6497   -2.0346    0.0000 O   0  0  0  0  0  0  0  0  0  0  0  0
    4.6497    2.0346    0.0000 O   0  0  0  0  0  0  0  0  0  0  0  0
    5.5320   -0.5000    0.0000 C   0  0  0  0  0  0  0  0  0  0  0  0
    5.5320    0.5000    0.0000 C   0  0  0  0  0  0  0  0  0  0  0  0
    7.2641   -0.5000    0.0000 C   0  0  0  0  0  0  0  0  0  0  0  0
    7.2641    0.5000    0.0000 C   0  0  0  0  0  0  0  0  0  0  0  0
    6.3981   -1.0000    0.0000 C   0  0  0  0  0  0  0  0  0  0  0  0
    6.3981    1.0000    0.0000 C   0  0  0  0  0  0  0  0  0  0  0  0
    4.6381   -1.0347    0.0000 C   0  0  0  0  0  0  0  0  0  0  0  0
    4.6381    1.0347    0.0000 C   0  0  0  0  0  0  0  0  0  0  0  0
    3.7320   -0.5208    0.0000 C   0  0  0  0  0  0  0  0  0  0  0  0
    3.7320    0.5208    0.0000 C   0  0  0  0  0  0  0  0  0  0  0  0
    8.7939    0.0000    0.0000 C   0  0  0  0  0  0  0  0  0  0  0  0
    2.0000   -0.5275    0.0000 C   0  0  0  0  0  0  0  0  0  0  0  0
    2.8718    2.0241    0.0000 C   0  0  0  0  0  0  0  0  0  0  0  0
    9.2548   -0.4147    0.0000 H   0  0  0  0  0  0  0  0  0  0  0  0
    9.2548    0.4147    0.0000 H   0  0  0  0  0  0  0  0  0  0  0  0
    6.9350   -2.3100    0.0000 H   0  0  0  0  0  0  0  0  0  0  0  0
    6.9350    2.3100    0.0000 H   0  0  0  0  0  0  0  0  0  0  0  0
    2.3079    0.0106    0.0000 H   0  0  0  0  0  0  0  0  0  0  0  0
    1.4619   -0.2196    0.0000 H   0  0  0  0  0  0  0  0  0  0  0  0
    1.6921   -1.0656    0.0000 H   0  0  0  0  0  0  0  0  0  0  0  0
    3.4918    2.0218    0.0000 H   0  0  0  0  0  0  0  0  0  0  0  0
    2.8742    2.6441    0.0000 H   0  0  0  0  0  0  0  0  0  0  0  0
    2.2518    2.0265    0.0000 H   0  0  0  0  0  0  0  0  0  0  0  0
  1 11  1  0  0  0  0
  1 19  1  0  0  0  0
  2 12  1  0  0  0  0
  2 19  1  0  0  0  0
  3 13  1  0  0  0  0
  3 24  1  0  0  0  0
  4 14  1  0  0  0  0
  4 25  1  0  0  0  0
  5 17  1  0  0  0  0
  5 20  1  0  0  0  0
  6 18  1  0  0  0  0
  6 21  1  0  0  0  0
  7 15  2  0  0  0  0
  8 16  2  0  0  0  0
  9 10  2  0  0  0  0
  9 13  1  0  0  0  0
  9 15  1  0  0  0  0
 10 14  1  0  0  0  0
 10 16  1  0  0  0  0
 11 12  1  0  0  0  0
 11 13  2  0  0  0  0
 12 14  2  0  0  0  0
 15 17  1  0  0  0  0
 16 18  1  0  0  0  0
 17 18  2  0  0  0  0
 19 22  1  0  0  0  0
 19 23  1  0  0  0  0
 20 26  1  0  0  0  0
 20 27  1  0  0  0  0
 20 28  1  0  0  0  0
 21 29  1  0  0  0  0
 21 30  1  0  0  0  0
 21 31  1  0  0  0  0
M  END
> <PUBCHEM_COMPOUND_CID>
129974

> <PUBCHEM_COMPOUND_CANONICALIZED>
1

> <PUBCHEM_CACTVS_COMPLEXITY>
468

> <PUBCHEM_CACTVS_HBOND_ACCEPTOR>
8

> <PUBCHEM_CACTVS_HBOND_DONOR>
2

> <PUBCHEM_CACTVS_ROTATABLE_BOND>
2

> <PUBCHEM_CACTVS_SUBSKEYS>
AAADccBwPAAAAAAAAAAAAAAAAAAAASAAAAAwQAAAAAAAAEiBAAAAGgAACAAADAQAmAMCDoAABgCIAoBQAAICCAAkIAAAiAFEiMgdJzaGNB6gcWMl4BUPuQfL7LzOoQABCAAYQABCAAIQADCAAAAAAAAAAA==

> <PUBCHEM_IUPAC_OPENEYE_NAME>
4,9-dihydroxy-6,7-dimethoxy-benzo[f][1,3]benzodioxole-5,8-dione

> <PUBCHEM_IUPAC_CAS_NAME>
4,9-dihydroxy-6,7-dimethoxybenzo[f][1,3]benzodioxole-5,8-dione

> <PUBCHEM_IUPAC_NAME>
4,9-dihydroxy-6,7-dimethoxybenzo[f][1,3]benzodioxole-5,8-dione

> <PUBCHEM_IUPAC_SYSTEMATIC_NAME>
6,7-dimethoxy-4,9-bis(oxidanyl)benzo[f][1,3]benzodioxole-5,8-dione

> <PUBCHEM_IUPAC_TRADITIONAL_NAME>
4,9-dihydroxy-6,7-dimethoxy-benzo[f][1,3]benzodioxole-5,8-quinone

> <PUBCHEM_IUPAC_INCHI>
InChI=1S/C13H10O8/c1-18-10-6(14)4-5(7(15)11(10)19-2)9(17)13-12(8(4)16)20-3-21-13/h16-17H,3H2,1-2H3

> <PUBCHEM_IUPAC_INCHIKEY>
RKJCLPSFLUKWQY-UHFFFAOYSA-N

> <PUBCHEM_XLOGP3_AA>
2

> <PUBCHEM_EXACT_MASS>
294.037567

> <PUBCHEM_MOLECULAR_FORMULA>
C13H10O8

> <PUBCHEM_MOLECULAR_WEIGHT>
294.2137

> <PUBCHEM_OPENEYE_CAN_SMILES>
COC1=C(C(=O)C2=C(C1=O)C(=C3C(=C2O)OCO3)O)OC

> <PUBCHEM_OPENEYE_ISO_SMILES>
COC1=C(C(=O)C2=C(C1=O)C(=C3C(=C2O)OCO3)O)OC

> <PUBCHEM_CACTVS_TPSA>
112

> <PUBCHEM_MONOISOTOPIC_WEIGHT>
294.037567

> <PUBCHEM_TOTAL_CHARGE>
0

> <PUBCHEM_HEAVY_ATOM_COUNT>
21

> <PUBCHEM_ATOM_DEF_STEREO_COUNT>
0

> <PUBCHEM_ATOM_UDEF_STEREO_COUNT>
0

> <PUBCHEM_BOND_DEF_STEREO_COUNT>
0

> <PUBCHEM_BOND_UDEF_STEREO_COUNT>
0

> <PUBCHEM_ISOTOPIC_ATOM_COUNT>
0

> <PUBCHEM_COMPONENT_COUNT>
1

> <PUBCHEM_CACTVS_TAUTO_COUNT>
6

> <PUBCHEM_COORDINATE_TYPE>
1
5
255

> <PUBCHEM_BONDANNOTATIONS>
10  14  8
11  12  8
11  13  8
12  14  8
9  10  8
9  13  8

$$$$

