11087
  -OEChem-07051213083D

 17 17  0     0  0  0  0  0  0999 V2000
    1.8447    1.3771    1.2013 O   0  0  0  0  0  0  0  0  0  0  0  0
    2.0082    1.4106   -1.0656 O   0  0  0  0  0  0  0  0  0  0  0  0
    0.3816   -2.8426    0.0124 O   0  5  0  0  0  0  0  0  0  0  0  0
    1.8937   -1.2514   -0.0238 O   0  0  0  0  0  0  0  0  0  0  0  0
    0.6990   -1.6302   -0.0066 N   0  3  0  0  0  0  0  0  0  0  0  0
   -0.0323    0.7119   -0.0301 C   0  0  0  0  0  0  0  0  0  0  0  0
   -0.3325   -0.6501   -0.0090 C   0  0  0  0  0  0  0  0  0  0  0  0
   -1.0618    1.6531   -0.0325 C   0  0  0  0  0  0  0  0  0  0  0  0
   -1.6622   -1.0709    0.0098 C   0  0  0  0  0  0  0  0  0  0  0  0
   -2.3915    1.2322   -0.0137 C   0  0  0  0  0  0  0  0  0  0  0  0
   -2.6918   -0.1297    0.0073 C   0  0  0  0  0  0  0  0  0  0  0  0
    1.3450    1.1901   -0.0495 C   0  0  0  0  0  0  0  0  0  0  0  0
   -0.8411    2.7174   -0.0488 H   0  0  0  0  0  0  0  0  0  0  0  0
   -1.9382   -2.1222    0.0265 H   0  0  0  0  0  0  0  0  0  0  0  0
   -3.1932    1.9649   -0.0155 H   0  0  0  0  0  0  0  0  0  0  0  0
   -3.7274   -0.4568    0.0218 H   0  0  0  0  0  0  0  0  0  0  0  0
    2.7713    1.6985    1.1801 H   0  0  0  0  0  0  0  0  0  0  0  0
  1 12  1  0  0  0  0
  1 17  1  0  0  0  0
  2 12  2  0  0  0  0
  3  5  1  0  0  0  0
  4  5  2  0  0  0  0
  5  7  1  0  0  0  0
  6  7  1  0  0  0  0
  6  8  2  0  0  0  0
  6 12  1  0  0  0  0
  7  9  2  0  0  0  0
  8 10  1  0  0  0  0
  8 13  1  0  0  0  0
  9 11  1  0  0  0  0
  9 14  1  0  0  0  0
 10 11  2  0  0  0  0
 10 15  1  0  0  0  0
 11 16  1  0  0  0  0
M  CHG  2   3  -1   5   1
M  END
> <PUBCHEM_COMPOUND_CID>
11087

> <PUBCHEM_CONFORMER_RMSD>
0.6

> <PUBCHEM_CONFORMER_DIVERSEORDER>
1

> <PUBCHEM_MMFF94_PARTIAL_CHARGES>
17
1 -0.65
10 -0.15
11 -0.15
12 0.63
13 0.15
14 0.15
15 0.15
16 0.15
17 0.5
2 -0.57
3 -0.52
4 -0.52
5 0.91
6 0.09
7 0.13
8 -0.15
9 -0.15

> <PUBCHEM_EFFECTIVE_ROTOR_COUNT>
2

> <PUBCHEM_PHARMACOPHORE_FEATURES>
7
1 1 acceptor
1 2 acceptor
1 3 acceptor
1 3 anion
1 4 acceptor
3 1 2 12 anion
6 6 7 8 9 10 11 rings

> <PUBCHEM_HEAVY_ATOM_COUNT>
12

> <PUBCHEM_ATOM_DEF_STEREO_COUNT>
0

> <PUBCHEM_ATOM_UDEF_STEREO_COUNT>
0

> <PUBCHEM_BOND_DEF_STEREO_COUNT>
0

> <PUBCHEM_BOND_UDEF_STEREO_COUNT>
0

> <PUBCHEM_ISOTOPIC_ATOM_COUNT>
0

> <PUBCHEM_COMPONENT_COUNT>
1

> <PUBCHEM_CACTVS_TAUTO_COUNT>
1

> <PUBCHEM_CONFORMER_ID>
00002B4F00000001

> <PUBCHEM_MMFF94_ENERGY>
45.1929

> <PUBCHEM_FEATURE_SELFOVERLAP>
35.665

> <PUBCHEM_SHAPE_FINGERPRINT>
12423570 1 9718320687959340576
12524768 44 17542226108935538423
16945 1 18196084671509676757
18185500 45 17835234928156142719
193761 8 18339079414513957213
20511035 2 18191593153804846445
20871998 184 17396416113858342276
21040471 1 18266459797861120932
2334 1 18339079272674749251
23552423 10 18341610468721826159
241688 4 17331117711569919027
2748010 2 18411697647660056927
5084963 1 18043234752519946837
66348 1 18411134693284983239
7364860 26 18188775079400645855

> <PUBCHEM_SHAPE_MULTIPOLES>
218.5
3.1
2.4
0.75
0.85
1.25
0.04
-0.78
-0.02
-0.73
0
-0.3
-0.26
0.01

> <PUBCHEM_SHAPE_SELFOVERLAP>
465.662

> <PUBCHEM_SHAPE_VOLUME>
121.2

> <PUBCHEM_COORDINATE_TYPE>
2
5
10

$$$$

