583107
  -OEChem-06241222442D

 23 24  0     1  0  0  0  0  0999 V2000
    3.9511    0.7306    0.0000 O   0  0  0  0  0  0  0  0  0  0  0  0
    5.2111    1.9906    0.0000 O   0  0  0  0  0  0  0  0  0  0  0  0
    2.9511    0.7306    0.0000 C   0  0  3  0  0  0  0  0  0  0  0  0
    2.9511   -0.2694    0.0000 C   0  0  0  0  0  0  0  0  0  0  0  0
    2.0000    0.4216    0.0000 C   0  0  0  0  0  0  0  0  0  0  0  0
    2.6420    1.6816    0.0000 C   0  0  0  0  0  0  0  0  0  0  0  0
    2.0850   -0.7694    0.0000 C   0  0  0  0  0  0  0  0  0  0  0  0
    3.8171   -0.7694    0.0000 C   0  0  0  0  0  0  0  0  0  0  0  0
    3.4511    2.2694    0.0000 C   0  0  0  0  0  0  0  0  0  0  0  0
    4.2601    1.6816    0.0000 C   0  0  0  0  0  0  0  0  0  0  0  0
    2.0850   -1.7694    0.0000 C   0  0  0  0  0  0  0  0  0  0  0  0
    3.8171   -1.7694    0.0000 C   0  0  0  0  0  0  0  0  0  0  0  0
    2.9511   -2.2694    0.0000 C   0  0  0  0  0  0  0  0  0  0  0  0
    1.8084    1.0112    0.0000 H   0  0  0  0  0  0  0  0  0  0  0  0
    1.4103    0.2300    0.0000 H   0  0  0  0  0  0  0  0  0  0  0  0
    2.1916   -0.1681    0.0000 H   0  0  0  0  0  0  0  0  0  0  0  0
    2.0524    1.8732    0.0000 H   0  0  0  0  0  0  0  0  0  0  0  0
    1.5481   -0.4594    0.0000 H   0  0  0  0  0  0  0  0  0  0  0  0
    4.3540   -0.4594    0.0000 H   0  0  0  0  0  0  0  0  0  0  0  0
    3.4511    2.8894    0.0000 H   0  0  0  0  0  0  0  0  0  0  0  0
    1.5481   -2.0794    0.0000 H   0  0  0  0  0  0  0  0  0  0  0  0
    4.3540   -2.0794    0.0000 H   0  0  0  0  0  0  0  0  0  0  0  0
    2.9511   -2.8894    0.0000 H   0  0  0  0  0  0  0  0  0  0  0  0
  1  3  1  0  0  0  0
  1 10  1  0  0  0  0
  2 10  2  0  0  0  0
  3  4  1  0  0  0  0
  3  5  1  0  0  0  0
  3  6  1  0  0  0  0
  4  7  2  0  0  0  0
  4  8  1  0  0  0  0
  5 14  1  0  0  0  0
  5 15  1  0  0  0  0
  5 16  1  0  0  0  0
  6  9  2  0  0  0  0
  6 17  1  0  0  0  0
  7 11  1  0  0  0  0
  7 18  1  0  0  0  0
  8 12  2  0  0  0  0
  8 19  1  0  0  0  0
  9 10  1  0  0  0  0
  9 20  1  0  0  0  0
 11 13  2  0  0  0  0
 11 21  1  0  0  0  0
 12 13  1  0  0  0  0
 12 22  1  0  0  0  0
 13 23  1  0  0  0  0
M  END
> <PUBCHEM_COMPOUND_CID>
583107

> <PUBCHEM_COMPOUND_CANONICALIZED>
1

> <PUBCHEM_CACTVS_COMPLEXITY>
239

> <PUBCHEM_CACTVS_HBOND_ACCEPTOR>
2

> <PUBCHEM_CACTVS_HBOND_DONOR>
0

> <PUBCHEM_CACTVS_ROTATABLE_BOND>
1

> <PUBCHEM_CACTVS_SUBSKEYS>
AAADccBwMAAAAAAAAAAAAAAAAAAAAQAAAAAwAAAAAAAAAAABAAAAGgAAAAAADESAmAAyCIAABACIAiDSCAACAAAgAAAIiAAACMgIJiKAMRiCMAAkwAEIqYeAwOAOgAAAAAAAAAAAAAAAAAAAAAAAAAAAAA==

> <PUBCHEM_IUPAC_OPENEYE_NAME>
5-methyl-5-phenyl-furan-2-one

> <PUBCHEM_IUPAC_CAS_NAME>
5-methyl-5-phenyl-2-furanone

> <PUBCHEM_IUPAC_NAME>
5-methyl-5-phenylfuran-2-one

> <PUBCHEM_IUPAC_SYSTEMATIC_NAME>
5-methyl-5-phenyl-furan-2-one

> <PUBCHEM_IUPAC_TRADITIONAL_NAME>
5-methyl-5-phenyl-furan-2-one

> <PUBCHEM_IUPAC_INCHI>
InChI=1S/C11H10O2/c1-11(8-7-10(12)13-11)9-5-3-2-4-6-9/h2-8H,1H3

> <PUBCHEM_IUPAC_INCHIKEY>
JNYXOXHKFXEQMJ-UHFFFAOYSA-N

> <PUBCHEM_XLOGP3_AA>
2.1

> <PUBCHEM_EXACT_MASS>
174.06808

> <PUBCHEM_MOLECULAR_FORMULA>
C11H10O2

> <PUBCHEM_MOLECULAR_WEIGHT>
174.1959

> <PUBCHEM_OPENEYE_CAN_SMILES>
CC1(C=CC(=O)O1)C2=CC=CC=C2

> <PUBCHEM_OPENEYE_ISO_SMILES>
CC1(C=CC(=O)O1)C2=CC=CC=C2

> <PUBCHEM_CACTVS_TPSA>
26.3

> <PUBCHEM_MONOISOTOPIC_WEIGHT>
174.06808

> <PUBCHEM_TOTAL_CHARGE>
0

> <PUBCHEM_HEAVY_ATOM_COUNT>
13

> <PUBCHEM_ATOM_DEF_STEREO_COUNT>
0

> <PUBCHEM_ATOM_UDEF_STEREO_COUNT>
1

> <PUBCHEM_BOND_DEF_STEREO_COUNT>
0

> <PUBCHEM_BOND_UDEF_STEREO_COUNT>
0

> <PUBCHEM_ISOTOPIC_ATOM_COUNT>
0

> <PUBCHEM_COMPONENT_COUNT>
1

> <PUBCHEM_CACTVS_TAUTO_COUNT>
1

> <PUBCHEM_COORDINATE_TYPE>
1
5
255

> <PUBCHEM_BONDANNOTATIONS>
11  13  8
12  13  8
3  5  3
4  7  8
4  8  8
7  11  8
8  12  8

$$$$

