5282322
  -OEChem-07051213042D

122124  0     1  0  0  0  0  0999 V2000
    9.7942    2.8100    0.0000 O   0  0  0  0  0  0  0  0  0  0  0  0
    8.0622    0.8100    0.0000 O   0  0  0  0  0  0  0  0  0  0  0  0
    6.3301    0.8100    0.0000 O   0  0  0  0  0  0  0  0  0  0  0  0
   10.6603    1.3100    0.0000 O   0  0  0  0  0  0  0  0  0  0  0  0
    6.3301    2.8100    0.0000 O   0  0  0  0  0  0  0  0  0  0  0  0
   13.3923    2.3100    0.0000 O   0  0  0  0  0  0  0  0  0  0  0  0
   13.2583    0.8100    0.0000 O   0  0  0  0  0  0  0  0  0  0  0  0
    5.4641   -1.6900    0.0000 O   0  0  0  0  0  0  0  0  0  0  0  0
    4.5981    0.8100    0.0000 O   0  0  0  0  0  0  0  0  0  0  0  0
    8.9282   -3.6900    0.0000 O   0  0  0  0  0  0  0  0  0  0  0  0
    9.7942   -0.1900    0.0000 O   0  0  0  0  0  0  0  0  0  0  0  0
    2.8660   -2.1900    0.0000 O   0  0  0  0  0  0  0  0  0  0  0  0
   12.3923   -0.6900    0.0000 O   0  0  0  0  0  0  0  0  0  0  0  0
    4.7320   -1.6900    0.0000 O   0  0  0  0  0  0  0  0  0  0  0  0
    8.0622    3.8100    0.0000 N   0  0  0  0  0  0  0  0  0  0  0  0
    8.0622    2.8100    0.0000 C   0  0  1  0  0  0  0  0  0  0  0  0
    8.9282    2.3100    0.0000 C   0  0  1  0  0  0  0  0  0  0  0  0
    7.1962    2.3100    0.0000 C   0  0  2  0  0  0  0  0  0  0  0  0
    8.9282    1.3100    0.0000 C   0  0  1  0  0  0  0  0  0  0  0  0
    7.1962    1.3100    0.0000 C   0  0  1  0  0  0  0  0  0  0  0  0
    6.3301   -0.1900    0.0000 C   0  0  1  0  0  0  0  0  0  0  0  0
   12.3923    2.3100    0.0000 C   0  0  2  0  0  0  0  0  0  0  0  0
   10.6603    2.3100    0.0000 C   0  0  2  0  0  0  0  0  0  0  0  0
    7.1962   -0.6900    0.0000 C   0  0  2  0  0  0  0  0  0  0  0  0
   11.5263    2.8100    0.0000 C   0  0  0  0  0  0  0  0  0  0  0  0
   12.3923    1.3100    0.0000 C   0  0  2  0  0  0  0  0  0  0  0  0
   11.5263    0.8100    0.0000 C   0  0  2  0  0  0  0  0  0  0  0  0
    5.4641   -0.6900    0.0000 C   0  0  2  0  0  0  0  0  0  0  0  0
    7.1962   -1.6900    0.0000 C   0  0  0  0  0  0  0  0  0  0  0  0
    9.7942    0.8100    0.0000 C   0  0  0  0  0  0  0  0  0  0  0  0
    8.0622   -2.1900    0.0000 C   0  0  2  0  0  0  0  0  0  0  0  0
    8.0622   -0.1900    0.0000 C   0  0  0  0  0  0  0  0  0  0  0  0
   12.8923    3.1760    0.0000 C   0  0  0  0  0  0  0  0  0  0  0  0
    4.5981   -0.1900    0.0000 C   0  0  1  0  0  0  0  0  0  0  0  0
    8.9282    4.3100    0.0000 C   0  0  0  0  0  0  0  0  0  0  0  0
    7.1962    4.3100    0.0000 C   0  0  0  0  0  0  0  0  0  0  0  0
   11.5263   -0.1900    0.0000 C   0  0  0  0  0  0  0  0  0  0  0  0
    8.0622   -3.1900    0.0000 C   0  0  2  0  0  0  0  0  0  0  0  0
    3.7320   -0.6900    0.0000 C   0  0  0  0  0  0  0  0  0  0  0  0
    9.0622   -2.1900    0.0000 C   0  0  0  0  0  0  0  0  0  0  0  0
    8.9282   -0.6900    0.0000 C   0  0  0  0  0  0  0  0  0  0  0  0
   13.2583   -0.1900    0.0000 C   0  0  0  0  0  0  0  0  0  0  0  0
    7.1962   -3.6900    0.0000 C   0  0  0  0  0  0  0  0  0  0  0  0
    6.4641   -1.6900    0.0000 C   0  0  0  0  0  0  0  0  0  0  0  0
    3.7320   -1.6900    0.0000 C   0  0  0  0  0  0  0  0  0  0  0  0
   14.1244   -0.6900    0.0000 C   0  0  0  0  0  0  0  0  0  0  0  0
   14.1244   -1.6900    0.0000 C   0  0  0  0  0  0  0  0  0  0  0  0
    6.3301   -3.1900    0.0000 C   0  0  0  0  0  0  0  0  0  0  0  0
    2.8660   -3.1900    0.0000 C   0  0  1  0  0  0  0  0  0  0  0  0
   14.9904   -2.1900    0.0000 C   0  0  0  0  0  0  0  0  0  0  0  0
   13.2583   -2.1900    0.0000 C   0  0  0  0  0  0  0  0  0  0  0  0
    5.4641   -3.6900    0.0000 C   0  0  0  0  0  0  0  0  0  0  0  0
    3.7320   -3.6900    0.0000 C   0  0  0  0  0  0  0  0  0  0  0  0
    4.5981   -3.1900    0.0000 C   0  0  0  0  0  0  0  0  0  0  0  0
    2.0000   -3.6900    0.0000 C   0  0  0  0  0  0  0  0  0  0  0  0
    7.5252    3.1200    0.0000 H   0  0  0  0  0  0  0  0  0  0  0  0
    9.4651    2.0000    0.0000 H   0  0  0  0  0  0  0  0  0  0  0  0
    6.6592    2.0000    0.0000 H   0  0  0  0  0  0  0  0  0  0  0  0
    8.9282    0.6900    0.0000 H   0  0  0  0  0  0  0  0  0  0  0  0
    6.6592    1.6200    0.0000 H   0  0  0  0  0  0  0  0  0  0  0  0
    6.8671    0.1200    0.0000 H   0  0  0  0  0  0  0  0  0  0  0  0
   10.6603    2.9300    0.0000 H   0  0  0  0  0  0  0  0  0  0  0  0
    7.7331   -1.0000    0.0000 H   0  0  0  0  0  0  0  0  0  0  0  0
   11.9248    3.2850    0.0000 H   0  0  0  0  0  0  0  0  0  0  0  0
   11.1278    3.2850    0.0000 H   0  0  0  0  0  0  0  0  0  0  0  0
   12.3923    0.6900    0.0000 H   0  0  0  0  0  0  0  0  0  0  0  0
   10.9893    0.5000    0.0000 H   0  0  0  0  0  0  0  0  0  0  0  0
    6.0010   -1.0000    0.0000 H   0  0  0  0  0  0  0  0  0  0  0  0
    6.5856   -1.5823    0.0000 H   0  0  0  0  0  0  0  0  0  0  0  0
    6.9841   -2.2726    0.0000 H   0  0  0  0  0  0  0  0  0  0  0  0
    9.4842    0.2731    0.0000 H   0  0  0  0  0  0  0  0  0  0  0  0
   10.3312    0.5000    0.0000 H   0  0  0  0  0  0  0  0  0  0  0  0
   10.1042    1.3469    0.0000 H   0  0  0  0  0  0  0  0  0  0  0  0
    8.2226   -1.5911    0.0000 H   0  0  0  0  0  0  0  0  0  0  0  0
    8.4607    0.2849    0.0000 H   0  0  0  0  0  0  0  0  0  0  0  0
    7.6636    0.2849    0.0000 H   0  0  0  0  0  0  0  0  0  0  0  0
   13.4292    2.8660    0.0000 H   0  0  0  0  0  0  0  0  0  0  0  0
   13.2023    3.7130    0.0000 H   0  0  0  0  0  0  0  0  0  0  0  0
   12.3554    3.4860    0.0000 H   0  0  0  0  0  0  0  0  0  0  0  0
    5.1350    0.1200    0.0000 H   0  0  0  0  0  0  0  0  0  0  0  0
    5.7932    2.5000    0.0000 H   0  0  0  0  0  0  0  0  0  0  0  0
    9.2382    3.7731    0.0000 H   0  0  0  0  0  0  0  0  0  0  0  0
    9.4651    4.6200    0.0000 H   0  0  0  0  0  0  0  0  0  0  0  0
    7.5062    4.8469    0.0000 H   0  0  0  0  0  0  0  0  0  0  0  0
    6.6592    4.6200    0.0000 H   0  0  0  0  0  0  0  0  0  0  0  0
    6.8862    3.7731    0.0000 H   0  0  0  0  0  0  0  0  0  0  0  0
    8.6182    4.8469    0.0000 H   0  0  0  0  0  0  0  0  0  0  0  0
   10.9063   -0.1900    0.0000 H   0  0  0  0  0  0  0  0  0  0  0  0
   11.5263   -0.8100    0.0000 H   0  0  0  0  0  0  0  0  0  0  0  0
   12.1463   -0.1900    0.0000 H   0  0  0  0  0  0  0  0  0  0  0  0
   13.7023    2.8469    0.0000 H   0  0  0  0  0  0  0  0  0  0  0  0
    8.0622   -3.8100    0.0000 H   0  0  0  0  0  0  0  0  0  0  0  0
    3.5200   -0.1074    0.0000 H   0  0  0  0  0  0  0  0  0  0  0  0
    3.1215   -0.7977    0.0000 H   0  0  0  0  0  0  0  0  0  0  0  0
    9.0622   -2.8100    0.0000 H   0  0  0  0  0  0  0  0  0  0  0  0
    9.6822   -2.1900    0.0000 H   0  0  0  0  0  0  0  0  0  0  0  0
    9.0622   -1.5700    0.0000 H   0  0  0  0  0  0  0  0  0  0  0  0
    9.2383   -1.2269    0.0000 H   0  0  0  0  0  0  0  0  0  0  0  0
    4.0611    1.1200    0.0000 H   0  0  0  0  0  0  0  0  0  0  0  0
    7.1962   -4.3100    0.0000 H   0  0  0  0  0  0  0  0  0  0  0  0
    6.4641   -2.3100    0.0000 H   0  0  0  0  0  0  0  0  0  0  0  0
    7.0841   -1.6900    0.0000 H   0  0  0  0  0  0  0  0  0  0  0  0
    6.4641   -1.0700    0.0000 H   0  0  0  0  0  0  0  0  0  0  0  0
   14.7349   -0.7977    0.0000 H   0  0  0  0  0  0  0  0  0  0  0  0
   14.3364   -0.1074    0.0000 H   0  0  0  0  0  0  0  0  0  0  0  0
    8.9282   -4.3100    0.0000 H   0  0  0  0  0  0  0  0  0  0  0  0
   13.5874   -1.3800    0.0000 H   0  0  0  0  0  0  0  0  0  0  0  0
    6.6401   -2.6531    0.0000 H   0  0  0  0  0  0  0  0  0  0  0  0
    2.3291   -2.8800    0.0000 H   0  0  0  0  0  0  0  0  0  0  0  0
   14.6804   -2.7269    0.0000 H   0  0  0  0  0  0  0  0  0  0  0  0
   15.5273   -2.5000    0.0000 H   0  0  0  0  0  0  0  0  0  0  0  0
   15.3004   -1.6531    0.0000 H   0  0  0  0  0  0  0  0  0  0  0  0
   12.9483   -1.6531    0.0000 H   0  0  0  0  0  0  0  0  0  0  0  0
   12.7214   -2.5000    0.0000 H   0  0  0  0  0  0  0  0  0  0  0  0
   13.5683   -2.7269    0.0000 H   0  0  0  0  0  0  0  0  0  0  0  0
    5.4641   -4.3100    0.0000 H   0  0  0  0  0  0  0  0  0  0  0  0
    3.3335   -4.1650    0.0000 H   0  0  0  0  0  0  0  0  0  0  0  0
    4.1306   -4.1650    0.0000 H   0  0  0  0  0  0  0  0  0  0  0  0
    4.5981   -2.5700    0.0000 H   0  0  0  0  0  0  0  0  0  0  0  0
    1.6900   -3.1531    0.0000 H   0  0  0  0  0  0  0  0  0  0  0  0
    1.4631   -4.0000    0.0000 H   0  0  0  0  0  0  0  0  0  0  0  0
    2.3100   -4.2269    0.0000 H   0  0  0  0  0  0  0  0  0  0  0  0
 17  1  1  6  0  0  0
 23  1  1  1  0  0  0
  2 19  1  0  0  0  0
  2 20  1  0  0  0  0
 20  3  1  1  0  0  0
 21  3  1  1  0  0  0
  4 23  1  0  0  0  0
  4 27  1  0  0  0  0
 18  5  1  6  0  0  0
  5 81  1  0  0  0  0
 22  6  1  1  0  0  0
  6 91  1  0  0  0  0
 26  7  1  1  0  0  0
  7 42  1  0  0  0  0
 28  8  1  1  0  0  0
  8 44  1  0  0  0  0
 34  9  1  1  0  0  0
  9 99  1  0  0  0  0
 38 10  1  1  0  0  0
 10106  1  0  0  0  0
 11 41  2  0  0  0  0
 12 45  1  0  0  0  0
 12 49  1  0  0  0  0
 13 42  2  0  0  0  0
 14 45  2  0  0  0  0
 16 15  1  1  0  0  0
 15 35  1  0  0  0  0
 15 36  1  0  0  0  0
 16 17  1  0  0  0  0
 16 18  1  0  0  0  0
 16 56  1  0  0  0  0
 17 19  1  0  0  0  0
 17 57  1  0  0  0  0
 18 20  1  0  0  0  0
 18 58  1  0  0  0  0
 19 30  1  1  0  0  0
 19 59  1  0  0  0  0
 20 60  1  0  0  0  0
 21 24  1  0  0  0  0
 21 28  1  0  0  0  0
 21 61  1  0  0  0  0
 22 25  1  0  0  0  0
 22 26  1  0  0  0  0
 22 33  1  0  0  0  0
 23 25  1  0  0  0  0
 23 62  1  0  0  0  0
 24 29  1  0  0  0  0
 24 32  1  1  0  0  0
 24 63  1  0  0  0  0
 25 64  1  0  0  0  0
 25 65  1  0  0  0  0
 26 27  1  0  0  0  0
 26 66  1  0  0  0  0
 27 37  1  6  0  0  0
 27 67  1  0  0  0  0
 28 34  1  0  0  0  0
 28 68  1  0  0  0  0
 29 31  1  0  0  0  0
 29 69  1  0  0  0  0
 29 70  1  0  0  0  0
 30 71  1  0  0  0  0
 30 72  1  0  0  0  0
 30 73  1  0  0  0  0
 31 38  1  0  0  0  0
 31 40  1  1  0  0  0
 31 74  1  0  0  0  0
 32 41  1  0  0  0  0
 32 75  1  0  0  0  0
 32 76  1  0  0  0  0
 33 77  1  0  0  0  0
 33 78  1  0  0  0  0
 33 79  1  0  0  0  0
 34 39  1  0  0  0  0
 34 80  1  0  0  0  0
 35 82  1  0  0  0  0
 35 83  1  0  0  0  0
 35 87  1  0  0  0  0
 36 84  1  0  0  0  0
 36 85  1  0  0  0  0
 36 86  1  0  0  0  0
 37 88  1  0  0  0  0
 37 89  1  0  0  0  0
 37 90  1  0  0  0  0
 38 43  1  0  0  0  0
 38 92  1  0  0  0  0
 39 45  1  0  0  0  0
 39 93  1  0  0  0  0
 39 94  1  0  0  0  0
 40 95  1  0  0  0  0
 40 96  1  0  0  0  0
 40 97  1  0  0  0  0
 41 98  1  0  0  0  0
 42 46  1  0  0  0  0
 43 48  2  0  0  0  0
 43100  1  0  0  0  0
 44101  1  0  0  0  0
 44102  1  0  0  0  0
 44103  1  0  0  0  0
 46 47  1  0  0  0  0
 46104  1  0  0  0  0
 46105  1  0  0  0  0
 47 50  1  0  0  0  0
 47 51  1  0  0  0  0
 47107  1  0  0  0  0
 48 52  1  0  0  0  0
 48108  1  0  0  0  0
 49 53  1  0  0  0  0
 49 55  1  1  0  0  0
 49109  1  0  0  0  0
 50110  1  0  0  0  0
 50111  1  0  0  0  0
 50112  1  0  0  0  0
 51113  1  0  0  0  0
 51114  1  0  0  0  0
 51115  1  0  0  0  0
 52 54  2  0  0  0  0
 52116  1  0  0  0  0
 53 54  1  0  0  0  0
 53117  1  0  0  0  0
 53118  1  0  0  0  0
 54119  1  0  0  0  0
 55120  1  0  0  0  0
 55121  1  0  0  0  0
 55122  1  0  0  0  0
M  END
> <PUBCHEM_COMPOUND_CID>
5282322

> <PUBCHEM_COMPOUND_CANONICALIZED>
1

> <PUBCHEM_CACTVS_COMPLEXITY>
1280

> <PUBCHEM_CACTVS_HBOND_ACCEPTOR>
15

> <PUBCHEM_CACTVS_HBOND_DONOR>
4

> <PUBCHEM_CACTVS_ROTATABLE_BOND>
12

> <PUBCHEM_CACTVS_SUBSKEYS>
AAADcfB+PAAAAAAAAAAAAAAAAAAAAAAAAAAkSAAAAAAAAAAAAAAAHgAACAAADXzxgAcCCAMABgCIACjSiAAAAAAgAAAICAEIAAgbFBYAgQAnUAAH4AAfkAPK7PzOAAAAAAAAAAAAAAAAAAAAAAAAAAAAAA==

> <PUBCHEM_IUPAC_OPENEYE_NAME>
[(2S,3S,4R,6S)-6-[(2R,3S,4R,5R,6S)-6-[[(4R,5S,6S,7R,9R,10R,11E,13E,16R)-4,10-dihydroxy-5-methoxy-9,16-dimethyl-2-oxo-7-(2-oxoethyl)-1-oxacyclohexadeca-11,13-dien-6-yl]oxy]-4-(dimethylamino)-5-hydroxy-2-methyl-tetrahydropyran-3-yl]oxy-4-hydroxy-2,4-dimethyl-tetrahydropyran-3-yl] 3-methylbutanoate

> <PUBCHEM_IUPAC_CAS_NAME>
3-methylbutanoic acid [(2S,3S,4R,6S)-6-[[(2R,3S,4R,5R,6S)-6-[[(4R,5S,6S,7R,9R,10R,11E,13E,16R)-4,10-dihydroxy-5-methoxy-9,16-dimethyl-2-oxo-7-(2-oxoethyl)-1-oxacyclohexadeca-11,13-dien-6-yl]oxy]-4-(dimethylamino)-5-hydroxy-2-methyl-3-oxanyl]oxy]-4-hydroxy-2,4-dimethyl-3-oxanyl] ester

> <PUBCHEM_IUPAC_NAME>
[(2S,3S,4R,6S)-6-[(2R,3S,4R,5R,6S)-6-[[(4R,5S,6S,7R,9R,10R,11E,13E,16R)-4,10-dihydroxy-5-methoxy-9,16-dimethyl-2-oxo-7-(2-oxoethyl)-1-oxacyclohexadeca-11,13-dien-6-yl]oxy]-4-(dimethylamino)-5-hydroxy-2-methyloxan-3-yl]oxy-4-hydroxy-2,4-dimethyloxan-3-yl] 3-methylbutanoate

> <PUBCHEM_IUPAC_SYSTEMATIC_NAME>
[(2S,3S,4R,6S)-6-[(2R,3S,4R,5R,6S)-4-(dimethylamino)-6-[[(4R,5S,6S,7R,9R,10R,11E,13E,16R)-5-methoxy-9,16-dimethyl-4,10-bis(oxidanyl)-2-oxidanylidene-7-(2-oxidanylideneethyl)-1-oxacyclohexadeca-11,13-dien-6-yl]oxy]-2-methyl-5-oxidanyl-oxan-3-yl]oxy-2,4-dimethyl-4-oxidanyl-oxan-3-yl] 3-methylbutanoate

> <PUBCHEM_IUPAC_TRADITIONAL_NAME>
3-methylbutyric acid [(2S,3S,4R,6S)-6-[(2R,3S,4R,5R,6S)-6-[[(4R,5S,6S,7R,9R,10R,11E,13E,16R)-4,10-dihydroxy-2-keto-7-(2-ketoethyl)-5-methoxy-9,16-dimethyl-1-oxacyclohexadeca-11,13-dien-6-yl]oxy]-4-(dimethylamino)-5-hydroxy-2-methyl-tetrahydropyran-3-yl]oxy-4-hydroxy-2,4-dimethyl-tetrahydropyran-3-yl] ester

> <PUBCHEM_IUPAC_INCHI>
InChI=1S/C40H67NO14/c1-22(2)18-30(45)53-38-26(6)51-32(21-40(38,7)48)54-35-25(5)52-39(34(47)33(35)41(8)9)55-36-27(16-17-42)19-23(3)28(43)15-13-11-12-14-24(4)50-31(46)20-29(44)37(36)49-10/h11-13,15,17,22-29,32-39,43-44,47-48H,14,16,18-21H2,1-10H3/b12-11+,15-13+/t23-,24-,25-,26+,27+,28+,29-,32+,33-,34-,35-,36+,37+,38+,39+,40-/m1/s1

> <PUBCHEM_IUPAC_INCHIKEY>
IEMDOFXTVAPVLX-YWQHLDGFSA-N

> <PUBCHEM_XLOGP3_AA>
2.4

> <PUBCHEM_EXACT_MASS>
785.456156

> <PUBCHEM_MOLECULAR_FORMULA>
C40H67NO14

> <PUBCHEM_MOLECULAR_WEIGHT>
785.95828

> <PUBCHEM_OPENEYE_CAN_SMILES>
CC1CC=CC=CC(C(CC(C(C(C(CC(=O)O1)O)OC)OC2C(C(C(C(O2)C)OC3CC(C(C(O3)C)OC(=O)CC(C)C)(C)O)N(C)C)O)CC=O)C)O

> <PUBCHEM_OPENEYE_ISO_SMILES>
C[C@@H]1C/C=C/C=C/[C@@H]([C@@H](C[C@@H]([C@@H]([C@H]([C@@H](CC(=O)O1)O)OC)O[C@H]2[C@@H]([C@H]([C@@H]([C@H](O2)C)O[C@H]3C[C@@]([C@H]([C@@H](O3)C)OC(=O)CC(C)C)(C)O)N(C)C)O)CC=O)C)O

> <PUBCHEM_CACTVS_TPSA>
200

> <PUBCHEM_MONOISOTOPIC_WEIGHT>
785.456156

> <PUBCHEM_TOTAL_CHARGE>
0

> <PUBCHEM_HEAVY_ATOM_COUNT>
55

> <PUBCHEM_ATOM_DEF_STEREO_COUNT>
16

> <PUBCHEM_ATOM_UDEF_STEREO_COUNT>
0

> <PUBCHEM_BOND_DEF_STEREO_COUNT>
2

> <PUBCHEM_BOND_UDEF_STEREO_COUNT>
0

> <PUBCHEM_ISOTOPIC_ATOM_COUNT>
0

> <PUBCHEM_COMPONENT_COUNT>
1

> <PUBCHEM_CACTVS_TAUTO_COUNT>
4

> <PUBCHEM_COORDINATE_TYPE>
1
5
255

> <PUBCHEM_BONDANNOTATIONS>
17  1  6
23  1  5
38  10  5
16  15  5
19  30  5
24  32  5
27  37  6
20  3  5
21  3  5
31  40  5
49  55  5
18  5  6
22  6  5
26  7  5
28  8  5
34  9  5

$$$$

