72964
  -OEChem-07051212563D

 58 61  0     1  0  0  0  0  0999 V2000
   -0.7090   -2.6812    0.6437 O   0  0  0  0  0  0  0  0  0  0  0  0
   -0.3800    2.6586   -0.4722 O   0  0  0  0  0  0  0  0  0  0  0  0
   -2.0857   -3.3510    2.4088 O   0  0  0  0  0  0  0  0  0  0  0  0
    1.4672    1.8151    1.3184 O   0  0  0  0  0  0  0  0  0  0  0  0
   -3.0653    2.9742   -0.2000 O   0  0  0  0  0  0  0  0  0  0  0  0
    4.1949    1.7224    1.3184 O   0  0  0  0  0  0  0  0  0  0  0  0
   -1.2285   -0.8340   -0.9086 C   0  0  1  0  0  0  0  0  0  0  0  0
   -0.3556    0.2351   -0.1789 C   0  0  1  0  0  0  0  0  0  0  0  0
    1.1860    0.1850   -0.4980 C   0  0  1  0  0  0  0  0  0  0  0  0
    1.7037   -1.2847   -0.3112 C   0  0  1  0  0  0  0  0  0  0  0  0
   -0.6188   -2.2476   -0.7204 C   0  0  1  0  0  0  0  0  0  0  0  0
   -2.6677   -0.8039   -0.2885 C   0  0  1  0  0  0  0  0  0  0  0  0
    0.8654   -2.3099   -1.0961 C   0  0  0  0  0  0  0  0  0  0  0  0
    3.2252   -1.4034   -0.6140 C   0  0  1  0  0  0  0  0  0  0  0  0
   -1.3677   -0.5616   -2.4325 C   0  0  0  0  0  0  0  0  0  0  0  0
   -2.7303   -1.4695    1.0967 C   0  0  0  0  0  0  0  0  0  0  0  0
   -1.0190    1.6162   -0.3322 C   0  0  0  0  0  0  0  0  0  0  0  0
   -3.2681    0.5961   -0.2153 C   0  0  0  0  0  0  0  0  0  0  0  0
    1.5408    0.7493   -1.8958 C   0  0  0  0  0  0  0  0  0  0  0  0
    1.9825    0.9923    0.5634 C   0  0  0  0  0  0  0  0  0  0  0  0
   -2.0515   -2.8299    1.0839 C   0  0  1  0  0  0  0  0  0  0  0  0
   -2.5096    1.7116   -0.2378 C   0  0  0  0  0  0  0  0  0  0  0  0
    4.0025   -0.3078    0.0761 C   0  0  0  0  0  0  0  0  0  0  0  0
    3.4569    0.7718    0.6483 C   0  0  0  0  0  0  0  0  0  0  0  0
    3.7943   -2.7614   -0.1816 C   0  0  0  0  0  0  0  0  0  0  0  0
   -4.7733    0.6532   -0.1463 C   0  0  0  0  0  0  0  0  0  0  0  0
   -3.2082    3.4197    1.1346 C   0  0  0  0  0  0  0  0  0  0  0  0
    4.6190    2.7452    0.4371 C   0  0  0  0  0  0  0  0  0  0  0  0
   -0.4239    0.0384    0.9020 H   0  0  0  0  0  0  0  0  0  0  0  0
    1.5805   -1.5341    0.7556 H   0  0  0  0  0  0  0  0  0  0  0  0
   -1.1554   -2.9791   -1.3397 H   0  0  0  0  0  0  0  0  0  0  0  0
   -3.3110   -1.4021   -0.9511 H   0  0  0  0  0  0  0  0  0  0  0  0
    1.0018   -2.1781   -2.1737 H   0  0  0  0  0  0  0  0  0  0  0  0
    1.2198   -3.3202   -0.8617 H   0  0  0  0  0  0  0  0  0  0  0  0
    3.3990   -1.3043   -1.6929 H   0  0  0  0  0  0  0  0  0  0  0  0
   -2.0876   -1.2565   -2.8823 H   0  0  0  0  0  0  0  0  0  0  0  0
   -1.7216    0.4500   -2.6519 H   0  0  0  0  0  0  0  0  0  0  0  0
   -0.4353   -0.7023   -2.9788 H   0  0  0  0  0  0  0  0  0  0  0  0
   -2.2550   -0.8305    1.8526 H   0  0  0  0  0  0  0  0  0  0  0  0
   -3.7695   -1.5902    1.4277 H   0  0  0  0  0  0  0  0  0  0  0  0
    0.8338    1.5094   -2.2368 H   0  0  0  0  0  0  0  0  0  0  0  0
    2.5253    1.2294   -1.9157 H   0  0  0  0  0  0  0  0  0  0  0  0
    1.5636   -0.0283   -2.6632 H   0  0  0  0  0  0  0  0  0  0  0  0
   -2.5889   -3.5283    0.4307 H   0  0  0  0  0  0  0  0  0  0  0  0
    5.0842   -0.4189    0.1146 H   0  0  0  0  0  0  0  0  0  0  0  0
    3.5793   -2.9689    0.8725 H   0  0  0  0  0  0  0  0  0  0  0  0
    3.3814   -3.5773   -0.7820 H   0  0  0  0  0  0  0  0  0  0  0  0
    4.8822   -2.7945   -0.3135 H   0  0  0  0  0  0  0  0  0  0  0  0
   -5.1288    0.2596    0.8106 H   0  0  0  0  0  0  0  0  0  0  0  0
   -5.2110    0.0544   -0.9521 H   0  0  0  0  0  0  0  0  0  0  0  0
   -5.1701    1.6669   -0.2555 H   0  0  0  0  0  0  0  0  0  0  0  0
   -2.0092   -4.3176    2.3371 H   0  0  0  0  0  0  0  0  0  0  0  0
   -3.6501    4.4204    1.1139 H   0  0  0  0  0  0  0  0  0  0  0  0
   -2.2360    3.4918    1.6349 H   0  0  0  0  0  0  0  0  0  0  0  0
   -3.8761    2.7696    1.7102 H   0  0  0  0  0  0  0  0  0  0  0  0
    5.1853    3.4810    1.0158 H   0  0  0  0  0  0  0  0  0  0  0  0
    3.7646    3.2586   -0.0181 H   0  0  0  0  0  0  0  0  0  0  0  0
    5.2786    2.3493   -0.3431 H   0  0  0  0  0  0  0  0  0  0  0  0
  1 11  1  0  0  0  0
  1 21  1  0  0  0  0
  2 17  2  0  0  0  0
  3 21  1  0  0  0  0
  3 52  1  0  0  0  0
  4 20  2  0  0  0  0
  5 22  1  0  0  0  0
  5 27  1  0  0  0  0
  6 24  1  0  0  0  0
  6 28  1  0  0  0  0
  7  8  1  0  0  0  0
  7 11  1  0  0  0  0
  7 12  1  0  0  0  0
  7 15  1  0  0  0  0
  8  9  1  0  0  0  0
  8 17  1  0  0  0  0
  8 29  1  0  0  0  0
  9 10  1  0  0  0  0
  9 19  1  0  0  0  0
  9 20  1  0  0  0  0
 10 13  1  0  0  0  0
 10 14  1  0  0  0  0
 10 30  1  0  0  0  0
 11 13  1  0  0  0  0
 11 31  1  0  0  0  0
 12 16  1  0  0  0  0
 12 18  1  0  0  0  0
 12 32  1  0  0  0  0
 13 33  1  0  0  0  0
 13 34  1  0  0  0  0
 14 23  1  0  0  0  0
 14 25  1  0  0  0  0
 14 35  1  0  0  0  0
 15 36  1  0  0  0  0
 15 37  1  0  0  0  0
 15 38  1  0  0  0  0
 16 21  1  0  0  0  0
 16 39  1  0  0  0  0
 16 40  1  0  0  0  0
 17 22  1  0  0  0  0
 18 22  2  0  0  0  0
 18 26  1  0  0  0  0
 19 41  1  0  0  0  0
 19 42  1  0  0  0  0
 19 43  1  0  0  0  0
 20 24  1  0  0  0  0
 21 44  1  0  0  0  0
 23 24  2  0  0  0  0
 23 45  1  0  0  0  0
 25 46  1  0  0  0  0
 25 47  1  0  0  0  0
 25 48  1  0  0  0  0
 26 49  1  0  0  0  0
 26 50  1  0  0  0  0
 26 51  1  0  0  0  0
 27 53  1  0  0  0  0
 27 54  1  0  0  0  0
 27 55  1  0  0  0  0
 28 56  1  0  0  0  0
 28 57  1  0  0  0  0
 28 58  1  0  0  0  0
M  END
> <PUBCHEM_COMPOUND_CID>
72964

> <PUBCHEM_CONFORMER_RMSD>
0.8

> <PUBCHEM_CONFORMER_DIVERSEORDER>
1

> <PUBCHEM_MMFF94_PARTIAL_CHARGES>
23
1 -0.56
11 0.28
12 0.14
14 0.14
17 0.49
18 -0.28
2 -0.57
20 0.49
21 0.56
22 0.09
23 -0.29
24 0.09
26 0.14
27 0.28
28 0.28
3 -0.68
4 -0.57
45 0.15
5 -0.36
52 0.4
6 -0.36
8 0.06
9 0.06

> <PUBCHEM_EFFECTIVE_ROTOR_COUNT>
3

> <PUBCHEM_PHARMACOPHORE_FEATURES>
11
1 1 acceptor
1 2 acceptor
1 3 acceptor
1 3 donor
1 4 acceptor
1 5 acceptor
1 6 acceptor
6 1 7 11 12 16 21 rings
6 7 8 12 17 18 22 rings
6 7 8 9 10 11 13 rings
6 9 10 14 20 23 24 rings

> <PUBCHEM_HEAVY_ATOM_COUNT>
28

> <PUBCHEM_ATOM_DEF_STEREO_COUNT>
7

> <PUBCHEM_ATOM_UDEF_STEREO_COUNT>
1

> <PUBCHEM_BOND_DEF_STEREO_COUNT>
0

> <PUBCHEM_BOND_UDEF_STEREO_COUNT>
0

> <PUBCHEM_ISOTOPIC_ATOM_COUNT>
0

> <PUBCHEM_COMPONENT_COUNT>
1

> <PUBCHEM_CACTVS_TAUTO_COUNT>
24

> <PUBCHEM_CONFORMER_ID>
00011D0400000001

> <PUBCHEM_MMFF94_ENERGY>
102.3472

> <PUBCHEM_FEATURE_SELFOVERLAP>
56.036

> <PUBCHEM_SHAPE_FINGERPRINT>
10366900 7 18262246495094522616
10863032 1 18336266829072855286
10906281 52 18338507539866843645
10948715 1 18261960750993958453
1100329 8 16681755000359763003
11370993 70 18338805609995597713
12403260 363 18189067541009110495
12553582 1 17765135186212477967
12633257 1 18123194773087019528
12788726 201 18266197062275135521
13140716 1 18265329697576762529
13224815 77 18336267847275458228
13583140 156 18260544481438850482
14178342 30 18202284667561078242
14223421 5 18337388236681328514
14466204 15 17904489854460085898
14787075 74 18335150778053621093
15209289 33 18195809806319167446
15295992 7 18264762327969988611
16945 1 17908132188411598495
19049666 15 18409729569112323954
19591789 44 18264211494129631389
19784866 170 18266176137210221856
20600515 1 17488746662377477007
20691752 17 18199470050684750453
21033648 29 17986119723446690116
23419403 2 17172881246492443319
23558518 356 18411135861748300421
23559900 14 18342170081807762982
238 59 17330594292390703812
2748010 2 18336536140686652062
335352 9 17901669589791428244
3380486 145 18122337978994732739
350125 39 18335980990414932564
35225 105 17274819173170081811
392239 28 18267854151163410731
4340502 62 18343584071114719783
469060 322 17612042481458840642
5104073 3 18264489657676131288
81228 2 18343023251016768813
9709674 26 18408887338942089870
9981440 41 18189639179929493066

> <PUBCHEM_SHAPE_MULTIPOLES>
541.01
7.58
4.03
1.54
3.09
0.2
-0.09
3.42
1.67
-0.76
1.59
-0.45
-0.64
1.31

> <PUBCHEM_SHAPE_SELFOVERLAP>
1163.698

> <PUBCHEM_SHAPE_VOLUME>
292.6

> <PUBCHEM_COORDINATE_TYPE>
2
5
10

$$$$

