441836
  -OEChem-07051212562D

 78 81  0     1  0  0  0  0  0999 V2000
    7.9174   -2.3134    0.0000 O   0  0  0  0  0  0  0  0  0  0  0  0
   10.1248    0.6311    0.0000 O   0  0  0  0  0  0  0  0  0  0  0  0
    2.5405   -1.2742    0.0000 O   0  0  0  0  0  0  0  0  0  0  0  0
    8.8172    2.6366    0.0000 O   0  0  0  0  0  0  0  0  0  0  0  0
    6.1733   -4.3827    0.0000 O   0  0  0  0  0  0  0  0  0  0  0  0
    2.5244   -3.3658    0.0000 O   0  0  0  0  0  0  0  0  0  0  0  0
   10.1063    3.7934    0.0000 O   0  0  0  0  0  0  0  0  0  0  0  0
    7.9174   -0.3134    0.0000 C   0  0  1  0  0  0  0  0  0  0  0  0
    7.9174   -1.3134    0.0000 C   0  0  1  0  0  0  0  0  0  0  0  0
    8.8637   -0.0087    0.0000 C   0  0  2  0  0  0  0  0  0  0  0  0
    6.1854   -1.3134    0.0000 C   0  0  2  0  0  0  0  0  0  0  0  0
    5.2754   -1.8203    0.0000 C   0  0  2  0  0  0  0  0  0  0  0  0
    7.0514    0.1866    0.0000 C   0  0  0  0  0  0  0  0  0  0  0  0
    7.0514   -1.8134    0.0000 C   0  0  0  0  0  0  0  0  0  0  0  0
    8.8637   -1.6182    0.0000 C   0  0  0  0  0  0  0  0  0  0  0  0
    9.4473   -0.8134    0.0000 C   0  0  0  0  0  0  0  0  0  0  0  0
    6.1854   -0.3134    0.0000 C   0  0  0  0  0  0  0  0  0  0  0  0
    5.2674   -2.8619    0.0000 C   0  0  1  0  0  0  0  0  0  0  0  0
    9.1743    0.9418    0.0000 C   0  0  2  0  0  0  0  0  0  0  0  0
    7.9174    0.6866    0.0000 C   0  0  0  0  0  0  0  0  0  0  0  0
    4.3486   -1.2562    0.0000 C   0  0  0  0  0  0  0  0  0  0  0  0
    7.0675   -2.8550    0.0000 C   0  0  0  0  0  0  0  0  0  0  0  0
    4.3319   -3.4116    0.0000 C   0  0  0  0  0  0  0  0  0  0  0  0
    5.2831   -0.8203    0.0000 C   0  0  0  0  0  0  0  0  0  0  0  0
    6.1694   -3.3827    0.0000 C   0  0  0  0  0  0  0  0  0  0  0  0
    3.4007   -1.7842    0.0000 C   0  0  1  0  0  0  0  0  0  0  0  0
    9.4850    1.8923    0.0000 C   0  0  1  0  0  0  0  0  0  0  0  0
    3.3923   -2.8691    0.0000 C   0  0  2  0  0  0  0  0  0  0  0  0
    8.2238    1.2525    0.0000 C   0  0  0  0  0  0  0  0  0  0  0  0
   10.4635    2.0986    0.0000 C   0  0  0  0  0  0  0  0  0  0  0  0
   10.7742    3.0491    0.0000 C   0  0  1  0  0  0  0  0  0  0  0  0
   11.7527    3.2553    0.0000 C   0  0  0  0  0  0  0  0  0  0  0  0
   12.0633    4.2058    0.0000 C   0  0  0  0  0  0  0  0  0  0  0  0
   12.4205    2.5110    0.0000 C   0  0  0  0  0  0  0  0  0  0  0  0
    9.7034    0.1232    0.0000 H   0  0  0  0  0  0  0  0  0  0  0  0
    6.9215   -0.8884    0.0000 H   0  0  0  0  0  0  0  0  0  0  0  0
    7.4500    0.6615    0.0000 H   0  0  0  0  0  0  0  0  0  0  0  0
    6.6529    0.6615    0.0000 H   0  0  0  0  0  0  0  0  0  0  0  0
    8.6126   -2.1851    0.0000 H   0  0  0  0  0  0  0  0  0  0  0  0
    9.4010   -1.9274    0.0000 H   0  0  0  0  0  0  0  0  0  0  0  0
    9.9081   -1.2282    0.0000 H   0  0  0  0  0  0  0  0  0  0  0  0
    9.9081   -0.3987    0.0000 H   0  0  0  0  0  0  0  0  0  0  0  0
    5.9733    0.2692    0.0000 H   0  0  0  0  0  0  0  0  0  0  0  0
    5.5748   -0.4211    0.0000 H   0  0  0  0  0  0  0  0  0  0  0  0
    5.2706   -3.7119    0.0000 H   0  0  0  0  0  0  0  0  0  0  0  0
    8.5374    0.6866    0.0000 H   0  0  0  0  0  0  0  0  0  0  0  0
    7.9174    1.3066    0.0000 H   0  0  0  0  0  0  0  0  0  0  0  0
    7.2974    0.6866    0.0000 H   0  0  0  0  0  0  0  0  0  0  0  0
    4.7568   -0.7896    0.0000 H   0  0  0  0  0  0  0  0  0  0  0  0
    3.9586   -0.7742    0.0000 H   0  0  0  0  0  0  0  0  0  0  0  0
    7.6080   -3.1587    0.0000 H   0  0  0  0  0  0  0  0  0  0  0  0
    3.9346   -3.8876    0.0000 H   0  0  0  0  0  0  0  0  0  0  0  0
    4.7329   -3.8845    0.0000 H   0  0  0  0  0  0  0  0  0  0  0  0
    5.9031   -0.8251    0.0000 H   0  0  0  0  0  0  0  0  0  0  0  0
    5.2879   -0.2003    0.0000 H   0  0  0  0  0  0  0  0  0  0  0  0
    4.6631   -0.8155    0.0000 H   0  0  0  0  0  0  0  0  0  0  0  0
    2.8608   -2.0890    0.0000 H   0  0  0  0  0  0  0  0  0  0  0  0
    8.4544   -2.6234    0.0000 H   0  0  0  0  0  0  0  0  0  0  0  0
    8.8783    1.7645    0.0000 H   0  0  0  0  0  0  0  0  0  0  0  0
    2.8572   -2.5560    0.0000 H   0  0  0  0  0  0  0  0  0  0  0  0
    8.4164    1.8418    0.0000 H   0  0  0  0  0  0  0  0  0  0  0  0
    7.6345    1.4451    0.0000 H   0  0  0  0  0  0  0  0  0  0  0  0
    8.0312    0.6632    0.0000 H   0  0  0  0  0  0  0  0  0  0  0  0
   10.5863    1.0452    0.0000 H   0  0  0  0  0  0  0  0  0  0  0  0
   10.4841    1.4789    0.0000 H   0  0  0  0  0  0  0  0  0  0  0  0
   11.0773    2.0112    0.0000 H   0  0  0  0  0  0  0  0  0  0  0  0
    2.0000   -1.5779    0.0000 H   0  0  0  0  0  0  0  0  0  0  0  0
    9.0098    3.2260    0.0000 H   0  0  0  0  0  0  0  0  0  0  0  0
    2.5220   -3.9858    0.0000 H   0  0  0  0  0  0  0  0  0  0  0  0
   10.9668    3.6384    0.0000 H   0  0  0  0  0  0  0  0  0  0  0  0
   11.5601    2.6660    0.0000 H   0  0  0  0  0  0  0  0  0  0  0  0
   10.2989    4.3827    0.0000 H   0  0  0  0  0  0  0  0  0  0  0  0
   12.6526    4.0132    0.0000 H   0  0  0  0  0  0  0  0  0  0  0  0
   12.2559    4.7951    0.0000 H   0  0  0  0  0  0  0  0  0  0  0  0
   11.4740    4.3984    0.0000 H   0  0  0  0  0  0  0  0  0  0  0  0
   11.9590    2.0969    0.0000 H   0  0  0  0  0  0  0  0  0  0  0  0
   12.8346    2.0495    0.0000 H   0  0  0  0  0  0  0  0  0  0  0  0
   12.8820    2.9250    0.0000 H   0  0  0  0  0  0  0  0  0  0  0  0
  9  1  1  6  0  0  0
  1 58  1  0  0  0  0
 19  2  1  1  0  0  0
  2 64  1  0  0  0  0
 26  3  1  1  0  0  0
  3 67  1  0  0  0  0
 27  4  1  6  0  0  0
  4 68  1  0  0  0  0
  5 25  2  0  0  0  0
 28  6  1  1  0  0  0
  6 69  1  0  0  0  0
 31  7  1  6  0  0  0
  7 72  1  0  0  0  0
  8  9  1  0  0  0  0
  8 10  1  0  0  0  0
  8 13  1  0  0  0  0
  8 20  1  1  0  0  0
  9 14  1  0  0  0  0
  9 15  1  0  0  0  0
 10 16  1  0  0  0  0
 10 19  1  0  0  0  0
 10 35  1  6  0  0  0
 11 12  1  0  0  0  0
 11 14  1  0  0  0  0
 11 17  1  0  0  0  0
 11 36  1  6  0  0  0
 12 18  1  0  0  0  0
 12 21  1  0  0  0  0
 12 24  1  1  0  0  0
 13 17  1  0  0  0  0
 13 37  1  0  0  0  0
 13 38  1  0  0  0  0
 14 22  2  0  0  0  0
 15 16  1  0  0  0  0
 15 39  1  0  0  0  0
 15 40  1  0  0  0  0
 16 41  1  0  0  0  0
 16 42  1  0  0  0  0
 17 43  1  0  0  0  0
 17 44  1  0  0  0  0
 18 23  1  0  0  0  0
 18 25  1  0  0  0  0
 18 45  1  1  0  0  0
 19 27  1  0  0  0  0
 19 29  1  0  0  0  0
 20 46  1  0  0  0  0
 20 47  1  0  0  0  0
 20 48  1  0  0  0  0
 21 26  1  0  0  0  0
 21 49  1  0  0  0  0
 21 50  1  0  0  0  0
 22 25  1  0  0  0  0
 22 51  1  0  0  0  0
 23 28  1  0  0  0  0
 23 52  1  0  0  0  0
 23 53  1  0  0  0  0
 24 54  1  0  0  0  0
 24 55  1  0  0  0  0
 24 56  1  0  0  0  0
 26 28  1  0  0  0  0
 26 57  1  0  0  0  0
 27 30  1  0  0  0  0
 27 59  1  0  0  0  0
 28 60  1  0  0  0  0
 29 61  1  0  0  0  0
 29 62  1  0  0  0  0
 29 63  1  0  0  0  0
 30 31  1  0  0  0  0
 30 65  1  0  0  0  0
 30 66  1  0  0  0  0
 31 32  1  0  0  0  0
 31 70  1  0  0  0  0
 32 33  1  0  0  0  0
 32 34  1  0  0  0  0
 32 71  1  0  0  0  0
 33 73  1  0  0  0  0
 33 74  1  0  0  0  0
 33 75  1  0  0  0  0
 34 76  1  0  0  0  0
 34 77  1  0  0  0  0
 34 78  1  0  0  0  0
M  END
> <PUBCHEM_COMPOUND_CID>
441836

> <PUBCHEM_COMPOUND_CANONICALIZED>
1

> <PUBCHEM_CACTVS_COMPLEXITY>
856

> <PUBCHEM_CACTVS_HBOND_ACCEPTOR>
7

> <PUBCHEM_CACTVS_HBOND_DONOR>
6

> <PUBCHEM_CACTVS_ROTATABLE_BOND>
5

> <PUBCHEM_CACTVS_SUBSKEYS>
AAADcfB4OAAAAAAAAAAAAAAAAAAAAYAAAAAwYIAAAAAAAGCAAAAAGgAACAAAD1SggAICAAAAAgCIAqBSAAAAAAAgAAAACAEAAEgBFBIAAQAAUAAFgAAJEQPK7PTPgAAAAAAAAADAAAYAADCAAYAADAAAAA==

> <PUBCHEM_IUPAC_OPENEYE_NAME>
(2S,3R,5R,9R,10R,13R,14S,17S)-2,3,14-trihydroxy-10,13-dimethyl-17-[(1R,2R,4S)-1,2,4-trihydroxy-1,5-dimethyl-hexyl]-2,3,4,5,9,11,12,15,16,17-decahydro-1H-cyclopenta[a]phenanthren-6-one

> <PUBCHEM_IUPAC_CAS_NAME>
(2S,3R,5R,9R,10R,13R,14S,17S)-2,3,14-trihydroxy-10,13-dimethyl-17-[(2R,3R,5S)-2,3,5-trihydroxy-6-methylheptan-2-yl]-2,3,4,5,9,11,12,15,16,17-decahydro-1H-cyclopenta[a]phenanthren-6-one

> <PUBCHEM_IUPAC_NAME>
(2S,3R,5R,9R,10R,13R,14S,17S)-2,3,14-trihydroxy-10,13-dimethyl-17-[(2R,3R,5S)-2,3,5-trihydroxy-6-methylheptan-2-yl]-2,3,4,5,9,11,12,15,16,17-decahydro-1H-cyclopenta[a]phenanthren-6-one

> <PUBCHEM_IUPAC_SYSTEMATIC_NAME>
(2S,3R,5R,9R,10R,13R,14S,17S)-10,13-dimethyl-17-[(2R,3R,5S)-6-methyl-2,3,5-tris(oxidanyl)heptan-2-yl]-2,3,14-tris(oxidanyl)-2,3,4,5,9,11,12,15,16,17-decahydro-1H-cyclopenta[a]phenanthren-6-one

> <PUBCHEM_IUPAC_TRADITIONAL_NAME>
(2S,3R,5R,9R,10R,13R,14S,17S)-2,3,14-trihydroxy-10,13-dimethyl-17-[(1R,2R,4S)-1,2,4-trihydroxy-1,5-dimethyl-hexyl]-2,3,4,5,9,11,12,15,16,17-decahydro-1H-cyclopenta[a]phenanthren-6-one

> <PUBCHEM_IUPAC_INCHI>
InChI=1S/C27H44O7/c1-14(2)18(28)12-23(32)26(5,33)22-7-9-27(34)16-10-19(29)17-11-20(30)21(31)13-24(17,3)15(16)6-8-25(22,27)4/h10,14-15,17-18,20-23,28,30-34H,6-9,11-13H2,1-5H3/t15-,17-,18-,20+,21-,22-,23+,24+,25+,26+,27+/m0/s1

> <PUBCHEM_IUPAC_INCHIKEY>
UMMBJCYNGLCGEF-OAUIFJKNSA-N

> <PUBCHEM_XLOGP3_AA>
0.9

> <PUBCHEM_EXACT_MASS>
480.308704

> <PUBCHEM_MOLECULAR_FORMULA>
C27H44O7

> <PUBCHEM_MOLECULAR_WEIGHT>
480.63406

> <PUBCHEM_OPENEYE_CAN_SMILES>
CC(C)C(CC(C(C)(C1CCC2(C1(CCC3C2=CC(=O)C4C3(CC(C(C4)O)O)C)C)O)O)O)O

> <PUBCHEM_OPENEYE_ISO_SMILES>
CC(C)[C@H](C[C@H]([C@@](C)([C@H]1CC[C@@]2([C@@]1(CC[C@H]3C2=CC(=O)[C@H]4[C@@]3(C[C@@H]([C@@H](C4)O)O)C)C)O)O)O)O

> <PUBCHEM_CACTVS_TPSA>
138

> <PUBCHEM_MONOISOTOPIC_WEIGHT>
480.308704

> <PUBCHEM_TOTAL_CHARGE>
0

> <PUBCHEM_HEAVY_ATOM_COUNT>
34

> <PUBCHEM_ATOM_DEF_STEREO_COUNT>
11

> <PUBCHEM_ATOM_UDEF_STEREO_COUNT>
0

> <PUBCHEM_BOND_DEF_STEREO_COUNT>
0

> <PUBCHEM_BOND_UDEF_STEREO_COUNT>
0

> <PUBCHEM_ISOTOPIC_ATOM_COUNT>
0

> <PUBCHEM_COMPONENT_COUNT>
1

> <PUBCHEM_CACTVS_TAUTO_COUNT>
5

> <PUBCHEM_COORDINATE_TYPE>
1
5
255

> <PUBCHEM_BONDANNOTATIONS>
9  1  6
10  35  6
11  36  6
12  24  5
18  45  5
19  2  5
26  3  5
27  4  6
28  6  5
31  7  6
8  20  5

$$$$

