128959
  -OEChem-07051213003D

 72 76  0     1  0  0  0  0  0999 V2000
    3.2133   -0.4227   -0.5914 O   0  0  0  0  0  0  0  0  0  0  0  0
    1.4885    0.9671    0.1422 O   0  0  0  0  0  0  0  0  0  0  0  0
    5.5282    0.5123    2.6695 O   0  0  0  0  0  0  0  0  0  0  0  0
    6.7428   -0.7033    0.3451 O   0  0  0  0  0  0  0  0  0  0  0  0
    3.3077    2.2760    1.8699 O   0  0  0  0  0  0  0  0  0  0  0  0
    4.1091   -1.8531   -2.7610 O   0  0  0  0  0  0  0  0  0  0  0  0
    1.2109    0.7099   -2.1285 O   0  0  0  0  0  0  0  0  0  0  0  0
    0.1308    4.0316    0.1703 O   0  0  0  0  0  0  0  0  0  0  0  0
    0.8716   -3.7829    1.7594 O   0  0  0  0  0  0  0  0  0  0  0  0
    0.9629   -5.0724   -0.2744 O   0  0  0  0  0  0  0  0  0  0  0  0
   -5.7745   -1.9577    0.6541 O   0  0  0  0  0  0  0  0  0  0  0  0
   -6.8938    0.5813    0.6135 O   0  0  0  0  0  0  0  0  0  0  0  0
    1.1886    5.7239   -0.9934 O   0  0  0  0  0  0  0  0  0  0  0  0
    5.0340    0.6756    1.3392 C   0  0  1  0  0  0  0  0  0  0  0  0
    5.3376   -0.6051    0.5615 C   0  0  1  0  0  0  0  0  0  0  0  0
    3.5313    0.9523    1.3849 C   0  0  2  0  0  0  0  0  0  0  0  0
    4.6165   -0.6045   -0.7884 C   0  0  1  0  0  0  0  0  0  0  0  0
    2.9025    0.8386   -0.0038 C   0  0  1  0  0  0  0  0  0  0  0  0
    4.8095   -1.9222   -1.5324 C   0  0  0  0  0  0  0  0  0  0  0  0
   -0.6848    1.0328   -0.7189 C   0  0  0  0  0  0  0  0  0  0  0  0
    0.7644    0.8828   -1.0051 C   0  0  0  0  0  0  0  0  0  0  0  0
   -1.4591   -0.0796   -0.4398 C   0  0  0  0  0  0  0  0  0  0  0  0
   -1.2245    2.3038   -0.7429 C   0  0  0  0  0  0  0  0  0  0  0  0
   -2.8295    0.0708   -0.1720 C   0  0  0  0  0  0  0  0  0  0  0  0
   -3.4005    1.3657   -0.1920 C   0  0  0  0  0  0  0  0  0  0  0  0
   -0.8308   -1.3954   -0.4319 C   0  0  0  0  0  0  0  0  0  0  0  0
   -2.5843    2.4718   -0.4793 C   0  0  0  0  0  0  0  0  0  0  0  0
   -0.3988    3.5132   -1.0424 C   0  0  0  0  0  0  0  0  0  0  0  0
   -3.6457   -1.0353    0.1152 C   0  0  0  0  0  0  0  0  0  0  0  0
   -4.7708    1.5161    0.0757 C   0  0  0  0  0  0  0  0  0  0  0  0
   -0.2920   -1.8874    0.7530 C   0  0  0  0  0  0  0  0  0  0  0  0
   -0.7820   -2.1381   -1.6186 C   0  0  0  0  0  0  0  0  0  0  0  0
   -5.0054   -0.8673    0.3789 C   0  0  0  0  0  0  0  0  0  0  0  0
   -5.5669    0.4059    0.3591 C   0  0  0  0  0  0  0  0  0  0  0  0
    0.2925   -3.1366    0.7110 C   0  0  0  0  0  0  0  0  0  0  0  0
    0.3447   -3.8730   -0.4503 C   0  0  0  0  0  0  0  0  0  0  0  0
   -0.1845   -3.4006   -1.6338 C   0  0  0  0  0  0  0  0  0  0  0  0
    1.2936   -5.0089    1.1278 C   0  0  0  0  0  0  0  0  0  0  0  0
    0.9130    5.1472    0.0499 C   0  0  0  0  0  0  0  0  0  0  0  0
   -5.8844   -2.3443    2.0224 C   0  0  0  0  0  0  0  0  0  0  0  0
   -7.7796    0.5332   -0.5032 C   0  0  0  0  0  0  0  0  0  0  0  0
    1.3977    5.5786    1.4008 C   0  0  0  0  0  0  0  0  0  0  0  0
    5.5710    1.5317    0.9123 H   0  0  0  0  0  0  0  0  0  0  0  0
    5.0361   -1.4743    1.1590 H   0  0  0  0  0  0  0  0  0  0  0  0
    3.0401    0.2697    2.0886 H   0  0  0  0  0  0  0  0  0  0  0  0
    4.9852    0.2057   -1.4323 H   0  0  0  0  0  0  0  0  0  0  0  0
    3.2508    1.6536   -0.6532 H   0  0  0  0  0  0  0  0  0  0  0  0
    4.4040   -2.7661   -0.9641 H   0  0  0  0  0  0  0  0  0  0  0  0
    5.8643   -2.1155   -1.7472 H   0  0  0  0  0  0  0  0  0  0  0  0
    6.4804    0.3248    2.6053 H   0  0  0  0  0  0  0  0  0  0  0  0
    7.0182    0.0601   -0.1907 H   0  0  0  0  0  0  0  0  0  0  0  0
    3.7340    2.8983    1.2560 H   0  0  0  0  0  0  0  0  0  0  0  0
    3.1734   -1.6836   -2.5568 H   0  0  0  0  0  0  0  0  0  0  0  0
   -3.0162    3.4713   -0.4935 H   0  0  0  0  0  0  0  0  0  0  0  0
    0.4103    3.2906   -1.7474 H   0  0  0  0  0  0  0  0  0  0  0  0
   -1.0245    4.2789   -1.5199 H   0  0  0  0  0  0  0  0  0  0  0  0
   -3.2536   -2.0492    0.1410 H   0  0  0  0  0  0  0  0  0  0  0  0
   -5.2245    2.5057    0.0646 H   0  0  0  0  0  0  0  0  0  0  0  0
   -0.3226   -1.3209    1.6780 H   0  0  0  0  0  0  0  0  0  0  0  0
   -1.2053   -1.7447   -2.5400 H   0  0  0  0  0  0  0  0  0  0  0  0
   -0.1404   -3.9834   -2.5467 H   0  0  0  0  0  0  0  0  0  0  0  0
    0.8141   -5.8509    1.6402 H   0  0  0  0  0  0  0  0  0  0  0  0
    2.3802   -5.1032    1.2364 H   0  0  0  0  0  0  0  0  0  0  0  0
   -4.9016   -2.6078    2.4263 H   0  0  0  0  0  0  0  0  0  0  0  0
   -6.3315   -1.5403    2.6156 H   0  0  0  0  0  0  0  0  0  0  0  0
   -6.5328   -3.2228    2.0792 H   0  0  0  0  0  0  0  0  0  0  0  0
   -8.7994    0.6825   -0.1382 H   0  0  0  0  0  0  0  0  0  0  0  0
   -7.5423    1.3299   -1.2154 H   0  0  0  0  0  0  0  0  0  0  0  0
   -7.7240   -0.4418   -0.9976 H   0  0  0  0  0  0  0  0  0  0  0  0
    1.9550    4.7669    1.8736 H   0  0  0  0  0  0  0  0  0  0  0  0
    0.5477    5.8735    2.0211 H   0  0  0  0  0  0  0  0  0  0  0  0
    2.0655    6.4377    1.2892 H   0  0  0  0  0  0  0  0  0  0  0  0
  1 17  1  0  0  0  0
  1 18  1  0  0  0  0
  2 18  1  0  0  0  0
  2 21  1  0  0  0  0
  3 14  1  0  0  0  0
  3 50  1  0  0  0  0
  4 15  1  0  0  0  0
  4 51  1  0  0  0  0
  5 16  1  0  0  0  0
  5 52  1  0  0  0  0
  6 19  1  0  0  0  0
  6 53  1  0  0  0  0
  7 21  2  0  0  0  0
  8 28  1  0  0  0  0
  8 39  1  0  0  0  0
  9 35  1  0  0  0  0
  9 38  1  0  0  0  0
 10 36  1  0  0  0  0
 10 38  1  0  0  0  0
 11 33  1  0  0  0  0
 11 40  1  0  0  0  0
 12 34  1  0  0  0  0
 12 41  1  0  0  0  0
 13 39  2  0  0  0  0
 14 15  1  0  0  0  0
 14 16  1  0  0  0  0
 14 43  1  0  0  0  0
 15 17  1  0  0  0  0
 15 44  1  0  0  0  0
 16 18  1  0  0  0  0
 16 45  1  0  0  0  0
 17 19  1  0  0  0  0
 17 46  1  0  0  0  0
 18 47  1  0  0  0  0
 19 48  1  0  0  0  0
 19 49  1  0  0  0  0
 20 21  1  0  0  0  0
 20 22  1  0  0  0  0
 20 23  2  0  0  0  0
 22 24  2  0  0  0  0
 22 26  1  0  0  0  0
 23 27  1  0  0  0  0
 23 28  1  0  0  0  0
 24 25  1  0  0  0  0
 24 29  1  0  0  0  0
 25 27  2  0  0  0  0
 25 30  1  0  0  0  0
 26 31  2  0  0  0  0
 26 32  1  0  0  0  0
 27 54  1  0  0  0  0
 28 55  1  0  0  0  0
 28 56  1  0  0  0  0
 29 33  2  0  0  0  0
 29 57  1  0  0  0  0
 30 34  2  0  0  0  0
 30 58  1  0  0  0  0
 31 35  1  0  0  0  0
 31 59  1  0  0  0  0
 32 37  2  0  0  0  0
 32 60  1  0  0  0  0
 33 34  1  0  0  0  0
 35 36  2  0  0  0  0
 36 37  1  0  0  0  0
 37 61  1  0  0  0  0
 38 62  1  0  0  0  0
 38 63  1  0  0  0  0
 39 42  1  0  0  0  0
 40 64  1  0  0  0  0
 40 65  1  0  0  0  0
 40 66  1  0  0  0  0
 41 67  1  0  0  0  0
 41 68  1  0  0  0  0
 41 69  1  0  0  0  0
 42 70  1  0  0  0  0
 42 71  1  0  0  0  0
 42 72  1  0  0  0  0
M  END
> <PUBCHEM_COMPOUND_CID>
128959

> <PUBCHEM_CONFORMER_RMSD>
1.2

> <PUBCHEM_CONFORMER_DIVERSEORDER>
1
55
58
19
67
54
40
15
48
34
41
32
57
14
47
39
62
28
51
56
30
46
50
61
6
27
9
60
63
45
64
44
31
4
16
36
21
52
65
38
3
66
23
20
49
42
7
13
59
5
53
29
17
33
43
37
8
35
10
18
24
2
11
22
25
26
12

> <PUBCHEM_MMFF94_PARTIAL_CHARGES>
48
1 -0.56
10 -0.36
11 -0.36
12 -0.36
13 -0.57
14 0.28
15 0.28
16 0.28
17 0.28
18 0.56
19 0.28
2 -0.43
20 0.09
21 0.63
23 -0.14
27 -0.15
28 0.42
29 -0.15
3 -0.68
30 -0.15
31 -0.15
32 -0.15
33 0.08
34 0.08
35 0.08
36 0.08
37 -0.15
38 0.56
39 0.66
4 -0.68
40 0.28
41 0.28
42 0.06
5 -0.68
50 0.4
51 0.4
52 0.4
53 0.4
54 0.15
57 0.15
58 0.15
59 0.15
6 -0.68
60 0.15
61 0.15
7 -0.57
8 -0.43
9 -0.36

> <PUBCHEM_EFFECTIVE_ROTOR_COUNT>
11.8

> <PUBCHEM_PHARMACOPHORE_FEATURES>
20
1 1 acceptor
1 10 acceptor
1 11 acceptor
1 12 acceptor
1 13 acceptor
1 3 acceptor
1 3 donor
1 4 acceptor
1 4 donor
1 5 acceptor
1 5 donor
1 6 acceptor
1 6 donor
1 7 acceptor
1 9 acceptor
5 9 10 35 36 38 rings
6 1 14 15 16 17 18 rings
6 20 22 23 24 25 27 rings
6 24 25 29 30 33 34 rings
6 26 31 32 35 36 37 rings

> <PUBCHEM_HEAVY_ATOM_COUNT>
42

> <PUBCHEM_ATOM_DEF_STEREO_COUNT>
5

> <PUBCHEM_ATOM_UDEF_STEREO_COUNT>
0

> <PUBCHEM_BOND_DEF_STEREO_COUNT>
0

> <PUBCHEM_BOND_UDEF_STEREO_COUNT>
0

> <PUBCHEM_ISOTOPIC_ATOM_COUNT>
0

> <PUBCHEM_COMPONENT_COUNT>
1

> <PUBCHEM_CACTVS_TAUTO_COUNT>
1

> <PUBCHEM_CONFORMER_ID>
0001F7BF00000001

> <PUBCHEM_MMFF94_ENERGY>
149.381

> <PUBCHEM_FEATURE_SELFOVERLAP>
101.695

> <PUBCHEM_SHAPE_FINGERPRINT>
10006869 2 18193567889752504287
10290309 65 18339943592326458736
11445158 3 17702948015863132733
12788726 201 18341033199801556348
13140716 1 18267579114501386445
13617811 41 18271517689241733380
14725015 67 18263362659033568598
14910700 183 18410020905202038729
14955137 171 18412541007517596133
15219462 58 17905908207259248148
16112460 7 18265055730224068761
20028762 73 18264206924897046895
21033648 29 18041294178931923569
22311459 1 18412544328107785573
3178227 256 18339349791664693841
469060 322 18267855249905652312
5265222 85 18411695470966245422
5776283 40 18338219498385933934
6004065 56 18335703806606137117

> <PUBCHEM_SHAPE_MULTIPOLES>
788.04
13.31
7.06
1.77
10.6
3.96
-0.09
-2.06
-4.09
-3.49
-0.83
-1.85
-0.58
2.27

> <PUBCHEM_SHAPE_SELFOVERLAP>
1727.871

> <PUBCHEM_SHAPE_VOLUME>
425.5

> <PUBCHEM_COORDINATE_TYPE>
2
5
10

$$$$

