439816
  -OEChem-07051212473D

 61 62  0     1  0  0  0  0  0999 V2000
   -3.0045    1.2004   -0.3370 O   0  0  0  0  0  0  0  0  0  0  0  0
    1.7826    0.5832   -2.3321 O   0  0  0  0  0  0  0  0  0  0  0  0
   -0.9200    3.8481   -1.3501 O   0  0  0  0  0  0  0  0  0  0  0  0
   -3.0306    3.2109   -1.9295 O   0  0  0  0  0  0  0  0  0  0  0  0
    3.6595    2.9162    2.4917 O   0  0  0  0  0  0  0  0  0  0  0  0
   -5.1131   -0.2753    2.4424 O   0  0  0  0  0  0  0  0  0  0  0  0
    0.6557    1.5685   -0.5589 N   0  0  0  0  0  0  0  0  0  0  0  0
    3.1230    0.9764    1.3223 N   0  0  0  0  0  0  0  0  0  0  0  0
   -4.1845   -0.6656    0.3664 N   0  0  0  0  0  0  0  0  0  0  0  0
    5.9211   -1.9331   -0.4501 N   0  0  0  0  0  0  0  0  0  0  0  0
   -6.3024   -1.6024    1.0368 N   0  0  0  0  0  0  0  0  0  0  0  0
    4.3863   -3.1441    0.8749 N   0  0  0  0  0  0  0  0  0  0  0  0
    5.6260   -4.3229   -0.6792 N   0  0  0  0  0  0  0  0  0  0  0  0
   -7.5152   -2.9631   -0.4076 N   0  0  0  0  0  0  0  0  0  0  0  0
   -0.6371    0.9899   -0.8399 C   0  0  2  0  0  0  0  0  0  0  0  0
    3.8715    1.2601    0.1167 C   0  0  2  0  0  0  0  0  0  0  0  0
   -1.7633    1.9037   -0.3451 C   0  0  1  0  0  0  0  0  0  0  0  0
    2.9927    2.0682   -0.8478 C   0  0  0  0  0  0  0  0  0  0  0  0
    4.3617   -0.0500   -0.5303 C   0  0  0  0  0  0  0  0  0  0  0  0
   -3.0115    0.1306    0.6104 C   0  0  1  0  0  0  0  0  0  0  0  0
   -0.7115   -0.3592   -0.1838 C   0  0  0  0  0  0  0  0  0  0  0  0
    1.7711    1.3103   -1.3425 C   0  0  0  0  0  0  0  0  0  0  0  0
    5.5579   -0.6867    0.1800 C   0  0  0  0  0  0  0  0  0  0  0  0
   -1.7986   -0.7458    0.4981 C   0  0  0  0  0  0  0  0  0  0  0  0
   -2.0034    3.0355   -1.2911 C   0  0  0  0  0  0  0  0  0  0  0  0
    3.0843    1.8343    2.4068 C   0  0  0  0  0  0  0  0  0  0  0  0
   -4.3151   -1.2958   -0.8603 C   0  0  0  0  0  0  0  0  0  0  0  0
   -5.2007   -0.8213    1.3412 C   0  0  0  0  0  0  0  0  0  0  0  0
    6.9470   -1.8618   -1.5006 C   0  0  0  0  0  0  0  0  0  0  0  0
    5.3362   -3.1753   -0.1206 C   0  0  0  0  0  0  0  0  0  0  0  0
   -5.3661   -2.0519   -1.1717 C   0  0  0  0  0  0  0  0  0  0  0  0
    2.2128    1.3089    3.5159 C   0  0  0  0  0  0  0  0  0  0  0  0
   -6.4121   -2.1909   -0.1253 C   0  0  0  0  0  0  0  0  0  0  0  0
   -0.7217    0.8330   -1.9232 H   0  0  0  0  0  0  0  0  0  0  0  0
    4.7366    1.8803    0.3819 H   0  0  0  0  0  0  0  0  0  0  0  0
   -1.5817    2.3198    0.6547 H   0  0  0  0  0  0  0  0  0  0  0  0
    3.5762    2.3547   -1.7318 H   0  0  0  0  0  0  0  0  0  0  0  0
    2.6741    3.0069   -0.3771 H   0  0  0  0  0  0  0  0  0  0  0  0
    4.6591    0.1541   -1.5677 H   0  0  0  0  0  0  0  0  0  0  0  0
    3.5382   -0.7737   -0.5852 H   0  0  0  0  0  0  0  0  0  0  0  0
   -3.0480    0.5614    1.6173 H   0  0  0  0  0  0  0  0  0  0  0  0
    0.7612    2.1218    0.2869 H   0  0  0  0  0  0  0  0  0  0  0  0
    0.1361   -1.0347   -0.2589 H   0  0  0  0  0  0  0  0  0  0  0  0
    6.4030    0.0135    0.1438 H   0  0  0  0  0  0  0  0  0  0  0  0
    5.3637   -0.8135    1.2507 H   0  0  0  0  0  0  0  0  0  0  0  0
   -1.7996   -1.7143    0.9907 H   0  0  0  0  0  0  0  0  0  0  0  0
    2.5501    0.1372    1.3421 H   0  0  0  0  0  0  0  0  0  0  0  0
   -3.5228   -1.1448   -1.5858 H   0  0  0  0  0  0  0  0  0  0  0  0
    7.1855   -0.8282   -1.7726 H   0  0  0  0  0  0  0  0  0  0  0  0
    7.8657   -2.3462   -1.1555 H   0  0  0  0  0  0  0  0  0  0  0  0
    6.5982   -2.3675   -2.4069 H   0  0  0  0  0  0  0  0  0  0  0  0
   -5.4780   -2.5434   -2.1288 H   0  0  0  0  0  0  0  0  0  0  0  0
    2.4688    0.2691    3.7387 H   0  0  0  0  0  0  0  0  0  0  0  0
    2.3634    1.9078    4.4183 H   0  0  0  0  0  0  0  0  0  0  0  0
    1.1634    1.3694    3.2140 H   0  0  0  0  0  0  0  0  0  0  0  0
   -1.0568    4.5973   -1.9685 H   0  0  0  0  0  0  0  0  0  0  0  0
    4.0280   -2.2888    1.2803 H   0  0  0  0  0  0  0  0  0  0  0  0
    3.9296   -3.9986    1.1766 H   0  0  0  0  0  0  0  0  0  0  0  0
    5.0519   -5.0543   -0.2461 H   0  0  0  0  0  0  0  0  0  0  0  0
   -8.2539   -3.0853    0.2766 H   0  0  0  0  0  0  0  0  0  0  0  0
   -7.6295   -3.4319   -1.3002 H   0  0  0  0  0  0  0  0  0  0  0  0
  1 17  1  0  0  0  0
  1 20  1  0  0  0  0
  2 22  2  0  0  0  0
  3 25  1  0  0  0  0
  3 56  1  0  0  0  0
  4 25  2  0  0  0  0
  5 26  2  0  0  0  0
  6 28  2  0  0  0  0
  7 15  1  0  0  0  0
  7 22  1  0  0  0  0
  7 42  1  0  0  0  0
  8 16  1  0  0  0  0
  8 26  1  0  0  0  0
  8 47  1  0  0  0  0
  9 20  1  0  0  0  0
  9 27  1  0  0  0  0
  9 28  1  0  0  0  0
 10 23  1  0  0  0  0
 10 29  1  0  0  0  0
 10 30  1  0  0  0  0
 11 28  1  0  0  0  0
 11 33  2  0  0  0  0
 12 30  1  0  0  0  0
 12 57  1  0  0  0  0
 12 58  1  0  0  0  0
 13 30  2  0  0  0  0
 13 59  1  0  0  0  0
 14 33  1  0  0  0  0
 14 60  1  0  0  0  0
 14 61  1  0  0  0  0
 15 17  1  0  0  0  0
 15 21  1  0  0  0  0
 15 34  1  0  0  0  0
 16 18  1  0  0  0  0
 16 19  1  0  0  0  0
 16 35  1  0  0  0  0
 17 25  1  0  0  0  0
 17 36  1  0  0  0  0
 18 22  1  0  0  0  0
 18 37  1  0  0  0  0
 18 38  1  0  0  0  0
 19 23  1  0  0  0  0
 19 39  1  0  0  0  0
 19 40  1  0  0  0  0
 20 24  1  0  0  0  0
 20 41  1  0  0  0  0
 21 24  2  0  0  0  0
 21 43  1  0  0  0  0
 23 44  1  0  0  0  0
 23 45  1  0  0  0  0
 24 46  1  0  0  0  0
 26 32  1  0  0  0  0
 27 31  2  0  0  0  0
 27 48  1  0  0  0  0
 29 49  1  0  0  0  0
 29 50  1  0  0  0  0
 29 51  1  0  0  0  0
 31 33  1  0  0  0  0
 31 52  1  0  0  0  0
 32 53  1  0  0  0  0
 32 54  1  0  0  0  0
 32 55  1  0  0  0  0
M  END
> <PUBCHEM_COMPOUND_CID>
439816

> <PUBCHEM_CONFORMER_RMSD>
1.2

> <PUBCHEM_CONFORMER_DIVERSEORDER>
1
5
88
113
125
153
97
131
24
38
158
114
112
137
134
111
106
86
157
89
75
182
130
9
10
180
95
21
44
121
64
12
76
163
146
50
19
166
39
6
74
139
117
63
40
48
108
109
101
15
107
179
59
57
20
141
127
181
3
91
93
156
23
67
149
169
175
30
170
96
13
83
128
49
55
129
178
177
61
171
56
159
144
120
184
162
73
85
51
54
174
11
140
62
105
104
99
168
123
92
53
102
173
47
35
176
41
110
4
8
80
68
133
161
154
32
138
122
58
151
78
14
90
7
135
22
167
17
37
72
147
103
2
118
33
183
143
18
150
155
152
98
148
42
142
27
60
28
124
172
66
25
87
119
29
115
70
77
26
81
46
65
34
116
165
84
126
52
79
69
94
43
136
45
82
100
132
160
31
71
36
164
145
16

> <PUBCHEM_MMFF94_PARTIAL_CHARGES>
44
1 -0.56
10 -0.79
11 -0.66
12 -0.85
13 -0.85
14 -0.85
15 0.44
16 0.3
17 0.34
18 0.06
2 -0.57
20 0.72
21 -0.29
22 0.57
23 0.37
24 -0.29
25 0.66
26 0.57
27 -0.04
28 0.84
29 0.37
3 -0.65
30 0.55
31 -0.14
32 0.06
33 0.49
4 -0.57
42 0.37
43 0.15
46 0.15
47 0.37
48 0.15
5 -0.57
52 0.15
56 0.5
57 0.4
58 0.4
59 0.4
6 -0.57
60 0.4
61 0.4
7 -0.73
8 -0.73
9 -0.47

> <PUBCHEM_EFFECTIVE_ROTOR_COUNT>
12.8

> <PUBCHEM_PHARMACOPHORE_FEATURES>
16
1 1 acceptor
1 11 donor
1 12 donor
1 13 donor
1 14 donor
1 2 acceptor
1 3 acceptor
1 4 acceptor
1 5 acceptor
1 6 acceptor
1 7 donor
1 8 donor
3 3 4 25 anion
4 10 12 13 30 cation
6 1 15 17 20 21 24 rings
6 9 11 27 28 31 33 rings

> <PUBCHEM_HEAVY_ATOM_COUNT>
33

> <PUBCHEM_ATOM_DEF_STEREO_COUNT>
3

> <PUBCHEM_ATOM_UDEF_STEREO_COUNT>
1

> <PUBCHEM_BOND_DEF_STEREO_COUNT>
0

> <PUBCHEM_BOND_UDEF_STEREO_COUNT>
0

> <PUBCHEM_ISOTOPIC_ATOM_COUNT>
0

> <PUBCHEM_COMPONENT_COUNT>
1

> <PUBCHEM_CACTVS_TAUTO_COUNT>
12

> <PUBCHEM_CONFORMER_ID>
0006B60800000001

> <PUBCHEM_MMFF94_ENERGY>
72.56

> <PUBCHEM_FEATURE_SELFOVERLAP>
81.354

> <PUBCHEM_SHAPE_FINGERPRINT>
11545043 162 18410299150585109376
11991303 11 17486502778394481021
12422481 6 18261106405000778295
12633257 1 17167861954758633676
12788726 201 17703797989759823657
13533116 47 18334857173735897082
13673619 4 18335697256817979072
13782708 43 18335422395727141262
14347332 77 18342737450675630046
14950920 106 17458346321130926225
15183329 4 15769511850140902653
15475509 35 18260551104552961458
17980427 23 13912906223867856056
19301676 85 17260474089776403535
21987483 16 17315648283743885263
23559900 14 18269564986561024636
23569943 247 18410851101275564099
3004659 81 17346042169210451797
513202 73 18342174501160156087
613672 6 17916874499926860673
6698420 124 17976827815253025029
7970288 3 18342173315528103855

> <PUBCHEM_SHAPE_MULTIPOLES>
604.06
17.86
4.46
2.3
6.47
1.07
1.79
21.4
0.43
-3.16
-1.18
-1.07
-1.85
2.78

> <PUBCHEM_SHAPE_SELFOVERLAP>
1244.348

> <PUBCHEM_SHAPE_VOLUME>
340.3

> <PUBCHEM_COORDINATE_TYPE>
2
5
10

$$$$

