442928
  -OEChem-07051213002D

 44 48  0     1  0  0  0  0  0999 V2000
    3.5637   -1.2364    0.0000 O   0  0  0  0  0  0  0  0  0  0  0  0
    3.5637   -2.8459    0.0000 O   0  0  0  0  0  0  0  0  0  0  0  0
    3.3844    2.9495    0.0000 O   0  0  0  0  0  0  0  0  0  0  0  0
    2.0000    2.1287    0.0000 O   0  0  0  0  0  0  0  0  0  0  0  0
    6.2580    0.5281    0.0000 C   0  0  1  0  0  0  0  0  0  0  0  0
    5.3599    0.0004    0.0000 C   0  0  1  0  0  0  0  0  0  0  0  0
    7.1600    0.0073    0.0000 C   0  0  2  0  0  0  0  0  0  0  0  0
    7.1520   -1.0343    0.0000 C   0  0  0  0  0  0  0  0  0  0  0  0
    5.3760   -1.0412    0.0000 C   0  0  0  0  0  0  0  0  0  0  0  0
    6.2420   -1.5412    0.0000 C   0  0  0  0  0  0  0  0  0  0  0  0
    6.2541    1.5281    0.0000 C   0  0  0  0  0  0  0  0  0  0  0  0
    4.4882    0.4903    0.0000 C   0  0  0  0  0  0  0  0  0  0  0  0
    8.0280    0.5040    0.0000 C   0  0  0  0  0  0  0  0  0  0  0  0
    4.5100   -1.5412    0.0000 C   0  0  0  0  0  0  0  0  0  0  0  0
    6.2420   -2.5412    0.0000 C   0  0  0  0  0  0  0  0  0  0  0  0
    4.5100   -2.5412    0.0000 C   0  0  0  0  0  0  0  0  0  0  0  0
    4.4766    1.4902    0.0000 C   0  0  0  0  0  0  0  0  0  0  0  0
    3.6280   -0.0197    0.0000 C   0  0  0  0  0  0  0  0  0  0  0  0
    5.3760   -3.0412    0.0000 C   0  0  0  0  0  0  0  0  0  0  0  0
    3.6049    1.9802    0.0000 C   0  0  0  0  0  0  0  0  0  0  0  0
    2.9801   -2.0412    0.0000 C   0  0  0  0  0  0  0  0  0  0  0  0
    2.7562    0.4703    0.0000 C   0  0  0  0  0  0  0  0  0  0  0  0
    2.7447    1.4702    0.0000 C   0  0  0  0  0  0  0  0  0  0  0  0
    2.3946    3.0412    0.0000 C   0  0  0  0  0  0  0  0  0  0  0  0
    5.7192    0.8350    0.0000 H   0  0  0  0  0  0  0  0  0  0  0  0
    5.3540    0.6203    0.0000 H   0  0  0  0  0  0  0  0  0  0  0  0
    7.1612    0.6273    0.0000 H   0  0  0  0  0  0  0  0  0  0  0  0
    7.3566   -1.6196    0.0000 H   0  0  0  0  0  0  0  0  0  0  0  0
    7.7637   -0.9329    0.0000 H   0  0  0  0  0  0  0  0  0  0  0  0
    6.8741    1.5305    0.0000 H   0  0  0  0  0  0  0  0  0  0  0  0
    6.2517    2.1481    0.0000 H   0  0  0  0  0  0  0  0  0  0  0  0
    5.6341    1.5257    0.0000 H   0  0  0  0  0  0  0  0  0  0  0  0
    8.3359   -0.0342    0.0000 H   0  0  0  0  0  0  0  0  0  0  0  0
    8.5661    0.8119    0.0000 H   0  0  0  0  0  0  0  0  0  0  0  0
    7.7201    1.0421    0.0000 H   0  0  0  0  0  0  0  0  0  0  0  0
    6.7790   -2.8512    0.0000 H   0  0  0  0  0  0  0  0  0  0  0  0
    5.0099    1.8064    0.0000 H   0  0  0  0  0  0  0  0  0  0  0  0
    3.6352   -0.6396    0.0000 H   0  0  0  0  0  0  0  0  0  0  0  0
    5.3760   -3.6612    0.0000 H   0  0  0  0  0  0  0  0  0  0  0  0
    2.5193   -1.6264    0.0000 H   0  0  0  0  0  0  0  0  0  0  0  0
    2.5193   -2.4559    0.0000 H   0  0  0  0  0  0  0  0  0  0  0  0
    2.2229    0.1541    0.0000 H   0  0  0  0  0  0  0  0  0  0  0  0
    2.5163    3.6491    0.0000 H   0  0  0  0  0  0  0  0  0  0  0  0
    1.8028    3.2261    0.0000 H   0  0  0  0  0  0  0  0  0  0  0  0
  1 14  1  0  0  0  0
  1 21  1  0  0  0  0
  2 16  1  0  0  0  0
  2 21  1  0  0  0  0
  3 20  1  0  0  0  0
  3 24  1  0  0  0  0
  4 23  1  0  0  0  0
  4 24  1  0  0  0  0
  5  6  1  0  0  0  0
  5  7  1  0  0  0  0
  5 11  1  6  0  0  0
  5 25  1  0  0  0  0
  6  9  1  0  0  0  0
  6 12  1  1  0  0  0
  6 26  1  0  0  0  0
  7  8  1  0  0  0  0
  7 13  1  1  0  0  0
  7 27  1  0  0  0  0
  8 10  1  0  0  0  0
  8 28  1  0  0  0  0
  8 29  1  0  0  0  0
  9 10  2  0  0  0  0
  9 14  1  0  0  0  0
 10 15  1  0  0  0  0
 11 30  1  0  0  0  0
 11 31  1  0  0  0  0
 11 32  1  0  0  0  0
 12 17  2  0  0  0  0
 12 18  1  0  0  0  0
 13 33  1  0  0  0  0
 13 34  1  0  0  0  0
 13 35  1  0  0  0  0
 14 16  2  0  0  0  0
 15 19  2  0  0  0  0
 15 36  1  0  0  0  0
 16 19  1  0  0  0  0
 17 20  1  0  0  0  0
 17 37  1  0  0  0  0
 18 22  2  0  0  0  0
 18 38  1  0  0  0  0
 19 39  1  0  0  0  0
 20 23  2  0  0  0  0
 21 40  1  0  0  0  0
 21 41  1  0  0  0  0
 22 23  1  0  0  0  0
 22 42  1  0  0  0  0
 24 43  1  0  0  0  0
 24 44  1  0  0  0  0
M  END
> <PUBCHEM_COMPOUND_CID>
442928

> <PUBCHEM_COMPOUND_CANONICALIZED>
1

> <PUBCHEM_CACTVS_COMPLEXITY>
469

> <PUBCHEM_CACTVS_HBOND_ACCEPTOR>
4

> <PUBCHEM_CACTVS_HBOND_DONOR>
0

> <PUBCHEM_CACTVS_ROTATABLE_BOND>
1

> <PUBCHEM_CACTVS_SUBSKEYS>
AAADceB4OAAAAAAAAAAAAAAAAAAAASJAAAAwYMAAAAAAAEjBQAAAGgAAAAAADQSAmAMyDoAABACAAiBCAAACCAAgIAAIiAAGiIgdJiKEMRqgMCIkwBEOqAeAwPAOoAABAAAYQADAAAYAADCAAAAAAAAAAA==

> <PUBCHEM_IUPAC_OPENEYE_NAME>
(7S,8R,9R)-9-(1,3-benzodioxol-5-yl)-7,8-dimethyl-6,7,8,9-tetrahydrobenzo[g][1,3]benzodioxole

> <PUBCHEM_IUPAC_CAS_NAME>
(7S,8R,9R)-9-(1,3-benzodioxol-5-yl)-7,8-dimethyl-6,7,8,9-tetrahydrobenzo[g][1,3]benzodioxole

> <PUBCHEM_IUPAC_NAME>
(7S,8R,9R)-9-(1,3-benzodioxol-5-yl)-7,8-dimethyl-6,7,8,9-tetrahydrobenzo[g][1,3]benzodioxole

> <PUBCHEM_IUPAC_SYSTEMATIC_NAME>
(7S,8R,9R)-9-(1,3-benzodioxol-5-yl)-7,8-dimethyl-6,7,8,9-tetrahydrobenzo[g][1,3]benzodioxole

> <PUBCHEM_IUPAC_TRADITIONAL_NAME>
(7S,8R,9R)-9-(1,3-benzodioxol-5-yl)-7,8-dimethyl-6,7,8,9-tetrahydrobenzo[g][1,3]benzodioxole

> <PUBCHEM_IUPAC_INCHI>
InChI=1S/C20H20O4/c1-11-7-13-4-6-16-20(24-10-22-16)19(13)18(12(11)2)14-3-5-15-17(8-14)23-9-21-15/h3-6,8,11-12,18H,7,9-10H2,1-2H3/t11-,12+,18+/m0/s1

> <PUBCHEM_IUPAC_INCHIKEY>
HTUIKPYRGODLDO-VNBZBWLYSA-N

> <PUBCHEM_XLOGP3_AA>
4.9

> <PUBCHEM_EXACT_MASS>
324.136159

> <PUBCHEM_MOLECULAR_FORMULA>
C20H20O4

> <PUBCHEM_MOLECULAR_WEIGHT>
324.3704

> <PUBCHEM_OPENEYE_CAN_SMILES>
CC1CC2=C(C(C1C)C3=CC4=C(C=C3)OCO4)C5=C(C=C2)OCO5

> <PUBCHEM_OPENEYE_ISO_SMILES>
C[C@H]1CC2=C([C@H]([C@@H]1C)C3=CC4=C(C=C3)OCO4)C5=C(C=C2)OCO5

> <PUBCHEM_CACTVS_TPSA>
36.9

> <PUBCHEM_MONOISOTOPIC_WEIGHT>
324.136159

> <PUBCHEM_TOTAL_CHARGE>
0

> <PUBCHEM_HEAVY_ATOM_COUNT>
24

> <PUBCHEM_ATOM_DEF_STEREO_COUNT>
3

> <PUBCHEM_ATOM_UDEF_STEREO_COUNT>
0

> <PUBCHEM_BOND_DEF_STEREO_COUNT>
0

> <PUBCHEM_BOND_UDEF_STEREO_COUNT>
0

> <PUBCHEM_ISOTOPIC_ATOM_COUNT>
0

> <PUBCHEM_COMPONENT_COUNT>
1

> <PUBCHEM_CACTVS_TAUTO_COUNT>
1

> <PUBCHEM_COORDINATE_TYPE>
1
5
255

> <PUBCHEM_BONDANNOTATIONS>
10  15  8
12  17  8
12  18  8
14  16  8
15  19  8
16  19  8
17  20  8
18  22  8
20  23  8
22  23  8
5  11  6
6  12  5
7  13  5
9  10  8
9  14  8

$$$$

