17395757
  -OEChem-06241222523D

 45 48  0     1  0  0  0  0  0999 V2000
    2.1649   -2.4937   -0.8069 O   0  0  0  0  0  0  0  0  0  0  0  0
   -2.4208   -2.4932    0.5224 O   0  0  0  0  0  0  0  0  0  0  0  0
   -1.3779    2.3255   -2.0960 O   0  0  0  0  0  0  0  0  0  0  0  0
   -3.9951    1.5967    1.8481 O   0  0  0  0  0  0  0  0  0  0  0  0
   -3.7343    2.6845   -0.6854 O   0  0  0  0  0  0  0  0  0  0  0  0
    0.8778   -1.4848    0.8497 N   0  0  0  0  0  0  0  0  0  0  0  0
    1.6812    0.5972    1.8129 N   0  0  0  0  0  0  0  0  0  0  0  0
    0.5354   -0.2671    1.6025 C   0  0  1  0  0  0  0  0  0  0  0  0
   -0.6076    0.5247    0.9904 C   0  0  0  0  0  0  0  0  0  0  0  0
   -0.0352   -2.6164    0.9719 C   0  0  0  0  0  0  0  0  0  0  0  0
    2.7197    0.6186    0.9006 C   0  0  0  0  0  0  0  0  0  0  0  0
    1.9422   -1.5492   -0.0532 C   0  0  0  0  0  0  0  0  0  0  0  0
    2.8732   -0.3941   -0.0529 C   0  0  0  0  0  0  0  0  0  0  0  0
   -0.4723    1.0715   -0.2857 C   0  0  0  0  0  0  0  0  0  0  0  0
   -1.7928    0.7036    1.7037 C   0  0  0  0  0  0  0  0  0  0  0  0
   -1.1702   -2.5310   -0.0073 C   0  0  0  0  0  0  0  0  0  0  0  0
    3.6569    1.6615    0.9247 C   0  0  0  0  0  0  0  0  0  0  0  0
    3.9260   -0.3535   -0.9769 C   0  0  0  0  0  0  0  0  0  0  0  0
   -1.5222    1.7974   -0.8484 C   0  0  0  0  0  0  0  0  0  0  0  0
   -2.8426    1.4294    1.1410 C   0  0  0  0  0  0  0  0  0  0  0  0
    4.7063    1.7054    0.0055 C   0  0  0  0  0  0  0  0  0  0  0  0
    4.8378    0.7000   -0.9474 C   0  0  0  0  0  0  0  0  0  0  0  0
   -2.7074    1.9762   -0.1350 C   0  0  0  0  0  0  0  0  0  0  0  0
   -1.2255   -2.4807   -1.3808 C   0  0  0  0  0  0  0  0  0  0  0  0
   -2.5985   -2.4073   -1.7165 C   0  0  0  0  0  0  0  0  0  0  0  0
   -3.2842   -2.4179   -0.5243 C   0  0  0  0  0  0  0  0  0  0  0  0
   -0.1349    2.0966   -2.7567 C   0  0  0  0  0  0  0  0  0  0  0  0
    0.2331   -0.6068    2.6011 H   0  0  0  0  0  0  0  0  0  0  0  0
    1.6065    1.3513    2.4861 H   0  0  0  0  0  0  0  0  0  0  0  0
   -0.4030   -2.6756    2.0021 H   0  0  0  0  0  0  0  0  0  0  0  0
    0.5177   -3.5423    0.7738 H   0  0  0  0  0  0  0  0  0  0  0  0
    0.4584    0.9008   -0.8095 H   0  0  0  0  0  0  0  0  0  0  0  0
   -1.9003    0.2765    2.6978 H   0  0  0  0  0  0  0  0  0  0  0  0
    3.5696    2.4585    1.6602 H   0  0  0  0  0  0  0  0  0  0  0  0
    4.0554   -1.1344   -1.7212 H   0  0  0  0  0  0  0  0  0  0  0  0
    5.4190    2.5243    0.0342 H   0  0  0  0  0  0  0  0  0  0  0  0
    5.6541    0.7323   -1.6629 H   0  0  0  0  0  0  0  0  0  0  0  0
   -0.3862   -2.4944   -2.0608 H   0  0  0  0  0  0  0  0  0  0  0  0
   -3.0336   -2.3522   -2.7038 H   0  0  0  0  0  0  0  0  0  0  0  0
   -4.3318   -2.3784   -0.2638 H   0  0  0  0  0  0  0  0  0  0  0  0
   -3.9083    1.1490    2.7072 H   0  0  0  0  0  0  0  0  0  0  0  0
   -3.4609    2.9841   -1.5699 H   0  0  0  0  0  0  0  0  0  0  0  0
   -0.1944    2.5889   -3.7331 H   0  0  0  0  0  0  0  0  0  0  0  0
    0.0301    1.0308   -2.9494 H   0  0  0  0  0  0  0  0  0  0  0  0
    0.7005    2.5590   -2.2195 H   0  0  0  0  0  0  0  0  0  0  0  0
  1 12  2  0  0  0  0
  2 16  1  0  0  0  0
  2 26  1  0  0  0  0
  3 19  1  0  0  0  0
  3 27  1  0  0  0  0
  4 20  1  0  0  0  0
  4 41  1  0  0  0  0
  5 23  1  0  0  0  0
  5 42  1  0  0  0  0
  6  8  1  0  0  0  0
  6 10  1  0  0  0  0
  6 12  1  0  0  0  0
  7  8  1  0  0  0  0
  7 11  1  0  0  0  0
  7 29  1  0  0  0  0
  8  9  1  0  0  0  0
  8 28  1  0  0  0  0
  9 14  1  0  0  0  0
  9 15  2  0  0  0  0
 10 16  1  0  0  0  0
 10 30  1  0  0  0  0
 10 31  1  0  0  0  0
 11 13  1  0  0  0  0
 11 17  2  0  0  0  0
 12 13  1  0  0  0  0
 13 18  2  0  0  0  0
 14 19  2  0  0  0  0
 14 32  1  0  0  0  0
 15 20  1  0  0  0  0
 15 33  1  0  0  0  0
 16 24  2  0  0  0  0
 17 21  1  0  0  0  0
 17 34  1  0  0  0  0
 18 22  1  0  0  0  0
 18 35  1  0  0  0  0
 19 23  1  0  0  0  0
 20 23  2  0  0  0  0
 21 22  2  0  0  0  0
 21 36  1  0  0  0  0
 22 37  1  0  0  0  0
 24 25  1  0  0  0  0
 24 38  1  0  0  0  0
 25 26  2  0  0  0  0
 25 39  1  0  0  0  0
 26 40  1  0  0  0  0
 27 43  1  0  0  0  0
 27 44  1  0  0  0  0
 27 45  1  0  0  0  0
M  END
> <PUBCHEM_COMPOUND_CID>
17395757

> <PUBCHEM_CONFORMER_RMSD>
0.8

> <PUBCHEM_CONFORMER_DIVERSEORDER>
1
103
11
93
65
102
92
75
88
22
76
72
97
101
7
80
81
34
89
64
31
84
77
62
79
98
82
38
85
51
29
70
106
5
16
50
78
83
100
95
36
27
21
39
61
8
3
87
33
28
37
32
17
86
52
63
104
57
91
10
23
69
56
53
46
9
99
96
67
105
71
13
90
68
2
44
55
6
4
74
24
47
12
94
60
43
45
14
15
59
42
49
35
54
19
73
25
30
48
58
20
40
26
18
66
41

> <PUBCHEM_MMFF94_PARTIAL_CHARGES>
39
1 -0.57
10 0.48
11 0.1
12 0.54
13 0.09
14 -0.15
15 -0.15
16 -0.04
17 -0.15
18 -0.15
19 0.08
2 -0.28
20 0.08
21 -0.15
22 -0.15
23 0.08
24 -0.15
25 -0.15
26 -0.01
27 0.28
29 0.4
3 -0.36
32 0.15
33 0.15
34 0.15
35 0.15
36 0.15
37 0.15
38 0.15
39 0.15
4 -0.53
40 0.15
41 0.45
42 0.45
5 -0.53
6 -0.66
7 -0.87
8 0.81
9 -0.14

> <PUBCHEM_EFFECTIVE_ROTOR_COUNT>
4.6

> <PUBCHEM_PHARMACOPHORE_FEATURES>
11
1 1 acceptor
1 2 acceptor
1 3 acceptor
1 4 donor
1 5 donor
1 7 cation
1 7 donor
5 2 16 24 25 26 rings
6 11 13 17 18 21 22 rings
6 6 7 8 11 12 13 rings
6 9 14 15 19 20 23 rings

> <PUBCHEM_HEAVY_ATOM_COUNT>
27

> <PUBCHEM_ATOM_DEF_STEREO_COUNT>
0

> <PUBCHEM_ATOM_UDEF_STEREO_COUNT>
1

> <PUBCHEM_BOND_DEF_STEREO_COUNT>
0

> <PUBCHEM_BOND_UDEF_STEREO_COUNT>
0

> <PUBCHEM_ISOTOPIC_ATOM_COUNT>
0

> <PUBCHEM_COMPONENT_COUNT>
1

> <PUBCHEM_CACTVS_TAUTO_COUNT>
20

> <PUBCHEM_CONFORMER_ID>
0109702D00000001

> <PUBCHEM_MMFF94_ENERGY>
80.2453

> <PUBCHEM_FEATURE_SELFOVERLAP>
55.848

> <PUBCHEM_SHAPE_FINGERPRINT>
10165383 225 18266441256846377304
104564 63 18263086522141829707
10863032 1 18113332024894716538
10871710 139 18201154351989810797
11115154 58 17753061497406744759
11578080 2 15652901993010420241
11582403 64 16123354645992428229
12035759 4 18058459698529771724
12156800 1 17755260601685634087
12173636 292 18042123318100062777
12422481 6 18047716413887094747
12597179 24 5469816872581598243
12788726 201 18267880388374751675
13149001 5 18044648939533173566
13583140 156 17557987517761942394
1361 2 18128271171382016029
14142880 1 18342181024740614373
14840074 17 18272925021349725317
15210252 30 17914079532842293607
17357779 13 18045231439781853294
20600515 1 17120895018355731672
21236236 1 18336263432434199600
23227448 37 18411411800348616756
23419403 2 14133779434974190099
238 59 17548725296481694221
35225 105 18115041795582813101
3729539 64 17760060201906657230
469060 322 17845937329728167103
495365 180 17907879631439317405
513532 50 14240872197995198260
5252454 2 18340200886346824368
81228 2 18269283360848404242
8272917 22 17393599612214525961

> <PUBCHEM_SHAPE_MULTIPOLES>
516.34
7.34
3.67
2
6.34
1.1
0.6
-2.42
0.47
-3.5
1.14
-0.74
-0.87
-0.39

> <PUBCHEM_SHAPE_SELFOVERLAP>
1142.424

> <PUBCHEM_SHAPE_VOLUME>
275.6

> <PUBCHEM_COORDINATE_TYPE>
2
5
10

$$$$

