26229
  -OEChem-07051212523D

 19 19  0     0  0  0  0  0  0999 V2000
    4.6329    0.3614   -0.4421 Cl  0  0  0  0  0  0  0  0  0  0  0  0
   -1.0943   -0.4617    0.5571 O   0  0  0  0  0  0  0  0  0  0  0  0
   -4.1768    1.0496   -0.4843 O   0  0  0  0  0  0  0  0  0  0  0  0
   -3.6259   -1.1404   -0.1872 O   0  0  0  0  0  0  0  0  0  0  0  0
    0.2332   -0.2710    0.3256 C   0  0  0  0  0  0  0  0  0  0  0  0
    0.7713    1.0151    0.3710 C   0  0  0  0  0  0  0  0  0  0  0  0
    1.0556   -1.3616    0.0428 C   0  0  0  0  0  0  0  0  0  0  0  0
   -1.9756    0.6011    0.1969 C   0  0  0  0  0  0  0  0  0  0  0  0
    2.1318    1.2106    0.1336 C   0  0  0  0  0  0  0  0  0  0  0  0
    2.4163   -1.1662   -0.1945 C   0  0  0  0  0  0  0  0  0  0  0  0
    2.9544    0.1200   -0.1491 C   0  0  0  0  0  0  0  0  0  0  0  0
   -3.3228    0.0431   -0.1697 C   0  0  0  0  0  0  0  0  0  0  0  0
    0.1710    1.8869    0.6139 H   0  0  0  0  0  0  0  0  0  0  0  0
    0.6418   -2.3657    0.0059 H   0  0  0  0  0  0  0  0  0  0  0  0
   -2.0952    1.2711    1.0546 H   0  0  0  0  0  0  0  0  0  0  0  0
   -1.6147    1.1421   -0.6867 H   0  0  0  0  0  0  0  0  0  0  0  0
    2.5389    2.2176    0.1778 H   0  0  0  0  0  0  0  0  0  0  0  0
    3.0451   -2.0254   -0.4137 H   0  0  0  0  0  0  0  0  0  0  0  0
   -5.0656    0.7129   -0.7275 H   0  0  0  0  0  0  0  0  0  0  0  0
  1 11  1  0  0  0  0
  2  5  1  0  0  0  0
  2  8  1  0  0  0  0
  3 12  1  0  0  0  0
  3 19  1  0  0  0  0
  4 12  2  0  0  0  0
  5  6  2  0  0  0  0
  5  7  1  0  0  0  0
  6  9  1  0  0  0  0
  6 13  1  0  0  0  0
  7 10  2  0  0  0  0
  7 14  1  0  0  0  0
  8 12  1  0  0  0  0
  8 15  1  0  0  0  0
  8 16  1  0  0  0  0
  9 11  2  0  0  0  0
  9 17  1  0  0  0  0
 10 11  1  0  0  0  0
 10 18  1  0  0  0  0
M  END
> <PUBCHEM_COMPOUND_CID>
26229

> <PUBCHEM_CONFORMER_RMSD>
0.6

> <PUBCHEM_CONFORMER_DIVERSEORDER>
1
7
3
9
5
6
2
4
8
11
12
10

> <PUBCHEM_MMFF94_PARTIAL_CHARGES>
17
1 -0.18
10 -0.15
11 0.18
12 0.66
13 0.15
14 0.15
17 0.15
18 0.15
19 0.5
2 -0.36
3 -0.65
4 -0.57
5 0.08
6 -0.15
7 -0.15
8 0.34
9 -0.15

> <PUBCHEM_EFFECTIVE_ROTOR_COUNT>
3

> <PUBCHEM_PHARMACOPHORE_FEATURES>
5
1 2 acceptor
1 3 acceptor
1 4 acceptor
3 3 4 12 anion
6 5 6 7 9 10 11 rings

> <PUBCHEM_HEAVY_ATOM_COUNT>
12

> <PUBCHEM_ATOM_DEF_STEREO_COUNT>
0

> <PUBCHEM_ATOM_UDEF_STEREO_COUNT>
0

> <PUBCHEM_BOND_DEF_STEREO_COUNT>
0

> <PUBCHEM_BOND_UDEF_STEREO_COUNT>
0

> <PUBCHEM_ISOTOPIC_ATOM_COUNT>
0

> <PUBCHEM_COMPONENT_COUNT>
1

> <PUBCHEM_CACTVS_TAUTO_COUNT>
1

> <PUBCHEM_CONFORMER_ID>
0000667500000001

> <PUBCHEM_MMFF94_ENERGY>
28.9736

> <PUBCHEM_FEATURE_SELFOVERLAP>
25.434

> <PUBCHEM_SHAPE_FINGERPRINT>
10608611 8 18412830157563973921
11062470 55 17918272056414701388
11401426 45 18334580135771412080
11471102 20 18410294739563499516
12932764 1 17095534993203931633
13380535 76 18412540994733096506
14325111 11 18410857646556659377
14576447 43 18115036216183334191
14911166 2 18335693932618670284
14993402 34 17748825224299504052
18186145 218 18259701190200840601
190213 19 17530965782553055201
200 152 17967253100451103681
20201158 50 18411697703309989482
20606313 2 18411138043560051124
20645477 70 18335985388582964423
20711985 327 4751153034224413819
21119208 17 17967533480058264133
21293036 1 18334572434752567070
23402539 116 17917718997781571012
23402655 69 18337112358031303869
2748010 2 17975684005594976928
4990 188 18113609089187817508
93112 12 18408608063136054917

> <PUBCHEM_SHAPE_MULTIPOLES>
231.22
7.82
1.32
0.69
2.89
0.14
0
-0.92
-1.82
-0.11
0
-0.04
-0.03
0.11

> <PUBCHEM_SHAPE_SELFOVERLAP>
468.245

> <PUBCHEM_SHAPE_VOLUME>
135.7

> <PUBCHEM_COORDINATE_TYPE>
2
5
10

$$$$

