17395374
  -OEChem-06241222493D

 40 41  0     1  0  0  0  0  0999 V2000
    1.0370    0.5506   -0.0992 O   0  0  0  0  0  0  0  0  0  0  0  0
   -1.1384   -0.9709   -0.0577 O   0  0  0  0  0  0  0  0  0  0  0  0
   -5.9798    0.0115    0.3610 O   0  0  0  0  0  0  0  0  0  0  0  0
    2.0532    2.2548    1.0679 O   0  0  0  0  0  0  0  0  0  0  0  0
   -2.5796    0.8771    0.0962 N   0  0  0  0  0  0  0  0  0  0  0  0
   -4.9758    0.9702    0.2960 N   0  0  0  0  0  0  0  0  0  0  0  0
   -0.2002    1.2431   -0.0682 C   0  0  1  0  0  0  0  0  0  0  0  0
   -0.2887    2.1736   -1.2820 C   0  0  0  0  0  0  0  0  0  0  0  0
   -1.3505    0.2377   -0.0174 C   0  0  0  0  0  0  0  0  0  0  0  0
   -0.2539    1.4415   -2.6190 C   0  0  0  0  0  0  0  0  0  0  0  0
    3.3197    0.3464    0.4053 C   0  0  0  0  0  0  0  0  0  0  0  0
    2.0885    1.1700    0.5083 C   0  0  0  0  0  0  0  0  0  0  0  0
   -3.8402    0.2745    0.1890 C   0  0  0  0  0  0  0  0  0  0  0  0
    3.2837   -0.8843   -0.2503 C   0  0  0  0  0  0  0  0  0  0  0  0
    4.4409   -1.6569   -0.3470 C   0  0  0  0  0  0  0  0  0  0  0  0
    4.5127    0.8044    0.9642 C   0  0  0  0  0  0  0  0  0  0  0  0
   -4.0631   -1.1133    0.1813 C   0  0  0  0  0  0  0  0  0  0  0  0
    5.6340   -1.1989    0.2121 C   0  0  0  0  0  0  0  0  0  0  0  0
    5.6699    0.0316    0.8677 C   0  0  0  0  0  0  0  0  0  0  0  0
   -5.4239   -1.2250    0.2918 C   0  0  0  0  0  0  0  0  0  0  0  0
    4.4029   -2.9734   -1.0470 C   0  0  0  0  0  0  0  0  0  0  0  0
   -6.3486   -2.3640    0.3469 C   0  0  0  0  0  0  0  0  0  0  0  0
   -0.2826    1.8384    0.8517 H   0  0  0  0  0  0  0  0  0  0  0  0
   -1.1977    2.7836   -1.2405 H   0  0  0  0  0  0  0  0  0  0  0  0
    0.5572    2.8716   -1.2636 H   0  0  0  0  0  0  0  0  0  0  0  0
   -0.2825    2.1635   -3.4414 H   0  0  0  0  0  0  0  0  0  0  0  0
   -1.1130    0.7735   -2.7323 H   0  0  0  0  0  0  0  0  0  0  0  0
    0.6606    0.8496   -2.7250 H   0  0  0  0  0  0  0  0  0  0  0  0
   -2.6071    1.8921    0.1385 H   0  0  0  0  0  0  0  0  0  0  0  0
    2.3696   -1.2696   -0.6945 H   0  0  0  0  0  0  0  0  0  0  0  0
    4.5618    1.7602    1.4790 H   0  0  0  0  0  0  0  0  0  0  0  0
   -3.3674   -1.9351    0.1083 H   0  0  0  0  0  0  0  0  0  0  0  0
    6.5423   -1.7919    0.1458 H   0  0  0  0  0  0  0  0  0  0  0  0
    6.5989    0.3879    1.3034 H   0  0  0  0  0  0  0  0  0  0  0  0
    4.0327   -3.7488   -0.3690 H   0  0  0  0  0  0  0  0  0  0  0  0
    3.7501   -2.9302   -1.9254 H   0  0  0  0  0  0  0  0  0  0  0  0
    5.3971   -3.2672   -1.4008 H   0  0  0  0  0  0  0  0  0  0  0  0
   -5.8093   -3.3143    0.2843 H   0  0  0  0  0  0  0  0  0  0  0  0
   -7.0599   -2.3228   -0.4837 H   0  0  0  0  0  0  0  0  0  0  0  0
   -6.9133   -2.3563    1.2843 H   0  0  0  0  0  0  0  0  0  0  0  0
  1  7  1  0  0  0  0
  1 12  1  0  0  0  0
  2  9  2  0  0  0  0
  3  6  1  0  0  0  0
  3 20  1  0  0  0  0
  4 12  2  0  0  0  0
  5  9  1  0  0  0  0
  5 13  1  0  0  0  0
  5 29  1  0  0  0  0
  6 13  2  0  0  0  0
  7  8  1  0  0  0  0
  7  9  1  0  0  0  0
  7 23  1  0  0  0  0
  8 10  1  0  0  0  0
  8 24  1  0  0  0  0
  8 25  1  0  0  0  0
 10 26  1  0  0  0  0
 10 27  1  0  0  0  0
 10 28  1  0  0  0  0
 11 12  1  0  0  0  0
 11 14  1  0  0  0  0
 11 16  2  0  0  0  0
 13 17  1  0  0  0  0
 14 15  2  0  0  0  0
 14 30  1  0  0  0  0
 15 18  1  0  0  0  0
 15 21  1  0  0  0  0
 16 19  1  0  0  0  0
 16 31  1  0  0  0  0
 17 20  2  0  0  0  0
 17 32  1  0  0  0  0
 18 19  2  0  0  0  0
 18 33  1  0  0  0  0
 19 34  1  0  0  0  0
 20 22  1  0  0  0  0
 21 35  1  0  0  0  0
 21 36  1  0  0  0  0
 21 37  1  0  0  0  0
 22 38  1  0  0  0  0
 22 39  1  0  0  0  0
 22 40  1  0  0  0  0
M  END
> <PUBCHEM_COMPOUND_CID>
17395374

> <PUBCHEM_CONFORMER_RMSD>
0.8

> <PUBCHEM_CONFORMER_DIVERSEORDER>
1
60
146
162
59
131
168
241
235
144
220
240
189
252
166
289
56
277
255
279
254
112
15
224
18
259
287
248
104
258
129
273
291
237
149
238
118
116
89
263
165
148
6
130
267
57
268
160
97
270
27
251
261
207
225
177
181
175
184
195
230
58
185
167
72
244
64
260
286
152
226
63
122
281
257
203
147
132
49
145
134
271
215
71
137
169
242
69
101
117
170
50
85
113
76
290
19
266
253
178
234
133
70
139
233
136
245
115
171
43
173
223
283
214
284
66
62
2
262
40
186
206
5
193
105
292
143
124
31
217
80
205
158
106
199
28
228
150
22
4
126
200
278
191
276
288
121
88
92
188
125
23
107
198
246
21
47
208
3
141
197
127
247
275
108
216
264
229
32
7
61
119
123
211
194
14
222
282
84
163
293
164
192
82
201
34
153
44
239
35
36
154
91
30
212
182
38
174
210
159
74
269
51
12
41
86
110
26
100
151
13
93
52
67
280
265
142
16
176
99
53
8
128
272
95
73
24
227
81
68
94
138
111
140
285
196
65
83
213
103
96
20
202
135
10
98
219
156
102
87
243
54
55
180
172
48
256
78
236
221
46
161
9
155
29
190
120
90
250
183
11
218
249
231
187
33
17
77
25
232
209
157
79
45
274
114
204
42
179
109
39
75
37

> <PUBCHEM_MMFF94_PARTIAL_CHARGES>
26
1 -0.43
11 0.09
12 0.63
13 0.35
14 -0.15
15 -0.14
16 -0.15
17 -0.15
18 -0.15
19 -0.15
2 -0.57
20 -0.04
21 0.14
22 0.18
29 0.37
3 -0.02
30 0.15
31 0.15
32 0.15
33 0.15
34 0.15
4 -0.57
5 -0.49
6 -0.41
7 0.34
9 0.57

> <PUBCHEM_EFFECTIVE_ROTOR_COUNT>
7

> <PUBCHEM_PHARMACOPHORE_FEATURES>
6
1 10 hydrophobe
1 2 acceptor
1 4 acceptor
1 5 donor
5 3 6 13 17 20 rings
6 11 14 15 16 18 19 rings

> <PUBCHEM_HEAVY_ATOM_COUNT>
22

> <PUBCHEM_ATOM_DEF_STEREO_COUNT>
0

> <PUBCHEM_ATOM_UDEF_STEREO_COUNT>
1

> <PUBCHEM_BOND_DEF_STEREO_COUNT>
0

> <PUBCHEM_BOND_UDEF_STEREO_COUNT>
0

> <PUBCHEM_ISOTOPIC_ATOM_COUNT>
0

> <PUBCHEM_COMPONENT_COUNT>
1

> <PUBCHEM_CACTVS_TAUTO_COUNT>
3

> <PUBCHEM_CONFORMER_ID>
01096EAE00000001

> <PUBCHEM_MMFF94_ENERGY>
42.3749

> <PUBCHEM_FEATURE_SELFOVERLAP>
30.446

> <PUBCHEM_SHAPE_FINGERPRINT>
10692045 39 5544927784781812284
12107183 9 17680976706595986473
12516196 113 18411700971722248424
12596602 18 17530962483960527146
12623949 98 18260537931492860118
12788726 201 15410628015944698093
12892183 10 17894631473986006576
13402501 40 18410291436850343010
13533116 47 17822009817909045786
13685833 64 18412260614930582155
13862211 1 17917716794315791707
14178000 29 18202842141088371077
14211702 104 18268703923254791315
14251740 57 18411411795911523686
14251764 30 18271809059538217626
14341114 176 17967811647841468234
14528608 73 10879990254942757243
14556957 393 15410322381908856134
14617045 38 18334290977341237422
1768 124 18260267400288381327
17959699 21 10303806584038638606
1813 80 17704071793665987332
18222031 100 17632300047145220941
19141452 34 18335424538715375015
193927 3 18059565876331893617
20374829 77 18130791178342492513
20554085 129 5256402756709549479
20567600 75 18409453621837573429
21197605 99 18189053101403908246
21279426 13 18264771150054243661
212916 134 5256396185045622028
21623969 137 18259985981140554750
21641784 216 15410614847321521391
21682296 61 18334849550443681903
23522609 53 18055885866707072148
23557571 272 17988367069996123404
23559900 14 18409455769658903017
239999 70 18341895195484788762
25122255 55 18058721400268947091
2838139 119 9943516393366789778
3004659 81 18272366486706774822
312425 54 18261103115087478251
314173 85 17917989499001172373
3421961 26 18333453127700054696
4325135 7 18131630068078093076
465052 167 18186515501696560942
5104073 3 17968943123011474634
5718773 13 18199192961508517938
636775 8 18045210786640615822
9971528 1 18059013878629940805

> <PUBCHEM_SHAPE_MULTIPOLES>
419.31
15.62
2.48
1.24
10.74
0.86
-0.83
10.57
3.82
-0.59
-0.71
-0.65
-0.61
1.63

> <PUBCHEM_SHAPE_SELFOVERLAP>
880.3

> <PUBCHEM_SHAPE_VOLUME>
236.6

> <PUBCHEM_COORDINATE_TYPE>
2
5
10

$$$$

