24892805
  -OEChem-07051213093D

 30 29  0     1  0  0  0  0  0999 V2000
    2.7509   -1.1674   -1.3372 O   0  0  0  0  0  0  0  0  0  0  0  0
    0.8591    2.0813    0.4708 O   0  0  0  0  0  0  0  0  0  0  0  0
    1.2451    1.2958   -1.6213 O   0  0  0  0  0  0  0  0  0  0  0  0
    3.6100    0.0391    1.9108 O   0  0  0  0  0  0  0  0  0  0  0  0
    4.5643    0.3692   -0.1249 O   0  0  0  0  0  0  0  0  0  0  0  0
   -5.1033    0.8074    1.0722 O   0  0  0  0  0  0  0  0  0  0  0  0
   -3.9851    1.0016   -0.8935 O   0  0  0  0  0  0  0  0  0  0  0  0
    1.1300   -0.2914    0.2309 C   0  0  1  0  0  0  0  0  0  0  0  0
   -0.0561   -1.1276   -0.2971 C   0  0  0  0  0  0  0  0  0  0  0  0
   -1.4026   -0.7397    0.3228 C   0  0  0  0  0  0  0  0  0  0  0  0
    2.5151   -0.9386    0.0521 C   0  0  2  0  0  0  0  0  0  0  0  0
   -2.5939   -1.4964   -0.2813 C   0  0  0  0  0  0  0  0  0  0  0  0
   -3.9612   -1.1243    0.2946 C   0  0  0  0  0  0  0  0  0  0  0  0
    1.0840    1.0862   -0.4256 C   0  0  0  0  0  0  0  0  0  0  0  0
    3.6801   -0.1173    0.5659 C   0  0  0  0  0  0  0  0  0  0  0  0
   -4.3366    0.3220    0.0608 C   0  0  0  0  0  0  0  0  0  0  0  0
    0.9838   -0.1457    1.3102 H   0  0  0  0  0  0  0  0  0  0  0  0
    0.1274   -2.1864   -0.0750 H   0  0  0  0  0  0  0  0  0  0  0  0
   -0.1200   -1.0427   -1.3891 H   0  0  0  0  0  0  0  0  0  0  0  0
   -1.3701   -0.9259    1.4033 H   0  0  0  0  0  0  0  0  0  0  0  0
   -1.5578    0.3373    0.1943 H   0  0  0  0  0  0  0  0  0  0  0  0
    2.5500   -1.9169    0.5438 H   0  0  0  0  0  0  0  0  0  0  0  0
   -2.6055   -1.3274   -1.3655 H   0  0  0  0  0  0  0  0  0  0  0  0
   -2.4386   -2.5725   -0.1351 H   0  0  0  0  0  0  0  0  0  0  0  0
   -3.9532   -1.3182    1.3735 H   0  0  0  0  0  0  0  0  0  0  0  0
   -4.7410   -1.7471   -0.1565 H   0  0  0  0  0  0  0  0  0  0  0  0
    2.7319   -0.3115   -1.7974 H   0  0  0  0  0  0  0  0  0  0  0  0
    0.8387    2.9628    0.0408 H   0  0  0  0  0  0  0  0  0  0  0  0
    4.3521    0.5799    2.2560 H   0  0  0  0  0  0  0  0  0  0  0  0
   -5.3376    1.7497    0.9332 H   0  0  0  0  0  0  0  0  0  0  0  0
  1 11  1  0  0  0  0
  1 27  1  0  0  0  0
  2 14  1  0  0  0  0
  2 28  1  0  0  0  0
  3 14  2  0  0  0  0
  4 15  1  0  0  0  0
  4 29  1  0  0  0  0
  5 15  2  0  0  0  0
  6 16  1  0  0  0  0
  6 30  1  0  0  0  0
  7 16  2  0  0  0  0
  8  9  1  0  0  0  0
  8 11  1  0  0  0  0
  8 14  1  0  0  0  0
  8 17  1  0  0  0  0
  9 10  1  0  0  0  0
  9 18  1  0  0  0  0
  9 19  1  0  0  0  0
 10 12  1  0  0  0  0
 10 20  1  0  0  0  0
 10 21  1  0  0  0  0
 11 15  1  0  0  0  0
 11 22  1  0  0  0  0
 12 13  1  0  0  0  0
 12 23  1  0  0  0  0
 12 24  1  0  0  0  0
 13 16  1  0  0  0  0
 13 25  1  0  0  0  0
 13 26  1  0  0  0  0
M  END
> <PUBCHEM_COMPOUND_CID>
24892805

> <PUBCHEM_CONFORMER_RMSD>
0.8

> <PUBCHEM_CONFORMER_DIVERSEORDER>
2
17
107
80
1
23
85
84
12
64
69
22
45
77
33
24
20
87
82
103
98
86
61
100
11
19
70
42
9
37
51
53
110
74
34
105
97
91
54
62
18
41
72
58
95
50
6
92
40
108
75
31
57
27
35
5
32
30
3
13
101
29
90
48
4
49
28
81
66
38
65
44
94
106
71
8
76
96
83
93
16
25
104
102
79
26
78
67
10
60
59
56
63
14
109
99
73
7
39
47
43
15
68
36
88
111
55
21
89
46
52

> <PUBCHEM_MMFF94_PARTIAL_CHARGES>
17
1 -0.68
11 0.34
13 0.06
14 0.66
15 0.66
16 0.66
2 -0.65
27 0.4
28 0.5
29 0.5
3 -0.57
30 0.5
4 -0.65
5 -0.57
6 -0.65
7 -0.57
8 0.06

> <PUBCHEM_EFFECTIVE_ROTOR_COUNT>
8

> <PUBCHEM_PHARMACOPHORE_FEATURES>
12
1 1 acceptor
1 1 donor
1 2 acceptor
1 3 acceptor
1 4 acceptor
1 5 acceptor
1 6 acceptor
1 7 acceptor
3 2 3 14 anion
3 4 5 15 anion
3 6 7 16 anion
5 8 9 10 12 13 hydrophobe

> <PUBCHEM_HEAVY_ATOM_COUNT>
16

> <PUBCHEM_ATOM_DEF_STEREO_COUNT>
2

> <PUBCHEM_ATOM_UDEF_STEREO_COUNT>
0

> <PUBCHEM_BOND_DEF_STEREO_COUNT>
0

> <PUBCHEM_BOND_UDEF_STEREO_COUNT>
0

> <PUBCHEM_ISOTOPIC_ATOM_COUNT>
0

> <PUBCHEM_COMPONENT_COUNT>
1

> <PUBCHEM_CACTVS_TAUTO_COUNT>
1

> <PUBCHEM_CONFORMER_ID>
017BD58500000002

> <PUBCHEM_MMFF94_ENERGY>
14.9422

> <PUBCHEM_FEATURE_SELFOVERLAP>
61.079

> <PUBCHEM_SHAPE_FINGERPRINT>
10130415 120 18131635560391568674
12500047 106 17603873264709570591
13675066 3 18333729096354683259
13922767 16 18408888412498979171
14004511 7 18334574638250326419
15375358 24 18113621174693473295
1601671 61 18410571778023700844
17041 49 18202569444940111695
17802600 8 18341619187906331261
17834072 14 18040718069261906393
18186145 218 18335698369098711015
19078846 21 17846506945217565709
20233049 118 18342739619623675164
20645477 56 18186518800669456363
20645477 70 17240756332700858518
20671657 1 17843957036098162101
22892500 29 16660652842887632418
23402539 116 15574714707367599867
23557571 272 17022902299030008047
23559900 14 18113333120496771758
4990 188 11383839281007436370
6430166 295 18343866641044385799
7495541 125 16056584422830691649
9971528 1 18333729143308880942

> <PUBCHEM_SHAPE_MULTIPOLES>
288.19
9.62
1.57
1.16
6.24
0.34
-0.06
0.75
-2.03
0.4
0.21
-0.71
0.17
0

> <PUBCHEM_SHAPE_SELFOVERLAP>
559.668

> <PUBCHEM_SHAPE_VOLUME>
172.3

> <PUBCHEM_COORDINATE_TYPE>
2
5
10

$$$$

