439480
  -OEChem-07051212452D

 39 40  0     1  0  0  0  0  0999 V2000
    5.4897   -3.3475    0.0000 P   0  0  0  0  0  0  0  0  0  0  0  0
    5.0298    0.1351    0.0000 O   0  0  0  0  0  0  0  0  0  0  0  0
    3.1330   -1.6249    0.0000 O   0  0  0  0  0  0  0  0  0  0  0  0
    2.4608    0.4442    0.0000 O   0  0  0  0  0  0  0  0  0  0  0  0
    4.9019   -2.5385    0.0000 O   0  0  0  0  0  0  0  0  0  0  0  0
    6.0774   -4.1565    0.0000 O   0  0  0  0  0  0  0  0  0  0  0  0
    4.6806   -3.9353    0.0000 O   0  0  0  0  0  0  0  0  0  0  0  0
    6.2987   -2.7597    0.0000 O   0  0  0  0  0  0  0  0  0  0  0  0
    5.9529    4.7229    0.0000 O   0  0  0  0  0  0  0  0  0  0  0  0
    4.2208    1.7229    0.0000 N   0  0  0  0  0  0  0  0  0  0  0  0
    5.9529    1.7229    0.0000 N   0  0  0  0  0  0  0  0  0  0  0  0
    4.2208    3.7229    0.0000 N   0  0  0  0  0  0  0  0  0  0  0  0
    6.8189    3.2229    0.0000 N   0  0  0  0  0  0  0  0  0  0  0  0
    7.6849    1.7229    0.0000 N   0  0  0  0  0  0  0  0  0  0  0  0
    3.7208   -0.8159    0.0000 C   0  0  1  0  0  0  0  0  0  0  0  0
    3.4118    0.1351    0.0000 C   0  0  2  0  0  0  0  0  0  0  0  0
    4.7208   -0.8159    0.0000 C   0  0  1  0  0  0  0  0  0  0  0  0
    4.2208    0.7229    0.0000 C   0  0  1  0  0  0  0  0  0  0  0  0
    5.3086   -1.6249    0.0000 C   0  0  0  0  0  0  0  0  0  0  0  0
    5.0868    2.2229    0.0000 C   0  0  0  0  0  0  0  0  0  0  0  0
    5.0868    3.2229    0.0000 C   0  0  0  0  0  0  0  0  0  0  0  0
    6.8189    2.2229    0.0000 C   0  0  0  0  0  0  0  0  0  0  0  0
    5.9529    3.7229    0.0000 C   0  0  0  0  0  0  0  0  0  0  0  0
    4.0023   -1.3684    0.0000 H   0  0  0  0  0  0  0  0  0  0  0  0
    2.9734   -0.3033    0.0000 H   0  0  0  0  0  0  0  0  0  0  0  0
    5.3332   -0.7189    0.0000 H   0  0  0  0  0  0  0  0  0  0  0  0
    3.6684    1.0044    0.0000 H   0  0  0  0  0  0  0  0  0  0  0  0
    5.8226   -1.9716    0.0000 H   0  0  0  0  0  0  0  0  0  0  0  0
    5.7393   -1.1790    0.0000 H   0  0  0  0  0  0  0  0  0  0  0  0
    3.6839    2.0329    0.0000 H   0  0  0  0  0  0  0  0  0  0  0  0
    2.5164   -1.5601    0.0000 H   0  0  0  0  0  0  0  0  0  0  0  0
    2.0000    0.0293    0.0000 H   0  0  0  0  0  0  0  0  0  0  0  0
    5.9529    1.1029    0.0000 H   0  0  0  0  0  0  0  0  0  0  0  0
    4.2208    4.3429    0.0000 H   0  0  0  0  0  0  0  0  0  0  0  0
    3.6839    3.4129    0.0000 H   0  0  0  0  0  0  0  0  0  0  0  0
    5.8253   -4.7229    0.0000 H   0  0  0  0  0  0  0  0  0  0  0  0
    4.7454   -4.5519    0.0000 H   0  0  0  0  0  0  0  0  0  0  0  0
    8.2219    2.0329    0.0000 H   0  0  0  0  0  0  0  0  0  0  0  0
    7.6849    1.1029    0.0000 H   0  0  0  0  0  0  0  0  0  0  0  0
  1  5  1  0  0  0  0
  1  6  1  0  0  0  0
  1  7  1  0  0  0  0
  1  8  2  0  0  0  0
  2 17  1  0  0  0  0
  2 18  1  0  0  0  0
 15  3  1  1  0  0  0
  3 31  1  0  0  0  0
 16  4  1  1  0  0  0
  4 32  1  0  0  0  0
  5 19  1  0  0  0  0
  6 36  1  0  0  0  0
  7 37  1  0  0  0  0
  9 23  2  0  0  0  0
 18 10  1  6  0  0  0
 10 20  1  0  0  0  0
 10 30  1  0  0  0  0
 11 20  1  0  0  0  0
 11 22  1  0  0  0  0
 11 33  1  0  0  0  0
 12 21  1  0  0  0  0
 12 34  1  0  0  0  0
 12 35  1  0  0  0  0
 13 22  2  0  0  0  0
 13 23  1  0  0  0  0
 14 22  1  0  0  0  0
 14 38  1  0  0  0  0
 14 39  1  0  0  0  0
 15 16  1  0  0  0  0
 15 17  1  0  0  0  0
 15 24  1  0  0  0  0
 16 18  1  0  0  0  0
 16 25  1  0  0  0  0
 17 19  1  6  0  0  0
 17 26  1  0  0  0  0
 18 27  1  0  0  0  0
 19 28  1  0  0  0  0
 19 29  1  0  0  0  0
 20 21  2  0  0  0  0
 21 23  1  0  0  0  0
M  END
> <PUBCHEM_COMPOUND_CID>
439480

> <PUBCHEM_COMPOUND_CANONICALIZED>
1

> <PUBCHEM_CACTVS_COMPLEXITY>
603

> <PUBCHEM_CACTVS_HBOND_ACCEPTOR>
10

> <PUBCHEM_CACTVS_HBOND_DONOR>
8

> <PUBCHEM_CACTVS_ROTATABLE_BOND>
5

> <PUBCHEM_CACTVS_SUBSKEYS>
AAADceBzvAIAAAAAAAAAAAAAAAAAASAAAAAgAAAAAAAAAAAAAAAAHgAQCCAACBzhgAYBAALABxCoQAVQdICAAAEAAAABAICIAEGDUAIAgAAOQAAPEAITAEDwMAIAAAAAAAAAAAAAAAAAAAAAAAAAAAAAAA==

> <PUBCHEM_IUPAC_OPENEYE_NAME>
[(2R,3S,4R,5R)-5-[(2,5-diamino-4-oxo-1H-pyrimidin-6-yl)amino]-3,4-dihydroxy-tetrahydrofuran-2-yl]methyl dihydrogen phosphate

> <PUBCHEM_IUPAC_CAS_NAME>
[(2R,3S,4R,5R)-5-[(2,5-diamino-4-oxo-1H-pyrimidin-6-yl)amino]-3,4-dihydroxy-2-oxolanyl]methyl dihydrogen phosphate

> <PUBCHEM_IUPAC_NAME>
[(2R,3S,4R,5R)-5-[(2,5-diamino-4-oxo-1H-pyrimidin-6-yl)amino]-3,4-dihydroxyoxolan-2-yl]methyl dihydrogen phosphate

> <PUBCHEM_IUPAC_SYSTEMATIC_NAME>
[(2R,3S,4R,5R)-5-[[2,5-bis(azanyl)-4-oxidanylidene-1H-pyrimidin-6-yl]amino]-3,4-bis(oxidanyl)oxolan-2-yl]methyl dihydrogen phosphate

> <PUBCHEM_IUPAC_TRADITIONAL_NAME>
[(2R,3S,4R,5R)-5-[(2,5-diamino-4-keto-1H-pyrimidin-6-yl)amino]-3,4-dihydroxy-tetrahydrofuran-2-yl]methyl dihydrogen phosphate

> <PUBCHEM_IUPAC_INCHI>
InChI=1S/C9H16N5O8P/c10-3-6(13-9(11)14-7(3)17)12-8-5(16)4(15)2(22-8)1-21-23(18,19)20/h2,4-5,8,15-16H,1,10H2,(H2,18,19,20)(H4,11,12,13,14,17)/t2-,4-,5-,8-/m1/s1

> <PUBCHEM_IUPAC_INCHIKEY>
OCLCLRXKNJCOJD-UMMCILCDSA-N

> <PUBCHEM_XLOGP3_AA>
-4.7

> <PUBCHEM_EXACT_MASS>
353.073649

> <PUBCHEM_MOLECULAR_FORMULA>
C9H16N5O8P

> <PUBCHEM_MOLECULAR_WEIGHT>
353.225802

> <PUBCHEM_OPENEYE_CAN_SMILES>
C(C1C(C(C(O1)NC2=C(C(=O)N=C(N2)N)N)O)O)OP(=O)(O)O

> <PUBCHEM_OPENEYE_ISO_SMILES>
C([C@@H]1[C@H]([C@H]([C@@H](O1)NC2=C(C(=O)N=C(N2)N)N)O)O)OP(=O)(O)O

> <PUBCHEM_CACTVS_TPSA>
222

> <PUBCHEM_MONOISOTOPIC_WEIGHT>
353.073649

> <PUBCHEM_TOTAL_CHARGE>
0

> <PUBCHEM_HEAVY_ATOM_COUNT>
23

> <PUBCHEM_ATOM_DEF_STEREO_COUNT>
4

> <PUBCHEM_ATOM_UDEF_STEREO_COUNT>
0

> <PUBCHEM_BOND_DEF_STEREO_COUNT>
0

> <PUBCHEM_BOND_UDEF_STEREO_COUNT>
0

> <PUBCHEM_ISOTOPIC_ATOM_COUNT>
0

> <PUBCHEM_COMPONENT_COUNT>
1

> <PUBCHEM_CACTVS_TAUTO_COUNT>
27

> <PUBCHEM_COORDINATE_TYPE>
1
5
255

> <PUBCHEM_BONDANNOTATIONS>
18  10  6
11  20  8
11  22  8
13  22  8
13  23  8
17  19  6
20  21  8
21  23  8
15  3  5
16  4  5

$$$$

