222820
  -OEChem-07051213063D

 63 66  0     1  0  0  0  0  0999 V2000
   -6.1776   -0.8834    0.2431 O   0  0  0  0  0  0  0  0  0  0  0  0
    5.2471   -1.0337    0.4736 O   0  0  0  0  0  0  0  0  0  0  0  0
   -6.9316    1.2745    0.5776 O   0  0  0  0  0  0  0  0  0  0  0  0
    6.5202   -0.0607   -1.2162 O   0  0  0  0  0  0  0  0  0  0  0  0
   -0.4616   -0.2453    0.4485 C   0  0  1  0  0  0  0  0  0  0  0  0
    0.1197    0.9238   -0.4026 C   0  0  2  0  0  0  0  0  0  0  0  0
    1.5076    1.2804    0.1315 C   0  0  1  0  0  0  0  0  0  0  0  0
    2.4995    0.0964    0.0601 C   0  0  2  0  0  0  0  0  0  0  0  0
   -1.8783   -0.6971   -0.0878 C   0  0  2  0  0  0  0  0  0  0  0  0
    0.5461   -1.4120    0.6580 C   0  0  0  0  0  0  0  0  0  0  0  0
    1.9719   -0.9641    1.0376 C   0  0  0  0  0  0  0  0  0  0  0  0
   -0.8225    2.1344   -0.3460 C   0  0  0  0  0  0  0  0  0  0  0  0
   -2.7569    0.5240   -0.3965 C   0  0  0  0  0  0  0  0  0  0  0  0
    2.2738    2.4667   -0.4489 C   0  0  0  0  0  0  0  0  0  0  0  0
   -2.5664   -1.5565    1.0142 C   0  0  0  0  0  0  0  0  0  0  0  0
    3.7670    0.8522    0.4076 C   0  0  0  0  0  0  0  0  0  0  0  0
   -2.2663    1.7725   -0.4916 C   0  0  0  0  0  0  0  0  0  0  0  0
    2.6872   -0.5082   -1.3521 C   0  0  0  0  0  0  0  0  0  0  0  0
   -1.7494   -1.5332   -1.3838 C   0  0  0  0  0  0  0  0  0  0  0  0
   -4.2356    0.2784   -0.5891 C   0  0  0  0  0  0  0  0  0  0  0  0
    3.6478    2.1513    0.0781 C   0  0  0  0  0  0  0  0  0  0  0  0
   -4.0457   -1.8401    0.7581 C   0  0  0  0  0  0  0  0  0  0  0  0
   -4.8278   -0.5483    0.5491 C   0  0  2  0  0  0  0  0  0  0  0  0
    4.9378    0.2312    0.9439 C   0  0  0  0  0  0  0  0  0  0  0  0
    5.7263    0.8130    1.8608 C   0  0  0  0  0  0  0  0  0  0  0  0
   -7.0220    0.1737    0.0512 C   0  0  0  0  0  0  0  0  0  0  0  0
    6.0594   -1.0314   -0.6293 C   0  0  0  0  0  0  0  0  0  0  0  0
   -8.1008   -0.2076   -0.9168 C   0  0  0  0  0  0  0  0  0  0  0  0
    6.3312   -2.4511   -1.0324 C   0  0  0  0  0  0  0  0  0  0  0  0
   -0.6234    0.1731    1.4557 H   0  0  0  0  0  0  0  0  0  0  0  0
    0.1985    0.6179   -1.4513 H   0  0  0  0  0  0  0  0  0  0  0  0
    1.3569    1.5332    1.1983 H   0  0  0  0  0  0  0  0  0  0  0  0
    0.6157   -2.0230   -0.2465 H   0  0  0  0  0  0  0  0  0  0  0  0
    0.1793   -2.0777    1.4476 H   0  0  0  0  0  0  0  0  0  0  0  0
    1.9614   -0.5692    2.0620 H   0  0  0  0  0  0  0  0  0  0  0  0
    2.6301   -1.8412    1.0542 H   0  0  0  0  0  0  0  0  0  0  0  0
   -0.5521    2.8357   -1.1446 H   0  0  0  0  0  0  0  0  0  0  0  0
   -0.7042    2.6733    0.6023 H   0  0  0  0  0  0  0  0  0  0  0  0
    1.9022    3.4157   -0.0518 H   0  0  0  0  0  0  0  0  0  0  0  0
    2.2644    2.4980   -1.5425 H   0  0  0  0  0  0  0  0  0  0  0  0
   -2.4850   -1.0450    1.9830 H   0  0  0  0  0  0  0  0  0  0  0  0
   -2.0483   -2.5163    1.1283 H   0  0  0  0  0  0  0  0  0  0  0  0
   -2.9414    2.6013   -0.6911 H   0  0  0  0  0  0  0  0  0  0  0  0
    3.1306    0.2039   -2.0578 H   0  0  0  0  0  0  0  0  0  0  0  0
    3.3386   -1.3873   -1.3218 H   0  0  0  0  0  0  0  0  0  0  0  0
    1.7462   -0.8437   -1.7962 H   0  0  0  0  0  0  0  0  0  0  0  0
   -1.1751   -1.0065   -2.1527 H   0  0  0  0  0  0  0  0  0  0  0  0
   -1.2601   -2.4947   -1.1985 H   0  0  0  0  0  0  0  0  0  0  0  0
   -2.7234   -1.7695   -1.8253 H   0  0  0  0  0  0  0  0  0  0  0  0
   -4.7663    1.2319   -0.6905 H   0  0  0  0  0  0  0  0  0  0  0  0
   -4.3993   -0.2350   -1.5455 H   0  0  0  0  0  0  0  0  0  0  0  0
    4.4242    2.8982    0.1698 H   0  0  0  0  0  0  0  0  0  0  0  0
   -4.1685   -2.5020   -0.1081 H   0  0  0  0  0  0  0  0  0  0  0  0
   -4.4696   -2.3920    1.6064 H   0  0  0  0  0  0  0  0  0  0  0  0
   -4.8097    0.0257    1.4857 H   0  0  0  0  0  0  0  0  0  0  0  0
    6.6055    0.3004    2.2385 H   0  0  0  0  0  0  0  0  0  0  0  0
    5.5187    1.7989    2.2635 H   0  0  0  0  0  0  0  0  0  0  0  0
   -8.6794   -1.0438   -0.5164 H   0  0  0  0  0  0  0  0  0  0  0  0
   -7.6571   -0.4718   -1.8799 H   0  0  0  0  0  0  0  0  0  0  0  0
   -8.7730    0.6425   -1.0642 H   0  0  0  0  0  0  0  0  0  0  0  0
    5.3901   -2.9679   -1.2368 H   0  0  0  0  0  0  0  0  0  0  0  0
    6.8862   -2.9606   -0.2409 H   0  0  0  0  0  0  0  0  0  0  0  0
    6.9343   -2.4594   -1.9449 H   0  0  0  0  0  0  0  0  0  0  0  0
  1 23  1  0  0  0  0
  1 26  1  0  0  0  0
  2 24  1  0  0  0  0
  2 27  1  0  0  0  0
  3 26  2  0  0  0  0
  4 27  2  0  0  0  0
  5  6  1  0  0  0  0
  5  9  1  0  0  0  0
  5 10  1  0  0  0  0
  5 30  1  0  0  0  0
  6  7  1  0  0  0  0
  6 12  1  0  0  0  0
  6 31  1  0  0  0  0
  7  8  1  0  0  0  0
  7 14  1  0  0  0  0
  7 32  1  0  0  0  0
  8 11  1  0  0  0  0
  8 16  1  0  0  0  0
  8 18  1  0  0  0  0
  9 13  1  0  0  0  0
  9 15  1  0  0  0  0
  9 19  1  0  0  0  0
 10 11  1  0  0  0  0
 10 33  1  0  0  0  0
 10 34  1  0  0  0  0
 11 35  1  0  0  0  0
 11 36  1  0  0  0  0
 12 17  1  0  0  0  0
 12 37  1  0  0  0  0
 12 38  1  0  0  0  0
 13 17  2  0  0  0  0
 13 20  1  0  0  0  0
 14 21  1  0  0  0  0
 14 39  1  0  0  0  0
 14 40  1  0  0  0  0
 15 22  1  0  0  0  0
 15 41  1  0  0  0  0
 15 42  1  0  0  0  0
 16 21  2  0  0  0  0
 16 24  1  0  0  0  0
 17 43  1  0  0  0  0
 18 44  1  0  0  0  0
 18 45  1  0  0  0  0
 18 46  1  0  0  0  0
 19 47  1  0  0  0  0
 19 48  1  0  0  0  0
 19 49  1  0  0  0  0
 20 23  1  0  0  0  0
 20 50  1  0  0  0  0
 20 51  1  0  0  0  0
 21 52  1  0  0  0  0
 22 23  1  0  0  0  0
 22 53  1  0  0  0  0
 22 54  1  0  0  0  0
 23 55  1  0  0  0  0
 24 25  2  0  0  0  0
 25 56  1  0  0  0  0
 25 57  1  0  0  0  0
 26 28  1  0  0  0  0
 27 29  1  0  0  0  0
 28 58  1  0  0  0  0
 28 59  1  0  0  0  0
 28 60  1  0  0  0  0
 29 61  1  0  0  0  0
 29 62  1  0  0  0  0
 29 63  1  0  0  0  0
M  END
> <PUBCHEM_COMPOUND_CID>
222820

> <PUBCHEM_CONFORMER_RMSD>
0.8

> <PUBCHEM_CONFORMER_DIVERSEORDER>
1
11
7
25
13
15
22
26
27
19
6
3
9
21
16
17
18
10
23
5
14
2
20
12
4
8
24

> <PUBCHEM_MMFF94_PARTIAL_CHARGES>
24
1 -0.43
12 0.14
13 -0.28
14 0.14
16 -0.14
17 -0.29
2 -0.23
20 0.14
21 -0.29
23 0.28
24 0.08
25 -0.3
26 0.66
27 0.66
28 0.06
29 0.06
3 -0.57
4 -0.57
43 0.15
52 0.15
56 0.15
57 0.15
8 0.14
9 0.14

> <PUBCHEM_EFFECTIVE_ROTOR_COUNT>
6.6

> <PUBCHEM_PHARMACOPHORE_FEATURES>
6
1 3 acceptor
1 4 acceptor
5 7 8 14 16 21 rings
6 5 6 7 8 10 11 rings
6 5 6 9 12 13 17 rings
6 9 13 15 20 22 23 rings

> <PUBCHEM_HEAVY_ATOM_COUNT>
29

> <PUBCHEM_ATOM_DEF_STEREO_COUNT>
6

> <PUBCHEM_ATOM_UDEF_STEREO_COUNT>
0

> <PUBCHEM_BOND_DEF_STEREO_COUNT>
0

> <PUBCHEM_BOND_UDEF_STEREO_COUNT>
0

> <PUBCHEM_ISOTOPIC_ATOM_COUNT>
0

> <PUBCHEM_COMPONENT_COUNT>
1

> <PUBCHEM_CACTVS_TAUTO_COUNT>
1

> <PUBCHEM_CONFORMER_ID>
0003666400000001

> <PUBCHEM_MMFF94_ENERGY>
89.4107

> <PUBCHEM_FEATURE_SELFOVERLAP>
30.547

> <PUBCHEM_SHAPE_FINGERPRINT>
10554248 39 18341056211782472677
11089746 13 18041284275407335825
117089 54 17682665570344628550
12107698 1 18408882957779847556
12166972 35 18113053835742392536
12236239 1 18186803548226311923
12403259 415 17632025173211504252
12422481 6 18260545597798226742
13533116 47 17676206875569381466
13914758 101 17385718140819554539
14170010 4 18334577940974480544
14294032 229 17487618761048069205
14341114 176 18410855447707665536
14856354 85 14979949260670063595
14955137 171 18408038489905408200
15131766 46 16083366258673646936
15142383 8 17131563799076691333
15183329 4 18344145904176164697
15196674 1 18200031725169826921
15361156 5 18201709605435950447
15788980 27 18040998423616077886
15840311 113 18272087155088018229
15849732 13 18187086135641860983
17349148 13 17418377986966346456
19141452 34 18114466660585925375
20105231 36 18201425995882047755
21033648 29 17895776048837699744
21130935 74 18186802456867431507
21150785 3 16630520731276450014
21267235 1 18341890805279164585
21279426 13 18202004296459209611
21315759 40 17385443215852800695
21682296 61 18188201117589304470
21781051 124 17560503037495192243
221357 26 18412544323358812708
23522609 53 17985236751422589772
23559900 14 18271243828798783216
23569917 315 18260542300145266671
23569943 247 18047464810255693650
3004659 81 18060418001980378492
335352 9 18343584023606355111
3411729 13 18057044598071782356
34797466 226 18343578539255027580
350125 39 18202283614966984613
3545911 37 18131354115775054195
3633792 109 17531240708358981595
4073 2 17774156782255007442
4093350 32 17676206862679185056
4340502 62 15719389525255353796
5104073 3 18128820746316342345

> <PUBCHEM_SHAPE_MULTIPOLES>
573.33
18.47
2.2
1.21
13.57
0.34
-0.04
-3.72
0.9
-1.52
0.24
-1.03
-0.27
1.25

> <PUBCHEM_SHAPE_SELFOVERLAP>
1222.57

> <PUBCHEM_SHAPE_VOLUME>
316.1

> <PUBCHEM_COORDINATE_TYPE>
2
5
10

$$$$

