69471
  -OEChem-07051213103D

 19 19  0     0  0  0  0  0  0999 V2000
   -2.8913   -0.4237    0.3577 O   0  0  0  0  0  0  0  0  0  0  0  0
   -1.7003    2.0782    0.1326 O   0  0  0  0  0  0  0  0  0  0  0  0
    3.3351   -1.0410   -0.1041 O   0  5  0  0  0  0  0  0  0  0  0  0
    3.1629    1.1452   -0.2044 O   0  0  0  0  0  0  0  0  0  0  0  0
    2.6447    0.0068   -0.1035 N   0  3  0  0  0  0  0  0  0  0  0  0
   -1.5387   -0.3082    0.2435 C   0  0  0  0  0  0  0  0  0  0  0  0
    1.2337   -0.0990    0.0145 C   0  0  0  0  0  0  0  0  0  0  0  0
   -0.9410    0.9471    0.1307 C   0  0  0  0  0  0  0  0  0  0  0  0
    0.4453    1.0518    0.0162 C   0  0  0  0  0  0  0  0  0  0  0  0
   -0.7503   -1.4589    0.2420 C   0  0  0  0  0  0  0  0  0  0  0  0
    0.6359   -1.3542    0.1274 C   0  0  0  0  0  0  0  0  0  0  0  0
   -3.6360   -0.5440   -0.8526 C   0  0  0  0  0  0  0  0  0  0  0  0
    0.8829    2.0437   -0.0703 H   0  0  0  0  0  0  0  0  0  0  0  0
   -1.2095   -2.4398    0.3306 H   0  0  0  0  0  0  0  0  0  0  0  0
    1.2182   -2.2721    0.1299 H   0  0  0  0  0  0  0  0  0  0  0  0
   -3.3638   -1.4649   -1.3778 H   0  0  0  0  0  0  0  0  0  0  0  0
   -3.4670    0.3215   -1.5011 H   0  0  0  0  0  0  0  0  0  0  0  0
   -4.6985   -0.5878   -0.5981 H   0  0  0  0  0  0  0  0  0  0  0  0
   -2.6310    1.8256    0.2599 H   0  0  0  0  0  0  0  0  0  0  0  0
  1  6  1  0  0  0  0
  1 12  1  0  0  0  0
  2  8  1  0  0  0  0
  2 19  1  0  0  0  0
  3  5  1  0  0  0  0
  4  5  2  0  0  0  0
  5  7  1  0  0  0  0
  6  8  2  0  0  0  0
  6 10  1  0  0  0  0
  7  9  2  0  0  0  0
  7 11  1  0  0  0  0
  8  9  1  0  0  0  0
  9 13  1  0  0  0  0
 10 11  2  0  0  0  0
 10 14  1  0  0  0  0
 11 15  1  0  0  0  0
 12 16  1  0  0  0  0
 12 17  1  0  0  0  0
 12 18  1  0  0  0  0
M  CHG  2   3  -1   5   1
M  END
> <PUBCHEM_COMPOUND_CID>
69471

> <PUBCHEM_CONFORMER_RMSD>
0.6

> <PUBCHEM_CONFORMER_DIVERSEORDER>
2
1

> <PUBCHEM_MMFF94_PARTIAL_CHARGES>
16
1 -0.36
10 -0.15
11 -0.15
12 0.28
13 0.15
14 0.15
15 0.15
19 0.45
2 -0.53
3 -0.52
4 -0.52
5 0.91
6 0.08
7 0.13
8 0.08
9 -0.15

> <PUBCHEM_EFFECTIVE_ROTOR_COUNT>
2

> <PUBCHEM_PHARMACOPHORE_FEATURES>
6
1 1 acceptor
1 2 donor
1 3 acceptor
1 3 anion
1 4 acceptor
6 6 7 8 9 10 11 rings

> <PUBCHEM_HEAVY_ATOM_COUNT>
12

> <PUBCHEM_ATOM_DEF_STEREO_COUNT>
0

> <PUBCHEM_ATOM_UDEF_STEREO_COUNT>
0

> <PUBCHEM_BOND_DEF_STEREO_COUNT>
0

> <PUBCHEM_BOND_UDEF_STEREO_COUNT>
0

> <PUBCHEM_ISOTOPIC_ATOM_COUNT>
0

> <PUBCHEM_COMPONENT_COUNT>
1

> <PUBCHEM_CACTVS_TAUTO_COUNT>
3

> <PUBCHEM_CONFORMER_ID>
00010F5F00000002

> <PUBCHEM_MMFF94_ENERGY>
43.7287

> <PUBCHEM_FEATURE_SELFOVERLAP>
30.527

> <PUBCHEM_SHAPE_FINGERPRINT>
11206711 2 18412544348886010733
12032990 46 18340198601324035027
12897270 3 18411982468258009535
14325111 11 18410853291428328576
14993402 34 18041282063045387439
16945 1 18411975841012689122
193761 8 17834957851278697227
21293036 1 18341619166036044287
21501502 16 18195529417958444763
23402539 116 18335432265319069862
23402655 69 18267040499964267357
23552423 10 18198057182353461034
2748010 2 18194959866634936799
369184 2 18335136492596573714
5084963 1 18187364350253064682
528886 8 18337958891742853427

> <PUBCHEM_SHAPE_MULTIPOLES>
218.5
5.05
1.64
0.67
0.52
0.38
-0.04
-0.44
-1.01
-0.09
0.09
-0.28
-0.05
-0.15

> <PUBCHEM_SHAPE_SELFOVERLAP>
457.005

> <PUBCHEM_SHAPE_VOLUME>
124.3

> <PUBCHEM_COORDINATE_TYPE>
2
5
10

$$$$

