5252
  -OEChem-06261200363D

 26 28  0     1  0  0  0  0  0999 V2000
   -2.6471    2.8981   -0.2822 F   0  0  0  0  0  0  0  0  0  0  0  0
   -1.3144   -2.3892    0.4141 O   0  0  0  0  0  0  0  0  0  0  0  0
    1.3430   -0.7047   -2.1656 O   0  0  0  0  0  0  0  0  0  0  0  0
    3.5273    1.8061    0.9845 O   0  0  0  0  0  0  0  0  0  0  0  0
    1.6590    0.4068    1.1131 N   0  0  0  0  0  0  0  0  0  0  0  0
    2.6894    0.6400   -0.8442 N   0  0  0  0  0  0  0  0  0  0  0  0
    0.8935   -0.4633    0.2345 C   0  0  1  0  0  0  0  0  0  0  0  0
    1.0658   -1.9188    0.6798 C   0  0  0  0  0  0  0  0  0  0  0  0
   -0.5639   -0.0757    0.1438 C   0  0  0  0  0  0  0  0  0  0  0  0
    1.6398   -0.2145   -1.0841 C   0  0  0  0  0  0  0  0  0  0  0  0
    0.0026   -2.7950    0.0369 C   0  0  0  0  0  0  0  0  0  0  0  0
   -1.5677   -1.0524    0.2394 C   0  0  0  0  0  0  0  0  0  0  0  0
    2.7248    1.0381    0.4720 C   0  0  0  0  0  0  0  0  0  0  0  0
   -0.9508    1.2621   -0.0447 C   0  0  0  0  0  0  0  0  0  0  0  0
   -2.9187   -0.6933    0.1930 C   0  0  0  0  0  0  0  0  0  0  0  0
   -2.2997    1.6162   -0.1075 C   0  0  0  0  0  0  0  0  0  0  0  0
   -3.2831    0.6394    0.0170 C   0  0  0  0  0  0  0  0  0  0  0  0
    0.9524   -1.9823    1.7710 H   0  0  0  0  0  0  0  0  0  0  0  0
    2.0659   -2.2979    0.4371 H   0  0  0  0  0  0  0  0  0  0  0  0
    1.4453    0.5417    2.0966 H   0  0  0  0  0  0  0  0  0  0  0  0
    0.0791   -2.8043   -1.0568 H   0  0  0  0  0  0  0  0  0  0  0  0
    0.1302   -3.8291    0.3747 H   0  0  0  0  0  0  0  0  0  0  0  0
    3.3425    0.9541   -1.5527 H   0  0  0  0  0  0  0  0  0  0  0  0
   -0.2035    2.0460   -0.1404 H   0  0  0  0  0  0  0  0  0  0  0  0
   -3.6925   -1.4512    0.2846 H   0  0  0  0  0  0  0  0  0  0  0  0
   -4.3323    0.9154   -0.0263 H   0  0  0  0  0  0  0  0  0  0  0  0
  1 16  1  0  0  0  0
  2 11  1  0  0  0  0
  2 12  1  0  0  0  0
  3 10  2  0  0  0  0
  4 13  2  0  0  0  0
  5  7  1  0  0  0  0
  5 13  1  0  0  0  0
  5 20  1  0  0  0  0
  6 10  1  0  0  0  0
  6 13  1  0  0  0  0
  6 23  1  0  0  0  0
  7  8  1  0  0  0  0
  7  9  1  0  0  0  0
  7 10  1  0  0  0  0
  8 11  1  0  0  0  0
  8 18  1  0  0  0  0
  8 19  1  0  0  0  0
  9 12  2  0  0  0  0
  9 14  1  0  0  0  0
 11 21  1  0  0  0  0
 11 22  1  0  0  0  0
 12 15  1  0  0  0  0
 14 16  2  0  0  0  0
 14 24  1  0  0  0  0
 15 17  2  0  0  0  0
 15 25  1  0  0  0  0
 16 17  1  0  0  0  0
 17 26  1  0  0  0  0
M  END
> <PUBCHEM_COMPOUND_CID>
5252

> <PUBCHEM_CONFORMER_RMSD>
0.6

> <PUBCHEM_CONFORMER_DIVERSEORDER>
1
2

> <PUBCHEM_MMFF94_PARTIAL_CHARGES>
21
1 -0.19
10 0.57
11 0.28
12 0.08
13 0.69
14 -0.15
15 -0.15
16 0.19
17 -0.15
2 -0.36
20 0.37
23 0.37
24 0.15
25 0.15
26 0.15
3 -0.57
4 -0.57
5 -0.73
6 -0.49
7 0.5
9 -0.14

> <PUBCHEM_EFFECTIVE_ROTOR_COUNT>
1

> <PUBCHEM_PHARMACOPHORE_FEATURES>
8
1 2 acceptor
1 3 acceptor
1 4 acceptor
1 5 donor
1 6 donor
5 5 6 7 10 13 rings
6 2 7 8 9 11 12 rings
6 9 12 14 15 16 17 rings

> <PUBCHEM_HEAVY_ATOM_COUNT>
17

> <PUBCHEM_ATOM_DEF_STEREO_COUNT>
0

> <PUBCHEM_ATOM_UDEF_STEREO_COUNT>
1

> <PUBCHEM_BOND_DEF_STEREO_COUNT>
0

> <PUBCHEM_BOND_UDEF_STEREO_COUNT>
0

> <PUBCHEM_ISOTOPIC_ATOM_COUNT>
0

> <PUBCHEM_COMPONENT_COUNT>
1

> <PUBCHEM_CACTVS_TAUTO_COUNT>
5

> <PUBCHEM_CONFORMER_ID>
0000148400000001

> <PUBCHEM_MMFF94_ENERGY>
45.171

> <PUBCHEM_FEATURE_SELFOVERLAP>
40.699

> <PUBCHEM_SHAPE_FINGERPRINT>
10608611 8 18407479963842317200
11640471 11 17058635266969630108
11725454 13 17315386694148503808
13140716 1 18125723637067399817
13380537 58 18411981338750156518
13464514 151 18045209694742085820
13764800 53 18201143387281098059
13839132 238 18409165510972645516
14614273 12 18272942634794101117
14648413 74 17980482579054429259
14817 1 8211344490710195070
15219456 202 18041271080850791550
15490181 7 18409443730443578731
15775835 57 18341043120532100129
16945 1 18268426845601092987
17357990 137 17417514857247931836
18186145 218 18187917425944900992
20344682 1 17534620413106680375
20510252 161 18335700499207214073
20511035 2 18057315287504248627
21501502 16 18268151053340855683
21524375 3 18187375285403414992
22802520 49 18189593043032278438
2334 1 18341049726413327929
23402539 116 18046076951586839063
23419403 2 12772079767413606527
23557571 272 18046891706682040318
23559900 14 18334004013770453230
2748010 2 18270111443807737279
305870 269 18270687579099702362
3071541 158 17622721342182986887
350125 39 18268985573981457587
5262128 65 17243003816019169749
7364860 26 18121220041265783570
77492 1 17130711569943036470
81228 2 18049989005336889531

> <PUBCHEM_SHAPE_MULTIPOLES>
315.01
4.75
2.65
1.09
0.12
0.56
-0.45
-3
0.37
0.79
0.29
-0.85
0.06
0.58

> <PUBCHEM_SHAPE_SELFOVERLAP>
701.262

> <PUBCHEM_SHAPE_VOLUME>
168.8

> <PUBCHEM_COORDINATE_TYPE>
2
5
10

$$$$

