586333
  -OEChem-06241222463D

 48 49  0     0  0  0  0  0  0999 V2000
    0.0034    1.9173    0.8980 O   0  0  0  0  0  0  0  0  0  0  0  0
   -4.2772    1.9299   -0.9695 O   0  0  0  0  0  0  0  0  0  0  0  0
   -2.5616    3.0045    0.0707 O   0  0  0  0  0  0  0  0  0  0  0  0
    5.6017   -0.0407   -1.0880 O   0  0  0  0  0  0  0  0  0  0  0  0
    0.7177   -0.2271    1.5329 N   0  0  0  0  0  0  0  0  0  0  0  0
   -2.2903   -0.2680    0.1397 C   0  0  0  0  0  0  0  0  0  0  0  0
   -3.7542   -0.6847    0.4093 C   0  0  0  0  0  0  0  0  0  0  0  0
   -1.4601   -1.5040   -0.2753 C   0  0  0  0  0  0  0  0  0  0  0  0
   -4.3787   -1.4846   -0.7339 C   0  0  0  0  0  0  0  0  0  0  0  0
   -2.0884   -2.3024   -1.4174 C   0  0  0  0  0  0  0  0  0  0  0  0
   -1.6933    0.3255    1.4296 C   0  0  0  0  0  0  0  0  0  0  0  0
   -3.5283   -2.6942   -1.1055 C   0  0  0  0  0  0  0  0  0  0  0  0
   -2.2291    0.8169   -0.9528 C   0  0  0  0  0  0  0  0  0  0  0  0
   -0.2501    0.7609    1.2447 C   0  0  0  0  0  0  0  0  0  0  0  0
   -2.9922    2.0411   -0.5449 C   0  0  0  0  0  0  0  0  0  0  0  0
    1.9939   -0.1790    0.8478 C   0  0  0  0  0  0  0  0  0  0  0  0
    0.4724   -1.3035    2.5055 C   0  0  0  0  0  0  0  0  0  0  0  0
    2.0271    0.3501   -0.4139 C   0  0  0  0  0  0  0  0  0  0  0  0
    3.0939   -0.6652    1.5013 C   0  0  0  0  0  0  0  0  0  0  0  0
    3.2554    0.3967   -1.0733 C   0  0  0  0  0  0  0  0  0  0  0  0
    4.3221   -0.6185    0.8419 C   0  0  0  0  0  0  0  0  0  0  0  0
    4.4030   -0.0876   -0.4454 C   0  0  0  0  0  0  0  0  0  0  0  0
    5.6129    0.5164   -2.4016 C   0  0  0  0  0  0  0  0  0  0  0  0
   -3.7696   -1.3306    1.2995 H   0  0  0  0  0  0  0  0  0  0  0  0
   -4.3938    0.1625    0.6741 H   0  0  0  0  0  0  0  0  0  0  0  0
   -0.4545   -1.2229   -0.5978 H   0  0  0  0  0  0  0  0  0  0  0  0
   -1.3566   -2.1869    0.5752 H   0  0  0  0  0  0  0  0  0  0  0  0
   -4.5176   -0.8463   -1.6134 H   0  0  0  0  0  0  0  0  0  0  0  0
   -5.3777   -1.8234   -0.4352 H   0  0  0  0  0  0  0  0  0  0  0  0
   -1.4963   -3.2074   -1.5975 H   0  0  0  0  0  0  0  0  0  0  0  0
   -2.0570   -1.7211   -2.3460 H   0  0  0  0  0  0  0  0  0  0  0  0
   -1.8402   -0.3398    2.2784 H   0  0  0  0  0  0  0  0  0  0  0  0
   -2.2502    1.2143    1.7518 H   0  0  0  0  0  0  0  0  0  0  0  0
   -3.9682   -3.2026   -1.9709 H   0  0  0  0  0  0  0  0  0  0  0  0
   -3.5374   -3.4130   -0.2767 H   0  0  0  0  0  0  0  0  0  0  0  0
   -1.2059    1.1189   -1.1980 H   0  0  0  0  0  0  0  0  0  0  0  0
   -2.6365    0.4611   -1.9066 H   0  0  0  0  0  0  0  0  0  0  0  0
    0.7744   -0.9397    3.4927 H   0  0  0  0  0  0  0  0  0  0  0  0
   -0.5586   -1.6373    2.5699 H   0  0  0  0  0  0  0  0  0  0  0  0
    1.0574   -2.1913    2.2428 H   0  0  0  0  0  0  0  0  0  0  0  0
   -4.8137    2.7122   -0.7201 H   0  0  0  0  0  0  0  0  0  0  0  0
    1.1515    0.7041   -0.9451 H   0  0  0  0  0  0  0  0  0  0  0  0
    3.0649   -1.0616    2.5104 H   0  0  0  0  0  0  0  0  0  0  0  0
    3.2459    0.8148   -2.0742 H   0  0  0  0  0  0  0  0  0  0  0  0
    5.2138   -0.9922    1.3380 H   0  0  0  0  0  0  0  0  0  0  0  0
    5.0098   -0.0784   -3.0959 H   0  0  0  0  0  0  0  0  0  0  0  0
    5.3179    1.5712   -2.3940 H   0  0  0  0  0  0  0  0  0  0  0  0
    6.6464    0.4762   -2.7609 H   0  0  0  0  0  0  0  0  0  0  0  0
  1 14  2  0  0  0  0
  2 15  1  0  0  0  0
  2 41  1  0  0  0  0
  3 15  2  0  0  0  0
  4 22  1  0  0  0  0
  4 23  1  0  0  0  0
  5 14  1  0  0  0  0
  5 16  1  0  0  0  0
  5 17  1  0  0  0  0
  6  7  1  0  0  0  0
  6  8  1  0  0  0  0
  6 11  1  0  0  0  0
  6 13  1  0  0  0  0
  7  9  1  0  0  0  0
  7 24  1  0  0  0  0
  7 25  1  0  0  0  0
  8 10  1  0  0  0  0
  8 26  1  0  0  0  0
  8 27  1  0  0  0  0
  9 12  1  0  0  0  0
  9 28  1  0  0  0  0
  9 29  1  0  0  0  0
 10 12  1  0  0  0  0
 10 30  1  0  0  0  0
 10 31  1  0  0  0  0
 11 14  1  0  0  0  0
 11 32  1  0  0  0  0
 11 33  1  0  0  0  0
 12 34  1  0  0  0  0
 12 35  1  0  0  0  0
 13 15  1  0  0  0  0
 13 36  1  0  0  0  0
 13 37  1  0  0  0  0
 16 18  2  0  0  0  0
 16 19  1  0  0  0  0
 17 38  1  0  0  0  0
 17 39  1  0  0  0  0
 17 40  1  0  0  0  0
 18 20  1  0  0  0  0
 18 42  1  0  0  0  0
 19 21  2  0  0  0  0
 19 43  1  0  0  0  0
 20 22  2  0  0  0  0
 20 44  1  0  0  0  0
 21 22  1  0  0  0  0
 21 45  1  0  0  0  0
 23 46  1  0  0  0  0
 23 47  1  0  0  0  0
 23 48  1  0  0  0  0
M  END
> <PUBCHEM_COMPOUND_CID>
586333

> <PUBCHEM_CONFORMER_RMSD>
0.8

> <PUBCHEM_CONFORMER_DIVERSEORDER>
2
139
24
79
92
5
142
114
99
65
138
10
73
118
70
98
128
26
23
122
115
32
59
83
141
66
76
104
95
135
62
129
22
145
33
50
144
146
124
52
85
39
131
105
133
108
91
89
96
110
3
81
87
113
42
127
71
101
84
140
31
107
117
125
54
27
137
136
9
12
119
97
134
57
67
86
49
93
121
46
82
11
143
41
14
120
8
55
123
16
90
80
37
112
1
18
68
34
29
147
13
30
6
15
109
63
56
25
47
106
21
75
126
53
64
88
77
7
58
94
103
51
78
69
20
72
48
132
60
74
61
102
111
45
19
44
116
17
40
43
35
130
28
4
38
36
100

> <PUBCHEM_MMFF94_PARTIAL_CHARGES>
22
1 -0.57
11 0.06
13 0.06
14 0.57
15 0.66
16 0.12
17 0.3
18 -0.15
19 -0.15
2 -0.65
20 -0.15
21 -0.15
22 0.08
23 0.28
3 -0.57
4 -0.36
41 0.5
42 0.15
43 0.15
44 0.15
45 0.15
5 -0.48

> <PUBCHEM_EFFECTIVE_ROTOR_COUNT>
8.2

> <PUBCHEM_PHARMACOPHORE_FEATURES>
7
1 1 acceptor
1 2 acceptor
1 3 acceptor
1 4 acceptor
3 2 3 15 anion
6 16 18 19 20 21 22 rings
6 6 7 8 9 10 12 rings

> <PUBCHEM_HEAVY_ATOM_COUNT>
23

> <PUBCHEM_ATOM_DEF_STEREO_COUNT>
0

> <PUBCHEM_ATOM_UDEF_STEREO_COUNT>
0

> <PUBCHEM_BOND_DEF_STEREO_COUNT>
0

> <PUBCHEM_BOND_UDEF_STEREO_COUNT>
0

> <PUBCHEM_ISOTOPIC_ATOM_COUNT>
0

> <PUBCHEM_COMPONENT_COUNT>
1

> <PUBCHEM_CACTVS_TAUTO_COUNT>
1

> <PUBCHEM_CONFORMER_ID>
0008F25D00000002

> <PUBCHEM_MMFF94_ENERGY>
90.7318

> <PUBCHEM_FEATURE_SELFOVERLAP>
35.579

> <PUBCHEM_SHAPE_FINGERPRINT>
10759866 29 18200037377104422755
11552529 35 8862645881502195700
12236239 1 18060703913441768078
12553582 1 18338248050680106083
12714826 92 18260553294780456547
12788726 201 18343032090465841011
13103583 49 7204781375853198270
13402501 40 17168132408749563070
13544653 18 15430035452910439984
14251751 93 18412269458009878999
14251757 5 18336823091810143846
14386348 63 17095521764604790526
15163728 17 17904477755558961677
16752209 62 18265358195201664667
17349148 13 17488762141666121072
17870717 6 18040711480697561381
19433438 15 18130794498858595050
20693207 138 17749673987136120450
20871999 31 18408605855132513547
21033648 144 15913326884184963658
21033650 10 18339346553153714560
21713013 43 17968376758232225462
21864079 5 16629971056698000276
22393880 68 18408041801952778556
22620623 9 18187374211703730591
22849339 104 18260268542654269207
22907989 373 18128841770682221277
23175994 123 16805605841559445499
23402539 116 17988644112413142184
23557571 272 18116167596605440840
23559900 14 17603586322893009226
23598291 2 17916317201839080098
268830 7 16486977340602405512
2838139 119 15123241974797791590
312425 83 18339908416517236478
314194 84 14851598904472265356
474 4 17060055994822142576
484985 159 16806144649185957758
4921388 177 17967244325595645120
633830 44 17489304252306593346

> <PUBCHEM_SHAPE_MULTIPOLES>
444.87
10.45
2.34
1.98
10.5
0.58
0.28
-0.78
-6.2
-4
-0.62
1.7
-0.43
-1.11

> <PUBCHEM_SHAPE_SELFOVERLAP>
927.643

> <PUBCHEM_SHAPE_VOLUME>
251.7

> <PUBCHEM_COORDINATE_TYPE>
2
5
10

$$$$

