6730
  -OEChem-07051212523D

 28 29  0     0  0  0  0  0  0999 V2000
    5.0013    2.0955    0.3408 Cl  0  0  0  0  0  0  0  0  0  0  0  0
   -5.0112    2.0810    0.4649 Cl  0  0  0  0  0  0  0  0  0  0  0  0
    1.0683   -3.1896   -0.1704 O   0  0  0  0  0  0  0  0  0  0  0  0
   -0.8762   -2.8146    0.9378 O   0  0  0  0  0  0  0  0  0  0  0  0
   -0.0123   -1.0792   -0.5606 C   0  0  0  0  0  0  0  0  0  0  0  0
    1.2330   -0.2896   -0.3363 C   0  0  0  0  0  0  0  0  0  0  0  0
   -1.2910   -0.2719   -0.2978 C   0  0  0  0  0  0  0  0  0  0  0  0
    1.6834    0.5956   -1.3154 C   0  0  0  0  0  0  0  0  0  0  0  0
   -2.3496   -0.4245   -1.1597 C   0  0  0  0  0  0  0  0  0  0  0  0
    1.9479   -0.4374    0.8525 C   0  0  0  0  0  0  0  0  0  0  0  0
   -1.3217    0.5697    0.7876 C   0  0  0  0  0  0  0  0  0  0  0  0
   -0.0243   -2.4431    0.1428 C   0  0  0  0  0  0  0  0  0  0  0  0
    2.8486    1.3333   -1.1062 C   0  0  0  0  0  0  0  0  0  0  0  0
   -3.5112    0.3101   -0.9216 C   0  0  0  0  0  0  0  0  0  0  0  0
    3.1131    0.3003    1.0620 C   0  0  0  0  0  0  0  0  0  0  0  0
   -2.4833    1.3042    1.0259 C   0  0  0  0  0  0  0  0  0  0  0  0
    3.5635    1.1858    0.0826 C   0  0  0  0  0  0  0  0  0  0  0  0
   -3.5782    1.1744    0.1712 C   0  0  0  0  0  0  0  0  0  0  0  0
   -0.0245   -1.3473   -1.6295 H   0  0  0  0  0  0  0  0  0  0  0  0
    1.1359    0.7212   -2.2459 H   0  0  0  0  0  0  0  0  0  0  0  0
   -2.3065   -1.0968   -2.0107 H   0  0  0  0  0  0  0  0  0  0  0  0
    1.6146   -1.1039    1.6430 H   0  0  0  0  0  0  0  0  0  0  0  0
   -0.4972    0.6778    1.4825 H   0  0  0  0  0  0  0  0  0  0  0  0
    3.1876    2.0195   -1.8780 H   0  0  0  0  0  0  0  0  0  0  0  0
   -4.3567    0.1985   -1.5957 H   0  0  0  0  0  0  0  0  0  0  0  0
    3.6578    0.1783    1.9947 H   0  0  0  0  0  0  0  0  0  0  0  0
   -2.5232    1.9705    1.8838 H   0  0  0  0  0  0  0  0  0  0  0  0
    1.0715   -4.0484    0.3037 H   0  0  0  0  0  0  0  0  0  0  0  0
  1 17  1  0  0  0  0
  2 18  1  0  0  0  0
  3 12  1  0  0  0  0
  3 28  1  0  0  0  0
  4 12  2  0  0  0  0
  5  6  1  0  0  0  0
  5  7  1  0  0  0  0
  5 12  1  0  0  0  0
  5 19  1  0  0  0  0
  6  8  2  0  0  0  0
  6 10  1  0  0  0  0
  7  9  2  0  0  0  0
  7 11  1  0  0  0  0
  8 13  1  0  0  0  0
  8 20  1  0  0  0  0
  9 14  1  0  0  0  0
  9 21  1  0  0  0  0
 10 15  2  0  0  0  0
 10 22  1  0  0  0  0
 11 16  2  0  0  0  0
 11 23  1  0  0  0  0
 13 17  2  0  0  0  0
 13 24  1  0  0  0  0
 14 18  2  0  0  0  0
 14 25  1  0  0  0  0
 15 17  1  0  0  0  0
 15 26  1  0  0  0  0
 16 18  1  0  0  0  0
 16 27  1  0  0  0  0
M  END
> <PUBCHEM_COMPOUND_CID>
6730

> <PUBCHEM_CONFORMER_RMSD>
0.6

> <PUBCHEM_CONFORMER_DIVERSEORDER>
1
5
2
4
3

> <PUBCHEM_MMFF94_PARTIAL_CHARGES>
27
1 -0.18
10 -0.15
11 -0.15
12 0.66
13 -0.15
14 -0.15
15 -0.15
16 -0.15
17 0.18
18 0.18
2 -0.18
20 0.15
21 0.15
22 0.15
23 0.15
24 0.15
25 0.15
26 0.15
27 0.15
28 0.5
3 -0.65
4 -0.57
5 0.35
6 -0.14
7 -0.14
8 -0.15
9 -0.15

> <PUBCHEM_EFFECTIVE_ROTOR_COUNT>
3

> <PUBCHEM_PHARMACOPHORE_FEATURES>
5
1 3 acceptor
1 4 acceptor
3 3 4 12 anion
6 6 8 10 13 15 17 rings
6 7 9 11 14 16 18 rings

> <PUBCHEM_HEAVY_ATOM_COUNT>
18

> <PUBCHEM_ATOM_DEF_STEREO_COUNT>
0

> <PUBCHEM_ATOM_UDEF_STEREO_COUNT>
0

> <PUBCHEM_BOND_DEF_STEREO_COUNT>
0

> <PUBCHEM_BOND_UDEF_STEREO_COUNT>
0

> <PUBCHEM_ISOTOPIC_ATOM_COUNT>
0

> <PUBCHEM_COMPONENT_COUNT>
1

> <PUBCHEM_CACTVS_TAUTO_COUNT>
1

> <PUBCHEM_CONFORMER_ID>
00001A4A00000001

> <PUBCHEM_MMFF94_ENERGY>
47.9822

> <PUBCHEM_FEATURE_SELFOVERLAP>
25.43

> <PUBCHEM_SHAPE_FINGERPRINT>
10465860 228 18265894838010581319
10498660 4 17894630370279878561
11640471 11 18413111632329525732
12403259 327 16056870330177345785
12633257 1 16128366056451160057
12788726 201 17694771927066558806
12892183 10 16271657779000183268
13140716 1 18342457079479744746
13583140 156 16773804645169156257
13764800 53 18264758883411407514
13965767 371 18130511923985700020
14123255 52 18410290315489111528
14787075 74 18188207581788852339
15309172 13 18202568379724860468
15342168 16 18343576348278679941
15775835 57 18333734636598614481
15906896 17 18265334993134646022
16752209 62 18124040026888421254
16945 1 18129665338660371495
1741750 31 18339360752041190872
1813 80 17468750144650425174
18186145 218 18411699928050184663
18222031 100 10447922841704074905
19765921 60 18334296496009832635
19784866 34 18335702767134659705
20157964 124 18126855026554902605
20361792 2 9223227425458900369
204376 136 18413671296548426513
20510252 161 18120369861206114586
20871999 31 16660657224034115861
21499 59 18411141337657399541
21524375 3 18334859428403673990
21713013 43 13984672412437287765
21731228 192 18273495658634976530
21731516 1 8862944961269673590
2255824 54 18121494919510584639
23184049 59 17989212559587111988
23402539 116 18041286491278294012
23557571 272 17023468530085080429
23558518 356 18201153239762839666
23559900 14 16878506876700504438
305870 269 18411138086224803054
3472631 163 18113618980303237093
394222 165 18191587656394492099
4028521 119 17748825206872286489
4340502 62 18272079544489767979
474 4 18410856607106079977
5104073 3 17843418297756700992
6333272 397 18411696573923403689
633830 44 18334015029206344925
6992083 37 17845659123237360988
7364860 26 18044656644377279455
81228 2 17909256988569468746
84936 182 18189056550061478936
9981440 41 18115596937502305570

> <PUBCHEM_SHAPE_MULTIPOLES>
362.43
8.27
2.71
1.19
0.4
2.12
-0.12
-8.44
0.69
-0.14
0.53
-0.06
-0.09
-0.53

> <PUBCHEM_SHAPE_SELFOVERLAP>
764.153

> <PUBCHEM_SHAPE_VOLUME>
205.5

> <PUBCHEM_COORDINATE_TYPE>
2
5
10

$$$$

