443409
  -OEChem-07051213023D

 47 50  0     1  0  0  0  0  0999 V2000
   -0.8959    2.1841    1.1234 O   0  0  0  0  0  0  0  0  0  0  0  0
    5.0509    0.9585   -0.6243 O   0  0  0  0  0  0  0  0  0  0  0  0
   -1.8877   -0.1597   -0.7678 N   0  0  2  0  0  0  0  0  0  0  0  0
    0.7120   -1.4279   -0.2507 C   0  0  1  0  0  0  0  0  0  0  0  0
   -0.4120   -1.3751    0.8295 C   0  0  1  0  0  0  0  0  0  0  0  0
   -1.2666   -0.1221    0.5660 C   0  0  1  0  0  0  0  0  0  0  0  0
    0.0767   -1.4022   -1.6659 C   0  0  0  0  0  0  0  0  0  0  0  0
   -3.8660    0.9804    0.1404 C   0  0  0  0  0  0  0  0  0  0  0  0
   -0.9298   -0.2615   -1.8710 C   0  0  0  0  0  0  0  0  0  0  0  0
   -2.8573    0.9068   -0.9933 C   0  0  0  0  0  0  0  0  0  0  0  0
    1.5896   -0.1713   -0.0757 C   0  0  0  0  0  0  0  0  0  0  0  0
   -4.6869   -0.2224    0.4224 C   0  0  0  0  0  0  0  0  0  0  0  0
   -5.3077    0.9893   -0.2086 C   0  0  0  0  0  0  0  0  0  0  0  0
    1.5292   -2.7312   -0.0992 C   0  0  0  0  0  0  0  0  0  0  0  0
   -0.4111    1.1203    0.7464 C   0  0  0  0  0  0  0  0  0  0  0  0
   -1.3050   -2.6234    0.9172 C   0  0  0  0  0  0  0  0  0  0  0  0
    1.0385    1.0303    0.4196 C   0  0  0  0  0  0  0  0  0  0  0  0
    2.9498   -0.1606   -0.4341 C   0  0  0  0  0  0  0  0  0  0  0  0
    2.1374   -2.8232    1.2796 C   0  0  0  0  0  0  0  0  0  0  0  0
    1.8290    2.1773    0.5812 C   0  0  0  0  0  0  0  0  0  0  0  0
    3.7355    0.9842   -0.2736 C   0  0  0  0  0  0  0  0  0  0  0  0
    3.1774    2.1492    0.2385 C   0  0  0  0  0  0  0  0  0  0  0  0
    0.0409   -1.2483    1.8240 H   0  0  0  0  0  0  0  0  0  0  0  0
   -2.0157   -0.1049    1.3664 H   0  0  0  0  0  0  0  0  0  0  0  0
   -0.4391   -2.3529   -1.8548 H   0  0  0  0  0  0  0  0  0  0  0  0
    0.8568   -1.3253   -2.4348 H   0  0  0  0  0  0  0  0  0  0  0  0
   -3.5519    1.6052    0.9662 H   0  0  0  0  0  0  0  0  0  0  0  0
   -0.3950    0.6847   -2.0200 H   0  0  0  0  0  0  0  0  0  0  0  0
   -1.4687   -0.4566   -2.8068 H   0  0  0  0  0  0  0  0  0  0  0  0
   -2.3732    1.8854   -1.0981 H   0  0  0  0  0  0  0  0  0  0  0  0
   -3.3817    0.7171   -1.9384 H   0  0  0  0  0  0  0  0  0  0  0  0
   -4.9329   -0.4353    1.4556 H   0  0  0  0  0  0  0  0  0  0  0  0
   -4.5753   -1.1037   -0.1974 H   0  0  0  0  0  0  0  0  0  0  0  0
   -5.6061    0.9177   -1.2471 H   0  0  0  0  0  0  0  0  0  0  0  0
   -5.9731    1.5880    0.4019 H   0  0  0  0  0  0  0  0  0  0  0  0
    2.3154   -2.8046   -0.8589 H   0  0  0  0  0  0  0  0  0  0  0  0
    0.8987   -3.6115   -0.2728 H   0  0  0  0  0  0  0  0  0  0  0  0
   -2.1112   -2.4641    1.6424 H   0  0  0  0  0  0  0  0  0  0  0  0
   -1.7711   -2.8713   -0.0408 H   0  0  0  0  0  0  0  0  0  0  0  0
   -0.7485   -3.5006    1.2580 H   0  0  0  0  0  0  0  0  0  0  0  0
    3.4274   -1.0379   -0.8598 H   0  0  0  0  0  0  0  0  0  0  0  0
    2.7479   -1.9618    1.5593 H   0  0  0  0  0  0  0  0  0  0  0  0
    1.3908   -2.9788    2.0628 H   0  0  0  0  0  0  0  0  0  0  0  0
    2.7984   -3.6972    1.3179 H   0  0  0  0  0  0  0  0  0  0  0  0
    1.4099    3.1038    0.9646 H   0  0  0  0  0  0  0  0  0  0  0  0
    3.7784    3.0454    0.3665 H   0  0  0  0  0  0  0  0  0  0  0  0
    5.4415    1.8318   -0.4487 H   0  0  0  0  0  0  0  0  0  0  0  0
  1 15  2  0  0  0  0
  2 21  1  0  0  0  0
  2 47  1  0  0  0  0
  3  6  1  0  0  0  0
  3  9  1  0  0  0  0
  3 10  1  0  0  0  0
  4  5  1  0  0  0  0
  4  7  1  0  0  0  0
  4 11  1  0  0  0  0
  4 14  1  0  0  0  0
  5  6  1  0  0  0  0
  5 16  1  0  0  0  0
  5 23  1  0  0  0  0
  6 15  1  0  0  0  0
  6 24  1  0  0  0  0
  7  9  1  0  0  0  0
  7 25  1  0  0  0  0
  7 26  1  0  0  0  0
  8 10  1  0  0  0  0
  8 12  1  0  0  0  0
  8 13  1  0  0  0  0
  8 27  1  0  0  0  0
  9 28  1  0  0  0  0
  9 29  1  0  0  0  0
 10 30  1  0  0  0  0
 10 31  1  0  0  0  0
 11 17  2  0  0  0  0
 11 18  1  0  0  0  0
 12 13  1  0  0  0  0
 12 32  1  0  0  0  0
 12 33  1  0  0  0  0
 13 34  1  0  0  0  0
 13 35  1  0  0  0  0
 14 19  1  0  0  0  0
 14 36  1  0  0  0  0
 14 37  1  0  0  0  0
 15 17  1  0  0  0  0
 16 38  1  0  0  0  0
 16 39  1  0  0  0  0
 16 40  1  0  0  0  0
 17 20  1  0  0  0  0
 18 21  2  0  0  0  0
 18 41  1  0  0  0  0
 19 42  1  0  0  0  0
 19 43  1  0  0  0  0
 19 44  1  0  0  0  0
 20 22  2  0  0  0  0
 20 45  1  0  0  0  0
 21 22  1  0  0  0  0
 22 46  1  0  0  0  0
M  END
> <PUBCHEM_COMPOUND_CID>
443409

> <PUBCHEM_CONFORMER_RMSD>
0.8

> <PUBCHEM_CONFORMER_DIVERSEORDER>
1
2
3

> <PUBCHEM_MMFF94_PARTIAL_CHARGES>
26
1 -0.57
10 0.37
11 -0.14
12 -0.2
13 -0.2
15 0.42
17 0.09
18 -0.15
2 -0.53
20 -0.15
21 0.08
22 -0.15
27 0.1
3 -0.81
32 0.1
33 0.1
34 0.1
35 0.1
4 0.14
41 0.15
45 0.15
46 0.15
47 0.45
6 0.33
8 -0.19
9 0.27

> <PUBCHEM_EFFECTIVE_ROTOR_COUNT>
4.4

> <PUBCHEM_PHARMACOPHORE_FEATURES>
7
1 1 acceptor
1 19 hydrophobe
1 2 donor
1 3 cation
6 11 17 18 20 21 22 rings
6 3 4 5 6 7 9 rings
6 4 5 6 11 15 17 rings

> <PUBCHEM_HEAVY_ATOM_COUNT>
22

> <PUBCHEM_ATOM_DEF_STEREO_COUNT>
2

> <PUBCHEM_ATOM_UDEF_STEREO_COUNT>
1

> <PUBCHEM_BOND_DEF_STEREO_COUNT>
0

> <PUBCHEM_BOND_UDEF_STEREO_COUNT>
0

> <PUBCHEM_ISOTOPIC_ATOM_COUNT>
0

> <PUBCHEM_COMPONENT_COUNT>
1

> <PUBCHEM_CACTVS_TAUTO_COUNT>
5

> <PUBCHEM_CONFORMER_ID>
0006C41100000001

> <PUBCHEM_MMFF94_ENERGY>
72.292

> <PUBCHEM_FEATURE_SELFOVERLAP>
37.071

> <PUBCHEM_SHAPE_FINGERPRINT>
10165383 225 18201996621025896748
10863032 1 18412827966977626723
10922049 32 18409446947415956765
10948715 1 18337110072913250685
10967382 1 18409447003129290344
1100329 8 18341900739792507946
12035759 4 17894628179587444949
12173636 292 17981890743996031516
12592029 89 18412265042730537104
12644460 14 18337669814610563123
12730499 353 18413383237977604107
12788726 201 17968089871755393696
13140716 1 18265343811065975520
13464514 151 18409444808195117683
14787075 74 18337953390258862783
14790565 3 18337101285384874168
14955137 171 18191314964689607650
15295992 7 18263648359830525424
1601671 61 17240759640321177857
16945 1 18262532484028886447
1813 80 17536593263722574710
18186145 218 18336277751090669837
18785283 64 18060423538615190042
19591789 44 18191870015886441323
19784866 34 18335992964810075416
19784866 9 18410860970782303312
20602899 9 15936680489188003399
20905425 154 18118118310553383940
21041028 32 18049452731203355588
21330990 113 18059012770259028095
21421861 104 18047175625959372937
21524375 3 18335135371420439252
22112679 90 17460911520318359295
229495 10 18057906803142620943
23227448 37 18127407843678133245
2334 1 18047753689723334472
23419403 2 17628321021669541882
23493267 7 18271248205597201144
23559900 14 18271802453788819570
25 1 18410298003474991332
2748010 2 18118960291820834112
298252 57 17603587396044184527
3286 77 17772192161303698631
3323516 105 18412260666459477499
347723 3 15864062174485081941
34934 24 18113907026711084176
3759504 43 18200871747884963936
394222 165 18335143089476508234
427121 178 17918270974262388651
4340502 62 18343860022420784843
474 4 18410573959614230261
5895379 119 17099739701847142009
6138700 20 18335414721153086678
633830 44 18262243209471038724
6442390 28 18200028430608521251
81228 2 17404317195688585858
8272917 22 18337106886416762541
9999458 23 18412261705535946196

> <PUBCHEM_SHAPE_MULTIPOLES>
436.03
7.51
2.86
1.27
4.99
1.4
-0.36
-3.98
-0.47
-1.89
0.96
0.16
0.32
-0.04

> <PUBCHEM_SHAPE_SELFOVERLAP>
943.515

> <PUBCHEM_SHAPE_VOLUME>
238.3

> <PUBCHEM_COORDINATE_TYPE>
2
5
10

$$$$

