230614
  -OEChem-07051213073D

 48 51  0     1  0  0  0  0  0999 V2000
   -5.2697    0.2677   -1.1696 O   0  0  0  0  0  0  0  0  0  0  0  0
    6.3433    0.4857   -0.5249 O   0  0  0  0  0  0  0  0  0  0  0  0
   -2.1850    0.2644   -0.0737 C   0  0  1  0  0  0  0  0  0  0  0  0
   -1.3931   -0.9536    0.4509 C   0  0  2  0  0  0  0  0  0  0  0  0
    0.0718   -0.9300    0.0138 C   0  0  1  0  0  0  0  0  0  0  0  0
   -3.5832   -0.0922    0.4773 C   0  0  2  0  0  0  0  0  0  0  0  0
    0.7464    0.3491    0.5952 C   0  0  2  0  0  0  0  0  0  0  0  0
   -1.5556    1.5279    0.5277 C   0  0  0  0  0  0  0  0  0  0  0  0
   -2.2684   -2.1388    0.0587 C   0  0  0  0  0  0  0  0  0  0  0  0
   -3.7029   -1.6140    0.2509 C   0  0  0  0  0  0  0  0  0  0  0  0
   -0.0501    1.6260    0.2156 C   0  0  0  0  0  0  0  0  0  0  0  0
    0.8474   -2.1599    0.4904 C   0  0  0  0  0  0  0  0  0  0  0  0
   -2.2108    0.3835   -1.6201 C   0  0  0  0  0  0  0  0  0  0  0  0
    2.2347    0.3904    0.2592 C   0  0  0  0  0  0  0  0  0  0  0  0
    2.2552   -2.1446   -0.0978 C   0  0  0  0  0  0  0  0  0  0  0  0
   -4.7096    0.6684   -0.1504 C   0  0  0  0  0  0  0  0  0  0  0  0
    2.9388   -0.8010   -0.0228 C   0  0  0  0  0  0  0  0  0  0  0  0
    2.9593    1.5945    0.3083 C   0  0  0  0  0  0  0  0  0  0  0  0
   -5.1245    1.9459    0.5280 C   0  0  0  0  0  0  0  0  0  0  0  0
    4.3172   -0.7521   -0.2961 C   0  0  0  0  0  0  0  0  0  0  0  0
    4.3301    1.6276    0.0432 C   0  0  0  0  0  0  0  0  0  0  0  0
    5.0086    0.4553   -0.2636 C   0  0  0  0  0  0  0  0  0  0  0  0
   -1.3958   -0.9246    1.5536 H   0  0  0  0  0  0  0  0  0  0  0  0
    0.1283   -0.9113   -1.0820 H   0  0  0  0  0  0  0  0  0  0  0  0
   -3.6215    0.0824    1.5615 H   0  0  0  0  0  0  0  0  0  0  0  0
    0.7056    0.2763    1.6932 H   0  0  0  0  0  0  0  0  0  0  0  0
   -1.6861    1.5306    1.6176 H   0  0  0  0  0  0  0  0  0  0  0  0
   -2.0544    2.4284    0.1530 H   0  0  0  0  0  0  0  0  0  0  0  0
   -2.0802   -3.0161    0.6857 H   0  0  0  0  0  0  0  0  0  0  0  0
   -2.1024   -2.4338   -0.9833 H   0  0  0  0  0  0  0  0  0  0  0  0
   -4.3175   -1.8918   -0.6116 H   0  0  0  0  0  0  0  0  0  0  0  0
   -4.1640   -2.0826    1.1286 H   0  0  0  0  0  0  0  0  0  0  0  0
    0.0982    1.8536   -0.8469 H   0  0  0  0  0  0  0  0  0  0  0  0
    0.3350    2.4905    0.7687 H   0  0  0  0  0  0  0  0  0  0  0  0
    0.3484   -3.0870    0.1870 H   0  0  0  0  0  0  0  0  0  0  0  0
    0.9004   -2.1699    1.5867 H   0  0  0  0  0  0  0  0  0  0  0  0
   -1.2112    0.4684   -2.0543 H   0  0  0  0  0  0  0  0  0  0  0  0
   -2.6925   -0.4745   -2.0996 H   0  0  0  0  0  0  0  0  0  0  0  0
   -2.7586    1.2806   -1.9311 H   0  0  0  0  0  0  0  0  0  0  0  0
    2.2033   -2.4362   -1.1548 H   0  0  0  0  0  0  0  0  0  0  0  0
    2.8595   -2.8983    0.4215 H   0  0  0  0  0  0  0  0  0  0  0  0
    2.4745    2.5325    0.5613 H   0  0  0  0  0  0  0  0  0  0  0  0
   -5.3772    1.7456    1.5722 H   0  0  0  0  0  0  0  0  0  0  0  0
   -4.3230    2.6834    0.4677 H   0  0  0  0  0  0  0  0  0  0  0  0
   -6.0103    2.3508    0.0302 H   0  0  0  0  0  0  0  0  0  0  0  0
    4.8539   -1.6683   -0.5346 H   0  0  0  0  0  0  0  0  0  0  0  0
    4.8549    2.5785    0.0847 H   0  0  0  0  0  0  0  0  0  0  0  0
    6.6570    1.4039   -0.4568 H   0  0  0  0  0  0  0  0  0  0  0  0
  1 16  2  0  0  0  0
  2 22  1  0  0  0  0
  2 48  1  0  0  0  0
  3  4  1  0  0  0  0
  3  6  1  0  0  0  0
  3  8  1  0  0  0  0
  3 13  1  0  0  0  0
  4  5  1  0  0  0  0
  4  9  1  0  0  0  0
  4 23  1  0  0  0  0
  5  7  1  0  0  0  0
  5 12  1  0  0  0  0
  5 24  1  0  0  0  0
  6 10  1  0  0  0  0
  6 16  1  0  0  0  0
  6 25  1  0  0  0  0
  7 11  1  0  0  0  0
  7 14  1  0  0  0  0
  7 26  1  0  0  0  0
  8 11  1  0  0  0  0
  8 27  1  0  0  0  0
  8 28  1  0  0  0  0
  9 10  1  0  0  0  0
  9 29  1  0  0  0  0
  9 30  1  0  0  0  0
 10 31  1  0  0  0  0
 10 32  1  0  0  0  0
 11 33  1  0  0  0  0
 11 34  1  0  0  0  0
 12 15  1  0  0  0  0
 12 35  1  0  0  0  0
 12 36  1  0  0  0  0
 13 37  1  0  0  0  0
 13 38  1  0  0  0  0
 13 39  1  0  0  0  0
 14 17  2  0  0  0  0
 14 18  1  0  0  0  0
 15 17  1  0  0  0  0
 15 40  1  0  0  0  0
 15 41  1  0  0  0  0
 16 19  1  0  0  0  0
 17 20  1  0  0  0  0
 18 21  2  0  0  0  0
 18 42  1  0  0  0  0
 19 43  1  0  0  0  0
 19 44  1  0  0  0  0
 19 45  1  0  0  0  0
 20 22  2  0  0  0  0
 20 46  1  0  0  0  0
 21 22  1  0  0  0  0
 21 47  1  0  0  0  0
M  END
> <PUBCHEM_COMPOUND_CID>
230614

> <PUBCHEM_CONFORMER_RMSD>
0.6

> <PUBCHEM_CONFORMER_DIVERSEORDER>
1
2

> <PUBCHEM_MMFF94_PARTIAL_CHARGES>
17
1 -0.57
14 -0.14
15 0.14
16 0.45
17 -0.14
18 -0.15
19 0.06
2 -0.53
20 -0.15
21 -0.15
22 0.08
42 0.15
46 0.15
47 0.15
48 0.45
6 0.06
7 0.14

> <PUBCHEM_EFFECTIVE_ROTOR_COUNT>
2.4

> <PUBCHEM_PHARMACOPHORE_FEATURES>
6
1 1 acceptor
1 2 donor
5 3 4 6 9 10 rings
6 14 17 18 20 21 22 rings
6 3 4 5 7 8 11 rings
6 5 7 12 14 15 17 rings

> <PUBCHEM_HEAVY_ATOM_COUNT>
22

> <PUBCHEM_ATOM_DEF_STEREO_COUNT>
5

> <PUBCHEM_ATOM_UDEF_STEREO_COUNT>
0

> <PUBCHEM_BOND_DEF_STEREO_COUNT>
0

> <PUBCHEM_BOND_UDEF_STEREO_COUNT>
0

> <PUBCHEM_ISOTOPIC_ATOM_COUNT>
0

> <PUBCHEM_COMPONENT_COUNT>
1

> <PUBCHEM_CACTVS_TAUTO_COUNT>
27

> <PUBCHEM_CONFORMER_ID>
000384D600000001

> <PUBCHEM_MMFF94_ENERGY>
71.4402

> <PUBCHEM_FEATURE_SELFOVERLAP>
30.544

> <PUBCHEM_SHAPE_FINGERPRINT>
10411042 1 17690838961031729555
10498660 4 18412262813837591480
10616163 171 18336543837257554987
10906281 52 18188757457518978633
11471102 20 18409451401149330114
11578080 2 17201652270552223902
11595378 159 16128387011643726108
12011746 2 18408604764142287789
12107183 9 17469595669407942673
12236239 1 17749110014732627572
12403259 415 18263642871094286864
12403814 3 17561088007850954039
12788726 201 17604426448176191881
12969540 114 18129680680921694287
13140716 1 18411146813841162994
13224815 77 18412829075105478490
14528608 73 18334861610241746629
14790565 3 18192705881300609249
15196674 1 18410572864323456946
15375358 24 18411699885243105131
1601671 61 18412825789481968096
16945 1 18339089309754889866
18186145 218 18341620295749469596
19784866 170 18202562886783448651
200 152 17894349977428496457
20645477 56 18060706104202182437
20645477 70 18187928416819128158
21267235 1 18337663114614945195
21279426 13 18337104686918838046
21304253 335 18271516602477876637
21421861 104 17916312817057494002
21709351 56 18340489963130416364
221357 26 18260265278705853508
23227448 37 18411419471107570527
23402539 116 18408888404236046838
23402655 69 18335421274613862078
23557571 272 18336255739499263838
23559900 14 18334860468297872032
2871803 45 18410012165191199068
296302 2 18202002135837640467
3004659 81 18342454881468929462
335352 9 18410291437087206926
34934 24 18410857680853419059
350125 39 18412262861493928768
3545911 37 18412261731231519769
3680242 22 18270402814436668826
4214541 1 18410009918633328417
4340502 62 16845283986548847587
474 4 18060413599633384804
5104073 3 18342739615281365907
542803 24 17561362868393516204
543358 83 18335980986066938442
633830 44 18335989687944850366
9709674 26 18262230131216552814

> <PUBCHEM_SHAPE_MULTIPOLES>
441.01
11.53
2.23
0.88
3.47
0.53
0.22
-3.86
1.71
-0.29
-0.31
-0.54
-0.08
0.01

> <PUBCHEM_SHAPE_SELFOVERLAP>
957.215

> <PUBCHEM_SHAPE_VOLUME>
241.1

> <PUBCHEM_COORDINATE_TYPE>
2
5
10

$$$$

