10462
  -OEChem-06261204343D

 16 15  0     0  0  0  0  0  0999 V2000
    3.9204   -0.7285    0.4593 O   0  5  0  0  0  0  0  0  0  0  0  0
   -3.9154    0.7302    0.4663 O   0  5  0  0  0  0  0  0  0  0  0  0
    3.1630    1.1336   -0.4649 O   0  0  0  0  0  0  0  0  0  0  0  0
   -3.1679   -1.1357   -0.4583 O   0  0  0  0  0  0  0  0  0  0  0  0
    1.7811   -0.5522    0.0087 N   0  0  0  0  0  0  0  0  0  0  0  0
   -1.7812    0.5523   -0.0072 N   0  0  0  0  0  0  0  0  0  0  0  0
    3.0325   -0.0008    0.0061 N   0  3  0  0  0  0  0  0  0  0  0  0
   -3.0325    0.0008    0.0064 N   0  3  0  0  0  0  0  0  0  0  0  0
    0.6604    0.3818    0.0041 C   0  0  0  0  0  0  0  0  0  0  0  0
   -0.6605   -0.3815   -0.0205 C   0  0  0  0  0  0  0  0  0  0  0  0
    0.7027    1.0191    0.8969 H   0  0  0  0  0  0  0  0  0  0  0  0
    0.7032    1.0328   -0.8790 H   0  0  0  0  0  0  0  0  0  0  0  0
   -0.6911   -1.0059   -0.9228 H   0  0  0  0  0  0  0  0  0  0  0  0
   -0.7161   -1.0446    0.8529 H   0  0  0  0  0  0  0  0  0  0  0  0
    1.7283   -1.2522    0.7449 H   0  0  0  0  0  0  0  0  0  0  0  0
   -1.7217    1.2529    0.7280 H   0  0  0  0  0  0  0  0  0  0  0  0
  1  7  1  0  0  0  0
  2  8  1  0  0  0  0
  3  7  2  0  0  0  0
  4  8  2  0  0  0  0
  5  7  1  0  0  0  0
  5  9  1  0  0  0  0
  5 15  1  0  0  0  0
  6  8  1  0  0  0  0
  6 10  1  0  0  0  0
  6 16  1  0  0  0  0
  9 10  1  0  0  0  0
  9 11  1  0  0  0  0
  9 12  1  0  0  0  0
 10 13  1  0  0  0  0
 10 14  1  0  0  0  0
M  CHG  4   1  -1   2  -1   7   1   8   1
M  END
> <PUBCHEM_COMPOUND_CID>
10462

> <PUBCHEM_CONFORMER_RMSD>
0.6

> <PUBCHEM_CONFORMER_DIVERSEORDER>
1
30
16
10
33
7
17
39
47
13
22
6
5
46
11
41
3
37
19
15
44
34
43
38
9
4
20
12
28
8
24
32
14
45
36
42
25
40
21
2
35
31
29
27
23
26
18

> <PUBCHEM_MMFF94_PARTIAL_CHARGES>
12
1 -0.52
10 0.27
15 0.36
16 0.36
2 -0.52
3 -0.52
4 -0.52
5 -0.62
6 -0.62
7 1.03
8 1.03
9 0.27

> <PUBCHEM_EFFECTIVE_ROTOR_COUNT>
5

> <PUBCHEM_PHARMACOPHORE_FEATURES>
6
1 1 acceptor
1 2 acceptor
1 3 acceptor
1 4 acceptor
1 5 donor
1 6 donor

> <PUBCHEM_HEAVY_ATOM_COUNT>
10

> <PUBCHEM_ATOM_DEF_STEREO_COUNT>
0

> <PUBCHEM_ATOM_UDEF_STEREO_COUNT>
0

> <PUBCHEM_BOND_DEF_STEREO_COUNT>
0

> <PUBCHEM_BOND_UDEF_STEREO_COUNT>
0

> <PUBCHEM_ISOTOPIC_ATOM_COUNT>
0

> <PUBCHEM_COMPONENT_COUNT>
1

> <PUBCHEM_CACTVS_TAUTO_COUNT>
1

> <PUBCHEM_CONFORMER_ID>
000028DE00000001

> <PUBCHEM_MMFF94_ENERGY>
9.9003

> <PUBCHEM_FEATURE_SELFOVERLAP>
30.598

> <PUBCHEM_SHAPE_FINGERPRINT>
11062470 55 18187363242088179121
12932764 1 16343432729872084842
14325111 11 18410855447248547671
190213 19 16443343173934357088

> <PUBCHEM_SHAPE_MULTIPOLES>
162.39
7.61
0.96
0.61
0.01
0
0
0.01
-0.46
0
0.06
0
0
-0.54

> <PUBCHEM_SHAPE_SELFOVERLAP>
303.061

> <PUBCHEM_SHAPE_VOLUME>
102.1

> <PUBCHEM_COORDINATE_TYPE>
2
5
10

$$$$

