439844
  -OEChem-07051212473D

 50 54  0     1  0  0  0  0  0999 V2000
    4.3843    1.3839   -0.3113 O   0  0  0  0  0  0  0  0  0  0  0  0
   -5.0101   -2.1824   -0.3688 O   0  0  0  0  0  0  0  0  0  0  0  0
   -6.2119   -0.1467    0.0931 O   0  0  0  0  0  0  0  0  0  0  0  0
    5.8387   -0.9487   -0.1410 O   0  0  0  0  0  0  0  0  0  0  0  0
    0.0964    1.3531    0.3211 N   0  3  2  0  0  0  0  0  0  0  0  0
   -0.5748    0.1037   -0.3205 C   0  0  1  0  0  0  0  0  0  0  0  0
   -0.6525    2.5977   -0.1758 C   0  0  0  0  0  0  0  0  0  0  0  0
    1.5525    1.4361   -0.1906 C   0  0  0  0  0  0  0  0  0  0  0  0
    0.1742   -1.1635    0.1514 C   0  0  0  0  0  0  0  0  0  0  0  0
   -2.0905    0.0656   -0.1634 C   0  0  0  0  0  0  0  0  0  0  0  0
   -2.1046    2.5843    0.2826 C   0  0  0  0  0  0  0  0  0  0  0  0
    0.1054    1.3231    1.8577 C   0  0  0  0  0  0  0  0  0  0  0  0
    2.3339    0.1560   -0.0794 C   0  0  0  0  0  0  0  0  0  0  0  0
   -2.8104    1.2676    0.0766 C   0  0  0  0  0  0  0  0  0  0  0  0
    1.6786   -1.0782    0.0509 C   0  0  0  0  0  0  0  0  0  0  0  0
   -2.8056   -1.1340   -0.3401 C   0  0  0  0  0  0  0  0  0  0  0  0
    3.7333    0.1938   -0.1549 C   0  0  0  0  0  0  0  0  0  0  0  0
   -4.2134    1.2493    0.1867 C   0  0  0  0  0  0  0  0  0  0  0  0
    2.4394   -2.2535    0.1414 C   0  0  0  0  0  0  0  0  0  0  0  0
   -4.1820   -1.1105   -0.2331 C   0  0  0  0  0  0  0  0  0  0  0  0
   -4.8673    0.0483    0.0263 C   0  0  0  0  0  0  0  0  0  0  0  0
    4.4783   -0.9819   -0.0739 C   0  0  0  0  0  0  0  0  0  0  0  0
    3.8317   -2.2051    0.0770 C   0  0  0  0  0  0  0  0  0  0  0  0
   -6.2957   -1.5648   -0.1547 C   0  0  0  0  0  0  0  0  0  0  0  0
    4.6272    1.8153   -1.6473 C   0  0  0  0  0  0  0  0  0  0  0  0
    6.5449   -0.8083    1.0901 C   0  0  0  0  0  0  0  0  0  0  0  0
   -0.3953    0.2174   -1.4006 H   0  0  0  0  0  0  0  0  0  0  0  0
   -0.5947    2.5940   -1.2715 H   0  0  0  0  0  0  0  0  0  0  0  0
   -0.1257    3.4827    0.1991 H   0  0  0  0  0  0  0  0  0  0  0  0
    2.0273    2.2469    0.3745 H   0  0  0  0  0  0  0  0  0  0  0  0
    1.4981    1.7218   -1.2478 H   0  0  0  0  0  0  0  0  0  0  0  0
   -0.1419   -2.0134   -0.4660 H   0  0  0  0  0  0  0  0  0  0  0  0
   -0.0961   -1.4041    1.1876 H   0  0  0  0  0  0  0  0  0  0  0  0
   -2.6390    3.3710   -0.2649 H   0  0  0  0  0  0  0  0  0  0  0  0
   -2.1632    2.8458    1.3462 H   0  0  0  0  0  0  0  0  0  0  0  0
    0.4220    2.3078    2.2144 H   0  0  0  0  0  0  0  0  0  0  0  0
   -0.8961    1.0858    2.2227 H   0  0  0  0  0  0  0  0  0  0  0  0
    0.8108    0.5648    2.2050 H   0  0  0  0  0  0  0  0  0  0  0  0
   -2.3078   -2.0704   -0.5645 H   0  0  0  0  0  0  0  0  0  0  0  0
   -4.7696    2.1587    0.3916 H   0  0  0  0  0  0  0  0  0  0  0  0
    1.9479   -3.2158    0.2622 H   0  0  0  0  0  0  0  0  0  0  0  0
    4.4042   -3.1262    0.1440 H   0  0  0  0  0  0  0  0  0  0  0  0
   -6.7768   -2.0441    0.7056 H   0  0  0  0  0  0  0  0  0  0  0  0
   -6.9167   -1.7301   -1.0427 H   0  0  0  0  0  0  0  0  0  0  0  0
    3.6980    1.8708   -2.2221 H   0  0  0  0  0  0  0  0  0  0  0  0
    5.3313    1.1398   -2.1433 H   0  0  0  0  0  0  0  0  0  0  0  0
    5.0722    2.8134   -1.6085 H   0  0  0  0  0  0  0  0  0  0  0  0
    7.6158   -0.7881    0.8702 H   0  0  0  0  0  0  0  0  0  0  0  0
    6.3387   -1.6575    1.7492 H   0  0  0  0  0  0  0  0  0  0  0  0
    6.2720    0.1282    1.5868 H   0  0  0  0  0  0  0  0  0  0  0  0
  1 17  1  0  0  0  0
  1 25  1  0  0  0  0
  2 20  1  0  0  0  0
  2 24  1  0  0  0  0
  3 21  1  0  0  0  0
  3 24  1  0  0  0  0
  4 22  1  0  0  0  0
  4 26  1  0  0  0  0
  5  6  1  0  0  0  0
  5  7  1  0  0  0  0
  5  8  1  0  0  0  0
  5 12  1  0  0  0  0
  6  9  1  0  0  0  0
  6 10  1  0  0  0  0
  6 27  1  0  0  0  0
  7 11  1  0  0  0  0
  7 28  1  0  0  0  0
  7 29  1  0  0  0  0
  8 13  1  0  0  0  0
  8 30  1  0  0  0  0
  8 31  1  0  0  0  0
  9 15  1  0  0  0  0
  9 32  1  0  0  0  0
  9 33  1  0  0  0  0
 10 14  1  0  0  0  0
 10 16  2  0  0  0  0
 11 14  1  0  0  0  0
 11 34  1  0  0  0  0
 11 35  1  0  0  0  0
 12 36  1  0  0  0  0
 12 37  1  0  0  0  0
 12 38  1  0  0  0  0
 13 15  2  0  0  0  0
 13 17  1  0  0  0  0
 14 18  2  0  0  0  0
 15 19  1  0  0  0  0
 16 20  1  0  0  0  0
 16 39  1  0  0  0  0
 17 22  2  0  0  0  0
 18 21  1  0  0  0  0
 18 40  1  0  0  0  0
 19 23  2  0  0  0  0
 19 41  1  0  0  0  0
 20 21  2  0  0  0  0
 22 23  1  0  0  0  0
 23 42  1  0  0  0  0
 24 43  1  0  0  0  0
 24 44  1  0  0  0  0
 25 45  1  0  0  0  0
 25 46  1  0  0  0  0
 25 47  1  0  0  0  0
 26 48  1  0  0  0  0
 26 49  1  0  0  0  0
 26 50  1  0  0  0  0
M  CHG  1   5   1
M  END
> <PUBCHEM_COMPOUND_CID>
439844

> <PUBCHEM_CONFORMER_RMSD>
0.8

> <PUBCHEM_CONFORMER_DIVERSEORDER>
2
5
3
6
1
4

> <PUBCHEM_MMFF94_PARTIAL_CHARGES>
30
1 -0.36
10 -0.14
11 0.14
12 0.5
13 -0.14
14 -0.14
15 -0.14
16 -0.15
17 0.08
18 -0.15
19 -0.15
2 -0.36
20 0.08
21 0.08
22 0.08
23 -0.15
24 0.56
25 0.28
26 0.28
3 -0.36
39 0.15
4 -0.36
40 0.15
41 0.15
42 0.15
5 -1.01
6 0.65
7 0.5
8 0.65
9 0.14

> <PUBCHEM_EFFECTIVE_ROTOR_COUNT>
3.4

> <PUBCHEM_PHARMACOPHORE_FEATURES>
10
1 1 acceptor
1 2 acceptor
1 3 acceptor
1 4 acceptor
1 5 cation
5 2 3 20 21 24 rings
6 10 14 16 18 20 21 rings
6 13 15 17 19 22 23 rings
6 5 6 7 10 11 14 rings
6 5 6 8 9 13 15 rings

> <PUBCHEM_HEAVY_ATOM_COUNT>
26

> <PUBCHEM_ATOM_DEF_STEREO_COUNT>
1

> <PUBCHEM_ATOM_UDEF_STEREO_COUNT>
1

> <PUBCHEM_BOND_DEF_STEREO_COUNT>
0

> <PUBCHEM_BOND_UDEF_STEREO_COUNT>
0

> <PUBCHEM_ISOTOPIC_ATOM_COUNT>
0

> <PUBCHEM_COMPONENT_COUNT>
1

> <PUBCHEM_CACTVS_TAUTO_COUNT>
1

> <PUBCHEM_CONFORMER_ID>
0006B62400000002

> <PUBCHEM_MMFF94_ENERGY>
104.9826

> <PUBCHEM_FEATURE_SELFOVERLAP>
50.958

> <PUBCHEM_SHAPE_FINGERPRINT>
10595046 47 18412542115524044100
10906281 52 18264467582266915623
11045515 52 18130790083590718725
11135609 187 18127967499502850204
11578080 2 17129595801737581879
11963148 33 18409455773263826166
12107183 9 17618503624057763099
12166972 35 17775002379980366484
12236239 1 18342455945634232564
12403260 363 18201155550976938396
12516196 113 18040156214541028131
12553582 1 18262253152657977823
12633257 1 16008756779703769533
12788726 201 17967799570446569377
13288520 33 18408604769117613493
1361 2 18128530462652312284
13631057 29 18335423495196298386
13685833 64 18341609283865097803
13862211 1 18411983554768775347
14341114 176 18411132529054223143
14787075 74 18342737394962452171
14790565 3 18409161121711397057
15196674 1 18410574006964014725
15352361 1 18410012135300579263
15537594 2 18260265201301490559
15927050 60 17541099766747382140
16087824 20 18266741476005230237
17349148 13 17988921197796210872
17492 89 18192713569002165422
17857418 61 18411421730102021443
1813 80 17775567546126395365
18681886 176 18408888447708154146
19319366 153 18272376343035181954
200 152 18334296500109705442
20028762 73 18409450297681170286
21033648 29 12750943383278652036
21267235 1 18409442609546739910
21792934 111 18335993021130116225
22950370 63 18408602557067031195
23402539 116 18413111683779319567
23522609 53 18119498047781758809
23559900 14 18336838575098505217
25147074 1 18339346543978711016
2838139 119 10447923958516878243
3004659 81 18272370880210450806
314194 84 18334577915252760255
329604 57 18411135822713637047
335352 9 18409171031044864229
3411729 13 16807025233867488872
34797466 226 16805597024081698876
350125 39 18410294727111309124
4073 2 17988637450776857595
4098825 35 17703516579507776837
4214541 1 18410293661621796637
4325135 7 18412261744206216142
439807 62 18271242721610246651
46194498 28 17489309616778645429
463206 1 18337674092451315391
465052 167 18187642475245195775
5104073 3 18261396709986936864
7495541 125 18113622270152532400
9709674 26 18340477988915121194

> <PUBCHEM_SHAPE_MULTIPOLES>
506.61
14.3
2.61
0.93
1.07
0.47
-0.13
-6.17
0.51
0.17
0.12
-0.78
0.36
-1.26

> <PUBCHEM_SHAPE_SELFOVERLAP>
1118.677

> <PUBCHEM_SHAPE_VOLUME>
272.4

> <PUBCHEM_COORDINATE_TYPE>
2
5
10

$$$$

