9948894
  -OEChem-07051213123D

 36 38  0     1  0  0  0  0  0999 V2000
    0.5257    1.8321    0.9809 S   0  0  0  0  0  0  0  0  0  0  0  0
   -3.2269   -0.8217    1.5484 O   0  0  0  0  0  0  0  0  0  0  0  0
   -1.2463   -0.2054    2.5411 O   0  0  0  0  0  0  0  0  0  0  0  0
    1.3965   -2.6869   -0.9404 O   0  0  0  0  0  0  0  0  0  0  0  0
    5.0984    0.1445   -0.0745 O   0  0  0  0  0  0  0  0  0  0  0  0
    1.0630   -0.5728   -0.0477 N   0  0  0  0  0  0  0  0  0  0  0  0
    2.9448    0.8667    0.3925 N   0  0  0  0  0  0  0  0  0  0  0  0
   -3.9621   -0.5364    0.3280 C   0  0  1  0  0  0  0  0  0  0  0  0
   -3.0690    0.4191   -0.3638 C   0  0  0  0  0  0  0  0  0  0  0  0
   -1.9479    0.6505    0.4084 C   0  0  0  0  0  0  0  0  0  0  0  0
   -0.9353    1.5080    0.0195 C   0  0  0  0  0  0  0  0  0  0  0  0
   -2.0407   -0.1408    1.6249 C   0  0  0  0  0  0  0  0  0  0  0  0
   -4.1870   -1.8335   -0.4286 C   0  0  0  0  0  0  0  0  0  0  0  0
   -3.2223    1.0594   -1.5810 C   0  0  0  0  0  0  0  0  0  0  0  0
   -1.0790    2.1558   -1.2079 C   0  0  0  0  0  0  0  0  0  0  0  0
   -2.2157    1.9334   -2.0033 C   0  0  0  0  0  0  0  0  0  0  0  0
    1.6345    0.5680    0.3745 C   0  0  0  0  0  0  0  0  0  0  0  0
    1.9284   -1.5047   -0.4982 C   0  0  0  0  0  0  0  0  0  0  0  0
    3.7524   -0.1094   -0.0715 C   0  0  0  0  0  0  0  0  0  0  0  0
    3.2962   -1.3269   -0.5339 C   0  0  0  0  0  0  0  0  0  0  0  0
   -0.0193   -2.8147   -0.8805 C   0  0  0  0  0  0  0  0  0  0  0  0
    5.5116    1.4157    0.4132 C   0  0  0  0  0  0  0  0  0  0  0  0
   -4.9099   -0.0650    0.6082 H   0  0  0  0  0  0  0  0  0  0  0  0
   -4.7739   -2.5301    0.1796 H   0  0  0  0  0  0  0  0  0  0  0  0
   -4.7159   -1.6622   -1.3714 H   0  0  0  0  0  0  0  0  0  0  0  0
   -3.2382   -2.3349   -0.6522 H   0  0  0  0  0  0  0  0  0  0  0  0
   -4.0995    0.8931   -2.1969 H   0  0  0  0  0  0  0  0  0  0  0  0
   -0.3190    2.8433   -1.5730 H   0  0  0  0  0  0  0  0  0  0  0  0
   -2.3130    2.4470   -2.9560 H   0  0  0  0  0  0  0  0  0  0  0  0
    3.9679   -2.0928   -0.9010 H   0  0  0  0  0  0  0  0  0  0  0  0
   -0.3766   -2.7470    0.1526 H   0  0  0  0  0  0  0  0  0  0  0  0
   -0.2853   -3.8036   -1.2652 H   0  0  0  0  0  0  0  0  0  0  0  0
   -0.5083   -2.0645   -1.5112 H   0  0  0  0  0  0  0  0  0  0  0  0
    5.2324    1.5427    1.4645 H   0  0  0  0  0  0  0  0  0  0  0  0
    5.0999    2.2243   -0.2001 H   0  0  0  0  0  0  0  0  0  0  0  0
    6.6025    1.4637    0.3460 H   0  0  0  0  0  0  0  0  0  0  0  0
  1 11  1  0  0  0  0
  1 17  1  0  0  0  0
  2  8  1  0  0  0  0
  2 12  1  0  0  0  0
  3 12  2  0  0  0  0
  4 18  1  0  0  0  0
  4 21  1  0  0  0  0
  5 19  1  0  0  0  0
  5 22  1  0  0  0  0
  6 17  1  0  0  0  0
  6 18  2  0  0  0  0
  7 17  2  0  0  0  0
  7 19  1  0  0  0  0
  8  9  1  0  0  0  0
  8 13  1  0  0  0  0
  8 23  1  0  0  0  0
  9 10  2  0  0  0  0
  9 14  1  0  0  0  0
 10 11  1  0  0  0  0
 10 12  1  0  0  0  0
 11 15  2  0  0  0  0
 13 24  1  0  0  0  0
 13 25  1  0  0  0  0
 13 26  1  0  0  0  0
 14 16  2  0  0  0  0
 14 27  1  0  0  0  0
 15 16  1  0  0  0  0
 15 28  1  0  0  0  0
 16 29  1  0  0  0  0
 18 20  1  0  0  0  0
 19 20  2  0  0  0  0
 20 30  1  0  0  0  0
 21 31  1  0  0  0  0
 21 32  1  0  0  0  0
 21 33  1  0  0  0  0
 22 34  1  0  0  0  0
 22 35  1  0  0  0  0
 22 36  1  0  0  0  0
M  END
> <PUBCHEM_COMPOUND_CID>
9948894

> <PUBCHEM_CONFORMER_RMSD>
0.8

> <PUBCHEM_CONFORMER_DIVERSEORDER>
3
14
12
6
8
10
5
15
1
9
7
2
13
11
4

> <PUBCHEM_MMFF94_PARTIAL_CHARGES>
25
1 -0.2
10 0.09
11 0.1
12 0.63
14 -0.15
15 -0.15
16 -0.15
17 0.72
18 0.39
19 0.39
2 -0.43
20 -0.15
21 0.28
22 0.28
27 0.15
28 0.15
29 0.15
3 -0.57
30 0.15
4 -0.36
5 -0.36
6 -0.62
7 -0.62
8 0.42
9 -0.14

> <PUBCHEM_EFFECTIVE_ROTOR_COUNT>
4.4

> <PUBCHEM_PHARMACOPHORE_FEATURES>
6
1 3 acceptor
1 5 acceptor
3 6 7 17 cation
5 2 8 9 10 12 rings
6 6 7 17 18 19 20 rings
6 9 10 11 14 15 16 rings

> <PUBCHEM_HEAVY_ATOM_COUNT>
22

> <PUBCHEM_ATOM_DEF_STEREO_COUNT>
0

> <PUBCHEM_ATOM_UDEF_STEREO_COUNT>
1

> <PUBCHEM_BOND_DEF_STEREO_COUNT>
0

> <PUBCHEM_BOND_UDEF_STEREO_COUNT>
0

> <PUBCHEM_ISOTOPIC_ATOM_COUNT>
0

> <PUBCHEM_COMPONENT_COUNT>
1

> <PUBCHEM_CACTVS_TAUTO_COUNT>
1

> <PUBCHEM_CONFORMER_ID>
0097CEDE00000003

> <PUBCHEM_MMFF94_ENERGY>
64.1796

> <PUBCHEM_FEATURE_SELFOVERLAP>
30.536

> <PUBCHEM_SHAPE_FINGERPRINT>
11582403 64 16686057050220910277
11759241 127 18342171154969078502
121448 382 17275103950776293233
12236239 1 16732700549615588577
12596599 1 17386269008671652879
13224815 77 18336262439885206630
13402501 40 18410575054941654007
13583140 156 17989495113165240080
13911987 19 18335138657735487892
14341114 328 17095508604851447619
15209289 33 17240481386290058986
16988056 13 13957419199665908364
17357779 13 18272377425766892983
17980427 23 17418087715733382860
192875 21 14549013277952574940
19489759 90 17346885550574475968
200 152 17967820461336126353
20600515 1 17274807039850579293
20775530 9 17536620425285691495
21304303 282 16557092119121410589
23402539 116 17418099814408296005
23557571 272 17988923392123923373
23559900 14 17917156129917786072
238 59 18119276031729998221
3472631 163 16988567969330011477
469060 322 18197512743661762735
474229 33 18335140865279651318
633830 44 17749659805491810060
6913067 236 18341059523291817280
81228 2 17701801388465685237
9709674 26 18059571433840252370

> <PUBCHEM_SHAPE_MULTIPOLES>
423.16
8.66
2.58
1.62
8.08
1.08
-0.39
-0.11
0.17
-0.1
1.09
-1.54
-0.33
1.44

> <PUBCHEM_SHAPE_SELFOVERLAP>
906.485

> <PUBCHEM_SHAPE_VOLUME>
237.7

> <PUBCHEM_COORDINATE_TYPE>
2
5
10

$$$$

