15910
  -OEChem-07051213002D

 14 14  0     0  0  0  0  0  0999 V2000
    2.8660    0.5000    0.0000 Cl  0  0  0  0  0  0  0  0  0  0  0  0
    4.5981   -2.5000    0.0000 Cl  0  0  0  0  0  0  0  0  0  0  0  0
    6.3301    0.5000    0.0000 Cl  0  0  0  0  0  0  0  0  0  0  0  0
    6.3301   -1.5000    0.0000 Cl  0  0  0  0  0  0  0  0  0  0  0  0
    4.5981    2.5000    0.0000 N   0  0  0  0  0  0  0  0  0  0  0  0
    2.0000   -2.0000    0.0000 N   0  0  0  0  0  0  0  0  0  0  0  0
    4.5981    0.5000    0.0000 C   0  0  0  0  0  0  0  0  0  0  0  0
    3.7320   -1.0000    0.0000 C   0  0  0  0  0  0  0  0  0  0  0  0
    3.7320    0.0000    0.0000 C   0  0  0  0  0  0  0  0  0  0  0  0
    4.5981   -1.5000    0.0000 C   0  0  0  0  0  0  0  0  0  0  0  0
    5.4641    0.0000    0.0000 C   0  0  0  0  0  0  0  0  0  0  0  0
    5.4641   -1.0000    0.0000 C   0  0  0  0  0  0  0  0  0  0  0  0
    4.5981    1.5000    0.0000 C   0  0  0  0  0  0  0  0  0  0  0  0
    2.8660   -1.5000    0.0000 C   0  0  0  0  0  0  0  0  0  0  0  0
  1  9  1  0  0  0  0
  2 10  1  0  0  0  0
  3 11  1  0  0  0  0
  4 12  1  0  0  0  0
  5 13  3  0  0  0  0
  6 14  3  0  0  0  0
  7  9  2  0  0  0  0
  7 11  1  0  0  0  0
  7 13  1  0  0  0  0
  8  9  1  0  0  0  0
  8 10  2  0  0  0  0
  8 14  1  0  0  0  0
 10 12  1  0  0  0  0
 11 12  2  0  0  0  0
M  END
> <PUBCHEM_COMPOUND_CID>
15910

> <PUBCHEM_COMPOUND_CANONICALIZED>
1

> <PUBCHEM_CACTVS_COMPLEXITY>
284

> <PUBCHEM_CACTVS_HBOND_ACCEPTOR>
2

> <PUBCHEM_CACTVS_HBOND_DONOR>
0

> <PUBCHEM_CACTVS_ROTATABLE_BOND>
0

> <PUBCHEM_CACTVS_SUBSKEYS>
AAADcQBzAAAHAAAAAAAAAAAAAAAAAAAAAAAwAAAAAAAAAAABAAAADAIAAAAADAIBGCAAAIAAAACQBgBAAAAiAAAgBAAAikAAAogIoCKBEhCAIAAggAAIiA8AgEAOBAASIACBAAQIACRAAQIACAAAAAAAAA==

> <PUBCHEM_IUPAC_OPENEYE_NAME>
2,4,5,6-tetrachlorobenzene-1,3-dicarbonitrile

> <PUBCHEM_IUPAC_CAS_NAME>
2,4,5,6-tetrachlorobenzene-1,3-dicarbonitrile

> <PUBCHEM_IUPAC_NAME>
2,4,5,6-tetrachlorobenzene-1,3-dicarbonitrile

> <PUBCHEM_IUPAC_SYSTEMATIC_NAME>
2,4,5,6-tetrakis(chloranyl)benzene-1,3-dicarbonitrile

> <PUBCHEM_IUPAC_TRADITIONAL_NAME>
2,4,5,6-tetrachloroisophthalonitrile

> <PUBCHEM_IUPAC_INCHI>
InChI=1S/C8Cl4N2/c9-5-3(1-13)6(10)8(12)7(11)4(5)2-14

> <PUBCHEM_IUPAC_INCHIKEY>
CRQQGFGUEAVUIL-UHFFFAOYSA-N

> <PUBCHEM_XLOGP3>
2.9

> <PUBCHEM_EXACT_MASS>
265.878609

> <PUBCHEM_MOLECULAR_FORMULA>
C8Cl4N2

> <PUBCHEM_MOLECULAR_WEIGHT>
265.911

> <PUBCHEM_OPENEYE_CAN_SMILES>
C(#N)C1=C(C(=C(C(=C1Cl)Cl)Cl)C#N)Cl

> <PUBCHEM_OPENEYE_ISO_SMILES>
C(#N)C1=C(C(=C(C(=C1Cl)Cl)Cl)C#N)Cl

> <PUBCHEM_CACTVS_TPSA>
47.6

> <PUBCHEM_MONOISOTOPIC_WEIGHT>
263.881559

> <PUBCHEM_TOTAL_CHARGE>
0

> <PUBCHEM_HEAVY_ATOM_COUNT>
14

> <PUBCHEM_ATOM_DEF_STEREO_COUNT>
0

> <PUBCHEM_ATOM_UDEF_STEREO_COUNT>
0

> <PUBCHEM_BOND_DEF_STEREO_COUNT>
0

> <PUBCHEM_BOND_UDEF_STEREO_COUNT>
0

> <PUBCHEM_ISOTOPIC_ATOM_COUNT>
0

> <PUBCHEM_COMPONENT_COUNT>
1

> <PUBCHEM_CACTVS_TAUTO_COUNT>
1

> <PUBCHEM_COORDINATE_TYPE>
1
5
255

> <PUBCHEM_BONDANNOTATIONS>
10  12  8
11  12  8
7  11  8
7  9  8
8  10  8
8  9  8

$$$$

