108374
  -OEChem-07051212493D

 31 31  0     1  0  0  0  0  0999 V2000
    4.4601    1.0359    0.6708 N   0  0  0  0  0  0  0  0  0  0  0  0
   -3.7655    0.2102   -0.1180 C   0  0  0  0  0  0  0  0  0  0  0  0
   -2.7453    0.7315    0.9131 C   0  0  0  0  0  0  0  0  0  0  0  0
   -1.3174    0.3528    0.6038 C   0  0  0  0  0  0  0  0  0  0  0  0
   -3.4338    0.6740   -1.5386 C   0  0  0  0  0  0  0  0  0  0  0  0
   -3.8123   -1.3191   -0.0731 C   0  0  0  0  0  0  0  0  0  0  0  0
    1.3049   -0.3428    0.0360 C   0  0  0  0  0  0  0  0  0  0  0  0
   -0.8048   -0.8329    1.1064 C   0  0  0  0  0  0  0  0  0  0  0  0
   -0.5444    1.1972   -0.1773 C   0  0  0  0  0  0  0  0  0  0  0  0
    2.7157   -0.7172   -0.2699 C   0  0  1  0  0  0  0  0  0  0  0  0
    0.5149   -1.1829    0.8207 C   0  0  0  0  0  0  0  0  0  0  0  0
    0.7752    0.8471   -0.4631 C   0  0  0  0  0  0  0  0  0  0  0  0
    2.9613   -0.9196   -1.7774 C   0  0  0  0  0  0  0  0  0  0  0  0
    3.6914    0.2660    0.2666 C   0  0  0  0  0  0  0  0  0  0  0  0
   -4.7539    0.5976    0.1583 H   0  0  0  0  0  0  0  0  0  0  0  0
   -3.0113    0.3741    1.9169 H   0  0  0  0  0  0  0  0  0  0  0  0
   -2.8199    1.8259    0.9710 H   0  0  0  0  0  0  0  0  0  0  0  0
   -2.5272    0.2063   -1.9350 H   0  0  0  0  0  0  0  0  0  0  0  0
   -3.3164    1.7618   -1.5789 H   0  0  0  0  0  0  0  0  0  0  0  0
   -4.2520    0.4086   -2.2178 H   0  0  0  0  0  0  0  0  0  0  0  0
   -4.6495   -1.6835   -0.6795 H   0  0  0  0  0  0  0  0  0  0  0  0
   -2.9054   -1.7813   -0.4748 H   0  0  0  0  0  0  0  0  0  0  0  0
   -3.9688   -1.6817    0.9484 H   0  0  0  0  0  0  0  0  0  0  0  0
   -1.4076   -1.4920    1.7245 H   0  0  0  0  0  0  0  0  0  0  0  0
   -0.9432    2.1295   -0.5664 H   0  0  0  0  0  0  0  0  0  0  0  0
    2.9416   -1.6790    0.2112 H   0  0  0  0  0  0  0  0  0  0  0  0
    0.9119   -2.1130    1.2186 H   0  0  0  0  0  0  0  0  0  0  0  0
    1.3740    1.5174   -1.0739 H   0  0  0  0  0  0  0  0  0  0  0  0
    3.9810   -1.2786   -1.9585 H   0  0  0  0  0  0  0  0  0  0  0  0
    2.8386    0.0110   -2.3434 H   0  0  0  0  0  0  0  0  0  0  0  0
    2.2649   -1.6582   -2.1901 H   0  0  0  0  0  0  0  0  0  0  0  0
  1 14  3  0  0  0  0
  2  3  1  0  0  0  0
  2  5  1  0  0  0  0
  2  6  1  0  0  0  0
  2 15  1  0  0  0  0
  3  4  1  0  0  0  0
  3 16  1  0  0  0  0
  3 17  1  0  0  0  0
  4  8  2  0  0  0  0
  4  9  1  0  0  0  0
  5 18  1  0  0  0  0
  5 19  1  0  0  0  0
  5 20  1  0  0  0  0
  6 21  1  0  0  0  0
  6 22  1  0  0  0  0
  6 23  1  0  0  0  0
  7 10  1  0  0  0  0
  7 11  2  0  0  0  0
  7 12  1  0  0  0  0
  8 11  1  0  0  0  0
  8 24  1  0  0  0  0
  9 12  2  0  0  0  0
  9 25  1  0  0  0  0
 10 13  1  0  0  0  0
 10 14  1  0  0  0  0
 10 26  1  0  0  0  0
 11 27  1  0  0  0  0
 12 28  1  0  0  0  0
 13 29  1  0  0  0  0
 13 30  1  0  0  0  0
 13 31  1  0  0  0  0
M  END
> <PUBCHEM_COMPOUND_CID>
108374

> <PUBCHEM_CONFORMER_RMSD>
0.6

> <PUBCHEM_CONFORMER_DIVERSEORDER>
2
4
5
1
3

> <PUBCHEM_MMFF94_PARTIAL_CHARGES>
14
1 -0.56
10 0.34
11 -0.15
12 -0.15
14 0.36
24 0.15
25 0.15
27 0.15
28 0.15
3 0.14
4 -0.14
7 -0.14
8 -0.15
9 -0.15

> <PUBCHEM_EFFECTIVE_ROTOR_COUNT>
3

> <PUBCHEM_PHARMACOPHORE_FEATURES>
4
1 1 acceptor
1 13 hydrophobe
3 2 5 6 hydrophobe
6 4 7 8 9 11 12 rings

> <PUBCHEM_HEAVY_ATOM_COUNT>
14

> <PUBCHEM_ATOM_DEF_STEREO_COUNT>
0

> <PUBCHEM_ATOM_UDEF_STEREO_COUNT>
1

> <PUBCHEM_BOND_DEF_STEREO_COUNT>
0

> <PUBCHEM_BOND_UDEF_STEREO_COUNT>
0

> <PUBCHEM_ISOTOPIC_ATOM_COUNT>
0

> <PUBCHEM_COMPONENT_COUNT>
1

> <PUBCHEM_CACTVS_TAUTO_COUNT>
1

> <PUBCHEM_CONFORMER_ID>
0001A75600000002

> <PUBCHEM_MMFF94_ENERGY>
29.3183

> <PUBCHEM_FEATURE_SELFOVERLAP>
20.297

> <PUBCHEM_SHAPE_FINGERPRINT>
10130415 120 15195566801563362596
11132069 177 18273493481070603219
11401426 45 18131638880522614281
11543360 7 17385447621903644880
11769659 78 16588588728730659471
11806522 49 18335986359308298475
12119455 92 18334021588217530402
12251169 10 5978104670136546687
124424 183 14908183044790457057
12670546 56 14333138454905466132
13296908 3 18260823825885052367
13675066 3 16773797000301326072
13705890 14 17676203606577049086
13760787 19 15936405667247469933
14004511 7 13110964240450852437
14289901 80 16732983154094754106
14943859 89 14117516532507032733
15375462 189 15430037668939816303
15375462 6 17240759622856302968
16945 1 17917132975021177400
18186145 218 18340198691201453796
18511873 20 14405185066833278928
19026448 4 17676200316304987753
19026448 5 16950277455253818482
19107657 47 14046025191083480935
19422 9 16226041253666729542
200 152 17385441042404059586
20279233 1 18343858922782472114
20528008 55 18412827971562562656
20645476 183 16127506217278795010
20645477 70 16950842634326941431
21256008 23 6555409842568797547
22485316 2 16225769640082578087
23402539 116 18059868259014222316
23402655 69 17845951735639283077
23493267 7 4750609823877465363
23559900 14 18343577465507986786
2748010 2 17842253901007671385
296302 2 18113900454920445953
4175511 71 8142074382024148635
633830 44 18262508307642204952
69090 78 18408042901037333154

> <PUBCHEM_SHAPE_MULTIPOLES>
283.13
7.74
1.31
1.28
1.14
0.09
0.38
-0.93
0.69
-0.7
0.1
0.58
-0.15
0.15

> <PUBCHEM_SHAPE_SELFOVERLAP>
573.899

> <PUBCHEM_SHAPE_VOLUME>
164

> <PUBCHEM_COORDINATE_TYPE>
2
5
10

$$$$

