4854
  -OEChem-06261200223D

 48 51  0     1  0  0  0  0  0999 V2000
    3.3158   -0.7400    0.1568 N   0  0  1  0  0  0  0  0  0  0  0  0
    2.2344    0.2657    0.0824 C   0  0  2  0  0  0  0  0  0  0  0  0
    0.9844   -0.5801    0.1385 C   0  0  0  0  0  0  0  0  0  0  0  0
    1.3609   -2.0256    0.0080 C   0  0  0  0  0  0  0  0  0  0  0  0
    2.7971   -1.9467   -0.4930 C   0  0  0  0  0  0  0  0  0  0  0  0
   -0.2672   -0.1323    0.2902 C   0  0  0  0  0  0  0  0  0  0  0  0
    4.6121   -0.3339   -0.3564 C   0  0  0  0  0  0  0  0  0  0  0  0
    2.2437    1.1651   -1.1594 C   0  0  0  0  0  0  0  0  0  0  0  0
   -0.4353    1.3319    0.4015 C   0  0  0  0  0  0  0  0  0  0  0  0
   -1.3999   -1.0941    0.2342 C   0  0  0  0  0  0  0  0  0  0  0  0
   -1.1337    2.0249   -0.6010 C   0  0  0  0  0  0  0  0  0  0  0  0
   -2.5744   -0.8604   -0.5150 C   0  0  0  0  0  0  0  0  0  0  0  0
   -1.7121    1.2773   -1.7751 C   0  0  0  0  0  0  0  0  0  0  0  0
   -2.8689    0.3683   -1.3575 C   0  0  0  0  0  0  0  0  0  0  0  0
    5.6580   -1.4099   -0.1189 C   0  0  0  0  0  0  0  0  0  0  0  0
    0.0874    2.0353    1.4977 C   0  0  0  0  0  0  0  0  0  0  0  0
   -1.3140   -2.2710    1.0107 C   0  0  0  0  0  0  0  0  0  0  0  0
   -1.2922    3.4141   -0.4950 C   0  0  0  0  0  0  0  0  0  0  0  0
   -3.6100   -1.8203   -0.4651 C   0  0  0  0  0  0  0  0  0  0  0  0
   -0.0774    3.4169    1.5914 C   0  0  0  0  0  0  0  0  0  0  0  0
   -2.3469   -3.2078    1.0350 C   0  0  0  0  0  0  0  0  0  0  0  0
   -0.7654    4.1055    0.5958 C   0  0  0  0  0  0  0  0  0  0  0  0
   -3.4965   -2.9831    0.2940 C   0  0  0  0  0  0  0  0  0  0  0  0
    2.3532    0.8830    0.9767 H   0  0  0  0  0  0  0  0  0  0  0  0
    1.3915   -2.5217    0.9831 H   0  0  0  0  0  0  0  0  0  0  0  0
    0.7547   -2.5904   -0.7058 H   0  0  0  0  0  0  0  0  0  0  0  0
    3.3431   -2.8516   -0.2076 H   0  0  0  0  0  0  0  0  0  0  0  0
    2.8146   -1.8576   -1.5873 H   0  0  0  0  0  0  0  0  0  0  0  0
    4.5828   -0.1133   -1.4300 H   0  0  0  0  0  0  0  0  0  0  0  0
    4.9374    0.5763    0.1612 H   0  0  0  0  0  0  0  0  0  0  0  0
    3.2009    1.6892   -1.2570 H   0  0  0  0  0  0  0  0  0  0  0  0
    2.0856    0.5890   -2.0785 H   0  0  0  0  0  0  0  0  0  0  0  0
    1.4994    1.9594   -1.1333 H   0  0  0  0  0  0  0  0  0  0  0  0
   -0.9234    0.7094   -2.2844 H   0  0  0  0  0  0  0  0  0  0  0  0
   -2.0856    1.9967   -2.5151 H   0  0  0  0  0  0  0  0  0  0  0  0
   -3.6208    0.9636   -0.8217 H   0  0  0  0  0  0  0  0  0  0  0  0
   -3.3414    0.0222   -2.2872 H   0  0  0  0  0  0  0  0  0  0  0  0
    5.6840   -1.7191    0.9316 H   0  0  0  0  0  0  0  0  0  0  0  0
    5.4903   -2.2954   -0.7399 H   0  0  0  0  0  0  0  0  0  0  0  0
    6.6507   -1.0228   -0.3731 H   0  0  0  0  0  0  0  0  0  0  0  0
    0.6023    1.5159    2.3025 H   0  0  0  0  0  0  0  0  0  0  0  0
   -0.4952   -2.4439    1.7021 H   0  0  0  0  0  0  0  0  0  0  0  0
   -1.8306    3.9673   -1.2605 H   0  0  0  0  0  0  0  0  0  0  0  0
   -4.5287   -1.6569   -1.0260 H   0  0  0  0  0  0  0  0  0  0  0  0
    0.3252    3.9547    2.4448 H   0  0  0  0  0  0  0  0  0  0  0  0
   -2.2626   -4.0947    1.6559 H   0  0  0  0  0  0  0  0  0  0  0  0
   -0.8953    5.1812    0.6701 H   0  0  0  0  0  0  0  0  0  0  0  0
   -4.3105   -3.7012    0.3157 H   0  0  0  0  0  0  0  0  0  0  0  0
  1  2  1  0  0  0  0
  1  5  1  0  0  0  0
  1  7  1  0  0  0  0
  2  3  1  0  0  0  0
  2  8  1  0  0  0  0
  2 24  1  0  0  0  0
  3  4  1  0  0  0  0
  3  6  2  0  0  0  0
  4  5  1  0  0  0  0
  4 25  1  0  0  0  0
  4 26  1  0  0  0  0
  5 27  1  0  0  0  0
  5 28  1  0  0  0  0
  6  9  1  0  0  0  0
  6 10  1  0  0  0  0
  7 15  1  0  0  0  0
  7 29  1  0  0  0  0
  7 30  1  0  0  0  0
  8 31  1  0  0  0  0
  8 32  1  0  0  0  0
  8 33  1  0  0  0  0
  9 11  1  0  0  0  0
  9 16  2  0  0  0  0
 10 12  1  0  0  0  0
 10 17  2  0  0  0  0
 11 13  1  0  0  0  0
 11 18  2  0  0  0  0
 12 14  1  0  0  0  0
 12 19  2  0  0  0  0
 13 14  1  0  0  0  0
 13 34  1  0  0  0  0
 13 35  1  0  0  0  0
 14 36  1  0  0  0  0
 14 37  1  0  0  0  0
 15 38  1  0  0  0  0
 15 39  1  0  0  0  0
 15 40  1  0  0  0  0
 16 20  1  0  0  0  0
 16 41  1  0  0  0  0
 17 21  1  0  0  0  0
 17 42  1  0  0  0  0
 18 22  1  0  0  0  0
 18 43  1  0  0  0  0
 19 23  1  0  0  0  0
 19 44  1  0  0  0  0
 20 22  2  0  0  0  0
 20 45  1  0  0  0  0
 21 23  2  0  0  0  0
 21 46  1  0  0  0  0
 22 47  1  0  0  0  0
 23 48  1  0  0  0  0
M  END
> <PUBCHEM_COMPOUND_CID>
4854

> <PUBCHEM_CONFORMER_RMSD>
0.6

> <PUBCHEM_CONFORMER_DIVERSEORDER>
1
3
4
2
5

> <PUBCHEM_MMFF94_PARTIAL_CHARGES>
29
1 -0.81
10 0.03
11 -0.14
12 -0.14
13 0.14
14 0.14
16 -0.15
17 -0.15
18 -0.15
19 -0.15
2 0.41
20 -0.15
21 -0.15
22 -0.15
23 -0.15
3 -0.28
4 0.14
41 0.15
42 0.15
43 0.15
44 0.15
45 0.15
46 0.15
47 0.15
48 0.15
5 0.27
6 -0.06
7 0.27
9 0.03

> <PUBCHEM_EFFECTIVE_ROTOR_COUNT>
2.2

> <PUBCHEM_PHARMACOPHORE_FEATURES>
5
1 1 cation
5 1 2 3 4 5 rings
6 10 12 17 19 21 23 rings
6 9 11 16 18 20 22 rings
7 6 9 10 11 12 13 14 rings

> <PUBCHEM_HEAVY_ATOM_COUNT>
23

> <PUBCHEM_ATOM_DEF_STEREO_COUNT>
0

> <PUBCHEM_ATOM_UDEF_STEREO_COUNT>
1

> <PUBCHEM_BOND_DEF_STEREO_COUNT>
0

> <PUBCHEM_BOND_UDEF_STEREO_COUNT>
0

> <PUBCHEM_ISOTOPIC_ATOM_COUNT>
0

> <PUBCHEM_COMPONENT_COUNT>
1

> <PUBCHEM_CACTVS_TAUTO_COUNT>
1

> <PUBCHEM_CONFORMER_ID>
000012F600000001

> <PUBCHEM_MMFF94_ENERGY>
81.2861

> <PUBCHEM_FEATURE_SELFOVERLAP>
25.386

> <PUBCHEM_SHAPE_FINGERPRINT>
1100329 8 18410287043098799393
11036077 51 17977949312738235194
11578080 2 16155150202906015225
12035758 1 17544481851582300272
12173636 292 17978786040913003356
12293681 160 17974873940076931737
12403259 226 18125725590871876275
12506688 2 18339075969565323871
12788726 201 18265906932628138899
13027679 85 18410012109409501741
13134695 92 18120089490141253807
13140716 1 18410847733719464418
138480 1 15600890063367123496
14251740 79 18271807981585991378
14787075 74 17974296714021373325
14790565 3 18122623014378174813
14863182 85 16397737304631991103
16945 1 18271814565506644311
17980427 23 17241307111328249611
1813 80 17896860089486879446
19591789 44 16826987769180381956
1979834 28 16687371783261165619
20510252 161 18267025135958679755
20600515 1 18270945861221769103
20775438 99 17183382450454564143
21049683 271 17910662173040300118
21339142 36 18408608049787026798
22182313 1 18051433776489885957
22907989 373 18339342142048059836
23419403 2 18117573833127572289
23557571 272 18335416906906480966
23558518 356 18122053471380435134
23559900 14 18411430509811597080
2748010 2 17479185163359834639
283562 15 18413102871092491026
3380486 145 18194957444542803858
394222 165 16911175682613526745
458136 41 17185581422232642059
495365 180 17685220469951421683
5895379 119 15943380900806340683
6786 2 13739043863828016533
7364860 26 17762053238398251971
81228 2 18336534023214702713
84936 31 17464529802637188613
9709674 26 18189896611922192054
9981440 41 17826537718657036546

> <PUBCHEM_SHAPE_MULTIPOLES>
468.35
6.69
4.73
1.29
9.01
3.28
-0.02
-6.53
-1.48
-3.25
1.63
-0.55
0.68
0.8

> <PUBCHEM_SHAPE_SELFOVERLAP>
1024.76

> <PUBCHEM_SHAPE_VOLUME>
252.7

> <PUBCHEM_COORDINATE_TYPE>
2
5
10

$$$$

