12445
  -OEChem-06261206562D

 33 35  0     0  0  0  0  0  0999 V2000
    5.4641    0.9031    0.0000 O   0  0  0  0  0  0  0  0  0  0  0  0
    7.2125    1.9377    0.0000 O   0  0  0  0  0  0  0  0  0  0  0  0
    5.4641   -2.0969    0.0000 O   0  0  0  0  0  0  0  0  0  0  0  0
    7.2125   -2.1315    0.0000 O   0  0  0  0  0  0  0  0  0  0  0  0
    8.9942    0.9273    0.0000 O   0  0  0  0  0  0  0  0  0  0  0  0
    6.3301   -0.5969    0.0000 C   0  0  0  0  0  0  0  0  0  0  0  0
    6.3301    0.4031    0.0000 C   0  0  0  0  0  0  0  0  0  0  0  0
    4.5981    0.4031    0.0000 C   0  0  0  0  0  0  0  0  0  0  0  0
    5.4641   -1.0969    0.0000 C   0  0  0  0  0  0  0  0  0  0  0  0
    7.2241    0.9378    0.0000 C   0  0  0  0  0  0  0  0  0  0  0  0
    7.2241   -1.1316    0.0000 C   0  0  0  0  0  0  0  0  0  0  0  0
    4.5981   -0.5969    0.0000 C   0  0  0  0  0  0  0  0  0  0  0  0
    3.7321    0.9031    0.0000 C   0  0  0  0  0  0  0  0  0  0  0  0
    8.1301    0.4239    0.0000 C   0  0  0  0  0  0  0  0  0  0  0  0
    8.1301   -0.6177    0.0000 C   0  0  0  0  0  0  0  0  0  0  0  0
    2.8660    0.4031    0.0000 C   0  0  0  0  0  0  0  0  0  0  0  0
    3.7321    1.9031    0.0000 C   0  0  0  0  0  0  0  0  0  0  0  0
    2.0000    0.9031    0.0000 C   0  0  0  0  0  0  0  0  0  0  0  0
    2.8660    2.4031    0.0000 C   0  0  0  0  0  0  0  0  0  0  0  0
    2.0000    1.9031    0.0000 C   0  0  0  0  0  0  0  0  0  0  0  0
    8.0727    2.4477    0.0000 C   0  0  0  0  0  0  0  0  0  0  0  0
    4.0611   -0.9069    0.0000 H   0  0  0  0  0  0  0  0  0  0  0  0
    8.6659   -0.9298    0.0000 H   0  0  0  0  0  0  0  0  0  0  0  0
    2.8660   -0.2169    0.0000 H   0  0  0  0  0  0  0  0  0  0  0  0
    4.2690    2.2131    0.0000 H   0  0  0  0  0  0  0  0  0  0  0  0
    1.4631    0.5931    0.0000 H   0  0  0  0  0  0  0  0  0  0  0  0
    2.8660    3.0231    0.0000 H   0  0  0  0  0  0  0  0  0  0  0  0
    4.9272   -2.4069    0.0000 H   0  0  0  0  0  0  0  0  0  0  0  0
    1.4631    2.2131    0.0000 H   0  0  0  0  0  0  0  0  0  0  0  0
    7.7458   -2.4477    0.0000 H   0  0  0  0  0  0  0  0  0  0  0  0
    8.3889    1.9144    0.0000 H   0  0  0  0  0  0  0  0  0  0  0  0
    8.6060    2.7639    0.0000 H   0  0  0  0  0  0  0  0  0  0  0  0
    7.7565    2.9810    0.0000 H   0  0  0  0  0  0  0  0  0  0  0  0
  1  7  1  0  0  0  0
  1  8  1  0  0  0  0
  2 10  1  0  0  0  0
  2 21  1  0  0  0  0
  3  9  1  0  0  0  0
  3 28  1  0  0  0  0
  4 11  1  0  0  0  0
  4 30  1  0  0  0  0
  5 14  2  0  0  0  0
  6  7  1  0  0  0  0
  6  9  2  0  0  0  0
  6 11  1  0  0  0  0
  7 10  2  0  0  0  0
  8 12  2  0  0  0  0
  8 13  1  0  0  0  0
  9 12  1  0  0  0  0
 10 14  1  0  0  0  0
 11 15  2  0  0  0  0
 12 22  1  0  0  0  0
 13 16  2  0  0  0  0
 13 17  1  0  0  0  0
 14 15  1  0  0  0  0
 15 23  1  0  0  0  0
 16 18  1  0  0  0  0
 16 24  1  0  0  0  0
 17 19  2  0  0  0  0
 17 25  1  0  0  0  0
 18 20  2  0  0  0  0
 18 26  1  0  0  0  0
 19 20  1  0  0  0  0
 19 27  1  0  0  0  0
 20 29  1  0  0  0  0
 21 31  1  0  0  0  0
 21 32  1  0  0  0  0
 21 33  1  0  0  0  0
M  END
> <PUBCHEM_COMPOUND_CID>
12445

> <PUBCHEM_COMPOUND_CANONICALIZED>
1

> <PUBCHEM_CACTVS_COMPLEXITY>
600

> <PUBCHEM_CACTVS_HBOND_ACCEPTOR>
5

> <PUBCHEM_CACTVS_HBOND_DONOR>
2

> <PUBCHEM_CACTVS_ROTATABLE_BOND>
2

> <PUBCHEM_CACTVS_SUBSKEYS>
AAADccB4OAAAAAAAAAAAAAAAAAAAAAAAAAAwQIAAAAAAAACBAAAAGgAACAAADASAmAIyAIAABgCIAqBSAAICCAAgIAAIiABACMgIJiKAMRyCcAAlwAEIuQeAwCAOAAAAAAAAAAAAAAAAAAAAAAAAAAAAAA==

> <PUBCHEM_IUPAC_OPENEYE_NAME>
4,5-dihydroxy-8-methoxy-2-phenyl-chromen-7-one

> <PUBCHEM_IUPAC_CAS_NAME>
4,5-dihydroxy-8-methoxy-2-phenyl-1-benzopyran-7-one

> <PUBCHEM_IUPAC_NAME>
4,5-dihydroxy-8-methoxy-2-phenylchromen-7-one

> <PUBCHEM_IUPAC_SYSTEMATIC_NAME>
8-methoxy-4,5-bis(oxidanyl)-2-phenyl-chromen-7-one

> <PUBCHEM_IUPAC_TRADITIONAL_NAME>
4,5-dihydroxy-8-methoxy-2-phenyl-chromen-7-one

> <PUBCHEM_IUPAC_INCHI>
InChI=1S/C16H12O5/c1-20-15-12(19)7-10(17)14-11(18)8-13(21-16(14)15)9-5-3-2-4-6-9/h2-8,17-18H,1H3

> <PUBCHEM_IUPAC_INCHIKEY>
QUUSHOTXRLZWKP-UHFFFAOYSA-N

> <PUBCHEM_XLOGP3_AA>
2.1

> <PUBCHEM_EXACT_MASS>
284.068473

> <PUBCHEM_MOLECULAR_FORMULA>
C16H12O5

> <PUBCHEM_MOLECULAR_WEIGHT>
284.26348

> <PUBCHEM_OPENEYE_CAN_SMILES>
COC1=C2C(=C(C=C(O2)C3=CC=CC=C3)O)C(=CC1=O)O

> <PUBCHEM_OPENEYE_ISO_SMILES>
COC1=C2C(=C(C=C(O2)C3=CC=CC=C3)O)C(=CC1=O)O

> <PUBCHEM_CACTVS_TPSA>
76

> <PUBCHEM_MONOISOTOPIC_WEIGHT>
284.068473

> <PUBCHEM_TOTAL_CHARGE>
0

> <PUBCHEM_HEAVY_ATOM_COUNT>
21

> <PUBCHEM_ATOM_DEF_STEREO_COUNT>
0

> <PUBCHEM_ATOM_UDEF_STEREO_COUNT>
0

> <PUBCHEM_BOND_DEF_STEREO_COUNT>
0

> <PUBCHEM_BOND_UDEF_STEREO_COUNT>
0

> <PUBCHEM_ISOTOPIC_ATOM_COUNT>
0

> <PUBCHEM_COMPONENT_COUNT>
1

> <PUBCHEM_CACTVS_TAUTO_COUNT>
12

> <PUBCHEM_COORDINATE_TYPE>
1
5
255

> <PUBCHEM_BONDANNOTATIONS>
1  7  8
1  8  8
10  14  8
11  15  8
13  16  8
13  17  8
14  15  8
16  18  8
17  19  8
18  20  8
19  20  8
6  11  8
6  9  8
7  10  8
8  12  8
9  12  8

$$$$

