5311345
  -OEChem-07051213072D

 70 74  0     1  0  0  0  0  0999 V2000
    3.7320   -0.5344    0.0000 O   0  0  0  0  0  0  0  0  0  0  0  0
    4.5981    1.9656    0.0000 O   0  0  0  0  0  0  0  0  0  0  0  0
    3.7320    0.4656    0.0000 O   0  0  0  0  0  0  0  0  0  0  0  0
    5.4641   -0.5344    0.0000 N   0  0  0  0  0  0  0  0  0  0  0  0
    8.1424    0.7704    0.0000 N   0  0  0  0  0  0  0  0  0  0  0  0
    8.1424   -0.8391    0.0000 N   0  0  0  0  0  0  0  0  0  0  0  0
   12.3671    2.5458    0.0000 N   0  0  0  0  0  0  0  0  0  0  0  0
    5.4641    0.4656    0.0000 C   0  0  1  0  0  0  0  0  0  0  0  0
    6.3301    0.9656    0.0000 C   0  0  0  0  0  0  0  0  0  0  0  0
    7.1962    0.4656    0.0000 C   0  0  0  0  0  0  0  0  0  0  0  0
    6.3301   -1.0344    0.0000 C   0  0  0  0  0  0  0  0  0  0  0  0
    7.1962   -0.5344    0.0000 C   0  0  0  0  0  0  0  0  0  0  0  0
    4.5981   -1.0344    0.0000 C   0  0  0  0  0  0  0  0  0  0  0  0
    4.5981   -2.0344    0.0000 C   0  0  0  0  0  0  0  0  0  0  0  0
    8.4530    1.7209    0.0000 C   0  0  0  0  0  0  0  0  0  0  0  0
    4.5981    0.9656    0.0000 C   0  0  0  0  0  0  0  0  0  0  0  0
    8.7260   -0.0344    0.0000 C   0  0  0  0  0  0  0  0  0  0  0  0
    9.4315    1.9271    0.0000 C   0  0  0  0  0  0  0  0  0  0  0  0
    3.7320   -2.5344    0.0000 C   0  0  0  0  0  0  0  0  0  0  0  0
    5.4641   -2.5344    0.0000 C   0  0  0  0  0  0  0  0  0  0  0  0
    9.7422    2.8776    0.0000 C   0  0  0  0  0  0  0  0  0  0  0  0
   10.0994    1.1828    0.0000 C   0  0  0  0  0  0  0  0  0  0  0  0
    2.8660   -2.0344    0.0000 C   0  0  0  0  0  0  0  0  0  0  0  0
    5.4641   -3.5344    0.0000 C   0  0  0  0  0  0  0  0  0  0  0  0
    3.7320   -3.5344    0.0000 C   0  0  0  0  0  0  0  0  0  0  0  0
    6.3301   -2.0344    0.0000 C   0  0  0  0  0  0  0  0  0  0  0  0
   10.7207    3.0838    0.0000 C   0  0  0  0  0  0  0  0  0  0  0  0
   11.3886    2.3395    0.0000 C   0  0  0  0  0  0  0  0  0  0  0  0
   11.0779    1.3890    0.0000 C   0  0  0  0  0  0  0  0  0  0  0  0
    6.3301   -4.0344    0.0000 C   0  0  0  0  0  0  0  0  0  0  0  0
    2.0000   -2.5344    0.0000 C   0  0  0  0  0  0  0  0  0  0  0  0
    7.1962   -2.5344    0.0000 C   0  0  0  0  0  0  0  0  0  0  0  0
    2.8660   -4.0344    0.0000 C   0  0  0  0  0  0  0  0  0  0  0  0
   11.0314    4.0344    0.0000 C   0  0  0  0  0  0  0  0  0  0  0  0
    7.1962   -3.5344    0.0000 C   0  0  0  0  0  0  0  0  0  0  0  0
    2.0000   -3.5344    0.0000 C   0  0  0  0  0  0  0  0  0  0  0  0
   13.0349    1.8015    0.0000 C   0  0  0  0  0  0  0  0  0  0  0  0
   12.6777    3.4963    0.0000 C   0  0  0  0  0  0  0  0  0  0  0  0
    4.9272    0.1556    0.0000 H   0  0  0  0  0  0  0  0  0  0  0  0
    6.7287    1.4406    0.0000 H   0  0  0  0  0  0  0  0  0  0  0  0
    5.9316    1.4406    0.0000 H   0  0  0  0  0  0  0  0  0  0  0  0
    5.9316   -1.5093    0.0000 H   0  0  0  0  0  0  0  0  0  0  0  0
    6.7287   -1.5093    0.0000 H   0  0  0  0  0  0  0  0  0  0  0  0
    5.1350   -1.7244    0.0000 H   0  0  0  0  0  0  0  0  0  0  0  0
    8.4325    2.3406    0.0000 H   0  0  0  0  0  0  0  0  0  0  0  0
    7.8392    1.8082    0.0000 H   0  0  0  0  0  0  0  0  0  0  0  0
    9.3460   -0.0344    0.0000 H   0  0  0  0  0  0  0  0  0  0  0  0
    9.3281    3.3391    0.0000 H   0  0  0  0  0  0  0  0  0  0  0  0
    9.9068    0.5935    0.0000 H   0  0  0  0  0  0  0  0  0  0  0  0
    4.9272   -3.8444    0.0000 H   0  0  0  0  0  0  0  0  0  0  0  0
    2.8660   -1.4144    0.0000 H   0  0  0  0  0  0  0  0  0  0  0  0
    6.3301   -1.4144    0.0000 H   0  0  0  0  0  0  0  0  0  0  0  0
    4.2690   -3.8444    0.0000 H   0  0  0  0  0  0  0  0  0  0  0  0
    4.0611    2.2756    0.0000 H   0  0  0  0  0  0  0  0  0  0  0  0
   11.4920    0.9276    0.0000 H   0  0  0  0  0  0  0  0  0  0  0  0
    6.3301   -4.6544    0.0000 H   0  0  0  0  0  0  0  0  0  0  0  0
    1.4631   -2.2244    0.0000 H   0  0  0  0  0  0  0  0  0  0  0  0
    7.7331   -2.2244    0.0000 H   0  0  0  0  0  0  0  0  0  0  0  0
    2.8660   -4.6544    0.0000 H   0  0  0  0  0  0  0  0  0  0  0  0
   11.6207    3.8418    0.0000 H   0  0  0  0  0  0  0  0  0  0  0  0
   11.2240    4.6237    0.0000 H   0  0  0  0  0  0  0  0  0  0  0  0
   10.4420    4.2270    0.0000 H   0  0  0  0  0  0  0  0  0  0  0  0
    7.7331   -3.8444    0.0000 H   0  0  0  0  0  0  0  0  0  0  0  0
    1.4631   -3.8444    0.0000 H   0  0  0  0  0  0  0  0  0  0  0  0
   12.5734    1.3874    0.0000 H   0  0  0  0  0  0  0  0  0  0  0  0
   13.4490    1.3400    0.0000 H   0  0  0  0  0  0  0  0  0  0  0  0
   13.4964    2.2155    0.0000 H   0  0  0  0  0  0  0  0  0  0  0  0
   13.2670    3.3037    0.0000 H   0  0  0  0  0  0  0  0  0  0  0  0
   12.8703    4.0856    0.0000 H   0  0  0  0  0  0  0  0  0  0  0  0
   12.0884    3.6889    0.0000 H   0  0  0  0  0  0  0  0  0  0  0  0
  1 13  2  0  0  0  0
  2 16  1  0  0  0  0
  2 54  1  0  0  0  0
  3 16  2  0  0  0  0
  4  8  1  0  0  0  0
  4 11  1  0  0  0  0
  4 13  1  0  0  0  0
  5 10  1  0  0  0  0
  5 15  1  0  0  0  0
  5 17  1  0  0  0  0
  6 12  1  0  0  0  0
  6 17  2  0  0  0  0
  7 28  1  0  0  0  0
  7 37  1  0  0  0  0
  7 38  1  0  0  0  0
  8  9  1  0  0  0  0
  8 16  1  6  0  0  0
  8 39  1  0  0  0  0
  9 10  1  0  0  0  0
  9 40  1  0  0  0  0
  9 41  1  0  0  0  0
 10 12  2  0  0  0  0
 11 12  1  0  0  0  0
 11 42  1  0  0  0  0
 11 43  1  0  0  0  0
 13 14  1  0  0  0  0
 14 19  1  0  0  0  0
 14 20  1  0  0  0  0
 14 44  1  0  0  0  0
 15 18  1  0  0  0  0
 15 45  1  0  0  0  0
 15 46  1  0  0  0  0
 17 47  1  0  0  0  0
 18 21  2  0  0  0  0
 18 22  1  0  0  0  0
 19 23  2  0  0  0  0
 19 25  1  0  0  0  0
 20 24  2  0  0  0  0
 20 26  1  0  0  0  0
 21 27  1  0  0  0  0
 21 48  1  0  0  0  0
 22 29  2  0  0  0  0
 22 49  1  0  0  0  0
 23 31  1  0  0  0  0
 23 51  1  0  0  0  0
 24 30  1  0  0  0  0
 24 50  1  0  0  0  0
 25 33  2  0  0  0  0
 25 53  1  0  0  0  0
 26 32  2  0  0  0  0
 26 52  1  0  0  0  0
 27 28  2  0  0  0  0
 27 34  1  0  0  0  0
 28 29  1  0  0  0  0
 29 55  1  0  0  0  0
 30 35  2  0  0  0  0
 30 56  1  0  0  0  0
 31 36  2  0  0  0  0
 31 57  1  0  0  0  0
 32 35  1  0  0  0  0
 32 58  1  0  0  0  0
 33 36  1  0  0  0  0
 33 59  1  0  0  0  0
 34 60  1  0  0  0  0
 34 61  1  0  0  0  0
 34 62  1  0  0  0  0
 35 63  1  0  0  0  0
 36 64  1  0  0  0  0
 37 65  1  0  0  0  0
 37 66  1  0  0  0  0
 37 67  1  0  0  0  0
 38 68  1  0  0  0  0
 38 69  1  0  0  0  0
 38 70  1  0  0  0  0
M  END
> <PUBCHEM_COMPOUND_CID>
5311345

> <PUBCHEM_COMPOUND_CANONICALIZED>
1

> <PUBCHEM_CACTVS_COMPLEXITY>
791

> <PUBCHEM_CACTVS_HBOND_ACCEPTOR>
5

> <PUBCHEM_CACTVS_HBOND_DONOR>
1

> <PUBCHEM_CACTVS_ROTATABLE_BOND>
7

> <PUBCHEM_CACTVS_SUBSKEYS>
AAADcfB7sAAAAAAAAAAAAAAAAAAAAWAAAAA8YMEAAAAAAFgB1AAAHgAACAAADSjBngQ32JcMEgCoAyXzfACCgC0xEqAJ2AG4dIiKaDLA3bGUYAhshgLYyCe82cOeiAACAAACAAAQAAQAAAQAAAAAAAAAAA==

> <PUBCHEM_IUPAC_OPENEYE_NAME>
(6S)-1-[[4-(dimethylamino)-3-methyl-phenyl]methyl]-5-(2,2-diphenylacetyl)-6,7-dihydro-4H-imidazo[4,5-c]pyridine-6-carboxylic acid

> <PUBCHEM_IUPAC_CAS_NAME>
(6S)-1-[[4-(dimethylamino)-3-methylphenyl]methyl]-5-(1-oxo-2,2-diphenylethyl)-6,7-dihydro-4H-imidazo[4,5-c]pyridine-6-carboxylic acid

> <PUBCHEM_IUPAC_NAME>
(6S)-1-[[4-(dimethylamino)-3-methylphenyl]methyl]-5-(2,2-diphenylacetyl)-6,7-dihydro-4H-imidazo[4,5-c]pyridine-6-carboxylic acid

> <PUBCHEM_IUPAC_SYSTEMATIC_NAME>
(6S)-1-[[4-(dimethylamino)-3-methyl-phenyl]methyl]-5-(2,2-diphenylethanoyl)-6,7-dihydro-4H-imidazo[4,5-c]pyridine-6-carboxylic acid

> <PUBCHEM_IUPAC_TRADITIONAL_NAME>
(6S)-1-[4-(dimethylamino)-3-methyl-benzyl]-5-(2,2-diphenylacetyl)-6,7-dihydro-4H-imidazo[4,5-c]pyridine-6-carboxylic acid

> <PUBCHEM_IUPAC_INCHI>
InChI=1S/C31H32N4O3/c1-21-16-22(14-15-26(21)33(2)3)18-34-20-32-25-19-35(28(31(37)38)17-27(25)34)30(36)29(23-10-6-4-7-11-23)24-12-8-5-9-13-24/h4-16,20,28-29H,17-19H2,1-3H3,(H,37,38)/t28-/m0/s1

> <PUBCHEM_IUPAC_INCHIKEY>
YSTVFDAKLDMYCR-NDEPHWFRSA-N

> <PUBCHEM_XLOGP3_AA>
4.4

> <PUBCHEM_EXACT_MASS>
508.247441

> <PUBCHEM_MOLECULAR_FORMULA>
C31H32N4O3

> <PUBCHEM_MOLECULAR_WEIGHT>
508.61078

> <PUBCHEM_OPENEYE_CAN_SMILES>
CC1=C(C=CC(=C1)CN2C=NC3=C2CC(N(C3)C(=O)C(C4=CC=CC=C4)C5=CC=CC=C5)C(=O)O)N(C)C

> <PUBCHEM_OPENEYE_ISO_SMILES>
CC1=C(C=CC(=C1)CN2C=NC3=C2C[C@H](N(C3)C(=O)C(C4=CC=CC=C4)C5=CC=CC=C5)C(=O)O)N(C)C

> <PUBCHEM_CACTVS_TPSA>
78.7

> <PUBCHEM_MONOISOTOPIC_WEIGHT>
508.247441

> <PUBCHEM_TOTAL_CHARGE>
0

> <PUBCHEM_HEAVY_ATOM_COUNT>
38

> <PUBCHEM_ATOM_DEF_STEREO_COUNT>
1

> <PUBCHEM_ATOM_UDEF_STEREO_COUNT>
0

> <PUBCHEM_BOND_DEF_STEREO_COUNT>
0

> <PUBCHEM_BOND_UDEF_STEREO_COUNT>
0

> <PUBCHEM_ISOTOPIC_ATOM_COUNT>
0

> <PUBCHEM_COMPONENT_COUNT>
1

> <PUBCHEM_CACTVS_TAUTO_COUNT>
1

> <PUBCHEM_COORDINATE_TYPE>
1
5
255

> <PUBCHEM_BONDANNOTATIONS>
10  12  8
18  21  8
18  22  8
19  23  8
19  25  8
20  24  8
20  26  8
21  27  8
22  29  8
23  31  8
24  30  8
25  33  8
26  32  8
27  28  8
28  29  8
30  35  8
31  36  8
32  35  8
33  36  8
5  10  8
5  17  8
6  12  8
6  17  8
8  16  6

$$$$

