10820
  -OEChem-07051212513D

 24 24  0     0  0  0  0  0  0999 V2000
   -3.2952   -1.3396    0.0000 O   0  0  0  0  0  0  0  0  0  0  0  0
   -3.6351    0.9078    0.0010 O   0  0  0  0  0  0  0  0  0  0  0  0
    2.8677    0.3147   -0.0004 C   0  0  0  0  0  0  0  0  0  0  0  0
    1.3793    0.2192    0.0002 C   0  0  0  0  0  0  0  0  0  0  0  0
    3.4972   -0.3097   -1.2601 C   0  0  0  0  0  0  0  0  0  0  0  0
    3.4981   -0.3057    1.2608 C   0  0  0  0  0  0  0  0  0  0  0  0
    0.6065    1.3804   -0.0012 C   0  0  0  0  0  0  0  0  0  0  0  0
    0.7601   -1.0306    0.0011 C   0  0  0  0  0  0  0  0  0  0  0  0
   -0.7856    1.2918   -0.0016 C   0  0  0  0  0  0  0  0  0  0  0  0
   -0.6320   -1.1193    0.0006 C   0  0  0  0  0  0  0  0  0  0  0  0
   -1.4048    0.0419   -0.0008 C   0  0  0  0  0  0  0  0  0  0  0  0
   -2.8562   -0.0510    0.0005 C   0  0  0  0  0  0  0  0  0  0  0  0
    3.1552    1.3751   -0.0022 H   0  0  0  0  0  0  0  0  0  0  0  0
    3.3304   -1.3911   -1.3084 H   0  0  0  0  0  0  0  0  0  0  0  0
    4.5791   -0.1383   -1.2736 H   0  0  0  0  0  0  0  0  0  0  0  0
    3.0749    0.1359   -2.1677 H   0  0  0  0  0  0  0  0  0  0  0  0
    3.0767    0.1429    2.1672 H   0  0  0  0  0  0  0  0  0  0  0  0
    4.5800   -0.1346    1.2729 H   0  0  0  0  0  0  0  0  0  0  0  0
    3.3311   -1.3870    1.3128 H   0  0  0  0  0  0  0  0  0  0  0  0
    1.0727    2.3621   -0.0020 H   0  0  0  0  0  0  0  0  0  0  0  0
    1.3429   -1.9476    0.0023 H   0  0  0  0  0  0  0  0  0  0  0  0
   -1.3699    2.2083   -0.0023 H   0  0  0  0  0  0  0  0  0  0  0  0
   -1.0726   -2.1123    0.0016 H   0  0  0  0  0  0  0  0  0  0  0  0
   -4.2748   -1.3914    0.0003 H   0  0  0  0  0  0  0  0  0  0  0  0
  1 12  1  0  0  0  0
  1 24  1  0  0  0  0
  2 12  2  0  0  0  0
  3  4  1  0  0  0  0
  3  5  1  0  0  0  0
  3  6  1  0  0  0  0
  3 13  1  0  0  0  0
  4  7  2  0  0  0  0
  4  8  1  0  0  0  0
  5 14  1  0  0  0  0
  5 15  1  0  0  0  0
  5 16  1  0  0  0  0
  6 17  1  0  0  0  0
  6 18  1  0  0  0  0
  6 19  1  0  0  0  0
  7  9  1  0  0  0  0
  7 20  1  0  0  0  0
  8 10  2  0  0  0  0
  8 21  1  0  0  0  0
  9 11  2  0  0  0  0
  9 22  1  0  0  0  0
 10 11  1  0  0  0  0
 10 23  1  0  0  0  0
 11 12  1  0  0  0  0
M  END
> <PUBCHEM_COMPOUND_CID>
10820

> <PUBCHEM_CONFORMER_RMSD>
0.6

> <PUBCHEM_CONFORMER_DIVERSEORDER>
1
4
3
2

> <PUBCHEM_MMFF94_PARTIAL_CHARGES>
15
1 -0.65
10 -0.15
11 0.09
12 0.63
2 -0.57
20 0.15
21 0.15
22 0.15
23 0.15
24 0.5
3 0.14
4 -0.14
7 -0.15
8 -0.15
9 -0.15

> <PUBCHEM_EFFECTIVE_ROTOR_COUNT>
2

> <PUBCHEM_PHARMACOPHORE_FEATURES>
5
1 1 acceptor
1 2 acceptor
3 1 2 12 anion
3 3 5 6 hydrophobe
6 4 7 8 9 10 11 rings

> <PUBCHEM_HEAVY_ATOM_COUNT>
12

> <PUBCHEM_ATOM_DEF_STEREO_COUNT>
0

> <PUBCHEM_ATOM_UDEF_STEREO_COUNT>
0

> <PUBCHEM_BOND_DEF_STEREO_COUNT>
0

> <PUBCHEM_BOND_UDEF_STEREO_COUNT>
0

> <PUBCHEM_ISOTOPIC_ATOM_COUNT>
0

> <PUBCHEM_COMPONENT_COUNT>
1

> <PUBCHEM_CACTVS_TAUTO_COUNT>
1

> <PUBCHEM_CONFORMER_ID>
00002A4400000001

> <PUBCHEM_MMFF94_ENERGY>
31.8995

> <PUBCHEM_FEATURE_SELFOVERLAP>
25.429

> <PUBCHEM_SHAPE_FINGERPRINT>
10130415 120 18202288000255071128
10219947 1 15574713594918387392
10857977 72 18335427854392898992
11062470 55 16773793705676346317
11132069 177 18335424577348643825
11543360 7 15697714796781681211
12032990 46 18335412448345351047
12932764 1 17775290451689135621
13296908 3 18040713658177427934
13760787 19 17418369190430452955
13760787 5 17775284967058005687
14144814 61 18341896285583490506
14325111 11 18410573963697791617
14993402 34 17989200426198927974
16945 1 18410856576830247236
18175812 5 17749107794318847420
18186145 218 18272652333285141764
19026448 4 16732984227804734483
19026448 5 16774078474892862487
193761 8 17618223244392625349
19422 9 17632577145281088850
20281407 28 18408600374785821016
20645476 183 17631999859096455822
21501925 9 18337401421993420587
23380061 330 18334863787922086439
23402539 116 18261685826142996206
23402655 69 18264786526844655581
23463225 33 18272657886899323498
23552423 10 17913769414501870932
23559900 14 18334008407274012190
2748010 2 18122907529689674629
449060 50 17095809806849935680
528886 8 18409735075286368507
53812653 166 18334021604801398369
7364860 26 18045216034003525608

> <PUBCHEM_SHAPE_MULTIPOLES>
235.22
6.16
1.31
0.88
0.46
0.07
0
-0.6
0
0.56
0
-0.98
-0.08
0

> <PUBCHEM_SHAPE_SELFOVERLAP>
486.134

> <PUBCHEM_SHAPE_VOLUME>
135.5

> <PUBCHEM_COORDINATE_TYPE>
2
5
10

$$$$

