24883448
  -OEChem-07051213112D

 39 39  0     1  0  0  0  0  0999 V2000
    4.8100   -1.1440    0.0000 P   0  0  3  0  0  0  0  0  0  0  0  0
    3.3100   -2.0101    0.0000 P   0  0  0  0  0  0  0  0  0  0  0  0
    5.3100   -0.2780    0.0000 O   0  0  0  0  0  0  0  0  0  0  0  0
    4.3100   -2.0101    0.0000 O   0  0  0  0  0  0  0  0  0  0  0  0
    3.9440   -0.6440    0.0000 O   0  0  0  0  0  0  0  0  0  0  0  0
    5.6760   -1.6440    0.0000 O   0  0  0  0  0  0  0  0  0  0  0  0
    2.3100   -2.0101    0.0000 O   0  0  0  0  0  0  0  0  0  0  0  0
    3.3100   -3.0101    0.0000 O   0  0  0  0  0  0  0  0  0  0  0  0
    3.3100   -1.0101    0.0000 O   0  0  0  0  0  0  0  0  0  0  0  0
    7.6760    1.0880    0.0000 C   0  0  0  0  0  0  0  0  0  0  0  0
    6.8100    0.5880    0.0000 C   0  0  1  0  0  0  0  0  0  0  0  0
    6.8100    1.5880    0.0000 C   0  0  1  0  0  0  0  0  0  0  0  0
    8.1760    0.2220    0.0000 C   0  0  0  0  0  0  0  0  0  0  0  0
    8.1760    1.9540    0.0000 C   0  0  0  0  0  0  0  0  0  0  0  0
    6.3100   -0.2780    0.0000 C   0  0  0  0  0  0  0  0  0  0  0  0
    6.3100    2.4540    0.0000 C   0  0  0  0  0  0  0  0  0  0  0  0
    5.3100    2.4540    0.0000 C   0  0  0  0  0  0  0  0  0  0  0  0
    4.8100    3.3201    0.0000 C   0  0  0  0  0  0  0  0  0  0  0  0
    4.8100    1.5880    0.0000 C   0  0  0  0  0  0  0  0  0  0  0  0
    6.2111    0.7485    0.0000 H   0  0  0  0  0  0  0  0  0  0  0  0
    6.2111    1.4275    0.0000 H   0  0  0  0  0  0  0  0  0  0  0  0
    7.6391   -0.0880    0.0000 H   0  0  0  0  0  0  0  0  0  0  0  0
    8.4860   -0.3149    0.0000 H   0  0  0  0  0  0  0  0  0  0  0  0
    8.7130    1.6440    0.0000 H   0  0  0  0  0  0  0  0  0  0  0  0
    8.4860    2.4910    0.0000 H   0  0  0  0  0  0  0  0  0  0  0  0
    7.6391    2.2640    0.0000 H   0  0  0  0  0  0  0  0  0  0  0  0
    8.7130    0.5320    0.0000 H   0  0  0  0  0  0  0  0  0  0  0  0
    6.2023   -0.8886    0.0000 H   0  0  0  0  0  0  0  0  0  0  0  0
    6.8926   -0.4901    0.0000 H   0  0  0  0  0  0  0  0  0  0  0  0
    6.6200    2.9910    0.0000 H   0  0  0  0  0  0  0  0  0  0  0  0
    4.2731    1.8980    0.0000 H   0  0  0  0  0  0  0  0  0  0  0  0
    4.5000    1.0511    0.0000 H   0  0  0  0  0  0  0  0  0  0  0  0
    5.3469    1.2780    0.0000 H   0  0  0  0  0  0  0  0  0  0  0  0
    5.3469    3.6301    0.0000 H   0  0  0  0  0  0  0  0  0  0  0  0
    4.5000    3.8570    0.0000 H   0  0  0  0  0  0  0  0  0  0  0  0
    4.2731    3.0101    0.0000 H   0  0  0  0  0  0  0  0  0  0  0  0
    3.9440   -0.0240    0.0000 H   0  0  0  0  0  0  0  0  0  0  0  0
    3.8469   -3.3201    0.0000 H   0  0  0  0  0  0  0  0  0  0  0  0
    2.0000   -2.5470    0.0000 H   0  0  0  0  0  0  0  0  0  0  0  0
  1  3  1  0  0  0  0
  1  4  1  0  0  0  0
  1  5  1  0  0  0  0
  1  6  2  0  0  0  0
  2  4  1  0  0  0  0
  2  7  1  0  0  0  0
  2  8  1  0  0  0  0
  2  9  2  0  0  0  0
  3 15  1  0  0  0  0
  5 37  1  0  0  0  0
  7 39  1  0  0  0  0
  8 38  1  0  0  0  0
 10 11  1  0  0  0  0
 10 12  1  0  0  0  0
 10 13  1  0  0  0  0
 10 14  1  0  0  0  0
 11 12  1  0  0  0  0
 11 15  1  6  0  0  0
 11 20  1  0  0  0  0
 12 16  1  1  0  0  0
 12 21  1  0  0  0  0
 13 22  1  0  0  0  0
 13 23  1  0  0  0  0
 13 27  1  0  0  0  0
 14 24  1  0  0  0  0
 14 25  1  0  0  0  0
 14 26  1  0  0  0  0
 15 28  1  0  0  0  0
 15 29  1  0  0  0  0
 16 17  2  0  0  0  0
 16 30  1  0  0  0  0
 17 18  1  0  0  0  0
 17 19  1  0  0  0  0
 18 34  1  0  0  0  0
 18 35  1  0  0  0  0
 18 36  1  0  0  0  0
 19 31  1  0  0  0  0
 19 32  1  0  0  0  0
 19 33  1  0  0  0  0
M  END
> <PUBCHEM_COMPOUND_CID>
24883448

> <PUBCHEM_COMPOUND_CANONICALIZED>
1

> <PUBCHEM_CACTVS_COMPLEXITY>
461

> <PUBCHEM_CACTVS_HBOND_ACCEPTOR>
7

> <PUBCHEM_CACTVS_HBOND_DONOR>
3

> <PUBCHEM_CACTVS_ROTATABLE_BOND>
6

> <PUBCHEM_CACTVS_SUBSKEYS>
AAADceBwOAMAAAAAAAAAAAAAGAAAAAAAAAAAAAAAAAAAAAAAAAAAGgAACCAADwCggAICAAAAARCAQiBCAIAAAAAgAAAACAAAAAgAAAIAAQAAAAAEgAAIAAKAAAAPgAAAAAAAAAAAAAAAAAAAAAAAAAAAAA==

> <PUBCHEM_IUPAC_OPENEYE_NAME>
[(1R,3R)-2,2-dimethyl-3-(2-methylprop-1-enyl)cyclopropyl]methyl phosphono hydrogen phosphate

> <PUBCHEM_IUPAC_CAS_NAME>
[(1R,3R)-2,2-dimethyl-3-(2-methylprop-1-enyl)cyclopropyl]methyl phosphono hydrogen phosphate

> <PUBCHEM_IUPAC_NAME>
[(1R,3R)-2,2-dimethyl-3-(2-methylprop-1-enyl)cyclopropyl]methyl phosphono hydrogen phosphate

> <PUBCHEM_IUPAC_SYSTEMATIC_NAME>
[(1R,3R)-2,2-dimethyl-3-(2-methylprop-1-enyl)cyclopropyl]methyl phosphono hydrogen phosphate

> <PUBCHEM_IUPAC_TRADITIONAL_NAME>
[(1R,3R)-2,2-dimethyl-3-(2-methylprop-1-enyl)cyclopropyl]methyl phosphono hydrogen phosphate

> <PUBCHEM_IUPAC_INCHI>
InChI=1S/C10H20O7P2/c1-7(2)5-8-9(10(8,3)4)6-16-19(14,15)17-18(11,12)13/h5,8-9H,6H2,1-4H3,(H,14,15)(H2,11,12,13)/t8-,9-/m1/s1

> <PUBCHEM_IUPAC_INCHIKEY>
AORLUAKWVIEOLL-RKDXNWHRSA-N

> <PUBCHEM_XLOGP3_AA>
0.3

> <PUBCHEM_EXACT_MASS>
314.068426

> <PUBCHEM_MOLECULAR_FORMULA>
C10H20O7P2

> <PUBCHEM_MOLECULAR_WEIGHT>
314.209124

> <PUBCHEM_OPENEYE_CAN_SMILES>
CC(=CC1C(C1(C)C)COP(=O)(O)OP(=O)(O)O)C

> <PUBCHEM_OPENEYE_ISO_SMILES>
CC(=C[C@@H]1[C@H](C1(C)C)COP(=O)(O)OP(=O)(O)O)C

> <PUBCHEM_CACTVS_TPSA>
113

> <PUBCHEM_MONOISOTOPIC_WEIGHT>
314.068426

> <PUBCHEM_TOTAL_CHARGE>
0

> <PUBCHEM_HEAVY_ATOM_COUNT>
19

> <PUBCHEM_ATOM_DEF_STEREO_COUNT>
2

> <PUBCHEM_ATOM_UDEF_STEREO_COUNT>
0

> <PUBCHEM_BOND_DEF_STEREO_COUNT>
0

> <PUBCHEM_BOND_UDEF_STEREO_COUNT>
0

> <PUBCHEM_ISOTOPIC_ATOM_COUNT>
0

> <PUBCHEM_COMPONENT_COUNT>
1

> <PUBCHEM_CACTVS_TAUTO_COUNT>
1

> <PUBCHEM_COORDINATE_TYPE>
1
5
255

> <PUBCHEM_BONDANNOTATIONS>
11  15  6
12  16  5

$$$$

