63333
  -OEChem-07051213062D

 57 61  0     0  0  0  0  0  0999 V2000
    6.3861    4.2139    0.0000 Cl  0  0  0  0  0  0  0  0  0  0  0  0
    3.7320   -2.2139    0.0000 O   0  0  0  0  0  0  0  0  0  0  0  0
    8.0622   -3.7139    0.0000 O   0  0  0  0  0  0  0  0  0  0  0  0
    7.1962   -2.2139    0.0000 N   0  0  0  0  0  0  0  0  0  0  0  0
    3.8892    1.1180    0.0000 N   0  0  0  0  0  0  0  0  0  0  0  0
    8.0622   -0.7139    0.0000 N   0  0  0  0  0  0  0  0  0  0  0  0
    6.3301    0.2861    0.0000 C   0  0  0  0  0  0  0  0  0  0  0  0
    6.3301   -0.7139    0.0000 C   0  0  0  0  0  0  0  0  0  0  0  0
    5.4641    0.7861    0.0000 C   0  0  0  0  0  0  0  0  0  0  0  0
    7.1962   -1.2139    0.0000 C   0  0  0  0  0  0  0  0  0  0  0  0
    5.3610    1.7748    0.0000 C   0  0  0  0  0  0  0  0  0  0  0  0
    4.3825    1.9810    0.0000 C   0  0  0  0  0  0  0  0  0  0  0  0
    4.5563    0.3810    0.0000 C   0  0  0  0  0  0  0  0  0  0  0  0
    6.3301   -2.7139    0.0000 C   0  0  0  0  0  0  0  0  0  0  0  0
    8.0622   -2.7139    0.0000 C   0  0  0  0  0  0  0  0  0  0  0  0
    8.9282   -2.2139    0.0000 C   0  0  0  0  0  0  0  0  0  0  0  0
    8.9282   -1.2139    0.0000 C   0  0  0  0  0  0  0  0  0  0  0  0
    6.0289    2.5191    0.0000 C   0  0  0  0  0  0  0  0  0  0  0  0
    4.0719    2.9315    0.0000 C   0  0  0  0  0  0  0  0  0  0  0  0
    5.4641   -2.2139    0.0000 C   0  0  0  0  0  0  0  0  0  0  0  0
    6.3301   -3.7139    0.0000 C   0  0  0  0  0  0  0  0  0  0  0  0
    5.7182    3.4696    0.0000 C   0  0  0  0  0  0  0  0  0  0  0  0
    9.8222   -2.7486    0.0000 C   0  0  0  0  0  0  0  0  0  0  0  0
    4.7397    3.6758    0.0000 C   0  0  0  0  0  0  0  0  0  0  0  0
    9.8222   -0.6793    0.0000 C   0  0  0  0  0  0  0  0  0  0  0  0
    4.5981   -2.7139    0.0000 C   0  0  0  0  0  0  0  0  0  0  0  0
    5.4641   -4.2139    0.0000 C   0  0  0  0  0  0  0  0  0  0  0  0
    4.5981   -3.7139    0.0000 C   0  0  0  0  0  0  0  0  0  0  0  0
   10.7282   -2.2347    0.0000 C   0  0  0  0  0  0  0  0  0  0  0  0
   10.7282   -1.1931    0.0000 C   0  0  0  0  0  0  0  0  0  0  0  0
    2.8660   -2.7139    0.0000 C   0  0  0  0  0  0  0  0  0  0  0  0
    2.0000   -2.2139    0.0000 C   0  0  0  0  0  0  0  0  0  0  0  0
    2.8660   -3.7139    0.0000 C   0  0  0  0  0  0  0  0  0  0  0  0
    6.9407    0.1784    0.0000 H   0  0  0  0  0  0  0  0  0  0  0  0
    6.5422    0.8687    0.0000 H   0  0  0  0  0  0  0  0  0  0  0  0
    5.7196   -0.6063    0.0000 H   0  0  0  0  0  0  0  0  0  0  0  0
    6.1181   -1.2965    0.0000 H   0  0  0  0  0  0  0  0  0  0  0  0
    4.4285   -0.2257    0.0000 H   0  0  0  0  0  0  0  0  0  0  0  0
    3.2729    1.0510    0.0000 H   0  0  0  0  0  0  0  0  0  0  0  0
    6.6356    2.3912    0.0000 H   0  0  0  0  0  0  0  0  0  0  0  0
    3.4652    3.0594    0.0000 H   0  0  0  0  0  0  0  0  0  0  0  0
    5.4641   -1.5939    0.0000 H   0  0  0  0  0  0  0  0  0  0  0  0
    6.8671   -4.0239    0.0000 H   0  0  0  0  0  0  0  0  0  0  0  0
    9.8150   -3.3685    0.0000 H   0  0  0  0  0  0  0  0  0  0  0  0
    4.5471    4.2652    0.0000 H   0  0  0  0  0  0  0  0  0  0  0  0
    9.8150   -0.0593    0.0000 H   0  0  0  0  0  0  0  0  0  0  0  0
    5.4641   -4.8339    0.0000 H   0  0  0  0  0  0  0  0  0  0  0  0
    4.0611   -4.0239    0.0000 H   0  0  0  0  0  0  0  0  0  0  0  0
   11.2639   -2.5468    0.0000 H   0  0  0  0  0  0  0  0  0  0  0  0
   11.2639   -0.8810    0.0000 H   0  0  0  0  0  0  0  0  0  0  0  0
    2.8660   -2.0939    0.0000 H   0  0  0  0  0  0  0  0  0  0  0  0
    2.3100   -1.6770    0.0000 H   0  0  0  0  0  0  0  0  0  0  0  0
    1.4631   -1.9039    0.0000 H   0  0  0  0  0  0  0  0  0  0  0  0
    1.6900   -2.7509    0.0000 H   0  0  0  0  0  0  0  0  0  0  0  0
    2.2460   -3.7139    0.0000 H   0  0  0  0  0  0  0  0  0  0  0  0
    2.8660   -4.3339    0.0000 H   0  0  0  0  0  0  0  0  0  0  0  0
    3.4860   -3.7139    0.0000 H   0  0  0  0  0  0  0  0  0  0  0  0
  1 22  1  0  0  0  0
  2 26  1  0  0  0  0
  2 31  1  0  0  0  0
  3 15  2  0  0  0  0
  4 10  1  0  0  0  0
  4 14  1  0  0  0  0
  4 15  1  0  0  0  0
  5 12  1  0  0  0  0
  5 13  1  0  0  0  0
  5 39  1  0  0  0  0
  6 10  2  0  0  0  0
  6 17  1  0  0  0  0
  7  8  1  0  0  0  0
  7  9  1  0  0  0  0
  7 34  1  0  0  0  0
  7 35  1  0  0  0  0
  8 10  1  0  0  0  0
  8 36  1  0  0  0  0
  8 37  1  0  0  0  0
  9 11  1  0  0  0  0
  9 13  2  0  0  0  0
 11 12  2  0  0  0  0
 11 18  1  0  0  0  0
 12 19  1  0  0  0  0
 13 38  1  0  0  0  0
 14 20  2  0  0  0  0
 14 21  1  0  0  0  0
 15 16  1  0  0  0  0
 16 17  1  0  0  0  0
 16 23  2  0  0  0  0
 17 25  2  0  0  0  0
 18 22  2  0  0  0  0
 18 40  1  0  0  0  0
 19 24  2  0  0  0  0
 19 41  1  0  0  0  0
 20 26  1  0  0  0  0
 20 42  1  0  0  0  0
 21 27  2  0  0  0  0
 21 43  1  0  0  0  0
 22 24  1  0  0  0  0
 23 29  1  0  0  0  0
 23 44  1  0  0  0  0
 24 45  1  0  0  0  0
 25 30  1  0  0  0  0
 25 46  1  0  0  0  0
 26 28  2  0  0  0  0
 27 28  1  0  0  0  0
 27 47  1  0  0  0  0
 28 48  1  0  0  0  0
 29 30  2  0  0  0  0
 29 49  1  0  0  0  0
 30 50  1  0  0  0  0
 31 32  1  0  0  0  0
 31 33  1  0  0  0  0
 31 51  1  0  0  0  0
 32 52  1  0  0  0  0
 32 53  1  0  0  0  0
 32 54  1  0  0  0  0
 33 55  1  0  0  0  0
 33 56  1  0  0  0  0
 33 57  1  0  0  0  0
M  END
> <PUBCHEM_COMPOUND_CID>
63333

> <PUBCHEM_COMPOUND_CANONICALIZED>
1

> <PUBCHEM_CACTVS_COMPLEXITY>
728

> <PUBCHEM_CACTVS_HBOND_ACCEPTOR>
3

> <PUBCHEM_CACTVS_HBOND_DONOR>
1

> <PUBCHEM_CACTVS_ROTATABLE_BOND>
6

> <PUBCHEM_CACTVS_SUBSKEYS>
AAADceB7MAAEAAAAAAAAAAAAAAAAAWAAAAAwYMEAAAAAAFiB9AAAHgIQAAAADB7hniY/xvPJlACoAzd3dACCiCE1JyAJ2aE+btgMJvrF/5uGOajm1BnI6ceY2MOOgABAIgACAAAAAIBEAAQAAAAAAAAAAA==

> <PUBCHEM_IUPAC_OPENEYE_NAME>
2-[2-(5-chloro-1H-indol-3-yl)ethyl]-3-(3-isopropoxyphenyl)quinazolin-4-one

> <PUBCHEM_IUPAC_CAS_NAME>
2-[2-(5-chloro-1H-indol-3-yl)ethyl]-3-(3-propan-2-yloxyphenyl)-4-quinazolinone

> <PUBCHEM_IUPAC_NAME>
2-[2-(5-chloro-1H-indol-3-yl)ethyl]-3-(3-propan-2-yloxyphenyl)quinazolin-4-one

> <PUBCHEM_IUPAC_SYSTEMATIC_NAME>
2-[2-(5-chloranyl-1H-indol-3-yl)ethyl]-3-(3-propan-2-yloxyphenyl)quinazolin-4-one

> <PUBCHEM_IUPAC_TRADITIONAL_NAME>
2-[2-(5-chloro-1H-indol-3-yl)ethyl]-3-(3-isopropoxyphenyl)quinazolin-4-one

> <PUBCHEM_IUPAC_INCHI>
InChI=1S/C27H24ClN3O2/c1-17(2)33-21-7-5-6-20(15-21)31-26(30-25-9-4-3-8-22(25)27(31)32)13-10-18-16-29-24-12-11-19(28)14-23(18)24/h3-9,11-12,14-17,29H,10,13H2,1-2H3

> <PUBCHEM_IUPAC_INCHIKEY>
DWDPCGQQNLAFEN-UHFFFAOYSA-N

> <PUBCHEM_XLOGP3_AA>
5.8

> <PUBCHEM_EXACT_MASS>
457.155705

> <PUBCHEM_MOLECULAR_FORMULA>
C27H24ClN3O2

> <PUBCHEM_MOLECULAR_WEIGHT>
457.95136

> <PUBCHEM_OPENEYE_CAN_SMILES>
CC(C)OC1=CC=CC(=C1)N2C(=NC3=CC=CC=C3C2=O)CCC4=CNC5=C4C=C(C=C5)Cl

> <PUBCHEM_OPENEYE_ISO_SMILES>
CC(C)OC1=CC=CC(=C1)N2C(=NC3=CC=CC=C3C2=O)CCC4=CNC5=C4C=C(C=C5)Cl

> <PUBCHEM_CACTVS_TPSA>
57.7

> <PUBCHEM_MONOISOTOPIC_WEIGHT>
457.155705

> <PUBCHEM_TOTAL_CHARGE>
0

> <PUBCHEM_HEAVY_ATOM_COUNT>
33

> <PUBCHEM_ATOM_DEF_STEREO_COUNT>
0

> <PUBCHEM_ATOM_UDEF_STEREO_COUNT>
0

> <PUBCHEM_BOND_DEF_STEREO_COUNT>
0

> <PUBCHEM_BOND_UDEF_STEREO_COUNT>
0

> <PUBCHEM_ISOTOPIC_ATOM_COUNT>
0

> <PUBCHEM_COMPONENT_COUNT>
1

> <PUBCHEM_CACTVS_TAUTO_COUNT>
5

> <PUBCHEM_COORDINATE_TYPE>
1
5
255

> <PUBCHEM_BONDANNOTATIONS>
11  12  8
11  18  8
12  19  8
14  20  8
14  21  8
15  16  8
16  17  8
16  23  8
17  25  8
18  22  8
19  24  8
20  26  8
21  27  8
22  24  8
23  29  8
25  30  8
26  28  8
27  28  8
29  30  8
4  10  8
4  15  8
5  12  8
5  13  8
6  10  8
6  17  8
9  11  8
9  13  8

$$$$

