7741
  -OEChem-06261202172D

 17 17  0     0  0  0  0  0  0999 V2000
    2.8090   -0.4594    0.0000 N   0  0  0  0  0  0  0  0  0  0  0  0
    6.2633    0.1795    0.0000 N   0  0  0  0  0  0  0  0  0  0  0  0
    2.0000    0.1284    0.0000 N   0  0  0  0  0  0  0  0  0  0  0  0
    4.5691   -0.1807    0.0000 C   0  0  0  0  0  0  0  0  0  0  0  0
    3.6180    0.1284    0.0000 C   0  0  0  0  0  0  0  0  0  0  0  0
    5.3122    0.4885    0.0000 C   0  0  0  0  0  0  0  0  0  0  0  0
    3.3090    1.0794    0.0000 C   0  0  0  0  0  0  0  0  0  0  0  0
    2.3090    1.0794    0.0000 C   0  0  0  0  0  0  0  0  0  0  0  0
    4.2780   -0.7281    0.0000 H   0  0  0  0  0  0  0  0  0  0  0  0
    5.0577   -0.5624    0.0000 H   0  0  0  0  0  0  0  0  0  0  0  0
    5.6033    1.0359    0.0000 H   0  0  0  0  0  0  0  0  0  0  0  0
    4.8237    0.8702    0.0000 H   0  0  0  0  0  0  0  0  0  0  0  0
    3.6734    1.5810    0.0000 H   0  0  0  0  0  0  0  0  0  0  0  0
    2.8090   -1.0794    0.0000 H   0  0  0  0  0  0  0  0  0  0  0  0
    1.9446    1.5810    0.0000 H   0  0  0  0  0  0  0  0  0  0  0  0
    6.7240    0.5943    0.0000 H   0  0  0  0  0  0  0  0  0  0  0  0
    6.3922   -0.4270    0.0000 H   0  0  0  0  0  0  0  0  0  0  0  0
  1  3  1  0  0  0  0
  1  5  1  0  0  0  0
  1 14  1  0  0  0  0
  2  6  1  0  0  0  0
  2 16  1  0  0  0  0
  2 17  1  0  0  0  0
  3  8  2  0  0  0  0
  4  5  1  0  0  0  0
  4  6  1  0  0  0  0
  4  9  1  0  0  0  0
  4 10  1  0  0  0  0
  5  7  2  0  0  0  0
  6 11  1  0  0  0  0
  6 12  1  0  0  0  0
  7  8  1  0  0  0  0
  7 13  1  0  0  0  0
  8 15  1  0  0  0  0
M  END
> <PUBCHEM_COMPOUND_CID>
7741

> <PUBCHEM_COMPOUND_CANONICALIZED>
1

> <PUBCHEM_CACTVS_COMPLEXITY>
64.7

> <PUBCHEM_CACTVS_HBOND_ACCEPTOR>
2

> <PUBCHEM_CACTVS_HBOND_DONOR>
2

> <PUBCHEM_CACTVS_ROTATABLE_BOND>
2

> <PUBCHEM_CACTVS_SUBSKEYS>
AAADccBjAAAAAAAAAAAAAAAAAAAAAWAAAAAAAAAAAAAAAAABgAAAHAAYAAAACAjBFgQ8gJBjAACiATRnQACQBAAgggAYOaAwZBgAIIIA0cGAhABgmAAISAIQAAAAAAAAAAAAAAAAAAAAAAAAAAAAAAAAAA==

> <PUBCHEM_IUPAC_OPENEYE_NAME>
2-(1H-pyrazol-5-yl)ethanamine

> <PUBCHEM_IUPAC_CAS_NAME>
2-(1H-pyrazol-5-yl)ethanamine

> <PUBCHEM_IUPAC_NAME>
2-(1H-pyrazol-5-yl)ethanamine

> <PUBCHEM_IUPAC_SYSTEMATIC_NAME>
2-(1H-pyrazol-5-yl)ethanamine

> <PUBCHEM_IUPAC_TRADITIONAL_NAME>
2-(1H-pyrazol-5-yl)ethylamine

> <PUBCHEM_IUPAC_INCHI>
InChI=1S/C5H9N3/c6-3-1-5-2-4-7-8-5/h2,4H,1,3,6H2,(H,7,8)

> <PUBCHEM_IUPAC_INCHIKEY>
JXDFEQONERDKSS-UHFFFAOYSA-N

> <PUBCHEM_XLOGP3_AA>
-0.4

> <PUBCHEM_EXACT_MASS>
111.079647

> <PUBCHEM_MOLECULAR_FORMULA>
C5H9N3

> <PUBCHEM_MOLECULAR_WEIGHT>
111.14506

> <PUBCHEM_OPENEYE_CAN_SMILES>
C1=C(NN=C1)CCN

> <PUBCHEM_OPENEYE_ISO_SMILES>
C1=C(NN=C1)CCN

> <PUBCHEM_CACTVS_TPSA>
54.7

> <PUBCHEM_MONOISOTOPIC_WEIGHT>
111.079647

> <PUBCHEM_TOTAL_CHARGE>
0

> <PUBCHEM_HEAVY_ATOM_COUNT>
8

> <PUBCHEM_ATOM_DEF_STEREO_COUNT>
0

> <PUBCHEM_ATOM_UDEF_STEREO_COUNT>
0

> <PUBCHEM_BOND_DEF_STEREO_COUNT>
0

> <PUBCHEM_BOND_UDEF_STEREO_COUNT>
0

> <PUBCHEM_ISOTOPIC_ATOM_COUNT>
0

> <PUBCHEM_COMPONENT_COUNT>
1

> <PUBCHEM_CACTVS_TAUTO_COUNT>
2

> <PUBCHEM_COORDINATE_TYPE>
1
5
255

> <PUBCHEM_BONDANNOTATIONS>
1  3  8
1  5  8
3  8  8
5  7  8
7  8  8

$$$$

