8703
  -OEChem-06261203013D

 24 24  0     0  0  0  0  0  0999 V2000
    3.7884   -0.4722    0.7141 O   0  0  0  0  0  0  0  0  0  0  0  0
    1.1267   -0.1529   -0.1875 N   0  0  0  0  0  0  0  0  0  0  0  0
   -0.2644    0.0617   -0.0749 C   0  0  0  0  0  0  0  0  0  0  0  0
   -1.1533   -1.0131   -0.0519 C   0  0  0  0  0  0  0  0  0  0  0  0
    2.0761    0.9152   -0.2155 C   0  0  0  0  0  0  0  0  0  0  0  0
   -0.7468    1.3676    0.0139 C   0  0  0  0  0  0  0  0  0  0  0  0
   -2.5244   -0.7819    0.0598 C   0  0  0  0  0  0  0  0  0  0  0  0
    3.4869    0.3750   -0.3869 C   0  0  0  0  0  0  0  0  0  0  0  0
   -0.6648   -2.4221   -0.1453 C   0  0  0  0  0  0  0  0  0  0  0  0
   -2.1178    1.5987    0.1256 C   0  0  0  0  0  0  0  0  0  0  0  0
   -3.0065    0.5240    0.1486 C   0  0  0  0  0  0  0  0  0  0  0  0
    2.0303    1.4761    0.7258 H   0  0  0  0  0  0  0  0  0  0  0  0
    1.8700    1.5998   -1.0464 H   0  0  0  0  0  0  0  0  0  0  0  0
    1.4609   -1.1079   -0.2371 H   0  0  0  0  0  0  0  0  0  0  0  0
   -0.0943    2.2352    0.0020 H   0  0  0  0  0  0  0  0  0  0  0  0
   -3.2312   -1.6073    0.0793 H   0  0  0  0  0  0  0  0  0  0  0  0
    4.2117    1.1946   -0.4079 H   0  0  0  0  0  0  0  0  0  0  0  0
    3.5780   -0.2078   -1.3093 H   0  0  0  0  0  0  0  0  0  0  0  0
   -0.1303   -2.5824   -1.0875 H   0  0  0  0  0  0  0  0  0  0  0  0
   -0.0030   -2.6563    0.6953 H   0  0  0  0  0  0  0  0  0  0  0  0
   -1.4908   -3.1413   -0.1164 H   0  0  0  0  0  0  0  0  0  0  0  0
   -2.4939    2.6153    0.1953 H   0  0  0  0  0  0  0  0  0  0  0  0
   -4.0741    0.7042    0.2357 H   0  0  0  0  0  0  0  0  0  0  0  0
    4.6941   -0.8003    0.5814 H   0  0  0  0  0  0  0  0  0  0  0  0
  1  8  1  0  0  0  0
  1 24  1  0  0  0  0
  2  3  1  0  0  0  0
  2  5  1  0  0  0  0
  2 14  1  0  0  0  0
  3  4  1  0  0  0  0
  3  6  2  0  0  0  0
  4  7  2  0  0  0  0
  4  9  1  0  0  0  0
  5  8  1  0  0  0  0
  5 12  1  0  0  0  0
  5 13  1  0  0  0  0
  6 10  1  0  0  0  0
  6 15  1  0  0  0  0
  7 11  1  0  0  0  0
  7 16  1  0  0  0  0
  8 17  1  0  0  0  0
  8 18  1  0  0  0  0
  9 19  1  0  0  0  0
  9 20  1  0  0  0  0
  9 21  1  0  0  0  0
 10 11  2  0  0  0  0
 10 22  1  0  0  0  0
 11 23  1  0  0  0  0
M  END
> <PUBCHEM_COMPOUND_CID>
8703

> <PUBCHEM_CONFORMER_RMSD>
0.6

> <PUBCHEM_CONFORMER_DIVERSEORDER>
1
6
7
3
8
9
2
4
5

> <PUBCHEM_MMFF94_PARTIAL_CHARGES>
17
1 -0.68
10 -0.15
11 -0.15
14 0.4
15 0.15
16 0.15
2 -0.87
22 0.15
23 0.15
24 0.4
3 0.1
4 -0.14
5 0.37
6 -0.15
7 -0.15
8 0.28
9 0.14

> <PUBCHEM_EFFECTIVE_ROTOR_COUNT>
3

> <PUBCHEM_PHARMACOPHORE_FEATURES>
5
1 1 acceptor
1 1 donor
1 2 cation
1 2 donor
6 3 4 6 7 10 11 rings

> <PUBCHEM_HEAVY_ATOM_COUNT>
11

> <PUBCHEM_ATOM_DEF_STEREO_COUNT>
0

> <PUBCHEM_ATOM_UDEF_STEREO_COUNT>
0

> <PUBCHEM_BOND_DEF_STEREO_COUNT>
0

> <PUBCHEM_BOND_UDEF_STEREO_COUNT>
0

> <PUBCHEM_ISOTOPIC_ATOM_COUNT>
0

> <PUBCHEM_COMPONENT_COUNT>
1

> <PUBCHEM_CACTVS_TAUTO_COUNT>
1

> <PUBCHEM_CONFORMER_ID>
000021FF00000001

> <PUBCHEM_MMFF94_ENERGY>
33.4374

> <PUBCHEM_FEATURE_SELFOVERLAP>
25.375

> <PUBCHEM_SHAPE_FINGERPRINT>
12716758 59 18335987475746588002
13024252 1 14620798189123167421
13380535 76 18408603694764262671
14144814 61 18413107264653636760
14325111 11 18410853282801503228
15669948 3 18337389319102751638
15775835 57 18272083928812938104
16945 1 18336538344194421341
17846911 113 18333732442017954409
193761 8 17689994957060217453
20510252 161 18259980483165632897
20645464 45 18040429997036002765
20645476 183 17773857740978321302
20871998 184 18116143377216449031
23402539 116 18261402126404900895
23463225 33 18271527597625562026
23552423 10 17839457787130289276
23559900 14 18259982687501707148
2748010 2 18194106637343621087
369184 2 18410855430105751149
43471831 8 18341613762767291059
5706482 22 18337115652213145603
6333449 129 18335138678692826781
7364860 26 17901946666574213631
75552 356 18410571747557970532

> <PUBCHEM_SHAPE_MULTIPOLES>
215.52
5.36
1.88
0.66
5.2
0.78
-0.01
-0.68
-0.46
-1.01
0.04
0.16
0.01
-0.24

> <PUBCHEM_SHAPE_SELFOVERLAP>
435.018

> <PUBCHEM_SHAPE_VOLUME>
127.1

> <PUBCHEM_COORDINATE_TYPE>
2
5
10

$$$$

