3777
  -OEChem-06251223402D

 74 74  0     1  0  0  0  0  0999 V2000
   13.0401   -2.5716    0.0000 O   0  0  0  0  0  0  0  0  0  0  0  0
   10.1922   -4.6407    0.0000 O   0  0  0  0  0  0  0  0  0  0  0  0
   11.2800    0.7071    0.0000 O   0  0  0  0  0  0  0  0  0  0  0  0
    3.6942   -4.3211    0.0000 O   0  0  0  0  0  0  0  0  0  0  0  0
    4.2294   -2.6738    0.0000 O   0  0  0  0  0  0  0  0  0  0  0  0
   11.2800   -2.2929    0.0000 C   0  0  3  0  0  0  0  0  0  0  0  0
   10.4710   -2.8807    0.0000 C   0  0  3  0  0  0  0  0  0  0  0  0
   12.0890   -2.8807    0.0000 C   0  0  3  0  0  0  0  0  0  0  0  0
   10.7800   -3.8317    0.0000 C   0  0  3  0  0  0  0  0  0  0  0  0
   11.7800   -3.8317    0.0000 C   0  0  0  0  0  0  0  0  0  0  0  0
   11.2800   -1.2929    0.0000 C   0  0  0  0  0  0  0  0  0  0  0  0
    9.5200   -2.5716    0.0000 C   0  0  0  0  0  0  0  0  0  0  0  0
   12.1460   -0.7929    0.0000 C   0  0  0  0  0  0  0  0  0  0  0  0
    8.7768   -3.2408    0.0000 C   0  0  0  0  0  0  0  0  0  0  0  0
   12.1460    0.2071    0.0000 C   0  0  0  0  0  0  0  0  0  0  0  0
    7.8258   -2.9318    0.0000 C   0  0  0  0  0  0  0  0  0  0  0  0
   13.0121    0.7071    0.0000 C   0  0  0  0  0  0  0  0  0  0  0  0
   13.0121    1.7071    0.0000 C   0  0  0  0  0  0  0  0  0  0  0  0
    7.0826   -3.6009    0.0000 C   0  0  0  0  0  0  0  0  0  0  0  0
   13.8781    2.2071    0.0000 C   0  0  0  0  0  0  0  0  0  0  0  0
    6.1316   -3.2919    0.0000 C   0  0  0  0  0  0  0  0  0  0  0  0
   13.8781    3.2071    0.0000 C   0  0  0  0  0  0  0  0  0  0  0  0
    5.3884   -3.9610    0.0000 C   0  0  0  0  0  0  0  0  0  0  0  0
   14.7441    3.7071    0.0000 C   0  0  0  0  0  0  0  0  0  0  0  0
   14.7441    4.7071    0.0000 C   0  0  0  0  0  0  0  0  0  0  0  0
    4.4374   -3.6520    0.0000 C   0  0  0  0  0  0  0  0  0  0  0  0
   15.6102    5.2071    0.0000 C   0  0  0  0  0  0  0  0  0  0  0  0
    2.7431   -4.0121    0.0000 C   0  0  0  0  0  0  0  0  0  0  0  0
    2.0000   -4.6812    0.0000 C   0  0  0  0  0  0  0  0  0  0  0  0
    2.5352   -3.0340    0.0000 C   0  0  0  0  0  0  0  0  0  0  0  0
   12.0374   -1.9070    0.0000 H   0  0  0  0  0  0  0  0  0  0  0  0
   10.3380   -2.0411    0.0000 H   0  0  0  0  0  0  0  0  0  0  0  0
   12.2220   -2.0411    0.0000 H   0  0  0  0  0  0  0  0  0  0  0  0
    9.9405   -3.6987    0.0000 H   0  0  0  0  0  0  0  0  0  0  0  0
   11.7152   -4.4483    0.0000 H   0  0  0  0  0  0  0  0  0  0  0  0
   12.3865   -3.9606    0.0000 H   0  0  0  0  0  0  0  0  0  0  0  0
   11.0680   -0.7103    0.0000 H   0  0  0  0  0  0  0  0  0  0  0  0
   10.6694   -1.4005    0.0000 H   0  0  0  0  0  0  0  0  0  0  0  0
    9.8110   -2.0242    0.0000 H   0  0  0  0  0  0  0  0  0  0  0  0
    9.0314   -2.1899    0.0000 H   0  0  0  0  0  0  0  0  0  0  0  0
   12.3581   -1.3755    0.0000 H   0  0  0  0  0  0  0  0  0  0  0  0
   12.7566   -0.6852    0.0000 H   0  0  0  0  0  0  0  0  0  0  0  0
   13.5008   -2.9865    0.0000 H   0  0  0  0  0  0  0  0  0  0  0  0
   10.4444   -5.2071    0.0000 H   0  0  0  0  0  0  0  0  0  0  0  0
    8.9057   -3.8472    0.0000 H   0  0  0  0  0  0  0  0  0  0  0  0
    7.6968   -2.3253    0.0000 H   0  0  0  0  0  0  0  0  0  0  0  0
   13.2241    0.1245    0.0000 H   0  0  0  0  0  0  0  0  0  0  0  0
   13.6227    0.8148    0.0000 H   0  0  0  0  0  0  0  0  0  0  0  0
   12.8000    2.2897    0.0000 H   0  0  0  0  0  0  0  0  0  0  0  0
   12.4015    1.5995    0.0000 H   0  0  0  0  0  0  0  0  0  0  0  0
    6.7915   -4.1483    0.0000 H   0  0  0  0  0  0  0  0  0  0  0  0
    7.5712   -3.9826    0.0000 H   0  0  0  0  0  0  0  0  0  0  0  0
   14.0902    1.6245    0.0000 H   0  0  0  0  0  0  0  0  0  0  0  0
   14.4887    2.3148    0.0000 H   0  0  0  0  0  0  0  0  0  0  0  0
    6.4226   -2.7444    0.0000 H   0  0  0  0  0  0  0  0  0  0  0  0
    5.6430   -2.9102    0.0000 H   0  0  0  0  0  0  0  0  0  0  0  0
   13.6660    3.7897    0.0000 H   0  0  0  0  0  0  0  0  0  0  0  0
   13.2675    3.0995    0.0000 H   0  0  0  0  0  0  0  0  0  0  0  0
   14.9562    3.1245    0.0000 H   0  0  0  0  0  0  0  0  0  0  0  0
   15.3547    3.8148    0.0000 H   0  0  0  0  0  0  0  0  0  0  0  0
    5.0973   -4.5084    0.0000 H   0  0  0  0  0  0  0  0  0  0  0  0
    5.8770   -4.3427    0.0000 H   0  0  0  0  0  0  0  0  0  0  0  0
   14.5321    5.2897    0.0000 H   0  0  0  0  0  0  0  0  0  0  0  0
   14.1335    4.5995    0.0000 H   0  0  0  0  0  0  0  0  0  0  0  0
   15.9202    4.6702    0.0000 H   0  0  0  0  0  0  0  0  0  0  0  0
   16.1471    5.5171    0.0000 H   0  0  0  0  0  0  0  0  0  0  0  0
   15.3001    5.7441    0.0000 H   0  0  0  0  0  0  0  0  0  0  0  0
    3.2039   -3.5972    0.0000 H   0  0  0  0  0  0  0  0  0  0  0  0
    1.5851   -4.2205    0.0000 H   0  0  0  0  0  0  0  0  0  0  0  0
    1.5392   -5.0961    0.0000 H   0  0  0  0  0  0  0  0  0  0  0  0
    2.4149   -5.1420    0.0000 H   0  0  0  0  0  0  0  0  0  0  0  0
    3.1417   -2.9050    0.0000 H   0  0  0  0  0  0  0  0  0  0  0  0
    2.4063   -2.4275    0.0000 H   0  0  0  0  0  0  0  0  0  0  0  0
    1.9288   -3.1628    0.0000 H   0  0  0  0  0  0  0  0  0  0  0  0
  1  8  1  0  0  0  0
  1 43  1  0  0  0  0
  2  9  1  0  0  0  0
  2 44  1  0  0  0  0
  3 15  2  0  0  0  0
  4 26  1  0  0  0  0
  4 28  1  0  0  0  0
  5 26  2  0  0  0  0
  6  7  1  0  0  0  0
  6  8  1  0  0  0  0
  6 11  1  0  0  0  0
  6 31  1  0  0  0  0
  7  9  1  0  0  0  0
  7 12  1  0  0  0  0
  7 32  1  0  0  0  0
  8 10  1  0  0  0  0
  8 33  1  0  0  0  0
  9 10  1  0  0  0  0
  9 34  1  0  0  0  0
 10 35  1  0  0  0  0
 10 36  1  0  0  0  0
 11 13  1  0  0  0  0
 11 37  1  0  0  0  0
 11 38  1  0  0  0  0
 12 14  1  0  0  0  0
 12 39  1  0  0  0  0
 12 40  1  0  0  0  0
 13 15  1  0  0  0  0
 13 41  1  0  0  0  0
 13 42  1  0  0  0  0
 14 16  2  3  0  0  0
 14 45  1  0  0  0  0
 15 17  1  0  0  0  0
 16 19  1  0  0  0  0
 16 46  1  0  0  0  0
 17 18  1  0  0  0  0
 17 47  1  0  0  0  0
 17 48  1  0  0  0  0
 18 20  1  0  0  0  0
 18 49  1  0  0  0  0
 18 50  1  0  0  0  0
 19 21  1  0  0  0  0
 19 51  1  0  0  0  0
 19 52  1  0  0  0  0
 20 22  1  0  0  0  0
 20 53  1  0  0  0  0
 20 54  1  0  0  0  0
 21 23  1  0  0  0  0
 21 55  1  0  0  0  0
 21 56  1  0  0  0  0
 22 24  1  0  0  0  0
 22 57  1  0  0  0  0
 22 58  1  0  0  0  0
 23 26  1  0  0  0  0
 23 61  1  0  0  0  0
 23 62  1  0  0  0  0
 24 25  1  0  0  0  0
 24 59  1  0  0  0  0
 24 60  1  0  0  0  0
 25 27  1  0  0  0  0
 25 63  1  0  0  0  0
 25 64  1  0  0  0  0
 27 65  1  0  0  0  0
 27 66  1  0  0  0  0
 27 67  1  0  0  0  0
 28 29  1  0  0  0  0
 28 30  1  0  0  0  0
 28 68  1  0  0  0  0
 29 69  1  0  0  0  0
 29 70  1  0  0  0  0
 29 71  1  0  0  0  0
 30 72  1  0  0  0  0
 30 73  1  0  0  0  0
 30 74  1  0  0  0  0
M  END
> <PUBCHEM_COMPOUND_CID>
3777

> <PUBCHEM_COMPOUND_CANONICALIZED>
1

> <PUBCHEM_CACTVS_COMPLEXITY>
514

> <PUBCHEM_CACTVS_HBOND_ACCEPTOR>
5

> <PUBCHEM_CACTVS_HBOND_DONOR>
2

> <PUBCHEM_CACTVS_ROTATABLE_BOND>
17

> <PUBCHEM_CACTVS_SUBSKEYS>
AAADcfB4OAAAAAAAAAAAAAAAAAAAAYAAAAAAAAAAAAAAAAAAAAAAGgAACAAADRSggAICCAAABgCIAKDSCAAAAAAgAAAICAEAAAgAEBIAAQACQAAFgAAIAAPIzODOgAAAAAAAAAAAAAAAAAAAAIQADAAAAA==

> <PUBCHEM_IUPAC_OPENEYE_NAME>
isopropyl 7-[3,5-dihydroxy-2-(3-oxodecyl)cyclopentyl]hept-5-enoate

> <PUBCHEM_IUPAC_CAS_NAME>
7-[3,5-dihydroxy-2-(3-oxodecyl)cyclopentyl]-5-heptenoic acid propan-2-yl ester

> <PUBCHEM_IUPAC_NAME>
propan-2-yl 7-[3,5-dihydroxy-2-(3-oxodecyl)cyclopentyl]hept-5-enoate

> <PUBCHEM_IUPAC_SYSTEMATIC_NAME>
propan-2-yl 7-[3,5-bis(oxidanyl)-2-(3-oxidanylidenedecyl)cyclopentyl]hept-5-enoate

> <PUBCHEM_IUPAC_TRADITIONAL_NAME>
7-[3,5-dihydroxy-2-(3-ketodecyl)cyclopentyl]hept-5-enoic acid isopropyl ester

> <PUBCHEM_IUPAC_INCHI>
InChI=1S/C25H44O5/c1-4-5-6-7-10-13-20(26)16-17-22-21(23(27)18-24(22)28)14-11-8-9-12-15-25(29)30-19(2)3/h8,11,19,21-24,27-28H,4-7,9-10,12-18H2,1-3H3

> <PUBCHEM_IUPAC_INCHIKEY>
XXUPXHKCPIKWLR-UHFFFAOYSA-N

> <PUBCHEM_XLOGP3_AA>
4.9

> <PUBCHEM_EXACT_MASS>
424.318875

> <PUBCHEM_MOLECULAR_FORMULA>
C25H44O5

> <PUBCHEM_MOLECULAR_WEIGHT>
424.61386

> <PUBCHEM_OPENEYE_CAN_SMILES>
CCCCCCCC(=O)CCC1C(CC(C1CC=CCCCC(=O)OC(C)C)O)O

> <PUBCHEM_OPENEYE_ISO_SMILES>
CCCCCCCC(=O)CCC1C(CC(C1CC=CCCCC(=O)OC(C)C)O)O

> <PUBCHEM_CACTVS_TPSA>
83.8

> <PUBCHEM_MONOISOTOPIC_WEIGHT>
424.318875

> <PUBCHEM_TOTAL_CHARGE>
0

> <PUBCHEM_HEAVY_ATOM_COUNT>
30

> <PUBCHEM_ATOM_DEF_STEREO_COUNT>
0

> <PUBCHEM_ATOM_UDEF_STEREO_COUNT>
4

> <PUBCHEM_BOND_DEF_STEREO_COUNT>
0

> <PUBCHEM_BOND_UDEF_STEREO_COUNT>
1

> <PUBCHEM_ISOTOPIC_ATOM_COUNT>
0

> <PUBCHEM_COMPONENT_COUNT>
1

> <PUBCHEM_CACTVS_TAUTO_COUNT>
3

> <PUBCHEM_COORDINATE_TYPE>
1
5
255

> <PUBCHEM_BONDANNOTATIONS>
14  16  1
6  31  3
7  32  3
8  33  3
9  34  3

$$$$

