11910
  -OEChem-06261206163D

 20 21  0     0  0  0  0  0  0999 V2000
   -0.9896   -1.4095    0.0001 N   0  0  0  0  0  0  0  0  0  0  0  0
   -0.0324   -0.4625    0.0000 C   0  0  0  0  0  0  0  0  0  0  0  0
   -0.3461    0.9128    0.0000 C   0  0  0  0  0  0  0  0  0  0  0  0
    1.3109   -0.8278    0.0001 C   0  0  0  0  0  0  0  0  0  0  0  0
    0.6785    1.8744    0.0000 C   0  0  0  0  0  0  0  0  0  0  0  0
    2.3299    0.1281    0.0001 C   0  0  0  0  0  0  0  0  0  0  0  0
   -1.6982    1.2811   -0.0001 C   0  0  0  0  0  0  0  0  0  0  0  0
    2.0137    1.4810    0.0000 C   0  0  0  0  0  0  0  0  0  0  0  0
    1.7025   -2.2729   -0.0002 C   0  0  0  0  0  0  0  0  0  0  0  0
   -2.6868    0.3075    0.0000 C   0  0  0  0  0  0  0  0  0  0  0  0
   -2.2826   -1.0121    0.0001 C   0  0  0  0  0  0  0  0  0  0  0  0
    0.4419    2.9361    0.0000 H   0  0  0  0  0  0  0  0  0  0  0  0
    3.3753   -0.1691    0.0001 H   0  0  0  0  0  0  0  0  0  0  0  0
   -1.9885    2.3292   -0.0002 H   0  0  0  0  0  0  0  0  0  0  0  0
    2.8025    2.2270   -0.0001 H   0  0  0  0  0  0  0  0  0  0  0  0
    2.7901   -2.4043    0.0011 H   0  0  0  0  0  0  0  0  0  0  0  0
    1.3120   -2.7738    0.8920 H   0  0  0  0  0  0  0  0  0  0  0  0
    1.3142   -2.7726   -0.8940 H   0  0  0  0  0  0  0  0  0  0  0  0
   -3.7369    0.5745   -0.0001 H   0  0  0  0  0  0  0  0  0  0  0  0
   -3.0107   -1.8166    0.0001 H   0  0  0  0  0  0  0  0  0  0  0  0
  1  2  1  0  0  0  0
  1 11  2  0  0  0  0
  2  3  1  0  0  0  0
  2  4  2  0  0  0  0
  3  5  2  0  0  0  0
  3  7  1  0  0  0  0
  4  6  1  0  0  0  0
  4  9  1  0  0  0  0
  5  8  1  0  0  0  0
  5 12  1  0  0  0  0
  6  8  2  0  0  0  0
  6 13  1  0  0  0  0
  7 10  2  0  0  0  0
  7 14  1  0  0  0  0
  8 15  1  0  0  0  0
  9 16  1  0  0  0  0
  9 17  1  0  0  0  0
  9 18  1  0  0  0  0
 10 11  1  0  0  0  0
 10 19  1  0  0  0  0
 11 20  1  0  0  0  0
M  END
> <PUBCHEM_COMPOUND_CID>
11910

> <PUBCHEM_CONFORMER_RMSD>
0.4

> <PUBCHEM_CONFORMER_DIVERSEORDER>
1

> <PUBCHEM_MMFF94_PARTIAL_CHARGES>
16
1 -0.62
10 -0.15
11 0.16
12 0.15
13 0.15
14 0.15
15 0.15
19 0.15
2 0.31
20 0.15
4 -0.14
5 -0.15
6 -0.15
7 -0.15
8 -0.15
9 0.14

> <PUBCHEM_EFFECTIVE_ROTOR_COUNT>
0

> <PUBCHEM_PHARMACOPHORE_FEATURES>
3
1 1 acceptor
6 1 2 3 7 10 11 rings
6 2 3 4 5 6 8 rings

> <PUBCHEM_HEAVY_ATOM_COUNT>
11

> <PUBCHEM_ATOM_DEF_STEREO_COUNT>
0

> <PUBCHEM_ATOM_UDEF_STEREO_COUNT>
0

> <PUBCHEM_BOND_DEF_STEREO_COUNT>
0

> <PUBCHEM_BOND_UDEF_STEREO_COUNT>
0

> <PUBCHEM_ISOTOPIC_ATOM_COUNT>
0

> <PUBCHEM_COMPONENT_COUNT>
1

> <PUBCHEM_CACTVS_TAUTO_COUNT>
1

> <PUBCHEM_CONFORMER_ID>
00002E8600000001

> <PUBCHEM_MMFF94_ENERGY>
32.4753

> <PUBCHEM_FEATURE_SELFOVERLAP>
15.254

> <PUBCHEM_SHAPE_FINGERPRINT>
12423570 1 9937131623838856468
12524768 44 18337670931196694655
12897270 3 18339080389118196581
13380535 76 18340493261491420882
16945 1 18410573968045571397
17990270 104 18411139164229991298
18185500 45 18410012151910638786
193761 8 18194682802879971236
19973954 147 18410571812087955417
20201158 50 18412268332670230151
21040471 1 17906452121769685760
21501502 16 18410575097780095885
2334 1 17762055441273311077
23402655 69 18336279998255143997
23463225 33 18342464742270528208
23552423 10 18413666907086581815
23559900 14 17037543731179787286
241688 4 17978790443343801776
2748010 2 18194686092513443420
5084963 1 17970339317752355232
528886 8 18266182738084410464
66348 1 18410291453618066966
7364860 26 18333733541735206466

> <PUBCHEM_SHAPE_MULTIPOLES>
221.39
3.47
2.18
0.61
0.96
0.32
0
0.21
0
-0.84
0
-0.01
-0.01
0

> <PUBCHEM_SHAPE_SELFOVERLAP>
485.629

> <PUBCHEM_SHAPE_VOLUME>
119.8

> <PUBCHEM_COORDINATE_TYPE>
2
5
10

$$$$

