235819
  -OEChem-07051213073D

 26 27  0     1  0  0  0  0  0999 V2000
    1.2304   -2.5442    0.8161 Cl  0  0  0  0  0  0  0  0  0  0  0  0
   -0.0700   -0.0249   -2.4548 O   0  0  0  0  0  0  0  0  0  0  0  0
   -0.1142   -0.5575   -1.1200 C   0  0  1  0  0  0  0  0  0  0  0  0
    1.1750   -0.1227   -0.4345 C   0  0  0  0  0  0  0  0  0  0  0  0
   -1.3507   -0.1571   -0.3881 C   0  0  0  0  0  0  0  0  0  0  0  0
    1.8240   -0.9670    0.4430 C   0  0  0  0  0  0  0  0  0  0  0  0
    1.6550    1.1386   -0.7295 C   0  0  0  0  0  0  0  0  0  0  0  0
   -1.3656    1.0159    0.3665 C   0  0  0  0  0  0  0  0  0  0  0  0
   -2.4920   -0.9558   -0.4580 C   0  0  0  0  0  0  0  0  0  0  0  0
    3.0020   -0.5336    1.0515 C   0  0  0  0  0  0  0  0  0  0  0  0
    2.8330    1.5721   -0.1209 C   0  0  0  0  0  0  0  0  0  0  0  0
   -2.5218    1.3903    1.0513 C   0  0  0  0  0  0  0  0  0  0  0  0
   -3.6483   -0.5816    0.2266 C   0  0  0  0  0  0  0  0  0  0  0  0
    3.5064    0.7360    0.7696 C   0  0  0  0  0  0  0  0  0  0  0  0
   -3.6631    0.5914    0.9812 C   0  0  0  0  0  0  0  0  0  0  0  0
   -0.1072   -1.6420   -1.2698 H   0  0  0  0  0  0  0  0  0  0  0  0
    1.1496    1.8145   -1.4130 H   0  0  0  0  0  0  0  0  0  0  0  0
   -0.5193    1.6858    0.4494 H   0  0  0  0  0  0  0  0  0  0  0  0
   -2.4945   -1.8712   -1.0438 H   0  0  0  0  0  0  0  0  0  0  0  0
    3.5387   -1.1729    1.7479 H   0  0  0  0  0  0  0  0  0  0  0  0
    3.2250    2.5613   -0.3388 H   0  0  0  0  0  0  0  0  0  0  0  0
   -2.5355    2.3053    1.6364 H   0  0  0  0  0  0  0  0  0  0  0  0
   -4.5372   -1.2031    0.1716 H   0  0  0  0  0  0  0  0  0  0  0  0
   -0.9824    0.1110   -2.7620 H   0  0  0  0  0  0  0  0  0  0  0  0
    4.4232    1.0739    1.2439 H   0  0  0  0  0  0  0  0  0  0  0  0
   -4.5637    0.8833    1.5135 H   0  0  0  0  0  0  0  0  0  0  0  0
  1  6  1  0  0  0  0
  2  3  1  0  0  0  0
  2 24  1  0  0  0  0
  3  4  1  0  0  0  0
  3  5  1  0  0  0  0
  3 16  1  0  0  0  0
  4  6  1  0  0  0  0
  4  7  2  0  0  0  0
  5  8  2  0  0  0  0
  5  9  1  0  0  0  0
  6 10  2  0  0  0  0
  7 11  1  0  0  0  0
  7 17  1  0  0  0  0
  8 12  1  0  0  0  0
  8 18  1  0  0  0  0
  9 13  2  0  0  0  0
  9 19  1  0  0  0  0
 10 14  1  0  0  0  0
 10 20  1  0  0  0  0
 11 14  2  0  0  0  0
 11 21  1  0  0  0  0
 12 15  2  0  0  0  0
 12 22  1  0  0  0  0
 13 15  1  0  0  0  0
 13 23  1  0  0  0  0
 14 25  1  0  0  0  0
 15 26  1  0  0  0  0
M  END
> <PUBCHEM_COMPOUND_CID>
235819

> <PUBCHEM_CONFORMER_RMSD>
0.6

> <PUBCHEM_CONFORMER_DIVERSEORDER>
3
4
2
5
6
1
7

> <PUBCHEM_MMFF94_PARTIAL_CHARGES>
25
1 -0.18
10 -0.15
11 -0.15
12 -0.15
13 -0.15
14 -0.15
15 -0.15
17 0.15
18 0.15
19 0.15
2 -0.68
20 0.15
21 0.15
22 0.15
23 0.15
24 0.4
25 0.15
26 0.15
3 0.57
4 -0.14
5 -0.14
6 0.18
7 -0.15
8 -0.15
9 -0.15

> <PUBCHEM_EFFECTIVE_ROTOR_COUNT>
2

> <PUBCHEM_PHARMACOPHORE_FEATURES>
4
1 2 acceptor
1 2 donor
6 4 6 7 10 11 14 rings
6 5 8 9 12 13 15 rings

> <PUBCHEM_HEAVY_ATOM_COUNT>
15

> <PUBCHEM_ATOM_DEF_STEREO_COUNT>
0

> <PUBCHEM_ATOM_UDEF_STEREO_COUNT>
1

> <PUBCHEM_BOND_DEF_STEREO_COUNT>
0

> <PUBCHEM_BOND_UDEF_STEREO_COUNT>
0

> <PUBCHEM_ISOTOPIC_ATOM_COUNT>
0

> <PUBCHEM_COMPONENT_COUNT>
1

> <PUBCHEM_CACTVS_TAUTO_COUNT>
1

> <PUBCHEM_CONFORMER_ID>
0003992B00000003

> <PUBCHEM_MMFF94_ENERGY>
46.5383

> <PUBCHEM_FEATURE_SELFOVERLAP>
20.297

> <PUBCHEM_SHAPE_FINGERPRINT>
10498660 4 16443343204442532881
11031198 65 15068334644348845381
11132069 177 17603863390969731209
11471102 22 17561091297616638832
12138202 97 14418428632929406860
12202030 40 16342585139757057138
12251169 10 18410011069716056353
12363563 72 15339116836283054779
13296908 3 15052014541681254781
13538477 17 18115601339305564246
13693222 15 17775573030509306128
13764800 53 17095513007398186553
14787075 74 17400644822604254583
15207287 21 16486983881352073658
15309172 13 18131077000269211810
15501101 241 17846216682922416366
15775835 57 18040997323708928480
16945 1 18202563994573956582
200 152 18338815433013058927
201361 129 18408601491672555498
20233049 118 17095526222923022256
20279233 1 15985107396754767937
20361792 2 15697993046348514655
20559304 39 18408880767452047520
20671657 53 10015588311226002090
21061003 4 17985562275651803546
21730867 7 18060136539798619610
22445834 79 18340488975251255147
23419403 2 14645289058807210718
23493267 7 17749377178936375819
23559900 14 17677881525903768199
2748010 2 17699313232375175854
549884 4 6338955542312534339
7097593 13 18193839477271615427
7364860 26 18115018744319670798
77492 1 18261402108892715556
81228 2 15143532306146179943

> <PUBCHEM_SHAPE_MULTIPOLES>
304.69
6.11
1.8
1.39
1.98
0.71
-0.62
-1.14
2.35
-0.81
0.44
0.06
-0.03
-0.79

> <PUBCHEM_SHAPE_SELFOVERLAP>
648.71

> <PUBCHEM_SHAPE_VOLUME>
170.3

> <PUBCHEM_COORDINATE_TYPE>
2
5
10

$$$$

