442950
  -OEChem-07051213003D

 40 43  0     1  0  0  0  0  0999 V2000
   -3.4746    2.0344    0.7805 O   0  0  0  0  0  0  0  0  0  0  0  0
    1.9970   -0.5468    0.7045 N   0  0  1  0  0  0  0  0  0  0  0  0
   -1.8486    0.5104    0.1161 N   0  0  0  0  0  0  0  0  0  0  0  0
    0.5783    1.2372   -0.5889 C   0  0  1  0  0  0  0  0  0  0  0  0
    1.9238    0.8461    0.1694 C   0  0  2  0  0  0  0  0  0  0  0  0
   -0.0740   -1.0238   -0.4809 C   0  0  1  0  0  0  0  0  0  0  0  0
    0.2534    0.0737   -1.5014 C   0  0  0  0  0  0  0  0  0  0  0  0
    1.2802   -1.6176   -0.0470 C   0  0  0  0  0  0  0  0  0  0  0  0
   -0.7006    1.4883    0.3070 C   0  0  0  0  0  0  0  0  0  0  0  0
    3.1264    1.1512   -0.7599 C   0  0  0  0  0  0  0  0  0  0  0  0
   -1.5354   -0.8313   -0.2156 C   0  0  0  0  0  0  0  0  0  0  0  0
    3.2900   -0.9478    1.2415 C   0  0  0  0  0  0  0  0  0  0  0  0
    4.4650    0.7717   -0.1386 C   0  0  0  0  0  0  0  0  0  0  0  0
    4.4483   -0.6887    0.2870 C   0  0  0  0  0  0  0  0  0  0  0  0
   -2.4537   -1.8033   -0.2360 C   0  0  0  0  0  0  0  0  0  0  0  0
   -3.1617    0.9244    0.3471 C   0  0  0  0  0  0  0  0  0  0  0  0
   -3.8776   -1.5217    0.1092 C   0  0  0  0  0  0  0  0  0  0  0  0
   -4.2362   -0.0562   -0.0941 C   0  0  0  0  0  0  0  0  0  0  0  0
    0.7569    2.1450   -1.1782 H   0  0  0  0  0  0  0  0  0  0  0  0
    2.0059    1.5211    1.0319 H   0  0  0  0  0  0  0  0  0  0  0  0
   -0.2441   -1.8631   -1.1897 H   0  0  0  0  0  0  0  0  0  0  0  0
    1.0836   -0.1962   -2.1633 H   0  0  0  0  0  0  0  0  0  0  0  0
   -0.5798    0.3176   -2.1758 H   0  0  0  0  0  0  0  0  0  0  0  0
    1.1081   -2.4762    0.6117 H   0  0  0  0  0  0  0  0  0  0  0  0
    1.8841   -1.9469   -0.9020 H   0  0  0  0  0  0  0  0  0  0  0  0
   -0.4385    1.4607    1.3712 H   0  0  0  0  0  0  0  0  0  0  0  0
   -1.0848    2.4942    0.1007 H   0  0  0  0  0  0  0  0  0  0  0  0
    3.1401    2.2212   -1.0011 H   0  0  0  0  0  0  0  0  0  0  0  0
    3.0279    0.6170   -1.7116 H   0  0  0  0  0  0  0  0  0  0  0  0
    3.2809   -2.0036    1.5381 H   0  0  0  0  0  0  0  0  0  0  0  0
    3.4637   -0.3862    2.1685 H   0  0  0  0  0  0  0  0  0  0  0  0
    4.6660    1.4121    0.7289 H   0  0  0  0  0  0  0  0  0  0  0  0
    5.2726    0.9418   -0.8592 H   0  0  0  0  0  0  0  0  0  0  0  0
    4.3623   -1.3346   -0.5954 H   0  0  0  0  0  0  0  0  0  0  0  0
    5.3953   -0.9399    0.7780 H   0  0  0  0  0  0  0  0  0  0  0  0
   -2.1761   -2.8305   -0.4510 H   0  0  0  0  0  0  0  0  0  0  0  0
   -4.5367   -2.1405   -0.5100 H   0  0  0  0  0  0  0  0  0  0  0  0
   -4.0483   -1.8124    1.1525 H   0  0  0  0  0  0  0  0  0  0  0  0
   -5.1631    0.1707    0.4447 H   0  0  0  0  0  0  0  0  0  0  0  0
   -4.4208    0.1359   -1.1588 H   0  0  0  0  0  0  0  0  0  0  0  0
  1 16  2  0  0  0  0
  2  5  1  0  0  0  0
  2  8  1  0  0  0  0
  2 12  1  0  0  0  0
  3  9  1  0  0  0  0
  3 11  1  0  0  0  0
  3 16  1  0  0  0  0
  4  5  1  0  0  0  0
  4  7  1  0  0  0  0
  4  9  1  0  0  0  0
  4 19  1  0  0  0  0
  5 10  1  0  0  0  0
  5 20  1  0  0  0  0
  6  7  1  0  0  0  0
  6  8  1  0  0  0  0
  6 11  1  0  0  0  0
  6 21  1  0  0  0  0
  7 22  1  0  0  0  0
  7 23  1  0  0  0  0
  8 24  1  0  0  0  0
  8 25  1  0  0  0  0
  9 26  1  0  0  0  0
  9 27  1  0  0  0  0
 10 13  1  0  0  0  0
 10 28  1  0  0  0  0
 10 29  1  0  0  0  0
 11 15  2  0  0  0  0
 12 14  1  0  0  0  0
 12 30  1  0  0  0  0
 12 31  1  0  0  0  0
 13 14  1  0  0  0  0
 13 32  1  0  0  0  0
 13 33  1  0  0  0  0
 14 34  1  0  0  0  0
 14 35  1  0  0  0  0
 15 17  1  0  0  0  0
 15 36  1  0  0  0  0
 16 18  1  0  0  0  0
 17 18  1  0  0  0  0
 17 37  1  0  0  0  0
 17 38  1  0  0  0  0
 18 39  1  0  0  0  0
 18 40  1  0  0  0  0
M  END
> <PUBCHEM_COMPOUND_CID>
442950

> <PUBCHEM_CONFORMER_RMSD>
0.6

> <PUBCHEM_CONFORMER_DIVERSEORDER>
1

> <PUBCHEM_MMFF94_PARTIAL_CHARGES>
14
1 -0.57
11 -0.03
12 0.27
15 -0.29
16 0.57
17 0.14
18 0.06
2 -0.81
3 -0.47
36 0.15
5 0.27
6 0.14
8 0.27
9 0.3

> <PUBCHEM_EFFECTIVE_ROTOR_COUNT>
1.8

> <PUBCHEM_PHARMACOPHORE_FEATURES>
6
1 1 acceptor
1 2 cation
6 2 4 5 6 7 8 rings
6 2 5 10 12 13 14 rings
6 3 11 15 16 17 18 rings
6 3 4 6 7 9 11 rings

> <PUBCHEM_HEAVY_ATOM_COUNT>
18

> <PUBCHEM_ATOM_DEF_STEREO_COUNT>
3

> <PUBCHEM_ATOM_UDEF_STEREO_COUNT>
0

> <PUBCHEM_BOND_DEF_STEREO_COUNT>
0

> <PUBCHEM_BOND_UDEF_STEREO_COUNT>
0

> <PUBCHEM_ISOTOPIC_ATOM_COUNT>
0

> <PUBCHEM_COMPONENT_COUNT>
1

> <PUBCHEM_CACTVS_TAUTO_COUNT>
1

> <PUBCHEM_CONFORMER_ID>
0006C24600000001

> <PUBCHEM_MMFF94_ENERGY>
80.7928

> <PUBCHEM_FEATURE_SELFOVERLAP>
31.295

> <PUBCHEM_SHAPE_FINGERPRINT>
10062212 137 18410859836921668383
10366900 7 18040439862998102355
10616163 171 18410572851301820642
10646746 165 18186801378919927736
11132069 177 18410862074689021074
12011746 2 18334581256457209173
12107183 9 17908427205240300144
12119455 92 16371011823107883476
12236239 1 18272369754464691726
12251169 10 18411703205136656859
12382932 28 18335137635126459265
12403814 3 17917433150712990277
12670546 56 18409735027778191872
13132413 78 18410292497464243437
13221675 6 18411420600810303222
13583140 156 16371021680227009654
13675066 3 17894917330171866890
13760787 19 18342736308219571230
15196674 1 18411136935421409562
15219456 202 17676758868254200319
15375462 189 18060425741621962602
15375462 478 18335143072349373247
15536298 74 18335698368982497750
16945 1 18268715089440935580
17349148 13 18334866000109747607
17804303 29 18261392217551488225
1813 80 17489300949524248094
19422 9 18342457024013817590
200 152 18336557019139745919
20281475 54 18272378585244785802
20510252 161 18040990739634826985
21267235 1 18412255121256154979
21501502 16 18413388734929113703
22445834 79 18343588442584565482
23402539 116 18187373108371779007
23463225 33 18342177760792264188
23557571 272 17385998443497286799
23559900 14 18043242651286778966
2748010 2 17475798031453112613
296302 2 15913327966210474838
474 4 17630601207529020348
5104073 3 18411138034716799416
53655031 270 18411419496882447334
6034566 193 15835893580336125308
7097593 13 18055083308996257338
77492 1 18272930501157944988
83771 10 17703798037072327254

> <PUBCHEM_SHAPE_MULTIPOLES>
354.6
8.27
1.87
0.96
1.06
0.04
-0.09
-0.22
1.29
-0.86
0.15
0.33
0.03
-0.91

> <PUBCHEM_SHAPE_SELFOVERLAP>
755.685

> <PUBCHEM_SHAPE_VOLUME>
192.9

> <PUBCHEM_COORDINATE_TYPE>
2
5
10

$$$$

