4095
  -OEChem-06251223523D

 50 51  0     1  0  0  0  0  0999 V2000
   -0.6461    0.7684   -2.4420 O   0  0  0  0  0  0  0  0  0  0  0  0
    2.7800    0.5835    0.5632 N   0  0  0  0  0  0  0  0  0  0  0  0
   -0.3242    0.3056   -0.0451 C   0  0  0  0  0  0  0  0  0  0  0  0
    0.4024    1.1113    1.0980 C   0  0  0  0  0  0  0  0  0  0  0  0
    1.8198    1.6634    0.7976 C   0  0  1  0  0  0  0  0  0  0  0  0
   -1.7767   -0.1133    0.3500 C   0  0  0  0  0  0  0  0  0  0  0  0
    0.5293   -0.9616   -0.3341 C   0  0  0  0  0  0  0  0  0  0  0  0
   -0.5306    1.2304   -1.3034 C   0  0  0  0  0  0  0  0  0  0  0  0
    2.3222    2.5073    1.9726 C   0  0  0  0  0  0  0  0  0  0  0  0
   -0.7159    2.7298   -1.0694 C   0  0  0  0  0  0  0  0  0  0  0  0
   -2.4936   -0.8250   -0.5619 C   0  0  0  0  0  0  0  0  0  0  0  0
    0.2146   -2.1053    0.3400 C   0  0  0  0  0  0  0  0  0  0  0  0
   -2.2250    0.2627    1.5786 C   0  0  0  0  0  0  0  0  0  0  0  0
    1.5401   -0.8514   -1.2436 C   0  0  0  0  0  0  0  0  0  0  0  0
    2.9024   -0.2568    1.7532 C   0  0  0  0  0  0  0  0  0  0  0  0
    4.0820    1.1317    0.1870 C   0  0  0  0  0  0  0  0  0  0  0  0
   -1.5765    3.3841   -2.1381 C   0  0  0  0  0  0  0  0  0  0  0  0
   -3.7905   -1.1986   -0.2094 C   0  0  0  0  0  0  0  0  0  0  0  0
    0.9806   -3.2420    0.0811 C   0  0  0  0  0  0  0  0  0  0  0  0
   -3.5218   -0.1109    1.9311 C   0  0  0  0  0  0  0  0  0  0  0  0
    2.3059   -1.9881   -1.5026 C   0  0  0  0  0  0  0  0  0  0  0  0
   -4.3045   -0.8416    1.0372 C   0  0  0  0  0  0  0  0  0  0  0  0
    2.0262   -3.1834   -0.8402 C   0  0  0  0  0  0  0  0  0  0  0  0
    0.4240    0.5152    2.0182 H   0  0  0  0  0  0  0  0  0  0  0  0
   -0.1935    1.9889    1.3765 H   0  0  0  0  0  0  0  0  0  0  0  0
    1.7881    2.2976   -0.0898 H   0  0  0  0  0  0  0  0  0  0  0  0
    2.3056    1.9859    2.9346 H   0  0  0  0  0  0  0  0  0  0  0  0
    3.3095    2.9502    1.8198 H   0  0  0  0  0  0  0  0  0  0  0  0
    1.6460    3.3637    2.0974 H   0  0  0  0  0  0  0  0  0  0  0  0
   -1.2328    2.8935   -0.1213 H   0  0  0  0  0  0  0  0  0  0  0  0
    0.2542    3.2267   -1.0496 H   0  0  0  0  0  0  0  0  0  0  0  0
   -2.1101   -1.1219   -1.5313 H   0  0  0  0  0  0  0  0  0  0  0  0
   -0.5586   -2.1837    1.0948 H   0  0  0  0  0  0  0  0  0  0  0  0
   -1.6735    0.8250    2.3180 H   0  0  0  0  0  0  0  0  0  0  0  0
    1.7648    0.0568   -1.7925 H   0  0  0  0  0  0  0  0  0  0  0  0
    1.9761   -0.7058    2.1128 H   0  0  0  0  0  0  0  0  0  0  0  0
    3.3993    0.2334    2.5974 H   0  0  0  0  0  0  0  0  0  0  0  0
    3.5395   -1.1152    1.5013 H   0  0  0  0  0  0  0  0  0  0  0  0
    4.6418    1.5817    1.0131 H   0  0  0  0  0  0  0  0  0  0  0  0
    3.9910    1.8644   -0.6230 H   0  0  0  0  0  0  0  0  0  0  0  0
    4.7080    0.3225   -0.2083 H   0  0  0  0  0  0  0  0  0  0  0  0
   -1.1009    3.3165   -3.1222 H   0  0  0  0  0  0  0  0  0  0  0  0
   -1.7328    4.4426   -1.9082 H   0  0  0  0  0  0  0  0  0  0  0  0
   -2.5554    2.8978   -2.2051 H   0  0  0  0  0  0  0  0  0  0  0  0
   -4.3992   -1.7697   -0.9043 H   0  0  0  0  0  0  0  0  0  0  0  0
    0.7699   -4.1702    0.6043 H   0  0  0  0  0  0  0  0  0  0  0  0
   -3.9230    0.1659    2.9018 H   0  0  0  0  0  0  0  0  0  0  0  0
    3.1174   -1.9437   -2.2230 H   0  0  0  0  0  0  0  0  0  0  0  0
   -5.3139   -1.1332    1.3120 H   0  0  0  0  0  0  0  0  0  0  0  0
    2.6236   -4.0679   -1.0406 H   0  0  0  0  0  0  0  0  0  0  0  0
  1  8  2  0  0  0  0
  2  5  1  0  0  0  0
  2 15  1  0  0  0  0
  2 16  1  0  0  0  0
  3  4  1  0  0  0  0
  3  6  1  0  0  0  0
  3  7  1  0  0  0  0
  3  8  1  0  0  0  0
  4  5  1  0  0  0  0
  4 24  1  0  0  0  0
  4 25  1  0  0  0  0
  5  9  1  0  0  0  0
  5 26  1  0  0  0  0
  6 11  2  0  0  0  0
  6 13  1  0  0  0  0
  7 12  2  0  0  0  0
  7 14  1  0  0  0  0
  8 10  1  0  0  0  0
  9 27  1  0  0  0  0
  9 28  1  0  0  0  0
  9 29  1  0  0  0  0
 10 17  1  0  0  0  0
 10 30  1  0  0  0  0
 10 31  1  0  0  0  0
 11 18  1  0  0  0  0
 11 32  1  0  0  0  0
 12 19  1  0  0  0  0
 12 33  1  0  0  0  0
 13 20  2  0  0  0  0
 13 34  1  0  0  0  0
 14 21  2  0  0  0  0
 14 35  1  0  0  0  0
 15 36  1  0  0  0  0
 15 37  1  0  0  0  0
 15 38  1  0  0  0  0
 16 39  1  0  0  0  0
 16 40  1  0  0  0  0
 16 41  1  0  0  0  0
 17 42  1  0  0  0  0
 17 43  1  0  0  0  0
 17 44  1  0  0  0  0
 18 22  2  0  0  0  0
 18 45  1  0  0  0  0
 19 23  2  0  0  0  0
 19 46  1  0  0  0  0
 20 22  1  0  0  0  0
 20 47  1  0  0  0  0
 21 23  1  0  0  0  0
 21 48  1  0  0  0  0
 22 49  1  0  0  0  0
 23 50  1  0  0  0  0
M  END
> <PUBCHEM_COMPOUND_CID>
4095

> <PUBCHEM_CONFORMER_RMSD>
0.8

> <PUBCHEM_CONFORMER_DIVERSEORDER>
1
28
15
18
2
27
34
26
23
39
21
33
6
20
7
38
22
13
25
30
37
5
35
12
31
17
4
24
36
40
14
32
19
29
8
11
16
9
10
3

> <PUBCHEM_MMFF94_PARTIAL_CHARGES>
30
1 -0.57
10 0.06
11 -0.15
12 -0.15
13 -0.15
14 -0.15
15 0.27
16 0.27
18 -0.15
19 -0.15
2 -0.81
20 -0.15
21 -0.15
22 -0.15
23 -0.15
3 0.35
32 0.15
33 0.15
34 0.15
35 0.15
45 0.15
46 0.15
47 0.15
48 0.15
49 0.15
5 0.27
50 0.15
6 -0.14
7 -0.14
8 0.45

> <PUBCHEM_EFFECTIVE_ROTOR_COUNT>
7

> <PUBCHEM_PHARMACOPHORE_FEATURES>
5
1 1 acceptor
1 17 hydrophobe
1 2 cation
6 6 11 13 18 20 22 rings
6 7 12 14 19 21 23 rings

> <PUBCHEM_HEAVY_ATOM_COUNT>
23

> <PUBCHEM_ATOM_DEF_STEREO_COUNT>
0

> <PUBCHEM_ATOM_UDEF_STEREO_COUNT>
1

> <PUBCHEM_BOND_DEF_STEREO_COUNT>
0

> <PUBCHEM_BOND_UDEF_STEREO_COUNT>
0

> <PUBCHEM_ISOTOPIC_ATOM_COUNT>
0

> <PUBCHEM_COMPONENT_COUNT>
1

> <PUBCHEM_CACTVS_TAUTO_COUNT>
2

> <PUBCHEM_CONFORMER_ID>
00000FFF00000001

> <PUBCHEM_MMFF94_ENERGY>
99.5007

> <PUBCHEM_FEATURE_SELFOVERLAP>
25.371

> <PUBCHEM_SHAPE_FINGERPRINT>
10165383 225 18262507079909676144
10863032 1 16370993101282272903
11578080 2 18195233632177577957
12633257 1 18335989683676640546
12714826 92 17836343210070480535
13140716 1 18117283545168023498
13149001 5 17692266547745521404
13583140 156 18040429976341998769
13681431 1 17701797943943923957
14142880 1 17111876781088228952
14178342 30 18265881468226249787
14223421 5 18339082716948246923
14787075 74 17100886118886363151
14817 1 5615808948037252756
15209289 33 17968374546635057650
15309172 13 18263654973953313912
16945 1 17822571603556986411
1813 80 18130207307946413025
18981168 100 18043543917171680200
20600515 1 17132106914570530645
20691752 17 18341600529956987443
20739085 24 18269546152992073393
21330990 113 18409720738675205700
22182313 1 18191314981810882686
229495 10 18188219809080904157
23419403 2 18192995047951401468
23557571 272 17775010128090558573
23559900 14 18057316395452440910
238 59 17975455478664108820
2748010 2 18119539983467117278
3250762 1 18125732432717388013
4340502 62 18189893124688484883
465052 167 18130227042952016602
474 4 18041274357615576203
5845 1 10120960751272289813
633830 44 17459465555064201321
6992083 37 17837221376205427097
7364860 26 17968083248736318739
81228 2 17702380848352423077
9981440 41 17615182905890546944
9999458 23 17896025564377412329

> <PUBCHEM_SHAPE_MULTIPOLES>
462.48
5.78
3.56
2.09
2.5
0.05
-0.25
0.75
2.47
-1.63
-1.42
0.28
-1.25
1.98

> <PUBCHEM_SHAPE_SELFOVERLAP>
976.651

> <PUBCHEM_SHAPE_VOLUME>
259

> <PUBCHEM_COORDINATE_TYPE>
2
5
10

$$$$

