441579
  -OEChem-07051212553D

 48 48  0     1  0  0  0  0  0999 V2000
    4.6962   -0.2343    1.8580 O   0  0  0  0  0  0  0  0  0  0  0  0
    5.6641    1.5559   -0.0354 O   0  0  0  0  0  0  0  0  0  0  0  0
   -1.9195   -2.1846    0.0772 N   0  0  0  0  0  0  0  0  0  0  0  0
   -5.5895    1.5852    0.0887 N   0  0  0  0  0  0  0  0  0  0  0  0
   -2.2008   -4.4907   -0.6312 N   0  0  0  0  0  0  0  0  0  0  0  0
   -6.8407    3.6522    0.3360 N   0  0  0  0  0  0  0  0  0  0  0  0
   -1.9004   -0.8316   -0.4938 C   0  0  2  0  0  0  0  0  0  0  0  0
   -0.5278   -0.1910   -0.2254 C   0  0  0  0  0  0  0  0  0  0  0  0
   -3.0218    0.0010    0.1459 C   0  0  0  0  0  0  0  0  0  0  0  0
    0.6589   -0.9703   -0.8115 C   0  0  0  0  0  0  0  0  0  0  0  0
   -4.4358   -0.5694   -0.0405 C   0  0  0  0  0  0  0  0  0  0  0  0
    1.9928   -0.2988   -0.6014 C   0  0  0  0  0  0  0  0  0  0  0  0
   -5.5471    0.2280    0.6339 C   0  0  0  0  0  0  0  0  0  0  0  0
    2.7408   -0.5761    0.5427 C   0  0  0  0  0  0  0  0  0  0  0  0
    2.4785    0.5996   -1.5516 C   0  0  0  0  0  0  0  0  0  0  0  0
    3.9748    0.0447    0.7368 C   0  0  0  0  0  0  0  0  0  0  0  0
    3.7122    1.2206   -1.3574 C   0  0  0  0  0  0  0  0  0  0  0  0
    4.4605    0.9432   -0.2133 C   0  0  0  0  0  0  0  0  0  0  0  0
   -2.1166   -3.1320   -0.7647 C   0  0  0  0  0  0  0  0  0  0  0  0
   -6.4954    2.3518    0.5816 C   0  0  0  0  0  0  0  0  0  0  0  0
    4.1289   -1.1637    2.7792 C   0  0  0  0  0  0  0  0  0  0  0  0
    6.0878    2.4603   -1.0536 C   0  0  0  0  0  0  0  0  0  0  0  0
   -2.0630   -0.8342   -1.5801 H   0  0  0  0  0  0  0  0  0  0  0  0
   -0.5257    0.8290   -0.6318 H   0  0  0  0  0  0  0  0  0  0  0  0
   -0.3782   -0.0892    0.8581 H   0  0  0  0  0  0  0  0  0  0  0  0
   -2.9845    1.0167   -0.2667 H   0  0  0  0  0  0  0  0  0  0  0  0
   -2.8314    0.0949    1.2234 H   0  0  0  0  0  0  0  0  0  0  0  0
    0.7008   -1.9781   -0.3796 H   0  0  0  0  0  0  0  0  0  0  0  0
    0.5001   -1.1212   -1.8874 H   0  0  0  0  0  0  0  0  0  0  0  0
   -4.4742   -1.5917    0.3533 H   0  0  0  0  0  0  0  0  0  0  0  0
   -4.6449   -0.6376   -1.1156 H   0  0  0  0  0  0  0  0  0  0  0  0
   -5.3684    0.2585    1.7157 H   0  0  0  0  0  0  0  0  0  0  0  0
   -6.5042   -0.2784    0.4594 H   0  0  0  0  0  0  0  0  0  0  0  0
    2.3106   -1.2804    1.2469 H   0  0  0  0  0  0  0  0  0  0  0  0
    1.9029    0.8243   -2.4458 H   0  0  0  0  0  0  0  0  0  0  0  0
    4.0257    1.9069   -2.1365 H   0  0  0  0  0  0  0  0  0  0  0  0
   -2.2556   -2.8859   -1.8327 H   0  0  0  0  0  0  0  0  0  0  0  0
   -2.1011   -4.9355    0.2749 H   0  0  0  0  0  0  0  0  0  0  0  0
   -2.3656   -5.0951   -1.4293 H   0  0  0  0  0  0  0  0  0  0  0  0
   -7.1642    1.9467    1.3630 H   0  0  0  0  0  0  0  0  0  0  0  0
    4.8359   -1.2666    3.6091 H   0  0  0  0  0  0  0  0  0  0  0  0
    4.0169   -2.1577    2.3329 H   0  0  0  0  0  0  0  0  0  0  0  0
    3.1920   -0.7889    3.2056 H   0  0  0  0  0  0  0  0  0  0  0  0
    7.0630    2.8545   -0.7491 H   0  0  0  0  0  0  0  0  0  0  0  0
    5.4113    3.3175   -1.1392 H   0  0  0  0  0  0  0  0  0  0  0  0
    6.2366    1.9493   -2.0110 H   0  0  0  0  0  0  0  0  0  0  0  0
   -7.6009    4.1040    0.8332 H   0  0  0  0  0  0  0  0  0  0  0  0
   -6.3430    4.2057   -0.3531 H   0  0  0  0  0  0  0  0  0  0  0  0
  1 16  1  0  0  0  0
  1 21  1  0  0  0  0
  2 18  1  0  0  0  0
  2 22  1  0  0  0  0
  3  7  1  0  0  0  0
  3 19  2  0  0  0  0
  4 13  1  0  0  0  0
  4 20  2  0  0  0  0
  5 19  1  0  0  0  0
  5 38  1  0  0  0  0
  5 39  1  0  0  0  0
  6 20  1  0  0  0  0
  6 47  1  0  0  0  0
  6 48  1  0  0  0  0
  7  8  1  0  0  0  0
  7  9  1  0  0  0  0
  7 23  1  0  0  0  0
  8 10  1  0  0  0  0
  8 24  1  0  0  0  0
  8 25  1  0  0  0  0
  9 11  1  0  0  0  0
  9 26  1  0  0  0  0
  9 27  1  0  0  0  0
 10 12  1  0  0  0  0
 10 28  1  0  0  0  0
 10 29  1  0  0  0  0
 11 13  1  0  0  0  0
 11 30  1  0  0  0  0
 11 31  1  0  0  0  0
 12 14  2  0  0  0  0
 12 15  1  0  0  0  0
 13 32  1  0  0  0  0
 13 33  1  0  0  0  0
 14 16  1  0  0  0  0
 14 34  1  0  0  0  0
 15 17  2  0  0  0  0
 15 35  1  0  0  0  0
 16 18  2  0  0  0  0
 17 18  1  0  0  0  0
 17 36  1  0  0  0  0
 19 37  1  0  0  0  0
 20 40  1  0  0  0  0
 21 41  1  0  0  0  0
 21 42  1  0  0  0  0
 21 43  1  0  0  0  0
 22 44  1  0  0  0  0
 22 45  1  0  0  0  0
 22 46  1  0  0  0  0
M  END
> <PUBCHEM_COMPOUND_CID>
441579

> <PUBCHEM_CONFORMER_RMSD>
1

> <PUBCHEM_CONFORMER_DIVERSEORDER>
1
220
271
118
249
100
66
14
229
141
56
154
187
273
169
23
222
84
209
136
127
87
58
27
230
99
115
225
145
38
73
11
202
266
113
104
237
52
85
105
71
77
37
197
217
135
166
120
70
16
30
223
218
258
76
109
41
69
51
10
117
155
235
172
60
151
212
86
211
268
93
98
24
128
74
215
20
122
39
214
255
7
53
216
164
163
181
88
21
31
153
203
82
42
64
91
267
47
12
108
180
72
78
121
131
250
2
142
129
161
196
147
68
190
236
133
159
206
107
17
81
264
35
265
160
140
208
240
94
150
110
59
55
261
124
174
95
205
167
40
221
138
201
112
189
198
200
101
43
232
165
177
132
199
207
22
50
9
106
194
245
92
175
4
26
184
63
248
102
90
46
242
179
62
233
75
67
119
183
270
162
54
244
8
243
96
3
103
253
19
224
176
238
80
269
29
152
139
18
130
191
89
44
168
272
34
57
97
148
231
193
251
134
149
32
146
227
157
33
6
257
125
111
137
239
13
260
48
171
83
228
114
246
28
241
234
36
204
158
79
144
259
178
247
143
256
156
182
15
25
45
123
195
65
263
185
226
173
213
210
49
5
61
262
252
219
170
126
186
192
116
254
188

> <PUBCHEM_MMFF94_PARTIAL_CHARGES>
28
1 -0.36
10 0.14
12 -0.14
13 0.25
14 -0.15
15 -0.15
16 0.08
17 -0.15
18 0.08
19 0.44
2 -0.36
20 0.44
21 0.28
22 0.28
3 -0.7
34 0.15
35 0.15
36 0.15
37 0.06
38 0.4
39 0.4
4 -0.7
40 0.06
47 0.4
48 0.4
5 -0.85
6 -0.85
7 0.25

> <PUBCHEM_EFFECTIVE_ROTOR_COUNT>
10

> <PUBCHEM_PHARMACOPHORE_FEATURES>
7
1 1 acceptor
1 2 acceptor
1 5 donor
1 6 donor
3 3 5 19 cation
3 4 6 20 cation
6 12 14 15 16 17 18 rings

> <PUBCHEM_HEAVY_ATOM_COUNT>
22

> <PUBCHEM_ATOM_DEF_STEREO_COUNT>
0

> <PUBCHEM_ATOM_UDEF_STEREO_COUNT>
1

> <PUBCHEM_BOND_DEF_STEREO_COUNT>
0

> <PUBCHEM_BOND_UDEF_STEREO_COUNT>
0

> <PUBCHEM_ISOTOPIC_ATOM_COUNT>
0

> <PUBCHEM_COMPONENT_COUNT>
1

> <PUBCHEM_CACTVS_TAUTO_COUNT>
4

> <PUBCHEM_CONFORMER_ID>
0006BCEB00000001

> <PUBCHEM_MMFF94_ENERGY>
68.3336

> <PUBCHEM_FEATURE_SELFOVERLAP>
35.524

> <PUBCHEM_SHAPE_FINGERPRINT>
10 15 18271514365454036553
10366900 7 16443333274420069818
10693767 8 6194022305635168172
12107183 9 18269282412067281490
12236239 1 18272370820102001238
12596602 18 17917708007171569481
13167372 99 18341893021445788309
13533116 47 17131552846651676072
13785724 45 17768820006576322362
14347332 77 9223241736311094563
15238133 3 18333739022055428384
20554085 129 18115039618651643835
21033648 29 17023187055235171458
21065198 48 18200601285120504386
21421861 104 17988370364077530506
221357 26 14490461002787766968
22950370 63 9583512123521880999
23503953 91 18412271609941539978
23557571 272 17750787757834175958
23559900 14 18041267821145207486
2748736 6 18337113488162116645
29717793 49 7276564113390394912
312425 54 16486965216105025289
3663271 9 17918270948656336361
465052 167 10951757582570189217
5104073 3 17775562031551677337
5219985 13 18335701698003944221
77188 2 17255401523489709887

> <PUBCHEM_SHAPE_MULTIPOLES>
421.09
17.02
3.56
1.54
12.69
1.6
0.96
-17.57
3.91
5.99
-0.73
-2.8
0.42
-3.38

> <PUBCHEM_SHAPE_SELFOVERLAP>
838.165

> <PUBCHEM_SHAPE_VOLUME>
247.2

> <PUBCHEM_COORDINATE_TYPE>
2
5
10

$$$$

