46173833
  -OEChem-07051213092D

 68 72  0     1  0  0  0  0  0999 V2000
    7.7437   -3.4510    0.0000 O   0  0  0  0  0  0  0  0  0  0  0  0
    8.1272    3.0636    0.0000 O   0  0  0  0  0  0  0  0  0  0  0  0
    9.0602   -1.5050    0.0000 O   0  0  0  0  0  0  0  0  0  0  0  0
   10.3140   -3.1519    0.0000 O   0  0  0  0  0  0  0  0  0  0  0  0
    7.2785    1.5537    0.0000 O   0  0  0  0  0  0  0  0  0  0  0  0
   10.0086   -2.1996    0.0000 O   0  0  0  0  0  0  0  0  0  0  0  0
   10.7424    1.5938    0.0000 O   0  0  0  0  0  0  0  0  0  0  0  0
   10.7193    3.5937    0.0000 O   0  0  0  0  0  0  0  0  0  0  0  0
    9.0220    0.5738    0.0000 O   0  0  0  0  0  0  0  0  0  0  0  0
    9.5361   -5.1805    0.0000 O   0  0  0  0  0  0  0  0  0  0  0  0
    8.1040    5.0635    0.0000 O   0  0  0  0  0  0  0  0  0  0  0  0
    5.5301    1.5191    0.0000 O   0  0  0  0  0  0  0  0  0  0  0  0
    5.5301   -2.4809    0.0000 O   0  0  0  0  0  0  0  0  0  0  0  0
    3.7817    1.5537    0.0000 O   0  0  0  0  0  0  0  0  0  0  0  0
    9.3618   -3.4572    0.0000 C   0  0  1  0  0  0  0  0  0  0  0  0
    9.0564   -2.5050    0.0000 C   0  0  1  0  0  0  0  0  0  0  0  0
    9.8706    2.0838    0.0000 C   0  0  1  0  0  0  0  0  0  0  0  0
    9.8591    3.0837    0.0000 C   0  0  1  0  0  0  0  0  0  0  0  0
    9.0105    1.5738    0.0000 C   0  0  2  0  0  0  0  0  0  0  0  0
    8.5505   -4.0419    0.0000 C   0  0  0  0  0  0  0  0  0  0  0  0
    8.9873    3.5736    0.0000 C   0  0  1  0  0  0  0  0  0  0  0  0
    8.0564   -2.5011    0.0000 C   0  0  0  0  0  0  0  0  0  0  0  0
    8.1387    2.0637    0.0000 C   0  0  1  0  0  0  0  0  0  0  0  0
    9.9464   -4.2685    0.0000 C   0  0  0  0  0  0  0  0  0  0  0  0
    8.9758    4.5736    0.0000 C   0  0  0  0  0  0  0  0  0  0  0  0
    8.1962   -1.0017    0.0000 C   0  0  0  0  0  0  0  0  0  0  0  0
    7.2901    0.5538    0.0000 C   0  0  0  0  0  0  0  0  0  0  0  0
    6.3961    0.0191    0.0000 C   0  0  0  0  0  0  0  0  0  0  0  0
    8.1962    0.0400    0.0000 C   0  0  0  0  0  0  0  0  0  0  0  0
    6.3961   -0.9809    0.0000 C   0  0  0  0  0  0  0  0  0  0  0  0
    7.2901   -1.5155    0.0000 C   0  0  0  0  0  0  0  0  0  0  0  0
    5.5301    0.5191    0.0000 C   0  0  0  0  0  0  0  0  0  0  0  0
    5.5301   -1.4809    0.0000 C   0  0  0  0  0  0  0  0  0  0  0  0
    4.6641    0.0191    0.0000 C   0  0  0  0  0  0  0  0  0  0  0  0
    4.6641   -0.9809    0.0000 C   0  0  0  0  0  0  0  0  0  0  0  0
    3.7702    0.5538    0.0000 C   0  0  0  0  0  0  0  0  0  0  0  0
    3.7702   -1.5155    0.0000 C   0  0  0  0  0  0  0  0  0  0  0  0
    2.8641   -1.0017    0.0000 C   0  0  0  0  0  0  0  0  0  0  0  0
    2.8641    0.0400    0.0000 C   0  0  0  0  0  0  0  0  0  0  0  0
    2.0000   -1.5050    0.0000 C   0  0  0  0  0  0  0  0  0  0  0  0
    9.8778    1.4638    0.0000 H   0  0  0  0  0  0  0  0  0  0  0  0
    9.8519    3.7036    0.0000 H   0  0  0  0  0  0  0  0  0  0  0  0
    8.4772    1.2576    0.0000 H   0  0  0  0  0  0  0  0  0  0  0  0
    8.1338   -4.5010    0.0000 H   0  0  0  0  0  0  0  0  0  0  0  0
    8.9636   -4.5042    0.0000 H   0  0  0  0  0  0  0  0  0  0  0  0
    8.4468    3.8774    0.0000 H   0  0  0  0  0  0  0  0  0  0  0  0
    8.1236   -1.8848    0.0000 H   0  0  0  0  0  0  0  0  0  0  0  0
    7.4504   -2.3699    0.0000 H   0  0  0  0  0  0  0  0  0  0  0  0
    7.5982    2.3675    0.0000 H   0  0  0  0  0  0  0  0  0  0  0  0
   10.4591   -4.6172    0.0000 H   0  0  0  0  0  0  0  0  0  0  0  0
   10.3788   -3.8242    0.0000 H   0  0  0  0  0  0  0  0  0  0  0  0
    9.5876    4.4730    0.0000 H   0  0  0  0  0  0  0  0  0  0  0  0
    9.1811    5.1586    0.0000 H   0  0  0  0  0  0  0  0  0  0  0  0
   10.7731   -3.5685    0.0000 H   0  0  0  0  0  0  0  0  0  0  0  0
   10.1399   -1.5937    0.0000 H   0  0  0  0  0  0  0  0  0  0  0  0
    8.7319    0.3520    0.0000 H   0  0  0  0  0  0  0  0  0  0  0  0
   11.2757    1.9100    0.0000 H   0  0  0  0  0  0  0  0  0  0  0  0
   10.7121    4.2136    0.0000 H   0  0  0  0  0  0  0  0  0  0  0  0
    9.5625    0.2701    0.0000 H   0  0  0  0  0  0  0  0  0  0  0  0
    7.2829   -2.1355    0.0000 H   0  0  0  0  0  0  0  0  0  0  0  0
    9.8986   -5.6835    0.0000 H   0  0  0  0  0  0  0  0  0  0  0  0
    8.0969    5.6835    0.0000 H   0  0  0  0  0  0  0  0  0  0  0  0
    3.7773   -2.1355    0.0000 H   0  0  0  0  0  0  0  0  0  0  0  0
    2.3284    0.3520    0.0000 H   0  0  0  0  0  0  0  0  0  0  0  0
    1.6879   -0.9693    0.0000 H   0  0  0  0  0  0  0  0  0  0  0  0
    1.4643   -1.8171    0.0000 H   0  0  0  0  0  0  0  0  0  0  0  0
    2.3121   -2.0407    0.0000 H   0  0  0  0  0  0  0  0  0  0  0  0
    3.2484    1.8699    0.0000 H   0  0  0  0  0  0  0  0  0  0  0  0
  1 20  1  0  0  0  0
  1 22  1  0  0  0  0
  2 21  1  0  0  0  0
  2 23  1  0  0  0  0
  3 16  1  0  0  0  0
  3 26  1  0  0  0  0
 15  4  1  6  0  0  0
  4 54  1  0  0  0  0
 23  5  1  6  0  0  0
  5 27  1  0  0  0  0
 16  6  1  6  0  0  0
  6 55  1  0  0  0  0
 17  7  1  6  0  0  0
  7 57  1  0  0  0  0
 18  8  1  1  0  0  0
  8 58  1  0  0  0  0
 19  9  1  1  0  0  0
  9 59  1  0  0  0  0
 10 24  1  0  0  0  0
 10 61  1  0  0  0  0
 11 25  1  0  0  0  0
 11 62  1  0  0  0  0
 12 32  2  0  0  0  0
 13 33  2  0  0  0  0
 14 36  1  0  0  0  0
 14 68  1  0  0  0  0
 15 16  1  0  0  0  0
 15 20  1  0  0  0  0
 15 24  1  0  0  0  0
 16 22  1  0  0  0  0
 17 18  1  0  0  0  0
 17 19  1  0  0  0  0
 17 41  1  0  0  0  0
 18 21  1  0  0  0  0
 18 42  1  0  0  0  0
 19 23  1  0  0  0  0
 19 43  1  0  0  0  0
 20 44  1  0  0  0  0
 20 45  1  0  0  0  0
 21 25  1  6  0  0  0
 21 46  1  0  0  0  0
 22 47  1  0  0  0  0
 22 48  1  0  0  0  0
 23 49  1  0  0  0  0
 24 50  1  0  0  0  0
 24 51  1  0  0  0  0
 25 52  1  0  0  0  0
 25 53  1  0  0  0  0
 26 29  1  0  0  0  0
 26 31  2  0  0  0  0
 27 28  1  0  0  0  0
 27 29  2  0  0  0  0
 28 30  2  0  0  0  0
 28 32  1  0  0  0  0
 29 56  1  0  0  0  0
 30 31  1  0  0  0  0
 30 33  1  0  0  0  0
 31 60  1  0  0  0  0
 32 34  1  0  0  0  0
 33 35  1  0  0  0  0
 34 35  2  0  0  0  0
 34 36  1  0  0  0  0
 35 37  1  0  0  0  0
 36 39  2  0  0  0  0
 37 38  2  0  0  0  0
 37 63  1  0  0  0  0
 38 39  1  0  0  0  0
 38 40  1  0  0  0  0
 39 64  1  0  0  0  0
 40 65  1  0  0  0  0
 40 66  1  0  0  0  0
 40 67  1  0  0  0  0
M  END
> <PUBCHEM_COMPOUND_CID>
46173833

> <PUBCHEM_COMPOUND_CANONICALIZED>
1

> <PUBCHEM_CACTVS_COMPLEXITY>
964

> <PUBCHEM_CACTVS_HBOND_ACCEPTOR>
14

> <PUBCHEM_CACTVS_HBOND_DONOR>
8

> <PUBCHEM_CACTVS_ROTATABLE_BOND>
6

> <PUBCHEM_CACTVS_SUBSKEYS>
AAADceB4PAAAAAAAAAAAAAAAAAAAASAAAAA0YMEAAAAAAADBQAAAGgAACAAADFSwmAMyDoAABgCIAqBSAAACCAAkIAAAiAEGCMgdNzaGNRqieWCl4BUPuYfL7PzO4AADCAAYAADAAAYQADAAAAAAAAAAAA==

> <PUBCHEM_IUPAC_OPENEYE_NAME>
6-[(3R,4R)-3,4-dihydroxy-4-(hydroxymethyl)tetrahydrofuran-3-yl]oxy-1-hydroxy-3-methyl-8-[(2S,3R,4S,5S,6R)-3,4,5-trihydroxy-6-(hydroxymethyl)tetrahydropyran-2-yl]oxy-anthracene-9,10-dione

> <PUBCHEM_IUPAC_CAS_NAME>
6-[[(3R,4R)-3,4-dihydroxy-4-(hydroxymethyl)-3-oxolanyl]oxy]-1-hydroxy-3-methyl-8-[[(2S,3R,4S,5S,6R)-3,4,5-trihydroxy-6-(hydroxymethyl)-2-oxanyl]oxy]anthracene-9,10-dione

> <PUBCHEM_IUPAC_NAME>
6-[(3R,4R)-3,4-dihydroxy-4-(hydroxymethyl)oxolan-3-yl]oxy-1-hydroxy-3-methyl-8-[(2S,3R,4S,5S,6R)-3,4,5-trihydroxy-6-(hydroxymethyl)oxan-2-yl]oxyanthracene-9,10-dione

> <PUBCHEM_IUPAC_SYSTEMATIC_NAME>
3-[(3R,4R)-4-(hydroxymethyl)-3,4-bis(oxidanyl)oxolan-3-yl]oxy-1-[(2S,3R,4S,5S,6R)-6-(hydroxymethyl)-3,4,5-tris(oxidanyl)oxan-2-yl]oxy-6-methyl-8-oxidanyl-anthracene-9,10-dione

> <PUBCHEM_IUPAC_TRADITIONAL_NAME>
6-[(3R,4R)-3,4-dihydroxy-4-methylol-tetrahydrofuran-3-yl]oxy-1-hydroxy-3-methyl-8-[(2S,3R,4S,5S,6R)-3,4,5-trihydroxy-6-methylol-tetrahydropyran-2-yl]oxy-9,10-anthraquinone

> <PUBCHEM_IUPAC_INCHI>
InChI=1S/C26H28O14/c1-10-2-12-17(14(29)3-10)21(32)18-13(19(12)30)4-11(40-26(36)9-37-8-25(26,35)7-28)5-15(18)38-24-23(34)22(33)20(31)16(6-27)39-24/h2-5,16,20,22-24,27-29,31,33-36H,6-9H2,1H3/t16-,20-,22+,23-,24-,25-,26-/m1/s1

> <PUBCHEM_IUPAC_INCHIKEY>
SOAOUDVXSAIAHD-XXLFKDOXSA-N

> <PUBCHEM_XLOGP3_AA>
-0.8

> <PUBCHEM_EXACT_MASS>
564.147906

> <PUBCHEM_MOLECULAR_FORMULA>
C26H28O14

> <PUBCHEM_MOLECULAR_WEIGHT>
564.49212

> <PUBCHEM_OPENEYE_CAN_SMILES>
CC1=CC(=C2C(=C1)C(=O)C3=CC(=CC(=C3C2=O)OC4C(C(C(C(O4)CO)O)O)O)OC5(COCC5(CO)O)O)O

> <PUBCHEM_OPENEYE_ISO_SMILES>
CC1=CC(=C2C(=C1)C(=O)C3=CC(=CC(=C3C2=O)O[C@H]4[C@@H]([C@H]([C@@H]([C@H](O4)CO)O)O)O)O[C@@]5(COC[C@@]5(CO)O)O)O

> <PUBCHEM_CACTVS_TPSA>
233

> <PUBCHEM_MONOISOTOPIC_WEIGHT>
564.147906

> <PUBCHEM_TOTAL_CHARGE>
0

> <PUBCHEM_HEAVY_ATOM_COUNT>
40

> <PUBCHEM_ATOM_DEF_STEREO_COUNT>
7

> <PUBCHEM_ATOM_UDEF_STEREO_COUNT>
0

> <PUBCHEM_BOND_DEF_STEREO_COUNT>
0

> <PUBCHEM_BOND_UDEF_STEREO_COUNT>
0

> <PUBCHEM_ISOTOPIC_ATOM_COUNT>
0

> <PUBCHEM_COMPONENT_COUNT>
1

> <PUBCHEM_CACTVS_TAUTO_COUNT>
12

> <PUBCHEM_COORDINATE_TYPE>
1
5
255

> <PUBCHEM_BONDANNOTATIONS>
21  25  6
26  29  8
26  31  8
27  28  8
27  29  8
28  30  8
30  31  8
34  35  8
34  36  8
35  37  8
36  39  8
37  38  8
38  39  8
15  4  6
23  5  6
16  6  6
17  7  6
18  8  5
19  9  5

$$$$

