124225
  -OEChem-07051213052D

 40 43  0     1  0  0  0  0  0999 V2000
    9.1678   -0.9508    0.0000 S   0  0  0  0  0  0  0  0  0  0  0  0
    4.2639    1.4445    0.0000 F   0  0  0  0  0  0  0  0  0  0  0  0
    7.7940    2.4203    0.0000 O   0  0  0  0  0  0  0  0  0  0  0  0
   10.3921    0.9203    0.0000 O   0  0  0  0  0  0  0  0  0  0  0  0
    9.5261    2.4203    0.0000 O   0  0  0  0  0  0  0  0  0  0  0  0
    7.7940   -0.5797    0.0000 N   0  0  0  0  0  0  0  0  0  0  0  0
    4.2639   -0.6038    0.0000 N   0  0  0  0  0  0  0  0  0  0  0  0
    2.5357   -1.6105    0.0000 N   0  0  0  0  0  0  0  0  0  0  0  0
    8.2946   -1.4549    0.0000 C   0  0  3  0  0  0  0  0  0  0  0  0
    6.9280   -0.0797    0.0000 C   0  0  0  0  0  0  0  0  0  0  0  0
    8.6601   -0.0797    0.0000 C   0  0  0  0  0  0  0  0  0  0  0  0
    5.1280   -0.1005    0.0000 C   0  0  0  0  0  0  0  0  0  0  0  0
    3.3960   -0.1072    0.0000 C   0  0  0  0  0  0  0  0  0  0  0  0
    4.2678   -1.6038    0.0000 C   0  0  0  0  0  0  0  0  0  0  0  0
    6.9280    0.9203    0.0000 C   0  0  0  0  0  0  0  0  0  0  0  0
    6.0341   -0.6143    0.0000 C   0  0  0  0  0  0  0  0  0  0  0  0
    3.4037   -2.1072    0.0000 C   0  0  0  0  0  0  0  0  0  0  0  0
    2.5319   -0.6105    0.0000 C   0  0  0  0  0  0  0  0  0  0  0  0
    8.6601    0.9203    0.0000 C   0  0  0  0  0  0  0  0  0  0  0  0
    7.7940    1.4203    0.0000 C   0  0  0  0  0  0  0  0  0  0  0  0
    5.1280    0.9411    0.0000 C   0  0  0  0  0  0  0  0  0  0  0  0
    8.0338   -2.4203    0.0000 C   0  0  0  0  0  0  0  0  0  0  0  0
    6.0341    1.4550    0.0000 C   0  0  0  0  0  0  0  0  0  0  0  0
    9.5261    1.4203    0.0000 C   0  0  0  0  0  0  0  0  0  0  0  0
    8.9684   -1.9731    0.0000 H   0  0  0  0  0  0  0  0  0  0  0  0
    3.7927    0.3693    0.0000 H   0  0  0  0  0  0  0  0  0  0  0  0
    2.9956    0.3662    0.0000 H   0  0  0  0  0  0  0  0  0  0  0  0
    4.4821   -2.1856    0.0000 H   0  0  0  0  0  0  0  0  0  0  0  0
    4.8779   -1.4938    0.0000 H   0  0  0  0  0  0  0  0  0  0  0  0
    6.0412   -1.2343    0.0000 H   0  0  0  0  0  0  0  0  0  0  0  0
    3.0070   -2.5836    0.0000 H   0  0  0  0  0  0  0  0  0  0  0  0
    3.8040   -2.5806    0.0000 H   0  0  0  0  0  0  0  0  0  0  0  0
    2.3176   -0.0287    0.0000 H   0  0  0  0  0  0  0  0  0  0  0  0
    1.9217   -0.7205    0.0000 H   0  0  0  0  0  0  0  0  0  0  0  0
    2.0000   -1.9226    0.0000 H   0  0  0  0  0  0  0  0  0  0  0  0
    7.4352   -2.2586    0.0000 H   0  0  0  0  0  0  0  0  0  0  0  0
    7.8721   -3.0189    0.0000 H   0  0  0  0  0  0  0  0  0  0  0  0
    8.6323   -2.5820    0.0000 H   0  0  0  0  0  0  0  0  0  0  0  0
    6.0412    2.0750    0.0000 H   0  0  0  0  0  0  0  0  0  0  0  0
   10.9291    1.2303    0.0000 H   0  0  0  0  0  0  0  0  0  0  0  0
  1  9  1  0  0  0  0
  1 11  1  0  0  0  0
  2 21  1  0  0  0  0
  3 20  2  0  0  0  0
  4 24  1  0  0  0  0
  4 40  1  0  0  0  0
  5 24  2  0  0  0  0
  6  9  1  0  0  0  0
  6 10  1  0  0  0  0
  6 11  1  0  0  0  0
  7 12  1  0  0  0  0
  7 13  1  0  0  0  0
  7 14  1  0  0  0  0
  8 17  1  0  0  0  0
  8 18  1  0  0  0  0
  8 35  1  0  0  0  0
  9 22  1  0  0  0  0
  9 25  1  0  0  0  0
 10 15  1  0  0  0  0
 10 16  2  0  0  0  0
 11 19  2  0  0  0  0
 12 16  1  0  0  0  0
 12 21  2  0  0  0  0
 13 18  1  0  0  0  0
 13 26  1  0  0  0  0
 13 27  1  0  0  0  0
 14 17  1  0  0  0  0
 14 28  1  0  0  0  0
 14 29  1  0  0  0  0
 15 20  1  0  0  0  0
 15 23  2  0  0  0  0
 16 30  1  0  0  0  0
 17 31  1  0  0  0  0
 17 32  1  0  0  0  0
 18 33  1  0  0  0  0
 18 34  1  0  0  0  0
 19 20  1  0  0  0  0
 19 24  1  0  0  0  0
 21 23  1  0  0  0  0
 22 36  1  0  0  0  0
 22 37  1  0  0  0  0
 22 38  1  0  0  0  0
 23 39  1  0  0  0  0
M  END
> <PUBCHEM_COMPOUND_CID>
124225

> <PUBCHEM_COMPOUND_CANONICALIZED>
1

> <PUBCHEM_CACTVS_COMPLEXITY>
607

> <PUBCHEM_CACTVS_HBOND_ACCEPTOR>
8

> <PUBCHEM_CACTVS_HBOND_DONOR>
2

> <PUBCHEM_CACTVS_ROTATABLE_BOND>
2

> <PUBCHEM_CACTVS_SUBSKEYS>
AAADceB7MQBAAAAAAAAAAAAAAABYAAAAAAA8QIAAAAAQAACBAAAAHwQQCAAADAzF2AyyyIPAAgiIAqTSSACCAABlAhAAiIEIZMgIZD7I1NGUYYhksADI2ceY2aOeCAAAAAQCAAAQAAAACAQAAAAAAAAAAA==

> <PUBCHEM_IUPAC_OPENEYE_NAME>
6-fluoro-1-methyl-4-oxo-7-piperazin-1-yl-1H-[1,3]thiazeto[3,2-a]quinoline-3-carboxylic acid

> <PUBCHEM_IUPAC_CAS_NAME>
6-fluoro-1-methyl-4-oxo-7-(1-piperazinyl)-1H-[1,3]thiazeto[3,2-a]quinoline-3-carboxylic acid

> <PUBCHEM_IUPAC_NAME>
6-fluoro-1-methyl-4-oxo-7-piperazin-1-yl-1H-[1,3]thiazeto[3,2-a]quinoline-3-carboxylic acid

> <PUBCHEM_IUPAC_SYSTEMATIC_NAME>
6-fluoranyl-1-methyl-4-oxidanylidene-7-piperazin-1-yl-1H-[1,3]thiazeto[3,2-a]quinoline-3-carboxylic acid

> <PUBCHEM_IUPAC_TRADITIONAL_NAME>
6-fluoro-4-keto-1-methyl-7-piperazino-1H-[1,3]thiazeto[3,2-a]quinoline-3-carboxylic acid

> <PUBCHEM_IUPAC_INCHI>
InChI=1S/C16H16FN3O3S/c1-8-20-11-7-12(19-4-2-18-3-5-19)10(17)6-9(11)14(21)13(16(22)23)15(20)24-8/h6-8,18H,2-5H2,1H3,(H,22,23)

> <PUBCHEM_IUPAC_INCHIKEY>
SUXQDLLXIBLQHW-UHFFFAOYSA-N

> <PUBCHEM_XLOGP3_AA>
0.3

> <PUBCHEM_EXACT_MASS>
349.089641

> <PUBCHEM_MOLECULAR_FORMULA>
C16H16FN3O3S

> <PUBCHEM_MOLECULAR_WEIGHT>
349.379943

> <PUBCHEM_OPENEYE_CAN_SMILES>
CC1N2C3=CC(=C(C=C3C(=O)C(=C2S1)C(=O)O)F)N4CCNCC4

> <PUBCHEM_OPENEYE_ISO_SMILES>
CC1N2C3=CC(=C(C=C3C(=O)C(=C2S1)C(=O)O)F)N4CCNCC4

> <PUBCHEM_CACTVS_TPSA>
98.2

> <PUBCHEM_MONOISOTOPIC_WEIGHT>
349.089641

> <PUBCHEM_TOTAL_CHARGE>
0

> <PUBCHEM_HEAVY_ATOM_COUNT>
24

> <PUBCHEM_ATOM_DEF_STEREO_COUNT>
0

> <PUBCHEM_ATOM_UDEF_STEREO_COUNT>
1

> <PUBCHEM_BOND_DEF_STEREO_COUNT>
0

> <PUBCHEM_BOND_UDEF_STEREO_COUNT>
0

> <PUBCHEM_ISOTOPIC_ATOM_COUNT>
0

> <PUBCHEM_COMPONENT_COUNT>
1

> <PUBCHEM_CACTVS_TAUTO_COUNT>
1

> <PUBCHEM_COORDINATE_TYPE>
1
5
255

> <PUBCHEM_BONDANNOTATIONS>
10  15  8
10  16  8
11  19  8
12  16  8
12  21  8
15  20  8
15  23  8
19  20  8
21  23  8
6  10  8
6  11  8
9  25  3

$$$$

