442985
  -OEChem-07051213003D

 73 78  0     1  0  0  0  0  0999 V2000
   -3.3649   -0.9026   -0.2724 O   0  0  0  0  0  0  0  0  0  0  0  0
    8.1429   -0.6927    0.2689 O   0  0  0  0  0  0  0  0  0  0  0  0
   -4.8955    0.3184    1.1664 N   0  0  0  0  0  0  0  0  0  0  0  0
   -0.4477    0.9426   -0.0712 C   0  0  1  0  0  0  0  0  0  0  0  0
    0.1578   -0.4349    0.2884 C   0  0  2  0  0  0  0  0  0  0  0  0
   -1.8745    0.7934    0.5393 C   0  0  2  0  0  0  0  0  0  0  0  0
    1.5765   -0.6351   -0.2498 C   0  0  1  0  0  0  0  0  0  0  0  0
   -2.1702   -0.7214    0.4837 C   0  0  2  0  0  0  0  0  0  0  0  0
   -0.9434   -1.4088   -0.1150 C   0  0  0  0  0  0  0  0  0  0  0  0
    2.5028    0.4804    0.3194 C   0  0  2  0  0  0  0  0  0  0  0  0
   -3.0786    1.4152   -0.1743 C   0  0  1  0  0  0  0  0  0  0  0  0
    0.4223    2.0059    0.6179 C   0  0  0  0  0  0  0  0  0  0  0  0
   -4.1541    0.3048   -0.1070 C   0  0  1  0  0  0  0  0  0  0  0  0
    1.8957    1.9050    0.1816 C   0  0  0  0  0  0  0  0  0  0  0  0
    3.9761    0.3476   -0.2389 C   0  0  2  0  0  0  0  0  0  0  0  0
   -0.4776    1.2138   -1.5961 C   0  0  0  0  0  0  0  0  0  0  0  0
    2.1184   -2.0185    0.1400 C   0  0  0  0  0  0  0  0  0  0  0  0
    4.4426   -1.1150   -0.2016 C   0  0  0  0  0  0  0  0  0  0  0  0
   -5.1385    0.4059   -1.2852 C   0  0  0  0  0  0  0  0  0  0  0  0
    4.9172    1.2076    0.6572 C   0  0  0  0  0  0  0  0  0  0  0  0
   -3.4710    2.7761    0.3893 C   0  0  0  0  0  0  0  0  0  0  0  0
    3.5998   -2.1465   -0.0175 C   0  0  0  0  0  0  0  0  0  0  0  0
    4.0703    0.8420   -1.7024 C   0  0  0  0  0  0  0  0  0  0  0  0
    5.9216   -1.3724   -0.3757 C   0  0  0  0  0  0  0  0  0  0  0  0
   -6.2058   -0.6876   -1.2326 C   0  0  0  0  0  0  0  0  0  0  0  0
    6.4073    0.9714    0.4147 C   0  0  0  0  0  0  0  0  0  0  0  0
   -5.8787   -0.7602    1.2624 C   0  0  0  0  0  0  0  0  0  0  0  0
    6.7611   -0.5054    0.5585 C   0  0  2  0  0  0  0  0  0  0  0  0
   -6.9083   -0.6872    0.1282 C   0  0  2  0  0  0  0  0  0  0  0  0
   -7.9035   -1.8417    0.2238 C   0  0  0  0  0  0  0  0  0  0  0  0
    0.2344   -0.4984    1.3879 H   0  0  0  0  0  0  0  0  0  0  0  0
   -1.8536    1.0939    1.5959 H   0  0  0  0  0  0  0  0  0  0  0  0
    1.5639   -0.5840   -1.3440 H   0  0  0  0  0  0  0  0  0  0  0  0
   -2.3481   -1.1026    1.4979 H   0  0  0  0  0  0  0  0  0  0  0  0
   -1.0282   -1.5357   -1.1989 H   0  0  0  0  0  0  0  0  0  0  0  0
   -0.7996   -2.4029    0.3204 H   0  0  0  0  0  0  0  0  0  0  0  0
    2.5569    0.2965    1.4052 H   0  0  0  0  0  0  0  0  0  0  0  0
   -2.8600    1.5746   -1.2337 H   0  0  0  0  0  0  0  0  0  0  0  0
    0.0427    3.0114    0.4002 H   0  0  0  0  0  0  0  0  0  0  0  0
    0.3740    1.8868    1.7081 H   0  0  0  0  0  0  0  0  0  0  0  0
    2.4746    2.6111    0.7877 H   0  0  0  0  0  0  0  0  0  0  0  0
    1.9727    2.2589   -0.8502 H   0  0  0  0  0  0  0  0  0  0  0  0
    0.5078    1.1474   -2.0640 H   0  0  0  0  0  0  0  0  0  0  0  0
   -1.1211    0.5088   -2.1319 H   0  0  0  0  0  0  0  0  0  0  0  0
   -0.8440    2.2264   -1.8008 H   0  0  0  0  0  0  0  0  0  0  0  0
    1.8692   -2.2525    1.1826 H   0  0  0  0  0  0  0  0  0  0  0  0
    1.6319   -2.7807   -0.4806 H   0  0  0  0  0  0  0  0  0  0  0  0
   -4.6014    0.3066   -2.2368 H   0  0  0  0  0  0  0  0  0  0  0  0
   -5.6301    1.3869   -1.2884 H   0  0  0  0  0  0  0  0  0  0  0  0
    4.7113    0.9952    1.7153 H   0  0  0  0  0  0  0  0  0  0  0  0
    4.7122    2.2749    0.5117 H   0  0  0  0  0  0  0  0  0  0  0  0
   -2.6687    3.5015    0.2166 H   0  0  0  0  0  0  0  0  0  0  0  0
   -4.3751    3.1571   -0.0956 H   0  0  0  0  0  0  0  0  0  0  0  0
   -3.6499    2.7398    1.4687 H   0  0  0  0  0  0  0  0  0  0  0  0
    3.9929   -3.1597    0.0208 H   0  0  0  0  0  0  0  0  0  0  0  0
   -5.3844    1.2089    1.2583 H   0  0  0  0  0  0  0  0  0  0  0  0
    3.8952    1.9199   -1.7778 H   0  0  0  0  0  0  0  0  0  0  0  0
    3.3455    0.3377   -2.3497 H   0  0  0  0  0  0  0  0  0  0  0  0
    5.0590    0.6647   -2.1389 H   0  0  0  0  0  0  0  0  0  0  0  0
    6.1734   -2.4264   -0.1996 H   0  0  0  0  0  0  0  0  0  0  0  0
    6.2093   -1.1848   -1.4179 H   0  0  0  0  0  0  0  0  0  0  0  0
   -6.9350   -0.5267   -2.0354 H   0  0  0  0  0  0  0  0  0  0  0  0
   -5.7402   -1.6639   -1.4176 H   0  0  0  0  0  0  0  0  0  0  0  0
    6.7016    1.3359   -0.5772 H   0  0  0  0  0  0  0  0  0  0  0  0
    6.9954    1.5626    1.1276 H   0  0  0  0  0  0  0  0  0  0  0  0
   -6.3885   -0.6783    2.2294 H   0  0  0  0  0  0  0  0  0  0  0  0
   -5.3685   -1.7313    1.2655 H   0  0  0  0  0  0  0  0  0  0  0  0
    6.5978   -0.8248    1.5954 H   0  0  0  0  0  0  0  0  0  0  0  0
   -7.4715    0.2510    0.2270 H   0  0  0  0  0  0  0  0  0  0  0  0
   -8.6538   -1.7738   -0.5709 H   0  0  0  0  0  0  0  0  0  0  0  0
   -7.4005   -2.8104    0.1331 H   0  0  0  0  0  0  0  0  0  0  0  0
   -8.4293   -1.8220    1.1842 H   0  0  0  0  0  0  0  0  0  0  0  0
    8.6498   -0.1372    0.8853 H   0  0  0  0  0  0  0  0  0  0  0  0
  1  8  1  0  0  0  0
  1 13  1  0  0  0  0
  2 28  1  0  0  0  0
  2 73  1  0  0  0  0
  3 13  1  0  0  0  0
  3 27  1  0  0  0  0
  3 56  1  0  0  0  0
  4  5  1  0  0  0  0
  4  6  1  0  0  0  0
  4 12  1  0  0  0  0
  4 16  1  0  0  0  0
  5  7  1  0  0  0  0
  5  9  1  0  0  0  0
  5 31  1  0  0  0  0
  6  8  1  0  0  0  0
  6 11  1  0  0  0  0
  6 32  1  0  0  0  0
  7 10  1  0  0  0  0
  7 17  1  0  0  0  0
  7 33  1  0  0  0  0
  8  9  1  0  0  0  0
  8 34  1  0  0  0  0
  9 35  1  0  0  0  0
  9 36  1  0  0  0  0
 10 14  1  0  0  0  0
 10 15  1  0  0  0  0
 10 37  1  0  0  0  0
 11 13  1  0  0  0  0
 11 21  1  0  0  0  0
 11 38  1  0  0  0  0
 12 14  1  0  0  0  0
 12 39  1  0  0  0  0
 12 40  1  0  0  0  0
 13 19  1  0  0  0  0
 14 41  1  0  0  0  0
 14 42  1  0  0  0  0
 15 18  1  0  0  0  0
 15 20  1  0  0  0  0
 15 23  1  0  0  0  0
 16 43  1  0  0  0  0
 16 44  1  0  0  0  0
 16 45  1  0  0  0  0
 17 22  1  0  0  0  0
 17 46  1  0  0  0  0
 17 47  1  0  0  0  0
 18 22  2  0  0  0  0
 18 24  1  0  0  0  0
 19 25  1  0  0  0  0
 19 48  1  0  0  0  0
 19 49  1  0  0  0  0
 20 26  1  0  0  0  0
 20 50  1  0  0  0  0
 20 51  1  0  0  0  0
 21 52  1  0  0  0  0
 21 53  1  0  0  0  0
 21 54  1  0  0  0  0
 22 55  1  0  0  0  0
 23 57  1  0  0  0  0
 23 58  1  0  0  0  0
 23 59  1  0  0  0  0
 24 28  1  0  0  0  0
 24 60  1  0  0  0  0
 24 61  1  0  0  0  0
 25 29  1  0  0  0  0
 25 62  1  0  0  0  0
 25 63  1  0  0  0  0
 26 28  1  0  0  0  0
 26 64  1  0  0  0  0
 26 65  1  0  0  0  0
 27 29  1  0  0  0  0
 27 66  1  0  0  0  0
 27 67  1  0  0  0  0
 28 68  1  0  0  0  0
 29 30  1  0  0  0  0
 29 69  1  0  0  0  0
 30 70  1  0  0  0  0
 30 71  1  0  0  0  0
 30 72  1  0  0  0  0
M  END
> <PUBCHEM_COMPOUND_CID>
442985

> <PUBCHEM_CONFORMER_RMSD>
0.8

> <PUBCHEM_CONFORMER_DIVERSEORDER>
1

> <PUBCHEM_MMFF94_PARTIAL_CHARGES>
15
1 -0.56
13 0.55
15 0.14
17 0.14
18 -0.28
2 -0.68
22 -0.29
24 0.14
27 0.27
28 0.28
3 -0.9
55 0.15
56 0.36
73 0.4
8 0.28

> <PUBCHEM_EFFECTIVE_ROTOR_COUNT>
3

> <PUBCHEM_PHARMACOPHORE_FEATURES>
11
1 1 acceptor
1 2 acceptor
1 2 donor
1 3 cation
1 3 donor
5 1 6 8 11 13 rings
5 4 5 6 8 9 rings
6 15 18 20 24 26 28 rings
6 3 13 19 25 27 29 rings
6 4 5 7 10 12 14 rings
6 7 10 15 17 18 22 rings

> <PUBCHEM_HEAVY_ATOM_COUNT>
30

> <PUBCHEM_ATOM_DEF_STEREO_COUNT>
11

> <PUBCHEM_ATOM_UDEF_STEREO_COUNT>
0

> <PUBCHEM_BOND_DEF_STEREO_COUNT>
0

> <PUBCHEM_BOND_UDEF_STEREO_COUNT>
0

> <PUBCHEM_ISOTOPIC_ATOM_COUNT>
0

> <PUBCHEM_COMPONENT_COUNT>
1

> <PUBCHEM_CACTVS_TAUTO_COUNT>
1

> <PUBCHEM_CONFORMER_ID>
0006C26900000001

> <PUBCHEM_MMFF94_ENERGY>
94.0128

> <PUBCHEM_FEATURE_SELFOVERLAP>
56.192

> <PUBCHEM_SHAPE_FINGERPRINT>
10 15 18272094856022239768
10050765 1 18121499317213606625
10299344 5 17676205762719385279
106641 1 17240487987908045906
11135609 99 18264769866450483151
11315181 36 17775280565086032673
11646440 116 18186798076285236976
11719270 70 18272373079329171890
11963148 33 18272095967512324203
12166972 35 18342454837564896876
12236239 1 17458062672563094929
12516196 113 18114181938592716368
12596602 18 17458340861895151459
12838862 33 18338254703800238050
13073987 5 18334858367499383128
13533116 47 18260830358467434936
13685833 64 18409729551831864281
13782708 43 18200593743200247622
13862211 1 18409448085339723001
13914758 101 15410623613370636789
14170010 4 18410294679186180480
14251764 18 18040152898641509664
14394314 77 18261105327012148737
14849402 71 17386572345026931496
14856354 85 15502378894629333229
15142383 8 6843928256175386610
15183329 4 18334860519372924238
15196674 1 18337109080828806112
15840311 113 17560795500021255900
15849732 13 17988926652083047191
17349148 13 17749102297161602433
17492 89 18048878786820017286
1813 80 17418369216390271580
18335252 114 10879997934402700939
18608769 82 18339081493326160179
19319366 153 18342179960016830686
19489759 90 15697999652430124645
19841028 212 18059299880122815762
21130935 74 18187361081704454730
21150785 3 17060338518087390951
21236236 1 18336546118354720145
21267235 1 18335698356076347294
21781051 124 17987219075991637226
22149856 69 18261942029563786171
23522609 53 18118651436708102433
23559900 14 18266186041167936569
23569917 315 18343014506459249090
23569943 247 17698446860368488226
23576562 1 14404319695142409710
24771750 20 17982159033397250780
3004659 81 18131071541582101848
335352 9 18410291394580619614
3383291 50 18413387614238874323
34797466 226 17168139019030862716
350125 39 18335700564043303329
3545911 37 18411139125649151666
3633792 109 18342748442146079349
4093350 32 15864070937099684840
4325135 7 18335704948487234487
46194498 28 17846782875297052796
465052 167 18186517700540442591
5104073 3 18267301113197969192

> <PUBCHEM_SHAPE_MULTIPOLES>
600.67
19.79
2.15
1.09
2.87
0.36
0.29
-7.32
-1.21
0.14
-0.16
0.57
0.2
0.2

> <PUBCHEM_SHAPE_SELFOVERLAP>
1291.15

> <PUBCHEM_SHAPE_VOLUME>
329.3

> <PUBCHEM_COORDINATE_TYPE>
2
5
10

$$$$

