441047
  -OEChem-07051212512D

 57 59  0     0  0  0  0  0  0999 V2000
    7.9611    4.5216    0.0000 Cl  0  0  0  0  0  0  0  0  0  0  0  0
    4.4970    4.5216    0.0000 Cl  0  0  0  0  0  0  0  0  0  0  0  0
    6.2290    3.5216    0.0000 O   0  0  0  0  0  0  0  0  0  0  0  0
    4.4399   -1.5662    0.0000 O   0  0  0  0  0  0  0  0  0  0  0  0
    5.4200    8.1093    0.0000 O   0  0  0  0  0  0  0  0  0  0  0  0
    2.9499   -4.2398    0.0000 O   0  0  0  0  0  0  0  0  0  0  0  0
    2.7688   -5.9624    0.0000 O   0  0  0  0  0  0  0  0  0  0  0  0
    2.0000   -8.4940    0.0000 O   0  0  0  0  0  0  0  0  0  0  0  0
    4.1309   -2.5173    0.0000 N   0  0  0  0  0  0  0  0  0  0  0  0
    7.0380    8.1093    0.0000 N   0  0  0  0  0  0  0  0  0  0  0  0
    4.4970    1.5216    0.0000 C   0  0  0  0  0  0  0  0  0  0  0  0
    4.4970    0.5216    0.0000 C   0  0  0  0  0  0  0  0  0  0  0  0
    5.3630    2.0216    0.0000 C   0  0  0  0  0  0  0  0  0  0  0  0
    3.6309    0.0216    0.0000 C   0  0  0  0  0  0  0  0  0  0  0  0
    5.3630    3.0216    0.0000 C   0  0  0  0  0  0  0  0  0  0  0  0
    3.6309   -0.9784    0.0000 C   0  0  0  0  0  0  0  0  0  0  0  0
    2.8219   -1.5662    0.0000 C   0  0  0  0  0  0  0  0  0  0  0  0
    3.1309   -2.5173    0.0000 C   0  0  0  0  0  0  0  0  0  0  0  0
    6.2290    4.5216    0.0000 C   0  0  0  0  0  0  0  0  0  0  0  0
    6.2290    6.5216    0.0000 C   0  0  0  0  0  0  0  0  0  0  0  0
    2.5431   -3.3263    0.0000 C   0  0  0  0  0  0  0  0  0  0  0  0
    7.0950    5.0216    0.0000 C   0  0  0  0  0  0  0  0  0  0  0  0
    5.3630    5.0216    0.0000 C   0  0  0  0  0  0  0  0  0  0  0  0
    6.2290    7.5216    0.0000 C   0  0  0  0  0  0  0  0  0  0  0  0
    7.0950    6.0216    0.0000 C   0  0  0  0  0  0  0  0  0  0  0  0
    5.3630    6.0216    0.0000 C   0  0  0  0  0  0  0  0  0  0  0  0
    5.7290    9.0604    0.0000 C   0  0  0  0  0  0  0  0  0  0  0  0
    6.7290    9.0604    0.0000 C   0  0  0  0  0  0  0  0  0  0  0  0
    2.3621   -5.0489    0.0000 C   0  0  0  0  0  0  0  0  0  0  0  0
    2.1810   -6.7714    0.0000 C   0  0  0  0  0  0  0  0  0  0  0  0
    2.5878   -7.6850    0.0000 C   0  0  0  0  0  0  0  0  0  0  0  0
    4.2849    2.1042    0.0000 H   0  0  0  0  0  0  0  0  0  0  0  0
    3.8864    1.4139    0.0000 H   0  0  0  0  0  0  0  0  0  0  0  0
    4.7090   -0.0611    0.0000 H   0  0  0  0  0  0  0  0  0  0  0  0
    5.1075    0.6292    0.0000 H   0  0  0  0  0  0  0  0  0  0  0  0
    5.5750    1.4389    0.0000 H   0  0  0  0  0  0  0  0  0  0  0  0
    5.9736    2.1292    0.0000 H   0  0  0  0  0  0  0  0  0  0  0  0
    3.4189    0.6042    0.0000 H   0  0  0  0  0  0  0  0  0  0  0  0
    3.0204   -0.0861    0.0000 H   0  0  0  0  0  0  0  0  0  0  0  0
    5.1509    3.6042    0.0000 H   0  0  0  0  0  0  0  0  0  0  0  0
    4.7524    2.9139    0.0000 H   0  0  0  0  0  0  0  0  0  0  0  0
    2.2323   -1.3746    0.0000 H   0  0  0  0  0  0  0  0  0  0  0  0
    2.1125   -2.8803    0.0000 H   0  0  0  0  0  0  0  0  0  0  0  0
    2.0291   -3.6730    0.0000 H   0  0  0  0  0  0  0  0  0  0  0  0
    7.6320    6.3316    0.0000 H   0  0  0  0  0  0  0  0  0  0  0  0
    4.8261    6.3316    0.0000 H   0  0  0  0  0  0  0  0  0  0  0  0
    5.7938    9.6770    0.0000 H   0  0  0  0  0  0  0  0  0  0  0  0
    5.1226    9.1893    0.0000 H   0  0  0  0  0  0  0  0  0  0  0  0
    7.3355    9.1893    0.0000 H   0  0  0  0  0  0  0  0  0  0  0  0
    6.6642    9.6770    0.0000 H   0  0  0  0  0  0  0  0  0  0  0  0
    1.9314   -4.6029    0.0000 H   0  0  0  0  0  0  0  0  0  0  0  0
    1.8481   -5.3956    0.0000 H   0  0  0  0  0  0  0  0  0  0  0  0
    1.7504   -6.3254    0.0000 H   0  0  0  0  0  0  0  0  0  0  0  0
    1.6670   -7.1181    0.0000 H   0  0  0  0  0  0  0  0  0  0  0  0
    3.0185   -8.1310    0.0000 H   0  0  0  0  0  0  0  0  0  0  0  0
    3.1018   -7.3383    0.0000 H   0  0  0  0  0  0  0  0  0  0  0  0
    2.2522   -9.0604    0.0000 H   0  0  0  0  0  0  0  0  0  0  0  0
  1 22  1  0  0  0  0
  2 23  1  0  0  0  0
  3 15  1  0  0  0  0
  3 19  1  0  0  0  0
  4  9  1  0  0  0  0
  4 16  1  0  0  0  0
  5 24  1  0  0  0  0
  5 27  1  0  0  0  0
  6 21  1  0  0  0  0
  6 29  1  0  0  0  0
  7 29  1  0  0  0  0
  7 30  1  0  0  0  0
  8 31  1  0  0  0  0
  8 57  1  0  0  0  0
  9 18  2  0  0  0  0
 10 24  2  0  0  0  0
 10 28  1  0  0  0  0
 11 12  1  0  0  0  0
 11 13  1  0  0  0  0
 11 32  1  0  0  0  0
 11 33  1  0  0  0  0
 12 14  1  0  0  0  0
 12 34  1  0  0  0  0
 12 35  1  0  0  0  0
 13 15  1  0  0  0  0
 13 36  1  0  0  0  0
 13 37  1  0  0  0  0
 14 16  1  0  0  0  0
 14 38  1  0  0  0  0
 14 39  1  0  0  0  0
 15 40  1  0  0  0  0
 15 41  1  0  0  0  0
 16 17  2  0  0  0  0
 17 18  1  0  0  0  0
 17 42  1  0  0  0  0
 18 21  1  0  0  0  0
 19 22  2  0  0  0  0
 19 23  1  0  0  0  0
 20 24  1  0  0  0  0
 20 25  2  0  0  0  0
 20 26  1  0  0  0  0
 21 43  1  0  0  0  0
 21 44  1  0  0  0  0
 22 25  1  0  0  0  0
 23 26  2  0  0  0  0
 25 45  1  0  0  0  0
 26 46  1  0  0  0  0
 27 28  1  0  0  0  0
 27 47  1  0  0  0  0
 27 48  1  0  0  0  0
 28 49  1  0  0  0  0
 28 50  1  0  0  0  0
 29 51  1  0  0  0  0
 29 52  1  0  0  0  0
 30 31  1  0  0  0  0
 30 53  1  0  0  0  0
 30 54  1  0  0  0  0
 31 55  1  0  0  0  0
 31 56  1  0  0  0  0
M  END
> <PUBCHEM_COMPOUND_CID>
441047

> <PUBCHEM_COMPOUND_CANONICALIZED>
1

> <PUBCHEM_CACTVS_COMPLEXITY>
532

> <PUBCHEM_CACTVS_HBOND_ACCEPTOR>
8

> <PUBCHEM_CACTVS_HBOND_DONOR>
1

> <PUBCHEM_CACTVS_ROTATABLE_BOND>
14

> <PUBCHEM_CACTVS_SUBSKEYS>
AAADceB7OAAGAAAAAAAAAAAAAAAAAWIAAAAwAAAAAAAAAAABwAAAHgIECAAADA7hnicwjpIQBgCpA6RyRgSCCAAkJ0AgmCE2b9ofNruFs5qjOaDmwBkP6Ufa6KwOIAAAIACACABAAABAAQAQAAAAAAAAAA==

> <PUBCHEM_IUPAC_OPENEYE_NAME>
2-[[5-[5-[2,6-dichloro-4-(4,5-dihydrooxazol-2-yl)phenoxy]pentyl]isoxazol-3-yl]methoxymethoxy]ethanol

> <PUBCHEM_IUPAC_CAS_NAME>
2-[[5-[5-[2,6-dichloro-4-(4,5-dihydrooxazol-2-yl)phenoxy]pentyl]-3-isoxazolyl]methoxymethoxy]ethanol

> <PUBCHEM_IUPAC_NAME>
2-[[5-[5-[2,6-dichloro-4-(4,5-dihydro-1,3-oxazol-2-yl)phenoxy]pentyl]-1,2-oxazol-3-yl]methoxymethoxy]ethanol

> <PUBCHEM_IUPAC_SYSTEMATIC_NAME>
2-[[5-[5-[2,6-bis(chloranyl)-4-(4,5-dihydro-1,3-oxazol-2-yl)phenoxy]pentyl]-1,2-oxazol-3-yl]methoxymethoxy]ethanol

> <PUBCHEM_IUPAC_TRADITIONAL_NAME>
2-[[5-[5-[2,6-dichloro-4-(2-oxazolin-2-yl)phenoxy]pentyl]isoxazol-3-yl]methoxymethoxy]ethanol

> <PUBCHEM_IUPAC_INCHI>
InChI=1S/C21H26Cl2N2O6/c22-18-10-15(21-24-5-8-30-21)11-19(23)20(18)29-7-3-1-2-4-17-12-16(25-31-17)13-28-14-27-9-6-26/h10-12,26H,1-9,13-14H2

> <PUBCHEM_IUPAC_INCHIKEY>
JLSNWEWWUSOSMP-UHFFFAOYSA-N

> <PUBCHEM_XLOGP3_AA>
3.1

> <PUBCHEM_EXACT_MASS>
472.116792

> <PUBCHEM_MOLECULAR_FORMULA>
C21H26Cl2N2O6

> <PUBCHEM_MOLECULAR_WEIGHT>
473.34694

> <PUBCHEM_OPENEYE_CAN_SMILES>
C1COC(=N1)C2=CC(=C(C(=C2)Cl)OCCCCCC3=CC(=NO3)COCOCCO)Cl

> <PUBCHEM_OPENEYE_ISO_SMILES>
C1COC(=N1)C2=CC(=C(C(=C2)Cl)OCCCCCC3=CC(=NO3)COCOCCO)Cl

> <PUBCHEM_CACTVS_TPSA>
95.5

> <PUBCHEM_MONOISOTOPIC_WEIGHT>
472.116792

> <PUBCHEM_TOTAL_CHARGE>
0

> <PUBCHEM_HEAVY_ATOM_COUNT>
31

> <PUBCHEM_ATOM_DEF_STEREO_COUNT>
0

> <PUBCHEM_ATOM_UDEF_STEREO_COUNT>
0

> <PUBCHEM_BOND_DEF_STEREO_COUNT>
0

> <PUBCHEM_BOND_UDEF_STEREO_COUNT>
0

> <PUBCHEM_ISOTOPIC_ATOM_COUNT>
0

> <PUBCHEM_COMPONENT_COUNT>
1

> <PUBCHEM_CACTVS_TAUTO_COUNT>
1

> <PUBCHEM_COORDINATE_TYPE>
1
5
255

> <PUBCHEM_BONDANNOTATIONS>
16  17  8
17  18  8
19  22  8
19  23  8
20  25  8
20  26  8
22  25  8
23  26  8
4  16  8
4  9  8
9  18  8

$$$$

