3033832
  -OEChem-07051212542D

 78 79  0     0  0  0  0  0  0999 V2000
    8.8070    8.0369    0.0000 Cl  0  0  0  0  0  0  0  0  0  0  0  0
   10.5390    4.0369    0.0000 O   0  0  0  0  0  0  0  0  0  0  0  0
    2.7690    5.0780    0.0000 O   0  0  0  0  0  0  0  0  0  0  0  0
    4.0010    5.9440    0.0000 O   0  0  0  0  0  0  0  0  0  0  0  0
    3.1350    7.4440    0.0000 O   0  0  0  0  0  0  0  0  0  0  0  0
    0.5369    3.9440    0.0000 O   0  0  0  0  0  0  0  0  0  0  0  0
    0.2690    7.6760    0.0000 O   0  0  0  0  0  0  0  0  0  0  0  0
    2.2690    3.9440    0.0000 O   0  0  0  0  0  0  0  0  0  0  0  0
    0.2690    5.9440    0.0000 O   0  0  0  0  0  0  0  0  0  0  0  0
    8.8070    2.0369    0.0000 N   0  0  0  0  0  0  0  0  0  0  0  0
    9.6730    2.5369    0.0000 C   0  0  0  0  0  0  0  0  0  0  0  0
    8.8070    1.0369    0.0000 C   0  0  0  0  0  0  0  0  0  0  0  0
    7.9409    2.5369    0.0000 C   0  0  0  0  0  0  0  0  0  0  0  0
    9.6730    3.5369    0.0000 C   0  0  0  0  0  0  0  0  0  0  0  0
    2.2690    5.9440    0.0000 C   0  0  0  0  0  0  0  0  0  0  0  0
    7.9409    0.5369    0.0000 C   0  0  0  0  0  0  0  0  0  0  0  0
    7.0749    2.0369    0.0000 C   0  0  0  0  0  0  0  0  0  0  0  0
    1.4030    5.4440    0.0000 C   0  0  0  0  0  0  0  0  0  0  0  0
    1.7690    6.8100    0.0000 C   0  0  0  0  0  0  0  0  0  0  0  0
   10.5390    5.0369    0.0000 C   0  0  0  0  0  0  0  0  0  0  0  0
   10.5390    7.0369    0.0000 C   0  0  0  0  0  0  0  0  0  0  0  0
   10.5390    8.0369    0.0000 C   0  0  0  0  0  0  0  0  0  0  0  0
    3.1350    6.4440    0.0000 C   0  0  0  0  0  0  0  0  0  0  0  0
   11.4050    5.5369    0.0000 C   0  0  0  0  0  0  0  0  0  0  0  0
    9.6730    5.5369    0.0000 C   0  0  0  0  0  0  0  0  0  0  0  0
   11.4050    6.5369    0.0000 C   0  0  0  0  0  0  0  0  0  0  0  0
    9.6730    6.5369    0.0000 C   0  0  0  0  0  0  0  0  0  0  0  0
   11.4050    8.5369    0.0000 C   0  0  0  0  0  0  0  0  0  0  0  0
    1.4030    4.4440    0.0000 C   0  0  0  0  0  0  0  0  0  0  0  0
    0.7690    6.8100    0.0000 C   0  0  0  0  0  0  0  0  0  0  0  0
    9.6730    8.5369    0.0000 C   0  0  0  0  0  0  0  0  0  0  0  0
    9.6730    9.5369    0.0000 C   0  0  0  0  0  0  0  0  0  0  0  0
   12.2711    8.0369    0.0000 C   0  0  0  0  0  0  0  0  0  0  0  0
   11.4050    9.5369    0.0000 C   0  0  0  0  0  0  0  0  0  0  0  0
   13.1371    8.5369    0.0000 C   0  0  0  0  0  0  0  0  0  0  0  0
   12.2711   10.0369    0.0000 C   0  0  0  0  0  0  0  0  0  0  0  0
   10.5390   10.0369    0.0000 C   0  0  0  0  0  0  0  0  0  0  0  0
    8.8070   10.0369    0.0000 C   0  0  0  0  0  0  0  0  0  0  0  0
   13.1371    9.5369    0.0000 C   0  0  0  0  0  0  0  0  0  0  0  0
   10.5390   11.0369    0.0000 C   0  0  0  0  0  0  0  0  0  0  0  0
    8.8070   11.0369    0.0000 C   0  0  0  0  0  0  0  0  0  0  0  0
    9.6730   11.5369    0.0000 C   0  0  0  0  0  0  0  0  0  0  0  0
    9.8850    1.9543    0.0000 H   0  0  0  0  0  0  0  0  0  0  0  0
   10.2836    2.6446    0.0000 H   0  0  0  0  0  0  0  0  0  0  0  0
    8.3395    3.0119    0.0000 H   0  0  0  0  0  0  0  0  0  0  0  0
    7.5424    3.0119    0.0000 H   0  0  0  0  0  0  0  0  0  0  0  0
    9.0190    0.4543    0.0000 H   0  0  0  0  0  0  0  0  0  0  0  0
    9.4175    1.1446    0.0000 H   0  0  0  0  0  0  0  0  0  0  0  0
    9.4609    4.1195    0.0000 H   0  0  0  0  0  0  0  0  0  0  0  0
    9.0624    3.4293    0.0000 H   0  0  0  0  0  0  0  0  0  0  0  0
    6.7649    2.5739    0.0000 H   0  0  0  0  0  0  0  0  0  0  0  0
    6.5380    1.7269    0.0000 H   0  0  0  0  0  0  0  0  0  0  0  0
    7.3849    1.5000    0.0000 H   0  0  0  0  0  0  0  0  0  0  0  0
    7.6309    1.0739    0.0000 H   0  0  0  0  0  0  0  0  0  0  0  0
    7.4040    0.2269    0.0000 H   0  0  0  0  0  0  0  0  0  0  0  0
    8.2509    0.0000    0.0000 H   0  0  0  0  0  0  0  0  0  0  0  0
    1.1909    6.0266    0.0000 H   0  0  0  0  0  0  0  0  0  0  0  0
    0.7924    5.3363    0.0000 H   0  0  0  0  0  0  0  0  0  0  0  0
    2.3516    7.0220    0.0000 H   0  0  0  0  0  0  0  0  0  0  0  0
    1.6613    7.4206    0.0000 H   0  0  0  0  0  0  0  0  0  0  0  0
   11.9420    5.2269    0.0000 H   0  0  0  0  0  0  0  0  0  0  0  0
    9.1360    5.2269    0.0000 H   0  0  0  0  0  0  0  0  0  0  0  0
   11.9420    6.8469    0.0000 H   0  0  0  0  0  0  0  0  0  0  0  0
    9.1360    6.8469    0.0000 H   0  0  0  0  0  0  0  0  0  0  0  0
    2.4590    4.5410    0.0000 H   0  0  0  0  0  0  0  0  0  0  0  0
   12.2711    7.4169    0.0000 H   0  0  0  0  0  0  0  0  0  0  0  0
   10.8681    9.8469    0.0000 H   0  0  0  0  0  0  0  0  0  0  0  0
    4.5380    6.2540    0.0000 H   0  0  0  0  0  0  0  0  0  0  0  0
   13.6740    8.2269    0.0000 H   0  0  0  0  0  0  0  0  0  0  0  0
   12.2711   10.6569    0.0000 H   0  0  0  0  0  0  0  0  0  0  0  0
   11.0759    9.7269    0.0000 H   0  0  0  0  0  0  0  0  0  0  0  0
    8.2700    9.7269    0.0000 H   0  0  0  0  0  0  0  0  0  0  0  0
   13.6740    9.8469    0.0000 H   0  0  0  0  0  0  0  0  0  0  0  0
    0.0000    4.2540    0.0000 H   0  0  0  0  0  0  0  0  0  0  0  0
    0.5790    8.2130    0.0000 H   0  0  0  0  0  0  0  0  0  0  0  0
   11.0759   11.3469    0.0000 H   0  0  0  0  0  0  0  0  0  0  0  0
    8.2700   11.3469    0.0000 H   0  0  0  0  0  0  0  0  0  0  0  0
    9.6730   12.1569    0.0000 H   0  0  0  0  0  0  0  0  0  0  0  0
  1 31  1  0  0  0  0
  2 14  1  0  0  0  0
  2 20  1  0  0  0  0
  3 15  1  0  0  0  0
  3 65  1  0  0  0  0
  4 23  1  0  0  0  0
  4 68  1  0  0  0  0
  5 23  2  0  0  0  0
  6 29  1  0  0  0  0
  6 74  1  0  0  0  0
  7 30  1  0  0  0  0
  7 75  1  0  0  0  0
  8 29  2  0  0  0  0
  9 30  2  0  0  0  0
 10 11  1  0  0  0  0
 10 12  1  0  0  0  0
 10 13  1  0  0  0  0
 11 14  1  0  0  0  0
 11 43  1  0  0  0  0
 11 44  1  0  0  0  0
 12 16  1  0  0  0  0
 12 47  1  0  0  0  0
 12 48  1  0  0  0  0
 13 17  1  0  0  0  0
 13 45  1  0  0  0  0
 13 46  1  0  0  0  0
 14 49  1  0  0  0  0
 14 50  1  0  0  0  0
 15 18  1  0  0  0  0
 15 19  1  0  0  0  0
 15 23  1  0  0  0  0
 16 54  1  0  0  0  0
 16 55  1  0  0  0  0
 16 56  1  0  0  0  0
 17 51  1  0  0  0  0
 17 52  1  0  0  0  0
 17 53  1  0  0  0  0
 18 29  1  0  0  0  0
 18 57  1  0  0  0  0
 18 58  1  0  0  0  0
 19 30  1  0  0  0  0
 19 59  1  0  0  0  0
 19 60  1  0  0  0  0
 20 24  2  0  0  0  0
 20 25  1  0  0  0  0
 21 22  1  0  0  0  0
 21 26  2  0  0  0  0
 21 27  1  0  0  0  0
 22 28  1  0  0  0  0
 22 31  2  0  0  0  0
 24 26  1  0  0  0  0
 24 61  1  0  0  0  0
 25 27  2  0  0  0  0
 25 62  1  0  0  0  0
 26 63  1  0  0  0  0
 27 64  1  0  0  0  0
 28 33  2  0  0  0  0
 28 34  1  0  0  0  0
 31 32  1  0  0  0  0
 32 37  2  0  0  0  0
 32 38  1  0  0  0  0
 33 35  1  0  0  0  0
 33 66  1  0  0  0  0
 34 36  2  0  0  0  0
 34 67  1  0  0  0  0
 35 39  2  0  0  0  0
 35 69  1  0  0  0  0
 36 39  1  0  0  0  0
 36 70  1  0  0  0  0
 37 40  1  0  0  0  0
 37 71  1  0  0  0  0
 38 41  2  0  0  0  0
 38 72  1  0  0  0  0
 39 73  1  0  0  0  0
 40 42  2  0  0  0  0
 40 76  1  0  0  0  0
 41 42  1  0  0  0  0
 41 77  1  0  0  0  0
 42 78  1  0  0  0  0
M  END
> <PUBCHEM_COMPOUND_CID>
3033832

> <PUBCHEM_COMPOUND_CANONICALIZED>
1

> <PUBCHEM_CACTVS_COMPLEXITY>
708

> <PUBCHEM_CACTVS_HBOND_ACCEPTOR>
9

> <PUBCHEM_CACTVS_HBOND_DONOR>
4

> <PUBCHEM_CACTVS_ROTATABLE_BOND>
14

> <PUBCHEM_CACTVS_SUBSKEYS>
AAADcfB+PAAEAAAAAAAAAAAAAAAAAAAAAAAwYMAAAAAAAAABUAAAHgIACAAADEbhmAYyDoMABgCIAiDSCAICCAAgIAAIiAFOCogPJjaFMRqDeCCl4BGZqAfL5uAOIAAAAAAAAABAAAAAAAAAAAAAAAAAAA==

> <PUBCHEM_IUPAC_OPENEYE_NAME>
2-[4-[(Z)-2-chloro-1,2-diphenyl-vinyl]phenoxy]-N,N-diethyl-ethanamine; citric acid

> <PUBCHEM_IUPAC_CAS_NAME>
2-[4-[(Z)-2-chloro-1,2-diphenylethenyl]phenoxy]-N,N-diethylethanamine; 2-hydroxypropane-1,2,3-tricarboxylic acid

> <PUBCHEM_IUPAC_NAME>
2-[4-[(Z)-2-chloro-1,2-diphenylethenyl]phenoxy]-N,N-diethylethanamine; 2-hydroxypropane-1,2,3-tricarboxylic acid

> <PUBCHEM_IUPAC_SYSTEMATIC_NAME>
2-[4-[(Z)-2-chloranyl-1,2-diphenyl-ethenyl]phenoxy]-N,N-diethyl-ethanamine; 2-oxidanylpropane-1,2,3-tricarboxylic acid

> <PUBCHEM_IUPAC_TRADITIONAL_NAME>
2-[4-[(Z)-2-chloro-1,2-diphenyl-vinyl]phenoxy]ethyl-diethyl-amine; citric acid

> <PUBCHEM_IUPAC_INCHI>
InChI=1S/C26H28ClNO.C6H8O7/c1-3-28(4-2)19-20-29-24-17-15-22(16-18-24)25(21-11-7-5-8-12-21)26(27)23-13-9-6-10-14-23;7-3(8)1-6(13,5(11)12)2-4(9)10/h5-18H,3-4,19-20H2,1-2H3;13H,1-2H2,(H,7,8)(H,9,10)(H,11,12)/b26-25-;

> <PUBCHEM_IUPAC_INCHIKEY>
PYTMYKVIJXPNBD-OQKDUQJOSA-N

> <PUBCHEM_EXACT_MASS>
597.212945

> <PUBCHEM_MOLECULAR_FORMULA>
C32H36ClNO8

> <PUBCHEM_MOLECULAR_WEIGHT>
598.08314

> <PUBCHEM_OPENEYE_CAN_SMILES>
CCN(CC)CCOC1=CC=C(C=C1)C(=C(C2=CC=CC=C2)Cl)C3=CC=CC=C3.C(C(=O)O)C(CC(=O)O)(C(=O)O)O

> <PUBCHEM_OPENEYE_ISO_SMILES>
CCN(CC)CCOC1=CC=C(C=C1)/C(=C(/C2=CC=CC=C2)\Cl)/C3=CC=CC=C3.C(C(=O)O)C(CC(=O)O)(C(=O)O)O

> <PUBCHEM_CACTVS_TPSA>
145

> <PUBCHEM_MONOISOTOPIC_WEIGHT>
597.212945

> <PUBCHEM_TOTAL_CHARGE>
0

> <PUBCHEM_HEAVY_ATOM_COUNT>
42

> <PUBCHEM_ATOM_DEF_STEREO_COUNT>
0

> <PUBCHEM_ATOM_UDEF_STEREO_COUNT>
0

> <PUBCHEM_BOND_DEF_STEREO_COUNT>
1

> <PUBCHEM_BOND_UDEF_STEREO_COUNT>
0

> <PUBCHEM_ISOTOPIC_ATOM_COUNT>
0

> <PUBCHEM_COMPONENT_COUNT>
2

> <PUBCHEM_CACTVS_TAUTO_COUNT>
1

> <PUBCHEM_COORDINATE_TYPE>
1
5
255

> <PUBCHEM_BONDANNOTATIONS>
20  24  8
20  25  8
21  26  8
21  27  8
24  26  8
25  27  8
28  33  8
28  34  8
32  37  8
32  38  8
33  35  8
34  36  8
35  39  8
36  39  8
37  40  8
38  41  8
40  42  8
41  42  8

$$$$

