126540
  -OEChem-07051212592D

 48 51  0     1  0  0  0  0  0999 V2000
    6.3582   -0.2169    0.0000 O   0  0  0  0  0  0  0  0  0  0  0  0
    8.5022    1.8516    0.0000 O   0  0  0  0  0  0  0  0  0  0  0  0
    6.5460    2.2674    0.0000 O   0  0  0  0  0  0  0  0  0  0  0  0
    2.8687    0.6873    0.0000 O   0  0  0  0  0  0  0  0  0  0  0  0
   11.1418   -0.4926    0.0000 O   0  0  0  0  0  0  0  0  0  0  0  0
    6.8550    1.3163    0.0000 C   0  0  1  0  0  0  0  0  0  0  0  0
    7.1640    0.3653    0.0000 C   0  0  2  0  0  0  0  0  0  0  0  0
    5.8609    1.3138    0.0000 C   0  0  0  0  0  0  0  0  0  0  0  0
    7.5241    2.0595    0.0000 C   0  0  0  0  0  0  0  0  0  0  0  0
    5.5545    0.3681    0.0000 C   0  0  0  0  0  0  0  0  0  0  0  0
    8.1421    0.1574    0.0000 C   0  0  0  0  0  0  0  0  0  0  0  0
    8.8113    0.9005    0.0000 C   0  0  0  0  0  0  0  0  0  0  0  0
    4.5453    0.1363    0.0000 C   0  0  0  0  0  0  0  0  0  0  0  0
    5.1793    2.0933    0.0000 C   0  0  0  0  0  0  0  0  0  0  0  0
    8.4487   -0.8381    0.0000 C   0  0  0  0  0  0  0  0  0  0  0  0
    3.8459    0.8999    0.0000 C   0  0  0  0  0  0  0  0  0  0  0  0
    4.1650    1.8849    0.0000 C   0  0  0  0  0  0  0  0  0  0  0  0
    4.2482   -0.8185    0.0000 C   0  0  0  0  0  0  0  0  0  0  0  0
    9.8334    0.6997    0.0000 C   0  0  0  0  0  0  0  0  0  0  0  0
    9.4659   -1.0625    0.0000 C   0  0  0  0  0  0  0  0  0  0  0  0
   10.1629   -0.2885    0.0000 C   0  0  0  0  0  0  0  0  0  0  0  0
    3.2727   -1.0386    0.0000 C   0  0  0  0  0  0  0  0  0  0  0  0
    2.9755   -1.9934    0.0000 C   0  0  0  0  0  0  0  0  0  0  0  0
    2.1961    1.4273    0.0000 C   0  0  0  0  0  0  0  0  0  0  0  0
    2.0000   -2.2134    0.0000 C   0  0  0  0  0  0  0  0  0  0  0  0
    3.6538   -2.7282    0.0000 C   0  0  0  0  0  0  0  0  0  0  0  0
    7.3396   -0.4664    0.0000 H   0  0  0  0  0  0  0  0  0  0  0  0
    7.7564    2.6343    0.0000 H   0  0  0  0  0  0  0  0  0  0  0  0
    6.9983    2.3880    0.0000 H   0  0  0  0  0  0  0  0  0  0  0  0
    5.3772    2.6808    0.0000 H   0  0  0  0  0  0  0  0  0  0  0  0
    6.9608    2.7282    0.0000 H   0  0  0  0  0  0  0  0  0  0  0  0
    8.0285   -1.2940    0.0000 H   0  0  0  0  0  0  0  0  0  0  0  0
    3.7515    2.3469    0.0000 H   0  0  0  0  0  0  0  0  0  0  0  0
    4.2775   -1.4378    0.0000 H   0  0  0  0  0  0  0  0  0  0  0  0
    4.8631   -0.8972    0.0000 H   0  0  0  0  0  0  0  0  0  0  0  0
   10.2429    1.1652    0.0000 H   0  0  0  0  0  0  0  0  0  0  0  0
    9.6552   -1.6529    0.0000 H   0  0  0  0  0  0  0  0  0  0  0  0
    2.8521   -0.5830    0.0000 H   0  0  0  0  0  0  0  0  0  0  0  0
    2.6549    1.8443    0.0000 H   0  0  0  0  0  0  0  0  0  0  0  0
    1.7791    1.8861    0.0000 H   0  0  0  0  0  0  0  0  0  0  0  0
    1.7373    1.0103    0.0000 H   0  0  0  0  0  0  0  0  0  0  0  0
   11.3357   -1.0815    0.0000 H   0  0  0  0  0  0  0  0  0  0  0  0
    3.1982   -3.1487    0.0000 H   0  0  0  0  0  0  0  0  0  0  0  0
    4.0744   -3.1837    0.0000 H   0  0  0  0  0  0  0  0  0  0  0  0
    4.1094   -2.3076    0.0000 H   0  0  0  0  0  0  0  0  0  0  0  0
    1.8636   -1.6086    0.0000 H   0  0  0  0  0  0  0  0  0  0  0  0
    1.3952   -2.3499    0.0000 H   0  0  0  0  0  0  0  0  0  0  0  0
    2.1364   -2.8182    0.0000 H   0  0  0  0  0  0  0  0  0  0  0  0
  1  7  1  0  0  0  0
  1 10  1  0  0  0  0
  2  9  1  0  0  0  0
  2 12  1  0  0  0  0
  6  3  1  1  0  0  0
  3 31  1  0  0  0  0
  4 16  1  0  0  0  0
  4 24  1  0  0  0  0
  5 21  1  0  0  0  0
  5 42  1  0  0  0  0
  6  7  1  0  0  0  0
  6  8  1  0  0  0  0
  6  9  1  0  0  0  0
  7 11  1  0  0  0  0
  7 27  1  1  0  0  0
  8 10  2  0  0  0  0
  8 14  1  0  0  0  0
  9 28  1  0  0  0  0
  9 29  1  0  0  0  0
 10 13  1  0  0  0  0
 11 12  2  0  0  0  0
 11 15  1  0  0  0  0
 12 19  1  0  0  0  0
 13 16  2  0  0  0  0
 13 18  1  0  0  0  0
 14 17  2  0  0  0  0
 14 30  1  0  0  0  0
 15 20  2  0  0  0  0
 15 32  1  0  0  0  0
 16 17  1  0  0  0  0
 17 33  1  0  0  0  0
 18 22  1  0  0  0  0
 18 34  1  0  0  0  0
 18 35  1  0  0  0  0
 19 21  2  0  0  0  0
 19 36  1  0  0  0  0
 20 21  1  0  0  0  0
 20 37  1  0  0  0  0
 22 23  2  0  0  0  0
 22 38  1  0  0  0  0
 23 25  1  0  0  0  0
 23 26  1  0  0  0  0
 24 39  1  0  0  0  0
 24 40  1  0  0  0  0
 24 41  1  0  0  0  0
 25 46  1  0  0  0  0
 25 47  1  0  0  0  0
 25 48  1  0  0  0  0
 26 43  1  0  0  0  0
 26 44  1  0  0  0  0
 26 45  1  0  0  0  0
M  END
> <PUBCHEM_COMPOUND_CID>
126540

> <PUBCHEM_COMPOUND_CANONICALIZED>
1

> <PUBCHEM_CACTVS_COMPLEXITY>
545

> <PUBCHEM_CACTVS_HBOND_ACCEPTOR>
5

> <PUBCHEM_CACTVS_HBOND_DONOR>
2

> <PUBCHEM_CACTVS_ROTATABLE_BOND>
3

> <PUBCHEM_CACTVS_SUBSKEYS>
AAADceB4OAAAAAAAAAAAAAAAAAAAASAAAAA0YIAAAAAAAEiRQAAAGgAACAAADFSgmAIyBoAABgCAAiBCAAACCAAgIAAIiAAGCIgNJyKGMRqCeCClwBULuAfA4PwOoAACCAAIAABAAAQQABAAAAAAAAAAAA==

> <PUBCHEM_IUPAC_OPENEYE_NAME>
(6aS,11aS)-9-methoxy-10-(3-methylbut-2-enyl)-6,11a-dihydrobenzofuro[3,2-c]chromene-3,6a-diol

> <PUBCHEM_IUPAC_CAS_NAME>
(6aS,11aS)-9-methoxy-10-(3-methylbut-2-enyl)-6,11a-dihydrobenzofuro[3,2-c][1]benzopyran-3,6a-diol

> <PUBCHEM_IUPAC_NAME>
(6aS,11aS)-9-methoxy-10-(3-methylbut-2-enyl)-6,11a-dihydro-[1]benzofuro[3,2-c]chromene-3,6a-diol

> <PUBCHEM_IUPAC_SYSTEMATIC_NAME>
(6aS,11aS)-9-methoxy-10-(3-methylbut-2-enyl)-6,11a-dihydro-[1]benzofuro[3,2-c]chromene-3,6a-diol

> <PUBCHEM_IUPAC_TRADITIONAL_NAME>
(6aS,11aS)-9-methoxy-10-(3-methylbut-2-enyl)-6,11a-dihydrobenzofuro[3,2-c]chromene-3,6a-diol

> <PUBCHEM_IUPAC_INCHI>
InChI=1S/C21H22O5/c1-12(2)4-6-14-17(24-3)9-8-16-19(14)26-20-15-7-5-13(22)10-18(15)25-11-21(16,20)23/h4-5,7-10,20,22-23H,6,11H2,1-3H3/t20-,21+/m0/s1

> <PUBCHEM_IUPAC_INCHIKEY>
ZHPYEBFYLDGZKF-LEWJYISDSA-N

> <PUBCHEM_XLOGP3_AA>
3.5

> <PUBCHEM_EXACT_MASS>
354.146724

> <PUBCHEM_MOLECULAR_FORMULA>
C21H22O5

> <PUBCHEM_MOLECULAR_WEIGHT>
354.39638

> <PUBCHEM_OPENEYE_CAN_SMILES>
CC(=CCC1=C(C=CC2=C1OC3C2(COC4=C3C=CC(=C4)O)O)OC)C

> <PUBCHEM_OPENEYE_ISO_SMILES>
CC(=CCC1=C(C=CC2=C1O[C@@H]3[C@]2(COC4=C3C=CC(=C4)O)O)OC)C

> <PUBCHEM_CACTVS_TPSA>
68.2

> <PUBCHEM_MONOISOTOPIC_WEIGHT>
354.146724

> <PUBCHEM_TOTAL_CHARGE>
0

> <PUBCHEM_HEAVY_ATOM_COUNT>
26

> <PUBCHEM_ATOM_DEF_STEREO_COUNT>
2

> <PUBCHEM_ATOM_UDEF_STEREO_COUNT>
0

> <PUBCHEM_BOND_DEF_STEREO_COUNT>
0

> <PUBCHEM_BOND_UDEF_STEREO_COUNT>
0

> <PUBCHEM_ISOTOPIC_ATOM_COUNT>
0

> <PUBCHEM_COMPONENT_COUNT>
1

> <PUBCHEM_CACTVS_TAUTO_COUNT>
3

> <PUBCHEM_COORDINATE_TYPE>
1
5
255

> <PUBCHEM_BONDANNOTATIONS>
10  13  8
11  12  8
11  15  8
12  19  8
13  16  8
14  17  8
15  20  8
16  17  8
19  21  8
20  21  8
6  3  5
7  27  5
8  10  8
8  14  8

$$$$

