5282291
  -OEChem-07051213042D

124123  0     1  0  0  0  0  0999 V2000
    5.1350   -4.0000    0.0000 P   0  0  3  0  0  0  0  0  0  0  0  0
    8.5991   -2.0000    0.0000 O   0  0  0  0  0  0  0  0  0  0  0  0
    8.5991   -4.0000    0.0000 O   0  0  0  0  0  0  0  0  0  0  0  0
    7.7331   -0.5000    0.0000 O   0  0  0  0  0  0  0  0  0  0  0  0
    6.0010   -3.5000    0.0000 O   0  0  0  0  0  0  0  0  0  0  0  0
    9.4651   -2.5000    0.0000 O   0  0  0  0  0  0  0  0  0  0  0  0
    4.6350   -3.1340    0.0000 O   0  0  0  0  0  0  0  0  0  0  0  0
    5.6350   -4.8660    0.0000 O   0  0  0  0  0  0  0  0  0  0  0  0
    2.5369   -4.5000    0.0000 N   0  0  0  0  0  0  0  0  0  0  0  0
   12.0632    4.0000    0.0000 C   0  0  0  0  0  0  0  0  0  0  0  0
   12.0632    5.0000    0.0000 C   0  0  0  0  0  0  0  0  0  0  0  0
   11.1972    3.5000    0.0000 C   0  0  0  0  0  0  0  0  0  0  0  0
   12.9292    5.5000    0.0000 C   0  0  0  0  0  0  0  0  0  0  0  0
   11.1972    2.5000    0.0000 C   0  0  0  0  0  0  0  0  0  0  0  0
   12.9292    6.5000    0.0000 C   0  0  0  0  0  0  0  0  0  0  0  0
   10.3312    2.0000    0.0000 C   0  0  0  0  0  0  0  0  0  0  0  0
   13.7953    7.0000    0.0000 C   0  0  0  0  0  0  0  0  0  0  0  0
   10.3312    1.0000    0.0000 C   0  0  0  0  0  0  0  0  0  0  0  0
   13.7953    8.0000    0.0000 C   0  0  0  0  0  0  0  0  0  0  0  0
   14.6613    8.5000    0.0000 C   0  0  0  0  0  0  0  0  0  0  0  0
    9.4651    0.5000    0.0000 C   0  0  0  0  0  0  0  0  0  0  0  0
   14.6613    9.5000    0.0000 C   0  0  0  0  0  0  0  0  0  0  0  0
    9.4651   -0.5000    0.0000 C   0  0  0  0  0  0  0  0  0  0  0  0
   12.9292   -3.5000    0.0000 C   0  0  0  0  0  0  0  0  0  0  0  0
   13.7953   -4.0000    0.0000 C   0  0  0  0  0  0  0  0  0  0  0  0
   12.0632   -4.0000    0.0000 C   0  0  0  0  0  0  0  0  0  0  0  0
   18.1254   -6.5000    0.0000 C   0  0  0  0  0  0  0  0  0  0  0  0
   18.9914   -7.0000    0.0000 C   0  0  0  0  0  0  0  0  0  0  0  0
   14.6613   -3.5000    0.0000 C   0  0  0  0  0  0  0  0  0  0  0  0
   18.1254   -5.5000    0.0000 C   0  0  0  0  0  0  0  0  0  0  0  0
   18.9914   -8.0000    0.0000 C   0  0  0  0  0  0  0  0  0  0  0  0
   11.1972   -3.5000    0.0000 C   0  0  0  0  0  0  0  0  0  0  0  0
   15.5273   -4.0000    0.0000 C   0  0  0  0  0  0  0  0  0  0  0  0
   17.2594   -5.0000    0.0000 C   0  0  0  0  0  0  0  0  0  0  0  0
   19.8574   -8.5000    0.0000 C   0  0  0  0  0  0  0  0  0  0  0  0
   15.5273   10.0000    0.0000 C   0  0  0  0  0  0  0  0  0  0  0  0
    8.5991   -1.0000    0.0000 C   0  0  0  0  0  0  0  0  0  0  0  0
   10.3312   -4.0000    0.0000 C   0  0  0  0  0  0  0  0  0  0  0  0
    7.7331   -3.5000    0.0000 C   0  0  3  0  0  0  0  0  0  0  0  0
   16.3933   -3.5000    0.0000 C   0  0  0  0  0  0  0  0  0  0  0  0
   17.2594   -4.0000    0.0000 C   0  0  0  0  0  0  0  0  0  0  0  0
   19.8574   -9.5000    0.0000 C   0  0  0  0  0  0  0  0  0  0  0  0
    7.7331   -2.5000    0.0000 C   0  0  0  0  0  0  0  0  0  0  0  0
    9.4651   -3.5000    0.0000 C   0  0  0  0  0  0  0  0  0  0  0  0
    6.8671   -4.0000    0.0000 C   0  0  0  0  0  0  0  0  0  0  0  0
   20.7235  -10.0000    0.0000 C   0  0  0  0  0  0  0  0  0  0  0  0
    4.2690   -4.5000    0.0000 C   0  0  0  0  0  0  0  0  0  0  0  0
    3.4030   -4.0000    0.0000 C   0  0  0  0  0  0  0  0  0  0  0  0
   12.2753    3.4174    0.0000 H   0  0  0  0  0  0  0  0  0  0  0  0
   12.6738    4.1077    0.0000 H   0  0  0  0  0  0  0  0  0  0  0  0
   11.8512    5.5826    0.0000 H   0  0  0  0  0  0  0  0  0  0  0  0
   11.4526    4.8923    0.0000 H   0  0  0  0  0  0  0  0  0  0  0  0
   10.9851    4.0826    0.0000 H   0  0  0  0  0  0  0  0  0  0  0  0
   10.5866    3.3923    0.0000 H   0  0  0  0  0  0  0  0  0  0  0  0
   13.1413    4.9174    0.0000 H   0  0  0  0  0  0  0  0  0  0  0  0
   13.5398    5.6077    0.0000 H   0  0  0  0  0  0  0  0  0  0  0  0
   11.4092    1.9174    0.0000 H   0  0  0  0  0  0  0  0  0  0  0  0
   11.8078    2.6077    0.0000 H   0  0  0  0  0  0  0  0  0  0  0  0
   12.7172    7.0826    0.0000 H   0  0  0  0  0  0  0  0  0  0  0  0
   12.3187    6.3923    0.0000 H   0  0  0  0  0  0  0  0  0  0  0  0
   10.1191    2.5826    0.0000 H   0  0  0  0  0  0  0  0  0  0  0  0
    9.7206    1.8923    0.0000 H   0  0  0  0  0  0  0  0  0  0  0  0
   14.0073    6.4174    0.0000 H   0  0  0  0  0  0  0  0  0  0  0  0
   14.4058    7.1077    0.0000 H   0  0  0  0  0  0  0  0  0  0  0  0
   10.5432    0.4174    0.0000 H   0  0  0  0  0  0  0  0  0  0  0  0
   10.9417    1.1077    0.0000 H   0  0  0  0  0  0  0  0  0  0  0  0
   13.5832    8.5826    0.0000 H   0  0  0  0  0  0  0  0  0  0  0  0
   13.1847    7.8923    0.0000 H   0  0  0  0  0  0  0  0  0  0  0  0
   14.8733    7.9174    0.0000 H   0  0  0  0  0  0  0  0  0  0  0  0
   15.2719    8.6077    0.0000 H   0  0  0  0  0  0  0  0  0  0  0  0
    9.2531    1.0826    0.0000 H   0  0  0  0  0  0  0  0  0  0  0  0
    8.8546    0.3923    0.0000 H   0  0  0  0  0  0  0  0  0  0  0  0
   14.4492   10.0826    0.0000 H   0  0  0  0  0  0  0  0  0  0  0  0
   14.0507    9.3923    0.0000 H   0  0  0  0  0  0  0  0  0  0  0  0
    9.6772   -1.0826    0.0000 H   0  0  0  0  0  0  0  0  0  0  0  0
   10.0757   -0.3923    0.0000 H   0  0  0  0  0  0  0  0  0  0  0  0
   13.3278   -3.0250    0.0000 H   0  0  0  0  0  0  0  0  0  0  0  0
   12.5307   -3.0250    0.0000 H   0  0  0  0  0  0  0  0  0  0  0  0
   13.3967   -4.4750    0.0000 H   0  0  0  0  0  0  0  0  0  0  0  0
   14.1938   -4.4750    0.0000 H   0  0  0  0  0  0  0  0  0  0  0  0
   11.6647   -4.4750    0.0000 H   0  0  0  0  0  0  0  0  0  0  0  0
   12.4617   -4.4750    0.0000 H   0  0  0  0  0  0  0  0  0  0  0  0
   19.6020   -7.1077    0.0000 H   0  0  0  0  0  0  0  0  0  0  0  0
   19.2035   -6.4174    0.0000 H   0  0  0  0  0  0  0  0  0  0  0  0
   17.5148   -6.3923    0.0000 H   0  0  0  0  0  0  0  0  0  0  0  0
   17.9133   -7.0826    0.0000 H   0  0  0  0  0  0  0  0  0  0  0  0
   15.0598   -3.0250    0.0000 H   0  0  0  0  0  0  0  0  0  0  0  0
   14.2628   -3.0250    0.0000 H   0  0  0  0  0  0  0  0  0  0  0  0
   18.7360   -5.6077    0.0000 H   0  0  0  0  0  0  0  0  0  0  0  0
   18.3374   -4.9174    0.0000 H   0  0  0  0  0  0  0  0  0  0  0  0
   18.3808   -7.8923    0.0000 H   0  0  0  0  0  0  0  0  0  0  0  0
   18.7794   -8.5826    0.0000 H   0  0  0  0  0  0  0  0  0  0  0  0
   11.5957   -3.0250    0.0000 H   0  0  0  0  0  0  0  0  0  0  0  0
   10.7987   -3.0250    0.0000 H   0  0  0  0  0  0  0  0  0  0  0  0
   15.1288   -4.4750    0.0000 H   0  0  0  0  0  0  0  0  0  0  0  0
   15.9258   -4.4750    0.0000 H   0  0  0  0  0  0  0  0  0  0  0  0
   16.6488   -4.8923    0.0000 H   0  0  0  0  0  0  0  0  0  0  0  0
   17.0473   -5.5826    0.0000 H   0  0  0  0  0  0  0  0  0  0  0  0
   20.4680   -8.6077    0.0000 H   0  0  0  0  0  0  0  0  0  0  0  0
   20.0695   -7.9174    0.0000 H   0  0  0  0  0  0  0  0  0  0  0  0
   15.8373    9.4631    0.0000 H   0  0  0  0  0  0  0  0  0  0  0  0
   16.0643   10.3100    0.0000 H   0  0  0  0  0  0  0  0  0  0  0  0
   15.2173   10.5369    0.0000 H   0  0  0  0  0  0  0  0  0  0  0  0
    9.9326   -4.4750    0.0000 H   0  0  0  0  0  0  0  0  0  0  0  0
   10.7297   -4.4750    0.0000 H   0  0  0  0  0  0  0  0  0  0  0  0
    7.7331   -4.3500    0.0000 H   0  0  0  0  0  0  0  0  0  0  0  0
   16.3933   -2.8800    0.0000 H   0  0  0  0  0  0  0  0  0  0  0  0
   17.7963   -3.6900    0.0000 H   0  0  0  0  0  0  0  0  0  0  0  0
   19.2469   -9.3923    0.0000 H   0  0  0  0  0  0  0  0  0  0  0  0
   19.6454  -10.0826    0.0000 H   0  0  0  0  0  0  0  0  0  0  0  0
    7.5210   -1.9174    0.0000 H   0  0  0  0  0  0  0  0  0  0  0  0
    7.1225   -2.6077    0.0000 H   0  0  0  0  0  0  0  0  0  0  0  0
    6.4685   -4.4750    0.0000 H   0  0  0  0  0  0  0  0  0  0  0  0
    7.2656   -4.4750    0.0000 H   0  0  0  0  0  0  0  0  0  0  0  0
   20.4135  -10.5369    0.0000 H   0  0  0  0  0  0  0  0  0  0  0  0
   21.2604  -10.3100    0.0000 H   0  0  0  0  0  0  0  0  0  0  0  0
   21.0335   -9.4631    0.0000 H   0  0  0  0  0  0  0  0  0  0  0  0
    3.8705   -4.9750    0.0000 H   0  0  0  0  0  0  0  0  0  0  0  0
    4.6675   -4.9750    0.0000 H   0  0  0  0  0  0  0  0  0  0  0  0
    3.8015   -3.5250    0.0000 H   0  0  0  0  0  0  0  0  0  0  0  0
    3.0044   -3.5250    0.0000 H   0  0  0  0  0  0  0  0  0  0  0  0
    4.9450   -2.5970    0.0000 H   0  0  0  0  0  0  0  0  0  0  0  0
    2.0000   -4.1900    0.0000 H   0  0  0  0  0  0  0  0  0  0  0  0
    2.5369   -5.1200    0.0000 H   0  0  0  0  0  0  0  0  0  0  0  0
  1  5  1  0  0  0  0
  1  7  1  0  0  0  0
  1  8  2  0  0  0  0
  1 47  1  0  0  0  0
  2 37  1  0  0  0  0
  2 43  1  0  0  0  0
  3 39  1  0  0  0  0
  3 44  1  0  0  0  0
  4 37  2  0  0  0  0
  5 45  1  0  0  0  0
  6 44  2  0  0  0  0
  7122  1  0  0  0  0
  9 48  1  0  0  0  0
  9123  1  0  0  0  0
  9124  1  0  0  0  0
 10 11  1  0  0  0  0
 10 12  1  0  0  0  0
 10 49  1  0  0  0  0
 10 50  1  0  0  0  0
 11 13  1  0  0  0  0
 11 51  1  0  0  0  0
 11 52  1  0  0  0  0
 12 14  1  0  0  0  0
 12 53  1  0  0  0  0
 12 54  1  0  0  0  0
 13 15  1  0  0  0  0
 13 55  1  0  0  0  0
 13 56  1  0  0  0  0
 14 16  1  0  0  0  0
 14 57  1  0  0  0  0
 14 58  1  0  0  0  0
 15 17  1  0  0  0  0
 15 59  1  0  0  0  0
 15 60  1  0  0  0  0
 16 18  1  0  0  0  0
 16 61  1  0  0  0  0
 16 62  1  0  0  0  0
 17 19  1  0  0  0  0
 17 63  1  0  0  0  0
 17 64  1  0  0  0  0
 18 21  1  0  0  0  0
 18 65  1  0  0  0  0
 18 66  1  0  0  0  0
 19 20  1  0  0  0  0
 19 67  1  0  0  0  0
 19 68  1  0  0  0  0
 20 22  1  0  0  0  0
 20 69  1  0  0  0  0
 20 70  1  0  0  0  0
 21 23  1  0  0  0  0
 21 71  1  0  0  0  0
 21 72  1  0  0  0  0
 22 36  1  0  0  0  0
 22 73  1  0  0  0  0
 22 74  1  0  0  0  0
 23 37  1  0  0  0  0
 23 75  1  0  0  0  0
 23 76  1  0  0  0  0
 24 25  1  0  0  0  0
 24 26  1  0  0  0  0
 24 77  1  0  0  0  0
 24 78  1  0  0  0  0
 25 29  1  0  0  0  0
 25 79  1  0  0  0  0
 25 80  1  0  0  0  0
 26 32  1  0  0  0  0
 26 81  1  0  0  0  0
 26 82  1  0  0  0  0
 27 28  1  0  0  0  0
 27 30  1  0  0  0  0
 27 85  1  0  0  0  0
 27 86  1  0  0  0  0
 28 31  1  0  0  0  0
 28 83  1  0  0  0  0
 28 84  1  0  0  0  0
 29 33  1  0  0  0  0
 29 87  1  0  0  0  0
 29 88  1  0  0  0  0
 30 34  1  0  0  0  0
 30 89  1  0  0  0  0
 30 90  1  0  0  0  0
 31 35  1  0  0  0  0
 31 91  1  0  0  0  0
 31 92  1  0  0  0  0
 32 38  1  0  0  0  0
 32 93  1  0  0  0  0
 32 94  1  0  0  0  0
 33 40  1  0  0  0  0
 33 95  1  0  0  0  0
 33 96  1  0  0  0  0
 34 41  1  0  0  0  0
 34 97  1  0  0  0  0
 34 98  1  0  0  0  0
 35 42  1  0  0  0  0
 35 99  1  0  0  0  0
 35100  1  0  0  0  0
 36101  1  0  0  0  0
 36102  1  0  0  0  0
 36103  1  0  0  0  0
 38 44  1  0  0  0  0
 38104  1  0  0  0  0
 38105  1  0  0  0  0
 39 43  1  0  0  0  0
 39 45  1  0  0  0  0
 39106  1  0  0  0  0
 40 41  2  0  0  0  0
 40107  1  0  0  0  0
 41108  1  0  0  0  0
 42 46  1  0  0  0  0
 42109  1  0  0  0  0
 42110  1  0  0  0  0
 43111  1  0  0  0  0
 43112  1  0  0  0  0
 45113  1  0  0  0  0
 45114  1  0  0  0  0
 46115  1  0  0  0  0
 46116  1  0  0  0  0
 46117  1  0  0  0  0
 47 48  1  0  0  0  0
 47118  1  0  0  0  0
 47119  1  0  0  0  0
 48120  1  0  0  0  0
 48121  1  0  0  0  0
M  END
> <PUBCHEM_COMPOUND_CID>
5282291

> <PUBCHEM_COMPOUND_CANONICALIZED>
1

> <PUBCHEM_CACTVS_COMPLEXITY>
807

> <PUBCHEM_CACTVS_HBOND_ACCEPTOR>
8

> <PUBCHEM_CACTVS_HBOND_DONOR>
2

> <PUBCHEM_CACTVS_ROTATABLE_BOND>
39

> <PUBCHEM_CACTVS_SUBSKEYS>
AAADcfB+OAIAAAAAAAAAAAAAAAAAAAAAAAAAAAAAAAAAAAAAAAAAHggQCCAACBTpgAYCCABABRCIQCDSCIAAAAAgAAAICIEAAAgBABIAAQACAAAFkAAKAAOIyKCAAAAAAAAAAAAAAAAAAAAAAAAAAAAAAA==

> <PUBCHEM_IUPAC_OPENEYE_NAME>
2-aminoethyl-[3-hexadecanoyloxy-2-[(Z)-octadec-9-enoyl]oxy-propoxy]phosphinic acid

> <PUBCHEM_IUPAC_CAS_NAME>
2-aminoethyl-[3-(1-oxohexadecoxy)-2-[(Z)-1-oxooctadec-9-enoxy]propoxy]phosphinic acid

> <PUBCHEM_IUPAC_NAME>
2-aminoethyl-[3-hexadecanoyloxy-2-[(Z)-octadec-9-enoyl]oxypropoxy]phosphinic acid

> <PUBCHEM_IUPAC_SYSTEMATIC_NAME>
2-azanylethyl-[3-hexadecanoyloxy-2-[(Z)-octadec-9-enoyl]oxy-propoxy]phosphinic acid

> <PUBCHEM_IUPAC_TRADITIONAL_NAME>
2-aminoethyl-[3-hexadecanoyloxy-2-[(Z)-octadec-9-enoyl]oxy-propoxy]phosphinic acid

> <PUBCHEM_IUPAC_INCHI>
InChI=1S/C39H76NO7P/c1-3-5-7-9-11-13-15-17-18-20-22-24-26-28-30-32-39(42)47-37(36-46-48(43,44)34-33-40)35-45-38(41)31-29-27-25-23-21-19-16-14-12-10-8-6-4-2/h17-18,37H,3-16,19-36,40H2,1-2H3,(H,43,44)/b18-17-

> <PUBCHEM_IUPAC_INCHIKEY>
ITQDKQBSRNKQCX-ZCXUNETKSA-N

> <PUBCHEM_XLOGP3_AA>
10.4

> <PUBCHEM_EXACT_MASS>
701.53594

> <PUBCHEM_MOLECULAR_FORMULA>
C39H76NO7P

> <PUBCHEM_MOLECULAR_WEIGHT>
701.997002

> <PUBCHEM_OPENEYE_CAN_SMILES>
CCCCCCCCCCCCCCCC(=O)OCC(COP(=O)(CCN)O)OC(=O)CCCCCCCC=CCCCCCCCC

> <PUBCHEM_OPENEYE_ISO_SMILES>
CCCCCCCCCCCCCCCC(=O)OCC(COP(=O)(CCN)O)OC(=O)CCCCCCC/C=C\CCCCCCCC

> <PUBCHEM_CACTVS_TPSA>
125

> <PUBCHEM_MONOISOTOPIC_WEIGHT>
701.53594

> <PUBCHEM_TOTAL_CHARGE>
0

> <PUBCHEM_HEAVY_ATOM_COUNT>
48

> <PUBCHEM_ATOM_DEF_STEREO_COUNT>
0

> <PUBCHEM_ATOM_UDEF_STEREO_COUNT>
1

> <PUBCHEM_BOND_DEF_STEREO_COUNT>
1

> <PUBCHEM_BOND_UDEF_STEREO_COUNT>
0

> <PUBCHEM_ISOTOPIC_ATOM_COUNT>
0

> <PUBCHEM_COMPONENT_COUNT>
1

> <PUBCHEM_CACTVS_TAUTO_COUNT>
1

> <PUBCHEM_COORDINATE_TYPE>
1
5
255

> <PUBCHEM_BONDANNOTATIONS>
39  106  3

$$$$

