17395614
  -OEChem-06241222512D

 44 47  0     0  0  0  0  0  0999 V2000
    2.0000   -2.4739    0.0000 Cl  0  0  0  0  0  0  0  0  0  0  0  0
    5.4064    3.7307    0.0000 S   0  0  0  0  0  0  0  0  0  0  0  0
    7.0820    1.2466    0.0000 O   0  0  0  0  0  0  0  0  0  0  0  0
    4.5981   -0.9739    0.0000 N   0  0  0  0  0  0  0  0  0  0  0  0
    5.5116   -1.3806    0.0000 N   0  0  0  0  0  0  0  0  0  0  0  0
    5.4997    1.9511    0.0000 N   0  0  0  0  0  0  0  0  0  0  0  0
    6.8846    3.0726    0.0000 N   0  0  0  0  0  0  0  0  0  0  0  0
    3.7320   -1.4739    0.0000 C   0  0  0  0  0  0  0  0  0  0  0  0
    5.6808    0.2286    0.0000 C   0  0  0  0  0  0  0  0  0  0  0  0
    6.1808   -0.6374    0.0000 C   0  0  0  0  0  0  0  0  0  0  0  0
    4.7026    0.0207    0.0000 C   0  0  0  0  0  0  0  0  0  0  0  0
    3.7320   -2.4739    0.0000 C   0  0  0  0  0  0  0  0  0  0  0  0
    7.1753   -0.7420    0.0000 C   0  0  0  0  0  0  0  0  0  0  0  0
    6.0875    1.1421    0.0000 C   0  0  0  0  0  0  0  0  0  0  0  0
    2.8660   -2.9739    0.0000 C   0  0  0  0  0  0  0  0  0  0  0  0
    4.5981   -2.9739    0.0000 C   0  0  0  0  0  0  0  0  0  0  0  0
    7.5820   -1.6555    0.0000 C   0  0  0  0  0  0  0  0  0  0  0  0
    7.7631    0.0670    0.0000 C   0  0  0  0  0  0  0  0  0  0  0  0
    5.9064    2.8647    0.0000 C   0  0  0  0  0  0  0  0  0  0  0  0
    6.0756    4.4739    0.0000 C   0  0  0  0  0  0  0  0  0  0  0  0
    6.9891    4.0671    0.0000 C   0  0  0  0  0  0  0  0  0  0  0  0
    2.8660   -3.9739    0.0000 C   0  0  0  0  0  0  0  0  0  0  0  0
    4.5981   -3.9739    0.0000 C   0  0  0  0  0  0  0  0  0  0  0  0
    8.5765   -1.7600    0.0000 C   0  0  0  0  0  0  0  0  0  0  0  0
    8.7576   -0.0375    0.0000 C   0  0  0  0  0  0  0  0  0  0  0  0
    3.7320   -4.4739    0.0000 C   0  0  0  0  0  0  0  0  0  0  0  0
    9.1643   -0.9510    0.0000 C   0  0  0  0  0  0  0  0  0  0  0  0
    3.5200   -0.8912    0.0000 H   0  0  0  0  0  0  0  0  0  0  0  0
    3.1215   -1.5815    0.0000 H   0  0  0  0  0  0  0  0  0  0  0  0
    4.2419    0.4355    0.0000 H   0  0  0  0  0  0  0  0  0  0  0  0
    4.8831    1.8863    0.0000 H   0  0  0  0  0  0  0  0  0  0  0  0
    5.1350   -2.6639    0.0000 H   0  0  0  0  0  0  0  0  0  0  0  0
    7.2176   -2.1571    0.0000 H   0  0  0  0  0  0  0  0  0  0  0  0
    7.5109    0.6334    0.0000 H   0  0  0  0  0  0  0  0  0  0  0  0
    6.3856    5.0108    0.0000 H   0  0  0  0  0  0  0  0  0  0  0  0
    5.5740    4.8383    0.0000 H   0  0  0  0  0  0  0  0  0  0  0  0
    7.5956    3.9382    0.0000 H   0  0  0  0  0  0  0  0  0  0  0  0
    7.1807    4.6568    0.0000 H   0  0  0  0  0  0  0  0  0  0  0  0
    2.3291   -4.2839    0.0000 H   0  0  0  0  0  0  0  0  0  0  0  0
    5.1350   -4.2839    0.0000 H   0  0  0  0  0  0  0  0  0  0  0  0
    8.8287   -2.3264    0.0000 H   0  0  0  0  0  0  0  0  0  0  0  0
    9.1220    0.4641    0.0000 H   0  0  0  0  0  0  0  0  0  0  0  0
    3.7320   -5.0939    0.0000 H   0  0  0  0  0  0  0  0  0  0  0  0
    9.7809   -1.0158    0.0000 H   0  0  0  0  0  0  0  0  0  0  0  0
  1 15  1  0  0  0  0
  2 19  1  0  0  0  0
  2 20  1  0  0  0  0
  3 14  2  0  0  0  0
  4  5  1  0  0  0  0
  4  8  1  0  0  0  0
  4 11  1  0  0  0  0
  5 10  2  0  0  0  0
  6 14  1  0  0  0  0
  6 19  1  0  0  0  0
  6 31  1  0  0  0  0
  7 19  2  0  0  0  0
  7 21  1  0  0  0  0
  8 12  1  0  0  0  0
  8 28  1  0  0  0  0
  8 29  1  0  0  0  0
  9 10  1  0  0  0  0
  9 11  2  0  0  0  0
  9 14  1  0  0  0  0
 10 13  1  0  0  0  0
 11 30  1  0  0  0  0
 12 15  1  0  0  0  0
 12 16  2  0  0  0  0
 13 17  2  0  0  0  0
 13 18  1  0  0  0  0
 15 22  2  0  0  0  0
 16 23  1  0  0  0  0
 16 32  1  0  0  0  0
 17 24  1  0  0  0  0
 17 33  1  0  0  0  0
 18 25  2  0  0  0  0
 18 34  1  0  0  0  0
 20 21  1  0  0  0  0
 20 35  1  0  0  0  0
 20 36  1  0  0  0  0
 21 37  1  0  0  0  0
 21 38  1  0  0  0  0
 22 26  1  0  0  0  0
 22 39  1  0  0  0  0
 23 26  2  0  0  0  0
 23 40  1  0  0  0  0
 24 27  2  0  0  0  0
 24 41  1  0  0  0  0
 25 27  1  0  0  0  0
 25 42  1  0  0  0  0
 26 43  1  0  0  0  0
 27 44  1  0  0  0  0
M  END
> <PUBCHEM_COMPOUND_CID>
17395614

> <PUBCHEM_COMPOUND_CANONICALIZED>
1

> <PUBCHEM_CACTVS_COMPLEXITY>
554

> <PUBCHEM_CACTVS_HBOND_ACCEPTOR>
4

> <PUBCHEM_CACTVS_HBOND_DONOR>
1

> <PUBCHEM_CACTVS_ROTATABLE_BOND>
5

> <PUBCHEM_CACTVS_SUBSKEYS>
AAADceB7oABEAAAAAAAAAAAAAAAAAWIAAAAwYAAAAAAAAAAB0AAAHgYYAAAADArF3iS9gJLIAAiqAzV3dACSFAF1hRAZ2CEoRtgIILrB29GEpYhgiADIyccYiMCOAAAAAAABAAAAAAAAAAIAAAAAAAAAAA==

> <PUBCHEM_IUPAC_OPENEYE_NAME>
1-[(2-chlorophenyl)methyl]-N-(4,5-dihydrothiazol-2-yl)-3-phenyl-pyrazole-4-carboxamide

> <PUBCHEM_IUPAC_CAS_NAME>
1-[(2-chlorophenyl)methyl]-N-(4,5-dihydrothiazol-2-yl)-3-phenyl-4-pyrazolecarboxamide

> <PUBCHEM_IUPAC_NAME>
1-[(2-chlorophenyl)methyl]-N-(4,5-dihydro-1,3-thiazol-2-yl)-3-phenylpyrazole-4-carboxamide

> <PUBCHEM_IUPAC_SYSTEMATIC_NAME>
1-[(2-chlorophenyl)methyl]-N-(4,5-dihydro-1,3-thiazol-2-yl)-3-phenyl-pyrazole-4-carboxamide

> <PUBCHEM_IUPAC_TRADITIONAL_NAME>
1-(2-chlorobenzyl)-3-phenyl-N-(2-thiazolin-2-yl)pyrazole-4-carboxamide

> <PUBCHEM_IUPAC_INCHI>
InChI=1S/C20H17ClN4OS/c21-17-9-5-4-8-15(17)12-25-13-16(19(26)23-20-22-10-11-27-20)18(24-25)14-6-2-1-3-7-14/h1-9,13H,10-12H2,(H,22,23,26)

> <PUBCHEM_IUPAC_INCHIKEY>
TUTMHXGIPFZRNQ-UHFFFAOYSA-N

> <PUBCHEM_XLOGP3_AA>
3.8

> <PUBCHEM_EXACT_MASS>
396.08116

> <PUBCHEM_MOLECULAR_FORMULA>
C20H17ClN4OS

> <PUBCHEM_MOLECULAR_WEIGHT>
396.89318

> <PUBCHEM_OPENEYE_CAN_SMILES>
C1CSC(=N1)NC(=O)C2=CN(N=C2C3=CC=CC=C3)CC4=CC=CC=C4Cl

> <PUBCHEM_OPENEYE_ISO_SMILES>
C1CSC(=N1)NC(=O)C2=CN(N=C2C3=CC=CC=C3)CC4=CC=CC=C4Cl

> <PUBCHEM_CACTVS_TPSA>
84.6

> <PUBCHEM_MONOISOTOPIC_WEIGHT>
396.08116

> <PUBCHEM_TOTAL_CHARGE>
0

> <PUBCHEM_HEAVY_ATOM_COUNT>
27

> <PUBCHEM_ATOM_DEF_STEREO_COUNT>
0

> <PUBCHEM_ATOM_UDEF_STEREO_COUNT>
0

> <PUBCHEM_BOND_DEF_STEREO_COUNT>
0

> <PUBCHEM_BOND_UDEF_STEREO_COUNT>
0

> <PUBCHEM_ISOTOPIC_ATOM_COUNT>
0

> <PUBCHEM_COMPONENT_COUNT>
1

> <PUBCHEM_CACTVS_TAUTO_COUNT>
3

> <PUBCHEM_COORDINATE_TYPE>
1
5
255

> <PUBCHEM_BONDANNOTATIONS>
12  15  8
12  16  8
13  17  8
13  18  8
15  22  8
16  23  8
17  24  8
18  25  8
22  26  8
23  26  8
24  27  8
25  27  8
4  11  8
4  5  8
5  10  8
9  10  8
9  11  8

$$$$

