5280403
  -OEChem-07051212453D

 40 42  0     0  0  0  0  0  0999 V2000
   -0.3504   -3.2970   -0.2999 S   0  0  0  0  0  0  0  0  0  0  0  0
    5.9479    0.2769   -0.1109 S   0  0  0  0  0  0  0  0  0  0  0  0
   -1.4324    1.4471   -0.2091 O   0  0  0  0  0  0  0  0  0  0  0  0
   -0.2678   -1.9533    0.6087 O   0  0  0  0  0  0  0  0  0  0  0  0
   -5.4425   -1.1736    0.5252 O   0  0  0  0  0  0  0  0  0  0  0  0
   -3.0376   -2.1814    0.7191 O   0  0  0  0  0  0  0  0  0  0  0  0
    4.8626    1.4812   -0.3832 O   0  0  0  0  0  0  0  0  0  0  0  0
   -5.7268    3.4336   -0.5875 O   0  0  0  0  0  0  0  0  0  0  0  0
    3.5538    1.7864    2.0483 O   0  0  0  0  0  0  0  0  0  0  0  0
    0.8654   -4.2304    0.2613 O   0  0  0  0  0  0  0  0  0  0  0  0
   -0.0549   -2.9574   -1.6797 O   0  0  0  0  0  0  0  0  0  0  0  0
   -1.5982   -3.9572    0.0362 O   0  0  0  0  0  0  0  0  0  0  0  0
    7.3947    1.0278   -0.1964 O   0  0  0  0  0  0  0  0  0  0  0  0
    5.7793   -0.2136    1.2447 O   0  0  0  0  0  0  0  0  0  0  0  0
    5.8716   -0.6450   -1.2293 O   0  0  0  0  0  0  0  0  0  0  0  0
   -0.6312    0.3414    0.0286 C   0  0  0  0  0  0  0  0  0  0  0  0
   -3.4038    0.0826    0.1696 C   0  0  0  0  0  0  0  0  0  0  0  0
   -2.7932    1.2958   -0.1402 C   0  0  0  0  0  0  0  0  0  0  0  0
    0.8079    0.6412   -0.0762 C   0  0  0  0  0  0  0  0  0  0  0  0
   -1.0935   -0.8817    0.3458 C   0  0  0  0  0  0  0  0  0  0  0  0
   -2.5586   -1.0914    0.4363 C   0  0  0  0  0  0  0  0  0  0  0  0
   -4.7965   -0.0122    0.2267 C   0  0  0  0  0  0  0  0  0  0  0  0
   -3.5728    2.4244   -0.3949 C   0  0  0  0  0  0  0  0  0  0  0  0
    1.5134    1.0770    1.0457 C   0  0  0  0  0  0  0  0  0  0  0  0
    1.4654    0.4885   -1.2972 C   0  0  0  0  0  0  0  0  0  0  0  0
   -5.5741    1.1179   -0.0290 C   0  0  0  0  0  0  0  0  0  0  0  0
   -4.9637    2.3339   -0.3391 C   0  0  0  0  0  0  0  0  0  0  0  0
    2.8757    1.3599    0.9467 C   0  0  0  0  0  0  0  0  0  0  0  0
    3.5328    1.2072   -0.2742 C   0  0  0  0  0  0  0  0  0  0  0  0
    2.8276    0.7715   -1.3961 C   0  0  0  0  0  0  0  0  0  0  0  0
   -3.0995    3.3728   -0.6364 H   0  0  0  0  0  0  0  0  0  0  0  0
    1.0086    1.1993    2.0015 H   0  0  0  0  0  0  0  0  0  0  0  0
    0.9290    0.1502   -2.1803 H   0  0  0  0  0  0  0  0  0  0  0  0
   -6.6583    1.0457    0.0150 H   0  0  0  0  0  0  0  0  0  0  0  0
    3.3321    0.6522   -2.3510 H   0  0  0  0  0  0  0  0  0  0  0  0
   -4.8054   -1.8881    0.6774 H   0  0  0  0  0  0  0  0  0  0  0  0
   -6.6652    3.1913   -0.5059 H   0  0  0  0  0  0  0  0  0  0  0  0
    4.4771    1.9584    1.7950 H   0  0  0  0  0  0  0  0  0  0  0  0
    0.9237   -4.3003    1.2431 H   0  0  0  0  0  0  0  0  0  0  0  0
    7.5109    1.6313   -0.9674 H   0  0  0  0  0  0  0  0  0  0  0  0
  1  4  1  0  0  0  0
  1 10  1  0  0  0  0
  1 11  2  0  0  0  0
  1 12  2  0  0  0  0
  2  7  1  0  0  0  0
  2 13  1  0  0  0  0
  2 14  2  0  0  0  0
  2 15  2  0  0  0  0
  3 16  1  0  0  0  0
  3 18  1  0  0  0  0
  4 20  1  0  0  0  0
  5 22  1  0  0  0  0
  5 36  1  0  0  0  0
  6 21  2  0  0  0  0
  7 29  1  0  0  0  0
  8 27  1  0  0  0  0
  8 37  1  0  0  0  0
  9 28  1  0  0  0  0
  9 38  1  0  0  0  0
 10 39  1  0  0  0  0
 13 40  1  0  0  0  0
 16 19  1  0  0  0  0
 16 20  2  0  0  0  0
 17 18  1  0  0  0  0
 17 21  1  0  0  0  0
 17 22  2  0  0  0  0
 18 23  2  0  0  0  0
 19 24  2  0  0  0  0
 19 25  1  0  0  0  0
 20 21  1  0  0  0  0
 22 26  1  0  0  0  0
 23 27  1  0  0  0  0
 23 31  1  0  0  0  0
 24 28  1  0  0  0  0
 24 32  1  0  0  0  0
 25 30  2  0  0  0  0
 25 33  1  0  0  0  0
 26 27  2  0  0  0  0
 26 34  1  0  0  0  0
 28 29  2  0  0  0  0
 29 30  1  0  0  0  0
 30 35  1  0  0  0  0
M  END
> <PUBCHEM_COMPOUND_CID>
5280403

> <PUBCHEM_CONFORMER_RMSD>
0.8

> <PUBCHEM_CONFORMER_DIVERSEORDER>
1
4
13
17
9
12
19
15
11
5
21
7
22
3
16
14
8
6
2
10
20
18

> <PUBCHEM_MMFF94_PARTIAL_CHARGES>
40
1 1.67
10 -0.68
11 -0.65
12 -0.65
13 -0.68
14 -0.65
15 -0.65
16 0.05
17 0.09
18 0.08
19 0.03
2 1.67
20 0.09
21 0.47
22 0.08
23 -0.15
24 -0.15
25 -0.15
26 -0.15
27 0.08
28 0.08
29 0.08
3 -0.16
30 -0.15
31 0.15
32 0.15
33 0.15
34 0.15
35 0.15
36 0.45
37 0.45
38 0.45
39 0.5
4 -0.26
40 0.5
5 -0.53
6 -0.57
7 -0.27
8 -0.53
9 -0.53

> <PUBCHEM_EFFECTIVE_ROTOR_COUNT>
5

> <PUBCHEM_PHARMACOPHORE_FEATURES>
16
1 10 acceptor
1 11 acceptor
1 12 acceptor
1 13 acceptor
1 14 acceptor
1 15 acceptor
1 3 acceptor
1 5 donor
1 6 acceptor
1 8 donor
1 9 donor
4 1 10 11 12 anion
4 2 13 14 15 anion
6 17 18 22 23 26 27 rings
6 19 24 25 28 29 30 rings
6 3 16 17 18 20 21 rings

> <PUBCHEM_HEAVY_ATOM_COUNT>
30

> <PUBCHEM_ATOM_DEF_STEREO_COUNT>
0

> <PUBCHEM_ATOM_UDEF_STEREO_COUNT>
0

> <PUBCHEM_BOND_DEF_STEREO_COUNT>
0

> <PUBCHEM_BOND_UDEF_STEREO_COUNT>
0

> <PUBCHEM_ISOTOPIC_ATOM_COUNT>
0

> <PUBCHEM_COMPONENT_COUNT>
1

> <PUBCHEM_CACTVS_TAUTO_COUNT>
36

> <PUBCHEM_CONFORMER_ID>
0050929300000001

> <PUBCHEM_MMFF94_ENERGY>
82.8285

> <PUBCHEM_FEATURE_SELFOVERLAP>
81.37

> <PUBCHEM_SHAPE_FINGERPRINT>
10165383 225 18335695062369513001
10319926 262 18338809935159852648
10411042 1 17837204880096555483
10940486 97 18198616632446658956
11524674 6 18040437685328448822
11578080 2 16700349735441131367
11796584 16 18410007720417103370
12236239 1 17418093200222223428
12403259 415 18261114045310131121
12422481 6 17916316102332571090
12516196 113 9223223044529422709
12788726 201 17625529091137713123
13140716 1 18126001818379064393
13402501 40 18334570257051251892
13540713 4 18056185003395314489
13583140 156 17533503335874871560
13782708 43 18041559139759458439
15042514 8 18125435307492215787
15183329 4 18343582962602097032
15230672 131 18341049701377442210
15439362 3 18124879212158333981
15664445 248 17394722226192091823
15927050 60 18408888442559469607
17980427 23 17561075900433521365
18681886 176 18271808986445145992
20197701 30 18408322211239711630
20554085 129 18116169907144917233
21033648 29 18334305240310754600
21133410 52 15087774680686738828
21279426 13 18262790891263940254
21859007 373 18338813294067357912
23366157 5 17915456319148437067
23402539 116 18409169896081949205
23559900 14 18334857174158150064
3298306 158 18334293193011625238
338550 245 18271802389791682254
3411729 13 18199471145838023051
350125 39 18412825815145971665
38695281 34 18336829791943294727
4015057 19 16805892775176202904
4073 2 17845929620884486880
508706 21 18335977563163204830
5265222 85 18267856199920774420
532947 4 18263356048562026422
5385378 56 18265888236951861289
6669772 16 18113612426008901966
7226269 152 18186236229943465536
9981440 41 18343013407252654083

> <PUBCHEM_SHAPE_MULTIPOLES>
548.78
14.21
3.85
1.14
11.36
4.44
-0.03
-9.3
0.19
-3.46
0.33
1.18
-0.09
1.19

> <PUBCHEM_SHAPE_SELFOVERLAP>
1186.786

> <PUBCHEM_SHAPE_VOLUME>
301.3

> <PUBCHEM_COORDINATE_TYPE>
2
5
10

$$$$

