11920
  -OEChem-07051213003D

 19 19  0     0  0  0  0  0  0999 V2000
    1.0861    2.4957    0.6329 O   0  0  0  0  0  0  0  0  0  0  0  0
    1.7219   -2.1766   -0.3654 O   0  0  0  0  0  0  0  0  0  0  0  0
    2.4531   -0.1259    0.2875 O   0  0  0  0  0  0  0  0  0  0  0  0
   -0.2980    0.7881   -0.2754 C   0  0  0  0  0  0  0  0  0  0  0  0
    0.1107   -0.5171   -0.0018 C   0  0  0  0  0  0  0  0  0  0  0  0
    0.6970    1.8611   -0.5781 C   0  0  0  0  0  0  0  0  0  0  0  0
   -1.6552    1.1097   -0.2692 C   0  0  0  0  0  0  0  0  0  0  0  0
   -0.8379   -1.5009    0.2778 C   0  0  0  0  0  0  0  0  0  0  0  0
   -2.6039    0.1261    0.0106 C   0  0  0  0  0  0  0  0  0  0  0  0
   -2.1952   -1.1792    0.2840 C   0  0  0  0  0  0  0  0  0  0  0  0
    1.5212   -0.8809   -0.0028 C   0  0  0  0  0  0  0  0  0  0  0  0
    1.5735    1.5198   -1.1359 H   0  0  0  0  0  0  0  0  0  0  0  0
    0.2385    2.6283   -1.2133 H   0  0  0  0  0  0  0  0  0  0  0  0
   -1.9888    2.1229   -0.4778 H   0  0  0  0  0  0  0  0  0  0  0  0
   -0.5515   -2.5238    0.5077 H   0  0  0  0  0  0  0  0  0  0  0  0
   -3.6607    0.3767    0.0169 H   0  0  0  0  0  0  0  0  0  0  0  0
   -2.9340   -1.9441    0.5048 H   0  0  0  0  0  0  0  0  0  0  0  0
    1.4835    1.8210    1.2096 H   0  0  0  0  0  0  0  0  0  0  0  0
    2.6739   -2.4132   -0.3627 H   0  0  0  0  0  0  0  0  0  0  0  0
  1  6  1  0  0  0  0
  1 18  1  0  0  0  0
  2 11  1  0  0  0  0
  2 19  1  0  0  0  0
  3 11  2  0  0  0  0
  4  5  1  0  0  0  0
  4  6  1  0  0  0  0
  4  7  2  0  0  0  0
  5  8  2  0  0  0  0
  5 11  1  0  0  0  0
  6 12  1  0  0  0  0
  6 13  1  0  0  0  0
  7  9  1  0  0  0  0
  7 14  1  0  0  0  0
  8 10  1  0  0  0  0
  8 15  1  0  0  0  0
  9 10  2  0  0  0  0
  9 16  1  0  0  0  0
 10 17  1  0  0  0  0
M  END
> <PUBCHEM_COMPOUND_CID>
11920

> <PUBCHEM_CONFORMER_RMSD>
0.4

> <PUBCHEM_CONFORMER_DIVERSEORDER>
3
2
8
6
5
9
7
1
4

> <PUBCHEM_MMFF94_PARTIAL_CHARGES>
17
1 -0.68
10 -0.15
11 0.63
14 0.15
15 0.15
16 0.15
17 0.15
18 0.4
19 0.5
2 -0.65
3 -0.57
4 -0.14
5 0.09
6 0.42
7 -0.15
8 -0.15
9 -0.15

> <PUBCHEM_EFFECTIVE_ROTOR_COUNT>
2

> <PUBCHEM_PHARMACOPHORE_FEATURES>
6
1 1 acceptor
1 1 donor
1 2 acceptor
1 3 acceptor
3 2 3 11 anion
6 4 5 7 8 9 10 rings

> <PUBCHEM_HEAVY_ATOM_COUNT>
11

> <PUBCHEM_ATOM_DEF_STEREO_COUNT>
0

> <PUBCHEM_ATOM_UDEF_STEREO_COUNT>
0

> <PUBCHEM_BOND_DEF_STEREO_COUNT>
0

> <PUBCHEM_BOND_UDEF_STEREO_COUNT>
0

> <PUBCHEM_ISOTOPIC_ATOM_COUNT>
0

> <PUBCHEM_COMPONENT_COUNT>
1

> <PUBCHEM_CACTVS_TAUTO_COUNT>
1

> <PUBCHEM_CONFORMER_ID>
00002E9000000003

> <PUBCHEM_MMFF94_ENERGY>
33.9855

> <PUBCHEM_FEATURE_SELFOVERLAP>
30.505

> <PUBCHEM_SHAPE_FINGERPRINT>
12524768 44 18265054806674094887
161256 15 18269829831349777725
16945 1 18409728439456465999
193761 8 18267863874484181959
21040471 1 16682885298423607182
23552423 10 18129378190137130391
23559900 14 16388461391007787574
241688 4 18122904505990461547
2748010 2 18195529409495084791
29004967 10 18410009965756681835
66348 1 17980475659508680743

> <PUBCHEM_SHAPE_MULTIPOLES>
208.77
3.06
2.35
0.69
0.58
0.48
0
-0.55
-0.18
-0.98
-0.02
-0.04
0.11
0.31

> <PUBCHEM_SHAPE_SELFOVERLAP>
438.613

> <PUBCHEM_SHAPE_VOLUME>
117.4

> <PUBCHEM_COORDINATE_TYPE>
2
5
10

$$$$

