12532
  -OEChem-06261207033D

 54 53  0     0  0  0  0  0  0999 V2000
   11.1585   -0.8070    0.0188 N   0  0  0  0  0  0  0  0  0  0  0  0
   -1.2589    0.4264   -0.1370 C   0  0  0  0  0  0  0  0  0  0  0  0
    0.0499   -0.3694   -0.0998 C   0  0  0  0  0  0  0  0  0  0  0  0
   -2.5464   -0.4019   -0.0610 C   0  0  0  0  0  0  0  0  0  0  0  0
    1.2988    0.5149   -0.0985 C   0  0  0  0  0  0  0  0  0  0  0  0
   -3.8563    0.3924   -0.0289 C   0  0  0  0  0  0  0  0  0  0  0  0
    2.6082   -0.2813   -0.0511 C   0  0  0  0  0  0  0  0  0  0  0  0
   -5.1077   -0.4880   -0.0111 C   0  0  0  0  0  0  0  0  0  0  0  0
    3.8958    0.5492   -0.0234 C   0  0  0  0  0  0  0  0  0  0  0  0
   -6.4122    0.3141   -0.0716 C   0  0  0  0  0  0  0  0  0  0  0  0
    5.1707   -0.2975   -0.0387 C   0  0  0  0  0  0  0  0  0  0  0  0
   -7.6707   -0.5529    0.0165 C   0  0  0  0  0  0  0  0  0  0  0  0
    6.4197    0.5797    0.0770 C   0  0  0  0  0  0  0  0  0  0  0  0
   -8.9359    0.3097    0.0238 C   0  0  0  0  0  0  0  0  0  0  0  0
    7.7260   -0.2186    0.0327 C   0  0  0  0  0  0  0  0  0  0  0  0
  -10.2249   -0.5069    0.1398 C   0  0  0  0  0  0  0  0  0  0  0  0
    8.9768    0.6574    0.1260 C   0  0  0  0  0  0  0  0  0  0  0  0
  -11.4871    0.3408    0.1208 C   0  0  0  0  0  0  0  0  0  0  0  0
   10.1958   -0.1610    0.0657 C   0  0  0  0  0  0  0  0  0  0  0  0
   -1.2820    1.0280   -1.0543 H   0  0  0  0  0  0  0  0  0  0  0  0
   -1.2588    1.1380    0.6985 H   0  0  0  0  0  0  0  0  0  0  0  0
    0.0824   -1.0448   -0.9633 H   0  0  0  0  0  0  0  0  0  0  0  0
    0.0574   -1.0015    0.7966 H   0  0  0  0  0  0  0  0  0  0  0  0
   -2.5022   -1.0351    0.8342 H   0  0  0  0  0  0  0  0  0  0  0  0
   -2.5676   -1.0847   -0.9199 H   0  0  0  0  0  0  0  0  0  0  0  0
    1.2965    1.1463   -0.9952 H   0  0  0  0  0  0  0  0  0  0  0  0
    1.2622    1.1906    0.7647 H   0  0  0  0  0  0  0  0  0  0  0  0
   -3.8593    1.0459    0.8519 H   0  0  0  0  0  0  0  0  0  0  0  0
   -3.8917    1.0478   -0.9079 H   0  0  0  0  0  0  0  0  0  0  0  0
    2.5932   -0.9306    0.8336 H   0  0  0  0  0  0  0  0  0  0  0  0
    2.6407   -0.9480   -0.9223 H   0  0  0  0  0  0  0  0  0  0  0  0
   -5.0771   -1.1809   -0.8609 H   0  0  0  0  0  0  0  0  0  0  0  0
   -5.1002   -1.1013    0.8983 H   0  0  0  0  0  0  0  0  0  0  0  0
    3.9024    1.2265   -0.8864 H   0  0  0  0  0  0  0  0  0  0  0  0
    3.8870    1.1806    0.8736 H   0  0  0  0  0  0  0  0  0  0  0  0
   -6.4351    0.8936   -1.0029 H   0  0  0  0  0  0  0  0  0  0  0  0
   -6.4181    1.0395    0.7518 H   0  0  0  0  0  0  0  0  0  0  0  0
    5.1487   -1.0118    0.7930 H   0  0  0  0  0  0  0  0  0  0  0  0
    5.2118   -0.8811   -0.9661 H   0  0  0  0  0  0  0  0  0  0  0  0
   -7.6999   -1.2473   -0.8315 H   0  0  0  0  0  0  0  0  0  0  0  0
   -7.6361   -1.1578    0.9304 H   0  0  0  0  0  0  0  0  0  0  0  0
    6.3786    1.1483    1.0143 H   0  0  0  0  0  0  0  0  0  0  0  0
    6.4224    1.3131   -0.7390 H   0  0  0  0  0  0  0  0  0  0  0  0
   -8.8877    1.0189    0.8595 H   0  0  0  0  0  0  0  0  0  0  0  0
   -8.9706    0.9066   -0.8961 H   0  0  0  0  0  0  0  0  0  0  0  0
    7.7280   -0.9482    0.8532 H   0  0  0  0  0  0  0  0  0  0  0  0
    7.7577   -0.8009   -0.8977 H   0  0  0  0  0  0  0  0  0  0  0  0
  -10.2723   -1.2280   -0.6851 H   0  0  0  0  0  0  0  0  0  0  0  0
  -10.2029   -1.0889    1.0688 H   0  0  0  0  0  0  0  0  0  0  0  0
    8.9821    1.3844   -0.6940 H   0  0  0  0  0  0  0  0  0  0  0  0
    8.9613    1.2266    1.0624 H   0  0  0  0  0  0  0  0  0  0  0  0
  -11.4930    1.0500    0.9544 H   0  0  0  0  0  0  0  0  0  0  0  0
  -12.3740   -0.2948    0.2069 H   0  0  0  0  0  0  0  0  0  0  0  0
  -11.5625    0.9074   -0.8127 H   0  0  0  0  0  0  0  0  0  0  0  0
  1 19  3  0  0  0  0
  2  3  1  0  0  0  0
  2  4  1  0  0  0  0
  2 20  1  0  0  0  0
  2 21  1  0  0  0  0
  3  5  1  0  0  0  0
  3 22  1  0  0  0  0
  3 23  1  0  0  0  0
  4  6  1  0  0  0  0
  4 24  1  0  0  0  0
  4 25  1  0  0  0  0
  5  7  1  0  0  0  0
  5 26  1  0  0  0  0
  5 27  1  0  0  0  0
  6  8  1  0  0  0  0
  6 28  1  0  0  0  0
  6 29  1  0  0  0  0
  7  9  1  0  0  0  0
  7 30  1  0  0  0  0
  7 31  1  0  0  0  0
  8 10  1  0  0  0  0
  8 32  1  0  0  0  0
  8 33  1  0  0  0  0
  9 11  1  0  0  0  0
  9 34  1  0  0  0  0
  9 35  1  0  0  0  0
 10 12  1  0  0  0  0
 10 36  1  0  0  0  0
 10 37  1  0  0  0  0
 11 13  1  0  0  0  0
 11 38  1  0  0  0  0
 11 39  1  0  0  0  0
 12 14  1  0  0  0  0
 12 40  1  0  0  0  0
 12 41  1  0  0  0  0
 13 15  1  0  0  0  0
 13 42  1  0  0  0  0
 13 43  1  0  0  0  0
 14 16  1  0  0  0  0
 14 44  1  0  0  0  0
 14 45  1  0  0  0  0
 15 17  1  0  0  0  0
 15 46  1  0  0  0  0
 15 47  1  0  0  0  0
 16 18  1  0  0  0  0
 16 48  1  0  0  0  0
 16 49  1  0  0  0  0
 17 19  1  0  0  0  0
 17 50  1  0  0  0  0
 17 51  1  0  0  0  0
 18 52  1  0  0  0  0
 18 53  1  0  0  0  0
 18 54  1  0  0  0  0
M  END
> <PUBCHEM_COMPOUND_CID>
12532

> <PUBCHEM_CONFORMER_RMSD>
1.4

> <PUBCHEM_CONFORMER_DIVERSEORDER>
1
77
45
16
9
28
40
23
119
19
79
13
120
6
43
91
73
51
111
64
31
47
65
71
85
123
56
10
109
34
27
76
103
15
2
33
72
3
113
39
75
110
80
84
55
107
92
112
86
54
66
7
38
35
105
32
82
5
98
42
68
46
29
121
62
90
67
69
26
49
106
96
81
117
118
11
114
18
70
8
99
21
37
60
14
104
108
83
53
36
12
63
100
78
88
101
48
4
95
87
24
25
22
58
89
74
116
93
61
59
94
52
44
97
102
115
17
122
50
41
57
20
30
124
126
125

> <PUBCHEM_MMFF94_PARTIAL_CHARGES>
3
1 -0.56
17 0.2
19 0.36

> <PUBCHEM_EFFECTIVE_ROTOR_COUNT>
15

> <PUBCHEM_PHARMACOPHORE_FEATURES>
2
1 1 acceptor
1 18 hydrophobe

> <PUBCHEM_HEAVY_ATOM_COUNT>
19

> <PUBCHEM_ATOM_DEF_STEREO_COUNT>
0

> <PUBCHEM_ATOM_UDEF_STEREO_COUNT>
0

> <PUBCHEM_BOND_DEF_STEREO_COUNT>
0

> <PUBCHEM_BOND_UDEF_STEREO_COUNT>
0

> <PUBCHEM_ISOTOPIC_ATOM_COUNT>
0

> <PUBCHEM_COMPONENT_COUNT>
1

> <PUBCHEM_CACTVS_TAUTO_COUNT>
1

> <PUBCHEM_CONFORMER_ID>
000030F400000001

> <PUBCHEM_MMFF94_ENERGY>
-1.8784

> <PUBCHEM_FEATURE_SELFOVERLAP>
10.148

> <PUBCHEM_SHAPE_FINGERPRINT>
14251764 46 18410573985156732387
14251920 1 18410855468718096387
14344974 52 9295278439649174455
15061470 23 18335422369772948665
15510794 2 18408881836836081390
155225 1 8286196155381764026
232437 2 18272652346122505722
23521765 1 18335421261586372972
23528940 14 17968659304402847079
23581129 1 18411982459546632197
33684 2 18410573985156732389
67123 10 18410856555344822277
8209 1 18410575080368118124
9663363 56 14923944552532918971

> <PUBCHEM_SHAPE_MULTIPOLES>
386.03
48.33
0.82
0.62
3.16
0
0
-2.66
-2.74
-0.21
0
0.06
0
0.05

> <PUBCHEM_SHAPE_SELFOVERLAP>
693.927

> <PUBCHEM_SHAPE_VOLUME>
246.6

> <PUBCHEM_COORDINATE_TYPE>
2
5
10

$$$$

