10618
  -OEChem-06261204453D

 31 32  0     1  0  0  0  0  0999 V2000
    0.8448   -2.0780    0.0583 O   0  0  0  0  0  0  0  0  0  0  0  0
    0.6219    1.3810    0.1129 N   0  0  2  0  0  0  0  0  0  0  0  0
   -0.0173    0.1338    0.1774 N   0  0  0  0  0  0  0  0  0  0  0  0
    3.3928   -0.8669   -0.4009 N   0  0  0  0  0  0  0  0  0  0  0  0
    1.9659    1.1416   -0.1635 C   0  0  0  0  0  0  0  0  0  0  0  0
    2.2566   -0.1674   -0.1988 C   0  0  0  0  0  0  0  0  0  0  0  0
    0.9573   -0.8623    0.0561 C   0  0  0  0  0  0  0  0  0  0  0  0
   -1.4185   -0.0329    0.0441 C   0  0  0  0  0  0  0  0  0  0  0  0
    0.2249    2.4163    1.0622 C   0  0  0  0  0  0  0  0  0  0  0  0
    2.9313    2.2657   -0.3379 C   0  0  0  0  0  0  0  0  0  0  0  0
   -2.0186   -1.2494    0.3834 C   0  0  0  0  0  0  0  0  0  0  0  0
   -2.2109    1.0185   -0.4266 C   0  0  0  0  0  0  0  0  0  0  0  0
    3.6411   -2.1815    0.1536 C   0  0  0  0  0  0  0  0  0  0  0  0
   -3.3977   -1.4130    0.2531 C   0  0  0  0  0  0  0  0  0  0  0  0
   -3.5901    0.8551   -0.5567 C   0  0  0  0  0  0  0  0  0  0  0  0
   -4.1835   -0.3607   -0.2169 C   0  0  0  0  0  0  0  0  0  0  0  0
    0.4446    3.4071    0.6506 H   0  0  0  0  0  0  0  0  0  0  0  0
    0.7784    2.3037    2.0019 H   0  0  0  0  0  0  0  0  0  0  0  0
   -0.8376    2.3957    1.3157 H   0  0  0  0  0  0  0  0  0  0  0  0
    3.9265    1.9143   -0.6270 H   0  0  0  0  0  0  0  0  0  0  0  0
    3.0377    2.8333    0.5919 H   0  0  0  0  0  0  0  0  0  0  0  0
    2.5826    2.9464   -1.1215 H   0  0  0  0  0  0  0  0  0  0  0  0
    4.2113   -0.3260   -0.6625 H   0  0  0  0  0  0  0  0  0  0  0  0
   -1.4472   -2.0822    0.7800 H   0  0  0  0  0  0  0  0  0  0  0  0
   -1.7847    1.9677   -0.7385 H   0  0  0  0  0  0  0  0  0  0  0  0
    4.7152   -2.3908    0.1196 H   0  0  0  0  0  0  0  0  0  0  0  0
    3.1411   -2.9570   -0.4342 H   0  0  0  0  0  0  0  0  0  0  0  0
    3.3255   -2.2456    1.2002 H   0  0  0  0  0  0  0  0  0  0  0  0
   -3.8611   -2.3574    0.5235 H   0  0  0  0  0  0  0  0  0  0  0  0
   -4.2013    1.6712   -0.9307 H   0  0  0  0  0  0  0  0  0  0  0  0
   -5.2572   -0.4881   -0.3188 H   0  0  0  0  0  0  0  0  0  0  0  0
  1  7  2  0  0  0  0
  2  3  1  0  0  0  0
  2  5  1  0  0  0  0
  2  9  1  0  0  0  0
  3  7  1  0  0  0  0
  3  8  1  0  0  0  0
  4  6  1  0  0  0  0
  4 13  1  0  0  0  0
  4 23  1  0  0  0  0
  5  6  2  0  0  0  0
  5 10  1  0  0  0  0
  6  7  1  0  0  0  0
  8 11  2  0  0  0  0
  8 12  1  0  0  0  0
  9 17  1  0  0  0  0
  9 18  1  0  0  0  0
  9 19  1  0  0  0  0
 10 20  1  0  0  0  0
 10 21  1  0  0  0  0
 10 22  1  0  0  0  0
 11 14  1  0  0  0  0
 11 24  1  0  0  0  0
 12 15  2  0  0  0  0
 12 25  1  0  0  0  0
 13 26  1  0  0  0  0
 13 27  1  0  0  0  0
 13 28  1  0  0  0  0
 14 16  2  0  0  0  0
 14 29  1  0  0  0  0
 15 16  1  0  0  0  0
 15 30  1  0  0  0  0
 16 31  1  0  0  0  0
M  END
> <PUBCHEM_COMPOUND_CID>
10618

> <PUBCHEM_CONFORMER_RMSD>
0.6

> <PUBCHEM_CONFORMER_DIVERSEORDER>
2
1
4
3

> <PUBCHEM_MMFF94_PARTIAL_CHARGES>
22
1 -0.57
10 0.14
11 -0.15
12 -0.15
13 0.37
14 -0.15
15 -0.15
16 -0.15
2 -0.49
23 0.4
24 0.15
25 0.15
29 0.15
3 -0.16
30 0.15
31 0.15
4 -0.87
5 -0.04
6 0.11
7 0.62
8 0.12
9 0.37

> <PUBCHEM_EFFECTIVE_ROTOR_COUNT>
2

> <PUBCHEM_PHARMACOPHORE_FEATURES>
5
1 1 acceptor
1 4 cation
1 4 donor
5 2 3 5 6 7 rings
6 8 11 12 14 15 16 rings

> <PUBCHEM_HEAVY_ATOM_COUNT>
16

> <PUBCHEM_ATOM_DEF_STEREO_COUNT>
0

> <PUBCHEM_ATOM_UDEF_STEREO_COUNT>
0

> <PUBCHEM_BOND_DEF_STEREO_COUNT>
0

> <PUBCHEM_BOND_UDEF_STEREO_COUNT>
0

> <PUBCHEM_ISOTOPIC_ATOM_COUNT>
0

> <PUBCHEM_COMPONENT_COUNT>
1

> <PUBCHEM_CACTVS_TAUTO_COUNT>
1

> <PUBCHEM_CONFORMER_ID>
0000297A00000002

> <PUBCHEM_MMFF94_ENERGY>
61.482

> <PUBCHEM_FEATURE_SELFOVERLAP>
25.371

> <PUBCHEM_SHAPE_FINGERPRINT>
10130415 120 18335984254552881417
10608611 8 18342461422065895957
10967382 1 18338516318109628680
11471102 20 18409733937194024485
116883 192 17972027304355886820
12032990 46 18408882970670179894
13140716 1 18409163341850650520
13296908 3 18410292493232319607
14115302 16 18129932489899940767
14325111 11 18340768148220330077
14617773 55 17822836680412254784
15196674 1 18411981339135232911
15219456 202 18341894052543361781
15442244 35 18337951306588034953
15536298 74 18408604742873101484
15775835 57 18190737536084270757
16945 1 18269273637084689208
18186145 218 18410000027223451452
200 152 18113345215150758863
20201158 50 18411418453326980015
20645477 70 18408040701956120639
20671657 53 18338230587152676206
21267235 1 18410846694306132687
21501502 16 18410572877524733393
21501925 9 18409456890365486866
221490 88 18341887455178670370
2334 1 18337951182128662528
23402539 116 18191877940138162286
23402655 69 18408328774498353189
23419403 2 17828522298406005576
23463225 33 18410292531749972718
23559900 14 18410580625756433834
2748010 2 18339359669329643668
2871803 45 18200039439295567975
335352 9 18267585899905740037
5104073 3 18412261718879381745
53812653 166 18190462645071262064
5493415 88 18410014350934017930
7364860 26 18409168783880117264
81228 2 17829598805887750552
8809292 202 18272646857439372083
93112 12 18413952793253213863
9709674 26 18271241612801698675

> <PUBCHEM_SHAPE_MULTIPOLES>
308.46
6.87
2.49
0.74
2.46
0.31
-0.06
-1.83
0.95
-1.99
-0.35
0.07
0.21
0.18

> <PUBCHEM_SHAPE_SELFOVERLAP>
653.323

> <PUBCHEM_SHAPE_VOLUME>
174.5

> <PUBCHEM_COORDINATE_TYPE>
2
5
10

$$$$

