226014
  -OEChem-07051213073D

 54 57  0     1  0  0  0  0  0999 V2000
    0.8143   -0.0895   -1.4662 F   0  0  0  0  0  0  0  0  0  0  0  0
   -0.2536   -2.0553    1.3474 O   0  0  0  0  0  0  0  0  0  0  0  0
   -5.5636   -0.1370    0.5549 O   0  0  0  0  0  0  0  0  0  0  0  0
    6.0251   -0.0621   -1.1002 O   0  0  0  0  0  0  0  0  0  0  0  0
   -1.4537    1.0629   -0.2477 C   0  0  2  0  0  0  0  0  0  0  0  0
   -2.3429   -0.1625    0.0440 C   0  0  2  0  0  0  0  0  0  0  0  0
   -0.0737    0.9838    0.4195 C   0  0  1  0  0  0  0  0  0  0  0  0
    0.6700   -0.2878   -0.1007 C   0  0  2  0  0  0  0  0  0  0  0  0
    2.1430   -0.4075    0.4676 C   0  0  2  0  0  0  0  0  0  0  0  0
   -1.6344   -1.4014   -0.5310 C   0  0  0  0  0  0  0  0  0  0  0  0
   -3.6135    0.2653   -0.7279 C   0  0  2  0  0  0  0  0  0  0  0  0
   -0.1980   -1.5770    0.0121 C   0  0  2  0  0  0  0  0  0  0  0  0
   -2.3673    2.2438    0.0650 C   0  0  0  0  0  0  0  0  0  0  0  0
    0.7428    2.2475    0.1046 C   0  0  0  0  0  0  0  0  0  0  0  0
   -3.7489    1.7741   -0.4263 C   0  0  0  0  0  0  0  0  0  0  0  0
    2.8762    0.9228    0.2421 C   0  0  0  0  0  0  0  0  0  0  0  0
   -2.6678   -0.3561    1.5485 C   0  0  0  0  0  0  0  0  0  0  0  0
    2.1490    2.1710    0.6810 C   0  0  0  0  0  0  0  0  0  0  0  0
    2.8737   -1.5541   -0.2921 C   0  0  0  0  0  0  0  0  0  0  0  0
    2.1999   -0.7013    1.9851 C   0  0  0  0  0  0  0  0  0  0  0  0
   -4.8521   -0.4991   -0.3741 C   0  0  0  0  0  0  0  0  0  0  0  0
    4.3858   -1.5187   -0.1377 C   0  0  0  0  0  0  0  0  0  0  0  0
    4.1123    1.0241   -0.2742 C   0  0  0  0  0  0  0  0  0  0  0  0
    4.9197   -0.1804   -0.5755 C   0  0  0  0  0  0  0  0  0  0  0  0
   -5.1422   -1.7054   -1.2182 C   0  0  0  0  0  0  0  0  0  0  0  0
   -1.2737    1.1063   -1.3353 H   0  0  0  0  0  0  0  0  0  0  0  0
   -0.1920    0.9318    1.5061 H   0  0  0  0  0  0  0  0  0  0  0  0
   -1.5827   -1.3210   -1.6245 H   0  0  0  0  0  0  0  0  0  0  0  0
   -2.2162   -2.3017   -0.3031 H   0  0  0  0  0  0  0  0  0  0  0  0
   -3.4528    0.1636   -1.8103 H   0  0  0  0  0  0  0  0  0  0  0  0
    0.2616   -2.3720   -0.5853 H   0  0  0  0  0  0  0  0  0  0  0  0
   -2.0542    3.1585   -0.4481 H   0  0  0  0  0  0  0  0  0  0  0  0
   -2.3932    2.4555    1.1398 H   0  0  0  0  0  0  0  0  0  0  0  0
    0.2428    3.1307    0.5193 H   0  0  0  0  0  0  0  0  0  0  0  0
    0.8010    2.3995   -0.9811 H   0  0  0  0  0  0  0  0  0  0  0  0
   -4.5111    2.0189    0.3204 H   0  0  0  0  0  0  0  0  0  0  0  0
   -4.0261    2.3083   -1.3430 H   0  0  0  0  0  0  0  0  0  0  0  0
   -3.1151   -1.3404    1.7274 H   0  0  0  0  0  0  0  0  0  0  0  0
   -1.8056   -0.2586    2.2057 H   0  0  0  0  0  0  0  0  0  0  0  0
   -3.3822    0.3890    1.9153 H   0  0  0  0  0  0  0  0  0  0  0  0
    2.0966    2.1863    1.7766 H   0  0  0  0  0  0  0  0  0  0  0  0
    2.6976    3.0751    0.3891 H   0  0  0  0  0  0  0  0  0  0  0  0
    2.6467   -1.4933   -1.3651 H   0  0  0  0  0  0  0  0  0  0  0  0
    2.5086   -2.5322    0.0440 H   0  0  0  0  0  0  0  0  0  0  0  0
    1.9701   -1.7465    2.2124 H   0  0  0  0  0  0  0  0  0  0  0  0
    3.2051   -0.5226    2.3874 H   0  0  0  0  0  0  0  0  0  0  0  0
    1.5192   -0.0673    2.5611 H   0  0  0  0  0  0  0  0  0  0  0  0
    4.8303   -2.2949   -0.7704 H   0  0  0  0  0  0  0  0  0  0  0  0
    4.6957   -1.7025    0.8957 H   0  0  0  0  0  0  0  0  0  0  0  0
   -0.2289   -1.3055    1.9589 H   0  0  0  0  0  0  0  0  0  0  0  0
    4.5933    1.9843   -0.4280 H   0  0  0  0  0  0  0  0  0  0  0  0
   -5.1993   -1.4184   -2.2712 H   0  0  0  0  0  0  0  0  0  0  0  0
   -4.3723   -2.4645   -1.0742 H   0  0  0  0  0  0  0  0  0  0  0  0
   -6.1073   -2.1281   -0.9241 H   0  0  0  0  0  0  0  0  0  0  0  0
  1  8  1  0  0  0  0
  2 12  1  0  0  0  0
  2 50  1  0  0  0  0
  3 21  2  0  0  0  0
  4 24  2  0  0  0  0
  5  6  1  0  0  0  0
  5  7  1  0  0  0  0
  5 13  1  0  0  0  0
  5 26  1  0  0  0  0
  6 10  1  0  0  0  0
  6 11  1  0  0  0  0
  6 17  1  0  0  0  0
  7  8  1  0  0  0  0
  7 14  1  0  0  0  0
  7 27  1  0  0  0  0
  8  9  1  0  0  0  0
  8 12  1  0  0  0  0
  9 16  1  0  0  0  0
  9 19  1  0  0  0  0
  9 20  1  0  0  0  0
 10 12  1  0  0  0  0
 10 28  1  0  0  0  0
 10 29  1  0  0  0  0
 11 15  1  0  0  0  0
 11 21  1  0  0  0  0
 11 30  1  0  0  0  0
 12 31  1  0  0  0  0
 13 15  1  0  0  0  0
 13 32  1  0  0  0  0
 13 33  1  0  0  0  0
 14 18  1  0  0  0  0
 14 34  1  0  0  0  0
 14 35  1  0  0  0  0
 15 36  1  0  0  0  0
 15 37  1  0  0  0  0
 16 18  1  0  0  0  0
 16 23  2  0  0  0  0
 17 38  1  0  0  0  0
 17 39  1  0  0  0  0
 17 40  1  0  0  0  0
 18 41  1  0  0  0  0
 18 42  1  0  0  0  0
 19 22  1  0  0  0  0
 19 43  1  0  0  0  0
 19 44  1  0  0  0  0
 20 45  1  0  0  0  0
 20 46  1  0  0  0  0
 20 47  1  0  0  0  0
 21 25  1  0  0  0  0
 22 24  1  0  0  0  0
 22 48  1  0  0  0  0
 22 49  1  0  0  0  0
 23 24  1  0  0  0  0
 23 51  1  0  0  0  0
 25 52  1  0  0  0  0
 25 53  1  0  0  0  0
 25 54  1  0  0  0  0
M  END
> <PUBCHEM_COMPOUND_CID>
226014

> <PUBCHEM_CONFORMER_RMSD>
0.6

> <PUBCHEM_CONFORMER_DIVERSEORDER>
1
2

> <PUBCHEM_MMFF94_PARTIAL_CHARGES>
17
1 -0.34
11 0.06
12 0.28
16 -0.28
18 0.14
2 -0.68
21 0.45
22 0.06
23 -0.14
24 0.49
25 0.06
3 -0.57
4 -0.57
50 0.4
51 0.15
8 0.34
9 0.14

> <PUBCHEM_EFFECTIVE_ROTOR_COUNT>
2.8

> <PUBCHEM_PHARMACOPHORE_FEATURES>
8
1 2 acceptor
1 2 donor
1 3 acceptor
1 4 acceptor
5 5 6 11 13 15 rings
6 5 6 7 8 10 12 rings
6 7 8 9 14 16 18 rings
6 9 16 19 22 23 24 rings

> <PUBCHEM_HEAVY_ATOM_COUNT>
25

> <PUBCHEM_ATOM_DEF_STEREO_COUNT>
7

> <PUBCHEM_ATOM_UDEF_STEREO_COUNT>
0

> <PUBCHEM_BOND_DEF_STEREO_COUNT>
0

> <PUBCHEM_BOND_UDEF_STEREO_COUNT>
0

> <PUBCHEM_ISOTOPIC_ATOM_COUNT>
0

> <PUBCHEM_COMPONENT_COUNT>
1

> <PUBCHEM_CACTVS_TAUTO_COUNT>
15

> <PUBCHEM_CONFORMER_ID>
000372DE00000001

> <PUBCHEM_MMFF94_ENERGY>
87.3422

> <PUBCHEM_FEATURE_SELFOVERLAP>
40.689

> <PUBCHEM_SHAPE_FINGERPRINT>
10366900 7 18060139829754280465
10863032 1 18342455980305103384
12011746 2 18342457032197628908
12166972 35 17821727200017529313
12236239 1 17917711335712895574
12403259 226 18335148587330643345
12403259 415 18341621416710112445
12788726 201 18340490078947431553
13140716 1 17908151979420484072
13224815 77 18273216421710721513
13583140 156 14692561100986161933
13862211 1 18409455786253157406
13944108 23 16325428583841352149
14787075 74 18413107259952474571
14790565 3 18339353192551324385
15142383 8 15068611725774446603
15196674 1 18410014368098244636
15209289 33 18411981386147693153
15788980 27 18411421717691723845
16752209 62 18411707611752107720
16945 1 18261968370234390448
17349148 13 17603585205779525439
19591789 44 18338521935963950567
19862831 5 18411139160161903280
200 152 17894632560501572585
20028762 73 17968105179129879559
20691752 17 17632016441585319017
21033648 29 18201169788340142933
21267235 1 18335976514974263238
21279426 13 18266740375543049604
221357 26 18408325492610569325
22393880 68 18341624749467356829
23402539 116 18333735719320451733
23522609 53 18118372151853463257
23559900 14 18335989657627254800
2871803 45 18342466928203237861
296302 2 14908179759193236208
3004659 81 18271804692400639414
335352 9 18407761448205359445
350125 39 18409727396175532625
4280585 95 17397541386975410094
4340502 62 16128653063440057522
465052 167 18040713636723827270
474 4 17274812516297846364
5104073 3 18336831982328870825
7495541 125 17240770540388973251
9709674 26 18339645534031884793

> <PUBCHEM_SHAPE_MULTIPOLES>
489.61
10.72
2.21
1.2
0.43
0.6
-0.36
-2.11
3
0.31
-0.05
-0.08
-0.33
-0.16

> <PUBCHEM_SHAPE_SELFOVERLAP>
1058.61

> <PUBCHEM_SHAPE_VOLUME>
269.6

> <PUBCHEM_COORDINATE_TYPE>
2
5
10

$$$$

