4040
  -OEChem-06251223502D

 17 16  0     1  0  0  0  0  0999 V2000
    2.5369   -1.1900    0.0000 S   0  0  0  0  0  0  0  0  0  0  0  0
    5.1350    0.3100    0.0000 O   0  0  0  0  0  0  0  0  0  0  0  0
    4.2690    1.8100    0.0000 O   0  0  0  0  0  0  0  0  0  0  0  0
    2.5369    0.8100    0.0000 N   0  0  0  0  0  0  0  0  0  0  0  0
    3.4030    0.3100    0.0000 C   0  0  3  0  0  0  0  0  0  0  0  0
    3.4030   -0.6900    0.0000 C   0  0  0  0  0  0  0  0  0  0  0  0
    4.2690    0.8100    0.0000 C   0  0  0  0  0  0  0  0  0  0  0  0
    6.0010    0.8100    0.0000 C   0  0  0  0  0  0  0  0  0  0  0  0
    3.4030    0.9300    0.0000 H   0  0  0  0  0  0  0  0  0  0  0  0
    3.6150   -1.2726    0.0000 H   0  0  0  0  0  0  0  0  0  0  0  0
    4.0135   -0.5823    0.0000 H   0  0  0  0  0  0  0  0  0  0  0  0
    2.0000    0.5000    0.0000 H   0  0  0  0  0  0  0  0  0  0  0  0
    2.5369    1.4300    0.0000 H   0  0  0  0  0  0  0  0  0  0  0  0
    2.5369   -1.8100    0.0000 H   0  0  0  0  0  0  0  0  0  0  0  0
    6.3110    0.2731    0.0000 H   0  0  0  0  0  0  0  0  0  0  0  0
    6.5380    1.1200    0.0000 H   0  0  0  0  0  0  0  0  0  0  0  0
    5.6910    1.3469    0.0000 H   0  0  0  0  0  0  0  0  0  0  0  0
  1  6  1  0  0  0  0
  1 14  1  0  0  0  0
  2  7  1  0  0  0  0
  2  8  1  0  0  0  0
  3  7  2  0  0  0  0
  4  5  1  0  0  0  0
  4 12  1  0  0  0  0
  4 13  1  0  0  0  0
  5  6  1  0  0  0  0
  5  7  1  0  0  0  0
  5  9  1  0  0  0  0
  6 10  1  0  0  0  0
  6 11  1  0  0  0  0
  8 15  1  0  0  0  0
  8 16  1  0  0  0  0
  8 17  1  0  0  0  0
M  END
> <PUBCHEM_COMPOUND_CID>
4040

> <PUBCHEM_COMPOUND_CANONICALIZED>
1

> <PUBCHEM_CACTVS_COMPLEXITY>
86.1

> <PUBCHEM_CACTVS_HBOND_ACCEPTOR>
4

> <PUBCHEM_CACTVS_HBOND_DONOR>
2

> <PUBCHEM_CACTVS_ROTATABLE_BOND>
3

> <PUBCHEM_CACTVS_SUBSKEYS>
AAADccBiMABAAAAAAAAAAAAAAAAAAAAAAAAAAAAAAAAAAAAAAAAAHgQQAAAACCjFwAaCCABABAQIAACQCAAAAAAAAAAAAIGAAAACAAAAAAABAAAAEAAAAAAAAAAAAAAAAAAAAAAAAAAAAAAAAAAAAAAAAA==

> <PUBCHEM_IUPAC_OPENEYE_NAME>
methyl 2-amino-3-sulfanyl-propanoate

> <PUBCHEM_IUPAC_CAS_NAME>
2-amino-3-mercaptopropanoic acid methyl ester

> <PUBCHEM_IUPAC_NAME>
methyl 2-amino-3-sulfanylpropanoate

> <PUBCHEM_IUPAC_SYSTEMATIC_NAME>
methyl 2-azanyl-3-sulfanyl-propanoate

> <PUBCHEM_IUPAC_TRADITIONAL_NAME>
2-amino-3-mercapto-propionic acid methyl ester

> <PUBCHEM_IUPAC_INCHI>
InChI=1S/C4H9NO2S/c1-7-4(6)3(5)2-8/h3,8H,2,5H2,1H3

> <PUBCHEM_IUPAC_INCHIKEY>
MCYHPZGUONZRGO-UHFFFAOYSA-N

> <PUBCHEM_XLOGP3_AA>
-0.5

> <PUBCHEM_EXACT_MASS>
135.0354

> <PUBCHEM_MOLECULAR_FORMULA>
C4H9NO2S

> <PUBCHEM_MOLECULAR_WEIGHT>
135.18476

> <PUBCHEM_OPENEYE_CAN_SMILES>
COC(=O)C(CS)N

> <PUBCHEM_OPENEYE_ISO_SMILES>
COC(=O)C(CS)N

> <PUBCHEM_CACTVS_TPSA>
53.3

> <PUBCHEM_MONOISOTOPIC_WEIGHT>
135.0354

> <PUBCHEM_TOTAL_CHARGE>
0

> <PUBCHEM_HEAVY_ATOM_COUNT>
8

> <PUBCHEM_ATOM_DEF_STEREO_COUNT>
0

> <PUBCHEM_ATOM_UDEF_STEREO_COUNT>
1

> <PUBCHEM_BOND_DEF_STEREO_COUNT>
0

> <PUBCHEM_BOND_UDEF_STEREO_COUNT>
0

> <PUBCHEM_ISOTOPIC_ATOM_COUNT>
0

> <PUBCHEM_COMPONENT_COUNT>
1

> <PUBCHEM_CACTVS_TAUTO_COUNT>
1

> <PUBCHEM_COORDINATE_TYPE>
1
5
255

> <PUBCHEM_BONDANNOTATIONS>
5  4  3

$$$$

