6326997
  -OEChem-07051212503D

 16 15  0     0  0  0  0  0  0999 V2000
   -3.9541   -0.1765   -0.0024 O   0  0  0  0  0  0  0  0  0  0  0  0
   -1.6914    1.2540   -0.0418 O   0  0  0  0  0  0  0  0  0  0  0  0
    0.9719    1.5071    0.0101 O   0  0  0  0  0  0  0  0  0  0  0  0
    3.3132    0.5713    0.0076 O   0  0  0  0  0  0  0  0  0  0  0  0
    2.4917   -1.5704   -0.0395 O   0  0  0  0  0  0  0  0  0  0  0  0
   -0.1918   -0.6355    0.0329 C   0  0  0  0  0  0  0  0  0  0  0  0
   -1.5519    0.0331    0.0067 C   0  0  0  0  0  0  0  0  0  0  0  0
   -2.7443   -0.9041    0.0098 C   0  0  0  0  0  0  0  0  0  0  0  0
    1.0012    0.2858    0.0091 C   0  0  0  0  0  0  0  0  0  0  0  0
    2.3556   -0.3647    0.0075 C   0  0  0  0  0  0  0  0  0  0  0  0
   -0.1357   -1.2364    0.9467 H   0  0  0  0  0  0  0  0  0  0  0  0
   -0.1305   -1.2884   -0.8444 H   0  0  0  0  0  0  0  0  0  0  0  0
   -2.7071   -1.5525   -0.8700 H   0  0  0  0  0  0  0  0  0  0  0  0
   -2.7163   -1.5122    0.9178 H   0  0  0  0  0  0  0  0  0  0  0  0
   -4.0020    0.2970   -0.8504 H   0  0  0  0  0  0  0  0  0  0  0  0
    4.2134    0.1824   -0.0176 H   0  0  0  0  0  0  0  0  0  0  0  0
  1  8  1  0  0  0  0
  1 15  1  0  0  0  0
  2  7  2  0  0  0  0
  3  9  2  0  0  0  0
  4 10  1  0  0  0  0
  4 16  1  0  0  0  0
  5 10  2  0  0  0  0
  6  7  1  0  0  0  0
  6  9  1  0  0  0  0
  6 11  1  0  0  0  0
  6 12  1  0  0  0  0
  7  8  1  0  0  0  0
  8 13  1  0  0  0  0
  8 14  1  0  0  0  0
  9 10  1  0  0  0  0
M  END
> <PUBCHEM_COMPOUND_CID>
6326997

> <PUBCHEM_CONFORMER_RMSD>
0.6

> <PUBCHEM_CONFORMER_DIVERSEORDER>
1
8
21
32
4
12
29
2
22
34
6
25
24
36
16
33
13
30
26
17
11
9
7
27
31
28
35
14
10
23
15
19
5
3
20
18

> <PUBCHEM_MMFF94_PARTIAL_CHARGES>
12
1 -0.68
10 0.72
15 0.4
16 0.5
2 -0.57
3 -0.57
4 -0.65
5 -0.57
6 0.12
7 0.45
8 0.34
9 0.51

> <PUBCHEM_EFFECTIVE_ROTOR_COUNT>
4

> <PUBCHEM_PHARMACOPHORE_FEATURES>
8
1 1 acceptor
1 1 donor
1 2 acceptor
1 3 acceptor
1 4 acceptor
1 5 acceptor
1 6 anion
3 4 5 10 anion

> <PUBCHEM_HEAVY_ATOM_COUNT>
10

> <PUBCHEM_ATOM_DEF_STEREO_COUNT>
0

> <PUBCHEM_ATOM_UDEF_STEREO_COUNT>
0

> <PUBCHEM_BOND_DEF_STEREO_COUNT>
0

> <PUBCHEM_BOND_UDEF_STEREO_COUNT>
0

> <PUBCHEM_ISOTOPIC_ATOM_COUNT>
0

> <PUBCHEM_COMPONENT_COUNT>
1

> <PUBCHEM_CACTVS_TAUTO_COUNT>
12

> <PUBCHEM_CONFORMER_ID>
00608AD500000001

> <PUBCHEM_MMFF94_ENERGY>
7.5229

> <PUBCHEM_FEATURE_SELFOVERLAP>
40.682

> <PUBCHEM_SHAPE_FINGERPRINT>
11062470 55 18259984859926840875
12932764 1 17240777184819158240
14325111 11 18410575110570039233
20201158 50 18413388713475662227
20645477 70 18337676416039178687
20871998 22 18044934812751554566
23552423 10 18200589327815228426
29004967 10 18411980265266704530
3248919 1 17131822183908194410
5084963 1 18335139795394808401

> <PUBCHEM_SHAPE_MULTIPOLES>
176.45
5.55
1.28
0.57
1.88
0.06
0
-0.81
0.02
-0.38
0.01
0.01
-0.02
0.03

> <PUBCHEM_SHAPE_SELFOVERLAP>
342.39

> <PUBCHEM_SHAPE_VOLUME>
105

> <PUBCHEM_COORDINATE_TYPE>
2
5
10

$$$$

