13092596
  -OEChem-07051213113D

 50 51  0     1  0  0  0  0  0999 V2000
   -0.0326   -0.0256   -0.0744 O   0  0  0  0  0  0  0  0  0  0  0  0
   -1.9905   -0.9464   -1.0327 O   0  0  0  0  0  0  0  0  0  0  0  0
    2.9643   -0.8412   -1.9942 O   0  0  0  0  0  0  0  0  0  0  0  0
    4.5092   -0.7710    0.5243 O   0  0  0  0  0  0  0  0  0  0  0  0
   -3.3613    2.7344    0.2551 O   0  0  0  0  0  0  0  0  0  0  0  0
   -4.1096    0.3556    1.6857 O   0  0  0  0  0  0  0  0  0  0  0  0
   -2.8839   -3.3439   -0.0808 O   0  0  0  0  0  0  0  0  0  0  0  0
    2.1228    2.0243    0.1847 N   0  0  0  0  0  0  0  0  0  0  0  0
    2.3521   -2.7980    0.3539 N   0  0  0  0  0  0  0  0  0  0  0  0
   -0.7632    2.5596   -1.0416 N   0  0  0  0  0  0  0  0  0  0  0  0
    1.0440   -0.8608   -0.5093 C   0  0  1  0  0  0  0  0  0  0  0  0
    2.1011   -0.0028   -1.2262 C   0  0  1  0  0  0  0  0  0  0  0  0
    1.5691   -1.6187    0.7249 C   0  0  2  0  0  0  0  0  0  0  0  0
    2.9299    0.8926   -0.2784 C   0  0  2  0  0  0  0  0  0  0  0  0
    3.4675    0.1129    0.9366 C   0  0  1  0  0  0  0  0  0  0  0  0
    2.3779   -0.6940    1.6539 C   0  0  0  0  0  0  0  0  0  0  0  0
   -1.0245    0.1076   -1.0903 C   0  0  1  0  0  0  0  0  0  0  0  0
   -1.7321    1.4642   -0.9877 C   0  0  1  0  0  0  0  0  0  0  0  0
   -2.5674    1.5472    0.2946 C   0  0  2  0  0  0  0  0  0  0  0  0
   -3.5007    0.3357    0.3969 C   0  0  1  0  0  0  0  0  0  0  0  0
   -2.7322   -0.9754    0.1916 C   0  0  1  0  0  0  0  0  0  0  0  0
   -3.6657   -2.1807    0.1195 C   0  0  0  0  0  0  0  0  0  0  0  0
    2.9257    2.9242    0.9939 C   0  0  0  0  0  0  0  0  0  0  0  0
    0.6562   -1.6187   -1.2060 H   0  0  0  0  0  0  0  0  0  0  0  0
    1.6053    0.6472   -1.9576 H   0  0  0  0  0  0  0  0  0  0  0  0
    0.7076   -1.9820    1.2998 H   0  0  0  0  0  0  0  0  0  0  0  0
    3.7820    1.2738   -0.8576 H   0  0  0  0  0  0  0  0  0  0  0  0
    3.9521    0.7594    1.6723 H   0  0  0  0  0  0  0  0  0  0  0  0
    1.6854   -0.0052    2.1536 H   0  0  0  0  0  0  0  0  0  0  0  0
    2.8355   -1.2943    2.4514 H   0  0  0  0  0  0  0  0  0  0  0  0
   -0.5656    0.0533   -2.0858 H   0  0  0  0  0  0  0  0  0  0  0  0
   -2.4049    1.5724   -1.8485 H   0  0  0  0  0  0  0  0  0  0  0  0
   -1.9338    1.6138    1.1876 H   0  0  0  0  0  0  0  0  0  0  0  0
   -4.3016    0.4220   -0.3484 H   0  0  0  0  0  0  0  0  0  0  0  0
   -2.0330   -1.1461    1.0210 H   0  0  0  0  0  0  0  0  0  0  0  0
    1.3324    1.6920    0.7346 H   0  0  0  0  0  0  0  0  0  0  0  0
    2.7054   -3.2554    1.1935 H   0  0  0  0  0  0  0  0  0  0  0  0
    3.1730   -2.5129   -0.1789 H   0  0  0  0  0  0  0  0  0  0  0  0
    3.5845   -0.2666   -2.4744 H   0  0  0  0  0  0  0  0  0  0  0  0
    5.2031   -0.2335    0.1058 H   0  0  0  0  0  0  0  0  0  0  0  0
   -4.3628   -2.0975   -0.7208 H   0  0  0  0  0  0  0  0  0  0  0  0
   -4.2393   -2.3020    1.0429 H   0  0  0  0  0  0  0  0  0  0  0  0
   -0.1725    2.5358   -0.2131 H   0  0  0  0  0  0  0  0  0  0  0  0
   -1.2589    3.4498   -0.9992 H   0  0  0  0  0  0  0  0  0  0  0  0
    3.9068    3.1295    0.5526 H   0  0  0  0  0  0  0  0  0  0  0  0
    3.0462    2.5773    2.0244 H   0  0  0  0  0  0  0  0  0  0  0  0
    2.4040    3.8854    1.0583 H   0  0  0  0  0  0  0  0  0  0  0  0
   -3.9321    2.6905   -0.5308 H   0  0  0  0  0  0  0  0  0  0  0  0
   -4.5770    1.2038    1.7743 H   0  0  0  0  0  0  0  0  0  0  0  0
   -2.3749   -3.2193   -0.9001 H   0  0  0  0  0  0  0  0  0  0  0  0
  1 11  1  0  0  0  0
  1 17  1  0  0  0  0
  2 17  1  0  0  0  0
  2 21  1  0  0  0  0
  3 12  1  0  0  0  0
  3 39  1  0  0  0  0
  4 15  1  0  0  0  0
  4 40  1  0  0  0  0
  5 19  1  0  0  0  0
  5 48  1  0  0  0  0
  6 20  1  0  0  0  0
  6 49  1  0  0  0  0
  7 22  1  0  0  0  0
  7 50  1  0  0  0  0
  8 14  1  0  0  0  0
  8 23  1  0  0  0  0
  8 36  1  0  0  0  0
  9 13  1  0  0  0  0
  9 37  1  0  0  0  0
  9 38  1  0  0  0  0
 10 18  1  0  0  0  0
 10 43  1  0  0  0  0
 10 44  1  0  0  0  0
 11 12  1  0  0  0  0
 11 13  1  0  0  0  0
 11 24  1  0  0  0  0
 12 14  1  0  0  0  0
 12 25  1  0  0  0  0
 13 16  1  0  0  0  0
 13 26  1  0  0  0  0
 14 15  1  0  0  0  0
 14 27  1  0  0  0  0
 15 16  1  0  0  0  0
 15 28  1  0  0  0  0
 16 29  1  0  0  0  0
 16 30  1  0  0  0  0
 17 18  1  0  0  0  0
 17 31  1  0  0  0  0
 18 19  1  0  0  0  0
 18 32  1  0  0  0  0
 19 20  1  0  0  0  0
 19 33  1  0  0  0  0
 20 21  1  0  0  0  0
 20 34  1  0  0  0  0
 21 22  1  0  0  0  0
 21 35  1  0  0  0  0
 22 41  1  0  0  0  0
 22 42  1  0  0  0  0
 23 45  1  0  0  0  0
 23 46  1  0  0  0  0
 23 47  1  0  0  0  0
M  END
> <PUBCHEM_COMPOUND_CID>
13092596

> <PUBCHEM_CONFORMER_RMSD>
0.8

> <PUBCHEM_CONFORMER_DIVERSEORDER>
1
21
24
13
19
14
6
25
17
9
10
22
15
20
4
12
23
16
5
8
26
18
27
7
2
11
3

> <PUBCHEM_MMFF94_PARTIAL_CHARGES>
32
1 -0.56
10 -0.99
11 0.28
12 0.28
13 0.27
14 0.27
15 0.28
17 0.56
18 0.27
19 0.28
2 -0.56
20 0.28
21 0.28
22 0.28
23 0.27
3 -0.68
36 0.36
37 0.36
38 0.36
39 0.4
4 -0.68
40 0.4
43 0.36
44 0.36
48 0.4
49 0.4
5 -0.68
50 0.4
6 -0.68
7 -0.68
8 -0.9
9 -0.99

> <PUBCHEM_EFFECTIVE_ROTOR_COUNT>
6.4

> <PUBCHEM_PHARMACOPHORE_FEATURES>
20
1 1 acceptor
1 10 cation
1 10 donor
1 2 acceptor
1 3 acceptor
1 3 donor
1 4 acceptor
1 4 donor
1 5 acceptor
1 5 donor
1 6 acceptor
1 6 donor
1 7 acceptor
1 7 donor
1 8 cation
1 8 donor
1 9 cation
1 9 donor
6 11 12 13 14 15 16 rings
6 2 17 18 19 20 21 rings

> <PUBCHEM_HEAVY_ATOM_COUNT>
23

> <PUBCHEM_ATOM_DEF_STEREO_COUNT>
10

> <PUBCHEM_ATOM_UDEF_STEREO_COUNT>
0

> <PUBCHEM_BOND_DEF_STEREO_COUNT>
0

> <PUBCHEM_BOND_UDEF_STEREO_COUNT>
0

> <PUBCHEM_ISOTOPIC_ATOM_COUNT>
0

> <PUBCHEM_COMPONENT_COUNT>
1

> <PUBCHEM_CACTVS_TAUTO_COUNT>
1

> <PUBCHEM_CONFORMER_ID>
00C7C6F400000001

> <PUBCHEM_MMFF94_ENERGY>
53.173

> <PUBCHEM_FEATURE_SELFOVERLAP>
101.545

> <PUBCHEM_SHAPE_FINGERPRINT>
10366900 7 18272928306329514530
10764073 3 10013083461019866828
11552529 35 18187085010171018819
12251169 10 18410856598589978833
12553582 1 18200301140063350423
12596599 1 18189036664494585275
12633257 1 18334571360952903233
12670545 47 18408601487446322197
128993 33 18113337500703803337
13004483 165 18267318560109940423
13140716 1 18409456868754058888
13224815 77 18410857624928842077
13583140 156 18341344382370448125
14081887 123 18410295774745531115
14178342 30 18341339958480383954
14223421 5 18412270518729313175
14289901 80 18412544314447040619
14787075 74 17476363803184229637
15238133 3 18194958776077695080
16945 1 18340211885304044653
18981168 100 16371016156655986529
19050596 39 18411982438246031611
19862831 5 6771850883818042995
20442098 301 18272369814684177411
20681677 274 18341907242256085282
21069387 34 14188478995567542361
23557571 272 18260271862325981907
23559900 14 18040986393106908975
3286 77 18342746174191986270
3797600 57 17896598371386136592
392239 28 17835243346165365024
5283173 99 18128278765115699693
6287921 2 18340761525433799604
7097593 13 18198633317851323450
74978 22 18337112383584569933

> <PUBCHEM_SHAPE_MULTIPOLES>
417.3
7.7
3.16
1.37
1.18
0.19
0.11
-0.61
-2.1
0.98
-0.31
-0.51
0.04
0.13

> <PUBCHEM_SHAPE_SELFOVERLAP>
847.407

> <PUBCHEM_SHAPE_VOLUME>
239.1

> <PUBCHEM_COORDINATE_TYPE>
2
5
10

$$$$

