3354
  -OEChem-07051212542D

 54 57  0     0  0  0  0  0  0999 V2000
    8.0727   -0.0174    0.0000 O   0  0  0  0  0  0  0  0  0  0  0  0
    5.4641    1.5271    0.0000 O   0  0  0  0  0  0  0  0  0  0  0  0
    6.3408    0.0026    0.0000 O   0  0  0  0  0  0  0  0  0  0  0  0
    5.4641    4.5271    0.0000 O   0  0  0  0  0  0  0  0  0  0  0  0
    8.9098   -2.5273    0.0000 N   0  0  0  0  0  0  0  0  0  0  0  0
    8.0380   -3.0172    0.0000 C   0  0  0  0  0  0  0  0  0  0  0  0
    9.7699   -3.0373    0.0000 C   0  0  0  0  0  0  0  0  0  0  0  0
    8.0264   -4.0172    0.0000 C   0  0  0  0  0  0  0  0  0  0  0  0
    9.7584   -4.0372    0.0000 C   0  0  0  0  0  0  0  0  0  0  0  0
    8.8866   -4.5271    0.0000 C   0  0  0  0  0  0  0  0  0  0  0  0
    8.9213   -1.5273    0.0000 C   0  0  0  0  0  0  0  0  0  0  0  0
    8.0611   -1.0174    0.0000 C   0  0  0  0  0  0  0  0  0  0  0  0
    7.2241    1.4925    0.0000 C   0  0  0  0  0  0  0  0  0  0  0  0
    7.2125    0.4926    0.0000 C   0  0  0  0  0  0  0  0  0  0  0  0
    6.3301    2.0271    0.0000 C   0  0  0  0  0  0  0  0  0  0  0  0
    6.3301    3.0271    0.0000 C   0  0  0  0  0  0  0  0  0  0  0  0
    4.5981    3.0271    0.0000 C   0  0  0  0  0  0  0  0  0  0  0  0
    4.5981    2.0271    0.0000 C   0  0  0  0  0  0  0  0  0  0  0  0
    5.4641    3.5271    0.0000 C   0  0  0  0  0  0  0  0  0  0  0  0
    8.1301    2.0063    0.0000 C   0  0  0  0  0  0  0  0  0  0  0  0
    7.2241    3.5618    0.0000 C   0  0  0  0  0  0  0  0  0  0  0  0
    3.7320    1.5271    0.0000 C   0  0  0  0  0  0  0  0  0  0  0  0
    8.1301    3.0480    0.0000 C   0  0  0  0  0  0  0  0  0  0  0  0
    3.7320    3.5271    0.0000 C   0  0  0  0  0  0  0  0  0  0  0  0
    3.7320    0.5271    0.0000 C   0  0  0  0  0  0  0  0  0  0  0  0
    2.8660    2.0271    0.0000 C   0  0  0  0  0  0  0  0  0  0  0  0
    2.8660    0.0271    0.0000 C   0  0  0  0  0  0  0  0  0  0  0  0
    2.0000    1.5271    0.0000 C   0  0  0  0  0  0  0  0  0  0  0  0
    2.0000    0.5271    0.0000 C   0  0  0  0  0  0  0  0  0  0  0  0
   10.3792   -3.1520    0.0000 H   0  0  0  0  0  0  0  0  0  0  0  0
    9.9887   -2.4571    0.0000 H   0  0  0  0  0  0  0  0  0  0  0  0
    7.8327   -2.4322    0.0000 H   0  0  0  0  0  0  0  0  0  0  0  0
    7.4262   -3.1178    0.0000 H   0  0  0  0  0  0  0  0  0  0  0  0
    9.9637   -4.6222    0.0000 H   0  0  0  0  0  0  0  0  0  0  0  0
   10.3702   -3.9366    0.0000 H   0  0  0  0  0  0  0  0  0  0  0  0
    7.4171   -3.9024    0.0000 H   0  0  0  0  0  0  0  0  0  0  0  0
    7.8077   -4.5973    0.0000 H   0  0  0  0  0  0  0  0  0  0  0  0
    8.4826   -4.9974    0.0000 H   0  0  0  0  0  0  0  0  0  0  0  0
    9.2796   -5.0067    0.0000 H   0  0  0  0  0  0  0  0  0  0  0  0
    9.5306   -1.6421    0.0000 H   0  0  0  0  0  0  0  0  0  0  0  0
    9.1401   -0.9472    0.0000 H   0  0  0  0  0  0  0  0  0  0  0  0
    7.4518   -0.9026    0.0000 H   0  0  0  0  0  0  0  0  0  0  0  0
    7.8424   -1.5975    0.0000 H   0  0  0  0  0  0  0  0  0  0  0  0
    8.6659    1.6943    0.0000 H   0  0  0  0  0  0  0  0  0  0  0  0
    7.2169    4.1818    0.0000 H   0  0  0  0  0  0  0  0  0  0  0  0
    8.6659    3.3600    0.0000 H   0  0  0  0  0  0  0  0  0  0  0  0
    4.0420    4.0641    0.0000 H   0  0  0  0  0  0  0  0  0  0  0  0
    3.1951    3.8371    0.0000 H   0  0  0  0  0  0  0  0  0  0  0  0
    3.4220    2.9902    0.0000 H   0  0  0  0  0  0  0  0  0  0  0  0
    4.2690    0.2171    0.0000 H   0  0  0  0  0  0  0  0  0  0  0  0
    2.8660    2.6471    0.0000 H   0  0  0  0  0  0  0  0  0  0  0  0
    2.8660   -0.5929    0.0000 H   0  0  0  0  0  0  0  0  0  0  0  0
    1.4631    1.8371    0.0000 H   0  0  0  0  0  0  0  0  0  0  0  0
    1.4631    0.2171    0.0000 H   0  0  0  0  0  0  0  0  0  0  0  0
  1 12  1  0  0  0  0
  1 14  1  0  0  0  0
  2 15  1  0  0  0  0
  2 18  1  0  0  0  0
  3 14  2  0  0  0  0
  4 19  2  0  0  0  0
  5  6  1  0  0  0  0
  5  7  1  0  0  0  0
  5 11  1  0  0  0  0
  6  8  1  0  0  0  0
  6 32  1  0  0  0  0
  6 33  1  0  0  0  0
  7  9  1  0  0  0  0
  7 30  1  0  0  0  0
  7 31  1  0  0  0  0
  8 10  1  0  0  0  0
  8 36  1  0  0  0  0
  8 37  1  0  0  0  0
  9 10  1  0  0  0  0
  9 34  1  0  0  0  0
  9 35  1  0  0  0  0
 10 38  1  0  0  0  0
 10 39  1  0  0  0  0
 11 12  1  0  0  0  0
 11 40  1  0  0  0  0
 11 41  1  0  0  0  0
 12 42  1  0  0  0  0
 12 43  1  0  0  0  0
 13 14  1  0  0  0  0
 13 15  1  0  0  0  0
 13 20  2  0  0  0  0
 15 16  2  0  0  0  0
 16 19  1  0  0  0  0
 16 21  1  0  0  0  0
 17 18  2  0  0  0  0
 17 19  1  0  0  0  0
 17 24  1  0  0  0  0
 18 22  1  0  0  0  0
 20 23  1  0  0  0  0
 20 44  1  0  0  0  0
 21 23  2  0  0  0  0
 21 45  1  0  0  0  0
 22 25  2  0  0  0  0
 22 26  1  0  0  0  0
 23 46  1  0  0  0  0
 24 47  1  0  0  0  0
 24 48  1  0  0  0  0
 24 49  1  0  0  0  0
 25 27  1  0  0  0  0
 25 50  1  0  0  0  0
 26 28  2  0  0  0  0
 26 51  1  0  0  0  0
 27 29  2  0  0  0  0
 27 52  1  0  0  0  0
 28 29  1  0  0  0  0
 28 53  1  0  0  0  0
 29 54  1  0  0  0  0
M  END
> <PUBCHEM_COMPOUND_CID>
3354

> <PUBCHEM_COMPOUND_CANONICALIZED>
1

> <PUBCHEM_CACTVS_COMPLEXITY>
631

> <PUBCHEM_CACTVS_HBOND_ACCEPTOR>
5

> <PUBCHEM_CACTVS_HBOND_DONOR>
0

> <PUBCHEM_CACTVS_ROTATABLE_BOND>
6

> <PUBCHEM_CACTVS_SUBSKEYS>
AAADceB6OAAAAAAAAAAAAAAAAAAAAAAAAAA8YIEAAAAAAACBQAAAHgAAAAAADAThmAYyDoMABACIAqDSCAACCAAkIAAIiAEMCMgOJzaEtRqHOWCl4BGYqYeYzuCuAAACAAAIAAAAAAQAABAAAAAAAAAAAA==

> <PUBCHEM_IUPAC_OPENEYE_NAME>
2-(1-piperidyl)ethyl 3-methyl-4-oxo-2-phenyl-chromene-8-carboxylate

> <PUBCHEM_IUPAC_CAS_NAME>
3-methyl-4-oxo-2-phenyl-1-benzopyran-8-carboxylic acid 2-(1-piperidinyl)ethyl ester

> <PUBCHEM_IUPAC_NAME>
2-piperidin-1-ylethyl 3-methyl-4-oxo-2-phenylchromene-8-carboxylate

> <PUBCHEM_IUPAC_SYSTEMATIC_NAME>
2-piperidin-1-ylethyl 3-methyl-4-oxidanylidene-2-phenyl-chromene-8-carboxylate

> <PUBCHEM_IUPAC_TRADITIONAL_NAME>
4-keto-3-methyl-2-phenyl-chromene-8-carboxylic acid 2-piperidinoethyl ester

> <PUBCHEM_IUPAC_INCHI>
InChI=1S/C24H25NO4/c1-17-21(26)19-11-8-12-20(23(19)29-22(17)18-9-4-2-5-10-18)24(27)28-16-15-25-13-6-3-7-14-25/h2,4-5,8-12H,3,6-7,13-16H2,1H3

> <PUBCHEM_IUPAC_INCHIKEY>
SPIUTQOUKAMGCX-UHFFFAOYSA-N

> <PUBCHEM_XLOGP3_AA>
4.3

> <PUBCHEM_EXACT_MASS>
391.178358

> <PUBCHEM_MOLECULAR_FORMULA>
C24H25NO4

> <PUBCHEM_MOLECULAR_WEIGHT>
391.4596

> <PUBCHEM_OPENEYE_CAN_SMILES>
CC1=C(OC2=C(C1=O)C=CC=C2C(=O)OCCN3CCCCC3)C4=CC=CC=C4

> <PUBCHEM_OPENEYE_ISO_SMILES>
CC1=C(OC2=C(C1=O)C=CC=C2C(=O)OCCN3CCCCC3)C4=CC=CC=C4

> <PUBCHEM_CACTVS_TPSA>
55.8

> <PUBCHEM_MONOISOTOPIC_WEIGHT>
391.178358

> <PUBCHEM_TOTAL_CHARGE>
0

> <PUBCHEM_HEAVY_ATOM_COUNT>
29

> <PUBCHEM_ATOM_DEF_STEREO_COUNT>
0

> <PUBCHEM_ATOM_UDEF_STEREO_COUNT>
0

> <PUBCHEM_BOND_DEF_STEREO_COUNT>
0

> <PUBCHEM_BOND_UDEF_STEREO_COUNT>
0

> <PUBCHEM_ISOTOPIC_ATOM_COUNT>
0

> <PUBCHEM_COMPONENT_COUNT>
1

> <PUBCHEM_CACTVS_TAUTO_COUNT>
1

> <PUBCHEM_COORDINATE_TYPE>
1
5
255

> <PUBCHEM_BONDANNOTATIONS>
13  15  8
13  20  8
15  16  8
16  19  8
16  21  8
17  18  8
17  19  8
2  15  8
2  18  8
20  23  8
21  23  8
22  25  8
22  26  8
25  27  8
26  28  8
27  29  8
28  29  8

$$$$

