5281754
  -OEChem-07051212592D

 58 59  0     1  0  0  0  0  0999 V2000
    4.6802    0.2177    0.0000 O   0  0  0  0  0  0  0  0  0  0  0  0
    8.1756    0.0163    0.0000 O   0  0  0  0  0  0  0  0  0  0  0  0
    9.6710   -0.1619    0.0000 O   0  0  0  0  0  0  0  0  0  0  0  0
   10.7540   -2.2972    0.0000 O   0  0  0  0  0  0  0  0  0  0  0  0
    7.8184   -1.6785    0.0000 O   0  0  0  0  0  0  0  0  0  0  0  0
    3.0329    0.7529    0.0000 O   0  0  0  0  0  0  0  0  0  0  0  0
    5.9402    2.4778    0.0000 N   0  0  3  0  0  0  0  0  0  0  0  0
    5.9402    1.4778    0.0000 C   0  0  1  0  0  0  0  0  0  0  0  0
    4.9892    1.1688    0.0000 C   0  0  1  0  0  0  0  0  0  0  0  0
    4.4014    1.9778    0.0000 C   0  0  0  0  0  0  0  0  0  0  0  0
    4.9892    2.7868    0.0000 C   0  0  0  0  0  0  0  0  0  0  0  0
    6.8865    1.1730    0.0000 C   0  0  0  0  0  0  0  0  0  0  0  0
    6.8865    2.7825    0.0000 C   0  0  0  0  0  0  0  0  0  0  0  0
    7.4701    1.9778    0.0000 C   0  0  0  0  0  0  0  0  0  0  0  0
    7.1971    0.2225    0.0000 C   0  0  0  0  0  0  0  0  0  0  0  0
    9.4648   -1.1404    0.0000 C   0  0  2  0  0  0  0  0  0  0  0  0
    9.2586   -2.1189    0.0000 C   0  0  0  0  0  0  0  0  0  0  0  0
    8.4863   -0.9342    0.0000 C   0  0  0  0  0  0  0  0  0  0  0  0
    3.7020    0.0098    0.0000 C   0  0  0  0  0  0  0  0  0  0  0  0
   10.4433   -1.3467    0.0000 C   0  0  2  0  0  0  0  0  0  0  0  0
   10.0029   -2.7868    0.0000 C   0  0  0  0  0  0  0  0  0  0  0  0
    8.3081   -2.4296    0.0000 C   0  0  0  0  0  0  0  0  0  0  0  0
   11.1112   -0.6024    0.0000 C   0  0  0  0  0  0  0  0  0  0  0  0
    3.3930   -0.9413    0.0000 C   0  0  0  0  0  0  0  0  0  0  0  0
    4.0621   -1.6844    0.0000 C   0  0  0  0  0  0  0  0  0  0  0  0
    2.4149   -1.1492    0.0000 C   0  0  0  0  0  0  0  0  0  0  0  0
    2.1058   -2.1002    0.0000 C   0  0  0  0  0  0  0  0  0  0  0  0
    5.9414    0.6278    0.0000 H   0  0  0  0  0  0  0  0  0  0  0  0
    4.3768    1.0718    0.0000 H   0  0  0  0  0  0  0  0  0  0  0  0
    3.9406    2.3926    0.0000 H   0  0  0  0  0  0  0  0  0  0  0  0
    3.9406    1.5629    0.0000 H   0  0  0  0  0  0  0  0  0  0  0  0
    5.2414    3.3532    0.0000 H   0  0  0  0  0  0  0  0  0  0  0  0
    4.4522    3.0968    0.0000 H   0  0  0  0  0  0  0  0  0  0  0  0
    7.4238    3.0917    0.0000 H   0  0  0  0  0  0  0  0  0  0  0  0
    6.6354    3.3494    0.0000 H   0  0  0  0  0  0  0  0  0  0  0  0
    8.0901    1.9778    0.0000 H   0  0  0  0  0  0  0  0  0  0  0  0
    6.5833    0.1352    0.0000 H   0  0  0  0  0  0  0  0  0  0  0  0
    7.1766   -0.3971    0.0000 H   0  0  0  0  0  0  0  0  0  0  0  0
    9.1307   -2.7256    0.0000 H   0  0  0  0  0  0  0  0  0  0  0  0
   10.0292   -1.8081    0.0000 H   0  0  0  0  0  0  0  0  0  0  0  0
    9.5888   -3.2483    0.0000 H   0  0  0  0  0  0  0  0  0  0  0  0
   10.4644   -3.2008    0.0000 H   0  0  0  0  0  0  0  0  0  0  0  0
   10.4169   -2.3253    0.0000 H   0  0  0  0  0  0  0  0  0  0  0  0
    8.1154   -1.8403    0.0000 H   0  0  0  0  0  0  0  0  0  0  0  0
    7.7187   -2.6222    0.0000 H   0  0  0  0  0  0  0  0  0  0  0  0
    8.5007   -3.0189    0.0000 H   0  0  0  0  0  0  0  0  0  0  0  0
   11.5726   -1.0164    0.0000 H   0  0  0  0  0  0  0  0  0  0  0  0
   11.5252   -0.1409    0.0000 H   0  0  0  0  0  0  0  0  0  0  0  0
   10.6497   -0.1883    0.0000 H   0  0  0  0  0  0  0  0  0  0  0  0
   10.2603    0.0307    0.0000 H   0  0  0  0  0  0  0  0  0  0  0  0
   11.3606   -2.4250    0.0000 H   0  0  0  0  0  0  0  0  0  0  0  0
    3.6014   -2.0993    0.0000 H   0  0  0  0  0  0  0  0  0  0  0  0
    4.4770   -2.1452    0.0000 H   0  0  0  0  0  0  0  0  0  0  0  0
    4.5229   -1.2696    0.0000 H   0  0  0  0  0  0  0  0  0  0  0  0
    2.0000   -0.6884    0.0000 H   0  0  0  0  0  0  0  0  0  0  0  0
    1.5162   -1.9086    0.0000 H   0  0  0  0  0  0  0  0  0  0  0  0
    1.9142   -2.6899    0.0000 H   0  0  0  0  0  0  0  0  0  0  0  0
    2.6955   -2.2918    0.0000 H   0  0  0  0  0  0  0  0  0  0  0  0
  9  1  1  6  0  0  0
  1 19  1  0  0  0  0
  2 15  1  0  0  0  0
  2 18  1  0  0  0  0
 16  3  1  6  0  0  0
  3 50  1  0  0  0  0
 20  4  1  6  0  0  0
  4 51  1  0  0  0  0
  5 18  2  0  0  0  0
  6 19  2  0  0  0  0
  7  8  1  0  0  0  0
  7 11  1  0  0  0  0
  7 13  1  0  0  0  0
  8  9  1  0  0  0  0
  8 12  1  0  0  0  0
  8 28  1  1  0  0  0
  9 10  1  0  0  0  0
  9 29  1  0  0  0  0
 10 11  1  0  0  0  0
 10 30  1  0  0  0  0
 10 31  1  0  0  0  0
 11 32  1  0  0  0  0
 11 33  1  0  0  0  0
 12 14  2  0  0  0  0
 12 15  1  0  0  0  0
 13 14  1  0  0  0  0
 13 34  1  0  0  0  0
 13 35  1  0  0  0  0
 14 36  1  0  0  0  0
 15 37  1  0  0  0  0
 15 38  1  0  0  0  0
 16 17  1  0  0  0  0
 16 18  1  0  0  0  0
 16 20  1  0  0  0  0
 17 21  1  0  0  0  0
 17 22  1  0  0  0  0
 17 39  1  0  0  0  0
 19 24  1  0  0  0  0
 20 23  1  0  0  0  0
 20 40  1  0  0  0  0
 21 41  1  0  0  0  0
 21 42  1  0  0  0  0
 21 43  1  0  0  0  0
 22 44  1  0  0  0  0
 22 45  1  0  0  0  0
 22 46  1  0  0  0  0
 23 47  1  0  0  0  0
 23 48  1  0  0  0  0
 23 49  1  0  0  0  0
 24 25  1  0  0  0  0
 24 26  2  0  0  0  0
 25 52  1  0  0  0  0
 25 53  1  0  0  0  0
 25 54  1  0  0  0  0
 26 27  1  0  0  0  0
 26 55  1  0  0  0  0
 27 56  1  0  0  0  0
 27 57  1  0  0  0  0
 27 58  1  0  0  0  0
M  END
> <PUBCHEM_COMPOUND_CID>
5281754

> <PUBCHEM_COMPOUND_CANONICALIZED>
1

> <PUBCHEM_CACTVS_COMPLEXITY>
640

> <PUBCHEM_CACTVS_HBOND_ACCEPTOR>
7

> <PUBCHEM_CACTVS_HBOND_DONOR>
2

> <PUBCHEM_CACTVS_ROTATABLE_BOND>
9

> <PUBCHEM_CACTVS_SUBSKEYS>
AAADceB6OAAAAAAAAAAAAAAAAAAAAWIAAAAAAAAAAAAQAAAAAAAAHgAACAAADXzhgAYCCAMABgCIAiDSCAKAAAAgAAAACAFIAEgDFBYAoQAHUAAH4ACbIYPQQAAOgAAAAAAAAAAAAAAAAAAAAAAAAAAAAA==

> <PUBCHEM_IUPAC_OPENEYE_NAME>
[(7R,8R)-7-[(E)-2-methylbut-2-enoyl]oxy-5,6,7,8-tetrahydro-3H-pyrrolizin-1-yl]methyl (2S)-2-hydroxy-2-[(1S)-1-hydroxyethyl]-3-methyl-butanoate

> <PUBCHEM_IUPAC_CAS_NAME>
(2S)-2-hydroxy-2-[(1S)-1-hydroxyethyl]-3-methylbutanoic acid [(7R,8R)-7-[(E)-2-methyl-1-oxobut-2-enoxy]-5,6,7,8-tetrahydro-3H-pyrrolizin-1-yl]methyl ester

> <PUBCHEM_IUPAC_NAME>
[(7R,8R)-7-[(E)-2-methylbut-2-enoyl]oxy-5,6,7,8-tetrahydro-3H-pyrrolizin-1-yl]methyl (2S)-2-hydroxy-2-[(1S)-1-hydroxyethyl]-3-methylbutanoate

> <PUBCHEM_IUPAC_SYSTEMATIC_NAME>
[(7R,8R)-7-[(E)-2-methylbut-2-enoyl]oxy-5,6,7,8-tetrahydro-3H-pyrrolizin-1-yl]methyl (2S)-3-methyl-2-oxidanyl-2-[(1S)-1-oxidanylethyl]butanoate

> <PUBCHEM_IUPAC_TRADITIONAL_NAME>
(2S)-2-hydroxy-2-[(1S)-1-hydroxyethyl]-3-methyl-butyric acid [(7R,8R)-7-[(E)-2-methylbut-2-enoyl]oxy-5,6,7,8-tetrahydro-3H-pyrrolizin-1-yl]methyl ester

> <PUBCHEM_IUPAC_INCHI>
InChI=1S/C20H31NO6/c1-6-13(4)18(23)27-16-8-10-21-9-7-15(17(16)21)11-26-19(24)20(25,12(2)3)14(5)22/h6-7,12,14,16-17,22,25H,8-11H2,1-5H3/b13-6+/t14-,16+,17+,20-/m0/s1

> <PUBCHEM_IUPAC_INCHIKEY>
MVWPTZQHBOWRTF-SMLWLWDZSA-N

> <PUBCHEM_XLOGP3_AA>
1.3

> <PUBCHEM_EXACT_MASS>
381.215138

> <PUBCHEM_MOLECULAR_FORMULA>
C20H31NO6

> <PUBCHEM_MOLECULAR_WEIGHT>
381.46324

> <PUBCHEM_OPENEYE_CAN_SMILES>
CC=C(C)C(=O)OC1CCN2C1C(=CC2)COC(=O)C(C(C)C)(C(C)O)O

> <PUBCHEM_OPENEYE_ISO_SMILES>
C/C=C(\C)/C(=O)O[C@@H]1CCN2[C@@H]1C(=CC2)COC(=O)[C@@]([C@H](C)O)(C(C)C)O

> <PUBCHEM_CACTVS_TPSA>
96.3

> <PUBCHEM_MONOISOTOPIC_WEIGHT>
381.215138

> <PUBCHEM_TOTAL_CHARGE>
0

> <PUBCHEM_HEAVY_ATOM_COUNT>
27

> <PUBCHEM_ATOM_DEF_STEREO_COUNT>
4

> <PUBCHEM_ATOM_UDEF_STEREO_COUNT>
0

> <PUBCHEM_BOND_DEF_STEREO_COUNT>
1

> <PUBCHEM_BOND_UDEF_STEREO_COUNT>
0

> <PUBCHEM_ISOTOPIC_ATOM_COUNT>
0

> <PUBCHEM_COMPONENT_COUNT>
1

> <PUBCHEM_CACTVS_TAUTO_COUNT>
1

> <PUBCHEM_COORDINATE_TYPE>
1
5
255

> <PUBCHEM_BONDANNOTATIONS>
9  1  6
16  3  6
20  4  6
8  28  5

$$$$

