91510
  -OEChem-07051212593D

 33 37  0     1  0  0  0  0  0999 V2000
    0.0282    0.5505    1.9352 O   0  0  0  0  0  0  0  0  0  0  0  0
   -1.3836   -1.6591   -1.0294 O   0  0  0  0  0  0  0  0  0  0  0  0
    4.2327   -0.4383   -1.3728 O   0  0  0  0  0  0  0  0  0  0  0  0
    4.1613    1.7324   -0.3257 O   0  0  0  0  0  0  0  0  0  0  0  0
   -5.0087    1.3076   -1.7362 O   0  0  0  0  0  0  0  0  0  0  0  0
   -0.0062   -1.6942    1.0121 C   0  0  2  0  0  0  0  0  0  0  0  0
   -0.8492   -0.5692    1.6388 C   0  0  2  0  0  0  0  0  0  0  0  0
    1.1469   -0.8944    0.5134 C   0  0  0  0  0  0  0  0  0  0  0  0
   -0.7819   -2.4854   -0.0287 C   0  0  0  0  0  0  0  0  0  0  0  0
   -1.9765   -0.1035    0.7477 C   0  0  0  0  0  0  0  0  0  0  0  0
    1.1148    0.3668    1.1153 C   0  0  0  0  0  0  0  0  0  0  0  0
   -2.1723   -0.6607   -0.5214 C   0  0  0  0  0  0  0  0  0  0  0  0
    2.1752   -1.2535   -0.3440 C   0  0  0  0  0  0  0  0  0  0  0  0
    2.0916    1.3225    0.8988 C   0  0  0  0  0  0  0  0  0  0  0  0
    3.1438   -0.2924   -0.5675 C   0  0  0  0  0  0  0  0  0  0  0  0
   -2.8354    0.9176    1.1796 C   0  0  0  0  0  0  0  0  0  0  0  0
    3.1038    0.9537    0.0350 C   0  0  0  0  0  0  0  0  0  0  0  0
   -3.1787   -0.1767   -1.3605 C   0  0  0  0  0  0  0  0  0  0  0  0
   -3.8536    1.3868    0.3490 C   0  0  0  0  0  0  0  0  0  0  0  0
   -4.0215    0.8434   -0.9225 C   0  0  0  0  0  0  0  0  0  0  0  0
    4.8691    0.8462   -1.2161 C   0  0  0  0  0  0  0  0  0  0  0  0
    0.3701   -2.3634    1.7963 H   0  0  0  0  0  0  0  0  0  0  0  0
   -1.2839   -0.9225    2.5828 H   0  0  0  0  0  0  0  0  0  0  0  0
   -0.1219   -3.1894   -0.5474 H   0  0  0  0  0  0  0  0  0  0  0  0
   -1.5688   -3.0834    0.4493 H   0  0  0  0  0  0  0  0  0  0  0  0
    2.2248   -2.2316   -0.8056 H   0  0  0  0  0  0  0  0  0  0  0  0
    2.0609    2.2961    1.3704 H   0  0  0  0  0  0  0  0  0  0  0  0
   -2.7088    1.3601    2.1646 H   0  0  0  0  0  0  0  0  0  0  0  0
   -3.3125   -0.6008   -2.3527 H   0  0  0  0  0  0  0  0  0  0  0  0
   -4.5042    2.1816    0.7038 H   0  0  0  0  0  0  0  0  0  0  0  0
    5.8809    0.6905   -0.8245 H   0  0  0  0  0  0  0  0  0  0  0  0
    4.9427    1.3233   -2.2001 H   0  0  0  0  0  0  0  0  0  0  0  0
   -5.4944    2.0114   -1.2727 H   0  0  0  0  0  0  0  0  0  0  0  0
  1  7  1  0  0  0  0
  1 11  1  0  0  0  0
  2  9  1  0  0  0  0
  2 12  1  0  0  0  0
  3 15  1  0  0  0  0
  3 21  1  0  0  0  0
  4 17  1  0  0  0  0
  4 21  1  0  0  0  0
  5 20  1  0  0  0  0
  5 33  1  0  0  0  0
  6  7  1  0  0  0  0
  6  8  1  0  0  0  0
  6  9  1  0  0  0  0
  6 22  1  0  0  0  0
  7 10  1  0  0  0  0
  7 23  1  0  0  0  0
  8 11  1  0  0  0  0
  8 13  2  0  0  0  0
  9 24  1  0  0  0  0
  9 25  1  0  0  0  0
 10 12  2  0  0  0  0
 10 16  1  0  0  0  0
 11 14  2  0  0  0  0
 12 18  1  0  0  0  0
 13 15  1  0  0  0  0
 13 26  1  0  0  0  0
 14 17  1  0  0  0  0
 14 27  1  0  0  0  0
 15 17  2  0  0  0  0
 16 19  2  0  0  0  0
 16 28  1  0  0  0  0
 18 20  2  0  0  0  0
 18 29  1  0  0  0  0
 19 20  1  0  0  0  0
 19 30  1  0  0  0  0
 21 31  1  0  0  0  0
 21 32  1  0  0  0  0
M  END
> <PUBCHEM_COMPOUND_CID>
91510

> <PUBCHEM_CONFORMER_RMSD>
0.6

> <PUBCHEM_CONFORMER_DIVERSEORDER>
1
2

> <PUBCHEM_MMFF94_PARTIAL_CHARGES>
27
1 -0.36
10 -0.14
11 0.08
12 0.08
13 -0.15
14 -0.15
15 0.08
16 -0.15
17 0.08
18 -0.15
19 -0.15
2 -0.36
20 0.08
21 0.56
26 0.15
27 0.15
28 0.15
29 0.15
3 -0.36
30 0.15
33 0.45
4 -0.36
5 -0.53
6 0.14
7 0.42
8 -0.14
9 0.28

> <PUBCHEM_EFFECTIVE_ROTOR_COUNT>
1.2

> <PUBCHEM_PHARMACOPHORE_FEATURES>
10
1 1 acceptor
1 2 acceptor
1 3 acceptor
1 4 acceptor
1 5 donor
5 1 6 7 8 11 rings
5 3 4 15 17 21 rings
6 10 12 16 18 19 20 rings
6 2 6 7 9 10 12 rings
6 8 11 13 14 15 17 rings

> <PUBCHEM_HEAVY_ATOM_COUNT>
21

> <PUBCHEM_ATOM_DEF_STEREO_COUNT>
2

> <PUBCHEM_ATOM_UDEF_STEREO_COUNT>
0

> <PUBCHEM_BOND_DEF_STEREO_COUNT>
0

> <PUBCHEM_BOND_UDEF_STEREO_COUNT>
0

> <PUBCHEM_ISOTOPIC_ATOM_COUNT>
0

> <PUBCHEM_COMPONENT_COUNT>
1

> <PUBCHEM_CACTVS_TAUTO_COUNT>
3

> <PUBCHEM_CONFORMER_ID>
0001657600000001

> <PUBCHEM_MMFF94_ENERGY>
66.4119

> <PUBCHEM_FEATURE_SELFOVERLAP>
51.306

> <PUBCHEM_SHAPE_FINGERPRINT>
10498660 4 18272379680509016733
10863032 1 18413387644123874379
11046707 91 5472866947637347476
11132069 177 13254797945128881347
11552529 35 13253931452557283816
11796584 16 4823211680687909405
12363563 72 5617536310884759159
12633257 1 13686294677700317701
12670546 177 17822010921341191845
12730499 353 18272645792588013795
12788726 201 16444450476727748056
12824470 246 5545207107373199951
12892183 10 11815904469558905068
12969540 114 18273502281801588485
13544653 18 7565337622162905419
13693222 15 10303816458105148722
14178342 30 13182726100848713353
14341114 328 13829839227657219045
14848178 5 13912873302721876236
15163728 17 18057607770956782605
15209294 21 15195282010597547208
15534591 1 17775568598134919787
16752209 62 16588026852714279703
16945 1 18040156188613105522
1813 80 6988321668037716434
18186145 218 18334856116909957946
193927 3 5833990585276721733
19784866 240 4967609499223614133
19862831 5 17967532376188281018
200 152 16660634155643039760
20671657 53 14779269700132498363
20775530 9 5687302604554101933
20871999 31 17458060469413748617
21069387 34 15791724200755766368
21475661 188 16917069979587202933
21731228 192 14548738408572456913
21756936 100 16630245814614703364
21864079 5 17274538716011137644
22182313 1 17533509936443235242
231179 274 17917711322532743976
23227448 37 17559944429421157061
23379529 103 15720253660148960861
23382010 3 18259709986241154419
23402539 116 17531233002881509320
23559900 14 17894624817714930824
24859131 72 10807941452745108049
25 1 18411693322438176986
2637199 183 18260548961263858835
26918003 58 8142087537624435757
2748010 2 16887537938957345091
2838139 119 17846229885683903581
3009799 131 18335138722528742766
4028521 119 18413108350874369221
427121 178 15625657353368133337
463206 1 14634881837800497749
474 4 18060701684485844413
5161694 15 18187359909399259876
6442390 28 17703500039467706155
7064713 232 13973963238028430333
76465 3 13984661468796787724
7808743 9 17131829850287999532
90316 7 10880000189598316887

> <PUBCHEM_SHAPE_MULTIPOLES>
402.82
8.69
1.87
1.61
1.59
0.62
-0.09
-5.26
5.05
-0.13
0.06
-0.62
-0.18
0.19

> <PUBCHEM_SHAPE_SELFOVERLAP>
930.719

> <PUBCHEM_SHAPE_VOLUME>
205

> <PUBCHEM_COORDINATE_TYPE>
2
5
10

$$$$

