440840
  -OEChem-07051212502D

 51 52  0     1  0  0  0  0  0999 V2000
    5.4897   -1.8749    0.0000 P   0  0  3  0  0  0  0  0  0  0  0  0
    5.6707   -3.5975    0.0000 P   0  0  3  0  0  0  0  0  0  0  0  0
    5.8518   -5.3201    0.0000 P   0  0  0  0  0  0  0  0  0  0  0  0
    5.0298    1.6077    0.0000 O   0  0  0  0  0  0  0  0  0  0  0  0
    3.1330   -0.1524    0.0000 O   0  0  0  0  0  0  0  0  0  0  0  0
    2.4608    1.9167    0.0000 O   0  0  0  0  0  0  0  0  0  0  0  0
    4.9019   -1.0659    0.0000 O   0  0  0  0  0  0  0  0  0  0  0  0
    6.0774   -2.6840    0.0000 O   0  0  0  0  0  0  0  0  0  0  0  0
    4.6806   -2.4627    0.0000 O   0  0  0  0  0  0  0  0  0  0  0  0
    6.2987   -1.2872    0.0000 O   0  0  0  0  0  0  0  0  0  0  0  0
    5.9529    6.1955    0.0000 O   0  0  0  0  0  0  0  0  0  0  0  0
    5.2640   -4.5110    0.0000 O   0  0  0  0  0  0  0  0  0  0  0  0
    6.5842   -4.0042    0.0000 O   0  0  0  0  0  0  0  0  0  0  0  0
    4.7572   -3.1908    0.0000 O   0  0  0  0  0  0  0  0  0  0  0  0
    3.3548    6.6955    0.0000 O   0  0  0  0  0  0  0  0  0  0  0  0
    6.4395   -6.1291    0.0000 O   0  0  0  0  0  0  0  0  0  0  0  0
    5.0427   -5.9078    0.0000 O   0  0  0  0  0  0  0  0  0  0  0  0
    6.6608   -4.7323    0.0000 O   0  0  0  0  0  0  0  0  0  0  0  0
    4.2208    3.1955    0.0000 N   0  0  0  0  0  0  0  0  0  0  0  0
    5.9529    3.1955    0.0000 N   0  0  0  0  0  0  0  0  0  0  0  0
    4.2208    5.1955    0.0000 N   0  0  0  0  0  0  0  0  0  0  0  0
    6.8189    4.6955    0.0000 N   0  0  0  0  0  0  0  0  0  0  0  0
    7.6849    3.1955    0.0000 N   0  0  0  0  0  0  0  0  0  0  0  0
    3.7208    0.6566    0.0000 C   0  0  1  0  0  0  0  0  0  0  0  0
    3.4118    1.6077    0.0000 C   0  0  2  0  0  0  0  0  0  0  0  0
    4.7208    0.6566    0.0000 C   0  0  1  0  0  0  0  0  0  0  0  0
    4.2208    2.1955    0.0000 C   0  0  1  0  0  0  0  0  0  0  0  0
    5.3086   -0.1524    0.0000 C   0  0  0  0  0  0  0  0  0  0  0  0
    5.0868    3.6955    0.0000 C   0  0  0  0  0  0  0  0  0  0  0  0
    5.0868    4.6955    0.0000 C   0  0  0  0  0  0  0  0  0  0  0  0
    6.8189    3.6955    0.0000 C   0  0  0  0  0  0  0  0  0  0  0  0
    5.9529    5.1955    0.0000 C   0  0  0  0  0  0  0  0  0  0  0  0
    4.2208    6.1955    0.0000 C   0  0  0  0  0  0  0  0  0  0  0  0
    4.0023    0.1042    0.0000 H   0  0  0  0  0  0  0  0  0  0  0  0
    2.9734    1.1693    0.0000 H   0  0  0  0  0  0  0  0  0  0  0  0
    5.3332    0.7536    0.0000 H   0  0  0  0  0  0  0  0  0  0  0  0
    3.6684    2.4770    0.0000 H   0  0  0  0  0  0  0  0  0  0  0  0
    5.8226   -0.4991    0.0000 H   0  0  0  0  0  0  0  0  0  0  0  0
    5.7393    0.2936    0.0000 H   0  0  0  0  0  0  0  0  0  0  0  0
    3.6839    3.5055    0.0000 H   0  0  0  0  0  0  0  0  0  0  0  0
    2.5164   -0.0876    0.0000 H   0  0  0  0  0  0  0  0  0  0  0  0
    2.0000    1.5018    0.0000 H   0  0  0  0  0  0  0  0  0  0  0  0
    5.9529    2.5755    0.0000 H   0  0  0  0  0  0  0  0  0  0  0  0
    3.6839    4.8855    0.0000 H   0  0  0  0  0  0  0  0  0  0  0  0
    4.1142   -2.2106    0.0000 H   0  0  0  0  0  0  0  0  0  0  0  0
    8.2219    3.5055    0.0000 H   0  0  0  0  0  0  0  0  0  0  0  0
    7.6849    2.5755    0.0000 H   0  0  0  0  0  0  0  0  0  0  0  0
    4.7578    6.5055    0.0000 H   0  0  0  0  0  0  0  0  0  0  0  0
    7.0858   -3.6398    0.0000 H   0  0  0  0  0  0  0  0  0  0  0  0
    6.1874   -6.6955    0.0000 H   0  0  0  0  0  0  0  0  0  0  0  0
    4.4763   -5.6557    0.0000 H   0  0  0  0  0  0  0  0  0  0  0  0
  1  7  1  0  0  0  0
  1  8  1  0  0  0  0
  1  9  1  0  0  0  0
  1 10  2  0  0  0  0
  2  8  1  0  0  0  0
  2 12  1  0  0  0  0
  2 13  1  0  0  0  0
  2 14  2  0  0  0  0
  3 12  1  0  0  0  0
  3 16  1  0  0  0  0
  3 17  1  0  0  0  0
  3 18  2  0  0  0  0
  4 26  1  0  0  0  0
  4 27  1  0  0  0  0
 24  5  1  1  0  0  0
  5 41  1  0  0  0  0
 25  6  1  1  0  0  0
  6 42  1  0  0  0  0
  7 28  1  0  0  0  0
  9 45  1  0  0  0  0
 11 32  2  0  0  0  0
 13 49  1  0  0  0  0
 15 33  2  0  0  0  0
 16 50  1  0  0  0  0
 17 51  1  0  0  0  0
 27 19  1  6  0  0  0
 19 29  1  0  0  0  0
 19 40  1  0  0  0  0
 20 29  1  0  0  0  0
 20 31  1  0  0  0  0
 20 43  1  0  0  0  0
 21 30  1  0  0  0  0
 21 33  1  0  0  0  0
 21 44  1  0  0  0  0
 22 31  2  0  0  0  0
 22 32  1  0  0  0  0
 23 31  1  0  0  0  0
 23 46  1  0  0  0  0
 23 47  1  0  0  0  0
 24 25  1  0  0  0  0
 24 26  1  0  0  0  0
 24 34  1  0  0  0  0
 25 27  1  0  0  0  0
 25 35  1  0  0  0  0
 26 28  1  6  0  0  0
 26 36  1  0  0  0  0
 27 37  1  0  0  0  0
 28 38  1  0  0  0  0
 28 39  1  0  0  0  0
 29 30  2  0  0  0  0
 30 32  1  0  0  0  0
 33 48  1  0  0  0  0
M  END
> <PUBCHEM_COMPOUND_CID>
440840

> <PUBCHEM_COMPOUND_CANONICALIZED>
1

> <PUBCHEM_CACTVS_COMPLEXITY>
995

> <PUBCHEM_CACTVS_HBOND_ACCEPTOR>
16

> <PUBCHEM_CACTVS_HBOND_DONOR>
10

> <PUBCHEM_CACTVS_ROTATABLE_BOND>
10

> <PUBCHEM_CACTVS_SUBSKEYS>
AAADceBzvAMAAAAAAAAAAAAAAAAAASAAAAAgAAAAAAAAAAAAAAAAHgAQCCAACBzhgAYBAALABxCoQAVQ9ICAAAEAAAABAICIAEGDUAIAgCAeQAAPFAITAEDwMAIAAAAAAAAAAAAAAAAAAAAAAAAAAAAAAA==

> <PUBCHEM_IUPAC_OPENEYE_NAME>
[[(2R,3S,4R,5R)-5-[(2-amino-5-formamido-4-oxo-1H-pyrimidin-6-yl)amino]-3,4-dihydroxy-tetrahydrofuran-2-yl]methoxy-hydroxy-phosphoryl] phosphono hydrogen phosphate

> <PUBCHEM_IUPAC_CAS_NAME>
[[(2R,3S,4R,5R)-5-[(2-amino-5-formamido-4-oxo-1H-pyrimidin-6-yl)amino]-3,4-dihydroxy-2-oxolanyl]methoxy-hydroxyphosphoryl] phosphono hydrogen phosphate

> <PUBCHEM_IUPAC_NAME>
[[(2R,3S,4R,5R)-5-[(2-amino-5-formamido-4-oxo-1H-pyrimidin-6-yl)amino]-3,4-dihydroxyoxolan-2-yl]methoxy-hydroxyphosphoryl] phosphono hydrogen phosphate

> <PUBCHEM_IUPAC_SYSTEMATIC_NAME>
[[(2R,3S,4R,5R)-5-[(2-azanyl-5-formamido-4-oxidanylidene-1H-pyrimidin-6-yl)amino]-3,4-bis(oxidanyl)oxolan-2-yl]methoxy-oxidanyl-phosphoryl] phosphono hydrogen phosphate

> <PUBCHEM_IUPAC_TRADITIONAL_NAME>
[[(2R,3S,4R,5R)-5-[(2-amino-5-formamido-4-keto-1H-pyrimidin-6-yl)amino]-3,4-dihydroxy-tetrahydrofuran-2-yl]methoxy-hydroxy-phosphoryl] phosphono hydrogen phosphate

> <PUBCHEM_IUPAC_INCHI>
InChI=1S/C10H18N5O15P3/c11-10-14-7(4(12-2-16)8(19)15-10)13-9-6(18)5(17)3(28-9)1-27-32(23,24)30-33(25,26)29-31(20,21)22/h2-3,5-6,9,17-18H,1H2,(H,12,16)(H,23,24)(H,25,26)(H2,20,21,22)(H4,11,13,14,15,19)/t3-,5-,6-,9-/m1/s1

> <PUBCHEM_IUPAC_INCHIKEY>
NDXMRXXKCCKQQV-UUOKFMHZSA-N

> <PUBCHEM_XLOGP3_AA>
-7.1

> <PUBCHEM_EXACT_MASS>
541.001225

> <PUBCHEM_MOLECULAR_FORMULA>
C10H18N5O15P3

> <PUBCHEM_MOLECULAR_WEIGHT>
541.195706

> <PUBCHEM_OPENEYE_CAN_SMILES>
C(C1C(C(C(O1)NC2=C(C(=O)N=C(N2)N)NC=O)O)O)OP(=O)(O)OP(=O)(O)OP(=O)(O)O

> <PUBCHEM_OPENEYE_ISO_SMILES>
C([C@@H]1[C@H]([C@H]([C@@H](O1)NC2=C(C(=O)N=C(N2)N)NC=O)O)O)OP(=O)(O)OP(=O)(O)OP(=O)(O)O

> <PUBCHEM_CACTVS_TPSA>
318

> <PUBCHEM_MONOISOTOPIC_WEIGHT>
541.001225

> <PUBCHEM_TOTAL_CHARGE>
0

> <PUBCHEM_HEAVY_ATOM_COUNT>
33

> <PUBCHEM_ATOM_DEF_STEREO_COUNT>
4

> <PUBCHEM_ATOM_UDEF_STEREO_COUNT>
0

> <PUBCHEM_BOND_DEF_STEREO_COUNT>
0

> <PUBCHEM_BOND_UDEF_STEREO_COUNT>
0

> <PUBCHEM_ISOTOPIC_ATOM_COUNT>
0

> <PUBCHEM_COMPONENT_COUNT>
1

> <PUBCHEM_CACTVS_TAUTO_COUNT>
34

> <PUBCHEM_COORDINATE_TYPE>
1
5
255

> <PUBCHEM_BONDANNOTATIONS>
27  19  6
20  29  8
20  31  8
22  31  8
22  32  8
26  28  6
29  30  8
30  32  8
24  5  5
25  6  5

$$$$

