11899
  -OEChem-06261206153D

 14 14  0     0  0  0  0  0  0999 V2000
    0.9406   -2.4421    0.0012 Cl  0  0  0  0  0  0  0  0  0  0  0  0
   -3.8558   -0.0111   -0.0004 Cl  0  0  0  0  0  0  0  0  0  0  0  0
    2.5631    1.5564   -0.0002 O   0  5  0  0  0  0  0  0  0  0  0  0
    2.7668   -0.6293   -0.0005 O   0  0  0  0  0  0  0  0  0  0  0  0
    2.0633    0.4075   -0.0004 N   0  3  0  0  0  0  0  0  0  0  0  0
    0.6457    0.2754    0.0001 C   0  0  0  0  0  0  0  0  0  0  0  0
    0.0267   -0.9747   -0.0005 C   0  0  0  0  0  0  0  0  0  0  0  0
   -0.1273    1.4365    0.0007 C   0  0  0  0  0  0  0  0  0  0  0  0
   -1.3654   -1.0637   -0.0006 C   0  0  0  0  0  0  0  0  0  0  0  0
   -1.5192    1.3475    0.0006 C   0  0  0  0  0  0  0  0  0  0  0  0
   -2.1384    0.0975   -0.0001 C   0  0  0  0  0  0  0  0  0  0  0  0
    0.3139    2.4300    0.0011 H   0  0  0  0  0  0  0  0  0  0  0  0
   -1.8507   -2.0375   -0.0008 H   0  0  0  0  0  0  0  0  0  0  0  0
   -2.1094    2.2604    0.0010 H   0  0  0  0  0  0  0  0  0  0  0  0
  1  7  1  0  0  0  0
  2 11  1  0  0  0  0
  3  5  1  0  0  0  0
  4  5  2  0  0  0  0
  5  6  1  0  0  0  0
  6  7  2  0  0  0  0
  6  8  1  0  0  0  0
  7  9  1  0  0  0  0
  8 10  2  0  0  0  0
  8 12  1  0  0  0  0
  9 11  2  0  0  0  0
  9 13  1  0  0  0  0
 10 11  1  0  0  0  0
 10 14  1  0  0  0  0
M  CHG  2   3  -1   5   1
M  END
> <PUBCHEM_COMPOUND_CID>
11899

> <PUBCHEM_CONFORMER_RMSD>
0.4

> <PUBCHEM_CONFORMER_DIVERSEORDER>
1

> <PUBCHEM_MMFF94_PARTIAL_CHARGES>
14
1 -0.18
10 -0.15
11 0.18
12 0.15
13 0.15
14 0.15
2 -0.18
3 -0.52
4 -0.52
5 0.91
6 0.13
7 0.18
8 -0.15
9 -0.15

> <PUBCHEM_EFFECTIVE_ROTOR_COUNT>
1

> <PUBCHEM_PHARMACOPHORE_FEATURES>
4
1 3 acceptor
1 3 anion
1 4 acceptor
6 6 7 8 9 10 11 rings

> <PUBCHEM_HEAVY_ATOM_COUNT>
11

> <PUBCHEM_ATOM_DEF_STEREO_COUNT>
0

> <PUBCHEM_ATOM_UDEF_STEREO_COUNT>
0

> <PUBCHEM_BOND_DEF_STEREO_COUNT>
0

> <PUBCHEM_BOND_UDEF_STEREO_COUNT>
0

> <PUBCHEM_ISOTOPIC_ATOM_COUNT>
0

> <PUBCHEM_COMPONENT_COUNT>
1

> <PUBCHEM_CACTVS_TAUTO_COUNT>
1

> <PUBCHEM_CONFORMER_ID>
00002E7B00000001

> <PUBCHEM_MMFF94_ENERGY>
35.9215

> <PUBCHEM_FEATURE_SELFOVERLAP>
20.379

> <PUBCHEM_SHAPE_FINGERPRINT>
10219947 1 18413105039871146353
11471102 20 18410860962535273021
12032990 46 18411410718175191491
12897270 3 18411701010508582453
13380535 76 18412547595886781875
14325111 11 18410855443243899593
161256 15 18266734864794137911
16945 1 18410855507488944039
19021347 11 18411983602092712251
193761 8 17906171007491041733
20201158 50 18341612650586571363
20645476 183 17773017671282067110
20645477 70 18337397162209166247
21040471 1 18266459810978027460
21501502 16 18122341543421182913
23235685 24 18412549782077564609
23402655 69 18265351671658292477
23463225 33 18341897423855403330
23552423 10 18269269243375336975
241688 4 17546727513644521906
2748010 2 18195242222143266087
369184 2 18409168787863971609
5084963 1 18187365458333501976
528862 383 18342183314095677443
528886 8 18337958891658255979
7364860 26 18262520419692936534

> <PUBCHEM_SHAPE_MULTIPOLES>
213.39
4.39
2.01
0.6
1.96
0.65
0
-0.38
0
-0.99
0
0.07
0.03
0

> <PUBCHEM_SHAPE_SELFOVERLAP>
431.63

> <PUBCHEM_SHAPE_VOLUME>
126.9

> <PUBCHEM_COORDINATE_TYPE>
2
5
10

$$$$

