12308846
  -OEChem-07051213153D

 39 40  0     1  0  0  0  0  0999 V2000
    1.0442   -1.0501    0.0396 C   0  0  2  0  0  0  0  0  0  0  0  0
    2.4855   -1.2207   -0.5039 C   0  0  0  0  0  0  0  0  0  0  0  0
    0.1002   -1.8610   -0.8827 C   0  0  0  0  0  0  0  0  0  0  0  0
    0.6154    0.4259    0.0418 C   0  0  0  0  0  0  0  0  0  0  0  0
    3.4563   -0.2485    0.1487 C   0  0  0  0  0  0  0  0  0  0  0  0
   -1.3775   -1.7154   -0.5124 C   0  0  0  0  0  0  0  0  0  0  0  0
    1.5174    1.4367   -0.0121 C   0  0  0  0  0  0  0  0  0  0  0  0
    3.0130    1.1925   -0.0730 C   0  0  0  0  0  0  0  0  0  0  0  0
    0.9789   -1.6077    1.4833 C   0  0  0  0  0  0  0  0  0  0  0  0
   -1.7495   -0.3071   -0.1306 C   0  0  0  0  0  0  0  0  0  0  0  0
   -0.8293    0.6474    0.0987 C   0  0  0  0  0  0  0  0  0  0  0  0
   -3.2206   -0.0291   -0.0172 C   0  0  0  0  0  0  0  0  0  0  0  0
    1.1811    2.9088   -0.0634 C   0  0  0  0  0  0  0  0  0  0  0  0
   -3.5681    0.3927    1.4060 C   0  0  0  0  0  0  0  0  0  0  0  0
   -3.6470    1.0356   -1.0228 C   0  0  0  0  0  0  0  0  0  0  0  0
    2.5031   -1.0531   -1.5897 H   0  0  0  0  0  0  0  0  0  0  0  0
    2.8348   -2.2487   -0.3455 H   0  0  0  0  0  0  0  0  0  0  0  0
    0.3702   -2.9248   -0.8731 H   0  0  0  0  0  0  0  0  0  0  0  0
    0.2269   -1.5232   -1.9214 H   0  0  0  0  0  0  0  0  0  0  0  0
    4.4615   -0.3899   -0.2658 H   0  0  0  0  0  0  0  0  0  0  0  0
    3.5393   -0.4511    1.2223 H   0  0  0  0  0  0  0  0  0  0  0  0
   -1.6209   -2.3858    0.3207 H   0  0  0  0  0  0  0  0  0  0  0  0
   -1.9788   -2.0421   -1.3696 H   0  0  0  0  0  0  0  0  0  0  0  0
    3.3654    1.5155   -1.0615 H   0  0  0  0  0  0  0  0  0  0  0  0
    3.5202    1.8265    0.6649 H   0  0  0  0  0  0  0  0  0  0  0  0
   -0.0321   -1.5706    1.9024 H   0  0  0  0  0  0  0  0  0  0  0  0
    1.3042   -2.6540    1.5121 H   0  0  0  0  0  0  0  0  0  0  0  0
    1.6176   -1.0416    2.1696 H   0  0  0  0  0  0  0  0  0  0  0  0
   -1.1680    1.6440    0.3598 H   0  0  0  0  0  0  0  0  0  0  0  0
   -3.7843   -0.9441   -0.2395 H   0  0  0  0  0  0  0  0  0  0  0  0
    0.1352    3.1207   -0.2931 H   0  0  0  0  0  0  0  0  0  0  0  0
    1.7682    3.4013   -0.8469 H   0  0  0  0  0  0  0  0  0  0  0  0
    1.4249    3.3811    0.8937 H   0  0  0  0  0  0  0  0  0  0  0  0
   -3.1238    1.3558    1.6804 H   0  0  0  0  0  0  0  0  0  0  0  0
   -3.2331   -0.3550    2.1340 H   0  0  0  0  0  0  0  0  0  0  0  0
   -4.6537    0.4944    1.5165 H   0  0  0  0  0  0  0  0  0  0  0  0
   -3.3694    0.7488   -2.0434 H   0  0  0  0  0  0  0  0  0  0  0  0
   -3.2021    2.0144   -0.8129 H   0  0  0  0  0  0  0  0  0  0  0  0
   -4.7352    1.1629   -1.0017 H   0  0  0  0  0  0  0  0  0  0  0  0
  1  2  1  0  0  0  0
  1  3  1  0  0  0  0
  1  4  1  0  0  0  0
  1  9  1  0  0  0  0
  2  5  1  0  0  0  0
  2 16  1  0  0  0  0
  2 17  1  0  0  0  0
  3  6  1  0  0  0  0
  3 18  1  0  0  0  0
  3 19  1  0  0  0  0
  4  7  2  0  0  0  0
  4 11  1  0  0  0  0
  5  8  1  0  0  0  0
  5 20  1  0  0  0  0
  5 21  1  0  0  0  0
  6 10  1  0  0  0  0
  6 22  1  0  0  0  0
  6 23  1  0  0  0  0
  7  8  1  0  0  0  0
  7 13  1  0  0  0  0
  8 24  1  0  0  0  0
  8 25  1  0  0  0  0
  9 26  1  0  0  0  0
  9 27  1  0  0  0  0
  9 28  1  0  0  0  0
 10 11  2  0  0  0  0
 10 12  1  0  0  0  0
 11 29  1  0  0  0  0
 12 14  1  0  0  0  0
 12 15  1  0  0  0  0
 12 30  1  0  0  0  0
 13 31  1  0  0  0  0
 13 32  1  0  0  0  0
 13 33  1  0  0  0  0
 14 34  1  0  0  0  0
 14 35  1  0  0  0  0
 14 36  1  0  0  0  0
 15 37  1  0  0  0  0
 15 38  1  0  0  0  0
 15 39  1  0  0  0  0
M  END
> <PUBCHEM_COMPOUND_CID>
12308846

> <PUBCHEM_CONFORMER_RMSD>
0.6

> <PUBCHEM_CONFORMER_DIVERSEORDER>
1
2

> <PUBCHEM_MMFF94_PARTIAL_CHARGES>
10
1 0.14
10 -0.28
11 -0.15
12 0.14
13 0.14
29 0.15
4 -0.14
6 0.14
7 -0.28
8 0.14

> <PUBCHEM_EFFECTIVE_ROTOR_COUNT>
2

> <PUBCHEM_PHARMACOPHORE_FEATURES>
3
3 12 14 15 hydrophobe
6 1 2 4 5 7 8 rings
6 1 3 4 6 10 11 rings

> <PUBCHEM_HEAVY_ATOM_COUNT>
15

> <PUBCHEM_ATOM_DEF_STEREO_COUNT>
1

> <PUBCHEM_ATOM_UDEF_STEREO_COUNT>
0

> <PUBCHEM_BOND_DEF_STEREO_COUNT>
0

> <PUBCHEM_BOND_UDEF_STEREO_COUNT>
0

> <PUBCHEM_ISOTOPIC_ATOM_COUNT>
0

> <PUBCHEM_COMPONENT_COUNT>
1

> <PUBCHEM_CACTVS_TAUTO_COUNT>
1

> <PUBCHEM_CONFORMER_ID>
00BBD16E00000001

> <PUBCHEM_MMFF94_ENERGY>
25.8615

> <PUBCHEM_FEATURE_SELFOVERLAP>
15.242

> <PUBCHEM_SHAPE_FINGERPRINT>
10219947 1 18335138742948563639
10366900 7 17703780410705970947
104564 63 18121215647704273748
10608611 8 18341898459153693709
10967382 1 18409167727144043748
10980938 120 18411983567790697326
11132069 177 18409177592979341240
11471102 20 18410296929791163741
11543360 7 14996292370343321560
12423570 1 17825658963810577814
12491281 212 18189043222877971682
12654215 9 18270689778012370124
12932764 1 18131350834536207939
13140716 1 18265333906612908520
13221675 6 18410573993752117151
13380535 21 18338505327325423495
13705890 14 6050441517967349478
14144814 61 18334011705081096449
14289901 80 16988832878717580667
14993402 34 18334015020637626022
15219456 202 18273494593936754781
15309172 13 18334855043600923139
15490181 8 17765999394109608680
15775835 57 18340483366018594324
16945 1 18409162220980230454
17844478 74 17917705812311210365
18186145 218 18260821588080529636
18219364 16 18413387644461205093
20233049 118 18272091664012030852
20511035 2 18052812551449699508
20606313 2 18410014355366193772
20645477 70 18339368568966221895
21501502 16 18193838133083813102
21524375 3 18195246602988828453
21639500 275 18335432244234818325
22094290 62 18337391547958760328
22112679 90 18192743139951887354
231179 274 18272940448407704181
2334 1 17977387127067400732
23402539 116 18187940520442987694
23419403 2 15896066698658633566
23463225 33 18410012156501044238
23558518 356 17838341778590898122
23559900 14 17969493815835913188
25 1 18342453721088982540
2748010 2 18264768744698374118
3060560 45 18261401086743416031
34934 24 18338529594307195270
528886 8 18260552216611887262
568465 68 17631147788717913939
5939293 188 18410582811325614420
7364860 26 18261114015466665472
74978 22 18335707087560159429
77492 1 17530965812881661341
7832392 63 18334296431342723518
81228 2 17258221194492018441

> <PUBCHEM_SHAPE_MULTIPOLES>
308.69
5.64
2.32
1.06
2.96
0.81
-0.27
1.32
-0.14
-1.1
0.2
0.55
-0.26
-0.05

> <PUBCHEM_SHAPE_SELFOVERLAP>
633.724

> <PUBCHEM_SHAPE_VOLUME>
176.6

> <PUBCHEM_COORDINATE_TYPE>
2
5
10

$$$$

