5270647
  -OEChem-07051212513D

 28 28  0     0  0  0  0  0  0999 V2000
    2.5925    0.2941    0.0542 O   0  0  0  0  0  0  0  0  0  0  0  0
    1.8464   -1.8669   -0.2783 O   0  0  0  0  0  0  0  0  0  0  0  0
    4.8715    1.0419    0.1865 C   0  0  0  0  0  0  0  0  0  0  0  0
    3.9509   -0.1542   -0.0018 C   0  0  0  0  0  0  0  0  0  0  0  0
    6.3350    0.6436    0.1237 C   0  0  0  0  0  0  0  0  0  0  0  0
   -2.1601   -0.2467   -0.0479 C   0  0  0  0  0  0  0  0  0  0  0  0
   -0.8035   -0.7659   -0.1249 C   0  0  0  0  0  0  0  0  0  0  0  0
   -2.4008    1.1102   -0.2645 C   0  0  0  0  0  0  0  0  0  0  0  0
   -3.2203   -1.1054    0.2424 C   0  0  0  0  0  0  0  0  0  0  0  0
    0.3224   -0.0264   -0.0151 C   0  0  0  0  0  0  0  0  0  0  0  0
    1.6504   -0.6753   -0.1001 C   0  0  0  0  0  0  0  0  0  0  0  0
   -3.7016    1.6083   -0.1905 C   0  0  0  0  0  0  0  0  0  0  0  0
   -4.5211   -0.6072    0.3163 C   0  0  0  0  0  0  0  0  0  0  0  0
   -4.7617    0.7497    0.0999 C   0  0  0  0  0  0  0  0  0  0  0  0
    4.6575    1.7951   -0.5812 H   0  0  0  0  0  0  0  0  0  0  0  0
    4.6568    1.5231    1.1482 H   0  0  0  0  0  0  0  0  0  0  0  0
    4.1361   -0.6232   -0.9753 H   0  0  0  0  0  0  0  0  0  0  0  0
    4.1219   -0.8906    0.7922 H   0  0  0  0  0  0  0  0  0  0  0  0
    6.5787    0.1963   -0.8453 H   0  0  0  0  0  0  0  0  0  0  0  0
    6.9734    1.5217    0.2624 H   0  0  0  0  0  0  0  0  0  0  0  0
    6.5785   -0.0806    0.9077 H   0  0  0  0  0  0  0  0  0  0  0  0
   -0.7224   -1.8410   -0.2714 H   0  0  0  0  0  0  0  0  0  0  0  0
   -1.6104    1.8123   -0.5131 H   0  0  0  0  0  0  0  0  0  0  0  0
   -3.0523   -2.1657    0.4155 H   0  0  0  0  0  0  0  0  0  0  0  0
    0.3088    1.0439    0.1575 H   0  0  0  0  0  0  0  0  0  0  0  0
   -3.8903    2.6639   -0.3635 H   0  0  0  0  0  0  0  0  0  0  0  0
   -5.3468   -1.2755    0.5424 H   0  0  0  0  0  0  0  0  0  0  0  0
   -5.7746    1.1373    0.1563 H   0  0  0  0  0  0  0  0  0  0  0  0
  1  4  1  0  0  0  0
  1 11  1  0  0  0  0
  2 11  2  0  0  0  0
  3  4  1  0  0  0  0
  3  5  1  0  0  0  0
  3 15  1  0  0  0  0
  3 16  1  0  0  0  0
  4 17  1  0  0  0  0
  4 18  1  0  0  0  0
  5 19  1  0  0  0  0
  5 20  1  0  0  0  0
  5 21  1  0  0  0  0
  6  7  1  0  0  0  0
  6  8  2  0  0  0  0
  6  9  1  0  0  0  0
  7 10  2  0  0  0  0
  7 22  1  0  0  0  0
  8 12  1  0  0  0  0
  8 23  1  0  0  0  0
  9 13  2  0  0  0  0
  9 24  1  0  0  0  0
 10 11  1  0  0  0  0
 10 25  1  0  0  0  0
 12 14  2  0  0  0  0
 12 26  1  0  0  0  0
 13 14  1  0  0  0  0
 13 27  1  0  0  0  0
 14 28  1  0  0  0  0
M  END
> <PUBCHEM_COMPOUND_CID>
5270647

> <PUBCHEM_CONFORMER_RMSD>
0.6

> <PUBCHEM_CONFORMER_DIVERSEORDER>
1
28
37
9
10
38
31
30
23
41
32
18
35
7
27
3
26
17
40
29
34
20
16
2
36
4
39
25
19
8
12
13
14
15
33
22
24
11
21
5
6

> <PUBCHEM_MMFF94_PARTIAL_CHARGES>
19
1 -0.43
10 -0.14
11 0.71
12 -0.15
13 -0.15
14 -0.15
2 -0.57
22 0.15
23 0.15
24 0.15
25 0.15
26 0.15
27 0.15
28 0.15
4 0.28
6 0.03
7 -0.18
8 -0.15
9 -0.15

> <PUBCHEM_EFFECTIVE_ROTOR_COUNT>
5

> <PUBCHEM_PHARMACOPHORE_FEATURES>
3
1 2 acceptor
1 5 hydrophobe
6 6 8 9 12 13 14 rings

> <PUBCHEM_HEAVY_ATOM_COUNT>
14

> <PUBCHEM_ATOM_DEF_STEREO_COUNT>
0

> <PUBCHEM_ATOM_UDEF_STEREO_COUNT>
0

> <PUBCHEM_BOND_DEF_STEREO_COUNT>
1

> <PUBCHEM_BOND_UDEF_STEREO_COUNT>
0

> <PUBCHEM_ISOTOPIC_ATOM_COUNT>
0

> <PUBCHEM_COMPONENT_COUNT>
1

> <PUBCHEM_CACTVS_TAUTO_COUNT>
1

> <PUBCHEM_CONFORMER_ID>
00506C7700000001

> <PUBCHEM_MMFF94_ENERGY>
28.3293

> <PUBCHEM_FEATURE_SELFOVERLAP>
15.223

> <PUBCHEM_SHAPE_FINGERPRINT>
10014705 185 18272092738286760549
100836 57 18411134723898516964
10354089 29 17917711293169579800
11128504 68 14634874119865364496
13081056 2 18407477756582359956
13214271 11 18411983546579592255
13533116 47 14129329738046169718
13690532 89 10015866483420321580
13897977 58 18411981360383345949
14123238 8 18342739611081115792
14251752 14 5039402042018147192
14252887 29 13830140520351440256
15048467 5 18187079585832779689
15501527 16 18408602565140202609
17834076 25 17822009804755007768
20281389 69 18343024389547521328
20432913 95 14405188386716443856
20645477 56 18407761430175968935
20645477 70 17385995226598567678
23272321 79 18341049614733843124
23402539 116 18130512950387613263
23402655 69 17967816075899996220
23559900 14 18119813770442364254
26918003 58 12103846760874079053
2916195 48 18187654548894110992
300161 21 18202289129952704615
3545911 37 18409728473599913533
42788 4 18410573972751865448
441001 317 18334857233686221161
449060 50 18410572907177983071
5104073 3 18199743807831843747
77779 3 18410854403671955391

> <PUBCHEM_SHAPE_MULTIPOLES>
276.37
13.09
1.43
0.63
14.24
0.01
-0.01
-4.21
-1.15
-0.6
0.07
-0.06
0
0.38

> <PUBCHEM_SHAPE_SELFOVERLAP>
558.814

> <PUBCHEM_SHAPE_VOLUME>
161.6

> <PUBCHEM_COORDINATE_TYPE>
2
5
10

$$$$

