11954159
  -OEChem-07051213072D

 68 70  0     0  0  0  0  0  0999 V2000
    4.7839    0.0000    0.0000 Cl  0  0  0  0  0  0  0  0  0  0  0  0
    6.1899    8.7252    0.0000 O   0  0  0  0  0  0  0  0  0  0  0  0
    1.4030    3.1184    0.0000 O   0  0  0  0  0  0  0  0  0  0  0  0
    9.5309    4.1184    0.0000 O   0  0  0  0  0  0  0  0  0  0  0  0
    5.1649   11.1643    0.0000 N   0  0  0  0  0  0  0  0  0  0  0  0
    4.9473    3.3136    0.0000 C   0  0  0  0  0  0  0  0  0  0  0  0
    5.5309    4.1184    0.0000 C   0  0  0  0  0  0  0  0  0  0  0  0
    4.9473    4.9231    0.0000 C   0  0  0  0  0  0  0  0  0  0  0  0
    4.0010    3.6184    0.0000 C   0  0  0  0  0  0  0  0  0  0  0  0
    4.0010    4.6184    0.0000 C   0  0  0  0  0  0  0  0  0  0  0  0
    5.2579    5.8736    0.0000 C   0  0  0  0  0  0  0  0  0  0  0  0
    6.5309    4.1184    0.0000 C   0  0  0  0  0  0  0  0  0  0  0  0
    3.1350    3.1184    0.0000 C   0  0  0  0  0  0  0  0  0  0  0  0
    3.1350    5.1184    0.0000 C   0  0  0  0  0  0  0  0  0  0  0  0
    2.2690    3.6184    0.0000 C   0  0  0  0  0  0  0  0  0  0  0  0
    2.2690    4.6184    0.0000 C   0  0  0  0  0  0  0  0  0  0  0  0
    6.2364    6.0798    0.0000 C   0  0  0  0  0  0  0  0  0  0  0  0
    4.5901    6.6179    0.0000 C   0  0  0  0  0  0  0  0  0  0  0  0
    7.0309    3.2523    0.0000 C   0  0  0  0  0  0  0  0  0  0  0  0
    7.0309    4.9844    0.0000 C   0  0  0  0  0  0  0  0  0  0  0  0
    5.8327   10.4200    0.0000 C   0  0  0  0  0  0  0  0  0  0  0  0
    5.8792    7.7746    0.0000 C   0  0  0  0  0  0  0  0  0  0  0  0
    6.5471    7.0304    0.0000 C   0  0  0  0  0  0  0  0  0  0  0  0
    4.9007    7.5684    0.0000 C   0  0  0  0  0  0  0  0  0  0  0  0
    5.5221    9.4695    0.0000 C   0  0  0  0  0  0  0  0  0  0  0  0
    5.4755   12.1148    0.0000 C   0  0  0  0  0  0  0  0  0  0  0  0
    4.1864   10.9581    0.0000 C   0  0  0  0  0  0  0  0  0  0  0  0
    8.0309    3.2523    0.0000 C   0  0  0  0  0  0  0  0  0  0  0  0
    8.0309    4.9844    0.0000 C   0  0  0  0  0  0  0  0  0  0  0  0
    8.5309    4.1184    0.0000 C   0  0  0  0  0  0  0  0  0  0  0  0
    3.5185   11.7024    0.0000 C   0  0  0  0  0  0  0  0  0  0  0  0
    4.8077   12.8591    0.0000 C   0  0  0  0  0  0  0  0  0  0  0  0
    0.5369    3.6184    0.0000 C   0  0  0  0  0  0  0  0  0  0  0  0
   10.0309    3.2523    0.0000 C   0  0  0  0  0  0  0  0  0  0  0  0
    4.6962    2.7467    0.0000 H   0  0  0  0  0  0  0  0  0  0  0  0
    5.4846    3.0044    0.0000 H   0  0  0  0  0  0  0  0  0  0  0  0
    3.1350    2.4984    0.0000 H   0  0  0  0  0  0  0  0  0  0  0  0
    3.1350    5.7383    0.0000 H   0  0  0  0  0  0  0  0  0  0  0  0
    1.7320    4.9284    0.0000 H   0  0  0  0  0  0  0  0  0  0  0  0
    6.6505    5.6184    0.0000 H   0  0  0  0  0  0  0  0  0  0  0  0
    3.9834    6.4900    0.0000 H   0  0  0  0  0  0  0  0  0  0  0  0
    6.7209    2.7154    0.0000 H   0  0  0  0  0  0  0  0  0  0  0  0
    6.7209    5.5213    0.0000 H   0  0  0  0  0  0  0  0  0  0  0  0
    6.3796   10.1280    0.0000 H   0  0  0  0  0  0  0  0  0  0  0  0
    6.2153   10.9079    0.0000 H   0  0  0  0  0  0  0  0  0  0  0  0
    7.1538    7.1582    0.0000 H   0  0  0  0  0  0  0  0  0  0  0  0
    4.4867    8.0299    0.0000 H   0  0  0  0  0  0  0  0  0  0  0  0
    4.9751    9.7615    0.0000 H   0  0  0  0  0  0  0  0  0  0  0  0
    5.1395    8.9816    0.0000 H   0  0  0  0  0  0  0  0  0  0  0  0
    6.0225   11.8228    0.0000 H   0  0  0  0  0  0  0  0  0  0  0  0
    5.8581   12.6027    0.0000 H   0  0  0  0  0  0  0  0  0  0  0  0
    3.6600   10.6304    0.0000 H   0  0  0  0  0  0  0  0  0  0  0  0
    4.4176   10.3828    0.0000 H   0  0  0  0  0  0  0  0  0  0  0  0
    8.3409    2.7154    0.0000 H   0  0  0  0  0  0  0  0  0  0  0  0
    8.3409    5.5213    0.0000 H   0  0  0  0  0  0  0  0  0  0  0  0
    3.9800   12.1164    0.0000 H   0  0  0  0  0  0  0  0  0  0  0  0
    3.1045   12.1638    0.0000 H   0  0  0  0  0  0  0  0  0  0  0  0
    3.0571   11.2883    0.0000 H   0  0  0  0  0  0  0  0  0  0  0  0
    5.2692   13.2732    0.0000 H   0  0  0  0  0  0  0  0  0  0  0  0
    4.3936   13.3206    0.0000 H   0  0  0  0  0  0  0  0  0  0  0  0
    4.3462   12.4451    0.0000 H   0  0  0  0  0  0  0  0  0  0  0  0
    0.8469    4.1553    0.0000 H   0  0  0  0  0  0  0  0  0  0  0  0
    0.0000    3.9284    0.0000 H   0  0  0  0  0  0  0  0  0  0  0  0
    0.2269    3.0814    0.0000 H   0  0  0  0  0  0  0  0  0  0  0  0
    9.4939    2.9423    0.0000 H   0  0  0  0  0  0  0  0  0  0  0  0
   10.3409    2.7154    0.0000 H   0  0  0  0  0  0  0  0  0  0  0  0
   10.5678    3.5623    0.0000 H   0  0  0  0  0  0  0  0  0  0  0  0
    5.7839    0.0000    0.0000 H   0  0  0  0  0  0  0  0  0  0  0  0
  1 68  1  0  0  0  0
  2 22  1  0  0  0  0
  2 25  1  0  0  0  0
  3 15  1  0  0  0  0
  3 33  1  0  0  0  0
  4 30  1  0  0  0  0
  4 34  1  0  0  0  0
  5 21  1  0  0  0  0
  5 26  1  0  0  0  0
  5 27  1  0  0  0  0
  6  7  1  0  0  0  0
  6  9  1  0  0  0  0
  6 35  1  0  0  0  0
  6 36  1  0  0  0  0
  7  8  2  0  0  0  0
  7 12  1  0  0  0  0
  8 10  1  0  0  0  0
  8 11  1  0  0  0  0
  9 10  2  0  0  0  0
  9 13  1  0  0  0  0
 10 14  1  0  0  0  0
 11 17  2  0  0  0  0
 11 18  1  0  0  0  0
 12 19  2  0  0  0  0
 12 20  1  0  0  0  0
 13 15  2  0  0  0  0
 13 37  1  0  0  0  0
 14 16  2  0  0  0  0
 14 38  1  0  0  0  0
 15 16  1  0  0  0  0
 16 39  1  0  0  0  0
 17 23  1  0  0  0  0
 17 40  1  0  0  0  0
 18 24  2  0  0  0  0
 18 41  1  0  0  0  0
 19 28  1  0  0  0  0
 19 42  1  0  0  0  0
 20 29  2  0  0  0  0
 20 43  1  0  0  0  0
 21 25  1  0  0  0  0
 21 44  1  0  0  0  0
 21 45  1  0  0  0  0
 22 23  2  0  0  0  0
 22 24  1  0  0  0  0
 23 46  1  0  0  0  0
 24 47  1  0  0  0  0
 25 48  1  0  0  0  0
 25 49  1  0  0  0  0
 26 32  1  0  0  0  0
 26 50  1  0  0  0  0
 26 51  1  0  0  0  0
 27 31  1  0  0  0  0
 27 52  1  0  0  0  0
 27 53  1  0  0  0  0
 28 30  2  0  0  0  0
 28 54  1  0  0  0  0
 29 30  1  0  0  0  0
 29 55  1  0  0  0  0
 31 56  1  0  0  0  0
 31 57  1  0  0  0  0
 31 58  1  0  0  0  0
 32 59  1  0  0  0  0
 32 60  1  0  0  0  0
 32 61  1  0  0  0  0
 33 62  1  0  0  0  0
 33 63  1  0  0  0  0
 33 64  1  0  0  0  0
 34 65  1  0  0  0  0
 34 66  1  0  0  0  0
 34 67  1  0  0  0  0
M  END
> <PUBCHEM_COMPOUND_CID>
11954159

> <PUBCHEM_COMPOUND_CANONICALIZED>
1

> <PUBCHEM_CACTVS_COMPLEXITY>
614

> <PUBCHEM_CACTVS_HBOND_ACCEPTOR>
4

> <PUBCHEM_CACTVS_HBOND_DONOR>
1

> <PUBCHEM_CACTVS_ROTATABLE_BOND>
10

> <PUBCHEM_CACTVS_SUBSKEYS>
AAADcfB6MAAEAAAAAAAAAAAAAAAAAQAAAAAwYMAAAAAAAEABUAAAHgAAAAAADAThmAYyBoMABACAAiBCAAACCAAgIAAIiAAOCIgOJiKEMRqDOCCkwBGYqAeAwPAOoAABAAAQAABAAAIAACAAAAAAAAAAAA==

> <PUBCHEM_IUPAC_OPENEYE_NAME>
N,N-diethyl-2-[4-[5-methoxy-2-(4-methoxyphenyl)-3H-inden-1-yl]phenoxy]ethanamine hydrochloride

> <PUBCHEM_IUPAC_CAS_NAME>
N,N-diethyl-2-[4-[5-methoxy-2-(4-methoxyphenyl)-3H-inden-1-yl]phenoxy]ethanamine hydrochloride

> <PUBCHEM_IUPAC_NAME>
N,N-diethyl-2-[4-[5-methoxy-2-(4-methoxyphenyl)-3H-inden-1-yl]phenoxy]ethanamine hydrochloride

> <PUBCHEM_IUPAC_SYSTEMATIC_NAME>
N,N-diethyl-2-[4-[5-methoxy-2-(4-methoxyphenyl)-3H-inden-1-yl]phenoxy]ethanamine hydrochloride

> <PUBCHEM_IUPAC_TRADITIONAL_NAME>
diethyl-[2-[4-[5-methoxy-2-(4-methoxyphenyl)-3H-inden-1-yl]phenoxy]ethyl]amine hydrochloride

> <PUBCHEM_IUPAC_INCHI>
InChI=1S/C29H33NO3.ClH/c1-5-30(6-2)17-18-33-25-13-9-22(10-14-25)29-27-16-15-26(32-4)19-23(27)20-28(29)21-7-11-24(31-3)12-8-21;/h7-16,19H,5-6,17-18,20H2,1-4H3;1H

> <PUBCHEM_IUPAC_INCHIKEY>
IMYZPHYHJMOFCY-UHFFFAOYSA-N

> <PUBCHEM_EXACT_MASS>
479.222722

> <PUBCHEM_MOLECULAR_FORMULA>
C29H34ClNO3

> <PUBCHEM_MOLECULAR_WEIGHT>
480.03816

> <PUBCHEM_OPENEYE_CAN_SMILES>
CCN(CC)CCOC1=CC=C(C=C1)C2=C(CC3=C2C=CC(=C3)OC)C4=CC=C(C=C4)OC.Cl

> <PUBCHEM_OPENEYE_ISO_SMILES>
CCN(CC)CCOC1=CC=C(C=C1)C2=C(CC3=C2C=CC(=C3)OC)C4=CC=C(C=C4)OC.Cl

> <PUBCHEM_CACTVS_TPSA>
30.9

> <PUBCHEM_MONOISOTOPIC_WEIGHT>
479.222722

> <PUBCHEM_TOTAL_CHARGE>
0

> <PUBCHEM_HEAVY_ATOM_COUNT>
34

> <PUBCHEM_ATOM_DEF_STEREO_COUNT>
0

> <PUBCHEM_ATOM_UDEF_STEREO_COUNT>
0

> <PUBCHEM_BOND_DEF_STEREO_COUNT>
0

> <PUBCHEM_BOND_UDEF_STEREO_COUNT>
0

> <PUBCHEM_ISOTOPIC_ATOM_COUNT>
0

> <PUBCHEM_COMPONENT_COUNT>
2

> <PUBCHEM_CACTVS_TAUTO_COUNT>
1

> <PUBCHEM_COORDINATE_TYPE>
1
5
255

> <PUBCHEM_BONDANNOTATIONS>
10  14  8
11  17  8
11  18  8
12  19  8
12  20  8
13  15  8
14  16  8
15  16  8
17  23  8
18  24  8
19  28  8
20  29  8
22  23  8
22  24  8
28  30  8
29  30  8
9  10  8
9  13  8

$$$$

