443000
  -OEChem-07051213003D

 25 26  0     1  0  0  0  0  0999 V2000
    2.6767   -0.6068   -0.0183 O   0  0  0  0  0  0  0  0  0  0  0  0
    0.4055   -2.1880   -0.6741 O   0  0  0  0  0  0  0  0  0  0  0  0
   -2.5939    1.0790   -0.1349 O   0  0  0  0  0  0  0  0  0  0  0  0
   -2.0131   -1.7433    0.5253 O   0  0  0  0  0  0  0  0  0  0  0  0
    0.9461    0.6287   -1.1547 N   0  0  0  0  0  0  0  0  0  0  0  0
    1.3625   -0.0793    0.0668 C   0  0  1  0  0  0  0  0  0  0  0  0
   -0.2464    1.3681   -0.7193 C   0  0  2  0  0  0  0  0  0  0  0  0
    0.3613   -1.2168    0.3759 C   0  0  1  0  0  0  0  0  0  0  0  0
    1.3238    1.0487    1.1006 C   0  0  0  0  0  0  0  0  0  0  0  0
    0.2533    2.0118    0.5785 C   0  0  0  0  0  0  0  0  0  0  0  0
   -1.4088    0.3771   -0.5048 C   0  0  1  0  0  0  0  0  0  0  0  0
   -1.0670   -0.6791    0.5590 C   0  0  1  0  0  0  0  0  0  0  0  0
   -0.5356    2.1380   -1.4423 H   0  0  0  0  0  0  0  0  0  0  0  0
    0.6722   -1.7519    1.2814 H   0  0  0  0  0  0  0  0  0  0  0  0
    2.2892    1.5655    1.1705 H   0  0  0  0  0  0  0  0  0  0  0  0
    1.0840    0.6849    2.1057 H   0  0  0  0  0  0  0  0  0  0  0  0
   -0.5427    2.1765    1.3114 H   0  0  0  0  0  0  0  0  0  0  0  0
    0.7165    2.9838    0.3684 H   0  0  0  0  0  0  0  0  0  0  0  0
   -1.6383   -0.1227   -1.4549 H   0  0  0  0  0  0  0  0  0  0  0  0
   -1.1648   -0.2219    1.5513 H   0  0  0  0  0  0  0  0  0  0  0  0
    0.7092   -0.0385   -1.8877 H   0  0  0  0  0  0  0  0  0  0  0  0
    2.6953   -1.2000   -0.7884 H   0  0  0  0  0  0  0  0  0  0  0  0
   -0.2547   -2.8709   -0.4663 H   0  0  0  0  0  0  0  0  0  0  0  0
   -3.2902    0.4164    0.0131 H   0  0  0  0  0  0  0  0  0  0  0  0
   -1.7653   -2.3760    1.2210 H   0  0  0  0  0  0  0  0  0  0  0  0
  1  6  1  0  0  0  0
  1 22  1  0  0  0  0
  2  8  1  0  0  0  0
  2 23  1  0  0  0  0
  3 11  1  0  0  0  0
  3 24  1  0  0  0  0
  4 12  1  0  0  0  0
  4 25  1  0  0  0  0
  5  6  1  0  0  0  0
  5  7  1  0  0  0  0
  5 21  1  0  0  0  0
  6  8  1  0  0  0  0
  6  9  1  0  0  0  0
  7 10  1  0  0  0  0
  7 11  1  0  0  0  0
  7 13  1  0  0  0  0
  8 12  1  0  0  0  0
  8 14  1  0  0  0  0
  9 10  1  0  0  0  0
  9 15  1  0  0  0  0
  9 16  1  0  0  0  0
 10 17  1  0  0  0  0
 10 18  1  0  0  0  0
 11 12  1  0  0  0  0
 11 19  1  0  0  0  0
 12 20  1  0  0  0  0
M  END
> <PUBCHEM_COMPOUND_CID>
443000

> <PUBCHEM_CONFORMER_RMSD>
0.4

> <PUBCHEM_CONFORMER_DIVERSEORDER>
1
2
3

> <PUBCHEM_MMFF94_PARTIAL_CHARGES>
15
1 -0.68
11 0.28
12 0.28
2 -0.68
21 0.36
22 0.4
23 0.4
24 0.4
25 0.4
3 -0.68
4 -0.68
5 -0.9
6 0.55
7 0.27
8 0.28

> <PUBCHEM_EFFECTIVE_ROTOR_COUNT>
1.2

> <PUBCHEM_PHARMACOPHORE_FEATURES>
11
1 1 acceptor
1 1 donor
1 2 acceptor
1 2 donor
1 3 acceptor
1 3 donor
1 4 acceptor
1 4 donor
1 5 cation
1 5 donor
8 5 6 7 8 9 10 11 12 rings

> <PUBCHEM_HEAVY_ATOM_COUNT>
12

> <PUBCHEM_ATOM_DEF_STEREO_COUNT>
3

> <PUBCHEM_ATOM_UDEF_STEREO_COUNT>
2

> <PUBCHEM_BOND_DEF_STEREO_COUNT>
0

> <PUBCHEM_BOND_UDEF_STEREO_COUNT>
0

> <PUBCHEM_ISOTOPIC_ATOM_COUNT>
0

> <PUBCHEM_COMPONENT_COUNT>
1

> <PUBCHEM_CACTVS_TAUTO_COUNT>
1

> <PUBCHEM_CONFORMER_ID>
0006C27800000001

> <PUBCHEM_MMFF94_ENERGY>
29.6795

> <PUBCHEM_FEATURE_SELFOVERLAP>
55.871

> <PUBCHEM_SHAPE_FINGERPRINT>
12423570 1 17835811789392520072
13024252 1 13613656601937094452
137420 1 6820555349314518844
16945 1 18059026097489722064
20588541 1 18339079422782222863
21040471 1 18271531986913411437
21922407 69 15721349821385707733
23235685 24 18271530917266146765
241688 4 17189251029062576872
2748010 2 18338803312140543700
5084963 1 18130507409985199003

> <PUBCHEM_SHAPE_MULTIPOLES>
218.5
2.52
2.08
0.98
0.41
0.27
-0.02
0.21
0.18
0.23
0.03
-0.15
-0.14
0.39

> <PUBCHEM_SHAPE_SELFOVERLAP>
459.446

> <PUBCHEM_SHAPE_VOLUME>
123.4

> <PUBCHEM_COORDINATE_TYPE>
2
5
10

$$$$

