439538
  -OEChem-07051212463D

 37 38  0     1  0  0  0  0  0999 V2000
   -0.0100   -0.0194   -0.7993 O   0  0  0  0  0  0  0  0  0  0  0  0
   -1.6053   -1.3651    0.2479 O   0  0  0  0  0  0  0  0  0  0  0  0
    2.7851    1.3765    1.0844 O   0  0  0  0  0  0  0  0  0  0  0  0
    1.9896   -2.1865   -0.8044 O   0  0  0  0  0  0  0  0  0  0  0  0
   -1.8997    2.1176   -0.8568 O   0  0  0  0  0  0  0  0  0  0  0  0
   -4.6257    1.1672   -0.9182 O   0  0  0  0  0  0  0  0  0  0  0  0
    4.6598   -1.0899   -0.8745 O   0  0  0  0  0  0  0  0  0  0  0  0
   -5.0739   -0.8039    1.2286 O   0  0  0  0  0  0  0  0  0  0  0  0
    5.0687    0.8922    1.1366 O   0  0  0  0  0  0  0  0  0  0  0  0
    1.1634   -0.0663    0.0044 C   0  0  1  0  0  0  0  0  0  0  0  0
    2.2850   -0.7907   -0.7390 C   0  0  1  0  0  0  0  0  0  0  0  0
   -1.1892   -0.0227    0.0041 C   0  0  2  0  0  0  0  0  0  0  0  0
   -2.2748    0.7441   -0.7529 C   0  0  1  0  0  0  0  0  0  0  0  0
   -3.6218    0.6661   -0.0346 C   0  0  2  0  0  0  0  0  0  0  0  0
    3.6207   -0.6211   -0.0156 C   0  0  2  0  0  0  0  0  0  0  0  0
   -3.9543   -0.7749    0.3507 C   0  0  1  0  0  0  0  0  0  0  0  0
    1.5747    1.3615    0.3355 C   0  0  0  0  0  0  0  0  0  0  0  0
    3.8820    0.8420    0.3458 C   0  0  1  0  0  0  0  0  0  0  0  0
   -2.7743   -1.4268    1.0573 C   0  0  0  0  0  0  0  0  0  0  0  0
    0.9716   -0.6286    0.9299 H   0  0  0  0  0  0  0  0  0  0  0  0
    2.3488   -0.4368   -1.7754 H   0  0  0  0  0  0  0  0  0  0  0  0
   -0.9999    0.4813    0.9619 H   0  0  0  0  0  0  0  0  0  0  0  0
   -2.3738    0.3616   -1.7766 H   0  0  0  0  0  0  0  0  0  0  0  0
   -3.6354    1.3131    0.8514 H   0  0  0  0  0  0  0  0  0  0  0  0
    3.6419   -1.2498    0.8835 H   0  0  0  0  0  0  0  0  0  0  0  0
   -4.2168   -1.3477   -0.5471 H   0  0  0  0  0  0  0  0  0  0  0  0
    1.6890    1.9676   -0.5723 H   0  0  0  0  0  0  0  0  0  0  0  0
    0.8070    1.8590    0.9369 H   0  0  0  0  0  0  0  0  0  0  0  0
    4.0608    1.4425   -0.5551 H   0  0  0  0  0  0  0  0  0  0  0  0
   -2.5807   -0.9647    2.0337 H   0  0  0  0  0  0  0  0  0  0  0  0
   -2.9959   -2.4812    1.2568 H   0  0  0  0  0  0  0  0  0  0  0  0
    2.7267   -2.6186   -1.2688 H   0  0  0  0  0  0  0  0  0  0  0  0
   -1.0318    2.1490   -1.2945 H   0  0  0  0  0  0  0  0  0  0  0  0
   -4.3774    2.0774   -1.1547 H   0  0  0  0  0  0  0  0  0  0  0  0
    5.5034   -0.9560   -0.4094 H   0  0  0  0  0  0  0  0  0  0  0  0
   -5.8090   -0.3549    0.7772 H   0  0  0  0  0  0  0  0  0  0  0  0
    5.4396    1.7855    1.0376 H   0  0  0  0  0  0  0  0  0  0  0  0
  1 10  1  0  0  0  0
  1 12  1  0  0  0  0
  2 12  1  0  0  0  0
  2 19  1  0  0  0  0
  3 17  1  0  0  0  0
  3 18  1  0  0  0  0
  4 11  1  0  0  0  0
  4 32  1  0  0  0  0
  5 13  1  0  0  0  0
  5 33  1  0  0  0  0
  6 14  1  0  0  0  0
  6 34  1  0  0  0  0
  7 15  1  0  0  0  0
  7 35  1  0  0  0  0
  8 16  1  0  0  0  0
  8 36  1  0  0  0  0
  9 18  1  0  0  0  0
  9 37  1  0  0  0  0
 10 11  1  0  0  0  0
 10 17  1  0  0  0  0
 10 20  1  0  0  0  0
 11 15  1  0  0  0  0
 11 21  1  0  0  0  0
 12 13  1  0  0  0  0
 12 22  1  0  0  0  0
 13 14  1  0  0  0  0
 13 23  1  0  0  0  0
 14 16  1  0  0  0  0
 14 24  1  0  0  0  0
 15 18  1  0  0  0  0
 15 25  1  0  0  0  0
 16 19  1  0  0  0  0
 16 26  1  0  0  0  0
 17 27  1  0  0  0  0
 17 28  1  0  0  0  0
 18 29  1  0  0  0  0
 19 30  1  0  0  0  0
 19 31  1  0  0  0  0
M  END
> <PUBCHEM_COMPOUND_CID>
439538

> <PUBCHEM_CONFORMER_RMSD>
0.6

> <PUBCHEM_CONFORMER_DIVERSEORDER>
1
115
11
107
126
112
13
132
75
160
146
52
43
82
122
144
135
119
97
14
159
103
118
37
58
147
19
54
3
157
94
23
156
21
84
158
151
95
40
100
42
123
64
79
131
55
127
65
18
71
51
34
104
62
139
149
45
41
106
72
67
78
148
53
7
44
154
20
4
91
109
133
111
153
108
120
66
90
32
99
114
86
101
142
12
61
29
134
68
15
137
83
138
152
128
87
121
17
76
74
155
81
46
117
136
35
88
56
96
30
27
39
116
24
141
28
77
69
70
102
80
140
8
93
59
49
63
38
31
25
105
85
150
73
145
125
36
57
124
16
113
143
110
10
98
129
48
5
130
92
33
9
22
50
60
47
89
6
26
2

> <PUBCHEM_MMFF94_PARTIAL_CHARGES>
25
1 -0.56
10 0.28
11 0.28
12 0.56
13 0.28
14 0.28
15 0.28
16 0.28
17 0.28
18 0.56
19 0.28
2 -0.56
3 -0.56
32 0.4
33 0.4
34 0.4
35 0.4
36 0.4
37 0.4
4 -0.68
5 -0.68
6 -0.68
7 -0.68
8 -0.68
9 -0.68

> <PUBCHEM_EFFECTIVE_ROTOR_COUNT>
4.4

> <PUBCHEM_PHARMACOPHORE_FEATURES>
17
1 1 acceptor
1 2 acceptor
1 3 acceptor
1 4 acceptor
1 4 donor
1 5 acceptor
1 5 donor
1 6 acceptor
1 6 donor
1 7 acceptor
1 7 donor
1 8 acceptor
1 8 donor
1 9 acceptor
1 9 donor
6 2 12 13 14 16 19 rings
6 3 10 11 15 17 18 rings

> <PUBCHEM_HEAVY_ATOM_COUNT>
19

> <PUBCHEM_ATOM_DEF_STEREO_COUNT>
7

> <PUBCHEM_ATOM_UDEF_STEREO_COUNT>
1

> <PUBCHEM_BOND_DEF_STEREO_COUNT>
0

> <PUBCHEM_BOND_UDEF_STEREO_COUNT>
0

> <PUBCHEM_ISOTOPIC_ATOM_COUNT>
0

> <PUBCHEM_COMPONENT_COUNT>
1

> <PUBCHEM_CACTVS_TAUTO_COUNT>
1

> <PUBCHEM_CONFORMER_ID>
0006B4F200000001

> <PUBCHEM_MMFF94_ENERGY>
50.381

> <PUBCHEM_FEATURE_SELFOVERLAP>
86.375

> <PUBCHEM_SHAPE_FINGERPRINT>
10366900 7 18410012143310154727
10608611 8 18410296929706923517
1100329 8 14159456952360581115
11132069 177 18202281424934440997
11471102 20 18113339717397382516
11615757 297 17458345238466825427
12236239 1 15719390633340896359
12403259 415 18409727374141150284
12507560 40 18408884040106272757
13675066 3 18410855438653325316
13760787 5 17022902362963653716
14386348 63 18411698789841652778
15219456 202 18408324384366302719
15375358 24 18411140237966508063
15653759 3 18343584031626635720
17804303 29 18272365373819673885
17834074 16 18411981368630233286
19049666 15 18266741478953953511
19141452 34 18336257943556127331
200 152 17530972384260719653
20279233 1 18411135835751623727
20645477 56 18336836307508597580
20645477 70 17822013159388308062
21065201 7 17989490757197788098
22646028 1 15554449591212543763
22854114 59 18333452023560760120
2297311 6 18272638061018912565
23402539 116 18201451250415516951
23532345 42 18131067117375429557
23557571 272 18200864158255850119
23559900 14 18271803583634270110
2838139 119 16516521265728700977
474 4 15937842617734708360
5104073 3 18339361975690107193
573450 72 16917074360384902081
602551 16 17775000154971009610
69090 78 18334580122733919279
9709674 26 18411978061701094455

> <PUBCHEM_SHAPE_MULTIPOLES>
338.19
10.34
1.75
1.06
0.23
0.02
-0.09
0.04
-1.71
-0.08
0.15
0
0
1.94

> <PUBCHEM_SHAPE_SELFOVERLAP>
692.295

> <PUBCHEM_SHAPE_VOLUME>
190.8

> <PUBCHEM_COORDINATE_TYPE>
2
5
10

$$$$

