245234
  -OEChem-07051213072D

 53 56  0     1  0  0  0  0  0999 V2000
   10.3820    2.0839    0.0000 O   0  0  0  0  0  0  0  0  0  0  0  0
    7.3810   -3.2406    0.0000 O   0  0  0  0  0  0  0  0  0  0  0  0
   12.0284    1.5458    0.0000 O   0  0  0  0  0  0  0  0  0  0  0  0
    3.7320   -2.2237    0.0000 O   0  0  0  0  0  0  0  0  0  0  0  0
    2.8718   -0.7204    0.0000 O   0  0  0  0  0  0  0  0  0  0  0  0
    9.1251    0.8286    0.0000 C   0  0  1  0  0  0  0  0  0  0  0  0
    9.1251   -0.1714    0.0000 C   0  0  2  0  0  0  0  0  0  0  0  0
    8.2591   -0.6714    0.0000 C   0  0  1  0  0  0  0  0  0  0  0  0
   10.0713    1.1334    0.0000 C   0  0  2  0  0  0  0  0  0  0  0  0
    7.3931   -0.1714    0.0000 C   0  0  2  0  0  0  0  0  0  0  0  0
    8.2591    1.3286    0.0000 C   0  0  0  0  0  0  0  0  0  0  0  0
   10.0713   -0.4761    0.0000 C   0  0  0  0  0  0  0  0  0  0  0  0
   10.6550    0.3286    0.0000 C   0  0  0  0  0  0  0  0  0  0  0  0
    7.3931    0.8286    0.0000 C   0  0  0  0  0  0  0  0  0  0  0  0
    9.1251    1.8286    0.0000 C   0  0  0  0  0  0  0  0  0  0  0  0
    8.2752   -1.7129    0.0000 C   0  0  0  0  0  0  0  0  0  0  0  0
    6.4831   -0.6782    0.0000 C   0  0  0  0  0  0  0  0  0  0  0  0
    7.3771   -2.2406    0.0000 C   0  0  0  0  0  0  0  0  0  0  0  0
    6.4750   -1.7198    0.0000 C   0  0  0  0  0  0  0  0  0  0  0  0
    5.5562   -0.1141    0.0000 C   0  0  0  0  0  0  0  0  0  0  0  0
    5.5396   -2.2695    0.0000 C   0  0  0  0  0  0  0  0  0  0  0  0
   11.3605    2.2901    0.0000 C   0  0  0  0  0  0  0  0  0  0  0  0
    4.6084   -0.6421    0.0000 C   0  0  0  0  0  0  0  0  0  0  0  0
    4.6000   -1.7270    0.0000 C   0  0  0  0  0  0  0  0  0  0  0  0
   11.6712    3.2406    0.0000 C   0  0  0  0  0  0  0  0  0  0  0  0
    2.8680   -1.7204    0.0000 C   0  0  0  0  0  0  0  0  0  0  0  0
    2.0000   -2.2170    0.0000 C   0  0  0  0  0  0  0  0  0  0  0  0
    9.2151   -1.0166    0.0000 H   0  0  0  0  0  0  0  0  0  0  0  0
    8.9985   -1.0907    0.0000 H   0  0  0  0  0  0  0  0  0  0  0  0
    9.6339    1.5727    0.0000 H   0  0  0  0  0  0  0  0  0  0  0  0
    8.1292    0.2536    0.0000 H   0  0  0  0  0  0  0  0  0  0  0  0
    8.6576    1.8036    0.0000 H   0  0  0  0  0  0  0  0  0  0  0  0
    7.8606    1.8036    0.0000 H   0  0  0  0  0  0  0  0  0  0  0  0
    9.8203   -1.0430    0.0000 H   0  0  0  0  0  0  0  0  0  0  0  0
   10.6087   -0.7853    0.0000 H   0  0  0  0  0  0  0  0  0  0  0  0
   11.1158   -0.0861    0.0000 H   0  0  0  0  0  0  0  0  0  0  0  0
   11.1158    0.7434    0.0000 H   0  0  0  0  0  0  0  0  0  0  0  0
    7.1810    1.4112    0.0000 H   0  0  0  0  0  0  0  0  0  0  0  0
    6.7825    0.7210    0.0000 H   0  0  0  0  0  0  0  0  0  0  0  0
    9.7451    1.8286    0.0000 H   0  0  0  0  0  0  0  0  0  0  0  0
    9.1251    2.4486    0.0000 H   0  0  0  0  0  0  0  0  0  0  0  0
    8.5051    1.8286    0.0000 H   0  0  0  0  0  0  0  0  0  0  0  0
    8.4932   -2.2933    0.0000 H   0  0  0  0  0  0  0  0  0  0  0  0
    8.8843   -1.5974    0.0000 H   0  0  0  0  0  0  0  0  0  0  0  0
    5.5682    0.5058    0.0000 H   0  0  0  0  0  0  0  0  0  0  0  0
    5.5420   -2.8895    0.0000 H   0  0  0  0  0  0  0  0  0  0  0  0
    4.0750   -0.3259    0.0000 H   0  0  0  0  0  0  0  0  0  0  0  0
   12.2605    3.0480    0.0000 H   0  0  0  0  0  0  0  0  0  0  0  0
   11.8638    3.8300    0.0000 H   0  0  0  0  0  0  0  0  0  0  0  0
   11.0818    3.4332    0.0000 H   0  0  0  0  0  0  0  0  0  0  0  0
    1.6921   -1.6789    0.0000 H   0  0  0  0  0  0  0  0  0  0  0  0
    1.4619   -2.5250    0.0000 H   0  0  0  0  0  0  0  0  0  0  0  0
    2.3079   -2.7552    0.0000 H   0  0  0  0  0  0  0  0  0  0  0  0
  9  1  1  1  0  0  0
  1 22  1  0  0  0  0
  2 18  2  0  0  0  0
  3 22  2  0  0  0  0
  4 24  1  0  0  0  0
  4 26  1  0  0  0  0
  5 26  2  0  0  0  0
  6  7  1  0  0  0  0
  6  9  1  0  0  0  0
  6 11  1  0  0  0  0
  6 15  1  1  0  0  0
  7  8  1  0  0  0  0
  7 12  1  0  0  0  0
  7 28  1  6  0  0  0
  8 10  1  0  0  0  0
  8 16  1  0  0  0  0
  8 29  1  1  0  0  0
  9 13  1  0  0  0  0
  9 30  1  0  0  0  0
 10 14  1  0  0  0  0
 10 17  1  0  0  0  0
 10 31  1  6  0  0  0
 11 14  1  0  0  0  0
 11 32  1  0  0  0  0
 11 33  1  0  0  0  0
 12 13  1  0  0  0  0
 12 34  1  0  0  0  0
 12 35  1  0  0  0  0
 13 36  1  0  0  0  0
 13 37  1  0  0  0  0
 14 38  1  0  0  0  0
 14 39  1  0  0  0  0
 15 40  1  0  0  0  0
 15 41  1  0  0  0  0
 15 42  1  0  0  0  0
 16 18  1  0  0  0  0
 16 43  1  0  0  0  0
 16 44  1  0  0  0  0
 17 19  2  0  0  0  0
 17 20  1  0  0  0  0
 18 19  1  0  0  0  0
 19 21  1  0  0  0  0
 20 23  2  0  0  0  0
 20 45  1  0  0  0  0
 21 24  2  0  0  0  0
 21 46  1  0  0  0  0
 22 25  1  0  0  0  0
 23 24  1  0  0  0  0
 23 47  1  0  0  0  0
 25 48  1  0  0  0  0
 25 49  1  0  0  0  0
 25 50  1  0  0  0  0
 26 27  1  0  0  0  0
 27 51  1  0  0  0  0
 27 52  1  0  0  0  0
 27 53  1  0  0  0  0
M  END
> <PUBCHEM_COMPOUND_CID>
245234

> <PUBCHEM_COMPOUND_CANONICALIZED>
1

> <PUBCHEM_CACTVS_COMPLEXITY>
643

> <PUBCHEM_CACTVS_HBOND_ACCEPTOR>
5

> <PUBCHEM_CACTVS_HBOND_DONOR>
0

> <PUBCHEM_CACTVS_ROTATABLE_BOND>
4

> <PUBCHEM_CACTVS_SUBSKEYS>
AAADceB4OAAAAAAAAAAAAAAAAAAAAYAAAAAwYMAAAAAAAGDBAAAAGgAAAAAADxSgmAIyDoAABACIAqDSCAACCAAkIAAIiAEGCMgMJjKENRqCOyCkwBEIqYeKyPCPoAABAAAQAADAAAYAACAAAIAADAAAAA==

> <PUBCHEM_IUPAC_OPENEYE_NAME>
[(8R,9S,13S,14S,17S)-3-acetoxy-13-methyl-6-oxo-8,9,11,12,14,15,16,17-octahydro-7H-cyclopenta[a]phenanthren-17-yl] acetate

> <PUBCHEM_IUPAC_CAS_NAME>
acetic acid [(8R,9S,13S,14S,17S)-3-acetyloxy-13-methyl-6-oxo-8,9,11,12,14,15,16,17-octahydro-7H-cyclopenta[a]phenanthren-17-yl] ester

> <PUBCHEM_IUPAC_NAME>
[(8R,9S,13S,14S,17S)-3-acetyloxy-13-methyl-6-oxo-8,9,11,12,14,15,16,17-octahydro-7H-cyclopenta[a]phenanthren-17-yl] acetate

> <PUBCHEM_IUPAC_SYSTEMATIC_NAME>
[(8R,9S,13S,14S,17S)-3-acetyloxy-13-methyl-6-oxidanylidene-8,9,11,12,14,15,16,17-octahydro-7H-cyclopenta[a]phenanthren-17-yl] ethanoate

> <PUBCHEM_IUPAC_TRADITIONAL_NAME>
acetic acid [(8R,9S,13S,14S,17S)-3-acetoxy-6-keto-13-methyl-8,9,11,12,14,15,16,17-octahydro-7H-cyclopenta[a]phenanthren-17-yl] ester

> <PUBCHEM_IUPAC_INCHI>
InChI=1S/C22H26O5/c1-12(23)26-14-4-5-15-16-8-9-22(3)19(6-7-21(22)27-13(2)24)17(16)11-20(25)18(15)10-14/h4-5,10,16-17,19,21H,6-9,11H2,1-3H3/t16-,17-,19+,21+,22+/m1/s1

> <PUBCHEM_IUPAC_INCHIKEY>
REXFWMANWYNMPV-AJYQEWAOSA-N

> <PUBCHEM_XLOGP3_AA>
3.5

> <PUBCHEM_EXACT_MASS>
370.178024

> <PUBCHEM_MOLECULAR_FORMULA>
C22H26O5

> <PUBCHEM_MOLECULAR_WEIGHT>
370.43884

> <PUBCHEM_OPENEYE_CAN_SMILES>
CC(=O)OC1CCC2C1(CCC3C2CC(=O)C4=C3C=CC(=C4)OC(=O)C)C

> <PUBCHEM_OPENEYE_ISO_SMILES>
CC(=O)O[C@H]1CC[C@@H]2[C@@]1(CC[C@H]3[C@H]2CC(=O)C4=C3C=CC(=C4)OC(=O)C)C

> <PUBCHEM_CACTVS_TPSA>
69.7

> <PUBCHEM_MONOISOTOPIC_WEIGHT>
370.178024

> <PUBCHEM_TOTAL_CHARGE>
0

> <PUBCHEM_HEAVY_ATOM_COUNT>
27

> <PUBCHEM_ATOM_DEF_STEREO_COUNT>
5

> <PUBCHEM_ATOM_UDEF_STEREO_COUNT>
0

> <PUBCHEM_BOND_DEF_STEREO_COUNT>
0

> <PUBCHEM_BOND_UDEF_STEREO_COUNT>
0

> <PUBCHEM_ISOTOPIC_ATOM_COUNT>
0

> <PUBCHEM_COMPONENT_COUNT>
1

> <PUBCHEM_CACTVS_TAUTO_COUNT>
2

> <PUBCHEM_COORDINATE_TYPE>
1
5
255

> <PUBCHEM_BONDANNOTATIONS>
9  1  5
10  31  6
17  19  8
17  20  8
19  21  8
20  23  8
21  24  8
23  24  8
6  15  5
7  28  6
8  29  5

$$$$

