4073
  -OEChem-06251223522D

 70 72  0     0  0  0  0  0  0999 V2000
    7.2566    3.2349    0.0000 S   0  0  0  0  0  0  0  0  0  0  0  0
   12.2619   -1.6154    0.0000 S   0  0  0  0  0  0  0  0  0  0  0  0
    4.6783   -0.6880    0.0000 O   0  0  0  0  0  0  0  0  0  0  0  0
    9.2619   -3.3474    0.0000 O   0  0  0  0  0  0  0  0  0  0  0  0
    9.2619    0.1167    0.0000 O   0  0  0  0  0  0  0  0  0  0  0  0
    8.2351    3.4411    0.0000 O   0  0  0  0  0  0  0  0  0  0  0  0
    7.0504    4.2134    0.0000 O   0  0  0  0  0  0  0  0  0  0  0  0
    7.4628    2.2564    0.0000 O   0  0  0  0  0  0  0  0  0  0  0  0
    4.6783    0.9214    0.0000 N   0  0  0  0  0  0  0  0  0  0  0  0
   10.7619   -0.7493    0.0000 N   0  0  0  0  0  0  0  0  0  0  0  0
   10.7619   -2.4814    0.0000 N   0  0  0  0  0  0  0  0  0  0  0  0
    4.9889    1.8720    0.0000 C   0  0  0  0  0  0  0  0  0  0  0  0
   11.2619    0.1167    0.0000 C   0  0  0  0  0  0  0  0  0  0  0  0
   11.2619   -3.3474    0.0000 C   0  0  0  0  0  0  0  0  0  0  0  0
    5.9674    2.0782    0.0000 C   0  0  0  0  0  0  0  0  0  0  0  0
   12.2619   -3.3474    0.0000 C   0  0  0  0  0  0  0  0  0  0  0  0
   12.2619    0.1167    0.0000 C   0  0  0  0  0  0  0  0  0  0  0  0
    3.7320    0.6167    0.0000 C   0  0  0  0  0  0  0  0  0  0  0  0
   11.2619   -1.6154    0.0000 C   0  0  0  0  0  0  0  0  0  0  0  0
    5.2619    0.1167    0.0000 C   0  0  0  0  0  0  0  0  0  0  0  0
    6.2781    3.0287    0.0000 C   0  0  0  0  0  0  0  0  0  0  0  0
    9.2619   -1.6154    0.0000 C   0  0  0  0  0  0  0  0  0  0  0  0
    9.7619   -0.7493    0.0000 C   0  0  0  0  0  0  0  0  0  0  0  0
    9.7619   -2.4814    0.0000 C   0  0  0  0  0  0  0  0  0  0  0  0
    3.7320   -0.3833    0.0000 C   0  0  0  0  0  0  0  0  0  0  0  0
   12.7619   -4.2134    0.0000 C   0  0  0  0  0  0  0  0  0  0  0  0
   12.7619    0.9827    0.0000 C   0  0  0  0  0  0  0  0  0  0  0  0
    2.8660    1.1167    0.0000 C   0  0  0  0  0  0  0  0  0  0  0  0
    6.2619    0.1167    0.0000 C   0  0  0  0  0  0  0  0  0  0  0  0
    8.2619   -1.6154    0.0000 C   0  0  0  0  0  0  0  0  0  0  0  0
    2.8660   -0.8833    0.0000 C   0  0  0  0  0  0  0  0  0  0  0  0
   13.7619    0.9827    0.0000 C   0  0  0  0  0  0  0  0  0  0  0  0
   13.7619   -4.2134    0.0000 C   0  0  0  0  0  0  0  0  0  0  0  0
    2.0000    0.6167    0.0000 C   0  0  0  0  0  0  0  0  0  0  0  0
    6.7619   -0.7493    0.0000 C   0  0  0  0  0  0  0  0  0  0  0  0
    2.0000   -0.3833    0.0000 C   0  0  0  0  0  0  0  0  0  0  0  0
    7.7619   -0.7493    0.0000 C   0  0  0  0  0  0  0  0  0  0  0  0
    4.9684    2.4916    0.0000 H   0  0  0  0  0  0  0  0  0  0  0  0
    4.3751    1.9593    0.0000 H   0  0  0  0  0  0  0  0  0  0  0  0
   10.6793   -3.5594    0.0000 H   0  0  0  0  0  0  0  0  0  0  0  0
   11.3695   -3.9580    0.0000 H   0  0  0  0  0  0  0  0  0  0  0  0
   11.3695    0.7273    0.0000 H   0  0  0  0  0  0  0  0  0  0  0  0
   10.6793    0.3288    0.0000 H   0  0  0  0  0  0  0  0  0  0  0  0
    5.9880    1.4585    0.0000 H   0  0  0  0  0  0  0  0  0  0  0  0
    6.5812    1.9908    0.0000 H   0  0  0  0  0  0  0  0  0  0  0  0
   12.8445   -3.1353    0.0000 H   0  0  0  0  0  0  0  0  0  0  0  0
   12.1542   -2.7368    0.0000 H   0  0  0  0  0  0  0  0  0  0  0  0
   12.1542   -0.4939    0.0000 H   0  0  0  0  0  0  0  0  0  0  0  0
   12.8445   -0.0953    0.0000 H   0  0  0  0  0  0  0  0  0  0  0  0
    6.2575    3.6484    0.0000 H   0  0  0  0  0  0  0  0  0  0  0  0
    5.6643    3.1160    0.0000 H   0  0  0  0  0  0  0  0  0  0  0  0
   12.1793   -4.4255    0.0000 H   0  0  0  0  0  0  0  0  0  0  0  0
   12.8695   -4.8240    0.0000 H   0  0  0  0  0  0  0  0  0  0  0  0
   12.8695    1.5933    0.0000 H   0  0  0  0  0  0  0  0  0  0  0  0
   12.1793    1.1948    0.0000 H   0  0  0  0  0  0  0  0  0  0  0  0
    2.8660    1.7367    0.0000 H   0  0  0  0  0  0  0  0  0  0  0  0
    6.5719    0.6536    0.0000 H   0  0  0  0  0  0  0  0  0  0  0  0
    7.9519   -2.1523    0.0000 H   0  0  0  0  0  0  0  0  0  0  0  0
    2.8660   -1.5033    0.0000 H   0  0  0  0  0  0  0  0  0  0  0  0
   13.7619    0.3627    0.0000 H   0  0  0  0  0  0  0  0  0  0  0  0
   13.7619   -4.8334    0.0000 H   0  0  0  0  0  0  0  0  0  0  0  0
   14.3819   -4.2134    0.0000 H   0  0  0  0  0  0  0  0  0  0  0  0
   13.7619   -3.5934    0.0000 H   0  0  0  0  0  0  0  0  0  0  0  0
   14.3819    0.9827    0.0000 H   0  0  0  0  0  0  0  0  0  0  0  0
   13.7619    1.6027    0.0000 H   0  0  0  0  0  0  0  0  0  0  0  0
    1.4631    0.9267    0.0000 H   0  0  0  0  0  0  0  0  0  0  0  0
    6.4519   -1.2863    0.0000 H   0  0  0  0  0  0  0  0  0  0  0  0
    1.4631   -0.6933    0.0000 H   0  0  0  0  0  0  0  0  0  0  0  0
    8.0719   -0.2124    0.0000 H   0  0  0  0  0  0  0  0  0  0  0  0
    8.4277    4.0305    0.0000 H   0  0  0  0  0  0  0  0  0  0  0  0
  1  6  1  0  0  0  0
  1  7  2  0  0  0  0
  1  8  2  0  0  0  0
  1 21  1  0  0  0  0
  2 19  2  0  0  0  0
  3 20  1  0  0  0  0
  3 25  1  0  0  0  0
  4 24  2  0  0  0  0
  5 23  2  0  0  0  0
  6 70  1  0  0  0  0
  9 12  1  0  0  0  0
  9 18  1  0  0  0  0
  9 20  1  0  0  0  0
 10 13  1  0  0  0  0
 10 19  1  0  0  0  0
 10 23  1  0  0  0  0
 11 14  1  0  0  0  0
 11 19  1  0  0  0  0
 11 24  1  0  0  0  0
 12 15  1  0  0  0  0
 12 38  1  0  0  0  0
 12 39  1  0  0  0  0
 13 17  1  0  0  0  0
 13 42  1  0  0  0  0
 13 43  1  0  0  0  0
 14 16  1  0  0  0  0
 14 40  1  0  0  0  0
 14 41  1  0  0  0  0
 15 21  1  0  0  0  0
 15 44  1  0  0  0  0
 15 45  1  0  0  0  0
 16 26  1  0  0  0  0
 16 46  1  0  0  0  0
 16 47  1  0  0  0  0
 17 27  1  0  0  0  0
 17 48  1  0  0  0  0
 17 49  1  0  0  0  0
 18 25  1  0  0  0  0
 18 28  2  0  0  0  0
 20 29  2  3  0  0  0
 21 50  1  0  0  0  0
 21 51  1  0  0  0  0
 22 23  1  0  0  0  0
 22 24  1  0  0  0  0
 22 30  2  0  0  0  0
 25 31  2  0  0  0  0
 26 33  1  0  0  0  0
 26 52  1  0  0  0  0
 26 53  1  0  0  0  0
 27 32  1  0  0  0  0
 27 54  1  0  0  0  0
 27 55  1  0  0  0  0
 28 34  1  0  0  0  0
 28 56  1  0  0  0  0
 29 35  1  0  0  0  0
 29 57  1  0  0  0  0
 30 37  1  0  0  0  0
 30 58  1  0  0  0  0
 31 36  1  0  0  0  0
 31 59  1  0  0  0  0
 32 60  1  0  0  0  0
 32 64  1  0  0  0  0
 32 65  1  0  0  0  0
 33 61  1  0  0  0  0
 33 62  1  0  0  0  0
 33 63  1  0  0  0  0
 34 36  2  0  0  0  0
 34 66  1  0  0  0  0
 35 37  2  3  0  0  0
 35 67  1  0  0  0  0
 36 68  1  0  0  0  0
 37 69  1  0  0  0  0
M  END
> <PUBCHEM_COMPOUND_CID>
4073

> <PUBCHEM_COMPOUND_CANONICALIZED>
1

> <PUBCHEM_CACTVS_COMPLEXITY>
1020

> <PUBCHEM_CACTVS_HBOND_ACCEPTOR>
8

> <PUBCHEM_CACTVS_HBOND_DONOR>
1

> <PUBCHEM_CACTVS_ROTATABLE_BOND>
12

> <PUBCHEM_CACTVS_SUBSKEYS>
AAADcfB7OABgAAAAAAAAAAAAAAAAAWAAAAA8QAAAAAAAAFgBAAAAHgQACAAADAzF0ASzxoMABIKMAiVSUHDCCAAhIggIiAEPbMiOJirM8ZuNMChsxxPY6YeQQAAAAAAAAAAAEAAAAAAAAAAgAAAAAAAAAA==

> <PUBCHEM_IUPAC_OPENEYE_NAME>
3-[2-[4-(1,3-dibutyl-4,6-dioxo-2-thioxo-hexahydropyrimidin-5-ylidene)but-2-enylidene]-1,3-benzoxazol-3-yl]propane-1-sulfonic acid

> <PUBCHEM_IUPAC_CAS_NAME>
3-[2-[4-(1,3-dibutyl-4,6-dioxo-2-sulfanylidene-1,3-diazinan-5-ylidene)but-2-enylidene]-1,3-benzoxazol-3-yl]-1-propanesulfonic acid

> <PUBCHEM_IUPAC_NAME>
3-[2-[4-(1,3-dibutyl-4,6-dioxo-2-sulfanylidene-1,3-diazinan-5-ylidene)but-2-enylidene]-1,3-benzoxazol-3-yl]propane-1-sulfonic acid

> <PUBCHEM_IUPAC_SYSTEMATIC_NAME>
3-[2-[4-[1,3-dibutyl-4,6-bis(oxidanylidene)-2-sulfanylidene-1,3-diazinan-5-ylidene]but-2-enylidene]-1,3-benzoxazol-3-yl]propane-1-sulfonic acid

> <PUBCHEM_IUPAC_TRADITIONAL_NAME>
3-[2-[4-(1,3-dibutyl-4,6-diketo-2-thioxo-hexahydropyrimidin-5-ylidene)but-2-enylidene]-1,3-benzoxazol-3-yl]propane-1-sulfonic acid

> <PUBCHEM_IUPAC_INCHI>
InChI=1S/C26H33N3O6S2/c1-3-5-16-28-24(30)20(25(31)29(26(28)36)17-6-4-2)12-7-10-15-23-27(18-11-19-37(32,33)34)21-13-8-9-14-22(21)35-23/h7-10,12-15H,3-6,11,16-19H2,1-2H3,(H,32,33,34)

> <PUBCHEM_IUPAC_INCHIKEY>
SKDUSRXOWAXOCO-UHFFFAOYSA-N

> <PUBCHEM_XLOGP3_AA>
4.6

> <PUBCHEM_EXACT_MASS>
547.181078

> <PUBCHEM_MOLECULAR_FORMULA>
C26H33N3O6S2

> <PUBCHEM_MOLECULAR_WEIGHT>
547.68672

> <PUBCHEM_OPENEYE_CAN_SMILES>
CCCCN1C(=O)C(=CC=CC=C2N(C3=CC=CC=C3O2)CCCS(=O)(=O)O)C(=O)N(C1=S)CCCC

> <PUBCHEM_OPENEYE_ISO_SMILES>
CCCCN1C(=O)C(=CC=CC=C2N(C3=CC=CC=C3O2)CCCS(=O)(=O)O)C(=O)N(C1=S)CCCC

> <PUBCHEM_CACTVS_TPSA>
148

> <PUBCHEM_MONOISOTOPIC_WEIGHT>
547.181078

> <PUBCHEM_TOTAL_CHARGE>
0

> <PUBCHEM_HEAVY_ATOM_COUNT>
37

> <PUBCHEM_ATOM_DEF_STEREO_COUNT>
0

> <PUBCHEM_ATOM_UDEF_STEREO_COUNT>
0

> <PUBCHEM_BOND_DEF_STEREO_COUNT>
0

> <PUBCHEM_BOND_UDEF_STEREO_COUNT>
2

> <PUBCHEM_ISOTOPIC_ATOM_COUNT>
0

> <PUBCHEM_COMPONENT_COUNT>
1

> <PUBCHEM_CACTVS_TAUTO_COUNT>
1

> <PUBCHEM_COORDINATE_TYPE>
1
5
255

> <PUBCHEM_BONDANNOTATIONS>
18  25  8
18  28  8
20  29  1
25  31  8
28  34  8
31  36  8
34  36  8
35  37  1

$$$$

