119105
  -OEChem-07051213083D

 23 23  0     1  0  0  0  0  0999 V2000
   -4.1044   -0.3678    0.0954 Cl  0  0  0  0  0  0  0  0  0  0  0  0
    0.3661    0.9480   -0.0076 P   0  0  1  0  0  0  0  0  0  0  0  0
    1.9458    0.9687   -0.4162 O   0  0  0  0  0  0  0  0  0  0  0  0
   -0.3894    1.9419   -0.8575 O   0  0  0  0  0  0  0  0  0  0  0  0
   -0.0984   -0.6418   -0.2138 N   0  0  1  0  0  0  0  0  0  0  0  0
    0.3218    1.2779    1.6208 N   0  0  0  0  0  0  0  0  0  0  0  0
    0.8351   -1.6832    0.2347 C   0  0  0  0  0  0  0  0  0  0  0  0
    2.2389   -1.4301   -0.3250 C   0  0  0  0  0  0  0  0  0  0  0  0
    2.7882   -0.0664    0.0775 C   0  0  0  0  0  0  0  0  0  0  0  0
   -1.4687   -1.0075    0.1405 C   0  0  0  0  0  0  0  0  0  0  0  0
   -2.4350    0.0603   -0.3489 C   0  0  0  0  0  0  0  0  0  0  0  0
    0.5034   -2.6693   -0.1114 H   0  0  0  0  0  0  0  0  0  0  0  0
    0.8763   -1.7096    1.3303 H   0  0  0  0  0  0  0  0  0  0  0  0
    2.9171   -2.2158    0.0260 H   0  0  0  0  0  0  0  0  0  0  0  0
    2.1993   -1.4942   -1.4199 H   0  0  0  0  0  0  0  0  0  0  0  0
    2.8732    0.0244    1.1653 H   0  0  0  0  0  0  0  0  0  0  0  0
    3.7844    0.0787   -0.3513 H   0  0  0  0  0  0  0  0  0  0  0  0
   -1.5611   -1.1154    1.2285 H   0  0  0  0  0  0  0  0  0  0  0  0
   -1.7299   -1.9703   -0.3154 H   0  0  0  0  0  0  0  0  0  0  0  0
   -2.2843    1.0209    0.1433 H   0  0  0  0  0  0  0  0  0  0  0  0
   -2.4001    0.1839   -1.4353 H   0  0  0  0  0  0  0  0  0  0  0  0
   -0.5862    1.2135    2.0788 H   0  0  0  0  0  0  0  0  0  0  0  0
    0.7199    2.1673    1.9187 H   0  0  0  0  0  0  0  0  0  0  0  0
  1 11  1  0  0  0  0
  2  3  1  0  0  0  0
  2  4  2  0  0  0  0
  2  5  1  0  0  0  0
  2  6  1  0  0  0  0
  3  9  1  0  0  0  0
  5  7  1  0  0  0  0
  5 10  1  0  0  0  0
  6 22  1  0  0  0  0
  6 23  1  0  0  0  0
  7  8  1  0  0  0  0
  7 12  1  0  0  0  0
  7 13  1  0  0  0  0
  8  9  1  0  0  0  0
  8 14  1  0  0  0  0
  8 15  1  0  0  0  0
  9 16  1  0  0  0  0
  9 17  1  0  0  0  0
 10 11  1  0  0  0  0
 10 18  1  0  0  0  0
 10 19  1  0  0  0  0
 11 20  1  0  0  0  0
 11 21  1  0  0  0  0
M  END
> <PUBCHEM_COMPOUND_CID>
119105

> <PUBCHEM_CONFORMER_RMSD>
0.6

> <PUBCHEM_CONFORMER_DIVERSEORDER>
2
7
21
16
18
1
10
14
20
8
13
23
22
17
12
15
9
3
11
4
19
5
6

> <PUBCHEM_MMFF94_PARTIAL_CHARGES>
12
1 -0.29
10 0.27
11 0.29
2 1.51
22 0.36
23 0.36
3 -0.55
4 -0.7
5 -0.81
6 -0.99
7 0.27
9 0.28

> <PUBCHEM_EFFECTIVE_ROTOR_COUNT>
3

> <PUBCHEM_PHARMACOPHORE_FEATURES>
1
6 2 3 5 7 8 9 rings

> <PUBCHEM_HEAVY_ATOM_COUNT>
11

> <PUBCHEM_ATOM_DEF_STEREO_COUNT>
0

> <PUBCHEM_ATOM_UDEF_STEREO_COUNT>
1

> <PUBCHEM_BOND_DEF_STEREO_COUNT>
0

> <PUBCHEM_BOND_UDEF_STEREO_COUNT>
0

> <PUBCHEM_ISOTOPIC_ATOM_COUNT>
0

> <PUBCHEM_COMPONENT_COUNT>
1

> <PUBCHEM_CACTVS_TAUTO_COUNT>
2

> <PUBCHEM_CONFORMER_ID>
0001D14100000002

> <PUBCHEM_MMFF94_ENERGY>
4.1711

> <PUBCHEM_FEATURE_SELFOVERLAP>
5.074

> <PUBCHEM_SHAPE_FINGERPRINT>
10219947 1 18342173345655632599
14251717 144 18410016516072607191
14344429 50 17603863352172503401
14648413 74 17914046495943425889
15775835 57 18115587041654685399
161256 15 18411423946378914788
16945 1 18413108385423849214
20201158 50 18341894108061789307
21040471 1 17978794510788561590
23235685 24 18271251508485028125
23402655 69 18409174324778196247
23552333 60 18411135866011547834
23552423 10 18200590435816564150
241688 4 17980193407628277258
2748010 2 18196084439713551982
5084963 1 18265328581222628750
528886 8 18270965648072395090
53812653 166 18262242096973937787

> <PUBCHEM_SHAPE_MULTIPOLES>
210.39
4.8
1.77
0.89
4.37
0.18
-0.25
-1.14
0.2
-0.61
0.05
-0.05
0.33
0.14

> <PUBCHEM_SHAPE_SELFOVERLAP>
382.761

> <PUBCHEM_SHAPE_VOLUME>
135.2

> <PUBCHEM_COORDINATE_TYPE>
2
5
10

$$$$

