20226
  -OEChem-07051213133D

 43 47  0     1  0  0  0  0  0999 V2000
   -1.7751   -0.0928   -3.0553 Cl  0  0  0  0  0  0  0  0  0  0  0  0
   -0.3143   -2.2844   -1.0843 Cl  0  0  0  0  0  0  0  0  0  0  0  0
   -3.9232    2.2203    1.1169 Cl  0  0  0  0  0  0  0  0  0  0  0  0
   -2.4674    0.0343    3.0815 Cl  0  0  0  0  0  0  0  0  0  0  0  0
   -1.9217    2.8995   -1.4910 Cl  0  0  0  0  0  0  0  0  0  0  0  0
    0.5340   -0.7868    1.8242 Cl  0  0  0  0  0  0  0  0  0  0  0  0
   -4.7830    0.7370   -1.7879 Cl  0  0  0  0  0  0  0  0  0  0  0  0
   -2.3223   -2.9604    1.5325 Cl  0  0  0  0  0  0  0  0  0  0  0  0
   -4.0133   -2.5547   -1.3930 Cl  0  0  0  0  0  0  0  0  0  0  0  0
   -5.2133   -1.2704    0.9255 Cl  0  0  0  0  0  0  0  0  0  0  0  0
   -0.3750    2.2212    1.2159 O   0  0  0  0  0  0  0  0  0  0  0  0
    2.1678    1.5522    1.2866 O   0  0  0  0  0  0  0  0  0  0  0  0
    6.7619   -0.2353    0.2946 O   0  0  0  0  0  0  0  0  0  0  0  0
    5.6011   -0.6898   -1.6464 O   0  0  0  0  0  0  0  0  0  0  0  0
   -2.0334    0.0233   -1.3041 C   0  0  1  0  0  0  0  0  0  0  0  0
   -1.3345   -1.0263   -0.3606 C   0  0  2  0  0  0  0  0  0  0  0  0
   -2.9084    0.9611    0.3874 C   0  0  2  0  0  0  0  0  0  0  0  0
   -2.2095   -0.0887    1.3308 C   0  0  1  0  0  0  0  0  0  0  0  0
   -1.7573    1.3730   -0.5777 C   0  0  0  0  0  0  0  0  0  0  0  0
   -0.7552   -0.1326    0.7754 C   0  0  0  0  0  0  0  0  0  0  0  0
   -3.4904    0.0633   -0.7479 C   0  0  0  0  0  0  0  0  0  0  0  0
   -2.4899   -1.4396    0.6027 C   0  0  0  0  0  0  0  0  0  0  0  0
   -0.4512    1.2380    0.1900 C   0  0  0  0  0  0  0  0  0  0  0  0
   -3.8032   -1.3017   -0.1530 C   0  0  0  0  0  0  0  0  0  0  0  0
    0.7957    1.2924   -0.6793 C   0  0  0  0  0  0  0  0  0  0  0  0
    2.0757    1.1538    0.1268 C   0  0  0  0  0  0  0  0  0  0  0  0
    3.2330    0.4801   -0.5987 C   0  0  0  0  0  0  0  0  0  0  0  0
    4.4995    0.3741    0.2465 C   0  0  0  0  0  0  0  0  0  0  0  0
    5.6559   -0.2464   -0.5077 C   0  0  0  0  0  0  0  0  0  0  0  0
    7.9451   -0.8007   -0.2788 C   0  0  0  0  0  0  0  0  0  0  0  0
    9.0717   -0.7129    0.7285 C   0  0  0  0  0  0  0  0  0  0  0  0
    0.8759    2.2580   -1.1919 H   0  0  0  0  0  0  0  0  0  0  0  0
    0.7825    0.5165   -1.4499 H   0  0  0  0  0  0  0  0  0  0  0  0
   -0.3268    3.0920    0.7855 H   0  0  0  0  0  0  0  0  0  0  0  0
    3.4390    1.0574   -1.5074 H   0  0  0  0  0  0  0  0  0  0  0  0
    2.9069   -0.5222   -0.9000 H   0  0  0  0  0  0  0  0  0  0  0  0
    4.3010   -0.2371    1.1344 H   0  0  0  0  0  0  0  0  0  0  0  0
    4.8045    1.3747    0.5748 H   0  0  0  0  0  0  0  0  0  0  0  0
    7.7604   -1.8494   -0.5372 H   0  0  0  0  0  0  0  0  0  0  0  0
    8.2137   -0.2447   -1.1840 H   0  0  0  0  0  0  0  0  0  0  0  0
    9.9938   -1.1372    0.3218 H   0  0  0  0  0  0  0  0  0  0  0  0
    9.2561    0.3290    1.0106 H   0  0  0  0  0  0  0  0  0  0  0  0
    8.8104   -1.2493    1.6466 H   0  0  0  0  0  0  0  0  0  0  0  0
  1 15  1  0  0  0  0
  2 16  1  0  0  0  0
  3 17  1  0  0  0  0
  4 18  1  0  0  0  0
  5 19  1  0  0  0  0
  6 20  1  0  0  0  0
  7 21  1  0  0  0  0
  8 22  1  0  0  0  0
  9 24  1  0  0  0  0
 10 24  1  0  0  0  0
 11 23  1  0  0  0  0
 11 34  1  0  0  0  0
 12 26  2  0  0  0  0
 13 29  1  0  0  0  0
 13 30  1  0  0  0  0
 14 29  2  0  0  0  0
 15 16  1  0  0  0  0
 15 19  1  0  0  0  0
 15 21  1  0  0  0  0
 16 20  1  0  0  0  0
 16 22  1  0  0  0  0
 17 18  1  0  0  0  0
 17 19  1  0  0  0  0
 17 21  1  0  0  0  0
 18 20  1  0  0  0  0
 18 22  1  0  0  0  0
 19 23  1  0  0  0  0
 20 23  1  0  0  0  0
 21 24  1  0  0  0  0
 22 24  1  0  0  0  0
 23 25  1  0  0  0  0
 25 26  1  0  0  0  0
 25 32  1  0  0  0  0
 25 33  1  0  0  0  0
 26 27  1  0  0  0  0
 27 28  1  0  0  0  0
 27 35  1  0  0  0  0
 27 36  1  0  0  0  0
 28 29  1  0  0  0  0
 28 37  1  0  0  0  0
 28 38  1  0  0  0  0
 30 31  1  0  0  0  0
 30 39  1  0  0  0  0
 30 40  1  0  0  0  0
 31 41  1  0  0  0  0
 31 42  1  0  0  0  0
 31 43  1  0  0  0  0
M  END
> <PUBCHEM_COMPOUND_CID>
20226

> <PUBCHEM_CONFORMER_RMSD>
1

> <PUBCHEM_CONFORMER_DIVERSEORDER>
1
30
13
8
29
41
22
27
21
11
9
3
38
24
5
33
6
34
2
12
35
17
7
40
4
36
37
39
26
14
23
32
15
18
16
19
28
10
42
25
31
20

> <PUBCHEM_MMFF94_PARTIAL_CHARGES>
31
1 -0.29
10 -0.29
11 -0.68
12 -0.57
13 -0.43
14 -0.57
15 0.29
16 0.29
17 0.29
18 0.29
19 0.29
2 -0.29
20 0.29
21 0.29
22 0.29
23 0.28
24 0.58
25 0.06
26 0.45
27 0.06
28 0.06
29 0.66
3 -0.29
30 0.28
34 0.4
4 -0.29
5 -0.29
6 -0.29
7 -0.29
8 -0.29
9 -0.29

> <PUBCHEM_EFFECTIVE_ROTOR_COUNT>
7.4

> <PUBCHEM_PHARMACOPHORE_FEATURES>
5
1 11 acceptor
1 11 donor
1 12 acceptor
1 14 acceptor
10 15 16 17 18 19 20 21 22 23 24 rings

> <PUBCHEM_HEAVY_ATOM_COUNT>
31

> <PUBCHEM_ATOM_DEF_STEREO_COUNT>
0

> <PUBCHEM_ATOM_UDEF_STEREO_COUNT>
4

> <PUBCHEM_BOND_DEF_STEREO_COUNT>
0

> <PUBCHEM_BOND_UDEF_STEREO_COUNT>
0

> <PUBCHEM_ISOTOPIC_ATOM_COUNT>
0

> <PUBCHEM_COMPONENT_COUNT>
1

> <PUBCHEM_CACTVS_TAUTO_COUNT>
3

> <PUBCHEM_CONFORMER_ID>
00004F0200000001

> <PUBCHEM_MMFF94_ENERGY>
67.7326

> <PUBCHEM_FEATURE_SELFOVERLAP>
25.381

> <PUBCHEM_SHAPE_FINGERPRINT>
10 15 6988322737927651950
10076449 9 18060134315364314875
10165383 225 17917437587799537125
10670039 82 14764355951053469790
10863032 1 18339939164377920751
10930396 42 14707214335135780307
11135926 11 18201724020200887530
11315181 36 18412544310764210588
12403814 3 14056993910977536545
12596602 18 14056717959619139998
12788726 201 17774172330090106404
13761468 95 16269978898286262484
15183329 4 14045747033008335632
15439362 3 17266394921184186532
16945 1 17556318172265572995
17093844 174 18261114097429727568
17780758 139 16877942737426140074
18927931 339 18272080617846612732
20721686 56 18188767370863557502
21267235 1 17988921129129462371
23198884 109 16200433576859427516
23559900 14 18270405979996941896
3383291 50 18333731291057091326
392239 28 4822932486159491446
484985 159 18059283284685246811
559249 180 18411699902586316090

> <PUBCHEM_SHAPE_MULTIPOLES>
633.19
14.78
2.56
2.23
50.78
0.13
0.03
4.83
1.46
-3.09
0.02
-2.15
0.13
0.18

> <PUBCHEM_SHAPE_SELFOVERLAP>
1314.524

> <PUBCHEM_SHAPE_VOLUME>
373.2

> <PUBCHEM_COORDINATE_TYPE>
2
5
10

$$$$

