12576
  -OEChem-06261207063D

 18 18  0     0  0  0  0  0  0999 V2000
   -2.4759   -1.8714    0.0100 O   0  0  0  0  0  0  0  0  0  0  0  0
    3.5333    0.0467    0.0000 O   0  5  0  0  0  0  0  0  0  0  0  0
    2.4404   -1.8572   -0.0025 O   0  0  0  0  0  0  0  0  0  0  0  0
    2.4596   -0.6026   -0.0008 N   0  3  0  0  0  0  0  0  0  0  0  0
   -3.6243    0.1135   -0.0039 N   0  0  0  0  0  0  0  0  0  0  0  0
   -1.1879    0.1004   -0.0024 C   0  0  0  0  0  0  0  0  0  0  0  0
    1.2280    0.1044    0.0006 C   0  0  0  0  0  0  0  0  0  0  0  0
    0.0213   -0.5950   -0.0020 C   0  0  0  0  0  0  0  0  0  0  0  0
   -1.1902    1.4953   -0.0001 C   0  0  0  0  0  0  0  0  0  0  0  0
    1.2257    1.4993    0.0029 C   0  0  0  0  0  0  0  0  0  0  0  0
    0.0165    2.1948    0.0027 C   0  0  0  0  0  0  0  0  0  0  0  0
   -2.4466   -0.6283   -0.0045 C   0  0  0  0  0  0  0  0  0  0  0  0
    0.0111   -1.6825   -0.0042 H   0  0  0  0  0  0  0  0  0  0  0  0
   -2.0891    2.0998    0.0003 H   0  0  0  0  0  0  0  0  0  0  0  0
    2.1462    2.0775    0.0048 H   0  0  0  0  0  0  0  0  0  0  0  0
    0.0156    3.2810    0.0047 H   0  0  0  0  0  0  0  0  0  0  0  0
   -3.6916    1.1229   -0.0109 H   0  0  0  0  0  0  0  0  0  0  0  0
   -4.5161   -0.3717    0.0016 H   0  0  0  0  0  0  0  0  0  0  0  0
  1 12  2  0  0  0  0
  2  4  1  0  0  0  0
  3  4  2  0  0  0  0
  4  7  1  0  0  0  0
  5 12  1  0  0  0  0
  5 17  1  0  0  0  0
  5 18  1  0  0  0  0
  6  8  2  0  0  0  0
  6  9  1  0  0  0  0
  6 12  1  0  0  0  0
  7  8  1  0  0  0  0
  7 10  2  0  0  0  0
  8 13  1  0  0  0  0
  9 11  2  0  0  0  0
  9 14  1  0  0  0  0
 10 11  1  0  0  0  0
 10 15  1  0  0  0  0
 11 16  1  0  0  0  0
M  CHG  2   2  -1   4   1
M  END
> <PUBCHEM_COMPOUND_CID>
12576

> <PUBCHEM_CONFORMER_RMSD>
0.6

> <PUBCHEM_CONFORMER_DIVERSEORDER>
1
2

> <PUBCHEM_MMFF94_PARTIAL_CHARGES>
18
1 -0.57
10 -0.15
11 -0.15
12 0.54
13 0.15
14 0.15
15 0.15
16 0.15
17 0.37
18 0.37
2 -0.52
3 -0.52
4 0.91
5 -0.8
6 0.09
7 0.13
8 -0.15
9 -0.15

> <PUBCHEM_EFFECTIVE_ROTOR_COUNT>
2

> <PUBCHEM_PHARMACOPHORE_FEATURES>
6
1 1 acceptor
1 2 acceptor
1 2 anion
1 3 acceptor
1 5 donor
6 6 7 8 9 10 11 rings

> <PUBCHEM_HEAVY_ATOM_COUNT>
12

> <PUBCHEM_ATOM_DEF_STEREO_COUNT>
0

> <PUBCHEM_ATOM_UDEF_STEREO_COUNT>
0

> <PUBCHEM_BOND_DEF_STEREO_COUNT>
0

> <PUBCHEM_BOND_UDEF_STEREO_COUNT>
0

> <PUBCHEM_ISOTOPIC_ATOM_COUNT>
0

> <PUBCHEM_COMPONENT_COUNT>
1

> <PUBCHEM_CACTVS_TAUTO_COUNT>
2

> <PUBCHEM_CONFORMER_ID>
0000312000000001

> <PUBCHEM_MMFF94_ENERGY>
38.0661

> <PUBCHEM_FEATURE_SELFOVERLAP>
30.527

> <PUBCHEM_SHAPE_FINGERPRINT>
10130415 120 18412545414127453817
10857977 72 18336277790019298880
14128692 85 18411133597936583932
16945 1 18410855464460312197
17990270 104 18196656194254718251
20201158 50 18413109446122658611
20645477 70 18123759656145619119
20711985 365 18124034786848419822
20871998 184 18115311214312062340
20871998 22 18334565867389115862
21501925 9 18265062331620074507
23463225 33 18410290336937145551
23552423 10 18270115687087752173
23559900 14 18265340680588593818
2748010 2 18267307517110309765
3312278 4 18412541002874280834
7364860 26 18118967992386329697

> <PUBCHEM_SHAPE_MULTIPOLES>
219.38
4.69
2
0.58
0.09
0.34
0
-1.94
0
-0.1
0
0.02
0.04
0

> <PUBCHEM_SHAPE_SELFOVERLAP>
463.715

> <PUBCHEM_SHAPE_VOLUME>
123.3

> <PUBCHEM_COORDINATE_TYPE>
2
5
10

$$$$

