47205598
  -OEChem-06241222593D

 37 37  0     1  0  0  0  0  0999 V2000
   -2.1684   -0.9288   -1.3966 O   0  0  0  0  0  0  0  0  0  0  0  0
    0.2717    0.6755    0.7864 O   0  0  0  0  0  0  0  0  0  0  0  0
   -3.7076    2.0357    0.8139 O   0  0  0  0  0  0  0  0  0  0  0  0
   -4.4765    0.2331   -0.4397 N   0  0  0  0  0  0  0  0  0  0  0  0
   -1.5647   -1.3606    0.8003 N   0  0  0  0  0  0  0  0  0  0  0  0
    1.9160   -0.8732    0.1467 N   0  0  0  0  0  0  0  0  0  0  0  0
   -0.2444   -1.5548    0.4830 N   0  0  0  0  0  0  0  0  0  0  0  0
   -5.0314    2.3884   -1.0283 N   0  0  0  0  0  0  0  0  0  0  0  0
   -3.8647   -0.8178    0.3306 C   0  0  1  0  0  0  0  0  0  0  0  0
   -4.6885   -2.0941    0.2660 C   0  0  0  0  0  0  0  0  0  0  0  0
   -2.4596   -1.0498   -0.2083 C   0  0  0  0  0  0  0  0  0  0  0  0
    3.0813   -0.0786    0.0448 C   0  0  0  0  0  0  0  0  0  0  0  0
    4.3025   -0.6436   -0.3224 C   0  0  0  0  0  0  0  0  0  0  0  0
    2.9984    1.2868    0.3173 C   0  0  0  0  0  0  0  0  0  0  0  0
    5.4410    0.1568   -0.4171 C   0  0  0  0  0  0  0  0  0  0  0  0
    4.4210   -2.1033   -0.6197 C   0  0  0  0  0  0  0  0  0  0  0  0
    0.6269   -0.4657    0.4992 C   0  0  0  0  0  0  0  0  0  0  0  0
    4.1368    2.0874    0.2226 C   0  0  0  0  0  0  0  0  0  0  0  0
    5.3580    1.5224   -0.1446 C   0  0  0  0  0  0  0  0  0  0  0  0
   -4.3479    1.5842   -0.1340 C   0  0  0  0  0  0  0  0  0  0  0  0
   -3.8031   -0.4812    1.3725 H   0  0  0  0  0  0  0  0  0  0  0  0
   -4.2288   -2.8872    0.8651 H   0  0  0  0  0  0  0  0  0  0  0  0
   -5.7033   -1.9239    0.6411 H   0  0  0  0  0  0  0  0  0  0  0  0
   -4.7708   -2.4631   -0.7629 H   0  0  0  0  0  0  0  0  0  0  0  0
   -4.9606   -0.0154   -1.2974 H   0  0  0  0  0  0  0  0  0  0  0  0
   -1.8192   -1.4612    1.7772 H   0  0  0  0  0  0  0  0  0  0  0  0
    2.0232   -1.8617   -0.0603 H   0  0  0  0  0  0  0  0  0  0  0  0
    2.0947    1.8025    0.6073 H   0  0  0  0  0  0  0  0  0  0  0  0
    6.4006   -0.2666   -0.7017 H   0  0  0  0  0  0  0  0  0  0  0  0
    4.1481   -2.6984    0.2581 H   0  0  0  0  0  0  0  0  0  0  0  0
    3.7785   -2.3779   -1.4629 H   0  0  0  0  0  0  0  0  0  0  0  0
    5.4456   -2.3805   -0.8915 H   0  0  0  0  0  0  0  0  0  0  0  0
    0.0426   -2.4997    0.2532 H   0  0  0  0  0  0  0  0  0  0  0  0
    4.0738    3.1509    0.4345 H   0  0  0  0  0  0  0  0  0  0  0  0
    6.2444    2.1458   -0.2183 H   0  0  0  0  0  0  0  0  0  0  0  0
   -5.0296    3.3984   -0.9339 H   0  0  0  0  0  0  0  0  0  0  0  0
   -5.5556    1.9972   -1.8037 H   0  0  0  0  0  0  0  0  0  0  0  0
  1 11  2  0  0  0  0
  2 17  2  0  0  0  0
  3 20  2  0  0  0  0
  4  9  1  0  0  0  0
  4 20  1  0  0  0  0
  4 25  1  0  0  0  0
  5  7  1  0  0  0  0
  5 11  1  0  0  0  0
  5 26  1  0  0  0  0
  6 12  1  0  0  0  0
  6 17  1  0  0  0  0
  6 27  1  0  0  0  0
  7 17  1  0  0  0  0
  7 33  1  0  0  0  0
  8 20  1  0  0  0  0
  8 36  1  0  0  0  0
  8 37  1  0  0  0  0
  9 10  1  0  0  0  0
  9 11  1  0  0  0  0
  9 21  1  0  0  0  0
 10 22  1  0  0  0  0
 10 23  1  0  0  0  0
 10 24  1  0  0  0  0
 12 13  1  0  0  0  0
 12 14  2  0  0  0  0
 13 15  2  0  0  0  0
 13 16  1  0  0  0  0
 14 18  1  0  0  0  0
 14 28  1  0  0  0  0
 15 19  1  0  0  0  0
 15 29  1  0  0  0  0
 16 30  1  0  0  0  0
 16 31  1  0  0  0  0
 16 32  1  0  0  0  0
 18 19  2  0  0  0  0
 18 34  1  0  0  0  0
 19 35  1  0  0  0  0
M  END
> <PUBCHEM_COMPOUND_CID>
47205598

> <PUBCHEM_CONFORMER_RMSD>
0.8

> <PUBCHEM_CONFORMER_DIVERSEORDER>
1
193
5
235
111
145
91
269
246
232
304
287
11
170
197
79
270
309
295
23
259
20
302
182
129
217
267
168
202
199
121
284
40
74
300
256
73
99
188
288
297
189
214
47
231
24
60
258
298
265
55
207
94
139
71
83
117
239
218
80
124
263
2
143
276
226
4
262
132
150
233
266
290
191
3
181
301
299
224
277
306
59
280
163
77
105
159
130
203
253
279
134
200
173
283
261
131
34
177
310
41
194
201
33
115
294
53
308
264
183
274
92
32
46
141
286
120
147
104
7
52
172
268
291
109
273
296
175
75
107
289
12
39
15
248
116
209
293
271
81
85
198
208
133
190
151
126
171
103
247
206
257
62
210
63
153
158
249
98
45
157
26
192
162
160
96
128
19
61
97
22
90
114
78
223
282
13
303
180
72
82
213
95
237
250
186
179
204
144
35
156
221
68
184
69
149
137
174
29
113
275
88
100
31
215
227
70
164
16
76
219
220
260
307
225
119
21
48
84
49
211
65
187
118
28
161
154
38
14
37
278
292
18
148
167
236
241
251
51
125
135
196
244
9
281
230
240
112
176
169
212
272
36
142
243
229
42
93
238
242
285
27
102
25
67
252
56
234
106
165
8
185
17
254
138
178
54
146
222
6
58
66
195
122
30
108
136
155
89
305
152
101
123
50
110
64
140
86
10
245
255
44
43
216
228
127
57
87
166
205

> <PUBCHEM_MMFF94_PARTIAL_CHARGES>
29
1 -0.57
11 0.57
12 0.12
13 -0.14
14 -0.15
15 -0.15
16 0.14
17 0.69
18 -0.15
19 -0.15
2 -0.57
20 0.69
25 0.37
26 0.37
27 0.37
28 0.15
29 0.15
3 -0.57
33 0.37
34 0.15
35 0.15
36 0.37
37 0.37
4 -0.73
5 -0.43
6 -0.55
7 -0.43
8 -0.8
9 0.36

> <PUBCHEM_EFFECTIVE_ROTOR_COUNT>
8

> <PUBCHEM_PHARMACOPHORE_FEATURES>
9
1 1 acceptor
1 2 acceptor
1 3 acceptor
1 4 donor
1 5 donor
1 6 donor
1 7 donor
1 8 donor
6 12 13 14 15 18 19 rings

> <PUBCHEM_HEAVY_ATOM_COUNT>
20

> <PUBCHEM_ATOM_DEF_STEREO_COUNT>
0

> <PUBCHEM_ATOM_UDEF_STEREO_COUNT>
1

> <PUBCHEM_BOND_DEF_STEREO_COUNT>
0

> <PUBCHEM_BOND_UDEF_STEREO_COUNT>
0

> <PUBCHEM_ISOTOPIC_ATOM_COUNT>
0

> <PUBCHEM_COMPONENT_COUNT>
1

> <PUBCHEM_CACTVS_TAUTO_COUNT>
18

> <PUBCHEM_CONFORMER_ID>
02D04CDE00000001

> <PUBCHEM_MMFF94_ENERGY>
49.9184

> <PUBCHEM_FEATURE_SELFOVERLAP>
47.319

> <PUBCHEM_SHAPE_FINGERPRINT>
10595046 47 18336829684616338246
12107183 9 17978228584264926002
12616971 3 13912317950022106795
12916748 109 18271804579876733187
13073987 5 18273217478204364826
14573314 32 18410853248467963326
15183329 4 18334855060680318736
15196674 1 18411136935168312472
15239154 128 18411698781299385873
17844677 252 18411410687809720570
17959699 21 18411981339024593136
18186145 218 18060425715868222986
200 152 17821723914968713338
20645477 70 18114170931251264030
21279426 13 18338795718981164926
21315763 129 18340488863877296512
221357 26 18261396603103461657
22289505 5 18335138705106325724
23402655 69 18333730213330652940
23559900 14 18261392295446650450
2838139 119 18267311013815426549
2916195 48 18341616962659695264
3004659 81 18411979196310769882
32948 21 18341328972423415734
4214541 1 18410009931549742345
441001 317 18413672396466197321
5104073 3 18272371983647840074
5207 123 17970338433675343102
5281201 14 18410006620309266334
5283173 99 18410855481745839088
543358 83 18410572929301906378
633830 44 18342465841423869054
77779 3 18410011026697980406
90127 26 18272362066505036650

> <PUBCHEM_SHAPE_MULTIPOLES>
369.08
14.29
2.48
0.87
0.31
0.64
0.11
3.8
2.21
1.33
0.12
0.42
0.02
1.01

> <PUBCHEM_SHAPE_SELFOVERLAP>
754.74

> <PUBCHEM_SHAPE_VOLUME>
211.6

> <PUBCHEM_COORDINATE_TYPE>
2
5
10

$$$$

