56928132
  -OEChem-07051213152D

110112  0     1  0  0  0  0  0999 V2000
    7.7083    2.0830    0.0000 O   0  0  0  0  0  0  0  0  0  0  0  0
    7.7083   -0.9170    0.0000 O   0  0  0  0  0  0  0  0  0  0  0  0
   10.0744   -0.2830    0.0000 O   0  0  0  0  0  0  0  0  0  0  0  0
    3.8855   -2.8561    0.0000 O   0  0  0  0  0  0  0  0  0  0  0  0
    2.1300   -3.8696    0.0000 O   0  0  0  0  0  0  0  0  0  0  0  0
    6.2519   -1.7320    0.0000 O   0  0  0  0  0  0  0  0  0  0  0  0
   12.0385    4.5830    0.0000 O   0  0  0  0  0  0  0  0  0  0  0  0
   13.7705    3.5830    0.0000 O   0  0  0  0  0  0  0  0  0  0  0  0
   12.9045    2.0830    0.0000 O   0  0  0  0  0  0  0  0  0  0  0  0
    8.5744    0.5830    0.0000 C   0  0  1  0  0  0  0  0  0  0  0  0
    7.7083    0.0830    0.0000 C   0  0  2  0  0  0  0  0  0  0  0  0
    8.5744    1.5830    0.0000 C   0  0  1  0  0  0  0  0  0  0  0  0
    6.8423    0.5830    0.0000 C   0  0  0  0  0  0  0  0  0  0  0  0
    6.8423    1.5830    0.0000 C   0  0  2  0  0  0  0  0  0  0  0  0
    9.5744    0.5830    0.0000 C   0  0  0  0  0  0  0  0  0  0  0  0
    9.0744   -0.2830    0.0000 C   0  0  0  0  0  0  0  0  0  0  0  0
    9.4404    2.0830    0.0000 C   0  0  0  0  0  0  0  0  0  0  0  0
    5.9763    2.0830    0.0000 C   0  0  0  0  0  0  0  0  0  0  0  0
    9.4404    3.0830    0.0000 C   0  0  0  0  0  0  0  0  0  0  0  0
    3.0000   -2.3538    0.0000 C   0  0  1  0  0  0  0  0  0  0  0  0
    2.9960   -3.3696    0.0000 C   0  0  1  0  0  0  0  0  0  0  0  0
    3.8855   -1.8561    0.0000 C   0  0  2  0  0  0  0  0  0  0  0  0
    3.8777   -3.8742    0.0000 C   0  0  0  0  0  0  0  0  0  0  0  0
    4.7516   -3.3561    0.0000 C   0  0  1  0  0  0  0  0  0  0  0  0
    7.2516   -1.7580    0.0000 C   0  0  0  0  0  0  0  0  0  0  0  0
    5.1103    1.5830    0.0000 C   0  0  0  0  0  0  0  0  0  0  0  0
   10.3064    3.5830    0.0000 C   0  0  0  0  0  0  0  0  0  0  0  0
    4.7516   -4.3561    0.0000 C   0  0  0  0  0  0  0  0  0  0  0  0
    2.0000   -2.3461    0.0000 C   0  0  0  0  0  0  0  0  0  0  0  0
    4.1443    1.8419    0.0000 C   0  0  0  0  0  0  0  0  0  0  0  0
    3.0195   -1.3561    0.0000 C   0  0  0  0  0  0  0  0  0  0  0  0
   11.1724    3.0830    0.0000 C   0  0  0  0  0  0  0  0  0  0  0  0
    7.7516   -2.6241    0.0000 C   0  0  0  0  0  0  0  0  0  0  0  0
    3.5195   -0.4901    0.0000 C   0  0  0  0  0  0  0  0  0  0  0  0
    5.7516   -4.3561    0.0000 C   0  0  0  0  0  0  0  0  0  0  0  0
    3.2783    1.3419    0.0000 C   0  0  0  0  0  0  0  0  0  0  0  0
    7.2516   -3.4901    0.0000 C   0  0  0  0  0  0  0  0  0  0  0  0
   12.0385    3.5830    0.0000 C   0  0  1  0  0  0  0  0  0  0  0  0
    3.0195    0.3759    0.0000 C   0  0  0  0  0  0  0  0  0  0  0  0
    6.2516   -3.4901    0.0000 C   0  0  0  0  0  0  0  0  0  0  0  0
    4.5195   -0.4901    0.0000 C   0  0  0  0  0  0  0  0  0  0  0  0
   12.9045    3.0830    0.0000 C   0  0  0  0  0  0  0  0  0  0  0  0
   14.6365    3.0830    0.0000 C   0  0  0  0  0  0  0  0  0  0  0  0
   15.5026    3.5830    0.0000 C   0  0  0  0  0  0  0  0  0  0  0  0
   16.3686    3.0830    0.0000 C   0  0  0  0  0  0  0  0  0  0  0  0
   17.2346    3.5830    0.0000 C   0  0  0  0  0  0  0  0  0  0  0  0
   18.1006    3.0830    0.0000 C   0  0  0  0  0  0  0  0  0  0  0  0
   18.9667    3.5830    0.0000 C   0  0  0  0  0  0  0  0  0  0  0  0
   18.1006    2.0830    0.0000 C   0  0  0  0  0  0  0  0  0  0  0  0
   15.5026    4.5830    0.0000 C   0  0  0  0  0  0  0  0  0  0  0  0
    8.4445   -0.3420    0.0000 H   0  0  0  0  0  0  0  0  0  0  0  0
    8.5744    2.2030    0.0000 H   0  0  0  0  0  0  0  0  0  0  0  0
    6.2317    0.6907    0.0000 H   0  0  0  0  0  0  0  0  0  0  0  0
    6.6303    0.0004    0.0000 H   0  0  0  0  0  0  0  0  0  0  0  0
    6.8423    2.4330    0.0000 H   0  0  0  0  0  0  0  0  0  0  0  0
   10.1570    0.7951    0.0000 H   0  0  0  0  0  0  0  0  0  0  0  0
    9.4667    1.1936    0.0000 H   0  0  0  0  0  0  0  0  0  0  0  0
    8.5374   -0.5930    0.0000 H   0  0  0  0  0  0  0  0  0  0  0  0
    9.3844   -0.8199    0.0000 H   0  0  0  0  0  0  0  0  0  0  0  0
    9.6113    0.0270    0.0000 H   0  0  0  0  0  0  0  0  0  0  0  0
    9.6524    1.5004    0.0000 H   0  0  0  0  0  0  0  0  0  0  0  0
   10.0510    2.1907    0.0000 H   0  0  0  0  0  0  0  0  0  0  0  0
    5.9763    2.7030    0.0000 H   0  0  0  0  0  0  0  0  0  0  0  0
    8.9035    3.3930    0.0000 H   0  0  0  0  0  0  0  0  0  0  0  0
    2.8453   -1.7534    0.0000 H   0  0  0  0  0  0  0  0  0  0  0  0
   10.6944   -0.2830    0.0000 H   0  0  0  0  0  0  0  0  0  0  0  0
    2.4597   -3.0586    0.0000 H   0  0  0  0  0  0  0  0  0  0  0  0
    4.6265   -1.4397    0.0000 H   0  0  0  0  0  0  0  0  0  0  0  0
    3.4823   -4.3517    0.0000 H   0  0  0  0  0  0  0  0  0  0  0  0
    4.2805   -4.3455    0.0000 H   0  0  0  0  0  0  0  0  0  0  0  0
    5.1723   -2.6175    0.0000 H   0  0  0  0  0  0  0  0  0  0  0  0
    5.1912    0.9684    0.0000 H   0  0  0  0  0  0  0  0  0  0  0  0
   10.3064    4.2030    0.0000 H   0  0  0  0  0  0  0  0  0  0  0  0
    4.1316   -4.3561    0.0000 H   0  0  0  0  0  0  0  0  0  0  0  0
    4.7516   -4.9761    0.0000 H   0  0  0  0  0  0  0  0  0  0  0  0
    2.0048   -1.7261    0.0000 H   0  0  0  0  0  0  0  0  0  0  0  0
    1.3800   -2.3413    0.0000 H   0  0  0  0  0  0  0  0  0  0  0  0
    1.9952   -2.9661    0.0000 H   0  0  0  0  0  0  0  0  0  0  0  0
    2.4206   -1.1956    0.0000 H   0  0  0  0  0  0  0  0  0  0  0  0
    4.4543    2.3788    0.0000 H   0  0  0  0  0  0  0  0  0  0  0  0
    3.7059    2.2803    0.0000 H   0  0  0  0  0  0  0  0  0  0  0  0
   10.7739    2.6081    0.0000 H   0  0  0  0  0  0  0  0  0  0  0  0
   11.5710    2.6081    0.0000 H   0  0  0  0  0  0  0  0  0  0  0  0
    8.3715   -2.6241    0.0000 H   0  0  0  0  0  0  0  0  0  0  0  0
    2.1300   -4.4896    0.0000 H   0  0  0  0  0  0  0  0  0  0  0  0
    6.0616   -4.8930    0.0000 H   0  0  0  0  0  0  0  0  0  0  0  0
    2.7864    1.7193    0.0000 H   0  0  0  0  0  0  0  0  0  0  0  0
    7.5616   -4.0270    0.0000 H   0  0  0  0  0  0  0  0  0  0  0  0
   11.5015    3.8930    0.0000 H   0  0  0  0  0  0  0  0  0  0  0  0
    2.4048    0.2950    0.0000 H   0  0  0  0  0  0  0  0  0  0  0  0
    5.9416   -2.9532    0.0000 H   0  0  0  0  0  0  0  0  0  0  0  0
    4.5195   -1.1101    0.0000 H   0  0  0  0  0  0  0  0  0  0  0  0
    5.1395   -0.4901    0.0000 H   0  0  0  0  0  0  0  0  0  0  0  0
    4.5195    0.1299    0.0000 H   0  0  0  0  0  0  0  0  0  0  0  0
   12.5754    4.8930    0.0000 H   0  0  0  0  0  0  0  0  0  0  0  0
   14.2380    2.6081    0.0000 H   0  0  0  0  0  0  0  0  0  0  0  0
   15.0351    2.6081    0.0000 H   0  0  0  0  0  0  0  0  0  0  0  0
   15.9701    2.6081    0.0000 H   0  0  0  0  0  0  0  0  0  0  0  0
   16.7671    2.6081    0.0000 H   0  0  0  0  0  0  0  0  0  0  0  0
   17.6332    4.0580    0.0000 H   0  0  0  0  0  0  0  0  0  0  0  0
   16.8361    4.0580    0.0000 H   0  0  0  0  0  0  0  0  0  0  0  0
   18.1006    3.7030    0.0000 H   0  0  0  0  0  0  0  0  0  0  0  0
   19.2767    3.0461    0.0000 H   0  0  0  0  0  0  0  0  0  0  0  0
   19.5036    3.8930    0.0000 H   0  0  0  0  0  0  0  0  0  0  0  0
   18.6567    4.1200    0.0000 H   0  0  0  0  0  0  0  0  0  0  0  0
   17.4806    2.0830    0.0000 H   0  0  0  0  0  0  0  0  0  0  0  0
   18.1006    1.4630    0.0000 H   0  0  0  0  0  0  0  0  0  0  0  0
   18.7206    2.0830    0.0000 H   0  0  0  0  0  0  0  0  0  0  0  0
   16.0395    4.8930    0.0000 H   0  0  0  0  0  0  0  0  0  0  0  0
   14.9656    4.8930    0.0000 H   0  0  0  0  0  0  0  0  0  0  0  0
  1 12  1  0  0  0  0
  1 14  1  0  0  0  0
  2 11  1  0  0  0  0
  2 25  1  0  0  0  0
  3 15  1  0  0  0  0
  3 66  1  0  0  0  0
  4 22  1  0  0  0  0
  4 24  1  0  0  0  0
 21  5  1  1  0  0  0
  5 85  1  0  0  0  0
  6 25  2  0  0  0  0
 38  7  1  6  0  0  0
  7 95  1  0  0  0  0
  8 42  1  0  0  0  0
  8 43  1  0  0  0  0
  9 42  2  0  0  0  0
 10 11  1  0  0  0  0
 10 12  1  0  0  0  0
 10 15  1  0  0  0  0
 10 16  1  6  0  0  0
 11 13  1  0  0  0  0
 11 51  1  6  0  0  0
 12 17  1  6  0  0  0
 12 52  1  0  0  0  0
 13 14  1  0  0  0  0
 13 53  1  0  0  0  0
 13 54  1  0  0  0  0
 14 18  1  0  0  0  0
 14 55  1  1  0  0  0
 15 56  1  0  0  0  0
 15 57  1  0  0  0  0
 16 58  1  0  0  0  0
 16 59  1  0  0  0  0
 16 60  1  0  0  0  0
 17 19  1  0  0  0  0
 17 61  1  0  0  0  0
 17 62  1  0  0  0  0
 18 26  2  0  0  0  0
 18 63  1  0  0  0  0
 19 27  2  0  0  0  0
 19 64  1  0  0  0  0
 20 21  1  0  0  0  0
 20 22  1  0  0  0  0
 20 29  1  6  0  0  0
 20 65  1  0  0  0  0
 21 23  1  0  0  0  0
 21 67  1  0  0  0  0
 22 31  1  0  0  0  0
 22 68  1  1  0  0  0
 23 24  1  0  0  0  0
 23 69  1  0  0  0  0
 23 70  1  0  0  0  0
 24 28  1  0  0  0  0
 24 71  1  1  0  0  0
 25 33  1  0  0  0  0
 26 30  1  0  0  0  0
 26 72  1  0  0  0  0
 27 32  1  0  0  0  0
 27 73  1  0  0  0  0
 28 35  1  0  0  0  0
 28 74  1  0  0  0  0
 28 75  1  0  0  0  0
 29 76  1  0  0  0  0
 29 77  1  0  0  0  0
 29 78  1  0  0  0  0
 30 36  1  0  0  0  0
 30 80  1  0  0  0  0
 30 81  1  0  0  0  0
 31 34  2  0  0  0  0
 31 79  1  0  0  0  0
 32 38  1  0  0  0  0
 32 82  1  0  0  0  0
 32 83  1  0  0  0  0
 33 37  2  0  0  0  0
 33 84  1  0  0  0  0
 34 39  1  0  0  0  0
 34 41  1  0  0  0  0
 35 40  2  0  0  0  0
 35 86  1  0  0  0  0
 36 39  2  0  0  0  0
 36 87  1  0  0  0  0
 37 40  1  0  0  0  0
 37 88  1  0  0  0  0
 38 42  1  0  0  0  0
 38 89  1  0  0  0  0
 39 90  1  0  0  0  0
 40 91  1  0  0  0  0
 41 92  1  0  0  0  0
 41 93  1  0  0  0  0
 41 94  1  0  0  0  0
 43 44  1  0  0  0  0
 43 96  1  0  0  0  0
 43 97  1  0  0  0  0
 44 45  1  0  0  0  0
 44 50  2  0  0  0  0
 45 46  1  0  0  0  0
 45 98  1  0  0  0  0
 45 99  1  0  0  0  0
 46 47  1  0  0  0  0
 46100  1  0  0  0  0
 46101  1  0  0  0  0
 47 48  1  0  0  0  0
 47 49  1  0  0  0  0
 47102  1  0  0  0  0
 48103  1  0  0  0  0
 48104  1  0  0  0  0
 48105  1  0  0  0  0
 49106  1  0  0  0  0
 49107  1  0  0  0  0
 49108  1  0  0  0  0
 50109  1  0  0  0  0
 50110  1  0  0  0  0
M  END
> <PUBCHEM_COMPOUND_CID>
56928132

> <PUBCHEM_COMPOUND_CANONICALIZED>
1

> <PUBCHEM_CACTVS_COMPLEXITY>
1290

> <PUBCHEM_CACTVS_HBOND_ACCEPTOR>
9

> <PUBCHEM_CACTVS_HBOND_DONOR>
3

> <PUBCHEM_CACTVS_ROTATABLE_BOND>
12

> <PUBCHEM_CACTVS_SUBSKEYS>
AAADcfB8PAAAAAAAAAAAAAAAAAAAAAAAAAAkSAAAAAAAAAAAAAAAGgAACAAADxSggAICCAAABgCIAiDSCAIAAAAgAAAICAFAAEgJFBIAIQACUAAFwAALoYOA4PwPAAAAAAAAAAAAAAAAAAAAAAAAAAAAAA==

> <PUBCHEM_IUPAC_INCHI>
InChI=1S/C41H60O9/c1-28(2)21-22-30(4)26-47-40(46)34(43)18-13-14-19-37-41(6,27-42)38-25-33(49-37)17-10-7-9-15-29(3)23-36-31(5)35(44)24-32(48-36)16-11-8-12-20-39(45)50-38/h8-15,17,20,23,28,31-38,42-44H,4,7,16,18-19,21-22,24-27H2,1-3,5-6H3/b11-8+,14-13-,15-9-,17-10+,20-12-,29-23+/t31-,32+,33-,34-,35+,36-,37+,38-,41+/m0/s1

> <PUBCHEM_IUPAC_INCHIKEY>
XYYABYHBQHRGAT-QMGAAPKKSA-N

> <PUBCHEM_XLOGP3_AA>
7.6

> <PUBCHEM_EXACT_MASS>
696.423734

> <PUBCHEM_MOLECULAR_FORMULA>
C41H60O9

> <PUBCHEM_MOLECULAR_WEIGHT>
696.9097

> <PUBCHEM_OPENEYE_CAN_SMILES>
CC1C(CC2CC=CC=CC(=O)OC3CC(C=CCC=CC(=CC1O2)C)OC(C3(C)CO)CC=CCC(C(=O)OCC(=C)CCC(C)C)O)O

> <PUBCHEM_OPENEYE_ISO_SMILES>
C[C@H]1[C@@H](C[C@H]2C/C=C/C=C\C(=O)O[C@H]3C[C@H](/C=C/C/C=C\C(=C\[C@@H]1O2)\C)O[C@@H]([C@@]3(C)CO)C/C=C\C[C@@H](C(=O)OCC(=C)CCC(C)C)O)O

> <PUBCHEM_CACTVS_TPSA>
132

> <PUBCHEM_MONOISOTOPIC_WEIGHT>
696.423734

> <PUBCHEM_TOTAL_CHARGE>
0

> <PUBCHEM_HEAVY_ATOM_COUNT>
50

> <PUBCHEM_ATOM_DEF_STEREO_COUNT>
9

> <PUBCHEM_ATOM_UDEF_STEREO_COUNT>
0

> <PUBCHEM_BOND_DEF_STEREO_COUNT>
6

> <PUBCHEM_BOND_UDEF_STEREO_COUNT>
0

> <PUBCHEM_ISOTOPIC_ATOM_COUNT>
0

> <PUBCHEM_COMPONENT_COUNT>
1

> <PUBCHEM_CACTVS_TAUTO_COUNT>
3

> <PUBCHEM_COORDINATE_TYPE>
1
5
255

> <PUBCHEM_BONDANNOTATIONS>
10  16  6
11  51  6
12  17  6
14  55  5
20  29  6
22  68  5
24  71  5
21  5  5
38  7  6

$$$$

