439774
  -OEChem-07051212472D

 20 20  0     1  0  0  0  0  0999 V2000
    2.5369    1.4050    0.0000 O   0  0  0  0  0  0  0  0  0  0  0  0
    4.2690    2.4050    0.0000 O   0  0  0  0  0  0  0  0  0  0  0  0
    6.0010    1.4050    0.0000 O   0  0  0  0  0  0  0  0  0  0  0  0
    3.4030   -2.0950    0.0000 O   0  0  0  0  0  0  0  0  0  0  0  0
    5.1350   -2.0950    0.0000 O   0  0  0  0  0  0  0  0  0  0  0  0
    3.4030    0.9050    0.0000 C   0  0  1  0  0  0  0  0  0  0  0  0
    4.2690    1.4050    0.0000 C   0  0  1  0  0  0  0  0  0  0  0  0
    3.4030   -0.0950    0.0000 C   0  0  0  0  0  0  0  0  0  0  0  0
    4.2690   -0.5950    0.0000 C   0  0  0  0  0  0  0  0  0  0  0  0
    5.1350    0.9050    0.0000 C   0  0  0  0  0  0  0  0  0  0  0  0
    5.1350   -0.0950    0.0000 C   0  0  0  0  0  0  0  0  0  0  0  0
    4.2690   -1.5950    0.0000 C   0  0  0  0  0  0  0  0  0  0  0  0
    3.4030    1.5250    0.0000 H   0  0  0  0  0  0  0  0  0  0  0  0
    4.8059    1.7150    0.0000 H   0  0  0  0  0  0  0  0  0  0  0  0
    2.7924    0.0127    0.0000 H   0  0  0  0  0  0  0  0  0  0  0  0
    3.1909   -0.6776    0.0000 H   0  0  0  0  0  0  0  0  0  0  0  0
    5.6720   -0.4050    0.0000 H   0  0  0  0  0  0  0  0  0  0  0  0
    2.0000    1.0950    0.0000 H   0  0  0  0  0  0  0  0  0  0  0  0
    4.8059    2.7150    0.0000 H   0  0  0  0  0  0  0  0  0  0  0  0
    3.4030   -2.7150    0.0000 H   0  0  0  0  0  0  0  0  0  0  0  0
  6  1  1  1  0  0  0
  1 18  1  0  0  0  0
  7  2  1  6  0  0  0
  2 19  1  0  0  0  0
  3 10  2  0  0  0  0
  4 12  1  0  0  0  0
  4 20  1  0  0  0  0
  5 12  2  0  0  0  0
  6  7  1  0  0  0  0
  6  8  1  0  0  0  0
  6 13  1  0  0  0  0
  7 10  1  0  0  0  0
  7 14  1  0  0  0  0
  8  9  1  0  0  0  0
  8 15  1  0  0  0  0
  8 16  1  0  0  0  0
  9 11  2  0  0  0  0
  9 12  1  0  0  0  0
 10 11  1  0  0  0  0
 11 17  1  0  0  0  0
M  END
> <PUBCHEM_COMPOUND_CID>
439774

> <PUBCHEM_COMPOUND_CANONICALIZED>
1

> <PUBCHEM_CACTVS_COMPLEXITY>
255

> <PUBCHEM_CACTVS_HBOND_ACCEPTOR>
5

> <PUBCHEM_CACTVS_HBOND_DONOR>
3

> <PUBCHEM_CACTVS_ROTATABLE_BOND>
1

> <PUBCHEM_CACTVS_SUBSKEYS>
AAADccBgOAAAAAAAAAAAAAAAAAAAAAAAAAAgAAAAAAAAAAAAAAAAGgAACAAADBSggAIACAAAAgCIAqDSCAIAAAAgAAAACAFAAEgBFBYAAQAAUAAE4AAJEYPK7CTAAAAAAAAAAAAAAAAAAAAAAAAAAAAAAA==

> <PUBCHEM_IUPAC_OPENEYE_NAME>
(4S,5R)-4,5-dihydroxy-3-oxo-cyclohexene-1-carboxylic acid

> <PUBCHEM_IUPAC_CAS_NAME>
(4S,5R)-4,5-dihydroxy-3-oxo-1-cyclohexenecarboxylic acid

> <PUBCHEM_IUPAC_NAME>
(4S,5R)-4,5-dihydroxy-3-oxocyclohexene-1-carboxylic acid

> <PUBCHEM_IUPAC_SYSTEMATIC_NAME>
(4S,5R)-4,5-bis(oxidanyl)-3-oxidanylidene-cyclohexene-1-carboxylic acid

> <PUBCHEM_IUPAC_TRADITIONAL_NAME>
(4S,5R)-4,5-dihydroxy-3-keto-cyclohexene-1-carboxylic acid

> <PUBCHEM_IUPAC_INCHI>
InChI=1S/C7H8O5/c8-4-1-3(7(11)12)2-5(9)6(4)10/h1,5-6,9-10H,2H2,(H,11,12)/t5-,6-/m1/s1

> <PUBCHEM_IUPAC_INCHIKEY>
SLWWJZMPHJJOPH-PHDIDXHHSA-N

> <PUBCHEM_XLOGP3_AA>
-1.4

> <PUBCHEM_EXACT_MASS>
172.037173

> <PUBCHEM_MOLECULAR_FORMULA>
C7H8O5

> <PUBCHEM_MOLECULAR_WEIGHT>
172.13542

> <PUBCHEM_OPENEYE_CAN_SMILES>
C1C(C(C(=O)C=C1C(=O)O)O)O

> <PUBCHEM_OPENEYE_ISO_SMILES>
C1[C@H]([C@@H](C(=O)C=C1C(=O)O)O)O

> <PUBCHEM_CACTVS_TPSA>
94.8

> <PUBCHEM_MONOISOTOPIC_WEIGHT>
172.037173

> <PUBCHEM_TOTAL_CHARGE>
0

> <PUBCHEM_HEAVY_ATOM_COUNT>
12

> <PUBCHEM_ATOM_DEF_STEREO_COUNT>
2

> <PUBCHEM_ATOM_UDEF_STEREO_COUNT>
0

> <PUBCHEM_BOND_DEF_STEREO_COUNT>
0

> <PUBCHEM_BOND_UDEF_STEREO_COUNT>
0

> <PUBCHEM_ISOTOPIC_ATOM_COUNT>
0

> <PUBCHEM_COMPONENT_COUNT>
1

> <PUBCHEM_CACTVS_TAUTO_COUNT>
20

> <PUBCHEM_COORDINATE_TYPE>
1
5
255

> <PUBCHEM_BONDANNOTATIONS>
6  1  5
7  2  6

$$$$

