13249
  -OEChem-06261208063D

 27 28  0     0  0  0  0  0  0999 V2000
   -3.6169   -2.5704    0.0229 Br  0  0  0  0  0  0  0  0  0  0  0  0
    3.2402   -0.3900    0.0740 N   0  0  0  0  0  0  0  0  0  0  0  0
   -0.0839    2.2928   -0.0293 N   0  0  0  0  0  0  0  0  0  0  0  0
    0.9608    0.3749   -0.4257 C   0  0  0  0  0  0  0  0  0  0  0  0
   -0.4195    0.0956   -0.2214 C   0  0  0  0  0  0  0  0  0  0  0  0
    2.0230   -0.6088   -0.7194 C   0  0  0  0  0  0  0  0  0  0  0  0
   -1.0524    1.3158    0.0254 C   0  0  0  0  0  0  0  0  0  0  0  0
    1.1359    1.7339   -0.3014 C   0  0  0  0  0  0  0  0  0  0  0  0
   -1.1936   -1.0818   -0.2227 C   0  0  0  0  0  0  0  0  0  0  0  0
   -2.4261    1.4179    0.2720 C   0  0  0  0  0  0  0  0  0  0  0  0
    4.2479   -1.3917   -0.2620 C   0  0  0  0  0  0  0  0  0  0  0  0
    2.9269   -0.4300    1.4995 C   0  0  0  0  0  0  0  0  0  0  0  0
   -2.5689   -0.9949    0.0224 C   0  0  0  0  0  0  0  0  0  0  0  0
   -3.1735    0.2367    0.2657 C   0  0  0  0  0  0  0  0  0  0  0  0
    1.6517   -1.6302   -0.5649 H   0  0  0  0  0  0  0  0  0  0  0  0
    2.2697   -0.5248   -1.7862 H   0  0  0  0  0  0  0  0  0  0  0  0
    2.0153    2.3576   -0.3839 H   0  0  0  0  0  0  0  0  0  0  0  0
   -0.2503    3.2797    0.1108 H   0  0  0  0  0  0  0  0  0  0  0  0
   -0.7246   -2.0435   -0.4127 H   0  0  0  0  0  0  0  0  0  0  0  0
   -2.8976    2.3763    0.4615 H   0  0  0  0  0  0  0  0  0  0  0  0
    5.1762   -1.2035    0.2889 H   0  0  0  0  0  0  0  0  0  0  0  0
    4.5021   -1.3417   -1.3267 H   0  0  0  0  0  0  0  0  0  0  0  0
    3.9144   -2.4108   -0.0346 H   0  0  0  0  0  0  0  0  0  0  0  0
    3.8471   -0.3406    2.0896 H   0  0  0  0  0  0  0  0  0  0  0  0
    2.4377   -1.3673    1.7909 H   0  0  0  0  0  0  0  0  0  0  0  0
    2.2986    0.4055    1.8224 H   0  0  0  0  0  0  0  0  0  0  0  0
   -4.2428    0.2993    0.4558 H   0  0  0  0  0  0  0  0  0  0  0  0
  1 13  1  0  0  0  0
  2  6  1  0  0  0  0
  2 11  1  0  0  0  0
  2 12  1  0  0  0  0
  3  7  1  0  0  0  0
  3  8  1  0  0  0  0
  3 18  1  0  0  0  0
  4  5  1  0  0  0  0
  4  6  1  0  0  0  0
  4  8  2  0  0  0  0
  5  7  2  0  0  0  0
  5  9  1  0  0  0  0
  6 15  1  0  0  0  0
  6 16  1  0  0  0  0
  7 10  1  0  0  0  0
  8 17  1  0  0  0  0
  9 13  2  0  0  0  0
  9 19  1  0  0  0  0
 10 14  2  0  0  0  0
 10 20  1  0  0  0  0
 11 21  1  0  0  0  0
 11 22  1  0  0  0  0
 11 23  1  0  0  0  0
 12 24  1  0  0  0  0
 12 25  1  0  0  0  0
 12 26  1  0  0  0  0
 13 14  1  0  0  0  0
 14 27  1  0  0  0  0
M  END
> <PUBCHEM_COMPOUND_CID>
13249

> <PUBCHEM_CONFORMER_RMSD>
0.6

> <PUBCHEM_CONFORMER_DIVERSEORDER>
1
2
5
3
4

> <PUBCHEM_MMFF94_PARTIAL_CHARGES>
18
1 -0.11
10 -0.15
11 0.27
12 0.27
13 0.11
14 -0.15
17 0.15
18 0.27
19 0.15
2 -0.81
20 0.15
27 0.15
3 0.03
4 -0.18
6 0.45
7 -0.15
8 -0.3
9 -0.15

> <PUBCHEM_EFFECTIVE_ROTOR_COUNT>
2

> <PUBCHEM_PHARMACOPHORE_FEATURES>
6
1 1 hydrophobe
1 2 cation
1 3 cation
1 3 donor
5 3 4 5 7 8 rings
6 5 7 9 10 13 14 rings

> <PUBCHEM_HEAVY_ATOM_COUNT>
14

> <PUBCHEM_ATOM_DEF_STEREO_COUNT>
0

> <PUBCHEM_ATOM_UDEF_STEREO_COUNT>
0

> <PUBCHEM_BOND_DEF_STEREO_COUNT>
0

> <PUBCHEM_BOND_UDEF_STEREO_COUNT>
0

> <PUBCHEM_ISOTOPIC_ATOM_COUNT>
0

> <PUBCHEM_COMPONENT_COUNT>
1

> <PUBCHEM_CACTVS_TAUTO_COUNT>
1

> <PUBCHEM_CONFORMER_ID>
000033C100000001

> <PUBCHEM_MMFF94_ENERGY>
29.048

> <PUBCHEM_FEATURE_SELFOVERLAP>
30.537

> <PUBCHEM_SHAPE_FINGERPRINT>
10130415 120 18341609313301958849
11132069 177 18337958986247750272
11769659 78 18341895134854066895
11806522 49 18270118985691083854
12032990 46 18409726253117860214
12382932 28 18334857259392396474
13140716 1 18335975390220495457
13296908 3 18409731755239861734
14178342 30 18114728430542890539
15375462 189 18060418036250277474
16945 1 18337945805051420429
17804303 29 18261387892624864104
17834072 14 18263945270924641173
18175812 5 17894636984660726988
200 152 16200151040946751346
20281475 54 18412258437207972670
20361792 2 17418375809148986500
20559304 39 18192710038306224869
20645477 70 18053108328784213015
20871998 184 18186802499668944015
20871998 22 18337390435398537958
21296965 67 18338801113344115399
21452121 199 18193849132642673337
21501502 16 18338506427195877317
21501925 9 18264494996505050323
21650355 55 18338526329826309824
232386 152 18412536609196544854
23402539 116 18187653556856950797
23463225 33 18411414003471569852
23532345 42 18336272258280763106
23552423 10 18055627326844438453
23559900 14 18263647428270787550
23598291 2 17988629796780814588
2748010 2 18336828585347329693
5493415 88 18409167671346411553
5902787 121 18413109428926770354
7364860 26 18119809114676528000
77492 1 17703782673990133758
8809292 202 18342450426828311795

> <PUBCHEM_SHAPE_MULTIPOLES>
284.09
6.62
2.35
0.86
2.29
0.03
0.21
-4.89
0.68
-1.39
-0.06
0.53
-0.12
-0.14

> <PUBCHEM_SHAPE_SELFOVERLAP>
591.9

> <PUBCHEM_SHAPE_VOLUME>
167.7

> <PUBCHEM_COORDINATE_TYPE>
2
5
10

$$$$

