11405
  -OEChem-06261205383D

 27 27  0     1  0  0  0  0  0999 V2000
    0.7771   -2.2935    0.0820 O   0  0  0  0  0  0  0  0  0  0  0  0
   -3.2175   -0.2397   -0.4491 N   0  0  0  0  0  0  0  0  0  0  0  0
   -1.8914    0.0142    0.1217 C   0  0  1  0  0  0  0  0  0  0  0  0
   -0.8186   -0.1694   -0.9673 C   0  0  0  0  0  0  0  0  0  0  0  0
    0.5917    0.0319   -0.4669 C   0  0  0  0  0  0  0  0  0  0  0  0
   -1.8858    1.4220    0.7179 C   0  0  0  0  0  0  0  0  0  0  0  0
    1.3132   -1.0419    0.0310 C   0  0  0  0  0  0  0  0  0  0  0  0
    1.1399    1.3046   -0.5180 C   0  0  0  0  0  0  0  0  0  0  0  0
   -4.2437   -0.1337    0.5744 C   0  0  0  0  0  0  0  0  0  0  0  0
    2.6148   -0.8386    0.4895 C   0  0  0  0  0  0  0  0  0  0  0  0
    2.4415    1.5079   -0.0595 C   0  0  0  0  0  0  0  0  0  0  0  0
    3.1788    0.4364    0.4443 C   0  0  0  0  0  0  0  0  0  0  0  0
   -1.6953   -0.7066    0.9265 H   0  0  0  0  0  0  0  0  0  0  0  0
   -1.0025    0.5489   -1.7804 H   0  0  0  0  0  0  0  0  0  0  0  0
   -0.9169   -1.1469   -1.4571 H   0  0  0  0  0  0  0  0  0  0  0  0
   -2.5914    1.5367    1.5468 H   0  0  0  0  0  0  0  0  0  0  0  0
   -2.1147    2.1828   -0.0370 H   0  0  0  0  0  0  0  0  0  0  0  0
   -0.9139    1.6662    1.1564 H   0  0  0  0  0  0  0  0  0  0  0  0
   -3.2325   -1.1818   -0.8400 H   0  0  0  0  0  0  0  0  0  0  0  0
    0.5796    2.1469   -0.9136 H   0  0  0  0  0  0  0  0  0  0  0  0
   -5.1703   -0.5719    0.1867 H   0  0  0  0  0  0  0  0  0  0  0  0
   -4.4869    0.9051    0.8160 H   0  0  0  0  0  0  0  0  0  0  0  0
   -3.9895   -0.6823    1.4875 H   0  0  0  0  0  0  0  0  0  0  0  0
    3.1948   -1.6690    0.8830 H   0  0  0  0  0  0  0  0  0  0  0  0
    2.8814    2.5002   -0.0960 H   0  0  0  0  0  0  0  0  0  0  0  0
    4.1924    0.5947    0.8009 H   0  0  0  0  0  0  0  0  0  0  0  0
   -0.1904   -2.2568    0.0310 H   0  0  0  0  0  0  0  0  0  0  0  0
  1  7  1  0  0  0  0
  1 27  1  0  0  0  0
  2  3  1  0  0  0  0
  2  9  1  0  0  0  0
  2 19  1  0  0  0  0
  3  4  1  0  0  0  0
  3  6  1  0  0  0  0
  3 13  1  0  0  0  0
  4  5  1  0  0  0  0
  4 14  1  0  0  0  0
  4 15  1  0  0  0  0
  5  7  1  0  0  0  0
  5  8  2  0  0  0  0
  6 16  1  0  0  0  0
  6 17  1  0  0  0  0
  6 18  1  0  0  0  0
  7 10  2  0  0  0  0
  8 11  1  0  0  0  0
  8 20  1  0  0  0  0
  9 21  1  0  0  0  0
  9 22  1  0  0  0  0
  9 23  1  0  0  0  0
 10 12  1  0  0  0  0
 10 24  1  0  0  0  0
 11 12  2  0  0  0  0
 11 25  1  0  0  0  0
 12 26  1  0  0  0  0
M  END
> <PUBCHEM_COMPOUND_CID>
11405

> <PUBCHEM_CONFORMER_RMSD>
0.6

> <PUBCHEM_CONFORMER_DIVERSEORDER>
2
4
20
19
17
21
1
9
7
10
5
8
14
12
13
11
16
18
6
3
15

> <PUBCHEM_MMFF94_PARTIAL_CHARGES>
17
1 -0.53
10 -0.15
11 -0.15
12 -0.15
19 0.36
2 -0.9
20 0.15
24 0.15
25 0.15
26 0.15
27 0.45
3 0.27
4 0.14
5 -0.14
7 0.08
8 -0.15
9 0.27

> <PUBCHEM_EFFECTIVE_ROTOR_COUNT>
3

> <PUBCHEM_PHARMACOPHORE_FEATURES>
4
1 1 donor
1 2 cation
1 2 donor
6 5 7 8 10 11 12 rings

> <PUBCHEM_HEAVY_ATOM_COUNT>
12

> <PUBCHEM_ATOM_DEF_STEREO_COUNT>
0

> <PUBCHEM_ATOM_UDEF_STEREO_COUNT>
1

> <PUBCHEM_BOND_DEF_STEREO_COUNT>
0

> <PUBCHEM_BOND_UDEF_STEREO_COUNT>
0

> <PUBCHEM_ISOTOPIC_ATOM_COUNT>
0

> <PUBCHEM_COMPONENT_COUNT>
1

> <PUBCHEM_CACTVS_TAUTO_COUNT>
3

> <PUBCHEM_CONFORMER_ID>
00002C8D00000002

> <PUBCHEM_MMFF94_ENERGY>
26.3236

> <PUBCHEM_FEATURE_SELFOVERLAP>
20.297

> <PUBCHEM_SHAPE_FINGERPRINT>
10219947 1 18272936011637980468
11471102 22 18273492386017538272
12251169 10 18342742901063046394
12932764 1 17313115167333755965
14251717 144 18412832369472014519
15501101 241 18202565102765124988
15775835 57 17967532337475722097
16945 1 18409738369515761054
200 152 18262816124270481869
20201158 50 18202282515587141355
20559304 39 18334290989524402224
20645477 70 18340778134420506047
20871998 22 18120374525936392846
21730867 7 18272932717339925117
22802520 49 4894454497627720296
23402539 116 14851611002530325352
2748010 2 17980786018857830030
276578 36 18260825977663648074
581208 293 18413393111500807855
7364860 26 18041836336927695286

> <PUBCHEM_SHAPE_MULTIPOLES>
236.1
5.86
1.63
0.85
4.82
0.3
-0.04
-0.37
1.32
-0.85
0.11
0.15
-0.06
-0.32

> <PUBCHEM_SHAPE_SELFOVERLAP>
477.483

> <PUBCHEM_SHAPE_VOLUME>
138.8

> <PUBCHEM_COORDINATE_TYPE>
2
5
10

$$$$

