5282007
  -OEChem-07051213023D

 86 89  0     1  0  0  0  0  0999 V2000
   -3.3322    1.6047   -0.3407 O   0  0  0  0  0  0  0  0  0  0  0  0
   -3.1856   -0.1331    1.3079 O   0  0  0  0  0  0  0  0  0  0  0  0
    0.7652    1.0353    0.8421 O   0  0  0  0  0  0  0  0  0  0  0  0
    3.5988    0.7497   -1.4647 O   0  0  0  0  0  0  0  0  0  0  0  0
    1.0732    2.5516   -0.8671 O   0  0  0  0  0  0  0  0  0  0  0  0
   -0.7991   -5.2627   -1.7534 O   0  0  0  0  0  0  0  0  0  0  0  0
    6.8874    2.4847   -0.6270 O   0  0  0  0  0  0  0  0  0  0  0  0
   -3.0124    1.2656    1.0229 C   0  0  1  0  0  0  0  0  0  0  0  0
   -1.5453    1.6669    1.2600 C   0  0  0  0  0  0  0  0  0  0  0  0
   -0.5973    0.7823    0.4513 C   0  0  2  0  0  0  0  0  0  0  0  0
   -4.7360    1.5620   -0.6256 C   0  0  1  0  0  0  0  0  0  0  0  0
   -2.3673   -1.0009    0.5112 C   0  0  1  0  0  0  0  0  0  0  0  0
   -0.8905   -0.6842    0.7438 C   0  0  0  0  0  0  0  0  0  0  0  0
   -5.4407    2.6919    0.1536 C   0  0  2  0  0  0  0  0  0  0  0  0
   -3.8952    2.0229    1.9859 C   0  0  0  0  0  0  0  0  0  0  0  0
   -4.8858    1.7109   -2.1358 C   0  0  0  0  0  0  0  0  0  0  0  0
   -4.9871    2.6902    1.5901 C   0  0  0  0  0  0  0  0  0  0  0  0
   -2.7134   -2.4472    0.9012 C   0  0  0  0  0  0  0  0  0  0  0  0
   -6.9631    2.5669    0.0771 C   0  0  0  0  0  0  0  0  0  0  0  0
    2.9397    1.9103    0.5785 C   0  0  2  0  0  0  0  0  0  0  0  0
    3.7618    0.7389   -0.0325 C   0  0  2  0  0  0  0  0  0  0  0  0
   -4.3144    3.0478   -2.6049 C   0  0  0  0  0  0  0  0  0  0  0  0
   -4.2031    0.5528   -2.8620 C   0  0  0  0  0  0  0  0  0  0  0  0
    1.4934    1.9058    0.0841 C   0  0  0  0  0  0  0  0  0  0  0  0
   -1.9457   -3.4591    0.0931 C   0  0  0  0  0  0  0  0  0  0  0  0
    5.2605    0.9595    0.2412 C   0  0  0  0  0  0  0  0  0  0  0  0
    3.5389    3.2623    0.2794 C   0  0  0  0  0  0  0  0  0  0  0  0
    3.3279   -0.6511    0.4970 C   0  0  0  0  0  0  0  0  0  0  0  0
   -1.0816   -4.3963    0.5365 C   0  0  0  0  0  0  0  0  0  0  0  0
    4.8006    3.4801   -0.1209 C   0  0  0  0  0  0  0  0  0  0  0  0
    5.7348    2.3222   -0.2271 C   0  0  0  0  0  0  0  0  0  0  0  0
   -0.3164   -5.3255   -0.4101 C   0  0  2  0  0  0  0  0  0  0  0  0
    1.2255   -5.1368   -0.3627 C   0  0  2  0  0  0  0  0  0  0  0  0
    2.7340   -1.5735   -0.2946 C   0  0  0  0  0  0  0  0  0  0  0  0
    3.6158   -0.9199    1.9595 C   0  0  0  0  0  0  0  0  0  0  0  0
   -0.7939   -4.6285    1.9991 C   0  0  0  0  0  0  0  0  0  0  0  0
    5.3403    4.8395   -0.4360 C   0  0  0  0  0  0  0  0  0  0  0  0
    1.6523   -3.7344   -0.7444 C   0  0  0  0  0  0  0  0  0  0  0  0
    2.3252   -2.9142    0.0796 C   0  0  0  0  0  0  0  0  0  0  0  0
    1.9309   -6.1378   -1.2856 C   0  0  0  0  0  0  0  0  0  0  0  0
   -1.2842    1.5723    2.3232 H   0  0  0  0  0  0  0  0  0  0  0  0
   -1.3749    2.7168    0.9887 H   0  0  0  0  0  0  0  0  0  0  0  0
   -0.7282    0.9602   -0.6237 H   0  0  0  0  0  0  0  0  0  0  0  0
   -5.1312    0.5821   -0.3233 H   0  0  0  0  0  0  0  0  0  0  0  0
   -2.6213   -0.8512   -0.5456 H   0  0  0  0  0  0  0  0  0  0  0  0
   -0.6134   -0.9058    1.7833 H   0  0  0  0  0  0  0  0  0  0  0  0
   -0.2500   -1.3081    0.1136 H   0  0  0  0  0  0  0  0  0  0  0  0
   -5.1545    3.6792   -0.2233 H   0  0  0  0  0  0  0  0  0  0  0  0
   -3.6278    2.0276    3.0392 H   0  0  0  0  0  0  0  0  0  0  0  0
   -5.9471    1.6759   -2.4076 H   0  0  0  0  0  0  0  0  0  0  0  0
   -5.5623    3.2491    2.3226 H   0  0  0  0  0  0  0  0  0  0  0  0
   -3.7857   -2.6125    0.7352 H   0  0  0  0  0  0  0  0  0  0  0  0
   -2.5716   -2.5657    1.9794 H   0  0  0  0  0  0  0  0  0  0  0  0
   -7.3231    2.6978   -0.9477 H   0  0  0  0  0  0  0  0  0  0  0  0
   -7.3027    1.5885    0.4353 H   0  0  0  0  0  0  0  0  0  0  0  0
   -7.4520    3.3332    0.6896 H   0  0  0  0  0  0  0  0  0  0  0  0
    2.9066    1.8487    1.6735 H   0  0  0  0  0  0  0  0  0  0  0  0
   -4.9317    3.8935   -2.2894 H   0  0  0  0  0  0  0  0  0  0  0  0
   -4.2928    3.0833   -3.7007 H   0  0  0  0  0  0  0  0  0  0  0  0
   -3.2892    3.2136   -2.2585 H   0  0  0  0  0  0  0  0  0  0  0  0
   -4.5903   -0.4105   -2.5134 H   0  0  0  0  0  0  0  0  0  0  0  0
   -4.3879    0.6130   -3.9401 H   0  0  0  0  0  0  0  0  0  0  0  0
   -3.1182    0.5588   -2.7126 H   0  0  0  0  0  0  0  0  0  0  0  0
   -2.1090   -3.3694   -0.9793 H   0  0  0  0  0  0  0  0  0  0  0  0
    5.8553    0.2080   -0.2940 H   0  0  0  0  0  0  0  0  0  0  0  0
    5.5018    0.8915    1.3082 H   0  0  0  0  0  0  0  0  0  0  0  0
    2.8859    4.1236    0.4111 H   0  0  0  0  0  0  0  0  0  0  0  0
   -0.5404   -6.3487   -0.0772 H   0  0  0  0  0  0  0  0  0  0  0  0
    4.2542    0.1453   -1.8536 H   0  0  0  0  0  0  0  0  0  0  0  0
    1.5640   -5.3521    0.6596 H   0  0  0  0  0  0  0  0  0  0  0  0
    2.5196   -1.3252   -1.3317 H   0  0  0  0  0  0  0  0  0  0  0  0
    3.5279   -0.0128    2.5632 H   0  0  0  0  0  0  0  0  0  0  0  0
    4.6329   -1.3072    2.0774 H   0  0  0  0  0  0  0  0  0  0  0  0
    2.9179   -1.6338    2.4054 H   0  0  0  0  0  0  0  0  0  0  0  0
   -1.5755   -4.2472    2.6596 H   0  0  0  0  0  0  0  0  0  0  0  0
    0.1526   -4.1577    2.2820 H   0  0  0  0  0  0  0  0  0  0  0  0
   -0.7205   -5.7016    2.2074 H   0  0  0  0  0  0  0  0  0  0  0  0
    5.6823    4.8828   -1.4753 H   0  0  0  0  0  0  0  0  0  0  0  0
    6.1846    5.0779    0.2190 H   0  0  0  0  0  0  0  0  0  0  0  0
    4.5854    5.6216   -0.3023 H   0  0  0  0  0  0  0  0  0  0  0  0
    1.3857   -3.3966   -1.7440 H   0  0  0  0  0  0  0  0  0  0  0  0
    2.5828   -3.2737    1.0702 H   0  0  0  0  0  0  0  0  0  0  0  0
    1.6214   -7.1629   -1.0552 H   0  0  0  0  0  0  0  0  0  0  0  0
    1.7196   -5.9466   -2.3434 H   0  0  0  0  0  0  0  0  0  0  0  0
    3.0178   -6.0836   -1.1540 H   0  0  0  0  0  0  0  0  0  0  0  0
   -0.5251   -6.0772   -2.2076 H   0  0  0  0  0  0  0  0  0  0  0  0
  1  8  1  0  0  0  0
  1 11  1  0  0  0  0
  2  8  1  0  0  0  0
  2 12  1  0  0  0  0
  3 10  1  0  0  0  0
  3 24  1  0  0  0  0
  4 21  1  0  0  0  0
  4 69  1  0  0  0  0
  5 24  2  0  0  0  0
  6 32  1  0  0  0  0
  6 86  1  0  0  0  0
  7 31  2  0  0  0  0
  8  9  1  0  0  0  0
  8 15  1  0  0  0  0
  9 10  1  0  0  0  0
  9 41  1  0  0  0  0
  9 42  1  0  0  0  0
 10 13  1  0  0  0  0
 10 43  1  0  0  0  0
 11 14  1  0  0  0  0
 11 16  1  0  0  0  0
 11 44  1  0  0  0  0
 12 13  1  0  0  0  0
 12 18  1  0  0  0  0
 12 45  1  0  0  0  0
 13 46  1  0  0  0  0
 13 47  1  0  0  0  0
 14 17  1  0  0  0  0
 14 19  1  0  0  0  0
 14 48  1  0  0  0  0
 15 17  2  0  0  0  0
 15 49  1  0  0  0  0
 16 22  1  0  0  0  0
 16 23  1  0  0  0  0
 16 50  1  0  0  0  0
 17 51  1  0  0  0  0
 18 25  1  0  0  0  0
 18 52  1  0  0  0  0
 18 53  1  0  0  0  0
 19 54  1  0  0  0  0
 19 55  1  0  0  0  0
 19 56  1  0  0  0  0
 20 21  1  0  0  0  0
 20 24  1  0  0  0  0
 20 27  1  0  0  0  0
 20 57  1  0  0  0  0
 21 26  1  0  0  0  0
 21 28  1  0  0  0  0
 22 58  1  0  0  0  0
 22 59  1  0  0  0  0
 22 60  1  0  0  0  0
 23 61  1  0  0  0  0
 23 62  1  0  0  0  0
 23 63  1  0  0  0  0
 25 29  2  0  0  0  0
 25 64  1  0  0  0  0
 26 31  1  0  0  0  0
 26 65  1  0  0  0  0
 26 66  1  0  0  0  0
 27 30  2  0  0  0  0
 27 67  1  0  0  0  0
 28 34  2  0  0  0  0
 28 35  1  0  0  0  0
 29 32  1  0  0  0  0
 29 36  1  0  0  0  0
 30 31  1  0  0  0  0
 30 37  1  0  0  0  0
 32 33  1  0  0  0  0
 32 68  1  0  0  0  0
 33 38  1  0  0  0  0
 33 40  1  0  0  0  0
 33 70  1  0  0  0  0
 34 39  1  0  0  0  0
 34 71  1  0  0  0  0
 35 72  1  0  0  0  0
 35 73  1  0  0  0  0
 35 74  1  0  0  0  0
 36 75  1  0  0  0  0
 36 76  1  0  0  0  0
 36 77  1  0  0  0  0
 37 78  1  0  0  0  0
 37 79  1  0  0  0  0
 37 80  1  0  0  0  0
 38 39  2  0  0  0  0
 38 81  1  0  0  0  0
 39 82  1  0  0  0  0
 40 83  1  0  0  0  0
 40 84  1  0  0  0  0
 40 85  1  0  0  0  0
M  END
> <PUBCHEM_COMPOUND_CID>
5282007

> <PUBCHEM_CONFORMER_RMSD>
0.8

> <PUBCHEM_CONFORMER_DIVERSEORDER>
1

> <PUBCHEM_MMFF94_PARTIAL_CHARGES>
42
1 -0.56
10 0.28
11 0.28
12 0.28
14 0.14
15 -0.29
17 -0.29
18 0.14
2 -0.56
20 0.2
21 0.42
24 0.66
25 -0.29
26 0.06
27 -0.29
28 -0.28
29 -0.28
3 -0.43
30 -0.12
31 0.49
32 0.42
33 0.14
34 -0.15
35 0.14
36 0.14
37 0.14
38 -0.29
39 -0.15
4 -0.68
49 0.15
5 -0.57
51 0.15
6 -0.68
64 0.15
67 0.15
69 0.4
7 -0.57
71 0.15
8 0.7
81 0.15
82 0.15
86 0.4

> <PUBCHEM_EFFECTIVE_ROTOR_COUNT>
3.2

> <PUBCHEM_PHARMACOPHORE_FEATURES>
12
1 1 acceptor
1 2 acceptor
1 4 acceptor
1 4 donor
1 5 acceptor
1 6 acceptor
1 6 donor
1 7 acceptor
3 16 22 23 hydrophobe
6 1 8 11 14 15 17 rings
6 2 8 9 10 12 13 rings
6 20 21 26 27 30 31 rings

> <PUBCHEM_HEAVY_ATOM_COUNT>
40

> <PUBCHEM_ATOM_DEF_STEREO_COUNT>
9

> <PUBCHEM_ATOM_UDEF_STEREO_COUNT>
0

> <PUBCHEM_BOND_DEF_STEREO_COUNT>
3

> <PUBCHEM_BOND_UDEF_STEREO_COUNT>
0

> <PUBCHEM_ISOTOPIC_ATOM_COUNT>
0

> <PUBCHEM_COMPONENT_COUNT>
1

> <PUBCHEM_CACTVS_TAUTO_COUNT>
7

> <PUBCHEM_CONFORMER_ID>
005098D700000001

> <PUBCHEM_MMFF94_ENERGY>
82.705

> <PUBCHEM_FEATURE_SELFOVERLAP>
60.927

> <PUBCHEM_SHAPE_FINGERPRINT>
10290309 65 18336249168098925115
10319688 45 17471852507033649354
10675989 125 18266174122480657497
11135609 187 18409735088541087825
11135926 11 18338228366902789808
11285246 1 17830207656589246559
11434127 23 17898279516407823012
12106331 60 17550953590450870242
12788726 201 18121229683810592659
1361 2 18192993939966143643
14068700 675 17248086944543671314
14117953 113 18266180720135778314
14394314 77 17184456621637363579
14415360 78 18412258476042345126
15274700 147 16332141574701325052
15400415 2 18336820918451541512
15439362 3 18266455602195485913
15484559 13 18265326386283740622
16628084 112 18196102053364851315
16993438 75 18195807358325017554
19311894 1 17399510123027821554
20580484 21 17617649304236423985
21033648 144 18272937115508463725
21033648 29 17274823610188465293
23559900 14 18265610073115861082
3882209 13 16903580328929241514
4058900 60 18409732859020038022
4403749 210 18266181617974243952
504843 32 18339922589529562892
5309563 4 17472975584989157994
6036956 94 17981039717616529053
6669772 16 18338232769196646087
6898599 12 18196649592880162396

> <PUBCHEM_SHAPE_MULTIPOLES>
782.1
13.41
8.91
1.89
2.74
14.4
-0.69
-21.49
-2.25
-6.33
-2.16
2.67
-0.07
0.51

> <PUBCHEM_SHAPE_SELFOVERLAP>
1631.058

> <PUBCHEM_SHAPE_VOLUME>
438.1

> <PUBCHEM_COORDINATE_TYPE>
2
5
10

$$$$

