439310
  -OEChem-07051212453D

 35 37  0     1  0  0  0  0  0999 V2000
    1.8855    1.4877   -1.1575 O   0  0  0  0  0  0  0  0  0  0  0  0
    0.3078   -1.1618    1.5565 O   0  0  0  0  0  0  0  0  0  0  0  0
   -2.0904    2.2346    1.4990 O   0  0  0  0  0  0  0  0  0  0  0  0
   -5.5714   -0.5457   -0.1942 O   0  0  0  0  0  0  0  0  0  0  0  0
    6.2400   -0.2775   -0.5223 O   0  0  0  0  0  0  0  0  0  0  0  0
   -0.0648    0.7490    0.1143 C   0  0  1  0  0  0  0  0  0  0  0  0
    0.5222    1.0635   -1.2620 C   0  0  0  0  0  0  0  0  0  0  0  0
   -1.5396    0.4142    0.0403 C   0  0  0  0  0  0  0  0  0  0  0  0
    0.7580   -0.3591    0.7470 C   0  0  0  0  0  0  0  0  0  0  0  0
    2.1924   -0.3769    0.3849 C   0  0  0  0  0  0  0  0  0  0  0  0
    2.6782    0.5608   -0.5315 C   0  0  0  0  0  0  0  0  0  0  0  0
   -2.4795    1.1747    0.7364 C   0  0  0  0  0  0  0  0  0  0  0  0
   -1.9554   -0.6687   -0.7349 C   0  0  0  0  0  0  0  0  0  0  0  0
    3.0618   -1.2937    0.9823 C   0  0  0  0  0  0  0  0  0  0  0  0
    4.0424    0.6032   -0.8242 C   0  0  0  0  0  0  0  0  0  0  0  0
   -3.8344    0.8524    0.6576 C   0  0  0  0  0  0  0  0  0  0  0  0
   -3.3101   -0.9909   -0.8137 C   0  0  0  0  0  0  0  0  0  0  0  0
   -4.2497   -0.2304   -0.1175 C   0  0  0  0  0  0  0  0  0  0  0  0
    4.4214   -1.2594    0.6703 C   0  0  0  0  0  0  0  0  0  0  0  0
    4.9115   -0.3101   -0.2270 C   0  0  0  0  0  0  0  0  0  0  0  0
   -5.9260   -1.6657   -1.0039 C   0  0  0  0  0  0  0  0  0  0  0  0
    0.0994    1.6212    0.7609 H   0  0  0  0  0  0  0  0  0  0  0  0
    0.4731    0.2131   -1.9552 H   0  0  0  0  0  0  0  0  0  0  0  0
   -0.0326    1.8855   -1.7295 H   0  0  0  0  0  0  0  0  0  0  0  0
   -1.2391   -1.2790   -1.2782 H   0  0  0  0  0  0  0  0  0  0  0  0
    2.7038   -2.0304    1.6959 H   0  0  0  0  0  0  0  0  0  0  0  0
    4.4281    1.3398   -1.5248 H   0  0  0  0  0  0  0  0  0  0  0  0
   -4.5729    1.4400    1.1976 H   0  0  0  0  0  0  0  0  0  0  0  0
   -3.5632   -1.8454   -1.4319 H   0  0  0  0  0  0  0  0  0  0  0  0
    5.0912   -1.9746    1.1405 H   0  0  0  0  0  0  0  0  0  0  0  0
   -2.8761    2.6393    1.9049 H   0  0  0  0  0  0  0  0  0  0  0  0
    6.6916   -0.9786   -0.0217 H   0  0  0  0  0  0  0  0  0  0  0  0
   -5.4950   -2.5950   -0.6164 H   0  0  0  0  0  0  0  0  0  0  0  0
   -5.6728   -1.4977   -2.0563 H   0  0  0  0  0  0  0  0  0  0  0  0
   -7.0144   -1.7716   -0.9502 H   0  0  0  0  0  0  0  0  0  0  0  0
  1  7  1  0  0  0  0
  1 11  1  0  0  0  0
  2  9  2  0  0  0  0
  3 12  1  0  0  0  0
  3 31  1  0  0  0  0
  4 18  1  0  0  0  0
  4 21  1  0  0  0  0
  5 20  1  0  0  0  0
  5 32  1  0  0  0  0
  6  7  1  0  0  0  0
  6  8  1  0  0  0  0
  6  9  1  0  0  0  0
  6 22  1  0  0  0  0
  7 23  1  0  0  0  0
  7 24  1  0  0  0  0
  8 12  2  0  0  0  0
  8 13  1  0  0  0  0
  9 10  1  0  0  0  0
 10 11  2  0  0  0  0
 10 14  1  0  0  0  0
 11 15  1  0  0  0  0
 12 16  1  0  0  0  0
 13 17  2  0  0  0  0
 13 25  1  0  0  0  0
 14 19  2  0  0  0  0
 14 26  1  0  0  0  0
 15 20  2  0  0  0  0
 15 27  1  0  0  0  0
 16 18  2  0  0  0  0
 16 28  1  0  0  0  0
 17 18  1  0  0  0  0
 17 29  1  0  0  0  0
 19 20  1  0  0  0  0
 19 30  1  0  0  0  0
 21 33  1  0  0  0  0
 21 34  1  0  0  0  0
 21 35  1  0  0  0  0
M  END
> <PUBCHEM_COMPOUND_CID>
439310

> <PUBCHEM_CONFORMER_RMSD>
0.6

> <PUBCHEM_CONFORMER_DIVERSEORDER>
1
8
6
11
10
5
7
3
4
2
9

> <PUBCHEM_MMFF94_PARTIAL_CHARGES>
29
1 -0.36
10 0.09
11 0.08
12 0.08
13 -0.15
14 -0.15
15 -0.15
16 -0.15
17 -0.15
18 0.08
19 -0.15
2 -0.57
20 0.08
21 0.28
25 0.15
26 0.15
27 0.15
28 0.15
29 0.15
3 -0.53
30 0.15
31 0.45
32 0.45
4 -0.36
5 -0.53
6 0.2
7 0.28
8 -0.14
9 0.42

> <PUBCHEM_EFFECTIVE_ROTOR_COUNT>
2.6

> <PUBCHEM_PHARMACOPHORE_FEATURES>
8
1 1 acceptor
1 2 acceptor
1 3 donor
1 4 acceptor
1 5 donor
6 1 6 7 9 10 11 rings
6 10 11 14 15 19 20 rings
6 8 12 13 16 17 18 rings

> <PUBCHEM_HEAVY_ATOM_COUNT>
21

> <PUBCHEM_ATOM_DEF_STEREO_COUNT>
1

> <PUBCHEM_ATOM_UDEF_STEREO_COUNT>
0

> <PUBCHEM_BOND_DEF_STEREO_COUNT>
0

> <PUBCHEM_BOND_UDEF_STEREO_COUNT>
0

> <PUBCHEM_ISOTOPIC_ATOM_COUNT>
0

> <PUBCHEM_COMPONENT_COUNT>
1

> <PUBCHEM_CACTVS_TAUTO_COUNT>
51

> <PUBCHEM_CONFORMER_ID>
0006B40E00000001

> <PUBCHEM_MMFF94_ENERGY>
70.0208

> <PUBCHEM_FEATURE_SELFOVERLAP>
40.624

> <PUBCHEM_SHAPE_FINGERPRINT>
11471102 20 17632856425983081260
11578080 2 18196402331571077789
11963148 33 17968106287342601863
12011746 2 16343704330792906566
12107183 9 17543062833010122386
12236239 1 18411417315123509029
12596602 18 18333170565948756096
12633257 1 15213587741371554295
12670546 56 18407478860083188312
13288520 33 18113054935327431045
13760787 5 17560791161149491004
13862211 1 17846222198182865434
13911987 19 16845276251355152982
14386348 63 15841546379455539977
14576447 43 18343025479851808658
15183329 4 17845668035806105741
17349148 13 18413668019530655763
17357779 13 16774083981004143388
17834072 33 18412263930228395172
17862501 102 18409165527989055744
1813 80 18130215073363115150
18222031 100 18273220806845859536
18681886 176 18335425629926828752
200 152 18273497875339196185
20028762 73 18342185517857739922
20612939 158 17774716476939865804
20645477 70 17203336658194733010
21033650 10 17899384710514408984
21267235 1 18335134268125508071
21285901 2 16415210013075668358
21641784 216 16629667587647078308
221357 26 17418104217139905357
22646028 1 18411138047533135089
2297311 6 17530959193967903633
23402539 116 18113620097157692765
23557571 272 17095796702498858505
23559900 14 18261682458456398905
23569943 247 18053097613089197642
2871803 45 17203332242862447950
29717793 49 18411138043522978959
3004659 81 18340494382957926631
34797466 226 17168417169993328948
465052 167 17603585175572544239
474 4 18127126369028775332
5104073 3 17822569400866420915
602551 16 17385731265839067830
7495541 125 17168146697873134529
77492 1 18411975879968256961
9981440 41 17331399770837203816

> <PUBCHEM_SHAPE_MULTIPOLES>
402.82
12.3
1.56
1.23
1
0.21
-0.1
-4.67
2.39
0.8
-0.2
0.07
0.12
-1.83

> <PUBCHEM_SHAPE_SELFOVERLAP>
888.21

> <PUBCHEM_SHAPE_VOLUME>
215.6

> <PUBCHEM_COORDINATE_TYPE>
2
5
10

$$$$

