2796
  -OEChem-07051212523D

 31 31  0     0  0  0  0  0  0999 V2000
   -4.6629   -1.4162   -0.5732 Cl  0  0  0  0  0  0  0  0  0  0  0  0
    0.3630    1.1349    1.0716 O   0  0  0  0  0  0  0  0  0  0  0  0
    2.3315   -0.6985    0.1791 O   0  0  0  0  0  0  0  0  0  0  0  0
    1.5257   -0.0414   -1.8758 O   0  0  0  0  0  0  0  0  0  0  0  0
    1.2946    1.4385    0.0422 C   0  0  0  0  0  0  0  0  0  0  0  0
    0.6334    2.4171   -0.9271 C   0  0  0  0  0  0  0  0  0  0  0  0
    2.5275    2.0614    0.6894 C   0  0  0  0  0  0  0  0  0  0  0  0
    1.7070    0.1590   -0.6806 C   0  0  0  0  0  0  0  0  0  0  0  0
   -0.8103    0.5392    0.6879 C   0  0  0  0  0  0  0  0  0  0  0  0
    2.7999   -1.9216   -0.3979 C   0  0  0  0  0  0  0  0  0  0  0  0
   -0.8919   -0.8473    0.6334 C   0  0  0  0  0  0  0  0  0  0  0  0
   -1.9057    1.3281    0.3566 C   0  0  0  0  0  0  0  0  0  0  0  0
   -2.0857   -1.4534    0.2419 C   0  0  0  0  0  0  0  0  0  0  0  0
   -3.0994    0.7220   -0.0349 C   0  0  0  0  0  0  0  0  0  0  0  0
    3.4628   -2.7530    0.6795 C   0  0  0  0  0  0  0  0  0  0  0  0
   -3.1894   -0.6688   -0.0922 C   0  0  0  0  0  0  0  0  0  0  0  0
    1.3728    2.8105   -1.6355 H   0  0  0  0  0  0  0  0  0  0  0  0
   -0.1500    1.9584   -1.5395 H   0  0  0  0  0  0  0  0  0  0  0  0
    0.1971    3.2727   -0.3995 H   0  0  0  0  0  0  0  0  0  0  0  0
    3.3203    2.2458   -0.0434 H   0  0  0  0  0  0  0  0  0  0  0  0
    2.2728    3.0126    1.1711 H   0  0  0  0  0  0  0  0  0  0  0  0
    2.9355    1.4212    1.4802 H   0  0  0  0  0  0  0  0  0  0  0  0
    1.9535   -2.4727   -0.8229 H   0  0  0  0  0  0  0  0  0  0  0  0
    3.5231   -1.6978   -1.1901 H   0  0  0  0  0  0  0  0  0  0  0  0
   -0.0519   -1.4728    0.9174 H   0  0  0  0  0  0  0  0  0  0  0  0
   -1.8578    2.4110    0.4203 H   0  0  0  0  0  0  0  0  0  0  0  0
   -2.1432   -2.5384    0.2079 H   0  0  0  0  0  0  0  0  0  0  0  0
   -3.9531    1.3459   -0.2870 H   0  0  0  0  0  0  0  0  0  0  0  0
    3.8338   -3.6976    0.2721 H   0  0  0  0  0  0  0  0  0  0  0  0
    4.2999   -2.2072    1.1269 H   0  0  0  0  0  0  0  0  0  0  0  0
    2.7563   -2.9695    1.4876 H   0  0  0  0  0  0  0  0  0  0  0  0
  1 16  1  0  0  0  0
  2  5  1  0  0  0  0
  2  9  1  0  0  0  0
  3  8  1  0  0  0  0
  3 10  1  0  0  0  0
  4  8  2  0  0  0  0
  5  6  1  0  0  0  0
  5  7  1  0  0  0  0
  5  8  1  0  0  0  0
  6 17  1  0  0  0  0
  6 18  1  0  0  0  0
  6 19  1  0  0  0  0
  7 20  1  0  0  0  0
  7 21  1  0  0  0  0
  7 22  1  0  0  0  0
  9 11  2  0  0  0  0
  9 12  1  0  0  0  0
 10 15  1  0  0  0  0
 10 23  1  0  0  0  0
 10 24  1  0  0  0  0
 11 13  1  0  0  0  0
 11 25  1  0  0  0  0
 12 14  2  0  0  0  0
 12 26  1  0  0  0  0
 13 16  2  0  0  0  0
 13 27  1  0  0  0  0
 14 16  1  0  0  0  0
 14 28  1  0  0  0  0
 15 29  1  0  0  0  0
 15 30  1  0  0  0  0
 15 31  1  0  0  0  0
M  END
> <PUBCHEM_COMPOUND_CID>
2796

> <PUBCHEM_CONFORMER_RMSD>
0.6

> <PUBCHEM_CONFORMER_DIVERSEORDER>
1
15
60
75
71
84
7
38
33
81
41
42
65
37
55
59
35
73
50
22
80
70
30
58
74
72
20
19
82
51
9
77
25
45
54
14
62
29
32
64
3
24
46
31
52
57
69
17
5
2
36
83
53
6
16
49
34
48
10
63
66
11
39
78
13
23
61
8
67
27
18
76
44
12
21
68
43
79
56
47
26
28
40
4

> <PUBCHEM_MMFF94_PARTIAL_CHARGES>
17
1 -0.18
10 0.28
11 -0.15
12 -0.15
13 -0.15
14 -0.15
16 0.18
2 -0.36
25 0.15
26 0.15
27 0.15
28 0.15
3 -0.43
4 -0.57
5 0.34
8 0.66
9 0.08

> <PUBCHEM_EFFECTIVE_ROTOR_COUNT>
5

> <PUBCHEM_PHARMACOPHORE_FEATURES>
4
1 2 acceptor
1 4 acceptor
3 5 6 7 hydrophobe
6 9 11 12 13 14 16 rings

> <PUBCHEM_HEAVY_ATOM_COUNT>
16

> <PUBCHEM_ATOM_DEF_STEREO_COUNT>
0

> <PUBCHEM_ATOM_UDEF_STEREO_COUNT>
0

> <PUBCHEM_BOND_DEF_STEREO_COUNT>
0

> <PUBCHEM_BOND_UDEF_STEREO_COUNT>
0

> <PUBCHEM_ISOTOPIC_ATOM_COUNT>
0

> <PUBCHEM_COMPONENT_COUNT>
1

> <PUBCHEM_CACTVS_TAUTO_COUNT>
1

> <PUBCHEM_CONFORMER_ID>
00000AEC00000001

> <PUBCHEM_MMFF94_ENERGY>
49.7374

> <PUBCHEM_FEATURE_SELFOVERLAP>
20.297

> <PUBCHEM_SHAPE_FINGERPRINT>
10062212 137 18268710696153979267
11578080 2 17773891976732480100
11769659 78 18334859432972869803
12808571 1 9727335914724209488
13083527 12 18342471361026037000
15852999 172 17986113998228033778
16945 1 18197485234591215201
17834072 14 18263656202303508202
18186145 218 18411132516301027773
20201158 50 18264768749230828601
20645477 70 18187079504064929263
20671657 53 18411982502507121086
21452121 199 18334303062640372905
21452121 71 18339070601404797514
21501502 16 18261103076285170025
22802520 49 18201428135017593969
232386 152 18265042708057105870
23419403 2 17681028310797177448
23532345 88 18410297964973162887
23552423 10 18267856199324785601
23559900 14 18339648832271447008
257057 1 18267024040889907178
2748010 2 18413103952927909497
3286 77 18412267250581188567
6338986 31 18267583683697535010
7364860 26 18335985277002946304
76465 3 18261683631357211831
9709674 26 18340206284983584899

> <PUBCHEM_SHAPE_MULTIPOLES>
313.53
6.48
2.75
1.07
4.46
0.4
-0.27
4.28
-0.48
-2.51
0.15
-0.4
-0.13
-0.34

> <PUBCHEM_SHAPE_SELFOVERLAP>
634.313

> <PUBCHEM_SHAPE_VOLUME>
185.1

> <PUBCHEM_COORDINATE_TYPE>
2
5
10

$$$$

