443155
  -OEChem-07051213013D

 44 47  0     1  0  0  0  0  0999 V2000
    0.1264    1.6451    2.3630 O   0  0  0  0  0  0  0  0  0  0  0  0
   -1.2522    0.5490   -0.9358 N   0  0  1  0  0  0  0  0  0  0  0  0
    3.7471    1.0469   -0.9222 N   0  0  0  0  0  0  0  0  0  0  0  0
   -3.5248    0.5658    0.3254 C   0  0  2  0  0  0  0  0  0  0  0  0
   -1.1232    1.3258    0.3258 C   0  0  1  0  0  0  0  0  0  0  0  0
   -2.4566    1.3547    1.1078 C   0  0  0  0  0  0  0  0  0  0  0  0
   -2.9855   -0.8768    0.1802 C   0  0  2  0  0  0  0  0  0  0  0  0
   -3.6514    1.2264   -1.0599 C   0  0  0  0  0  0  0  0  0  0  0  0
   -1.6971   -0.8401   -0.6704 C   0  0  0  0  0  0  0  0  0  0  0  0
   -2.2896    1.1978   -1.7718 C   0  0  0  0  0  0  0  0  0  0  0  0
    0.0361    0.8341    1.1959 C   0  0  1  0  0  0  0  0  0  0  0  0
   -4.0046   -1.8150   -0.3934 C   0  0  0  0  0  0  0  0  0  0  0  0
    1.3487    0.8718    0.4547 C   0  0  0  0  0  0  0  0  0  0  0  0
    2.1196   -0.2757    0.2649 C   0  0  0  0  0  0  0  0  0  0  0  0
   -4.5014   -2.9007    0.2117 C   0  0  0  0  0  0  0  0  0  0  0  0
    1.7628    2.0967   -0.0338 C   0  0  0  0  0  0  0  0  0  0  0  0
    3.3331   -0.1407   -0.4414 C   0  0  0  0  0  0  0  0  0  0  0  0
    1.7181   -1.5309    0.7526 C   0  0  0  0  0  0  0  0  0  0  0  0
    2.9642    2.1300   -0.7121 C   0  0  0  0  0  0  0  0  0  0  0  0
    4.1083   -1.2808   -0.6351 C   0  0  0  0  0  0  0  0  0  0  0  0
    2.5128   -2.6545    0.5443 C   0  0  0  0  0  0  0  0  0  0  0  0
    3.7094   -2.5289   -0.1503 C   0  0  0  0  0  0  0  0  0  0  0  0
   -4.4826    0.5884    0.8570 H   0  0  0  0  0  0  0  0  0  0  0  0
   -0.9214    2.3721    0.0569 H   0  0  0  0  0  0  0  0  0  0  0  0
   -2.7882    2.3922    1.2407 H   0  0  0  0  0  0  0  0  0  0  0  0
   -2.3679    0.9176    2.1083 H   0  0  0  0  0  0  0  0  0  0  0  0
   -2.7150   -1.2344    1.1843 H   0  0  0  0  0  0  0  0  0  0  0  0
   -3.9851    2.2650   -0.9451 H   0  0  0  0  0  0  0  0  0  0  0  0
   -4.4068    0.7179   -1.6685 H   0  0  0  0  0  0  0  0  0  0  0  0
   -0.9122   -1.4111   -0.1698 H   0  0  0  0  0  0  0  0  0  0  0  0
   -1.8314   -1.3564   -1.6309 H   0  0  0  0  0  0  0  0  0  0  0  0
   -2.3786    0.6710   -2.7302 H   0  0  0  0  0  0  0  0  0  0  0  0
   -1.9778    2.2177   -2.0303 H   0  0  0  0  0  0  0  0  0  0  0  0
   -0.2177   -0.1517    1.5776 H   0  0  0  0  0  0  0  0  0  0  0  0
   -4.3632   -1.6041   -1.3987 H   0  0  0  0  0  0  0  0  0  0  0  0
   -0.5487    1.3528    2.9972 H   0  0  0  0  0  0  0  0  0  0  0  0
   -5.2330   -3.5246   -0.2899 H   0  0  0  0  0  0  0  0  0  0  0  0
   -4.1888   -3.1830    1.2108 H   0  0  0  0  0  0  0  0  0  0  0  0
    1.2016    3.0124    0.1099 H   0  0  0  0  0  0  0  0  0  0  0  0
    0.8126   -1.7062    1.3186 H   0  0  0  0  0  0  0  0  0  0  0  0
    3.3490    3.0604   -1.1167 H   0  0  0  0  0  0  0  0  0  0  0  0
    5.0501   -1.2090   -1.1761 H   0  0  0  0  0  0  0  0  0  0  0  0
    2.2025   -3.6226    0.9258 H   0  0  0  0  0  0  0  0  0  0  0  0
    4.3363   -3.4000   -0.3165 H   0  0  0  0  0  0  0  0  0  0  0  0
  1 11  1  0  0  0  0
  1 36  1  0  0  0  0
  2  5  1  0  0  0  0
  2  9  1  0  0  0  0
  2 10  1  0  0  0  0
  3 17  1  0  0  0  0
  3 19  2  0  0  0  0
  4  6  1  0  0  0  0
  4  7  1  0  0  0  0
  4  8  1  0  0  0  0
  4 23  1  0  0  0  0
  5  6  1  0  0  0  0
  5 11  1  0  0  0  0
  5 24  1  0  0  0  0
  6 25  1  0  0  0  0
  6 26  1  0  0  0  0
  7  9  1  0  0  0  0
  7 12  1  0  0  0  0
  7 27  1  0  0  0  0
  8 10  1  0  0  0  0
  8 28  1  0  0  0  0
  8 29  1  0  0  0  0
  9 30  1  0  0  0  0
  9 31  1  0  0  0  0
 10 32  1  0  0  0  0
 10 33  1  0  0  0  0
 11 13  1  0  0  0  0
 11 34  1  0  0  0  0
 12 15  2  0  0  0  0
 12 35  1  0  0  0  0
 13 14  1  0  0  0  0
 13 16  2  0  0  0  0
 14 17  1  0  0  0  0
 14 18  2  0  0  0  0
 15 37  1  0  0  0  0
 15 38  1  0  0  0  0
 16 19  1  0  0  0  0
 16 39  1  0  0  0  0
 17 20  2  0  0  0  0
 18 21  1  0  0  0  0
 18 40  1  0  0  0  0
 19 41  1  0  0  0  0
 20 22  1  0  0  0  0
 20 42  1  0  0  0  0
 21 22  2  0  0  0  0
 21 43  1  0  0  0  0
 22 44  1  0  0  0  0
M  END
> <PUBCHEM_COMPOUND_CID>
443155

> <PUBCHEM_CONFORMER_RMSD>
0.6

> <PUBCHEM_CONFORMER_DIVERSEORDER>
2
6
4
7
5
3
1

> <PUBCHEM_MMFF94_PARTIAL_CHARGES>
28
1 -0.68
10 0.27
11 0.42
12 -0.29
13 -0.14
15 -0.3
16 -0.15
17 0.31
18 -0.15
19 0.16
2 -0.81
20 -0.15
21 -0.15
22 -0.15
3 -0.62
35 0.15
36 0.4
37 0.15
38 0.15
39 0.15
40 0.15
41 0.15
42 0.15
43 0.15
44 0.15
5 0.27
7 0.14
9 0.27

> <PUBCHEM_EFFECTIVE_ROTOR_COUNT>
4.2

> <PUBCHEM_PHARMACOPHORE_FEATURES>
8
1 1 acceptor
1 1 donor
1 15 hydrophobe
1 2 cation
1 3 acceptor
6 14 17 18 20 21 22 rings
6 3 13 14 16 17 19 rings
8 2 4 5 6 7 8 9 10 rings

> <PUBCHEM_HEAVY_ATOM_COUNT>
22

> <PUBCHEM_ATOM_DEF_STEREO_COUNT>
3

> <PUBCHEM_ATOM_UDEF_STEREO_COUNT>
1

> <PUBCHEM_BOND_DEF_STEREO_COUNT>
0

> <PUBCHEM_BOND_UDEF_STEREO_COUNT>
0

> <PUBCHEM_ISOTOPIC_ATOM_COUNT>
0

> <PUBCHEM_COMPONENT_COUNT>
1

> <PUBCHEM_CACTVS_TAUTO_COUNT>
1

> <PUBCHEM_CONFORMER_ID>
0006C31300000002

> <PUBCHEM_MMFF94_ENERGY>
74.962

> <PUBCHEM_FEATURE_SELFOVERLAP>
40.626

> <PUBCHEM_SHAPE_FINGERPRINT>
10498660 4 13183015233029270071
10616163 171 18335698355923827879
11578080 2 17898877878583222056
12160290 23 16662315437391848537
12363563 72 16806186460713267409
12553582 1 18051409862365189482
12596599 1 18190447436781905894
12633257 1 18041547123068809283
12707595 3 17531252737892354393
12788726 201 17532644835809864737
13004483 165 16118564185315092642
13009979 54 17969212520677597202
13103583 49 17532910742078805291
13224815 77 18410862040023353562
15375462 189 17968377840447789959
15664445 248 17630338432744685077
16752209 62 17386853974827880233
16945 1 18339369676656541744
17492 89 18410009948656648526
18186145 218 18343020033912236240
19422 9 18334851718937345073
19930381 70 18200028409144578989
20281475 54 18408039619740081617
20291156 8 18262518212153372090
20626108 58 18058189330845118658
21634736 98 18410008862451370022
21713013 43 18342740723562158823
21731516 1 17531540818470821861
221490 88 18341888585018728842
22393880 68 18341891913818434422
232386 152 17458917049217554808
23379529 103 18189042243937535406
23402539 116 16343702179483672860
235170 7 17560254517760430159
23557571 272 16414611801287525657
23559900 14 18410866481035374841
23598288 3 17749942375289964569
238 59 17916859124028122466
2838139 119 16056012694723981702
2871803 45 18271812255136388591
3323516 105 18272929431732148274
3737641 26 18194386819620312275
4280585 95 17979634864644540102
465052 167 17605266273581490759
5104073 3 18333731320820357882
6287921 2 17916573229203459052
633830 44 16487248898125096509
9709674 26 18273211963276504363

> <PUBCHEM_SHAPE_MULTIPOLES>
436.92
8.49
3
1.33
1.47
1.61
0.26
4.41
-1.98
-0.33
0.13
0.38
-0.67
-0.11

> <PUBCHEM_SHAPE_SELFOVERLAP>
957.564

> <PUBCHEM_SHAPE_VOLUME>
231.3

> <PUBCHEM_COORDINATE_TYPE>
2
5
10

$$$$

