5585
  -OEChem-07051212573D

 29 31  0     0  0  0  0  0  0999 V2000
   -2.8607   -0.9241    0.0002 O   0  0  0  0  0  0  0  0  0  0  0  0
    1.9435   -1.3797    0.0008 O   0  0  0  0  0  0  0  0  0  0  0  0
    4.2254   -1.5255   -0.0014 O   0  0  0  0  0  0  0  0  0  0  0  0
    0.8796    0.8216    0.0008 C   0  0  0  0  0  0  0  0  0  0  0  0
   -1.5554    0.9189    0.0002 C   0  0  0  0  0  0  0  0  0  0  0  0
   -1.5757   -0.4707    0.0007 C   0  0  0  0  0  0  0  0  0  0  0  0
   -0.4353   -1.2660    0.0012 C   0  0  0  0  0  0  0  0  0  0  0  0
    0.7820   -0.5735    0.0010 C   0  0  0  0  0  0  0  0  0  0  0  0
   -0.3086    1.5777    0.0004 C   0  0  0  0  0  0  0  0  0  0  0  0
    2.2181    1.4325    0.0002 C   0  0  0  0  0  0  0  0  0  0  0  0
   -2.9163    1.3247   -0.0007 C   0  0  0  0  0  0  0  0  0  0  0  0
   -3.6650    0.1708   -0.0005 C   0  0  0  0  0  0  0  0  0  0  0  0
   -0.4929   -2.7550    0.0003 C   0  0  0  0  0  0  0  0  0  0  0  0
    3.2982    0.6387   -0.0011 C   0  0  0  0  0  0  0  0  0  0  0  0
    2.3595    2.9271    0.0005 C   0  0  0  0  0  0  0  0  0  0  0  0
    3.2154   -0.8305   -0.0011 C   0  0  0  0  0  0  0  0  0  0  0  0
   -5.1117   -0.0869   -0.0015 C   0  0  0  0  0  0  0  0  0  0  0  0
   -0.2916    2.6635   -0.0001 H   0  0  0  0  0  0  0  0  0  0  0  0
   -3.3001    2.3354   -0.0015 H   0  0  0  0  0  0  0  0  0  0  0  0
   -1.5235   -3.1240    0.0017 H   0  0  0  0  0  0  0  0  0  0  0  0
    0.0000   -3.1545   -0.8921 H   0  0  0  0  0  0  0  0  0  0  0  0
    0.0026   -3.1557    0.8907 H   0  0  0  0  0  0  0  0  0  0  0  0
    4.2996    1.0586   -0.0018 H   0  0  0  0  0  0  0  0  0  0  0  0
    1.8952    3.3618    0.8921 H   0  0  0  0  0  0  0  0  0  0  0  0
    1.8946    3.3622   -0.8907 H   0  0  0  0  0  0  0  0  0  0  0  0
    3.4102    3.2385    0.0002 H   0  0  0  0  0  0  0  0  0  0  0  0
   -5.3997   -0.6587   -0.8891 H   0  0  0  0  0  0  0  0  0  0  0  0
   -5.6800    0.8485   -0.0019 H   0  0  0  0  0  0  0  0  0  0  0  0
   -5.4011   -0.6589    0.8855 H   0  0  0  0  0  0  0  0  0  0  0  0
  1  6  1  0  0  0  0
  1 12  1  0  0  0  0
  2  8  1  0  0  0  0
  2 16  1  0  0  0  0
  3 16  2  0  0  0  0
  4  8  2  0  0  0  0
  4  9  1  0  0  0  0
  4 10  1  0  0  0  0
  5  6  1  0  0  0  0
  5  9  2  0  0  0  0
  5 11  1  0  0  0  0
  6  7  2  0  0  0  0
  7  8  1  0  0  0  0
  7 13  1  0  0  0  0
  9 18  1  0  0  0  0
 10 14  2  0  0  0  0
 10 15  1  0  0  0  0
 11 12  2  0  0  0  0
 11 19  1  0  0  0  0
 12 17  1  0  0  0  0
 13 20  1  0  0  0  0
 13 21  1  0  0  0  0
 13 22  1  0  0  0  0
 14 16  1  0  0  0  0
 14 23  1  0  0  0  0
 15 24  1  0  0  0  0
 15 25  1  0  0  0  0
 15 26  1  0  0  0  0
 17 27  1  0  0  0  0
 17 28  1  0  0  0  0
 17 29  1  0  0  0  0
M  END
> <PUBCHEM_COMPOUND_CID>
5585

> <PUBCHEM_CONFORMER_RMSD>
0.4

> <PUBCHEM_CONFORMER_DIVERSEORDER>
1

> <PUBCHEM_MMFF94_PARTIAL_CHARGES>
19
1 -0.28
10 -0.17
11 -0.15
12 -0.04
13 0.14
14 -0.14
15 0.14
16 0.71
17 0.18
18 0.15
19 0.15
2 -0.23
23 0.15
3 -0.57
4 0.03
6 0.14
7 -0.14
8 0.08
9 -0.15

> <PUBCHEM_EFFECTIVE_ROTOR_COUNT>
0

> <PUBCHEM_PHARMACOPHORE_FEATURES>
5
1 1 acceptor
1 3 acceptor
5 1 5 6 11 12 rings
6 2 4 8 10 14 16 rings
6 4 5 6 7 8 9 rings

> <PUBCHEM_HEAVY_ATOM_COUNT>
17

> <PUBCHEM_ATOM_DEF_STEREO_COUNT>
0

> <PUBCHEM_ATOM_UDEF_STEREO_COUNT>
0

> <PUBCHEM_BOND_DEF_STEREO_COUNT>
0

> <PUBCHEM_BOND_UDEF_STEREO_COUNT>
0

> <PUBCHEM_ISOTOPIC_ATOM_COUNT>
0

> <PUBCHEM_COMPONENT_COUNT>
1

> <PUBCHEM_CACTVS_TAUTO_COUNT>
1

> <PUBCHEM_CONFORMER_ID>
000015D100000001

> <PUBCHEM_MMFF94_ENERGY>
42.0458

> <PUBCHEM_FEATURE_SELFOVERLAP>
25.5

> <PUBCHEM_SHAPE_FINGERPRINT>
10411042 1 17834113426359959191
10608611 8 18412547591517980957
10616163 171 18121496847871409014
10967382 1 18410573950981811716
11132069 177 18336273387419286043
11471102 20 18411140237945383140
11680986 33 18269829826733057162
12032990 46 18412259562341626563
12236239 1 17821730538061367733
12251169 10 18410860928038391008
12403259 226 18341619247419234149
12507560 14 18260550047632212876
12715332 25 18186242831171120711
13140716 1 18340493244538541722
13221675 6 18411702097040447186
13380535 21 18195520398738061168
13380535 76 18409167671135635879
13690532 89 18411138082030075498
13862211 1 18338803415214997170
14115302 16 17988349425811308118
14178342 30 17906467527912302912
14251717 144 18410014346944901727
14911166 2 18410284826932006846
15196674 1 18410855486008956229
15442244 35 18409448111336373616
15536298 74 18334577927826029456
16945 1 18338516318378751460
17802600 8 18341054094120910797
17804303 29 18411977000822612164
18186145 218 18335417980395136101
193761 8 18122343471640076102
19591789 44 18411136909741750819
200 152 18114188549148648069
20028762 73 18187370904785622327
20510252 161 18260550064553944464
20645477 70 18410013230248234119
20671657 1 18339917117799665828
21267235 1 18410284843705934183
21501502 16 18192436277127766142
221490 88 18341324492340054906
2334 1 18266458711197348359
23366157 5 18059298639551823892
23402539 116 18261121814884441798
23463225 33 18411699893722250324
23557571 272 4967621554890878819
23558518 356 17697602087107472442
23559900 14 18334578997657988632
2748010 2 18340203003343305285
3286 77 18342458166100747708
335352 9 18338517542212270719
34934 24 18337677404276717176
350125 39 18411415141870615829
5104073 3 18410853235931247857
69090 78 18336268963872165327
7364860 26 18335702698504899208
74978 22 18410290268592176126
8809292 202 18272364269807642987
9709674 26 18337951173612970742
9981440 41 17690849956347967736
9999458 23 18202282498096055254

> <PUBCHEM_SHAPE_MULTIPOLES>
332.24
7.28
2.51
0.6
3.76
0
0
-0.07
-0.01
-1.63
0
0.02
-0.02
0

> <PUBCHEM_SHAPE_SELFOVERLAP>
739.992

> <PUBCHEM_SHAPE_VOLUME>
180.5

> <PUBCHEM_COORDINATE_TYPE>
2
5
10

$$$$

