102030
  -OEChem-07051212503D

 50 53  0     1  0  0  0  0  0999 V2000
   -4.5853    1.5783   -1.2936 O   0  0  0  0  0  0  0  0  0  0  0  0
   -4.7813   -1.2554   -0.6019 O   0  0  0  0  0  0  0  0  0  0  0  0
    6.0729    0.3021   -0.4017 O   0  0  0  0  0  0  0  0  0  0  0  0
    0.3726   -0.4861   -0.2746 C   0  0  1  0  0  0  0  0  0  0  0  0
   -0.4456    0.6413    0.4239 C   0  0  2  0  0  0  0  0  0  0  0  0
   -1.8980    0.5790   -0.0572 C   0  0  1  0  0  0  0  0  0  0  0  0
   -2.5536   -0.7805    0.2517 C   0  0  2  0  0  0  0  0  0  0  0  0
    1.8757   -0.4972    0.2156 C   0  0  2  0  0  0  0  0  0  0  0  0
   -0.3281   -1.8730   -0.2092 C   0  0  0  0  0  0  0  0  0  0  0  0
   -1.8240   -1.8394   -0.5685 C   0  0  0  0  0  0  0  0  0  0  0  0
   -2.9024    1.6119    0.4526 C   0  0  0  0  0  0  0  0  0  0  0  0
    0.1758    2.0115    0.1178 C   0  0  0  0  0  0  0  0  0  0  0  0
    2.4429    0.9285    0.2652 C   0  0  0  0  0  0  0  0  0  0  0  0
    2.7106   -1.3445   -0.7904 C   0  0  0  0  0  0  0  0  0  0  0  0
   -3.9675   -0.4423   -0.1839 C   0  0  0  0  0  0  0  0  0  0  0  0
   -4.2480    1.0474   -0.0313 C   0  0  2  0  0  0  0  0  0  0  0  0
   -2.6289   -1.1681    1.7392 C   0  0  0  0  0  0  0  0  0  0  0  0
    1.6683    2.0258    0.2059 C   0  0  0  0  0  0  0  0  0  0  0  0
    2.0024   -1.1105    1.6309 C   0  0  0  0  0  0  0  0  0  0  0  0
    3.9433    1.0702    0.3797 C   0  0  0  0  0  0  0  0  0  0  0  0
    4.2235   -1.2275   -0.6093 C   0  0  0  0  0  0  0  0  0  0  0  0
    4.6747    0.2287   -0.6611 C   0  0  2  0  0  0  0  0  0  0  0  0
    0.3888   -0.2229   -1.3451 H   0  0  0  0  0  0  0  0  0  0  0  0
   -0.4179    0.4964    1.5099 H   0  0  0  0  0  0  0  0  0  0  0  0
   -1.8652    0.7071   -1.1529 H   0  0  0  0  0  0  0  0  0  0  0  0
   -0.2313   -2.3024    0.7922 H   0  0  0  0  0  0  0  0  0  0  0  0
    0.1691   -2.5710   -0.8919 H   0  0  0  0  0  0  0  0  0  0  0  0
   -1.9357   -1.6358   -1.6414 H   0  0  0  0  0  0  0  0  0  0  0  0
   -2.2654   -2.8298   -0.4031 H   0  0  0  0  0  0  0  0  0  0  0  0
   -2.7034    2.6084    0.0456 H   0  0  0  0  0  0  0  0  0  0  0  0
   -2.8746    1.6736    1.5459 H   0  0  0  0  0  0  0  0  0  0  0  0
   -0.2248    2.7508    0.8218 H   0  0  0  0  0  0  0  0  0  0  0  0
   -0.1050    2.3474   -0.8881 H   0  0  0  0  0  0  0  0  0  0  0  0
    2.4709   -1.0364   -1.8172 H   0  0  0  0  0  0  0  0  0  0  0  0
    2.4381   -2.4040   -0.7152 H   0  0  0  0  0  0  0  0  0  0  0  0
   -5.0514    1.2286    0.6866 H   0  0  0  0  0  0  0  0  0  0  0  0
   -1.6447   -1.2390    2.2099 H   0  0  0  0  0  0  0  0  0  0  0  0
   -3.2216   -0.4584    2.3266 H   0  0  0  0  0  0  0  0  0  0  0  0
   -3.1170   -2.1438    1.8517 H   0  0  0  0  0  0  0  0  0  0  0  0
    2.1305    3.0099    0.2246 H   0  0  0  0  0  0  0  0  0  0  0  0
    3.0201   -1.0345    2.0282 H   0  0  0  0  0  0  0  0  0  0  0  0
    1.3453   -0.6118    2.3507 H   0  0  0  0  0  0  0  0  0  0  0  0
    1.7558   -2.1771    1.6335 H   0  0  0  0  0  0  0  0  0  0  0  0
    4.2601    2.1160    0.2734 H   0  0  0  0  0  0  0  0  0  0  0  0
    4.2646    0.7808    1.3883 H   0  0  0  0  0  0  0  0  0  0  0  0
    4.5375   -1.6879    0.3356 H   0  0  0  0  0  0  0  0  0  0  0  0
    4.7346   -1.7989   -1.3941 H   0  0  0  0  0  0  0  0  0  0  0  0
    4.4982    0.6413   -1.6619 H   0  0  0  0  0  0  0  0  0  0  0  0
   -3.8154    1.5041   -1.8820 H   0  0  0  0  0  0  0  0  0  0  0  0
    6.5243   -0.2352   -1.0748 H   0  0  0  0  0  0  0  0  0  0  0  0
  1 16  1  0  0  0  0
  1 49  1  0  0  0  0
  2 15  2  0  0  0  0
  3 22  1  0  0  0  0
  3 50  1  0  0  0  0
  4  5  1  0  0  0  0
  4  8  1  0  0  0  0
  4  9  1  0  0  0  0
  4 23  1  0  0  0  0
  5  6  1  0  0  0  0
  5 12  1  0  0  0  0
  5 24  1  0  0  0  0
  6  7  1  0  0  0  0
  6 11  1  0  0  0  0
  6 25  1  0  0  0  0
  7 10  1  0  0  0  0
  7 15  1  0  0  0  0
  7 17  1  0  0  0  0
  8 13  1  0  0  0  0
  8 14  1  0  0  0  0
  8 19  1  0  0  0  0
  9 10  1  0  0  0  0
  9 26  1  0  0  0  0
  9 27  1  0  0  0  0
 10 28  1  0  0  0  0
 10 29  1  0  0  0  0
 11 16  1  0  0  0  0
 11 30  1  0  0  0  0
 11 31  1  0  0  0  0
 12 18  1  0  0  0  0
 12 32  1  0  0  0  0
 12 33  1  0  0  0  0
 13 18  2  0  0  0  0
 13 20  1  0  0  0  0
 14 21  1  0  0  0  0
 14 34  1  0  0  0  0
 14 35  1  0  0  0  0
 15 16  1  0  0  0  0
 16 36  1  0  0  0  0
 17 37  1  0  0  0  0
 17 38  1  0  0  0  0
 17 39  1  0  0  0  0
 18 40  1  0  0  0  0
 19 41  1  0  0  0  0
 19 42  1  0  0  0  0
 19 43  1  0  0  0  0
 20 22  1  0  0  0  0
 20 44  1  0  0  0  0
 20 45  1  0  0  0  0
 21 22  1  0  0  0  0
 21 46  1  0  0  0  0
 21 47  1  0  0  0  0
 22 48  1  0  0  0  0
M  END
> <PUBCHEM_COMPOUND_CID>
102030

> <PUBCHEM_CONFORMER_RMSD>
0.6

> <PUBCHEM_CONFORMER_DIVERSEORDER>
1

> <PUBCHEM_MMFF94_PARTIAL_CHARGES>
15
1 -0.68
12 0.14
13 -0.28
15 0.45
16 0.34
18 -0.29
2 -0.57
20 0.14
22 0.28
3 -0.68
40 0.15
49 0.4
50 0.4
7 0.06
8 0.14

> <PUBCHEM_EFFECTIVE_ROTOR_COUNT>
1.8

> <PUBCHEM_PHARMACOPHORE_FEATURES>
9
1 1 acceptor
1 1 donor
1 2 acceptor
1 3 acceptor
1 3 donor
5 6 7 11 15 16 rings
6 4 5 6 7 9 10 rings
6 4 5 8 12 13 18 rings
6 8 13 14 20 21 22 rings

> <PUBCHEM_HEAVY_ATOM_COUNT>
22

> <PUBCHEM_ATOM_DEF_STEREO_COUNT>
7

> <PUBCHEM_ATOM_UDEF_STEREO_COUNT>
0

> <PUBCHEM_BOND_DEF_STEREO_COUNT>
0

> <PUBCHEM_BOND_UDEF_STEREO_COUNT>
0

> <PUBCHEM_ISOTOPIC_ATOM_COUNT>
0

> <PUBCHEM_COMPONENT_COUNT>
1

> <PUBCHEM_CACTVS_TAUTO_COUNT>
4

> <PUBCHEM_CONFORMER_ID>
00018E8E00000001

> <PUBCHEM_MMFF94_ENERGY>
61.5831

> <PUBCHEM_FEATURE_SELFOVERLAP>
45.768

> <PUBCHEM_SHAPE_FINGERPRINT>
10366900 7 17846221020760199275
10498660 4 18411140268089346893
10759866 29 17916871355968471936
10967382 1 18408040718993194378
11132069 177 18334581205096995112
11315181 36 18259701199112775464
12011746 2 18409451396822857485
12236239 1 18060702797393907786
12403259 226 18189341182451094609
12403259 415 18334020475715811249
12788726 201 18263928919663158961
12969540 114 18340220673044496437
13221675 6 18411417293659183106
13224815 77 18407760339249001115
13583140 156 17632854239971646929
14790565 3 17469872746170259257
15099037 51 18408886247882960829
15163728 17 16485594202630488087
15196674 1 18408040723277631684
15238133 3 17988657336232565488
15375358 24 18334858329060773230
15536298 74 18260268529742720072
15788980 27 18412823581979261920
15848702 151 17604137224962167862
1601671 61 18411701006451251844
16752209 62 18261679293160486193
16945 1 18192423065671070608
17349148 13 17240762874030352191
1813 80 5328747370458272026
18186145 218 18411706517020756649
19862831 5 18410290328436953136
200 152 17458062672605305881
20645477 70 18187361073462381182
21033648 29 18335428949841973745
21267235 1 18335975381145302879
21279426 13 18265612276264752868
221357 26 18335425655944753829
221490 88 18266734680068209754
22393880 68 18411428306002757381
23402539 116 18335141994818964694
23402655 69 18334294292565067620
23493267 7 18202844348601068235
23559900 14 18040723536898030384
2748010 2 18410011018224077401
296302 2 15554447388031510050
3004659 81 18342453799105704502
3286 77 16153716456786458042
335352 9 18335982081251944108
34934 24 18413392055292267960
350125 39 18409162200159586593
3545911 37 18408884031669305897
4028521 119 18412266155316840597
4214541 1 18407758136068071061
4340502 62 16773506763280056512
474 4 17631445679692885676
4921388 177 16558456501065793683
5104073 3 18408603673246962594
542803 24 15554444106882230772
633830 44 17988645138878619068
7364860 26 18115590323057594672
9709674 26 18338517426575272427

> <PUBCHEM_SHAPE_MULTIPOLES>
435.14
10.04
2.1
1.07
3.31
0.25
0.32
0.7
-2.32
-0.54
-0.07
-0.26
-0.27
0.46

> <PUBCHEM_SHAPE_SELFOVERLAP>
935.395

> <PUBCHEM_SHAPE_VOLUME>
238.6

> <PUBCHEM_COORDINATE_TYPE>
2
5
10

$$$$

