5225
  -OEChem-06261200352D

 49 50  0     0  0  0  0  0  0999 V2000
    7.7331   -0.4330    0.0000 S   0  0  0  0  0  0  0  0  0  0  0  0
   11.1972    1.5670    0.0000 O   0  0  0  0  0  0  0  0  0  0  0  0
   10.3312    3.0670    0.0000 O   0  0  0  0  0  0  0  0  0  0  0  0
    7.2331    0.4330    0.0000 O   0  0  0  0  0  0  0  0  0  0  0  0
    8.2331   -1.2990    0.0000 O   0  0  0  0  0  0  0  0  0  0  0  0
    5.1350   -0.9330    0.0000 O   0  0  0  0  0  0  0  0  0  0  0  0
    2.5369   -2.4330    0.0000 O   0  0  0  0  0  0  0  0  0  0  0  0
    3.4030   -0.9330    0.0000 O   0  0  0  0  0  0  0  0  0  0  0  0
    6.8671   -0.9330    0.0000 N   0  0  0  0  0  0  0  0  0  0  0  0
    4.2690   -2.4330    0.0000 N   0  0  0  0  0  0  0  0  0  0  0  0
   12.0632    3.0670    0.0000 C   0  0  0  0  0  0  0  0  0  0  0  0
   12.9292    3.5670    0.0000 C   0  0  0  0  0  0  0  0  0  0  0  0
   11.5632    3.9330    0.0000 C   0  0  0  0  0  0  0  0  0  0  0  0
   12.5632    2.2010    0.0000 C   0  0  0  0  0  0  0  0  0  0  0  0
   11.1972    2.5670    0.0000 C   0  0  0  0  0  0  0  0  0  0  0  0
    8.5991    0.0670    0.0000 C   0  0  0  0  0  0  0  0  0  0  0  0
   10.3312    1.0670    0.0000 C   0  0  0  0  0  0  0  0  0  0  0  0
    6.8671   -1.9330    0.0000 C   0  0  0  0  0  0  0  0  0  0  0  0
    9.4651   -0.4330    0.0000 C   0  0  0  0  0  0  0  0  0  0  0  0
    8.5991    1.0670    0.0000 C   0  0  0  0  0  0  0  0  0  0  0  0
   10.3312    0.0670    0.0000 C   0  0  0  0  0  0  0  0  0  0  0  0
    9.4651    1.5670    0.0000 C   0  0  0  0  0  0  0  0  0  0  0  0
    6.0010   -2.4330    0.0000 C   0  0  0  0  0  0  0  0  0  0  0  0
    7.7331   -2.4330    0.0000 C   0  0  0  0  0  0  0  0  0  0  0  0
    6.0010   -3.4330    0.0000 C   0  0  0  0  0  0  0  0  0  0  0  0
    7.7331   -3.4330    0.0000 C   0  0  0  0  0  0  0  0  0  0  0  0
    6.8671   -3.9330    0.0000 C   0  0  0  0  0  0  0  0  0  0  0  0
    5.1350   -1.9330    0.0000 C   0  0  0  0  0  0  0  0  0  0  0  0
    3.4030   -1.9330    0.0000 C   0  0  0  0  0  0  0  0  0  0  0  0
   13.2392    3.0300    0.0000 H   0  0  0  0  0  0  0  0  0  0  0  0
   12.0263    1.8910    0.0000 H   0  0  0  0  0  0  0  0  0  0  0  0
   12.8732    1.6640    0.0000 H   0  0  0  0  0  0  0  0  0  0  0  0
   13.1002    2.5110    0.0000 H   0  0  0  0  0  0  0  0  0  0  0  0
   12.1002    4.2430    0.0000 H   0  0  0  0  0  0  0  0  0  0  0  0
   11.2532    4.4700    0.0000 H   0  0  0  0  0  0  0  0  0  0  0  0
   11.0263    3.6230    0.0000 H   0  0  0  0  0  0  0  0  0  0  0  0
   13.4662    3.8770    0.0000 H   0  0  0  0  0  0  0  0  0  0  0  0
   12.6192    4.1039    0.0000 H   0  0  0  0  0  0  0  0  0  0  0  0
    6.3301   -0.6230    0.0000 H   0  0  0  0  0  0  0  0  0  0  0  0
    9.4651   -1.0530    0.0000 H   0  0  0  0  0  0  0  0  0  0  0  0
    8.0622    1.3770    0.0000 H   0  0  0  0  0  0  0  0  0  0  0  0
   10.8681   -0.2430    0.0000 H   0  0  0  0  0  0  0  0  0  0  0  0
    9.4651    2.1870    0.0000 H   0  0  0  0  0  0  0  0  0  0  0  0
    8.2700   -2.1230    0.0000 H   0  0  0  0  0  0  0  0  0  0  0  0
    5.4641   -3.7430    0.0000 H   0  0  0  0  0  0  0  0  0  0  0  0
    8.2700   -3.7430    0.0000 H   0  0  0  0  0  0  0  0  0  0  0  0
    6.8671   -4.5530    0.0000 H   0  0  0  0  0  0  0  0  0  0  0  0
    4.2690   -3.0530    0.0000 H   0  0  0  0  0  0  0  0  0  0  0  0
    2.0000   -2.1230    0.0000 H   0  0  0  0  0  0  0  0  0  0  0  0
  1  4  2  0  0  0  0
  1  5  2  0  0  0  0
  1  9  1  0  0  0  0
  1 16  1  0  0  0  0
  2 15  1  0  0  0  0
  2 17  1  0  0  0  0
  3 15  2  0  0  0  0
  6 28  2  0  0  0  0
  7 29  1  0  0  0  0
  7 49  1  0  0  0  0
  8 29  2  0  0  0  0
  9 18  1  0  0  0  0
  9 39  1  0  0  0  0
 10 28  1  0  0  0  0
 10 29  1  0  0  0  0
 10 48  1  0  0  0  0
 11 12  1  0  0  0  0
 11 13  1  0  0  0  0
 11 14  1  0  0  0  0
 11 15  1  0  0  0  0
 12 30  1  0  0  0  0
 12 37  1  0  0  0  0
 12 38  1  0  0  0  0
 13 34  1  0  0  0  0
 13 35  1  0  0  0  0
 13 36  1  0  0  0  0
 14 31  1  0  0  0  0
 14 32  1  0  0  0  0
 14 33  1  0  0  0  0
 16 19  2  0  0  0  0
 16 20  1  0  0  0  0
 17 21  2  0  0  0  0
 17 22  1  0  0  0  0
 18 23  1  0  0  0  0
 18 24  2  0  0  0  0
 19 21  1  0  0  0  0
 19 40  1  0  0  0  0
 20 22  2  0  0  0  0
 20 41  1  0  0  0  0
 21 42  1  0  0  0  0
 22 43  1  0  0  0  0
 23 25  2  0  0  0  0
 23 28  1  0  0  0  0
 24 26  1  0  0  0  0
 24 44  1  0  0  0  0
 25 27  1  0  0  0  0
 25 45  1  0  0  0  0
 26 27  2  0  0  0  0
 26 46  1  0  0  0  0
 27 47  1  0  0  0  0
M  END
> <PUBCHEM_COMPOUND_CID>
5225

> <PUBCHEM_COMPOUND_CANONICALIZED>
1

> <PUBCHEM_CACTVS_COMPLEXITY>
716

> <PUBCHEM_CACTVS_HBOND_ACCEPTOR>
8

> <PUBCHEM_CACTVS_HBOND_DONOR>
3

> <PUBCHEM_CACTVS_ROTATABLE_BOND>
7

> <PUBCHEM_CACTVS_SUBSKEYS>
AAADceB7OABAAAAAAAAAAAAAAAAAAAAAAAAwYAAAAAAAAAABQAAAHgQQSAAADgyB2AAyz4LABgKIAiXSWHDCCBAkIgAIiBkGbMkMJjqE9ZuGO6jk1DEI6ceYyACOAIAAAAACAAABAAAAAAQAAAAAAAAAAA==

> <PUBCHEM_IUPAC_OPENEYE_NAME>
[2-[[4-(2,2-dimethylpropanoyloxy)phenyl]sulfonylamino]benzoyl]carbamic acid

> <PUBCHEM_IUPAC_CAS_NAME>
[[2-[[4-(2,2-dimethyl-1-oxopropoxy)phenyl]sulfonylamino]phenyl]-oxomethyl]carbamic acid

> <PUBCHEM_IUPAC_NAME>
[2-[[4-(2,2-dimethylpropanoyloxy)phenyl]sulfonylamino]benzoyl]carbamic acid

> <PUBCHEM_IUPAC_SYSTEMATIC_NAME>
[2-[[4-(2,2-dimethylpropanoyloxy)phenyl]sulfonylamino]phenyl]carbonylcarbamic acid

> <PUBCHEM_IUPAC_TRADITIONAL_NAME>
[2-[(4-pivaloyloxyphenyl)sulfonylamino]benzoyl]carbamic acid

> <PUBCHEM_IUPAC_INCHI>
InChI=1S/C19H20N2O7S/c1-19(2,3)17(23)28-12-8-10-13(11-9-12)29(26,27)21-15-7-5-4-6-14(15)16(22)20-18(24)25/h4-11,21H,1-3H3,(H,20,22)(H,24,25)

> <PUBCHEM_IUPAC_INCHIKEY>
SCFQKHWPQLDWET-UHFFFAOYSA-N

> <PUBCHEM_XLOGP3_AA>
3.3

> <PUBCHEM_EXACT_MASS>
420.099122

> <PUBCHEM_MOLECULAR_FORMULA>
C19H20N2O7S

> <PUBCHEM_MOLECULAR_WEIGHT>
420.4363

> <PUBCHEM_OPENEYE_CAN_SMILES>
CC(C)(C)C(=O)OC1=CC=C(C=C1)S(=O)(=O)NC2=CC=CC=C2C(=O)NC(=O)O

> <PUBCHEM_OPENEYE_ISO_SMILES>
CC(C)(C)C(=O)OC1=CC=C(C=C1)S(=O)(=O)NC2=CC=CC=C2C(=O)NC(=O)O

> <PUBCHEM_CACTVS_TPSA>
147

> <PUBCHEM_MONOISOTOPIC_WEIGHT>
420.099122

> <PUBCHEM_TOTAL_CHARGE>
0

> <PUBCHEM_HEAVY_ATOM_COUNT>
29

> <PUBCHEM_ATOM_DEF_STEREO_COUNT>
0

> <PUBCHEM_ATOM_UDEF_STEREO_COUNT>
0

> <PUBCHEM_BOND_DEF_STEREO_COUNT>
0

> <PUBCHEM_BOND_UDEF_STEREO_COUNT>
0

> <PUBCHEM_ISOTOPIC_ATOM_COUNT>
0

> <PUBCHEM_COMPONENT_COUNT>
1

> <PUBCHEM_CACTVS_TAUTO_COUNT>
14

> <PUBCHEM_COORDINATE_TYPE>
1
5
255

> <PUBCHEM_BONDANNOTATIONS>
16  19  8
16  20  8
17  21  8
17  22  8
18  23  8
18  24  8
19  21  8
20  22  8
23  25  8
24  26  8
25  27  8
26  27  8

$$$$

