6709
  -OEChem-06261201272D

 24 26  0     0  0  0  0  0  0999 V2000
    6.4144    2.0173    0.0000 Cl  0  0  0  0  0  0  0  0  0  0  0  0
    4.6660    1.9827    0.0000 O   0  0  0  0  0  0  0  0  0  0  0  0
    4.6660   -2.0173    0.0000 O   0  0  0  0  0  0  0  0  0  0  0  0
    5.5321    0.4827    0.0000 C   0  0  0  0  0  0  0  0  0  0  0  0
    5.5321   -0.5173    0.0000 C   0  0  0  0  0  0  0  0  0  0  0  0
    3.8000    0.4827    0.0000 C   0  0  0  0  0  0  0  0  0  0  0  0
    3.8000   -0.5173    0.0000 C   0  0  0  0  0  0  0  0  0  0  0  0
    4.6660    0.9827    0.0000 C   0  0  0  0  0  0  0  0  0  0  0  0
    4.6660   -1.0173    0.0000 C   0  0  0  0  0  0  0  0  0  0  0  0
    6.4260    1.0174    0.0000 C   0  0  0  0  0  0  0  0  0  0  0  0
    6.4260   -1.0520    0.0000 C   0  0  0  0  0  0  0  0  0  0  0  0
    2.9061    1.0174    0.0000 C   0  0  0  0  0  0  0  0  0  0  0  0
    2.9061   -1.0520    0.0000 C   0  0  0  0  0  0  0  0  0  0  0  0
    7.3321    0.5035    0.0000 C   0  0  0  0  0  0  0  0  0  0  0  0
    7.3321   -0.5381    0.0000 C   0  0  0  0  0  0  0  0  0  0  0  0
    2.0000    0.5035    0.0000 C   0  0  0  0  0  0  0  0  0  0  0  0
    2.0000   -0.5381    0.0000 C   0  0  0  0  0  0  0  0  0  0  0  0
    6.4188   -1.6719    0.0000 H   0  0  0  0  0  0  0  0  0  0  0  0
    2.9132    1.6373    0.0000 H   0  0  0  0  0  0  0  0  0  0  0  0
    2.9132   -1.6719    0.0000 H   0  0  0  0  0  0  0  0  0  0  0  0
    7.8678    0.8156    0.0000 H   0  0  0  0  0  0  0  0  0  0  0  0
    7.8678   -0.8502    0.0000 H   0  0  0  0  0  0  0  0  0  0  0  0
    1.4643    0.8156    0.0000 H   0  0  0  0  0  0  0  0  0  0  0  0
    1.4643   -0.8502    0.0000 H   0  0  0  0  0  0  0  0  0  0  0  0
  1 10  1  0  0  0  0
  2  8  2  0  0  0  0
  3  9  2  0  0  0  0
  4  5  2  0  0  0  0
  4  8  1  0  0  0  0
  4 10  1  0  0  0  0
  5  9  1  0  0  0  0
  5 11  1  0  0  0  0
  6  7  1  0  0  0  0
  6  8  1  0  0  0  0
  6 12  2  0  0  0  0
  7  9  1  0  0  0  0
  7 13  2  0  0  0  0
 10 14  2  0  0  0  0
 11 15  2  0  0  0  0
 11 18  1  0  0  0  0
 12 16  1  0  0  0  0
 12 19  1  0  0  0  0
 13 17  1  0  0  0  0
 13 20  1  0  0  0  0
 14 15  1  0  0  0  0
 14 21  1  0  0  0  0
 15 22  1  0  0  0  0
 16 17  2  0  0  0  0
 16 23  1  0  0  0  0
 17 24  1  0  0  0  0
M  END
> <PUBCHEM_COMPOUND_CID>
6709

> <PUBCHEM_COMPOUND_CANONICALIZED>
1

> <PUBCHEM_CACTVS_COMPLEXITY>
352

> <PUBCHEM_CACTVS_HBOND_ACCEPTOR>
2

> <PUBCHEM_CACTVS_HBOND_DONOR>
0

> <PUBCHEM_CACTVS_ROTATABLE_BOND>
0

> <PUBCHEM_CACTVS_SUBSKEYS>
AAADcYBwMAAEAAAAAAAAAAAAAAAAAAAAAAAwYMAAAAAAAADBQAAAGgIAAAAADAaAmCAwAIAAAACIAqBSAAACAAAkBQAIiAEAAsgIIDKBFxCAIQAggAAIjYcJiMCOgAAAIAARAACAAARAACIAAAAAAAAAAA==

> <PUBCHEM_IUPAC_OPENEYE_NAME>
1-chloroanthracene-9,10-dione

> <PUBCHEM_IUPAC_CAS_NAME>
1-chloroanthracene-9,10-dione

> <PUBCHEM_IUPAC_NAME>
1-chloroanthracene-9,10-dione

> <PUBCHEM_IUPAC_SYSTEMATIC_NAME>
1-chloranylanthracene-9,10-dione

> <PUBCHEM_IUPAC_TRADITIONAL_NAME>
1-chloro-9,10-anthraquinone

> <PUBCHEM_IUPAC_INCHI>
InChI=1S/C14H7ClO2/c15-11-7-3-6-10-12(11)14(17)9-5-2-1-4-8(9)13(10)16/h1-7H

> <PUBCHEM_IUPAC_INCHIKEY>
BOCJQSFSGAZAPQ-UHFFFAOYSA-N

> <PUBCHEM_XLOGP3>
4

> <PUBCHEM_EXACT_MASS>
242.013457

> <PUBCHEM_MOLECULAR_FORMULA>
C14H7ClO2

> <PUBCHEM_MOLECULAR_WEIGHT>
242.65718

> <PUBCHEM_OPENEYE_CAN_SMILES>
C1=CC=C2C(=C1)C(=O)C3=C(C2=O)C(=CC=C3)Cl

> <PUBCHEM_OPENEYE_ISO_SMILES>
C1=CC=C2C(=C1)C(=O)C3=C(C2=O)C(=CC=C3)Cl

> <PUBCHEM_CACTVS_TPSA>
34.1

> <PUBCHEM_MONOISOTOPIC_WEIGHT>
242.013457

> <PUBCHEM_TOTAL_CHARGE>
0

> <PUBCHEM_HEAVY_ATOM_COUNT>
17

> <PUBCHEM_ATOM_DEF_STEREO_COUNT>
0

> <PUBCHEM_ATOM_UDEF_STEREO_COUNT>
0

> <PUBCHEM_BOND_DEF_STEREO_COUNT>
0

> <PUBCHEM_BOND_UDEF_STEREO_COUNT>
0

> <PUBCHEM_ISOTOPIC_ATOM_COUNT>
0

> <PUBCHEM_COMPONENT_COUNT>
1

> <PUBCHEM_CACTVS_TAUTO_COUNT>
1

> <PUBCHEM_COORDINATE_TYPE>
1
5
255

> <PUBCHEM_BONDANNOTATIONS>
10  14  8
11  15  8
12  16  8
13  17  8
14  15  8
16  17  8
4  10  8
4  5  8
5  11  8
6  12  8
6  7  8
7  13  8

$$$$

