7810
  -OEChem-07051213053D

 15 15  0     0  0  0  0  0  0999 V2000
   -3.0871    0.0000    0.0002 Cl  0  0  0  0  0  0  0  0  0  0  0  0
    1.4236    0.0000   -0.0003 C   0  0  0  0  0  0  0  0  0  0  0  0
    0.7261   -1.2079   -0.0001 C   0  0  0  0  0  0  0  0  0  0  0  0
    0.7261    1.2080   -0.0001 C   0  0  0  0  0  0  0  0  0  0  0  0
    2.9150    0.0000    0.0004 C   0  0  0  0  0  0  0  0  0  0  0  0
   -0.6688   -1.2080    0.0000 C   0  0  0  0  0  0  0  0  0  0  0  0
   -0.6688    1.2079    0.0000 C   0  0  0  0  0  0  0  0  0  0  0  0
   -1.3662    0.0000   -0.0001 C   0  0  0  0  0  0  0  0  0  0  0  0
    1.2582   -2.1556   -0.0018 H   0  0  0  0  0  0  0  0  0  0  0  0
    1.2582    2.1556   -0.0019 H   0  0  0  0  0  0  0  0  0  0  0  0
    3.3101    0.8807    0.5181 H   0  0  0  0  0  0  0  0  0  0  0  0
    3.3100   -0.8801    0.5192 H   0  0  0  0  0  0  0  0  0  0  0  0
    3.2910   -0.0007   -1.0276 H   0  0  0  0  0  0  0  0  0  0  0  0
   -1.1991   -2.1569   -0.0003 H   0  0  0  0  0  0  0  0  0  0  0  0
   -1.1991    2.1568   -0.0003 H   0  0  0  0  0  0  0  0  0  0  0  0
  1  8  1  0  0  0  0
  2  3  2  0  0  0  0
  2  4  1  0  0  0  0
  2  5  1  0  0  0  0
  3  6  1  0  0  0  0
  3  9  1  0  0  0  0
  4  7  2  0  0  0  0
  4 10  1  0  0  0  0
  5 11  1  0  0  0  0
  5 12  1  0  0  0  0
  5 13  1  0  0  0  0
  6  8  2  0  0  0  0
  6 14  1  0  0  0  0
  7  8  1  0  0  0  0
  7 15  1  0  0  0  0
M  END
> <PUBCHEM_COMPOUND_CID>
7810

> <PUBCHEM_CONFORMER_RMSD>
0.4

> <PUBCHEM_CONFORMER_DIVERSEORDER>
1

> <PUBCHEM_MMFF94_PARTIAL_CHARGES>
12
1 -0.18
10 0.15
14 0.15
15 0.15
2 -0.14
3 -0.15
4 -0.15
5 0.14
6 -0.15
7 -0.15
8 0.18
9 0.15

> <PUBCHEM_EFFECTIVE_ROTOR_COUNT>
0

> <PUBCHEM_PHARMACOPHORE_FEATURES>
1
6 2 3 4 6 7 8 rings

> <PUBCHEM_HEAVY_ATOM_COUNT>
8

> <PUBCHEM_ATOM_DEF_STEREO_COUNT>
0

> <PUBCHEM_ATOM_UDEF_STEREO_COUNT>
0

> <PUBCHEM_BOND_DEF_STEREO_COUNT>
0

> <PUBCHEM_BOND_UDEF_STEREO_COUNT>
0

> <PUBCHEM_ISOTOPIC_ATOM_COUNT>
0

> <PUBCHEM_COMPONENT_COUNT>
1

> <PUBCHEM_CACTVS_TAUTO_COUNT>
1

> <PUBCHEM_CONFORMER_ID>
00001E8200000001

> <PUBCHEM_MMFF94_ENERGY>
16.5606

> <PUBCHEM_FEATURE_SELFOVERLAP>
5.074

> <PUBCHEM_SHAPE_FINGERPRINT>
14325111 11 18410575084715962849
15310529 11 16702312260137025564
16714656 1 18410572885856088254
16945 1 18410575084663078918
193761 8 17618222149059816387
21040471 1 18266741277111576453
23235685 24 18410859858174731372
23402655 69 18193857040310994717
23552423 10 18056480547825095654
2748010 2 18122343471560786012
29004967 10 18343858931187725441
5084963 1 18333449850128044800

> <PUBCHEM_SHAPE_MULTIPOLES>
166.51
3.68
1.34
0.62
0.57
0
0
0
0
-0.03
0
0.02
0
0

> <PUBCHEM_SHAPE_SELFOVERLAP>
333.013

> <PUBCHEM_SHAPE_VOLUME>
95.4

> <PUBCHEM_COORDINATE_TYPE>
2
5
10

$$$$

