582841
  -OEChem-06241222443D

 25 25  0     1  0  0  0  0  0999 V2000
    1.6982   -0.9038   -1.4487 F   0  0  0  0  0  0  0  0  0  0  0  0
    1.5720   -1.7502    1.1724 F   0  0  0  0  0  0  0  0  0  0  0  0
    2.8540   -0.0912    1.7728 F   0  0  0  0  0  0  0  0  0  0  0  0
    3.6017   -1.5944    0.3850 F   0  0  0  0  0  0  0  0  0  0  0  0
    3.0474    0.8100   -0.8443 O   0  0  0  0  0  0  0  0  0  0  0  0
    0.8844    1.8664    0.5115 O   0  0  0  0  0  0  0  0  0  0  0  0
   -3.0158   -1.5162   -0.6650 O   0  0  0  0  0  0  0  0  0  0  0  0
   -3.3850    1.5778    0.7826 O   0  0  0  0  0  0  0  0  0  0  0  0
   -0.4050    0.0369   -0.2013 N   0  0  0  0  0  0  0  0  0  0  0  0
   -1.9942    1.6026    0.6625 N   0  0  0  0  0  0  0  0  0  0  0  0
   -3.9136    0.3843    0.2870 N   0  0  0  0  0  0  0  0  0  0  0  0
    1.9934   -0.0497   -0.4271 C   0  0  1  0  0  0  0  0  0  0  0  0
    0.7674    0.7504    0.0139 C   0  0  0  0  0  0  0  0  0  0  0  0
    2.5083   -0.8819    0.7318 C   0  0  0  0  0  0  0  0  0  0  0  0
   -1.7096    0.4405    0.1050 C   0  0  0  0  0  0  0  0  0  0  0  0
   -2.8501   -0.3023   -0.1266 C   0  0  0  0  0  0  0  0  0  0  0  0
    2.7015    1.6477   -1.9396 C   0  0  0  0  0  0  0  0  0  0  0  0
   -4.3550   -2.0270   -0.7719 C   0  0  0  0  0  0  0  0  0  0  0  0
   -0.3330   -0.8849   -0.6260 H   0  0  0  0  0  0  0  0  0  0  0  0
    1.9968    2.4292   -1.6460 H   0  0  0  0  0  0  0  0  0  0  0  0
    2.2920    1.0604   -2.7671 H   0  0  0  0  0  0  0  0  0  0  0  0
    3.6148    2.1383   -2.2884 H   0  0  0  0  0  0  0  0  0  0  0  0
   -4.8094   -2.1332    0.2186 H   0  0  0  0  0  0  0  0  0  0  0  0
   -4.2965   -3.0186   -1.2300 H   0  0  0  0  0  0  0  0  0  0  0  0
   -4.9637   -1.3862   -1.4182 H   0  0  0  0  0  0  0  0  0  0  0  0
  1 12  1  0  0  0  0
  2 14  1  0  0  0  0
  3 14  1  0  0  0  0
  4 14  1  0  0  0  0
  5 12  1  0  0  0  0
  5 17  1  0  0  0  0
  6 13  2  0  0  0  0
  7 16  1  0  0  0  0
  7 18  1  0  0  0  0
  8 10  1  0  0  0  0
  8 11  1  0  0  0  0
  9 13  1  0  0  0  0
  9 15  1  0  0  0  0
  9 19  1  0  0  0  0
 10 15  2  0  0  0  0
 11 16  2  0  0  0  0
 12 13  1  0  0  0  0
 12 14  1  0  0  0  0
 15 16  1  0  0  0  0
 17 20  1  0  0  0  0
 17 21  1  0  0  0  0
 17 22  1  0  0  0  0
 18 23  1  0  0  0  0
 18 24  1  0  0  0  0
 18 25  1  0  0  0  0
M  END
> <PUBCHEM_COMPOUND_CID>
582841

> <PUBCHEM_CONFORMER_RMSD>
0.8

> <PUBCHEM_CONFORMER_DIVERSEORDER>
1
12
18
2
21
8
11
22
20
19
10
14
17
15
3
5
16
6
4
13
7
9

> <PUBCHEM_MMFF94_PARTIAL_CHARGES>
19
1 -0.34
10 -0.41
11 -0.41
12 0.68
13 0.57
14 1.02
15 0.35
16 0.35
17 0.28
18 0.28
19 0.37
2 -0.34
3 -0.34
4 -0.34
5 -0.56
6 -0.57
7 -0.34
8 0.24
9 -0.49

> <PUBCHEM_EFFECTIVE_ROTOR_COUNT>
6

> <PUBCHEM_PHARMACOPHORE_FEATURES>
4
1 5 acceptor
1 6 acceptor
1 9 donor
5 8 10 11 15 16 rings

> <PUBCHEM_HEAVY_ATOM_COUNT>
18

> <PUBCHEM_ATOM_DEF_STEREO_COUNT>
0

> <PUBCHEM_ATOM_UDEF_STEREO_COUNT>
1

> <PUBCHEM_BOND_DEF_STEREO_COUNT>
0

> <PUBCHEM_BOND_UDEF_STEREO_COUNT>
0

> <PUBCHEM_ISOTOPIC_ATOM_COUNT>
0

> <PUBCHEM_COMPONENT_COUNT>
1

> <PUBCHEM_CACTVS_TAUTO_COUNT>
3

> <PUBCHEM_CONFORMER_ID>
0008E4B900000001

> <PUBCHEM_MMFF94_ENERGY>
32.1675

> <PUBCHEM_FEATURE_SELFOVERLAP>
20.302

> <PUBCHEM_SHAPE_FINGERPRINT>
11578080 2 18198368253903011532
12346177 29 18114757022408861229
12553582 1 17897727566171458743
12932764 1 18411414008173043657
13296908 3 16153423956765634101
13538477 17 18335979852216840029
14144814 61 18259981583056808553
14178342 30 18040998496382621723
15375462 189 18412541020391669507
15669948 3 18333445435466043613
16752209 62 18187086135673730351
1813 80 17843679117834790222
18186145 218 14836406951778767949
19422 9 18411978065937675719
20279233 1 17095245851731670639
20281475 54 18410575089295662903
20442098 301 17967254161397891743
20559304 39 18335143050842842548
20645477 70 17418379094799162763
20715346 28 16587742044763865029
21486144 27 16199856307089688141
21499 59 17559096680455474004
21501502 16 18411414003714351245
21501925 9 18187941525396574571
21730867 7 17346590872704565652
2255824 54 17917423237938857866
22646028 28 18411986866447276795
232386 152 18334017211018056399
23557571 272 17895198860561270057
23559900 14 17822564010044426924
23598291 2 18271801349929217581
3082319 5 18272084981164178821
312423 11 18341884178418940031
474 4 17630310953238295140
603831 33 18339922602377450751
6049 1 16370714942104665369
7615 1 18343021103390936461
77492 1 18342452647262885909
88987 49 18186798127698301821

> <PUBCHEM_SHAPE_MULTIPOLES>
302.92
7.48
1.97
1.32
5.05
0.14
-0.21
2.03
-0.86
0.27
0
-1.05
-0.11
-1.92

> <PUBCHEM_SHAPE_SELFOVERLAP>
628.188

> <PUBCHEM_SHAPE_VOLUME>
173.5

> <PUBCHEM_COORDINATE_TYPE>
2
5
10

$$$$

