165849
  -OEChem-07051213112D

 28 31  0     0  0  0  0  0  0999 V2000
    5.4473    2.5193    0.0000 O   0  0  0  0  0  0  0  0  0  0  0  0
    2.0046   -2.5190    0.0000 O   0  0  0  0  0  0  0  0  0  0  0  0
    3.7416    0.4662    0.0000 C   0  0  0  0  0  0  0  0  0  0  0  0
    3.7416   -0.5338    0.0000 C   0  0  0  0  0  0  0  0  0  0  0  0
    2.8755   -1.0338    0.0000 C   0  0  0  0  0  0  0  0  0  0  0  0
    4.6355    1.0009    0.0000 C   0  0  0  0  0  0  0  0  0  0  0  0
    2.8755    0.9662    0.0000 C   0  0  0  0  0  0  0  0  0  0  0  0
    4.6355   -1.0684    0.0000 C   0  0  0  0  0  0  0  0  0  0  0  0
    2.0095   -0.5338    0.0000 C   0  0  0  0  0  0  0  0  0  0  0  0
    5.5416    0.4871    0.0000 C   0  0  0  0  0  0  0  0  0  0  0  0
    5.5416   -0.5546    0.0000 C   0  0  0  0  0  0  0  0  0  0  0  0
    2.0095    0.4662    0.0000 C   0  0  0  0  0  0  0  0  0  0  0  0
    2.8743   -2.0255    0.0000 C   0  0  0  0  0  0  0  0  0  0  0  0
    4.5977    1.9919    0.0000 C   0  0  0  0  0  0  0  0  0  0  0  0
    2.8743    1.9580    0.0000 C   0  0  0  0  0  0  0  0  0  0  0  0
    4.5977   -2.0594    0.0000 C   0  0  0  0  0  0  0  0  0  0  0  0
    3.7263    2.4654    0.0000 C   0  0  0  0  0  0  0  0  0  0  0  0
    3.7263   -2.5329    0.0000 C   0  0  0  0  0  0  0  0  0  0  0  0
    1.4726   -0.8438    0.0000 H   0  0  0  0  0  0  0  0  0  0  0  0
    6.0773    0.7991    0.0000 H   0  0  0  0  0  0  0  0  0  0  0  0
    1.4726    0.7762    0.0000 H   0  0  0  0  0  0  0  0  0  0  0  0
    6.0773   -0.8666    0.0000 H   0  0  0  0  0  0  0  0  0  0  0  0
    2.3351    2.2640    0.0000 H   0  0  0  0  0  0  0  0  0  0  0  0
    5.1245   -2.3864    0.0000 H   0  0  0  0  0  0  0  0  0  0  0  0
    3.7141    3.0853    0.0000 H   0  0  0  0  0  0  0  0  0  0  0  0
    3.7141   -3.1528    0.0000 H   0  0  0  0  0  0  0  0  0  0  0  0
    2.0000   -3.1390    0.0000 H   0  0  0  0  0  0  0  0  0  0  0  0
    5.4275    3.1390    0.0000 H   0  0  0  0  0  0  0  0  0  0  0  0
  1 14  1  0  0  0  0
  1 28  1  0  0  0  0
  2 13  1  0  0  0  0
  2 27  1  0  0  0  0
  3  4  1  0  0  0  0
  3  6  1  0  0  0  0
  3  7  2  0  0  0  0
  4  5  1  0  0  0  0
  4  8  2  0  0  0  0
  5  9  1  0  0  0  0
  5 13  2  0  0  0  0
  6 10  1  0  0  0  0
  6 14  2  0  0  0  0
  7 12  1  0  0  0  0
  7 15  1  0  0  0  0
  8 11  1  0  0  0  0
  8 16  1  0  0  0  0
  9 12  2  0  0  0  0
  9 19  1  0  0  0  0
 10 11  2  0  0  0  0
 10 20  1  0  0  0  0
 11 22  1  0  0  0  0
 12 21  1  0  0  0  0
 13 18  1  0  0  0  0
 14 17  1  0  0  0  0
 15 17  2  0  0  0  0
 15 23  1  0  0  0  0
 16 18  2  0  0  0  0
 16 24  1  0  0  0  0
 17 25  1  0  0  0  0
 18 26  1  0  0  0  0
M  END
> <PUBCHEM_COMPOUND_CID>
165849

> <PUBCHEM_COMPOUND_CANONICALIZED>
1

> <PUBCHEM_CACTVS_COMPLEXITY>
297

> <PUBCHEM_CACTVS_HBOND_ACCEPTOR>
2

> <PUBCHEM_CACTVS_HBOND_DONOR>
2

> <PUBCHEM_CACTVS_ROTATABLE_BOND>
0

> <PUBCHEM_CACTVS_SUBSKEYS>
AAADccB4MAAAAAAAAAAAAAAAAAAAAAAAAAAwYMGAAAAAAADBVAAAGgAACAAADASAmAAwBsAAAgCAAiBCAAACAAAgIAAIiAAGCIgIJiKCERKAcAAkwBEImAeAwPAO4AADAAAYAADAAAYAADAAAAAAAAAAAA==

> <PUBCHEM_IUPAC_OPENEYE_NAME>
pyrene-1,6-diol

> <PUBCHEM_IUPAC_CAS_NAME>
pyrene-1,6-diol

> <PUBCHEM_IUPAC_NAME>
pyrene-1,6-diol

> <PUBCHEM_IUPAC_SYSTEMATIC_NAME>
pyrene-1,6-diol

> <PUBCHEM_IUPAC_TRADITIONAL_NAME>
pyrene-1,6-diol

> <PUBCHEM_IUPAC_INCHI>
InChI=1S/C16H10O2/c17-13-8-4-10-2-6-12-14(18)7-3-9-1-5-11(13)16(10)15(9)12/h1-8,17-18H

> <PUBCHEM_IUPAC_INCHIKEY>
RQJSAJJBBSJUFF-UHFFFAOYSA-N

> <PUBCHEM_XLOGP3_AA>
4.3

> <PUBCHEM_EXACT_MASS>
234.06808

> <PUBCHEM_MOLECULAR_FORMULA>
C16H10O2

> <PUBCHEM_MOLECULAR_WEIGHT>
234.2494

> <PUBCHEM_OPENEYE_CAN_SMILES>
C1=CC2=C(C=CC3=C2C4=C1C=CC(=C4C=C3)O)O

> <PUBCHEM_OPENEYE_ISO_SMILES>
C1=CC2=C(C=CC3=C2C4=C1C=CC(=C4C=C3)O)O

> <PUBCHEM_CACTVS_TPSA>
40.5

> <PUBCHEM_MONOISOTOPIC_WEIGHT>
234.06808

> <PUBCHEM_TOTAL_CHARGE>
0

> <PUBCHEM_HEAVY_ATOM_COUNT>
18

> <PUBCHEM_ATOM_DEF_STEREO_COUNT>
0

> <PUBCHEM_ATOM_UDEF_STEREO_COUNT>
0

> <PUBCHEM_BOND_DEF_STEREO_COUNT>
0

> <PUBCHEM_BOND_UDEF_STEREO_COUNT>
0

> <PUBCHEM_ISOTOPIC_ATOM_COUNT>
0

> <PUBCHEM_COMPONENT_COUNT>
1

> <PUBCHEM_CACTVS_TAUTO_COUNT>
4

> <PUBCHEM_COORDINATE_TYPE>
1
5
255

> <PUBCHEM_BONDANNOTATIONS>
10  11  8
13  18  8
14  17  8
15  17  8
16  18  8
3  4  8
3  6  8
3  7  8
4  5  8
4  8  8
5  13  8
5  9  8
6  10  8
6  14  8
7  12  8
7  15  8
8  11  8
8  16  8
9  12  8

$$$$

