159296
  -OEChem-07051212432D

 42 44  0     1  0  0  0  0  0999 V2000
    6.6619    2.5149    0.0000 P   0  0  0  0  0  0  0  0  0  0  0  0
    3.4116    3.3573    0.0000 P   0  0  0  0  0  0  0  0  0  0  0  0
    4.4150    0.4365    0.0000 O   0  0  0  0  0  0  0  0  0  0  0  0
    6.7647    1.5202    0.0000 O   0  0  0  0  0  0  0  0  0  0  0  0
    6.7609   -0.6554    0.0000 O   0  0  0  0  0  0  0  0  0  0  0  0
    3.7190    2.4057    0.0000 O   0  0  0  0  0  0  0  0  0  0  0  0
    6.5591    3.5096    0.0000 O   0  0  0  0  0  0  0  0  0  0  0  0
    7.6566    2.6177    0.0000 O   0  0  0  0  0  0  0  0  0  0  0  0
    5.6672    2.4121    0.0000 O   0  0  0  0  0  0  0  0  0  0  0  0
    3.1042    4.3088    0.0000 O   0  0  0  0  0  0  0  0  0  0  0  0
    2.4600    3.0499    0.0000 O   0  0  0  0  0  0  0  0  0  0  0  0
    4.3632    3.6646    0.0000 O   0  0  0  0  0  0  0  0  0  0  0  0
    4.6907   -1.3241    0.0000 N   0  0  0  0  0  0  0  0  0  0  0  0
    4.6907   -2.9335    0.0000 N   0  0  0  0  0  0  0  0  0  0  0  0
    2.8784   -1.1288    0.0000 N   0  0  0  0  0  0  0  0  0  0  0  0
    2.0124   -2.6288    0.0000 N   0  0  0  0  0  0  0  0  0  0  0  0
    2.8784   -4.1288    0.0000 N   0  0  0  0  0  0  0  0  0  0  0  0
    5.9547    0.9338    0.0000 C   0  0  1  0  0  0  0  0  0  0  0  0
    5.9529   -0.0662    0.0000 C   0  0  2  0  0  0  0  0  0  0  0  0
    5.0042    1.2445    0.0000 C   0  0  1  0  0  0  0  0  0  0  0  0
    5.0014   -0.3736    0.0000 C   0  0  1  0  0  0  0  0  0  0  0  0
    4.6968    2.1961    0.0000 C   0  0  0  0  0  0  0  0  0  0  0  0
    3.7445   -1.6288    0.0000 C   0  0  0  0  0  0  0  0  0  0  0  0
    5.2743   -2.1288    0.0000 C   0  0  0  0  0  0  0  0  0  0  0  0
    3.7445   -2.6288    0.0000 C   0  0  0  0  0  0  0  0  0  0  0  0
    2.8784   -3.1288    0.0000 C   0  0  0  0  0  0  0  0  0  0  0  0
    2.0124   -1.6288    0.0000 C   0  0  0  0  0  0  0  0  0  0  0  0
    5.8587    1.5463    0.0000 H   0  0  0  0  0  0  0  0  0  0  0  0
    6.5058    0.2143    0.0000 H   0  0  0  0  0  0  0  0  0  0  0  0
    4.3919    1.3425    0.0000 H   0  0  0  0  0  0  0  0  0  0  0  0
    4.3888   -0.4695    0.0000 H   0  0  0  0  0  0  0  0  0  0  0  0
    5.3109    2.2813    0.0000 H   0  0  0  0  0  0  0  0  0  0  0  0
    4.7195    2.8157    0.0000 H   0  0  0  0  0  0  0  0  0  0  0  0
    7.3278   -0.4042    0.0000 H   0  0  0  0  0  0  0  0  0  0  0  0
    5.8943   -2.1288    0.0000 H   0  0  0  0  0  0  0  0  0  0  0  0
    1.4755   -1.3188    0.0000 H   0  0  0  0  0  0  0  0  0  0  0  0
    8.0201    2.1155    0.0000 H   0  0  0  0  0  0  0  0  0  0  0  0
    7.0613    3.8732    0.0000 H   0  0  0  0  0  0  0  0  0  0  0  0
    2.3415   -4.4388    0.0000 H   0  0  0  0  0  0  0  0  0  0  0  0
    3.4154   -4.4388    0.0000 H   0  0  0  0  0  0  0  0  0  0  0  0
    2.0000    3.4656    0.0000 H   0  0  0  0  0  0  0  0  0  0  0  0
    2.4980    4.4388    0.0000 H   0  0  0  0  0  0  0  0  0  0  0  0
  1  4  1  0  0  0  0
  1  7  1  0  0  0  0
  1  8  1  0  0  0  0
  1  9  2  0  0  0  0
  2  6  1  0  0  0  0
  2 10  1  0  0  0  0
  2 11  1  0  0  0  0
  2 12  2  0  0  0  0
  3 20  1  0  0  0  0
  3 21  1  0  0  0  0
 18  4  1  1  0  0  0
 19  5  1  1  0  0  0
  5 34  1  0  0  0  0
  6 22  1  0  0  0  0
  7 38  1  0  0  0  0
  8 37  1  0  0  0  0
 10 42  1  0  0  0  0
 11 41  1  0  0  0  0
 21 13  1  6  0  0  0
 13 23  1  0  0  0  0
 13 24  1  0  0  0  0
 14 24  2  0  0  0  0
 14 25  1  0  0  0  0
 15 23  2  0  0  0  0
 15 27  1  0  0  0  0
 16 26  1  0  0  0  0
 16 27  2  0  0  0  0
 17 26  1  0  0  0  0
 17 39  1  0  0  0  0
 17 40  1  0  0  0  0
 18 19  1  0  0  0  0
 18 20  1  0  0  0  0
 18 28  1  0  0  0  0
 19 21  1  0  0  0  0
 19 29  1  0  0  0  0
 20 22  1  6  0  0  0
 20 30  1  0  0  0  0
 21 31  1  0  0  0  0
 22 32  1  0  0  0  0
 22 33  1  0  0  0  0
 23 25  1  0  0  0  0
 24 35  1  0  0  0  0
 25 26  2  0  0  0  0
 27 36  1  0  0  0  0
M  END
> <PUBCHEM_COMPOUND_CID>
159296

> <PUBCHEM_COMPOUND_CANONICALIZED>
1

> <PUBCHEM_CACTVS_COMPLEXITY>
632

> <PUBCHEM_CACTVS_HBOND_ACCEPTOR>
14

> <PUBCHEM_CACTVS_HBOND_DONOR>
6

> <PUBCHEM_CACTVS_ROTATABLE_BOND>
6

> <PUBCHEM_CACTVS_SUBSKEYS>
AAADccBzvAMAAAAAAAAAAAAAAAAAAWJAAAAsAAAAAAAAAFgB+AAAHgAQCCAACBzhlwYF8L9MFxCgQQZhZICAgC0REKABUCAoVBCDWAJAyEAeRAgPAALTACDwMAIAAAAAAAAAAAAAAAAAAAAAAAAAAAAAAA==

> <PUBCHEM_IUPAC_OPENEYE_NAME>
[(2R,3S,4R,5R)-5-(6-aminopurin-9-yl)-4-hydroxy-2-(phosphonooxymethyl)tetrahydrofuran-3-yl] dihydrogen phosphate

> <PUBCHEM_IUPAC_CAS_NAME>
[(2R,3S,4R,5R)-5-(6-aminopurin-9-yl)-4-hydroxy-2-(phosphonooxymethyl)-3-oxolanyl] dihydrogen phosphate

> <PUBCHEM_IUPAC_NAME>
[(2R,3S,4R,5R)-5-(6-aminopurin-9-yl)-4-hydroxy-2-(phosphonooxymethyl)oxolan-3-yl] dihydrogen phosphate

> <PUBCHEM_IUPAC_SYSTEMATIC_NAME>
[(2R,3S,4R,5R)-5-(6-aminopurin-9-yl)-4-oxidanyl-2-(phosphonooxymethyl)oxolan-3-yl] dihydrogen phosphate

> <PUBCHEM_IUPAC_TRADITIONAL_NAME>
[(2R,3S,4R,5R)-5-adenin-9-yl-4-hydroxy-2-(phosphonooxymethyl)tetrahydrofuran-3-yl] dihydrogen phosphate

> <PUBCHEM_IUPAC_INCHI>
InChI=1S/C10H15N5O10P2/c11-8-5-9(13-2-12-8)15(3-14-5)10-6(16)7(25-27(20,21)22)4(24-10)1-23-26(17,18)19/h2-4,6-7,10,16H,1H2,(H2,11,12,13)(H2,17,18,19)(H2,20,21,22)/t4-,6-,7-,10-/m1/s1

> <PUBCHEM_IUPAC_INCHIKEY>
WHTCPDAXWFLDIH-KQYNXXCUSA-N

> <PUBCHEM_XLOGP3>
-4.6

> <PUBCHEM_EXACT_MASS>
427.029415

> <PUBCHEM_MOLECULAR_FORMULA>
C10H15N5O10P2

> <PUBCHEM_MOLECULAR_WEIGHT>
427.201124

> <PUBCHEM_OPENEYE_CAN_SMILES>
C1=NC2=C(C(=N1)N)N=CN2C3C(C(C(O3)COP(=O)(O)O)OP(=O)(O)O)O

> <PUBCHEM_OPENEYE_ISO_SMILES>
C1=NC2=C(C(=N1)N)N=CN2[C@H]3[C@@H]([C@@H]([C@H](O3)COP(=O)(O)O)OP(=O)(O)O)O

> <PUBCHEM_CACTVS_TPSA>
233

> <PUBCHEM_MONOISOTOPIC_WEIGHT>
427.029415

> <PUBCHEM_TOTAL_CHARGE>
0

> <PUBCHEM_HEAVY_ATOM_COUNT>
27

> <PUBCHEM_ATOM_DEF_STEREO_COUNT>
4

> <PUBCHEM_ATOM_UDEF_STEREO_COUNT>
0

> <PUBCHEM_BOND_DEF_STEREO_COUNT>
0

> <PUBCHEM_BOND_UDEF_STEREO_COUNT>
0

> <PUBCHEM_ISOTOPIC_ATOM_COUNT>
0

> <PUBCHEM_COMPONENT_COUNT>
1

> <PUBCHEM_CACTVS_TAUTO_COUNT>
3

> <PUBCHEM_COORDINATE_TYPE>
1
5
255

> <PUBCHEM_BONDANNOTATIONS>
21  13  6
13  23  8
13  24  8
14  24  8
14  25  8
15  23  8
15  27  8
16  26  8
16  27  8
20  22  6
23  25  8
25  26  8
18  4  5
19  5  5

$$$$

