5280733
  -OEChem-07051212493D

 55 54  0     1  0  0  0  0  0999 V2000
    1.9618    2.2321   -2.6235 O   0  0  0  0  0  0  0  0  0  0  0  0
    5.1659   -0.0030    1.5147 O   0  0  0  0  0  0  0  0  0  0  0  0
    6.3681   -0.3947   -0.3736 O   0  0  0  0  0  0  0  0  0  0  0  0
   -2.3638   -2.8141   -0.7926 C   0  0  0  0  0  0  0  0  0  0  0  0
   -1.2113   -3.4284    0.0109 C   0  0  0  0  0  0  0  0  0  0  0  0
    3.0406    0.5262   -1.3165 C   0  0  0  0  0  0  0  0  0  0  0  0
    2.9038   -0.6063   -0.2927 C   0  0  0  0  0  0  0  0  0  0  0  0
   -3.5104   -2.2224    0.0345 C   0  0  0  0  0  0  0  0  0  0  0  0
   -0.5148   -2.4851    0.9945 C   0  0  0  0  0  0  0  0  0  0  0  0
    1.7432    1.3154   -1.5513 C   0  0  1  0  0  0  0  0  0  0  0  0
    4.1905   -1.4142   -0.1428 C   0  0  0  0  0  0  0  0  0  0  0  0
   -4.6410   -1.7054   -0.8078 C   0  0  0  0  0  0  0  0  0  0  0  0
    0.5912   -3.1528    1.7967 C   0  0  0  0  0  0  0  0  0  0  0  0
    1.2703    2.0431   -0.3191 C   0  0  0  0  0  0  0  0  0  0  0  0
   -4.6736   -0.4654   -1.3175 C   0  0  0  0  0  0  0  0  0  0  0  0
   -3.5974    0.5604   -1.1171 C   0  0  0  0  0  0  0  0  0  0  0  0
    5.3577   -0.5658    0.2961 C   0  0  0  0  0  0  0  0  0  0  0  0
    0.0818    1.8921    0.2867 C   0  0  0  0  0  0  0  0  0  0  0  0
   -4.1028    1.7515   -0.3559 C   0  0  0  0  0  0  0  0  0  0  0  0
   -2.6045    1.5848    1.6971 C   0  0  0  0  0  0  0  0  0  0  0  0
   -0.2958    2.6500    1.4594 C   0  0  0  0  0  0  0  0  0  0  0  0
   -3.6802    2.1891    0.8411 C   0  0  0  0  0  0  0  0  0  0  0  0
   -1.4793    2.5128    2.0787 C   0  0  0  0  0  0  0  0  0  0  0  0
   -1.9484   -2.0381   -1.4479 H   0  0  0  0  0  0  0  0  0  0  0  0
   -2.7652   -3.5902   -1.4575 H   0  0  0  0  0  0  0  0  0  0  0  0
   -0.4675   -3.8196   -0.6944 H   0  0  0  0  0  0  0  0  0  0  0  0
   -1.5980   -4.2934    0.5645 H   0  0  0  0  0  0  0  0  0  0  0  0
    3.3773    0.1065   -2.2738 H   0  0  0  0  0  0  0  0  0  0  0  0
    3.8308    1.2251   -1.0126 H   0  0  0  0  0  0  0  0  0  0  0  0
    2.1022   -1.2836   -0.6087 H   0  0  0  0  0  0  0  0  0  0  0  0
    2.6141   -0.1977    0.6821 H   0  0  0  0  0  0  0  0  0  0  0  0
   -3.9153   -3.0054    0.6887 H   0  0  0  0  0  0  0  0  0  0  0  0
   -3.1497   -1.4461    0.7148 H   0  0  0  0  0  0  0  0  0  0  0  0
   -0.1014   -1.6309    0.4468 H   0  0  0  0  0  0  0  0  0  0  0  0
   -1.2445   -2.0821    1.7049 H   0  0  0  0  0  0  0  0  0  0  0  0
    0.9623    0.6220   -1.8876 H   0  0  0  0  0  0  0  0  0  0  0  0
    4.0576   -2.2202    0.5874 H   0  0  0  0  0  0  0  0  0  0  0  0
    4.4507   -1.8876   -1.0966 H   0  0  0  0  0  0  0  0  0  0  0  0
   -5.4596   -2.3862   -1.0239 H   0  0  0  0  0  0  0  0  0  0  0  0
    0.1965   -3.9821    2.3920 H   0  0  0  0  0  0  0  0  0  0  0  0
    1.0544   -2.4325    2.4782 H   0  0  0  0  0  0  0  0  0  0  0  0
    1.3701   -3.5443    1.1347 H   0  0  0  0  0  0  0  0  0  0  0  0
    1.9775    2.7651    0.0882 H   0  0  0  0  0  0  0  0  0  0  0  0
   -5.5276   -0.1810   -1.9278 H   0  0  0  0  0  0  0  0  0  0  0  0
   -2.6882    0.1454   -0.6839 H   0  0  0  0  0  0  0  0  0  0  0  0
   -3.2911    0.9123   -2.1112 H   0  0  0  0  0  0  0  0  0  0  0  0
   -0.6180    1.1782   -0.1311 H   0  0  0  0  0  0  0  0  0  0  0  0
    2.2000    1.7135   -3.4109 H   0  0  0  0  0  0  0  0  0  0  0  0
   -4.8969    2.3201   -0.8381 H   0  0  0  0  0  0  0  0  0  0  0  0
   -2.2064    0.6571    1.2813 H   0  0  0  0  0  0  0  0  0  0  0  0
   -3.0821    1.2663    2.6341 H   0  0  0  0  0  0  0  0  0  0  0  0
    0.4177    3.3700    1.8514 H   0  0  0  0  0  0  0  0  0  0  0  0
   -4.1704    3.0714    1.2497 H   0  0  0  0  0  0  0  0  0  0  0  0
   -1.6657    3.1463    2.9445 H   0  0  0  0  0  0  0  0  0  0  0  0
    5.9290    0.5501    1.7869 H   0  0  0  0  0  0  0  0  0  0  0  0
  1 10  1  0  0  0  0
  1 48  1  0  0  0  0
  2 17  1  0  0  0  0
  2 55  1  0  0  0  0
  3 17  2  0  0  0  0
  4  5  1  0  0  0  0
  4  8  1  0  0  0  0
  4 24  1  0  0  0  0
  4 25  1  0  0  0  0
  5  9  1  0  0  0  0
  5 26  1  0  0  0  0
  5 27  1  0  0  0  0
  6  7  1  0  0  0  0
  6 10  1  0  0  0  0
  6 28  1  0  0  0  0
  6 29  1  0  0  0  0
  7 11  1  0  0  0  0
  7 30  1  0  0  0  0
  7 31  1  0  0  0  0
  8 12  1  0  0  0  0
  8 32  1  0  0  0  0
  8 33  1  0  0  0  0
  9 13  1  0  0  0  0
  9 34  1  0  0  0  0
  9 35  1  0  0  0  0
 10 14  1  0  0  0  0
 10 36  1  0  0  0  0
 11 17  1  0  0  0  0
 11 37  1  0  0  0  0
 11 38  1  0  0  0  0
 12 15  2  0  0  0  0
 12 39  1  0  0  0  0
 13 40  1  0  0  0  0
 13 41  1  0  0  0  0
 13 42  1  0  0  0  0
 14 18  2  0  0  0  0
 14 43  1  0  0  0  0
 15 16  1  0  0  0  0
 15 44  1  0  0  0  0
 16 19  1  0  0  0  0
 16 45  1  0  0  0  0
 16 46  1  0  0  0  0
 18 21  1  0  0  0  0
 18 47  1  0  0  0  0
 19 22  2  0  0  0  0
 19 49  1  0  0  0  0
 20 22  1  0  0  0  0
 20 23  1  0  0  0  0
 20 50  1  0  0  0  0
 20 51  1  0  0  0  0
 21 23  2  0  0  0  0
 21 52  1  0  0  0  0
 22 53  1  0  0  0  0
 23 54  1  0  0  0  0
M  END
> <PUBCHEM_COMPOUND_CID>
5280733

> <PUBCHEM_CONFORMER_RMSD>
1.4

> <PUBCHEM_CONFORMER_DIVERSEORDER>
1
28
46
7
132
33
123
95
143
88
56
104
93
66
61
30
113
22
120
117
50
54
74
6
63
105
131
135
38
20
129
44
83
58
55
21
122
75
107
121
39
45
3
62
85
35
90
138
86
144
65
108
11
26
36
139
79
145
130
97
49
2
82
24
111
14
40
134
89
72
91
127
100
118
59
128
17
119
137
133
12
84
112
99
8
110
77
81
57
101
92
9
53
5
126
114
69
37
15
140
13
31
52
116
23
67
27
96
136
48
142
70
124
103
25
43
146
47
73
94
41
10
125
141
19
64
68
102
115
76
109
16
106
42
60
78
98
87
18
51
29
80
71
4
32
34

> <PUBCHEM_MMFF94_PARTIAL_CHARGES>
27
1 -0.68
10 0.42
11 0.06
12 -0.29
14 -0.29
15 -0.29
16 0.28
17 0.66
18 -0.15
19 -0.29
2 -0.65
20 0.28
21 -0.15
22 -0.29
23 -0.29
3 -0.57
39 0.15
43 0.15
44 0.15
47 0.15
48 0.4
49 0.15
52 0.15
53 0.15
54 0.15
55 0.5
8 0.14

> <PUBCHEM_EFFECTIVE_ROTOR_COUNT>
14

> <PUBCHEM_PHARMACOPHORE_FEATURES>
7
1 1 acceptor
1 1 donor
1 13 hydrophobe
1 2 acceptor
1 3 acceptor
3 2 3 17 anion
5 4 5 8 9 12 hydrophobe

> <PUBCHEM_HEAVY_ATOM_COUNT>
23

> <PUBCHEM_ATOM_DEF_STEREO_COUNT>
1

> <PUBCHEM_ATOM_UDEF_STEREO_COUNT>
0

> <PUBCHEM_BOND_DEF_STEREO_COUNT>
4

> <PUBCHEM_BOND_UDEF_STEREO_COUNT>
0

> <PUBCHEM_ISOTOPIC_ATOM_COUNT>
0

> <PUBCHEM_COMPONENT_COUNT>
1

> <PUBCHEM_CACTVS_TAUTO_COUNT>
1

> <PUBCHEM_CONFORMER_ID>
005093DD00000001

> <PUBCHEM_MMFF94_ENERGY>
15.1888

> <PUBCHEM_FEATURE_SELFOVERLAP>
35.578

> <PUBCHEM_SHAPE_FINGERPRINT>
10708813 3 18270963556703156935
12712778 12 18336278859281591298
12788726 201 18190440697745772038
13111901 51 17628339490799437716
1361 2 15674937760604010421
13615921 28 18187944854064937605
13947920 75 18412265064975747322
14251740 79 18412825750927430731
14840074 17 18128532858800315048
14931854 50 18338528516334091519
15297060 5 17896319288938578611
16120349 306 18266458900281515427
161222 10 18192130797610337524
20765182 5 18335423490864349304
5326457 24 18199750254599373372

> <PUBCHEM_SHAPE_MULTIPOLES>
455.72
11.19
4.4
1.95
11.22
1.85
0.01
2.17
2.15
-3.29
-1.51
0.11
-0.95
-2.06

> <PUBCHEM_SHAPE_SELFOVERLAP>
861.425

> <PUBCHEM_SHAPE_VOLUME>
279.2

> <PUBCHEM_COORDINATE_TYPE>
2
5
10

$$$$

