23663973
  -OEChem-07051213042D

 26 26  0     1  0  0  0  0  0999 V2000
    4.6650    1.6561    0.0000 S   0  0  0  0  0  0  0  0  0  0  0  0
    4.6139   -2.6072    0.0000 Na  0  3  0  0  0  0  0  0  0  0  0  0
    4.3560    2.6072    0.0000 O   0  0  0  0  0  0  0  0  0  0  0  0
    5.4740    2.2439    0.0000 O   0  0  0  0  0  0  0  0  0  0  0  0
    2.0000   -0.3656    0.0000 O   0  0  0  0  0  0  0  0  0  0  0  0
    4.3049   -1.6561    0.0000 O   0  5  0  0  0  0  0  0  0  0  0  0
    5.9521   -1.1209    0.0000 O   0  0  0  0  0  0  0  0  0  0  0  0
    3.7139    0.3471    0.0000 N   0  0  0  0  0  0  0  0  0  0  0  0
    5.2528    0.8471    0.0000 C   0  0  0  0  0  0  0  0  0  0  0  0
    3.7139    1.3471    0.0000 C   0  0  1  0  0  0  0  0  0  0  0  0
    4.6650    0.0381    0.0000 C   0  0  2  0  0  0  0  0  0  0  0  0
    2.7056    1.3512    0.0000 C   0  0  0  0  0  0  0  0  0  0  0  0
    2.7056    0.3430    0.0000 C   0  0  0  0  0  0  0  0  0  0  0  0
    6.0618    0.2593    0.0000 C   0  0  0  0  0  0  0  0  0  0  0  0
    6.0618    1.4349    0.0000 C   0  0  0  0  0  0  0  0  0  0  0  0
    4.9740   -0.9130    0.0000 C   0  0  0  0  0  0  0  0  0  0  0  0
    3.5827    2.1869    0.0000 H   0  0  0  0  0  0  0  0  0  0  0  0
    4.2266   -0.4003    0.0000 H   0  0  0  0  0  0  0  0  0  0  0  0
    2.7074    1.9712    0.0000 H   0  0  0  0  0  0  0  0  0  0  0  0
    2.0856    1.3521    0.0000 H   0  0  0  0  0  0  0  0  0  0  0  0
    6.4262    0.9333    0.0000 H   0  0  0  0  0  0  0  0  0  0  0  0
    6.5634    1.7993    0.0000 H   0  0  0  0  0  0  0  0  0  0  0  0
    5.6974    1.9365    0.0000 H   0  0  0  0  0  0  0  0  0  0  0  0
    5.6974   -0.2423    0.0000 H   0  0  0  0  0  0  0  0  0  0  0  0
    6.5634   -0.1051    0.0000 H   0  0  0  0  0  0  0  0  0  0  0  0
    6.4262    0.7609    0.0000 H   0  0  0  0  0  0  0  0  0  0  0  0
  1  3  2  0  0  0  0
  1  4  2  0  0  0  0
  1  9  1  0  0  0  0
  1 10  1  0  0  0  0
  5 13  2  0  0  0  0
  6 16  1  0  0  0  0
  7 16  2  0  0  0  0
  8 10  1  0  0  0  0
  8 11  1  0  0  0  0
  8 13  1  0  0  0  0
  9 11  1  0  0  0  0
  9 14  1  0  0  0  0
  9 15  1  0  0  0  0
 10 12  1  0  0  0  0
 10 17  1  6  0  0  0
 11 16  1  6  0  0  0
 11 18  1  0  0  0  0
 12 13  1  0  0  0  0
 12 19  1  0  0  0  0
 12 20  1  0  0  0  0
 14 24  1  0  0  0  0
 14 25  1  0  0  0  0
 14 26  1  0  0  0  0
 15 21  1  0  0  0  0
 15 22  1  0  0  0  0
 15 23  1  0  0  0  0
M  CHG  2   2   1   6  -1
M  END
> <PUBCHEM_COMPOUND_CID>
23663973

> <PUBCHEM_COMPOUND_CANONICALIZED>
1

> <PUBCHEM_CACTVS_COMPLEXITY>
452

> <PUBCHEM_CACTVS_HBOND_ACCEPTOR>
5

> <PUBCHEM_CACTVS_HBOND_DONOR>
0

> <PUBCHEM_CACTVS_ROTATABLE_BOND>
1

> <PUBCHEM_CACTVS_SUBSKEYS>
AAADccByOCBAAAAAAAAAAAAAAABYAWAAAAAAAAAABYAAAAAAAAAAHgQAAAAADCjFwASCCAMAAAoIAAGQGHBIAABAABAAAAGIAAACABggACAEAAAEBgCwAAAAAAAIAAAAAAAAAAAAAAAAAAAAAAAAAAAAAA==

> <PUBCHEM_IUPAC_OPENEYE_NAME>
sodium (2S,5R)-3,3-dimethyl-4,4,7-trioxo-4$l^{6}-thia-1-azabicyclo[3.2.0]heptane-2-carboxylate

> <PUBCHEM_IUPAC_CAS_NAME>
sodium (2S,5R)-3,3-dimethyl-4,4,7-trioxo-4$l^{6}-thia-1-azabicyclo[3.2.0]heptane-2-carboxylate

> <PUBCHEM_IUPAC_NAME>
sodium (2S,5R)-3,3-dimethyl-4,4,7-trioxo-4$l^{6}-thia-1-azabicyclo[3.2.0]heptane-2-carboxylate

> <PUBCHEM_IUPAC_SYSTEMATIC_NAME>
sodium (2S,5R)-3,3-dimethyl-4,4,7-tris(oxidanylidene)-4$l^{6}-thia-1-azabicyclo[3.2.0]heptane-2-carboxylate

> <PUBCHEM_IUPAC_TRADITIONAL_NAME>
sodium (2S,5R)-4,4,7-triketo-3,3-dimethyl-4$l^{6}-thia-1-azabicyclo[3.2.0]heptane-2-carboxylate

> <PUBCHEM_IUPAC_INCHI>
InChI=1S/C8H11NO5S.Na/c1-8(2)6(7(11)12)9-4(10)3-5(9)15(8,13)14;/h5-6H,3H2,1-2H3,(H,11,12);/q;+1/p-1/t5-,6+;/m1./s1

> <PUBCHEM_IUPAC_INCHIKEY>
NKZMPZCWBSWAOX-IBTYICNHSA-M

> <PUBCHEM_EXACT_MASS>
255.017738

> <PUBCHEM_MOLECULAR_FORMULA>
C8H10NNaO5S

> <PUBCHEM_MOLECULAR_WEIGHT>
255.223469

> <PUBCHEM_OPENEYE_CAN_SMILES>
CC1(C(N2C(S1(=O)=O)CC2=O)C(=O)[O-])C.[Na+]

> <PUBCHEM_OPENEYE_ISO_SMILES>
CC1([C@@H](N2[C@H](S1(=O)=O)CC2=O)C(=O)[O-])C.[Na+]

> <PUBCHEM_CACTVS_TPSA>
103

> <PUBCHEM_MONOISOTOPIC_WEIGHT>
255.017738

> <PUBCHEM_TOTAL_CHARGE>
0

> <PUBCHEM_HEAVY_ATOM_COUNT>
16

> <PUBCHEM_ATOM_DEF_STEREO_COUNT>
2

> <PUBCHEM_ATOM_UDEF_STEREO_COUNT>
0

> <PUBCHEM_BOND_DEF_STEREO_COUNT>
0

> <PUBCHEM_BOND_UDEF_STEREO_COUNT>
0

> <PUBCHEM_ISOTOPIC_ATOM_COUNT>
0

> <PUBCHEM_COMPONENT_COUNT>
2

> <PUBCHEM_CACTVS_TAUTO_COUNT>
2

> <PUBCHEM_NONSTANDARDBOND>
2  6  7

> <PUBCHEM_COORDINATE_TYPE>
1
5
255

> <PUBCHEM_BONDANNOTATIONS>
10  17  6
11  16  6

$$$$

