8873
  -OEChem-06261203122D

 17 15  0     0  0  0  0  0  0999 V2000
    4.9708    0.9702    0.0000 Zn  0  2  0  0  0  0  0  0  0  0  0  0
    5.3129    0.0305    0.0000 S   0  5  0  0  0  0  0  0  0  0  0  0
    4.1048    1.4702    0.0000 S   0  5  0  0  0  0  0  0  0  0  0  0
    5.7369   -1.5520    0.0000 S   0  0  0  0  0  0  0  0  0  0  0  0
    2.6200    2.1626    0.0000 S   0  0  0  0  0  0  0  0  0  0  0  0
    4.1048   -1.4092    0.0000 N   0  0  0  0  0  0  0  0  0  0  0  0
    2.4772    0.5305    0.0000 N   0  0  0  0  0  0  0  0  0  0  0  0
    3.1200   -1.2355    0.0000 C   0  0  0  0  0  0  0  0  0  0  0  0
    2.4772   -0.4695    0.0000 C   0  0  0  0  0  0  0  0  0  0  0  0
    4.9708   -0.9092    0.0000 C   0  0  0  0  0  0  0  0  0  0  0  0
    3.1200    1.2965    0.0000 C   0  0  0  0  0  0  0  0  0  0  0  0
    2.5507   -1.4811    0.0000 H   0  0  0  0  0  0  0  0  0  0  0  0
    3.1920   -1.8514    0.0000 H   0  0  0  0  0  0  0  0  0  0  0  0
    1.8833   -0.2917    0.0000 H   0  0  0  0  0  0  0  0  0  0  0  0
    2.1365   -0.9875    0.0000 H   0  0  0  0  0  0  0  0  0  0  0  0
    5.6292   -2.1626    0.0000 H   0  0  0  0  0  0  0  0  0  0  0  0
    2.0000    2.1626    0.0000 H   0  0  0  0  0  0  0  0  0  0  0  0
  2 10  1  0  0  0  0
  3 11  1  0  0  0  0
  4 10  1  0  0  0  0
  4 16  1  0  0  0  0
  5 11  1  0  0  0  0
  5 17  1  0  0  0  0
  6  8  1  0  0  0  0
  6 10  2  0  0  0  0
  7  9  1  0  0  0  0
  7 11  2  0  0  0  0
  8  9  1  0  0  0  0
  8 12  1  0  0  0  0
  8 13  1  0  0  0  0
  9 14  1  0  0  0  0
  9 15  1  0  0  0  0
M  CHG  3   1   2   2  -1   3  -1
M  END
> <PUBCHEM_COMPOUND_CID>
8873

> <PUBCHEM_COMPOUND_CANONICALIZED>
1

> <PUBCHEM_CACTVS_COMPLEXITY>
140

> <PUBCHEM_CACTVS_HBOND_ACCEPTOR>
6

> <PUBCHEM_CACTVS_HBOND_DONOR>
2

> <PUBCHEM_CACTVS_ROTATABLE_BOND>
0

> <PUBCHEM_CACTVS_SUBSKEYS>
AAADcYBjAABwAAACAAAAAAAAAAAAAAAAAAAAAAAAAAAAAEAAAAAAHAQAAAAAAADBAAQAAAIAAAQgAAAABAAAEAAAAAAAAAAAAAAAQAAAAAAAAAAAAAAAAAAAAAAAAAAAAAAAAAAAAAAAAAAAAAAAAAAAAA==

> <PUBCHEM_IUPAC_OPENEYE_NAME>
zinc 1-sulfanyl-N-[2-[[sulfanyl(sulfido)methylene]amino]ethyl]methanimidothioate

> <PUBCHEM_IUPAC_CAS_NAME>
zinc 1-mercapto-N-[2-[[mercapto(sulfido)methylidene]amino]ethyl]methanimidothioate

> <PUBCHEM_IUPAC_NAME>
zinc 1-sulfanyl-N-[2-[[sulfanyl(sulfido)methylidene]amino]ethyl]methanimidothioate

> <PUBCHEM_IUPAC_SYSTEMATIC_NAME>
zinc N-[2-[[sulfanidyl(sulfanyl)methylidene]amino]ethyl]-1-sulfanyl-methanimidothioate

> <PUBCHEM_IUPAC_TRADITIONAL_NAME>
zinc 1-mercapto-N-[2-[[mercapto(sulfido)methylene]amino]ethyl]thioformimidate

> <PUBCHEM_IUPAC_INCHI>
InChI=1S/C4H8N2S4.Zn/c7-3(8)5-1-2-6-4(9)10;/h1-2H2,(H2,5,7,8)(H2,6,9,10);/q;+2/p-2

> <PUBCHEM_IUPAC_INCHIKEY>
AMHNZOICSMBGDH-UHFFFAOYSA-L

> <PUBCHEM_EXACT_MASS>
273.870524

> <PUBCHEM_MOLECULAR_FORMULA>
C4H6N2S4Zn

> <PUBCHEM_MOLECULAR_WEIGHT>
275.74384

> <PUBCHEM_OPENEYE_CAN_SMILES>
C(CN=C(S)[S-])N=C(S)[S-].[Zn+2]

> <PUBCHEM_OPENEYE_ISO_SMILES>
C(CN=C(S)[S-])N=C(S)[S-].[Zn+2]

> <PUBCHEM_CACTVS_TPSA>
28.7

> <PUBCHEM_MONOISOTOPIC_WEIGHT>
273.870524

> <PUBCHEM_TOTAL_CHARGE>
0

> <PUBCHEM_HEAVY_ATOM_COUNT>
11

> <PUBCHEM_ATOM_DEF_STEREO_COUNT>
0

> <PUBCHEM_ATOM_UDEF_STEREO_COUNT>
0

> <PUBCHEM_BOND_DEF_STEREO_COUNT>
0

> <PUBCHEM_BOND_UDEF_STEREO_COUNT>
0

> <PUBCHEM_ISOTOPIC_ATOM_COUNT>
0

> <PUBCHEM_COMPONENT_COUNT>
2

> <PUBCHEM_CACTVS_TAUTO_COUNT>
3

> <PUBCHEM_NONSTANDARDBOND>
1  2  6
1  3  6

> <PUBCHEM_COORDINATE_TYPE>
1
5
255

> <PUBCHEM_BONDANNOTATIONS>
1  2  4
1  3  4

$$$$

