441110
  -OEChem-07051213023D

 67 69  0     1  0  0  0  0  0999 V2000
    1.8995   -2.0142    1.6067 P   0  0  1  0  0  0  0  0  0  0  0  0
   -0.4214   -3.5993    0.7360 P   0  0  2  0  0  0  0  0  0  0  0  0
    1.3651    0.6696   -0.7350 O   0  0  0  0  0  0  0  0  0  0  0  0
   -3.6574   -1.0927   -0.6248 O   0  0  0  0  0  0  0  0  0  0  0  0
    2.3557   -0.5851    1.0139 O   0  0  0  0  0  0  0  0  0  0  0  0
    4.5919   -1.0640   -0.5689 O   0  0  0  0  0  0  0  0  0  0  0  0
   -4.1421   -1.1142   -3.6475 O   0  0  0  0  0  0  0  0  0  0  0  0
   -1.7581   -3.0589    0.0024 O   0  0  0  0  0  0  0  0  0  0  0  0
    0.4081   -2.2426    1.0260 O   0  0  0  0  0  0  0  0  0  0  0  0
    2.7843   -3.0960    0.7916 O   0  0  0  0  0  0  0  0  0  0  0  0
    2.0028   -2.1290    3.1000 O   0  0  0  0  0  0  0  0  0  0  0  0
   -4.7170    2.8974   -0.4770 O   0  0  0  0  0  0  0  0  0  0  0  0
    0.4227   -4.2939   -0.4564 O   0  0  0  0  0  0  0  0  0  0  0  0
   -0.6449   -4.4645    1.9417 O   0  0  0  0  0  0  0  0  0  0  0  0
   -1.9003    3.3653    3.1280 O   0  0  0  0  0  0  0  0  0  0  0  0
    5.3988    1.6847   -1.3325 N   0  0  0  0  0  0  0  0  0  0  0  0
   -3.2929    1.1210    0.0395 N   0  0  0  0  0  0  0  0  0  0  0  0
   -3.3063    3.1178    1.3179 N   0  0  0  0  0  0  0  0  0  0  0  0
    4.1780    1.3409   -0.6008 C   0  0  2  0  0  0  0  0  0  0  0  0
    3.6820   -0.0572   -0.9959 C   0  0  2  0  0  0  0  0  0  0  0  0
    3.0923    2.3782   -0.9054 C   0  0  0  0  0  0  0  0  0  0  0  0
    1.7571    1.9687   -0.2779 C   0  0  1  0  0  0  0  0  0  0  0  0
    2.3026   -0.3542   -0.3933 C   0  0  2  0  0  0  0  0  0  0  0  0
   -2.9485   -0.9575   -2.8832 C   0  0  2  0  0  0  0  0  0  0  0  0
   -2.9986   -1.8551   -1.6546 C   0  0  1  0  0  0  0  0  0  0  0  0
   -2.9022    0.4317   -2.2903 C   0  0  0  0  0  0  0  0  0  0  0  0
   -3.7410    0.2804   -1.0319 C   0  0  1  0  0  0  0  0  0  0  0  0
   -1.6157   -2.2365   -1.1426 C   0  0  0  0  0  0  0  0  0  0  0  0
    0.6523    2.9446   -0.6616 C   0  0  0  0  0  0  0  0  0  0  0  0
    5.5851    3.1348   -1.3617 C   0  0  0  0  0  0  0  0  0  0  0  0
    6.5582    1.0319   -0.7263 C   0  0  0  0  0  0  0  0  0  0  0  0
   -2.3032    0.6414    0.8878 C   0  0  0  0  0  0  0  0  0  0  0  0
   -3.8377    2.4081    0.2352 C   0  0  0  0  0  0  0  0  0  0  0  0
   -1.7969    1.3230    1.9229 C   0  0  0  0  0  0  0  0  0  0  0  0
   -2.3212    2.6879    2.1941 C   0  0  0  0  0  0  0  0  0  0  0  0
   -0.7311    0.7877    2.8243 C   0  0  0  0  0  0  0  0  0  0  0  0
    4.3694    1.3659    0.4819 H   0  0  0  0  0  0  0  0  0  0  0  0
    3.6047   -0.1062   -2.0905 H   0  0  0  0  0  0  0  0  0  0  0  0
    2.9512    2.4600   -1.9923 H   0  0  0  0  0  0  0  0  0  0  0  0
    3.3310    3.3703   -0.5055 H   0  0  0  0  0  0  0  0  0  0  0  0
    1.8403    1.9511    0.8155 H   0  0  0  0  0  0  0  0  0  0  0  0
    1.9290   -1.2666   -0.8717 H   0  0  0  0  0  0  0  0  0  0  0  0
   -2.1029   -1.1633   -3.5461 H   0  0  0  0  0  0  0  0  0  0  0  0
   -3.6000   -2.7563   -1.8171 H   0  0  0  0  0  0  0  0  0  0  0  0
   -3.3022    1.2091   -2.9488 H   0  0  0  0  0  0  0  0  0  0  0  0
   -1.8662    0.6958   -2.0451 H   0  0  0  0  0  0  0  0  0  0  0  0
   -4.7942    0.4914   -1.2527 H   0  0  0  0  0  0  0  0  0  0  0  0
   -1.0978   -2.8021   -1.9236 H   0  0  0  0  0  0  0  0  0  0  0  0
   -1.0065   -1.3623   -0.9019 H   0  0  0  0  0  0  0  0  0  0  0  0
    0.8746    3.9563   -0.3093 H   0  0  0  0  0  0  0  0  0  0  0  0
   -0.3050    2.6313   -0.2389 H   0  0  0  0  0  0  0  0  0  0  0  0
    0.5154    2.9737   -1.7484 H   0  0  0  0  0  0  0  0  0  0  0  0
    4.8795    3.6427   -2.0276 H   0  0  0  0  0  0  0  0  0  0  0  0
    5.5648    3.5877   -0.3631 H   0  0  0  0  0  0  0  0  0  0  0  0
    6.5655    3.3741   -1.7941 H   0  0  0  0  0  0  0  0  0  0  0  0
    6.6308    1.2124    0.3524 H   0  0  0  0  0  0  0  0  0  0  0  0
    6.5823   -0.0429   -0.9146 H   0  0  0  0  0  0  0  0  0  0  0  0
    7.4846    1.4051   -1.1807 H   0  0  0  0  0  0  0  0  0  0  0  0
    4.2338   -1.9231   -0.8505 H   0  0  0  0  0  0  0  0  0  0  0  0
   -4.1610   -2.0310   -3.9715 H   0  0  0  0  0  0  0  0  0  0  0  0
   -1.9211   -0.3495    0.7026 H   0  0  0  0  0  0  0  0  0  0  0  0
   -3.6838    4.0475    1.4784 H   0  0  0  0  0  0  0  0  0  0  0  0
   -1.0650    0.8090    3.8669 H   0  0  0  0  0  0  0  0  0  0  0  0
    0.1798    1.3884    2.7388 H   0  0  0  0  0  0  0  0  0  0  0  0
   -0.4755   -0.2480    2.5855 H   0  0  0  0  0  0  0  0  0  0  0  0
    2.7704   -4.0335    1.0796 H   0  0  0  0  0  0  0  0  0  0  0  0
    0.7145   -3.7557   -1.2223 H   0  0  0  0  0  0  0  0  0  0  0  0
  1  5  1  0  0  0  0
  1  9  1  0  0  0  0
  1 10  1  0  0  0  0
  1 11  2  0  0  0  0
  2  8  1  0  0  0  0
  2  9  1  0  0  0  0
  2 13  1  0  0  0  0
  2 14  2  0  0  0  0
  3 22  1  0  0  0  0
  3 23  1  0  0  0  0
  4 25  1  0  0  0  0
  4 27  1  0  0  0  0
  5 23  1  0  0  0  0
  6 20  1  0  0  0  0
  6 59  1  0  0  0  0
  7 24  1  0  0  0  0
  7 60  1  0  0  0  0
  8 28  1  0  0  0  0
 10 66  1  0  0  0  0
 12 33  2  0  0  0  0
 13 67  1  0  0  0  0
 15 35  2  0  0  0  0
 16 19  1  0  0  0  0
 16 30  1  0  0  0  0
 16 31  1  0  0  0  0
 17 27  1  0  0  0  0
 17 32  1  0  0  0  0
 17 33  1  0  0  0  0
 18 33  1  0  0  0  0
 18 35  1  0  0  0  0
 18 62  1  0  0  0  0
 19 20  1  0  0  0  0
 19 21  1  0  0  0  0
 19 37  1  0  0  0  0
 20 23  1  0  0  0  0
 20 38  1  0  0  0  0
 21 22  1  0  0  0  0
 21 39  1  0  0  0  0
 21 40  1  0  0  0  0
 22 29  1  0  0  0  0
 22 41  1  0  0  0  0
 23 42  1  0  0  0  0
 24 25  1  0  0  0  0
 24 26  1  0  0  0  0
 24 43  1  0  0  0  0
 25 28  1  0  0  0  0
 25 44  1  0  0  0  0
 26 27  1  0  0  0  0
 26 45  1  0  0  0  0
 26 46  1  0  0  0  0
 27 47  1  0  0  0  0
 28 48  1  0  0  0  0
 28 49  1  0  0  0  0
 29 50  1  0  0  0  0
 29 51  1  0  0  0  0
 29 52  1  0  0  0  0
 30 53  1  0  0  0  0
 30 54  1  0  0  0  0
 30 55  1  0  0  0  0
 31 56  1  0  0  0  0
 31 57  1  0  0  0  0
 31 58  1  0  0  0  0
 32 34  2  0  0  0  0
 32 61  1  0  0  0  0
 34 35  1  0  0  0  0
 34 36  1  0  0  0  0
 36 63  1  0  0  0  0
 36 64  1  0  0  0  0
 36 65  1  0  0  0  0
M  END
> <PUBCHEM_COMPOUND_CID>
441110

> <PUBCHEM_CONFORMER_RMSD>
1.4

> <PUBCHEM_CONFORMER_DIVERSEORDER>
1
64
28
125
55
14
145
110
102
118
121
170
32
2
138
38
119
90
142
68
11
120
154
132
46
116
49
150
141
159
86
108
140
104
59
111
36
124
3
160
135
133
151
61
122
62
165
22
37
60
93
100
97
166
172
94
70
95
67
171
174
78
101
75
84
144
130
79
42
152
131
168
81
19
27
128
136
99
31
26
51
106
85
129
77
153
43
169
105
35
50
98
33
115
162
66
71
8
143
72
83
117
9
47
163
157
25
53
158
30
63
148
56
91
7
134
87
126
34
92
137
156
167
10
29
123
48
114
24
13
127
15
155
74
109
96
88
41
149
89
76
113
5
4
80
18
103
17
44
16
146
52
58
82
107
69
39
73
112
173
54
45
164
6
20
147
65
12
21
57
161
40
139
23

> <PUBCHEM_MMFF94_PARTIAL_CHARGES>
39
1 1.51
10 -0.77
11 -0.7
12 -0.57
13 -0.77
14 -0.7
15 -0.57
16 -0.81
17 -0.47
18 -0.49
19 0.27
2 1.51
20 0.28
22 0.28
23 0.56
24 0.28
25 0.28
27 0.58
28 0.28
3 -0.56
30 0.27
31 0.27
32 -0.04
33 0.69
34 -0.12
35 0.62
36 0.14
4 -0.56
5 -0.55
59 0.4
6 -0.68
60 0.4
61 0.15
62 0.37
66 0.5
67 0.5
7 -0.68
8 -0.55
9 -0.54

> <PUBCHEM_EFFECTIVE_ROTOR_COUNT>
11.2

> <PUBCHEM_PHARMACOPHORE_FEATURES>
17
1 10 acceptor
1 11 acceptor
1 12 acceptor
1 13 acceptor
1 14 acceptor
1 15 acceptor
1 16 cation
1 18 donor
1 3 acceptor
1 4 acceptor
1 6 acceptor
1 6 donor
1 7 acceptor
1 7 donor
5 4 24 25 26 27 rings
6 17 18 32 33 34 35 rings
6 3 19 20 21 22 23 rings

> <PUBCHEM_HEAVY_ATOM_COUNT>
36

> <PUBCHEM_ATOM_DEF_STEREO_COUNT>
7

> <PUBCHEM_ATOM_UDEF_STEREO_COUNT>
0

> <PUBCHEM_BOND_DEF_STEREO_COUNT>
0

> <PUBCHEM_BOND_UDEF_STEREO_COUNT>
0

> <PUBCHEM_ISOTOPIC_ATOM_COUNT>
0

> <PUBCHEM_COMPONENT_COUNT>
1

> <PUBCHEM_CACTVS_TAUTO_COUNT>
3

> <PUBCHEM_CONFORMER_ID>
0006BB1600000001

> <PUBCHEM_MMFF94_ENERGY>
51.5839

> <PUBCHEM_FEATURE_SELFOVERLAP>
86.289

> <PUBCHEM_SHAPE_FINGERPRINT>
11049842 53 16521019491518058993
11513181 2 16087024664687380847
12655387 17 6337283358091535695
12788726 201 18259984842926462683
14114206 34 18187661175749223397
14279260 333 18334287679027653926
14932701 244 18124864664798173442
15463212 79 18334851761935062785
15781502 589 17837491113264332693
16112460 7 18339079397761583382
19311894 1 18341607080267280662
20511986 3 18263647419159419072
20775438 99 16093792755198316175
21792965 302 17830454977490107609
21796203 349 17622702620963778938
23559900 14 16878235215782697712
3493558 16 17120856488537039436
35225 105 17694174995357933911
437795 83 17830438498540461084
469060 322 16772098134419435939

> <PUBCHEM_SHAPE_MULTIPOLES>
657.32
10.31
5.33
2.98
12.9
3.05
-0.49
-7.25
6.57
-1.52
-2.56
-2.94
0.03
-3.88

> <PUBCHEM_SHAPE_SELFOVERLAP>
1330.609

> <PUBCHEM_SHAPE_VOLUME>
385.7

> <PUBCHEM_COORDINATE_TYPE>
2
5
10

$$$$

