23724752
  -OEChem-07051213083D

 51 53  0     1  0  0  0  0  0999 V2000
    5.9250    2.4270    0.6133 P   0  0  0  0  0  0  0  0  0  0  0  0
    2.8347   -0.6197    0.5859 O   0  0  0  0  0  0  0  0  0  0  0  0
    2.7151   -3.4977   -0.8273 O   0  0  0  0  0  0  0  0  0  0  0  0
    4.0211   -1.8588   -2.5711 O   0  0  0  0  0  0  0  0  0  0  0  0
    5.1402    1.0114    0.5739 O   0  0  0  0  0  0  0  0  0  0  0  0
    6.9554    2.3036   -0.6270 O   0  0  0  0  0  0  0  0  0  0  0  0
    4.8279    3.4891    0.0811 O   0  0  0  0  0  0  0  0  0  0  0  0
    6.5577    2.7643    1.9317 O   0  0  0  0  0  0  0  0  0  0  0  0
   -6.1087    1.4540   -2.6424 O   0  0  0  0  0  0  0  0  0  0  0  0
    0.4939   -0.8871    0.2963 N   0  0  0  0  0  0  0  0  0  0  0  0
   -1.0102    0.7393    0.0310 N   0  0  0  0  0  0  0  0  0  0  0  0
   -0.9458   -2.6474    1.1516 N   0  0  0  0  0  0  0  0  0  0  0  0
   -3.9430    0.3154    0.7126 N   0  0  0  0  0  0  0  0  0  0  0  0
   -3.2605   -1.8942    1.3277 N   0  0  0  0  0  0  0  0  0  0  0  0
    2.1279   -2.2183   -1.0588 C   0  0  2  0  0  0  0  0  0  0  0  0
    3.1337   -1.2523   -1.6562 C   0  0  1  0  0  0  0  0  0  0  0  0
    1.7894   -1.5687    0.2841 C   0  0  1  0  0  0  0  0  0  0  0  0
    3.8514   -0.7304   -0.4236 C   0  0  1  0  0  0  0  0  0  0  0  0
    4.5146    0.6188   -0.6352 C   0  0  0  0  0  0  0  0  0  0  0  0
   -0.7053   -1.4097    0.6930 C   0  0  0  0  0  0  0  0  0  0  0  0
    0.2578    0.4064   -0.0917 C   0  0  0  0  0  0  0  0  0  0  0  0
   -1.6237   -0.3864    0.5204 C   0  0  0  0  0  0  0  0  0  0  0  0
   -2.9448   -0.6635    0.8572 C   0  0  0  0  0  0  0  0  0  0  0  0
   -2.2561   -2.7964    1.4439 C   0  0  0  0  0  0  0  0  0  0  0  0
   -5.3178    0.0848    1.0436 C   0  0  0  0  0  0  0  0  0  0  0  0
   -6.0979    1.3383    0.7923 C   0  0  0  0  0  0  0  0  0  0  0  0
   -6.7240    1.7039   -0.3431 C   0  0  0  0  0  0  0  0  0  0  0  0
   -6.7163    0.7894   -1.5424 C   0  0  0  0  0  0  0  0  0  0  0  0
   -7.4916    2.9851   -0.5208 C   0  0  0  0  0  0  0  0  0  0  0  0
    1.2653   -2.3741   -1.7146 H   0  0  0  0  0  0  0  0  0  0  0  0
    2.5960   -0.4415   -2.1630 H   0  0  0  0  0  0  0  0  0  0  0  0
    1.7700   -2.2956    1.1043 H   0  0  0  0  0  0  0  0  0  0  0  0
    4.5978   -1.4487   -0.0603 H   0  0  0  0  0  0  0  0  0  0  0  0
    3.7646    1.3713   -0.8998 H   0  0  0  0  0  0  0  0  0  0  0  0
    5.2610    0.5591   -1.4327 H   0  0  0  0  0  0  0  0  0  0  0  0
    2.0375   -4.0562   -0.4091 H   0  0  0  0  0  0  0  0  0  0  0  0
    4.6480   -1.1792   -2.8708 H   0  0  0  0  0  0  0  0  0  0  0  0
    1.0394    1.0579   -0.4581 H   0  0  0  0  0  0  0  0  0  0  0  0
   -2.5450   -3.7706    1.8234 H   0  0  0  0  0  0  0  0  0  0  0  0
   -3.6513    1.2177    0.3511 H   0  0  0  0  0  0  0  0  0  0  0  0
   -5.4113   -0.1631    2.1084 H   0  0  0  0  0  0  0  0  0  0  0  0
   -5.7235   -0.7730    0.4992 H   0  0  0  0  0  0  0  0  0  0  0  0
    7.6208    3.0113   -0.7634 H   0  0  0  0  0  0  0  0  0  0  0  0
    5.0529    4.4438    0.0803 H   0  0  0  0  0  0  0  0  0  0  0  0
   -6.1395    2.0275    1.6349 H   0  0  0  0  0  0  0  0  0  0  0  0
   -7.7458    0.5433   -1.8239 H   0  0  0  0  0  0  0  0  0  0  0  0
   -6.1896   -0.1559   -1.4064 H   0  0  0  0  0  0  0  0  0  0  0  0
   -7.5067    3.5757    0.4012 H   0  0  0  0  0  0  0  0  0  0  0  0
   -8.5295    2.7732   -0.7969 H   0  0  0  0  0  0  0  0  0  0  0  0
   -7.0388    3.6023   -1.3030 H   0  0  0  0  0  0  0  0  0  0  0  0
   -5.1838    1.6349   -2.4019 H   0  0  0  0  0  0  0  0  0  0  0  0
  1  5  1  0  0  0  0
  1  6  1  0  0  0  0
  1  7  1  0  0  0  0
  1  8  2  0  0  0  0
  2 17  1  0  0  0  0
  2 18  1  0  0  0  0
  3 15  1  0  0  0  0
  3 36  1  0  0  0  0
  4 16  1  0  0  0  0
  4 37  1  0  0  0  0
  5 19  1  0  0  0  0
  6 43  1  0  0  0  0
  7 44  1  0  0  0  0
  9 28  1  0  0  0  0
  9 51  1  0  0  0  0
 10 17  1  0  0  0  0
 10 20  1  0  0  0  0
 10 21  1  0  0  0  0
 11 21  2  0  0  0  0
 11 22  1  0  0  0  0
 12 20  2  0  0  0  0
 12 24  1  0  0  0  0
 13 23  1  0  0  0  0
 13 25  1  0  0  0  0
 13 40  1  0  0  0  0
 14 23  1  0  0  0  0
 14 24  2  0  0  0  0
 15 16  1  0  0  0  0
 15 17  1  0  0  0  0
 15 30  1  0  0  0  0
 16 18  1  0  0  0  0
 16 31  1  0  0  0  0
 17 32  1  0  0  0  0
 18 19  1  0  0  0  0
 18 33  1  0  0  0  0
 19 34  1  0  0  0  0
 19 35  1  0  0  0  0
 20 22  1  0  0  0  0
 21 38  1  0  0  0  0
 22 23  2  0  0  0  0
 24 39  1  0  0  0  0
 25 26  1  0  0  0  0
 25 41  1  0  0  0  0
 25 42  1  0  0  0  0
 26 27  2  0  0  0  0
 26 45  1  0  0  0  0
 27 28  1  0  0  0  0
 27 29  1  0  0  0  0
 28 46  1  0  0  0  0
 28 47  1  0  0  0  0
 29 48  1  0  0  0  0
 29 49  1  0  0  0  0
 29 50  1  0  0  0  0
M  END
> <PUBCHEM_COMPOUND_CID>
23724752

> <PUBCHEM_CONFORMER_RMSD>
1

> <PUBCHEM_CONFORMER_DIVERSEORDER>
1
47
41
104
121
13
84
71
20
122
26
98
66
43
64
109
21
65
93
92
113
110
54
28
19
68
74
58
51
112
97
37
86
89
15
83
119
69
30
79
123
115
77
44
111
90
105
88
116
67
62
70
101
82
95
23
87
27
72
94
40
100
108
73
106
48
38
29
78
96
61
36
126
75
91
76
6
33
46
55
114
22
107
124
60
80
120
34
56
99
16
59
49
9
24
45
42
81
14
35
57
2
39
85
63
5
118
25
52
32
103
53
4
8
12
7
125
102
18
17
31
10
11
117
50
3

> <PUBCHEM_MMFF94_PARTIAL_CHARGES>
38
1 1.51
10 0.05
11 -0.57
12 -0.57
13 -0.87
14 -0.62
15 0.28
16 0.28
17 0.54
18 0.28
19 0.28
2 -0.56
20 0.11
21 0.04
22 0.23
23 0.41
24 0.47
25 0.51
26 -0.29
27 -0.28
28 0.42
29 0.14
3 -0.68
36 0.4
37 0.4
38 0.15
39 0.15
4 -0.68
40 0.4
43 0.5
44 0.5
45 0.15
5 -0.55
51 0.4
6 -0.77
7 -0.77
8 -0.7
9 -0.68

> <PUBCHEM_EFFECTIVE_ROTOR_COUNT>
9

> <PUBCHEM_PHARMACOPHORE_FEATURES>
20
1 13 cation
1 13 donor
1 2 acceptor
1 29 hydrophobe
1 3 acceptor
1 3 donor
1 4 acceptor
1 4 donor
1 6 acceptor
1 7 acceptor
1 8 acceptor
1 9 acceptor
1 9 donor
3 10 11 21 cation
3 10 12 20 cation
3 12 14 24 cation
4 1 6 7 8 anion
5 10 11 20 21 22 rings
5 2 15 16 17 18 rings
6 12 14 20 22 23 24 rings

> <PUBCHEM_HEAVY_ATOM_COUNT>
29

> <PUBCHEM_ATOM_DEF_STEREO_COUNT>
4

> <PUBCHEM_ATOM_UDEF_STEREO_COUNT>
0

> <PUBCHEM_BOND_DEF_STEREO_COUNT>
1

> <PUBCHEM_BOND_UDEF_STEREO_COUNT>
0

> <PUBCHEM_ISOTOPIC_ATOM_COUNT>
0

> <PUBCHEM_COMPONENT_COUNT>
1

> <PUBCHEM_CACTVS_TAUTO_COUNT>
3

> <PUBCHEM_CONFORMER_ID>
016A02D000000001

> <PUBCHEM_MMFF94_ENERGY>
28.6116

> <PUBCHEM_FEATURE_SELFOVERLAP>
102.141

> <PUBCHEM_SHAPE_FINGERPRINT>
10675989 125 18268145538281257131
10835480 77 18409727370152268097
12661589 4 6915982522183671940
13540713 4 18268971176982998259
13673619 4 9079122167537382506
13782708 43 9799693679747487417
15082195 135 17675929797858447257
15183329 4 17532376555668499503
15324884 4 18050250792379174726
15350500 55 18339082588891181480
16079462 125 18272369780598589737
17980427 23 17773592711842889318
18222031 100 13984666988014782379
18335252 114 17967529082877247500
20715895 44 18341611503830524272
21033648 29 17988916791370599401
21150785 3 16732986410028312297
21682296 61 8502650412029055953
21859007 373 17488754508976375511
23522609 53 16226868052478321731
23559900 14 18269815623899357782
24771293 8 18343301457597811765
2748736 6 18341899606084295033
2838139 119 18270121361330172931
4169191 19 18408879629576481761
44249763 50 18060422417934570895
5104073 3 14548155607448998281
53917941 68 18272373058123386595
636775 8 9222962499788468392

> <PUBCHEM_SHAPE_MULTIPOLES>
528.8
19.81
3.78
1.72
12.42
0.6
0.86
23.31
3.36
-3.57
-0.41
0.35
-0.27
4.5

> <PUBCHEM_SHAPE_SELFOVERLAP>
1098.67

> <PUBCHEM_SHAPE_VOLUME>
303.9

> <PUBCHEM_COORDINATE_TYPE>
2
5
10

$$$$

