23724669
  -OEChem-07051213082D

 62 67  0     1  0  0  0  0  0999 V2000
    6.2719   -2.8947    0.0000 O   0  0  0  0  0  0  0  0  0  0  0  0
   11.7432    0.1079    0.0000 O   0  0  0  0  0  0  0  0  0  0  0  0
    6.4811    0.0771    0.0000 O   0  0  0  0  0  0  0  0  0  0  0  0
   10.0112    0.1012    0.0000 O   0  0  0  0  0  0  0  0  0  0  0  0
   11.7548   -2.8921    0.0000 O   0  0  0  0  0  0  0  0  0  0  0  0
   13.4830   -1.8854    0.0000 O   0  0  0  0  0  0  0  0  0  0  0  0
   10.0189   -1.8987    0.0000 O   0  0  0  0  0  0  0  0  0  0  0  0
   13.4714    1.1146    0.0000 O   0  0  0  0  0  0  0  0  0  0  0  0
    2.2123   -2.9114    0.0000 O   0  0  0  0  0  0  0  0  0  0  0  0
    2.8914   -4.4333    0.0000 O   0  0  0  0  0  0  0  0  0  0  0  0
   15.2035    1.1213    0.0000 O   0  0  0  0  0  0  0  0  0  0  0  0
   15.1919    4.1212    0.0000 O   0  0  0  0  0  0  0  0  0  0  0  0
   16.0637    2.6246    0.0000 O   0  0  0  0  0  0  0  0  0  0  0  0
    5.6151   -1.4229    0.0000 C   0  0  2  0  0  0  0  0  0  0  0  0
    6.4811   -1.9229    0.0000 C   0  0  2  0  0  0  0  0  0  0  0  0
    4.8780   -2.0900    0.0000 C   0  0  0  0  0  0  0  0  0  0  0  0
   11.7510   -1.8921    0.0000 C   0  0  1  0  0  0  0  0  0  0  0  0
   12.6150   -1.3887    0.0000 C   0  0  1  0  0  0  0  0  0  0  0  0
    5.6151   -0.4229    0.0000 C   0  0  0  0  0  0  0  0  0  0  0  0
   10.8830   -1.3954    0.0000 C   0  0  2  0  0  0  0  0  0  0  0  0
    7.3471   -1.4229    0.0000 C   0  0  0  0  0  0  0  0  0  0  0  0
   12.6112   -0.3887    0.0000 C   0  0  1  0  0  0  0  0  0  0  0  0
   10.8792   -0.3954    0.0000 C   0  0  1  0  0  0  0  0  0  0  0  0
    5.2832   -2.9978    0.0000 C   0  0  0  0  0  0  0  0  0  0  0  0
    7.3471   -0.4229    0.0000 C   0  0  0  0  0  0  0  0  0  0  0  0
    3.8499   -1.9668    0.0000 C   0  0  0  0  0  0  0  0  0  0  0  0
   13.4753    0.1146    0.0000 C   0  0  0  0  0  0  0  0  0  0  0  0
    8.2410   -1.9576    0.0000 C   0  0  0  0  0  0  0  0  0  0  0  0
    9.1471   -0.4021    0.0000 C   0  0  0  0  0  0  0  0  0  0  0  0
    8.2410    0.1118    0.0000 C   0  0  0  0  0  0  0  0  0  0  0  0
    4.6882   -3.8453    0.0000 C   0  0  0  0  0  0  0  0  0  0  0  0
    3.2356   -2.8003    0.0000 C   0  0  0  0  0  0  0  0  0  0  0  0
    9.1471   -1.4437    0.0000 C   0  0  0  0  0  0  0  0  0  0  0  0
    3.6576   -3.7459    0.0000 C   0  0  0  0  0  0  0  0  0  0  0  0
    2.0000   -3.9186    0.0000 C   0  0  0  0  0  0  0  0  0  0  0  0
   14.3355    1.6179    0.0000 C   0  0  0  0  0  0  0  0  0  0  0  0
   14.3317    2.6179    0.0000 C   0  0  0  0  0  0  0  0  0  0  0  0
   15.1958    3.1212    0.0000 C   0  0  0  0  0  0  0  0  0  0  0  0
    4.8381   -1.0782    0.0000 H   0  0  0  0  0  0  0  0  0  0  0  0
    7.1681   -2.4234    0.0000 H   0  0  0  0  0  0  0  0  0  0  0  0
   11.2152   -2.2041    0.0000 H   0  0  0  0  0  0  0  0  0  0  0  0
   12.6174   -2.0087    0.0000 H   0  0  0  0  0  0  0  0  0  0  0  0
   10.8854   -2.0154    0.0000 H   0  0  0  0  0  0  0  0  0  0  0  0
    5.4030    0.1597    0.0000 H   0  0  0  0  0  0  0  0  0  0  0  0
    5.0045   -0.5306    0.0000 H   0  0  0  0  0  0  0  0  0  0  0  0
   12.6088    0.2313    0.0000 H   0  0  0  0  0  0  0  0  0  0  0  0
   10.8768    0.2246    0.0000 H   0  0  0  0  0  0  0  0  0  0  0  0
    3.6038   -1.3977    0.0000 H   0  0  0  0  0  0  0  0  0  0  0  0
   13.6896   -0.4672    0.0000 H   0  0  0  0  0  0  0  0  0  0  0  0
   14.0854    0.2246    0.0000 H   0  0  0  0  0  0  0  0  0  0  0  0
    8.2339   -2.5775    0.0000 H   0  0  0  0  0  0  0  0  0  0  0  0
    8.2339    0.7317    0.0000 H   0  0  0  0  0  0  0  0  0  0  0  0
    4.9474   -4.4085    0.0000 H   0  0  0  0  0  0  0  0  0  0  0  0
    9.6828   -1.7558    0.0000 H   0  0  0  0  0  0  0  0  0  0  0  0
   12.2929   -3.2000    0.0000 H   0  0  0  0  0  0  0  0  0  0  0  0
   14.0187   -1.5733    0.0000 H   0  0  0  0  0  0  0  0  0  0  0  0
   10.0213   -2.5187    0.0000 H   0  0  0  0  0  0  0  0  0  0  0  0
    1.4101   -3.7277    0.0000 H   0  0  0  0  0  0  0  0  0  0  0  0
    1.7482   -4.4852    0.0000 H   0  0  0  0  0  0  0  0  0  0  0  0
   14.1174    3.1997    0.0000 H   0  0  0  0  0  0  0  0  0  0  0  0
   13.7215    2.5079    0.0000 H   0  0  0  0  0  0  0  0  0  0  0  0
   15.7276    4.4333    0.0000 H   0  0  0  0  0  0  0  0  0  0  0  0
  1 15  1  0  0  0  0
  1 24  1  0  0  0  0
  2 22  1  0  0  0  0
  2 23  1  0  0  0  0
  3 19  1  0  0  0  0
  3 25  1  0  0  0  0
 23  4  1  6  0  0  0
  4 29  1  0  0  0  0
 17  5  1  6  0  0  0
  5 55  1  0  0  0  0
 18  6  1  1  0  0  0
  6 56  1  0  0  0  0
 20  7  1  1  0  0  0
  7 57  1  0  0  0  0
  8 27  1  0  0  0  0
  8 36  1  0  0  0  0
  9 32  1  0  0  0  0
  9 35  1  0  0  0  0
 10 34  1  0  0  0  0
 10 35  1  0  0  0  0
 11 36  2  0  0  0  0
 12 38  1  0  0  0  0
 12 62  1  0  0  0  0
 13 38  2  0  0  0  0
 14 15  1  0  0  0  0
 14 16  1  0  0  0  0
 14 19  1  0  0  0  0
 14 39  1  1  0  0  0
 15 21  1  0  0  0  0
 15 40  1  1  0  0  0
 16 24  1  0  0  0  0
 16 26  2  0  0  0  0
 17 18  1  0  0  0  0
 17 20  1  0  0  0  0
 17 41  1  0  0  0  0
 18 22  1  0  0  0  0
 18 42  1  0  0  0  0
 19 44  1  0  0  0  0
 19 45  1  0  0  0  0
 20 23  1  0  0  0  0
 20 43  1  0  0  0  0
 21 25  2  0  0  0  0
 21 28  1  0  0  0  0
 22 27  1  6  0  0  0
 22 46  1  0  0  0  0
 23 47  1  0  0  0  0
 24 31  2  0  0  0  0
 25 30  1  0  0  0  0
 26 32  1  0  0  0  0
 26 48  1  0  0  0  0
 27 49  1  0  0  0  0
 27 50  1  0  0  0  0
 28 33  2  0  0  0  0
 28 51  1  0  0  0  0
 29 30  2  0  0  0  0
 29 33  1  0  0  0  0
 30 52  1  0  0  0  0
 31 34  1  0  0  0  0
 31 53  1  0  0  0  0
 32 34  2  0  0  0  0
 33 54  1  0  0  0  0
 35 58  1  0  0  0  0
 35 59  1  0  0  0  0
 36 37  1  0  0  0  0
 37 38  1  0  0  0  0
 37 60  1  0  0  0  0
 37 61  1  0  0  0  0
M  END
> <PUBCHEM_COMPOUND_CID>
23724669

> <PUBCHEM_COMPOUND_CANONICALIZED>
1

> <PUBCHEM_CACTVS_COMPLEXITY>
885

> <PUBCHEM_CACTVS_HBOND_ACCEPTOR>
13

> <PUBCHEM_CACTVS_HBOND_DONOR>
4

> <PUBCHEM_CACTVS_ROTATABLE_BOND>
7

> <PUBCHEM_CACTVS_SUBSKEYS>
AAADceB4PAAAAAAAAAAAAAAAAAAAASJAAAA0aIEAAAAAAEiRQAAAGgAACAAADRSwmAMwDoAABgCIAiDSCAACCAAgIAAIiAEGiIgdNyaMMRqieCKl4BUPqAfA4PwOoQABCAAIQABCAAIQABCAAAAAAAAAAA==

> <PUBCHEM_IUPAC_INCHI>
InChI=1S/C25H24O13/c26-19(27)6-20(28)33-8-18-21(29)22(30)23(31)25(38-18)36-10-1-2-11-14(3-10)32-7-13-12-4-16-17(35-9-34-16)5-15(12)37-24(11)13/h1-5,13,18,21-25,29-31H,6-9H2,(H,26,27)/t13-,18+,21+,22-,23+,24-,25+/m0/s1

> <PUBCHEM_IUPAC_INCHIKEY>
ZHXRWFOBROFZAC-LVYGOKBNSA-N

> <PUBCHEM_XLOGP3_AA>
0.4

> <PUBCHEM_EXACT_MASS>
532.121691

> <PUBCHEM_MOLECULAR_FORMULA>
C25H24O13

> <PUBCHEM_MOLECULAR_WEIGHT>
532.45026

> <PUBCHEM_OPENEYE_CAN_SMILES>
C1C2C(C3=C(O1)C=C(C=C3)OC4C(C(C(C(O4)COC(=O)CC(=O)O)O)O)O)OC5=CC6=C(C=C25)OCO6

> <PUBCHEM_OPENEYE_ISO_SMILES>
C1[C@@H]2[C@H](C3=C(O1)C=C(C=C3)O[C@H]4[C@@H]([C@H]([C@@H]([C@H](O4)COC(=O)CC(=O)O)O)O)O)OC5=CC6=C(C=C25)OCO6

> <PUBCHEM_CACTVS_TPSA>
180

> <PUBCHEM_MONOISOTOPIC_WEIGHT>
532.121691

> <PUBCHEM_TOTAL_CHARGE>
0

> <PUBCHEM_HEAVY_ATOM_COUNT>
38

> <PUBCHEM_ATOM_DEF_STEREO_COUNT>
7

> <PUBCHEM_ATOM_UDEF_STEREO_COUNT>
0

> <PUBCHEM_BOND_DEF_STEREO_COUNT>
0

> <PUBCHEM_BOND_UDEF_STEREO_COUNT>
0

> <PUBCHEM_ISOTOPIC_ATOM_COUNT>
0

> <PUBCHEM_COMPONENT_COUNT>
1

> <PUBCHEM_CACTVS_TAUTO_COUNT>
1

> <PUBCHEM_COORDINATE_TYPE>
1
5
255

> <PUBCHEM_BONDANNOTATIONS>
14  39  5
15  40  5
16  24  8
16  26  8
21  25  8
21  28  8
22  27  6
24  31  8
25  30  8
26  32  8
28  33  8
29  30  8
29  33  8
31  34  8
32  34  8
23  4  6
17  5  6
18  6  5
20  7  5

$$$$

