441594
  -OEChem-07051212552D

 40 44  0     1  0  0  0  0  0999 V2000
    7.1256    1.3396    0.0000 O   0  0  0  0  0  0  0  0  0  0  0  0
    8.8958    0.3427    0.0000 O   0  0  0  0  0  0  0  0  0  0  0  0
    2.6079    0.0014    0.0000 O   0  0  0  0  0  0  0  0  0  0  0  0
    2.6079    1.6778    0.0000 O   0  0  0  0  0  0  0  0  0  0  0  0
    6.2596    2.8396    0.0000 O   0  0  0  0  0  0  0  0  0  0  0  0
    5.4705   -1.8908    0.0000 N   0  0  3  0  0  0  0  0  0  0  0  0
    6.2435   -1.2019    0.0000 C   0  0  1  0  0  0  0  0  0  0  0  0
    6.2596   -0.1604    0.0000 C   0  0  1  0  0  0  0  0  0  0  0  0
    7.1256    0.3396    0.0000 C   0  0  1  0  0  0  0  0  0  0  0  0
    7.1415   -1.7296    0.0000 C   0  0  0  0  0  0  0  0  0  0  0  0
    8.0356   -0.1672    0.0000 C   0  0  2  0  0  0  0  0  0  0  0  0
    6.9158   -2.7402    0.0000 C   0  0  0  0  0  0  0  0  0  0  0  0
    5.8851   -2.8396    0.0000 C   0  0  0  0  0  0  0  0  0  0  0  0
    5.3935    0.3396    0.0000 C   0  0  0  0  0  0  0  0  0  0  0  0
    8.0436   -1.2088    0.0000 C   0  0  0  0  0  0  0  0  0  0  0  0
    5.3935    1.3396    0.0000 C   0  0  0  0  0  0  0  0  0  0  0  0
    4.4936   -1.6770    0.0000 C   0  0  0  0  0  0  0  0  0  0  0  0
    4.4996   -0.1950    0.0000 C   0  0  0  0  0  0  0  0  0  0  0  0
    6.2596    1.8396    0.0000 C   0  0  0  0  0  0  0  0  0  0  0  0
    4.4996    1.8743    0.0000 C   0  0  0  0  0  0  0  0  0  0  0  0
    3.5935    0.3188    0.0000 C   0  0  0  0  0  0  0  0  0  0  0  0
    3.5935    1.3604    0.0000 C   0  0  0  0  0  0  0  0  0  0  0  0
    2.0000    0.8396    0.0000 C   0  0  0  0  0  0  0  0  0  0  0  0
    5.4706   -0.8482    0.0000 H   0  0  0  0  0  0  0  0  0  0  0  0
    5.5202   -0.5797    0.0000 H   0  0  0  0  0  0  0  0  0  0  0  0
    7.8584    0.7703    0.0000 H   0  0  0  0  0  0  0  0  0  0  0  0
    8.5755   -0.4720    0.0000 H   0  0  0  0  0  0  0  0  0  0  0  0
    6.9101   -3.3602    0.0000 H   0  0  0  0  0  0  0  0  0  0  0  0
    7.5318   -2.8110    0.0000 H   0  0  0  0  0  0  0  0  0  0  0  0
    5.2941   -3.0268    0.0000 H   0  0  0  0  0  0  0  0  0  0  0  0
    6.0092   -3.4471    0.0000 H   0  0  0  0  0  0  0  0  0  0  0  0
    8.5817   -1.5168    0.0000 H   0  0  0  0  0  0  0  0  0  0  0  0
    4.6261   -1.0714    0.0000 H   0  0  0  0  0  0  0  0  0  0  0  0
    3.8879   -1.5445    0.0000 H   0  0  0  0  0  0  0  0  0  0  0  0
    4.3610   -2.2827    0.0000 H   0  0  0  0  0  0  0  0  0  0  0  0
    4.5068   -0.8150    0.0000 H   0  0  0  0  0  0  0  0  0  0  0  0
    9.4362    0.0390    0.0000 H   0  0  0  0  0  0  0  0  0  0  0  0
    4.5068    2.4942    0.0000 H   0  0  0  0  0  0  0  0  0  0  0  0
    1.5391    1.2543    0.0000 H   0  0  0  0  0  0  0  0  0  0  0  0
    1.5391    0.4249    0.0000 H   0  0  0  0  0  0  0  0  0  0  0  0
  1  9  1  0  0  0  0
  1 19  1  0  0  0  0
 11  2  1  1  0  0  0
  2 37  1  0  0  0  0
  3 21  1  0  0  0  0
  3 23  1  0  0  0  0
  4 22  1  0  0  0  0
  4 23  1  0  0  0  0
  5 19  2  0  0  0  0
  6  7  1  0  0  0  0
  6 13  1  0  0  0  0
  6 17  1  0  0  0  0
  7  8  1  0  0  0  0
  7 10  1  0  0  0  0
  7 24  1  6  0  0  0
  8  9  1  0  0  0  0
  8 14  1  0  0  0  0
  8 25  1  1  0  0  0
  9 11  1  0  0  0  0
  9 26  1  1  0  0  0
 10 12  1  0  0  0  0
 10 15  2  0  0  0  0
 11 15  1  0  0  0  0
 11 27  1  0  0  0  0
 12 13  1  0  0  0  0
 12 28  1  0  0  0  0
 12 29  1  0  0  0  0
 13 30  1  0  0  0  0
 13 31  1  0  0  0  0
 14 16  1  0  0  0  0
 14 18  2  0  0  0  0
 15 32  1  0  0  0  0
 16 19  1  0  0  0  0
 16 20  2  0  0  0  0
 17 33  1  0  0  0  0
 17 34  1  0  0  0  0
 17 35  1  0  0  0  0
 18 21  1  0  0  0  0
 18 36  1  0  0  0  0
 20 22  1  0  0  0  0
 20 38  1  0  0  0  0
 21 22  2  0  0  0  0
 23 39  1  0  0  0  0
 23 40  1  0  0  0  0
M  END
> <PUBCHEM_COMPOUND_CID>
441594

> <PUBCHEM_COMPOUND_CANONICALIZED>
1

> <PUBCHEM_CACTVS_COMPLEXITY>
563

> <PUBCHEM_CACTVS_HBOND_ACCEPTOR>
6

> <PUBCHEM_CACTVS_HBOND_DONOR>
1

> <PUBCHEM_CACTVS_ROTATABLE_BOND>
0

> <PUBCHEM_CACTVS_SUBSKEYS>
AAADceB6OAAAAAAAAAAAAAAAAAAAAWJAAAA0QIAAAAAAAEiRAAAAHgAACAAADTzhmAcyDoMABgCIAiDSCACCCAAkIAAAiAEOiMgdNjKEtRumcSImwBGPuYf6/f/eoAABAAAQQABAAAIAACCAAAAAAAAAAA==

> <PUBCHEM_IUPAC_INCHI>
InChI=1S/C17H17NO5/c1-18-3-2-8-4-11(19)16-14(15(8)18)9-5-12-13(22-7-21-12)6-10(9)17(20)23-16/h4-6,11,14-16,19H,2-3,7H2,1H3/t11-,14-,15+,16+/m0/s1

> <PUBCHEM_IUPAC_INCHIKEY>
DGQPIOQRPAGNGB-DANNLKNASA-N

> <PUBCHEM_XLOGP3_AA>
0.7

> <PUBCHEM_EXACT_MASS>
315.110673

> <PUBCHEM_MOLECULAR_FORMULA>
C17H17NO5

> <PUBCHEM_MOLECULAR_WEIGHT>
315.32058

> <PUBCHEM_OPENEYE_CAN_SMILES>
CN1CCC2=CC(C3C(C21)C4=CC5=C(C=C4C(=O)O3)OCO5)O

> <PUBCHEM_OPENEYE_ISO_SMILES>
CN1CCC2=C[C@@H]([C@@H]3[C@H]([C@@H]21)C4=CC5=C(C=C4C(=O)O3)OCO5)O

> <PUBCHEM_CACTVS_TPSA>
68.2

> <PUBCHEM_MONOISOTOPIC_WEIGHT>
315.110673

> <PUBCHEM_TOTAL_CHARGE>
0

> <PUBCHEM_HEAVY_ATOM_COUNT>
23

> <PUBCHEM_ATOM_DEF_STEREO_COUNT>
4

> <PUBCHEM_ATOM_UDEF_STEREO_COUNT>
0

> <PUBCHEM_BOND_DEF_STEREO_COUNT>
0

> <PUBCHEM_BOND_UDEF_STEREO_COUNT>
0

> <PUBCHEM_ISOTOPIC_ATOM_COUNT>
0

> <PUBCHEM_COMPONENT_COUNT>
1

> <PUBCHEM_CACTVS_TAUTO_COUNT>
1

> <PUBCHEM_COORDINATE_TYPE>
1
5
255

> <PUBCHEM_BONDANNOTATIONS>
14  16  8
14  18  8
16  20  8
18  21  8
11  2  5
20  22  8
21  22  8
7  24  6
8  25  5
9  26  5

$$$$

