75357
  -OEChem-07051213012D

 18 19  0     0  0  0  0  0  0999 V2000
    3.7320    2.0000    0.0000 Cl  0  0  0  0  0  0  0  0  0  0  0  0
    3.7320   -2.0000    0.0000 Cl  0  0  0  0  0  0  0  0  0  0  0  0
    2.0000    1.0000    0.0000 Cl  0  0  0  0  0  0  0  0  0  0  0  0
    2.0000   -1.0000    0.0000 Cl  0  0  0  0  0  0  0  0  0  0  0  0
    8.1279    0.0000    0.0000 F   0  0  0  0  0  0  0  0  0  0  0  0
    7.1279   -1.0000    0.0000 F   0  0  0  0  0  0  0  0  0  0  0  0
    7.1279    1.0000    0.0000 F   0  0  0  0  0  0  0  0  0  0  0  0
    5.5443    0.8047    0.0000 N   0  0  0  0  0  0  0  0  0  0  0  0
    5.5443   -0.8047    0.0000 N   0  0  0  0  0  0  0  0  0  0  0  0
    4.5981    0.5000    0.0000 C   0  0  0  0  0  0  0  0  0  0  0  0
    4.5981   -0.5000    0.0000 C   0  0  0  0  0  0  0  0  0  0  0  0
    6.1279    0.0000    0.0000 C   0  0  0  0  0  0  0  0  0  0  0  0
    3.7320    1.0000    0.0000 C   0  0  0  0  0  0  0  0  0  0  0  0
    3.7320   -1.0000    0.0000 C   0  0  0  0  0  0  0  0  0  0  0  0
    2.8660    0.5000    0.0000 C   0  0  0  0  0  0  0  0  0  0  0  0
    2.8660   -0.5000    0.0000 C   0  0  0  0  0  0  0  0  0  0  0  0
    7.1279    0.0000    0.0000 C   0  0  0  0  0  0  0  0  0  0  0  0
    5.7369    1.3940    0.0000 H   0  0  0  0  0  0  0  0  0  0  0  0
  1 13  1  0  0  0  0
  2 14  1  0  0  0  0
  3 15  1  0  0  0  0
  4 16  1  0  0  0  0
  5 17  1  0  0  0  0
  6 17  1  0  0  0  0
  7 17  1  0  0  0  0
  8 10  1  0  0  0  0
  8 12  1  0  0  0  0
  8 18  1  0  0  0  0
  9 11  1  0  0  0  0
  9 12  2  0  0  0  0
 10 11  2  0  0  0  0
 10 13  1  0  0  0  0
 11 14  1  0  0  0  0
 12 17  1  0  0  0  0
 13 15  2  0  0  0  0
 14 16  2  0  0  0  0
 15 16  1  0  0  0  0
M  END
> <PUBCHEM_COMPOUND_CID>
75357

> <PUBCHEM_COMPOUND_CANONICALIZED>
1

> <PUBCHEM_CACTVS_COMPLEXITY>
303

> <PUBCHEM_CACTVS_HBOND_ACCEPTOR>
4

> <PUBCHEM_CACTVS_HBOND_DONOR>
1

> <PUBCHEM_CACTVS_ROTATABLE_BOND>
0

> <PUBCHEM_CACTVS_SUBSKEYS>
AAADcQBzAYAHAAAAAAAAAAAAAAAAAWAAAAAwAAAAAAAAAFgB8AAADQIQAAAACAoBFzAB0LbJkACgAQZgZACCgC2hFKABm2AgVpiIaCLBmpHUIAhogALIyCcQAAAAAABQAAKAADQAAKAABQAAaAAAAAAAAA==

> <PUBCHEM_IUPAC_OPENEYE_NAME>
4,5,6,7-tetrachloro-2-(trifluoromethyl)-1H-benzimidazole

> <PUBCHEM_IUPAC_CAS_NAME>
4,5,6,7-tetrachloro-2-(trifluoromethyl)-1H-benzimidazole

> <PUBCHEM_IUPAC_NAME>
4,5,6,7-tetrachloro-2-(trifluoromethyl)-1H-benzimidazole

> <PUBCHEM_IUPAC_SYSTEMATIC_NAME>
4,5,6,7-tetrakis(chloranyl)-2-(trifluoromethyl)-1H-benzimidazole

> <PUBCHEM_IUPAC_TRADITIONAL_NAME>
4,5,6,7-tetrachloro-2-(trifluoromethyl)-1H-benzimidazole

> <PUBCHEM_IUPAC_INCHI>
InChI=1S/C8HCl4F3N2/c9-1-2(10)4(12)6-5(3(1)11)16-7(17-6)8(13,14)15/h(H,16,17)

> <PUBCHEM_IUPAC_INCHIKEY>
QLKDMIUEWFNEPV-UHFFFAOYSA-N

> <PUBCHEM_XLOGP3>
4.4

> <PUBCHEM_EXACT_MASS>
323.881643

> <PUBCHEM_MOLECULAR_FORMULA>
C8HCl4F3N2

> <PUBCHEM_MOLECULAR_WEIGHT>
323.91415

> <PUBCHEM_OPENEYE_CAN_SMILES>
C12=C(C(=C(C(=C1Cl)Cl)Cl)Cl)N=C(N2)C(F)(F)F

> <PUBCHEM_OPENEYE_ISO_SMILES>
C12=C(C(=C(C(=C1Cl)Cl)Cl)Cl)N=C(N2)C(F)(F)F

> <PUBCHEM_CACTVS_TPSA>
28.7

> <PUBCHEM_MONOISOTOPIC_WEIGHT>
321.884593

> <PUBCHEM_TOTAL_CHARGE>
0

> <PUBCHEM_HEAVY_ATOM_COUNT>
17

> <PUBCHEM_ATOM_DEF_STEREO_COUNT>
0

> <PUBCHEM_ATOM_UDEF_STEREO_COUNT>
0

> <PUBCHEM_BOND_DEF_STEREO_COUNT>
0

> <PUBCHEM_BOND_UDEF_STEREO_COUNT>
0

> <PUBCHEM_ISOTOPIC_ATOM_COUNT>
0

> <PUBCHEM_COMPONENT_COUNT>
1

> <PUBCHEM_CACTVS_TAUTO_COUNT>
1

> <PUBCHEM_COORDINATE_TYPE>
1
5
255

> <PUBCHEM_BONDANNOTATIONS>
10  11  8
10  13  8
11  14  8
13  15  8
14  16  8
15  16  8
8  10  8
8  12  8
9  11  8
9  12  8

$$$$

