440304
  -OEChem-07051212493D

 48 47  0     1  0  0  0  0  0999 V2000
    5.1659    1.4229    2.2434 S   0  0  0  0  0  0  0  0  0  0  0  0
   -2.6985   -2.8936   -0.3830 P   0  0  0  0  0  0  0  0  0  0  0  0
   -3.3799   -1.4478   -0.1449 O   0  0  0  0  0  0  0  0  0  0  0  0
   -4.2531    2.7159   -0.2080 O   0  0  0  0  0  0  0  0  0  0  0  0
   -1.5662    2.9739   -0.0580 O   0  0  0  0  0  0  0  0  0  0  0  0
   -1.1234   -2.5359   -0.4611 O   0  0  0  0  0  0  0  0  0  0  0  0
   -2.8425   -3.6284    1.0503 O   0  0  0  0  0  0  0  0  0  0  0  0
   -3.2325   -3.6635   -1.5553 O   0  0  0  0  0  0  0  0  0  0  0  0
    2.8443    1.2839   -2.0480 O   0  0  0  0  0  0  0  0  0  0  0  0
    4.3846   -2.0099    0.9108 O   0  0  0  0  0  0  0  0  0  0  0  0
    6.4924   -1.4830    0.2629 O   0  0  0  0  0  0  0  0  0  0  0  0
   -1.3461    1.0420   -1.3240 N   0  0  0  0  0  0  0  0  0  0  0  0
    3.2711    0.1162   -0.0862 N   0  0  0  0  0  0  0  0  0  0  0  0
   -3.6866    0.6864    1.0216 C   0  0  0  0  0  0  0  0  0  0  0  0
   -3.4847    1.5177   -0.2801 C   0  0  2  0  0  0  0  0  0  0  0  0
   -2.9242   -0.6593    0.9493 C   0  0  0  0  0  0  0  0  0  0  0  0
   -3.2269    1.4795    2.2610 C   0  0  0  0  0  0  0  0  0  0  0  0
   -5.1970    0.3951    1.1905 C   0  0  0  0  0  0  0  0  0  0  0  0
   -2.0408    1.9446   -0.5349 C   0  0  0  0  0  0  0  0  0  0  0  0
    0.0432    1.2152   -1.6809 C   0  0  0  0  0  0  0  0  0  0  0  0
    0.9824    0.5722   -0.6698 C   0  0  0  0  0  0  0  0  0  0  0  0
    2.4521    0.7151   -1.0327 C   0  0  0  0  0  0  0  0  0  0  0  0
    4.7114    0.0969   -0.1966 C   0  0  1  0  0  0  0  0  0  0  0  0
    5.3504    1.3382    0.4311 C   0  0  0  0  0  0  0  0  0  0  0  0
    5.3045   -1.1942    0.3425 C   0  0  0  0  0  0  0  0  0  0  0  0
   -3.8562    0.9555   -1.1457 H   0  0  0  0  0  0  0  0  0  0  0  0
   -1.8463   -0.4922    0.8621 H   0  0  0  0  0  0  0  0  0  0  0  0
   -3.0902   -1.2223    1.8751 H   0  0  0  0  0  0  0  0  0  0  0  0
   -2.1477    1.6634    2.2424 H   0  0  0  0  0  0  0  0  0  0  0  0
   -3.7342    2.4471    2.3370 H   0  0  0  0  0  0  0  0  0  0  0  0
   -3.4419    0.9236    3.1813 H   0  0  0  0  0  0  0  0  0  0  0  0
   -5.3776   -0.2539    2.0553 H   0  0  0  0  0  0  0  0  0  0  0  0
   -5.7711    1.3150    1.3483 H   0  0  0  0  0  0  0  0  0  0  0  0
   -5.6099   -0.1054    0.3077 H   0  0  0  0  0  0  0  0  0  0  0  0
   -1.8177    0.2074   -1.6597 H   0  0  0  0  0  0  0  0  0  0  0  0
   -4.2231    3.1364   -1.0845 H   0  0  0  0  0  0  0  0  0  0  0  0
    0.1801    0.7637   -2.6696 H   0  0  0  0  0  0  0  0  0  0  0  0
    0.2586    2.2858   -1.7736 H   0  0  0  0  0  0  0  0  0  0  0  0
    0.8282    1.0199    0.3200 H   0  0  0  0  0  0  0  0  0  0  0  0
    0.7566   -0.4968   -0.5801 H   0  0  0  0  0  0  0  0  0  0  0  0
    4.9440    0.0989   -1.2695 H   0  0  0  0  0  0  0  0  0  0  0  0
    2.8489   -0.3156    0.7311 H   0  0  0  0  0  0  0  0  0  0  0  0
    6.4245    1.3535    0.2167 H   0  0  0  0  0  0  0  0  0  0  0  0
    4.9164    2.2499    0.0070 H   0  0  0  0  0  0  0  0  0  0  0  0
   -0.4865   -3.2438   -0.6962 H   0  0  0  0  0  0  0  0  0  0  0  0
   -2.5492   -4.5604    1.1373 H   0  0  0  0  0  0  0  0  0  0  0  0
    5.8277    2.5775    2.4089 H   0  0  0  0  0  0  0  0  0  0  0  0
    4.7869   -2.8395    1.2457 H   0  0  0  0  0  0  0  0  0  0  0  0
  1 24  1  0  0  0  0
  1 47  1  0  0  0  0
  2  3  1  0  0  0  0
  2  6  1  0  0  0  0
  2  7  1  0  0  0  0
  2  8  2  0  0  0  0
  3 16  1  0  0  0  0
  4 15  1  0  0  0  0
  4 36  1  0  0  0  0
  5 19  2  0  0  0  0
  6 45  1  0  0  0  0
  7 46  1  0  0  0  0
  9 22  2  0  0  0  0
 10 25  1  0  0  0  0
 10 48  1  0  0  0  0
 11 25  2  0  0  0  0
 12 19  1  0  0  0  0
 12 20  1  0  0  0  0
 12 35  1  0  0  0  0
 13 22  1  0  0  0  0
 13 23  1  0  0  0  0
 13 42  1  0  0  0  0
 14 15  1  0  0  0  0
 14 16  1  0  0  0  0
 14 17  1  0  0  0  0
 14 18  1  0  0  0  0
 15 19  1  0  0  0  0
 15 26  1  0  0  0  0
 16 27  1  0  0  0  0
 16 28  1  0  0  0  0
 17 29  1  0  0  0  0
 17 30  1  0  0  0  0
 17 31  1  0  0  0  0
 18 32  1  0  0  0  0
 18 33  1  0  0  0  0
 18 34  1  0  0  0  0
 20 21  1  0  0  0  0
 20 37  1  0  0  0  0
 20 38  1  0  0  0  0
 21 22  1  0  0  0  0
 21 39  1  0  0  0  0
 21 40  1  0  0  0  0
 23 24  1  0  0  0  0
 23 25  1  0  0  0  0
 23 41  1  0  0  0  0
 24 43  1  0  0  0  0
 24 44  1  0  0  0  0
M  END
> <PUBCHEM_COMPOUND_CID>
440304

> <PUBCHEM_CONFORMER_RMSD>
1

> <PUBCHEM_CONFORMER_DIVERSEORDER>
1
118
28
107
79
67
31
87
78
12
84
85
29
115
81
93
94
5
26
15
68
36
59
34
72
103
46
30
69
56
19
11
33
89
40
110
90
97
23
18
113
109
41
99
51
77
57
117
4
91
80
37
92
88
54
60
82
8
73
45
112
20
122
14
55
120
119
111
61
95
21
16
98
42
104
53
58
10
32
63
52
121
101
27
44
86
22
50
48
64
2
83
49
9
7
24
17
13
70
108
47
75
106
74
66
62
96
38
100
35
114
105
65
39
25
102
71
6
43
116
3
76

> <PUBCHEM_MMFF94_PARTIAL_CHARGES>
29
1 -0.41
10 -0.65
11 -0.57
12 -0.73
13 -0.73
15 0.34
16 0.28
19 0.57
2 1.51
20 0.3
21 0.06
22 0.57
23 0.36
24 0.23
25 0.66
3 -0.55
35 0.37
36 0.4
4 -0.68
42 0.37
45 0.5
46 0.5
47 0.18
48 0.5
5 -0.57
6 -0.77
7 -0.77
8 -0.7
9 -0.57

> <PUBCHEM_EFFECTIVE_ROTOR_COUNT>
13

> <PUBCHEM_PHARMACOPHORE_FEATURES>
14
1 10 acceptor
1 11 acceptor
1 12 donor
1 13 donor
1 4 acceptor
1 4 donor
1 5 acceptor
1 6 acceptor
1 7 acceptor
1 8 acceptor
1 9 acceptor
3 10 11 25 anion
3 14 17 18 hydrophobe
4 2 6 7 8 anion

> <PUBCHEM_HEAVY_ATOM_COUNT>
25

> <PUBCHEM_ATOM_DEF_STEREO_COUNT>
2

> <PUBCHEM_ATOM_UDEF_STEREO_COUNT>
0

> <PUBCHEM_BOND_DEF_STEREO_COUNT>
0

> <PUBCHEM_BOND_UDEF_STEREO_COUNT>
0

> <PUBCHEM_ISOTOPIC_ATOM_COUNT>
0

> <PUBCHEM_COMPONENT_COUNT>
1

> <PUBCHEM_CACTVS_TAUTO_COUNT>
4

> <PUBCHEM_CONFORMER_ID>
0006B7F000000001

> <PUBCHEM_MMFF94_ENERGY>
9.6434

> <PUBCHEM_FEATURE_SELFOVERLAP>
71.144

> <PUBCHEM_SHAPE_FINGERPRINT>
11045977 3 18259990387898326296
11370993 144 18040711498215001294
11552529 35 18114748118398486826
12523318 42 18335422327049667785
12633257 1 18115008758641975057
13004483 165 17899695661941356335
13551218 46 18131060571929712003
13583140 156 18041009410195409000
13994607 96 5833721226808681799
14100547 121 18409448089687951327
14341114 176 18410291437150951856
14844126 61 18336544898610472915
14950920 106 18187083983773913008
15348495 7 18261118461253656912
15537594 2 18059841866799040566
16120349 306 18341618126390650251
1813 80 16200143322753358108
19377110 9 18129098919038390244
20261772 1 18201433701295241774
20621476 51 18338797810445972663
23559900 14 18042380539791962316
312425 54 18408325493116770570
338550 245 18131060567867080734
3459 110 17896890850253818888
351380 3 16773511161806939768
5104073 3 18260844678784659674
559249 180 17846497092921759149
5924683 9 18335425616862845327
9981440 41 16660640821274021575

> <PUBCHEM_SHAPE_MULTIPOLES>
459.4
13.94
3.73
1.8
18.1
3.34
-0.35
1
-5.77
-4.54
0.24
0.24
-0.68
-0.46

> <PUBCHEM_SHAPE_SELFOVERLAP>
875.68

> <PUBCHEM_SHAPE_VOLUME>
284.3

> <PUBCHEM_COORDINATE_TYPE>
2
5
10

$$$$

