5281872
  -OEChem-07051213003D

 51 53  0     1  0  0  0  0  0999 V2000
    5.8793    1.9098    1.1856 Cl  0  0  0  0  0  0  0  0  0  0  0  0
    8.0693    1.2245   -0.2981 F   0  0  0  0  0  0  0  0  0  0  0  0
    6.9476    0.3810   -1.9676 F   0  0  0  0  0  0  0  0  0  0  0  0
    7.6610   -0.9117   -0.3693 F   0  0  0  0  0  0  0  0  0  0  0  0
    0.0159   -1.2778    0.2613 O   0  0  0  0  0  0  0  0  0  0  0  0
    1.4993   -1.8068    1.9515 O   0  0  0  0  0  0  0  0  0  0  0  0
    2.4148    0.8628    0.0923 C   0  0  0  0  0  0  0  0  0  0  0  0
    3.4636   -0.0494    0.6576 C   0  0  1  0  0  0  0  0  0  0  0  0
    2.2525   -0.6139    0.0005 C   0  0  1  0  0  0  0  0  0  0  0  0
    2.6763    1.5884   -1.1854 C   0  0  0  0  0  0  0  0  0  0  0  0
    1.5915    1.6427    1.0617 C   0  0  0  0  0  0  0  0  0  0  0  0
    4.7428   -0.2088   -0.0180 C   0  0  0  0  0  0  0  0  0  0  0  0
    1.2420   -1.3029    0.8666 C   0  0  0  0  0  0  0  0  0  0  0  0
    5.8449    0.5475    0.1140 C   0  0  0  0  0  0  0  0  0  0  0  0
   -1.0412   -1.9012    0.9786 C   0  0  0  0  0  0  0  0  0  0  0  0
    7.1201    0.3085   -0.6223 C   0  0  0  0  0  0  0  0  0  0  0  0
   -2.3055   -1.7900    0.1907 C   0  0  0  0  0  0  0  0  0  0  0  0
   -3.1609   -0.6996    0.3497 C   0  0  0  0  0  0  0  0  0  0  0  0
   -2.6247   -2.8003   -0.7165 C   0  0  0  0  0  0  0  0  0  0  0  0
   -4.3370   -0.6175   -0.3985 C   0  0  0  0  0  0  0  0  0  0  0  0
   -2.8063    0.3784    1.3270 C   0  0  0  0  0  0  0  0  0  0  0  0
   -3.7993   -2.7203   -1.4648 C   0  0  0  0  0  0  0  0  0  0  0  0
   -4.6545   -1.6300   -1.3059 C   0  0  0  0  0  0  0  0  0  0  0  0
   -5.2425    0.5019   -0.2545 C   0  0  0  0  0  0  0  0  0  0  0  0
   -6.2730    0.4488    0.6840 C   0  0  0  0  0  0  0  0  0  0  0  0
   -5.0846    1.6344   -1.0537 C   0  0  0  0  0  0  0  0  0  0  0  0
   -7.1459    1.5280    0.8234 C   0  0  0  0  0  0  0  0  0  0  0  0
   -5.9574    2.7135   -0.9142 C   0  0  0  0  0  0  0  0  0  0  0  0
   -6.9880    2.6602    0.0243 C   0  0  0  0  0  0  0  0  0  0  0  0
    3.5319   -0.1298    1.7385 H   0  0  0  0  0  0  0  0  0  0  0  0
    2.3657   -1.0737   -0.9773 H   0  0  0  0  0  0  0  0  0  0  0  0
    1.7328    1.9210   -1.6329 H   0  0  0  0  0  0  0  0  0  0  0  0
    3.2917    2.4768   -1.0061 H   0  0  0  0  0  0  0  0  0  0  0  0
    3.1844    0.9751   -1.9378 H   0  0  0  0  0  0  0  0  0  0  0  0
    0.5852    1.8115    0.6634 H   0  0  0  0  0  0  0  0  0  0  0  0
    1.4874    1.1471    2.0329 H   0  0  0  0  0  0  0  0  0  0  0  0
    2.0477    2.6210    1.2493 H   0  0  0  0  0  0  0  0  0  0  0  0
    4.8146   -1.0526   -0.7035 H   0  0  0  0  0  0  0  0  0  0  0  0
   -0.7955   -2.9610    1.1287 H   0  0  0  0  0  0  0  0  0  0  0  0
   -1.1392   -1.4649    1.9793 H   0  0  0  0  0  0  0  0  0  0  0  0
   -1.9668   -3.6545   -0.8532 H   0  0  0  0  0  0  0  0  0  0  0  0
   -2.9863    0.0297    2.3495 H   0  0  0  0  0  0  0  0  0  0  0  0
   -1.7548    0.6684    1.2266 H   0  0  0  0  0  0  0  0  0  0  0  0
   -3.3659    1.3076    1.1957 H   0  0  0  0  0  0  0  0  0  0  0  0
   -4.0474   -3.5066   -2.1716 H   0  0  0  0  0  0  0  0  0  0  0  0
   -5.5655   -1.5852   -1.8985 H   0  0  0  0  0  0  0  0  0  0  0  0
   -6.4098   -0.4259    1.3155 H   0  0  0  0  0  0  0  0  0  0  0  0
   -4.2860    1.6925   -1.7896 H   0  0  0  0  0  0  0  0  0  0  0  0
   -7.9483    1.4868    1.5542 H   0  0  0  0  0  0  0  0  0  0  0  0
   -5.8345    3.5953   -1.5361 H   0  0  0  0  0  0  0  0  0  0  0  0
   -7.6674    3.5005    0.1329 H   0  0  0  0  0  0  0  0  0  0  0  0
  1 14  1  0  0  0  0
  2 16  1  0  0  0  0
  3 16  1  0  0  0  0
  4 16  1  0  0  0  0
  5 13  1  0  0  0  0
  5 15  1  0  0  0  0
  6 13  2  0  0  0  0
  7  8  1  0  0  0  0
  7  9  1  0  0  0  0
  7 10  1  0  0  0  0
  7 11  1  0  0  0  0
  8  9  1  0  0  0  0
  8 12  1  0  0  0  0
  8 30  1  0  0  0  0
  9 13  1  0  0  0  0
  9 31  1  0  0  0  0
 10 32  1  0  0  0  0
 10 33  1  0  0  0  0
 10 34  1  0  0  0  0
 11 35  1  0  0  0  0
 11 36  1  0  0  0  0
 11 37  1  0  0  0  0
 12 14  2  0  0  0  0
 12 38  1  0  0  0  0
 14 16  1  0  0  0  0
 15 17  1  0  0  0  0
 15 39  1  0  0  0  0
 15 40  1  0  0  0  0
 17 18  2  0  0  0  0
 17 19  1  0  0  0  0
 18 20  1  0  0  0  0
 18 21  1  0  0  0  0
 19 22  2  0  0  0  0
 19 41  1  0  0  0  0
 20 23  2  0  0  0  0
 20 24  1  0  0  0  0
 21 42  1  0  0  0  0
 21 43  1  0  0  0  0
 21 44  1  0  0  0  0
 22 23  1  0  0  0  0
 22 45  1  0  0  0  0
 23 46  1  0  0  0  0
 24 25  2  0  0  0  0
 24 26  1  0  0  0  0
 25 27  1  0  0  0  0
 25 47  1  0  0  0  0
 26 28  2  0  0  0  0
 26 48  1  0  0  0  0
 27 29  2  0  0  0  0
 27 49  1  0  0  0  0
 28 29  1  0  0  0  0
 28 50  1  0  0  0  0
 29 51  1  0  0  0  0
M  END
> <PUBCHEM_COMPOUND_CID>
5281872

> <PUBCHEM_CONFORMER_RMSD>
1

> <PUBCHEM_CONFORMER_DIVERSEORDER>
1
31
87
55
173
229
75
150
165
22
124
231
241
90
228
74
248
20
223
151
7
135
48
244
243
115
254
158
53
236
222
132
209
203
141
98
35
66
68
171
56
5
12
133
137
258
189
19
246
40
212
239
144
140
99
95
178
11
81
179
256
169
92
217
233
16
193
89
24
183
62
145
3
14
224
162
250
101
32
25
63
168
36
108
130
190
28
29
13
118
83
111
220
102
166
148
146
9
110
156
60
82
218
216
49
17
69
245
93
27
221
8
152
78
67
38
175
70
127
242
103
84
143
44
30
6
210
86
208
197
113
79
116
174
200
163
15
207
85
219
104
182
199
58
2
4
97
138
120
34
249
251
194
213
192
59
47
136
122
41
206
157
112
195
109
39
105
80
237
10
43
64
23
214
253
125
21
172
257
73
129
147
46
107
180
128
61
164
153
230
225
37
57
123
204
100
96
88
77
211
170
160
238
54
18
106
247
155
26
167
33
71
215
255
65
184
191
42
121
139
201
185
91
114
234
177
196
76
181
198
134
232
50
227
119
187
252
52
202
131
161
176
72
154
205
226
149
186
240
117
142
51
126
159
235
45
188
94

> <PUBCHEM_MMFF94_PARTIAL_CHARGES>
37
1 -0.14
10 0.09
11 0.09
12 -0.19
13 0.72
15 0.42
16 1.16
17 -0.14
18 -0.14
19 -0.15
2 -0.34
21 0.14
22 -0.15
23 -0.15
25 -0.15
26 -0.15
27 -0.15
28 -0.15
29 -0.15
3 -0.34
30 0.1
31 0.1
38 0.15
4 -0.34
41 0.15
45 0.15
46 0.15
47 0.15
48 0.15
49 0.15
5 -0.43
50 0.15
51 0.15
6 -0.57
7 -0.19
8 -0.06
9 -0.1

> <PUBCHEM_EFFECTIVE_ROTOR_COUNT>
7.6

> <PUBCHEM_PHARMACOPHORE_FEATURES>
4
1 6 acceptor
3 7 10 11 hydrophobe
6 17 18 19 20 22 23 rings
6 24 25 26 27 28 29 rings

> <PUBCHEM_HEAVY_ATOM_COUNT>
29

> <PUBCHEM_ATOM_DEF_STEREO_COUNT>
0

> <PUBCHEM_ATOM_UDEF_STEREO_COUNT>
2

> <PUBCHEM_BOND_DEF_STEREO_COUNT>
1

> <PUBCHEM_BOND_UDEF_STEREO_COUNT>
0

> <PUBCHEM_ISOTOPIC_ATOM_COUNT>
0

> <PUBCHEM_COMPONENT_COUNT>
1

> <PUBCHEM_CACTVS_TAUTO_COUNT>
1

> <PUBCHEM_CONFORMER_ID>
0050985000000001

> <PUBCHEM_MMFF94_ENERGY>
75.6914

> <PUBCHEM_FEATURE_SELFOVERLAP>
20.297

> <PUBCHEM_SHAPE_FINGERPRINT>
10 15 14548740598984814866
10369192 42 18260829328703315109
10670039 82 18410019814865609103
10674148 151 18273495676927747192
10815517 723 18131355210913237340
10906281 52 17775279440205586298
11135609 99 8646472029693440825
11315181 36 16878219783848665043
12082328 90 18342457015097478575
12373685 5 4894727167984777391
12633257 1 15410883068873024891
12760667 363 9511454538369241121
12895836 83 18335426781505669339
12895837 130 18340767053220012509
13690498 29 17605851218178771999
15064981 113 17024033842175640597
15183329 4 18410582777050135678
15297060 5 18040713688896482875
15350500 55 17560248054462397301
15475509 8 18130783474083721886
15510800 12 7132138897744008877
1577012 14 18341619225891578771
16992727 255 18411979165760806124
20505436 4 18341898519647876235
21298829 104 18343021103327548372
21756936 100 18201719540291567659
21987483 16 6627454200155797662
22393880 68 18260840249961389763
23389318 12 6194551226493208754
23559900 14 17603876546222483601
2838139 119 18342459205472186100
4098825 35 18259704497552895151
44880568 143 18261955133741640280
4516262 110 18059304240067923847
508180 173 18334294240772506832
5385378 56 17703514384721784826
5969126 39 13912316906429716771
6328613 192 17917427567550956788
6431902 208 9439401346330238025

> <PUBCHEM_SHAPE_MULTIPOLES>
565.12
22.6
2.9
1.38
21.14
0.33
0.05
-13.71
4.82
-4.72
0.44
0.24
0.12
-0.47

> <PUBCHEM_SHAPE_SELFOVERLAP>
1203.996

> <PUBCHEM_SHAPE_VOLUME>
318.3

> <PUBCHEM_COORDINATE_TYPE>
2
5
10

$$$$

