11260
  -OEChem-06261205273D

 23 22  0     1  0  0  0  0  0999 V2000
   -0.2411    0.5974    0.3144 C   0  0  2  0  0  0  0  0  0  0  0  0
    0.7775   -0.5720    0.1909 C   0  0  0  0  0  0  0  0  0  0  0  0
   -1.6448    0.2672   -0.2410 C   0  0  0  0  0  0  0  0  0  0  0  0
    0.2496    1.8996   -0.3340 C   0  0  0  0  0  0  0  0  0  0  0  0
    1.0668   -0.9941   -1.2521 C   0  0  0  0  0  0  0  0  0  0  0  0
    2.0969   -0.2606    0.9080 C   0  0  0  0  0  0  0  0  0  0  0  0
   -2.3049   -0.9376    0.4138 C   0  0  0  0  0  0  0  0  0  0  0  0
   -0.3640    0.8054    1.3868 H   0  0  0  0  0  0  0  0  0  0  0  0
    0.3540   -1.4424    0.7072 H   0  0  0  0  0  0  0  0  0  0  0  0
   -2.2985    1.1343   -0.0799 H   0  0  0  0  0  0  0  0  0  0  0  0
   -1.6049    0.1136   -1.3254 H   0  0  0  0  0  0  0  0  0  0  0  0
    1.2020    2.2284    0.0912 H   0  0  0  0  0  0  0  0  0  0  0  0
    0.3734    1.7921   -1.4161 H   0  0  0  0  0  0  0  0  0  0  0  0
   -0.4711    2.7075   -0.1640 H   0  0  0  0  0  0  0  0  0  0  0  0
    0.1540   -1.2997   -1.7715 H   0  0  0  0  0  0  0  0  0  0  0  0
    1.7500   -1.8507   -1.2696 H   0  0  0  0  0  0  0  0  0  0  0  0
    1.5361   -0.1887   -1.8254 H   0  0  0  0  0  0  0  0  0  0  0  0
    2.7282   -1.1551    0.9520 H   0  0  0  0  0  0  0  0  0  0  0  0
    1.9152    0.0669    1.9369 H   0  0  0  0  0  0  0  0  0  0  0  0
    2.6684    0.5182    0.3936 H   0  0  0  0  0  0  0  0  0  0  0  0
   -3.3420   -1.0263    0.0741 H   0  0  0  0  0  0  0  0  0  0  0  0
   -1.7945   -1.8685    0.1511 H   0  0  0  0  0  0  0  0  0  0  0  0
   -2.3134   -0.8385    1.5037 H   0  0  0  0  0  0  0  0  0  0  0  0
  1  2  1  0  0  0  0
  1  3  1  0  0  0  0
  1  4  1  0  0  0  0
  1  8  1  0  0  0  0
  2  5  1  0  0  0  0
  2  6  1  0  0  0  0
  2  9  1  0  0  0  0
  3  7  1  0  0  0  0
  3 10  1  0  0  0  0
  3 11  1  0  0  0  0
  4 12  1  0  0  0  0
  4 13  1  0  0  0  0
  4 14  1  0  0  0  0
  5 15  1  0  0  0  0
  5 16  1  0  0  0  0
  5 17  1  0  0  0  0
  6 18  1  0  0  0  0
  6 19  1  0  0  0  0
  6 20  1  0  0  0  0
  7 21  1  0  0  0  0
  7 22  1  0  0  0  0
  7 23  1  0  0  0  0
M  END
> <PUBCHEM_COMPOUND_CID>
11260

> <PUBCHEM_CONFORMER_RMSD>
0.4

> <PUBCHEM_CONFORMER_DIVERSEORDER>
1
7
11
8
5
3
6
4
10
9
2

> <PUBCHEM_MMFF94_PARTIAL_CHARGES>
0

> <PUBCHEM_EFFECTIVE_ROTOR_COUNT>
2

> <PUBCHEM_PHARMACOPHORE_FEATURES>
3
1 4 hydrophobe
1 7 hydrophobe
3 2 5 6 hydrophobe

> <PUBCHEM_HEAVY_ATOM_COUNT>
7

> <PUBCHEM_ATOM_DEF_STEREO_COUNT>
0

> <PUBCHEM_ATOM_UDEF_STEREO_COUNT>
1

> <PUBCHEM_BOND_DEF_STEREO_COUNT>
0

> <PUBCHEM_BOND_UDEF_STEREO_COUNT>
0

> <PUBCHEM_ISOTOPIC_ATOM_COUNT>
0

> <PUBCHEM_COMPONENT_COUNT>
1

> <PUBCHEM_CACTVS_TAUTO_COUNT>
1

> <PUBCHEM_CONFORMER_ID>
00002BFC00000001

> <PUBCHEM_MMFF94_ENERGY>
7.3505

> <PUBCHEM_FEATURE_SELFOVERLAP>
15.228

> <PUBCHEM_SHAPE_FINGERPRINT>
10857977 72 18339379490724975952
21040471 1 17404863043013831516
23552449 11 18270399369809404899
24536 1 18260822700825043425
29004967 10 18334294275168959603
5943 1 17324687325252369756

> <PUBCHEM_SHAPE_MULTIPOLES>
144.06
2.66
1.52
1.03
0.83
0.73
0.17
-0.96
-0.6
-0.02
0.27
-0.42
-0.24
0.22

> <PUBCHEM_SHAPE_SELFOVERLAP>
250.591

> <PUBCHEM_SHAPE_VOLUME>
98.1

> <PUBCHEM_COORDINATE_TYPE>
2
5
10

$$$$

