656563
  -OEChem-07051212553D

 53 55  0     1  0  0  0  0  0999 V2000
    1.2711   -1.0524    2.2073 S   0  0  0  0  0  0  0  0  0  0  0  0
    0.0128   -3.5546   -1.0941 S   0  0  0  0  0  0  0  0  0  0  0  0
    1.9851   -0.1586   -0.2080 O   0  0  0  0  0  0  0  0  0  0  0  0
    5.6898    1.2277    0.9065 O   0  0  0  0  0  0  0  0  0  0  0  0
    4.5263    2.0416   -1.6554 O   0  0  0  0  0  0  0  0  0  0  0  0
    3.6393    0.8684    2.9035 O   0  0  0  0  0  0  0  0  0  0  0  0
    0.8446    0.2353   -2.6748 O   0  0  0  0  0  0  0  0  0  0  0  0
   -1.0723    2.1949   -0.0461 O   0  0  0  0  0  0  0  0  0  0  0  0
    0.4067   -2.5818    0.1559 O   0  0  0  0  0  0  0  0  0  0  0  0
    1.4405   -4.2419   -1.4769 O   0  0  0  0  0  0  0  0  0  0  0  0
   -0.3890   -2.7232   -2.2132 O   0  0  0  0  0  0  0  0  0  0  0  0
   -0.8610   -4.6023   -0.5996 O   0  0  0  0  0  0  0  0  0  0  0  0
   -4.7305   -0.4457    1.1021 N   0  0  0  0  0  0  0  0  0  0  0  0
   -0.6725   -1.7862    0.5452 N   0  0  0  0  0  0  0  0  0  0  0  0
    4.2899    1.3280    0.6383 C   0  0  1  0  0  0  0  0  0  0  0  0
    4.0276    0.9924   -0.8302 C   0  0  1  0  0  0  0  0  0  0  0  0
    3.5597    0.3582    1.5729 C   0  0  2  0  0  0  0  0  0  0  0  0
    2.5272    0.8285   -1.0863 C   0  0  1  0  0  0  0  0  0  0  0  0
    2.0900    0.2103    1.1669 C   0  0  2  0  0  0  0  0  0  0  0  0
    2.2445    0.3757   -2.5152 C   0  0  0  0  0  0  0  0  0  0  0  0
   -0.3590   -1.0139    1.5379 C   0  0  0  0  0  0  0  0  0  0  0  0
   -1.2817   -0.0177    2.2187 C   0  0  0  0  0  0  0  0  0  0  0  0
   -2.6332    0.0163    1.5671 C   0  0  0  0  0  0  0  0  0  0  0  0
   -3.0180    0.8512    0.4993 C   0  0  0  0  0  0  0  0  0  0  0  0
   -4.3509    0.5415    0.2207 C   0  0  0  0  0  0  0  0  0  0  0  0
   -3.6860   -0.7702    1.9257 C   0  0  0  0  0  0  0  0  0  0  0  0
   -2.3776    1.8439   -0.2686 C   0  0  0  0  0  0  0  0  0  0  0  0
   -5.0783    1.1776   -0.7916 C   0  0  0  0  0  0  0  0  0  0  0  0
   -3.0926    2.4883   -1.2846 C   0  0  0  0  0  0  0  0  0  0  0  0
   -4.4221    2.1588   -1.5403 C   0  0  0  0  0  0  0  0  0  0  0  0
   -0.5302    3.2099   -0.8829 C   0  0  0  0  0  0  0  0  0  0  0  0
    4.0067    2.3664    0.8504 H   0  0  0  0  0  0  0  0  0  0  0  0
    4.5644    0.0736   -1.0980 H   0  0  0  0  0  0  0  0  0  0  0  0
    4.0778   -0.6097    1.5509 H   0  0  0  0  0  0  0  0  0  0  0  0
    2.0046    1.7755   -0.9172 H   0  0  0  0  0  0  0  0  0  0  0  0
    1.5523    1.1516    1.3339 H   0  0  0  0  0  0  0  0  0  0  0  0
    2.6921   -0.6043   -2.7099 H   0  0  0  0  0  0  0  0  0  0  0  0
    2.6166    1.0869   -3.2586 H   0  0  0  0  0  0  0  0  0  0  0  0
    5.8215    1.4360    1.8474 H   0  0  0  0  0  0  0  0  0  0  0  0
    5.4719    2.1455   -1.4537 H   0  0  0  0  0  0  0  0  0  0  0  0
    3.1582    0.2503    3.4799 H   0  0  0  0  0  0  0  0  0  0  0  0
   -0.8234    0.9765    2.2146 H   0  0  0  0  0  0  0  0  0  0  0  0
   -1.3887   -0.3134    3.2703 H   0  0  0  0  0  0  0  0  0  0  0  0
    0.4513    1.1203   -2.6071 H   0  0  0  0  0  0  0  0  0  0  0  0
   -3.7999   -1.5315    2.6848 H   0  0  0  0  0  0  0  0  0  0  0  0
   -5.6473   -0.8694    1.1352 H   0  0  0  0  0  0  0  0  0  0  0  0
   -6.1133    0.9216   -0.9915 H   0  0  0  0  0  0  0  0  0  0  0  0
   -2.6730    3.2607   -1.9207 H   0  0  0  0  0  0  0  0  0  0  0  0
   -4.9598    2.6709   -2.3344 H   0  0  0  0  0  0  0  0  0  0  0  0
    0.5000    3.3851   -0.5597 H   0  0  0  0  0  0  0  0  0  0  0  0
   -0.4973    2.9057   -1.9331 H   0  0  0  0  0  0  0  0  0  0  0  0
   -1.0558    4.1622   -0.7492 H   0  0  0  0  0  0  0  0  0  0  0  0
    1.9569   -4.5946   -0.7146 H   0  0  0  0  0  0  0  0  0  0  0  0
  1 19  1  0  0  0  0
  1 21  1  0  0  0  0
  2  9  1  0  0  0  0
  2 10  1  0  0  0  0
  2 11  2  0  0  0  0
  2 12  2  0  0  0  0
  3 18  1  0  0  0  0
  3 19  1  0  0  0  0
  4 15  1  0  0  0  0
  4 39  1  0  0  0  0
  5 16  1  0  0  0  0
  5 40  1  0  0  0  0
  6 17  1  0  0  0  0
  6 41  1  0  0  0  0
  7 20  1  0  0  0  0
  7 44  1  0  0  0  0
  8 27  1  0  0  0  0
  8 31  1  0  0  0  0
  9 14  1  0  0  0  0
 10 53  1  0  0  0  0
 13 25  1  0  0  0  0
 13 26  1  0  0  0  0
 13 46  1  0  0  0  0
 14 21  2  0  0  0  0
 15 16  1  0  0  0  0
 15 17  1  0  0  0  0
 15 32  1  0  0  0  0
 16 18  1  0  0  0  0
 16 33  1  0  0  0  0
 17 19  1  0  0  0  0
 17 34  1  0  0  0  0
 18 20  1  0  0  0  0
 18 35  1  0  0  0  0
 19 36  1  0  0  0  0
 20 37  1  0  0  0  0
 20 38  1  0  0  0  0
 21 22  1  0  0  0  0
 22 23  1  0  0  0  0
 22 42  1  0  0  0  0
 22 43  1  0  0  0  0
 23 24  1  0  0  0  0
 23 26  2  0  0  0  0
 24 25  2  0  0  0  0
 24 27  1  0  0  0  0
 25 28  1  0  0  0  0
 26 45  1  0  0  0  0
 27 29  2  0  0  0  0
 28 30  2  0  0  0  0
 28 47  1  0  0  0  0
 29 30  1  0  0  0  0
 29 48  1  0  0  0  0
 30 49  1  0  0  0  0
 31 50  1  0  0  0  0
 31 51  1  0  0  0  0
 31 52  1  0  0  0  0
M  END
> <PUBCHEM_COMPOUND_CID>
656563

> <PUBCHEM_CONFORMER_RMSD>
1

> <PUBCHEM_CONFORMER_DIVERSEORDER>
4
219
35
145
54
225
58
151
139
91
114
37
159
165
86
169
10
76
178
105
217
230
69
74
195
55
231
183
120
203
81
227
60
38
36
51
134
216
190
153
215
146
173
77
106
150
82
110
137
32
155
63
214
28
161
171
197
84
16
119
125
17
179
40
221
61
163
152
39
224
164
49
166
96
13
56
66
138
20
228
160
127
52
193
22
210
79
57
62
33
25
116
118
184
112
41
59
78
192
140
128
213
101
65
26
135
7
200
191
180
226
11
209
204
111
133
115
83
3
99
175
113
42
143
220
100
21
156
19
53
104
148
124
222
229
147
177
212
202
108
95
46
205
130
194
201
123
174
186
172
218
27
94
149
68
67
73
31
187
29
34
154
167
5
126
188
44
168
1
30
208
85
24
223
196
98
9
170
92
117
122
93
158
50
144
89
71
207
199
157
129
47
206
141
136
6
132
142
211
45
87
8
14
162
185
182
109
189
90
75
198
70
15
23
131
97
107
102
2
181
12
121
43
88
72
18
80
64
176
48
103

> <PUBCHEM_MMFF94_PARTIAL_CHARGES>
40
1 -0.37
10 -0.68
11 -0.65
12 -0.65
13 0.03
14 -0.51
15 0.28
16 0.28
17 0.28
18 0.28
19 0.51
2 1.67
20 0.28
21 0.53
22 0.24
23 -0.18
25 -0.15
26 -0.3
27 0.08
28 -0.15
29 -0.15
3 -0.56
30 -0.15
31 0.28
39 0.4
4 -0.68
40 0.4
41 0.4
44 0.4
45 0.15
46 0.27
47 0.15
48 0.15
49 0.15
5 -0.68
53 0.5
6 -0.68
7 -0.68
8 -0.36
9 -0.12

> <PUBCHEM_EFFECTIVE_ROTOR_COUNT>
9.2

> <PUBCHEM_PHARMACOPHORE_FEATURES>
20
1 10 acceptor
1 11 acceptor
1 12 acceptor
1 13 cation
1 13 donor
1 14 acceptor
1 3 acceptor
1 4 acceptor
1 4 donor
1 5 acceptor
1 5 donor
1 6 acceptor
1 6 donor
1 7 acceptor
1 7 donor
1 8 acceptor
4 2 10 11 12 anion
5 13 23 24 25 26 rings
6 24 25 27 28 29 30 rings
6 3 15 16 17 18 19 rings

> <PUBCHEM_HEAVY_ATOM_COUNT>
31

> <PUBCHEM_ATOM_DEF_STEREO_COUNT>
5

> <PUBCHEM_ATOM_UDEF_STEREO_COUNT>
0

> <PUBCHEM_BOND_DEF_STEREO_COUNT>
0

> <PUBCHEM_BOND_UDEF_STEREO_COUNT>
1

> <PUBCHEM_ISOTOPIC_ATOM_COUNT>
0

> <PUBCHEM_COMPONENT_COUNT>
1

> <PUBCHEM_CACTVS_TAUTO_COUNT>
1

> <PUBCHEM_CONFORMER_ID>
000A04B300000004

> <PUBCHEM_MMFF94_ENERGY>
74.8281

> <PUBCHEM_FEATURE_SELFOVERLAP>
101.657

> <PUBCHEM_SHAPE_FINGERPRINT>
10764073 3 16556521528052267530
10906281 52 18201432628076242097
12156800 1 17390834064975596775
12467345 10 16845855672044242520
13149001 5 17532666632520329121
13383661 66 16809569456851607183
133893 2 17974552891055057763
13911987 19 18260553298780415025
14251764 3 18260269650629191480
14790565 3 17553776449254699821
17980427 23 17775292672498665629
20511986 3 17274553031031984140
20715895 44 17058387005429239013
21033648 29 18261968400574092352
21756936 100 17702377352539025200
23559900 14 17983574401689110399
23598288 3 18059294236640594682
238 59 18192702564999995623
26353 1 17109044421712427054
3493558 16 14977398259541990593
44802255 64 18196348370318714174
469060 322 18264772065489296823
5951187 136 17049394215710538397
6669772 16 17894641361549393282

> <PUBCHEM_SHAPE_MULTIPOLES>
577.01
9.39
4.06
2.68
0.15
4.33
0.03
-7.08
-1.32
-0.27
3.12
1.43
0.8
1.25

> <PUBCHEM_SHAPE_SELFOVERLAP>
1196.402

> <PUBCHEM_SHAPE_VOLUME>
331.8

> <PUBCHEM_COORDINATE_TYPE>
2
5
10

$$$$

