12862
  -OEChem-06261207282D

 20 21  0     0  0  0  0  0  0999 V2000
    4.5981   -1.5000    0.0000 S   0  0  0  0  0  0  0  0  0  0  0  0
    6.3301    1.5000    0.0000 F   0  0  0  0  0  0  0  0  0  0  0  0
    8.0622   -1.5000    0.0000 F   0  0  0  0  0  0  0  0  0  0  0  0
    6.3301   -1.5000    0.0000 N   0  0  0  0  0  0  0  0  0  0  0  0
    5.4641    0.0000    0.0000 N   0  0  0  0  0  0  0  0  0  0  0  0
    7.1962    0.0000    0.0000 N   0  0  0  0  0  0  0  0  0  0  0  0
    3.7320   -1.0000    0.0000 C   0  0  0  0  0  0  0  0  0  0  0  0
    3.7320    0.0000    0.0000 C   0  0  0  0  0  0  0  0  0  0  0  0
    2.8660   -1.5000    0.0000 C   0  0  0  0  0  0  0  0  0  0  0  0
    2.8660    0.5000    0.0000 C   0  0  0  0  0  0  0  0  0  0  0  0
    2.0000   -1.0000    0.0000 C   0  0  0  0  0  0  0  0  0  0  0  0
    2.0000    0.0000    0.0000 C   0  0  0  0  0  0  0  0  0  0  0  0
    5.4641   -1.0000    0.0000 C   0  0  0  0  0  0  0  0  0  0  0  0
    6.3301    0.5000    0.0000 C   0  0  0  0  0  0  0  0  0  0  0  0
    7.1962   -1.0000    0.0000 C   0  0  0  0  0  0  0  0  0  0  0  0
    4.2690    0.3100    0.0000 H   0  0  0  0  0  0  0  0  0  0  0  0
    2.8660   -2.1200    0.0000 H   0  0  0  0  0  0  0  0  0  0  0  0
    2.8660    1.1200    0.0000 H   0  0  0  0  0  0  0  0  0  0  0  0
    1.4631   -1.3100    0.0000 H   0  0  0  0  0  0  0  0  0  0  0  0
    1.4631    0.3100    0.0000 H   0  0  0  0  0  0  0  0  0  0  0  0
  1  7  1  0  0  0  0
  1 13  1  0  0  0  0
  2 14  1  0  0  0  0
  3 15  1  0  0  0  0
  4 13  2  0  0  0  0
  4 15  1  0  0  0  0
  5 13  1  0  0  0  0
  5 14  2  0  0  0  0
  6 14  1  0  0  0  0
  6 15  2  0  0  0  0
  7  8  2  0  0  0  0
  7  9  1  0  0  0  0
  8 10  1  0  0  0  0
  8 16  1  0  0  0  0
  9 11  2  0  0  0  0
  9 17  1  0  0  0  0
 10 12  2  0  0  0  0
 10 18  1  0  0  0  0
 11 12  1  0  0  0  0
 11 19  1  0  0  0  0
 12 20  1  0  0  0  0
M  END
> <PUBCHEM_COMPOUND_CID>
12862

> <PUBCHEM_COMPOUND_CANONICALIZED>
1

> <PUBCHEM_CACTVS_COMPLEXITY>
192

> <PUBCHEM_CACTVS_HBOND_ACCEPTOR>
6

> <PUBCHEM_CACTVS_HBOND_DONOR>
0

> <PUBCHEM_CACTVS_ROTATABLE_BOND>
2

> <PUBCHEM_CACTVS_SUBSKEYS>
AAADcYBzAYBAAAAAAAAAAAAAAAAAAAAAAAA8QAAAAAAAAAABwAAAHQQAAAAACACAUAAxEYYIEAigACBCJAACUAlgCJAJiBgAAIiIKCKgERCAIAAogAAIiAcAAAAAAAAAAAAAAAAAAAAAAAAAAAAAAAAAAA==

> <PUBCHEM_IUPAC_OPENEYE_NAME>
2,4-difluoro-6-phenylsulfanyl-1,3,5-triazine

> <PUBCHEM_IUPAC_CAS_NAME>
2,4-difluoro-6-(phenylthio)-1,3,5-triazine

> <PUBCHEM_IUPAC_NAME>
2,4-difluoro-6-phenylsulfanyl-1,3,5-triazine

> <PUBCHEM_IUPAC_SYSTEMATIC_NAME>
2,4-bis(fluoranyl)-6-phenylsulfanyl-1,3,5-triazine

> <PUBCHEM_IUPAC_TRADITIONAL_NAME>
2,4-difluoro-6-(phenylthio)-s-triazine

> <PUBCHEM_IUPAC_INCHI>
InChI=1S/C9H5F2N3S/c10-7-12-8(11)14-9(13-7)15-6-4-2-1-3-5-6/h1-5H

> <PUBCHEM_IUPAC_INCHIKEY>
VTFWWCKGGSCQHW-UHFFFAOYSA-N

> <PUBCHEM_XLOGP3_AA>
3.2

> <PUBCHEM_EXACT_MASS>
225.017225

> <PUBCHEM_MOLECULAR_FORMULA>
C9H5F2N3S

> <PUBCHEM_MOLECULAR_WEIGHT>
225.217906

> <PUBCHEM_OPENEYE_CAN_SMILES>
C1=CC=C(C=C1)SC2=NC(=NC(=N2)F)F

> <PUBCHEM_OPENEYE_ISO_SMILES>
C1=CC=C(C=C1)SC2=NC(=NC(=N2)F)F

> <PUBCHEM_CACTVS_TPSA>
64

> <PUBCHEM_MONOISOTOPIC_WEIGHT>
225.017225

> <PUBCHEM_TOTAL_CHARGE>
0

> <PUBCHEM_HEAVY_ATOM_COUNT>
15

> <PUBCHEM_ATOM_DEF_STEREO_COUNT>
0

> <PUBCHEM_ATOM_UDEF_STEREO_COUNT>
0

> <PUBCHEM_BOND_DEF_STEREO_COUNT>
0

> <PUBCHEM_BOND_UDEF_STEREO_COUNT>
0

> <PUBCHEM_ISOTOPIC_ATOM_COUNT>
0

> <PUBCHEM_COMPONENT_COUNT>
1

> <PUBCHEM_CACTVS_TAUTO_COUNT>
1

> <PUBCHEM_COORDINATE_TYPE>
1
5
255

> <PUBCHEM_BONDANNOTATIONS>
10  12  8
11  12  8
4  13  8
4  15  8
5  13  8
5  14  8
6  14  8
6  15  8
7  8  8
7  9  8
8  10  8
9  11  8

$$$$

