17395873
  -OEChem-06241222522D

 45 47  0     1  0  0  0  0  0999 V2000
    4.8479    1.8036    0.0000 O   0  0  0  0  0  0  0  0  0  0  0  0
    2.0000   -0.2655    0.0000 O   0  0  0  0  0  0  0  0  0  0  0  0
    3.0790    2.7172    0.0000 N   0  0  0  0  0  0  0  0  0  0  0  0
    3.2601    0.9946    0.0000 N   0  0  0  0  0  0  0  0  0  0  0  0
    3.7601   -0.5442    0.0000 N   0  0  0  0  0  0  0  0  0  0  0  0
    4.0736    2.8217    0.0000 C   0  0  0  0  0  0  0  0  0  0  0  0
    2.4912    3.5262    0.0000 C   0  0  0  0  0  0  0  0  0  0  0  0
    4.4803    3.7352    0.0000 C   0  0  0  0  0  0  0  0  0  0  0  0
    2.8980    4.4397    0.0000 C   0  0  0  0  0  0  0  0  0  0  0  0
    3.8925    4.5442    0.0000 C   0  0  0  0  0  0  0  0  0  0  0  0
    2.6723    1.8036    0.0000 C   0  0  0  0  0  0  0  0  0  0  0  0
    4.5691    0.0435    0.0000 C   0  0  3  0  0  0  0  0  0  0  0  0
    4.2601    0.9946    0.0000 C   0  0  0  0  0  0  0  0  0  0  0  0
    2.9511    0.0435    0.0000 C   0  0  0  0  0  0  0  0  0  0  0  0
    5.5202   -0.2655    0.0000 C   0  0  0  0  0  0  0  0  0  0  0  0
    3.7601   -1.5442    0.0000 C   0  0  0  0  0  0  0  0  0  0  0  0
    2.8940   -2.0442    0.0000 C   0  0  0  0  0  0  0  0  0  0  0  0
    4.6261   -2.0442    0.0000 C   0  0  0  0  0  0  0  0  0  0  0  0
    2.8940   -3.0442    0.0000 C   0  0  0  0  0  0  0  0  0  0  0  0
    4.6261   -3.0442    0.0000 C   0  0  0  0  0  0  0  0  0  0  0  0
    3.7601   -3.5442    0.0000 C   0  0  0  0  0  0  0  0  0  0  0  0
    3.7601   -4.5442    0.0000 C   0  0  0  0  0  0  0  0  0  0  0  0
    4.0303    2.2032    0.0000 H   0  0  0  0  0  0  0  0  0  0  0  0
    4.6751    2.6717    0.0000 H   0  0  0  0  0  0  0  0  0  0  0  0
    1.9772    3.8729    0.0000 H   0  0  0  0  0  0  0  0  0  0  0  0
    2.0606    3.0802    0.0000 H   0  0  0  0  0  0  0  0  0  0  0  0
    4.9943    3.3885    0.0000 H   0  0  0  0  0  0  0  0  0  0  0  0
    4.9110    4.1812    0.0000 H   0  0  0  0  0  0  0  0  0  0  0  0
    2.9412    5.0582    0.0000 H   0  0  0  0  0  0  0  0  0  0  0  0
    2.2964    4.5897    0.0000 H   0  0  0  0  0  0  0  0  0  0  0  0
    4.4498    4.8160    0.0000 H   0  0  0  0  0  0  0  0  0  0  0  0
    3.7216    5.1402    0.0000 H   0  0  0  0  0  0  0  0  0  0  0  0
    2.1583    2.1503    0.0000 H   0  0  0  0  0  0  0  0  0  0  0  0
    2.2416    1.3576    0.0000 H   0  0  0  0  0  0  0  0  0  0  0  0
    4.6661   -0.5688    0.0000 H   0  0  0  0  0  0  0  0  0  0  0  0
    5.3286   -0.8551    0.0000 H   0  0  0  0  0  0  0  0  0  0  0  0
    6.1098   -0.4571    0.0000 H   0  0  0  0  0  0  0  0  0  0  0  0
    5.7117    0.3242    0.0000 H   0  0  0  0  0  0  0  0  0  0  0  0
    2.3571   -1.7342    0.0000 H   0  0  0  0  0  0  0  0  0  0  0  0
    5.1630   -1.7342    0.0000 H   0  0  0  0  0  0  0  0  0  0  0  0
    2.3571   -3.3542    0.0000 H   0  0  0  0  0  0  0  0  0  0  0  0
    5.1630   -3.3542    0.0000 H   0  0  0  0  0  0  0  0  0  0  0  0
    3.1401   -4.5442    0.0000 H   0  0  0  0  0  0  0  0  0  0  0  0
    3.7601   -5.1642    0.0000 H   0  0  0  0  0  0  0  0  0  0  0  0
    4.3801   -4.5442    0.0000 H   0  0  0  0  0  0  0  0  0  0  0  0
  1 13  2  0  0  0  0
  2 14  2  0  0  0  0
  3  6  1  0  0  0  0
  3  7  1  0  0  0  0
  3 11  1  0  0  0  0
  4 11  1  0  0  0  0
  4 13  1  0  0  0  0
  4 14  1  0  0  0  0
  5 12  1  0  0  0  0
  5 14  1  0  0  0  0
  5 16  1  0  0  0  0
  6  8  1  0  0  0  0
  6 23  1  0  0  0  0
  6 24  1  0  0  0  0
  7  9  1  0  0  0  0
  7 25  1  0  0  0  0
  7 26  1  0  0  0  0
  8 10  1  0  0  0  0
  8 27  1  0  0  0  0
  8 28  1  0  0  0  0
  9 10  1  0  0  0  0
  9 29  1  0  0  0  0
  9 30  1  0  0  0  0
 10 31  1  0  0  0  0
 10 32  1  0  0  0  0
 11 33  1  0  0  0  0
 11 34  1  0  0  0  0
 12 13  1  0  0  0  0
 12 15  1  0  0  0  0
 12 35  1  0  0  0  0
 15 36  1  0  0  0  0
 15 37  1  0  0  0  0
 15 38  1  0  0  0  0
 16 17  2  0  0  0  0
 16 18  1  0  0  0  0
 17 19  1  0  0  0  0
 17 39  1  0  0  0  0
 18 20  2  0  0  0  0
 18 40  1  0  0  0  0
 19 21  2  0  0  0  0
 19 41  1  0  0  0  0
 20 21  1  0  0  0  0
 20 42  1  0  0  0  0
 21 22  1  0  0  0  0
 22 43  1  0  0  0  0
 22 44  1  0  0  0  0
 22 45  1  0  0  0  0
M  END
> <PUBCHEM_COMPOUND_CID>
17395873

> <PUBCHEM_COMPOUND_CANONICALIZED>
1

> <PUBCHEM_CACTVS_COMPLEXITY>
426

> <PUBCHEM_CACTVS_HBOND_ACCEPTOR>
3

> <PUBCHEM_CACTVS_HBOND_DONOR>
0

> <PUBCHEM_CACTVS_ROTATABLE_BOND>
3

> <PUBCHEM_CACTVS_SUBSKEYS>
AAADceB7MAAAAAAAAAAAAAAAAAAAAWAAAAA8QAAAAAAAAAABAAAAHgAAAAAADCjBmAQzwIMAAACIAiVSUACCAAAhAgAIiAGIZIiIYCLAkbGUIAhohyLIyCcQgAAOCAAAAAAAAAAQAAAAAAAAAAAAAAAAAA==

> <PUBCHEM_IUPAC_OPENEYE_NAME>
5-methyl-3-(1-piperidylmethyl)-1-(p-tolyl)imidazolidine-2,4-dione

> <PUBCHEM_IUPAC_CAS_NAME>
5-methyl-1-(4-methylphenyl)-3-(1-piperidinylmethyl)imidazolidine-2,4-dione

> <PUBCHEM_IUPAC_NAME>
5-methyl-1-(4-methylphenyl)-3-(piperidin-1-ylmethyl)imidazolidine-2,4-dione

> <PUBCHEM_IUPAC_SYSTEMATIC_NAME>
5-methyl-1-(4-methylphenyl)-3-(piperidin-1-ylmethyl)imidazolidine-2,4-dione

> <PUBCHEM_IUPAC_TRADITIONAL_NAME>
5-methyl-3-(piperidinomethyl)-1-(p-tolyl)hydantoin

> <PUBCHEM_IUPAC_INCHI>
InChI=1S/C17H23N3O2/c1-13-6-8-15(9-7-13)20-14(2)16(21)19(17(20)22)12-18-10-4-3-5-11-18/h6-9,14H,3-5,10-12H2,1-2H3

> <PUBCHEM_IUPAC_INCHIKEY>
BNWMYTMXXSSSSA-UHFFFAOYSA-N

> <PUBCHEM_XLOGP3_AA>
2.6

> <PUBCHEM_EXACT_MASS>
301.179027

> <PUBCHEM_MOLECULAR_FORMULA>
C17H23N3O2

> <PUBCHEM_MOLECULAR_WEIGHT>
301.38342

> <PUBCHEM_OPENEYE_CAN_SMILES>
CC1C(=O)N(C(=O)N1C2=CC=C(C=C2)C)CN3CCCCC3

> <PUBCHEM_OPENEYE_ISO_SMILES>
CC1C(=O)N(C(=O)N1C2=CC=C(C=C2)C)CN3CCCCC3

> <PUBCHEM_CACTVS_TPSA>
43.9

> <PUBCHEM_MONOISOTOPIC_WEIGHT>
301.179027

> <PUBCHEM_TOTAL_CHARGE>
0

> <PUBCHEM_HEAVY_ATOM_COUNT>
22

> <PUBCHEM_ATOM_DEF_STEREO_COUNT>
0

> <PUBCHEM_ATOM_UDEF_STEREO_COUNT>
1

> <PUBCHEM_BOND_DEF_STEREO_COUNT>
0

> <PUBCHEM_BOND_UDEF_STEREO_COUNT>
0

> <PUBCHEM_ISOTOPIC_ATOM_COUNT>
0

> <PUBCHEM_COMPONENT_COUNT>
1

> <PUBCHEM_CACTVS_TAUTO_COUNT>
2

> <PUBCHEM_COORDINATE_TYPE>
1
5
255

> <PUBCHEM_BONDANNOTATIONS>
12  15  3
16  17  8
16  18  8
17  19  8
18  20  8
19  21  8
20  21  8

$$$$

