74644
  -OEChem-07051213072D

 29 31  0     0  0  0  0  0  0999 V2000
    4.2690    0.0600    0.0000 S   0  0  0  0  0  0  0  0  0  0  0  0
    6.0812   -1.1353    0.0000 N   0  0  0  0  0  0  0  0  0  0  0  0
    3.4030   -1.4400    0.0000 N   0  0  0  0  0  0  0  0  0  0  0  0
    6.0812   -2.7447    0.0000 N   0  0  0  0  0  0  0  0  0  0  0  0
    4.2690   -2.9400    0.0000 N   0  0  0  0  0  0  0  0  0  0  0  0
    2.5369   -2.9400    0.0000 N   0  0  0  0  0  0  0  0  0  0  0  0
    5.1350   -1.4400    0.0000 C   0  0  0  0  0  0  0  0  0  0  0  0
    4.2690   -0.9400    0.0000 C   0  0  0  0  0  0  0  0  0  0  0  0
    3.4030    0.5600    0.0000 C   0  0  0  0  0  0  0  0  0  0  0  0
    5.1350   -2.4400    0.0000 C   0  0  0  0  0  0  0  0  0  0  0  0
    3.4030    1.5600    0.0000 C   0  0  0  0  0  0  0  0  0  0  0  0
    6.6648   -1.9400    0.0000 C   0  0  0  0  0  0  0  0  0  0  0  0
    4.2690    2.0600    0.0000 C   0  0  0  0  0  0  0  0  0  0  0  0
    2.5369    2.0600    0.0000 C   0  0  0  0  0  0  0  0  0  0  0  0
    3.4030   -2.4400    0.0000 C   0  0  0  0  0  0  0  0  0  0  0  0
    4.2690    3.0600    0.0000 C   0  0  0  0  0  0  0  0  0  0  0  0
    2.5369    3.0600    0.0000 C   0  0  0  0  0  0  0  0  0  0  0  0
    3.4030    3.5600    0.0000 C   0  0  0  0  0  0  0  0  0  0  0  0
    2.7924    0.6677    0.0000 H   0  0  0  0  0  0  0  0  0  0  0  0
    3.1909   -0.0226    0.0000 H   0  0  0  0  0  0  0  0  0  0  0  0
    6.2738   -0.5459    0.0000 H   0  0  0  0  0  0  0  0  0  0  0  0
    7.2848   -1.9400    0.0000 H   0  0  0  0  0  0  0  0  0  0  0  0
    4.8059    1.7500    0.0000 H   0  0  0  0  0  0  0  0  0  0  0  0
    2.0000    1.7500    0.0000 H   0  0  0  0  0  0  0  0  0  0  0  0
    4.8059    3.3700    0.0000 H   0  0  0  0  0  0  0  0  0  0  0  0
    2.0000    3.3700    0.0000 H   0  0  0  0  0  0  0  0  0  0  0  0
    3.4030    4.1800    0.0000 H   0  0  0  0  0  0  0  0  0  0  0  0
    2.5369   -3.5600    0.0000 H   0  0  0  0  0  0  0  0  0  0  0  0
    2.0000   -2.6300    0.0000 H   0  0  0  0  0  0  0  0  0  0  0  0
  1  8  1  0  0  0  0
  1  9  1  0  0  0  0
  2  7  1  0  0  0  0
  2 12  1  0  0  0  0
  2 21  1  0  0  0  0
  3  8  2  0  0  0  0
  3 15  1  0  0  0  0
  4 10  1  0  0  0  0
  4 12  2  0  0  0  0
  5 10  1  0  0  0  0
  5 15  2  0  0  0  0
  6 15  1  0  0  0  0
  6 28  1  0  0  0  0
  6 29  1  0  0  0  0
  7  8  1  0  0  0  0
  7 10  2  0  0  0  0
  9 11  1  0  0  0  0
  9 19  1  0  0  0  0
  9 20  1  0  0  0  0
 11 13  2  0  0  0  0
 11 14  1  0  0  0  0
 12 22  1  0  0  0  0
 13 16  1  0  0  0  0
 13 23  1  0  0  0  0
 14 17  2  0  0  0  0
 14 24  1  0  0  0  0
 16 18  2  0  0  0  0
 16 25  1  0  0  0  0
 17 18  1  0  0  0  0
 17 26  1  0  0  0  0
 18 27  1  0  0  0  0
M  END
> <PUBCHEM_COMPOUND_CID>
74644

> <PUBCHEM_COMPOUND_CANONICALIZED>
1

> <PUBCHEM_CACTVS_COMPLEXITY>
271

> <PUBCHEM_CACTVS_HBOND_ACCEPTOR>
5

> <PUBCHEM_CACTVS_HBOND_DONOR>
2

> <PUBCHEM_CACTVS_ROTATABLE_BOND>
3

> <PUBCHEM_CACTVS_SUBSKEYS>
AAADccBzgABAAAAAAAAAAAAAAAAAAWAAAAA8QAAAAAAAAFgB/AAAHAQQAAAADAiFXwS18b7JkAigAyZjZACC0C3xGLAJ2bQoVJiIaCLgWVCUJAwogAJoiCcAgAAOAAAAAAAAAAAAAAAAAAAAAAAAAAAAAA==

> <PUBCHEM_IUPAC_OPENEYE_NAME>
6-benzylsulfanyl-7H-purin-2-amine

> <PUBCHEM_IUPAC_CAS_NAME>
6-(phenylmethylthio)-7H-purin-2-amine

> <PUBCHEM_IUPAC_NAME>
6-benzylsulfanyl-7H-purin-2-amine

> <PUBCHEM_IUPAC_SYSTEMATIC_NAME>
6-(phenylmethylsulfanyl)-7H-purin-2-amine

> <PUBCHEM_IUPAC_TRADITIONAL_NAME>
[6-(benzylthio)-7H-purin-2-yl]amine

> <PUBCHEM_IUPAC_INCHI>
InChI=1S/C12H11N5S/c13-12-16-10-9(14-7-15-10)11(17-12)18-6-8-4-2-1-3-5-8/h1-5,7H,6H2,(H3,13,14,15,16,17)

> <PUBCHEM_IUPAC_INCHIKEY>
JQMGATKUPCKDEG-UHFFFAOYSA-N

> <PUBCHEM_XLOGP3>
1.8

> <PUBCHEM_EXACT_MASS>
257.073516

> <PUBCHEM_MOLECULAR_FORMULA>
C12H11N5S

> <PUBCHEM_MOLECULAR_WEIGHT>
257.31424

> <PUBCHEM_OPENEYE_CAN_SMILES>
C1=CC=C(C=C1)CSC2=NC(=NC3=C2NC=N3)N

> <PUBCHEM_OPENEYE_ISO_SMILES>
C1=CC=C(C=C1)CSC2=NC(=NC3=C2NC=N3)N

> <PUBCHEM_CACTVS_TPSA>
106

> <PUBCHEM_MONOISOTOPIC_WEIGHT>
257.073516

> <PUBCHEM_TOTAL_CHARGE>
0

> <PUBCHEM_HEAVY_ATOM_COUNT>
18

> <PUBCHEM_ATOM_DEF_STEREO_COUNT>
0

> <PUBCHEM_ATOM_UDEF_STEREO_COUNT>
0

> <PUBCHEM_BOND_DEF_STEREO_COUNT>
0

> <PUBCHEM_BOND_UDEF_STEREO_COUNT>
0

> <PUBCHEM_ISOTOPIC_ATOM_COUNT>
0

> <PUBCHEM_COMPONENT_COUNT>
1

> <PUBCHEM_CACTVS_TAUTO_COUNT>
9

> <PUBCHEM_COORDINATE_TYPE>
1
5
255

> <PUBCHEM_BONDANNOTATIONS>
11  13  8
11  14  8
13  16  8
14  17  8
16  18  8
17  18  8
2  12  8
2  7  8
3  15  8
3  8  8
4  10  8
4  12  8
5  10  8
5  15  8
7  10  8
7  8  8

$$$$

