25246306
  -OEChem-07051213103D

 59 61  0     1  0  0  0  0  0999 V2000
   -1.3302   -2.5520   -0.1885 P   0  0  2  0  0  0  0  0  0  0  0  0
   -4.1981   -1.9774    0.1305 P   0  0  1  0  0  0  0  0  0  0  0  0
    2.3924   -1.2689    1.5894 O   0  0  0  0  0  0  0  0  0  0  0  0
   -2.4573    0.9343   -1.0673 O   0  0  0  0  0  0  0  0  0  0  0  0
    2.1663    0.5132    3.9900 O   0  0  0  0  0  0  0  0  0  0  0  0
    3.2637    2.1688    2.1210 O   0  0  0  0  0  0  0  0  0  0  0  0
   -0.1539   -2.2196    0.8713 O   0  0  0  0  0  0  0  0  0  0  0  0
   -4.1527   -0.6684   -0.8133 O   0  0  0  0  0  0  0  0  0  0  0  0
   -2.1513    4.4177    0.0586 O   0  0  0  0  0  0  0  0  0  0  0  0
   -5.1299    1.8245   -1.6588 O   0  0  0  0  0  0  0  0  0  0  0  0
   -2.6731   -2.1759    0.6289 O   0  0  0  0  0  0  0  0  0  0  0  0
    5.7956    0.7407    0.4986 O   0  0  0  0  0  0  0  0  0  0  0  0
   -1.3706   -4.1687   -0.2301 O   0  0  0  0  0  0  0  0  0  0  0  0
   -4.9645   -1.4882    1.4687 O   0  0  0  0  0  0  0  0  0  0  0  0
   -1.2072   -1.8864   -1.5280 O   0  0  0  0  0  0  0  0  0  0  0  0
   -4.7971   -3.1921   -0.5171 O   0  0  0  0  0  0  0  0  0  0  0  0
    3.7408   -0.1909    0.0131 N   0  0  0  0  0  0  0  0  0  0  0  0
    5.4168    0.2109   -1.6758 N   0  0  0  0  0  0  0  0  0  0  0  0
    5.0221   -0.3334   -3.9020 N   0  0  0  0  0  0  0  0  0  0  0  0
    1.5023    0.6069    2.7298 C   0  0  1  0  0  0  0  0  0  0  0  0
    2.4612    1.0985    1.6664 C   0  0  2  0  0  0  0  0  0  0  0  0
    1.1963   -0.8069    2.2545 C   0  0  1  0  0  0  0  0  0  0  0  0
    3.2696   -0.1525    1.3682 C   0  0  1  0  0  0  0  0  0  0  0  0
    0.0451   -0.8716    1.2597 C   0  0  0  0  0  0  0  0  0  0  0  0
   -2.7719    3.2956   -0.5573 C   0  0  2  0  0  0  0  0  0  0  0  0
   -4.0718    2.9642    0.1803 C   0  0  0  0  0  0  0  0  0  0  0  0
   -4.6654    1.6516   -0.3189 C   0  0  2  0  0  0  0  0  0  0  0  0
   -1.8153    2.0973   -0.5346 C   0  0  2  0  0  0  0  0  0  0  0  0
   -3.6061    0.5480   -0.3102 C   0  0  2  0  0  0  0  0  0  0  0  0
   -0.5674    2.3570   -1.3727 C   0  0  0  0  0  0  0  0  0  0  0  0
    2.9058   -0.7033   -0.9679 C   0  0  0  0  0  0  0  0  0  0  0  0
    5.0289    0.2788   -0.3485 C   0  0  0  0  0  0  0  0  0  0  0  0
    3.2599   -0.7766   -2.2494 C   0  0  0  0  0  0  0  0  0  0  0  0
    4.6172   -0.2752   -2.5886 C   0  0  0  0  0  0  0  0  0  0  0  0
    0.6255    1.2484    2.8562 H   0  0  0  0  0  0  0  0  0  0  0  0
    1.9053    1.4344    0.7828 H   0  0  0  0  0  0  0  0  0  0  0  0
    1.0108   -1.4987    3.0838 H   0  0  0  0  0  0  0  0  0  0  0  0
    4.1217   -0.2473    2.0519 H   0  0  0  0  0  0  0  0  0  0  0  0
    0.2308   -0.2705    0.3673 H   0  0  0  0  0  0  0  0  0  0  0  0
   -0.8716   -0.5030    1.7319 H   0  0  0  0  0  0  0  0  0  0  0  0
   -3.0060    3.5621   -1.5954 H   0  0  0  0  0  0  0  0  0  0  0  0
   -3.8752    2.8996    1.2582 H   0  0  0  0  0  0  0  0  0  0  0  0
   -4.7815    3.7894    0.0449 H   0  0  0  0  0  0  0  0  0  0  0  0
   -5.5292    1.3545    0.2855 H   0  0  0  0  0  0  0  0  0  0  0  0
   -1.4875    1.8896    0.4926 H   0  0  0  0  0  0  0  0  0  0  0  0
   -3.2779    0.3840    0.7239 H   0  0  0  0  0  0  0  0  0  0  0  0
    1.5257    0.1590    4.6302 H   0  0  0  0  0  0  0  0  0  0  0  0
    2.6665    2.8864    2.3928 H   0  0  0  0  0  0  0  0  0  0  0  0
   -0.8327    2.5584   -2.4164 H   0  0  0  0  0  0  0  0  0  0  0  0
    0.0789    1.4729   -1.3810 H   0  0  0  0  0  0  0  0  0  0  0  0
    0.0090    3.2031   -0.9873 H   0  0  0  0  0  0  0  0  0  0  0  0
    1.9280   -1.0611   -0.6860 H   0  0  0  0  0  0  0  0  0  0  0  0
   -2.7836    5.1559    0.0280 H   0  0  0  0  0  0  0  0  0  0  0  0
   -5.8059    2.5235   -1.6457 H   0  0  0  0  0  0  0  0  0  0  0  0
    2.6137   -1.1758   -3.0198 H   0  0  0  0  0  0  0  0  0  0  0  0
   -1.4789   -4.6616    0.6110 H   0  0  0  0  0  0  0  0  0  0  0  0
   -5.2292   -2.1575    2.1352 H   0  0  0  0  0  0  0  0  0  0  0  0
    4.4246   -0.7049   -4.6331 H   0  0  0  0  0  0  0  0  0  0  0  0
    5.9400   -0.0024   -4.1788 H   0  0  0  0  0  0  0  0  0  0  0  0
  1  7  1  0  0  0  0
  1 11  1  0  0  0  0
  1 13  1  0  0  0  0
  1 15  2  0  0  0  0
  2  8  1  0  0  0  0
  2 11  1  0  0  0  0
  2 14  1  0  0  0  0
  2 16  2  0  0  0  0
  3 22  1  0  0  0  0
  3 23  1  0  0  0  0
  4 28  1  0  0  0  0
  4 29  1  0  0  0  0
  5 20  1  0  0  0  0
  5 47  1  0  0  0  0
  6 21  1  0  0  0  0
  6 48  1  0  0  0  0
  7 24  1  0  0  0  0
  8 29  1  0  0  0  0
  9 25  1  0  0  0  0
  9 53  1  0  0  0  0
 10 27  1  0  0  0  0
 10 54  1  0  0  0  0
 12 32  2  0  0  0  0
 13 56  1  0  0  0  0
 14 57  1  0  0  0  0
 17 23  1  0  0  0  0
 17 31  1  0  0  0  0
 17 32  1  0  0  0  0
 18 32  1  0  0  0  0
 18 34  2  0  0  0  0
 19 34  1  0  0  0  0
 19 58  1  0  0  0  0
 19 59  1  0  0  0  0
 20 21  1  0  0  0  0
 20 22  1  0  0  0  0
 20 35  1  0  0  0  0
 21 23  1  0  0  0  0
 21 36  1  0  0  0  0
 22 24  1  0  0  0  0
 22 37  1  0  0  0  0
 23 38  1  0  0  0  0
 24 39  1  0  0  0  0
 24 40  1  0  0  0  0
 25 26  1  0  0  0  0
 25 28  1  0  0  0  0
 25 41  1  0  0  0  0
 26 27  1  0  0  0  0
 26 42  1  0  0  0  0
 26 43  1  0  0  0  0
 27 29  1  0  0  0  0
 27 44  1  0  0  0  0
 28 30  1  0  0  0  0
 28 45  1  0  0  0  0
 29 46  1  0  0  0  0
 30 49  1  0  0  0  0
 30 50  1  0  0  0  0
 30 51  1  0  0  0  0
 31 33  2  0  0  0  0
 31 52  1  0  0  0  0
 33 34  1  0  0  0  0
 33 55  1  0  0  0  0
M  END
> <PUBCHEM_COMPOUND_CID>
25246306

> <PUBCHEM_CONFORMER_RMSD>
1.6

> <PUBCHEM_CONFORMER_DIVERSEORDER>
1
17
28
39
54
87
32
72
78
48
98
2
37
65
74
20
60
35
24
89
38
71
41
14
46
55
82
44
10
19
11
76
73
6
15
25
16
36
90
33
97
63
81
85
77
18
64
47
96
42
34
88
75
51
9
69
94
23
58
26
7
83
56
67
13
22
4
62
45
12
49
79
3
40
93
84
59
52
21
70
86
92
27
80
30
43
31
91
57
8
66
53
50
5
68
29
95
61

> <PUBCHEM_MMFF94_PARTIAL_CHARGES>
42
1 1.51
10 -0.68
11 -0.54
12 -0.57
13 -0.77
14 -0.77
15 -0.7
16 -0.7
17 -0.47
18 -0.66
19 -0.85
2 1.51
20 0.28
21 0.28
22 0.28
23 0.58
24 0.28
25 0.28
27 0.28
28 0.28
29 0.56
3 -0.56
31 -0.04
32 0.84
33 -0.14
34 0.49
4 -0.56
47 0.4
48 0.4
5 -0.68
52 0.15
53 0.4
54 0.4
55 0.15
56 0.5
57 0.5
58 0.4
59 0.4
6 -0.68
7 -0.55
8 -0.55
9 -0.68

> <PUBCHEM_EFFECTIVE_ROTOR_COUNT>
10.2

> <PUBCHEM_PHARMACOPHORE_FEATURES>
20
1 10 acceptor
1 10 donor
1 12 acceptor
1 13 acceptor
1 14 acceptor
1 15 acceptor
1 16 acceptor
1 18 donor
1 19 donor
1 3 acceptor
1 4 acceptor
1 5 acceptor
1 5 donor
1 6 acceptor
1 6 donor
1 9 acceptor
1 9 donor
5 3 20 21 22 23 rings
6 17 18 31 32 33 34 rings
6 4 25 26 27 28 29 rings

> <PUBCHEM_HEAVY_ATOM_COUNT>
34

> <PUBCHEM_ATOM_DEF_STEREO_COUNT>
8

> <PUBCHEM_ATOM_UDEF_STEREO_COUNT>
0

> <PUBCHEM_BOND_DEF_STEREO_COUNT>
0

> <PUBCHEM_BOND_UDEF_STEREO_COUNT>
0

> <PUBCHEM_ISOTOPIC_ATOM_COUNT>
0

> <PUBCHEM_COMPONENT_COUNT>
1

> <PUBCHEM_CACTVS_TAUTO_COUNT>
3

> <PUBCHEM_CONFORMER_ID>
01813A6200000001

> <PUBCHEM_MMFF94_ENERGY>
49.0368

> <PUBCHEM_FEATURE_SELFOVERLAP>
101.571

> <PUBCHEM_SHAPE_FINGERPRINT>
10615611 76 17417802980570298444
10670039 82 18343028786844601922
11059048 146 18046346611251131953
12596602 18 16845001330292982675
12788726 201 18129649816564226191
13782708 43 17967247564028114222
13947920 75 18131340913398865358
14251757 17 17967812794903665164
14840074 17 17846210129161668821
15001296 14 17985818238348579613
15021287 119 16843896467452214450
15297060 5 18337951302519797761
19319366 153 17346319353203773296
20511986 3 17346607382184702037
21033650 10 18270379656273824794
21987440 362 17471604460204382176
22122407 14 15554180236987412959
23536364 44 17750503152068678634
3052486 1 18201444670451889688
38570 142 16987411266434556174
46194498 28 17969500403571180184
50150288 127 16050630507089783862
5081480 168 17458612407171620128
508706 21 18259992569551529639
5895379 119 18272646857724000996
6823239 73 18335708230074760016
7808743 9 18341054124365088417

> <PUBCHEM_SHAPE_MULTIPOLES>
610.29
12.15
4.02
3
3.28
0.35
0.56
1.61
-5.58
-7.18
-0.31
5.43
0.21
1.37

> <PUBCHEM_SHAPE_SELFOVERLAP>
1241.599

> <PUBCHEM_SHAPE_VOLUME>
356.1

> <PUBCHEM_COORDINATE_TYPE>
2
5
10

$$$$

