442867
  -OEChem-07051213003D

 53 54  0     1  0  0  0  0  0999 V2000
   -1.0958   -1.0544   -1.7057 O   0  0  0  0  0  0  0  0  0  0  0  0
    1.9626    2.9186    0.0139 O   0  0  0  0  0  0  0  0  0  0  0  0
   -0.7543    0.0618    0.8223 N   0  0  1  0  0  0  0  0  0  0  0  0
    2.2121   -1.6350    0.9833 N   0  0  0  0  0  0  0  0  0  0  0  0
    1.9040    0.9777   -1.2594 N   0  0  0  0  0  0  0  0  0  0  0  0
   -2.0360   -0.5851    0.4499 C   0  0  1  0  0  0  0  0  0  0  0  0
   -0.7826    1.5478    0.7438 C   0  0  1  0  0  0  0  0  0  0  0  0
   -3.2505   -0.0038    1.1986 C   0  0  0  0  0  0  0  0  0  0  0  0
   -2.2627   -0.5529   -1.0698 C   0  0  2  0  0  0  0  0  0  0  0  0
   -0.2535   -0.3821    2.1393 C   0  0  0  0  0  0  0  0  0  0  0  0
   -0.1844    2.0324   -0.5931 C   0  0  0  0  0  0  0  0  0  0  0  0
   -2.1271    2.1897    1.0007 C   0  0  0  0  0  0  0  0  0  0  0  0
   -3.2441    1.4900    1.2302 C   0  0  0  0  0  0  0  0  0  0  0  0
    0.1046   -1.8784    2.2364 C   0  0  0  0  0  0  0  0  0  0  0  0
   -3.4648   -1.4092   -1.4543 C   0  0  0  0  0  0  0  0  0  0  0  0
    0.9761   -2.4038    1.0895 C   0  0  0  0  0  0  0  0  0  0  0  0
    1.3349    2.0351   -0.5683 C   0  0  0  0  0  0  0  0  0  0  0  0
   -3.7295   -1.3703   -2.9537 C   0  0  0  0  0  0  0  0  0  0  0  0
    2.9686   -1.9972   -0.2101 C   0  0  0  0  0  0  0  0  0  0  0  0
    4.2685   -1.1968   -0.2968 C   0  0  0  0  0  0  0  0  0  0  0  0
    4.1180    0.3308   -0.3029 C   0  0  0  0  0  0  0  0  0  0  0  0
    3.3358    0.8851   -1.4937 C   0  0  0  0  0  0  0  0  0  0  0  0
   -1.9749   -1.6496    0.7031 H   0  0  0  0  0  0  0  0  0  0  0  0
   -0.1291    1.9553    1.5287 H   0  0  0  0  0  0  0  0  0  0  0  0
   -3.2275   -0.3506    2.2404 H   0  0  0  0  0  0  0  0  0  0  0  0
   -4.2104   -0.3478    0.8138 H   0  0  0  0  0  0  0  0  0  0  0  0
   -2.4351    0.4699   -1.4209 H   0  0  0  0  0  0  0  0  0  0  0  0
   -0.9639   -0.1314    2.9366 H   0  0  0  0  0  0  0  0  0  0  0  0
    0.6675    0.1691    2.3721 H   0  0  0  0  0  0  0  0  0  0  0  0
   -0.4796    3.0727   -0.7879 H   0  0  0  0  0  0  0  0  0  0  0  0
   -0.5383    1.4691   -1.4586 H   0  0  0  0  0  0  0  0  0  0  0  0
   -2.1706    3.2751    1.0379 H   0  0  0  0  0  0  0  0  0  0  0  0
   -4.1714    2.0083    1.4524 H   0  0  0  0  0  0  0  0  0  0  0  0
   -0.8082   -2.4826    2.2940 H   0  0  0  0  0  0  0  0  0  0  0  0
    0.6270   -2.0421    3.1883 H   0  0  0  0  0  0  0  0  0  0  0  0
   -3.2945   -2.4537   -1.1663 H   0  0  0  0  0  0  0  0  0  0  0  0
   -4.3879   -1.0787   -0.9757 H   0  0  0  0  0  0  0  0  0  0  0  0
    1.2085   -3.4592    1.2759 H   0  0  0  0  0  0  0  0  0  0  0  0
    0.4127   -2.3597    0.1518 H   0  0  0  0  0  0  0  0  0  0  0  0
   -1.1418   -0.8163   -2.6468 H   0  0  0  0  0  0  0  0  0  0  0  0
   -2.9086   -1.8200   -3.5204 H   0  0  0  0  0  0  0  0  0  0  0  0
   -3.8715   -0.3426   -3.3030 H   0  0  0  0  0  0  0  0  0  0  0  0
   -4.6378   -1.9350   -3.1887 H   0  0  0  0  0  0  0  0  0  0  0  0
    2.7808   -1.7762    1.8175 H   0  0  0  0  0  0  0  0  0  0  0  0
    2.3702   -1.8244   -1.1114 H   0  0  0  0  0  0  0  0  0  0  0  0
    3.2189   -3.0648   -0.1857 H   0  0  0  0  0  0  0  0  0  0  0  0
    4.8051   -1.5043   -1.2033 H   0  0  0  0  0  0  0  0  0  0  0  0
    4.9147   -1.4730    0.5468 H   0  0  0  0  0  0  0  0  0  0  0  0
    1.3063    0.2669   -1.6705 H   0  0  0  0  0  0  0  0  0  0  0  0
    3.6901    0.6775    0.6447 H   0  0  0  0  0  0  0  0  0  0  0  0
    5.1337    0.7445   -0.3506 H   0  0  0  0  0  0  0  0  0  0  0  0
    3.6927    1.8984   -1.7125 H   0  0  0  0  0  0  0  0  0  0  0  0
    3.4895    0.2788   -2.3923 H   0  0  0  0  0  0  0  0  0  0  0  0
  1  9  1  0  0  0  0
  1 40  1  0  0  0  0
  2 17  2  0  0  0  0
  3  6  1  0  0  0  0
  3  7  1  0  0  0  0
  3 10  1  0  0  0  0
  4 16  1  0  0  0  0
  4 19  1  0  0  0  0
  4 44  1  0  0  0  0
  5 17  1  0  0  0  0
  5 22  1  0  0  0  0
  5 49  1  0  0  0  0
  6  8  1  0  0  0  0
  6  9  1  0  0  0  0
  6 23  1  0  0  0  0
  7 11  1  0  0  0  0
  7 12  1  0  0  0  0
  7 24  1  0  0  0  0
  8 13  1  0  0  0  0
  8 25  1  0  0  0  0
  8 26  1  0  0  0  0
  9 15  1  0  0  0  0
  9 27  1  0  0  0  0
 10 14  1  0  0  0  0
 10 28  1  0  0  0  0
 10 29  1  0  0  0  0
 11 17  1  0  0  0  0
 11 30  1  0  0  0  0
 11 31  1  0  0  0  0
 12 13  2  0  0  0  0
 12 32  1  0  0  0  0
 13 33  1  0  0  0  0
 14 16  1  0  0  0  0
 14 34  1  0  0  0  0
 14 35  1  0  0  0  0
 15 18  1  0  0  0  0
 15 36  1  0  0  0  0
 15 37  1  0  0  0  0
 16 38  1  0  0  0  0
 16 39  1  0  0  0  0
 18 41  1  0  0  0  0
 18 42  1  0  0  0  0
 18 43  1  0  0  0  0
 19 20  1  0  0  0  0
 19 45  1  0  0  0  0
 19 46  1  0  0  0  0
 20 21  1  0  0  0  0
 20 47  1  0  0  0  0
 20 48  1  0  0  0  0
 21 22  1  0  0  0  0
 21 50  1  0  0  0  0
 21 51  1  0  0  0  0
 22 52  1  0  0  0  0
 22 53  1  0  0  0  0
M  END
> <PUBCHEM_COMPOUND_CID>
442867

> <PUBCHEM_CONFORMER_RMSD>
0.8

> <PUBCHEM_CONFORMER_DIVERSEORDER>
1
27
2
19
4
20
13
17
12
15
6
3
10
18
14
25
11
22
28
5
30
21
29
8
9
7
26
23
24
16

> <PUBCHEM_MMFF94_PARTIAL_CHARGES>
22
1 -0.68
10 0.27
11 0.06
12 -0.29
13 -0.29
16 0.27
17 0.57
19 0.27
2 -0.57
22 0.3
3 -0.81
32 0.15
33 0.15
4 -0.9
40 0.4
44 0.36
49 0.37
5 -0.73
6 0.27
7 0.41
8 0.14
9 0.28

> <PUBCHEM_EFFECTIVE_ROTOR_COUNT>
4.4

> <PUBCHEM_PHARMACOPHORE_FEATURES>
9
1 1 acceptor
1 1 donor
1 18 hydrophobe
1 2 acceptor
1 3 cation
1 4 cation
1 4 donor
1 5 donor
6 3 6 7 8 12 13 rings

> <PUBCHEM_HEAVY_ATOM_COUNT>
22

> <PUBCHEM_ATOM_DEF_STEREO_COUNT>
3

> <PUBCHEM_ATOM_UDEF_STEREO_COUNT>
0

> <PUBCHEM_BOND_DEF_STEREO_COUNT>
0

> <PUBCHEM_BOND_UDEF_STEREO_COUNT>
0

> <PUBCHEM_ISOTOPIC_ATOM_COUNT>
0

> <PUBCHEM_COMPONENT_COUNT>
1

> <PUBCHEM_CACTVS_TAUTO_COUNT>
2

> <PUBCHEM_CONFORMER_ID>
0006C1F300000001

> <PUBCHEM_MMFF94_ENERGY>
30.9448

> <PUBCHEM_FEATURE_SELFOVERLAP>
45.669

> <PUBCHEM_SHAPE_FINGERPRINT>
10062212 137 18336819874826443297
11578080 2 17970658300621219473
12035759 4 18335432274468193133
12156800 1 13822601293536551744
12467345 10 18410005572500750315
12539773 59 18117543235806760920
12553582 1 18272639148289690852
14251764 3 16415477134055157082
15664445 248 17173517683959083649
15852999 172 17770233651890061312
16945 1 18340199683639878609
18219364 16 17274816965314265458
19930381 70 18058150894861325666
20600515 1 16081356484218627584
20626108 58 16734683940106834791
21452121 199 16880212000645552669
22112679 90 18113902654523891801
23227448 37 18199455744169507251
23402539 116 18270960284328662466
23419403 2 17845078576850855283
238 59 17632031766028475622
2748010 2 17622987024934098488
3323516 105 18057327184674447711
34934 24 18125717035254577984
3524813 1 17131823266419762354
9981440 41 17542230060400897064

> <PUBCHEM_SHAPE_MULTIPOLES>
426.07
6.87
2.89
2.29
2.94
0.81
-0.55
-1.51
-2.94
0.65
0.22
-2.02
-1.17
-2.34

> <PUBCHEM_SHAPE_SELFOVERLAP>
842.607

> <PUBCHEM_SHAPE_VOLUME>
250.2

> <PUBCHEM_COORDINATE_TYPE>
2
5
10

$$$$

