5281413
  -OEChem-07051212573D

 61 67  0     1  0  0  0  0  0999 V2000
    1.9358    2.5075   -1.2562 N   0  0  2  0  0  0  0  0  0  0  0  0
    3.5148    0.1343    1.2155 N   0  0  0  0  0  0  0  0  0  0  0  0
   -1.7548    0.1127    2.9784 N   0  0  0  0  0  0  0  0  0  0  0  0
   -2.1972   -0.5068   -0.6306 N   0  0  0  0  0  0  0  0  0  0  0  0
    2.5207    2.2072    0.0827 C   0  0  1  0  0  0  0  0  0  0  0  0
    1.5288    2.5038    1.2244 C   0  0  0  0  0  0  0  0  0  0  0  0
    0.1097    1.9432    1.0353 C   0  0  1  0  0  0  0  0  0  0  0  0
    3.1415    0.8423    0.1084 C   0  0  0  0  0  0  0  0  0  0  0  0
    0.6050    1.9129   -1.4674 C   0  0  0  0  0  0  0  0  0  0  0  0
    2.8701    2.1351   -2.3474 C   0  0  0  0  0  0  0  0  0  0  0  0
   -0.3626    2.2581   -0.3646 C   0  0  0  0  0  0  0  0  0  0  0  0
    3.5111    0.1210   -1.0088 C   0  0  0  0  0  0  0  0  0  0  0  0
    3.2635    0.6376   -2.3843 C   0  0  0  0  0  0  0  0  0  0  0  0
    0.0079    0.4474    1.3409 C   0  0  0  0  0  0  0  0  0  0  0  0
    4.0924   -1.0970   -0.5641 C   0  0  0  0  0  0  0  0  0  0  0  0
    4.0807   -1.0641    0.8343 C   0  0  0  0  0  0  0  0  0  0  0  0
   -1.5527    2.8285   -0.6069 C   0  0  0  0  0  0  0  0  0  0  0  0
   -1.4008    0.0503    1.6797 C   0  0  0  0  0  0  0  0  0  0  0  0
    4.6315   -2.2272   -1.2106 C   0  0  0  0  0  0  0  0  0  0  0  0
   -2.3160   -0.3633    0.7302 C   0  0  0  0  0  0  0  0  0  0  0  0
    4.5834   -2.1100    1.6166 C   0  0  0  0  0  0  0  0  0  0  0  0
   -2.5340    3.1836    0.4551 C   0  0  0  0  0  0  0  0  0  0  0  0
   -3.6177   -0.7254    1.0751 C   0  0  0  0  0  0  0  0  0  0  0  0
    5.1354   -3.2806   -0.4394 C   0  0  0  0  0  0  0  0  0  0  0  0
    5.1106   -3.2209    0.9523 C   0  0  0  0  0  0  0  0  0  0  0  0
   -4.2897   -1.0974   -0.1321 C   0  0  0  0  0  0  0  0  0  0  0  0
   -3.3780   -0.9508   -1.1783 C   0  0  0  0  0  0  0  0  0  0  0  0
   -3.9927   -0.6625    2.4264 C   0  0  0  0  0  0  0  0  0  0  0  0
   -3.0162   -0.2374    3.3170 C   0  0  0  0  0  0  0  0  0  0  0  0
   -5.5931   -1.5467   -0.4312 C   0  0  0  0  0  0  0  0  0  0  0  0
   -3.7035   -1.2306   -2.5106 C   0  0  0  0  0  0  0  0  0  0  0  0
   -5.9332   -1.8305   -1.7587 C   0  0  0  0  0  0  0  0  0  0  0  0
   -5.0007   -1.6742   -2.7813 C   0  0  0  0  0  0  0  0  0  0  0  0
    3.3550    2.9108    0.2209 H   0  0  0  0  0  0  0  0  0  0  0  0
    1.9344    2.1876    2.1932 H   0  0  0  0  0  0  0  0  0  0  0  0
    1.4376    3.5988    1.2925 H   0  0  0  0  0  0  0  0  0  0  0  0
   -0.4753    2.4787    1.7910 H   0  0  0  0  0  0  0  0  0  0  0  0
    0.6597    0.8217   -1.5490 H   0  0  0  0  0  0  0  0  0  0  0  0
    0.2132    2.2726   -2.4275 H   0  0  0  0  0  0  0  0  0  0  0  0
    3.7812    2.7372   -2.2287 H   0  0  0  0  0  0  0  0  0  0  0  0
    2.4527    2.4285   -3.3186 H   0  0  0  0  0  0  0  0  0  0  0  0
    4.1593    0.5135   -3.0033 H   0  0  0  0  0  0  0  0  0  0  0  0
    2.4609    0.0518   -2.8475 H   0  0  0  0  0  0  0  0  0  0  0  0
    0.6328    0.2061    2.2109 H   0  0  0  0  0  0  0  0  0  0  0  0
    0.3858   -0.1769    0.5237 H   0  0  0  0  0  0  0  0  0  0  0  0
    3.3905    0.4318    2.1732 H   0  0  0  0  0  0  0  0  0  0  0  0
   -1.8407    3.0585   -1.6293 H   0  0  0  0  0  0  0  0  0  0  0  0
    4.6581   -2.2879   -2.2949 H   0  0  0  0  0  0  0  0  0  0  0  0
    4.5661   -2.0645    2.7004 H   0  0  0  0  0  0  0  0  0  0  0  0
   -2.5002    4.2610    0.6447 H   0  0  0  0  0  0  0  0  0  0  0  0
   -2.4287    2.6621    1.4050 H   0  0  0  0  0  0  0  0  0  0  0  0
   -3.5414    2.9469    0.0937 H   0  0  0  0  0  0  0  0  0  0  0  0
    5.5513   -4.1548   -0.9335 H   0  0  0  0  0  0  0  0  0  0  0  0
    5.5081   -4.0502    1.5318 H   0  0  0  0  0  0  0  0  0  0  0  0
   -1.3571   -0.3259   -1.1612 H   0  0  0  0  0  0  0  0  0  0  0  0
   -4.9873   -0.9290    2.7647 H   0  0  0  0  0  0  0  0  0  0  0  0
   -3.2386   -0.1652    4.3775 H   0  0  0  0  0  0  0  0  0  0  0  0
   -6.3316   -1.6735    0.3555 H   0  0  0  0  0  0  0  0  0  0  0  0
   -2.9777   -1.1086   -3.3076 H   0  0  0  0  0  0  0  0  0  0  0  0
   -6.9365   -2.1766   -1.9924 H   0  0  0  0  0  0  0  0  0  0  0  0
   -5.2849   -1.9001   -3.8059 H   0  0  0  0  0  0  0  0  0  0  0  0
  1  5  1  0  0  0  0
  1  9  1  0  0  0  0
  1 10  1  0  0  0  0
  2  8  1  0  0  0  0
  2 16  1  0  0  0  0
  2 46  1  0  0  0  0
  3 18  2  0  0  0  0
  3 29  1  0  0  0  0
  4 20  1  0  0  0  0
  4 27  1  0  0  0  0
  4 55  1  0  0  0  0
  5  6  1  0  0  0  0
  5  8  1  0  0  0  0
  5 34  1  0  0  0  0
  6  7  1  0  0  0  0
  6 35  1  0  0  0  0
  6 36  1  0  0  0  0
  7 11  1  0  0  0  0
  7 14  1  0  0  0  0
  7 37  1  0  0  0  0
  8 12  2  0  0  0  0
  9 11  1  0  0  0  0
  9 38  1  0  0  0  0
  9 39  1  0  0  0  0
 10 13  1  0  0  0  0
 10 40  1  0  0  0  0
 10 41  1  0  0  0  0
 11 17  2  0  0  0  0
 12 13  1  0  0  0  0
 12 15  1  0  0  0  0
 13 42  1  0  0  0  0
 13 43  1  0  0  0  0
 14 18  1  0  0  0  0
 14 44  1  0  0  0  0
 14 45  1  0  0  0  0
 15 16  1  0  0  0  0
 15 19  2  0  0  0  0
 16 21  2  0  0  0  0
 17 22  1  0  0  0  0
 17 47  1  0  0  0  0
 18 20  1  0  0  0  0
 19 24  1  0  0  0  0
 19 48  1  0  0  0  0
 20 23  2  0  0  0  0
 21 25  1  0  0  0  0
 21 49  1  0  0  0  0
 22 50  1  0  0  0  0
 22 51  1  0  0  0  0
 22 52  1  0  0  0  0
 23 26  1  0  0  0  0
 23 28  1  0  0  0  0
 24 25  2  0  0  0  0
 24 53  1  0  0  0  0
 25 54  1  0  0  0  0
 26 27  1  0  0  0  0
 26 30  2  0  0  0  0
 27 31  2  0  0  0  0
 28 29  2  0  0  0  0
 28 56  1  0  0  0  0
 29 57  1  0  0  0  0
 30 32  1  0  0  0  0
 30 58  1  0  0  0  0
 31 33  1  0  0  0  0
 31 59  1  0  0  0  0
 32 33  2  0  0  0  0
 32 60  1  0  0  0  0
 33 61  1  0  0  0  0
M  END
> <PUBCHEM_COMPOUND_CID>
5281413

> <PUBCHEM_CONFORMER_RMSD>
0.8

> <PUBCHEM_CONFORMER_DIVERSEORDER>
2
7
24
5
22
25
9
13
21
20
23
3
16
6
10
19
4
17
18
26
12
14
11
15
1
8

> <PUBCHEM_MMFF94_PARTIAL_CHARGES>
42
1 -0.81
10 0.27
11 -0.28
12 -0.18
13 0.18
14 0.14
16 -0.15
17 -0.29
18 0.17
19 -0.15
2 0.03
20 -0.15
21 -0.15
22 0.14
24 -0.15
25 -0.15
27 -0.15
28 -0.15
29 0.16
3 -0.62
30 -0.15
31 -0.15
32 -0.15
33 -0.15
4 0.03
46 0.27
47 0.15
48 0.15
49 0.15
5 0.45
53 0.15
54 0.15
55 0.27
56 0.15
57 0.15
58 0.15
59 0.15
60 0.15
61 0.15
7 0.14
8 -0.33
9 0.41

> <PUBCHEM_EFFECTIVE_ROTOR_COUNT>
3

> <PUBCHEM_PHARMACOPHORE_FEATURES>
14
1 1 cation
1 2 cation
1 2 donor
1 22 hydrophobe
1 3 acceptor
1 4 cation
1 4 donor
5 2 8 12 15 16 rings
5 4 20 23 26 27 rings
6 1 5 6 7 9 11 rings
6 1 5 8 10 12 13 rings
6 15 16 19 21 24 25 rings
6 26 27 30 31 32 33 rings
6 3 18 20 23 28 29 rings

> <PUBCHEM_HEAVY_ATOM_COUNT>
33

> <PUBCHEM_ATOM_DEF_STEREO_COUNT>
2

> <PUBCHEM_ATOM_UDEF_STEREO_COUNT>
0

> <PUBCHEM_BOND_DEF_STEREO_COUNT>
1

> <PUBCHEM_BOND_UDEF_STEREO_COUNT>
0

> <PUBCHEM_ISOTOPIC_ATOM_COUNT>
0

> <PUBCHEM_COMPONENT_COUNT>
1

> <PUBCHEM_CACTVS_TAUTO_COUNT>
3

> <PUBCHEM_CONFORMER_ID>
0050968500000002

> <PUBCHEM_MMFF94_ENERGY>
73.9942

> <PUBCHEM_FEATURE_SELFOVERLAP>
71.47

> <PUBCHEM_SHAPE_FINGERPRINT>
10319926 262 15647322100412006758
10622 236 18269559506298675742
10928967 22 18261662775043781110
11049842 53 14189315732780996336
11135926 11 18057304121137775604
11285246 1 17917717941130386987
11578080 2 17895490162708712393
11720765 8 17345773957388169868
11966995 178 16844195410720464015
11991303 11 17912927476743653605
12166972 35 18408892827720643798
12422481 6 18042668667741286721
12633257 1 17385991914650955888
12977781 61 17827114867107706720
13692114 37 17607793213443344745
14114206 34 17345186903804113092
14251757 17 16845573063201050533
14429115 67 18260271828019147246
14508693 111 17314232150646315383
14537116 161 16845028878651050615
14705955 166 4750338270270687379
15163728 17 11023819617509459480
15351334 14 15266475409986944764
15721738 15 16916515864228918642
16067690 210 12391510931430020695
17349148 13 17895186663170829319
17809404 112 17986961738857178400
18603816 31 17834125517019432038
19311894 1 18269007530382725037
19315092 285 17823148842845444299
19438510 23 11095867273420436750
20775530 9 18269825583980829290
21458453 9 4822060607688030023
23536364 44 17703803564895820909
23559900 14 16559030463073034918
3004659 81 17096643198172809405
3027735 51 18267871768586950243
312425 83 14836108962737499102
354706 35 18127694820655571822
3886686 26 16229395953901243335
437795 70 17844824752757117077
4394409 98 16127831780121186850
44062 13 18265335194992268660
44880168 125 17619635017845592202
46194498 28 16413765130400532582
463206 1 18408042896526516827
49207404 50 4823224887553868016
50009960 94 15795147968871071215
5081480 168 17203314633085156221
563151 248 18191863638419663609
613672 6 18131355228451386650

> <PUBCHEM_SHAPE_MULTIPOLES>
659.2
12.66
3.69
2.95
1.62
0.72
-0.48
-13.55
3.16
-3.07
0.78
2.63
-0.45
-2.76

> <PUBCHEM_SHAPE_SELFOVERLAP>
1494.212

> <PUBCHEM_SHAPE_VOLUME>
341.5

> <PUBCHEM_COORDINATE_TYPE>
2
5
10

$$$$

