12490
  -OEChem-06261207003D

 19 19  0     0  0  0  0  0  0999 V2000
   -2.4000   -1.8239    0.0960 O   0  0  0  0  0  0  0  0  0  0  0  0
   -1.9796    2.2221    0.5277 O   0  0  0  0  0  0  0  0  0  0  0  0
    3.6871   -0.4045   -0.0129 O   0  0  0  0  0  0  0  0  0  0  0  0
   -3.3062    0.7055   -0.5243 O   0  0  0  0  0  0  0  0  0  0  0  0
    2.9227    1.7339   -0.1138 O   0  0  0  0  0  0  0  0  0  0  0  0
   -1.0371    0.1474   -0.0103 C   0  0  0  0  0  0  0  0  0  0  0  0
    1.3680   -0.0819   -0.0165 C   0  0  0  0  0  0  0  0  0  0  0  0
    0.2314    0.7263   -0.0475 C   0  0  0  0  0  0  0  0  0  0  0  0
   -1.1692   -1.2394    0.0578 C   0  0  0  0  0  0  0  0  0  0  0  0
    1.2359   -1.4688    0.0517 C   0  0  0  0  0  0  0  0  0  0  0  0
   -0.0327   -2.0476    0.0888 C   0  0  0  0  0  0  0  0  0  0  0  0
   -2.2108    1.0089   -0.0431 C   0  0  0  0  0  0  0  0  0  0  0  0
    2.6905    0.5220   -0.0535 C   0  0  0  0  0  0  0  0  0  0  0  0
    0.3455    1.8058   -0.1141 H   0  0  0  0  0  0  0  0  0  0  0  0
    2.0937   -2.1350    0.0781 H   0  0  0  0  0  0  0  0  0  0  0  0
   -0.1212   -3.1294    0.1420 H   0  0  0  0  0  0  0  0  0  0  0  0
   -2.2920   -2.7894    0.1420 H   0  0  0  0  0  0  0  0  0  0  0  0
   -2.7752    2.7955    0.5014 H   0  0  0  0  0  0  0  0  0  0  0  0
    4.5745    0.0129   -0.0378 H   0  0  0  0  0  0  0  0  0  0  0  0
  1  9  1  0  0  0  0
  1 17  1  0  0  0  0
  2 12  1  0  0  0  0
  2 18  1  0  0  0  0
  3 13  1  0  0  0  0
  3 19  1  0  0  0  0
  4 12  2  0  0  0  0
  5 13  2  0  0  0  0
  6  8  1  0  0  0  0
  6  9  2  0  0  0  0
  6 12  1  0  0  0  0
  7  8  2  0  0  0  0
  7 10  1  0  0  0  0
  7 13  1  0  0  0  0
  8 14  1  0  0  0  0
  9 11  1  0  0  0  0
 10 11  2  0  0  0  0
 10 15  1  0  0  0  0
 11 16  1  0  0  0  0
M  END
> <PUBCHEM_COMPOUND_CID>
12490

> <PUBCHEM_CONFORMER_RMSD>
0.6

> <PUBCHEM_CONFORMER_DIVERSEORDER>
1
2

> <PUBCHEM_MMFF94_PARTIAL_CHARGES>
19
1 -0.53
10 -0.15
11 -0.15
12 0.63
13 0.63
14 0.15
15 0.15
16 0.15
17 0.45
18 0.5
19 0.5
2 -0.65
3 -0.65
4 -0.57
5 -0.57
6 0.09
7 0.09
8 -0.15
9 0.08

> <PUBCHEM_EFFECTIVE_ROTOR_COUNT>
2

> <PUBCHEM_PHARMACOPHORE_FEATURES>
8
1 1 donor
1 2 acceptor
1 3 acceptor
1 4 acceptor
1 5 acceptor
3 2 4 12 anion
3 3 5 13 anion
6 6 7 8 9 10 11 rings

> <PUBCHEM_HEAVY_ATOM_COUNT>
13

> <PUBCHEM_ATOM_DEF_STEREO_COUNT>
0

> <PUBCHEM_ATOM_UDEF_STEREO_COUNT>
0

> <PUBCHEM_BOND_DEF_STEREO_COUNT>
0

> <PUBCHEM_BOND_UDEF_STEREO_COUNT>
0

> <PUBCHEM_ISOTOPIC_ATOM_COUNT>
0

> <PUBCHEM_COMPONENT_COUNT>
1

> <PUBCHEM_CACTVS_TAUTO_COUNT>
5

> <PUBCHEM_CONFORMER_ID>
000030CA00000001

> <PUBCHEM_MMFF94_ENERGY>
39.1417

> <PUBCHEM_FEATURE_SELFOVERLAP>
40.71

> <PUBCHEM_SHAPE_FINGERPRINT>
10608611 8 18336548218482737176
11206711 2 18338518513027977335
12491281 212 18341040904344838736
12932764 1 17346328106668615380
13380535 21 18338784719195678606
13380535 76 18410578430479922071
14325111 11 18411982429835360492
14897335 6 18339650026314657151
15775835 57 18202280320922065500
16945 1 18266735964200283474
193761 8 18338795735876704019
19973954 147 18338231566458161948
20510252 161 18263922146551713896
20871998 184 18189609445654806727
21040471 1 18338797926225193699
21501502 16 18411984680235037586
21524375 3 18340208591053604774
22802520 49 18115286977991043558
2334 1 18339641118736958620
23402539 116 18262249875418297269
23402655 69 18264505030266157109
23463225 33 18343305898583010690
23552423 10 18272088275530935586
23559900 14 18333726928324191484
2748010 2 18410849941258905278
528886 8 18411425037390265730
6333449 129 18409730638395332007
7364860 26 18119530087789010590

> <PUBCHEM_SHAPE_MULTIPOLES>
238.19
4.77
2.15
0.62
1.61
0.21
0
-1.62
0.29
-0.67
-0.18
-0.08
-0.03
-0.08

> <PUBCHEM_SHAPE_SELFOVERLAP>
510.169

> <PUBCHEM_SHAPE_VOLUME>
131.5

> <PUBCHEM_COORDINATE_TYPE>
2
5
10

$$$$

