441480
  -OEChem-07051212553D

 23 23  0     1  0  0  0  0  0999 V2000
   -0.5635   -1.4864   -0.5977 O   0  0  0  0  0  0  0  0  0  0  0  0
    0.9436    2.3461   -0.2965 O   0  0  0  0  0  0  0  0  0  0  0  0
   -1.6883    1.7743    0.7026 O   0  0  0  0  0  0  0  0  0  0  0  0
    2.7194    0.0738   -0.0546 O   0  0  0  0  0  0  0  0  0  0  0  0
    1.0352   -1.8411    1.1166 O   0  0  0  0  0  0  0  0  0  0  0  0
    0.5380    1.0642    0.1891 C   0  0  1  0  0  0  0  0  0  0  0  0
   -0.9480    0.8803   -0.1252 C   0  0  1  0  0  0  0  0  0  0  0  0
    1.3701   -0.0164   -0.4983 C   0  0  2  0  0  0  0  0  0  0  0  0
   -1.3926   -0.5675    0.1229 C   0  0  1  0  0  0  0  0  0  0  0  0
    0.8148   -1.4154   -0.2268 C   0  0  2  0  0  0  0  0  0  0  0  0
   -2.8288   -0.8119   -0.3323 C   0  0  0  0  0  0  0  0  0  0  0  0
    0.7184    1.0741    1.2707 H   0  0  0  0  0  0  0  0  0  0  0  0
   -1.1402    1.1575   -1.1698 H   0  0  0  0  0  0  0  0  0  0  0  0
    1.3701    0.1732   -1.5787 H   0  0  0  0  0  0  0  0  0  0  0  0
   -1.3469   -0.7996    1.1947 H   0  0  0  0  0  0  0  0  0  0  0  0
    1.3519   -2.1349   -0.8535 H   0  0  0  0  0  0  0  0  0  0  0  0
   -3.1103   -1.8566   -0.1604 H   0  0  0  0  0  0  0  0  0  0  0  0
   -3.5350   -0.1697    0.2023 H   0  0  0  0  0  0  0  0  0  0  0  0
   -2.9339   -0.6312   -1.4078 H   0  0  0  0  0  0  0  0  0  0  0  0
    0.4980    3.0208    0.2429 H   0  0  0  0  0  0  0  0  0  0  0  0
   -1.4911    2.6802    0.4110 H   0  0  0  0  0  0  0  0  0  0  0  0
    2.7352   -0.1146    0.8991 H   0  0  0  0  0  0  0  0  0  0  0  0
    0.9448   -1.0746    1.7054 H   0  0  0  0  0  0  0  0  0  0  0  0
  1  9  1  0  0  0  0
  1 10  1  0  0  0  0
  2  6  1  0  0  0  0
  2 20  1  0  0  0  0
  3  7  1  0  0  0  0
  3 21  1  0  0  0  0
  4  8  1  0  0  0  0
  4 22  1  0  0  0  0
  5 10  1  0  0  0  0
  5 23  1  0  0  0  0
  6  7  1  0  0  0  0
  6  8  1  0  0  0  0
  6 12  1  0  0  0  0
  7  9  1  0  0  0  0
  7 13  1  0  0  0  0
  8 10  1  0  0  0  0
  8 14  1  0  0  0  0
  9 11  1  0  0  0  0
  9 15  1  0  0  0  0
 10 16  1  0  0  0  0
 11 17  1  0  0  0  0
 11 18  1  0  0  0  0
 11 19  1  0  0  0  0
M  END
> <PUBCHEM_COMPOUND_CID>
441480

> <PUBCHEM_CONFORMER_RMSD>
0.4

> <PUBCHEM_CONFORMER_DIVERSEORDER>
1
3
2

> <PUBCHEM_MMFF94_PARTIAL_CHARGES>
14
1 -0.56
10 0.56
2 -0.68
20 0.4
21 0.4
22 0.4
23 0.4
3 -0.68
4 -0.68
5 -0.68
6 0.28
7 0.28
8 0.28
9 0.28

> <PUBCHEM_EFFECTIVE_ROTOR_COUNT>
1.2

> <PUBCHEM_PHARMACOPHORE_FEATURES>
10
1 1 acceptor
1 2 acceptor
1 2 donor
1 3 acceptor
1 3 donor
1 4 acceptor
1 4 donor
1 5 acceptor
1 5 donor
6 1 6 7 8 9 10 rings

> <PUBCHEM_HEAVY_ATOM_COUNT>
11

> <PUBCHEM_ATOM_DEF_STEREO_COUNT>
5

> <PUBCHEM_ATOM_UDEF_STEREO_COUNT>
0

> <PUBCHEM_BOND_DEF_STEREO_COUNT>
0

> <PUBCHEM_BOND_UDEF_STEREO_COUNT>
0

> <PUBCHEM_ISOTOPIC_ATOM_COUNT>
0

> <PUBCHEM_COMPONENT_COUNT>
1

> <PUBCHEM_CACTVS_TAUTO_COUNT>
1

> <PUBCHEM_CONFORMER_ID>
0006BC8800000001

> <PUBCHEM_MMFF94_ENERGY>
24.7175

> <PUBCHEM_FEATURE_SELFOVERLAP>
50.798

> <PUBCHEM_SHAPE_FINGERPRINT>
12423570 1 14887026628706598580
12524768 44 17976250567167494741
16945 1 18263350426174977062
18185500 45 18339642351160528958
21040471 1 17830449849209556541
23552423 10 18340487772897613557
241688 4 18266454506487688786
2748010 2 18192146212132022127
5084963 1 18114739335058289880
66348 1 18337392741875155709

> <PUBCHEM_SHAPE_MULTIPOLES>
197.03
2.93
2.14
0.78
0.74
0.56
-0.09
-0.27
0.19
-0.23
-0.24
-0.02
-0.15
-0.4

> <PUBCHEM_SHAPE_SELFOVERLAP>
390.991

> <PUBCHEM_SHAPE_VOLUME>
115.4

> <PUBCHEM_COORDINATE_TYPE>
2
5
10

$$$$

