3847
  -OEChem-06251223433D

 26 25  0     1  0  0  0  0  0999 V2000
    2.8496   -1.7308    0.6924 O   0  0  0  0  0  0  0  0  0  0  0  0
    3.0900   -0.9745   -1.4313 O   0  0  0  0  0  0  0  0  0  0  0  0
   -2.3379   -1.6353    0.6117 O   0  0  0  0  0  0  0  0  0  0  0  0
   -4.0268   -0.9730   -0.7549 O   0  0  0  0  0  0  0  0  0  0  0  0
    2.9273    1.6282   -0.6797 N   0  0  0  0  0  0  0  0  0  0  0  0
    1.3652    0.7780    1.0749 C   0  0  0  0  0  0  0  0  0  0  0  0
    0.1424    0.6324    0.1556 C   0  0  0  0  0  0  0  0  0  0  0  0
    2.7237    0.6314    0.3709 C   0  0  1  0  0  0  0  0  0  0  0  0
   -1.1897    0.8420    0.8917 C   0  0  0  0  0  0  0  0  0  0  0  0
   -2.4113    0.6288    0.0346 C   0  0  0  0  0  0  0  0  0  0  0  0
    2.9066   -0.7456   -0.2426 C   0  0  0  0  0  0  0  0  0  0  0  0
   -3.0286   -0.7148   -0.1000 C   0  0  0  0  0  0  0  0  0  0  0  0
   -3.0103    1.6331   -0.6232 C   0  0  0  0  0  0  0  0  0  0  0  0
    1.2895    0.0348    1.8787 H   0  0  0  0  0  0  0  0  0  0  0  0
    1.3253    1.7613    1.5617 H   0  0  0  0  0  0  0  0  0  0  0  0
    0.2082    1.3545   -0.6673 H   0  0  0  0  0  0  0  0  0  0  0  0
    0.1487   -0.3656   -0.2992 H   0  0  0  0  0  0  0  0  0  0  0  0
    3.5230    0.7618    1.1106 H   0  0  0  0  0  0  0  0  0  0  0  0
   -1.2050    1.8662    1.2893 H   0  0  0  0  0  0  0  0  0  0  0  0
   -1.2327    0.1985    1.7788 H   0  0  0  0  0  0  0  0  0  0  0  0
    3.8844    1.5708   -1.0263 H   0  0  0  0  0  0  0  0  0  0  0  0
    2.8220    2.5631   -0.2875 H   0  0  0  0  0  0  0  0  0  0  0  0
   -2.6181    2.6438   -0.5649 H   0  0  0  0  0  0  0  0  0  0  0  0
   -3.8945    1.4913   -1.2354 H   0  0  0  0  0  0  0  0  0  0  0  0
    2.9689   -2.6193    0.2943 H   0  0  0  0  0  0  0  0  0  0  0  0
   -2.7326   -2.5302    0.5364 H   0  0  0  0  0  0  0  0  0  0  0  0
  1 11  1  0  0  0  0
  1 25  1  0  0  0  0
  2 11  2  0  0  0  0
  3 12  1  0  0  0  0
  3 26  1  0  0  0  0
  4 12  2  0  0  0  0
  5  8  1  0  0  0  0
  5 21  1  0  0  0  0
  5 22  1  0  0  0  0
  6  7  1  0  0  0  0
  6  8  1  0  0  0  0
  6 14  1  0  0  0  0
  6 15  1  0  0  0  0
  7  9  1  0  0  0  0
  7 16  1  0  0  0  0
  7 17  1  0  0  0  0
  8 11  1  0  0  0  0
  8 18  1  0  0  0  0
  9 10  1  0  0  0  0
  9 19  1  0  0  0  0
  9 20  1  0  0  0  0
 10 12  1  0  0  0  0
 10 13  2  0  0  0  0
 13 23  1  0  0  0  0
 13 24  1  0  0  0  0
M  END
> <PUBCHEM_COMPOUND_CID>
3847

> <PUBCHEM_CONFORMER_RMSD>
0.6

> <PUBCHEM_CONFORMER_DIVERSEORDER>
2
345
61
377
203
361
74
311
307
309
106
128
366
65
73
313
357
346
139
4
234
127
383
31
96
343
222
320
340
154
354
162
331
125
388
263
192
48
342
82
281
66
334
254
133
148
247
84
194
291
159
371
102
329
252
173
56
264
379
318
10
81
321
41
253
278
33
53
16
23
274
187
362
104
336
275
14
367
373
150
304
385
77
72
276
210
316
182
319
17
353
236
89
120
293
359
18
337
136
376
256
314
175
299
131
35
143
283
147
364
310
306
114
257
375
107
349
135
308
386
341
327
24
231
288
198
37
289
30
91
204
209
381
317
333
171
39
138
186
76
132
378
93
241
11
141
243
137
270
296
155
224
103
152
251
201
215
208
165
126
261
279
130
202
389
32
191
49
118
99
52
123
277
164
153
360
339
200
223
213
129
42
195
79
64
302
350
34
229
7
206
369
280
344
46
250
212
8
142
326
57
25
207
272
146
116
363
180
161
197
380
205
348
365
245
156
75
196
233
249
214
384
51
232
290
312
358
286
228
305
297
217
38
55
86
330
21
199
238
172
63
111
352
372
36
94
227
9
50
315
239
112
355
356
179
325
324
255
54
248
69
47
101
117
295
22
259
108
90
298
124
221
12
144
95
178
190
85
105
169
347
3
121
211
370
303
230
265
166
235
100
20
158
287
273
88
113
240
13
134
176
285
70
219
19
335
167
300
6
140
225
26
87
183
168
271
29
323
262
387
282
109
258
184
332
98
292
122
237
43
62
151
58
188
83
119
338
267
157
181
382
92
71
170
160
28
67
260
27
220
226
246
301
149
15
328
185
193
45
1
189
242
177
244
269
268
163
145
110
351
78
68
5
44
322
216
40
97
115
368
174
218
60
80
294
374
284
266
59

> <PUBCHEM_MMFF94_PARTIAL_CHARGES>
17
1 -0.65
10 -0.12
11 0.66
12 0.71
13 -0.3
2 -0.57
21 0.36
22 0.36
23 0.15
24 0.15
25 0.5
26 0.5
3 -0.65
4 -0.57
5 -0.99
8 0.33
9 0.14

> <PUBCHEM_EFFECTIVE_ROTOR_COUNT>
6

> <PUBCHEM_PHARMACOPHORE_FEATURES>
10
1 1 acceptor
1 13 hydrophobe
1 2 acceptor
1 3 acceptor
1 4 acceptor
1 5 cation
1 5 donor
3 1 2 11 anion
3 3 4 12 anion
4 6 7 9 10 hydrophobe

> <PUBCHEM_HEAVY_ATOM_COUNT>
13

> <PUBCHEM_ATOM_DEF_STEREO_COUNT>
0

> <PUBCHEM_ATOM_UDEF_STEREO_COUNT>
1

> <PUBCHEM_BOND_DEF_STEREO_COUNT>
0

> <PUBCHEM_BOND_UDEF_STEREO_COUNT>
0

> <PUBCHEM_ISOTOPIC_ATOM_COUNT>
0

> <PUBCHEM_COMPONENT_COUNT>
1

> <PUBCHEM_CACTVS_TAUTO_COUNT>
1

> <PUBCHEM_CONFORMER_ID>
00000F0700000002

> <PUBCHEM_MMFF94_ENERGY>
13.3196

> <PUBCHEM_FEATURE_SELFOVERLAP>
50.863

> <PUBCHEM_SHAPE_FINGERPRINT>
122479 349 10519718808125359679
12932764 1 18201993373814375360
13296908 3 18187085065567334441
14251710 61 18113892771313897279
14350558 41 18260828185287452680
15239191 94 17821726113591055231
177051 138 17967814954918839222
18186145 218 18339358664270548568
20201158 50 18187364388786678254
20279233 1 17967543358367058904
20281407 28 18041561326229887513
20645477 56 18343027704972415817
20645477 70 18113340812149787167
22169311 14 8574441923451442596
22169311 21 18261404359323956728
23557571 272 18413116047545908488
3248919 1 18342465819700950465
8030462 33 16773802518991708737
81228 2 16952523839156604896
93112 12 18342176703988021541
94968 8 18114460067900562542
9882013 296 6122197841577034178

> <PUBCHEM_SHAPE_MULTIPOLES>
239.08
7.28
1.74
1.04
0.97
0.2
-0.06
1.63
-1.79
0.06
-0.07
-0.39
0.01
0.17

> <PUBCHEM_SHAPE_SELFOVERLAP>
460.351

> <PUBCHEM_SHAPE_VOLUME>
143.7

> <PUBCHEM_COORDINATE_TYPE>
2
5
10

$$$$

