8569
  -OEChem-07051213043D

 30 31  0     0  0  0  0  0  0999 V2000
   -4.4307    0.9777   -0.0562 O   0  0  0  0  0  0  0  0  0  0  0  0
   -1.5441   -2.8071    0.1504 O   0  0  0  0  0  0  0  0  0  0  0  0
    0.9498   -2.3600    0.2342 O   0  0  0  0  0  0  0  0  0  0  0  0
    2.0564   -0.2717   -2.1948 O   0  0  0  0  0  0  0  0  0  0  0  0
   -0.6156   -0.5958    0.1161 C   0  0  0  0  0  0  0  0  0  0  0  0
    1.9100   -0.2474    0.1996 C   0  0  0  0  0  0  0  0  0  0  0  0
    0.7569   -1.1367    0.1815 C   0  0  0  0  0  0  0  0  0  0  0  0
   -1.7020   -1.4541    0.1042 C   0  0  0  0  0  0  0  0  0  0  0  0
   -0.7798    0.7788    0.0725 C   0  0  0  0  0  0  0  0  0  0  0  0
   -3.1735    0.4594    0.0018 C   0  0  0  0  0  0  0  0  0  0  0  0
   -2.9905   -0.9227    0.0465 C   0  0  0  0  0  0  0  0  0  0  0  0
    2.5218    0.1559   -0.9873 C   0  0  0  0  0  0  0  0  0  0  0  0
   -2.0681    1.3101    0.0147 C   0  0  0  0  0  0  0  0  0  0  0  0
    2.4027    0.2005    1.4253 C   0  0  0  0  0  0  0  0  0  0  0  0
    3.6262    1.0074   -0.9484 C   0  0  0  0  0  0  0  0  0  0  0  0
    3.5071    1.0517    1.4641 C   0  0  0  0  0  0  0  0  0  0  0  0
    4.1189    1.4550    0.2775 C   0  0  0  0  0  0  0  0  0  0  0  0
   -4.5456    2.3991   -0.1016 C   0  0  0  0  0  0  0  0  0  0  0  0
    0.0472    1.4809    0.0804 H   0  0  0  0  0  0  0  0  0  0  0  0
   -3.8574   -1.5787    0.0363 H   0  0  0  0  0  0  0  0  0  0  0  0
   -2.1390    2.3920   -0.0180 H   0  0  0  0  0  0  0  0  0  0  0  0
    1.9353   -0.1072    2.3573 H   0  0  0  0  0  0  0  0  0  0  0  0
    4.1128    1.3297   -1.8650 H   0  0  0  0  0  0  0  0  0  0  0  0
    3.8908    1.4003    2.4185 H   0  0  0  0  0  0  0  0  0  0  0  0
    4.9788    2.1178    0.3079 H   0  0  0  0  0  0  0  0  0  0  0  0
   -2.4196   -3.2303    0.1334 H   0  0  0  0  0  0  0  0  0  0  0  0
    2.6044    0.1120   -2.9006 H   0  0  0  0  0  0  0  0  0  0  0  0
   -5.6138    2.6357   -0.1452 H   0  0  0  0  0  0  0  0  0  0  0  0
   -4.0897    2.8110   -1.0084 H   0  0  0  0  0  0  0  0  0  0  0  0
   -4.1522    2.8638    0.8088 H   0  0  0  0  0  0  0  0  0  0  0  0
  1 10  1  0  0  0  0
  1 18  1  0  0  0  0
  2  8  1  0  0  0  0
  2 26  1  0  0  0  0
  3  7  2  0  0  0  0
  4 12  1  0  0  0  0
  4 27  1  0  0  0  0
  5  7  1  0  0  0  0
  5  8  2  0  0  0  0
  5  9  1  0  0  0  0
  6  7  1  0  0  0  0
  6 12  1  0  0  0  0
  6 14  2  0  0  0  0
  8 11  1  0  0  0  0
  9 13  2  0  0  0  0
  9 19  1  0  0  0  0
 10 11  2  0  0  0  0
 10 13  1  0  0  0  0
 11 20  1  0  0  0  0
 12 15  2  0  0  0  0
 13 21  1  0  0  0  0
 14 16  1  0  0  0  0
 14 22  1  0  0  0  0
 15 17  1  0  0  0  0
 15 23  1  0  0  0  0
 16 17  2  0  0  0  0
 16 24  1  0  0  0  0
 17 25  1  0  0  0  0
 18 28  1  0  0  0  0
 18 29  1  0  0  0  0
 18 30  1  0  0  0  0
M  END
> <PUBCHEM_COMPOUND_CID>
8569

> <PUBCHEM_CONFORMER_RMSD>
0.6

> <PUBCHEM_CONFORMER_DIVERSEORDER>
1
24
30
11
27
13
32
12
14
20
9
23
31
10
17
18
6
7
29
28
26
8
25
5
19
21
4
3
22
16
15
2

> <PUBCHEM_MMFF94_PARTIAL_CHARGES>
27
1 -0.36
10 0.08
11 -0.15
12 0.08
13 -0.15
14 -0.15
15 -0.15
16 -0.15
17 -0.15
18 0.28
19 0.15
2 -0.53
20 0.15
21 0.15
22 0.15
23 0.15
24 0.15
25 0.15
26 0.45
27 0.45
3 -0.57
4 -0.53
5 0.09
6 0.09
7 0.4
8 0.08
9 -0.15

> <PUBCHEM_EFFECTIVE_ROTOR_COUNT>
3

> <PUBCHEM_PHARMACOPHORE_FEATURES>
6
1 1 acceptor
1 2 donor
1 3 acceptor
1 4 donor
6 5 8 9 10 11 13 rings
6 6 12 14 15 16 17 rings

> <PUBCHEM_HEAVY_ATOM_COUNT>
18

> <PUBCHEM_ATOM_DEF_STEREO_COUNT>
0

> <PUBCHEM_ATOM_UDEF_STEREO_COUNT>
0

> <PUBCHEM_BOND_DEF_STEREO_COUNT>
0

> <PUBCHEM_BOND_UDEF_STEREO_COUNT>
0

> <PUBCHEM_ISOTOPIC_ATOM_COUNT>
0

> <PUBCHEM_COMPONENT_COUNT>
1

> <PUBCHEM_CACTVS_TAUTO_COUNT>
24

> <PUBCHEM_CONFORMER_ID>
0000217900000001

> <PUBCHEM_MMFF94_ENERGY>
68.5613

> <PUBCHEM_FEATURE_SELFOVERLAP>
30.446

> <PUBCHEM_SHAPE_FINGERPRINT>
10465860 228 18201159944253618322
10498660 4 18408040723499697521
10646746 165 18409731729575618008
11132069 177 18342459222678552385
11471102 22 14764082120849487426
11543360 7 16226059885567415853
11640471 11 17488170505383451900
11725454 13 17169866343065512634
12173636 292 18410859893130595069
12236239 1 17632583695675927320
12403814 3 17418383480356326597
12500047 106 18408042892246776070
12788726 201 17413854445474219843
13140716 1 17837487449946717091
13764800 53 18411974737337950147
13965767 371 17917159393560596756
14123255 52 18411701006308774957
14739800 52 17836375852698273144
15375358 24 18113902645364569753
15775835 57 18131070407373268544
16945 1 18339922610988821827
1741750 31 18410011048447000251
1798214 55 18411136961043799601
18186145 218 18040987462421708209
18222031 100 10231457619968268737
200 152 15068614994117905968
20510252 161 18263919951913304371
20645477 56 18336260167815936505
20645477 70 16660631965003971630
20715895 44 17485950815025619829
23402539 116 18261962856002869068
23557571 272 18188763933976317622
23559900 14 18334007299040658988
238 59 16588303916537901924
2748010 2 18340195406037191255
2838139 119 17975133133454745172
3060560 45 16298391258074636548
3472631 163 18341049627286838765
350125 39 18124875921786247152
4028521 119 18114180843566083265
474 4 17632291276510707649
495365 180 17531537571644305630
5104073 3 18269833280736024977
5939293 188 18337114449834085272
7364860 26 18191307280739803282
77492 1 17488752155719477058
7808743 9 18341047407099963140
8988823 20 14117218535255364565

> <PUBCHEM_SHAPE_MULTIPOLES>
346.95
8.07
2.23
1.17
2.55
0.74
-0.27
-5.72
0.09
1.79
0.15
-1.49
-0.12
0.32

> <PUBCHEM_SHAPE_SELFOVERLAP>
756.966

> <PUBCHEM_SHAPE_VOLUME>
188.6

> <PUBCHEM_COORDINATE_TYPE>
2
5
10

$$$$

