12754
  -OEChem-06261207203D

 12 12  0     0  0  0  0  0  0999 V2000
    2.2486   -1.5429    0.0004 Br  0  0  0  0  0  0  0  0  0  0  0  0
    1.8516    1.7843   -0.0008 Cl  0  0  0  0  0  0  0  0  0  0  0  0
    0.5742   -0.6440    0.0000 C   0  0  0  0  0  0  0  0  0  0  0  0
    0.4683    0.7470    0.0004 C   0  0  0  0  0  0  0  0  0  0  0  0
   -0.5775   -1.4310   -0.0004 C   0  0  0  0  0  0  0  0  0  0  0  0
   -0.7893    1.3506    0.0005 C   0  0  0  0  0  0  0  0  0  0  0  0
   -1.8350   -0.8274   -0.0004 C   0  0  0  0  0  0  0  0  0  0  0  0
   -1.9408    0.5634    0.0001 C   0  0  0  0  0  0  0  0  0  0  0  0
   -0.5170   -2.5164   -0.0006 H   0  0  0  0  0  0  0  0  0  0  0  0
   -0.8912    2.4330    0.0007 H   0  0  0  0  0  0  0  0  0  0  0  0
   -2.7318   -1.4401   -0.0006 H   0  0  0  0  0  0  0  0  0  0  0  0
   -2.9201    1.0332    0.0001 H   0  0  0  0  0  0  0  0  0  0  0  0
  1  3  1  0  0  0  0
  2  4  1  0  0  0  0
  3  4  1  0  0  0  0
  3  5  2  0  0  0  0
  4  6  2  0  0  0  0
  5  7  1  0  0  0  0
  5  9  1  0  0  0  0
  6  8  1  0  0  0  0
  6 10  1  0  0  0  0
  7  8  2  0  0  0  0
  7 11  1  0  0  0  0
  8 12  1  0  0  0  0
M  END
> <PUBCHEM_COMPOUND_CID>
12754

> <PUBCHEM_CONFORMER_RMSD>
0.4

> <PUBCHEM_CONFORMER_DIVERSEORDER>
1

> <PUBCHEM_MMFF94_PARTIAL_CHARGES>
12
1 -0.11
10 0.15
11 0.15
12 0.15
2 -0.18
3 0.11
4 0.18
5 -0.15
6 -0.15
7 -0.15
8 -0.15
9 0.15

> <PUBCHEM_EFFECTIVE_ROTOR_COUNT>
0

> <PUBCHEM_PHARMACOPHORE_FEATURES>
2
1 1 hydrophobe
6 3 4 5 6 7 8 rings

> <PUBCHEM_HEAVY_ATOM_COUNT>
8

> <PUBCHEM_ATOM_DEF_STEREO_COUNT>
0

> <PUBCHEM_ATOM_UDEF_STEREO_COUNT>
0

> <PUBCHEM_BOND_DEF_STEREO_COUNT>
0

> <PUBCHEM_BOND_UDEF_STEREO_COUNT>
0

> <PUBCHEM_ISOTOPIC_ATOM_COUNT>
0

> <PUBCHEM_COMPONENT_COUNT>
1

> <PUBCHEM_CACTVS_TAUTO_COUNT>
1

> <PUBCHEM_CONFORMER_ID>
000031D200000001

> <PUBCHEM_MMFF94_ENERGY>
16.916

> <PUBCHEM_FEATURE_SELFOVERLAP>
10.148

> <PUBCHEM_SHAPE_FINGERPRINT>
12423570 1 9540866623918661025
16714656 1 18050003599524685886
16945 1 18266741461885016359
18185500 45 18052537956530750386
21040471 1 18266459810783069509
23552423 10 18342736278307878454
241688 4 18340488992299125656
2748010 2 18412263917559751647
5084963 1 18187373185011367955

> <PUBCHEM_SHAPE_MULTIPOLES>
172.45
2.89
2.11
0.64
0.54
0.48
0
-0.52
0
0.88
0
0.05
-0.01
0

> <PUBCHEM_SHAPE_SELFOVERLAP>
332.809

> <PUBCHEM_SHAPE_VOLUME>
106.8

> <PUBCHEM_COORDINATE_TYPE>
2
5
10

$$$$

