13262
  -OEChem-06261208143D

 24 25  0     0  0  0  0  0  0999 V2000
   -2.5330    1.1044   -0.0005 O   0  0  0  0  0  0  0  0  0  0  0  0
   -4.7795    0.6588   -0.0003 O   0  0  0  0  0  0  0  0  0  0  0  0
    3.9963    1.2780    0.0026 O   0  0  0  0  0  0  0  0  0  0  0  0
    2.7353   -0.7140   -0.0004 N   0  0  0  0  0  0  0  0  0  0  0  0
   -0.9584   -0.7517    0.0002 C   0  0  0  0  0  0  0  0  0  0  0  0
   -1.2097    0.6178   -0.0001 C   0  0  0  0  0  0  0  0  0  0  0  0
    1.4127   -0.2683   -0.0004 C   0  0  0  0  0  0  0  0  0  0  0  0
    0.3660   -1.1949   -0.0003 C   0  0  0  0  0  0  0  0  0  0  0  0
   -0.1765    1.5527   -0.0006 C   0  0  0  0  0  0  0  0  0  0  0  0
    1.1416    1.1020   -0.0004 C   0  0  0  0  0  0  0  0  0  0  0  0
   -2.0839   -1.6708    0.0008 C   0  0  0  0  0  0  0  0  0  0  0  0
   -3.3342   -1.2018    0.0008 C   0  0  0  0  0  0  0  0  0  0  0  0
   -3.6258    0.2437    0.0001 C   0  0  0  0  0  0  0  0  0  0  0  0
    3.9067    0.0544   -0.0006 C   0  0  0  0  0  0  0  0  0  0  0  0
    5.1422   -0.8103   -0.0008 C   0  0  0  0  0  0  0  0  0  0  0  0
    0.5839   -2.2610   -0.0002 H   0  0  0  0  0  0  0  0  0  0  0  0
   -0.3901    2.6173   -0.0009 H   0  0  0  0  0  0  0  0  0  0  0  0
    1.8996    1.8725   -0.0008 H   0  0  0  0  0  0  0  0  0  0  0  0
   -1.8925   -2.7381    0.0013 H   0  0  0  0  0  0  0  0  0  0  0  0
    2.8529   -1.7251   -0.0007 H   0  0  0  0  0  0  0  0  0  0  0  0
   -4.1793   -1.8816    0.0013 H   0  0  0  0  0  0  0  0  0  0  0  0
    5.1658   -1.4208    0.9063 H   0  0  0  0  0  0  0  0  0  0  0  0
    6.0357   -0.1803   -0.0289 H   0  0  0  0  0  0  0  0  0  0  0  0
    5.1399   -1.4610   -0.8798 H   0  0  0  0  0  0  0  0  0  0  0  0
  1  6  1  0  0  0  0
  1 13  1  0  0  0  0
  2 13  2  0  0  0  0
  3 14  2  0  0  0  0
  4  7  1  0  0  0  0
  4 14  1  0  0  0  0
  4 20  1  0  0  0  0
  5  6  2  0  0  0  0
  5  8  1  0  0  0  0
  5 11  1  0  0  0  0
  6  9  1  0  0  0  0
  7  8  2  0  0  0  0
  7 10  1  0  0  0  0
  8 16  1  0  0  0  0
  9 10  2  0  0  0  0
  9 17  1  0  0  0  0
 10 18  1  0  0  0  0
 11 12  2  0  0  0  0
 11 19  1  0  0  0  0
 12 13  1  0  0  0  0
 12 21  1  0  0  0  0
 14 15  1  0  0  0  0
 15 22  1  0  0  0  0
 15 23  1  0  0  0  0
 15 24  1  0  0  0  0
M  END
> <PUBCHEM_COMPOUND_CID>
13262

> <PUBCHEM_CONFORMER_RMSD>
0.6

> <PUBCHEM_CONFORMER_DIVERSEORDER>
1
3
2
4

> <PUBCHEM_MMFF94_PARTIAL_CHARGES>
21
1 -0.23
10 -0.15
11 -0.18
12 -0.14
13 0.71
14 0.57
15 0.06
16 0.15
17 0.15
18 0.15
19 0.15
2 -0.57
20 0.37
21 0.15
3 -0.57
4 -0.55
5 0.03
6 0.08
7 0.12
8 -0.15
9 -0.15

> <PUBCHEM_EFFECTIVE_ROTOR_COUNT>
2

> <PUBCHEM_PHARMACOPHORE_FEATURES>
5
1 2 acceptor
1 3 acceptor
1 4 donor
6 1 5 6 11 12 13 rings
6 5 6 7 8 9 10 rings

> <PUBCHEM_HEAVY_ATOM_COUNT>
15

> <PUBCHEM_ATOM_DEF_STEREO_COUNT>
0

> <PUBCHEM_ATOM_UDEF_STEREO_COUNT>
0

> <PUBCHEM_BOND_DEF_STEREO_COUNT>
0

> <PUBCHEM_BOND_UDEF_STEREO_COUNT>
0

> <PUBCHEM_ISOTOPIC_ATOM_COUNT>
0

> <PUBCHEM_COMPONENT_COUNT>
1

> <PUBCHEM_CACTVS_TAUTO_COUNT>
2

> <PUBCHEM_CONFORMER_ID>
000033CE00000001

> <PUBCHEM_MMFF94_ENERGY>
48.6892

> <PUBCHEM_FEATURE_SELFOVERLAP>
25.399

> <PUBCHEM_SHAPE_FINGERPRINT>
10062212 137 18410860927664130471
11132069 177 18409733949946940632
11401426 45 18408326583463469775
12032990 46 18410289181812592874
12119455 92 17312824887510565070
124424 183 18413389821893605615
13214271 11 18334859398518433023
13288520 33 18408882971303072294
13380535 76 18409447003066298535
13690532 89 18411982463846880740
13862211 1 18410579495679323191
14115302 16 18059283301711705902
14911166 2 18410863170137803301
14943859 89 18413670205769210211
15196674 1 18410856521006189414
15375358 24 18260264157191803783
15536298 74 18335421214869552256
16945 1 18409720790420333679
17804303 29 18336263466081800937
18186145 218 17561090172430172350
200 152 17676491643968343391
20279233 1 17967525783519204310
20510252 161 18188490310247660857
20645477 70 17749947881627942662
21267235 1 18411409614010030218
22485316 2 18410014316880234522
23402539 116 18260838102250804031
23402655 69 18262811778085604549
23463225 33 18413107251642043404
23559900 14 18335703824023389336
2748010 2 18194405494184801717
335352 9 18410856589715162556
34934 24 18411143545154811339
5104073 3 18410575046245783538
53655031 270 18412826910357461306
69090 78 18261115170659790007
77779 3 18410854339569023906
8809292 202 18271803476138800843
9709674 26 18409441488666154030

> <PUBCHEM_SHAPE_MULTIPOLES>
286.1
8.8
1.58
0.59
4.9
0.01
0
-0.41
0
-0.35
0
0.01
-0.02
0

> <PUBCHEM_SHAPE_SELFOVERLAP>
616.018

> <PUBCHEM_SHAPE_VOLUME>
156.6

> <PUBCHEM_COORDINATE_TYPE>
2
5
10

$$$$

