13019104
  -OEChem-07051213112D

 52 53  0     1  0  0  0  0  0999 V2000
    6.8671    0.9400    0.0000 O   0  0  0  0  0  0  0  0  0  0  0  0
    6.8671   -3.0600    0.0000 O   0  0  0  0  0  0  0  0  0  0  0  0
    5.1350    0.9400    0.0000 O   0  0  0  0  0  0  0  0  0  0  0  0
    5.1350   -0.0600    0.0000 O   0  0  0  0  0  0  0  0  0  0  0  0
    5.1350   -2.0600    0.0000 N   0  0  0  0  0  0  0  0  0  0  0  0
    8.5991   -0.0600    0.0000 N   0  0  0  0  0  0  0  0  0  0  0  0
    6.8671    2.9400    0.0000 N   0  0  0  0  0  0  0  0  0  0  0  0
    2.5369    1.4400    0.0000 N   0  0  0  0  0  0  0  0  0  0  0  0
    6.8671   -0.0600    0.0000 C   0  0  1  0  0  0  0  0  0  0  0  0
    6.0010   -1.5600    0.0000 C   0  0  2  0  0  0  0  0  0  0  0  0
    6.0010   -0.5600    0.0000 C   0  0  1  0  0  0  0  0  0  0  0  0
    7.7331   -0.5600    0.0000 C   0  0  2  0  0  0  0  0  0  0  0  0
    6.8671   -2.0600    0.0000 C   0  0  1  0  0  0  0  0  0  0  0  0
    7.7331   -1.5600    0.0000 C   0  0  0  0  0  0  0  0  0  0  0  0
    6.0010    1.4400    0.0000 C   0  0  1  0  0  0  0  0  0  0  0  0
    6.0010    2.4400    0.0000 C   0  0  1  0  0  0  0  0  0  0  0  0
    5.1350    2.9400    0.0000 C   0  0  0  0  0  0  0  0  0  0  0  0
    4.2690    1.4400    0.0000 C   0  0  1  0  0  0  0  0  0  0  0  0
    4.2690    2.4400    0.0000 C   0  0  0  0  0  0  0  0  0  0  0  0
    3.4030    0.9400    0.0000 C   0  0  0  0  0  0  0  0  0  0  0  0
    5.1350   -3.0600    0.0000 C   0  0  0  0  0  0  0  0  0  0  0  0
    7.7331   -3.5600    0.0000 C   0  0  0  0  0  0  0  0  0  0  0  0
    6.3301    0.2500    0.0000 H   0  0  0  0  0  0  0  0  0  0  0  0
    5.4641   -1.2500    0.0000 H   0  0  0  0  0  0  0  0  0  0  0  0
    5.4641   -0.8700    0.0000 H   0  0  0  0  0  0  0  0  0  0  0  0
    7.7331    0.0600    0.0000 H   0  0  0  0  0  0  0  0  0  0  0  0
    6.3301   -2.3700    0.0000 H   0  0  0  0  0  0  0  0  0  0  0  0
    7.9451   -2.1426    0.0000 H   0  0  0  0  0  0  0  0  0  0  0  0
    8.3437   -1.4523    0.0000 H   0  0  0  0  0  0  0  0  0  0  0  0
    6.5380    1.7500    0.0000 H   0  0  0  0  0  0  0  0  0  0  0  0
    6.5380    2.1300    0.0000 H   0  0  0  0  0  0  0  0  0  0  0  0
    4.5981   -1.7500    0.0000 H   0  0  0  0  0  0  0  0  0  0  0  0
    5.5335    3.4150    0.0000 H   0  0  0  0  0  0  0  0  0  0  0  0
    4.7365    3.4150    0.0000 H   0  0  0  0  0  0  0  0  0  0  0  0
    4.2690    0.8200    0.0000 H   0  0  0  0  0  0  0  0  0  0  0  0
    4.0569    3.0226    0.0000 H   0  0  0  0  0  0  0  0  0  0  0  0
    3.6584    2.3323    0.0000 H   0  0  0  0  0  0  0  0  0  0  0  0
    9.1360   -0.3700    0.0000 H   0  0  0  0  0  0  0  0  0  0  0  0
    8.5991    0.5600    0.0000 H   0  0  0  0  0  0  0  0  0  0  0  0
    4.5981   -0.3700    0.0000 H   0  0  0  0  0  0  0  0  0  0  0  0
    3.0044    0.4651    0.0000 H   0  0  0  0  0  0  0  0  0  0  0  0
    3.8015    0.4651    0.0000 H   0  0  0  0  0  0  0  0  0  0  0  0
    4.5150   -3.0600    0.0000 H   0  0  0  0  0  0  0  0  0  0  0  0
    5.1350   -3.6800    0.0000 H   0  0  0  0  0  0  0  0  0  0  0  0
    5.7550   -3.0600    0.0000 H   0  0  0  0  0  0  0  0  0  0  0  0
    6.8671    3.5600    0.0000 H   0  0  0  0  0  0  0  0  0  0  0  0
    7.4040    2.6300    0.0000 H   0  0  0  0  0  0  0  0  0  0  0  0
    7.4231   -4.0969    0.0000 H   0  0  0  0  0  0  0  0  0  0  0  0
    8.2700   -3.8700    0.0000 H   0  0  0  0  0  0  0  0  0  0  0  0
    8.0431   -3.0231    0.0000 H   0  0  0  0  0  0  0  0  0  0  0  0
    2.0000    1.1300    0.0000 H   0  0  0  0  0  0  0  0  0  0  0  0
    2.5369    2.0600    0.0000 H   0  0  0  0  0  0  0  0  0  0  0  0
  9  1  1  6  0  0  0
 15  1  1  1  0  0  0
 13  2  1  1  0  0  0
  2 22  1  0  0  0  0
  3 15  1  0  0  0  0
  3 18  1  0  0  0  0
 11  4  1  1  0  0  0
  4 40  1  0  0  0  0
 10  5  1  6  0  0  0
  5 21  1  0  0  0  0
  5 32  1  0  0  0  0
 12  6  1  1  0  0  0
  6 38  1  0  0  0  0
  6 39  1  0  0  0  0
 16  7  1  1  0  0  0
  7 46  1  0  0  0  0
  7 47  1  0  0  0  0
  8 20  1  0  0  0  0
  8 51  1  0  0  0  0
  8 52  1  0  0  0  0
  9 11  1  0  0  0  0
  9 12  1  0  0  0  0
  9 23  1  0  0  0  0
 10 11  1  0  0  0  0
 10 13  1  0  0  0  0
 10 24  1  0  0  0  0
 11 25  1  0  0  0  0
 12 14  1  0  0  0  0
 12 26  1  0  0  0  0
 13 14  1  0  0  0  0
 13 27  1  0  0  0  0
 14 28  1  0  0  0  0
 14 29  1  0  0  0  0
 15 16  1  0  0  0  0
 15 30  1  0  0  0  0
 16 17  1  0  0  0  0
 16 31  1  0  0  0  0
 17 19  1  0  0  0  0
 17 33  1  0  0  0  0
 17 34  1  0  0  0  0
 18 19  1  0  0  0  0
 18 20  1  6  0  0  0
 18 35  1  0  0  0  0
 19 36  1  0  0  0  0
 19 37  1  0  0  0  0
 20 41  1  0  0  0  0
 20 42  1  0  0  0  0
 21 43  1  0  0  0  0
 21 44  1  0  0  0  0
 21 45  1  0  0  0  0
 22 48  1  0  0  0  0
 22 49  1  0  0  0  0
 22 50  1  0  0  0  0
M  END
> <PUBCHEM_COMPOUND_CID>
13019104

> <PUBCHEM_COMPOUND_CANONICALIZED>
1

> <PUBCHEM_CACTVS_COMPLEXITY>
349

> <PUBCHEM_CACTVS_HBOND_ACCEPTOR>
8

> <PUBCHEM_CACTVS_HBOND_DONOR>
5

> <PUBCHEM_CACTVS_ROTATABLE_BOND>
5

> <PUBCHEM_CACTVS_SUBSKEYS>
AAADceBzuAAAAAAAAAAAAAAAAAAAAAAAAAA0QAAAAAAAAAAAAAAAHgAQCAAACDzxgAcCCALABgAAAAAAAAAAAAAAAAAAAIAIAAATEAIAgAAnQAAHEAAXAAHwcA8AAAAAAAAAAAACAQAUAACgAAAAAAAAAA==

> <PUBCHEM_IUPAC_OPENEYE_NAME>
(1R,2R,3S,5R,6R)-3-amino-2-[(2R,3R,6S)-3-amino-6-(aminomethyl)tetrahydropyran-2-yl]oxy-5-methoxy-6-(methylamino)cyclohexanol

> <PUBCHEM_IUPAC_CAS_NAME>
(1R,2R,3S,5R,6R)-3-amino-2-[[(2R,3R,6S)-3-amino-6-(aminomethyl)-2-oxanyl]oxy]-5-methoxy-6-(methylamino)-1-cyclohexanol

> <PUBCHEM_IUPAC_NAME>
(1R,2R,3S,5R,6R)-3-amino-2-[(2R,3R,6S)-3-amino-6-(aminomethyl)oxan-2-yl]oxy-5-methoxy-6-(methylamino)cyclohexan-1-ol

> <PUBCHEM_IUPAC_SYSTEMATIC_NAME>
(1R,2R,3S,5R,6R)-2-[(2R,3R,6S)-6-(aminomethyl)-3-azanyl-oxan-2-yl]oxy-3-azanyl-5-methoxy-6-(methylamino)cyclohexan-1-ol

> <PUBCHEM_IUPAC_TRADITIONAL_NAME>
(1R,2R,3S,5R,6R)-3-amino-2-[(2R,3R,6S)-3-amino-6-(aminomethyl)tetrahydropyran-2-yl]oxy-5-methoxy-6-(methylamino)cyclohexanol

> <PUBCHEM_IUPAC_INCHI>
InChI=1S/C14H30N4O4/c1-18-11-10(20-2)5-9(17)13(12(11)19)22-14-8(16)4-3-7(6-15)21-14/h7-14,18-19H,3-6,15-17H2,1-2H3/t7-,8+,9-,10+,11-,12+,13+,14+/m0/s1

> <PUBCHEM_IUPAC_INCHIKEY>
LVWCJJGPEHPHJN-MNMRKGMHSA-N

> <PUBCHEM_XLOGP3_AA>
-2.9

> <PUBCHEM_EXACT_MASS>
318.226705

> <PUBCHEM_MOLECULAR_FORMULA>
C14H30N4O4

> <PUBCHEM_MOLECULAR_WEIGHT>
318.4124

> <PUBCHEM_OPENEYE_CAN_SMILES>
CNC1C(CC(C(C1O)OC2C(CCC(O2)CN)N)N)OC

> <PUBCHEM_OPENEYE_ISO_SMILES>
CN[C@H]1[C@@H](C[C@@H]([C@H]([C@@H]1O)O[C@@H]2[C@@H](CC[C@H](O2)CN)N)N)OC

> <PUBCHEM_CACTVS_TPSA>
138

> <PUBCHEM_MONOISOTOPIC_WEIGHT>
318.226705

> <PUBCHEM_TOTAL_CHARGE>
0

> <PUBCHEM_HEAVY_ATOM_COUNT>
22

> <PUBCHEM_ATOM_DEF_STEREO_COUNT>
8

> <PUBCHEM_ATOM_UDEF_STEREO_COUNT>
0

> <PUBCHEM_BOND_DEF_STEREO_COUNT>
0

> <PUBCHEM_BOND_UDEF_STEREO_COUNT>
0

> <PUBCHEM_ISOTOPIC_ATOM_COUNT>
0

> <PUBCHEM_COMPONENT_COUNT>
1

> <PUBCHEM_CACTVS_TAUTO_COUNT>
1

> <PUBCHEM_COORDINATE_TYPE>
1
5
255

> <PUBCHEM_BONDANNOTATIONS>
15  1  5
9  1  6
18  20  6
13  2  5
11  4  5
10  5  6
12  6  5
16  7  5

$$$$

