11074502
  -OEChem-07051213093D

 39 40  0     1  0  0  0  0  0999 V2000
   -0.3628   -0.5046    0.2017 C   0  0  2  0  0  0  0  0  0  0  0  0
   -1.4732   -1.3301   -0.3988 C   0  0  2  0  0  0  0  0  0  0  0  0
   -1.2347    0.0886   -0.8653 C   0  0  1  0  0  0  0  0  0  0  0  0
   -2.7016   -1.6256    0.4151 C   0  0  0  0  0  0  0  0  0  0  0  0
    1.0707   -0.8018   -0.1158 C   0  0  0  0  0  0  0  0  0  0  0  0
   -0.5570   -0.0177    1.5950 C   0  0  0  0  0  0  0  0  0  0  0  0
   -2.2725    1.0659   -0.5202 C   0  0  0  0  0  0  0  0  0  0  0  0
   -3.8884   -0.7289    0.0330 C   0  0  0  0  0  0  0  0  0  0  0  0
   -3.5141    0.7272   -0.1259 C   0  0  0  0  0  0  0  0  0  0  0  0
    1.8634    0.4425   -0.5235 C   0  0  0  0  0  0  0  0  0  0  0  0
   -4.5798    1.7409    0.1552 C   0  0  0  0  0  0  0  0  0  0  0  0
    3.3018    0.1347   -0.8374 C   0  0  0  0  0  0  0  0  0  0  0  0
    4.3669    0.2226   -0.0182 C   0  0  0  0  0  0  0  0  0  0  0  0
    5.7838   -0.1020   -0.3987 C   0  0  0  0  0  0  0  0  0  0  0  0
    4.1975    0.6882    1.4037 C   0  0  0  0  0  0  0  0  0  0  0  0
   -1.2235   -2.1298   -1.0850 H   0  0  0  0  0  0  0  0  0  0  0  0
   -0.8316    0.2032   -1.8655 H   0  0  0  0  0  0  0  0  0  0  0  0
   -2.5195   -1.5758    1.4931 H   0  0  0  0  0  0  0  0  0  0  0  0
   -2.9931   -2.6683    0.2335 H   0  0  0  0  0  0  0  0  0  0  0  0
    1.1240   -1.5340   -0.9329 H   0  0  0  0  0  0  0  0  0  0  0  0
    1.5485   -1.2869    0.7455 H   0  0  0  0  0  0  0  0  0  0  0  0
   -1.5602    0.3292    1.8553 H   0  0  0  0  0  0  0  0  0  0  0  0
   -0.2998   -0.8101    2.3081 H   0  0  0  0  0  0  0  0  0  0  0  0
    0.1099    0.8268    1.8035 H   0  0  0  0  0  0  0  0  0  0  0  0
   -2.0099    2.1143   -0.6308 H   0  0  0  0  0  0  0  0  0  0  0  0
   -4.6610   -0.8392    0.8034 H   0  0  0  0  0  0  0  0  0  0  0  0
   -4.3282   -1.0747   -0.9109 H   0  0  0  0  0  0  0  0  0  0  0  0
    1.7815    1.2258    0.2366 H   0  0  0  0  0  0  0  0  0  0  0  0
    1.4213    0.8864   -1.4244 H   0  0  0  0  0  0  0  0  0  0  0  0
   -4.2285    2.7644   -0.0121 H   0  0  0  0  0  0  0  0  0  0  0  0
   -4.9092    1.6668    1.1965 H   0  0  0  0  0  0  0  0  0  0  0  0
   -5.4434    1.5732   -0.4964 H   0  0  0  0  0  0  0  0  0  0  0  0
    3.4774   -0.2158   -1.8537 H   0  0  0  0  0  0  0  0  0  0  0  0
    6.1694   -0.9173    0.2216 H   0  0  0  0  0  0  0  0  0  0  0  0
    6.4252    0.7749   -0.2649 H   0  0  0  0  0  0  0  0  0  0  0  0
    5.8577   -0.4142   -1.4456 H   0  0  0  0  0  0  0  0  0  0  0  0
    4.7372    0.0169    2.0814 H   0  0  0  0  0  0  0  0  0  0  0  0
    3.1630    0.7038    1.7536 H   0  0  0  0  0  0  0  0  0  0  0  0
    4.6136    1.6942    1.5204 H   0  0  0  0  0  0  0  0  0  0  0  0
  1  2  1  0  0  0  0
  1  3  1  0  0  0  0
  1  5  1  0  0  0  0
  1  6  1  0  0  0  0
  2  3  1  0  0  0  0
  2  4  1  0  0  0  0
  2 16  1  0  0  0  0
  3  7  1  0  0  0  0
  3 17  1  0  0  0  0
  4  8  1  0  0  0  0
  4 18  1  0  0  0  0
  4 19  1  0  0  0  0
  5 10  1  0  0  0  0
  5 20  1  0  0  0  0
  5 21  1  0  0  0  0
  6 22  1  0  0  0  0
  6 23  1  0  0  0  0
  6 24  1  0  0  0  0
  7  9  2  0  0  0  0
  7 25  1  0  0  0  0
  8  9  1  0  0  0  0
  8 26  1  0  0  0  0
  8 27  1  0  0  0  0
  9 11  1  0  0  0  0
 10 12  1  0  0  0  0
 10 28  1  0  0  0  0
 10 29  1  0  0  0  0
 11 30  1  0  0  0  0
 11 31  1  0  0  0  0
 11 32  1  0  0  0  0
 12 13  2  0  0  0  0
 12 33  1  0  0  0  0
 13 14  1  0  0  0  0
 13 15  1  0  0  0  0
 14 34  1  0  0  0  0
 14 35  1  0  0  0  0
 14 36  1  0  0  0  0
 15 37  1  0  0  0  0
 15 38  1  0  0  0  0
 15 39  1  0  0  0  0
M  END
> <PUBCHEM_COMPOUND_CID>
11074502

> <PUBCHEM_CONFORMER_RMSD>
0.6

> <PUBCHEM_CONFORMER_DIVERSEORDER>
1
18
8
7
15
9
19
17
4
12
2
14
10
13
16
3
5
11
6

> <PUBCHEM_MMFF94_PARTIAL_CHARGES>
19
1 -0.19
10 0.14
11 0.14
12 -0.29
13 -0.28
14 0.14
15 0.14
16 0.1
17 0.1
2 -0.19
25 0.15
3 -0.06
33 0.15
4 0.09
5 0.09
6 0.09
7 -0.19
8 0.14
9 -0.28

> <PUBCHEM_EFFECTIVE_ROTOR_COUNT>
3.6

> <PUBCHEM_PHARMACOPHORE_FEATURES>
2
3 13 14 15 hydrophobe
7 1 2 3 4 7 8 9 rings

> <PUBCHEM_HEAVY_ATOM_COUNT>
15

> <PUBCHEM_ATOM_DEF_STEREO_COUNT>
3

> <PUBCHEM_ATOM_UDEF_STEREO_COUNT>
0

> <PUBCHEM_BOND_DEF_STEREO_COUNT>
0

> <PUBCHEM_BOND_UDEF_STEREO_COUNT>
0

> <PUBCHEM_ISOTOPIC_ATOM_COUNT>
0

> <PUBCHEM_COMPONENT_COUNT>
1

> <PUBCHEM_CACTVS_TAUTO_COUNT>
1

> <PUBCHEM_CONFORMER_ID>
00A8FBC600000001

> <PUBCHEM_MMFF94_ENERGY>
30.0065

> <PUBCHEM_FEATURE_SELFOVERLAP>
10.148

> <PUBCHEM_SHAPE_FINGERPRINT>
10014705 185 17749678414989004533
10062212 137 17988644056066955495
10680689 15 18187082815009908639
10912923 1 17489308551568466488
11132069 177 18201435904587208109
12236239 1 17418094308296918398
12403259 415 18114180796685173576
13214271 11 18409167705890779647
13533116 47 17750233767831490966
13675066 3 18261110738612139110
13760787 5 16200430252169839710
14004511 7 18202566168101545980
14251718 22 9367340440655876806
14943859 89 18413671322333996081
15042514 8 18125434216570873227
15242439 84 18040432201013537204
15295992 7 17774708780026518904
15309172 13 15051734187675073971
15375358 24 17530683212486278438
17959699 21 17458346355406632576
18186145 218 17386000638072425278
187816 3 16950282927174022207
19489759 90 18407762529671837323
200 152 14923943466233168896
20279233 1 17675917690709630262
20645477 56 18410009961725354749
20645477 70 16878215467992069494
20871999 31 16226627216313496773
212916 134 18338530697876524386
23175994 123 17313377903183557729
23402539 116 18408046212224841317
23557571 272 18334847303716272319
23559900 14 18260545654376502406
26918003 58 17603584115132340062
293599 30 18335700611235221849
351380 180 17385446531614922016
3545911 37 18410570716728870302
5104073 3 18341895220595404914
542803 24 17846777399909523284
573450 72 18202291281541578450
633830 44 18341337699976231494

> <PUBCHEM_SHAPE_MULTIPOLES>
308.69
10.66
1.37
1.09
10.63
0.03
-0.35
-2.69
-0.06
-1.79
-0.05
0.55
-0.09
0.35

> <PUBCHEM_SHAPE_SELFOVERLAP>
623.064

> <PUBCHEM_SHAPE_VOLUME>
182.6

> <PUBCHEM_COORDINATE_TYPE>
2
5
10

$$$$

