14054
  -OEChem-06241222412D

 33 32  0     1  0  0  0  0  0999 V2000
    2.0000    0.4050    0.0000 Cl  0  0  0  0  0  0  0  0  0  0  0  0
    4.5981   -1.0950    0.0000 O   0  0  0  0  0  0  0  0  0  0  0  0
    9.7942   -0.0950    0.0000 O   0  0  0  0  0  0  0  0  0  0  0  0
    8.9282    1.4050    0.0000 O   0  0  0  0  0  0  0  0  0  0  0  0
    5.4641    0.4050    0.0000 C   0  0  0  0  0  0  0  0  0  0  0  0
    6.3301   -0.0950    0.0000 C   0  0  0  0  0  0  0  0  0  0  0  0
    4.5981   -0.0950    0.0000 C   0  0  3  0  0  0  0  0  0  0  0  0
    7.1962    0.4050    0.0000 C   0  0  0  0  0  0  0  0  0  0  0  0
    3.7320    0.4050    0.0000 C   0  0  0  0  0  0  0  0  0  0  0  0
    8.0622   -0.0950    0.0000 C   0  0  0  0  0  0  0  0  0  0  0  0
    2.8660   -0.0950    0.0000 C   0  0  0  0  0  0  0  0  0  0  0  0
    8.9282    0.4050    0.0000 C   0  0  0  0  0  0  0  0  0  0  0  0
   10.6603    0.4050    0.0000 C   0  0  0  0  0  0  0  0  0  0  0  0
   11.5263   -0.0950    0.0000 C   0  0  0  0  0  0  0  0  0  0  0  0
    5.8626    0.8799    0.0000 H   0  0  0  0  0  0  0  0  0  0  0  0
    5.0656    0.8799    0.0000 H   0  0  0  0  0  0  0  0  0  0  0  0
    5.9316   -0.5699    0.0000 H   0  0  0  0  0  0  0  0  0  0  0  0
    6.7287   -0.5699    0.0000 H   0  0  0  0  0  0  0  0  0  0  0  0
    5.3342   -0.5200    0.0000 H   0  0  0  0  0  0  0  0  0  0  0  0
    7.5947    0.8799    0.0000 H   0  0  0  0  0  0  0  0  0  0  0  0
    6.7976    0.8799    0.0000 H   0  0  0  0  0  0  0  0  0  0  0  0
    4.1306    0.8799    0.0000 H   0  0  0  0  0  0  0  0  0  0  0  0
    3.3335    0.8799    0.0000 H   0  0  0  0  0  0  0  0  0  0  0  0
    7.6636   -0.5699    0.0000 H   0  0  0  0  0  0  0  0  0  0  0  0
    8.4607   -0.5699    0.0000 H   0  0  0  0  0  0  0  0  0  0  0  0
    2.4675   -0.5699    0.0000 H   0  0  0  0  0  0  0  0  0  0  0  0
    3.2646   -0.5699    0.0000 H   0  0  0  0  0  0  0  0  0  0  0  0
    4.0611   -1.4050    0.0000 H   0  0  0  0  0  0  0  0  0  0  0  0
   11.0588    0.8799    0.0000 H   0  0  0  0  0  0  0  0  0  0  0  0
   10.2617    0.8799    0.0000 H   0  0  0  0  0  0  0  0  0  0  0  0
   11.2163   -0.6319    0.0000 H   0  0  0  0  0  0  0  0  0  0  0  0
   12.0632   -0.4050    0.0000 H   0  0  0  0  0  0  0  0  0  0  0  0
   11.8363    0.4419    0.0000 H   0  0  0  0  0  0  0  0  0  0  0  0
  1 11  1  0  0  0  0
  2  7  1  0  0  0  0
  2 28  1  0  0  0  0
  3 12  1  0  0  0  0
  3 13  1  0  0  0  0
  4 12  2  0  0  0  0
  5  6  1  0  0  0  0
  5  7  1  0  0  0  0
  5 15  1  0  0  0  0
  5 16  1  0  0  0  0
  6  8  1  0  0  0  0
  6 17  1  0  0  0  0
  6 18  1  0  0  0  0
  7  9  1  0  0  0  0
  7 19  1  0  0  0  0
  8 10  1  0  0  0  0
  8 20  1  0  0  0  0
  8 21  1  0  0  0  0
  9 11  1  0  0  0  0
  9 22  1  0  0  0  0
  9 23  1  0  0  0  0
 10 12  1  0  0  0  0
 10 24  1  0  0  0  0
 10 25  1  0  0  0  0
 11 26  1  0  0  0  0
 11 27  1  0  0  0  0
 13 14  1  0  0  0  0
 13 29  1  0  0  0  0
 13 30  1  0  0  0  0
 14 31  1  0  0  0  0
 14 32  1  0  0  0  0
 14 33  1  0  0  0  0
M  END
> <PUBCHEM_COMPOUND_CID>
14054

> <PUBCHEM_COMPOUND_CANONICALIZED>
1

> <PUBCHEM_CACTVS_COMPLEXITY>
150

> <PUBCHEM_CACTVS_HBOND_ACCEPTOR>
3

> <PUBCHEM_CACTVS_HBOND_DONOR>
1

> <PUBCHEM_CACTVS_ROTATABLE_BOND>
9

> <PUBCHEM_CACTVS_SUBSKEYS>
AAADceBwMAAEAAAAAAAAAAAAAAAAAAAAAAAAAAAAAAAAAAAAAAAAGgIACAAACBeggEICCAAABgAIAACQCAAAAAAAAAAAAAEAAgAAEBIBAAACQAAEAAAAAAGIyKCAAAAAAAAAAAAAAAAAAAAAAAAAAAAAAA==

> <PUBCHEM_IUPAC_OPENEYE_NAME>
ethyl 8-chloro-6-hydroxy-octanoate

> <PUBCHEM_IUPAC_CAS_NAME>
8-chloro-6-hydroxyoctanoic acid ethyl ester

> <PUBCHEM_IUPAC_NAME>
ethyl 8-chloro-6-hydroxyoctanoate

> <PUBCHEM_IUPAC_SYSTEMATIC_NAME>
ethyl 8-chloranyl-6-oxidanyl-octanoate

> <PUBCHEM_IUPAC_TRADITIONAL_NAME>
8-chloro-6-hydroxy-caprylic acid ethyl ester

> <PUBCHEM_IUPAC_INCHI>
InChI=1S/C10H19ClO3/c1-2-14-10(13)6-4-3-5-9(12)7-8-11/h9,12H,2-8H2,1H3

> <PUBCHEM_IUPAC_INCHIKEY>
YSFJHUHDLIFMPB-UHFFFAOYSA-N

> <PUBCHEM_XLOGP3_AA>
1.8

> <PUBCHEM_EXACT_MASS>
222.102272

> <PUBCHEM_MOLECULAR_FORMULA>
C10H19ClO3

> <PUBCHEM_MOLECULAR_WEIGHT>
222.70906

> <PUBCHEM_OPENEYE_CAN_SMILES>
CCOC(=O)CCCCC(CCCl)O

> <PUBCHEM_OPENEYE_ISO_SMILES>
CCOC(=O)CCCCC(CCCl)O

> <PUBCHEM_CACTVS_TPSA>
46.5

> <PUBCHEM_MONOISOTOPIC_WEIGHT>
222.102272

> <PUBCHEM_TOTAL_CHARGE>
0

> <PUBCHEM_HEAVY_ATOM_COUNT>
14

> <PUBCHEM_ATOM_DEF_STEREO_COUNT>
0

> <PUBCHEM_ATOM_UDEF_STEREO_COUNT>
1

> <PUBCHEM_BOND_DEF_STEREO_COUNT>
0

> <PUBCHEM_BOND_UDEF_STEREO_COUNT>
0

> <PUBCHEM_ISOTOPIC_ATOM_COUNT>
0

> <PUBCHEM_COMPONENT_COUNT>
1

> <PUBCHEM_CACTVS_TAUTO_COUNT>
1

> <PUBCHEM_COORDINATE_TYPE>
1
5
255

> <PUBCHEM_BONDANNOTATIONS>
7  19  3

$$$$

