14111
  -OEChem-06241222423D

 25 26  0     0  0  0  0  0  0999 V2000
    3.0188    2.6907    0.1030 S   0  0  0  0  0  0  0  0  0  0  0  0
    0.0004   -2.3793   -0.1046 N   0  0  0  0  0  0  0  0  0  0  0  0
   -4.1893    1.7103   -0.2892 N   0  0  0  0  0  0  0  0  0  0  0  0
   -1.2244   -0.5818    0.3380 C   0  0  0  0  0  0  0  0  0  0  0  0
    0.1280   -0.1698    0.1762 C   0  0  0  0  0  0  0  0  0  0  0  0
   -2.3780    0.2884    0.6442 C   0  0  0  0  0  0  0  0  0  0  0  0
    0.8755   -1.3165   -0.1007 C   0  0  0  0  0  0  0  0  0  0  0  0
   -1.2708   -1.9453    0.1594 C   0  0  0  0  0  0  0  0  0  0  0  0
   -3.0722    0.8314   -0.6182 C   0  0  0  0  0  0  0  0  0  0  0  0
    0.7900    1.0725    0.2391 C   0  0  0  0  0  0  0  0  0  0  0  0
    2.2575   -1.2828   -0.3187 C   0  0  0  0  0  0  0  0  0  0  0  0
    2.1720    1.1214    0.0230 C   0  0  0  0  0  0  0  0  0  0  0  0
    2.8924   -0.0394   -0.2514 C   0  0  0  0  0  0  0  0  0  0  0  0
   -3.1083   -0.2699    1.2451 H   0  0  0  0  0  0  0  0  0  0  0  0
   -2.0518    1.1273    1.2726 H   0  0  0  0  0  0  0  0  0  0  0  0
   -2.0929   -2.6466    0.1960 H   0  0  0  0  0  0  0  0  0  0  0  0
    0.2599   -3.3405   -0.2776 H   0  0  0  0  0  0  0  0  0  0  0  0
   -3.4432   -0.0011   -1.2269 H   0  0  0  0  0  0  0  0  0  0  0  0
   -2.3521    1.3840   -1.2332 H   0  0  0  0  0  0  0  0  0  0  0  0
    0.2218    1.9740    0.4528 H   0  0  0  0  0  0  0  0  0  0  0  0
    2.8190   -2.1861   -0.5323 H   0  0  0  0  0  0  0  0  0  0  0  0
    3.9670    0.0009   -0.4188 H   0  0  0  0  0  0  0  0  0  0  0  0
   -4.5816    2.0941   -1.1480 H   0  0  0  0  0  0  0  0  0  0  0  0
   -3.8512    2.5053    0.2514 H   0  0  0  0  0  0  0  0  0  0  0  0
    1.9394    3.4612    0.3034 H   0  0  0  0  0  0  0  0  0  0  0  0
  1 12  1  0  0  0  0
  1 25  1  0  0  0  0
  2  7  1  0  0  0  0
  2  8  1  0  0  0  0
  2 17  1  0  0  0  0
  3  9  1  0  0  0  0
  3 23  1  0  0  0  0
  3 24  1  0  0  0  0
  4  5  1  0  0  0  0
  4  6  1  0  0  0  0
  4  8  2  0  0  0  0
  5  7  2  0  0  0  0
  5 10  1  0  0  0  0
  6  9  1  0  0  0  0
  6 14  1  0  0  0  0
  6 15  1  0  0  0  0
  7 11  1  0  0  0  0
  8 16  1  0  0  0  0
  9 18  1  0  0  0  0
  9 19  1  0  0  0  0
 10 12  2  0  0  0  0
 10 20  1  0  0  0  0
 11 13  2  0  0  0  0
 11 21  1  0  0  0  0
 12 13  1  0  0  0  0
 13 22  1  0  0  0  0
M  END
> <PUBCHEM_COMPOUND_CID>
14111

> <PUBCHEM_CONFORMER_RMSD>
0.6

> <PUBCHEM_CONFORMER_DIVERSEORDER>
1
3
4
5
2

> <PUBCHEM_MMFF94_PARTIAL_CHARGES>
20
1 -0.28
10 -0.15
11 -0.15
12 0.1
13 -0.15
16 0.15
17 0.27
2 0.03
20 0.15
21 0.15
22 0.15
23 0.36
24 0.36
25 0.18
3 -0.99
4 -0.18
6 0.18
7 -0.15
8 -0.3
9 0.27

> <PUBCHEM_EFFECTIVE_ROTOR_COUNT>
2

> <PUBCHEM_PHARMACOPHORE_FEATURES>
6
1 2 cation
1 2 donor
1 3 cation
1 3 donor
5 2 4 5 7 8 rings
6 5 7 10 11 12 13 rings

> <PUBCHEM_HEAVY_ATOM_COUNT>
13

> <PUBCHEM_ATOM_DEF_STEREO_COUNT>
0

> <PUBCHEM_ATOM_UDEF_STEREO_COUNT>
0

> <PUBCHEM_BOND_DEF_STEREO_COUNT>
0

> <PUBCHEM_BOND_UDEF_STEREO_COUNT>
0

> <PUBCHEM_ISOTOPIC_ATOM_COUNT>
0

> <PUBCHEM_COMPONENT_COUNT>
1

> <PUBCHEM_CACTVS_TAUTO_COUNT>
8

> <PUBCHEM_CONFORMER_ID>
0000371F00000001

> <PUBCHEM_MMFF94_ENERGY>
14.4008

> <PUBCHEM_FEATURE_SELFOVERLAP>
30.538

> <PUBCHEM_SHAPE_FINGERPRINT>
1 1 18339926025340044783
10149128 76 18410294674891226101
10608611 8 18339359665034851777
11206711 2 17829325791869992982
11471102 20 18266742565881463661
12654215 9 18197497526639585516
13380535 76 18336270050446104658
13380536 305 18338516451253647350
13897977 150 18410573976630289717
13922767 16 18339083790901061104
14325111 11 18410855443227932465
14614273 12 17975970968991330578
14648413 74 18411413982360762682
14897335 6 18336551512453445960
14911166 2 18336537335030263246
15279308 100 18411974746065060604
16945 1 18335972177326527450
18186145 218 18260537948593282505
20606313 2 18266179620043557631
21501502 16 18338241440413921646
21524375 3 18342744022249957587
21639500 275 18339091504794239141
2334 1 18192707852357723322
23402655 69 18262525926247179245
23559900 14 18115571675206329548
25 1 18340205318599729199
2748010 2 18264756693194403118
3060560 45 18190747624978514023
528886 8 18409451418213297778
84936 182 18114470036472808073

> <PUBCHEM_SHAPE_MULTIPOLES>
261.42
5.49
2.62
0.71
2.3
0.16
-0.01
4.46
0.59
-0.47
0.12
0.13
0.06
0.5

> <PUBCHEM_SHAPE_SELFOVERLAP>
549.868

> <PUBCHEM_SHAPE_VOLUME>
151

> <PUBCHEM_COORDINATE_TYPE>
2
5
10

$$$$

