46173894
  -OEChem-07051213103D

 63 64  0     1  0  0  0  0  0999 V2000
   -1.3211   -3.1145    0.8613 S   0  0  0  0  0  0  0  0  0  0  0  0
   -4.1344    0.0773   -2.7757 O   0  0  0  0  0  0  0  0  0  0  0  0
   -2.2937    2.3965    0.7498 O   0  0  0  0  0  0  0  0  0  0  0  0
   -1.7619    0.5241    3.4747 O   0  0  0  0  0  0  0  0  0  0  0  0
   -0.0759   -0.6724    2.4967 O   0  0  0  0  0  0  0  0  0  0  0  0
    3.7177    3.4247    0.2975 O   0  0  0  0  0  0  0  0  0  0  0  0
    1.3154    1.0915   -2.3270 O   0  0  0  0  0  0  0  0  0  0  0  0
    4.1764    1.0482    1.5020 O   0  0  0  0  0  0  0  0  0  0  0  0
    2.5274   -2.0658   -1.8550 O   0  0  0  0  0  0  0  0  0  0  0  0
   -3.2277    0.2807    1.2215 N   0  0  0  0  0  0  0  0  0  0  0  0
    1.6404   -3.4975   -0.2556 N   0  0  0  0  0  0  0  0  0  0  0  0
    4.0506    0.0139   -0.5711 N   0  0  0  0  0  0  0  0  0  0  0  0
   -4.1541   -0.3085    0.2297 C   0  0  1  0  0  0  0  0  0  0  0  0
   -3.9969    1.0165   -0.5648 C   0  0  1  0  0  0  0  0  0  0  0  0
   -3.4922   -1.6323   -0.1689 C   0  0  0  0  0  0  0  0  0  0  0  0
   -3.0319    1.4564    0.5586 C   0  0  0  0  0  0  0  0  0  0  0  0
   -3.3691    0.9409   -1.9358 C   0  0  2  0  0  0  0  0  0  0  0  0
   -2.2513   -0.6201    1.5396 C   0  0  0  0  0  0  0  0  0  0  0  0
   -2.3497   -1.7381    0.8097 C   0  0  0  0  0  0  0  0  0  0  0  0
   -3.3047    2.3183   -2.5889 C   0  0  0  0  0  0  0  0  0  0  0  0
   -1.2323   -0.2816    2.5278 C   0  0  0  0  0  0  0  0  0  0  0  0
   -0.7297   -3.1177   -0.8586 C   0  0  0  0  0  0  0  0  0  0  0  0
    1.6267    2.2710   -0.2006 C   0  0  0  0  0  0  0  0  0  0  0  0
    0.5200   -3.9691   -1.0360 C   0  0  0  0  0  0  0  0  0  0  0  0
    3.1786    2.2664   -0.3342 C   0  0  2  0  0  0  0  0  0  0  0  0
    0.9985    1.0638   -0.9394 C   0  0  0  0  0  0  0  0  0  0  0  0
    1.1991    2.2550    1.2805 C   0  0  0  0  0  0  0  0  0  0  0  0
    1.0823    3.5771   -0.8271 C   0  0  0  0  0  0  0  0  0  0  0  0
    3.8610    1.0634    0.3136 C   0  0  0  0  0  0  0  0  0  0  0  0
    2.5583   -2.5756   -0.7383 C   0  0  0  0  0  0  0  0  0  0  0  0
    3.6213   -2.2507    0.2994 C   0  0  0  0  0  0  0  0  0  0  0  0
    4.6529   -1.2414   -0.1853 C   0  0  0  0  0  0  0  0  0  0  0  0
   -5.1555   -0.4461    0.6582 H   0  0  0  0  0  0  0  0  0  0  0  0
   -4.9251    1.6044   -0.5598 H   0  0  0  0  0  0  0  0  0  0  0  0
   -3.1398   -1.6403   -1.2019 H   0  0  0  0  0  0  0  0  0  0  0  0
   -4.1941   -2.4627   -0.0329 H   0  0  0  0  0  0  0  0  0  0  0  0
   -2.3567    0.5239   -1.8813 H   0  0  0  0  0  0  0  0  0  0  0  0
   -2.7132    3.0183   -1.9914 H   0  0  0  0  0  0  0  0  0  0  0  0
   -2.8603    2.2501   -3.5876 H   0  0  0  0  0  0  0  0  0  0  0  0
   -4.3089    2.7376   -2.7166 H   0  0  0  0  0  0  0  0  0  0  0  0
   -3.6879    0.0356   -3.6385 H   0  0  0  0  0  0  0  0  0  0  0  0
   -0.5126   -2.0878   -1.1655 H   0  0  0  0  0  0  0  0  0  0  0  0
   -1.5265   -3.5026   -1.5034 H   0  0  0  0  0  0  0  0  0  0  0  0
    0.8065   -3.9750   -2.0938 H   0  0  0  0  0  0  0  0  0  0  0  0
    0.3306   -5.0075   -0.7418 H   0  0  0  0  0  0  0  0  0  0  0  0
   -1.1018    0.7740    4.1561 H   0  0  0  0  0  0  0  0  0  0  0  0
    3.4645    2.3212   -1.3918 H   0  0  0  0  0  0  0  0  0  0  0  0
   -0.0931    1.0920   -0.8491 H   0  0  0  0  0  0  0  0  0  0  0  0
    1.3332    0.1140   -0.5143 H   0  0  0  0  0  0  0  0  0  0  0  0
    1.4167    4.4614   -0.2734 H   0  0  0  0  0  0  0  0  0  0  0  0
   -0.0137    3.5865   -0.8248 H   0  0  0  0  0  0  0  0  0  0  0  0
    1.5227    1.3368    1.7790 H   0  0  0  0  0  0  0  0  0  0  0  0
    0.1131    2.3141    1.3806 H   0  0  0  0  0  0  0  0  0  0  0  0
    1.6226    3.1012    1.8325 H   0  0  0  0  0  0  0  0  0  0  0  0
    1.4132    3.6920   -1.8652 H   0  0  0  0  0  0  0  0  0  0  0  0
    1.7429   -3.8539    0.6902 H   0  0  0  0  0  0  0  0  0  0  0  0
    5.3930   -1.0588    0.6011 H   0  0  0  0  0  0  0  0  0  0  0  0
    5.1794   -1.6251   -1.0658 H   0  0  0  0  0  0  0  0  0  0  0  0
    4.1269   -3.1826    0.5777 H   0  0  0  0  0  0  0  0  0  0  0  0
    3.1122   -1.8642    1.1911 H   0  0  0  0  0  0  0  0  0  0  0  0
    3.7446    0.1133   -1.5346 H   0  0  0  0  0  0  0  0  0  0  0  0
    4.6628    3.4683    0.0719 H   0  0  0  0  0  0  0  0  0  0  0  0
    0.8916    0.3150   -2.7307 H   0  0  0  0  0  0  0  0  0  0  0  0
  1 19  1  0  0  0  0
  1 22  1  0  0  0  0
  2 17  1  0  0  0  0
  2 41  1  0  0  0  0
  3 16  2  0  0  0  0
  4 21  1  0  0  0  0
  4 46  1  0  0  0  0
  5 21  2  0  0  0  0
  6 25  1  0  0  0  0
  6 62  1  0  0  0  0
  7 26  1  0  0  0  0
  7 63  1  0  0  0  0
  8 29  2  0  0  0  0
  9 30  2  0  0  0  0
 10 13  1  0  0  0  0
 10 16  1  0  0  0  0
 10 18  1  0  0  0  0
 11 24  1  0  0  0  0
 11 30  1  0  0  0  0
 11 56  1  0  0  0  0
 12 29  1  0  0  0  0
 12 32  1  0  0  0  0
 12 61  1  0  0  0  0
 13 14  1  0  0  0  0
 13 15  1  0  0  0  0
 13 33  1  0  0  0  0
 14 16  1  0  0  0  0
 14 17  1  0  0  0  0
 14 34  1  0  0  0  0
 15 19  1  0  0  0  0
 15 35  1  0  0  0  0
 15 36  1  0  0  0  0
 17 20  1  0  0  0  0
 17 37  1  0  0  0  0
 18 19  2  0  0  0  0
 18 21  1  0  0  0  0
 20 38  1  0  0  0  0
 20 39  1  0  0  0  0
 20 40  1  0  0  0  0
 22 24  1  0  0  0  0
 22 42  1  0  0  0  0
 22 43  1  0  0  0  0
 23 25  1  0  0  0  0
 23 26  1  0  0  0  0
 23 27  1  0  0  0  0
 23 28  1  0  0  0  0
 24 44  1  0  0  0  0
 24 45  1  0  0  0  0
 25 29  1  0  0  0  0
 25 47  1  0  0  0  0
 26 48  1  0  0  0  0
 26 49  1  0  0  0  0
 27 52  1  0  0  0  0
 27 53  1  0  0  0  0
 27 54  1  0  0  0  0
 28 50  1  0  0  0  0
 28 51  1  0  0  0  0
 28 55  1  0  0  0  0
 30 31  1  0  0  0  0
 31 32  1  0  0  0  0
 31 59  1  0  0  0  0
 31 60  1  0  0  0  0
 32 57  1  0  0  0  0
 32 58  1  0  0  0  0
M  END
> <PUBCHEM_COMPOUND_CID>
46173894

> <PUBCHEM_CONFORMER_RMSD>
1.4

> <PUBCHEM_CONFORMER_DIVERSEORDER>
1
189
82
218
125
110
7
74
50
174
75
47
213
142
195
130
44
32
76
109
193
196
102
186
190
99
116
64
55
88
100
185
197
105
123
184
107
3
71
40
175
200
170
87
115
21
30
24
56
103
121
129
52
188
53
91
22
46
161
93
158
209
172
136
106
191
43
204
176
79
160
167
219
20
124
198
166
114
81
140
152
217
94
138
180
60
65
132
38
182
179
14
146
62
68
208
155
27
95
127
57
18
42
83
23
154
117
37
49
15
173
16
92
70
35
150
171
145
28
194
144
72
112
66
78
118
96
126
131
148
97
199
143
63
168
169
162
104
90
187
10
133
26
163
156
61
6
31
29
201
139
207
12
108
58
67
177
101
84
98
8
5
17
120
122
128
45
119
203
34
69
211
4
212
157
51
147
216
33
77
149
178
135
2
141
9
215
206
137
220
89
85
202
159
59
111
181
192
11
19
153
151
73
48
36
210
205
113
39
86
80
183
41
165
134
54
164
13
25
214

> <PUBCHEM_MMFF94_PARTIAL_CHARGES>
34
1 -0.33
10 -0.39
11 -0.73
12 -0.73
13 0.22
14 0.05
15 0.14
16 0.58
17 0.28
18 0.12
19 -0.04
2 -0.68
21 0.71
22 0.23
24 0.3
25 0.34
26 0.28
29 0.57
3 -0.57
30 0.57
31 0.06
32 0.3
4 -0.65
41 0.4
46 0.5
5 -0.57
56 0.37
6 -0.68
61 0.37
62 0.4
63 0.4
7 -0.68
8 -0.57
9 -0.57

> <PUBCHEM_EFFECTIVE_ROTOR_COUNT>
14.4

> <PUBCHEM_PHARMACOPHORE_FEATURES>
16
1 11 donor
1 12 donor
1 2 acceptor
1 2 donor
1 3 acceptor
1 4 acceptor
1 5 acceptor
1 6 acceptor
1 6 donor
1 7 acceptor
1 7 donor
1 8 acceptor
1 9 acceptor
3 23 27 28 hydrophobe
3 4 5 21 anion
7 10 13 14 15 16 18 19 rings

> <PUBCHEM_HEAVY_ATOM_COUNT>
32

> <PUBCHEM_ATOM_DEF_STEREO_COUNT>
4

> <PUBCHEM_ATOM_UDEF_STEREO_COUNT>
0

> <PUBCHEM_BOND_DEF_STEREO_COUNT>
0

> <PUBCHEM_BOND_UDEF_STEREO_COUNT>
0

> <PUBCHEM_ISOTOPIC_ATOM_COUNT>
0

> <PUBCHEM_COMPONENT_COUNT>
1

> <PUBCHEM_CACTVS_TAUTO_COUNT>
8

> <PUBCHEM_CONFORMER_ID>
02C08EC600000001

> <PUBCHEM_MMFF94_ENERGY>
78.5725

> <PUBCHEM_FEATURE_SELFOVERLAP>
81.251

> <PUBCHEM_SHAPE_FINGERPRINT>
10708813 3 18334286544586834658
11370993 70 18262798462953763650
11725454 13 17774722081809298899
12100795 323 18270404858619542460
12156800 1 16832948758469553250
12422481 6 18127667380684362155
12655364 131 17969807236763002112
13122387 1 18264477546058435298
13402501 40 18271806894816568126
14251757 17 18200599231830400045
17349148 13 17385998451633482316
17921350 177 18059313010174604436
19930381 70 18410005576764263955
20511986 3 17240766237048215881
20764821 26 18411408540452562964
21857420 4 15320322106582916925
22749437 52 18188759557679300490
35225 105 17393311118791436862
463206 1 18040720229688575763
469060 322 17262138243263232243
508706 21 18131634491229828375

> <PUBCHEM_SHAPE_MULTIPOLES>
600.5
8.57
4.82
2.5
2.14
1.6
-0.53
-1.94
1.56
2.78
1.44
-2.19
-0.51
1.7

> <PUBCHEM_SHAPE_SELFOVERLAP>
1219.741

> <PUBCHEM_SHAPE_VOLUME>
352.8

> <PUBCHEM_COORDINATE_TYPE>
2
5
10

$$$$

