5857
  -OEChem-07051213033D

 49 52  0     1  0  0  0  0  0999 V2000
   -4.3951    0.6611   -0.7757 O   0  0  0  0  0  0  0  0  0  0  0  0
   -1.1718   -0.7871    0.1757 C   0  0  2  0  0  0  0  0  0  0  0  0
   -1.9657    0.2742   -0.6188 C   0  0  2  0  0  0  0  0  0  0  0  0
    0.2558   -0.9741   -0.3452 C   0  0  1  0  0  0  0  0  0  0  0  0
    1.0180    0.3914   -0.2409 C   0  0  2  0  0  0  0  0  0  0  0  0
   -1.2393    1.6237   -0.4731 C   0  0  0  0  0  0  0  0  0  0  0  0
   -3.3647    0.1447    0.0563 C   0  0  2  0  0  0  0  0  0  0  0  0
   -2.1076   -1.9931    0.1950 C   0  0  0  0  0  0  0  0  0  0  0  0
    0.2331    1.5400   -0.9177 C   0  0  0  0  0  0  0  0  0  0  0  0
    2.4609    0.2168   -0.7960 C   0  0  2  0  0  0  0  0  0  0  0  0
   -3.5264   -1.3885    0.2301 C   0  0  0  0  0  0  0  0  0  0  0  0
    1.0039   -2.0870    0.4135 C   0  0  0  0  0  0  0  0  0  0  0  0
   -2.0936   -0.0491   -2.1370 C   0  0  0  0  0  0  0  0  0  0  0  0
    3.1325   -0.8803    0.0151 C   0  0  0  0  0  0  0  0  0  0  0  0
    2.4532   -2.2197   -0.0581 C   0  0  0  0  0  0  0  0  0  0  0  0
    3.3188    1.4973   -0.8395 C   0  0  0  0  0  0  0  0  0  0  0  0
    3.9306    1.8292    0.5163 C   0  0  0  0  0  0  0  0  0  0  0  0
   -3.4498    0.8157    1.3686 C   0  0  0  0  0  0  0  0  0  0  0  0
    4.2026   -0.6631    0.7986 C   0  0  0  0  0  0  0  0  0  0  0  0
    4.8241    0.6863    0.9974 C   0  0  0  0  0  0  0  0  0  0  0  0
   -3.5194    1.3616    2.4354 C   0  0  0  0  0  0  0  0  0  0  0  0
   -1.0768   -0.4528    1.2210 H   0  0  0  0  0  0  0  0  0  0  0  0
    0.2236   -1.2790   -1.3986 H   0  0  0  0  0  0  0  0  0  0  0  0
    1.0898    0.6501    0.8267 H   0  0  0  0  0  0  0  0  0  0  0  0
   -1.2430    1.9588    0.5705 H   0  0  0  0  0  0  0  0  0  0  0  0
   -1.7534    2.4025   -1.0492 H   0  0  0  0  0  0  0  0  0  0  0  0
   -1.9283   -2.6314    1.0665 H   0  0  0  0  0  0  0  0  0  0  0  0
   -1.9824   -2.6135   -0.6996 H   0  0  0  0  0  0  0  0  0  0  0  0
    0.2923    1.4395   -2.0073 H   0  0  0  0  0  0  0  0  0  0  0  0
    0.6974    2.5017   -0.6719 H   0  0  0  0  0  0  0  0  0  0  0  0
    2.3788   -0.1295   -1.8363 H   0  0  0  0  0  0  0  0  0  0  0  0
   -4.1323   -1.8204   -0.5759 H   0  0  0  0  0  0  0  0  0  0  0  0
   -4.0291   -1.6489    1.1694 H   0  0  0  0  0  0  0  0  0  0  0  0
    0.4973   -3.0483    0.2696 H   0  0  0  0  0  0  0  0  0  0  0  0
    0.9872   -1.8768    1.4910 H   0  0  0  0  0  0  0  0  0  0  0  0
   -1.1264   -0.1395   -2.6374 H   0  0  0  0  0  0  0  0  0  0  0  0
   -2.6314   -0.9840   -2.3231 H   0  0  0  0  0  0  0  0  0  0  0  0
   -2.6406    0.7465   -2.6564 H   0  0  0  0  0  0  0  0  0  0  0  0
    2.4811   -2.5845   -1.0920 H   0  0  0  0  0  0  0  0  0  0  0  0
    2.9665   -2.9685    0.5563 H   0  0  0  0  0  0  0  0  0  0  0  0
    2.7564    2.3537   -1.2207 H   0  0  0  0  0  0  0  0  0  0  0  0
    4.1371    1.3434   -1.5570 H   0  0  0  0  0  0  0  0  0  0  0  0
    3.1348    2.0162    1.2477 H   0  0  0  0  0  0  0  0  0  0  0  0
    4.5208    2.7501    0.4473 H   0  0  0  0  0  0  0  0  0  0  0  0
   -4.2010    1.5987   -0.9469 H   0  0  0  0  0  0  0  0  0  0  0  0
    4.6393   -1.4861    1.3581 H   0  0  0  0  0  0  0  0  0  0  0  0
    5.0451    0.8320    2.0609 H   0  0  0  0  0  0  0  0  0  0  0  0
    5.7819    0.7100    0.4640 H   0  0  0  0  0  0  0  0  0  0  0  0
   -3.5803    1.8459    3.3819 H   0  0  0  0  0  0  0  0  0  0  0  0
  1  7  1  0  0  0  0
  1 45  1  0  0  0  0
  2  3  1  0  0  0  0
  2  4  1  0  0  0  0
  2  8  1  0  0  0  0
  2 22  1  0  0  0  0
  3  6  1  0  0  0  0
  3  7  1  0  0  0  0
  3 13  1  0  0  0  0
  4  5  1  0  0  0  0
  4 12  1  0  0  0  0
  4 23  1  0  0  0  0
  5  9  1  0  0  0  0
  5 10  1  0  0  0  0
  5 24  1  0  0  0  0
  6  9  1  0  0  0  0
  6 25  1  0  0  0  0
  6 26  1  0  0  0  0
  7 11  1  0  0  0  0
  7 18  1  0  0  0  0
  8 11  1  0  0  0  0
  8 27  1  0  0  0  0
  8 28  1  0  0  0  0
  9 29  1  0  0  0  0
  9 30  1  0  0  0  0
 10 14  1  0  0  0  0
 10 16  1  0  0  0  0
 10 31  1  0  0  0  0
 11 32  1  0  0  0  0
 11 33  1  0  0  0  0
 12 15  1  0  0  0  0
 12 34  1  0  0  0  0
 12 35  1  0  0  0  0
 13 36  1  0  0  0  0
 13 37  1  0  0  0  0
 13 38  1  0  0  0  0
 14 15  1  0  0  0  0
 14 19  2  0  0  0  0
 15 39  1  0  0  0  0
 15 40  1  0  0  0  0
 16 17  1  0  0  0  0
 16 41  1  0  0  0  0
 16 42  1  0  0  0  0
 17 20  1  0  0  0  0
 17 43  1  0  0  0  0
 17 44  1  0  0  0  0
 18 21  3  0  0  0  0
 19 20  1  0  0  0  0
 19 46  1  0  0  0  0
 20 47  1  0  0  0  0
 20 48  1  0  0  0  0
 21 49  1  0  0  0  0
M  END
> <PUBCHEM_COMPOUND_CID>
5857

> <PUBCHEM_CONFORMER_RMSD>
0.6

> <PUBCHEM_CONFORMER_DIVERSEORDER>
1

> <PUBCHEM_MMFF94_PARTIAL_CHARGES>
12
1 -0.68
10 0.14
14 -0.28
15 0.14
18 -0.2
19 -0.29
20 0.14
21 -0.18
45 0.4
46 0.15
49 0.18
7 0.48

> <PUBCHEM_EFFECTIVE_ROTOR_COUNT>
2

> <PUBCHEM_PHARMACOPHORE_FEATURES>
7
1 1 acceptor
1 1 donor
1 21 hydrophobe
5 2 3 7 8 11 rings
6 10 14 16 17 19 20 rings
6 2 3 4 5 6 9 rings
6 4 5 10 12 14 15 rings

> <PUBCHEM_HEAVY_ATOM_COUNT>
21

> <PUBCHEM_ATOM_DEF_STEREO_COUNT>
6

> <PUBCHEM_ATOM_UDEF_STEREO_COUNT>
0

> <PUBCHEM_BOND_DEF_STEREO_COUNT>
0

> <PUBCHEM_BOND_UDEF_STEREO_COUNT>
0

> <PUBCHEM_ISOTOPIC_ATOM_COUNT>
0

> <PUBCHEM_COMPONENT_COUNT>
1

> <PUBCHEM_CACTVS_TAUTO_COUNT>
1

> <PUBCHEM_CONFORMER_ID>
000016E100000001

> <PUBCHEM_MMFF94_ENERGY>
58.0822

> <PUBCHEM_FEATURE_SELFOVERLAP>
35.628

> <PUBCHEM_SHAPE_FINGERPRINT>
10646746 165 17458056101553393144
10967382 1 18342740732273458014
11132069 177 18272933816814740142
11552529 35 18116155471718026506
11640471 11 17749660891580368587
11796584 16 14836406960252574120
12173636 292 17967530181734643727
12236239 1 18040441018555002767
12390115 104 18121486970027234044
12403814 3 17418379077819474615
12553582 1 18200579367522429244
12633257 1 18411420652518872162
12644460 14 17560225935069430100
12670546 56 17968095364854612193
12892183 10 18261376872007782371
13140716 1 18270959033870264656
13224815 77 18412262818111466278
13675066 3 17561363989110883592
14178342 30 18339071605862785458
14223421 5 18341053020632177590
14289901 80 17775286045263699492
14739800 52 17241061975943327610
14787075 74 17754739321135678697
14790565 3 17983566417440613108
15163728 17 15575818690499443105
15196674 1 18343023259416935782
15209294 21 18187640323250237633
15309172 13 18342168990595938635
15375358 24 18131359626070252677
15536298 74 18409446999034887078
15788980 27 17203614778453526532
16945 1 18342735268784848798
17349148 13 18270697393221403422
1813 80 16988836172725492495
18186145 218 18410849975940325670
19862831 5 8574719009261369774
200 152 18262531294935193911
20739085 24 18201140118880044660
21069387 34 10735865158461752121
21267235 1 18343576335066840454
22182313 1 17916029142640477870
22854114 59 18412546496321984202
23402539 116 18341908363179395478
23559900 14 18341337768743427606
2748010 2 17913490417605122519
296302 2 18261115145074459494
3472631 163 17023457681288224753
34934 24 18341342144850800815
350125 39 18343022194998379948
474 4 18335704910302033696
5104073 3 18413669106125870274
633830 44 18186796959757179084
7364860 26 18336549429916930254
9709674 26 18342175574675620110

> <PUBCHEM_SHAPE_MULTIPOLES>
426.3
8.76
2.16
1.48
2.87
0.54
-0.24
-2.03
-2.78
0.61
-0.25
-1.3
-0.62
-0.58

> <PUBCHEM_SHAPE_SELFOVERLAP>
911.528

> <PUBCHEM_SHAPE_VOLUME>
233.4

> <PUBCHEM_COORDINATE_TYPE>
2
5
10

$$$$

