17396003
  -OEChem-06241222533D

 45 48  0     1  0  0  0  0  0999 V2000
   -2.2577   -0.3311    0.8419 O   0  0  0  0  0  0  0  0  0  0  0  0
    3.9427    0.1335   -0.8800 O   0  0  0  0  0  0  0  0  0  0  0  0
   -7.9008    0.3350   -0.5843 O   0  0  0  0  0  0  0  0  0  0  0  0
   -0.4098   -2.2429    0.3759 O   0  0  0  0  0  0  0  0  0  0  0  0
    1.2295   -0.6823   -0.1604 N   0  0  0  0  0  0  0  0  0  0  0  0
   -4.9594   -1.5348    0.3566 C   0  0  0  0  0  0  0  0  0  0  0  0
   -4.5645   -0.0963    0.2621 C   0  0  0  0  0  0  0  0  0  0  0  0
   -6.4570   -1.5379    0.0033 C   0  0  0  0  0  0  0  0  0  0  0  0
   -5.6212    0.7310   -0.0971 C   0  0  0  0  0  0  0  0  0  0  0  0
   -6.8060   -0.0944   -0.2692 C   0  0  0  0  0  0  0  0  0  0  0  0
   -3.3114    0.4495    0.4884 C   0  0  0  0  0  0  0  0  0  0  0  0
    2.3012   -1.6134   -0.4293 C   0  0  2  0  0  0  0  0  0  0  0  0
   -5.4911    2.0994   -0.2454 C   0  0  0  0  0  0  0  0  0  0  0  0
    3.6285   -0.9537   -0.1283 C   0  0  0  0  0  0  0  0  0  0  0  0
   -3.1476    1.8317    0.3464 C   0  0  0  0  0  0  0  0  0  0  0  0
   -4.2301    2.6503   -0.0179 C   0  0  0  0  0  0  0  0  0  0  0  0
    5.6304   -0.2406    0.5744 C   0  0  0  0  0  0  0  0  0  0  0  0
    4.6278   -1.2253    0.7775 C   0  0  0  0  0  0  0  0  0  0  0  0
    2.2037   -2.0862   -1.8757 C   0  0  0  0  0  0  0  0  0  0  0  0
    5.1615    0.5700   -0.4543 C   0  0  0  0  0  0  0  0  0  0  0  0
   -0.9591    0.1034    0.4365 C   0  0  0  0  0  0  0  0  0  0  0  0
   -0.0418   -1.0816    0.2215 C   0  0  0  0  0  0  0  0  0  0  0  0
    6.8806    0.0548    1.1454 C   0  0  0  0  0  0  0  0  0  0  0  0
    5.8545    1.6671   -0.9626 C   0  0  0  0  0  0  0  0  0  0  0  0
    7.6016    1.1521    0.6548 C   0  0  0  0  0  0  0  0  0  0  0  0
    7.0954    1.9425   -0.3803 C   0  0  0  0  0  0  0  0  0  0  0  0
   -4.3927   -2.1453   -0.3541 H   0  0  0  0  0  0  0  0  0  0  0  0
   -4.7997   -1.9208    1.3686 H   0  0  0  0  0  0  0  0  0  0  0  0
   -6.6476   -2.1404   -0.8898 H   0  0  0  0  0  0  0  0  0  0  0  0
   -7.0558   -1.9124    0.8388 H   0  0  0  0  0  0  0  0  0  0  0  0
    2.1799   -2.4799    0.2322 H   0  0  0  0  0  0  0  0  0  0  0  0
   -6.3292    2.7272   -0.5249 H   0  0  0  0  0  0  0  0  0  0  0  0
   -2.1962    2.3208    0.5375 H   0  0  0  0  0  0  0  0  0  0  0  0
    1.4097    0.3092   -0.2950 H   0  0  0  0  0  0  0  0  0  0  0  0
   -4.0833    3.7225   -0.1167 H   0  0  0  0  0  0  0  0  0  0  0  0
    4.6354   -2.0326    1.4963 H   0  0  0  0  0  0  0  0  0  0  0  0
    3.0140   -2.7840   -2.1139 H   0  0  0  0  0  0  0  0  0  0  0  0
    1.2526   -2.5974   -2.0602 H   0  0  0  0  0  0  0  0  0  0  0  0
    2.2677   -1.2485   -2.5802 H   0  0  0  0  0  0  0  0  0  0  0  0
   -0.9929    0.6446   -0.5184 H   0  0  0  0  0  0  0  0  0  0  0  0
   -0.5323    0.7408    1.2190 H   0  0  0  0  0  0  0  0  0  0  0  0
    7.2867   -0.5502    1.9505 H   0  0  0  0  0  0  0  0  0  0  0  0
    5.4555    2.2751   -1.7657 H   0  0  0  0  0  0  0  0  0  0  0  0
    8.5697    1.3912    1.0876 H   0  0  0  0  0  0  0  0  0  0  0  0
    7.6769    2.7876   -0.7403 H   0  0  0  0  0  0  0  0  0  0  0  0
  1 11  1  0  0  0  0
  1 21  1  0  0  0  0
  2 14  1  0  0  0  0
  2 20  1  0  0  0  0
  3 10  2  0  0  0  0
  4 22  2  0  0  0  0
  5 12  1  0  0  0  0
  5 22  1  0  0  0  0
  5 34  1  0  0  0  0
  6  7  1  0  0  0  0
  6  8  1  0  0  0  0
  6 27  1  0  0  0  0
  6 28  1  0  0  0  0
  7  9  2  0  0  0  0
  7 11  1  0  0  0  0
  8 10  1  0  0  0  0
  8 29  1  0  0  0  0
  8 30  1  0  0  0  0
  9 10  1  0  0  0  0
  9 13  1  0  0  0  0
 11 15  2  0  0  0  0
 12 14  1  0  0  0  0
 12 19  1  0  0  0  0
 12 31  1  0  0  0  0
 13 16  2  0  0  0  0
 13 32  1  0  0  0  0
 14 18  2  0  0  0  0
 15 16  1  0  0  0  0
 15 33  1  0  0  0  0
 16 35  1  0  0  0  0
 17 18  1  0  0  0  0
 17 20  1  0  0  0  0
 17 23  2  0  0  0  0
 18 36  1  0  0  0  0
 19 37  1  0  0  0  0
 19 38  1  0  0  0  0
 19 39  1  0  0  0  0
 20 24  2  0  0  0  0
 21 22  1  0  0  0  0
 21 40  1  0  0  0  0
 21 41  1  0  0  0  0
 23 25  1  0  0  0  0
 23 42  1  0  0  0  0
 24 26  1  0  0  0  0
 24 43  1  0  0  0  0
 25 26  2  0  0  0  0
 25 44  1  0  0  0  0
 26 45  1  0  0  0  0
M  END
> <PUBCHEM_COMPOUND_CID>
17396003

> <PUBCHEM_CONFORMER_RMSD>
1

> <PUBCHEM_CONFORMER_DIVERSEORDER>
1
31
269
45
70
116
298
174
29
224
59
270
280
167
18
112
115
230
255
10
245
206
49
124
103
184
147
39
265
30
79
109
161
85
215
227
288
60
137
207
23
258
240
3
11
33
229
150
211
276
71
241
38
158
16
102
198
155
132
17
130
4
14
149
266
108
141
134
117
20
35
2
235
68
74
92
202
62
289
5
15
89
188
143
183
146
46
129
250
244
285
233
157
283
152
294
133
142
48
190
21
249
34
107
195
238
44
8
7
83
128
166
162
13
297
75
28
189
144
26
99
111
119
170
231
253
54
185
197
52
272
57
25
208
179
24
191
220
212
214
279
148
177
27
131
209
292
95
91
257
275
58
217
287
182
40
251
187
237
164
12
226
138
50
127
64
168
156
145
63
41
284
73
97
268
213
19
180
247
232
121
151
72
291
126
98
169
216
51
243
299
153
165
221
118
53
96
246
42
218
9
277
154
101
234
61
136
192
120
65
295
114
104
69
225
256
6
199
160
172
273
261
93
200
176
22
175
236
282
223
205
78
201
194
94
178
163
87
106
37
139
267
43
264
76
80
186
36
239
105
67
271
100
135
123
300
140
252
81
86
110
196
47
173
193
228
248
293
90
263
55
88
281
219
77
274
278
286
260
203
210
32
254
204
56
259
290
82
113
222
262
159
171
181
84
66
296
122
242
125

> <PUBCHEM_MMFF94_PARTIAL_CHARGES>
33
1 -0.36
10 0.42
11 0.08
12 0.48
13 -0.15
14 -0.04
15 -0.15
16 -0.15
18 -0.15
2 -0.28
20 0.14
21 0.34
22 0.57
23 -0.15
24 -0.15
25 -0.15
26 -0.15
3 -0.57
32 0.15
33 0.15
34 0.37
35 0.15
36 0.15
4 -0.57
42 0.15
43 0.15
44 0.15
45 0.15
5 -0.73
6 0.14
7 -0.14
8 0.06
9 0.09

> <PUBCHEM_EFFECTIVE_ROTOR_COUNT>
6.4

> <PUBCHEM_PHARMACOPHORE_FEATURES>
9
1 1 acceptor
1 2 acceptor
1 3 acceptor
1 4 acceptor
1 5 donor
5 2 14 17 18 20 rings
5 6 7 8 9 10 rings
6 17 20 23 24 25 26 rings
6 7 9 11 13 15 16 rings

> <PUBCHEM_HEAVY_ATOM_COUNT>
26

> <PUBCHEM_ATOM_DEF_STEREO_COUNT>
0

> <PUBCHEM_ATOM_UDEF_STEREO_COUNT>
1

> <PUBCHEM_BOND_DEF_STEREO_COUNT>
0

> <PUBCHEM_BOND_UDEF_STEREO_COUNT>
0

> <PUBCHEM_ISOTOPIC_ATOM_COUNT>
0

> <PUBCHEM_COMPONENT_COUNT>
1

> <PUBCHEM_CACTVS_TAUTO_COUNT>
4

> <PUBCHEM_CONFORMER_ID>
0109712300000001

> <PUBCHEM_MMFF94_ENERGY>
58.4612

> <PUBCHEM_FEATURE_SELFOVERLAP>
45.858

> <PUBCHEM_SHAPE_FINGERPRINT>
10 15 18408044000522632634
10076449 9 17894632527381537451
10595046 47 18412263969284196451
10674148 151 7781518109849068806
10835480 77 18262802985992312573
11315181 36 18187082854782595601
11719270 70 18260269672526345942
11991303 11 17312825935699201934
12592606 108 10159694686087437057
13533116 47 16988286490511825610
13673619 4 8862944965897534978
13685833 64 10592043557792840990
13914758 101 15841278124915622429
14251764 18 17988924457686957500
14347424 109 17917436428537772344
14840074 17 15502378950031547117
15183329 4 18343298167420702168
15274700 208 17460039475551916920
15348495 7 12031487870733082221
15419008 145 18130520733897515144
15537594 2 16153716452770819215
15961568 22 18412821404426276644
16989713 51 17605282779146506903
20157964 124 18411698816302916890
20511986 3 17846506975773051095
20982279 24 5905177375846386877
21150785 3 17530967973065627389
21365058 27 15502373409507450799
22950370 63 7853565803533912754
23035841 295 7925914772389827780
23081809 10 16877937299660388043
23559900 14 18411144606966645753
24771293 8 18413384345615735548
3103668 31 16735251287886053350
34797466 226 17967243217499318869
4073 2 18202276996380619259
4325135 7 18407478855877573711
44249763 50 17604443885870110782
5207 217 17967813838201234819
5470011 282 7997974605408964880
6371009 1 18201996616652113597
6394761 36 10807939258533855939
8863177 126 10231457606798315716
99344 41 18343587369006063904
999808 66 5689306963307249173

> <PUBCHEM_SHAPE_MULTIPOLES>
506.61
24.49
2.35
1.01
3.74
0.48
-0.2
8.9
0.48
-0.75
-0.39
1.16
-0.24
0.04

> <PUBCHEM_SHAPE_SELFOVERLAP>
1115.443

> <PUBCHEM_SHAPE_VOLUME>
275.8

> <PUBCHEM_COORDINATE_TYPE>
2
5
10

$$$$

