23872096
  -OEChem-07051213123D

 38 39  0     0  0  0  0  0  0999 V2000
    3.1422    2.0774    1.9141 Cl  0  0  0  0  0  0  0  0  0  0  0  0
   -1.0038   -2.0559    0.0558 O   0  0  0  0  0  0  0  0  0  0  0  0
   -0.6216    0.5463   -2.5872 O   0  0  0  0  0  0  0  0  0  0  0  0
    0.4576    2.0463    0.6399 O   0  0  0  0  0  0  0  0  0  0  0  0
    1.3560   -1.6270   -2.2929 O   0  0  0  0  0  0  0  0  0  0  0  0
    4.7465   -0.1108    0.6655 O   0  0  0  0  0  0  0  0  0  0  0  0
   -5.0394   -0.2817    1.8608 O   0  0  0  0  0  0  0  0  0  0  0  0
   -1.6809    0.1693   -0.5363 C   0  0  0  0  0  0  0  0  0  0  0  0
   -2.6006    1.2117   -0.4214 C   0  0  0  0  0  0  0  0  0  0  0  0
    0.8860    0.2166   -0.8296 C   0  0  0  0  0  0  0  0  0  0  0  0
   -0.4979    0.3218   -1.3764 C   0  0  0  0  0  0  0  0  0  0  0  0
   -1.8895   -1.0245    0.1544 C   0  0  0  0  0  0  0  0  0  0  0  0
   -3.7292    1.0601    0.3842 C   0  0  0  0  0  0  0  0  0  0  0  0
    1.3135    1.0928    0.1680 C   0  0  0  0  0  0  0  0  0  0  0  0
    1.7530   -0.7609   -1.3180 C   0  0  0  0  0  0  0  0  0  0  0  0
   -3.0182   -1.1760    0.9600 C   0  0  0  0  0  0  0  0  0  0  0  0
   -3.9381   -0.1337    1.0749 C   0  0  0  0  0  0  0  0  0  0  0  0
   -2.4035    2.5012   -1.1494 C   0  0  0  0  0  0  0  0  0  0  0  0
    2.6084    0.9916    0.6770 C   0  0  0  0  0  0  0  0  0  0  0  0
    3.0475   -0.8621   -0.8091 C   0  0  0  0  0  0  0  0  0  0  0  0
    3.4754    0.0142    0.1884 C   0  0  0  0  0  0  0  0  0  0  0  0
   -1.3003   -3.2368    0.7978 C   0  0  0  0  0  0  0  0  0  0  0  0
    4.9368   -0.9799    1.7795 C   0  0  0  0  0  0  0  0  0  0  0  0
   -4.4495    1.8697    0.4748 H   0  0  0  0  0  0  0  0  0  0  0  0
   -3.2421   -2.0754    1.5237 H   0  0  0  0  0  0  0  0  0  0  0  0
   -1.3829    2.8792   -1.0422 H   0  0  0  0  0  0  0  0  0  0  0  0
   -2.6308    2.3737   -2.2128 H   0  0  0  0  0  0  0  0  0  0  0  0
   -3.0651    3.2842   -0.7622 H   0  0  0  0  0  0  0  0  0  0  0  0
    3.7227   -1.6239   -1.1912 H   0  0  0  0  0  0  0  0  0  0  0  0
    0.9184    2.5607    1.3250 H   0  0  0  0  0  0  0  0  0  0  0  0
    0.4333   -1.4590   -2.5428 H   0  0  0  0  0  0  0  0  0  0  0  0
   -0.4921   -3.9495    0.6024 H   0  0  0  0  0  0  0  0  0  0  0  0
   -2.2274   -3.7085    0.4547 H   0  0  0  0  0  0  0  0  0  0  0  0
   -1.3003   -3.0475    1.8767 H   0  0  0  0  0  0  0  0  0  0  0  0
   -5.5656    0.5355    1.8240 H   0  0  0  0  0  0  0  0  0  0  0  0
    5.9809   -0.9067    2.0963 H   0  0  0  0  0  0  0  0  0  0  0  0
    4.7317   -2.0156    1.4909 H   0  0  0  0  0  0  0  0  0  0  0  0
    4.2963   -0.6934    2.6193 H   0  0  0  0  0  0  0  0  0  0  0  0
  1 19  1  0  0  0  0
  2 12  1  0  0  0  0
  2 22  1  0  0  0  0
  3 11  2  0  0  0  0
  4 14  1  0  0  0  0
  4 30  1  0  0  0  0
  5 15  1  0  0  0  0
  5 31  1  0  0  0  0
  6 21  1  0  0  0  0
  6 23  1  0  0  0  0
  7 17  1  0  0  0  0
  7 35  1  0  0  0  0
  8  9  1  0  0  0  0
  8 11  1  0  0  0  0
  8 12  2  0  0  0  0
  9 13  2  0  0  0  0
  9 18  1  0  0  0  0
 10 11  1  0  0  0  0
 10 14  2  0  0  0  0
 10 15  1  0  0  0  0
 12 16  1  0  0  0  0
 13 17  1  0  0  0  0
 13 24  1  0  0  0  0
 14 19  1  0  0  0  0
 15 20  2  0  0  0  0
 16 17  2  0  0  0  0
 16 25  1  0  0  0  0
 18 26  1  0  0  0  0
 18 27  1  0  0  0  0
 18 28  1  0  0  0  0
 19 21  2  0  0  0  0
 20 21  1  0  0  0  0
 20 29  1  0  0  0  0
 22 32  1  0  0  0  0
 22 33  1  0  0  0  0
 22 34  1  0  0  0  0
 23 36  1  0  0  0  0
 23 37  1  0  0  0  0
 23 38  1  0  0  0  0
M  END
> <PUBCHEM_COMPOUND_CID>
23872096

> <PUBCHEM_CONFORMER_RMSD>
0.6

> <PUBCHEM_CONFORMER_DIVERSEORDER>
3
12
36
40
30
34
35
24
25
18
26
15
11
39
37
6
22
32
14
20
38
31
28
19
29
13
17
4
27
23
33
2
16
7
21
1
10
8
5
9

> <PUBCHEM_MMFF94_PARTIAL_CHARGES>
29
1 -0.18
10 0.09
11 0.4
12 0.08
13 -0.15
14 0.08
15 0.08
16 -0.15
17 0.08
18 0.14
19 0.18
2 -0.36
20 -0.15
21 0.08
22 0.28
23 0.28
24 0.15
25 0.15
29 0.15
3 -0.57
30 0.45
31 0.45
35 0.45
4 -0.53
5 -0.53
6 -0.36
7 -0.53
8 0.09
9 -0.14

> <PUBCHEM_EFFECTIVE_ROTOR_COUNT>
4

> <PUBCHEM_PHARMACOPHORE_FEATURES>
8
1 2 acceptor
1 3 acceptor
1 4 donor
1 5 donor
1 6 acceptor
1 7 donor
6 10 14 15 19 20 21 rings
6 8 9 12 13 16 17 rings

> <PUBCHEM_HEAVY_ATOM_COUNT>
23

> <PUBCHEM_ATOM_DEF_STEREO_COUNT>
0

> <PUBCHEM_ATOM_UDEF_STEREO_COUNT>
0

> <PUBCHEM_BOND_DEF_STEREO_COUNT>
0

> <PUBCHEM_BOND_UDEF_STEREO_COUNT>
0

> <PUBCHEM_ISOTOPIC_ATOM_COUNT>
0

> <PUBCHEM_COMPONENT_COUNT>
1

> <PUBCHEM_CACTVS_TAUTO_COUNT>
144

> <PUBCHEM_CONFORMER_ID>
016C426000000003

> <PUBCHEM_MMFF94_ENERGY>
94.7645

> <PUBCHEM_FEATURE_SELFOVERLAP>
40.594

> <PUBCHEM_SHAPE_FINGERPRINT>
10366900 7 18261108534903526316
11961588 58 5905756740182370649
12236239 1 16271921631815476621
12403259 327 18335979796524755258
12553582 1 16486703467401012146
12633257 1 18335699407963572602
13140716 1 17895484613742145280
13583140 156 18055946305887105872
14178342 30 17844518019352239413
14289901 80 18059299747474109784
14576447 43 14045744816045880528
15209289 33 17561366179670786330
15238133 3 17895176823332280096
15295992 7 17822577101257498720
16752209 62 17418100897404523967
16945 1 18271525303817497327
1813 80 16702024132187460332
19049666 15 18119801662886800493
19422 9 16630516358308867077
19784866 240 15769770260737194787
20361792 2 16343426090047856871
21033648 29 18339372936721699641
21475661 188 17606098809963240889
21731516 1 16845021099710460924
21756936 100 17099749245628678192
22112679 90 16701729536138564341
23184049 59 17240197759434746596
23503958 8 17489868266910627297
23559900 14 18266722753297678134
23598288 3 15050070738288802804
394222 165 14202496790276291551
465052 167 16772928335045358619
474 4 17167582682846873424
5265222 85 18201990041917032614
633830 44 16515684399534846336
7970288 3 15913332403064803458

> <PUBCHEM_SHAPE_MULTIPOLES>
439.98
8.31
2.43
1.94
2.37
0.69
0.46
0.27
-5.41
-0.87
-0.39
0.49
-0.04
1.42

> <PUBCHEM_SHAPE_SELFOVERLAP>
945.199

> <PUBCHEM_SHAPE_VOLUME>
246

> <PUBCHEM_COORDINATE_TYPE>
2
5
10

$$$$

