7474
  -OEChem-07051213053D

 14 14  0     0  0  0  0  0  0999 V2000
    3.7702   -0.0003    0.0005 Cl  0  0  0  0  0  0  0  0  0  0  0  0
   -2.7682   -1.0978    0.0004 O   0  5  0  0  0  0  0  0  0  0  0  0
   -2.7687    1.0975    0.0003 O   0  0  0  0  0  0  0  0  0  0  0  0
   -2.1600    0.0000    0.0000 N   0  3  0  0  0  0  0  0  0  0  0  0
   -0.7405    0.0002   -0.0004 C   0  0  0  0  0  0  0  0  0  0  0  0
   -0.0431   -1.2078   -0.0004 C   0  0  0  0  0  0  0  0  0  0  0  0
   -0.0429    1.2081   -0.0003 C   0  0  0  0  0  0  0  0  0  0  0  0
    1.3518   -1.2079   -0.0001 C   0  0  0  0  0  0  0  0  0  0  0  0
    1.3520    1.2080   -0.0001 C   0  0  0  0  0  0  0  0  0  0  0  0
    2.0493    0.0000    0.0000 C   0  0  0  0  0  0  0  0  0  0  0  0
   -0.5530   -2.1679   -0.0003 H   0  0  0  0  0  0  0  0  0  0  0  0
   -0.5528    2.1682   -0.0003 H   0  0  0  0  0  0  0  0  0  0  0  0
    1.8824   -2.1566    0.0000 H   0  0  0  0  0  0  0  0  0  0  0  0
    1.8827    2.1567    0.0001 H   0  0  0  0  0  0  0  0  0  0  0  0
  1 10  1  0  0  0  0
  2  4  1  0  0  0  0
  3  4  2  0  0  0  0
  4  5  1  0  0  0  0
  5  6  2  0  0  0  0
  5  7  1  0  0  0  0
  6  8  1  0  0  0  0
  6 11  1  0  0  0  0
  7  9  2  0  0  0  0
  7 12  1  0  0  0  0
  8 10  2  0  0  0  0
  8 13  1  0  0  0  0
  9 10  1  0  0  0  0
  9 14  1  0  0  0  0
M  CHG  2   2  -1   4   1
M  END
> <PUBCHEM_COMPOUND_CID>
7474

> <PUBCHEM_CONFORMER_RMSD>
0.4

> <PUBCHEM_CONFORMER_DIVERSEORDER>
1

> <PUBCHEM_MMFF94_PARTIAL_CHARGES>
14
1 -0.18
10 0.18
11 0.15
12 0.15
13 0.15
14 0.15
2 -0.52
3 -0.52
4 0.91
5 0.13
6 -0.15
7 -0.15
8 -0.15
9 -0.15

> <PUBCHEM_EFFECTIVE_ROTOR_COUNT>
1

> <PUBCHEM_PHARMACOPHORE_FEATURES>
4
1 2 acceptor
1 2 anion
1 3 acceptor
6 5 6 7 8 9 10 rings

> <PUBCHEM_HEAVY_ATOM_COUNT>
10

> <PUBCHEM_ATOM_DEF_STEREO_COUNT>
0

> <PUBCHEM_ATOM_UDEF_STEREO_COUNT>
0

> <PUBCHEM_BOND_DEF_STEREO_COUNT>
0

> <PUBCHEM_BOND_UDEF_STEREO_COUNT>
0

> <PUBCHEM_ISOTOPIC_ATOM_COUNT>
0

> <PUBCHEM_COMPONENT_COUNT>
1

> <PUBCHEM_CACTVS_TAUTO_COUNT>
1

> <PUBCHEM_CONFORMER_ID>
00001D3200000001

> <PUBCHEM_MMFF94_ENERGY>
26.1861

> <PUBCHEM_FEATURE_SELFOVERLAP>
20.379

> <PUBCHEM_SHAPE_FINGERPRINT>
10857977 72 18410022013229423202
12032990 46 18409441479996669270
12897270 3 18410012156205632172
14325111 11 18410855447559868448
16945 1 18410573989636309508
193761 8 17617940678757848676
21040471 1 18338797788965490820
23235685 24 18411142445906674304
23402655 69 18192447457634838173
23552423 10 18271803544578468615
2748010 2 18122624946827646988
29004967 10 18412541028686172282
5084963 1 18261671471956149937
528886 8 18410017662337868440

> <PUBCHEM_SHAPE_MULTIPOLES>
190.95
4.66
1.41
0.59
0.67
0
0
0
0
-0.22
0
0.09
0
0

> <PUBCHEM_SHAPE_SELFOVERLAP>
390.264

> <PUBCHEM_SHAPE_VOLUME>
112.2

> <PUBCHEM_COORDINATE_TYPE>
2
5
10

$$$$

