80801
  -OEChem-07051213032D

 33 34  0     0  0  0  0  0  0999 V2000
    5.4641   -3.0000    0.0000 Br  0  0  0  0  0  0  0  0  0  0  0  0
    2.0000   -3.0000    0.0000 Br  0  0  0  0  0  0  0  0  0  0  0  0
    5.4641    3.0000    0.0000 Br  0  0  0  0  0  0  0  0  0  0  0  0
    3.7320   -4.0000    0.0000 O   0  0  0  0  0  0  0  0  0  0  0  0
    3.7320    4.0000    0.0000 O   0  0  0  0  0  0  0  0  0  0  0  0
    3.7320    0.0000    0.0000 C   0  0  0  0  0  0  0  0  0  0  0  0
    3.7320   -1.0000    0.0000 C   0  0  0  0  0  0  0  0  0  0  0  0
    3.7320    1.0000    0.0000 C   0  0  0  0  0  0  0  0  0  0  0  0
    4.7320    0.0000    0.0000 C   0  0  0  0  0  0  0  0  0  0  0  0
    2.7320    0.0000    0.0000 C   0  0  0  0  0  0  0  0  0  0  0  0
    2.8660   -1.5000    0.0000 C   0  0  0  0  0  0  0  0  0  0  0  0
    4.5981   -1.5000    0.0000 C   0  0  0  0  0  0  0  0  0  0  0  0
    4.5981    1.5000    0.0000 C   0  0  0  0  0  0  0  0  0  0  0  0
    2.8660    1.5000    0.0000 C   0  0  0  0  0  0  0  0  0  0  0  0
    4.5981   -2.5000    0.0000 C   0  0  0  0  0  0  0  0  0  0  0  0
    2.8660   -2.5000    0.0000 C   0  0  0  0  0  0  0  0  0  0  0  0
    4.5981    2.5000    0.0000 C   0  0  0  0  0  0  0  0  0  0  0  0
    2.8660    2.5000    0.0000 C   0  0  0  0  0  0  0  0  0  0  0  0
    3.7320   -3.0000    0.0000 C   0  0  0  0  0  0  0  0  0  0  0  0
    3.7320    3.0000    0.0000 C   0  0  0  0  0  0  0  0  0  0  0  0
    4.7320   -0.6200    0.0000 H   0  0  0  0  0  0  0  0  0  0  0  0
    5.3520    0.0000    0.0000 H   0  0  0  0  0  0  0  0  0  0  0  0
    2.7320    0.6200    0.0000 H   0  0  0  0  0  0  0  0  0  0  0  0
    2.1120    0.0000    0.0000 H   0  0  0  0  0  0  0  0  0  0  0  0
    2.7320   -0.6200    0.0000 H   0  0  0  0  0  0  0  0  0  0  0  0
    4.7320    0.6200    0.0000 H   0  0  0  0  0  0  0  0  0  0  0  0
    2.3291   -1.1900    0.0000 H   0  0  0  0  0  0  0  0  0  0  0  0
    5.1350   -1.1900    0.0000 H   0  0  0  0  0  0  0  0  0  0  0  0
    5.1350    1.1900    0.0000 H   0  0  0  0  0  0  0  0  0  0  0  0
    2.3291    1.1900    0.0000 H   0  0  0  0  0  0  0  0  0  0  0  0
    2.3291    2.8100    0.0000 H   0  0  0  0  0  0  0  0  0  0  0  0
    3.1951   -4.3100    0.0000 H   0  0  0  0  0  0  0  0  0  0  0  0
    3.1951    4.3100    0.0000 H   0  0  0  0  0  0  0  0  0  0  0  0
  1 15  1  0  0  0  0
  2 16  1  0  0  0  0
  3 17  1  0  0  0  0
  4 19  1  0  0  0  0
  4 32  1  0  0  0  0
  5 20  1  0  0  0  0
  5 33  1  0  0  0  0
  6  7  1  0  0  0  0
  6  8  1  0  0  0  0
  6  9  1  0  0  0  0
  6 10  1  0  0  0  0
  7 11  2  0  0  0  0
  7 12  1  0  0  0  0
  8 13  2  0  0  0  0
  8 14  1  0  0  0  0
  9 21  1  0  0  0  0
  9 22  1  0  0  0  0
  9 26  1  0  0  0  0
 10 23  1  0  0  0  0
 10 24  1  0  0  0  0
 10 25  1  0  0  0  0
 11 16  1  0  0  0  0
 11 27  1  0  0  0  0
 12 15  2  0  0  0  0
 12 28  1  0  0  0  0
 13 17  1  0  0  0  0
 13 29  1  0  0  0  0
 14 18  2  0  0  0  0
 14 30  1  0  0  0  0
 15 19  1  0  0  0  0
 16 19  2  0  0  0  0
 17 20  2  0  0  0  0
 18 20  1  0  0  0  0
 18 31  1  0  0  0  0
M  END
> <PUBCHEM_COMPOUND_CID>
80801

> <PUBCHEM_COMPOUND_CANONICALIZED>
1

> <PUBCHEM_CACTVS_COMPLEXITY>
325

> <PUBCHEM_CACTVS_HBOND_ACCEPTOR>
2

> <PUBCHEM_CACTVS_HBOND_DONOR>
2

> <PUBCHEM_CACTVS_ROTATABLE_BOND>
2

> <PUBCHEM_CACTVS_SUBSKEYS>
AAADccBwMAAAGAAAAAAAAAAAAAAAAAAAAAAwYAAAAAAAAAABQAAAGgBACAABrgSAmAAyBoAAAgCAAiBCAAACAAAgIAQIiAAGCKgIJiKCERKAcAAkwBEImheAwPAPoAAAEAAgBABAAAAgAEAIAAAAAAAAAA==

> <PUBCHEM_IUPAC_OPENEYE_NAME>
2,6-dibromo-4-[1-(3-bromo-4-hydroxy-phenyl)-1-methyl-ethyl]phenol

> <PUBCHEM_IUPAC_CAS_NAME>
2,6-dibromo-4-[2-(3-bromo-4-hydroxyphenyl)propan-2-yl]phenol

> <PUBCHEM_IUPAC_NAME>
2,6-dibromo-4-[2-(3-bromo-4-hydroxyphenyl)propan-2-yl]phenol

> <PUBCHEM_IUPAC_SYSTEMATIC_NAME>
2,6-bis(bromanyl)-4-[2-(3-bromanyl-4-oxidanyl-phenyl)propan-2-yl]phenol

> <PUBCHEM_IUPAC_TRADITIONAL_NAME>
2,6-dibromo-4-[1-(3-bromo-4-hydroxy-phenyl)-1-methyl-ethyl]phenol

> <PUBCHEM_IUPAC_INCHI>
InChI=1S/C15H13Br3O2/c1-15(2,8-3-4-13(19)10(16)5-8)9-6-11(17)14(20)12(18)7-9/h3-7,19-20H,1-2H3

> <PUBCHEM_IUPAC_INCHIKEY>
WYBOEVJIVYIEJL-UHFFFAOYSA-N

> <PUBCHEM_XLOGP3_AA>
6.1

> <PUBCHEM_EXACT_MASS>
463.844519

> <PUBCHEM_MOLECULAR_FORMULA>
C15H13Br3O2

> <PUBCHEM_MOLECULAR_WEIGHT>
464.97452

> <PUBCHEM_OPENEYE_CAN_SMILES>
CC(C)(C1=CC(=C(C=C1)O)Br)C2=CC(=C(C(=C2)Br)O)Br

> <PUBCHEM_OPENEYE_ISO_SMILES>
CC(C)(C1=CC(=C(C=C1)O)Br)C2=CC(=C(C(=C2)Br)O)Br

> <PUBCHEM_CACTVS_TPSA>
40.5

> <PUBCHEM_MONOISOTOPIC_WEIGHT>
461.846566

> <PUBCHEM_TOTAL_CHARGE>
0

> <PUBCHEM_HEAVY_ATOM_COUNT>
20

> <PUBCHEM_ATOM_DEF_STEREO_COUNT>
0

> <PUBCHEM_ATOM_UDEF_STEREO_COUNT>
0

> <PUBCHEM_BOND_DEF_STEREO_COUNT>
0

> <PUBCHEM_BOND_UDEF_STEREO_COUNT>
0

> <PUBCHEM_ISOTOPIC_ATOM_COUNT>
0

> <PUBCHEM_COMPONENT_COUNT>
1

> <PUBCHEM_CACTVS_TAUTO_COUNT>
6

> <PUBCHEM_COORDINATE_TYPE>
1
5
255

> <PUBCHEM_BONDANNOTATIONS>
11  16  8
12  15  8
13  17  8
14  18  8
15  19  8
16  19  8
17  20  8
18  20  8
7  11  8
7  12  8
8  13  8
8  14  8

$$$$

