439831
  -OEChem-07051212473D

 60 63  0     1  0  0  0  0  0999 V2000
    0.6308    0.9645   -1.9904 O   0  0  0  0  0  0  0  0  0  0  0  0
    0.2204   -2.2171   -2.0048 O   0  0  0  0  0  0  0  0  0  0  0  0
   -1.4205    2.8387   -2.4286 O   0  0  0  0  0  0  0  0  0  0  0  0
   -1.8345   -1.7129    1.6314 O   0  0  0  0  0  0  0  0  0  0  0  0
   -6.0589    3.4061    0.2401 O   0  0  0  0  0  0  0  0  0  0  0  0
    2.4994    0.2506   -0.7180 N   0  0  0  0  0  0  0  0  0  0  0  0
   -1.9508   -1.2003   -0.6269 N   0  0  0  0  0  0  0  0  0  0  0  0
    3.5394    1.4031    0.8840 N   0  0  0  0  0  0  0  0  0  0  0  0
    4.2891   -1.2557   -1.3737 N   0  0  0  0  0  0  0  0  0  0  0  0
   -3.4467   -3.9472    0.6653 N   0  0  0  0  0  0  0  0  0  0  0  0
    6.4268    0.8209    1.6384 N   0  0  0  0  0  0  0  0  0  0  0  0
    6.3085   -0.8590   -0.0620 N   0  0  0  0  0  0  0  0  0  0  0  0
   -0.7469   -0.4214   -0.6705 C   0  0  1  0  0  0  0  0  0  0  0  0
    0.4974   -1.2239   -1.0173 C   0  0  2  0  0  0  0  0  0  0  0  0
   -0.7527    0.6516   -1.7515 C   0  0  1  0  0  0  0  0  0  0  0  0
    1.4310   -0.1763   -1.6235 C   0  0  1  0  0  0  0  0  0  0  0  0
   -1.4924    1.9175   -1.3550 C   0  0  0  0  0  0  0  0  0  0  0  0
    3.7641   -0.2619   -0.6413 C   0  0  0  0  0  0  0  0  0  0  0  0
   -2.4012   -1.7913    0.5425 C   0  0  0  0  0  0  0  0  0  0  0  0
    2.4142    1.2485    0.2178 C   0  0  0  0  0  0  0  0  0  0  0  0
   -3.7138   -2.5440    0.3475 C   0  0  2  0  0  0  0  0  0  0  0  0
    4.3917    0.4654    0.3574 C   0  0  0  0  0  0  0  0  0  0  0  0
   -4.8005   -1.9938    1.2828 C   0  0  0  0  0  0  0  0  0  0  0  0
    5.7135    0.1357    0.6395 C   0  0  0  0  0  0  0  0  0  0  0  0
   -5.1372   -0.5480    1.0033 C   0  0  0  0  0  0  0  0  0  0  0  0
    5.5702   -1.4837   -1.0111 C   0  0  0  0  0  0  0  0  0  0  0  0
   -6.1392   -0.2489    0.0947 C   0  0  0  0  0  0  0  0  0  0  0  0
   -4.4382    0.4504    1.6614 C   0  0  0  0  0  0  0  0  0  0  0  0
    7.4678    0.1490    2.3954 C   0  0  0  0  0  0  0  0  0  0  0  0
    6.1260    2.2086    1.9408 C   0  0  0  0  0  0  0  0  0  0  0  0
   -6.4508    1.0861   -0.1629 C   0  0  0  0  0  0  0  0  0  0  0  0
   -4.7499    1.7855    1.4037 C   0  0  0  0  0  0  0  0  0  0  0  0
   -5.7562    2.1033    0.4916 C   0  0  0  0  0  0  0  0  0  0  0  0
   -0.5867    0.0521    0.3073 H   0  0  0  0  0  0  0  0  0  0  0  0
    0.9227   -1.7412   -0.1509 H   0  0  0  0  0  0  0  0  0  0  0  0
   -1.1545    0.2686   -2.6987 H   0  0  0  0  0  0  0  0  0  0  0  0
    1.9181   -0.5364   -2.5372 H   0  0  0  0  0  0  0  0  0  0  0  0
   -2.4537   -1.3553   -1.4955 H   0  0  0  0  0  0  0  0  0  0  0  0
   -1.0291    2.3867   -0.4811 H   0  0  0  0  0  0  0  0  0  0  0  0
   -2.5445    1.7081   -1.1399 H   0  0  0  0  0  0  0  0  0  0  0  0
   -0.4549   -2.8108   -1.6342 H   0  0  0  0  0  0  0  0  0  0  0  0
    1.5134    1.8256    0.3762 H   0  0  0  0  0  0  0  0  0  0  0  0
   -4.0515   -2.4753   -0.6929 H   0  0  0  0  0  0  0  0  0  0  0  0
   -1.9010    3.6380   -2.1531 H   0  0  0  0  0  0  0  0  0  0  0  0
   -5.7141   -2.5974    1.1920 H   0  0  0  0  0  0  0  0  0  0  0  0
   -4.4932   -2.0897    2.3338 H   0  0  0  0  0  0  0  0  0  0  0  0
   -4.3045   -4.4891    0.5663 H   0  0  0  0  0  0  0  0  0  0  0  0
   -2.7893   -4.3312   -0.0127 H   0  0  0  0  0  0  0  0  0  0  0  0
    6.0781   -2.2746   -1.5526 H   0  0  0  0  0  0  0  0  0  0  0  0
   -6.6838   -1.0342   -0.4214 H   0  0  0  0  0  0  0  0  0  0  0  0
   -3.6596    0.2181    2.3816 H   0  0  0  0  0  0  0  0  0  0  0  0
    7.1177   -0.8236    2.7585 H   0  0  0  0  0  0  0  0  0  0  0  0
    8.3535   -0.0075    1.7709 H   0  0  0  0  0  0  0  0  0  0  0  0
    7.7716    0.7326    3.2710 H   0  0  0  0  0  0  0  0  0  0  0  0
    5.9101    2.7841    1.0336 H   0  0  0  0  0  0  0  0  0  0  0  0
    6.9807    2.6983    2.4211 H   0  0  0  0  0  0  0  0  0  0  0  0
    5.2789    2.2810    2.6305 H   0  0  0  0  0  0  0  0  0  0  0  0
   -7.2350    1.3274   -0.8753 H   0  0  0  0  0  0  0  0  0  0  0  0
   -4.2020    2.5685    1.9211 H   0  0  0  0  0  0  0  0  0  0  0  0
   -5.4802    3.9736    0.7777 H   0  0  0  0  0  0  0  0  0  0  0  0
  1 15  1  0  0  0  0
  1 16  1  0  0  0  0
  2 14  1  0  0  0  0
  2 41  1  0  0  0  0
  3 17  1  0  0  0  0
  3 44  1  0  0  0  0
  4 19  2  0  0  0  0
  5 33  1  0  0  0  0
  5 60  1  0  0  0  0
  6 16  1  0  0  0  0
  6 18  1  0  0  0  0
  6 20  1  0  0  0  0
  7 13  1  0  0  0  0
  7 19  1  0  0  0  0
  7 38  1  0  0  0  0
  8 20  2  0  0  0  0
  8 22  1  0  0  0  0
  9 18  1  0  0  0  0
  9 26  2  0  0  0  0
 10 21  1  0  0  0  0
 10 47  1  0  0  0  0
 10 48  1  0  0  0  0
 11 24  1  0  0  0  0
 11 29  1  0  0  0  0
 11 30  1  0  0  0  0
 12 24  2  0  0  0  0
 12 26  1  0  0  0  0
 13 14  1  0  0  0  0
 13 15  1  0  0  0  0
 13 34  1  0  0  0  0
 14 16  1  0  0  0  0
 14 35  1  0  0  0  0
 15 17  1  0  0  0  0
 15 36  1  0  0  0  0
 16 37  1  0  0  0  0
 17 39  1  0  0  0  0
 17 40  1  0  0  0  0
 18 22  2  0  0  0  0
 19 21  1  0  0  0  0
 20 42  1  0  0  0  0
 21 23  1  0  0  0  0
 21 43  1  0  0  0  0
 22 24  1  0  0  0  0
 23 25  1  0  0  0  0
 23 45  1  0  0  0  0
 23 46  1  0  0  0  0
 25 27  2  0  0  0  0
 25 28  1  0  0  0  0
 26 49  1  0  0  0  0
 27 31  1  0  0  0  0
 27 50  1  0  0  0  0
 28 32  2  0  0  0  0
 28 51  1  0  0  0  0
 29 52  1  0  0  0  0
 29 53  1  0  0  0  0
 29 54  1  0  0  0  0
 30 55  1  0  0  0  0
 30 56  1  0  0  0  0
 30 57  1  0  0  0  0
 31 33  2  0  0  0  0
 31 58  1  0  0  0  0
 32 33  1  0  0  0  0
 32 59  1  0  0  0  0
M  END
> <PUBCHEM_COMPOUND_CID>
439831

> <PUBCHEM_CONFORMER_RMSD>
1

> <PUBCHEM_CONFORMER_DIVERSEORDER>
1
29
61
6
82
34
87
99
119
38
18
98
70
111
96
62
50
40
64
73
8
56
3
103
93
71
58
10
7
46
110
117
60
112
53
32
105
77
41
26
69
20
113
100
23
45
25
2
49
120
91
102
83
63
95
76
37
47
13
68
97
80
33
84
43
42
85
51
90
101
75
54
66
106
24
16
22
74
31
107
55
92
108
88
104
44
11
48
79
15
36
118
89
109
30
114
116
81
52
59
115
78
5
94
9
21
65
67
57
39
19
35
28
14
72
4
86
17
12
27

> <PUBCHEM_MMFF94_PARTIAL_CHARGES>
45
1 -0.56
10 -0.99
11 -0.84
12 -0.62
13 0.3
14 0.28
15 0.28
16 0.54
17 0.28
18 0.11
19 0.57
2 -0.68
20 0.04
21 0.33
22 0.23
23 0.14
24 0.41
25 -0.14
26 0.47
27 -0.15
28 -0.15
29 0.37
3 -0.68
30 0.37
31 -0.15
32 -0.15
33 0.08
38 0.37
4 -0.57
41 0.4
42 0.15
44 0.4
47 0.36
48 0.36
49 0.15
5 -0.53
50 0.15
51 0.15
58 0.15
59 0.15
6 0.05
60 0.45
7 -0.73
8 -0.57
9 -0.57

> <PUBCHEM_EFFECTIVE_ROTOR_COUNT>
9

> <PUBCHEM_PHARMACOPHORE_FEATURES>
17
1 1 acceptor
1 10 cation
1 10 donor
1 2 acceptor
1 2 donor
1 3 acceptor
1 3 donor
1 4 acceptor
1 5 donor
1 7 donor
3 11 12 24 cation
3 6 8 20 cation
3 9 12 26 cation
5 1 13 14 15 16 rings
5 6 8 18 20 22 rings
6 25 27 28 31 32 33 rings
6 9 12 18 22 24 26 rings

> <PUBCHEM_HEAVY_ATOM_COUNT>
33

> <PUBCHEM_ATOM_DEF_STEREO_COUNT>
5

> <PUBCHEM_ATOM_UDEF_STEREO_COUNT>
0

> <PUBCHEM_BOND_DEF_STEREO_COUNT>
0

> <PUBCHEM_BOND_UDEF_STEREO_COUNT>
0

> <PUBCHEM_ISOTOPIC_ATOM_COUNT>
0

> <PUBCHEM_COMPONENT_COUNT>
1

> <PUBCHEM_CACTVS_TAUTO_COUNT>
4

> <PUBCHEM_CONFORMER_ID>
0006B61700000001

> <PUBCHEM_MMFF94_ENERGY>
84.1462

> <PUBCHEM_FEATURE_SELFOVERLAP>
86.518

> <PUBCHEM_SHAPE_FINGERPRINT>
10 15 18334299747495696464
10319926 262 18411129217112289411
10554248 39 14418123025069705356
10838868 229 17556595553569694314
11227688 84 12965468169583650576
12128747 34 18187641435736249618
12422481 6 18341040882901534221
12717326 150 14187639089270704128
12838862 33 18201443645042026325
13878862 14 16805615793500051272
14767858 380 5112003928734775019
14856354 85 15338826565677857699
15021287 119 16486971791435828013
15183329 4 17561361768576290755
15326921 28 17915193535959609037
15328829 1 16414328183364760550
16112460 7 17702939228149320300
21033648 29 18187353334094642491
21859007 373 18334857263766628084
22122407 14 17095808724391973192
23522609 53 17202176612975783588
23559900 14 18118655894514208919
2838139 119 14490462093630631082
3117164 225 18340762663584055413
312425 54 18342178860636702034
3383291 50 18201430334716882315
373842 8 18040714736468337080
397830 11 18260266304965355130
4258327 124 15213310660167311280
5104073 3 17916860206048826532
513202 73 15698005167031034967
54039377 194 15051461557033123402
563151 74 17603590737882162030
6608658 132 4895282502834888315
7226269 152 18130779084368870709
999808 66 13901911119741307394

> <PUBCHEM_SHAPE_MULTIPOLES>
614.91
19.24
3.09
2.1
12.01
0.38
0.19
-5.69
-11.58
-4.59
-0.19
1.57
-0.51
2.7

> <PUBCHEM_SHAPE_SELFOVERLAP>
1322.801

> <PUBCHEM_SHAPE_VOLUME>
335.2

> <PUBCHEM_COORDINATE_TYPE>
2
5
10

$$$$

