164710
  -OEChem-07051212573D

 36 40  0     1  0  0  0  0  0999 V2000
   -0.5317    2.8427    0.1420 O   0  0  0  0  0  0  0  0  0  0  0  0
   -2.9306    2.8104    0.1445 O   0  0  0  0  0  0  0  0  0  0  0  0
    5.4006    0.0186   -0.0192 O   0  0  0  0  0  0  0  0  0  0  0  0
   -1.0623   -3.2853    0.2382 N   0  0  0  0  0  0  0  0  0  0  0  0
   -0.2597   -2.1306   -0.1915 C   0  0  1  0  0  0  0  0  0  0  0  0
   -1.0076   -0.8088   -0.0934 C   0  0  0  0  0  0  0  0  0  0  0  0
    1.0194   -2.0768    0.6585 C   0  0  0  0  0  0  0  0  0  0  0  0
   -0.2614    0.4007   -0.0578 C   0  0  0  0  0  0  0  0  0  0  0  0
   -2.4272   -0.8107   -0.0904 C   0  0  0  0  0  0  0  0  0  0  0  0
   -3.1907   -2.1116   -0.0840 C   0  0  0  0  0  0  0  0  0  0  0  0
   -2.3339   -3.3121   -0.4823 C   0  0  0  0  0  0  0  0  0  0  0  0
    1.8584   -0.8772    0.2788 C   0  0  0  0  0  0  0  0  0  0  0  0
    1.2207    0.3360   -0.0767 C   0  0  0  0  0  0  0  0  0  0  0  0
   -1.0129    1.5700    0.0291 C   0  0  0  0  0  0  0  0  0  0  0  0
   -3.1265    0.3966   -0.0163 C   0  0  0  0  0  0  0  0  0  0  0  0
   -2.3942    1.5621    0.0448 C   0  0  0  0  0  0  0  0  0  0  0  0
    3.2578   -0.9732    0.3129 C   0  0  0  0  0  0  0  0  0  0  0  0
    2.0428    1.4113   -0.4549 C   0  0  0  0  0  0  0  0  0  0  0  0
   -1.7425    3.6168    0.1971 C   0  0  0  0  0  0  0  0  0  0  0  0
    4.0442    0.1170   -0.0436 C   0  0  0  0  0  0  0  0  0  0  0  0
    3.4372    1.3042   -0.4355 C   0  0  0  0  0  0  0  0  0  0  0  0
    0.0211   -2.2725   -1.2450 H   0  0  0  0  0  0  0  0  0  0  0  0
    1.5939   -3.0000    0.5093 H   0  0  0  0  0  0  0  0  0  0  0  0
    0.7852   -2.0017    1.7291 H   0  0  0  0  0  0  0  0  0  0  0  0
   -3.5866   -2.2664    0.9280 H   0  0  0  0  0  0  0  0  0  0  0  0
   -4.0441   -2.0437   -0.7692 H   0  0  0  0  0  0  0  0  0  0  0  0
   -1.2380   -3.2307    1.2415 H   0  0  0  0  0  0  0  0  0  0  0  0
   -2.8682   -4.2387   -0.2457 H   0  0  0  0  0  0  0  0  0  0  0  0
   -2.1549   -3.3211   -1.5649 H   0  0  0  0  0  0  0  0  0  0  0  0
   -4.2110    0.4179    0.0098 H   0  0  0  0  0  0  0  0  0  0  0  0
    3.7336   -1.9048    0.6103 H   0  0  0  0  0  0  0  0  0  0  0  0
    1.6239    2.3552   -0.7906 H   0  0  0  0  0  0  0  0  0  0  0  0
   -1.7524    4.3156   -0.6472 H   0  0  0  0  0  0  0  0  0  0  0  0
   -1.7488    4.1931    1.1293 H   0  0  0  0  0  0  0  0  0  0  0  0
    4.0365    2.1611   -0.7324 H   0  0  0  0  0  0  0  0  0  0  0  0
    5.7836    0.8682   -0.2980 H   0  0  0  0  0  0  0  0  0  0  0  0
  1 14  1  0  0  0  0
  1 19  1  0  0  0  0
  2 16  1  0  0  0  0
  2 19  1  0  0  0  0
  3 20  1  0  0  0  0
  3 36  1  0  0  0  0
  4  5  1  0  0  0  0
  4 11  1  0  0  0  0
  4 27  1  0  0  0  0
  5  6  1  0  0  0  0
  5  7  1  0  0  0  0
  5 22  1  0  0  0  0
  6  8  2  0  0  0  0
  6  9  1  0  0  0  0
  7 12  1  0  0  0  0
  7 23  1  0  0  0  0
  7 24  1  0  0  0  0
  8 13  1  0  0  0  0
  8 14  1  0  0  0  0
  9 10  1  0  0  0  0
  9 15  2  0  0  0  0
 10 11  1  0  0  0  0
 10 25  1  0  0  0  0
 10 26  1  0  0  0  0
 11 28  1  0  0  0  0
 11 29  1  0  0  0  0
 12 13  2  0  0  0  0
 12 17  1  0  0  0  0
 13 18  1  0  0  0  0
 14 16  2  0  0  0  0
 15 16  1  0  0  0  0
 15 30  1  0  0  0  0
 17 20  2  0  0  0  0
 17 31  1  0  0  0  0
 18 21  2  0  0  0  0
 18 32  1  0  0  0  0
 19 33  1  0  0  0  0
 19 34  1  0  0  0  0
 20 21  1  0  0  0  0
 21 35  1  0  0  0  0
M  END
> <PUBCHEM_COMPOUND_CID>
164710

> <PUBCHEM_CONFORMER_RMSD>
0.6

> <PUBCHEM_CONFORMER_DIVERSEORDER>
1

> <PUBCHEM_MMFF94_PARTIAL_CHARGES>
25
1 -0.36
10 0.14
11 0.27
12 -0.14
14 0.08
15 -0.15
16 0.08
17 -0.15
18 -0.15
19 0.56
2 -0.36
20 0.08
21 -0.15
27 0.36
3 -0.53
30 0.15
31 0.15
32 0.15
35 0.15
36 0.45
4 -0.9
5 0.41
6 -0.14
7 0.14
9 -0.14

> <PUBCHEM_EFFECTIVE_ROTOR_COUNT>
1.4

> <PUBCHEM_PHARMACOPHORE_FEATURES>
10
1 1 acceptor
1 2 acceptor
1 3 donor
1 4 cation
1 4 donor
5 1 2 14 16 19 rings
6 12 13 17 18 20 21 rings
6 4 5 6 9 10 11 rings
6 5 6 7 8 12 13 rings
6 6 8 9 14 15 16 rings

> <PUBCHEM_HEAVY_ATOM_COUNT>
21

> <PUBCHEM_ATOM_DEF_STEREO_COUNT>
1

> <PUBCHEM_ATOM_UDEF_STEREO_COUNT>
0

> <PUBCHEM_BOND_DEF_STEREO_COUNT>
0

> <PUBCHEM_BOND_UDEF_STEREO_COUNT>
0

> <PUBCHEM_ISOTOPIC_ATOM_COUNT>
0

> <PUBCHEM_COMPONENT_COUNT>
1

> <PUBCHEM_CACTVS_TAUTO_COUNT>
9

> <PUBCHEM_CONFORMER_ID>
0002836600000001

> <PUBCHEM_MMFF94_ENERGY>
56.2968

> <PUBCHEM_FEATURE_SELFOVERLAP>
50.989

> <PUBCHEM_SHAPE_FINGERPRINT>
10319926 262 18190767318347455018
10411042 1 18050005493563676014
10493431 412 18263072374809752801
10616163 171 18410291398158506294
10967382 1 16825589804549016647
1100329 8 18338511924901813185
11578080 2 17197744395721274716
12173636 292 18337959020396869020
12390115 104 18116697694312096008
12403259 226 18189338978963858960
12553582 1 18194121811394830611
12788726 201 18342179925498460554
13027679 85 18194966245178277599
13140716 1 18267579104966712843
138480 1 16537076871162662703
14081887 123 18263660493102431432
14178342 30 18340506529357613602
14790565 3 18337100268105216577
15042514 8 18339355280121350859
15196674 1 18339924797190180198
15442244 35 18341336699201781378
16087824 20 18410575094556098309
16752209 62 18410304617708685903
16945 1 18266740362457856079
17492 89 18412826902058599634
19591789 44 17762614392871032566
20510252 161 18334292093257008129
20775438 99 16384845599595468887
20905425 154 17903066742479133252
21029758 11 18121787131947447487
21041028 32 18125989478305500915
21267235 1 18268702827557848746
221490 88 17332525670754478595
2334 1 18195529190441254979
23402539 116 18262242118591517487
23419403 2 16613978367998326540
23557571 272 18187357714876686980
23558518 356 18343013432600724018
23559900 14 18188211018063440726
238 59 16763137471119471701
2748010 2 15964552773965988587
3091708 16 9345520636344182089
335352 9 18411138021779208015
350125 39 18194395830133858889
352729 6 18337956821642359151
5104073 3 18410576159101236088
6438718 38 17967810527208652815
7097593 13 17913225427140811594
7364860 26 17472979978914216333
81228 2 18265037055552817411
90525 40 18338236084394310383
9709674 26 18333726931938962814

> <PUBCHEM_SHAPE_MULTIPOLES>
409.58
6.59
4.06
0.67
7.38
0.79
0
-0.17
-0.3
-4.16
0.15
0.06
-0.08
-0.62

> <PUBCHEM_SHAPE_SELFOVERLAP>
936.401

> <PUBCHEM_SHAPE_VOLUME>
210.7

> <PUBCHEM_COORDINATE_TYPE>
2
5
10

$$$$

