439286
  -OEChem-07051212443D

 19 18  0     1  0  0  0  0  0999 V2000
    0.1912    1.0873    1.1936 O   0  0  0  0  0  0  0  0  0  0  0  0
    2.4988    0.8213    0.2342 O   0  0  0  0  0  0  0  0  0  0  0  0
    1.7748   -0.8704   -1.1390 O   0  0  0  0  0  0  0  0  0  0  0  0
   -0.8863   -0.6732   -0.1203 C   0  0  2  0  0  0  0  0  0  0  0  0
   -2.2418    0.0455   -0.0399 C   0  0  0  0  0  0  0  0  0  0  0  0
   -0.8914   -1.9230    0.7580 C   0  0  0  0  0  0  0  0  0  0  0  0
    0.2539    0.2252    0.3291 C   0  0  0  0  0  0  0  0  0  0  0  0
   -2.2944    1.2945   -0.9110 C   0  0  0  0  0  0  0  0  0  0  0  0
    1.5953   -0.0071   -0.3047 C   0  0  0  0  0  0  0  0  0  0  0  0
   -0.7210   -0.9619   -1.1649 H   0  0  0  0  0  0  0  0  0  0  0  0
   -3.0365   -0.6400   -0.3584 H   0  0  0  0  0  0  0  0  0  0  0  0
   -2.4620    0.3302    0.9964 H   0  0  0  0  0  0  0  0  0  0  0  0
   -1.6847   -2.6124    0.4510 H   0  0  0  0  0  0  0  0  0  0  0  0
    0.0632   -2.4558    0.6884 H   0  0  0  0  0  0  0  0  0  0  0  0
   -1.0487   -1.6682    1.8122 H   0  0  0  0  0  0  0  0  0  0  0  0
   -1.5918    2.0607   -0.5713 H   0  0  0  0  0  0  0  0  0  0  0  0
   -2.0650    1.0539   -1.9539 H   0  0  0  0  0  0  0  0  0  0  0  0
   -3.2986    1.7298   -0.8788 H   0  0  0  0  0  0  0  0  0  0  0  0
    3.3966    0.6843   -0.1366 H   0  0  0  0  0  0  0  0  0  0  0  0
  1  7  2  0  0  0  0
  2  9  1  0  0  0  0
  2 19  1  0  0  0  0
  3  9  2  0  0  0  0
  4  5  1  0  0  0  0
  4  6  1  0  0  0  0
  4  7  1  0  0  0  0
  4 10  1  0  0  0  0
  5  8  1  0  0  0  0
  5 11  1  0  0  0  0
  5 12  1  0  0  0  0
  6 13  1  0  0  0  0
  6 14  1  0  0  0  0
  6 15  1  0  0  0  0
  7  9  1  0  0  0  0
  8 16  1  0  0  0  0
  8 17  1  0  0  0  0
  8 18  1  0  0  0  0
M  END
> <PUBCHEM_COMPOUND_CID>
439286

> <PUBCHEM_CONFORMER_RMSD>
0.6

> <PUBCHEM_CONFORMER_DIVERSEORDER>
1
4
5
8
7
6
2
3

> <PUBCHEM_MMFF94_PARTIAL_CHARGES>
7
1 -0.57
19 0.5
2 -0.65
3 -0.57
4 0.06
7 0.51
9 0.72

> <PUBCHEM_EFFECTIVE_ROTOR_COUNT>
3

> <PUBCHEM_PHARMACOPHORE_FEATURES>
6
1 1 acceptor
1 2 acceptor
1 3 acceptor
1 6 hydrophobe
1 8 hydrophobe
3 2 3 9 anion

> <PUBCHEM_HEAVY_ATOM_COUNT>
9

> <PUBCHEM_ATOM_DEF_STEREO_COUNT>
1

> <PUBCHEM_ATOM_UDEF_STEREO_COUNT>
0

> <PUBCHEM_BOND_DEF_STEREO_COUNT>
0

> <PUBCHEM_BOND_UDEF_STEREO_COUNT>
0

> <PUBCHEM_ISOTOPIC_ATOM_COUNT>
0

> <PUBCHEM_COMPONENT_COUNT>
1

> <PUBCHEM_CACTVS_TAUTO_COUNT>
2

> <PUBCHEM_CONFORMER_ID>
0006B3F600000001

> <PUBCHEM_MMFF94_ENERGY>
10.5757

> <PUBCHEM_FEATURE_SELFOVERLAP>
30.516

> <PUBCHEM_SHAPE_FINGERPRINT>
12716758 59 18342739615455334458
14128692 85 14563113363606953989
20653085 51 17631431501525722156
20653091 64 6770139017697570927
21040471 1 18202568405653056011
23552449 11 6770419328738014333
29004967 10 17749941164034905306
5084963 1 18411136939832401997

> <PUBCHEM_SHAPE_MULTIPOLES>
167.61
3.17
1.55
1.01
0.27
0.6
-0.01
-1.07
0.66
-0.69
-0.14
0.21
-0.08
0.54

> <PUBCHEM_SHAPE_SELFOVERLAP>
317.567

> <PUBCHEM_SHAPE_VOLUME>
103.5

> <PUBCHEM_COORDINATE_TYPE>
2
5
10

$$$$

