442412
  -OEChem-07051212582D

 54 56  0     1  0  0  0  0  0999 V2000
    4.2690   -0.1550    0.0000 O   0  0  0  0  0  0  0  0  0  0  0  0
    6.0010   -0.1550    0.0000 O   0  0  0  0  0  0  0  0  0  0  0  0
    4.2690   -3.1550    0.0000 O   0  0  0  0  0  0  0  0  0  0  0  0
    2.5369   -2.1550    0.0000 O   0  0  0  0  0  0  0  0  0  0  0  0
    6.0010   -2.1550    0.0000 O   0  0  0  0  0  0  0  0  0  0  0  0
    7.7331    2.8450    0.0000 O   0  0  0  0  0  0  0  0  0  0  0  0
    7.7331   -0.1550    0.0000 O   0  0  0  0  0  0  0  0  0  0  0  0
    4.2690    2.8450    0.0000 O   0  0  0  0  0  0  0  0  0  0  0  0
   12.9292    2.8450    0.0000 O   0  0  0  0  0  0  0  0  0  0  0  0
    4.2690   -2.1550    0.0000 C   0  0  2  0  0  0  0  0  0  0  0  0
    3.4030   -1.6550    0.0000 C   0  0  2  0  0  0  0  0  0  0  0  0
    5.1350   -1.6550    0.0000 C   0  0  2  0  0  0  0  0  0  0  0  0
    3.4030   -0.6550    0.0000 C   0  0  2  0  0  0  0  0  0  0  0  0
    5.1350   -0.6550    0.0000 C   0  0  1  0  0  0  0  0  0  0  0  0
    2.5369   -0.1550    0.0000 C   0  0  0  0  0  0  0  0  0  0  0  0
    6.0010    0.8450    0.0000 C   0  0  0  0  0  0  0  0  0  0  0  0
    6.8671    1.3450    0.0000 C   0  0  0  0  0  0  0  0  0  0  0  0
    5.1350    1.3450    0.0000 C   0  0  0  0  0  0  0  0  0  0  0  0
    7.7331    0.8450    0.0000 C   0  0  0  0  0  0  0  0  0  0  0  0
    8.5991    1.3450    0.0000 C   0  0  0  0  0  0  0  0  0  0  0  0
    6.8671    2.3450    0.0000 C   0  0  0  0  0  0  0  0  0  0  0  0
    9.4651    0.8450    0.0000 C   0  0  0  0  0  0  0  0  0  0  0  0
    5.1350    2.3450    0.0000 C   0  0  0  0  0  0  0  0  0  0  0  0
    6.0010    2.8450    0.0000 C   0  0  0  0  0  0  0  0  0  0  0  0
   10.3312    1.3450    0.0000 C   0  0  0  0  0  0  0  0  0  0  0  0
   11.1972    0.8450    0.0000 C   0  0  0  0  0  0  0  0  0  0  0  0
   10.3312    2.3450    0.0000 C   0  0  0  0  0  0  0  0  0  0  0  0
   12.0632    1.3450    0.0000 C   0  0  0  0  0  0  0  0  0  0  0  0
   11.1972    2.8450    0.0000 C   0  0  0  0  0  0  0  0  0  0  0  0
   12.0632    2.3450    0.0000 C   0  0  0  0  0  0  0  0  0  0  0  0
    4.8059   -2.4650    0.0000 H   0  0  0  0  0  0  0  0  0  0  0  0
    3.4030   -2.2750    0.0000 H   0  0  0  0  0  0  0  0  0  0  0  0
    5.1350   -2.2750    0.0000 H   0  0  0  0  0  0  0  0  0  0  0  0
    3.4030   -0.0350    0.0000 H   0  0  0  0  0  0  0  0  0  0  0  0
    5.1350   -0.0350    0.0000 H   0  0  0  0  0  0  0  0  0  0  0  0
    2.8469    0.3819    0.0000 H   0  0  0  0  0  0  0  0  0  0  0  0
    2.0000    0.1550    0.0000 H   0  0  0  0  0  0  0  0  0  0  0  0
    2.2269   -0.6919    0.0000 H   0  0  0  0  0  0  0  0  0  0  0  0
    3.7320   -3.4650    0.0000 H   0  0  0  0  0  0  0  0  0  0  0  0
    2.0000   -1.8450    0.0000 H   0  0  0  0  0  0  0  0  0  0  0  0
    6.0010   -2.7750    0.0000 H   0  0  0  0  0  0  0  0  0  0  0  0
    4.5981    1.0350    0.0000 H   0  0  0  0  0  0  0  0  0  0  0  0
    8.9976    1.8200    0.0000 H   0  0  0  0  0  0  0  0  0  0  0  0
    8.2006    1.8200    0.0000 H   0  0  0  0  0  0  0  0  0  0  0  0
    9.0666    0.3701    0.0000 H   0  0  0  0  0  0  0  0  0  0  0  0
    9.8637    0.3701    0.0000 H   0  0  0  0  0  0  0  0  0  0  0  0
    6.0010    3.4650    0.0000 H   0  0  0  0  0  0  0  0  0  0  0  0
   11.1972    0.2250    0.0000 H   0  0  0  0  0  0  0  0  0  0  0  0
    9.7942    2.6550    0.0000 H   0  0  0  0  0  0  0  0  0  0  0  0
    7.7331    3.4650    0.0000 H   0  0  0  0  0  0  0  0  0  0  0  0
    4.2690    3.4650    0.0000 H   0  0  0  0  0  0  0  0  0  0  0  0
   12.6002    1.0350    0.0000 H   0  0  0  0  0  0  0  0  0  0  0  0
   11.1972    3.4650    0.0000 H   0  0  0  0  0  0  0  0  0  0  0  0
   13.4662    2.5350    0.0000 H   0  0  0  0  0  0  0  0  0  0  0  0
  1 13  1  0  0  0  0
  1 14  1  0  0  0  0
 14  2  1  1  0  0  0
  2 16  1  0  0  0  0
 10  3  1  6  0  0  0
  3 39  1  0  0  0  0
 11  4  1  1  0  0  0
  4 40  1  0  0  0  0
 12  5  1  6  0  0  0
  5 41  1  0  0  0  0
  6 21  1  0  0  0  0
  6 50  1  0  0  0  0
  7 19  2  0  0  0  0
  8 23  1  0  0  0  0
  8 51  1  0  0  0  0
  9 30  1  0  0  0  0
  9 54  1  0  0  0  0
 10 11  1  0  0  0  0
 10 12  1  0  0  0  0
 10 31  1  0  0  0  0
 11 13  1  0  0  0  0
 11 32  1  0  0  0  0
 12 14  1  0  0  0  0
 12 33  1  0  0  0  0
 13 15  1  6  0  0  0
 13 34  1  0  0  0  0
 14 35  1  0  0  0  0
 15 36  1  0  0  0  0
 15 37  1  0  0  0  0
 15 38  1  0  0  0  0
 16 17  1  0  0  0  0
 16 18  2  0  0  0  0
 17 19  1  0  0  0  0
 17 21  2  0  0  0  0
 18 23  1  0  0  0  0
 18 42  1  0  0  0  0
 19 20  1  0  0  0  0
 20 22  1  0  0  0  0
 20 43  1  0  0  0  0
 20 44  1  0  0  0  0
 21 24  1  0  0  0  0
 22 25  1  0  0  0  0
 22 45  1  0  0  0  0
 22 46  1  0  0  0  0
 23 24  2  0  0  0  0
 24 47  1  0  0  0  0
 25 26  2  0  0  0  0
 25 27  1  0  0  0  0
 26 28  1  0  0  0  0
 26 48  1  0  0  0  0
 27 29  2  0  0  0  0
 27 49  1  0  0  0  0
 28 30  2  0  0  0  0
 28 52  1  0  0  0  0
 29 30  1  0  0  0  0
 29 53  1  0  0  0  0
M  END
> <PUBCHEM_COMPOUND_CID>
442412

> <PUBCHEM_COMPOUND_CANONICALIZED>
1

> <PUBCHEM_CACTVS_COMPLEXITY>
565

> <PUBCHEM_CACTVS_HBOND_ACCEPTOR>
9

> <PUBCHEM_CACTVS_HBOND_DONOR>
6

> <PUBCHEM_CACTVS_ROTATABLE_BOND>
6

> <PUBCHEM_CACTVS_SUBSKEYS>
AAADceB4PAAAAAAAAAAAAAAAAAAAAAAAAAA0YIAAAAAAAAABQAAAGgAACAAADBSwmAMyDoAABgCIAqBSAAACCAAkIAAIiAEGCMgdNzaGNRqieWCl4BUPuQfI7OzOIAAACAAIAABAAAAQABAAAAAAAAAAAA==

> <PUBCHEM_IUPAC_OPENEYE_NAME>
1-[2,4-dihydroxy-6-[(2S,3R,4R,5R,6S)-3,4,5-trihydroxy-6-methyl-tetrahydropyran-2-yl]oxy-phenyl]-3-(4-hydroxyphenyl)propan-1-one

> <PUBCHEM_IUPAC_CAS_NAME>
1-[2,4-dihydroxy-6-[[(2S,3R,4R,5R,6S)-3,4,5-trihydroxy-6-methyl-2-oxanyl]oxy]phenyl]-3-(4-hydroxyphenyl)-1-propanone

> <PUBCHEM_IUPAC_NAME>
1-[2,4-dihydroxy-6-[(2S,3R,4R,5R,6S)-3,4,5-trihydroxy-6-methyloxan-2-yl]oxyphenyl]-3-(4-hydroxyphenyl)propan-1-one

> <PUBCHEM_IUPAC_SYSTEMATIC_NAME>
3-(4-hydroxyphenyl)-1-[2-[(2S,3R,4R,5R,6S)-6-methyl-3,4,5-tris(oxidanyl)oxan-2-yl]oxy-4,6-bis(oxidanyl)phenyl]propan-1-one

> <PUBCHEM_IUPAC_TRADITIONAL_NAME>
1-[2,4-dihydroxy-6-[(2S,3R,4R,5R,6S)-3,4,5-trihydroxy-6-methyl-tetrahydropyran-2-yl]oxy-phenyl]-3-(4-hydroxyphenyl)propan-1-one

> <PUBCHEM_IUPAC_INCHI>
InChI=1S/C21H24O9/c1-10-18(26)19(27)20(28)21(29-10)30-16-9-13(23)8-15(25)17(16)14(24)7-4-11-2-5-12(22)6-3-11/h2-3,5-6,8-10,18-23,25-28H,4,7H2,1H3/t10-,18-,19+,20+,21-/m0/s1

> <PUBCHEM_IUPAC_INCHIKEY>
GLLUYNRFPAMGQR-PPNXFBDMSA-N

> <PUBCHEM_XLOGP3_AA>
1.3

> <PUBCHEM_EXACT_MASS>
420.142032

> <PUBCHEM_MOLECULAR_FORMULA>
C21H24O9

> <PUBCHEM_MOLECULAR_WEIGHT>
420.40986

> <PUBCHEM_OPENEYE_CAN_SMILES>
CC1C(C(C(C(O1)OC2=CC(=CC(=C2C(=O)CCC3=CC=C(C=C3)O)O)O)O)O)O

> <PUBCHEM_OPENEYE_ISO_SMILES>
C[C@H]1[C@@H]([C@H]([C@H]([C@@H](O1)OC2=CC(=CC(=C2C(=O)CCC3=CC=C(C=C3)O)O)O)O)O)O

> <PUBCHEM_CACTVS_TPSA>
157

> <PUBCHEM_MONOISOTOPIC_WEIGHT>
420.142032

> <PUBCHEM_TOTAL_CHARGE>
0

> <PUBCHEM_HEAVY_ATOM_COUNT>
30

> <PUBCHEM_ATOM_DEF_STEREO_COUNT>
5

> <PUBCHEM_ATOM_UDEF_STEREO_COUNT>
0

> <PUBCHEM_BOND_DEF_STEREO_COUNT>
0

> <PUBCHEM_BOND_UDEF_STEREO_COUNT>
0

> <PUBCHEM_ISOTOPIC_ATOM_COUNT>
0

> <PUBCHEM_COMPONENT_COUNT>
1

> <PUBCHEM_CACTVS_TAUTO_COUNT>
42

> <PUBCHEM_COORDINATE_TYPE>
1
5
255

> <PUBCHEM_BONDANNOTATIONS>
13  15  6
16  17  8
16  18  8
17  21  8
18  23  8
14  2  5
21  24  8
23  24  8
25  26  8
25  27  8
26  28  8
27  29  8
28  30  8
29  30  8
10  3  6
11  4  5
12  5  6

$$$$

