12905061
  -OEChem-07051213042D

134133  0     1  0  0  0  0  0999 V2000
   18.4545    0.8100    0.0000 O   0  0  0  0  0  0  0  0  0  0  0  0
   15.8564    0.3100    0.0000 O   0  0  0  0  0  0  0  0  0  0  0  0
   16.7224   -1.1900    0.0000 O   0  0  0  0  0  0  0  0  0  0  0  0
   24.5167    0.3100    0.0000 C   0  0  3  0  0  0  0  0  0  0  0  0
    9.7942    0.8100    0.0000 C   0  0  3  0  0  0  0  0  0  0  0  0
   25.3827    0.8100    0.0000 C   0  0  0  0  0  0  0  0  0  0  0  0
    8.9282    0.3100    0.0000 C   0  0  0  0  0  0  0  0  0  0  0  0
   27.9808    0.3100    0.0000 C   0  0  3  0  0  0  0  0  0  0  0  0
    6.3301    0.8100    0.0000 C   0  0  3  0  0  0  0  0  0  0  0  0
   23.6506    0.8100    0.0000 C   0  0  0  0  0  0  0  0  0  0  0  0
   26.2487    0.3100    0.0000 C   0  0  0  0  0  0  0  0  0  0  0  0
    8.0622    0.8100    0.0000 C   0  0  0  0  0  0  0  0  0  0  0  0
   27.1147    0.8100    0.0000 C   0  0  0  0  0  0  0  0  0  0  0  0
   10.6603    0.3100    0.0000 C   0  0  0  0  0  0  0  0  0  0  0  0
    7.1962    0.3100    0.0000 C   0  0  0  0  0  0  0  0  0  0  0  0
   22.7846    0.3100    0.0000 C   0  0  0  0  0  0  0  0  0  0  0  0
   11.5263    0.8100    0.0000 C   0  0  0  0  0  0  0  0  0  0  0  0
   28.8468    0.8100    0.0000 C   0  0  0  0  0  0  0  0  0  0  0  0
    5.4641    0.3100    0.0000 C   0  0  0  0  0  0  0  0  0  0  0  0
   21.9186    0.8100    0.0000 C   0  0  0  0  0  0  0  0  0  0  0  0
   12.3923    0.3100    0.0000 C   0  0  0  0  0  0  0  0  0  0  0  0
   21.0526    0.3100    0.0000 C   0  0  3  0  0  0  0  0  0  0  0  0
   13.2583    0.8100    0.0000 C   0  0  3  0  0  0  0  0  0  0  0  0
   29.7128    0.3100    0.0000 C   0  0  0  0  0  0  0  0  0  0  0  0
    4.5981    0.8100    0.0000 C   0  0  0  0  0  0  0  0  0  0  0  0
   24.5167   -0.6900    0.0000 C   0  0  0  0  0  0  0  0  0  0  0  0
    9.7942    1.8100    0.0000 C   0  0  0  0  0  0  0  0  0  0  0  0
   27.9808   -0.6900    0.0000 C   0  0  0  0  0  0  0  0  0  0  0  0
    6.3301    1.8100    0.0000 C   0  0  0  0  0  0  0  0  0  0  0  0
   20.1865    0.8100    0.0000 C   0  0  0  0  0  0  0  0  0  0  0  0
   14.1244    0.3100    0.0000 C   0  0  0  0  0  0  0  0  0  0  0  0
   30.5788    0.8100    0.0000 C   0  0  0  0  0  0  0  0  0  0  0  0
    3.7320    0.3100    0.0000 C   0  0  0  0  0  0  0  0  0  0  0  0
   31.4449    0.3100    0.0000 C   0  0  0  0  0  0  0  0  0  0  0  0
    2.8660    0.8100    0.0000 C   0  0  0  0  0  0  0  0  0  0  0  0
   21.0526   -0.6900    0.0000 C   0  0  0  0  0  0  0  0  0  0  0  0
   13.2583    1.8100    0.0000 C   0  0  0  0  0  0  0  0  0  0  0  0
   19.3205    0.3100    0.0000 C   0  0  0  0  0  0  0  0  0  0  0  0
   14.9904    0.8100    0.0000 C   0  0  0  0  0  0  0  0  0  0  0  0
   17.5885    0.3100    0.0000 C   0  0  1  0  0  0  0  0  0  0  0  0
   32.3109    0.8100    0.0000 C   0  0  0  0  0  0  0  0  0  0  0  0
   31.4449   -0.6900    0.0000 C   0  0  0  0  0  0  0  0  0  0  0  0
    2.0000    0.3100    0.0000 C   0  0  0  0  0  0  0  0  0  0  0  0
    2.8660    1.8100    0.0000 C   0  0  0  0  0  0  0  0  0  0  0  0
   16.7224    0.8100    0.0000 C   0  0  0  0  0  0  0  0  0  0  0  0
   17.5885   -0.6900    0.0000 C   0  0  0  0  0  0  0  0  0  0  0  0
   25.0536    0.0000    0.0000 H   0  0  0  0  0  0  0  0  0  0  0  0
    9.2573    1.1200    0.0000 H   0  0  0  0  0  0  0  0  0  0  0  0
   25.7812    1.2850    0.0000 H   0  0  0  0  0  0  0  0  0  0  0  0
   24.9842    1.2850    0.0000 H   0  0  0  0  0  0  0  0  0  0  0  0
    8.5297   -0.1649    0.0000 H   0  0  0  0  0  0  0  0  0  0  0  0
    9.3267   -0.1649    0.0000 H   0  0  0  0  0  0  0  0  0  0  0  0
   28.5177    0.0000    0.0000 H   0  0  0  0  0  0  0  0  0  0  0  0
    6.8671    1.1200    0.0000 H   0  0  0  0  0  0  0  0  0  0  0  0
   24.0492    1.2850    0.0000 H   0  0  0  0  0  0  0  0  0  0  0  0
   23.2521    1.2850    0.0000 H   0  0  0  0  0  0  0  0  0  0  0  0
   25.8502   -0.1649    0.0000 H   0  0  0  0  0  0  0  0  0  0  0  0
   26.6472   -0.1649    0.0000 H   0  0  0  0  0  0  0  0  0  0  0  0
    8.4607    1.2850    0.0000 H   0  0  0  0  0  0  0  0  0  0  0  0
    7.6636    1.2850    0.0000 H   0  0  0  0  0  0  0  0  0  0  0  0
   27.5133    1.2850    0.0000 H   0  0  0  0  0  0  0  0  0  0  0  0
   26.7162    1.2850    0.0000 H   0  0  0  0  0  0  0  0  0  0  0  0
   10.2617   -0.1649    0.0000 H   0  0  0  0  0  0  0  0  0  0  0  0
   11.0588   -0.1649    0.0000 H   0  0  0  0  0  0  0  0  0  0  0  0
    6.7976   -0.1649    0.0000 H   0  0  0  0  0  0  0  0  0  0  0  0
    7.5947   -0.1649    0.0000 H   0  0  0  0  0  0  0  0  0  0  0  0
   22.3861   -0.1649    0.0000 H   0  0  0  0  0  0  0  0  0  0  0  0
   23.1831   -0.1649    0.0000 H   0  0  0  0  0  0  0  0  0  0  0  0
   11.9248    1.2850    0.0000 H   0  0  0  0  0  0  0  0  0  0  0  0
   11.1278    1.2850    0.0000 H   0  0  0  0  0  0  0  0  0  0  0  0
   29.2453    1.2850    0.0000 H   0  0  0  0  0  0  0  0  0  0  0  0
   28.4483    1.2850    0.0000 H   0  0  0  0  0  0  0  0  0  0  0  0
    5.0656   -0.1649    0.0000 H   0  0  0  0  0  0  0  0  0  0  0  0
    5.8626   -0.1649    0.0000 H   0  0  0  0  0  0  0  0  0  0  0  0
   22.3171    1.2850    0.0000 H   0  0  0  0  0  0  0  0  0  0  0  0
   21.5201    1.2850    0.0000 H   0  0  0  0  0  0  0  0  0  0  0  0
   11.9938   -0.1649    0.0000 H   0  0  0  0  0  0  0  0  0  0  0  0
   12.7908   -0.1649    0.0000 H   0  0  0  0  0  0  0  0  0  0  0  0
   21.5895    0.0000    0.0000 H   0  0  0  0  0  0  0  0  0  0  0  0
   13.7953    1.1200    0.0000 H   0  0  0  0  0  0  0  0  0  0  0  0
   29.3143   -0.1649    0.0000 H   0  0  0  0  0  0  0  0  0  0  0  0
   30.1113   -0.1649    0.0000 H   0  0  0  0  0  0  0  0  0  0  0  0
    4.9966    1.2850    0.0000 H   0  0  0  0  0  0  0  0  0  0  0  0
    4.1996    1.2850    0.0000 H   0  0  0  0  0  0  0  0  0  0  0  0
   23.8967   -0.6900    0.0000 H   0  0  0  0  0  0  0  0  0  0  0  0
   24.5167   -1.3100    0.0000 H   0  0  0  0  0  0  0  0  0  0  0  0
   25.1367   -0.6900    0.0000 H   0  0  0  0  0  0  0  0  0  0  0  0
   10.4142    1.8100    0.0000 H   0  0  0  0  0  0  0  0  0  0  0  0
    9.7942    2.4300    0.0000 H   0  0  0  0  0  0  0  0  0  0  0  0
    9.1742    1.8100    0.0000 H   0  0  0  0  0  0  0  0  0  0  0  0
   27.3608   -0.6900    0.0000 H   0  0  0  0  0  0  0  0  0  0  0  0
   27.9808   -1.3100    0.0000 H   0  0  0  0  0  0  0  0  0  0  0  0
   28.6008   -0.6900    0.0000 H   0  0  0  0  0  0  0  0  0  0  0  0
    6.9501    1.8100    0.0000 H   0  0  0  0  0  0  0  0  0  0  0  0
    6.3301    2.4300    0.0000 H   0  0  0  0  0  0  0  0  0  0  0  0
    5.7101    1.8100    0.0000 H   0  0  0  0  0  0  0  0  0  0  0  0
   20.5851    1.2850    0.0000 H   0  0  0  0  0  0  0  0  0  0  0  0
   19.7880    1.2850    0.0000 H   0  0  0  0  0  0  0  0  0  0  0  0
   13.7258   -0.1649    0.0000 H   0  0  0  0  0  0  0  0  0  0  0  0
   14.5229   -0.1649    0.0000 H   0  0  0  0  0  0  0  0  0  0  0  0
   30.9774    1.2850    0.0000 H   0  0  0  0  0  0  0  0  0  0  0  0
   30.1803    1.2850    0.0000 H   0  0  0  0  0  0  0  0  0  0  0  0
    3.3335   -0.1649    0.0000 H   0  0  0  0  0  0  0  0  0  0  0  0
    4.1306   -0.1649    0.0000 H   0  0  0  0  0  0  0  0  0  0  0  0
   31.4449    0.9300    0.0000 H   0  0  0  0  0  0  0  0  0  0  0  0
    2.8660    0.1900    0.0000 H   0  0  0  0  0  0  0  0  0  0  0  0
   20.4326   -0.6900    0.0000 H   0  0  0  0  0  0  0  0  0  0  0  0
   21.0526   -1.3100    0.0000 H   0  0  0  0  0  0  0  0  0  0  0  0
   21.6726   -0.6900    0.0000 H   0  0  0  0  0  0  0  0  0  0  0  0
   13.8783    1.8100    0.0000 H   0  0  0  0  0  0  0  0  0  0  0  0
   13.2583    2.4300    0.0000 H   0  0  0  0  0  0  0  0  0  0  0  0
   12.6383    1.8100    0.0000 H   0  0  0  0  0  0  0  0  0  0  0  0
   18.9220   -0.1649    0.0000 H   0  0  0  0  0  0  0  0  0  0  0  0
   19.7190   -0.1649    0.0000 H   0  0  0  0  0  0  0  0  0  0  0  0
   15.3889    1.2850    0.0000 H   0  0  0  0  0  0  0  0  0  0  0  0
   14.5919    1.2850    0.0000 H   0  0  0  0  0  0  0  0  0  0  0  0
   17.5885    0.9300    0.0000 H   0  0  0  0  0  0  0  0  0  0  0  0
   30.8249   -0.6900    0.0000 H   0  0  0  0  0  0  0  0  0  0  0  0
   31.4449   -1.3100    0.0000 H   0  0  0  0  0  0  0  0  0  0  0  0
   32.0649   -0.6900    0.0000 H   0  0  0  0  0  0  0  0  0  0  0  0
   32.6209    0.2731    0.0000 H   0  0  0  0  0  0  0  0  0  0  0  0
   32.8478    1.1200    0.0000 H   0  0  0  0  0  0  0  0  0  0  0  0
   32.0009    1.3469    0.0000 H   0  0  0  0  0  0  0  0  0  0  0  0
    1.6900    0.8469    0.0000 H   0  0  0  0  0  0  0  0  0  0  0  0
    1.4631    0.0000    0.0000 H   0  0  0  0  0  0  0  0  0  0  0  0
    2.3100   -0.2269    0.0000 H   0  0  0  0  0  0  0  0  0  0  0  0
    3.4860    1.8100    0.0000 H   0  0  0  0  0  0  0  0  0  0  0  0
    2.8660    2.4300    0.0000 H   0  0  0  0  0  0  0  0  0  0  0  0
    2.2460    1.8100    0.0000 H   0  0  0  0  0  0  0  0  0  0  0  0
   17.1210    1.2850    0.0000 H   0  0  0  0  0  0  0  0  0  0  0  0
   16.3239    1.2850    0.0000 H   0  0  0  0  0  0  0  0  0  0  0  0
   17.8005   -1.2726    0.0000 H   0  0  0  0  0  0  0  0  0  0  0  0
   18.1990   -0.5823    0.0000 H   0  0  0  0  0  0  0  0  0  0  0  0
   16.7224   -1.8100    0.0000 H   0  0  0  0  0  0  0  0  0  0  0  0
  1 38  1  0  0  0  0
 40  1  1  6  0  0  0
  2 39  1  0  0  0  0
  2 45  1  0  0  0  0
  3 46  1  0  0  0  0
  3134  1  0  0  0  0
  4  6  1  0  0  0  0
  4 10  1  0  0  0  0
  4 26  1  0  0  0  0
  4 47  1  0  0  0  0
  5  7  1  0  0  0  0
  5 14  1  0  0  0  0
  5 27  1  0  0  0  0
  5 48  1  0  0  0  0
  6 11  1  0  0  0  0
  6 49  1  0  0  0  0
  6 50  1  0  0  0  0
  7 12  1  0  0  0  0
  7 51  1  0  0  0  0
  7 52  1  0  0  0  0
  8 13  1  0  0  0  0
  8 18  1  0  0  0  0
  8 28  1  0  0  0  0
  8 53  1  0  0  0  0
  9 15  1  0  0  0  0
  9 19  1  0  0  0  0
  9 29  1  0  0  0  0
  9 54  1  0  0  0  0
 10 16  1  0  0  0  0
 10 55  1  0  0  0  0
 10 56  1  0  0  0  0
 11 13  1  0  0  0  0
 11 57  1  0  0  0  0
 11 58  1  0  0  0  0
 12 15  1  0  0  0  0
 12 59  1  0  0  0  0
 12 60  1  0  0  0  0
 13 61  1  0  0  0  0
 13 62  1  0  0  0  0
 14 17  1  0  0  0  0
 14 63  1  0  0  0  0
 14 64  1  0  0  0  0
 15 65  1  0  0  0  0
 15 66  1  0  0  0  0
 16 20  1  0  0  0  0
 16 67  1  0  0  0  0
 16 68  1  0  0  0  0
 17 21  1  0  0  0  0
 17 69  1  0  0  0  0
 17 70  1  0  0  0  0
 18 24  1  0  0  0  0
 18 71  1  0  0  0  0
 18 72  1  0  0  0  0
 19 25  1  0  0  0  0
 19 73  1  0  0  0  0
 19 74  1  0  0  0  0
 20 22  1  0  0  0  0
 20 75  1  0  0  0  0
 20 76  1  0  0  0  0
 21 23  1  0  0  0  0
 21 77  1  0  0  0  0
 21 78  1  0  0  0  0
 22 30  1  0  0  0  0
 22 36  1  0  0  0  0
 22 79  1  0  0  0  0
 23 31  1  0  0  0  0
 23 37  1  0  0  0  0
 23 80  1  0  0  0  0
 24 32  1  0  0  0  0
 24 81  1  0  0  0  0
 24 82  1  0  0  0  0
 25 33  1  0  0  0  0
 25 83  1  0  0  0  0
 25 84  1  0  0  0  0
 26 85  1  0  0  0  0
 26 86  1  0  0  0  0
 26 87  1  0  0  0  0
 27 88  1  0  0  0  0
 27 89  1  0  0  0  0
 27 90  1  0  0  0  0
 28 91  1  0  0  0  0
 28 92  1  0  0  0  0
 28 93  1  0  0  0  0
 29 94  1  0  0  0  0
 29 95  1  0  0  0  0
 29 96  1  0  0  0  0
 30 38  1  0  0  0  0
 30 97  1  0  0  0  0
 30 98  1  0  0  0  0
 31 39  1  0  0  0  0
 31 99  1  0  0  0  0
 31100  1  0  0  0  0
 32 34  1  0  0  0  0
 32101  1  0  0  0  0
 32102  1  0  0  0  0
 33 35  1  0  0  0  0
 33103  1  0  0  0  0
 33104  1  0  0  0  0
 34 41  1  0  0  0  0
 34 42  1  0  0  0  0
 34105  1  0  0  0  0
 35 43  1  0  0  0  0
 35 44  1  0  0  0  0
 35106  1  0  0  0  0
 36107  1  0  0  0  0
 36108  1  0  0  0  0
 36109  1  0  0  0  0
 37110  1  0  0  0  0
 37111  1  0  0  0  0
 37112  1  0  0  0  0
 38113  1  0  0  0  0
 38114  1  0  0  0  0
 39115  1  0  0  0  0
 39116  1  0  0  0  0
 40 45  1  0  0  0  0
 40 46  1  0  0  0  0
 40117  1  0  0  0  0
 41121  1  0  0  0  0
 41122  1  0  0  0  0
 41123  1  0  0  0  0
 42118  1  0  0  0  0
 42119  1  0  0  0  0
 42120  1  0  0  0  0
 43124  1  0  0  0  0
 43125  1  0  0  0  0
 43126  1  0  0  0  0
 44127  1  0  0  0  0
 44128  1  0  0  0  0
 44129  1  0  0  0  0
 45130  1  0  0  0  0
 45131  1  0  0  0  0
 46132  1  0  0  0  0
 46133  1  0  0  0  0
M  END
> <PUBCHEM_COMPOUND_CID>
12905061

> <PUBCHEM_COMPOUND_CANONICALIZED>
1

> <PUBCHEM_CACTVS_COMPLEXITY>
619

> <PUBCHEM_CACTVS_HBOND_ACCEPTOR>
3

> <PUBCHEM_CACTVS_HBOND_DONOR>
1

> <PUBCHEM_CACTVS_ROTATABLE_BOND>
34

> <PUBCHEM_CACTVS_SUBSKEYS>
AAADcfB8MAAAAAAAAAAAAAAAAAAAAAAAAAAAAAAAAAAAAAAAAAAAGgAACAAADRSggAICAAAABgAAAAAAAAAAAAAAAAAAAAAAAAABEAIAAAACQAAFAAADAAGAwOAOAAAAAAAAAAAAAAAAAAAAAAAAAAAAAA==

> <PUBCHEM_IUPAC_OPENEYE_NAME>
(2R)-2,3-bis(3,7,11,15-tetramethylhexadecoxy)propan-1-ol

> <PUBCHEM_IUPAC_CAS_NAME>
(2R)-2,3-bis(3,7,11,15-tetramethylhexadecoxy)-1-propanol

> <PUBCHEM_IUPAC_NAME>
(2R)-2,3-bis(3,7,11,15-tetramethylhexadecoxy)propan-1-ol

> <PUBCHEM_IUPAC_SYSTEMATIC_NAME>
(2R)-2,3-bis(3,7,11,15-tetramethylhexadecoxy)propan-1-ol

> <PUBCHEM_IUPAC_TRADITIONAL_NAME>
(2R)-2,3-bis(3,7,11,15-tetramethylhexadecoxy)propan-1-ol

> <PUBCHEM_IUPAC_INCHI>
InChI=1S/C43H88O3/c1-35(2)17-11-19-37(5)21-13-23-39(7)25-15-27-41(9)29-31-45-34-43(33-44)46-32-30-42(10)28-16-26-40(8)24-14-22-38(6)20-12-18-36(3)4/h35-44H,11-34H2,1-10H3/t37?,38?,39?,40?,41?,42?,43-/m1/s1

> <PUBCHEM_IUPAC_INCHIKEY>
ISDBCJSGCHUHFI-DHYROEPTSA-N

> <PUBCHEM_XLOGP3_AA>
17.2

> <PUBCHEM_EXACT_MASS>
652.673347

> <PUBCHEM_MOLECULAR_FORMULA>
C43H88O3

> <PUBCHEM_MOLECULAR_WEIGHT>
653.15702

> <PUBCHEM_OPENEYE_CAN_SMILES>
CC(C)CCCC(C)CCCC(C)CCCC(C)CCOCC(CO)OCCC(C)CCCC(C)CCCC(C)CCCC(C)C

> <PUBCHEM_OPENEYE_ISO_SMILES>
CC(C)CCCC(C)CCCC(C)CCCC(C)CCOC[C@@H](CO)OCCC(C)CCCC(C)CCCC(C)CCCC(C)C

> <PUBCHEM_CACTVS_TPSA>
38.7

> <PUBCHEM_MONOISOTOPIC_WEIGHT>
652.673347

> <PUBCHEM_TOTAL_CHARGE>
0

> <PUBCHEM_HEAVY_ATOM_COUNT>
46

> <PUBCHEM_ATOM_DEF_STEREO_COUNT>
1

> <PUBCHEM_ATOM_UDEF_STEREO_COUNT>
6

> <PUBCHEM_BOND_DEF_STEREO_COUNT>
0

> <PUBCHEM_BOND_UDEF_STEREO_COUNT>
0

> <PUBCHEM_ISOTOPIC_ATOM_COUNT>
0

> <PUBCHEM_COMPONENT_COUNT>
1

> <PUBCHEM_CACTVS_TAUTO_COUNT>
1

> <PUBCHEM_COORDINATE_TYPE>
1
5
255

> <PUBCHEM_BONDANNOTATIONS>
40  1  6
22  36  3
23  37  3
4  26  3
5  27  3
8  28  3
9  29  3

$$$$

