72404
  -OEChem-07051213073D

 80 84  0     1  0  0  0  0  0999 V2000
   -0.4142   -1.3327    3.5503 O   0  0  0  0  0  0  0  0  0  0  0  0
    0.3426    1.3337    3.5672 O   0  0  0  0  0  0  0  0  0  0  0  0
   -0.0015   -0.0037   -2.0775 O   0  0  0  0  0  0  0  0  0  0  0  0
    7.0405   -0.8843    0.4949 O   0  0  0  0  0  0  0  0  0  0  0  0
   -7.0395    0.9047    0.4879 O   0  0  0  0  0  0  0  0  0  0  0  0
    0.2727   -1.1676   -0.1080 N   0  0  0  0  0  0  0  0  0  0  0  0
   -0.2704    1.1659   -0.1105 N   0  0  0  0  0  0  0  0  0  0  0  0
   -0.3904   -1.5119    1.1633 C   0  0  1  0  0  0  0  0  0  0  0  0
    0.3887    1.5085    1.1640 C   0  0  1  0  0  0  0  0  0  0  0  0
    0.1538   -0.7469    2.3720 C   0  0  1  0  0  0  0  0  0  0  0  0
   -0.1708    0.7428    2.3663 C   0  0  1  0  0  0  0  0  0  0  0  0
   -1.9199   -1.4752    1.0262 C   0  0  0  0  0  0  0  0  0  0  0  0
    1.9179    1.4664    1.0282 C   0  0  0  0  0  0  0  0  0  0  0  0
   -0.0003   -0.0019   -0.8393 C   0  0  0  0  0  0  0  0  0  0  0  0
    0.9309   -2.2715   -0.7979 C   0  0  0  0  0  0  0  0  0  0  0  0
   -0.9247    2.2710   -0.8023 C   0  0  0  0  0  0  0  0  0  0  0  0
   -2.4274   -2.6613    0.2595 C   0  0  0  0  0  0  0  0  0  0  0  0
    2.4303    2.6511    0.2626 C   0  0  0  0  0  0  0  0  0  0  0  0
    2.4248   -2.2071   -0.6635 C   0  0  0  0  0  0  0  0  0  0  0  0
   -2.4189    2.2115   -0.6689 C   0  0  0  0  0  0  0  0  0  0  0  0
   -2.7705   -3.8331    0.9340 C   0  0  0  0  0  0  0  0  0  0  0  0
    2.5593    2.5823   -1.1247 C   0  0  0  0  0  0  0  0  0  0  0  0
   -2.5554   -2.5922   -1.1278 C   0  0  0  0  0  0  0  0  0  0  0  0
    2.7772    3.8213    0.9380 C   0  0  0  0  0  0  0  0  0  0  0  0
    3.1805   -1.5112   -1.6073 C   0  0  0  0  0  0  0  0  0  0  0  0
   -3.1762    1.5168   -1.6123 C   0  0  0  0  0  0  0  0  0  0  0  0
    3.0571   -2.8428    0.4051 C   0  0  0  0  0  0  0  0  0  0  0  0
   -3.0500    2.8506    0.3984 C   0  0  0  0  0  0  0  0  0  0  0  0
   -3.2417   -4.9356    0.2212 C   0  0  0  0  0  0  0  0  0  0  0  0
    3.0353    3.6834   -1.8365 C   0  0  0  0  0  0  0  0  0  0  0  0
   -3.0268   -3.6947   -1.8406 C   0  0  0  0  0  0  0  0  0  0  0  0
    3.2531    4.9224    0.2261 C   0  0  0  0  0  0  0  0  0  0  0  0
    4.5686   -1.4513   -1.4823 C   0  0  0  0  0  0  0  0  0  0  0  0
   -4.5645    1.4613   -1.4883 C   0  0  0  0  0  0  0  0  0  0  0  0
    4.4449   -2.7828    0.5300 C   0  0  0  0  0  0  0  0  0  0  0  0
   -4.4380    2.7950    0.5225 C   0  0  0  0  0  0  0  0  0  0  0  0
   -3.3698   -4.8663   -1.1661 C   0  0  0  0  0  0  0  0  0  0  0  0
    3.3821    4.8535   -1.1611 C   0  0  0  0  0  0  0  0  0  0  0  0
    5.2007   -2.0869   -0.4135 C   0  0  0  0  0  0  0  0  0  0  0  0
   -5.1953    2.1004   -0.4208 C   0  0  0  0  0  0  0  0  0  0  0  0
    6.6848   -2.0226   -0.2802 C   0  0  0  0  0  0  0  0  0  0  0  0
   -6.6797    2.0409   -0.2884 C   0  0  0  0  0  0  0  0  0  0  0  0
   -0.1269   -2.5569    1.3827 H   0  0  0  0  0  0  0  0  0  0  0  0
    0.1283    2.5544    1.3827 H   0  0  0  0  0  0  0  0  0  0  0  0
    1.2385   -0.8857    2.4553 H   0  0  0  0  0  0  0  0  0  0  0  0
   -1.2588    0.8741    2.4166 H   0  0  0  0  0  0  0  0  0  0  0  0
   -2.2762   -0.5537    0.5561 H   0  0  0  0  0  0  0  0  0  0  0  0
   -2.3957   -1.4868    2.0153 H   0  0  0  0  0  0  0  0  0  0  0  0
    2.2735    0.5434    0.5609 H   0  0  0  0  0  0  0  0  0  0  0  0
    2.3871    1.4775    2.0205 H   0  0  0  0  0  0  0  0  0  0  0  0
    0.5593   -3.2382   -0.4375 H   0  0  0  0  0  0  0  0  0  0  0  0
    0.6692   -2.2551   -1.8633 H   0  0  0  0  0  0  0  0  0  0  0  0
   -0.5501    3.2369   -0.4426 H   0  0  0  0  0  0  0  0  0  0  0  0
   -0.6623    2.2522   -1.8675 H   0  0  0  0  0  0  0  0  0  0  0  0
   -0.1294   -2.2618    3.5848 H   0  0  0  0  0  0  0  0  0  0  0  0
    0.0602    2.2641    3.5824 H   0  0  0  0  0  0  0  0  0  0  0  0
   -2.6726   -3.9008    2.0143 H   0  0  0  0  0  0  0  0  0  0  0  0
    2.3034    1.6766   -1.6658 H   0  0  0  0  0  0  0  0  0  0  0  0
   -2.3024   -1.6852   -1.6681 H   0  0  0  0  0  0  0  0  0  0  0  0
    2.6787    3.8888    2.0181 H   0  0  0  0  0  0  0  0  0  0  0  0
    2.7018   -1.0110   -2.4446 H   0  0  0  0  0  0  0  0  0  0  0  0
   -2.6984    1.0140   -2.4486 H   0  0  0  0  0  0  0  0  0  0  0  0
    2.4788   -3.3859    1.1478 H   0  0  0  0  0  0  0  0  0  0  0  0
   -2.4706    3.3928    1.1409 H   0  0  0  0  0  0  0  0  0  0  0  0
   -3.5082   -5.8482    0.7461 H   0  0  0  0  0  0  0  0  0  0  0  0
    3.1377    3.6290   -2.9163 H   0  0  0  0  0  0  0  0  0  0  0  0
   -3.1284   -3.6400   -2.9205 H   0  0  0  0  0  0  0  0  0  0  0  0
    3.5226    5.8338    0.7518 H   0  0  0  0  0  0  0  0  0  0  0  0
    5.1460   -0.9039   -2.2226 H   0  0  0  0  0  0  0  0  0  0  0  0
   -5.1431    0.9148   -2.2282 H   0  0  0  0  0  0  0  0  0  0  0  0
    4.9255   -3.2802    1.3683 H   0  0  0  0  0  0  0  0  0  0  0  0
   -4.9176    3.2950    1.3598 H   0  0  0  0  0  0  0  0  0  0  0  0
   -3.7370   -5.7247   -1.7210 H   0  0  0  0  0  0  0  0  0  0  0  0
    3.7529    5.7107   -1.7153 H   0  0  0  0  0  0  0  0  0  0  0  0
    7.1653   -1.9467   -1.2619 H   0  0  0  0  0  0  0  0  0  0  0  0
    7.0752   -2.9210    0.2106 H   0  0  0  0  0  0  0  0  0  0  0  0
   -7.1598    1.9651   -1.2704 H   0  0  0  0  0  0  0  0  0  0  0  0
   -7.0676    2.9412    0.2009 H   0  0  0  0  0  0  0  0  0  0  0  0
    8.0107   -0.8758    0.5597 H   0  0  0  0  0  0  0  0  0  0  0  0
   -8.0098    0.8992    0.5520 H   0  0  0  0  0  0  0  0  0  0  0  0
  1 10  1  0  0  0  0
  1 55  1  0  0  0  0
  2 11  1  0  0  0  0
  2 56  1  0  0  0  0
  3 14  2  0  0  0  0
  4 41  1  0  0  0  0
  4 79  1  0  0  0  0
  5 42  1  0  0  0  0
  5 80  1  0  0  0  0
  6  8  1  0  0  0  0
  6 14  1  0  0  0  0
  6 15  1  0  0  0  0
  7  9  1  0  0  0  0
  7 14  1  0  0  0  0
  7 16  1  0  0  0  0
  8 10  1  0  0  0  0
  8 12  1  0  0  0  0
  8 43  1  0  0  0  0
  9 11  1  0  0  0  0
  9 13  1  0  0  0  0
  9 44  1  0  0  0  0
 10 11  1  0  0  0  0
 10 45  1  0  0  0  0
 11 46  1  0  0  0  0
 12 17  1  0  0  0  0
 12 47  1  0  0  0  0
 12 48  1  0  0  0  0
 13 18  1  0  0  0  0
 13 49  1  0  0  0  0
 13 50  1  0  0  0  0
 15 19  1  0  0  0  0
 15 51  1  0  0  0  0
 15 52  1  0  0  0  0
 16 20  1  0  0  0  0
 16 53  1  0  0  0  0
 16 54  1  0  0  0  0
 17 21  2  0  0  0  0
 17 23  1  0  0  0  0
 18 22  2  0  0  0  0
 18 24  1  0  0  0  0
 19 25  2  0  0  0  0
 19 27  1  0  0  0  0
 20 26  2  0  0  0  0
 20 28  1  0  0  0  0
 21 29  1  0  0  0  0
 21 57  1  0  0  0  0
 22 30  1  0  0  0  0
 22 58  1  0  0  0  0
 23 31  2  0  0  0  0
 23 59  1  0  0  0  0
 24 32  2  0  0  0  0
 24 60  1  0  0  0  0
 25 33  1  0  0  0  0
 25 61  1  0  0  0  0
 26 34  1  0  0  0  0
 26 62  1  0  0  0  0
 27 35  2  0  0  0  0
 27 63  1  0  0  0  0
 28 36  2  0  0  0  0
 28 64  1  0  0  0  0
 29 37  2  0  0  0  0
 29 65  1  0  0  0  0
 30 38  2  0  0  0  0
 30 66  1  0  0  0  0
 31 37  1  0  0  0  0
 31 67  1  0  0  0  0
 32 38  1  0  0  0  0
 32 68  1  0  0  0  0
 33 39  2  0  0  0  0
 33 69  1  0  0  0  0
 34 40  2  0  0  0  0
 34 70  1  0  0  0  0
 35 39  1  0  0  0  0
 35 71  1  0  0  0  0
 36 40  1  0  0  0  0
 36 72  1  0  0  0  0
 37 73  1  0  0  0  0
 38 74  1  0  0  0  0
 39 41  1  0  0  0  0
 40 42  1  0  0  0  0
 41 75  1  0  0  0  0
 41 76  1  0  0  0  0
 42 77  1  0  0  0  0
 42 78  1  0  0  0  0
M  END
> <PUBCHEM_COMPOUND_CID>
72404

> <PUBCHEM_CONFORMER_RMSD>
1.2

> <PUBCHEM_CONFORMER_DIVERSEORDER>
1
12
4
37
16
19
10
26
15
14
29
17
8
7
24
22
20
28
36
32
5
30
6
31
33
23
34
21
27
25
2
13
18
35
3
11
9

> <PUBCHEM_MMFF94_PARTIAL_CHARGES>
64
1 -0.68
10 0.28
11 0.28
12 0.14
13 0.14
14 0.69
15 0.44
16 0.44
17 -0.14
18 -0.14
19 -0.14
2 -0.68
20 -0.14
21 -0.15
22 -0.15
23 -0.15
24 -0.15
25 -0.15
26 -0.15
27 -0.15
28 -0.15
29 -0.15
3 -0.57
30 -0.15
31 -0.15
32 -0.15
33 -0.15
34 -0.15
35 -0.15
36 -0.15
37 -0.15
38 -0.15
39 -0.14
4 -0.68
40 -0.14
41 0.42
42 0.42
5 -0.68
55 0.4
56 0.4
57 0.15
58 0.15
59 0.15
6 -0.66
60 0.15
61 0.15
62 0.15
63 0.15
64 0.15
65 0.15
66 0.15
67 0.15
68 0.15
69 0.15
7 -0.66
70 0.15
71 0.15
72 0.15
73 0.15
74 0.15
79 0.4
8 0.3
80 0.4
9 0.3

> <PUBCHEM_EFFECTIVE_ROTOR_COUNT>
11.2

> <PUBCHEM_PHARMACOPHORE_FEATURES>
14
1 1 acceptor
1 1 donor
1 2 acceptor
1 2 donor
1 3 acceptor
1 4 acceptor
1 4 donor
1 5 acceptor
1 5 donor
6 17 21 23 29 31 37 rings
6 18 22 24 30 32 38 rings
6 19 25 27 33 35 39 rings
6 20 26 28 34 36 40 rings
7 6 7 8 9 10 11 14 rings

> <PUBCHEM_HEAVY_ATOM_COUNT>
42

> <PUBCHEM_ATOM_DEF_STEREO_COUNT>
4

> <PUBCHEM_ATOM_UDEF_STEREO_COUNT>
0

> <PUBCHEM_BOND_DEF_STEREO_COUNT>
0

> <PUBCHEM_BOND_UDEF_STEREO_COUNT>
0

> <PUBCHEM_ISOTOPIC_ATOM_COUNT>
0

> <PUBCHEM_COMPONENT_COUNT>
1

> <PUBCHEM_CACTVS_TAUTO_COUNT>
1

> <PUBCHEM_CONFORMER_ID>
00011AD400000001

> <PUBCHEM_MMFF94_ENERGY>
127.7298

> <PUBCHEM_FEATURE_SELFOVERLAP>
71.05

> <PUBCHEM_SHAPE_FINGERPRINT>
102385 1 18338798909777843069
10930396 42 18126306340340157600
11421498 54 17835527020439806139
11445158 3 17905847630987621521
11578080 2 18191291707383086149
12058002 1 17544534833976460318
12440605 4 18267571417217898283
12608794 3 18117532210995048801
140371 6 18042392689958926054
14295345 954 18339372846928215552
15815584 197 17476612314292932942
19301679 30 18052819139914486915
3027735 51 18050275969038977300
3178227 256 18195234736806638129
3493558 16 18339369564997961172
463206 1 18409728508603574900
5171179 24 18338795607533704142
6669772 16 18131630093257345368

> <PUBCHEM_SHAPE_MULTIPOLES>
825.03
12.03
7.42
2.23
0.07
0.05
-1.57
-0.05
2.86
-0.06
1.61
-0.02
0
-0.38

> <PUBCHEM_SHAPE_SELFOVERLAP>
1777.51

> <PUBCHEM_SHAPE_VOLUME>
449.1

> <PUBCHEM_COORDINATE_TYPE>
2
5
10

$$$$

