189060
  -OEChem-07051212573D

 49 53  0     1  0  0  0  0  0999 V2000
    1.0327    1.8061   -1.3672 O   0  0  0  0  0  0  0  0  0  0  0  0
    4.0892    1.6799    0.0760 O   0  0  0  0  0  0  0  0  0  0  0  0
   -5.2589    1.6825    0.5011 O   0  0  0  0  0  0  0  0  0  0  0  0
   -6.2217   -0.4371   -0.1153 O   0  0  0  0  0  0  0  0  0  0  0  0
    5.7786   -0.4937    0.0744 O   0  0  0  0  0  0  0  0  0  0  0  0
   -0.0300    1.0849    0.6414 N   0  0  1  0  0  0  0  0  0  0  0  0
    1.2428    1.4068   -0.0132 C   0  0  1  0  0  0  0  0  0  0  0  0
   -0.6597   -0.1068    0.2067 C   0  0  0  0  0  0  0  0  0  0  0  0
    2.1788    0.2222   -0.0063 C   0  0  0  0  0  0  0  0  0  0  0  0
    0.1588   -1.2226   -0.1373 C   0  0  0  0  0  0  0  0  0  0  0  0
    1.6343   -1.0793   -0.0766 C   0  0  0  0  0  0  0  0  0  0  0  0
   -2.0845   -0.1939    0.1234 C   0  0  0  0  0  0  0  0  0  0  0  0
   -2.6761   -1.4326   -0.2655 C   0  0  0  0  0  0  0  0  0  0  0  0
   -0.4674   -2.4142   -0.5271 C   0  0  0  0  0  0  0  0  0  0  0  0
    3.5665    0.4200    0.0358 C   0  0  0  0  0  0  0  0  0  0  0  0
   -0.1226    1.3466    2.0773 C   0  0  0  0  0  0  0  0  0  0  0  0
    2.5278   -2.1637   -0.0724 C   0  0  0  0  0  0  0  0  0  0  0  0
   -1.8571   -2.5201   -0.5777 C   0  0  0  0  0  0  0  0  0  0  0  0
   -2.9486    0.9004    0.3781 C   0  0  0  0  0  0  0  0  0  0  0  0
   -4.0735   -1.5696   -0.3529 C   0  0  0  0  0  0  0  0  0  0  0  0
    4.4291   -0.6715    0.0303 C   0  0  0  0  0  0  0  0  0  0  0  0
   -4.3148    0.7279    0.2786 C   0  0  0  0  0  0  0  0  0  0  0  0
   -4.8626   -0.4764   -0.0731 C   0  0  0  0  0  0  0  0  0  0  0  0
    3.9103   -1.9612   -0.0200 C   0  0  0  0  0  0  0  0  0  0  0  0
    0.1584    2.9195   -1.4430 C   0  0  0  0  0  0  0  0  0  0  0  0
   -6.4672    0.9355    0.2532 C   0  0  0  0  0  0  0  0  0  0  0  0
    4.9532    2.0550   -0.9935 C   0  0  0  0  0  0  0  0  0  0  0  0
    6.3843   -0.4445    1.3649 C   0  0  0  0  0  0  0  0  0  0  0  0
    1.7105    2.2454    0.5188 H   0  0  0  0  0  0  0  0  0  0  0  0
    0.1095   -3.2904   -0.8107 H   0  0  0  0  0  0  0  0  0  0  0  0
    0.1865    2.3752    2.2922 H   0  0  0  0  0  0  0  0  0  0  0  0
    0.5325    0.6700    2.6376 H   0  0  0  0  0  0  0  0  0  0  0  0
   -1.1398    1.2302    2.4636 H   0  0  0  0  0  0  0  0  0  0  0  0
    2.1724   -3.1901   -0.1001 H   0  0  0  0  0  0  0  0  0  0  0  0
   -2.2914   -3.4702   -0.8842 H   0  0  0  0  0  0  0  0  0  0  0  0
   -2.5622    1.8793    0.6465 H   0  0  0  0  0  0  0  0  0  0  0  0
   -4.5319   -2.5111   -0.6427 H   0  0  0  0  0  0  0  0  0  0  0  0
    4.5757   -2.8207   -0.0198 H   0  0  0  0  0  0  0  0  0  0  0  0
   -0.8735    2.6354   -1.2216 H   0  0  0  0  0  0  0  0  0  0  0  0
    0.1816    3.2946   -2.4704 H   0  0  0  0  0  0  0  0  0  0  0  0
    0.4834    3.7284   -0.7805 H   0  0  0  0  0  0  0  0  0  0  0  0
   -7.0215    1.4229   -0.5572 H   0  0  0  0  0  0  0  0  0  0  0  0
   -7.0825    0.9511    1.1601 H   0  0  0  0  0  0  0  0  0  0  0  0
    4.7542    1.4871   -1.9093 H   0  0  0  0  0  0  0  0  0  0  0  0
    5.9975    1.9380   -0.6912 H   0  0  0  0  0  0  0  0  0  0  0  0
    4.7815    3.1141   -1.2078 H   0  0  0  0  0  0  0  0  0  0  0  0
    6.2361   -1.3914    1.8936 H   0  0  0  0  0  0  0  0  0  0  0  0
    5.9741    0.3826    1.9529 H   0  0  0  0  0  0  0  0  0  0  0  0
    7.4574   -0.2812    1.2334 H   0  0  0  0  0  0  0  0  0  0  0  0
  1  7  1  0  0  0  0
  1 25  1  0  0  0  0
  2 15  1  0  0  0  0
  2 27  1  0  0  0  0
  3 22  1  0  0  0  0
  3 26  1  0  0  0  0
  4 23  1  0  0  0  0
  4 26  1  0  0  0  0
  5 21  1  0  0  0  0
  5 28  1  0  0  0  0
  6  7  1  0  0  0  0
  6  8  1  0  0  0  0
  6 16  1  0  0  0  0
  7  9  1  0  0  0  0
  7 29  1  0  0  0  0
  8 10  2  0  0  0  0
  8 12  1  0  0  0  0
  9 11  2  0  0  0  0
  9 15  1  0  0  0  0
 10 11  1  0  0  0  0
 10 14  1  0  0  0  0
 11 17  1  0  0  0  0
 12 13  1  0  0  0  0
 12 19  2  0  0  0  0
 13 18  1  0  0  0  0
 13 20  2  0  0  0  0
 14 18  2  0  0  0  0
 14 30  1  0  0  0  0
 15 21  2  0  0  0  0
 16 31  1  0  0  0  0
 16 32  1  0  0  0  0
 16 33  1  0  0  0  0
 17 24  2  0  0  0  0
 17 34  1  0  0  0  0
 18 35  1  0  0  0  0
 19 22  1  0  0  0  0
 19 36  1  0  0  0  0
 20 23  1  0  0  0  0
 20 37  1  0  0  0  0
 21 24  1  0  0  0  0
 22 23  2  0  0  0  0
 24 38  1  0  0  0  0
 25 39  1  0  0  0  0
 25 40  1  0  0  0  0
 25 41  1  0  0  0  0
 26 42  1  0  0  0  0
 26 43  1  0  0  0  0
 27 44  1  0  0  0  0
 27 45  1  0  0  0  0
 27 46  1  0  0  0  0
 28 47  1  0  0  0  0
 28 48  1  0  0  0  0
 28 49  1  0  0  0  0
M  END
> <PUBCHEM_COMPOUND_CID>
189060

> <PUBCHEM_CONFORMER_RMSD>
0.8

> <PUBCHEM_CONFORMER_DIVERSEORDER>
1
2

> <PUBCHEM_MMFF94_PARTIAL_CHARGES>
30
1 -0.56
14 -0.15
15 0.08
16 0.37
17 -0.15
18 -0.15
19 -0.15
2 -0.36
20 -0.15
21 0.08
22 0.08
23 0.08
24 -0.15
25 0.28
26 0.56
27 0.28
28 0.28
3 -0.36
30 0.15
34 0.15
35 0.15
36 0.15
37 0.15
38 0.15
4 -0.36
5 -0.36
6 -0.84
7 0.79
8 0.1
9 -0.14

> <PUBCHEM_EFFECTIVE_ROTOR_COUNT>
4

> <PUBCHEM_PHARMACOPHORE_FEATURES>
11
1 1 acceptor
1 2 acceptor
1 3 acceptor
1 4 acceptor
1 5 acceptor
1 6 cation
5 3 4 22 23 26 rings
6 12 13 19 20 22 23 rings
6 6 7 8 9 10 11 rings
6 8 10 12 13 14 18 rings
6 9 11 15 17 21 24 rings

> <PUBCHEM_HEAVY_ATOM_COUNT>
28

> <PUBCHEM_ATOM_DEF_STEREO_COUNT>
0

> <PUBCHEM_ATOM_UDEF_STEREO_COUNT>
1

> <PUBCHEM_BOND_DEF_STEREO_COUNT>
0

> <PUBCHEM_BOND_UDEF_STEREO_COUNT>
0

> <PUBCHEM_ISOTOPIC_ATOM_COUNT>
0

> <PUBCHEM_COMPONENT_COUNT>
1

> <PUBCHEM_CACTVS_TAUTO_COUNT>
1

> <PUBCHEM_CONFORMER_ID>
0002E28400000001

> <PUBCHEM_MMFF94_ENERGY>
129.8183

> <PUBCHEM_FEATURE_SELFOVERLAP>
56.047

> <PUBCHEM_SHAPE_FINGERPRINT>
10411042 1 17689150540599714350
10906281 52 18263346079773834710
11578080 2 17169851985063883626
11646440 116 17676762107144883987
12107183 9 17687460582547080971
12107698 1 17632581578362876900
12166972 35 18335981991622360489
12236239 1 18411981342865782250
12293681 4 17704061915637001145
12422481 6 18271529787816432996
12516196 113 17530687614600975114
12788726 201 17531515568405783033
12838862 33 18263383493128033051
13004483 165 18342185513350684194
13140716 1 18340210683494092338
13782708 43 15841254970736614737
14117953 113 18409447033673973422
14341114 176 18341323440753588275
14790565 3 18408317809156611393
15183329 4 18410853265552977933
15196674 1 18408322172780262447
1601671 61 18409450284273151844
1813 80 17346596395853102412
18608769 82 18335983052922686611
18681886 176 18334584516632831547
19141452 34 18409169895928740847
20511986 3 18334590022495977146
20642791 178 18270391685791386535
20715895 44 18264768947079087377
21033648 29 18261690245780849929
21267235 1 18408878547181159478
21304253 335 18340200808641703044
21421861 104 18058743519302970714
23402539 116 18113907056353920783
23559900 14 18041283175753283464
23569917 315 18334008406405029495
3004659 81 18410290320427254226
3178227 256 18337378389001918355
335352 9 18408603669506012630
34797466 226 16153427212371898176
34934 24 18410575054904555278
350125 39 18409167739913160864
3680242 22 18340488975557548394
4073 2 18131063788523048642
4340502 62 18113904870695400680
5104073 3 18341615858805835890
6328613 192 18409726223411960660
7226269 152 17894630370316198049
9981440 41 17261310298238847865

> <PUBCHEM_SHAPE_MULTIPOLES>
541.9
13.41
2.7
1.06
3.12
0.07
-0.2
1.26
-1.77
-0.58
0.84
-0.55
0.58
-1.12

> <PUBCHEM_SHAPE_SELFOVERLAP>
1217.709

> <PUBCHEM_SHAPE_VOLUME>
287.6

> <PUBCHEM_COORDINATE_TYPE>
2
5
10

$$$$

