237
  -OEChem-07051212533D

 58 60  0     1  0  0  0  0  0999 V2000
    2.5484    5.8098    0.4442 Cl  0  0  0  0  0  0  0  0  0  0  0  0
    2.2768   -4.5023   -0.1075 O   0  0  0  0  0  0  0  0  0  0  0  0
   -5.0265   -0.4495    0.3391 N   0  0  0  0  0  0  0  0  0  0  0  0
   -0.4000   -0.2074   -0.3382 N   0  0  0  0  0  0  0  0  0  0  0  0
    3.5942    0.8453    0.3734 N   0  0  0  0  0  0  0  0  0  0  0  0
   -1.1155    0.2327   -1.4883 C   0  0  2  0  0  0  0  0  0  0  0  0
   -2.6274    0.1250   -1.2476 C   0  0  0  0  0  0  0  0  0  0  0  0
   -3.1033    1.0099   -0.0888 C   0  0  0  0  0  0  0  0  0  0  0  0
   -4.6200    0.9268    0.0795 C   0  0  0  0  0  0  0  0  0  0  0  0
    0.9546    0.1493   -0.0980 C   0  0  0  0  0  0  0  0  0  0  0  0
   -0.6916   -0.6188   -2.6806 C   0  0  0  0  0  0  0  0  0  0  0  0
   -6.4788   -0.5359    0.5013 C   0  0  0  0  0  0  0  0  0  0  0  0
   -4.3508   -0.9709    1.5284 C   0  0  0  0  0  0  0  0  0  0  0  0
    1.9258   -0.8507    0.0139 C   0  0  0  0  0  0  0  0  0  0  0  0
    1.3045    1.4977    0.0261 C   0  0  0  0  0  0  0  0  0  0  0  0
    3.2518   -0.4520    0.2531 C   0  0  0  0  0  0  0  0  0  0  0  0
    2.6548    1.8046    0.2647 C   0  0  0  0  0  0  0  0  0  0  0  0
   -7.2008    0.0006   -0.7230 C   0  0  0  0  0  0  0  0  0  0  0  0
   -4.7147   -2.4255    1.7731 C   0  0  0  0  0  0  0  0  0  0  0  0
    1.6023   -2.2135   -0.1063 C   0  0  0  0  0  0  0  0  0  0  0  0
    0.3492    2.5235   -0.0818 C   0  0  0  0  0  0  0  0  0  0  0  0
    4.2232   -1.4431    0.3654 C   0  0  0  0  0  0  0  0  0  0  0  0
    3.0094    3.1452    0.3894 C   0  0  0  0  0  0  0  0  0  0  0  0
    2.5923   -3.1847    0.0101 C   0  0  0  0  0  0  0  0  0  0  0  0
    3.9053   -2.7983    0.2465 C   0  0  0  0  0  0  0  0  0  0  0  0
    0.7297    3.8559    0.0467 C   0  0  0  0  0  0  0  0  0  0  0  0
    2.0627    4.1671    0.2827 C   0  0  0  0  0  0  0  0  0  0  0  0
    3.3443   -5.4408    0.0225 C   0  0  0  0  0  0  0  0  0  0  0  0
   -0.9049    1.2602   -1.7911 H   0  0  0  0  0  0  0  0  0  0  0  0
   -3.1589    0.4127   -2.1639 H   0  0  0  0  0  0  0  0  0  0  0  0
   -2.8790   -0.9255   -1.0563 H   0  0  0  0  0  0  0  0  0  0  0  0
   -2.8775    2.0536   -0.3426 H   0  0  0  0  0  0  0  0  0  0  0  0
   -2.5607    0.8185    0.8414 H   0  0  0  0  0  0  0  0  0  0  0  0
   -4.9314    1.5995    0.8891 H   0  0  0  0  0  0  0  0  0  0  0  0
   -5.0566    1.3084   -0.8497 H   0  0  0  0  0  0  0  0  0  0  0  0
   -0.7177   -1.0654    0.0998 H   0  0  0  0  0  0  0  0  0  0  0  0
    0.3753   -0.4984   -2.8990 H   0  0  0  0  0  0  0  0  0  0  0  0
   -1.2468   -0.3328   -3.5806 H   0  0  0  0  0  0  0  0  0  0  0  0
   -0.8746   -1.6839   -2.4982 H   0  0  0  0  0  0  0  0  0  0  0  0
   -6.8240   -0.0014    1.3953 H   0  0  0  0  0  0  0  0  0  0  0  0
   -6.7945   -1.5799    0.5966 H   0  0  0  0  0  0  0  0  0  0  0  0
   -4.5763   -0.3758    2.4223 H   0  0  0  0  0  0  0  0  0  0  0  0
   -3.2646   -0.9801    1.4046 H   0  0  0  0  0  0  0  0  0  0  0  0
   -7.1821    1.0936   -0.7753 H   0  0  0  0  0  0  0  0  0  0  0  0
   -6.7887   -0.4096   -1.6515 H   0  0  0  0  0  0  0  0  0  0  0  0
   -8.2570   -0.2892   -0.6807 H   0  0  0  0  0  0  0  0  0  0  0  0
   -5.7252   -2.5428    2.1763 H   0  0  0  0  0  0  0  0  0  0  0  0
   -4.6220   -3.0262    0.8617 H   0  0  0  0  0  0  0  0  0  0  0  0
   -4.0327   -2.8545    2.5163 H   0  0  0  0  0  0  0  0  0  0  0  0
    0.5893   -2.5545   -0.3015 H   0  0  0  0  0  0  0  0  0  0  0  0
   -0.7126    2.3517   -0.1593 H   0  0  0  0  0  0  0  0  0  0  0  0
    5.2592   -1.1645    0.5506 H   0  0  0  0  0  0  0  0  0  0  0  0
    4.0524    3.3995    0.5747 H   0  0  0  0  0  0  0  0  0  0  0  0
    4.7313   -3.4938    0.3492 H   0  0  0  0  0  0  0  0  0  0  0  0
   -0.0244    4.6358   -0.0170 H   0  0  0  0  0  0  0  0  0  0  0  0
    2.9131   -6.4398   -0.0985 H   0  0  0  0  0  0  0  0  0  0  0  0
    4.0890   -5.3149   -0.7708 H   0  0  0  0  0  0  0  0  0  0  0  0
    3.7923   -5.4040    1.0213 H   0  0  0  0  0  0  0  0  0  0  0  0
  1 27  1  0  0  0  0
  2 24  1  0  0  0  0
  2 28  1  0  0  0  0
  3  9  1  0  0  0  0
  3 12  1  0  0  0  0
  3 13  1  0  0  0  0
  4  6  1  0  0  0  0
  4 10  1  0  0  0  0
  4 36  1  0  0  0  0
  5 16  2  0  0  0  0
  5 17  1  0  0  0  0
  6  7  1  0  0  0  0
  6 11  1  0  0  0  0
  6 29  1  0  0  0  0
  7  8  1  0  0  0  0
  7 30  1  0  0  0  0
  7 31  1  0  0  0  0
  8  9  1  0  0  0  0
  8 32  1  0  0  0  0
  8 33  1  0  0  0  0
  9 34  1  0  0  0  0
  9 35  1  0  0  0  0
 10 14  2  0  0  0  0
 10 15  1  0  0  0  0
 11 37  1  0  0  0  0
 11 38  1  0  0  0  0
 11 39  1  0  0  0  0
 12 18  1  0  0  0  0
 12 40  1  0  0  0  0
 12 41  1  0  0  0  0
 13 19  1  0  0  0  0
 13 42  1  0  0  0  0
 13 43  1  0  0  0  0
 14 16  1  0  0  0  0
 14 20  1  0  0  0  0
 15 17  2  0  0  0  0
 15 21  1  0  0  0  0
 16 22  1  0  0  0  0
 17 23  1  0  0  0  0
 18 44  1  0  0  0  0
 18 45  1  0  0  0  0
 18 46  1  0  0  0  0
 19 47  1  0  0  0  0
 19 48  1  0  0  0  0
 19 49  1  0  0  0  0
 20 24  2  0  0  0  0
 20 50  1  0  0  0  0
 21 26  2  0  0  0  0
 21 51  1  0  0  0  0
 22 25  2  0  0  0  0
 22 52  1  0  0  0  0
 23 27  2  0  0  0  0
 23 53  1  0  0  0  0
 24 25  1  0  0  0  0
 25 54  1  0  0  0  0
 26 27  1  0  0  0  0
 26 55  1  0  0  0  0
 28 56  1  0  0  0  0
 28 57  1  0  0  0  0
 28 58  1  0  0  0  0
M  END
> <PUBCHEM_COMPOUND_CID>
237

> <PUBCHEM_CONFORMER_RMSD>
1

> <PUBCHEM_CONFORMER_DIVERSEORDER>
3
74
24
78
16
23
77
46
53
52
42
40
73
31
60
30
50
12
10
4
51
32
7
35
70
20
76
25
72
44
68
19
38
15
71
8
1
57
9
36
13
27
6
14
26
63
34
21
62
29
75
47
64
67
41
2
17
49
45
58
48
69
55
37
56
81
39
11
18
28
61
5
43
59
66
22
33
65
54
79
80

> <PUBCHEM_MMFF94_PARTIAL_CHARGES>
28
1 -0.18
10 0.1
12 0.27
13 0.27
16 0.31
17 0.31
2 -0.36
20 -0.15
21 -0.15
22 -0.15
23 -0.15
24 0.08
25 -0.15
26 -0.15
27 0.18
28 0.28
3 -0.81
36 0.4
4 -0.87
5 -0.62
50 0.15
51 0.15
52 0.15
53 0.15
54 0.15
55 0.15
6 0.37
9 0.27

> <PUBCHEM_EFFECTIVE_ROTOR_COUNT>
9

> <PUBCHEM_PHARMACOPHORE_FEATURES>
8
1 2 acceptor
1 3 cation
1 4 cation
1 4 donor
1 5 acceptor
6 14 16 20 22 24 25 rings
6 15 17 21 23 26 27 rings
6 5 10 14 15 16 17 rings

> <PUBCHEM_HEAVY_ATOM_COUNT>
28

> <PUBCHEM_ATOM_DEF_STEREO_COUNT>
0

> <PUBCHEM_ATOM_UDEF_STEREO_COUNT>
1

> <PUBCHEM_BOND_DEF_STEREO_COUNT>
0

> <PUBCHEM_BOND_UDEF_STEREO_COUNT>
0

> <PUBCHEM_ISOTOPIC_ATOM_COUNT>
0

> <PUBCHEM_COMPONENT_COUNT>
1

> <PUBCHEM_CACTVS_TAUTO_COUNT>
2

> <PUBCHEM_CONFORMER_ID>
000000ED00000003

> <PUBCHEM_MMFF94_ENERGY>
100.467

> <PUBCHEM_FEATURE_SELFOVERLAP>
40.656

> <PUBCHEM_SHAPE_FINGERPRINT>
10074138 170 16898513788211885642
10411042 1 18193560201592550942
11045977 3 18272933804583809977
12107183 9 18046055224027848977
12553582 1 18191885598386624110
13140716 1 18192160304289238544
13533116 47 18413103970978242559
13583140 156 18411984659245179949
13785724 45 18044929319192685255
138480 1 18410016576196991244
13911852 28 18194124238246629295
13955234 65 18409448046843435641
14790565 3 17619625783075055341
14955137 171 18410009944904045220
15042514 8 17472139952368432940
15927050 60 17904761073429485468
16992752 21 17977093889067505454
17492 89 17906738360271900734
18785283 64 18269840830819467224
19319366 153 18044097856358230081
21049683 271 18271799130080381460
21344244 78 18115323261901348745
22033318 11 17825644894051520801
23559900 14 18413672401098742521
23572383 38 17843962543032699939
23845131 108 17906178343284789953
25147074 1 17677628470968222709
2747138 104 18122635109597067706
3178227 256 18339637833504202680
3421961 26 18410576214323951913
4015057 19 18410867547242533021
4403749 210 17548141030817378185
5309563 4 18121500416752465686
6442390 28 17907288854118056501
6695519 79 17831842570123808457
77188 2 18266178520595532188
79837 15 17472715628310089160
86090 222 17560787849893769795
9777508 108 17327459116767644880

> <PUBCHEM_SHAPE_MULTIPOLES>
557.28
11.9
6.91
1.28
27.03
1.36
0.56
-4.74
-2.8
-13.24
-1.36
1.48
-0.43
1.43

> <PUBCHEM_SHAPE_SELFOVERLAP>
1172.977

> <PUBCHEM_SHAPE_VOLUME>
317.6

> <PUBCHEM_COORDINATE_TYPE>
2
5
10

$$$$

