443815
  -OEChem-07051213033D

 79 84  0     1  0  0  0  0  0999 V2000
    2.8785    0.8049   -1.0766 O   0  0  0  0  0  0  0  0  0  0  0  0
    3.4092   -1.2990   -2.4641 O   0  0  0  0  0  0  0  0  0  0  0  0
    5.9088   -1.0686    1.4998 O   0  0  0  0  0  0  0  0  0  0  0  0
    4.8210    0.9174    0.2599 O   0  0  0  0  0  0  0  0  0  0  0  0
    2.7798    0.8928    1.6466 O   0  0  0  0  0  0  0  0  0  0  0  0
   -6.2299    1.1823   -0.7383 O   0  0  0  0  0  0  0  0  0  0  0  0
    0.5653    1.7487   -0.0402 O   0  0  0  0  0  0  0  0  0  0  0  0
   -1.5689   -3.1059   -0.6517 O   0  0  0  0  0  0  0  0  0  0  0  0
    7.3062    2.7184    0.6236 O   0  0  0  0  0  0  0  0  0  0  0  0
   -3.9137   -2.1888   -0.4816 O   0  0  0  0  0  0  0  0  0  0  0  0
   -8.1806   -0.2928    2.5888 O   0  0  0  0  0  0  0  0  0  0  0  0
   -9.7062    0.6941    0.3714 O   0  0  0  0  0  0  0  0  0  0  0  0
    2.4900   -0.3925   -0.3954 C   0  0  1  0  0  0  0  0  0  0  0  0
    3.2786   -1.5717   -1.0562 C   0  0  2  0  0  0  0  0  0  0  0  0
    4.7110   -1.6440   -0.4839 C   0  0  0  0  0  0  0  0  0  0  0  0
    4.7911   -1.8456    1.0440 C   0  0  2  0  0  0  0  0  0  0  0  0
    3.5354   -1.3660    1.7796 C   0  0  0  0  0  0  0  0  0  0  0  0
    2.9304   -0.1813    1.0625 C   0  0  0  0  0  0  0  0  0  0  0  0
    0.9695   -0.5752   -0.3938 C   0  0  0  0  0  0  0  0  0  0  0  0
    2.5592   -2.8908   -0.9612 C   0  0  0  0  0  0  0  0  0  0  0  0
    0.4141   -1.7952   -0.5417 C   0  0  0  0  0  0  0  0  0  0  0  0
    5.0909   -3.3040    1.4073 C   0  0  0  0  0  0  0  0  0  0  0  0
    4.2942    0.9624   -1.0706 C   0  0  2  0  0  0  0  0  0  0  0  0
    1.2480   -2.9728   -0.7074 C   0  0  0  0  0  0  0  0  0  0  0  0
    0.0975    0.6264   -0.1995 C   0  0  0  0  0  0  0  0  0  0  0  0
    4.6408    2.2577   -1.8128 C   0  0  0  0  0  0  0  0  0  0  0  0
   -1.0652   -1.9949   -0.5231 C   0  0  0  0  0  0  0  0  0  0  0  0
   -1.3641    0.4483   -0.1964 C   0  0  0  0  0  0  0  0  0  0  0  0
   -1.9250   -0.8146   -0.3508 C   0  0  0  0  0  0  0  0  0  0  0  0
    5.9874    2.7914   -1.3563 C   0  0  0  0  0  0  0  0  0  0  0  0
    4.9164    2.2033    0.8781 C   0  0  2  0  0  0  0  0  0  0  0  0
    5.9957    3.0338    0.1576 C   0  0  1  0  0  0  0  0  0  0  0  0
   -5.6493    0.0030   -0.1695 C   0  0  1  0  0  0  0  0  0  0  0  0
   -4.1431    0.1447   -0.1811 C   0  0  0  0  0  0  0  0  0  0  0  0
   -3.3178   -0.9679   -0.3429 C   0  0  0  0  0  0  0  0  0  0  0  0
   -6.1803   -0.2103    1.2492 C   0  0  0  0  0  0  0  0  0  0  0  0
   -2.1964    1.5642   -0.0333 C   0  0  0  0  0  0  0  0  0  0  0  0
   -7.7047   -0.2852    1.2451 C   0  0  2  0  0  0  0  0  0  0  0  0
   -8.3054    0.9156    0.5117 C   0  0  1  0  0  0  0  0  0  0  0  0
   -7.6527    1.0927   -0.8660 C   0  0  1  0  0  0  0  0  0  0  0  0
   -3.5829    1.4098   -0.0264 C   0  0  0  0  0  0  0  0  0  0  0  0
    5.1881    1.9904    2.3614 C   0  0  0  0  0  0  0  0  0  0  0  0
   -8.1211    2.3648   -1.5656 C   0  0  0  0  0  0  0  0  0  0  0  0
    5.1071   -2.5799   -0.9207 H   0  0  0  0  0  0  0  0  0  0  0  0
    5.5241   -1.0242   -0.8597 H   0  0  0  0  0  0  0  0  0  0  0  0
    3.7769   -1.0658    2.8059 H   0  0  0  0  0  0  0  0  0  0  0  0
    2.7657   -2.1427    1.8402 H   0  0  0  0  0  0  0  0  0  0  0  0
    3.1160   -3.8075   -1.1355 H   0  0  0  0  0  0  0  0  0  0  0  0
    4.2943   -3.9832    1.0915 H   0  0  0  0  0  0  0  0  0  0  0  0
    6.0331   -3.6351    0.9555 H   0  0  0  0  0  0  0  0  0  0  0  0
    5.2199   -3.4097    2.4909 H   0  0  0  0  0  0  0  0  0  0  0  0
    4.7861    0.2732   -1.7458 H   0  0  0  0  0  0  0  0  0  0  0  0
    0.7849   -3.9532   -0.6588 H   0  0  0  0  0  0  0  0  0  0  0  0
    3.9503   -2.0027   -2.8621 H   0  0  0  0  0  0  0  0  0  0  0  0
    3.8678    3.0157   -1.6266 H   0  0  0  0  0  0  0  0  0  0  0  0
    4.6253    2.0956   -2.8977 H   0  0  0  0  0  0  0  0  0  0  0  0
    5.9049   -0.2094    1.0549 H   0  0  0  0  0  0  0  0  0  0  0  0
    6.7761    2.0852   -1.6464 H   0  0  0  0  0  0  0  0  0  0  0  0
    6.2172    3.7285   -1.8770 H   0  0  0  0  0  0  0  0  0  0  0  0
    3.9585    2.7293    0.7709 H   0  0  0  0  0  0  0  0  0  0  0  0
    5.8328    4.0953    0.3748 H   0  0  0  0  0  0  0  0  0  0  0  0
   -5.9473   -0.8256   -0.8237 H   0  0  0  0  0  0  0  0  0  0  0  0
   -5.7641   -1.1155    1.7075 H   0  0  0  0  0  0  0  0  0  0  0  0
   -5.8686    0.6203    1.8980 H   0  0  0  0  0  0  0  0  0  0  0  0
   -1.7849    2.5623    0.0928 H   0  0  0  0  0  0  0  0  0  0  0  0
   -8.0361   -1.2228    0.7838 H   0  0  0  0  0  0  0  0  0  0  0  0
   -8.1751    1.8206    1.1172 H   0  0  0  0  0  0  0  0  0  0  0  0
   -7.9010    0.2458   -1.5192 H   0  0  0  0  0  0  0  0  0  0  0  0
   -4.2000    2.2927    0.1162 H   0  0  0  0  0  0  0  0  0  0  0  0
    5.2447    2.9587    2.8711 H   0  0  0  0  0  0  0  0  0  0  0  0
    4.4633    1.3845    2.9015 H   0  0  0  0  0  0  0  0  0  0  0  0
    6.1485    1.4861    2.5160 H   0  0  0  0  0  0  0  0  0  0  0  0
    7.4429    1.7629    0.5027 H   0  0  0  0  0  0  0  0  0  0  0  0
   -9.2020    2.3562   -1.7344 H   0  0  0  0  0  0  0  0  0  0  0  0
   -7.8643    3.2520   -0.9763 H   0  0  0  0  0  0  0  0  0  0  0  0
   -7.6189    2.4745   -2.5330 H   0  0  0  0  0  0  0  0  0  0  0  0
   -4.7532   -2.2157    0.0035 H   0  0  0  0  0  0  0  0  0  0  0  0
   -7.8894    0.5301    3.0174 H   0  0  0  0  0  0  0  0  0  0  0  0
   -9.8319   -0.0883   -0.1922 H   0  0  0  0  0  0  0  0  0  0  0  0
  1 13  1  0  0  0  0
  1 23  1  0  0  0  0
  2 14  1  0  0  0  0
  2 54  1  0  0  0  0
  3 16  1  0  0  0  0
  3 57  1  0  0  0  0
  4 23  1  0  0  0  0
  4 31  1  0  0  0  0
  5 18  2  0  0  0  0
  6 33  1  0  0  0  0
  6 40  1  0  0  0  0
  7 25  2  0  0  0  0
  8 27  2  0  0  0  0
  9 32  1  0  0  0  0
  9 73  1  0  0  0  0
 10 35  1  0  0  0  0
 10 77  1  0  0  0  0
 11 38  1  0  0  0  0
 11 78  1  0  0  0  0
 12 39  1  0  0  0  0
 12 79  1  0  0  0  0
 13 14  1  0  0  0  0
 13 18  1  0  0  0  0
 13 19  1  0  0  0  0
 14 15  1  0  0  0  0
 14 20  1  0  0  0  0
 15 16  1  0  0  0  0
 15 44  1  0  0  0  0
 15 45  1  0  0  0  0
 16 17  1  0  0  0  0
 16 22  1  0  0  0  0
 17 18  1  0  0  0  0
 17 46  1  0  0  0  0
 17 47  1  0  0  0  0
 19 21  2  0  0  0  0
 19 25  1  0  0  0  0
 20 24  2  0  0  0  0
 20 48  1  0  0  0  0
 21 24  1  0  0  0  0
 21 27  1  0  0  0  0
 22 49  1  0  0  0  0
 22 50  1  0  0  0  0
 22 51  1  0  0  0  0
 23 26  1  0  0  0  0
 23 52  1  0  0  0  0
 24 53  1  0  0  0  0
 25 28  1  0  0  0  0
 26 30  1  0  0  0  0
 26 55  1  0  0  0  0
 26 56  1  0  0  0  0
 27 29  1  0  0  0  0
 28 29  2  0  0  0  0
 28 37  1  0  0  0  0
 29 35  1  0  0  0  0
 30 32  1  0  0  0  0
 30 58  1  0  0  0  0
 30 59  1  0  0  0  0
 31 32  1  0  0  0  0
 31 42  1  0  0  0  0
 31 60  1  0  0  0  0
 32 61  1  0  0  0  0
 33 34  1  0  0  0  0
 33 36  1  0  0  0  0
 33 62  1  0  0  0  0
 34 35  2  0  0  0  0
 34 41  1  0  0  0  0
 36 38  1  0  0  0  0
 36 63  1  0  0  0  0
 36 64  1  0  0  0  0
 37 41  2  0  0  0  0
 37 65  1  0  0  0  0
 38 39  1  0  0  0  0
 38 66  1  0  0  0  0
 39 40  1  0  0  0  0
 39 67  1  0  0  0  0
 40 43  1  0  0  0  0
 40 68  1  0  0  0  0
 41 69  1  0  0  0  0
 42 70  1  0  0  0  0
 42 71  1  0  0  0  0
 42 72  1  0  0  0  0
 43 74  1  0  0  0  0
 43 75  1  0  0  0  0
 43 76  1  0  0  0  0
M  END
> <PUBCHEM_COMPOUND_CID>
443815

> <PUBCHEM_CONFORMER_RMSD>
1

> <PUBCHEM_CONFORMER_DIVERSEORDER>
1
3
5
4
2

> <PUBCHEM_MMFF94_PARTIAL_CHARGES>
46
1 -0.56
10 -0.53
11 -0.68
12 -0.68
13 0.48
14 0.42
16 0.28
17 0.06
18 0.45
19 -0.12
2 -0.68
20 -0.29
21 0.01
23 0.56
24 -0.15
25 0.47
27 0.47
28 0.09
29 0.09
3 -0.68
31 0.28
32 0.28
33 0.42
34 -0.14
35 0.08
37 -0.15
38 0.28
39 0.28
4 -0.56
40 0.28
41 -0.15
48 0.15
5 -0.57
53 0.15
54 0.4
57 0.4
6 -0.56
65 0.15
69 0.15
7 -0.57
73 0.4
77 0.45
78 0.4
79 0.4
8 -0.57
9 -0.68

> <PUBCHEM_EFFECTIVE_ROTOR_COUNT>
6

> <PUBCHEM_PHARMACOPHORE_FEATURES>
23
1 1 acceptor
1 10 donor
1 11 acceptor
1 11 donor
1 12 acceptor
1 12 donor
1 2 acceptor
1 2 donor
1 3 acceptor
1 3 donor
1 4 acceptor
1 5 acceptor
1 6 acceptor
1 7 acceptor
1 8 acceptor
1 9 acceptor
1 9 donor
6 13 14 15 16 17 18 rings
6 13 14 19 20 21 24 rings
6 19 21 25 27 28 29 rings
6 28 29 34 35 37 41 rings
6 4 23 26 30 31 32 rings
6 6 33 36 38 39 40 rings

> <PUBCHEM_HEAVY_ATOM_COUNT>
43

> <PUBCHEM_ATOM_DEF_STEREO_COUNT>
10

> <PUBCHEM_ATOM_UDEF_STEREO_COUNT>
0

> <PUBCHEM_BOND_DEF_STEREO_COUNT>
0

> <PUBCHEM_BOND_UDEF_STEREO_COUNT>
0

> <PUBCHEM_ISOTOPIC_ATOM_COUNT>
0

> <PUBCHEM_COMPONENT_COUNT>
1

> <PUBCHEM_CACTVS_TAUTO_COUNT>
10

> <PUBCHEM_CONFORMER_ID>
0006C5A700000001

> <PUBCHEM_MMFF94_ENERGY>
188.6235

> <PUBCHEM_FEATURE_SELFOVERLAP>
116.97

> <PUBCHEM_SHAPE_FINGERPRINT>
10 15 18343018874861838681
10006869 2 18260271854316621012
10165383 225 18334857178748698204
10554248 39 18261403277250778671
10952577 141 18052810361698076036
11181472 205 16661469862306961385
11719270 70 18339081592405858887
11966995 178 17821721715956436209
1200032 147 18336538335984541946
13383668 362 18340220613585575666
13782708 43 12895076206564084087
13811026 1 18272937146321866293
14294032 229 18189896401083822191
14394314 77 18336264544620356297
15131766 46 17773023160092432340
15183329 4 16877942750785931881
1577012 14 18261395521056578903
15840311 113 18130790083521386789
16112460 7 18333723620265937777
19304671 126 17096082473229284400
21033648 29 18202282537853054327
21136928 126 14954638940206000061
21781055 127 17168132482122579338
21792934 111 18341338885392811025
21814621 53 16557925536008261823
22149856 69 18115293601526874985
23559900 14 18114457972616503406
24771293 8 18262524689006655501
24771750 20 17698145267601679461
3044373 193 17632853126973815004
3411729 13 18412266100157427508
3918712 181 18259989249563454449
394071 54 18114177523662001585
397830 11 17632291247105176955
4073 2 18059571330676940411
4093350 32 18409163316244493610
4112364 45 18341339916427568176
4149490 64 17846779594231630338
4169191 19 18333167259399217329
5104073 3 18412541041608023849
5109719 28 18411974755061339409
6086070 43 17241048699735418763
9962374 69 18261964049408510343

> <PUBCHEM_SHAPE_MULTIPOLES>
814.49
23.63
3.5
1.74
50.42
0.44
0.47
-13.58
5.78
-6.32
-0.51
-1.05
-0.11
0.56

> <PUBCHEM_SHAPE_SELFOVERLAP>
1809.545

> <PUBCHEM_SHAPE_VOLUME>
424.5

> <PUBCHEM_COORDINATE_TYPE>
2
5
10

$$$$

