20112020
  -OEChem-07051212453D

 23 22  0     1  0  0  0  0  0999 V2000
    1.3305    1.1467    1.1554 O   0  0  0  0  0  0  0  0  0  0  0  0
   -2.1480   -1.6920   -0.3031 O   0  0  0  0  0  0  0  0  0  0  0  0
   -3.5983   -0.1148    0.4204 O   0  0  0  0  0  0  0  0  0  0  0  0
   -0.0455   -0.1244   -0.2135 N   0  0  0  0  0  0  0  0  0  0  0  0
    3.3391   -0.7159    0.8362 N   0  0  0  0  0  0  0  0  0  0  0  0
   -1.2871    0.5302    0.1283 C   0  0  1  0  0  0  0  0  0  0  0  0
    2.3233   -0.5982   -0.2068 C   0  0  1  0  0  0  0  0  0  0  0  0
    1.1754    0.2436    0.3359 C   0  0  0  0  0  0  0  0  0  0  0  0
   -1.5459    1.7056   -0.8021 C   0  0  0  0  0  0  0  0  0  0  0  0
    2.9161    0.0553   -1.4489 C   0  0  0  0  0  0  0  0  0  0  0  0
   -2.4594   -0.4362    0.0981 C   0  0  0  0  0  0  0  0  0  0  0  0
   -1.2030    0.8899    1.1606 H   0  0  0  0  0  0  0  0  0  0  0  0
    1.9623   -1.6022   -0.4577 H   0  0  0  0  0  0  0  0  0  0  0  0
   -0.0743   -0.8660   -0.9073 H   0  0  0  0  0  0  0  0  0  0  0  0
   -1.6444    1.3715   -1.8414 H   0  0  0  0  0  0  0  0  0  0  0  0
   -2.4709    2.2266   -0.5330 H   0  0  0  0  0  0  0  0  0  0  0  0
   -0.7246    2.4291   -0.7617 H   0  0  0  0  0  0  0  0  0  0  0  0
    3.2848    1.0652   -1.2346 H   0  0  0  0  0  0  0  0  0  0  0  0
    2.1601    0.1462   -2.2367 H   0  0  0  0  0  0  0  0  0  0  0  0
    3.7480   -0.5349   -1.8481 H   0  0  0  0  0  0  0  0  0  0  0  0
    4.1235   -1.2672    0.4902 H   0  0  0  0  0  0  0  0  0  0  0  0
    2.9574   -1.2315    1.6285 H   0  0  0  0  0  0  0  0  0  0  0  0
   -2.9316   -2.2822   -0.3026 H   0  0  0  0  0  0  0  0  0  0  0  0
  1  8  2  0  0  0  0
  2 11  1  0  0  0  0
  2 23  1  0  0  0  0
  3 11  2  0  0  0  0
  4  6  1  0  0  0  0
  4  8  1  0  0  0  0
  4 14  1  0  0  0  0
  5  7  1  0  0  0  0
  5 21  1  0  0  0  0
  5 22  1  0  0  0  0
  6  9  1  0  0  0  0
  6 11  1  0  0  0  0
  6 12  1  0  0  0  0
  7  8  1  0  0  0  0
  7 10  1  0  0  0  0
  7 13  1  0  0  0  0
  9 15  1  0  0  0  0
  9 16  1  0  0  0  0
  9 17  1  0  0  0  0
 10 18  1  0  0  0  0
 10 19  1  0  0  0  0
 10 20  1  0  0  0  0
M  END
> <PUBCHEM_COMPOUND_CID>
20112020

> <PUBCHEM_CONFORMER_RMSD>
0.6

> <PUBCHEM_CONFORMER_DIVERSEORDER>
2
15
23
29
19
26
32
16
8
20
14
4
33
27
22
17
28
25
5
7
3
30
31
24
21
6
11
18
12
10
9
13
34
1

> <PUBCHEM_MMFF94_PARTIAL_CHARGES>
13
1 -0.57
11 0.66
14 0.37
2 -0.65
21 0.36
22 0.36
23 0.5
3 -0.57
4 -0.73
5 -0.99
6 0.36
7 0.33
8 0.57

> <PUBCHEM_EFFECTIVE_ROTOR_COUNT>
4

> <PUBCHEM_PHARMACOPHORE_FEATURES>
7
1 1 acceptor
1 2 acceptor
1 3 acceptor
1 4 donor
1 5 cation
1 5 donor
3 2 3 11 anion

> <PUBCHEM_HEAVY_ATOM_COUNT>
11

> <PUBCHEM_ATOM_DEF_STEREO_COUNT>
1

> <PUBCHEM_ATOM_UDEF_STEREO_COUNT>
1

> <PUBCHEM_BOND_DEF_STEREO_COUNT>
0

> <PUBCHEM_BOND_UDEF_STEREO_COUNT>
0

> <PUBCHEM_ISOTOPIC_ATOM_COUNT>
0

> <PUBCHEM_COMPONENT_COUNT>
1

> <PUBCHEM_CACTVS_TAUTO_COUNT>
2

> <PUBCHEM_CONFORMER_ID>
0132E29400000002

> <PUBCHEM_MMFF94_ENERGY>
11.3406

> <PUBCHEM_FEATURE_SELFOVERLAP>
35.581

> <PUBCHEM_SHAPE_FINGERPRINT>
12897270 3 18060128817447408460
12932741 1 18188220861089532469
12932764 1 18411983559063534744
14390081 3 12103850042218673583
15310529 11 18060133262706917686
20201158 50 18040715882960243039
20279233 1 18040723596795093358
20281407 28 18408879637838744819
20711983 138 17241029015916001622
23552423 10 18198623233394251597
29004967 10 17385444345186307538
3248919 1 17385726876366315857
369184 2 4823209494354006293

> <PUBCHEM_SHAPE_MULTIPOLES>
198.8
5.51
1.32
1.04
0.25
0.19
-0.06
-1.29
-0.24
-0.73
-0.17
0.78
0.17
-0.1

> <PUBCHEM_SHAPE_SELFOVERLAP>
377.656

> <PUBCHEM_SHAPE_VOLUME>
122.7

> <PUBCHEM_COORDINATE_TYPE>
2
5
10

$$$$

