656525
  -OEChem-07051212553D

 51 51  0     1  0  0  0  0  0999 V2000
    0.7946   -0.4909    2.1754 S   0  0  0  0  0  0  0  0  0  0  0  0
   -6.7810   -2.5725   -1.1412 S   0  0  0  0  0  0  0  0  0  0  0  0
   -0.1553    3.8933   -0.3923 S   0  0  0  0  0  0  0  0  0  0  0  0
    1.6573   -0.7685   -0.3388 O   0  0  0  0  0  0  0  0  0  0  0  0
    5.1282   -2.7595    0.5978 O   0  0  0  0  0  0  0  0  0  0  0  0
    4.7680   -1.6114   -2.0727 O   0  0  0  0  0  0  0  0  0  0  0  0
    3.8237   -1.1441    2.6004 O   0  0  0  0  0  0  0  0  0  0  0  0
    0.9923    0.1191   -2.8509 O   0  0  0  0  0  0  0  0  0  0  0  0
   -0.7773    2.6306    0.4348 O   0  0  0  0  0  0  0  0  0  0  0  0
   -1.4580    4.8449   -0.6275 O   0  0  0  0  0  0  0  0  0  0  0  0
    0.2812    3.4172   -1.6917 O   0  0  0  0  0  0  0  0  0  0  0  0
    0.7591    4.6071    0.4794 O   0  0  0  0  0  0  0  0  0  0  0  0
    0.2256    1.7543    0.8590 N   0  0  0  0  0  0  0  0  0  0  0  0
    4.3239   -1.6169    0.2999 C   0  0  1  0  0  0  0  0  0  0  0  0
    3.7342   -1.7611   -1.1036 C   0  0  1  0  0  0  0  0  0  0  0  0
    3.2238   -1.5240    1.3622 C   0  0  2  0  0  0  0  0  0  0  0  0
    2.6628   -0.6959   -1.3503 C   0  0  1  0  0  0  0  0  0  0  0  0
    2.1666   -0.4890    0.9651 C   0  0  2  0  0  0  0  0  0  0  0  0
    1.9730   -0.8904   -2.6970 C   0  0  0  0  0  0  0  0  0  0  0  0
   -0.2703    0.7528    1.5152 C   0  0  0  0  0  0  0  0  0  0  0  0
   -1.7428    0.5360    1.8106 C   0  0  0  0  0  0  0  0  0  0  0  0
   -2.3920   -0.3098    0.7151 C   0  0  0  0  0  0  0  0  0  0  0  0
   -3.8862   -0.5040    0.9752 C   0  0  0  0  0  0  0  0  0  0  0  0
   -4.5306   -1.3787   -0.1035 C   0  0  0  0  0  0  0  0  0  0  0  0
   -6.0276   -1.5369    0.1455 C   0  0  0  0  0  0  0  0  0  0  0  0
   -8.4930   -2.5018   -0.5663 C   0  0  0  0  0  0  0  0  0  0  0  0
    4.9908   -0.7469    0.3477 H   0  0  0  0  0  0  0  0  0  0  0  0
    3.3096   -2.7661   -1.2214 H   0  0  0  0  0  0  0  0  0  0  0  0
    2.7772   -2.5183    1.4946 H   0  0  0  0  0  0  0  0  0  0  0  0
    3.1035    0.3103   -1.3339 H   0  0  0  0  0  0  0  0  0  0  0  0
    2.6053    0.5166    0.9815 H   0  0  0  0  0  0  0  0  0  0  0  0
    1.4562   -1.8545   -2.7376 H   0  0  0  0  0  0  0  0  0  0  0  0
    2.6749   -0.8311   -3.5342 H   0  0  0  0  0  0  0  0  0  0  0  0
    5.4785   -2.6423    1.4976 H   0  0  0  0  0  0  0  0  0  0  0  0
    5.4483   -2.2784   -1.8774 H   0  0  0  0  0  0  0  0  0  0  0  0
    3.1111   -1.0763    3.2586 H   0  0  0  0  0  0  0  0  0  0  0  0
   -1.8544    0.0380    2.7814 H   0  0  0  0  0  0  0  0  0  0  0  0
   -2.2529    1.5008    1.9034 H   0  0  0  0  0  0  0  0  0  0  0  0
   -2.2456    0.1720   -0.2598 H   0  0  0  0  0  0  0  0  0  0  0  0
   -1.8974   -1.2872    0.6567 H   0  0  0  0  0  0  0  0  0  0  0  0
   -4.0318   -0.9683    1.9582 H   0  0  0  0  0  0  0  0  0  0  0  0
   -4.3825    0.4738    1.0021 H   0  0  0  0  0  0  0  0  0  0  0  0
    1.4476    0.9783   -2.8409 H   0  0  0  0  0  0  0  0  0  0  0  0
   -4.3595   -0.9220   -1.0865 H   0  0  0  0  0  0  0  0  0  0  0  0
   -4.0423   -2.3614   -0.1092 H   0  0  0  0  0  0  0  0  0  0  0  0
   -6.5138   -0.5556    0.1399 H   0  0  0  0  0  0  0  0  0  0  0  0
   -6.1994   -2.0035    1.1211 H   0  0  0  0  0  0  0  0  0  0  0  0
   -8.5746   -2.9185    0.4410 H   0  0  0  0  0  0  0  0  0  0  0  0
   -9.1231   -3.0913   -1.2376 H   0  0  0  0  0  0  0  0  0  0  0  0
   -8.8540   -1.4700   -0.5686 H   0  0  0  0  0  0  0  0  0  0  0  0
   -2.2640    4.3826   -0.9575 H   0  0  0  0  0  0  0  0  0  0  0  0
  1 18  1  0  0  0  0
  1 20  1  0  0  0  0
  2 25  1  0  0  0  0
  2 26  1  0  0  0  0
  3  9  1  0  0  0  0
  3 10  1  0  0  0  0
  3 11  2  0  0  0  0
  3 12  2  0  0  0  0
  4 17  1  0  0  0  0
  4 18  1  0  0  0  0
  5 14  1  0  0  0  0
  5 34  1  0  0  0  0
  6 15  1  0  0  0  0
  6 35  1  0  0  0  0
  7 16  1  0  0  0  0
  7 36  1  0  0  0  0
  8 19  1  0  0  0  0
  8 43  1  0  0  0  0
  9 13  1  0  0  0  0
 10 51  1  0  0  0  0
 13 20  2  0  0  0  0
 14 15  1  0  0  0  0
 14 16  1  0  0  0  0
 14 27  1  0  0  0  0
 15 17  1  0  0  0  0
 15 28  1  0  0  0  0
 16 18  1  0  0  0  0
 16 29  1  0  0  0  0
 17 19  1  0  0  0  0
 17 30  1  0  0  0  0
 18 31  1  0  0  0  0
 19 32  1  0  0  0  0
 19 33  1  0  0  0  0
 20 21  1  0  0  0  0
 21 22  1  0  0  0  0
 21 37  1  0  0  0  0
 21 38  1  0  0  0  0
 22 23  1  0  0  0  0
 22 39  1  0  0  0  0
 22 40  1  0  0  0  0
 23 24  1  0  0  0  0
 23 41  1  0  0  0  0
 23 42  1  0  0  0  0
 24 25  1  0  0  0  0
 24 44  1  0  0  0  0
 24 45  1  0  0  0  0
 25 46  1  0  0  0  0
 25 47  1  0  0  0  0
 26 48  1  0  0  0  0
 26 49  1  0  0  0  0
 26 50  1  0  0  0  0
M  END
> <PUBCHEM_COMPOUND_CID>
656525

> <PUBCHEM_CONFORMER_RMSD>
1

> <PUBCHEM_CONFORMER_DIVERSEORDER>
1
114
221
252
153
40
248
163
256
45
170
25
41
11
222
156
144
117
243
126
203
145
65
131
113
55
34
272
90
176
158
244
47
183
174
159
44
130
57
165
16
207
146
91
83
269
191
62
157
238
48
193
19
118
214
128
73
257
29
185
200
154
231
266
137
152
270
132
219
109
166
50
201
107
38
67
255
122
233
59
276
184
247
189
188
101
51
123
75
264
232
36
229
139
237
173
179
58
242
125
31
239
18
254
198
187
2
108
129
206
21
171
265
168
61
7
212
53
263
141
279
103
175
142
85
260
106
20
181
259
228
161
275
151
127
124
89
177
70
182
246
217
223
100
172
277
262
13
143
218
261
46
121
227
210
4
160
133
197
190
92
274
281
69
280
208
111
9
164
71
17
88
186
135
236
211
204
23
84
3
119
81
37
72
112
110
273
278
162
138
26
234
15
245
249
147
102
78
6
39
213
220
56
268
251
216
82
79
178
149
192
98
120
12
225
230
99
52
49
194
22
202
5
60
24
169
140
258
155
33
235
104
10
77
134
87
32
54
167
28
86
195
30
241
205
209
42
63
240
94
35
14
136
196
93
8
250
68
115
97
76
267
96
66
224
80
226
199
64
148
27
105
180
215
150
271
43
253
74
95
116

> <PUBCHEM_MMFF94_PARTIAL_CHARGES>
28
1 -0.37
10 -0.68
11 -0.65
12 -0.65
13 -0.51
14 0.28
15 0.28
16 0.28
17 0.28
18 0.51
19 0.28
2 -0.46
20 0.53
21 0.06
25 0.23
26 0.23
3 1.67
34 0.4
35 0.4
36 0.4
4 -0.56
43 0.4
5 -0.68
51 0.5
6 -0.68
7 -0.68
8 -0.68
9 -0.12

> <PUBCHEM_EFFECTIVE_ROTOR_COUNT>
12.2

> <PUBCHEM_PHARMACOPHORE_FEATURES>
18
1 10 acceptor
1 11 acceptor
1 12 acceptor
1 13 acceptor
1 26 hydrophobe
1 4 acceptor
1 5 acceptor
1 5 donor
1 6 acceptor
1 6 donor
1 7 acceptor
1 7 donor
1 8 acceptor
1 8 donor
3 2 24 25 hydrophobe
3 21 22 23 hydrophobe
4 3 10 11 12 anion
6 4 14 15 16 17 18 rings

> <PUBCHEM_HEAVY_ATOM_COUNT>
26

> <PUBCHEM_ATOM_DEF_STEREO_COUNT>
5

> <PUBCHEM_ATOM_UDEF_STEREO_COUNT>
0

> <PUBCHEM_BOND_DEF_STEREO_COUNT>
0

> <PUBCHEM_BOND_UDEF_STEREO_COUNT>
1

> <PUBCHEM_ISOTOPIC_ATOM_COUNT>
0

> <PUBCHEM_COMPONENT_COUNT>
1

> <PUBCHEM_CACTVS_TAUTO_COUNT>
1

> <PUBCHEM_CONFORMER_ID>
000A048D00000001

> <PUBCHEM_MMFF94_ENERGY>
43.1692

> <PUBCHEM_FEATURE_SELFOVERLAP>
91.419

> <PUBCHEM_SHAPE_FINGERPRINT>
10721379 63 18194392295935391809
12788726 201 17984683765502677009
13583140 156 17754756136608311466
14004458 79 18268708492582626841
14251757 17 14907886163887400927
14863182 85 16878499021485024383
1813 80 18335419062990431131
1979834 28 15647046041510629119
20388580 30 18334853867001203211
20626108 58 18260537914534107497
20775438 99 17838066909897232123
21344244 181 17183054181982612437
221357 26 15626233433005612127
23557571 272 17974011944625275416
23598288 3 17698704128218051353
4066623 53 17917160416242965677
46194498 28 18269001878167878253
7471813 234 18130775798502468548

> <PUBCHEM_SHAPE_MULTIPOLES>
488.81
13.94
4.92
2.49
34.62
9.51
0.7
-20.8
3.22
-0.74
1.61
-2.64
-0.6
-0.93

> <PUBCHEM_SHAPE_SELFOVERLAP>
919.789

> <PUBCHEM_SHAPE_VOLUME>
304.8

> <PUBCHEM_COORDINATE_TYPE>
2
5
10

$$$$

