13959
  -OEChem-06241222412D

 41 42  0     0  0  0  0  0  0999 V2000
    7.7610    0.6030    0.0000 O   0  0  0  0  0  0  0  0  0  0  0  0
    4.2690   -3.3623    0.0000 O   0  0  0  0  0  0  0  0  0  0  0  0
    2.5369   -0.3623    0.0000 O   0  0  0  0  0  0  0  0  0  0  0  0
    4.2690    0.6377    0.0000 O   0  0  0  0  0  0  0  0  0  0  0  0
    4.2690    2.6377    0.0000 O   0  0  0  0  0  0  0  0  0  0  0  0
    9.5312    0.6136    0.0000 O   0  0  0  0  0  0  0  0  0  0  0  0
    5.1350   -0.8623    0.0000 N   0  0  0  0  0  0  0  0  0  0  0  0
    6.0010   -0.3623    0.0000 C   0  0  0  0  0  0  0  0  0  0  0  0
    6.0010    0.6377    0.0000 C   0  0  0  0  0  0  0  0  0  0  0  0
    5.1350   -1.8623    0.0000 C   0  0  0  0  0  0  0  0  0  0  0  0
    4.2690   -0.3623    0.0000 C   0  0  0  0  0  0  0  0  0  0  0  0
    6.8671    1.1377    0.0000 C   0  0  0  0  0  0  0  0  0  0  0  0
    6.8671    2.1377    0.0000 C   0  0  0  0  0  0  0  0  0  0  0  0
    5.1350    1.1377    0.0000 C   0  0  0  0  0  0  0  0  0  0  0  0
    7.7610    2.6724    0.0000 C   0  0  0  0  0  0  0  0  0  0  0  0
    4.2690   -2.3623    0.0000 C   0  0  0  0  0  0  0  0  0  0  0  0
    3.4030   -0.8623    0.0000 C   0  0  0  0  0  0  0  0  0  0  0  0
    6.0010    2.6377    0.0000 C   0  0  0  0  0  0  0  0  0  0  0  0
    5.1350    2.1377    0.0000 C   0  0  0  0  0  0  0  0  0  0  0  0
    8.6671    2.1585    0.0000 C   0  0  0  0  0  0  0  0  0  0  0  0
    8.6671    1.1169    0.0000 C   0  0  0  0  0  0  0  0  0  0  0  0
    7.7494    3.6723    0.0000 C   0  0  0  0  0  0  0  0  0  0  0  0
    6.2131   -0.9449    0.0000 H   0  0  0  0  0  0  0  0  0  0  0  0
    6.6116   -0.2546    0.0000 H   0  0  0  0  0  0  0  0  0  0  0  0
    5.3471   -2.4449    0.0000 H   0  0  0  0  0  0  0  0  0  0  0  0
    5.7456   -1.7546    0.0000 H   0  0  0  0  0  0  0  0  0  0  0  0
    4.6675    0.1127    0.0000 H   0  0  0  0  0  0  0  0  0  0  0  0
    3.8705    0.1127    0.0000 H   0  0  0  0  0  0  0  0  0  0  0  0
    4.0569   -1.7797    0.0000 H   0  0  0  0  0  0  0  0  0  0  0  0
    3.6584   -2.4700    0.0000 H   0  0  0  0  0  0  0  0  0  0  0  0
    3.0044   -1.3372    0.0000 H   0  0  0  0  0  0  0  0  0  0  0  0
    3.8015   -1.3372    0.0000 H   0  0  0  0  0  0  0  0  0  0  0  0
    6.0010    3.2577    0.0000 H   0  0  0  0  0  0  0  0  0  0  0  0
    9.2028    2.4706    0.0000 H   0  0  0  0  0  0  0  0  0  0  0  0
    8.3694    3.6795    0.0000 H   0  0  0  0  0  0  0  0  0  0  0  0
    7.7423    4.2923    0.0000 H   0  0  0  0  0  0  0  0  0  0  0  0
    7.1295    3.6651    0.0000 H   0  0  0  0  0  0  0  0  0  0  0  0
    3.7321   -3.6723    0.0000 H   0  0  0  0  0  0  0  0  0  0  0  0
    2.0000   -0.6723    0.0000 H   0  0  0  0  0  0  0  0  0  0  0  0
    4.2690    3.2577    0.0000 H   0  0  0  0  0  0  0  0  0  0  0  0
   10.0693    0.9215    0.0000 H   0  0  0  0  0  0  0  0  0  0  0  0
  1 12  1  0  0  0  0
  1 21  1  0  0  0  0
  2 16  1  0  0  0  0
  2 38  1  0  0  0  0
  3 17  1  0  0  0  0
  3 39  1  0  0  0  0
  4 14  2  0  0  0  0
  5 19  1  0  0  0  0
  5 40  1  0  0  0  0
  6 21  1  0  0  0  0
  6 41  1  0  0  0  0
  7  8  1  0  0  0  0
  7 10  1  0  0  0  0
  7 11  1  0  0  0  0
  8  9  1  0  0  0  0
  8 23  1  0  0  0  0
  8 24  1  0  0  0  0
  9 12  2  0  0  0  0
  9 14  1  0  0  0  0
 10 16  1  0  0  0  0
 10 25  1  0  0  0  0
 10 26  1  0  0  0  0
 11 17  1  0  0  0  0
 11 27  1  0  0  0  0
 11 28  1  0  0  0  0
 12 13  1  0  0  0  0
 13 15  2  0  0  0  0
 13 18  1  0  0  0  0
 14 19  1  0  0  0  0
 15 20  1  0  0  0  0
 15 22  1  0  0  0  0
 16 29  1  0  0  0  0
 16 30  1  0  0  0  0
 17 31  1  0  0  0  0
 17 32  1  0  0  0  0
 18 19  2  0  0  0  0
 18 33  1  0  0  0  0
 20 21  2  0  0  0  0
 20 34  1  0  0  0  0
 22 35  1  0  0  0  0
 22 36  1  0  0  0  0
 22 37  1  0  0  0  0
M  END
> <PUBCHEM_COMPOUND_CID>
13959

> <PUBCHEM_COMPOUND_CANONICALIZED>
1

> <PUBCHEM_CACTVS_COMPLEXITY>
593

> <PUBCHEM_CACTVS_HBOND_ACCEPTOR>
7

> <PUBCHEM_CACTVS_HBOND_DONOR>
4

> <PUBCHEM_CACTVS_ROTATABLE_BOND>
6

> <PUBCHEM_CACTVS_SUBSKEYS>
AAADceByOAAAAAAAAAAAAAAAAAAAAAAAAAAgQAAAAAAAAACAAAAAHgAACAAADAThgAYCCAMABgCIAqBSAAKACAAgIAAACAFIAEgaFAgAoAAEUAAEwACcoYIgAAAAAAAAAAAAAAAAAAAAAAAAAAAAAAAAAA==

> <PUBCHEM_IUPAC_OPENEYE_NAME>
8-[[bis(2-hydroxyethyl)amino]methyl]-2,6-dihydroxy-4-methyl-chromen-7-one

> <PUBCHEM_IUPAC_CAS_NAME>
8-[[bis(2-hydroxyethyl)amino]methyl]-2,6-dihydroxy-4-methyl-1-benzopyran-7-one

> <PUBCHEM_IUPAC_NAME>
8-[[bis(2-hydroxyethyl)amino]methyl]-2,6-dihydroxy-4-methylchromen-7-one

> <PUBCHEM_IUPAC_SYSTEMATIC_NAME>
8-[[bis(2-hydroxyethyl)amino]methyl]-4-methyl-2,6-bis(oxidanyl)chromen-7-one

> <PUBCHEM_IUPAC_TRADITIONAL_NAME>
8-[[bis(2-hydroxyethyl)amino]methyl]-2,6-dihydroxy-4-methyl-chromen-7-one

> <PUBCHEM_IUPAC_INCHI>
InChI=1S/C15H19NO6/c1-9-6-13(20)22-15-10(9)7-12(19)14(21)11(15)8-16(2-4-17)3-5-18/h6-7,17-20H,2-5,8H2,1H3

> <PUBCHEM_IUPAC_INCHIKEY>
IYPLTVPZQGHCBV-UHFFFAOYSA-N

> <PUBCHEM_XLOGP3_AA>
-0.9

> <PUBCHEM_EXACT_MASS>
309.121237

> <PUBCHEM_MOLECULAR_FORMULA>
C15H19NO6

> <PUBCHEM_MOLECULAR_WEIGHT>
309.31446

> <PUBCHEM_OPENEYE_CAN_SMILES>
CC1=C2C=C(C(=O)C(=C2OC(=C1)O)CN(CCO)CCO)O

> <PUBCHEM_OPENEYE_ISO_SMILES>
CC1=C2C=C(C(=O)C(=C2OC(=C1)O)CN(CCO)CCO)O

> <PUBCHEM_CACTVS_TPSA>
111

> <PUBCHEM_MONOISOTOPIC_WEIGHT>
309.121237

> <PUBCHEM_TOTAL_CHARGE>
0

> <PUBCHEM_HEAVY_ATOM_COUNT>
22

> <PUBCHEM_ATOM_DEF_STEREO_COUNT>
0

> <PUBCHEM_ATOM_UDEF_STEREO_COUNT>
0

> <PUBCHEM_BOND_DEF_STEREO_COUNT>
0

> <PUBCHEM_BOND_UDEF_STEREO_COUNT>
0

> <PUBCHEM_ISOTOPIC_ATOM_COUNT>
0

> <PUBCHEM_COMPONENT_COUNT>
1

> <PUBCHEM_CACTVS_TAUTO_COUNT>
3

> <PUBCHEM_COORDINATE_TYPE>
1
5
255

> <PUBCHEM_BONDANNOTATIONS>
1  12  8
1  21  8
13  15  8
13  18  8
14  19  8
15  20  8
18  19  8
20  21  8
9  12  8
9  14  8

$$$$

