194150
  -OEChem-07051213103D

 50 51  0     1  0  0  0  0  0999 V2000
    6.2903    0.3300    0.7949 Cl  0  0  0  0  0  0  0  0  0  0  0  0
   -1.6026    1.7218   -0.6613 O   0  0  0  0  0  0  0  0  0  0  0  0
    2.9401   -1.4592    0.5339 O   0  0  0  0  0  0  0  0  0  0  0  0
    4.7934   -1.6249   -0.8275 O   0  0  0  0  0  0  0  0  0  0  0  0
   -3.7232    1.1800    0.4345 C   0  0  0  0  0  0  0  0  0  0  0  0
   -2.3373    1.8656    0.5496 C   0  0  0  0  0  0  0  0  0  0  0  0
   -3.5526   -0.3268    0.1644 C   0  0  0  0  0  0  0  0  0  0  0  0
   -4.4817    1.3715    1.7679 C   0  0  0  0  0  0  0  0  0  0  0  0
   -4.5366    1.9178   -0.6561 C   0  0  0  0  0  0  0  0  0  0  0  0
   -2.8467   -1.0728    1.0727 C   0  0  0  0  0  0  0  0  0  0  0  0
   -4.1152   -0.8501   -0.9713 C   0  0  0  0  0  0  0  0  0  0  0  0
   -0.2389    1.6613   -0.5507 C   0  0  0  0  0  0  0  0  0  0  0  0
   -2.6924   -2.4374    0.8283 C   0  0  0  0  0  0  0  0  0  0  0  0
   -3.9610   -2.2148   -1.2158 C   0  0  0  0  0  0  0  0  0  0  0  0
    2.5304    1.5354   -0.3266 C   0  0  0  0  0  0  0  0  0  0  0  0
    4.0153    1.4690   -0.2068 C   0  0  0  0  0  0  0  0  0  0  0  0
   -3.2497   -3.0084   -0.3159 C   0  0  0  0  0  0  0  0  0  0  0  0
    0.4954    0.9347   -1.4818 C   0  0  0  0  0  0  0  0  0  0  0  0
    0.3988    2.3255    0.4913 C   0  0  0  0  0  0  0  0  0  0  0  0
    1.8843    0.8715   -1.3693 C   0  0  0  0  0  0  0  0  0  0  0  0
    1.7877    2.2625    0.6037 C   0  0  0  0  0  0  0  0  0  0  0  0
    4.5078    0.2903    0.6491 C   0  0  1  0  0  0  0  0  0  0  0  0
    4.1372   -1.0403    0.0247 C   0  0  0  0  0  0  0  0  0  0  0  0
    2.4402   -2.6903    0.0030 C   0  0  0  0  0  0  0  0  0  0  0  0
    1.1174   -3.0118    0.6652 C   0  0  0  0  0  0  0  0  0  0  0  0
   -1.7989    1.4377    1.4051 H   0  0  0  0  0  0  0  0  0  0  0  0
   -2.4693    2.9380    0.7448 H   0  0  0  0  0  0  0  0  0  0  0  0
   -3.9275    0.9761    2.6261 H   0  0  0  0  0  0  0  0  0  0  0  0
   -4.6631    2.4340    1.9685 H   0  0  0  0  0  0  0  0  0  0  0  0
   -5.4551    0.8671    1.7447 H   0  0  0  0  0  0  0  0  0  0  0  0
   -5.5605    1.5330   -0.7338 H   0  0  0  0  0  0  0  0  0  0  0  0
   -4.6218    2.9854   -0.4176 H   0  0  0  0  0  0  0  0  0  0  0  0
   -4.0644    1.8555   -1.6432 H   0  0  0  0  0  0  0  0  0  0  0  0
   -2.4063   -0.6535    1.9704 H   0  0  0  0  0  0  0  0  0  0  0  0
   -4.6764   -0.2829   -1.7024 H   0  0  0  0  0  0  0  0  0  0  0  0
   -2.1394   -3.0559    1.5292 H   0  0  0  0  0  0  0  0  0  0  0  0
   -4.3944   -2.6603   -2.1065 H   0  0  0  0  0  0  0  0  0  0  0  0
    4.4528    1.4114   -1.2134 H   0  0  0  0  0  0  0  0  0  0  0  0
    4.3859    2.4125    0.2163 H   0  0  0  0  0  0  0  0  0  0  0  0
   -3.1292   -4.0709   -0.5062 H   0  0  0  0  0  0  0  0  0  0  0  0
   -0.0043    0.4153   -2.2946 H   0  0  0  0  0  0  0  0  0  0  0  0
   -0.1372    2.9290    1.2175 H   0  0  0  0  0  0  0  0  0  0  0  0
    2.4494    0.3039   -2.1039 H   0  0  0  0  0  0  0  0  0  0  0  0
    2.2803    2.7881    1.4176 H   0  0  0  0  0  0  0  0  0  0  0  0
    4.1156    0.3398    1.6705 H   0  0  0  0  0  0  0  0  0  0  0  0
    3.1588   -3.4930    0.2020 H   0  0  0  0  0  0  0  0  0  0  0  0
    2.2972   -2.5897   -1.0787 H   0  0  0  0  0  0  0  0  0  0  0  0
    0.4008   -2.2018    0.4955 H   0  0  0  0  0  0  0  0  0  0  0  0
    1.2406   -3.1048    1.7491 H   0  0  0  0  0  0  0  0  0  0  0  0
    0.6988   -3.9435    0.2749 H   0  0  0  0  0  0  0  0  0  0  0  0
  1 22  1  0  0  0  0
  2  6  1  0  0  0  0
  2 12  1  0  0  0  0
  3 23  1  0  0  0  0
  3 24  1  0  0  0  0
  4 23  2  0  0  0  0
  5  6  1  0  0  0  0
  5  7  1  0  0  0  0
  5  8  1  0  0  0  0
  5  9  1  0  0  0  0
  6 26  1  0  0  0  0
  6 27  1  0  0  0  0
  7 10  2  0  0  0  0
  7 11  1  0  0  0  0
  8 28  1  0  0  0  0
  8 29  1  0  0  0  0
  8 30  1  0  0  0  0
  9 31  1  0  0  0  0
  9 32  1  0  0  0  0
  9 33  1  0  0  0  0
 10 13  1  0  0  0  0
 10 34  1  0  0  0  0
 11 14  2  0  0  0  0
 11 35  1  0  0  0  0
 12 18  2  0  0  0  0
 12 19  1  0  0  0  0
 13 17  2  0  0  0  0
 13 36  1  0  0  0  0
 14 17  1  0  0  0  0
 14 37  1  0  0  0  0
 15 16  1  0  0  0  0
 15 20  2  0  0  0  0
 15 21  1  0  0  0  0
 16 22  1  0  0  0  0
 16 38  1  0  0  0  0
 16 39  1  0  0  0  0
 17 40  1  0  0  0  0
 18 20  1  0  0  0  0
 18 41  1  0  0  0  0
 19 21  2  0  0  0  0
 19 42  1  0  0  0  0
 20 43  1  0  0  0  0
 21 44  1  0  0  0  0
 22 23  1  0  0  0  0
 22 45  1  0  0  0  0
 24 25  1  0  0  0  0
 24 46  1  0  0  0  0
 24 47  1  0  0  0  0
 25 48  1  0  0  0  0
 25 49  1  0  0  0  0
 25 50  1  0  0  0  0
M  END
> <PUBCHEM_COMPOUND_CID>
194150

> <PUBCHEM_CONFORMER_RMSD>
1

> <PUBCHEM_CONFORMER_DIVERSEORDER>
1
57
114
105
104
34
48
79
127
53
27
120
122
124
81
45
80
109
22
46
31
85
133
52
131
12
106
100
86
121
44
42
41
63
130
10
61
39
95
117
32
84
107
97
76
126
73
23
21
110
101
38
64
115
102
129
113
132
58
70
74
36
134
16
90
123
17
103
19
116
51
71
72
47
87
20
92
3
54
88
2
119
35
125
11
8
77
4
91
69
60
99
7
111
94
96
5
25
108
14
15
78
40
56
89
30
55
98
33
82
112
26
128
18
28
59
67
50
118
13
66
29
68
83
43
62
6
37
49
93
9
65
75
24

> <PUBCHEM_MMFF94_PARTIAL_CHARGES>
31
1 -0.29
10 -0.15
11 -0.15
12 0.08
13 -0.15
14 -0.15
15 -0.14
16 0.14
17 -0.15
18 -0.15
19 -0.15
2 -0.36
20 -0.15
21 -0.15
22 0.35
23 0.66
24 0.28
3 -0.43
34 0.15
35 0.15
36 0.15
37 0.15
4 -0.57
40 0.15
41 0.15
42 0.15
43 0.15
44 0.15
5 0.14
6 0.28
7 -0.14

> <PUBCHEM_EFFECTIVE_ROTOR_COUNT>
9

> <PUBCHEM_PHARMACOPHORE_FEATURES>
5
1 2 acceptor
1 4 acceptor
3 5 8 9 hydrophobe
6 12 15 18 19 20 21 rings
6 7 10 11 13 14 17 rings

> <PUBCHEM_HEAVY_ATOM_COUNT>
25

> <PUBCHEM_ATOM_DEF_STEREO_COUNT>
0

> <PUBCHEM_ATOM_UDEF_STEREO_COUNT>
1

> <PUBCHEM_BOND_DEF_STEREO_COUNT>
0

> <PUBCHEM_BOND_UDEF_STEREO_COUNT>
0

> <PUBCHEM_ISOTOPIC_ATOM_COUNT>
0

> <PUBCHEM_COMPONENT_COUNT>
1

> <PUBCHEM_CACTVS_TAUTO_COUNT>
1

> <PUBCHEM_CONFORMER_ID>
0002F66600000001

> <PUBCHEM_MMFF94_ENERGY>
75.9977

> <PUBCHEM_FEATURE_SELFOVERLAP>
25.371

> <PUBCHEM_SHAPE_FINGERPRINT>
10616163 171 18411416176872844415
11135609 12 17845082974923259625
11513181 2 18187082896884027942
11552529 35 18041845004419338829
12422481 6 18271542978262282242
12553582 1 18271805777987719408
12596599 1 17968639623263549914
12596602 18 17168146711280282504
12633257 1 18187916313975918641
13402501 40 18413951689452120978
13583140 156 18113912540974871280
14117953 113 17762066827327078391
144659 178 18342453691077725892
14617045 38 18270668891591489395
14765038 42 18262220218442414696
14787075 74 18409168771422762640
15250474 111 18410575046103494404
15537594 2 18200299035080722754
16067690 210 16443342143221556163
17857418 61 18413114943928762796
1813 80 17203320130838779228
21673915 165 18410858737594546502
21857420 4 12444784790998918276
23559900 14 18337401460706915169
338550 245 18343577430704974740
339767 52 18339935830565804095
3633792 109 18266469883368083013
3680242 22 18200877400004287170
392239 28 18335143111642551728
4403749 210 18265352629087735488
445580 102 18125992768066209987
463206 1 18412539903431134179
508706 21 18272651229389122739
5104073 3 18114741516891828976
5281201 14 10735883884683231984
5924683 9 18260551083009345229
6433294 58 18125443257191662002

> <PUBCHEM_SHAPE_MULTIPOLES>
498.75
11.88
3.69
1.27
7.14
2.07
0.03
1.36
-1.34
-1.48
-0.2
-0.72
-0.13
-0.66

> <PUBCHEM_SHAPE_SELFOVERLAP>
1031.582

> <PUBCHEM_SHAPE_VOLUME>
286.6

> <PUBCHEM_COORDINATE_TYPE>
2
5
10

$$$$

