6857531
  -OEChem-07051213152D

 66 69  0     1  0  0  0  0  0999 V2000
    6.5251    0.2400    0.0000 C   0  0  1  0  0  0  0  0  0  0  0  0
    6.5251   -0.7600    0.0000 C   0  0  2  0  0  0  0  0  0  0  0  0
    5.6591   -1.2600    0.0000 C   0  0  1  0  0  0  0  0  0  0  0  0
    4.7931   -0.7600    0.0000 C   0  0  1  0  0  0  0  0  0  0  0  0
    3.8831   -1.2669    0.0000 C   0  0  2  0  0  0  0  0  0  0  0  0
    7.4714    0.5447    0.0000 C   0  0  2  0  0  0  0  0  0  0  0  0
    5.6591    0.7400    0.0000 C   0  0  0  0  0  0  0  0  0  0  0  0
    4.7931    0.2400    0.0000 C   0  0  0  0  0  0  0  0  0  0  0  0
    3.8751   -2.3085    0.0000 C   0  0  1  0  0  0  0  0  0  0  0  0
    7.4714   -1.0648    0.0000 C   0  0  0  0  0  0  0  0  0  0  0  0
    5.6752   -2.3015    0.0000 C   0  0  0  0  0  0  0  0  0  0  0  0
    8.0550   -0.2600    0.0000 C   0  0  0  0  0  0  0  0  0  0  0  0
    4.7771   -2.8293    0.0000 C   0  0  0  0  0  0  0  0  0  0  0  0
    2.9562   -0.7028    0.0000 C   0  0  0  0  0  0  0  0  0  0  0  0
    6.5251    1.2400    0.0000 C   0  0  0  0  0  0  0  0  0  0  0  0
    7.7820    1.4952    0.0000 C   0  0  1  0  0  0  0  0  0  0  0  0
    2.9396   -2.8582    0.0000 C   0  0  0  0  0  0  0  0  0  0  0  0
    3.8908   -0.2669    0.0000 C   0  0  0  0  0  0  0  0  0  0  0  0
    2.0084   -1.2307    0.0000 C   0  0  0  0  0  0  0  0  0  0  0  0
    2.0000   -2.3157    0.0000 C   0  0  0  0  0  0  0  0  0  0  0  0
    8.7605    1.7014    0.0000 C   0  0  0  0  0  0  0  0  0  0  0  0
    7.1142    2.2395    0.0000 C   0  0  0  0  0  0  0  0  0  0  0  0
    9.0712    2.6520    0.0000 C   0  0  0  0  0  0  0  0  0  0  0  0
   10.0497    2.8582    0.0000 C   0  0  0  0  0  0  0  0  0  0  0  0
    6.6151   -1.6052    0.0000 H   0  0  0  0  0  0  0  0  0  0  0  0
    6.3985   -1.6793    0.0000 H   0  0  0  0  0  0  0  0  0  0  0  0
    5.5292   -0.3350    0.0000 H   0  0  0  0  0  0  0  0  0  0  0  0
    8.3111    0.6766    0.0000 H   0  0  0  0  0  0  0  0  0  0  0  0
    6.0576    1.2149    0.0000 H   0  0  0  0  0  0  0  0  0  0  0  0
    5.2606    1.2149    0.0000 H   0  0  0  0  0  0  0  0  0  0  0  0
    4.5810    0.8226    0.0000 H   0  0  0  0  0  0  0  0  0  0  0  0
    4.1825    0.1323    0.0000 H   0  0  0  0  0  0  0  0  0  0  0  0
    3.8783   -3.1585    0.0000 H   0  0  0  0  0  0  0  0  0  0  0  0
    7.2203   -1.6317    0.0000 H   0  0  0  0  0  0  0  0  0  0  0  0
    8.0087   -1.3740    0.0000 H   0  0  0  0  0  0  0  0  0  0  0  0
    5.8932   -2.8819    0.0000 H   0  0  0  0  0  0  0  0  0  0  0  0
    6.2843   -2.1860    0.0000 H   0  0  0  0  0  0  0  0  0  0  0  0
    8.5158   -0.6747    0.0000 H   0  0  0  0  0  0  0  0  0  0  0  0
    8.5158    0.1547    0.0000 H   0  0  0  0  0  0  0  0  0  0  0  0
    4.3798   -3.3052    0.0000 H   0  0  0  0  0  0  0  0  0  0  0  0
    5.1781   -3.3022    0.0000 H   0  0  0  0  0  0  0  0  0  0  0  0
    3.3645   -0.2361    0.0000 H   0  0  0  0  0  0  0  0  0  0  0  0
    2.5663   -0.2207    0.0000 H   0  0  0  0  0  0  0  0  0  0  0  0
    7.1451    1.2400    0.0000 H   0  0  0  0  0  0  0  0  0  0  0  0
    6.5251    1.8600    0.0000 H   0  0  0  0  0  0  0  0  0  0  0  0
    5.9051    1.2400    0.0000 H   0  0  0  0  0  0  0  0  0  0  0  0
    7.9746    2.0846    0.0000 H   0  0  0  0  0  0  0  0  0  0  0  0
    2.5423   -3.3342    0.0000 H   0  0  0  0  0  0  0  0  0  0  0  0
    3.3406   -3.3311    0.0000 H   0  0  0  0  0  0  0  0  0  0  0  0
    4.5108   -0.2717    0.0000 H   0  0  0  0  0  0  0  0  0  0  0  0
    3.8956    0.3531    0.0000 H   0  0  0  0  0  0  0  0  0  0  0  0
    3.2708   -0.2621    0.0000 H   0  0  0  0  0  0  0  0  0  0  0  0
    1.8038   -0.6454    0.0000 H   0  0  0  0  0  0  0  0  0  0  0  0
    1.3967   -1.3321    0.0000 H   0  0  0  0  0  0  0  0  0  0  0  0
    1.3900   -2.2049    0.0000 H   0  0  0  0  0  0  0  0  0  0  0  0
    1.7864   -2.8978    0.0000 H   0  0  0  0  0  0  0  0  0  0  0  0
    8.7811    1.0818    0.0000 H   0  0  0  0  0  0  0  0  0  0  0  0
    9.3743    1.6141    0.0000 H   0  0  0  0  0  0  0  0  0  0  0  0
    7.5756    2.6536    0.0000 H   0  0  0  0  0  0  0  0  0  0  0  0
    6.7001    2.7010    0.0000 H   0  0  0  0  0  0  0  0  0  0  0  0
    6.6527    1.8255    0.0000 H   0  0  0  0  0  0  0  0  0  0  0  0
    9.0506    3.2716    0.0000 H   0  0  0  0  0  0  0  0  0  0  0  0
    8.4574    2.7393    0.0000 H   0  0  0  0  0  0  0  0  0  0  0  0
   10.1775    2.2515    0.0000 H   0  0  0  0  0  0  0  0  0  0  0  0
   10.6564    2.9860    0.0000 H   0  0  0  0  0  0  0  0  0  0  0  0
    9.9218    3.4649    0.0000 H   0  0  0  0  0  0  0  0  0  0  0  0
  1  2  1  0  0  0  0
  1  6  1  0  0  0  0
  1  7  1  0  0  0  0
  1 15  1  1  0  0  0
  2  3  1  0  0  0  0
  2 10  1  0  0  0  0
  2 25  1  6  0  0  0
  3  4  1  0  0  0  0
  3 11  1  0  0  0  0
  3 26  1  1  0  0  0
  4  5  1  0  0  0  0
  4  8  1  0  0  0  0
  4 27  1  6  0  0  0
  5  9  1  0  0  0  0
  5 14  1  0  0  0  0
  5 18  1  1  0  0  0
  6 12  1  0  0  0  0
  6 16  1  0  0  0  0
  6 28  1  6  0  0  0
  7  8  1  0  0  0  0
  7 29  1  0  0  0  0
  7 30  1  0  0  0  0
  8 31  1  0  0  0  0
  8 32  1  0  0  0  0
  9 13  1  0  0  0  0
  9 17  1  0  0  0  0
  9 33  1  6  0  0  0
 10 12  1  0  0  0  0
 10 34  1  0  0  0  0
 10 35  1  0  0  0  0
 11 13  1  0  0  0  0
 11 36  1  0  0  0  0
 11 37  1  0  0  0  0
 12 38  1  0  0  0  0
 12 39  1  0  0  0  0
 13 40  1  0  0  0  0
 13 41  1  0  0  0  0
 14 19  1  0  0  0  0
 14 42  1  0  0  0  0
 14 43  1  0  0  0  0
 15 44  1  0  0  0  0
 15 45  1  0  0  0  0
 15 46  1  0  0  0  0
 16 21  1  0  0  0  0
 16 22  1  6  0  0  0
 16 47  1  0  0  0  0
 17 20  1  0  0  0  0
 17 48  1  0  0  0  0
 17 49  1  0  0  0  0
 18 50  1  0  0  0  0
 18 51  1  0  0  0  0
 18 52  1  0  0  0  0
 19 20  1  0  0  0  0
 19 53  1  0  0  0  0
 19 54  1  0  0  0  0
 20 55  1  0  0  0  0
 20 56  1  0  0  0  0
 21 23  1  0  0  0  0
 21 57  1  0  0  0  0
 21 58  1  0  0  0  0
 22 59  1  0  0  0  0
 22 60  1  0  0  0  0
 22 61  1  0  0  0  0
 23 24  1  0  0  0  0
 23 62  1  0  0  0  0
 23 63  1  0  0  0  0
 24 64  1  0  0  0  0
 24 65  1  0  0  0  0
 24 66  1  0  0  0  0
M  END
> <PUBCHEM_COMPOUND_CID>
6857531

> <PUBCHEM_COMPOUND_CANONICALIZED>
1

> <PUBCHEM_CACTVS_COMPLEXITY>
453

> <PUBCHEM_CACTVS_HBOND_ACCEPTOR>
0

> <PUBCHEM_CACTVS_HBOND_DONOR>
0

> <PUBCHEM_CACTVS_ROTATABLE_BOND>
3

> <PUBCHEM_CACTVS_SUBSKEYS>
AAADcfB4AAAAAAAAAAAAAAAAAAAAAYAAAAAwYMAAAAAAAGDAAAAAGAAAAAAADwCAAAACAAAAAAAAAAAAAAAAAAAAAAAAAAAAAAAAAAIAAAAAAAAAAAAAAAEAgMAPgAAAAAAAAACAAAQAACAAAQAACAAAAA==

> <PUBCHEM_IUPAC_OPENEYE_NAME>
(5R,8R,9S,10S,13R,14S,17R)-10,13-dimethyl-17-[(1R)-1-methylbutyl]-2,3,4,5,6,7,8,9,11,12,14,15,16,17-tetradecahydro-1H-cyclopenta[a]phenanthrene

> <PUBCHEM_IUPAC_CAS_NAME>
(5R,8R,9S,10S,13R,14S,17R)-10,13-dimethyl-17-[(2R)-pentan-2-yl]-2,3,4,5,6,7,8,9,11,12,14,15,16,17-tetradecahydro-1H-cyclopenta[a]phenanthrene

> <PUBCHEM_IUPAC_NAME>
(5R,8R,9S,10S,13R,14S,17R)-10,13-dimethyl-17-[(2R)-pentan-2-yl]-2,3,4,5,6,7,8,9,11,12,14,15,16,17-tetradecahydro-1H-cyclopenta[a]phenanthrene

> <PUBCHEM_IUPAC_SYSTEMATIC_NAME>
(5R,8R,9S,10S,13R,14S,17R)-10,13-dimethyl-17-[(2R)-pentan-2-yl]-2,3,4,5,6,7,8,9,11,12,14,15,16,17-tetradecahydro-1H-cyclopenta[a]phenanthrene

> <PUBCHEM_IUPAC_TRADITIONAL_NAME>
(5R,8R,9S,10S,13R,14S,17R)-10,13-dimethyl-17-[(1R)-1-methylbutyl]-2,3,4,5,6,7,8,9,11,12,14,15,16,17-tetradecahydro-1H-cyclopenta[a]phenanthrene

> <PUBCHEM_IUPAC_INCHI>
InChI=1S/C24H42/c1-5-8-17(2)20-12-13-21-19-11-10-18-9-6-7-15-23(18,3)22(19)14-16-24(20,21)4/h17-22H,5-16H2,1-4H3/t17-,18-,19+,20-,21+,22+,23+,24-/m1/s1

> <PUBCHEM_IUPAC_INCHIKEY>
QSHQKIURKJITMZ-VVVZRFTHSA-N

> <PUBCHEM_XLOGP3_AA>
9.7

> <PUBCHEM_EXACT_MASS>
330.328651

> <PUBCHEM_MOLECULAR_FORMULA>
C24H42

> <PUBCHEM_MOLECULAR_WEIGHT>
330.59028

> <PUBCHEM_OPENEYE_CAN_SMILES>
CCCC(C)C1CCC2C1(CCC3C2CCC4C3(CCCC4)C)C

> <PUBCHEM_OPENEYE_ISO_SMILES>
CCC[C@@H](C)[C@H]1CC[C@@H]2[C@@]1(CC[C@H]3[C@H]2CC[C@@H]4[C@@]3(CCCC4)C)C

> <PUBCHEM_CACTVS_TPSA>
0

> <PUBCHEM_MONOISOTOPIC_WEIGHT>
330.328651

> <PUBCHEM_TOTAL_CHARGE>
0

> <PUBCHEM_HEAVY_ATOM_COUNT>
24

> <PUBCHEM_ATOM_DEF_STEREO_COUNT>
8

> <PUBCHEM_ATOM_UDEF_STEREO_COUNT>
0

> <PUBCHEM_BOND_DEF_STEREO_COUNT>
0

> <PUBCHEM_BOND_UDEF_STEREO_COUNT>
0

> <PUBCHEM_ISOTOPIC_ATOM_COUNT>
0

> <PUBCHEM_COMPONENT_COUNT>
1

> <PUBCHEM_CACTVS_TAUTO_COUNT>
1

> <PUBCHEM_COORDINATE_TYPE>
1
5
255

> <PUBCHEM_BONDANNOTATIONS>
1  15  5
16  22  6
2  25  6
3  26  5
4  27  6
5  18  5
6  28  6
9  33  6

$$$$

