23665888
  -OEChem-07051213112D

 27 27  0     1  0  0  0  0  0999 V2000
    3.5000   -0.5000    0.0000 S   0  0  0  0  0  0  0  0  0  0  0  0
    2.0000    0.3660    0.0000 Na  0  3  0  0  0  0  0  0  0  0  0  0
    2.5000   -0.5000    0.0000 O   0  5  0  0  0  0  0  0  0  0  0  0
    5.3660   -2.0000    0.0000 O   0  0  0  0  0  0  0  0  0  0  0  0
    3.5000    0.5000    0.0000 O   0  0  0  0  0  0  0  0  0  0  0  0
    3.1581   -1.4397    0.0000 O   0  0  0  0  0  0  0  0  0  0  0  0
    5.3660    2.0000    0.0000 O   0  0  0  0  0  0  0  0  0  0  0  0
    4.5000   -0.5000    0.0000 C   0  0  3  0  0  0  0  0  0  0  0  0
    4.5000    0.5000    0.0000 C   0  0  0  0  0  0  0  0  0  0  0  0
    5.3660   -1.0000    0.0000 C   0  0  0  0  0  0  0  0  0  0  0  0
    4.3264   -1.4848    0.0000 C   0  0  0  0  0  0  0  0  0  0  0  0
    6.2320   -0.5000    0.0000 C   0  0  0  0  0  0  0  0  0  0  0  0
    5.3660    1.0000    0.0000 C   0  0  0  0  0  0  0  0  0  0  0  0
    6.2320    0.5000    0.0000 C   0  0  0  0  0  0  0  0  0  0  0  0
    7.1260   -1.0347    0.0000 C   0  0  0  0  0  0  0  0  0  0  0  0
    7.1260    1.0347    0.0000 C   0  0  0  0  0  0  0  0  0  0  0  0
    8.0321   -0.5208    0.0000 C   0  0  0  0  0  0  0  0  0  0  0  0
    8.0321    0.5208    0.0000 C   0  0  0  0  0  0  0  0  0  0  0  0
    4.2880    1.0826    0.0000 H   0  0  0  0  0  0  0  0  0  0  0  0
    3.8894    0.3923    0.0000 H   0  0  0  0  0  0  0  0  0  0  0  0
    3.7158   -1.3772    0.0000 H   0  0  0  0  0  0  0  0  0  0  0  0
    4.2188   -2.0954    0.0000 H   0  0  0  0  0  0  0  0  0  0  0  0
    4.9370   -1.5924    0.0000 H   0  0  0  0  0  0  0  0  0  0  0  0
    7.1188   -1.6546    0.0000 H   0  0  0  0  0  0  0  0  0  0  0  0
    7.1188    1.6546    0.0000 H   0  0  0  0  0  0  0  0  0  0  0  0
    8.5678   -0.8329    0.0000 H   0  0  0  0  0  0  0  0  0  0  0  0
    8.5678    0.8329    0.0000 H   0  0  0  0  0  0  0  0  0  0  0  0
  1  3  1  0  0  0  0
  1  5  2  0  0  0  0
  1  6  2  0  0  0  0
  1  8  1  0  0  0  0
  4 10  2  0  0  0  0
  7 13  2  0  0  0  0
  8  9  1  0  0  0  0
  8 10  1  0  0  0  0
  8 11  1  0  0  0  0
  9 13  1  0  0  0  0
  9 19  1  0  0  0  0
  9 20  1  0  0  0  0
 10 12  1  0  0  0  0
 11 21  1  0  0  0  0
 11 22  1  0  0  0  0
 11 23  1  0  0  0  0
 12 14  1  0  0  0  0
 12 15  2  0  0  0  0
 13 14  1  0  0  0  0
 14 16  2  0  0  0  0
 15 17  1  0  0  0  0
 15 24  1  0  0  0  0
 16 18  1  0  0  0  0
 16 25  1  0  0  0  0
 17 18  2  0  0  0  0
 17 26  1  0  0  0  0
 18 27  1  0  0  0  0
M  CHG  2   2   1   3  -1
M  END
> <PUBCHEM_COMPOUND_CID>
23665888

> <PUBCHEM_COMPOUND_CANONICALIZED>
1

> <PUBCHEM_CACTVS_COMPLEXITY>
466

> <PUBCHEM_CACTVS_HBOND_ACCEPTOR>
5

> <PUBCHEM_CACTVS_HBOND_DONOR>
0

> <PUBCHEM_CACTVS_ROTATABLE_BOND>
1

> <PUBCHEM_CACTVS_SUBSKEYS>
AAADccBwOCBAAAAAAAAAAAAAAAAAAAAAAAAwYAAAAAAAAADBAAAAGgQAAAAADASA2AAyAIAAAAKIAqBSAHBCAAAkAAAIiAEAAMgIIDKAFRCAIQAggAAIiYcJiMCOgAAAAAAQAACgAAUAACAAAAAAAAAAAA==

> <PUBCHEM_IUPAC_OPENEYE_NAME>
sodium 2-methyl-1,4-dioxo-tetralin-2-sulfonate

> <PUBCHEM_IUPAC_CAS_NAME>
sodium 2-methyl-1,4-dioxo-3H-naphthalene-2-sulfonate

> <PUBCHEM_IUPAC_NAME>
sodium 2-methyl-1,4-dioxo-3H-naphthalene-2-sulfonate

> <PUBCHEM_IUPAC_SYSTEMATIC_NAME>
sodium 2-methyl-1,4-bis(oxidanylidene)-3H-naphthalene-2-sulfonate

> <PUBCHEM_IUPAC_TRADITIONAL_NAME>
sodium 1,4-diketo-2-methyl-tetralin-2-sulfonate

> <PUBCHEM_IUPAC_INCHI>
InChI=1S/C11H10O5S.Na/c1-11(17(14,15)16)6-9(12)7-4-2-3-5-8(7)10(11)13;/h2-5H,6H2,1H3,(H,14,15,16);/q;+1/p-1

> <PUBCHEM_IUPAC_INCHIKEY>
XDPFHGWVCTXHDX-UHFFFAOYSA-M

> <PUBCHEM_EXACT_MASS>
276.006839

> <PUBCHEM_MOLECULAR_FORMULA>
C11H9NaO5S

> <PUBCHEM_MOLECULAR_WEIGHT>
276.240929

> <PUBCHEM_OPENEYE_CAN_SMILES>
CC1(CC(=O)C2=CC=CC=C2C1=O)S(=O)(=O)[O-].[Na+]

> <PUBCHEM_OPENEYE_ISO_SMILES>
CC1(CC(=O)C2=CC=CC=C2C1=O)S(=O)(=O)[O-].[Na+]

> <PUBCHEM_CACTVS_TPSA>
99.7

> <PUBCHEM_MONOISOTOPIC_WEIGHT>
276.006839

> <PUBCHEM_TOTAL_CHARGE>
0

> <PUBCHEM_HEAVY_ATOM_COUNT>
18

> <PUBCHEM_ATOM_DEF_STEREO_COUNT>
0

> <PUBCHEM_ATOM_UDEF_STEREO_COUNT>
1

> <PUBCHEM_BOND_DEF_STEREO_COUNT>
0

> <PUBCHEM_BOND_UDEF_STEREO_COUNT>
0

> <PUBCHEM_ISOTOPIC_ATOM_COUNT>
0

> <PUBCHEM_COMPONENT_COUNT>
2

> <PUBCHEM_CACTVS_TAUTO_COUNT>
2

> <PUBCHEM_NONSTANDARDBOND>
2  3  7

> <PUBCHEM_COORDINATE_TYPE>
1
5
255

> <PUBCHEM_BONDANNOTATIONS>
12  14  8
12  15  8
14  16  8
15  17  8
16  18  8
17  18  8
8  11  3

$$$$

