5281118
  -OEChem-07051212552D

 49 48  0     0  0  0  0  0  0999 V2000
    5.4641   -1.4050    0.0000 O   0  0  0  0  0  0  0  0  0  0  0  0
    2.8660   -3.9050    0.0000 O   0  0  0  0  0  0  0  0  0  0  0  0
    2.0000   -2.4050    0.0000 O   0  0  0  0  0  0  0  0  0  0  0  0
    5.4641    0.5950    0.0000 C   0  0  0  0  0  0  0  0  0  0  0  0
    5.4641    1.5950    0.0000 C   0  0  0  0  0  0  0  0  0  0  0  0
    4.5981    0.0950    0.0000 C   0  0  0  0  0  0  0  0  0  0  0  0
    6.3301    2.0950    0.0000 C   0  0  0  0  0  0  0  0  0  0  0  0
    4.5981   -0.9050    0.0000 C   0  0  0  0  0  0  0  0  0  0  0  0
    3.7320   -1.4050    0.0000 C   0  0  0  0  0  0  0  0  0  0  0  0
   12.3923    3.5950    0.0000 C   0  0  0  0  0  0  0  0  0  0  0  0
    3.7320   -2.4050    0.0000 C   0  0  0  0  0  0  0  0  0  0  0  0
    6.3301    3.0950    0.0000 C   0  0  0  0  0  0  0  0  0  0  0  0
   13.2583    3.0950    0.0000 C   0  0  0  0  0  0  0  0  0  0  0  0
   11.5263    3.0950    0.0000 C   0  0  0  0  0  0  0  0  0  0  0  0
    7.1962    3.5950    0.0000 C   0  0  0  0  0  0  0  0  0  0  0  0
   14.1244    3.5950    0.0000 C   0  0  0  0  0  0  0  0  0  0  0  0
   10.6603    3.5950    0.0000 C   0  0  0  0  0  0  0  0  0  0  0  0
    2.8660   -2.9050    0.0000 C   0  0  0  0  0  0  0  0  0  0  0  0
    8.0622    3.0950    0.0000 C   0  0  0  0  0  0  0  0  0  0  0  0
    9.7942    3.0950    0.0000 C   0  0  0  0  0  0  0  0  0  0  0  0
    8.9282    3.5950    0.0000 C   0  0  0  0  0  0  0  0  0  0  0  0
    5.6762    0.0124    0.0000 H   0  0  0  0  0  0  0  0  0  0  0  0
    6.0747    0.7027    0.0000 H   0  0  0  0  0  0  0  0  0  0  0  0
    5.2520    2.1776    0.0000 H   0  0  0  0  0  0  0  0  0  0  0  0
    4.8535    1.4873    0.0000 H   0  0  0  0  0  0  0  0  0  0  0  0
    4.3860    0.6776    0.0000 H   0  0  0  0  0  0  0  0  0  0  0  0
    3.9875   -0.0127    0.0000 H   0  0  0  0  0  0  0  0  0  0  0  0
    6.5422    1.5124    0.0000 H   0  0  0  0  0  0  0  0  0  0  0  0
    6.9407    2.2027    0.0000 H   0  0  0  0  0  0  0  0  0  0  0  0
    3.5200   -0.8224    0.0000 H   0  0  0  0  0  0  0  0  0  0  0  0
    3.1215   -1.5127    0.0000 H   0  0  0  0  0  0  0  0  0  0  0  0
   12.7908    4.0700    0.0000 H   0  0  0  0  0  0  0  0  0  0  0  0
   11.9938    4.0700    0.0000 H   0  0  0  0  0  0  0  0  0  0  0  0
    3.9441   -2.9876    0.0000 H   0  0  0  0  0  0  0  0  0  0  0  0
    4.3426   -2.2973    0.0000 H   0  0  0  0  0  0  0  0  0  0  0  0
    5.7932    3.4050    0.0000 H   0  0  0  0  0  0  0  0  0  0  0  0
   12.8598    2.6200    0.0000 H   0  0  0  0  0  0  0  0  0  0  0  0
   13.6569    2.6200    0.0000 H   0  0  0  0  0  0  0  0  0  0  0  0
   11.1278    2.6200    0.0000 H   0  0  0  0  0  0  0  0  0  0  0  0
   11.9248    2.6200    0.0000 H   0  0  0  0  0  0  0  0  0  0  0  0
    7.1962    4.2150    0.0000 H   0  0  0  0  0  0  0  0  0  0  0  0
   14.4344    3.0581    0.0000 H   0  0  0  0  0  0  0  0  0  0  0  0
   14.6613    3.9050    0.0000 H   0  0  0  0  0  0  0  0  0  0  0  0
   13.8144    4.1319    0.0000 H   0  0  0  0  0  0  0  0  0  0  0  0
   10.6603    4.2150    0.0000 H   0  0  0  0  0  0  0  0  0  0  0  0
    8.0622    2.4750    0.0000 H   0  0  0  0  0  0  0  0  0  0  0  0
    9.7942    2.4750    0.0000 H   0  0  0  0  0  0  0  0  0  0  0  0
    8.9282    4.2150    0.0000 H   0  0  0  0  0  0  0  0  0  0  0  0
    2.3291   -4.2150    0.0000 H   0  0  0  0  0  0  0  0  0  0  0  0
  1  8  2  0  0  0  0
  2 18  1  0  0  0  0
  2 49  1  0  0  0  0
  3 18  2  0  0  0  0
  4  5  1  0  0  0  0
  4  6  1  0  0  0  0
  4 22  1  0  0  0  0
  4 23  1  0  0  0  0
  5  7  1  0  0  0  0
  5 24  1  0  0  0  0
  5 25  1  0  0  0  0
  6  8  1  0  0  0  0
  6 26  1  0  0  0  0
  6 27  1  0  0  0  0
  7 12  1  0  0  0  0
  7 28  1  0  0  0  0
  7 29  1  0  0  0  0
  8  9  1  0  0  0  0
  9 11  1  0  0  0  0
  9 30  1  0  0  0  0
  9 31  1  0  0  0  0
 10 13  1  0  0  0  0
 10 14  1  0  0  0  0
 10 32  1  0  0  0  0
 10 33  1  0  0  0  0
 11 18  1  0  0  0  0
 11 34  1  0  0  0  0
 11 35  1  0  0  0  0
 12 15  2  0  0  0  0
 12 36  1  0  0  0  0
 13 16  1  0  0  0  0
 13 37  1  0  0  0  0
 13 38  1  0  0  0  0
 14 17  1  0  0  0  0
 14 39  1  0  0  0  0
 14 40  1  0  0  0  0
 15 19  1  0  0  0  0
 15 41  1  0  0  0  0
 16 42  1  0  0  0  0
 16 43  1  0  0  0  0
 16 44  1  0  0  0  0
 17 20  2  0  0  0  0
 17 45  1  0  0  0  0
 19 21  2  0  0  0  0
 19 46  1  0  0  0  0
 20 21  1  0  0  0  0
 20 47  1  0  0  0  0
 21 48  1  0  0  0  0
M  END
> <PUBCHEM_COMPOUND_CID>
5281118

> <PUBCHEM_COMPOUND_CANONICALIZED>
1

> <PUBCHEM_CACTVS_COMPLEXITY>
365

> <PUBCHEM_CACTVS_HBOND_ACCEPTOR>
3

> <PUBCHEM_CACTVS_HBOND_DONOR>
1

> <PUBCHEM_CACTVS_ROTATABLE_BOND>
13

> <PUBCHEM_CACTVS_SUBSKEYS>
AAADceB4MAAAAAAAAAAAAAAAAAAAAAAAAAAAAAAAAAAAAAAAAAAAGgAACAAACASAgAACCAAAAgCIAKDSCAAAAAAgAAAICAEAAAgIABIAAQAAQAAEgAAIgAOLyKCAAAAAAAAAAAAAAAAAAAAAAAAAAAAAAA==

> <PUBCHEM_IUPAC_OPENEYE_NAME>
(9Z,11E,13E)-4-oxooctadeca-9,11,13-trienoic acid

> <PUBCHEM_IUPAC_CAS_NAME>
(9Z,11E,13E)-4-oxooctadeca-9,11,13-trienoic acid

> <PUBCHEM_IUPAC_NAME>
(9Z,11E,13E)-4-oxooctadeca-9,11,13-trienoic acid

> <PUBCHEM_IUPAC_SYSTEMATIC_NAME>
(9Z,11E,13E)-4-oxidanylideneoctadeca-9,11,13-trienoic acid

> <PUBCHEM_IUPAC_TRADITIONAL_NAME>
(9Z,11E,13E)-4-ketooctadeca-9,11,13-trienoic acid

> <PUBCHEM_IUPAC_INCHI>
InChI=1S/C18H28O3/c1-2-3-4-5-6-7-8-9-10-11-12-13-14-17(19)15-16-18(20)21/h5-10H,2-4,11-16H2,1H3,(H,20,21)/b6-5+,8-7+,10-9-

> <PUBCHEM_IUPAC_INCHIKEY>
DTRGDWOPRCXRET-WPOADVJFSA-N

> <PUBCHEM_XLOGP3_AA>
4.4

> <PUBCHEM_EXACT_MASS>
292.203845

> <PUBCHEM_MOLECULAR_FORMULA>
C18H28O3

> <PUBCHEM_MOLECULAR_WEIGHT>
292.41312

> <PUBCHEM_OPENEYE_CAN_SMILES>
CCCCC=CC=CC=CCCCCC(=O)CCC(=O)O

> <PUBCHEM_OPENEYE_ISO_SMILES>
CCCC/C=C/C=C/C=C\CCCCC(=O)CCC(=O)O

> <PUBCHEM_CACTVS_TPSA>
54.4

> <PUBCHEM_MONOISOTOPIC_WEIGHT>
292.203845

> <PUBCHEM_TOTAL_CHARGE>
0

> <PUBCHEM_HEAVY_ATOM_COUNT>
21

> <PUBCHEM_ATOM_DEF_STEREO_COUNT>
0

> <PUBCHEM_ATOM_UDEF_STEREO_COUNT>
0

> <PUBCHEM_BOND_DEF_STEREO_COUNT>
3

> <PUBCHEM_BOND_UDEF_STEREO_COUNT>
0

> <PUBCHEM_ISOTOPIC_ATOM_COUNT>
0

> <PUBCHEM_COMPONENT_COUNT>
1

> <PUBCHEM_CACTVS_TAUTO_COUNT>
3

> <PUBCHEM_COORDINATE_TYPE>
1
5
255

$$$$

