14029
  -OEChem-06241222412D

 30 29  0     0  0  0  0  0  0999 V2000
    4.5981   -0.5490    0.0000 P   0  0  0  0  0  0  0  0  0  0  0  0
    6.3301   -0.5490    0.0000 P   0  0  0  0  0  0  0  0  0  0  0  0
    3.7320   -1.0490    0.0000 O   0  0  0  0  0  0  0  0  0  0  0  0
    4.0981    0.3170    0.0000 O   0  0  0  0  0  0  0  0  0  0  0  0
    5.4641   -0.0490    0.0000 O   0  0  0  0  0  0  0  0  0  0  0  0
    5.0981   -1.4151    0.0000 O   0  0  0  0  0  0  0  0  0  0  0  0
    7.1962   -0.0490    0.0000 O   0  0  0  0  0  0  0  0  0  0  0  0
    6.3301   -1.5490    0.0000 O   0  0  0  0  0  0  0  0  0  0  0  0
    2.8660   -0.5490    0.0000 C   0  0  0  0  0  0  0  0  0  0  0  0
    4.5981    1.1830    0.0000 C   0  0  0  0  0  0  0  0  0  0  0  0
    2.0000   -1.0490    0.0000 C   0  0  0  0  0  0  0  0  0  0  0  0
    4.0981    2.0490    0.0000 C   0  0  0  0  0  0  0  0  0  0  0  0
    8.0622   -0.5490    0.0000 C   0  0  0  0  0  0  0  0  0  0  0  0
    7.1962   -2.0490    0.0000 C   0  0  0  0  0  0  0  0  0  0  0  0
    5.0730    0.7845    0.0000 H   0  0  0  0  0  0  0  0  0  0  0  0
    5.0730    1.5815    0.0000 H   0  0  0  0  0  0  0  0  0  0  0  0
    3.2646   -0.0741    0.0000 H   0  0  0  0  0  0  0  0  0  0  0  0
    2.4675   -0.0741    0.0000 H   0  0  0  0  0  0  0  0  0  0  0  0
    1.6900   -0.5121    0.0000 H   0  0  0  0  0  0  0  0  0  0  0  0
    1.4631   -1.3590    0.0000 H   0  0  0  0  0  0  0  0  0  0  0  0
    2.3100   -1.5860    0.0000 H   0  0  0  0  0  0  0  0  0  0  0  0
    4.6350    2.3590    0.0000 H   0  0  0  0  0  0  0  0  0  0  0  0
    3.7881    2.5860    0.0000 H   0  0  0  0  0  0  0  0  0  0  0  0
    3.5611    1.7390    0.0000 H   0  0  0  0  0  0  0  0  0  0  0  0
    7.7522   -1.0860    0.0000 H   0  0  0  0  0  0  0  0  0  0  0  0
    8.5991   -0.8590    0.0000 H   0  0  0  0  0  0  0  0  0  0  0  0
    8.3722   -0.0121    0.0000 H   0  0  0  0  0  0  0  0  0  0  0  0
    6.8862   -2.5860    0.0000 H   0  0  0  0  0  0  0  0  0  0  0  0
    7.7331   -2.3590    0.0000 H   0  0  0  0  0  0  0  0  0  0  0  0
    7.5062   -1.5121    0.0000 H   0  0  0  0  0  0  0  0  0  0  0  0
  1  3  1  0  0  0  0
  1  4  1  0  0  0  0
  1  5  1  0  0  0  0
  1  6  2  0  0  0  0
  2  5  1  0  0  0  0
  2  7  1  0  0  0  0
  2  8  1  0  0  0  0
  3  9  1  0  0  0  0
  4 10  1  0  0  0  0
  7 13  1  0  0  0  0
  8 14  1  0  0  0  0
  9 11  1  0  0  0  0
  9 17  1  0  0  0  0
  9 18  1  0  0  0  0
 10 12  1  0  0  0  0
 10 15  1  0  0  0  0
 10 16  1  0  0  0  0
 11 19  1  0  0  0  0
 11 20  1  0  0  0  0
 11 21  1  0  0  0  0
 12 22  1  0  0  0  0
 12 23  1  0  0  0  0
 12 24  1  0  0  0  0
 13 25  1  0  0  0  0
 13 26  1  0  0  0  0
 13 27  1  0  0  0  0
 14 28  1  0  0  0  0
 14 29  1  0  0  0  0
 14 30  1  0  0  0  0
M  END
> <PUBCHEM_COMPOUND_CID>
14029

> <PUBCHEM_COMPOUND_CANONICALIZED>
1

> <PUBCHEM_CACTVS_COMPLEXITY>
173

> <PUBCHEM_CACTVS_HBOND_ACCEPTOR>
6

> <PUBCHEM_CACTVS_HBOND_DONOR>
0

> <PUBCHEM_CACTVS_ROTATABLE_BOND>
8

> <PUBCHEM_CACTVS_SUBSKEYS>
AAADceBgOAMAAAAAAAAAAAAAAAAAAAAAAAAAAAAAAAAAAAAAAAAAGgAAACAAAACggAICAAAAARAAQAAAAIAAAAAAAAAAAAAAAAAAAAAAAAAAAAAAAAAAAAAAAAAAAAAAAAAAAAAAAAAAAAAAAAAAAAAAAA==

> <PUBCHEM_IUPAC_OPENEYE_NAME>
dimethoxyphosphanyl diethyl phosphate

> <PUBCHEM_IUPAC_CAS_NAME>
phosphoric acid dimethoxyphosphino diethyl ester

> <PUBCHEM_IUPAC_NAME>
dimethoxyphosphanyl diethyl phosphate

> <PUBCHEM_IUPAC_SYSTEMATIC_NAME>
dimethoxyphosphanyl diethyl phosphate

> <PUBCHEM_IUPAC_TRADITIONAL_NAME>
phosphoric acid dimethoxyphosphino diethyl ester

> <PUBCHEM_IUPAC_INCHI>
InChI=1S/C6H16O6P2/c1-5-10-14(7,11-6-2)12-13(8-3)9-4/h5-6H2,1-4H3

> <PUBCHEM_IUPAC_INCHIKEY>
PUYLGTLIKPXPRP-UHFFFAOYSA-N

> <PUBCHEM_XLOGP3_AA>
0.2

> <PUBCHEM_EXACT_MASS>
246.042211

> <PUBCHEM_MOLECULAR_FORMULA>
C6H16O6P2

> <PUBCHEM_MOLECULAR_WEIGHT>
246.135164

> <PUBCHEM_OPENEYE_CAN_SMILES>
CCOP(=O)(OCC)OP(OC)OC

> <PUBCHEM_OPENEYE_ISO_SMILES>
CCOP(=O)(OCC)OP(OC)OC

> <PUBCHEM_CACTVS_TPSA>
63.2

> <PUBCHEM_MONOISOTOPIC_WEIGHT>
246.042211

> <PUBCHEM_TOTAL_CHARGE>
0

> <PUBCHEM_HEAVY_ATOM_COUNT>
14

> <PUBCHEM_ATOM_DEF_STEREO_COUNT>
0

> <PUBCHEM_ATOM_UDEF_STEREO_COUNT>
0

> <PUBCHEM_BOND_DEF_STEREO_COUNT>
0

> <PUBCHEM_BOND_UDEF_STEREO_COUNT>
0

> <PUBCHEM_ISOTOPIC_ATOM_COUNT>
0

> <PUBCHEM_COMPONENT_COUNT>
1

> <PUBCHEM_CACTVS_TAUTO_COUNT>
1

> <PUBCHEM_COORDINATE_TYPE>
1
5
255

$$$$

