6915738
  -OEChem-07051212562D

 57 62  0     1  0  0  0  0  0999 V2000
    4.7327   -2.2066    0.0000 O   0  0  0  0  0  0  0  0  0  0  0  0
    4.2008    2.4073    0.0000 O   0  0  0  0  0  0  0  0  0  0  0  0
    2.4027   -1.3395    0.0000 O   0  0  0  0  0  0  0  0  0  0  0  0
    6.1828    0.6908    0.0000 N   0  0  3  0  0  0  0  0  0  0  0  0
    5.6205   -0.6751    0.0000 C   0  0  2  0  0  0  0  0  0  0  0  0
    4.7545    0.8249    0.0000 C   0  0  2  0  0  0  0  0  0  0  0  0
    5.6205    1.3249    0.0000 C   0  0  2  0  0  0  0  0  0  0  0  0
    5.2545    0.3249    0.0000 C   0  0  3  0  0  0  0  0  0  0  0  0
    4.7545   -0.1751    0.0000 C   0  0  1  0  0  0  0  0  0  0  0  0
    6.4865   -0.1751    0.0000 C   0  0  2  0  0  0  0  0  0  0  0  0
    6.4865    0.8249    0.0000 C   0  0  0  0  0  0  0  0  0  0  0  0
    7.3965   -0.6820    0.0000 C   0  0  2  0  0  0  0  0  0  0  0  0
    5.6044   -1.7166    0.0000 C   0  0  2  0  0  0  0  0  0  0  0  0
    3.7552    0.7301    0.0000 C   0  0  0  0  0  0  0  0  0  0  0  0
    3.9836    1.4312    0.0000 C   0  0  1  0  0  0  0  0  0  0  0  0
    3.9836   -0.7815    0.0000 C   0  0  0  0  0  0  0  0  0  0  0  0
    7.0860    0.2663    0.0000 C   0  0  0  0  0  0  0  0  0  0  0  0
    7.4046   -1.7236    0.0000 C   0  0  0  0  0  0  0  0  0  0  0  0
    2.6039    0.3249    0.0000 C   0  0  1  0  0  0  0  0  0  0  0  0
    6.5025   -2.2444    0.0000 C   0  0  0  0  0  0  0  0  0  0  0  0
    3.0282    1.2091    0.0000 C   0  0  0  0  0  0  0  0  0  0  0  0
    3.0282   -0.5594    0.0000 C   0  0  0  0  0  0  0  0  0  0  0  0
    8.2702   -1.1686    0.0000 C   0  0  0  0  0  0  0  0  0  0  0  0
    6.2148    1.6903    0.0000 C   0  0  0  0  0  0  0  0  0  0  0  0
    2.4027    1.9892    0.0000 C   0  0  0  0  0  0  0  0  0  0  0  0
    7.0963    2.1624    0.0000 C   0  0  0  0  0  0  0  0  0  0  0  0
    5.6205    2.1749    0.0000 H   0  0  0  0  0  0  0  0  0  0  0  0
    4.6345    0.3249    0.0000 H   0  0  0  0  0  0  0  0  0  0  0  0
    4.7545   -1.0251    0.0000 H   0  0  0  0  0  0  0  0  0  0  0  0
    7.3236   -0.3227    0.0000 H   0  0  0  0  0  0  0  0  0  0  0  0
    7.0971    0.7172    0.0000 H   0  0  0  0  0  0  0  0  0  0  0  0
    6.6986    1.4075    0.0000 H   0  0  0  0  0  0  0  0  0  0  0  0
    5.5985   -2.3366    0.0000 H   0  0  0  0  0  0  0  0  0  0  0  0
    3.9665    1.3130    0.0000 H   0  0  0  0  0  0  0  0  0  0  0  0
    3.8884    0.1245    0.0000 H   0  0  0  0  0  0  0  0  0  0  0  0
    3.5431    1.8675    0.0000 H   0  0  0  0  0  0  0  0  0  0  0  0
    3.7118   -1.3388    0.0000 H   0  0  0  0  0  0  0  0  0  0  0  0
    4.4660   -1.1709    0.0000 H   0  0  0  0  0  0  0  0  0  0  0  0
    7.7047    0.3063    0.0000 H   0  0  0  0  0  0  0  0  0  0  0  0
    7.2015    0.8755    0.0000 H   0  0  0  0  0  0  0  0  0  0  0  0
    7.6181   -2.3056    0.0000 H   0  0  0  0  0  0  0  0  0  0  0  0
    8.0146   -1.6128    0.0000 H   0  0  0  0  0  0  0  0  0  0  0  0
    1.7760    0.1324    0.0000 H   0  0  0  0  0  0  0  0  0  0  0  0
    6.1015   -2.7173    0.0000 H   0  0  0  0  0  0  0  0  0  0  0  0
    6.8998   -2.7204    0.0000 H   0  0  0  0  0  0  0  0  0  0  0  0
    7.9685   -1.7102    0.0000 H   0  0  0  0  0  0  0  0  0  0  0  0
    8.8118   -1.4703    0.0000 H   0  0  0  0  0  0  0  0  0  0  0  0
    8.5718   -0.6269    0.0000 H   0  0  0  0  0  0  0  0  0  0  0  0
    6.0214    2.2794    0.0000 H   0  0  0  0  0  0  0  0  0  0  0  0
    5.6011    1.6022    0.0000 H   0  0  0  0  0  0  0  0  0  0  0  0
    4.7255   -2.8266    0.0000 H   0  0  0  0  0  0  0  0  0  0  0  0
    3.7441    2.8266    0.0000 H   0  0  0  0  0  0  0  0  0  0  0  0
    2.6276    2.5670    0.0000 H   0  0  0  0  0  0  0  0  0  0  0  0
    1.7898    1.8952    0.0000 H   0  0  0  0  0  0  0  0  0  0  0  0
    7.3890    1.6158    0.0000 H   0  0  0  0  0  0  0  0  0  0  0  0
    7.6429    2.4551    0.0000 H   0  0  0  0  0  0  0  0  0  0  0  0
    6.8036    2.7090    0.0000 H   0  0  0  0  0  0  0  0  0  0  0  0
 13  1  1  6  0  0  0
  1 51  1  0  0  0  0
 15  2  1  1  0  0  0
  2 52  1  0  0  0  0
  3 22  2  0  0  0  0
  4  8  1  0  0  0  0
  4 17  1  0  0  0  0
  4 24  1  0  0  0  0
  5  8  1  0  0  0  0
  5  9  1  0  0  0  0
  5 10  1  0  0  0  0
  5 13  1  6  0  0  0
  6  7  1  0  0  0  0
  6  9  1  0  0  0  0
  6 14  1  6  0  0  0
  6 15  1  0  0  0  0
  7  8  1  0  0  0  0
  7 11  1  0  0  0  0
  7 27  1  6  0  0  0
  8 28  1  0  0  0  0
  9 16  1  0  0  0  0
  9 29  1  1  0  0  0
 10 11  1  0  0  0  0
 10 12  1  0  0  0  0
 10 30  1  1  0  0  0
 11 31  1  0  0  0  0
 11 32  1  0  0  0  0
 12 17  1  0  0  0  0
 12 18  1  0  0  0  0
 12 23  1  1  0  0  0
 13 20  1  0  0  0  0
 13 33  1  0  0  0  0
 14 19  1  0  0  0  0
 14 34  1  0  0  0  0
 14 35  1  0  0  0  0
 15 21  1  0  0  0  0
 15 36  1  0  0  0  0
 16 22  1  0  0  0  0
 16 37  1  0  0  0  0
 16 38  1  0  0  0  0
 17 39  1  0  0  0  0
 17 40  1  0  0  0  0
 18 20  1  0  0  0  0
 18 41  1  0  0  0  0
 18 42  1  0  0  0  0
 19 21  1  0  0  0  0
 19 22  1  0  0  0  0
 19 43  1  1  0  0  0
 20 44  1  0  0  0  0
 20 45  1  0  0  0  0
 21 25  2  0  0  0  0
 23 46  1  0  0  0  0
 23 47  1  0  0  0  0
 23 48  1  0  0  0  0
 24 26  1  0  0  0  0
 24 49  1  0  0  0  0
 24 50  1  0  0  0  0
 25 53  1  0  0  0  0
 25 54  1  0  0  0  0
 26 55  1  0  0  0  0
 26 56  1  0  0  0  0
 26 57  1  0  0  0  0
M  END
> <PUBCHEM_COMPOUND_CID>
6915738

> <PUBCHEM_COMPOUND_CANONICALIZED>
1

> <PUBCHEM_CACTVS_COMPLEXITY>
735

> <PUBCHEM_CACTVS_HBOND_ACCEPTOR>
4

> <PUBCHEM_CACTVS_HBOND_DONOR>
2

> <PUBCHEM_CACTVS_ROTATABLE_BOND>
1

> <PUBCHEM_CACTVS_SUBSKEYS>
AAADceB6MAAAAAAAAAAAAAAAAAAAAYMGAAA8YMEAB4gWAGDAAAAAHgAACAAADzzhgAYCAAMAAgCIAoBSAAAAAAAgAAAAAAEIAAgAFBIAgQAEQAAGgACAEAG6/fffgAAAAAAAAADAAAYAADAAAaAADQAAAA==

> <PUBCHEM_IUPAC_INCHI>
InChI=1S/C22H31NO3/c1-4-23-10-20(3)6-5-17(25)22-15(20)7-13(18(22)23)21-9-12(11(2)19(21)26)14(24)8-16(21)22/h12-13,15-19,25-26H,2,4-10H2,1,3H3/t12-,13-,15+,16+,17-,18?,19+,20-,21-,22-/m0/s1

> <PUBCHEM_IUPAC_INCHIKEY>
CBOSLVQFGANWTL-SQQOAYDSSA-N

> <PUBCHEM_XLOGP3_AA>
1.1

> <PUBCHEM_EXACT_MASS>
357.230394

> <PUBCHEM_MOLECULAR_FORMULA>
C22H31NO3

> <PUBCHEM_MOLECULAR_WEIGHT>
357.48644

> <PUBCHEM_OPENEYE_CAN_SMILES>
CCN1CC2(CCC(C34C2CC(C31)C56C4CC(=O)C(C5)C(=C)C6O)O)C

> <PUBCHEM_OPENEYE_ISO_SMILES>
CCN1C[C@@]2(CC[C@@H]([C@@]34[C@@H]2C[C@@H](C31)[C@]56[C@H]4CC(=O)[C@@H](C5)C(=C)[C@H]6O)O)C

> <PUBCHEM_CACTVS_TPSA>
60.8

> <PUBCHEM_MONOISOTOPIC_WEIGHT>
357.230394

> <PUBCHEM_TOTAL_CHARGE>
0

> <PUBCHEM_HEAVY_ATOM_COUNT>
26

> <PUBCHEM_ATOM_DEF_STEREO_COUNT>
9

> <PUBCHEM_ATOM_UDEF_STEREO_COUNT>
1

> <PUBCHEM_BOND_DEF_STEREO_COUNT>
0

> <PUBCHEM_BOND_UDEF_STEREO_COUNT>
0

> <PUBCHEM_ISOTOPIC_ATOM_COUNT>
0

> <PUBCHEM_COMPONENT_COUNT>
1

> <PUBCHEM_CACTVS_TAUTO_COUNT>
2

> <PUBCHEM_COORDINATE_TYPE>
1
5
255

> <PUBCHEM_BONDANNOTATIONS>
13  1  6
10  30  5
12  23  5
19  43  5
15  2  5
8  4  3
5  13  6
6  14  6
7  27  6
9  29  5

$$$$

