10622
  -OEChem-06261204462D

 75 79  0     1  0  0  0  0  0999 V2000
   12.4583   -0.3362    0.0000 O   0  0  0  0  0  0  0  0  0  0  0  0
   15.0467    2.1737    0.0000 O   0  0  0  0  0  0  0  0  0  0  0  0
   14.1865    0.6704    0.0000 O   0  0  0  0  0  0  0  0  0  0  0  0
   14.1981   -2.3296    0.0000 O   0  0  0  0  0  0  0  0  0  0  0  0
   12.4699   -3.3362    0.0000 O   0  0  0  0  0  0  0  0  0  0  0  0
   10.7263   -0.3429    0.0000 O   0  0  0  0  0  0  0  0  0  0  0  0
   10.7340   -2.3429    0.0000 O   0  0  0  0  0  0  0  0  0  0  0  0
   15.9224   -0.3229    0.0000 O   0  0  0  0  0  0  0  0  0  0  0  0
   17.6506    0.6838    0.0000 O   0  0  0  0  0  0  0  0  0  0  0  0
   17.6429    2.6838    0.0000 O   0  0  0  0  0  0  0  0  0  0  0  0
    7.1962   -0.3671    0.0000 O   0  0  0  0  0  0  0  0  0  0  0  0
    8.9446   -3.4017    0.0000 O   0  0  0  0  0  0  0  0  0  0  0  0
    7.1962   -3.3671    0.0000 O   0  0  0  0  0  0  0  0  0  0  0  0
    2.8660    1.1329    0.0000 O   0  0  0  0  0  0  0  0  0  0  0  0
    4.5981    2.1329    0.0000 O   0  0  0  0  0  0  0  0  0  0  0  0
   13.3263   -0.8329    0.0000 C   0  0  1  0  0  0  0  0  0  0  0  0
   13.3301   -1.8329    0.0000 C   0  0  2  0  0  0  0  0  0  0  0  0
   12.4660   -2.3362    0.0000 C   0  0  1  0  0  0  0  0  0  0  0  0
   11.5981   -1.8396    0.0000 C   0  0  2  0  0  0  0  0  0  0  0  0
   15.9185    0.6771    0.0000 C   0  0  1  0  0  0  0  0  0  0  0  0
   15.0506    1.1738    0.0000 C   0  0  1  0  0  0  0  0  0  0  0  0
   16.7826    1.1804    0.0000 C   0  0  1  0  0  0  0  0  0  0  0  0
   16.7788    2.1804    0.0000 C   0  0  2  0  0  0  0  0  0  0  0  0
   11.5942   -0.8396    0.0000 C   0  0  1  0  0  0  0  0  0  0  0  0
   15.9108    2.6771    0.0000 C   0  0  2  0  0  0  0  0  0  0  0  0
   14.1904   -0.3296    0.0000 C   0  0  0  0  0  0  0  0  0  0  0  0
   15.9070    3.6771    0.0000 C   0  0  0  0  0  0  0  0  0  0  0  0
    9.8622   -0.8463    0.0000 C   0  0  0  0  0  0  0  0  0  0  0  0
    8.9561   -0.3324    0.0000 C   0  0  0  0  0  0  0  0  0  0  0  0
    9.8622   -1.8879    0.0000 C   0  0  0  0  0  0  0  0  0  0  0  0
    8.0622   -0.8671    0.0000 C   0  0  0  0  0  0  0  0  0  0  0  0
    8.0622   -1.8671    0.0000 C   0  0  0  0  0  0  0  0  0  0  0  0
    8.9561   -2.4017    0.0000 C   0  0  0  0  0  0  0  0  0  0  0  0
    7.1962   -2.3671    0.0000 C   0  0  0  0  0  0  0  0  0  0  0  0
    6.3301   -0.8671    0.0000 C   0  0  0  0  0  0  0  0  0  0  0  0
    6.3301   -1.8671    0.0000 C   0  0  0  0  0  0  0  0  0  0  0  0
    5.4641   -0.3671    0.0000 C   0  0  0  0  0  0  0  0  0  0  0  0
    5.4641    0.6329    0.0000 C   0  0  0  0  0  0  0  0  0  0  0  0
    4.5981   -0.8671    0.0000 C   0  0  0  0  0  0  0  0  0  0  0  0
    4.5981    1.1329    0.0000 C   0  0  0  0  0  0  0  0  0  0  0  0
    3.7321   -0.3671    0.0000 C   0  0  0  0  0  0  0  0  0  0  0  0
    3.7321    0.6329    0.0000 C   0  0  0  0  0  0  0  0  0  0  0  0
    2.0000    0.6329    0.0000 C   0  0  0  0  0  0  0  0  0  0  0  0
   13.3239   -0.2129    0.0000 H   0  0  0  0  0  0  0  0  0  0  0  0
   13.8659   -1.5208    0.0000 H   0  0  0  0  0  0  0  0  0  0  0  0
   11.9303   -2.6483    0.0000 H   0  0  0  0  0  0  0  0  0  0  0  0
   11.0600   -1.5316    0.0000 H   0  0  0  0  0  0  0  0  0  0  0  0
   16.4567    0.3692    0.0000 H   0  0  0  0  0  0  0  0  0  0  0  0
   15.0530    0.5538    0.0000 H   0  0  0  0  0  0  0  0  0  0  0  0
   17.3184    1.4925    0.0000 H   0  0  0  0  0  0  0  0  0  0  0  0
   17.3169    1.8725    0.0000 H   0  0  0  0  0  0  0  0  0  0  0  0
   11.0585   -1.1516    0.0000 H   0  0  0  0  0  0  0  0  0  0  0  0
   15.3727    2.9850    0.0000 H   0  0  0  0  0  0  0  0  0  0  0  0
   14.4047   -0.9114    0.0000 H   0  0  0  0  0  0  0  0  0  0  0  0
   14.8005   -0.2196    0.0000 H   0  0  0  0  0  0  0  0  0  0  0  0
   16.5270    3.6795    0.0000 H   0  0  0  0  0  0  0  0  0  0  0  0
   15.9046    4.2971    0.0000 H   0  0  0  0  0  0  0  0  0  0  0  0
   15.2870    3.6747    0.0000 H   0  0  0  0  0  0  0  0  0  0  0  0
   14.7338   -2.0175    0.0000 H   0  0  0  0  0  0  0  0  0  0  0  0
   13.0080   -3.6442    0.0000 H   0  0  0  0  0  0  0  0  0  0  0  0
   10.7364   -2.9629    0.0000 H   0  0  0  0  0  0  0  0  0  0  0  0
   16.4605   -0.6308    0.0000 H   0  0  0  0  0  0  0  0  0  0  0  0
   18.1863    0.9958    0.0000 H   0  0  0  0  0  0  0  0  0  0  0  0
   17.6405    3.3038    0.0000 H   0  0  0  0  0  0  0  0  0  0  0  0
    8.9490    0.2875    0.0000 H   0  0  0  0  0  0  0  0  0  0  0  0
   10.3979   -2.2000    0.0000 H   0  0  0  0  0  0  0  0  0  0  0  0
    5.7932   -2.1771    0.0000 H   0  0  0  0  0  0  0  0  0  0  0  0
    6.6592   -3.6771    0.0000 H   0  0  0  0  0  0  0  0  0  0  0  0
    6.0010    0.9429    0.0000 H   0  0  0  0  0  0  0  0  0  0  0  0
    4.5981   -1.4871    0.0000 H   0  0  0  0  0  0  0  0  0  0  0  0
    3.1951   -0.6771    0.0000 H   0  0  0  0  0  0  0  0  0  0  0  0
    4.0611    2.4429    0.0000 H   0  0  0  0  0  0  0  0  0  0  0  0
    1.6900    1.1699    0.0000 H   0  0  0  0  0  0  0  0  0  0  0  0
    1.4631    0.3229    0.0000 H   0  0  0  0  0  0  0  0  0  0  0  0
    2.3100    0.0960    0.0000 H   0  0  0  0  0  0  0  0  0  0  0  0
  1 16  1  0  0  0  0
  1 24  1  0  0  0  0
  2 21  1  0  0  0  0
  2 25  1  0  0  0  0
  3 21  1  0  0  0  0
  3 26  1  0  0  0  0
  4 17  1  0  0  0  0
  4 59  1  0  0  0  0
  5 18  1  0  0  0  0
  5 60  1  0  0  0  0
  6 24  1  0  0  0  0
  6 28  1  0  0  0  0
  7 19  1  0  0  0  0
  7 61  1  0  0  0  0
  8 20  1  0  0  0  0
  8 62  1  0  0  0  0
  9 22  1  0  0  0  0
  9 63  1  0  0  0  0
 10 23  1  0  0  0  0
 10 64  1  0  0  0  0
 11 31  1  0  0  0  0
 11 35  1  0  0  0  0
 12 33  2  0  0  0  0
 13 34  1  0  0  0  0
 13 68  1  0  0  0  0
 14 42  1  0  0  0  0
 14 43  1  0  0  0  0
 15 40  1  0  0  0  0
 15 72  1  0  0  0  0
 16 17  1  0  0  0  0
 16 26  1  0  0  0  0
 16 44  1  0  0  0  0
 17 18  1  0  0  0  0
 17 45  1  0  0  0  0
 18 19  1  0  0  0  0
 18 46  1  0  0  0  0
 19 24  1  0  0  0  0
 19 47  1  0  0  0  0
 20 21  1  0  0  0  0
 20 22  1  0  0  0  0
 20 48  1  0  0  0  0
 21 49  1  0  0  0  0
 22 23  1  0  0  0  0
 22 50  1  0  0  0  0
 23 25  1  0  0  0  0
 23 51  1  0  0  0  0
 24 52  1  0  0  0  0
 25 27  1  0  0  0  0
 25 53  1  0  0  0  0
 26 54  1  0  0  0  0
 26 55  1  0  0  0  0
 27 56  1  0  0  0  0
 27 57  1  0  0  0  0
 27 58  1  0  0  0  0
 28 29  1  0  0  0  0
 28 30  2  0  0  0  0
 29 31  2  0  0  0  0
 29 65  1  0  0  0  0
 30 33  1  0  0  0  0
 30 66  1  0  0  0  0
 31 32  1  0  0  0  0
 32 33  1  0  0  0  0
 32 34  2  0  0  0  0
 34 36  1  0  0  0  0
 35 36  2  0  0  0  0
 35 37  1  0  0  0  0
 36 67  1  0  0  0  0
 37 38  2  0  0  0  0
 37 39  1  0  0  0  0
 38 40  1  0  0  0  0
 38 69  1  0  0  0  0
 39 41  2  0  0  0  0
 39 70  1  0  0  0  0
 40 42  2  0  0  0  0
 41 42  1  0  0  0  0
 41 71  1  0  0  0  0
 43 73  1  0  0  0  0
 43 74  1  0  0  0  0
 43 75  1  0  0  0  0
M  END
> <PUBCHEM_COMPOUND_CID>
10622

> <PUBCHEM_COMPOUND_CANONICALIZED>
1

> <PUBCHEM_CACTVS_COMPLEXITY>
1180

> <PUBCHEM_CACTVS_HBOND_ACCEPTOR>
15

> <PUBCHEM_CACTVS_HBOND_DONOR>
8

> <PUBCHEM_CACTVS_ROTATABLE_BOND>
7

> <PUBCHEM_CACTVS_SUBSKEYS>
AAADcfB4PAAAAAAAAAAAAAAAAAAAAAAAAAA0SIECAAAAAACBAAAAGgAACAAADBSwmAMyDoAABgCIAqBSAAACCAAgIAAIiAEGiMgdNiaGMRqicCMl4BEPuQfA4DwOIAABAAAAQABAAAIAAACAAAAAAAAAAA==

> <PUBCHEM_IUPAC_OPENEYE_NAME>
4-hydroxy-2-(3-hydroxy-4-methoxy-phenyl)-7-[(2S,3R,4S,5S,6R)-3,4,5-trihydroxy-6-[[(2R,3R,4R,5R,6S)-3,4,5-trihydroxy-6-methyl-tetrahydropyran-2-yl]oxymethyl]tetrahydropyran-2-yl]oxy-chromen-5-one

> <PUBCHEM_IUPAC_CAS_NAME>
4-hydroxy-2-(3-hydroxy-4-methoxyphenyl)-7-[[(2S,3R,4S,5S,6R)-3,4,5-trihydroxy-6-[[(2R,3R,4R,5R,6S)-3,4,5-trihydroxy-6-methyl-2-oxanyl]oxymethyl]-2-oxanyl]oxy]-1-benzopyran-5-one

> <PUBCHEM_IUPAC_NAME>
4-hydroxy-2-(3-hydroxy-4-methoxyphenyl)-7-[(2S,3R,4S,5S,6R)-3,4,5-trihydroxy-6-[[(2R,3R,4R,5R,6S)-3,4,5-trihydroxy-6-methyloxan-2-yl]oxymethyl]oxan-2-yl]oxychromen-5-one

> <PUBCHEM_IUPAC_SYSTEMATIC_NAME>
2-(4-methoxy-3-oxidanyl-phenyl)-7-[(2S,3R,4S,5S,6R)-6-[[(2R,3R,4R,5R,6S)-6-methyl-3,4,5-tris(oxidanyl)oxan-2-yl]oxymethyl]-3,4,5-tris(oxidanyl)oxan-2-yl]oxy-4-oxidanyl-chromen-5-one

> <PUBCHEM_IUPAC_TRADITIONAL_NAME>
4-hydroxy-2-(3-hydroxy-4-methoxy-phenyl)-7-[(2S,3R,4S,5S,6R)-3,4,5-trihydroxy-6-[[(2R,3R,4R,5R,6S)-3,4,5-trihydroxy-6-methyl-tetrahydropyran-2-yl]oxymethyl]tetrahydropyran-2-yl]oxy-chromen-5-one

> <PUBCHEM_IUPAC_INCHI>
InChI=1S/C28H32O15/c1-10-21(32)23(34)25(36)27(40-10)39-9-19-22(33)24(35)26(37)28(43-19)41-12-6-14(30)20-15(31)8-17(42-18(20)7-12)11-3-4-16(38-2)13(29)5-11/h3-8,10,19,21-29,31-37H,9H2,1-2H3/t10-,19+,21-,22+,23+,24-,25+,26+,27+,28+/m0/s1

> <PUBCHEM_IUPAC_INCHIKEY>
DATZVCOAYKQVDT-YFAPSIMESA-N

> <PUBCHEM_XLOGP3_AA>
-1.5

> <PUBCHEM_EXACT_MASS>
608.17412

> <PUBCHEM_MOLECULAR_FORMULA>
C28H32O15

> <PUBCHEM_MOLECULAR_WEIGHT>
608.54468

> <PUBCHEM_OPENEYE_CAN_SMILES>
CC1C(C(C(C(O1)OCC2C(C(C(C(O2)OC3=CC(=O)C4=C(C=C(OC4=C3)C5=CC(=C(C=C5)OC)O)O)O)O)O)O)O)O

> <PUBCHEM_OPENEYE_ISO_SMILES>
C[C@H]1[C@@H]([C@H]([C@H]([C@@H](O1)OC[C@@H]2[C@H]([C@@H]([C@H]([C@@H](O2)OC3=CC(=O)C4=C(C=C(OC4=C3)C5=CC(=C(C=C5)OC)O)O)O)O)O)O)O)O

> <PUBCHEM_CACTVS_TPSA>
234

> <PUBCHEM_MONOISOTOPIC_WEIGHT>
608.17412

> <PUBCHEM_TOTAL_CHARGE>
0

> <PUBCHEM_HEAVY_ATOM_COUNT>
43

> <PUBCHEM_ATOM_DEF_STEREO_COUNT>
10

> <PUBCHEM_ATOM_UDEF_STEREO_COUNT>
0

> <PUBCHEM_BOND_DEF_STEREO_COUNT>
0

> <PUBCHEM_BOND_UDEF_STEREO_COUNT>
0

> <PUBCHEM_ISOTOPIC_ATOM_COUNT>
0

> <PUBCHEM_COMPONENT_COUNT>
1

> <PUBCHEM_CACTVS_TAUTO_COUNT>
12

> <PUBCHEM_COORDINATE_TYPE>
1
5
255

> <PUBCHEM_BONDANNOTATIONS>
23  10  3
11  31  8
11  35  8
16  26  3
25  27  3
28  29  8
28  30  8
29  31  8
21  3  3
30  33  8
32  33  8
32  34  8
34  36  8
35  36  8
37  38  8
37  39  8
38  40  8
39  41  8
17  4  3
40  42  8
41  42  8
18  5  3
24  6  3
19  7  3
20  8  3
22  9  3

$$$$

