54726726
  -OEChem-07051213113D

 55 58  0     1  0  0  0  0  0999 V2000
   -2.3293   -0.1986    2.3936 O   0  0  0  0  0  0  0  0  0  0  0  0
   -0.5396    2.8079   -0.8247 O   0  0  0  0  0  0  0  0  0  0  0  0
    1.6241    1.4643   -2.3420 O   0  0  0  0  0  0  0  0  0  0  0  0
   -1.2689   -2.5879    0.7722 O   0  0  0  0  0  0  0  0  0  0  0  0
    0.1549   -0.7504    2.9266 O   0  0  0  0  0  0  0  0  0  0  0  0
   -4.0285    0.0622   -2.0214 O   0  0  0  0  0  0  0  0  0  0  0  0
    2.7868   -0.5749    2.4659 O   0  0  0  0  0  0  0  0  0  0  0  0
    4.9071   -1.7327    1.5007 O   0  0  0  0  0  0  0  0  0  0  0  0
   -1.9510   -3.1219   -2.0285 O   0  0  0  0  0  0  0  0  0  0  0  0
   -4.1513    1.2798    0.7580 N   0  0  0  0  0  0  0  0  0  0  0  0
   -4.1923   -2.8455   -1.5467 N   0  0  0  0  0  0  0  0  0  0  0  0
   -1.6505    1.1590    0.5171 C   0  0  1  0  0  0  0  0  0  0  0  0
   -1.4708   -0.1761    1.2486 C   0  0  1  0  0  0  0  0  0  0  0  0
   -0.5233    1.4118   -0.5179 C   0  0  2  0  0  0  0  0  0  0  0  0
   -3.0317    1.2254   -0.1796 C   0  0  1  0  0  0  0  0  0  0  0  0
    0.8812    1.0039   -0.0887 C   0  0  0  0  0  0  0  0  0  0  0  0
    2.0484    1.4793   -0.9733 C   0  0  1  0  0  0  0  0  0  0  0  0
    1.0947    0.2226    0.9888 C   0  0  0  0  0  0  0  0  0  0  0  0
   -0.0554   -0.2513    1.8192 C   0  0  0  0  0  0  0  0  0  0  0  0
   -1.8100   -1.3716    0.3829 C   0  0  0  0  0  0  0  0  0  0  0  0
   -3.2668    0.0039   -1.0549 C   0  0  0  0  0  0  0  0  0  0  0  0
   -2.6087   -1.2925   -0.6975 C   0  0  0  0  0  0  0  0  0  0  0  0
    3.2699    0.5778   -0.8792 C   0  0  0  0  0  0  0  0  0  0  0  0
    2.4862   -0.1916    1.3416 C   0  0  0  0  0  0  0  0  0  0  0  0
    3.4927   -0.1882    0.2675 C   0  0  0  0  0  0  0  0  0  0  0  0
    2.4973    2.9058   -0.5995 C   0  0  0  0  0  0  0  0  0  0  0  0
   -3.9830    2.3956    1.6869 C   0  0  0  0  0  0  0  0  0  0  0  0
   -5.4154    1.4007    0.0344 C   0  0  0  0  0  0  0  0  0  0  0  0
    4.2449    0.5534   -1.8927 C   0  0  0  0  0  0  0  0  0  0  0  0
   -2.8636   -2.5063   -1.4901 C   0  0  0  0  0  0  0  0  0  0  0  0
    4.6522   -0.9618    0.4070 C   0  0  0  0  0  0  0  0  0  0  0  0
    5.3979   -0.2230   -1.7623 C   0  0  0  0  0  0  0  0  0  0  0  0
    5.6015   -0.9791   -0.6121 C   0  0  0  0  0  0  0  0  0  0  0  0
   -1.5644    1.9729    1.2474 H   0  0  0  0  0  0  0  0  0  0  0  0
   -0.7442    0.8850   -1.4530 H   0  0  0  0  0  0  0  0  0  0  0  0
   -3.0422    2.1053   -0.8386 H   0  0  0  0  0  0  0  0  0  0  0  0
   -2.2759   -1.0803    2.8009 H   0  0  0  0  0  0  0  0  0  0  0  0
    1.7203    3.6498   -0.7937 H   0  0  0  0  0  0  0  0  0  0  0  0
    3.3534    3.2235   -1.2079 H   0  0  0  0  0  0  0  0  0  0  0  0
    2.7905    2.9790    0.4541 H   0  0  0  0  0  0  0  0  0  0  0  0
   -0.3887    3.3007    0.0001 H   0  0  0  0  0  0  0  0  0  0  0  0
   -3.1992    2.2204    2.4284 H   0  0  0  0  0  0  0  0  0  0  0  0
   -3.7861    3.3425    1.1705 H   0  0  0  0  0  0  0  0  0  0  0  0
   -5.4001    2.1944   -0.7217 H   0  0  0  0  0  0  0  0  0  0  0  0
   -5.7221    0.4563   -0.4252 H   0  0  0  0  0  0  0  0  0  0  0  0
   -6.2323    1.6332    0.7294 H   0  0  0  0  0  0  0  0  0  0  0  0
   -4.8919    2.5335    2.2859 H   0  0  0  0  0  0  0  0  0  0  0  0
    1.4316    0.5436   -2.5918 H   0  0  0  0  0  0  0  0  0  0  0  0
    4.1232    1.1534   -2.7913 H   0  0  0  0  0  0  0  0  0  0  0  0
   -0.8960   -2.4901    1.6638 H   0  0  0  0  0  0  0  0  0  0  0  0
    6.1396   -0.2295   -2.5557 H   0  0  0  0  0  0  0  0  0  0  0  0
    6.5026   -1.5790   -0.5172 H   0  0  0  0  0  0  0  0  0  0  0  0
   -4.9168   -2.3082   -1.0804 H   0  0  0  0  0  0  0  0  0  0  0  0
   -4.4985   -3.6631   -2.0638 H   0  0  0  0  0  0  0  0  0  0  0  0
    4.1454   -1.7297    2.1009 H   0  0  0  0  0  0  0  0  0  0  0  0
  1 13  1  0  0  0  0
  1 37  1  0  0  0  0
  2 14  1  0  0  0  0
  2 41  1  0  0  0  0
  3 17  1  0  0  0  0
  3 48  1  0  0  0  0
  4 20  1  0  0  0  0
  4 50  1  0  0  0  0
  5 19  2  0  0  0  0
  6 21  2  0  0  0  0
  7 24  2  0  0  0  0
  8 31  1  0  0  0  0
  8 55  1  0  0  0  0
  9 30  2  0  0  0  0
 10 15  1  0  0  0  0
 10 27  1  0  0  0  0
 10 28  1  0  0  0  0
 11 30  1  0  0  0  0
 11 53  1  0  0  0  0
 11 54  1  0  0  0  0
 12 13  1  0  0  0  0
 12 14  1  0  0  0  0
 12 15  1  0  0  0  0
 12 34  1  0  0  0  0
 13 19  1  0  0  0  0
 13 20  1  0  0  0  0
 14 16  1  0  0  0  0
 14 35  1  0  0  0  0
 15 21  1  0  0  0  0
 15 36  1  0  0  0  0
 16 17  1  0  0  0  0
 16 18  2  0  0  0  0
 17 23  1  0  0  0  0
 17 26  1  0  0  0  0
 18 19  1  0  0  0  0
 18 24  1  0  0  0  0
 20 22  2  0  0  0  0
 21 22  1  0  0  0  0
 22 30  1  0  0  0  0
 23 25  2  0  0  0  0
 23 29  1  0  0  0  0
 24 25  1  0  0  0  0
 25 31  1  0  0  0  0
 26 38  1  0  0  0  0
 26 39  1  0  0  0  0
 26 40  1  0  0  0  0
 27 42  1  0  0  0  0
 27 43  1  0  0  0  0
 27 47  1  0  0  0  0
 28 44  1  0  0  0  0
 28 45  1  0  0  0  0
 28 46  1  0  0  0  0
 29 32  2  0  0  0  0
 29 49  1  0  0  0  0
 31 33  2  0  0  0  0
 32 33  1  0  0  0  0
 32 51  1  0  0  0  0
 33 52  1  0  0  0  0
M  END
> <PUBCHEM_COMPOUND_CID>
54726726

> <PUBCHEM_CONFORMER_RMSD>
0.8

> <PUBCHEM_CONFORMER_DIVERSEORDER>
1
2

> <PUBCHEM_MMFF94_PARTIAL_CHARGES>
41
1 -0.68
10 -0.81
11 -0.8
13 0.48
14 0.42
15 0.33
16 -0.28
17 0.56
18 0.03
19 0.49
2 -0.68
20 -0.06
21 0.49
22 0.03
23 -0.14
24 0.47
25 0.09
27 0.27
28 0.27
29 -0.15
3 -0.68
30 0.62
31 0.08
32 -0.15
33 -0.15
37 0.4
4 -0.53
41 0.4
48 0.4
49 0.15
5 -0.57
50 0.45
51 0.15
52 0.15
53 0.37
54 0.37
55 0.45
6 -0.57
7 -0.57
8 -0.53
9 -0.57

> <PUBCHEM_EFFECTIVE_ROTOR_COUNT>
2.6

> <PUBCHEM_PHARMACOPHORE_FEATURES>
20
1 1 acceptor
1 1 donor
1 10 cation
1 11 donor
1 18 anion
1 2 acceptor
1 2 donor
1 22 anion
1 3 acceptor
1 3 donor
1 4 donor
1 5 acceptor
1 6 acceptor
1 7 acceptor
1 8 donor
1 9 acceptor
6 12 13 14 16 18 19 rings
6 12 13 15 20 21 22 rings
6 16 17 18 23 24 25 rings
6 23 25 29 31 32 33 rings

> <PUBCHEM_HEAVY_ATOM_COUNT>
33

> <PUBCHEM_ATOM_DEF_STEREO_COUNT>
5

> <PUBCHEM_ATOM_UDEF_STEREO_COUNT>
0

> <PUBCHEM_BOND_DEF_STEREO_COUNT>
0

> <PUBCHEM_BOND_UDEF_STEREO_COUNT>
0

> <PUBCHEM_ISOTOPIC_ATOM_COUNT>
0

> <PUBCHEM_COMPONENT_COUNT>
1

> <PUBCHEM_CACTVS_TAUTO_COUNT>
60

> <PUBCHEM_CONFORMER_ID>
0343104600000001

> <PUBCHEM_MMFF94_ENERGY>
106.8959

> <PUBCHEM_FEATURE_SELFOVERLAP>
101.624

> <PUBCHEM_SHAPE_FINGERPRINT>
10369192 42 15338250391425134758
11135926 11 17203602680533129614
11578080 2 17895760573675289656
11796584 16 17894630370553866950
11828532 37 17314530153848781293
12236239 1 18272647991331934625
12363563 72 15791726382578021282
12422481 6 17836923769415890497
12553582 1 17989209269779644456
12788726 201 18270392940275836228
13140716 1 17775566403438481856
13224815 77 17489306326585828024
13782708 43 16660934270983817047
14279260 333 17416689257887984890
14294032 229 18117560854908314777
14790565 3 17416678253364386948
14910302 57 18042124431034448158
15484559 13 15397426454813147692
17349148 13 18187361034438091868
19862831 5 17846500322625960652
20600515 1 17968111827343406864
20691752 17 17560252331500769536
20775438 99 17476944353893557215
20775530 9 17101439155670813510
21781051 124 18335417929789536375
23559900 14 17748830696140963576
23569914 2 14403246520275031030
3027735 51 17821443560815612823
350125 39 16916486083046441937
44062 13 18186517691945584063
463206 1 18338236067774331450
508706 21 17967243208930828159
5283173 99 15792850212173783401
633830 44 17773866528782193100
9981440 41 17549540708971941520

> <PUBCHEM_SHAPE_MULTIPOLES>
616.34
10.63
2.78
2.36
5.42
0.87
-0.72
1.32
2.58
-2.8
1.13
0.5
0.45
-2.34

> <PUBCHEM_SHAPE_SELFOVERLAP>
1372.842

> <PUBCHEM_SHAPE_VOLUME>
321.2

> <PUBCHEM_COORDINATE_TYPE>
2
5
10

$$$$

