3480
  -OEChem-06251223262D

 29 30  0     1  0  0  0  0  0999 V2000
    7.6579   -1.0878    0.0000 S   0  0  0  0  0  0  0  0  0  0  0  0
    4.8100    0.8660    0.0000 O   0  0  0  0  0  0  0  0  0  0  0  0
    5.3100   -1.7321    0.0000 O   0  0  0  0  0  0  0  0  0  0  0  0
    3.3100   -1.7321    0.0000 O   0  0  0  0  0  0  0  0  0  0  0  0
    2.3100    0.0000    0.0000 O   0  0  0  0  0  0  0  0  0  0  0  0
    2.3100    1.7321    0.0000 O   0  0  0  0  0  0  0  0  0  0  0  0
    5.5888    1.7601    0.0000 O   0  0  0  0  0  0  0  0  0  0  0  0
    5.8978   -0.8090    0.0000 N   0  0  0  0  0  0  0  0  0  0  0  0
    6.8488    0.5000    0.0000 N   0  0  0  0  0  0  0  0  0  0  0  0
    5.3100    0.0000    0.0000 C   0  0  3  0  0  0  0  0  0  0  0  0
    4.8100   -0.8660    0.0000 C   0  0  3  0  0  0  0  0  0  0  0  0
    3.8100   -0.8660    0.0000 C   0  0  3  0  0  0  0  0  0  0  0  0
    3.3100    0.0000    0.0000 C   0  0  3  0  0  0  0  0  0  0  0  0
    3.8100    0.8660    0.0000 C   0  0  3  0  0  0  0  0  0  0  0  0
    5.8978    0.8090    0.0000 C   0  0  0  0  0  0  0  0  0  0  0  0
    3.3100    1.7321    0.0000 C   0  0  0  0  0  0  0  0  0  0  0  0
    6.8488   -0.5000    0.0000 C   0  0  0  0  0  0  0  0  0  0  0  0
    4.5000   -1.4030    0.0000 H   0  0  0  0  0  0  0  0  0  0  0  0
    4.1200   -1.4030    0.0000 H   0  0  0  0  0  0  0  0  0  0  0  0
    3.0000    0.5369    0.0000 H   0  0  0  0  0  0  0  0  0  0  0  0
    4.1200    1.4030    0.0000 H   0  0  0  0  0  0  0  0  0  0  0  0
    3.8926    1.9441    0.0000 H   0  0  0  0  0  0  0  0  0  0  0  0
    3.2023    2.3426    0.0000 H   0  0  0  0  0  0  0  0  0  0  0  0
    5.0000   -2.2690    0.0000 H   0  0  0  0  0  0  0  0  0  0  0  0
    7.3504    0.8644    0.0000 H   0  0  0  0  0  0  0  0  0  0  0  0
    2.6900   -1.7321    0.0000 H   0  0  0  0  0  0  0  0  0  0  0  0
    2.0000   -0.5369    0.0000 H   0  0  0  0  0  0  0  0  0  0  0  0
    2.0000    2.2690    0.0000 H   0  0  0  0  0  0  0  0  0  0  0  0
    8.2243   -0.8356    0.0000 H   0  0  0  0  0  0  0  0  0  0  0  0
  1 17  1  0  0  0  0
  1 29  1  0  0  0  0
  2 10  1  0  0  0  0
  2 14  1  0  0  0  0
  3 11  1  0  0  0  0
  3 24  1  0  0  0  0
  4 12  1  0  0  0  0
  4 26  1  0  0  0  0
  5 13  1  0  0  0  0
  5 27  1  0  0  0  0
  6 16  1  0  0  0  0
  6 28  1  0  0  0  0
  7 15  2  0  0  0  0
  8 10  1  0  0  0  0
  8 17  2  0  0  0  0
  9 15  1  0  0  0  0
  9 17  1  0  0  0  0
  9 25  1  0  0  0  0
 10 11  1  0  0  0  0
 10 15  1  0  0  0  0
 11 12  1  0  0  0  0
 11 18  1  0  0  0  0
 12 13  1  0  0  0  0
 12 19  1  0  0  0  0
 13 14  1  0  0  0  0
 13 20  1  0  0  0  0
 14 16  1  0  0  0  0
 14 21  1  0  0  0  0
 16 22  1  0  0  0  0
 16 23  1  0  0  0  0
M  END
> <PUBCHEM_COMPOUND_CID>
3480

> <PUBCHEM_COMPOUND_CANONICALIZED>
1

> <PUBCHEM_CACTVS_COMPLEXITY>
377

> <PUBCHEM_CACTVS_HBOND_ACCEPTOR>
8

> <PUBCHEM_CACTVS_HBOND_DONOR>
6

> <PUBCHEM_CACTVS_ROTATABLE_BOND>
1

> <PUBCHEM_CACTVS_SUBSKEYS>
AAADccBzOABAAAAAAAAAAAAAAAAAAQAAAAAkAAAAAAAAAAAAAAAAHgQQCAAACByhgAIBAALABgQoAAEQNAIAEAEAAAABAAHAAAADUBYAiAQfQAAHIAATAAH6/CfAAAAAAAAAAAAAAAAAAAAAAAAAAAAAAA==

> <PUBCHEM_IUPAC_OPENEYE_NAME>
8,9,10-trihydroxy-7-(hydroxymethyl)-2-sulfanyl-6-oxa-1,3-diazaspiro[4.5]dec-1-en-4-one

> <PUBCHEM_IUPAC_CAS_NAME>
8,9,10-trihydroxy-7-(hydroxymethyl)-2-mercapto-6-oxa-1,3-diazaspiro[4.5]dec-1-en-4-one

> <PUBCHEM_IUPAC_NAME>
8,9,10-trihydroxy-7-(hydroxymethyl)-2-sulfanyl-6-oxa-1,3-diazaspiro[4.5]dec-1-en-4-one

> <PUBCHEM_IUPAC_SYSTEMATIC_NAME>
7-(hydroxymethyl)-8,9,10-tris(oxidanyl)-2-sulfanyl-6-oxa-1,3-diazaspiro[4.5]dec-1-en-4-one

> <PUBCHEM_IUPAC_TRADITIONAL_NAME>
8,9,10-trihydroxy-2-mercapto-7-methylol-6-oxa-1,3-diazaspiro[4.5]dec-1-en-4-one

> <PUBCHEM_IUPAC_INCHI>
InChI=1S/C8H12N2O6S/c11-1-2-3(12)4(13)5(14)8(16-2)6(15)9-7(17)10-8/h2-5,11-14H,1H2,(H2,9,10,15,17)

> <PUBCHEM_IUPAC_INCHIKEY>
OEWLGQKSTDZKFN-UHFFFAOYSA-N

> <PUBCHEM_XLOGP3_AA>
-2.6

> <PUBCHEM_EXACT_MASS>
264.041607

> <PUBCHEM_MOLECULAR_FORMULA>
C8H12N2O6S

> <PUBCHEM_MOLECULAR_WEIGHT>
264.25568

> <PUBCHEM_OPENEYE_CAN_SMILES>
C(C1C(C(C(C2(O1)C(=O)NC(=N2)S)O)O)O)O

> <PUBCHEM_OPENEYE_ISO_SMILES>
C(C1C(C(C(C2(O1)C(=O)NC(=N2)S)O)O)O)O

> <PUBCHEM_CACTVS_TPSA>
133

> <PUBCHEM_MONOISOTOPIC_WEIGHT>
264.041607

> <PUBCHEM_TOTAL_CHARGE>
0

> <PUBCHEM_HEAVY_ATOM_COUNT>
17

> <PUBCHEM_ATOM_DEF_STEREO_COUNT>
0

> <PUBCHEM_ATOM_UDEF_STEREO_COUNT>
5

> <PUBCHEM_BOND_DEF_STEREO_COUNT>
0

> <PUBCHEM_BOND_UDEF_STEREO_COUNT>
0

> <PUBCHEM_ISOTOPIC_ATOM_COUNT>
0

> <PUBCHEM_COMPONENT_COUNT>
1

> <PUBCHEM_CACTVS_TAUTO_COUNT>
5

> <PUBCHEM_COORDINATE_TYPE>
1
5
255

> <PUBCHEM_BONDANNOTATIONS>
14  16  3
10  2  3
11  3  3
12  4  3
13  5  3

$$$$

