11002
  -OEChem-06261205133D

 27 26  0     0  0  0  0  0  0999 V2000
   -0.0040    0.8813   -0.0001 S   0  0  0  0  0  0  0  0  0  0  0  0
    2.7424    0.3690   -0.0502 C   0  0  0  0  0  0  0  0  0  0  0  0
   -2.7423    0.3707    0.0500 C   0  0  0  0  0  0  0  0  0  0  0  0
    1.3713   -0.3059   -0.0250 C   0  0  0  0  0  0  0  0  0  0  0  0
   -1.3699   -0.3019    0.0251 C   0  0  0  0  0  0  0  0  0  0  0  0
    3.9138   -0.6166   -0.0246 C   0  0  0  0  0  0  0  0  0  0  0  0
   -3.9119   -0.6169    0.0248 C   0  0  0  0  0  0  0  0  0  0  0  0
    5.2473    0.1115    0.0512 C   0  0  0  0  0  0  0  0  0  0  0  0
   -5.2467    0.1088   -0.0512 C   0  0  0  0  0  0  0  0  0  0  0  0
    2.8261    0.9963   -0.9471 H   0  0  0  0  0  0  0  0  0  0  0  0
    2.8285    1.0389    0.8152 H   0  0  0  0  0  0  0  0  0  0  0  0
   -2.8274    0.9982    0.9467 H   0  0  0  0  0  0  0  0  0  0  0  0
   -2.8300    1.0401   -0.8158 H   0  0  0  0  0  0  0  0  0  0  0  0
    1.2652   -0.9453   -0.9079 H   0  0  0  0  0  0  0  0  0  0  0  0
    1.2948   -0.9406    0.8643 H   0  0  0  0  0  0  0  0  0  0  0  0
   -1.2650   -0.9419    0.9078 H   0  0  0  0  0  0  0  0  0  0  0  0
   -1.2946   -0.9380   -0.8634 H   0  0  0  0  0  0  0  0  0  0  0  0
    3.8193   -1.2827    0.8408 H   0  0  0  0  0  0  0  0  0  0  0  0
    3.8894   -1.2441   -0.9228 H   0  0  0  0  0  0  0  0  0  0  0  0
   -3.8163   -1.2831   -0.8403 H   0  0  0  0  0  0  0  0  0  0  0  0
   -3.8864   -1.2441    0.9233 H   0  0  0  0  0  0  0  0  0  0  0  0
    6.0715   -0.6085    0.0644 H   0  0  0  0  0  0  0  0  0  0  0  0
    5.3125    0.7186    0.9597 H   0  0  0  0  0  0  0  0  0  0  0  0
    5.3845    0.7693   -0.8130 H   0  0  0  0  0  0  0  0  0  0  0  0
   -6.0695   -0.6127   -0.0641 H   0  0  0  0  0  0  0  0  0  0  0  0
   -5.3130    0.7156   -0.9600 H   0  0  0  0  0  0  0  0  0  0  0  0
   -5.3851    0.7667    0.8127 H   0  0  0  0  0  0  0  0  0  0  0  0
  1  4  1  0  0  0  0
  1  5  1  0  0  0  0
  2  4  1  0  0  0  0
  2  6  1  0  0  0  0
  2 10  1  0  0  0  0
  2 11  1  0  0  0  0
  3  5  1  0  0  0  0
  3  7  1  0  0  0  0
  3 12  1  0  0  0  0
  3 13  1  0  0  0  0
  4 14  1  0  0  0  0
  4 15  1  0  0  0  0
  5 16  1  0  0  0  0
  5 17  1  0  0  0  0
  6  8  1  0  0  0  0
  6 18  1  0  0  0  0
  6 19  1  0  0  0  0
  7  9  1  0  0  0  0
  7 20  1  0  0  0  0
  7 21  1  0  0  0  0
  8 22  1  0  0  0  0
  8 23  1  0  0  0  0
  8 24  1  0  0  0  0
  9 25  1  0  0  0  0
  9 26  1  0  0  0  0
  9 27  1  0  0  0  0
M  END
> <PUBCHEM_COMPOUND_CID>
11002

> <PUBCHEM_CONFORMER_RMSD>
0.6

> <PUBCHEM_CONFORMER_DIVERSEORDER>
3
96
67
47
24
101
51
85
83
2
99
42
104
48
12
64
74
89
11
44
43
34
57
103
7
54
93
106
73
1
91
26
29
41
82
27
28
69
63
102
38
6
22
19
94
76
75
15
105
88
60
30
10
77
9
45
66
40
25
87
52
90
20
4
31
18
100
95
61
16
53
92
59
36
37
39
8
80
23
32
72
70
58
71
55
5
46
35
62
56
21
97
78
98
33
81
86
49
13
50
65
84
79
14
17
68

> <PUBCHEM_MMFF94_PARTIAL_CHARGES>
3
1 -0.46
4 0.23
5 0.23

> <PUBCHEM_EFFECTIVE_ROTOR_COUNT>
6

> <PUBCHEM_PHARMACOPHORE_FEATURES>
2
1 8 hydrophobe
1 9 hydrophobe

> <PUBCHEM_HEAVY_ATOM_COUNT>
9

> <PUBCHEM_ATOM_DEF_STEREO_COUNT>
0

> <PUBCHEM_ATOM_UDEF_STEREO_COUNT>
0

> <PUBCHEM_BOND_DEF_STEREO_COUNT>
0

> <PUBCHEM_BOND_UDEF_STEREO_COUNT>
0

> <PUBCHEM_ISOTOPIC_ATOM_COUNT>
0

> <PUBCHEM_COMPONENT_COUNT>
1

> <PUBCHEM_CACTVS_TAUTO_COUNT>
1

> <PUBCHEM_CONFORMER_ID>
00002AFA00000003

> <PUBCHEM_MMFF94_ENERGY>
1.6215

> <PUBCHEM_FEATURE_SELFOVERLAP>
10.149

> <PUBCHEM_SHAPE_FINGERPRINT>
11062470 55 18410855460128168289
114248 4 15770056124822198630
12815109 37 18410856559639828549
14123238 8 16877662361560149870
17834072 33 18187929426178497588
17834076 25 18411699889353261061
18342897 14 17748826323658254969
187816 3 15841832256905760164
20645477 70 18338797939843851390
20719005 15 18410573989451699680
20767249 13 18410857663446423619
20767249 213 7060371535598302930
20828058 44 17676207948720472175
21119208 17 15769774649866645455
22485316 2 18410858762958252771
23402539 116 17312828186573118221
42788 4 18410855464423200549

> <PUBCHEM_SHAPE_MULTIPOLES>
189.07
12
0.86
0.63
0.02
0.05
0
-1.11
0
0
0
0
0.01
0.01

> <PUBCHEM_SHAPE_SELFOVERLAP>
314.43

> <PUBCHEM_SHAPE_VOLUME>
128.2

> <PUBCHEM_COORDINATE_TYPE>
2
5
10

$$$$

