9543177
  -OEChem-07051213083D

 26 26  0     0  0  0  0  0  0999 V2000
    2.4842    2.5558    0.0003 O   0  5  0  0  0  0  0  0  0  0  0  0
    3.7441    0.7581    0.0022 O   0  0  0  0  0  0  0  0  0  0  0  0
   -3.7189   -0.8727    0.0040 O   0  0  0  0  0  0  0  0  0  0  0  0
   -2.2104    0.9392   -0.0014 N   0  0  0  0  0  0  0  0  0  0  0  0
    2.6183    1.3095    0.0006 N   0  3  0  0  0  0  0  0  0  0  0  0
    0.4687   -3.0882   -0.0006 N   0  0  0  0  0  0  0  0  0  0  0  0
    1.5496   -0.8984    0.0003 C   0  0  0  0  0  0  0  0  0  0  0  0
    1.4533    0.4930   -0.0003 C   0  0  0  0  0  0  0  0  0  0  0  0
    0.3926   -1.6776   -0.0004 C   0  0  0  0  0  0  0  0  0  0  0  0
   -0.9570    0.3263   -0.0022 C   0  0  0  0  0  0  0  0  0  0  0  0
    0.2001    1.1054   -0.0017 C   0  0  0  0  0  0  0  0  0  0  0  0
   -0.8607   -1.0652   -0.0017 C   0  0  0  0  0  0  0  0  0  0  0  0
    2.8931   -1.5606    0.0003 C   0  0  0  0  0  0  0  0  0  0  0  0
   -3.4718    0.3290    0.0000 C   0  0  0  0  0  0  0  0  0  0  0  0
   -4.5851    1.3463    0.0005 C   0  0  0  0  0  0  0  0  0  0  0  0
    0.0975    2.1886   -0.0018 H   0  0  0  0  0  0  0  0  0  0  0  0
   -1.7203   -1.7213   -0.0027 H   0  0  0  0  0  0  0  0  0  0  0  0
    3.4453   -1.3382   -0.9197 H   0  0  0  0  0  0  0  0  0  0  0  0
    3.4615   -1.3026    0.9014 H   0  0  0  0  0  0  0  0  0  0  0  0
    2.8684   -2.6502    0.0350 H   0  0  0  0  0  0  0  0  0  0  0  0
   -2.1968    1.9570   -0.0019 H   0  0  0  0  0  0  0  0  0  0  0  0
   -0.3957   -3.6158    0.0128 H   0  0  0  0  0  0  0  0  0  0  0  0
    1.3195   -3.5971   -0.1761 H   0  0  0  0  0  0  0  0  0  0  0  0
   -4.5283    1.9554    0.9070 H   0  0  0  0  0  0  0  0  0  0  0  0
   -5.5526    0.8372   -0.0259 H   0  0  0  0  0  0  0  0  0  0  0  0
   -4.4997    1.9905   -0.8790 H   0  0  0  0  0  0  0  0  0  0  0  0
  1  5  1  0  0  0  0
  2  5  2  0  0  0  0
  3 14  2  0  0  0  0
  4 10  1  0  0  0  0
  4 14  1  0  0  0  0
  4 21  1  0  0  0  0
  5  8  1  0  0  0  0
  6  9  1  0  0  0  0
  6 22  1  0  0  0  0
  6 23  1  0  0  0  0
  7  8  1  0  0  0  0
  7  9  2  0  0  0  0
  7 13  1  0  0  0  0
  8 11  2  0  0  0  0
  9 12  1  0  0  0  0
 10 11  1  0  0  0  0
 10 12  2  0  0  0  0
 11 16  1  0  0  0  0
 12 17  1  0  0  0  0
 13 18  1  0  0  0  0
 13 19  1  0  0  0  0
 13 20  1  0  0  0  0
 14 15  1  0  0  0  0
 15 24  1  0  0  0  0
 15 25  1  0  0  0  0
 15 26  1  0  0  0  0
M  CHG  2   1  -1   5   1
M  END
> <PUBCHEM_COMPOUND_CID>
9543177

> <PUBCHEM_CONFORMER_RMSD>
0.6

> <PUBCHEM_CONFORMER_DIVERSEORDER>
1
2
3
4

> <PUBCHEM_MMFF94_PARTIAL_CHARGES>
20
1 -0.52
10 0.12
11 -0.15
12 -0.15
13 0.14
14 0.57
15 0.06
16 0.15
17 0.15
2 -0.52
21 0.37
22 0.4
23 0.4
3 -0.57
4 -0.55
5 0.91
6 -0.9
7 -0.14
8 0.13
9 0.1

> <PUBCHEM_EFFECTIVE_ROTOR_COUNT>
3

> <PUBCHEM_PHARMACOPHORE_FEATURES>
8
1 1 acceptor
1 1 anion
1 2 acceptor
1 3 acceptor
1 4 donor
1 6 cation
1 6 donor
6 7 8 9 10 11 12 rings

> <PUBCHEM_HEAVY_ATOM_COUNT>
15

> <PUBCHEM_ATOM_DEF_STEREO_COUNT>
0

> <PUBCHEM_ATOM_UDEF_STEREO_COUNT>
0

> <PUBCHEM_BOND_DEF_STEREO_COUNT>
0

> <PUBCHEM_BOND_UDEF_STEREO_COUNT>
0

> <PUBCHEM_ISOTOPIC_ATOM_COUNT>
0

> <PUBCHEM_COMPONENT_COUNT>
1

> <PUBCHEM_CACTVS_TAUTO_COUNT>
2

> <PUBCHEM_CONFORMER_ID>
00919E0900000001

> <PUBCHEM_MMFF94_ENERGY>
68.7787

> <PUBCHEM_FEATURE_SELFOVERLAP>
40.676

> <PUBCHEM_SHAPE_FINGERPRINT>
10465860 228 18336258067656290473
10608611 8 18342178920729190533
10967382 1 18410855503141151270
10980938 120 18410856585420142865
11471102 20 18338520845258489821
12346645 6 18410575119049314581
13140716 1 18411706477865099314
13380535 76 18338235968694210250
13380536 305 18410570717003345686
13897977 150 18412265030019623701
14251717 144 18410015467773201359
14325111 11 18410856551424537761
14415576 193 18412823620644803101
14897335 6 18336550425826629102
15196674 1 18410855469166664679
15219456 202 18342733031607969419
15442244 35 17831859427749124873
15501101 241 18200872988655908549
15536298 74 18333732442033629182
15775835 57 18334293154404054365
16945 1 18266741478943598727
18186145 218 18334005112274784941
193761 8 18194402186986533482
20645477 70 18262802990250090599
21501502 16 18337679611299433983
21524375 3 18341334392318624418
21730867 7 18342458166211504205
221490 88 18340196470914923555
22959321 4 18411699911181811331
2334 1 18338516322394319306
23402539 116 18260275118191118164
23402655 69 18334579066124361845
23463225 33 18413111683911201250
23558518 356 17767689352414144600
25 1 18411420613431506564
2748010 2 18340194198729270998
3060560 45 18336827584445759734
3071541 37 18342450486941828406
449060 62 18335420205414892793
4990 188 17968085426331853692
5104073 3 18411980282662845851
53812653 166 18334580092552876400
633830 44 18260544524357226085
7364860 26 18264488553843330694
81228 2 17547589084026090027
81539 233 18271809046610896999
8272917 22 18263639727125316005

> <PUBCHEM_SHAPE_MULTIPOLES>
276.14
6.64
2.46
0.58
6.15
0.63
0
-2.39
0.01
-1.72
0
0.02
0.01
0

> <PUBCHEM_SHAPE_SELFOVERLAP>
578.324

> <PUBCHEM_SHAPE_VOLUME>
156.9

> <PUBCHEM_COORDINATE_TYPE>
2
5
10

$$$$

