17396345
  -OEChem-06241222563D

 48 51  0     0  0  0  0  0  0999 V2000
    9.2812   -0.2867    0.0624 F   0  0  0  0  0  0  0  0  0  0  0  0
   -3.0349    1.6323   -0.0405 O   0  0  0  0  0  0  0  0  0  0  0  0
    3.8325    0.6167    0.0068 N   0  0  0  0  0  0  0  0  0  0  0  0
   -0.7737    0.2017   -0.0729 N   0  0  0  0  0  0  0  0  0  0  0  0
   -4.3777   -0.2930   -0.1120 N   0  0  0  0  0  0  0  0  0  0  0  0
    3.3563    1.8754    0.0336 N   0  0  0  0  0  0  0  0  0  0  0  0
    3.0279   -1.6658   -0.0663 N   0  0  0  0  0  0  0  0  0  0  0  0
    0.5907   -1.7621   -0.1052 N   0  0  0  0  0  0  0  0  0  0  0  0
    1.6548    0.3510   -0.0330 C   0  0  0  0  0  0  0  0  0  0  0  0
    2.8568   -0.3345   -0.0334 C   0  0  0  0  0  0  0  0  0  0  0  0
    0.4920   -0.4114   -0.0707 C   0  0  0  0  0  0  0  0  0  0  0  0
   -6.8012   -0.6106   -0.1297 C   0  0  0  0  0  0  0  0  0  0  0  0
   -5.6913    0.2338   -0.1010 C   0  0  0  0  0  0  0  0  0  0  0  0
   -1.9996   -0.5382   -0.1109 C   0  0  0  0  0  0  0  0  0  0  0  0
    5.2079    0.3885    0.0211 C   0  0  0  0  0  0  0  0  0  0  0  0
   -6.6420   -2.0959   -0.1727 C   0  0  0  0  0  0  0  0  0  0  0  0
    2.0295    1.7069    0.0089 C   0  0  0  0  0  0  0  0  0  0  0  0
   -3.1789    0.4147   -0.0869 C   0  0  0  0  0  0  0  0  0  0  0  0
   -8.0879   -0.0718   -0.1184 C   0  0  0  0  0  0  0  0  0  0  0  0
   -5.8681    1.6169   -0.0612 C   0  0  0  0  0  0  0  0  0  0  0  0
    6.0577    1.2901    0.6619 C   0  0  0  0  0  0  0  0  0  0  0  0
    5.7341   -0.7411   -0.6058 C   0  0  0  0  0  0  0  0  0  0  0  0
   -6.5853   -2.7113    1.2219 C   0  0  0  0  0  0  0  0  0  0  0  0
   -8.2644    1.3113   -0.0784 C   0  0  0  0  0  0  0  0  0  0  0  0
   -7.1547    2.1556   -0.0497 C   0  0  0  0  0  0  0  0  0  0  0  0
    1.8347   -2.2976   -0.1009 C   0  0  0  0  0  0  0  0  0  0  0  0
    7.4339    1.0620    0.6759 C   0  0  0  0  0  0  0  0  0  0  0  0
    7.1100   -0.9691   -0.5919 C   0  0  0  0  0  0  0  0  0  0  0  0
    7.9599   -0.0676    0.0490 C   0  0  0  0  0  0  0  0  0  0  0  0
   -2.0578   -1.1389   -1.0260 H   0  0  0  0  0  0  0  0  0  0  0  0
   -2.0740   -1.2032    0.7575 H   0  0  0  0  0  0  0  0  0  0  0  0
   -7.5000   -2.5311   -0.7035 H   0  0  0  0  0  0  0  0  0  0  0  0
   -5.7792   -2.4061   -0.7709 H   0  0  0  0  0  0  0  0  0  0  0  0
   -0.8006    1.2151   -0.0477 H   0  0  0  0  0  0  0  0  0  0  0  0
    1.3962    2.5826    0.0231 H   0  0  0  0  0  0  0  0  0  0  0  0
   -4.2964   -1.3046   -0.1215 H   0  0  0  0  0  0  0  0  0  0  0  0
   -8.9626   -0.7166   -0.1379 H   0  0  0  0  0  0  0  0  0  0  0  0
   -5.0657    2.3396   -0.0382 H   0  0  0  0  0  0  0  0  0  0  0  0
    5.6776    2.1739    1.1682 H   0  0  0  0  0  0  0  0  0  0  0  0
    5.1265   -1.4445   -1.1654 H   0  0  0  0  0  0  0  0  0  0  0  0
   -5.7241   -2.3383    1.7862 H   0  0  0  0  0  0  0  0  0  0  0  0
   -6.4981   -3.8001    1.1504 H   0  0  0  0  0  0  0  0  0  0  0  0
   -7.4893   -2.4807    1.7958 H   0  0  0  0  0  0  0  0  0  0  0  0
   -9.2661    1.7309   -0.0689 H   0  0  0  0  0  0  0  0  0  0  0  0
   -7.2939    3.2325   -0.0186 H   0  0  0  0  0  0  0  0  0  0  0  0
    1.8774   -3.3812   -0.1292 H   0  0  0  0  0  0  0  0  0  0  0  0
    8.0960    1.7623    1.1766 H   0  0  0  0  0  0  0  0  0  0  0  0
    7.5220   -1.8418   -1.0900 H   0  0  0  0  0  0  0  0  0  0  0  0
  1 29  1  0  0  0  0
  2 18  2  0  0  0  0
  3  6  1  0  0  0  0
  3 10  1  0  0  0  0
  3 15  1  0  0  0  0
  4 11  1  0  0  0  0
  4 14  1  0  0  0  0
  4 34  1  0  0  0  0
  5 13  1  0  0  0  0
  5 18  1  0  0  0  0
  5 36  1  0  0  0  0
  6 17  2  0  0  0  0
  7 10  2  0  0  0  0
  7 26  1  0  0  0  0
  8 11  1  0  0  0  0
  8 26  2  0  0  0  0
  9 10  1  0  0  0  0
  9 11  2  0  0  0  0
  9 17  1  0  0  0  0
 12 13  1  0  0  0  0
 12 16  1  0  0  0  0
 12 19  2  0  0  0  0
 13 20  2  0  0  0  0
 14 18  1  0  0  0  0
 14 30  1  0  0  0  0
 14 31  1  0  0  0  0
 15 21  2  0  0  0  0
 15 22  1  0  0  0  0
 16 23  1  0  0  0  0
 16 32  1  0  0  0  0
 16 33  1  0  0  0  0
 17 35  1  0  0  0  0
 19 24  1  0  0  0  0
 19 37  1  0  0  0  0
 20 25  1  0  0  0  0
 20 38  1  0  0  0  0
 21 27  1  0  0  0  0
 21 39  1  0  0  0  0
 22 28  2  0  0  0  0
 22 40  1  0  0  0  0
 23 41  1  0  0  0  0
 23 42  1  0  0  0  0
 23 43  1  0  0  0  0
 24 25  2  0  0  0  0
 24 44  1  0  0  0  0
 25 45  1  0  0  0  0
 26 46  1  0  0  0  0
 27 29  2  0  0  0  0
 27 47  1  0  0  0  0
 28 29  1  0  0  0  0
 28 48  1  0  0  0  0
M  END
> <PUBCHEM_COMPOUND_CID>
17396345

> <PUBCHEM_CONFORMER_RMSD>
0.8

> <PUBCHEM_CONFORMER_DIVERSEORDER>
1
10
180
22
176
51
81
114
41
164
15
64
34
163
119
73
132
102
72
159
105
189
173
171
155
48
188
66
20
190
130
125
137
118
100
78
138
25
70
95
94
97
50
162
126
144
33
136
183
67
133
140
134
165
27
44
82
191
156
45
14
61
43
80
109
146
182
36
127
2
3
185
148
93
85
63
29
142
83
26
151
135
122
168
184
160
62
17
65
68
75
88
178
47
112
169
174
42
69
121
54
120
60
55
116
90
37
74
57
175
53
96
101
108
77
161
24
7
49
98
113
150
89
158
153
91
170
143
76
21
40
6
12
23
31
177
110
59
129
104
56
147
167
19
99
30
149
9
86
111
92
123
187
107
79
87
106
16
186
39
52
124
154
5
71
4
145
28
117
139
13
172
32
128
103
181
38
115
131
11
8
35
166
157
141
84
58
179
46
18
152

> <PUBCHEM_MMFF94_PARTIAL_CHARGES>
39
1 -0.19
10 0.11
11 0.41
12 -0.14
13 0.12
14 0.43
15 -0.02
16 0.14
17 0.14
18 0.57
19 -0.15
2 -0.57
20 -0.15
21 -0.15
22 -0.15
24 -0.15
25 -0.15
26 0.47
27 -0.15
28 -0.15
29 0.19
3 0.59
34 0.4
35 0.15
36 0.37
37 0.15
38 0.15
39 0.15
4 -0.87
40 0.15
44 0.15
45 0.15
46 0.15
47 0.15
48 0.15
5 -0.55
6 -0.71
7 -0.57
8 -0.62

> <PUBCHEM_EFFECTIVE_ROTOR_COUNT>
7

> <PUBCHEM_PHARMACOPHORE_FEATURES>
12
1 2 acceptor
1 23 hydrophobe
1 4 cation
1 4 donor
1 5 donor
1 6 acceptor
3 3 7 10 cation
3 7 8 26 cation
5 3 6 9 10 17 rings
6 12 13 19 20 24 25 rings
6 15 21 22 27 28 29 rings
6 7 8 9 10 11 26 rings

> <PUBCHEM_HEAVY_ATOM_COUNT>
29

> <PUBCHEM_ATOM_DEF_STEREO_COUNT>
0

> <PUBCHEM_ATOM_UDEF_STEREO_COUNT>
0

> <PUBCHEM_BOND_DEF_STEREO_COUNT>
0

> <PUBCHEM_BOND_UDEF_STEREO_COUNT>
0

> <PUBCHEM_ISOTOPIC_ATOM_COUNT>
0

> <PUBCHEM_COMPONENT_COUNT>
1

> <PUBCHEM_CACTVS_TAUTO_COUNT>
10

> <PUBCHEM_CONFORMER_ID>
0109727900000001

> <PUBCHEM_MMFF94_ENERGY>
86.4565

> <PUBCHEM_FEATURE_SELFOVERLAP>
61.172

> <PUBCHEM_SHAPE_FINGERPRINT>
10050765 1 18048596216019555988
100830 39 18410011057475174289
10299344 5 17989769998780955209
10411042 1 17904481063301237318
10835480 77 18410859906490380365
11135926 11 18272377477639440087
11315181 36 17821728348055425393
11408170 108 16226600919189054118
11719270 70 18333734636825760222
12089408 11 17847062173595131902
13885169 127 18410855469256355001
14118638 360 15936681670340873926
14170010 4 18410011035841816012
14251764 18 18060423520865368528
14251764 46 18410575093253013516
14933364 13 18409729573876588285
15510794 2 18260545632163447662
1577012 14 18272096023804860283
15840311 113 18059853940527421732
15849732 13 18187083953545390612
18608769 82 18411420609590362805
19611394 137 18127682747992873067
19841028 212 18270684294278753978
21267235 1 18408600357780226500
21792934 111 18261682537021240376
21792961 116 17603583062485414738
22224240 67 18131071532612463146
232437 2 18407478860510254919
23559900 14 18410299086972769185
249057 3 15719399408402427620
335352 9 18410008828613494676
335507 130 18335419029142779095
395649 100 18201439143504719819
4073 2 18202276988418224107
4325135 7 18409450289338239669
4874694 18 18412268350815762383
4918590 53 18260539022720047139
5758199 1 18130788975240801027
67123 10 18409449176667585124
99344 41 18409730677372226407
9953998 17 18342737425950408701

> <PUBCHEM_SHAPE_MULTIPOLES>
553.78
29.86
2.23
0.71
2.07
0.62
0.07
-2.36
1.17
3.06
0.27
0.01
0.14
1.45

> <PUBCHEM_SHAPE_SELFOVERLAP>
1215.473

> <PUBCHEM_SHAPE_VOLUME>
299.8

> <PUBCHEM_COORDINATE_TYPE>
2
5
10

$$$$

