24883438
  -OEChem-07051213153D

 52 53  0     1  0  0  0  0  0999 V2000
   -0.9462   -0.3981    0.1109 C   0  0  1  0  0  0  0  0  0  0  0  0
    0.3306    0.3566   -0.4197 C   0  0  1  0  0  0  0  0  0  0  0  0
   -2.3487    0.1809   -0.3228 C   0  0  2  0  0  0  0  0  0  0  0  0
    0.1914    1.8988   -0.1548 C   0  0  1  0  0  0  0  0  0  0  0  0
   -2.3572    1.7010   -0.0272 C   0  0  0  0  0  0  0  0  0  0  0  0
   -1.1656    2.4455   -0.6301 C   0  0  0  0  0  0  0  0  0  0  0  0
   -0.9220   -1.9287   -0.0790 C   0  0  0  0  0  0  0  0  0  0  0  0
    1.5910   -0.1834    0.3126 C   0  0  0  0  0  0  0  0  0  0  0  0
   -3.4501   -0.5583    0.4704 C   0  0  0  0  0  0  0  0  0  0  0  0
    0.6096    0.1217   -1.9221 C   0  0  0  0  0  0  0  0  0  0  0  0
   -2.7084   -0.0475   -1.8113 C   0  0  0  0  0  0  0  0  0  0  0  0
   -2.0028   -2.6039    0.7698 C   0  0  0  0  0  0  0  0  0  0  0  0
    0.4223    2.3120    1.3109 C   0  0  0  0  0  0  0  0  0  0  0  0
   -3.2615   -1.8085    0.9348 C   0  0  0  0  0  0  0  0  0  0  0  0
    2.8309    0.5580   -0.1614 C   0  0  0  0  0  0  0  0  0  0  0  0
   -4.7759    0.1242    0.6903 C   0  0  0  0  0  0  0  0  0  0  0  0
    4.0788    0.0354    0.5181 C   0  0  0  0  0  0  0  0  0  0  0  0
    4.8326   -1.0675   -0.0641 C   0  0  0  0  0  0  0  0  0  0  0  0
    4.4821    0.5724    1.6830 C   0  0  0  0  0  0  0  0  0  0  0  0
    4.5691   -1.7107   -1.2083 C   0  0  0  0  0  0  0  0  0  0  0  0
   -0.9014   -0.2544    1.2037 H   0  0  0  0  0  0  0  0  0  0  0  0
    0.9440    2.4389   -0.7443 H   0  0  0  0  0  0  0  0  0  0  0  0
   -2.3737    1.8708    1.0570 H   0  0  0  0  0  0  0  0  0  0  0  0
   -3.2745    2.1600   -0.4185 H   0  0  0  0  0  0  0  0  0  0  0  0
   -1.2104    2.4074   -1.7239 H   0  0  0  0  0  0  0  0  0  0  0  0
   -1.2480    3.5096   -0.3744 H   0  0  0  0  0  0  0  0  0  0  0  0
    0.0342   -2.3654    0.2207 H   0  0  0  0  0  0  0  0  0  0  0  0
   -1.0489   -2.1960   -1.1329 H   0  0  0  0  0  0  0  0  0  0  0  0
    1.7353   -1.2479    0.0986 H   0  0  0  0  0  0  0  0  0  0  0  0
    1.4788   -0.1126    1.4011 H   0  0  0  0  0  0  0  0  0  0  0  0
    1.3261    0.8350   -2.3414 H   0  0  0  0  0  0  0  0  0  0  0  0
   -0.2743    0.2354   -2.5411 H   0  0  0  0  0  0  0  0  0  0  0  0
    0.9848   -0.8910   -2.1094 H   0  0  0  0  0  0  0  0  0  0  0  0
   -2.1880    0.6271   -2.4910 H   0  0  0  0  0  0  0  0  0  0  0  0
   -3.7717    0.1507   -1.9966 H   0  0  0  0  0  0  0  0  0  0  0  0
   -2.5290   -1.0735   -2.1431 H   0  0  0  0  0  0  0  0  0  0  0  0
   -1.5986   -2.7945    1.7720 H   0  0  0  0  0  0  0  0  0  0  0  0
   -2.2421   -3.5820    0.3369 H   0  0  0  0  0  0  0  0  0  0  0  0
   -0.2340    1.7718    1.9993 H   0  0  0  0  0  0  0  0  0  0  0  0
    0.2205    3.3817    1.4407 H   0  0  0  0  0  0  0  0  0  0  0  0
    1.4498    2.1574    1.6452 H   0  0  0  0  0  0  0  0  0  0  0  0
   -4.0604   -2.3033    1.4821 H   0  0  0  0  0  0  0  0  0  0  0  0
    2.9890    0.5026   -1.2405 H   0  0  0  0  0  0  0  0  0  0  0  0
    2.7755    1.6309    0.0458 H   0  0  0  0  0  0  0  0  0  0  0  0
   -4.6603    0.9864    1.3542 H   0  0  0  0  0  0  0  0  0  0  0  0
   -5.5105   -0.5437    1.1538 H   0  0  0  0  0  0  0  0  0  0  0  0
   -5.2061    0.4654   -0.2556 H   0  0  0  0  0  0  0  0  0  0  0  0
    5.7096   -1.3967    0.4916 H   0  0  0  0  0  0  0  0  0  0  0  0
    3.9330    1.3858    2.1470 H   0  0  0  0  0  0  0  0  0  0  0  0
    5.3649    0.2183    2.2062 H   0  0  0  0  0  0  0  0  0  0  0  0
    5.2174   -2.5184   -1.5336 H   0  0  0  0  0  0  0  0  0  0  0  0
    3.7236   -1.4761   -1.8433 H   0  0  0  0  0  0  0  0  0  0  0  0
  1  2  1  0  0  0  0
  1  3  1  0  0  0  0
  1  7  1  0  0  0  0
  1 21  1  0  0  0  0
  2  4  1  0  0  0  0
  2  8  1  0  0  0  0
  2 10  1  0  0  0  0
  3  5  1  0  0  0  0
  3  9  1  0  0  0  0
  3 11  1  0  0  0  0
  4  6  1  0  0  0  0
  4 13  1  0  0  0  0
  4 22  1  0  0  0  0
  5  6  1  0  0  0  0
  5 23  1  0  0  0  0
  5 24  1  0  0  0  0
  6 25  1  0  0  0  0
  6 26  1  0  0  0  0
  7 12  1  0  0  0  0
  7 27  1  0  0  0  0
  7 28  1  0  0  0  0
  8 15  1  0  0  0  0
  8 29  1  0  0  0  0
  8 30  1  0  0  0  0
  9 14  2  0  0  0  0
  9 16  1  0  0  0  0
 10 31  1  0  0  0  0
 10 32  1  0  0  0  0
 10 33  1  0  0  0  0
 11 34  1  0  0  0  0
 11 35  1  0  0  0  0
 11 36  1  0  0  0  0
 12 14  1  0  0  0  0
 12 37  1  0  0  0  0
 12 38  1  0  0  0  0
 13 39  1  0  0  0  0
 13 40  1  0  0  0  0
 13 41  1  0  0  0  0
 14 42  1  0  0  0  0
 15 17  1  0  0  0  0
 15 43  1  0  0  0  0
 15 44  1  0  0  0  0
 16 45  1  0  0  0  0
 16 46  1  0  0  0  0
 16 47  1  0  0  0  0
 17 18  1  0  0  0  0
 17 19  2  0  0  0  0
 18 20  2  0  0  0  0
 18 48  1  0  0  0  0
 19 49  1  0  0  0  0
 19 50  1  0  0  0  0
 20 51  1  0  0  0  0
 20 52  1  0  0  0  0
M  END
> <PUBCHEM_COMPOUND_CID>
24883438

> <PUBCHEM_CONFORMER_RMSD>
0.8

> <PUBCHEM_CONFORMER_DIVERSEORDER>
1
11
7
9
4
3
5
2
6
8
10

> <PUBCHEM_MMFF94_PARTIAL_CHARGES>
16
12 0.14
14 -0.29
15 0.14
16 0.14
17 -0.14
18 -0.15
19 -0.3
20 -0.3
3 0.14
42 0.15
48 0.15
49 0.15
50 0.15
51 0.15
52 0.15
9 -0.28

> <PUBCHEM_EFFECTIVE_ROTOR_COUNT>
5.2

> <PUBCHEM_PHARMACOPHORE_FEATURES>
5
1 19 hydrophobe
1 20 hydrophobe
4 8 15 17 18 hydrophobe
6 1 2 3 4 5 6 rings
6 1 3 7 9 12 14 rings

> <PUBCHEM_HEAVY_ATOM_COUNT>
20

> <PUBCHEM_ATOM_DEF_STEREO_COUNT>
4

> <PUBCHEM_ATOM_UDEF_STEREO_COUNT>
0

> <PUBCHEM_BOND_DEF_STEREO_COUNT>
0

> <PUBCHEM_BOND_UDEF_STEREO_COUNT>
0

> <PUBCHEM_ISOTOPIC_ATOM_COUNT>
0

> <PUBCHEM_COMPONENT_COUNT>
1

> <PUBCHEM_CACTVS_TAUTO_COUNT>
1

> <PUBCHEM_CONFORMER_ID>
017BB0EE00000001

> <PUBCHEM_MMFF94_ENERGY>
69.1386

> <PUBCHEM_FEATURE_SELFOVERLAP>
25.57

> <PUBCHEM_SHAPE_FINGERPRINT>
11132069 177 18408609149425138264
11370993 144 17894344510193604810
12011746 2 18341617036090825071
12236239 1 17203323433953082742
12553582 1 18272095993281055754
12633257 1 18261658291176422105
12714826 92 17847066570855769991
12760667 363 18335703909670021302
13140716 1 18267867168745060905
13544653 18 18259988158583160452
13583140 156 16516254998487360098
13675066 3 18333453144737219352
14115302 16 18059566962842529517
14251757 5 17986934303007667410
15209289 33 18408884040480689361
16752209 62 18270975655457010052
16945 1 18272939340111118797
17804303 29 18342171133626259827
1813 80 17346597452552187510
19141452 34 18260545593809473991
200 152 15051741910574989120
20510252 161 18335986475125079952
20600515 1 18338504283711940621
21637258 2 15625943076389078259
2297311 6 18339066168919342566
23175994 123 18412543197987729997
23184049 59 17603865585560642092
23366157 5 17557139497896976877
23402539 116 18335709338502772399
23557571 272 18263071257938693324
23559900 14 18411132533517846308
2748010 2 18124607375003897989
2838139 119 15937247962427991561
296302 2 15068617176103749549
3286 77 18193835947378040943
474 4 14201392764437049916
5104073 3 18270959016822453425
81228 2 18116693291938949496
9709674 26 18334298708182052478

> <PUBCHEM_SHAPE_MULTIPOLES>
411.59
8.77
2.47
1.43
7.57
0.1
-0.31
-3.3
1.65
-0.93
0.38
0.35
0.06
1.33

> <PUBCHEM_SHAPE_SELFOVERLAP>
835.362

> <PUBCHEM_SHAPE_VOLUME>
239.9

> <PUBCHEM_COORDINATE_TYPE>
2
5
10

$$$$

