10151
  -OEChem-07051213093D

 30 32  0     0  0  0  0  0  0999 V2000
    2.6587    2.3669    0.0018 O   0  0  0  0  0  0  0  0  0  0  0  0
    1.6362   -3.0561   -0.0002 O   0  0  0  0  0  0  0  0  0  0  0  0
    0.1206    2.7656   -0.0016 O   0  0  0  0  0  0  0  0  0  0  0  0
   -0.8618   -2.4868   -0.0007 O   0  0  0  0  0  0  0  0  0  0  0  0
   -3.3917   -2.0871    0.0002 O   0  0  0  0  0  0  0  0  0  0  0  0
    1.0261    0.5814   -0.0006 C   0  0  0  0  0  0  0  0  0  0  0  0
    0.7619   -0.7899   -0.0005 C   0  0  0  0  0  0  0  0  0  0  0  0
   -1.7382   -0.3081    0.0000 C   0  0  0  0  0  0  0  0  0  0  0  0
   -1.4740    1.0631   -0.0005 C   0  0  0  0  0  0  0  0  0  0  0  0
   -0.0822    1.5580   -0.0010 C   0  0  0  0  0  0  0  0  0  0  0  0
   -0.6300   -1.2847    0.0002 C   0  0  0  0  0  0  0  0  0  0  0  0
    2.3498    1.0373   -0.0003 C   0  0  0  0  0  0  0  0  0  0  0  0
    1.8213   -1.7051   -0.0002 C   0  0  0  0  0  0  0  0  0  0  0  0
    3.4026    0.1217    0.0001 C   0  0  0  0  0  0  0  0  0  0  0  0
    3.1389   -1.2465    0.0001 C   0  0  0  0  0  0  0  0  0  0  0  0
   -3.0619   -0.7641    0.0007 C   0  0  0  0  0  0  0  0  0  0  0  0
   -2.5335    1.9784   -0.0003 C   0  0  0  0  0  0  0  0  0  0  0  0
    4.8229    0.5850    0.0010 C   0  0  0  0  0  0  0  0  0  0  0  0
   -4.1147    0.1514    0.0011 C   0  0  0  0  0  0  0  0  0  0  0  0
   -3.8510    1.5197    0.0006 C   0  0  0  0  0  0  0  0  0  0  0  0
    3.9622   -1.9572    0.0005 H   0  0  0  0  0  0  0  0  0  0  0  0
   -2.3562    3.0504   -0.0007 H   0  0  0  0  0  0  0  0  0  0  0  0
    5.5282   -0.2531   -0.0014 H   0  0  0  0  0  0  0  0  0  0  0  0
    5.0272    1.1878   -0.8901 H   0  0  0  0  0  0  0  0  0  0  0  0
    5.0274    1.1834    0.8950 H   0  0  0  0  0  0  0  0  0  0  0  0
   -5.1449   -0.1948    0.0016 H   0  0  0  0  0  0  0  0  0  0  0  0
   -4.6725    2.2304    0.0008 H   0  0  0  0  0  0  0  0  0  0  0  0
    1.8574    2.9108    0.0056 H   0  0  0  0  0  0  0  0  0  0  0  0
    2.4985   -3.5053    0.0000 H   0  0  0  0  0  0  0  0  0  0  0  0
   -2.5966   -2.6404   -0.0010 H   0  0  0  0  0  0  0  0  0  0  0  0
  1 12  1  0  0  0  0
  1 28  1  0  0  0  0
  2 13  1  0  0  0  0
  2 29  1  0  0  0  0
  3 10  2  0  0  0  0
  4 11  2  0  0  0  0
  5 16  1  0  0  0  0
  5 30  1  0  0  0  0
  6  7  1  0  0  0  0
  6 10  1  0  0  0  0
  6 12  2  0  0  0  0
  7 11  1  0  0  0  0
  7 13  2  0  0  0  0
  8  9  2  0  0  0  0
  8 11  1  0  0  0  0
  8 16  1  0  0  0  0
  9 10  1  0  0  0  0
  9 17  1  0  0  0  0
 12 14  1  0  0  0  0
 13 15  1  0  0  0  0
 14 15  2  0  0  0  0
 14 18  1  0  0  0  0
 15 21  1  0  0  0  0
 16 19  2  0  0  0  0
 17 20  2  0  0  0  0
 17 22  1  0  0  0  0
 18 23  1  0  0  0  0
 18 24  1  0  0  0  0
 18 25  1  0  0  0  0
 19 20  1  0  0  0  0
 19 26  1  0  0  0  0
 20 27  1  0  0  0  0
M  END
> <PUBCHEM_COMPOUND_CID>
10151

> <PUBCHEM_CONFORMER_RMSD>
0.6

> <PUBCHEM_CONFORMER_DIVERSEORDER>
1

> <PUBCHEM_MMFF94_PARTIAL_CHARGES>
27
1 -0.53
10 0.4
11 0.4
12 0.08
13 0.08
14 -0.14
15 -0.15
16 0.08
17 -0.15
18 0.14
19 -0.15
2 -0.53
20 -0.15
21 0.15
22 0.15
26 0.15
27 0.15
28 0.45
29 0.45
3 -0.57
30 0.45
4 -0.57
5 -0.53
6 0.09
7 0.09
8 0.09
9 0.09

> <PUBCHEM_EFFECTIVE_ROTOR_COUNT>
0

> <PUBCHEM_PHARMACOPHORE_FEATURES>
8
1 1 donor
1 2 donor
1 3 acceptor
1 4 acceptor
1 5 donor
6 6 7 12 13 14 15 rings
6 6 7 8 9 10 11 rings
6 8 9 16 17 19 20 rings

> <PUBCHEM_HEAVY_ATOM_COUNT>
20

> <PUBCHEM_ATOM_DEF_STEREO_COUNT>
0

> <PUBCHEM_ATOM_UDEF_STEREO_COUNT>
0

> <PUBCHEM_BOND_DEF_STEREO_COUNT>
0

> <PUBCHEM_BOND_UDEF_STEREO_COUNT>
0

> <PUBCHEM_ISOTOPIC_ATOM_COUNT>
0

> <PUBCHEM_COMPONENT_COUNT>
1

> <PUBCHEM_CACTVS_TAUTO_COUNT>
186

> <PUBCHEM_CONFORMER_ID>
000027A700000001

> <PUBCHEM_MMFF94_ENERGY>
65.9905

> <PUBCHEM_FEATURE_SELFOVERLAP>
40.637

> <PUBCHEM_SHAPE_FINGERPRINT>
10062212 137 18411428305755071323
10411042 1 16249127287784421122
10608611 8 18411420630727569589
10616163 171 18410009910090996479
10863032 1 18336547221717709825
10967382 1 18338799042916554215
11132069 177 18410859879681346417
11471102 20 18410859901282647044
13132413 78 18408885118185450653
13140716 1 18195241346196797851
13221675 6 18410293614139721062
13380535 76 18411700989086727290
138480 1 17906452486895082178
14223421 5 18339924925712132015
14790565 3 18340197476343686620
15196674 1 18410574019558720742
15230672 131 13370502225919000787
15442244 35 18049724310612443498
15536298 74 18334575797553847198
16945 1 18266459806640849157
17492 89 18410856590080172427
19591789 44 18337952272965953126
200 152 18113344102559063341
20510252 161 18261109716004013952
21267235 1 18410846638397509943
21421861 104 17842843488612117602
21501502 16 18411421755887649395
221490 88 18412255125746177770
2334 1 18410575097806476131
23366157 5 17987230222054164586
23402539 116 18334865995582717062
23463225 33 18412263973215121205
23559900 14 18263365944609294070
2748010 2 18410854403819401711
335352 9 18122343746438693301
34934 24 18410862100432509503
350125 39 18339357440273531881
5104073 3 18410856589979030610
7364860 26 18263925608596378790
7832392 63 18337391651011406799
8809292 202 18271803488949648307
9709674 26 18410006645778941855

> <PUBCHEM_SHAPE_MULTIPOLES>
382.24
7.28
2.88
0.59
0.52
0.52
0
-0.97
0
0.07
0
0
-0.01
0

> <PUBCHEM_SHAPE_SELFOVERLAP>
869.659

> <PUBCHEM_SHAPE_VOLUME>
197.3

> <PUBCHEM_COORDINATE_TYPE>
2
5
10

$$$$

