91439
  -OEChem-07051212563D

 74 79  0     1  0  0  0  0  0999 V2000
   -3.3126   -0.8984   -0.3710 O   0  0  0  0  0  0  0  0  0  0  0  0
   -4.8337    0.2202    1.0962 O   0  0  0  0  0  0  0  0  0  0  0  0
    8.0502   -0.9165    0.1224 O   0  0  0  0  0  0  0  0  0  0  0  0
   -0.4679    0.9495   -0.0469 C   0  0  1  0  0  0  0  0  0  0  0  0
    0.1638   -0.4097    0.3312 C   0  0  2  0  0  0  0  0  0  0  0  0
   -1.8885    0.7743    0.5675 C   0  0  2  0  0  0  0  0  0  0  0  0
    1.5935   -0.5942   -0.1862 C   0  0  1  0  0  0  0  0  0  0  0  0
    2.4920    0.5655    0.3298 C   0  0  1  0  0  0  0  0  0  0  0  0
   -2.1707   -0.7402    0.4653 C   0  0  2  0  0  0  0  0  0  0  0  0
    3.9708    0.4662   -0.2408 C   0  0  2  0  0  0  0  0  0  0  0  0
   -0.9095   -1.4121   -0.0793 C   0  0  0  0  0  0  0  0  0  0  0  0
    0.3772    2.0402    0.6297 C   0  0  0  0  0  0  0  0  0  0  0  0
    1.8463    1.9711    0.1794 C   0  0  0  0  0  0  0  0  0  0  0  0
   -3.0980    1.4193   -0.1189 C   0  0  1  0  0  0  0  0  0  0  0  0
    4.3270   -1.0182   -0.6077 C   0  0  2  0  0  0  0  0  0  0  0  0
    2.1546   -1.9579    0.2693 C   0  0  0  0  0  0  0  0  0  0  0  0
   -4.1302    0.2736   -0.1536 C   0  0  1  0  0  0  0  0  0  0  0  0
    3.6800   -1.9968    0.3760 C   0  0  0  0  0  0  0  0  0  0  0  0
   -0.5059    1.1935   -1.5764 C   0  0  0  0  0  0  0  0  0  0  0  0
    4.9290    1.0207    0.8554 C   0  0  0  0  0  0  0  0  0  0  0  0
    5.8361   -1.2803   -0.7509 C   0  0  0  0  0  0  0  0  0  0  0  0
    4.1475    1.3108   -1.5268 C   0  0  0  0  0  0  0  0  0  0  0  0
   -3.5546    2.6927    0.5826 C   0  0  0  0  0  0  0  0  0  0  0  0
    6.4060    0.7539    0.5954 C   0  0  0  0  0  0  0  0  0  0  0  0
   -5.1215    0.4305   -1.3122 C   0  0  0  0  0  0  0  0  0  0  0  0
    6.6660   -0.7327    0.4029 C   0  0  2  0  0  0  0  0  0  0  0  0
   -6.1858   -0.6643   -1.2839 C   0  0  0  0  0  0  0  0  0  0  0  0
   -5.7738   -0.8506    1.1792 C   0  0  0  0  0  0  0  0  0  0  0  0
   -6.8453   -0.7296    0.0959 C   0  0  2  0  0  0  0  0  0  0  0  0
   -7.8422   -1.8808    0.1763 C   0  0  0  0  0  0  0  0  0  0  0  0
    0.2268   -0.4594    1.4322 H   0  0  0  0  0  0  0  0  0  0  0  0
   -1.8575    1.0389    1.6334 H   0  0  0  0  0  0  0  0  0  0  0  0
    1.5933   -0.5845   -1.2825 H   0  0  0  0  0  0  0  0  0  0  0  0
    2.5531    0.4058    1.4180 H   0  0  0  0  0  0  0  0  0  0  0  0
   -2.4120   -1.1448    1.4568 H   0  0  0  0  0  0  0  0  0  0  0  0
   -0.9575   -1.5647   -1.1623 H   0  0  0  0  0  0  0  0  0  0  0  0
   -0.7569   -2.3928    0.3826 H   0  0  0  0  0  0  0  0  0  0  0  0
    0.3403    1.9289    1.7211 H   0  0  0  0  0  0  0  0  0  0  0  0
   -0.0300    3.0336    0.4063 H   0  0  0  0  0  0  0  0  0  0  0  0
    1.8910    2.3086   -0.8601 H   0  0  0  0  0  0  0  0  0  0  0  0
    2.4233    2.6997    0.7613 H   0  0  0  0  0  0  0  0  0  0  0  0
   -2.8628    1.6847   -1.1524 H   0  0  0  0  0  0  0  0  0  0  0  0
    3.8950   -1.2453   -1.5940 H   0  0  0  0  0  0  0  0  0  0  0  0
    1.8225   -2.7230   -0.4443 H   0  0  0  0  0  0  0  0  0  0  0  0
    1.7393   -2.2527    1.2412 H   0  0  0  0  0  0  0  0  0  0  0  0
    3.9802   -1.7557    1.4030 H   0  0  0  0  0  0  0  0  0  0  0  0
    4.0190   -3.0229    0.1900 H   0  0  0  0  0  0  0  0  0  0  0  0
   -0.8522    2.2096   -1.7975 H   0  0  0  0  0  0  0  0  0  0  0  0
    0.4740    1.0955   -2.0505 H   0  0  0  0  0  0  0  0  0  0  0  0
   -1.1709    0.4941   -2.0931 H   0  0  0  0  0  0  0  0  0  0  0  0
    4.6809    0.5708    1.8258 H   0  0  0  0  0  0  0  0  0  0  0  0
    4.7797    2.1008    0.9762 H   0  0  0  0  0  0  0  0  0  0  0  0
    6.0281   -2.3552   -0.8643 H   0  0  0  0  0  0  0  0  0  0  0  0
    6.1970   -0.8388   -1.6893 H   0  0  0  0  0  0  0  0  0  0  0  0
    4.0716    2.3842   -1.3229 H   0  0  0  0  0  0  0  0  0  0  0  0
    5.1258    1.1550   -1.9921 H   0  0  0  0  0  0  0  0  0  0  0  0
    3.3899    1.0499   -2.2742 H   0  0  0  0  0  0  0  0  0  0  0  0
   -3.7859    2.5188    1.6386 H   0  0  0  0  0  0  0  0  0  0  0  0
   -2.7693    3.4547    0.5368 H   0  0  0  0  0  0  0  0  0  0  0  0
   -4.4487    3.1034    0.1035 H   0  0  0  0  0  0  0  0  0  0  0  0
    6.7558    1.3187   -0.2774 H   0  0  0  0  0  0  0  0  0  0  0  0
    7.0035    1.1242    1.4378 H   0  0  0  0  0  0  0  0  0  0  0  0
   -4.6004    0.3913   -2.2759 H   0  0  0  0  0  0  0  0  0  0  0  0
   -5.6268    1.4013   -1.2408 H   0  0  0  0  0  0  0  0  0  0  0  0
    6.4406   -1.2743    1.3285 H   0  0  0  0  0  0  0  0  0  0  0  0
   -6.9385   -0.4659   -2.0559 H   0  0  0  0  0  0  0  0  0  0  0  0
   -5.7251   -1.6298   -1.5286 H   0  0  0  0  0  0  0  0  0  0  0  0
   -6.2360   -0.8001    2.1710 H   0  0  0  0  0  0  0  0  0  0  0  0
   -5.2426   -1.8081    1.1195 H   0  0  0  0  0  0  0  0  0  0  0  0
   -7.3863    0.2131    0.2525 H   0  0  0  0  0  0  0  0  0  0  0  0
    8.2008   -1.8698    0.0039 H   0  0  0  0  0  0  0  0  0  0  0  0
   -8.6198   -1.7749   -0.5874 H   0  0  0  0  0  0  0  0  0  0  0  0
   -7.3486   -2.8469    0.0254 H   0  0  0  0  0  0  0  0  0  0  0  0
   -8.3334   -1.9010    1.1548 H   0  0  0  0  0  0  0  0  0  0  0  0
  1  9  1  0  0  0  0
  1 17  1  0  0  0  0
  2 17  1  0  0  0  0
  2 28  1  0  0  0  0
  3 26  1  0  0  0  0
  3 71  1  0  0  0  0
  4  5  1  0  0  0  0
  4  6  1  0  0  0  0
  4 12  1  0  0  0  0
  4 19  1  0  0  0  0
  5  7  1  0  0  0  0
  5 11  1  0  0  0  0
  5 31  1  0  0  0  0
  6  9  1  0  0  0  0
  6 14  1  0  0  0  0
  6 32  1  0  0  0  0
  7  8  1  0  0  0  0
  7 16  1  0  0  0  0
  7 33  1  0  0  0  0
  8 10  1  0  0  0  0
  8 13  1  0  0  0  0
  8 34  1  0  0  0  0
  9 11  1  0  0  0  0
  9 35  1  0  0  0  0
 10 15  1  0  0  0  0
 10 20  1  0  0  0  0
 10 22  1  0  0  0  0
 11 36  1  0  0  0  0
 11 37  1  0  0  0  0
 12 13  1  0  0  0  0
 12 38  1  0  0  0  0
 12 39  1  0  0  0  0
 13 40  1  0  0  0  0
 13 41  1  0  0  0  0
 14 17  1  0  0  0  0
 14 23  1  0  0  0  0
 14 42  1  0  0  0  0
 15 18  1  0  0  0  0
 15 21  1  0  0  0  0
 15 43  1  0  0  0  0
 16 18  1  0  0  0  0
 16 44  1  0  0  0  0
 16 45  1  0  0  0  0
 17 25  1  0  0  0  0
 18 46  1  0  0  0  0
 18 47  1  0  0  0  0
 19 48  1  0  0  0  0
 19 49  1  0  0  0  0
 19 50  1  0  0  0  0
 20 24  1  0  0  0  0
 20 51  1  0  0  0  0
 20 52  1  0  0  0  0
 21 26  1  0  0  0  0
 21 53  1  0  0  0  0
 21 54  1  0  0  0  0
 22 55  1  0  0  0  0
 22 56  1  0  0  0  0
 22 57  1  0  0  0  0
 23 58  1  0  0  0  0
 23 59  1  0  0  0  0
 23 60  1  0  0  0  0
 24 26  1  0  0  0  0
 24 61  1  0  0  0  0
 24 62  1  0  0  0  0
 25 27  1  0  0  0  0
 25 63  1  0  0  0  0
 25 64  1  0  0  0  0
 26 65  1  0  0  0  0
 27 29  1  0  0  0  0
 27 66  1  0  0  0  0
 27 67  1  0  0  0  0
 28 29  1  0  0  0  0
 28 68  1  0  0  0  0
 28 69  1  0  0  0  0
 29 30  1  0  0  0  0
 29 70  1  0  0  0  0
 30 72  1  0  0  0  0
 30 73  1  0  0  0  0
 30 74  1  0  0  0  0
M  END
> <PUBCHEM_COMPOUND_CID>
91439

> <PUBCHEM_CONFORMER_RMSD>
0.8

> <PUBCHEM_CONFORMER_DIVERSEORDER>
1
2

> <PUBCHEM_MMFF94_PARTIAL_CHARGES>
8
1 -0.56
17 0.56
2 -0.56
26 0.28
28 0.28
3 -0.68
71 0.4
9 0.28

> <PUBCHEM_EFFECTIVE_ROTOR_COUNT>
3.2

> <PUBCHEM_PHARMACOPHORE_FEATURES>
10
1 1 acceptor
1 2 acceptor
1 3 acceptor
1 3 donor
5 1 6 9 14 17 rings
5 4 5 6 9 11 rings
6 10 15 20 21 24 26 rings
6 2 17 25 27 28 29 rings
6 4 5 7 8 12 13 rings
6 7 8 10 15 16 18 rings

> <PUBCHEM_HEAVY_ATOM_COUNT>
30

> <PUBCHEM_ATOM_DEF_STEREO_COUNT>
12

> <PUBCHEM_ATOM_UDEF_STEREO_COUNT>
0

> <PUBCHEM_BOND_DEF_STEREO_COUNT>
0

> <PUBCHEM_BOND_UDEF_STEREO_COUNT>
0

> <PUBCHEM_ISOTOPIC_ATOM_COUNT>
0

> <PUBCHEM_COMPONENT_COUNT>
1

> <PUBCHEM_CACTVS_TAUTO_COUNT>
1

> <PUBCHEM_CONFORMER_ID>
0001652F00000001

> <PUBCHEM_MMFF94_ENERGY>
115.8732

> <PUBCHEM_FEATURE_SELFOVERLAP>
51.171

> <PUBCHEM_SHAPE_FINGERPRINT>
10 15 18342746174688235792
10299344 5 17240765077354174543
106641 1 17095246899935890386
11135609 99 18264769866429384151
11315181 36 18060133245648737993
11646440 116 18187079546930011600
11719270 70 18272374178830269690
11963148 33 18202290173335528538
12166972 35 18342736303920030940
12236239 1 17458062668257610624
12516196 113 18186521007586210456
12596602 18 17530681026142229371
13073987 5 18334858363177983640
13533116 47 18260267399881913536
13685833 64 18408603651777296121
13782708 43 18271243953769936518
13862211 1 18409448089550261784
13914758 101 15195294160959794430
14170010 4 18409451349483252032
14251764 18 17894911810690485648
14849402 71 17096093463385768680
14856354 85 15213304089236710901
15183329 4 16415483761363722749
15196674 1 18337109076491647352
15461852 350 14405179556801727635
15840311 113 17489582330923963940
17349148 13 17676200269582541417
17492 89 18121499326511131018
18335252 114 11095890341025047555
18608769 82 18340206289479213747
18681886 176 18408890638004169248
19319366 153 18343025484458590474
19489759 90 15698282222644601269
19841028 212 18059018405151392834
21130935 74 18113895004665521866
21150785 3 16988843874008198063
21236236 1 18335701689140150937
21267235 1 18408318891140086898
21781051 124 18058434439801360642
22149856 69 18262223491713682193
23516275 137 15430855679610654183
23522609 53 18046312363403764825
23559900 14 18265903466679598153
23569917 315 18342171176708854266
23569943 247 17910110549586578354
23576562 1 14763764335550012742
24771750 20 18053373306459308860
3004659 81 18131634482935136464
335352 9 18412542094761442238
3383291 50 18412261714316233339
34797466 226 16950277382841053268
350125 39 18408321108076863577
3545911 37 18412265029814090322
3633792 109 18272097119153435157
4073 2 18272929380773348562
4093350 32 16081087044668941512
4325135 7 18409451392432944583
46194498 28 17775006751946136468
465052 167 18113896056995228607
484989 97 18200303321400581851
5104073 3 18338234997783532976
7226269 152 9367349236833470695

> <PUBCHEM_SHAPE_MULTIPOLES>
599.78
19.55
2.15
1.11
3.04
0.43
0.27
-7.97
-0.27
0.18
-0.2
0.43
0.2
0.11

> <PUBCHEM_SHAPE_SELFOVERLAP>
1286.174

> <PUBCHEM_SHAPE_VOLUME>
330.9

> <PUBCHEM_COORDINATE_TYPE>
2
5
10

$$$$

