12802
  -OEChem-06261207233D

 21 22  0     0  0  0  0  0  0999 V2000
   -2.2676    1.7613    0.0006 O   0  0  0  0  0  0  0  0  0  0  0  0
    0.2714   -2.0387    0.0001 N   0  0  0  0  0  0  0  0  0  0  0  0
    0.2705    0.1923    0.0005 C   0  0  0  0  0  0  0  0  0  0  0  0
    1.0946   -0.9353    0.0000 C   0  0  0  0  0  0  0  0  0  0  0  0
   -1.0741   -0.2733    0.0009 C   0  0  0  0  0  0  0  0  0  0  0  0
   -1.0411   -1.6487    0.0007 C   0  0  0  0  0  0  0  0  0  0  0  0
    0.8676    1.4685    0.0004 C   0  0  0  0  0  0  0  0  0  0  0  0
    2.4913   -0.8499   -0.0005 C   0  0  0  0  0  0  0  0  0  0  0  0
   -2.2808    0.5042   -0.0002 C   0  0  0  0  0  0  0  0  0  0  0  0
    2.2635    1.5692   -0.0003 C   0  0  0  0  0  0  0  0  0  0  0  0
    3.0610    0.4266   -0.0006 C   0  0  0  0  0  0  0  0  0  0  0  0
   -3.6561   -0.1763   -0.0016 C   0  0  0  0  0  0  0  0  0  0  0  0
    0.5906   -2.9976   -0.0002 H   0  0  0  0  0  0  0  0  0  0  0  0
   -1.8253   -2.3932    0.0005 H   0  0  0  0  0  0  0  0  0  0  0  0
    0.2683    2.3740    0.0007 H   0  0  0  0  0  0  0  0  0  0  0  0
    3.1130   -1.7389   -0.0008 H   0  0  0  0  0  0  0  0  0  0  0  0
    2.7296    2.5510   -0.0004 H   0  0  0  0  0  0  0  0  0  0  0  0
    4.1433    0.5280   -0.0011 H   0  0  0  0  0  0  0  0  0  0  0  0
   -3.7655   -0.7896    0.8966 H   0  0  0  0  0  0  0  0  0  0  0  0
   -3.7634   -0.7901   -0.8998 H   0  0  0  0  0  0  0  0  0  0  0  0
   -4.4410    0.5858   -0.0028 H   0  0  0  0  0  0  0  0  0  0  0  0
  1  9  2  0  0  0  0
  2  4  1  0  0  0  0
  2  6  1  0  0  0  0
  2 13  1  0  0  0  0
  3  4  1  0  0  0  0
  3  5  1  0  0  0  0
  3  7  2  0  0  0  0
  4  8  2  0  0  0  0
  5  6  2  0  0  0  0
  5  9  1  0  0  0  0
  6 14  1  0  0  0  0
  7 10  1  0  0  0  0
  7 15  1  0  0  0  0
  8 11  1  0  0  0  0
  8 16  1  0  0  0  0
  9 12  1  0  0  0  0
 10 11  2  0  0  0  0
 10 17  1  0  0  0  0
 11 18  1  0  0  0  0
 12 19  1  0  0  0  0
 12 20  1  0  0  0  0
 12 21  1  0  0  0  0
M  END
> <PUBCHEM_COMPOUND_CID>
12802

> <PUBCHEM_CONFORMER_RMSD>
0.4

> <PUBCHEM_CONFORMER_DIVERSEORDER>
1
3
2
4

> <PUBCHEM_MMFF94_PARTIAL_CHARGES>
17
1 -0.57
10 -0.15
11 -0.15
12 0.06
13 0.27
14 0.15
15 0.15
16 0.15
17 0.15
18 0.15
2 0.03
4 -0.15
5 -0.09
6 -0.3
7 -0.15
8 -0.15
9 0.6

> <PUBCHEM_EFFECTIVE_ROTOR_COUNT>
1

> <PUBCHEM_PHARMACOPHORE_FEATURES>
5
1 1 acceptor
1 2 cation
1 2 donor
5 2 3 4 5 6 rings
6 3 4 7 8 10 11 rings

> <PUBCHEM_HEAVY_ATOM_COUNT>
12

> <PUBCHEM_ATOM_DEF_STEREO_COUNT>
0

> <PUBCHEM_ATOM_UDEF_STEREO_COUNT>
0

> <PUBCHEM_BOND_DEF_STEREO_COUNT>
0

> <PUBCHEM_BOND_UDEF_STEREO_COUNT>
0

> <PUBCHEM_ISOTOPIC_ATOM_COUNT>
0

> <PUBCHEM_COMPONENT_COUNT>
1

> <PUBCHEM_CACTVS_TAUTO_COUNT>
5

> <PUBCHEM_CONFORMER_ID>
0000320200000001

> <PUBCHEM_MMFF94_ENERGY>
21.3433

> <PUBCHEM_FEATURE_SELFOVERLAP>
25.463

> <PUBCHEM_SHAPE_FINGERPRINT>
10608611 8 18411984654449429029
10967382 1 18410856546760162436
11471102 20 18410296947308662461
13380535 76 18410294670638606198
14144814 61 18411138043211813680
14325111 11 18410855464571043009
14897335 6 18337115549059908444
15775835 57 18335696105255138245
16945 1 18410855447327785862
17844478 74 18202272607218947625
18186145 218 18261105309446513757
193761 8 17762336916244883392
19973954 147 18267583507503402204
21028194 46 18413106160588598261
21040471 1 18410575037756029284
21501502 16 18266463096533232334
23402539 116 18261968361755180429
23402655 69 18335147513862736557
23463225 33 18342180015761000810
23552423 10 18127693716996247086
23559900 14 18262225648584148380
2748010 2 18122059806256327382
5084963 1 18186521011954861833
528886 8 18410297990816767426
53812653 166 18262242118849837368

> <PUBCHEM_SHAPE_MULTIPOLES>
236.1
4.72
1.89
0.6
1.65
0.12
0
-1.06
0
-0.13
0
-0.02
0
0

> <PUBCHEM_SHAPE_SELFOVERLAP>
516.509

> <PUBCHEM_SHAPE_VOLUME>
130

> <PUBCHEM_COORDINATE_TYPE>
2
5
10

$$$$

