19402
  -OEChem-07051213123D

 42 45  0     1  0  0  0  0  0999 V2000
    4.9628   -4.1651   -0.2403 Cl  0  0  0  0  0  0  0  0  0  0  0  0
   -0.3427    0.5320    1.5428 O   0  0  0  0  0  0  0  0  0  0  0  0
   -1.9338    1.2141   -1.9547 O   0  0  0  0  0  0  0  0  0  0  0  0
   -1.8283   -2.2804    1.2435 O   0  0  0  0  0  0  0  0  0  0  0  0
   -1.2463   -0.5259   -0.3686 C   0  0  0  0  0  0  0  0  0  0  0  0
    1.1321    0.4535   -0.3889 C   0  0  2  0  0  0  0  0  0  0  0  0
   -0.1678    0.1856    0.3742 C   0  0  0  0  0  0  0  0  0  0  0  0
   -2.2070    0.3990   -1.0937 C   0  0  0  0  0  0  0  0  0  0  0  0
   -2.1541   -1.3603    0.5172 C   0  0  0  0  0  0  0  0  0  0  0  0
   -3.5564    0.1502   -0.5846 C   0  0  0  0  0  0  0  0  0  0  0  0
   -3.5255   -0.8758    0.3549 C   0  0  0  0  0  0  0  0  0  0  0  0
    2.1040   -0.7169   -0.3509 C   0  0  0  0  0  0  0  0  0  0  0  0
    1.7814    1.7753    0.0006 C   0  0  0  0  0  0  0  0  0  0  0  0
   -4.7352    0.7797   -0.9336 C   0  0  0  0  0  0  0  0  0  0  0  0
   -4.6722   -1.3169    0.9864 C   0  0  0  0  0  0  0  0  0  0  0  0
    2.9597   -0.9085   -1.4163 C   0  0  0  0  0  0  0  0  0  0  0  0
    2.0998   -1.5522    0.7478 C   0  0  0  0  0  0  0  0  0  0  0  0
    1.4397    2.9156   -0.6964 C   0  0  0  0  0  0  0  0  0  0  0  0
    2.6904    1.7904    1.0379 C   0  0  0  0  0  0  0  0  0  0  0  0
   -5.9056    0.3486   -0.3031 C   0  0  0  0  0  0  0  0  0  0  0  0
   -5.8744   -0.6898    0.6478 C   0  0  0  0  0  0  0  0  0  0  0  0
    3.8497   -1.9820   -1.3819 C   0  0  0  0  0  0  0  0  0  0  0  0
    2.9898   -2.6256    0.7823 C   0  0  0  0  0  0  0  0  0  0  0  0
    2.0341    4.1259   -0.3398 C   0  0  0  0  0  0  0  0  0  0  0  0
    3.2846    3.0010    1.3944 C   0  0  0  0  0  0  0  0  0  0  0  0
    3.8649   -2.8405   -0.2826 C   0  0  0  0  0  0  0  0  0  0  0  0
    2.9564    4.1688    0.7056 C   0  0  0  0  0  0  0  0  0  0  0  0
   -0.8170   -1.2145   -1.1058 H   0  0  0  0  0  0  0  0  0  0  0  0
    0.8253    0.5558   -1.4417 H   0  0  0  0  0  0  0  0  0  0  0  0
   -4.7627    1.5776   -1.6668 H   0  0  0  0  0  0  0  0  0  0  0  0
   -4.6515   -2.1174    1.7169 H   0  0  0  0  0  0  0  0  0  0  0  0
    2.9553   -0.2445   -2.2755 H   0  0  0  0  0  0  0  0  0  0  0  0
    1.4425   -1.4057    1.5980 H   0  0  0  0  0  0  0  0  0  0  0  0
    0.7205    2.8931   -1.5095 H   0  0  0  0  0  0  0  0  0  0  0  0
    2.9535    0.9080    1.6096 H   0  0  0  0  0  0  0  0  0  0  0  0
   -6.8541    0.8187   -0.5496 H   0  0  0  0  0  0  0  0  0  0  0  0
   -6.7992   -1.0072    1.1225 H   0  0  0  0  0  0  0  0  0  0  0  0
    4.5259   -2.1371   -2.2187 H   0  0  0  0  0  0  0  0  0  0  0  0
    2.9927   -3.2849    1.6466 H   0  0  0  0  0  0  0  0  0  0  0  0
    1.7778    5.0354   -0.8753 H   0  0  0  0  0  0  0  0  0  0  0  0
    3.9990    3.0358    2.2118 H   0  0  0  0  0  0  0  0  0  0  0  0
    3.4179    5.1116    0.9844 H   0  0  0  0  0  0  0  0  0  0  0  0
  1 26  1  0  0  0  0
  2  7  2  0  0  0  0
  3  8  2  0  0  0  0
  4  9  2  0  0  0  0
  5  7  1  0  0  0  0
  5  8  1  0  0  0  0
  5  9  1  0  0  0  0
  5 28  1  0  0  0  0
  6  7  1  0  0  0  0
  6 12  1  0  0  0  0
  6 13  1  0  0  0  0
  6 29  1  0  0  0  0
  8 10  1  0  0  0  0
  9 11  1  0  0  0  0
 10 11  1  0  0  0  0
 10 14  2  0  0  0  0
 11 15  2  0  0  0  0
 12 16  2  0  0  0  0
 12 17  1  0  0  0  0
 13 18  2  0  0  0  0
 13 19  1  0  0  0  0
 14 20  1  0  0  0  0
 14 30  1  0  0  0  0
 15 21  1  0  0  0  0
 15 31  1  0  0  0  0
 16 22  1  0  0  0  0
 16 32  1  0  0  0  0
 17 23  2  0  0  0  0
 17 33  1  0  0  0  0
 18 24  1  0  0  0  0
 18 34  1  0  0  0  0
 19 25  2  0  0  0  0
 19 35  1  0  0  0  0
 20 21  2  0  0  0  0
 20 36  1  0  0  0  0
 21 37  1  0  0  0  0
 22 26  2  0  0  0  0
 22 38  1  0  0  0  0
 23 26  1  0  0  0  0
 23 39  1  0  0  0  0
 24 27  2  0  0  0  0
 24 40  1  0  0  0  0
 25 27  1  0  0  0  0
 25 41  1  0  0  0  0
 27 42  1  0  0  0  0
M  END
> <PUBCHEM_COMPOUND_CID>
19402

> <PUBCHEM_CONFORMER_RMSD>
0.8

> <PUBCHEM_CONFORMER_DIVERSEORDER>
2
41
45
14
42
31
47
3
40
17
19
12
38
48
9
23
33
39
27
22
15
21
37
7
46
43
35
11
25
30
18
16
28
36
20
10
29
4
24
1
26
44
34
6
32
8
13
5

> <PUBCHEM_MMFF94_PARTIAL_CHARGES>
40
1 -0.18
10 0.09
11 0.09
12 -0.14
13 -0.14
14 -0.15
15 -0.15
16 -0.15
17 -0.15
18 -0.15
19 -0.15
2 -0.57
20 -0.15
21 -0.15
22 -0.15
23 -0.15
24 -0.15
25 -0.15
26 0.18
27 -0.15
3 -0.57
30 0.15
31 0.15
32 0.15
33 0.15
34 0.15
35 0.15
36 0.15
37 0.15
38 0.15
39 0.15
4 -0.57
40 0.15
41 0.15
42 0.15
5 0.18
6 0.35
7 0.45
8 0.42
9 0.42

> <PUBCHEM_EFFECTIVE_ROTOR_COUNT>
4.2

> <PUBCHEM_PHARMACOPHORE_FEATURES>
8
1 2 acceptor
1 3 acceptor
1 4 acceptor
1 5 anion
5 5 8 9 10 11 rings
6 10 11 14 15 20 21 rings
6 12 16 17 22 23 26 rings
6 13 18 19 24 25 27 rings

> <PUBCHEM_HEAVY_ATOM_COUNT>
27

> <PUBCHEM_ATOM_DEF_STEREO_COUNT>
0

> <PUBCHEM_ATOM_UDEF_STEREO_COUNT>
1

> <PUBCHEM_BOND_DEF_STEREO_COUNT>
0

> <PUBCHEM_BOND_UDEF_STEREO_COUNT>
0

> <PUBCHEM_ISOTOPIC_ATOM_COUNT>
0

> <PUBCHEM_COMPONENT_COUNT>
1

> <PUBCHEM_CACTVS_TAUTO_COUNT>
5

> <PUBCHEM_CONFORMER_ID>
00004BCA00000002

> <PUBCHEM_MMFF94_ENERGY>
76.5718

> <PUBCHEM_FEATURE_SELFOVERLAP>
40.676

> <PUBCHEM_SHAPE_FINGERPRINT>
10369192 42 17981326694658161236
10411042 1 18265333005097349174
11475781 23 5328190927939382889
12107183 9 18117829122458605193
12516196 113 18337392768130853854
12549972 3 17988065721635639299
12788726 201 17692819602569319130
133893 2 18190437438372276352
13533116 47 18410286991853908643
13544592 145 18272086115262644963
13590594 115 18194108840430411209
13757389 114 11234438839764460890
13782708 43 18412256226102383131
13955234 65 18335698282887901768
14178342 30 17769372717269206427
14347329 18 16413523461434163733
14866123 147 17617939574724439491
14950920 106 18120620683802672427
17349148 13 17530677745325648455
17844677 252 18408881850490655297
17980427 23 17604705706638417504
1813 80 17968650657139905374
1979834 28 18127690431431239917
20369508 70 18411135861548113126
20832881 197 18268988851041725347
21033648 29 17846224354351549589
21049683 271 18341322354174290108
21120745 212 17902211632529783060
2132832 1 17895468236620493545
21859007 373 17344941652940325733
22149856 69 17983270683768176403
22182313 1 17845671291117191421
23175994 123 18264772232291245239
23559900 14 18412546513734053019
244849 19 18199491980619030869
249057 25 17531241791112668937
283562 15 17909261726715104866
3004659 81 17774434027201458774
3411729 13 18338804403642687304
3421961 26 18410012152153335878
437815 12 18265612267670069543
4409770 3 17476919524898180380
495365 180 18260831449541673627
5104073 3 18341608193043378731
5265222 85 17765140675966913116
5385378 56 18335421210453493456
6086070 43 18195821876074061677
6371380 46 18127979818154246485
6679774 75 18127143983580434074
7495541 125 18342454867803461951
77188 2 18264768934362880188
81228 2 17684082866137274216
9709674 26 18342175506145956611
9841814 1 18411422838583444106
9981440 41 17905896881087337304

> <PUBCHEM_SHAPE_MULTIPOLES>
539.91
11.11
4.84
1.36
13.8
2.89
0.12
-6.25
0.11
-10.32
-0.66
-0.08
0.14
2.09

> <PUBCHEM_SHAPE_SELFOVERLAP>
1197.711

> <PUBCHEM_SHAPE_VOLUME>
288.6

> <PUBCHEM_COORDINATE_TYPE>
2
5
10

$$$$

