11341
  -OEChem-06261205333D

 14 14  0     0  0  0  0  0  0999 V2000
    0.7019   -2.5607    0.0007 Br  0  0  0  0  0  0  0  0  0  0  0  0
    2.1209    1.6342    0.0002 O   0  5  0  0  0  0  0  0  0  0  0  0
    2.3918   -0.5443   -0.0002 O   0  0  0  0  0  0  0  0  0  0  0  0
    1.6563    0.4703   -0.0002 N   0  3  0  0  0  0  0  0  0  0  0  0
    0.2439    0.2948   -0.0003 C   0  0  0  0  0  0  0  0  0  0  0  0
   -0.3398   -0.9722   -0.0005 C   0  0  0  0  0  0  0  0  0  0  0  0
   -0.5615    1.4336    0.0001 C   0  0  0  0  0  0  0  0  0  0  0  0
   -1.7289   -1.1001   -0.0003 C   0  0  0  0  0  0  0  0  0  0  0  0
   -1.9506    1.3056    0.0003 C   0  0  0  0  0  0  0  0  0  0  0  0
   -2.5342    0.0388    0.0001 C   0  0  0  0  0  0  0  0  0  0  0  0
   -0.1494    2.4396    0.0004 H   0  0  0  0  0  0  0  0  0  0  0  0
   -2.2026   -2.0785   -0.0002 H   0  0  0  0  0  0  0  0  0  0  0  0
   -2.5782    2.1920    0.0006 H   0  0  0  0  0  0  0  0  0  0  0  0
   -3.6158   -0.0606    0.0002 H   0  0  0  0  0  0  0  0  0  0  0  0
  1  6  1  0  0  0  0
  2  4  1  0  0  0  0
  3  4  2  0  0  0  0
  4  5  1  0  0  0  0
  5  6  1  0  0  0  0
  5  7  2  0  0  0  0
  6  8  2  0  0  0  0
  7  9  1  0  0  0  0
  7 11  1  0  0  0  0
  8 10  1  0  0  0  0
  8 12  1  0  0  0  0
  9 10  2  0  0  0  0
  9 13  1  0  0  0  0
 10 14  1  0  0  0  0
M  CHG  2   2  -1   4   1
M  END
> <PUBCHEM_COMPOUND_CID>
11341

> <PUBCHEM_CONFORMER_RMSD>
0.4

> <PUBCHEM_CONFORMER_DIVERSEORDER>
1

> <PUBCHEM_MMFF94_PARTIAL_CHARGES>
14
1 -0.11
10 -0.15
11 0.15
12 0.15
13 0.15
14 0.15
2 -0.52
3 -0.52
4 0.91
5 0.13
6 0.11
7 -0.15
8 -0.15
9 -0.15

> <PUBCHEM_EFFECTIVE_ROTOR_COUNT>
1

> <PUBCHEM_PHARMACOPHORE_FEATURES>
5
1 1 hydrophobe
1 2 acceptor
1 2 anion
1 3 acceptor
6 5 6 7 8 9 10 rings

> <PUBCHEM_HEAVY_ATOM_COUNT>
10

> <PUBCHEM_ATOM_DEF_STEREO_COUNT>
0

> <PUBCHEM_ATOM_UDEF_STEREO_COUNT>
0

> <PUBCHEM_BOND_DEF_STEREO_COUNT>
0

> <PUBCHEM_BOND_UDEF_STEREO_COUNT>
0

> <PUBCHEM_ISOTOPIC_ATOM_COUNT>
0

> <PUBCHEM_COMPONENT_COUNT>
1

> <PUBCHEM_CACTVS_TAUTO_COUNT>
1

> <PUBCHEM_CONFORMER_ID>
00002C4D00000001

> <PUBCHEM_MMFF94_ENERGY>
38.0986

> <PUBCHEM_FEATURE_SELFOVERLAP>
25.453

> <PUBCHEM_SHAPE_FINGERPRINT>
12897270 3 18411420617900560181
16945 1 18338797939289352679
193761 8 18050286161265142533
20871998 184 17829882136142964774
21040471 1 18338516309662157856
23552423 10 18340764944027086215
241688 4 17329711431824015419
2748010 2 18339641131431976039
369184 2 18335703806178914329
5084963 1 18186801378682343018
66348 1 18411699885058521138

> <PUBCHEM_SHAPE_MULTIPOLES>
195.02
3.12
2.32
0.6
0.21
0.65
0
-0.34
0
-1.01
0
0.03
0.06
0

> <PUBCHEM_SHAPE_SELFOVERLAP>
395.408

> <PUBCHEM_SHAPE_VOLUME>
117.3

> <PUBCHEM_COORDINATE_TYPE>
2
5
10

$$$$

