441993
  -OEChem-07051212563D

 44 47  0     0  0  0  0  0  0999 V2000
    2.4101    1.4074   -0.1780 O   0  0  0  0  0  0  0  0  0  0  0  0
   -2.3772    1.1361   -0.1392 O   0  0  0  0  0  0  0  0  0  0  0  0
    0.2543   -2.8830    0.0040 O   0  0  0  0  0  0  0  0  0  0  0  0
   -3.4498   -1.2145   -0.0229 O   0  0  0  0  0  0  0  0  0  0  0  0
   -2.5001    2.5549    0.0738 C   0  0  0  0  0  0  0  0  0  0  0  0
    3.7028    0.8215    0.0673 C   0  0  0  0  0  0  0  0  0  0  0  0
    0.0443    1.2914   -0.1409 C   0  0  0  0  0  0  0  0  0  0  0  0
    1.2853    0.6252   -0.1203 C   0  0  0  0  0  0  0  0  0  0  0  0
   -1.1430    0.5460   -0.1001 C   0  0  0  0  0  0  0  0  0  0  0  0
    1.3438   -0.7739   -0.0729 C   0  0  0  0  0  0  0  0  0  0  0  0
   -1.0906   -0.8578   -0.0548 C   0  0  0  0  0  0  0  0  0  0  0  0
    0.1472   -1.5112   -0.0407 C   0  0  0  0  0  0  0  0  0  0  0  0
   -1.2274    3.3362   -0.1082 C   0  0  0  0  0  0  0  0  0  0  0  0
   -0.0349    2.7482   -0.2170 C   0  0  0  0  0  0  0  0  0  0  0  0
    3.7478   -0.6813   -0.0027 C   0  0  0  0  0  0  0  0  0  0  0  0
    2.6472   -1.4314   -0.0749 C   0  0  0  0  0  0  0  0  0  0  0  0
   -3.0366    2.7576    1.4954 C   0  0  0  0  0  0  0  0  0  0  0  0
   -3.5403    3.0401   -0.9432 C   0  0  0  0  0  0  0  0  0  0  0  0
    4.1544    1.2888    1.4556 C   0  0  0  0  0  0  0  0  0  0  0  0
    4.6354    1.4044   -1.0012 C   0  0  0  0  0  0  0  0  0  0  0  0
   -2.3206   -1.6862   -0.0187 C   0  0  0  0  0  0  0  0  0  0  0  0
   -0.8928   -3.6500    0.0344 C   0  0  0  0  0  0  0  0  0  0  0  0
   -2.1322   -3.1469    0.0258 C   0  0  0  0  0  0  0  0  0  0  0  0
   -0.6271   -5.1216    0.0794 C   0  0  0  0  0  0  0  0  0  0  0  0
   -1.2839    4.4214   -0.1336 H   0  0  0  0  0  0  0  0  0  0  0  0
    0.8625    3.3428   -0.3380 H   0  0  0  0  0  0  0  0  0  0  0  0
    4.7178   -1.1715    0.0228 H   0  0  0  0  0  0  0  0  0  0  0  0
    2.7186   -2.5116   -0.1159 H   0  0  0  0  0  0  0  0  0  0  0  0
   -2.3279    2.3765    2.2406 H   0  0  0  0  0  0  0  0  0  0  0  0
   -3.2290    3.8137    1.7140 H   0  0  0  0  0  0  0  0  0  0  0  0
   -3.9681    2.1988    1.6439 H   0  0  0  0  0  0  0  0  0  0  0  0
   -3.7596    4.1075   -0.8301 H   0  0  0  0  0  0  0  0  0  0  0  0
   -3.1939    2.8665   -1.9693 H   0  0  0  0  0  0  0  0  0  0  0  0
   -4.4790    2.4834   -0.8374 H   0  0  0  0  0  0  0  0  0  0  0  0
    5.1671    0.9455    1.6943 H   0  0  0  0  0  0  0  0  0  0  0  0
    4.1357    2.3829    1.5240 H   0  0  0  0  0  0  0  0  0  0  0  0
    3.4748    0.9208    2.2336 H   0  0  0  0  0  0  0  0  0  0  0  0
    5.6707    1.0708   -0.8701 H   0  0  0  0  0  0  0  0  0  0  0  0
    4.3055    1.1163   -2.0067 H   0  0  0  0  0  0  0  0  0  0  0  0
    4.6216    2.5005   -0.9756 H   0  0  0  0  0  0  0  0  0  0  0  0
   -3.0152   -3.7748    0.0510 H   0  0  0  0  0  0  0  0  0  0  0  0
   -0.0458   -5.3732    0.9723 H   0  0  0  0  0  0  0  0  0  0  0  0
   -0.0559   -5.4293   -0.8024 H   0  0  0  0  0  0  0  0  0  0  0  0
   -1.5511   -5.7086    0.1032 H   0  0  0  0  0  0  0  0  0  0  0  0
  1  6  1  0  0  0  0
  1  8  1  0  0  0  0
  2  5  1  0  0  0  0
  2  9  1  0  0  0  0
  3 12  1  0  0  0  0
  3 22  1  0  0  0  0
  4 21  2  0  0  0  0
  5 13  1  0  0  0  0
  5 17  1  0  0  0  0
  5 18  1  0  0  0  0
  6 15  1  0  0  0  0
  6 19  1  0  0  0  0
  6 20  1  0  0  0  0
  7  8  2  0  0  0  0
  7  9  1  0  0  0  0
  7 14  1  0  0  0  0
  8 10  1  0  0  0  0
  9 11  2  0  0  0  0
 10 12  2  0  0  0  0
 10 16  1  0  0  0  0
 11 12  1  0  0  0  0
 11 21  1  0  0  0  0
 13 14  2  0  0  0  0
 13 25  1  0  0  0  0
 14 26  1  0  0  0  0
 15 16  2  0  0  0  0
 15 27  1  0  0  0  0
 16 28  1  0  0  0  0
 17 29  1  0  0  0  0
 17 30  1  0  0  0  0
 17 31  1  0  0  0  0
 18 32  1  0  0  0  0
 18 33  1  0  0  0  0
 18 34  1  0  0  0  0
 19 35  1  0  0  0  0
 19 36  1  0  0  0  0
 19 37  1  0  0  0  0
 20 38  1  0  0  0  0
 20 39  1  0  0  0  0
 20 40  1  0  0  0  0
 21 23  1  0  0  0  0
 22 23  2  0  0  0  0
 22 24  1  0  0  0  0
 23 41  1  0  0  0  0
 24 42  1  0  0  0  0
 24 43  1  0  0  0  0
 24 44  1  0  0  0  0
M  END
> <PUBCHEM_COMPOUND_CID>
441993

> <PUBCHEM_CONFORMER_RMSD>
0.6

> <PUBCHEM_CONFORMER_DIVERSEORDER>
1

> <PUBCHEM_MMFF94_PARTIAL_CHARGES>
25
1 -0.36
10 0.03
11 0.09
12 0.08
13 -0.29
14 -0.18
15 -0.29
16 -0.18
2 -0.36
21 0.47
22 -0.06
23 -0.14
24 0.14
25 0.15
26 0.15
27 0.15
28 0.15
3 -0.16
4 -0.57
41 0.15
5 0.42
6 0.42
7 0.03
8 0.08
9 0.08

> <PUBCHEM_EFFECTIVE_ROTOR_COUNT>
0.8

> <PUBCHEM_PHARMACOPHORE_FEATURES>
10
1 1 acceptor
1 2 acceptor
1 3 acceptor
1 4 acceptor
3 5 17 18 hydrophobe
3 6 19 20 hydrophobe
6 1 6 8 10 15 16 rings
6 2 5 7 9 13 14 rings
6 3 11 12 21 22 23 rings
6 7 8 9 10 11 12 rings

> <PUBCHEM_HEAVY_ATOM_COUNT>
24

> <PUBCHEM_ATOM_DEF_STEREO_COUNT>
0

> <PUBCHEM_ATOM_UDEF_STEREO_COUNT>
0

> <PUBCHEM_BOND_DEF_STEREO_COUNT>
0

> <PUBCHEM_BOND_UDEF_STEREO_COUNT>
0

> <PUBCHEM_ISOTOPIC_ATOM_COUNT>
0

> <PUBCHEM_COMPONENT_COUNT>
1

> <PUBCHEM_CACTVS_TAUTO_COUNT>
3

> <PUBCHEM_CONFORMER_ID>
0006BE8900000001

> <PUBCHEM_MMFF94_ENERGY>
79.9798

> <PUBCHEM_FEATURE_SELFOVERLAP>
50.838

> <PUBCHEM_SHAPE_FINGERPRINT>
10319926 262 18191048754696294992
10411042 1 17690559685367891918
10967382 1 16032953388151010863
1100329 8 18050562946438369939
11115154 58 17316503716959553559
11578080 2 5460009365936468121
12173636 292 18410580625229199228
12553582 1 18123185693326033182
12788726 201 18127976312985926186
13140716 1 18265051512460208552
13583140 156 16773517792820051088
138480 1 16969706079040601878
14081887 123 18191600657159964810
14178342 30 18339939117017424704
14790565 3 18410283740421961825
15042514 8 18195525896112123042
15230672 131 18268422629299703430
16087824 20 18339920395545475703
16752209 62 18411428284237776884
16945 1 18266739069651464630
19591789 44 18194113238381216175
20510252 161 18334859406928850673
21524375 3 18044382853044118956
2334 1 18410855464428410396
23419403 2 17314810502837717881
23557571 272 18188760666097237684
23558518 356 18343301461987607370
23559900 14 18187643627145906244
238 59 17192947531479211693
2748010 2 18339069492738628919
283562 15 18408610249474953067
3091708 16 9270371211187471122
3178227 256 17833811043513067794
335352 9 18194964037180362199
350125 39 18338509862905924514
352729 6 18266742565585947520
4409770 3 18269850734850287919
458136 41 17977367653754447440
5104073 3 18410296930535014920
6438718 38 18040149604702241925
7097593 13 17985288476108634098
7364860 26 17473827706510668647
81228 2 18340204072848281880
84936 182 17756437310618303432
9709674 26 18334294262790388630
9981440 41 18268159819152881553

> <PUBCHEM_SHAPE_MULTIPOLES>
470.43
6.59
5.69
0.88
5.2
5.97
-0.2
-5.15
-0.16
-4.41
-0.09
0.12
-0.59
-0.01

> <PUBCHEM_SHAPE_SELFOVERLAP>
1045.021

> <PUBCHEM_SHAPE_VOLUME>
252.9

> <PUBCHEM_COORDINATE_TYPE>
2
5
10

$$$$

