8289
  -OEChem-07051213043D

 38 40  0     0  0  0  0  0  0999 V2000
    0.0024    0.0004   -0.2987 P   0  0  0  0  0  0  0  0  0  0  0  0
   -1.0165    1.0554    0.3924 O   0  0  0  0  0  0  0  0  0  0  0  0
    1.4210    0.3487    0.3944 O   0  0  0  0  0  0  0  0  0  0  0  0
   -0.4058   -1.4025    0.3939 O   0  0  0  0  0  0  0  0  0  0  0  0
    0.0026    0.0003   -1.8018 O   0  0  0  0  0  0  0  0  0  0  0  0
   -2.3668    1.0678    0.2240 C   0  0  0  0  0  0  0  0  0  0  0  0
    2.1115    1.5180    0.2242 C   0  0  0  0  0  0  0  0  0  0  0  0
    0.2612   -2.5852    0.2239 C   0  0  0  0  0  0  0  0  0  0  0  0
   -2.9762    0.1199   -0.5980 C   0  0  0  0  0  0  0  0  0  0  0  0
    1.5927    2.5123   -0.5987 C   0  0  0  0  0  0  0  0  0  0  0  0
    1.3822   -2.6332   -0.5985 C   0  0  0  0  0  0  0  0  0  0  0  0
   -3.1417    2.0291    0.8732 C   0  0  0  0  0  0  0  0  0  0  0  0
    3.3271    1.7021    0.8754 C   0  0  0  0  0  0  0  0  0  0  0  0
   -0.1876   -3.7299    0.8748 C   0  0  0  0  0  0  0  0  0  0  0  0
   -4.3602    0.1332   -0.7712 C   0  0  0  0  0  0  0  0  0  0  0  0
    2.2970    3.7037   -0.7726 C   0  0  0  0  0  0  0  0  0  0  0  0
    2.0615   -3.8390   -0.7723 C   0  0  0  0  0  0  0  0  0  0  0  0
   -4.5257    2.0423    0.7001 C   0  0  0  0  0  0  0  0  0  0  0  0
    4.0312    2.8935    0.7015 C   0  0  0  0  0  0  0  0  0  0  0  0
    0.4920   -4.9357    0.7010 C   0  0  0  0  0  0  0  0  0  0  0  0
   -5.1349    1.0944   -0.1221 C   0  0  0  0  0  0  0  0  0  0  0  0
    3.5162    3.8944   -0.1225 C   0  0  0  0  0  0  0  0  0  0  0  0
    1.6165   -4.9901   -0.1225 C   0  0  0  0  0  0  0  0  0  0  0  0
   -2.4171   -0.6468   -1.1221 H   0  0  0  0  0  0  0  0  0  0  0  0
    0.6497    2.4113   -1.1230 H   0  0  0  0  0  0  0  0  0  0  0  0
    1.7666   -1.7661   -1.1227 H   0  0  0  0  0  0  0  0  0  0  0  0
   -2.6725    2.7701    1.5147 H   0  0  0  0  0  0  0  0  0  0  0  0
    3.7319    0.9252    1.5177 H   0  0  0  0  0  0  0  0  0  0  0  0
   -1.0631   -3.6919    1.5167 H   0  0  0  0  0  0  0  0  0  0  0  0
   -4.8352   -0.6049   -1.4109 H   0  0  0  0  0  0  0  0  0  0  0  0
    1.8962    4.4836   -1.4136 H   0  0  0  0  0  0  0  0  0  0  0  0
    2.9374   -3.8820   -1.4131 H   0  0  0  0  0  0  0  0  0  0  0  0
   -5.1291    2.7907    1.2055 H   0  0  0  0  0  0  0  0  0  0  0  0
    4.9806    3.0420    1.2076 H   0  0  0  0  0  0  0  0  0  0  0  0
    0.1455   -5.8321    1.2070 H   0  0  0  0  0  0  0  0  0  0  0  0
   -6.2125    1.1046   -0.2568 H   0  0  0  0  0  0  0  0  0  0  0  0
    4.0645    4.8221   -0.2577 H   0  0  0  0  0  0  0  0  0  0  0  0
    2.1456   -5.9288   -0.2577 H   0  0  0  0  0  0  0  0  0  0  0  0
  1  2  1  0  0  0  0
  1  3  1  0  0  0  0
  1  4  1  0  0  0  0
  1  5  2  0  0  0  0
  2  6  1  0  0  0  0
  3  7  1  0  0  0  0
  4  8  1  0  0  0  0
  6  9  2  0  0  0  0
  6 12  1  0  0  0  0
  7 10  2  0  0  0  0
  7 13  1  0  0  0  0
  8 11  2  0  0  0  0
  8 14  1  0  0  0  0
  9 15  1  0  0  0  0
  9 24  1  0  0  0  0
 10 16  1  0  0  0  0
 10 25  1  0  0  0  0
 11 17  1  0  0  0  0
 11 26  1  0  0  0  0
 12 18  2  0  0  0  0
 12 27  1  0  0  0  0
 13 19  2  0  0  0  0
 13 28  1  0  0  0  0
 14 20  2  0  0  0  0
 14 29  1  0  0  0  0
 15 21  2  0  0  0  0
 15 30  1  0  0  0  0
 16 22  2  0  0  0  0
 16 31  1  0  0  0  0
 17 23  2  0  0  0  0
 17 32  1  0  0  0  0
 18 21  1  0  0  0  0
 18 33  1  0  0  0  0
 19 22  1  0  0  0  0
 19 34  1  0  0  0  0
 20 23  1  0  0  0  0
 20 35  1  0  0  0  0
 21 36  1  0  0  0  0
 22 37  1  0  0  0  0
 23 38  1  0  0  0  0
M  END
> <PUBCHEM_COMPOUND_CID>
8289

> <PUBCHEM_CONFORMER_RMSD>
0.8

> <PUBCHEM_CONFORMER_DIVERSEORDER>
1
4
16
18
8
17
2
3
15
10
12
7
14
19
11
9
5
13
6

> <PUBCHEM_MMFF94_PARTIAL_CHARGES>
38
1 1.51
10 -0.15
11 -0.15
12 -0.15
13 -0.15
14 -0.15
15 -0.15
16 -0.15
17 -0.15
18 -0.15
19 -0.15
2 -0.35
20 -0.15
21 -0.15
22 -0.15
23 -0.15
24 0.15
25 0.15
26 0.15
27 0.15
28 0.15
29 0.15
3 -0.35
30 0.15
31 0.15
32 0.15
33 0.15
34 0.15
35 0.15
36 0.15
37 0.15
38 0.15
4 -0.35
5 -0.7
6 0.08
7 0.08
8 0.08
9 -0.15

> <PUBCHEM_EFFECTIVE_ROTOR_COUNT>
6

> <PUBCHEM_PHARMACOPHORE_FEATURES>
4
1 5 acceptor
6 6 9 12 15 18 21 rings
6 7 10 13 16 19 22 rings
6 8 11 14 17 20 23 rings

> <PUBCHEM_HEAVY_ATOM_COUNT>
23

> <PUBCHEM_ATOM_DEF_STEREO_COUNT>
0

> <PUBCHEM_ATOM_UDEF_STEREO_COUNT>
0

> <PUBCHEM_BOND_DEF_STEREO_COUNT>
0

> <PUBCHEM_BOND_UDEF_STEREO_COUNT>
0

> <PUBCHEM_ISOTOPIC_ATOM_COUNT>
0

> <PUBCHEM_COMPONENT_COUNT>
1

> <PUBCHEM_CACTVS_TAUTO_COUNT>
1

> <PUBCHEM_CONFORMER_ID>
0000206100000001

> <PUBCHEM_MMFF94_ENERGY>
61.4808

> <PUBCHEM_FEATURE_SELFOVERLAP>
20.297

> <PUBCHEM_SHAPE_FINGERPRINT>
10090160 65 18337402543534143165
10411042 1 17689998259990502739
11045515 52 17618498130868424763
11056379 131 17546998638399285332
12553582 1 17690847087415236819
12643181 29 14662730715297980823
12788726 201 17758977921159995678
13004483 165 17187006389033461210
13052359 8 17979079284157815173
13134695 92 17979913044963654943
13533116 47 18268140041635532905
13590594 115 17474094879716536145
138480 1 18122625230005338195
13955234 65 18338508755268488809
14251757 5 17547298800330048055
15042514 8 17547004126760691634
15230672 131 18341320095612206300
15664445 248 17754727552831050966
17980427 26 18335990847269769653
1813 80 17684927299420276047
18785283 64 18412825819451683498
19319366 153 18334301925149175173
20028762 73 18334870402171703006
20600515 1 16886385036591079609
20739085 24 18342183314444025456
21033650 10 17606371325074266600
21049683 271 17982147204929885205
21524375 3 18187083914653775389
2255824 54 18336262465618197599
23366157 5 18338794645213070973
23558518 356 18263647255907892534
23559900 14 18195533825407280345
23598288 3 17695629554826008856
3091708 16 9188750060668584152
352729 6 18194683657266921528
4409770 3 17764031263985241055
474 4 18410575080790715457
532947 4 18337103575065815510
633830 44 18260828189719966821
6443956 14 18124031497009148084
7164475 11 17260465873746351204
77188 2 17762055836378595356
79837 15 18266459793513289528
9981440 41 18339364050618422353

> <PUBCHEM_SHAPE_MULTIPOLES>
453.7
7.57
7.56
1.04
8.52
9.83
-0.14
-9.84
0.53
-8.48
0.52
0
0
0

> <PUBCHEM_SHAPE_SELFOVERLAP>
966.364

> <PUBCHEM_SHAPE_VOLUME>
250

> <PUBCHEM_COORDINATE_TYPE>
2
5
10

$$$$

