91532
  -OEChem-07051213043D

 49 51  0     1  0  0  0  0  0999 V2000
    3.4099   -1.3144    1.4796 P   0  0  2  0  0  0  0  0  0  0  0  0
    4.2016    1.3643    0.5523 P   0  0  1  0  0  0  0  0  0  0  0  0
    2.5195    2.4346   -1.9414 P   0  0  0  0  0  0  0  0  0  0  0  0
   -0.7674   -2.2087    0.8123 O   0  0  0  0  0  0  0  0  0  0  0  0
   -1.3243   -4.2923   -1.3432 O   0  0  0  0  0  0  0  0  0  0  0  0
   -2.4482   -2.0368   -2.3604 O   0  0  0  0  0  0  0  0  0  0  0  0
    2.0071   -2.0854    1.2427 O   0  0  0  0  0  0  0  0  0  0  0  0
    3.1875    0.1347    0.8012 O   0  0  0  0  0  0  0  0  0  0  0  0
    4.4450   -2.0454    0.4740 O   0  0  0  0  0  0  0  0  0  0  0  0
    3.8644   -1.2639    2.9094 O   0  0  0  0  0  0  0  0  0  0  0  0
    4.4269    1.9763    2.0303 O   0  0  0  0  0  0  0  0  0  0  0  0
    5.4559    1.0245   -0.1953 O   0  0  0  0  0  0  0  0  0  0  0  0
    1.6911    1.0481   -1.8962 O   0  0  0  0  0  0  0  0  0  0  0  0
    3.8364    2.0615   -2.7994 O   0  0  0  0  0  0  0  0  0  0  0  0
    1.7524    3.6275   -2.4272 O   0  0  0  0  0  0  0  0  0  0  0  0
   -2.2343   -0.3995    0.3593 N   0  0  0  0  0  0  0  0  0  0  0  0
   -2.0229    1.7004    1.0832 N   0  0  0  0  0  0  0  0  0  0  0  0
   -4.6236   -0.4485   -0.0776 N   0  0  0  0  0  0  0  0  0  0  0  0
   -5.6653    1.6970    0.4397 N   0  0  0  0  0  0  0  0  0  0  0  0
   -4.4181    3.5643    1.2673 N   0  0  0  0  0  0  0  0  0  0  0  0
   -0.4995   -3.1274   -1.3675 C   0  0  1  0  0  0  0  0  0  0  0  0
   -1.3730   -1.8915   -1.4552 C   0  0  2  0  0  0  0  0  0  0  0  0
    0.1601   -2.9632   -0.0018 C   0  0  1  0  0  0  0  0  0  0  0  0
   -1.8549   -1.7590   -0.0185 C   0  0  1  0  0  0  0  0  0  0  0  0
    1.4747   -2.1984   -0.0657 C   0  0  0  0  0  0  0  0  0  0  0  0
   -3.4872    0.1455    0.3165 C   0  0  0  0  0  0  0  0  0  0  0  0
   -1.3903    0.5744    0.8272 C   0  0  0  0  0  0  0  0  0  0  0  0
   -3.3342    1.4465    0.7684 C   0  0  0  0  0  0  0  0  0  0  0  0
   -4.4811    2.2323    0.8228 C   0  0  0  0  0  0  0  0  0  0  0  0
   -5.6629    0.4088    0.0195 C   0  0  0  0  0  0  0  0  0  0  0  0
    3.1546    2.5938   -0.2566 C   0  0  0  0  0  0  0  0  0  0  0  0
    0.1986   -3.2337   -2.2019 H   0  0  0  0  0  0  0  0  0  0  0  0
   -0.7760   -1.0207   -1.7521 H   0  0  0  0  0  0  0  0  0  0  0  0
    0.3129   -3.9240    0.5031 H   0  0  0  0  0  0  0  0  0  0  0  0
   -2.7242   -2.3943    0.1899 H   0  0  0  0  0  0  0  0  0  0  0  0
    1.3176   -1.1904   -0.4578 H   0  0  0  0  0  0  0  0  0  0  0  0
    2.1911   -2.7235   -0.7049 H   0  0  0  0  0  0  0  0  0  0  0  0
   -1.8488   -4.2933   -0.5254 H   0  0  0  0  0  0  0  0  0  0  0  0
   -2.0686   -2.2341   -3.2335 H   0  0  0  0  0  0  0  0  0  0  0  0
   -0.3284    0.4139    0.9560 H   0  0  0  0  0  0  0  0  0  0  0  0
    2.2853    2.7530    0.3915 H   0  0  0  0  0  0  0  0  0  0  0  0
    3.7269    3.5285   -0.2425 H   0  0  0  0  0  0  0  0  0  0  0  0
   -6.6277    0.0131   -0.2796 H   0  0  0  0  0  0  0  0  0  0  0  0
    4.8374   -2.9043    0.7396 H   0  0  0  0  0  0  0  0  0  0  0  0
   -3.5356    3.9664    1.5528 H   0  0  0  0  0  0  0  0  0  0  0  0
   -5.2652    4.1154    1.2968 H   0  0  0  0  0  0  0  0  0  0  0  0
    4.9986    1.4915    2.6630 H   0  0  0  0  0  0  0  0  0  0  0  0
    1.2136    0.7520   -2.7002 H   0  0  0  0  0  0  0  0  0  0  0  0
    3.7556    1.9529   -3.7709 H   0  0  0  0  0  0  0  0  0  0  0  0
  1  7  1  0  0  0  0
  1  8  1  0  0  0  0
  1  9  1  0  0  0  0
  1 10  2  0  0  0  0
  2  8  1  0  0  0  0
  2 11  1  0  0  0  0
  2 12  2  0  0  0  0
  2 31  1  0  0  0  0
  3 13  1  0  0  0  0
  3 14  1  0  0  0  0
  3 15  2  0  0  0  0
  3 31  1  0  0  0  0
  4 23  1  0  0  0  0
  4 24  1  0  0  0  0
  5 21  1  0  0  0  0
  5 38  1  0  0  0  0
  6 22  1  0  0  0  0
  6 39  1  0  0  0  0
  7 25  1  0  0  0  0
  9 44  1  0  0  0  0
 11 47  1  0  0  0  0
 13 48  1  0  0  0  0
 14 49  1  0  0  0  0
 16 24  1  0  0  0  0
 16 26  1  0  0  0  0
 16 27  1  0  0  0  0
 17 27  2  0  0  0  0
 17 28  1  0  0  0  0
 18 26  2  0  0  0  0
 18 30  1  0  0  0  0
 19 29  1  0  0  0  0
 19 30  2  0  0  0  0
 20 29  1  0  0  0  0
 20 45  1  0  0  0  0
 20 46  1  0  0  0  0
 21 22  1  0  0  0  0
 21 23  1  0  0  0  0
 21 32  1  0  0  0  0
 22 24  1  0  0  0  0
 22 33  1  0  0  0  0
 23 25  1  0  0  0  0
 23 34  1  0  0  0  0
 24 35  1  0  0  0  0
 25 36  1  0  0  0  0
 25 37  1  0  0  0  0
 26 28  1  0  0  0  0
 27 40  1  0  0  0  0
 28 29  2  0  0  0  0
 30 43  1  0  0  0  0
 31 41  1  0  0  0  0
 31 42  1  0  0  0  0
M  END
> <PUBCHEM_COMPOUND_CID>
91532

> <PUBCHEM_CONFORMER_RMSD>
1.2

> <PUBCHEM_CONFORMER_DIVERSEORDER>
1
424
422
67
97
349
33
108
283
313
89
69
249
238
49
427
309
164
336
196
93
366
26
137
437
431
428
343
119
251
368
176
203
449
165
200
363
331
304
252
195
402
91
153
125
274
141
340
95
320
360
114
128
272
377
454
73
353
171
305
147
13
136
55
82
350
262
46
85
75
237
342
415
257
117
32
25
413
227
63
319
359
122
211
151
225
83
161
207
88
369
133
45
317
115
445
178
416
440
263
183
441
358
70
410
198
322
430
2
105
357
236
10
344
215
453
345
393
285
77
31
278
235
51
80
84
24
421
154
130
134
159
451
135
175
18
148
190
192
303
221
314
326
385
429
186
299
92
295
310
243
405
376
391
306
392
271
351
208
102
64
327
173
396
374
56
126
364
318
408
456
328
289
459
166
247
404
29
423
144
384
21
298
270
420
407
224
204
42
411
182
279
205
308
15
94
386
267
380
334
242
7
17
432
36
245
419
330
50
212
118
179
389
301
287
72
116
321
294
169
460
311
332
282
290
189
293
401
361
280
315
269
367
378
40
333
248
223
123
325
348
188
418
109
346
145
81
59
4
193
372
240
103
113
276
256
184
412
120
371
288
162
168
228
14
448
265
297
39
219
65
241
426
246
291
111
446
397
110
323
112
160
20
143
356
34
156
74
22
201
127
447
206
450
58
19
277
138
158
307
146
433
436
3
38
172
100
442
398
53
253
395
194
98
394
107
352
37
231
226
400
209
187
129
155
35
216
163
181
444
230
191
234
66
78
47
379
71
174
409
124
222
12
142
261
139
335
370
210
54
57
425
140
390
434
232
202
170
104
229
157
152
9
99
30
362
266
28
388
455
438
239
324
199
180
214
399
375
121
62
106
43
185
255
61
452
286
244
457
213
5
101
177
86
268
381
8
23
254
435
16
414
197
220
68
60
439
461
79
417
264
258
281
458
96
337
260
132
90
44
150
355
387
339
27
52
217
131
329
218
48
41
373
250
383
6
347
316
302
167
354
296
406
403
284
275
149
341
11
443
292
259
76
338
87
273
233
382
300
312
365

> <PUBCHEM_MMFF94_PARTIAL_CHARGES>
40
1 1.51
10 -0.7
11 -0.77
12 -0.7
13 -0.77
14 -0.77
15 -0.7
16 0.05
17 -0.57
18 -0.57
19 -0.62
2 1.24
20 -0.9
21 0.28
22 0.28
23 0.28
24 0.54
25 0.28
26 0.11
27 0.04
28 0.23
29 0.41
3 1.24
30 0.47
38 0.4
39 0.4
4 -0.56
40 0.15
43 0.15
44 0.5
45 0.4
46 0.4
47 0.5
48 0.5
49 0.5
5 -0.68
6 -0.68
7 -0.55
8 -0.54
9 -0.77

> <PUBCHEM_EFFECTIVE_ROTOR_COUNT>
9

> <PUBCHEM_PHARMACOPHORE_FEATURES>
21
1 10 acceptor
1 11 acceptor
1 12 acceptor
1 13 acceptor
1 14 acceptor
1 15 acceptor
1 20 cation
1 20 donor
1 4 acceptor
1 5 acceptor
1 5 donor
1 6 acceptor
1 6 donor
1 9 acceptor
3 16 17 27 cation
3 16 18 26 cation
3 18 19 30 cation
4 3 13 14 15 anion
5 16 17 26 27 28 rings
5 4 21 22 23 24 rings
6 18 19 26 28 29 30 rings

> <PUBCHEM_HEAVY_ATOM_COUNT>
31

> <PUBCHEM_ATOM_DEF_STEREO_COUNT>
4

> <PUBCHEM_ATOM_UDEF_STEREO_COUNT>
0

> <PUBCHEM_BOND_DEF_STEREO_COUNT>
0

> <PUBCHEM_BOND_UDEF_STEREO_COUNT>
0

> <PUBCHEM_ISOTOPIC_ATOM_COUNT>
0

> <PUBCHEM_COMPONENT_COUNT>
1

> <PUBCHEM_CACTVS_TAUTO_COUNT>
3

> <PUBCHEM_CONFORMER_ID>
0001658C00000001

> <PUBCHEM_MMFF94_ENERGY>
-5.5601

> <PUBCHEM_FEATURE_SELFOVERLAP>
107.238

> <PUBCHEM_SHAPE_FINGERPRINT>
11513181 2 17967818262418795430
12422481 6 17986676068025051613
12633257 1 16845575275335951216
12788726 201 17906161855032090703
13965767 371 18268168572776116184
1454969 45 18187091638038701543
14705955 166 14907641002848759381
14790565 3 18114467850750575201
14840074 17 18272932738904699068
15297060 5 18040990718371182130
17980427 23 18195246839860805023
20739085 24 18202290234054965250
23559900 14 17827912155510054783
245318 6 18270949198453568949
338550 245 18410854343505528940
38570 142 18201146694896824898
474 4 18131349687505458330
474144 1 18272644636640839853
7064713 232 18262249909709392568
7288768 16 18059861610458129002
9981440 41 18337098021873529739

> <PUBCHEM_SHAPE_MULTIPOLES>
554.18
11.36
4.79
2.23
3.3
1.03
-0.81
-8.39
3.46
-0.06
-1.8
-2.59
-0.62
-3.93

> <PUBCHEM_SHAPE_SELFOVERLAP>
1123.915

> <PUBCHEM_SHAPE_VOLUME>
325.2

> <PUBCHEM_COORDINATE_TYPE>
2
5
10

$$$$

