46173922
  -OEChem-07051213102D

 42 44  0     1  0  0  0  0  0999 V2000
    2.4788    1.5211    0.0000 O   0  0  0  0  0  0  0  0  0  0  0  0
    6.6757    1.5211    0.0000 O   0  0  0  0  0  0  0  0  0  0  0  0
    3.0291   -2.1726    0.0000 O   0  0  0  0  0  0  0  0  0  0  0  0
    4.5772   -0.1102    0.0000 C   0  0  3  0  0  0  0  0  0  0  0  0
    4.6841    1.0665    0.0000 C   0  0  0  0  0  0  0  0  0  0  0  0
    4.0772    2.0804    0.0000 C   0  0  1  0  0  0  0  0  0  0  0  0
    5.4782    0.3236    0.0000 C   0  0  1  0  0  0  0  0  0  0  0  0
    3.6763    0.3236    0.0000 C   0  0  0  0  0  0  0  0  0  0  0  0
    3.4538    1.2986    0.0000 C   0  0  1  0  0  0  0  0  0  0  0  0
    4.4413   -1.0950    0.0000 C   0  0  0  0  0  0  0  0  0  0  0  0
    5.0772    2.0804    0.0000 C   0  0  0  0  0  0  0  0  0  0  0  0
    5.7007    1.2986    0.0000 C   0  0  2  0  0  0  0  0  0  0  0  0
    3.4630   -1.2716    0.0000 C   0  0  1  0  0  0  0  0  0  0  0  0
    2.9912   -0.3966    0.0000 C   0  0  0  0  0  0  0  0  0  0  0  0
    5.5796    1.7880    0.0000 C   0  0  0  0  0  0  0  0  0  0  0  0
    5.8040    0.8050    0.0000 C   0  0  0  0  0  0  0  0  0  0  0  0
    6.2600   -0.2998    0.0000 C   0  0  0  0  0  0  0  0  0  0  0  0
    2.0000   -0.2641    0.0000 C   0  0  0  0  0  0  0  0  0  0  0  0
    3.8881    2.9091    0.0000 H   0  0  0  0  0  0  0  0  0  0  0  0
    5.4088   -0.2925    0.0000 H   0  0  0  0  0  0  0  0  0  0  0  0
    3.2490    1.8838    0.0000 H   0  0  0  0  0  0  0  0  0  0  0  0
    4.4867   -1.7133    0.0000 H   0  0  0  0  0  0  0  0  0  0  0  0
    5.0609   -1.1148    0.0000 H   0  0  0  0  0  0  0  0  0  0  0  0
    5.6358    2.3494    0.0000 H   0  0  0  0  0  0  0  0  0  0  0  0
    4.9393    2.6849    0.0000 H   0  0  0  0  0  0  0  0  0  0  0  0
    5.9055    1.8838    0.0000 H   0  0  0  0  0  0  0  0  0  0  0  0
    2.8432   -1.2858    0.0000 H   0  0  0  0  0  0  0  0  0  0  0  0
    5.9686    1.3052    0.0000 H   0  0  0  0  0  0  0  0  0  0  0  0
    6.0624    2.1770    0.0000 H   0  0  0  0  0  0  0  0  0  0  0  0
    5.1906    2.2708    0.0000 H   0  0  0  0  0  0  0  0  0  0  0  0
    5.6630    0.2013    0.0000 H   0  0  0  0  0  0  0  0  0  0  0  0
    6.4077    0.6641    0.0000 H   0  0  0  0  0  0  0  0  0  0  0  0
    5.9450    1.4088    0.0000 H   0  0  0  0  0  0  0  0  0  0  0  0
    5.8735   -0.7846    0.0000 H   0  0  0  0  0  0  0  0  0  0  0  0
    6.7448   -0.6864    0.0000 H   0  0  0  0  0  0  0  0  0  0  0  0
    6.6466    0.1849    0.0000 H   0  0  0  0  0  0  0  0  0  0  0  0
    2.2961    2.1136    0.0000 H   0  0  0  0  0  0  0  0  0  0  0  0
    2.0822    0.3504    0.0000 H   0  0  0  0  0  0  0  0  0  0  0  0
    1.3855   -0.1820    0.0000 H   0  0  0  0  0  0  0  0  0  0  0  0
    1.9178   -0.8787    0.0000 H   0  0  0  0  0  0  0  0  0  0  0  0
    6.8584    2.1136    0.0000 H   0  0  0  0  0  0  0  0  0  0  0  0
    3.3784   -2.6849    0.0000 H   0  0  0  0  0  0  0  0  0  0  0  0
  9  1  1  1  0  0  0
  1 37  1  0  0  0  0
 12  2  1  6  0  0  0
  2 41  1  0  0  0  0
 13  3  1  6  0  0  0
  3 42  1  0  0  0  0
  4  5  1  0  0  0  0
  4  7  1  0  0  0  0
  4  8  1  0  0  0  0
  4 10  1  0  0  0  0
  5  6  1  0  0  0  0
  5 15  1  0  0  0  0
  5 16  1  0  0  0  0
  6  9  1  0  0  0  0
  6 11  1  0  0  0  0
  6 19  1  6  0  0  0
  7 12  1  0  0  0  0
  7 17  1  1  0  0  0
  7 20  1  0  0  0  0
  8  9  1  0  0  0  0
  8 14  2  0  0  0  0
  9 21  1  0  0  0  0
 10 13  1  0  0  0  0
 10 22  1  0  0  0  0
 10 23  1  0  0  0  0
 11 12  1  0  0  0  0
 11 24  1  0  0  0  0
 11 25  1  0  0  0  0
 12 26  1  0  0  0  0
 13 14  1  0  0  0  0
 13 27  1  0  0  0  0
 14 18  1  0  0  0  0
 15 28  1  0  0  0  0
 15 29  1  0  0  0  0
 15 30  1  0  0  0  0
 16 31  1  0  0  0  0
 16 32  1  0  0  0  0
 16 33  1  0  0  0  0
 17 34  1  0  0  0  0
 17 35  1  0  0  0  0
 17 36  1  0  0  0  0
 18 38  1  0  0  0  0
 18 39  1  0  0  0  0
 18 40  1  0  0  0  0
M  END
> <PUBCHEM_COMPOUND_CID>
46173922

> <PUBCHEM_COMPOUND_CANONICALIZED>
1

> <PUBCHEM_CACTVS_COMPLEXITY>
426

> <PUBCHEM_CACTVS_HBOND_ACCEPTOR>
3

> <PUBCHEM_CACTVS_HBOND_DONOR>
3

> <PUBCHEM_CACTVS_ROTATABLE_BOND>
0

> <PUBCHEM_CACTVS_SUBSKEYS>
AAADceBwMAAAAAAAAAAAAAAAAAAAAYIAAAAwAAAABgAQAACAAAAAGgAACAAADxSggAICAAAAAgCAAgBAAAAAAAAgAAAACAAAAAgAFAIAAAAAUAAEgAAIEAPA4PQPgAAAAAAAAADAAAYAADAAAYAADAAAAA==

> <PUBCHEM_IUPAC_INCHI>
InChI=1S/C15H24O3/c1-7-11(17)6-15-8(2)10(16)5-9(14(15,3)4)13(18)12(7)15/h8-11,13,16-18H,5-6H2,1-4H3/t8-,9-,10+,11+,13+,15?/m1/s1

> <PUBCHEM_IUPAC_INCHIKEY>
VHGXIMBEBNQFKD-FVBIHALLSA-N

> <PUBCHEM_XLOGP3_AA>
0.6

> <PUBCHEM_EXACT_MASS>
252.172545

> <PUBCHEM_MOLECULAR_FORMULA>
C15H24O3

> <PUBCHEM_MOLECULAR_WEIGHT>
252.34926

> <PUBCHEM_OPENEYE_CAN_SMILES>
CC1C(CC2C(C3=C(C(CC13C2(C)C)O)C)O)O

> <PUBCHEM_OPENEYE_ISO_SMILES>
C[C@@H]1[C@H](C[C@@H]2[C@@H](C3=C([C@H](CC13C2(C)C)O)C)O)O

> <PUBCHEM_CACTVS_TPSA>
60.7

> <PUBCHEM_MONOISOTOPIC_WEIGHT>
252.172545

> <PUBCHEM_TOTAL_CHARGE>
0

> <PUBCHEM_HEAVY_ATOM_COUNT>
18

> <PUBCHEM_ATOM_DEF_STEREO_COUNT>
5

> <PUBCHEM_ATOM_UDEF_STEREO_COUNT>
1

> <PUBCHEM_BOND_DEF_STEREO_COUNT>
0

> <PUBCHEM_BOND_UDEF_STEREO_COUNT>
0

> <PUBCHEM_ISOTOPIC_ATOM_COUNT>
0

> <PUBCHEM_COMPONENT_COUNT>
1

> <PUBCHEM_CACTVS_TAUTO_COUNT>
1

> <PUBCHEM_COORDINATE_TYPE>
1
5
255

> <PUBCHEM_BONDANNOTATIONS>
9  1  5
12  2  6
13  3  6
4  5  3
6  19  6
7  17  5

$$$$

