17395877
  -OEChem-06241222523D

 39 41  0     0  0  0  0  0  0999 V2000
    0.2688    0.2041   -0.0904 O   0  0  0  0  0  0  0  0  0  0  0  0
    5.4446   -1.2745   -1.3482 O   0  0  0  0  0  0  0  0  0  0  0  0
    6.4791    0.3593    0.0900 O   0  0  0  0  0  0  0  0  0  0  0  0
   -1.3666    2.4043   -0.5717 O   0  0  0  0  0  0  0  0  0  0  0  0
   -5.7137   -1.5829   -0.2518 O   0  0  0  0  0  0  0  0  0  0  0  0
   -6.0969    0.5800    0.4370 O   0  0  0  0  0  0  0  0  0  0  0  0
    2.4715   -0.3674    0.6012 C   0  0  0  0  0  0  0  0  0  0  0  0
    4.5618   -0.7270   -0.4689 C   0  0  0  0  0  0  0  0  0  0  0  0
    1.0168   -0.6657    0.7499 C   0  0  0  0  0  0  0  0  0  0  0  0
    5.1526    0.2058    0.3524 C   0  0  0  0  0  0  0  0  0  0  0  0
    3.2209   -1.0365   -0.3694 C   0  0  0  0  0  0  0  0  0  0  0  0
    3.0752    0.5856    1.4404 C   0  0  0  0  0  0  0  0  0  0  0  0
    4.4352    0.8805    1.3186 C   0  0  0  0  0  0  0  0  0  0  0  0
   -1.0953    0.0847   -0.0445 C   0  0  0  0  0  0  0  0  0  0  0  0
    6.6571   -0.5811   -0.9888 C   0  0  0  0  0  0  0  0  0  0  0  0
   -1.9121    1.1894   -0.2854 C   0  0  0  0  0  0  0  0  0  0  0  0
   -1.6661   -1.1542    0.2472 C   0  0  0  0  0  0  0  0  0  0  0  0
   -3.8704   -0.1837    0.0570 C   0  0  0  0  0  0  0  0  0  0  0  0
   -3.2997    1.0552   -0.2348 C   0  0  0  0  0  0  0  0  0  0  0  0
   -3.0536   -1.2884    0.2981 C   0  0  0  0  0  0  0  0  0  0  0  0
   -5.3170   -0.3241    0.1090 C   0  0  0  0  0  0  0  0  0  0  0  0
   -2.2711    3.4822   -0.8053 C   0  0  0  0  0  0  0  0  0  0  0  0
   -7.1210   -1.8456   -0.2415 C   0  0  0  0  0  0  0  0  0  0  0  0
    0.8795   -1.7159    0.4689 H   0  0  0  0  0  0  0  0  0  0  0  0
    0.7091   -0.5472    1.7972 H   0  0  0  0  0  0  0  0  0  0  0  0
    2.7709   -1.7729   -1.0267 H   0  0  0  0  0  0  0  0  0  0  0  0
    2.4867    1.1051    2.1928 H   0  0  0  0  0  0  0  0  0  0  0  0
    4.9043    1.6149    1.9634 H   0  0  0  0  0  0  0  0  0  0  0  0
    7.0262   -0.0408   -1.8681 H   0  0  0  0  0  0  0  0  0  0  0  0
    7.4085   -1.3207   -0.6892 H   0  0  0  0  0  0  0  0  0  0  0  0
   -1.0877   -2.0534    0.4235 H   0  0  0  0  0  0  0  0  0  0  0  0
   -3.9811    1.8792   -0.4184 H   0  0  0  0  0  0  0  0  0  0  0  0
   -3.4702   -2.2639    0.5351 H   0  0  0  0  0  0  0  0  0  0  0  0
   -2.8914    3.3045   -1.6904 H   0  0  0  0  0  0  0  0  0  0  0  0
   -2.8674    3.7096    0.0849 H   0  0  0  0  0  0  0  0  0  0  0  0
   -1.6656    4.3700   -1.0161 H   0  0  0  0  0  0  0  0  0  0  0  0
   -7.5214   -1.7142    0.7681 H   0  0  0  0  0  0  0  0  0  0  0  0
   -7.6326   -1.1866   -0.9490 H   0  0  0  0  0  0  0  0  0  0  0  0
   -7.2761   -2.8827   -0.5501 H   0  0  0  0  0  0  0  0  0  0  0  0
  1  9  1  0  0  0  0
  1 14  1  0  0  0  0
  2  8  1  0  0  0  0
  2 15  1  0  0  0  0
  3 10  1  0  0  0  0
  3 15  1  0  0  0  0
  4 16  1  0  0  0  0
  4 22  1  0  0  0  0
  5 21  1  0  0  0  0
  5 23  1  0  0  0  0
  6 21  2  0  0  0  0
  7  9  1  0  0  0  0
  7 11  2  0  0  0  0
  7 12  1  0  0  0  0
  8 10  2  0  0  0  0
  8 11  1  0  0  0  0
  9 24  1  0  0  0  0
  9 25  1  0  0  0  0
 10 13  1  0  0  0  0
 11 26  1  0  0  0  0
 12 13  2  0  0  0  0
 12 27  1  0  0  0  0
 13 28  1  0  0  0  0
 14 16  2  0  0  0  0
 14 17  1  0  0  0  0
 15 29  1  0  0  0  0
 15 30  1  0  0  0  0
 16 19  1  0  0  0  0
 17 20  2  0  0  0  0
 17 31  1  0  0  0  0
 18 19  2  0  0  0  0
 18 20  1  0  0  0  0
 18 21  1  0  0  0  0
 19 32  1  0  0  0  0
 20 33  1  0  0  0  0
 22 34  1  0  0  0  0
 22 35  1  0  0  0  0
 22 36  1  0  0  0  0
 23 37  1  0  0  0  0
 23 38  1  0  0  0  0
 23 39  1  0  0  0  0
M  END
> <PUBCHEM_COMPOUND_CID>
17395877

> <PUBCHEM_CONFORMER_RMSD>
0.8

> <PUBCHEM_CONFORMER_DIVERSEORDER>
15
134
48
44
93
26
182
106
171
87
110
120
4
104
64
20
129
133
13
141
88
43
149
107
153
57
159
127
121
162
173
8
101
178
62
47
16
157
5
109
186
102
12
169
51
11
148
122
75
31
2
89
124
41
114
66
34
78
3
50
84
58
140
111
22
99
150
25
67
63
167
113
164
184
72
37
70
14
163
144
152
77
60
98
172
28
29
119
68
92
175
90
151
86
125
59
73
161
187
103
69
177
170
71
83
56
10
132
39
9
100
79
176
23
137
81
96
1
7
138
35
131
19
95
165
17
32
36
185
116
54
181
21
42
156
115
76
53
158
18
38
97
174
180
24
49
105
65
55
160
123
128
91
168
74
146
118
179
154
40
145
6
147
126
52
108
143
136
61
112
27
80
33
117
94
155
30
135
130
82
85
142
45
166
139
46
183

> <PUBCHEM_MMFF94_PARTIAL_CHARGES>
29
1 -0.36
10 0.08
11 -0.15
12 -0.15
13 -0.15
14 0.08
15 0.56
16 0.08
17 -0.15
18 0.09
19 -0.15
2 -0.36
20 -0.15
21 0.63
22 0.28
23 0.28
26 0.15
27 0.15
28 0.15
3 -0.36
31 0.15
32 0.15
33 0.15
4 -0.36
5 -0.43
6 -0.57
7 -0.14
8 0.08
9 0.42

> <PUBCHEM_EFFECTIVE_ROTOR_COUNT>
6.6

> <PUBCHEM_PHARMACOPHORE_FEATURES>
8
1 1 acceptor
1 2 acceptor
1 3 acceptor
1 4 acceptor
1 6 acceptor
5 2 3 8 10 15 rings
6 14 16 17 18 19 20 rings
6 7 8 10 11 12 13 rings

> <PUBCHEM_HEAVY_ATOM_COUNT>
23

> <PUBCHEM_ATOM_DEF_STEREO_COUNT>
0

> <PUBCHEM_ATOM_UDEF_STEREO_COUNT>
0

> <PUBCHEM_BOND_DEF_STEREO_COUNT>
0

> <PUBCHEM_BOND_UDEF_STEREO_COUNT>
0

> <PUBCHEM_ISOTOPIC_ATOM_COUNT>
0

> <PUBCHEM_COMPONENT_COUNT>
1

> <PUBCHEM_CACTVS_TAUTO_COUNT>
1

> <PUBCHEM_CONFORMER_ID>
010970A50000000F

> <PUBCHEM_MMFF94_ENERGY>
82.1305

> <PUBCHEM_FEATURE_SELFOVERLAP>
40.755

> <PUBCHEM_SHAPE_FINGERPRINT>
10366900 7 18060700593458617680
10595046 47 18201437017368839778
10670039 82 18059292171267649564
10968037 39 18202001019351904271
11056379 131 18341894147101474093
11059845 2 17265569162662081568
11405975 8 7925614623159227246
11524674 6 16153709808525426255
12107183 9 17266394921420965752
12166972 35 18040150686876206488
12236239 1 16917072182757355266
12390115 104 18265048227227666545
12403259 415 18187092779750844792
12516196 113 18412265008797968849
12730499 353 18113618980708970578
12788726 201 18059862800327353217
12916748 109 18343021108176215328
13288520 33 18408886218646546551
13402501 40 18259702302718877798
13617811 41 18201716245465810023
13668630 136 17168136854393921014
13673619 4 18186518795641149409
13685833 64 17603581924467046914
13782708 43 18113340829340790454
14341114 176 17748827388694126033
14347332 77 18340774861233400642
14350574 20 17967531281414751682
14933364 13 18040151812331269227
15131766 46 15649052568262932873
15849732 13 18334298631131136831
17844677 252 17894343380559521608
19427546 20 18060139886259112813
20645477 70 17458340892920277942
21033648 29 17968394423807468528
21033650 10 17912902145352861228
21150785 3 15626226784881216139
21267235 1 18340764850461114715
21315759 40 17275109448988325946
21792961 116 18187917422873806174
22122407 14 14620503558297867182
221357 26 18333450954525620112
2297311 6 18410852174599733573
23081809 10 17274831284977628755
23402539 116 18410299108078054575
23557571 272 18337386136474183860
23559900 14 18409170973986488304
2747138 104 18271238336115750545
283562 15 18271810176762282961
300161 21 14261352435986758274
3004659 81 17917993841355260901
335352 9 18343025489681096077
3411729 13 7131843099352364746
34797466 226 18335132073660977292
3545911 37 18408604764516847058
4073 2 18263364698826679042
46194498 28 18333167259330587196
465052 167 17022897961234215894
497634 4 18113893896737799161
5104073 3 18263654033598115192
5281201 14 18260546745382766788
542803 24 16917349242602715538
5486654 2 18060138730506643699
7237137 82 17846506967172749605

> <PUBCHEM_SHAPE_MULTIPOLES>
438.11
17.87
2.11
1.01
1.45
1.94
0.09
-6.75
-2.23
-2.98
-0.64
1.33
0.08
1.2

> <PUBCHEM_SHAPE_SELFOVERLAP>
952.773

> <PUBCHEM_SHAPE_VOLUME>
240.8

> <PUBCHEM_COORDINATE_TYPE>
2
5
10

$$$$

