223997
  -OEChem-07051212503D

 46 49  0     1  0  0  0  0  0999 V2000
   -0.1311    2.7033   -0.3100 O   0  0  0  0  0  0  0  0  0  0  0  0
   -4.9610    0.8696    0.9085 O   0  0  0  0  0  0  0  0  0  0  0  0
    5.5750   -0.3301    1.0296 O   0  0  0  0  0  0  0  0  0  0  0  0
   -0.6209   -0.8757   -0.3683 C   0  0  1  0  0  0  0  0  0  0  0  0
   -2.0094   -0.8549    0.2785 C   0  0  1  0  0  0  0  0  0  0  0  0
    0.2076    0.3241    0.1897 C   0  0  1  0  0  0  0  0  0  0  0  0
   -2.7758    0.4384   -0.0686 C   0  0  2  0  0  0  0  0  0  0  0  0
    1.6739    0.3774   -0.3829 C   0  0  2  0  0  0  0  0  0  0  0  0
    0.1074   -2.1946   -0.0895 C   0  0  0  0  0  0  0  0  0  0  0  0
   -2.0489    1.6046    0.5806 C   0  0  0  0  0  0  0  0  0  0  0  0
   -3.0023   -1.9713   -0.0287 C   0  0  0  0  0  0  0  0  0  0  0  0
   -0.6079    1.6389    0.0811 C   0  0  0  0  0  0  0  0  0  0  0  0
    2.3203   -1.0122   -0.2509 C   0  0  0  0  0  0  0  0  0  0  0  0
    1.4974   -2.1928   -0.7096 C   0  0  0  0  0  0  0  0  0  0  0  0
   -4.1196    0.0652    0.5306 C   0  0  0  0  0  0  0  0  0  0  0  0
   -4.3098   -1.4405    0.5746 C   0  0  0  0  0  0  0  0  0  0  0  0
    2.4948    1.4115    0.4442 C   0  0  0  0  0  0  0  0  0  0  0  0
   -3.0103    0.7049   -1.5667 C   0  0  0  0  0  0  0  0  0  0  0  0
    1.7007    0.7680   -1.8780 C   0  0  0  0  0  0  0  0  0  0  0  0
    3.9991    1.2948    0.2524 C   0  0  0  0  0  0  0  0  0  0  0  0
    3.5614   -1.2261    0.2178 C   0  0  0  0  0  0  0  0  0  0  0  0
    4.4596   -0.1027    0.5656 C   0  0  0  0  0  0  0  0  0  0  0  0
   -0.7333   -0.7773   -1.4539 H   0  0  0  0  0  0  0  0  0  0  0  0
   -1.8536   -0.8902    1.3708 H   0  0  0  0  0  0  0  0  0  0  0  0
    0.3018    0.1650    1.2764 H   0  0  0  0  0  0  0  0  0  0  0  0
   -0.4596   -3.0357   -0.5048 H   0  0  0  0  0  0  0  0  0  0  0  0
    0.1836   -2.3644    0.9923 H   0  0  0  0  0  0  0  0  0  0  0  0
   -2.0327    1.5218    1.6736 H   0  0  0  0  0  0  0  0  0  0  0  0
   -2.5380    2.5550    0.3378 H   0  0  0  0  0  0  0  0  0  0  0  0
   -2.7193   -2.9244    0.4289 H   0  0  0  0  0  0  0  0  0  0  0  0
   -3.1046   -2.1369   -1.1066 H   0  0  0  0  0  0  0  0  0  0  0  0
    1.4124   -2.1644   -1.8029 H   0  0  0  0  0  0  0  0  0  0  0  0
    1.9904   -3.1420   -0.4660 H   0  0  0  0  0  0  0  0  0  0  0  0
   -4.4177   -1.7525    1.6173 H   0  0  0  0  0  0  0  0  0  0  0  0
   -5.1775   -1.7441   -0.0148 H   0  0  0  0  0  0  0  0  0  0  0  0
    2.2777    1.2783    1.5133 H   0  0  0  0  0  0  0  0  0  0  0  0
    2.2034    2.4374    0.1964 H   0  0  0  0  0  0  0  0  0  0  0  0
   -3.5301   -0.1216   -2.0623 H   0  0  0  0  0  0  0  0  0  0  0  0
   -3.6416    1.5921   -1.6998 H   0  0  0  0  0  0  0  0  0  0  0  0
   -2.0790    0.8863   -2.1114 H   0  0  0  0  0  0  0  0  0  0  0  0
    1.0391    0.1400   -2.4827 H   0  0  0  0  0  0  0  0  0  0  0  0
    1.3960    1.8067   -2.0361 H   0  0  0  0  0  0  0  0  0  0  0  0
    2.7069    0.6660   -2.3012 H   0  0  0  0  0  0  0  0  0  0  0  0
    4.5027    1.9877    0.9357 H   0  0  0  0  0  0  0  0  0  0  0  0
    4.3003    1.5450   -0.7696 H   0  0  0  0  0  0  0  0  0  0  0  0
    3.9764   -2.2247    0.3064 H   0  0  0  0  0  0  0  0  0  0  0  0
  1 12  2  0  0  0  0
  2 15  2  0  0  0  0
  3 22  2  0  0  0  0
  4  5  1  0  0  0  0
  4  6  1  0  0  0  0
  4  9  1  0  0  0  0
  4 23  1  0  0  0  0
  5  7  1  0  0  0  0
  5 11  1  0  0  0  0
  5 24  1  0  0  0  0
  6  8  1  0  0  0  0
  6 12  1  0  0  0  0
  6 25  1  0  0  0  0
  7 10  1  0  0  0  0
  7 15  1  0  0  0  0
  7 18  1  0  0  0  0
  8 13  1  0  0  0  0
  8 17  1  0  0  0  0
  8 19  1  0  0  0  0
  9 14  1  0  0  0  0
  9 26  1  0  0  0  0
  9 27  1  0  0  0  0
 10 12  1  0  0  0  0
 10 28  1  0  0  0  0
 10 29  1  0  0  0  0
 11 16  1  0  0  0  0
 11 30  1  0  0  0  0
 11 31  1  0  0  0  0
 13 14  1  0  0  0  0
 13 21  2  0  0  0  0
 14 32  1  0  0  0  0
 14 33  1  0  0  0  0
 15 16  1  0  0  0  0
 16 34  1  0  0  0  0
 16 35  1  0  0  0  0
 17 20  1  0  0  0  0
 17 36  1  0  0  0  0
 17 37  1  0  0  0  0
 18 38  1  0  0  0  0
 18 39  1  0  0  0  0
 18 40  1  0  0  0  0
 19 41  1  0  0  0  0
 19 42  1  0  0  0  0
 19 43  1  0  0  0  0
 20 22  1  0  0  0  0
 20 44  1  0  0  0  0
 20 45  1  0  0  0  0
 21 22  1  0  0  0  0
 21 46  1  0  0  0  0
M  END
> <PUBCHEM_COMPOUND_CID>
223997

> <PUBCHEM_CONFORMER_RMSD>
0.6

> <PUBCHEM_CONFORMER_DIVERSEORDER>
1

> <PUBCHEM_MMFF94_PARTIAL_CHARGES>
16
1 -0.57
10 0.06
12 0.45
13 -0.28
14 0.14
15 0.45
16 0.06
2 -0.57
20 0.06
21 -0.14
22 0.49
3 -0.57
46 0.15
6 0.06
7 0.06
8 0.14

> <PUBCHEM_EFFECTIVE_ROTOR_COUNT>
1.4

> <PUBCHEM_PHARMACOPHORE_FEATURES>
7
1 1 acceptor
1 2 acceptor
1 3 acceptor
5 5 7 11 15 16 rings
6 4 5 6 7 10 12 rings
6 4 6 8 9 13 14 rings
6 8 13 17 20 21 22 rings

> <PUBCHEM_HEAVY_ATOM_COUNT>
22

> <PUBCHEM_ATOM_DEF_STEREO_COUNT>
5

> <PUBCHEM_ATOM_UDEF_STEREO_COUNT>
0

> <PUBCHEM_BOND_DEF_STEREO_COUNT>
0

> <PUBCHEM_BOND_UDEF_STEREO_COUNT>
0

> <PUBCHEM_ISOTOPIC_ATOM_COUNT>
0

> <PUBCHEM_COMPONENT_COUNT>
1

> <PUBCHEM_CACTVS_TAUTO_COUNT>
30

> <PUBCHEM_CONFORMER_ID>
00036AFD00000001

> <PUBCHEM_MMFF94_ENERGY>
61.281

> <PUBCHEM_FEATURE_SELFOVERLAP>
35.62

> <PUBCHEM_SHAPE_FINGERPRINT>
10062212 137 18340207397453889443
10759866 29 17843673375357611540
10967382 1 18409164432746014998
11132069 177 18411411822018625347
12011746 2 18408887360838562342
12236239 1 17989203733719442884
12403259 226 18337957895626945176
12403259 415 18411425011889922516
12403260 363 18264214599533670943
12403814 3 17917709089782558125
12553582 1 18338216216361077757
12633257 1 18260835890817530344
12839892 36 18336558191497356866
13140716 1 18337391526409876200
13214271 11 18261112972100660615
13224815 77 18409444778130398678
13583140 156 17346335807159972198
13675066 3 18202844340111275505
14178342 30 18337099155286102673
14223421 5 18264205992487671150
14341114 176 18408882971213408146
14787075 74 18268994193738344474
14790565 3 18122333580668763660
15163728 17 14419516209391421131
15196674 1 18409446959973843514
15536298 74 18187920724601266046
15788980 27 17275388702791652389
16945 1 18194400215258668358
17349148 13 18202282494085800966
1813 80 17418092139908152966
200 152 18187093832276087383
20028762 73 17970064440189440015
20715895 44 18057332901582023789
20775438 99 12027517392881125849
21267235 1 18411128121953703210
21421861 104 18128818736208337746
22182313 1 18267865175563698695
23184049 59 18410012113414188742
2334 1 18338511945954487671
23402539 116 18334021570404749559
23463225 33 18412823573062273262
23557571 272 18114451275886580838
23558518 356 18125993004135910792
23559900 14 18263647423860009430
26918003 58 18412266142310729929
2748010 2 18410004442555378903
296302 2 15791450426386327143
335352 9 18409165553748186911
34934 24 18337113462128003611
350125 39 18408885118939993456
5104073 3 18410575041808358970
633830 44 17967246481875099236
7364860 26 18115581694410294254
9709674 26 18262518233348763926

> <PUBCHEM_SHAPE_MULTIPOLES>
435.14
9.04
2.3
1.07
1.66
0.14
0.41
0.48
-2.95
-0.26
0.1
0.01
-0.19
0.09

> <PUBCHEM_SHAPE_SELFOVERLAP>
946.091

> <PUBCHEM_SHAPE_VOLUME>
236

> <PUBCHEM_COORDINATE_TYPE>
2
5
10

$$$$

