11953971
  -OEChem-07051213023D

 93 97  0     1  0  0  0  0  0999 V2000
    3.4585    1.7331    0.4762 O   0  0  0  0  0  0  0  0  0  0  0  0
    3.3828    0.0348   -1.2219 O   0  0  0  0  0  0  0  0  0  0  0  0
   -0.6250    0.9146   -0.6808 O   0  0  0  0  0  0  0  0  0  0  0  0
   -5.2557   -0.0044   -0.9657 O   0  0  0  0  0  0  0  0  0  0  0  0
    5.9680    0.9493   -1.9299 O   0  0  0  0  0  0  0  0  0  0  0  0
   -3.2378    0.8835    1.8570 O   0  0  0  0  0  0  0  0  0  0  0  0
   -6.9512    2.0086   -0.2901 O   0  0  0  0  0  0  0  0  0  0  0  0
   -0.9922    2.6496    0.7966 O   0  0  0  0  0  0  0  0  0  0  0  0
    1.2821   -5.3680    1.4993 O   0  0  0  0  0  0  0  0  0  0  0  0
    3.1328    1.4096   -0.8832 C   0  0  2  0  0  0  0  0  0  0  0  0
    3.9633    2.2982   -1.8291 C   0  0  0  0  0  0  0  0  0  0  0  0
    5.7369    2.4509   -0.0364 C   0  0  2  0  0  0  0  0  0  0  0  0
    4.8365    1.5396    0.8217 C   0  0  1  0  0  0  0  0  0  0  0  0
    1.6397    1.7240   -1.0964 C   0  0  0  0  0  0  0  0  0  0  0  0
    5.4628    2.2232   -1.5341 C   0  0  1  0  0  0  0  0  0  0  0  0
    0.7558    0.7639   -0.3047 C   0  0  2  0  0  0  0  0  0  0  0  0
    2.6307   -0.9146   -0.4546 C   0  0  1  0  0  0  0  0  0  0  0  0
    1.1361   -0.6724   -0.6426 C   0  0  0  0  0  0  0  0  0  0  0  0
   -3.5555    0.6290    0.4976 C   0  0  1  0  0  0  0  0  0  0  0  0
    4.9479    1.8314    2.3152 C   0  0  0  0  0  0  0  0  0  0  0  0
   -5.0676    0.6486    0.3036 C   0  0  1  0  0  0  0  0  0  0  0  0
   -2.8412    1.6355   -0.4455 C   0  0  2  0  0  0  0  0  0  0  0  0
    7.2229    2.2752    0.2853 C   0  0  0  0  0  0  0  0  0  0  0  0
   -5.6798    2.0548    0.3530 C   0  0  1  0  0  0  0  0  0  0  0  0
   -3.2933   -0.7902    0.0604 C   0  0  0  0  0  0  0  0  0  0  0  0
    3.0445   -2.3186   -0.9298 C   0  0  0  0  0  0  0  0  0  0  0  0
   -1.3889    1.8355   -0.0251 C   0  0  0  0  0  0  0  0  0  0  0  0
   -3.5342    2.9650   -0.5494 C   0  0  0  0  0  0  0  0  0  0  0  0
   -4.8184    3.1639   -0.2054 C   0  0  0  0  0  0  0  0  0  0  0  0
   -4.3251   -1.1132   -0.9828 C   0  0  0  0  0  0  0  0  0  0  0  0
    4.5755    3.2832    2.6090 C   0  0  0  0  0  0  0  0  0  0  0  0
    4.0636    0.8784    3.1171 C   0  0  0  0  0  0  0  0  0  0  0  0
    2.3171   -3.4173   -0.2007 C   0  0  0  0  0  0  0  0  0  0  0  0
   -2.3746   -1.6151    0.5871 C   0  0  0  0  0  0  0  0  0  0  0  0
   -5.4417    4.5275   -0.3143 C   0  0  0  0  0  0  0  0  0  0  0  0
    1.4279   -4.3053   -0.6959 C   0  0  0  0  0  0  0  0  0  0  0  0
    0.7155   -5.3357    0.1870 C   0  0  2  0  0  0  0  0  0  0  0  0
   -2.0993   -2.9652    0.1489 C   0  0  0  0  0  0  0  0  0  0  0  0
   -0.8265   -5.1388    0.2755 C   0  0  2  0  0  0  0  0  0  0  0  0
   -7.7593    0.9664    0.2352 C   0  0  0  0  0  0  0  0  0  0  0  0
   -1.2016   -3.7550    0.7609 C   0  0  0  0  0  0  0  0  0  0  0  0
    1.0497   -4.3803   -2.1540 C   0  0  0  0  0  0  0  0  0  0  0  0
   -1.4820   -6.1832    1.1857 C   0  0  0  0  0  0  0  0  0  0  0  0
    3.6509    3.3438   -1.7129 H   0  0  0  0  0  0  0  0  0  0  0  0
    3.7853    1.9967   -2.8687 H   0  0  0  0  0  0  0  0  0  0  0  0
    5.4682    3.4996    0.1394 H   0  0  0  0  0  0  0  0  0  0  0  0
    5.1003    0.4880    0.6498 H   0  0  0  0  0  0  0  0  0  0  0  0
    1.3817    1.6410   -2.1607 H   0  0  0  0  0  0  0  0  0  0  0  0
    1.4104    2.7539   -0.7962 H   0  0  0  0  0  0  0  0  0  0  0  0
    5.9810    2.9789   -2.1365 H   0  0  0  0  0  0  0  0  0  0  0  0
    0.8697    0.9257    0.7748 H   0  0  0  0  0  0  0  0  0  0  0  0
    2.8971   -0.8052    0.6040 H   0  0  0  0  0  0  0  0  0  0  0  0
    0.8485   -0.8824   -1.6821 H   0  0  0  0  0  0  0  0  0  0  0  0
    0.5479   -1.3515   -0.0190 H   0  0  0  0  0  0  0  0  0  0  0  0
    5.9782    1.6642    2.6500 H   0  0  0  0  0  0  0  0  0  0  0  0
   -5.5480    0.0266    1.0748 H   0  0  0  0  0  0  0  0  0  0  0  0
   -2.8242    1.2563   -1.4786 H   0  0  0  0  0  0  0  0  0  0  0  0
    7.8440    2.8180   -0.4354 H   0  0  0  0  0  0  0  0  0  0  0  0
    7.4624    2.6735    1.2760 H   0  0  0  0  0  0  0  0  0  0  0  0
    7.5199    1.2214    0.2666 H   0  0  0  0  0  0  0  0  0  0  0  0
   -5.8435    2.3169    1.4085 H   0  0  0  0  0  0  0  0  0  0  0  0
    4.1220   -2.4457   -0.7619 H   0  0  0  0  0  0  0  0  0  0  0  0
    2.9250   -2.3777   -2.0154 H   0  0  0  0  0  0  0  0  0  0  0  0
   -2.9593    3.7924   -0.9598 H   0  0  0  0  0  0  0  0  0  0  0  0
   -3.8947   -1.1770   -1.9858 H   0  0  0  0  0  0  0  0  0  0  0  0
   -4.8799   -2.0263   -0.7477 H   0  0  0  0  0  0  0  0  0  0  0  0
    3.5912    3.5526    2.2124 H   0  0  0  0  0  0  0  0  0  0  0  0
    4.5437    3.4517    3.6918 H   0  0  0  0  0  0  0  0  0  0  0  0
    5.3144    3.9858    2.2135 H   0  0  0  0  0  0  0  0  0  0  0  0
    2.9996    1.0264    2.9033 H   0  0  0  0  0  0  0  0  0  0  0  0
    4.2082    1.0332    4.1919 H   0  0  0  0  0  0  0  0  0  0  0  0
    4.3133   -0.1651    2.8971 H   0  0  0  0  0  0  0  0  0  0  0  0
    6.9379    1.0075   -1.9541 H   0  0  0  0  0  0  0  0  0  0  0  0
   -3.5068    1.7934    2.0679 H   0  0  0  0  0  0  0  0  0  0  0  0
    2.5452   -3.4362    0.8628 H   0  0  0  0  0  0  0  0  0  0  0  0
   -1.7404   -1.2365    1.3864 H   0  0  0  0  0  0  0  0  0  0  0  0
   -6.2678    4.5145   -1.0323 H   0  0  0  0  0  0  0  0  0  0  0  0
   -5.8305    4.8443    0.6589 H   0  0  0  0  0  0  0  0  0  0  0  0
   -4.7253    5.2860   -0.6471 H   0  0  0  0  0  0  0  0  0  0  0  0
    0.9138   -6.3280   -0.2371 H   0  0  0  0  0  0  0  0  0  0  0  0
   -2.6176   -3.3272   -0.7342 H   0  0  0  0  0  0  0  0  0  0  0  0
   -1.2403   -5.2864   -0.7312 H   0  0  0  0  0  0  0  0  0  0  0  0
   -8.7943    1.1904   -0.0429 H   0  0  0  0  0  0  0  0  0  0  0  0
   -7.7209    0.9272    1.3291 H   0  0  0  0  0  0  0  0  0  0  0  0
   -7.5289   -0.0069   -0.2041 H   0  0  0  0  0  0  0  0  0  0  0  0
   -0.7007   -3.3878    1.6539 H   0  0  0  0  0  0  0  0  0  0  0  0
    1.0366   -5.4237   -2.4877 H   0  0  0  0  0  0  0  0  0  0  0  0
    1.7451   -3.8580   -2.8137 H   0  0  0  0  0  0  0  0  0  0  0  0
    0.0539   -3.9553   -2.3125 H   0  0  0  0  0  0  0  0  0  0  0  0
   -1.1626   -6.0762    2.2284 H   0  0  0  0  0  0  0  0  0  0  0  0
   -2.5739   -6.0916    1.1619 H   0  0  0  0  0  0  0  0  0  0  0  0
   -1.2270   -7.1959    0.8556 H   0  0  0  0  0  0  0  0  0  0  0  0
    1.0042   -4.5749    1.9855 H   0  0  0  0  0  0  0  0  0  0  0  0
  1 10  1  0  0  0  0
  1 13  1  0  0  0  0
  2 10  1  0  0  0  0
  2 17  1  0  0  0  0
  3 16  1  0  0  0  0
  3 27  1  0  0  0  0
  4 21  1  0  0  0  0
  4 30  1  0  0  0  0
  5 15  1  0  0  0  0
  5 73  1  0  0  0  0
  6 19  1  0  0  0  0
  6 74  1  0  0  0  0
  7 24  1  0  0  0  0
  7 40  1  0  0  0  0
  8 27  2  0  0  0  0
  9 37  1  0  0  0  0
  9 93  1  0  0  0  0
 10 11  1  0  0  0  0
 10 14  1  0  0  0  0
 11 15  1  0  0  0  0
 11 44  1  0  0  0  0
 11 45  1  0  0  0  0
 12 13  1  0  0  0  0
 12 15  1  0  0  0  0
 12 23  1  0  0  0  0
 12 46  1  0  0  0  0
 13 20  1  0  0  0  0
 13 47  1  0  0  0  0
 14 16  1  0  0  0  0
 14 48  1  0  0  0  0
 14 49  1  0  0  0  0
 15 50  1  0  0  0  0
 16 18  1  0  0  0  0
 16 51  1  0  0  0  0
 17 18  1  0  0  0  0
 17 26  1  0  0  0  0
 17 52  1  0  0  0  0
 18 53  1  0  0  0  0
 18 54  1  0  0  0  0
 19 21  1  0  0  0  0
 19 22  1  0  0  0  0
 19 25  1  0  0  0  0
 20 31  1  0  0  0  0
 20 32  1  0  0  0  0
 20 55  1  0  0  0  0
 21 24  1  0  0  0  0
 21 56  1  0  0  0  0
 22 27  1  0  0  0  0
 22 28  1  0  0  0  0
 22 57  1  0  0  0  0
 23 58  1  0  0  0  0
 23 59  1  0  0  0  0
 23 60  1  0  0  0  0
 24 29  1  0  0  0  0
 24 61  1  0  0  0  0
 25 30  1  0  0  0  0
 25 34  2  0  0  0  0
 26 33  1  0  0  0  0
 26 62  1  0  0  0  0
 26 63  1  0  0  0  0
 28 29  2  0  0  0  0
 28 64  1  0  0  0  0
 29 35  1  0  0  0  0
 30 65  1  0  0  0  0
 30 66  1  0  0  0  0
 31 67  1  0  0  0  0
 31 68  1  0  0  0  0
 31 69  1  0  0  0  0
 32 70  1  0  0  0  0
 32 71  1  0  0  0  0
 32 72  1  0  0  0  0
 33 36  2  0  0  0  0
 33 75  1  0  0  0  0
 34 38  1  0  0  0  0
 34 76  1  0  0  0  0
 35 77  1  0  0  0  0
 35 78  1  0  0  0  0
 35 79  1  0  0  0  0
 36 37  1  0  0  0  0
 36 42  1  0  0  0  0
 37 39  1  0  0  0  0
 37 80  1  0  0  0  0
 38 41  2  0  0  0  0
 38 81  1  0  0  0  0
 39 41  1  0  0  0  0
 39 43  1  0  0  0  0
 39 82  1  0  0  0  0
 40 83  1  0  0  0  0
 40 84  1  0  0  0  0
 40 85  1  0  0  0  0
 41 86  1  0  0  0  0
 42 87  1  0  0  0  0
 42 88  1  0  0  0  0
 42 89  1  0  0  0  0
 43 90  1  0  0  0  0
 43 91  1  0  0  0  0
 43 92  1  0  0  0  0
M  END
> <PUBCHEM_COMPOUND_CID>
11953971

> <PUBCHEM_CONFORMER_RMSD>
1

> <PUBCHEM_CONFORMER_DIVERSEORDER>
1

> <PUBCHEM_MMFF94_PARTIAL_CHARGES>
42
1 -0.56
10 0.56
13 0.28
15 0.28
16 0.28
17 0.28
19 0.42
2 -0.56
21 0.28
22 0.2
24 0.42
25 -0.28
26 0.14
27 0.66
28 -0.29
29 -0.28
3 -0.43
30 0.42
33 -0.29
34 -0.15
35 0.14
36 -0.28
37 0.42
38 -0.15
39 0.14
4 -0.56
40 0.28
41 -0.29
42 0.14
5 -0.68
6 -0.68
64 0.15
7 -0.56
73 0.4
74 0.4
75 0.15
76 0.15
8 -0.57
81 0.15
86 0.15
9 -0.68
93 0.4

> <PUBCHEM_EFFECTIVE_ROTOR_COUNT>
5

> <PUBCHEM_PHARMACOPHORE_FEATURES>
16
1 1 acceptor
1 2 acceptor
1 4 acceptor
1 5 acceptor
1 5 donor
1 6 acceptor
1 6 donor
1 7 acceptor
1 8 acceptor
1 9 acceptor
1 9 donor
3 20 31 32 hydrophobe
5 4 19 21 25 30 rings
6 1 10 11 12 13 15 rings
6 19 21 22 24 28 29 rings
6 2 10 14 16 17 18 rings

> <PUBCHEM_HEAVY_ATOM_COUNT>
43

> <PUBCHEM_ATOM_DEF_STEREO_COUNT>
12

> <PUBCHEM_ATOM_UDEF_STEREO_COUNT>
0

> <PUBCHEM_BOND_DEF_STEREO_COUNT>
3

> <PUBCHEM_BOND_UDEF_STEREO_COUNT>
0

> <PUBCHEM_ISOTOPIC_ATOM_COUNT>
0

> <PUBCHEM_COMPONENT_COUNT>
1

> <PUBCHEM_CACTVS_TAUTO_COUNT>
1

> <PUBCHEM_CONFORMER_ID>
00B6673300000001

> <PUBCHEM_MMFF94_ENERGY>
112.6867

> <PUBCHEM_FEATURE_SELFOVERLAP>
81.431

> <PUBCHEM_SHAPE_FINGERPRINT>
10074138 170 17904794114375400346
10290309 65 18339352054764084499
10675989 125 18194675093286892637
10974685 15 18118408349583749280
11059845 2 18267608848591223346
11136131 41 18201158844700481459
12788726 201 17551792517517719674
13692114 37 18337398127748398639
14068700 686 18410851071362824751
14747282 125 18045814249806178592
14937079 2 17186439587280962677
15001296 14 18268709588490448551
15200665 1 18119529838859950062
15320294 125 18059030422970201856
15320467 1 18196361533865935855
15400415 2 18341043086062332924
15439362 3 18410852187965092782
15927050 60 18409726266662704079
16067689 134 16678366297498148909
16067689 302 18409722990430461839
16067690 210 17476092224435109986
16993438 75 18055058874705978523
19053607 189 18412266150774849821
19319366 153 18409169952253809407
21033648 29 18115317674613594008
21796203 349 17402569397777445962
23559900 14 18191309492367846780
25223398 141 18120929513415715928
3383291 50 18267585694238355331
376196 1 18260831509555820950
45266715 3 18264231187351307861
508706 21 18190461554323343192
5265222 85 18339072675663550725
5776283 40 18268127920758445350
653340 110 18193558865878853386
6669772 16 18411132576356950975
6697151 62 17400666190172418157
9658208 31 18262514785402563916
9777508 108 18265331712369897054
9849439 229 18411141316119746755
9961470 85 18410301302263719170
9981440 41 18341611499757051539

> <PUBCHEM_SHAPE_MULTIPOLES>
832.1
15.73
8.13
1.86
4.51
15.1
0.89
-21.94
0.63
1.69
1.27
-3.37
-0.45
1.69

> <PUBCHEM_SHAPE_SELFOVERLAP>
1750.728

> <PUBCHEM_SHAPE_VOLUME>
464.1

> <PUBCHEM_COORDINATE_TYPE>
2
5
10

$$$$

