440431
  -OEChem-07051212492D

 26 26  0     1  0  0  0  0  0999 V2000
    7.9575    0.2391    0.0000 P   0  0  0  0  0  0  0  0  0  0  0  0
    5.1043    1.1661    0.0000 O   0  0  0  0  0  0  0  0  0  0  0  0
    4.7770   -1.4593    0.0000 O   0  0  0  0  0  0  0  0  0  0  0  0
    7.0064    0.5481    0.0000 O   0  0  0  0  0  0  0  0  0  0  0  0
    8.9086   -0.0699    0.0000 O   0  0  0  0  0  0  0  0  0  0  0  0
    8.2665    1.1901    0.0000 O   0  0  0  0  0  0  0  0  0  0  0  0
    7.6485   -0.7120    0.0000 O   0  0  0  0  0  0  0  0  0  0  0  0
    2.8090   -0.7599    0.0000 N   0  0  0  0  0  0  0  0  0  0  0  0
    2.3090    0.7789    0.0000 N   0  0  0  0  0  0  0  0  0  0  0  0
    5.3122    0.1880    0.0000 C   0  0  1  0  0  0  0  0  0  0  0  0
    4.5691   -0.4811    0.0000 C   0  0  2  0  0  0  0  0  0  0  0  0
    6.2633   -0.1210    0.0000 C   0  0  0  0  0  0  0  0  0  0  0  0
    3.6180   -0.1721    0.0000 C   0  0  0  0  0  0  0  0  0  0  0  0
    3.3090    0.7789    0.0000 C   0  0  0  0  0  0  0  0  0  0  0  0
    2.0000   -0.1721    0.0000 C   0  0  0  0  0  0  0  0  0  0  0  0
    4.7226    0.3796    0.0000 H   0  0  0  0  0  0  0  0  0  0  0  0
    4.1083   -0.8960    0.0000 H   0  0  0  0  0  0  0  0  0  0  0  0
    5.9722   -0.6685    0.0000 H   0  0  0  0  0  0  0  0  0  0  0  0
    6.7519   -0.5027    0.0000 H   0  0  0  0  0  0  0  0  0  0  0  0
    2.8090   -1.3799    0.0000 H   0  0  0  0  0  0  0  0  0  0  0  0
    3.6734    1.2805    0.0000 H   0  0  0  0  0  0  0  0  0  0  0  0
    5.5651    1.5810    0.0000 H   0  0  0  0  0  0  0  0  0  0  0  0
    5.3667   -1.6509    0.0000 H   0  0  0  0  0  0  0  0  0  0  0  0
    1.4103   -0.3637    0.0000 H   0  0  0  0  0  0  0  0  0  0  0  0
    9.3693    0.3449    0.0000 H   0  0  0  0  0  0  0  0  0  0  0  0
    7.8516    1.6509    0.0000 H   0  0  0  0  0  0  0  0  0  0  0  0
  1  4  1  0  0  0  0
  1  5  1  0  0  0  0
  1  6  1  0  0  0  0
  1  7  2  0  0  0  0
 10  2  1  6  0  0  0
  2 22  1  0  0  0  0
 11  3  1  1  0  0  0
  3 23  1  0  0  0  0
  4 12  1  0  0  0  0
  5 25  1  0  0  0  0
  6 26  1  0  0  0  0
  8 13  1  0  0  0  0
  8 15  1  0  0  0  0
  8 20  1  0  0  0  0
  9 14  1  0  0  0  0
  9 15  2  0  0  0  0
 10 11  1  0  0  0  0
 10 12  1  0  0  0  0
 10 16  1  0  0  0  0
 11 13  1  0  0  0  0
 11 17  1  0  0  0  0
 12 18  1  0  0  0  0
 12 19  1  0  0  0  0
 13 14  2  0  0  0  0
 14 21  1  0  0  0  0
 15 24  1  0  0  0  0
M  END
> <PUBCHEM_COMPOUND_CID>
440431

> <PUBCHEM_COMPOUND_CANONICALIZED>
1

> <PUBCHEM_CACTVS_COMPLEXITY>
246

> <PUBCHEM_CACTVS_HBOND_ACCEPTOR>
7

> <PUBCHEM_CACTVS_HBOND_DONOR>
5

> <PUBCHEM_CACTVS_ROTATABLE_BOND>
5

> <PUBCHEM_CACTVS_SUBSKEYS>
AAADccBjOAIAAAAAAAAAAAAAAAAAAWAAAAAAAAAAAAAAAAABgAAAHgAQCCAACBzhlgYtkBbJkxCgQRRnZIQAgC2xEqABUYA4eAiDfAJAmQCUQAAP0ANRUCCwEAIAAAAAAAAAAAAAAAAAAAAAAAAAAAAAAA==

> <PUBCHEM_IUPAC_OPENEYE_NAME>
[(2R,3S)-2,3-dihydroxy-3-(1H-imidazol-5-yl)propyl] dihydrogen phosphate

> <PUBCHEM_IUPAC_CAS_NAME>
[(2R,3S)-2,3-dihydroxy-3-(1H-imidazol-5-yl)propyl] dihydrogen phosphate

> <PUBCHEM_IUPAC_NAME>
[(2R,3S)-2,3-dihydroxy-3-(1H-imidazol-5-yl)propyl] dihydrogen phosphate

> <PUBCHEM_IUPAC_SYSTEMATIC_NAME>
[(2R,3S)-3-(1H-imidazol-5-yl)-2,3-bis(oxidanyl)propyl] dihydrogen phosphate

> <PUBCHEM_IUPAC_TRADITIONAL_NAME>
[(2R,3S)-2,3-dihydroxy-3-(1H-imidazol-5-yl)propyl] dihydrogen phosphate

> <PUBCHEM_IUPAC_INCHI>
InChI=1S/C6H11N2O6P/c9-5(2-14-15(11,12)13)6(10)4-1-7-3-8-4/h1,3,5-6,9-10H,2H2,(H,7,8)(H2,11,12,13)/t5-,6+/m1/s1

> <PUBCHEM_IUPAC_INCHIKEY>
HFYBTHCYPKEDQQ-RITPCOANSA-N

> <PUBCHEM_XLOGP3_AA>
-3.2

> <PUBCHEM_EXACT_MASS>
238.035473

> <PUBCHEM_MOLECULAR_FORMULA>
C6H11N2O6P

> <PUBCHEM_MOLECULAR_WEIGHT>
238.135102

> <PUBCHEM_OPENEYE_CAN_SMILES>
C1=C(NC=N1)C(C(COP(=O)(O)O)O)O

> <PUBCHEM_OPENEYE_ISO_SMILES>
C1=C(NC=N1)[C@@H]([C@@H](COP(=O)(O)O)O)O

> <PUBCHEM_CACTVS_TPSA>
136

> <PUBCHEM_MONOISOTOPIC_WEIGHT>
238.035473

> <PUBCHEM_TOTAL_CHARGE>
0

> <PUBCHEM_HEAVY_ATOM_COUNT>
15

> <PUBCHEM_ATOM_DEF_STEREO_COUNT>
2

> <PUBCHEM_ATOM_UDEF_STEREO_COUNT>
0

> <PUBCHEM_BOND_DEF_STEREO_COUNT>
0

> <PUBCHEM_BOND_UDEF_STEREO_COUNT>
0

> <PUBCHEM_ISOTOPIC_ATOM_COUNT>
0

> <PUBCHEM_COMPONENT_COUNT>
1

> <PUBCHEM_CACTVS_TAUTO_COUNT>
2

> <PUBCHEM_COORDINATE_TYPE>
1
5
255

> <PUBCHEM_BONDANNOTATIONS>
13  14  8
10  2  6
11  3  5
8  13  8
8  15  8
9  14  8
9  15  8

$$$$

