6195
  -OEChem-07051213043D

 20 21  0     0  0  0  0  0  0999 V2000
   -3.2735   -1.3610   -0.2964 O   0  0  0  0  0  0  0  0  0  0  0  0
    0.1449   -0.3138    0.0477 C   0  0  0  0  0  0  0  0  0  0  0  0
    0.9370    0.8568   -0.0233 C   0  0  0  0  0  0  0  0  0  0  0  0
   -1.2535   -0.1945    0.1002 C   0  0  0  0  0  0  0  0  0  0  0  0
    0.7745   -1.5690    0.0640 C   0  0  0  0  0  0  0  0  0  0  0  0
    0.3075    2.1122   -0.0399 C   0  0  0  0  0  0  0  0  0  0  0  0
    2.3353    0.7377   -0.0760 C   0  0  0  0  0  0  0  0  0  0  0  0
   -1.8622    1.0609    0.0832 C   0  0  0  0  0  0  0  0  0  0  0  0
   -1.0831    2.2121    0.0130 C   0  0  0  0  0  0  0  0  0  0  0  0
    2.1651   -1.6687    0.0113 C   0  0  0  0  0  0  0  0  0  0  0  0
    2.9441   -0.5175   -0.0585 C   0  0  0  0  0  0  0  0  0  0  0  0
   -2.1361   -1.3552    0.1746 C   0  0  0  0  0  0  0  0  0  0  0  0
    0.2207   -2.5019    0.1015 H   0  0  0  0  0  0  0  0  0  0  0  0
    0.8967    3.0253   -0.0940 H   0  0  0  0  0  0  0  0  0  0  0  0
    2.9640    1.6241   -0.1313 H   0  0  0  0  0  0  0  0  0  0  0  0
   -2.9434    1.1656    0.1290 H   0  0  0  0  0  0  0  0  0  0  0  0
   -1.5572    3.1893    0.0009 H   0  0  0  0  0  0  0  0  0  0  0  0
    2.6401   -2.6455    0.0210 H   0  0  0  0  0  0  0  0  0  0  0  0
    4.0265   -0.5958   -0.1005 H   0  0  0  0  0  0  0  0  0  0  0  0
   -1.7557   -2.2590    0.6746 H   0  0  0  0  0  0  0  0  0  0  0  0
  1 12  2  0  0  0  0
  2  3  1  0  0  0  0
  2  4  1  0  0  0  0
  2  5  2  0  0  0  0
  3  6  1  0  0  0  0
  3  7  2  0  0  0  0
  4  8  2  0  0  0  0
  4 12  1  0  0  0  0
  5 10  1  0  0  0  0
  5 13  1  0  0  0  0
  6  9  2  0  0  0  0
  6 14  1  0  0  0  0
  7 11  1  0  0  0  0
  7 15  1  0  0  0  0
  8  9  1  0  0  0  0
  8 16  1  0  0  0  0
  9 17  1  0  0  0  0
 10 11  2  0  0  0  0
 10 18  1  0  0  0  0
 11 19  1  0  0  0  0
 12 20  1  0  0  0  0
M  END
> <PUBCHEM_COMPOUND_CID>
6195

> <PUBCHEM_CONFORMER_RMSD>
0.4

> <PUBCHEM_CONFORMER_DIVERSEORDER>
1
2
3

> <PUBCHEM_MMFF94_PARTIAL_CHARGES>
18
1 -0.57
10 -0.15
11 -0.15
12 0.42
13 0.15
14 0.15
15 0.15
16 0.15
17 0.15
18 0.15
19 0.15
20 0.06
4 0.09
5 -0.15
6 -0.15
7 -0.15
8 -0.15
9 -0.15

> <PUBCHEM_EFFECTIVE_ROTOR_COUNT>
1

> <PUBCHEM_PHARMACOPHORE_FEATURES>
3
1 1 acceptor
6 2 3 4 6 8 9 rings
6 2 3 5 7 10 11 rings

> <PUBCHEM_HEAVY_ATOM_COUNT>
12

> <PUBCHEM_ATOM_DEF_STEREO_COUNT>
0

> <PUBCHEM_ATOM_UDEF_STEREO_COUNT>
0

> <PUBCHEM_BOND_DEF_STEREO_COUNT>
0

> <PUBCHEM_BOND_UDEF_STEREO_COUNT>
0

> <PUBCHEM_ISOTOPIC_ATOM_COUNT>
0

> <PUBCHEM_COMPONENT_COUNT>
1

> <PUBCHEM_CACTVS_TAUTO_COUNT>
1

> <PUBCHEM_CONFORMER_ID>
0000183300000001

> <PUBCHEM_MMFF94_ENERGY>
38.5644

> <PUBCHEM_FEATURE_SELFOVERLAP>
15.249

> <PUBCHEM_SHAPE_FINGERPRINT>
10967382 1 18122624950853608362
11206711 2 18413383246013689868
12524768 44 18048873284291086862
161256 15 18335704888505456632
16945 1 18270392922857914648
193761 8 18410855481624590993
19973954 147 18338514261110405268
20201158 50 18270685259896795499
20645477 70 17979646628522865079
20871998 184 18115028618333154119
21040471 1 17906732866607165912
21501502 16 18339920523565780394
2334 1 18411416211105819866
23388829 49 18263932037761214965
23552423 10 18272364312962660732
23559900 14 17613434872251654902
241688 4 18411981385815604928
2748010 2 18410014351060559964
5084963 1 18187641375675292162
528886 8 18338520858037799264

> <PUBCHEM_SHAPE_MULTIPOLES>
241.09
3.93
2.36
0.62
0.09
0.55
0.01
-1.62
-0.18
-0.7
-0.02
0
0
-0.09

> <PUBCHEM_SHAPE_SELFOVERLAP>
531.226

> <PUBCHEM_SHAPE_VOLUME>
130.4

> <PUBCHEM_COORDINATE_TYPE>
2
5
10

$$$$

