15880
  -OEChem-07051212483D

 18 18  0     0  0  0  0  0  0999 V2000
   -4.1045    0.0118    0.5391 Cl  0  0  0  0  0  0  0  0  0  0  0  0
    3.9507   -0.0444   -0.0776 O   0  0  0  0  0  0  0  0  0  0  0  0
    2.2795    0.0970    1.4525 O   0  0  0  0  0  0  0  0  0  0  0  0
    0.2721   -0.0180   -0.5521 C   0  0  0  0  0  0  0  0  0  0  0  0
    1.7190   -0.0279   -0.9141 C   0  0  0  0  0  0  0  0  0  0  0  0
   -0.4023   -1.2207   -0.3416 C   0  0  0  0  0  0  0  0  0  0  0  0
   -0.4067    1.1939   -0.4250 C   0  0  0  0  0  0  0  0  0  0  0  0
   -1.7556   -1.2114   -0.0041 C   0  0  0  0  0  0  0  0  0  0  0  0
   -1.7602    1.2032   -0.0874 C   0  0  0  0  0  0  0  0  0  0  0  0
   -2.4347    0.0004    0.1231 C   0  0  0  0  0  0  0  0  0  0  0  0
    2.6427    0.0160    0.2871 C   0  0  0  0  0  0  0  0  0  0  0  0
    1.9499    0.8328   -1.5534 H   0  0  0  0  0  0  0  0  0  0  0  0
    1.9506   -0.9315   -1.4910 H   0  0  0  0  0  0  0  0  0  0  0  0
    0.1157   -2.1714   -0.4357 H   0  0  0  0  0  0  0  0  0  0  0  0
    0.1078    2.1378   -0.5847 H   0  0  0  0  0  0  0  0  0  0  0  0
   -2.2683   -2.1562    0.1574 H   0  0  0  0  0  0  0  0  0  0  0  0
   -2.2762    2.1551    0.0086 H   0  0  0  0  0  0  0  0  0  0  0  0
    4.5482   -0.0153    0.6998 H   0  0  0  0  0  0  0  0  0  0  0  0
  1 10  1  0  0  0  0
  2 11  1  0  0  0  0
  2 18  1  0  0  0  0
  3 11  2  0  0  0  0
  4  5  1  0  0  0  0
  4  6  2  0  0  0  0
  4  7  1  0  0  0  0
  5 11  1  0  0  0  0
  5 12  1  0  0  0  0
  5 13  1  0  0  0  0
  6  8  1  0  0  0  0
  6 14  1  0  0  0  0
  7  9  2  0  0  0  0
  7 15  1  0  0  0  0
  8 10  2  0  0  0  0
  8 16  1  0  0  0  0
  9 10  1  0  0  0  0
  9 17  1  0  0  0  0
M  END
> <PUBCHEM_COMPOUND_CID>
15880

> <PUBCHEM_CONFORMER_RMSD>
0.4

> <PUBCHEM_CONFORMER_DIVERSEORDER>
1
6
7
3
5
4
8
2
9

> <PUBCHEM_MMFF94_PARTIAL_CHARGES>
16
1 -0.18
10 0.18
11 0.66
14 0.15
15 0.15
16 0.15
17 0.15
18 0.5
2 -0.65
3 -0.57
4 -0.14
5 0.2
6 -0.15
7 -0.15
8 -0.15
9 -0.15

> <PUBCHEM_EFFECTIVE_ROTOR_COUNT>
2

> <PUBCHEM_PHARMACOPHORE_FEATURES>
4
1 2 acceptor
1 3 acceptor
3 2 3 11 anion
6 4 6 7 8 9 10 rings

> <PUBCHEM_HEAVY_ATOM_COUNT>
11

> <PUBCHEM_ATOM_DEF_STEREO_COUNT>
0

> <PUBCHEM_ATOM_UDEF_STEREO_COUNT>
0

> <PUBCHEM_BOND_DEF_STEREO_COUNT>
0

> <PUBCHEM_BOND_UDEF_STEREO_COUNT>
0

> <PUBCHEM_ISOTOPIC_ATOM_COUNT>
0

> <PUBCHEM_COMPONENT_COUNT>
1

> <PUBCHEM_CACTVS_TAUTO_COUNT>
1

> <PUBCHEM_CONFORMER_ID>
00003E0800000001

> <PUBCHEM_MMFF94_ENERGY>
19.656

> <PUBCHEM_FEATURE_SELFOVERLAP>
20.356

> <PUBCHEM_SHAPE_FINGERPRINT>
10130415 120 18131346380560079045
10857977 72 18408886222155380893
11031198 65 16515678940472774524
11062470 55 15769775758068402213
11769659 78 15984819290570124555
12119455 92 17095526231338792221
12251169 10 18410856538302272072
12932764 1 17822019730435023982
15219456 202 18041554874814560238
15310529 11 16343705417535573207
15775835 57 18334295378986292618
16945 1 18411414012472883175
18175812 5 17676206836091632543
20645464 45 17822007618437325671
20653085 51 14996291283742768240
20871998 184 18261387785198395839
22445834 79 17775292698167976290
23402539 116 18187653513690701237
23552423 10 17627220165943660213
2748010 2 18051683636565447199
369184 2 17531252755029941071
6333449 129 17894636928842139015

> <PUBCHEM_SHAPE_MULTIPOLES>
216.51
5.86
1.16
0.92
0.57
0.01
-0.15
0.01
-1.45
-0.55
0.12
0.4
-0.01
0.03

> <PUBCHEM_SHAPE_SELFOVERLAP>
439.268

> <PUBCHEM_SHAPE_VOLUME>
126.9

> <PUBCHEM_COORDINATE_TYPE>
2
5
10

$$$$

