442469
  -OEChem-07051212582D

 28 29  0     1  0  0  0  0  0999 V2000
    5.9883    0.5274    0.0000 O   0  0  0  0  0  0  0  0  0  0  0  0
    2.3100    0.2226    0.0000 O   0  0  0  0  0  0  0  0  0  0  0  0
    4.1760    1.7226    0.0000 O   0  0  0  0  0  0  0  0  0  0  0  0
    7.5719   -0.2774    0.0000 O   0  0  0  0  0  0  0  0  0  0  0  0
    3.3100    0.2226    0.0000 C   0  0  1  0  0  0  0  0  0  0  0  0
    4.1760    0.7226    0.0000 C   0  0  2  0  0  0  0  0  0  0  0  0
    5.0420    0.2226    0.0000 C   0  0  1  0  0  0  0  0  0  0  0  0
    3.3100   -0.7774    0.0000 C   0  0  0  0  0  0  0  0  0  0  0  0
    5.0420   -0.7774    0.0000 C   0  0  0  0  0  0  0  0  0  0  0  0
    4.1760   -1.2774    0.0000 C   0  0  0  0  0  0  0  0  0  0  0  0
    2.8100    1.0886    0.0000 C   0  0  0  0  0  0  0  0  0  0  0  0
    5.9883   -1.0821    0.0000 C   0  0  0  0  0  0  0  0  0  0  0  0
    6.5719   -0.2774    0.0000 C   0  0  0  0  0  0  0  0  0  0  0  0
    6.2989   -2.0326    0.0000 C   0  0  0  0  0  0  0  0  0  0  0  0
    4.7130    1.0326    0.0000 H   0  0  0  0  0  0  0  0  0  0  0  0
    5.1320    1.0678    0.0000 H   0  0  0  0  0  0  0  0  0  0  0  0
    2.6994   -0.6697    0.0000 H   0  0  0  0  0  0  0  0  0  0  0  0
    3.0980   -1.3600    0.0000 H   0  0  0  0  0  0  0  0  0  0  0  0
    3.7775   -1.7523    0.0000 H   0  0  0  0  0  0  0  0  0  0  0  0
    4.5746   -1.7523    0.0000 H   0  0  0  0  0  0  0  0  0  0  0  0
    3.3469    1.3986    0.0000 H   0  0  0  0  0  0  0  0  0  0  0  0
    2.5000    1.6256    0.0000 H   0  0  0  0  0  0  0  0  0  0  0  0
    2.2731    0.7787    0.0000 H   0  0  0  0  0  0  0  0  0  0  0  0
    2.0000   -0.3143    0.0000 H   0  0  0  0  0  0  0  0  0  0  0  0
    4.7130    2.0326    0.0000 H   0  0  0  0  0  0  0  0  0  0  0  0
    5.7096   -2.2252    0.0000 H   0  0  0  0  0  0  0  0  0  0  0  0
    6.4915   -2.6220    0.0000 H   0  0  0  0  0  0  0  0  0  0  0  0
    6.8883   -1.8400    0.0000 H   0  0  0  0  0  0  0  0  0  0  0  0
  1  7  1  0  0  0  0
  1 13  1  0  0  0  0
  5  2  1  1  0  0  0
  2 24  1  0  0  0  0
  6  3  1  1  0  0  0
  3 25  1  0  0  0  0
  4 13  2  0  0  0  0
  5  6  1  0  0  0  0
  5  8  1  0  0  0  0
  5 11  1  0  0  0  0
  6  7  1  0  0  0  0
  6 15  1  0  0  0  0
  7  9  1  0  0  0  0
  7 16  1  1  0  0  0
  8 10  1  0  0  0  0
  8 17  1  0  0  0  0
  8 18  1  0  0  0  0
  9 10  1  0  0  0  0
  9 12  2  0  0  0  0
 10 19  1  0  0  0  0
 10 20  1  0  0  0  0
 11 21  1  0  0  0  0
 11 22  1  0  0  0  0
 11 23  1  0  0  0  0
 12 13  1  0  0  0  0
 12 14  1  0  0  0  0
 14 26  1  0  0  0  0
 14 27  1  0  0  0  0
 14 28  1  0  0  0  0
M  END
> <PUBCHEM_COMPOUND_CID>
442469

> <PUBCHEM_COMPOUND_CANONICALIZED>
1

> <PUBCHEM_CACTVS_COMPLEXITY>
320

> <PUBCHEM_CACTVS_HBOND_ACCEPTOR>
4

> <PUBCHEM_CACTVS_HBOND_DONOR>
2

> <PUBCHEM_CACTVS_ROTATABLE_BOND>
0

> <PUBCHEM_CACTVS_SUBSKEYS>
AAADccBwOAAAAAAAAAAAAAAAAAAAAQAAAAAwAAAAAAAAAEAAAAAAGgAACAAADFSggAICCAAABgCIAgDQCAAAAAAgAAAACAEAAEgBFAIAIAACUAAFwAALIQOA4DwOAAAAAAAAAAAAAAIQABCAAAAAAAAAAA==

> <PUBCHEM_IUPAC_OPENEYE_NAME>
(6R,7S,7aR)-6,7-dihydroxy-3,6-dimethyl-4,5,7,7a-tetrahydrobenzofuran-2-one

> <PUBCHEM_IUPAC_CAS_NAME>
(6R,7S,7aR)-6,7-dihydroxy-3,6-dimethyl-4,5,7,7a-tetrahydrobenzofuran-2-one

> <PUBCHEM_IUPAC_NAME>
(6R,7S,7aR)-6,7-dihydroxy-3,6-dimethyl-4,5,7,7a-tetrahydro-1-benzofuran-2-one

> <PUBCHEM_IUPAC_SYSTEMATIC_NAME>
(6R,7S,7aR)-3,6-dimethyl-6,7-bis(oxidanyl)-4,5,7,7a-tetrahydro-1-benzofuran-2-one

> <PUBCHEM_IUPAC_TRADITIONAL_NAME>
(6R,7S,7aR)-6,7-dihydroxy-3,6-dimethyl-4,5,7,7a-tetrahydrobenzofuran-2-one

> <PUBCHEM_IUPAC_INCHI>
InChI=1S/C10H14O4/c1-5-6-3-4-10(2,13)8(11)7(6)14-9(5)12/h7-8,11,13H,3-4H2,1-2H3/t7-,8+,10-/m1/s1

> <PUBCHEM_IUPAC_INCHIKEY>
DIOYTQUSBRSEBD-KHQFGBGNSA-N

> <PUBCHEM_XLOGP3_AA>
-0.5

> <PUBCHEM_EXACT_MASS>
198.089209

> <PUBCHEM_MOLECULAR_FORMULA>
C10H14O4

> <PUBCHEM_MOLECULAR_WEIGHT>
198.21576

> <PUBCHEM_OPENEYE_CAN_SMILES>
CC1=C2CCC(C(C2OC1=O)O)(C)O

> <PUBCHEM_OPENEYE_ISO_SMILES>
CC1=C2CC[C@@]([C@H]([C@@H]2OC1=O)O)(C)O

> <PUBCHEM_CACTVS_TPSA>
66.8

> <PUBCHEM_MONOISOTOPIC_WEIGHT>
198.089209

> <PUBCHEM_TOTAL_CHARGE>
0

> <PUBCHEM_HEAVY_ATOM_COUNT>
14

> <PUBCHEM_ATOM_DEF_STEREO_COUNT>
3

> <PUBCHEM_ATOM_UDEF_STEREO_COUNT>
0

> <PUBCHEM_BOND_DEF_STEREO_COUNT>
0

> <PUBCHEM_BOND_UDEF_STEREO_COUNT>
0

> <PUBCHEM_ISOTOPIC_ATOM_COUNT>
0

> <PUBCHEM_COMPONENT_COUNT>
1

> <PUBCHEM_CACTVS_TAUTO_COUNT>
1

> <PUBCHEM_COORDINATE_TYPE>
1
5
255

> <PUBCHEM_BONDANNOTATIONS>
5  2  5
6  3  5
7  16  5

$$$$

