441049
  -OEChem-07051212512D

 57 59  0     1  0  0  0  0  0999 V2000
    5.7429    5.1310    0.0000 O   0  0  0  0  0  0  0  0  0  0  0  0
    6.5519    0.5432    0.0000 O   0  0  0  0  0  0  0  0  0  0  0  0
    3.8968   -6.0446    0.0000 O   0  0  0  0  0  0  0  0  0  0  0  0
    7.3609    5.1310    0.0000 N   0  0  0  0  0  0  0  0  0  0  0  0
    3.5878   -6.9956    0.0000 N   0  0  0  0  0  0  0  0  0  0  0  0
    4.8198   -2.4568    0.0000 C   0  0  0  0  0  0  0  0  0  0  0  0
    3.9538   -2.9568    0.0000 C   0  0  0  0  0  0  0  0  0  0  0  0
    4.8198   -1.4568    0.0000 C   0  0  0  0  0  0  0  0  0  0  0  0
    3.9538   -3.9568    0.0000 C   0  0  0  0  0  0  0  0  0  0  0  0
    5.6859   -0.9568    0.0000 C   0  0  0  0  0  0  0  0  0  0  0  0
    7.0519    6.0821    0.0000 C   0  0  3  0  0  0  0  0  0  0  0  0
    3.0878   -4.4568    0.0000 C   0  0  0  0  0  0  0  0  0  0  0  0
    5.6859    0.0432    0.0000 C   0  0  0  0  0  0  0  0  0  0  0  0
    6.0519    6.0821    0.0000 C   0  0  0  0  0  0  0  0  0  0  0  0
    7.6397    6.8911    0.0000 C   0  0  0  0  0  0  0  0  0  0  0  0
    6.5519    4.5432    0.0000 C   0  0  0  0  0  0  0  0  0  0  0  0
    3.0878   -5.4568    0.0000 C   0  0  0  0  0  0  0  0  0  0  0  0
    6.5519    3.5432    0.0000 C   0  0  0  0  0  0  0  0  0  0  0  0
    7.2329    7.8046    0.0000 C   0  0  0  0  0  0  0  0  0  0  0  0
    6.5519    1.5432    0.0000 C   0  0  0  0  0  0  0  0  0  0  0  0
    2.2788   -6.0446    0.0000 C   0  0  0  0  0  0  0  0  0  0  0  0
    5.6859    3.0432    0.0000 C   0  0  0  0  0  0  0  0  0  0  0  0
    7.4179    3.0432    0.0000 C   0  0  0  0  0  0  0  0  0  0  0  0
    5.6859    2.0432    0.0000 C   0  0  0  0  0  0  0  0  0  0  0  0
    7.4179    2.0432    0.0000 C   0  0  0  0  0  0  0  0  0  0  0  0
    2.5878   -6.9956    0.0000 C   0  0  0  0  0  0  0  0  0  0  0  0
    2.0000   -7.8046    0.0000 C   0  0  0  0  0  0  0  0  0  0  0  0
    5.0319   -3.0394    0.0000 H   0  0  0  0  0  0  0  0  0  0  0  0
    5.4304   -2.3491    0.0000 H   0  0  0  0  0  0  0  0  0  0  0  0
    3.7418   -2.3742    0.0000 H   0  0  0  0  0  0  0  0  0  0  0  0
    3.3432   -3.0644    0.0000 H   0  0  0  0  0  0  0  0  0  0  0  0
    4.6078   -0.8742    0.0000 H   0  0  0  0  0  0  0  0  0  0  0  0
    4.2093   -1.5644    0.0000 H   0  0  0  0  0  0  0  0  0  0  0  0
    4.1659   -4.5394    0.0000 H   0  0  0  0  0  0  0  0  0  0  0  0
    4.5644   -3.8491    0.0000 H   0  0  0  0  0  0  0  0  0  0  0  0
    5.8979   -1.5394    0.0000 H   0  0  0  0  0  0  0  0  0  0  0  0
    6.2964   -0.8491    0.0000 H   0  0  0  0  0  0  0  0  0  0  0  0
    7.8914    5.9491    0.0000 H   0  0  0  0  0  0  0  0  0  0  0  0
    2.8757   -3.8742    0.0000 H   0  0  0  0  0  0  0  0  0  0  0  0
    2.4772   -4.5644    0.0000 H   0  0  0  0  0  0  0  0  0  0  0  0
    5.4738    0.6258    0.0000 H   0  0  0  0  0  0  0  0  0  0  0  0
    5.0753   -0.0644    0.0000 H   0  0  0  0  0  0  0  0  0  0  0  0
    6.1167    6.6987    0.0000 H   0  0  0  0  0  0  0  0  0  0  0  0
    5.4454    6.2110    0.0000 H   0  0  0  0  0  0  0  0  0  0  0  0
    8.0704    6.4451    0.0000 H   0  0  0  0  0  0  0  0  0  0  0  0
    8.1537    7.2378    0.0000 H   0  0  0  0  0  0  0  0  0  0  0  0
    7.7993    8.0568    0.0000 H   0  0  0  0  0  0  0  0  0  0  0  0
    6.9808    8.3710    0.0000 H   0  0  0  0  0  0  0  0  0  0  0  0
    6.6665    7.5524    0.0000 H   0  0  0  0  0  0  0  0  0  0  0  0
    1.6891   -5.8530    0.0000 H   0  0  0  0  0  0  0  0  0  0  0  0
    5.1489    3.3532    0.0000 H   0  0  0  0  0  0  0  0  0  0  0  0
    7.9548    3.3532    0.0000 H   0  0  0  0  0  0  0  0  0  0  0  0
    5.1489    1.7332    0.0000 H   0  0  0  0  0  0  0  0  0  0  0  0
    7.9548    1.7332    0.0000 H   0  0  0  0  0  0  0  0  0  0  0  0
    1.4984   -7.4402    0.0000 H   0  0  0  0  0  0  0  0  0  0  0  0
    1.6356   -8.3062    0.0000 H   0  0  0  0  0  0  0  0  0  0  0  0
    2.5016   -8.1691    0.0000 H   0  0  0  0  0  0  0  0  0  0  0  0
  1 14  1  0  0  0  0
  1 16  1  0  0  0  0
  2 13  1  0  0  0  0
  2 20  1  0  0  0  0
  3  5  1  0  0  0  0
  3 17  1  0  0  0  0
  4 11  1  0  0  0  0
  4 16  2  0  0  0  0
  5 26  2  0  0  0  0
  6  7  1  0  0  0  0
  6  8  1  0  0  0  0
  6 28  1  0  0  0  0
  6 29  1  0  0  0  0
  7  9  1  0  0  0  0
  7 30  1  0  0  0  0
  7 31  1  0  0  0  0
  8 10  1  0  0  0  0
  8 32  1  0  0  0  0
  8 33  1  0  0  0  0
  9 12  1  0  0  0  0
  9 34  1  0  0  0  0
  9 35  1  0  0  0  0
 10 13  1  0  0  0  0
 10 36  1  0  0  0  0
 10 37  1  0  0  0  0
 11 14  1  0  0  0  0
 11 15  1  0  0  0  0
 11 38  1  0  0  0  0
 12 17  1  0  0  0  0
 12 39  1  0  0  0  0
 12 40  1  0  0  0  0
 13 41  1  0  0  0  0
 13 42  1  0  0  0  0
 14 43  1  0  0  0  0
 14 44  1  0  0  0  0
 15 19  1  0  0  0  0
 15 45  1  0  0  0  0
 15 46  1  0  0  0  0
 16 18  1  0  0  0  0
 17 21  2  0  0  0  0
 18 22  2  0  0  0  0
 18 23  1  0  0  0  0
 19 47  1  0  0  0  0
 19 48  1  0  0  0  0
 19 49  1  0  0  0  0
 20 24  2  0  0  0  0
 20 25  1  0  0  0  0
 21 26  1  0  0  0  0
 21 50  1  0  0  0  0
 22 24  1  0  0  0  0
 22 51  1  0  0  0  0
 23 25  2  0  0  0  0
 23 52  1  0  0  0  0
 24 53  1  0  0  0  0
 25 54  1  0  0  0  0
 26 27  1  0  0  0  0
 27 55  1  0  0  0  0
 27 56  1  0  0  0  0
 27 57  1  0  0  0  0
M  END
> <PUBCHEM_COMPOUND_CID>
441049

> <PUBCHEM_COMPOUND_CANONICALIZED>
1

> <PUBCHEM_CACTVS_COMPLEXITY>
449

> <PUBCHEM_CACTVS_HBOND_ACCEPTOR>
5

> <PUBCHEM_CACTVS_HBOND_DONOR>
0

> <PUBCHEM_CACTVS_ROTATABLE_BOND>
11

> <PUBCHEM_CACTVS_SUBSKEYS>
AAADceB7MAAAAAAAAAAAAAAAAAAAAWIAAAAwAAAAAAAAAAABwAAAHgAEAAAADCzhngYyhpIQBACpA6RyRgCCCAAkIgAomCE2bNoOJrqEsZqDOaDmwBkI6UeY6KyOIAAAAAAAAABAAAAAAAAAAAAAAAAAAA==

> <PUBCHEM_IUPAC_OPENEYE_NAME>
5-[7-[4-(4-ethyl-4,5-dihydrooxazol-2-yl)phenoxy]heptyl]-3-methyl-isoxazole

> <PUBCHEM_IUPAC_CAS_NAME>
5-[7-[4-(4-ethyl-4,5-dihydrooxazol-2-yl)phenoxy]heptyl]-3-methylisoxazole

> <PUBCHEM_IUPAC_NAME>
5-[7-[4-(4-ethyl-4,5-dihydro-1,3-oxazol-2-yl)phenoxy]heptyl]-3-methyl-1,2-oxazole

> <PUBCHEM_IUPAC_SYSTEMATIC_NAME>
5-[7-[4-(4-ethyl-4,5-dihydro-1,3-oxazol-2-yl)phenoxy]heptyl]-3-methyl-1,2-oxazole

> <PUBCHEM_IUPAC_TRADITIONAL_NAME>
5-[7-[4-(4-ethyl-2-oxazolin-2-yl)phenoxy]heptyl]-3-methyl-isoxazole

> <PUBCHEM_IUPAC_INCHI>
InChI=1S/C22H30N2O3/c1-3-19-16-26-22(23-19)18-10-12-20(13-11-18)25-14-8-6-4-5-7-9-21-15-17(2)24-27-21/h10-13,15,19H,3-9,14,16H2,1-2H3

> <PUBCHEM_IUPAC_INCHIKEY>
PZDSRPCFNWOUFP-UHFFFAOYSA-N

> <PUBCHEM_XLOGP3_AA>
5.4

> <PUBCHEM_EXACT_MASS>
370.225643

> <PUBCHEM_MOLECULAR_FORMULA>
C22H30N2O3

> <PUBCHEM_MOLECULAR_WEIGHT>
370.4852

> <PUBCHEM_OPENEYE_CAN_SMILES>
CCC1COC(=N1)C2=CC=C(C=C2)OCCCCCCCC3=CC(=NO3)C

> <PUBCHEM_OPENEYE_ISO_SMILES>
CCC1COC(=N1)C2=CC=C(C=C2)OCCCCCCCC3=CC(=NO3)C

> <PUBCHEM_CACTVS_TPSA>
56.8

> <PUBCHEM_MONOISOTOPIC_WEIGHT>
370.225643

> <PUBCHEM_TOTAL_CHARGE>
0

> <PUBCHEM_HEAVY_ATOM_COUNT>
27

> <PUBCHEM_ATOM_DEF_STEREO_COUNT>
0

> <PUBCHEM_ATOM_UDEF_STEREO_COUNT>
1

> <PUBCHEM_BOND_DEF_STEREO_COUNT>
0

> <PUBCHEM_BOND_UDEF_STEREO_COUNT>
0

> <PUBCHEM_ISOTOPIC_ATOM_COUNT>
0

> <PUBCHEM_COMPONENT_COUNT>
1

> <PUBCHEM_CACTVS_TAUTO_COUNT>
1

> <PUBCHEM_COORDINATE_TYPE>
1
5
255

> <PUBCHEM_BONDANNOTATIONS>
11  38  3
17  21  8
18  22  8
18  23  8
20  24  8
20  25  8
21  26  8
22  24  8
23  25  8
3  17  8
3  5  8
5  26  8

$$$$

