5497150
  -OEChem-07051213123D

 52 52  0     1  0  0  0  0  0999 V2000
    4.1538   -1.6659    0.6279 O   0  0  0  0  0  0  0  0  0  0  0  0
   -2.0315   -1.9063   -1.6437 O   0  0  0  0  0  0  0  0  0  0  0  0
   -3.2587    2.6070   -1.0733 O   0  0  0  0  0  0  0  0  0  0  0  0
   -5.3393    1.8686   -0.5833 O   0  0  0  0  0  0  0  0  0  0  0  0
   -2.1198    0.2596   -0.8041 N   0  0  0  0  0  0  0  0  0  0  0  0
    0.8592   -0.9152   -0.4327 C   0  0  2  0  0  0  0  0  0  0  0  0
    2.3595   -0.7092   -0.7003 C   0  0  2  0  0  0  0  0  0  0  0  0
    0.7612   -2.3941   -0.0503 C   0  0  0  0  0  0  0  0  0  0  0  0
    1.9564   -2.6277    0.8651 C   0  0  0  0  0  0  0  0  0  0  0  0
    2.9730   -1.6667    0.3031 C   0  0  0  0  0  0  0  0  0  0  0  0
   -0.0161   -0.5692   -1.6282 C   0  0  0  0  0  0  0  0  0  0  0  0
    2.8164    0.7225   -0.4903 C   0  0  0  0  0  0  0  0  0  0  0  0
   -1.4872   -0.8395   -1.3720 C   0  0  0  0  0  0  0  0  0  0  0  0
   -3.5190    0.2760   -0.4603 C   0  0  1  0  0  0  0  0  0  0  0  0
    4.1448    0.9774   -1.1417 C   0  0  0  0  0  0  0  0  0  0  0  0
   -3.7895   -0.2225    0.9803 C   0  0  2  0  0  0  0  0  0  0  0  0
   -2.8545    0.4982    1.9757 C   0  0  0  0  0  0  0  0  0  0  0  0
   -3.6836   -1.7488    1.1035 C   0  0  0  0  0  0  0  0  0  0  0  0
    5.2295    1.4093   -0.4819 C   0  0  0  0  0  0  0  0  0  0  0  0
   -4.1391    1.6463   -0.7026 C   0  0  0  0  0  0  0  0  0  0  0  0
   -3.1475    0.1711    3.4338 C   0  0  0  0  0  0  0  0  0  0  0  0
    5.2522    1.6921    0.9910 C   0  0  0  0  0  0  0  0  0  0  0  0
    4.8798    3.1371    1.2842 C   0  0  0  0  0  0  0  0  0  0  0  0
    0.5476   -0.3147    0.4341 H   0  0  0  0  0  0  0  0  0  0  0  0
    2.6135   -1.0796   -1.7022 H   0  0  0  0  0  0  0  0  0  0  0  0
   -0.1776   -2.6383    0.4560 H   0  0  0  0  0  0  0  0  0  0  0  0
    0.8419   -3.0331   -0.9389 H   0  0  0  0  0  0  0  0  0  0  0  0
    1.7312   -2.3431    1.8967 H   0  0  0  0  0  0  0  0  0  0  0  0
    2.3129   -3.6586    0.8136 H   0  0  0  0  0  0  0  0  0  0  0  0
    0.2753   -1.1570   -2.5078 H   0  0  0  0  0  0  0  0  0  0  0  0
    0.1148    0.4827   -1.9083 H   0  0  0  0  0  0  0  0  0  0  0  0
    2.7899    0.9772    0.5725 H   0  0  0  0  0  0  0  0  0  0  0  0
    2.1045    1.4048   -0.9719 H   0  0  0  0  0  0  0  0  0  0  0  0
   -4.0312   -0.3880   -1.1695 H   0  0  0  0  0  0  0  0  0  0  0  0
    4.2176    0.8176   -2.2145 H   0  0  0  0  0  0  0  0  0  0  0  0
   -4.8244    0.0378    1.2416 H   0  0  0  0  0  0  0  0  0  0  0  0
   -1.5733    1.0920   -0.6013 H   0  0  0  0  0  0  0  0  0  0  0  0
   -2.9485    1.5832    1.8466 H   0  0  0  0  0  0  0  0  0  0  0  0
   -1.8068    0.2427    1.7774 H   0  0  0  0  0  0  0  0  0  0  0  0
   -4.0863   -2.0936    2.0613 H   0  0  0  0  0  0  0  0  0  0  0  0
   -2.6454   -2.0872    1.0367 H   0  0  0  0  0  0  0  0  0  0  0  0
   -4.2601   -2.2445    0.3156 H   0  0  0  0  0  0  0  0  0  0  0  0
    6.1449    1.5882   -1.0397 H   0  0  0  0  0  0  0  0  0  0  0  0
   -4.1965    0.3662    3.6774 H   0  0  0  0  0  0  0  0  0  0  0  0
   -2.5271    0.7918    4.0886 H   0  0  0  0  0  0  0  0  0  0  0  0
   -2.9241   -0.8745    3.6647 H   0  0  0  0  0  0  0  0  0  0  0  0
    6.2713    1.5075    1.3531 H   0  0  0  0  0  0  0  0  0  0  0  0
    4.6187    1.0083    1.5634 H   0  0  0  0  0  0  0  0  0  0  0  0
    5.5500    3.8326    0.7674 H   0  0  0  0  0  0  0  0  0  0  0  0
    3.8534    3.3570    0.9719 H   0  0  0  0  0  0  0  0  0  0  0  0
    4.9540    3.3344    2.3585 H   0  0  0  0  0  0  0  0  0  0  0  0
   -3.6995    3.4705   -1.2226 H   0  0  0  0  0  0  0  0  0  0  0  0
  1 10  2  0  0  0  0
  2 13  2  0  0  0  0
  3 20  1  0  0  0  0
  3 52  1  0  0  0  0
  4 20  2  0  0  0  0
  5 13  1  0  0  0  0
  5 14  1  0  0  0  0
  5 37  1  0  0  0  0
  6  7  1  0  0  0  0
  6  8  1  0  0  0  0
  6 11  1  0  0  0  0
  6 24  1  0  0  0  0
  7 10  1  0  0  0  0
  7 12  1  0  0  0  0
  7 25  1  0  0  0  0
  8  9  1  0  0  0  0
  8 26  1  0  0  0  0
  8 27  1  0  0  0  0
  9 10  1  0  0  0  0
  9 28  1  0  0  0  0
  9 29  1  0  0  0  0
 11 13  1  0  0  0  0
 11 30  1  0  0  0  0
 11 31  1  0  0  0  0
 12 15  1  0  0  0  0
 12 32  1  0  0  0  0
 12 33  1  0  0  0  0
 14 16  1  0  0  0  0
 14 20  1  0  0  0  0
 14 34  1  0  0  0  0
 15 19  2  0  0  0  0
 15 35  1  0  0  0  0
 16 17  1  0  0  0  0
 16 18  1  0  0  0  0
 16 36  1  0  0  0  0
 17 21  1  0  0  0  0
 17 38  1  0  0  0  0
 17 39  1  0  0  0  0
 18 40  1  0  0  0  0
 18 41  1  0  0  0  0
 18 42  1  0  0  0  0
 19 22  1  0  0  0  0
 19 43  1  0  0  0  0
 21 44  1  0  0  0  0
 21 45  1  0  0  0  0
 21 46  1  0  0  0  0
 22 23  1  0  0  0  0
 22 47  1  0  0  0  0
 22 48  1  0  0  0  0
 23 49  1  0  0  0  0
 23 50  1  0  0  0  0
 23 51  1  0  0  0  0
M  END
> <PUBCHEM_COMPOUND_CID>
5497150

> <PUBCHEM_CONFORMER_RMSD>
1

> <PUBCHEM_CONFORMER_DIVERSEORDER>
1
111
162
121
147
170
123
181
178
31
176
132
56
96
124
109
119
51
62
157
138
101
91
66
88
23
100
134
155
40
18
64
87
115
105
160
32
172
145
180
71
35
114
33
158
107
44
183
3
37
137
69
131
61
164
184
118
122
24
38
39
43
171
156
77
161
85
142
185
175
189
169
167
5
152
136
90
9
151
99
68
36
126
28
146
25
74
8
79
54
16
108
117
112
75
83
133
179
30
81
42
11
150
166
139
165
95
163
140
60
47
63
89
110
154
27
49
45
15
59
58
188
125
14
120
21
76
72
17
46
70
153
103
102
135
174
113
80
12
84
48
67
2
130
143
177
173
116
26
141
19
182
4
159
187
129
29
97
148
144
34
128
168
78
149
186
92
73
10
93
13
41
94
65
53
55
104
57
22
86
106
20
52
82
98
127
7
50
6

> <PUBCHEM_MMFF94_PARTIAL_CHARGES>
20
1 -0.57
10 0.45
11 0.06
12 0.14
13 0.57
14 0.36
15 -0.29
19 -0.29
2 -0.57
20 0.66
22 0.14
3 -0.65
35 0.15
37 0.37
4 -0.57
43 0.15
5 -0.73
52 0.5
7 0.06
9 0.06

> <PUBCHEM_EFFECTIVE_ROTOR_COUNT>
10.8

> <PUBCHEM_PHARMACOPHORE_FEATURES>
10
1 1 acceptor
1 18 hydrophobe
1 2 acceptor
1 21 hydrophobe
1 23 hydrophobe
1 3 acceptor
1 4 acceptor
1 5 donor
3 3 4 20 anion
5 6 7 8 9 10 rings

> <PUBCHEM_HEAVY_ATOM_COUNT>
23

> <PUBCHEM_ATOM_DEF_STEREO_COUNT>
4

> <PUBCHEM_ATOM_UDEF_STEREO_COUNT>
0

> <PUBCHEM_BOND_DEF_STEREO_COUNT>
1

> <PUBCHEM_BOND_UDEF_STEREO_COUNT>
0

> <PUBCHEM_ISOTOPIC_ATOM_COUNT>
0

> <PUBCHEM_COMPONENT_COUNT>
1

> <PUBCHEM_CACTVS_TAUTO_COUNT>
6

> <PUBCHEM_CONFORMER_ID>
0053E13E00000001

> <PUBCHEM_MMFF94_ENERGY>
31.9923

> <PUBCHEM_FEATURE_SELFOVERLAP>
50.805

> <PUBCHEM_SHAPE_FINGERPRINT>
10042902 136 13183026211778056024
10498660 4 17313111838465024311
10670039 82 16733256932869969608
11370993 144 17631449123760868907
12596602 18 18114457873114479643
12633257 1 16056876927209818996
12892183 10 18131344237334624767
13583140 156 18411978044652561417
13590594 115 17972588056114084594
13944108 23 5247465758278940539
13994607 96 17240478101072652451
14178342 30 16199854142579009339
14251764 38 18048599514808140677
14289901 80 17988629784006714455
14848178 5 10663833966089199068
20681651 13 18410285930886736939
20739085 24 18060420265939483116
21033650 10 14779538015514530298
21065199 12 18059849606124437831
21401589 2 17971757671152748064
21756936 100 18339362951338902982
22122407 14 18263357169659260697
221357 26 6555403202707717407
23559900 14 17702656803768572630
469060 322 18127124178541810457
49207404 50 17775277257987562526
5104073 3 18273218620359535059
5281201 14 5978096934220205002
5895379 119 16733258041256076504
633830 44 17459449208302576207
7970288 3 11383818368975929913
90127 26 18341323495960396494
9981440 41 18201722877369905969

> <PUBCHEM_SHAPE_MULTIPOLES>
444.87
12.06
3
2.11
5.11
0.38
1.55
9.05
2.31
1.88
0.34
-2.26
0.35
1.09

> <PUBCHEM_SHAPE_SELFOVERLAP>
881.235

> <PUBCHEM_SHAPE_VOLUME>
265.1

> <PUBCHEM_COORDINATE_TYPE>
2
5
10

$$$$

