443022
  -OEChem-07051213002D

 45 49  0     1  0  0  0  0  0999 V2000
    5.5734   -1.3307    0.0000 O   0  0  0  0  0  0  0  0  0  0  0  0
    7.8539    0.7227    0.0000 O   0  0  0  0  0  0  0  0  0  0  0  0
    6.4690    1.8441    0.0000 O   0  0  0  0  0  0  0  0  0  0  0  0
   11.5027   -0.4671    0.0000 O   0  0  0  0  0  0  0  0  0  0  0  0
   11.5027   -2.0766    0.0000 O   0  0  0  0  0  0  0  0  0  0  0  0
    2.0045   -0.3481    0.0000 O   0  0  0  0  0  0  0  0  0  0  0  0
    2.0011    1.6519    0.0000 O   0  0  0  0  0  0  0  0  0  0  0  0
    7.0448   -0.6786    0.0000 C   0  0  2  0  0  0  0  0  0  0  0  0
    6.3757    0.0645    0.0000 C   0  0  2  0  0  0  0  0  0  0  0  0
    7.9584   -0.2719    0.0000 C   0  0  2  0  0  0  0  0  0  0  0  0
    5.4686   -0.3421    0.0000 C   0  0  2  0  0  0  0  0  0  0  0  0
    6.5456   -1.5382    0.0000 C   0  0  0  0  0  0  0  0  0  0  0  0
    6.8757    0.9306    0.0000 C   0  0  0  0  0  0  0  0  0  0  0  0
    8.8244   -0.7719    0.0000 C   0  0  0  0  0  0  0  0  0  0  0  0
    4.6017    0.1564    0.0000 C   0  0  0  0  0  0  0  0  0  0  0  0
    9.6904   -0.2719    0.0000 C   0  0  0  0  0  0  0  0  0  0  0  0
    8.8244   -1.7719    0.0000 C   0  0  0  0  0  0  0  0  0  0  0  0
    3.7366   -0.3451    0.0000 C   0  0  0  0  0  0  0  0  0  0  0  0
    4.6000    1.1564    0.0000 C   0  0  0  0  0  0  0  0  0  0  0  0
   10.5565   -0.7719    0.0000 C   0  0  0  0  0  0  0  0  0  0  0  0
    9.6904   -2.2719    0.0000 C   0  0  0  0  0  0  0  0  0  0  0  0
    2.8697    0.1534    0.0000 C   0  0  0  0  0  0  0  0  0  0  0  0
   10.5565   -1.7719    0.0000 C   0  0  0  0  0  0  0  0  0  0  0  0
    3.7331    1.6549    0.0000 C   0  0  0  0  0  0  0  0  0  0  0  0
    2.8680    1.1534    0.0000 C   0  0  0  0  0  0  0  0  0  0  0  0
   12.0863   -1.2719    0.0000 C   0  0  0  0  0  0  0  0  0  0  0  0
    2.0063   -1.3481    0.0000 C   0  0  0  0  0  0  0  0  0  0  0  0
    7.6128   -1.3110    0.0000 H   0  0  0  0  0  0  0  0  0  0  0  0
    5.8061    0.6955    0.0000 H   0  0  0  0  0  0  0  0  0  0  0  0
    8.4784    0.0658    0.0000 H   0  0  0  0  0  0  0  0  0  0  0  0
    4.9491   -0.6805    0.0000 H   0  0  0  0  0  0  0  0  0  0  0  0
    6.3531   -2.1276    0.0000 H   0  0  0  0  0  0  0  0  0  0  0  0
    7.1115   -1.7915    0.0000 H   0  0  0  0  0  0  0  0  0  0  0  0
    9.6904    0.3481    0.0000 H   0  0  0  0  0  0  0  0  0  0  0  0
    8.2875   -2.0819    0.0000 H   0  0  0  0  0  0  0  0  0  0  0  0
    3.7376   -0.9651    0.0000 H   0  0  0  0  0  0  0  0  0  0  0  0
    5.1364    1.4673    0.0000 H   0  0  0  0  0  0  0  0  0  0  0  0
    9.6904   -2.8919    0.0000 H   0  0  0  0  0  0  0  0  0  0  0  0
    3.7320    2.2749    0.0000 H   0  0  0  0  0  0  0  0  0  0  0  0
   12.5472   -1.6866    0.0000 H   0  0  0  0  0  0  0  0  0  0  0  0
   12.5472   -0.8571    0.0000 H   0  0  0  0  0  0  0  0  0  0  0  0
    2.0000    2.2719    0.0000 H   0  0  0  0  0  0  0  0  0  0  0  0
    1.3863   -1.3492    0.0000 H   0  0  0  0  0  0  0  0  0  0  0  0
    2.0073   -1.9681    0.0000 H   0  0  0  0  0  0  0  0  0  0  0  0
    2.6263   -1.3471    0.0000 H   0  0  0  0  0  0  0  0  0  0  0  0
  1 11  1  0  0  0  0
  1 12  1  0  0  0  0
  2 10  1  0  0  0  0
  2 13  1  0  0  0  0
  3 13  2  0  0  0  0
  4 20  1  0  0  0  0
  4 26  1  0  0  0  0
  5 23  1  0  0  0  0
  5 26  1  0  0  0  0
  6 22  1  0  0  0  0
  6 27  1  0  0  0  0
  7 25  1  0  0  0  0
  7 42  1  0  0  0  0
  8  9  1  0  0  0  0
  8 10  1  0  0  0  0
  8 12  1  0  0  0  0
  8 28  1  1  0  0  0
  9 11  1  0  0  0  0
  9 13  1  0  0  0  0
  9 29  1  1  0  0  0
 10 14  1  1  0  0  0
 10 30  1  0  0  0  0
 11 15  1  1  0  0  0
 11 31  1  0  0  0  0
 12 32  1  0  0  0  0
 12 33  1  0  0  0  0
 14 16  2  0  0  0  0
 14 17  1  0  0  0  0
 15 18  2  0  0  0  0
 15 19  1  0  0  0  0
 16 20  1  0  0  0  0
 16 34  1  0  0  0  0
 17 21  2  0  0  0  0
 17 35  1  0  0  0  0
 18 22  1  0  0  0  0
 18 36  1  0  0  0  0
 19 24  2  0  0  0  0
 19 37  1  0  0  0  0
 20 23  2  0  0  0  0
 21 23  1  0  0  0  0
 21 38  1  0  0  0  0
 22 25  2  0  0  0  0
 24 25  1  0  0  0  0
 24 39  1  0  0  0  0
 26 40  1  0  0  0  0
 26 41  1  0  0  0  0
 27 43  1  0  0  0  0
 27 44  1  0  0  0  0
 27 45  1  0  0  0  0
M  END
> <PUBCHEM_COMPOUND_CID>
443022

> <PUBCHEM_COMPOUND_CANONICALIZED>
1

> <PUBCHEM_CACTVS_COMPLEXITY>
569

> <PUBCHEM_CACTVS_HBOND_ACCEPTOR>
7

> <PUBCHEM_CACTVS_HBOND_DONOR>
1

> <PUBCHEM_CACTVS_ROTATABLE_BOND>
3

> <PUBCHEM_CACTVS_SUBSKEYS>
AAADceB4OAAAAAAAAAAAAAAAAAAAASJEgAAwYAAAAAASAEgBQAAAGgAACAAADRSgmAMyDoAABgCIAiDSCAACCAAgIAAIiAEGiIgdJjaGMRqicCMl4BEPuAfK6PyOoAABAAAAQABAAAIAAACAAAAAAAAAAA==

> <PUBCHEM_IUPAC_OPENEYE_NAME>
(3R,3aR,6R,6aS)-6-(1,3-benzodioxol-5-yl)-3-(4-hydroxy-3-methoxy-phenyl)-3,3a,6,6a-tetrahydro-1H-furo[3,4-c]furan-4-one

> <PUBCHEM_IUPAC_CAS_NAME>
(3R,3aR,6R,6aS)-6-(1,3-benzodioxol-5-yl)-3-(4-hydroxy-3-methoxyphenyl)-3,3a,6,6a-tetrahydro-1H-furo[3,4-c]furan-4-one

> <PUBCHEM_IUPAC_NAME>
(3R,3aR,6R,6aS)-6-(1,3-benzodioxol-5-yl)-3-(4-hydroxy-3-methoxyphenyl)-3,3a,6,6a-tetrahydro-1H-furo[3,4-c]furan-4-one

> <PUBCHEM_IUPAC_SYSTEMATIC_NAME>
(3R,3aR,6R,6aS)-6-(1,3-benzodioxol-5-yl)-3-(3-methoxy-4-oxidanyl-phenyl)-3,3a,6,6a-tetrahydro-1H-furo[3,4-c]furan-4-one

> <PUBCHEM_IUPAC_TRADITIONAL_NAME>
(3R,3aR,6R,6aS)-6-(1,3-benzodioxol-5-yl)-3-(4-hydroxy-3-methoxy-phenyl)-3,3a,6,6a-tetrahydro-1H-furo[3,4-c]furan-4-one

> <PUBCHEM_IUPAC_INCHI>
InChI=1S/C20H18O7/c1-23-15-6-11(2-4-13(15)21)19-17-12(8-24-19)18(27-20(17)22)10-3-5-14-16(7-10)26-9-25-14/h2-7,12,17-19,21H,8-9H2,1H3/t12-,17-,18+,19+/m1/s1

> <PUBCHEM_IUPAC_INCHIKEY>
ADTULSGZUFJGNI-WSFKTYETSA-N

> <PUBCHEM_XLOGP3_AA>
2.2

> <PUBCHEM_EXACT_MASS>
370.105253

> <PUBCHEM_MOLECULAR_FORMULA>
C20H18O7

> <PUBCHEM_MOLECULAR_WEIGHT>
370.35272

> <PUBCHEM_OPENEYE_CAN_SMILES>
COC1=C(C=CC(=C1)C2C3C(CO2)C(OC3=O)C4=CC5=C(C=C4)OCO5)O

> <PUBCHEM_OPENEYE_ISO_SMILES>
COC1=C(C=CC(=C1)[C@H]2[C@H]3[C@@H](CO2)[C@@H](OC3=O)C4=CC5=C(C=C4)OCO5)O

> <PUBCHEM_CACTVS_TPSA>
83.4

> <PUBCHEM_MONOISOTOPIC_WEIGHT>
370.105253

> <PUBCHEM_TOTAL_CHARGE>
0

> <PUBCHEM_HEAVY_ATOM_COUNT>
27

> <PUBCHEM_ATOM_DEF_STEREO_COUNT>
4

> <PUBCHEM_ATOM_UDEF_STEREO_COUNT>
0

> <PUBCHEM_BOND_DEF_STEREO_COUNT>
0

> <PUBCHEM_BOND_UDEF_STEREO_COUNT>
0

> <PUBCHEM_ISOTOPIC_ATOM_COUNT>
0

> <PUBCHEM_COMPONENT_COUNT>
1

> <PUBCHEM_CACTVS_TAUTO_COUNT>
6

> <PUBCHEM_COORDINATE_TYPE>
1
5
255

> <PUBCHEM_BONDANNOTATIONS>
10  14  5
11  15  5
14  16  8
14  17  8
15  18  8
15  19  8
16  20  8
17  21  8
18  22  8
19  24  8
20  23  8
21  23  8
22  25  8
24  25  8
8  28  5
9  29  5

$$$$

