17395595
  -OEChem-06241222512D

 54 57  0     0  0  0  0  0  0999 V2000
    6.1808    0.9159    0.0000 S   0  0  0  0  0  0  0  0  0  0  0  0
    7.3618    6.0434    0.0000 S   0  0  0  0  0  0  0  0  0  0  0  0
    6.1808   -1.0841    0.0000 O   0  0  0  0  0  0  0  0  0  0  0  0
    3.5827   -5.5841    0.0000 N   0  0  0  0  0  0  0  0  0  0  0  0
    4.4487   -1.0841    0.0000 N   0  0  0  0  0  0  0  0  0  0  0  0
    6.9898    2.5037    0.0000 N   0  0  0  0  0  0  0  0  0  0  0  0
    5.6808    3.4548    0.0000 N   0  0  0  0  0  0  0  0  0  0  0  0
    5.3717    2.5037    0.0000 N   0  0  0  0  0  0  0  0  0  0  0  0
    2.6691   -5.1773    0.0000 C   0  0  0  0  0  0  0  0  0  0  0  0
    3.4782   -6.5786    0.0000 C   0  0  0  0  0  0  0  0  0  0  0  0
    2.0000   -5.9205    0.0000 C   0  0  0  0  0  0  0  0  0  0  0  0
    2.5000   -6.7865    0.0000 C   0  0  0  0  0  0  0  0  0  0  0  0
    4.4487   -5.0841    0.0000 C   0  0  0  0  0  0  0  0  0  0  0  0
    4.4487   -4.0841    0.0000 C   0  0  0  0  0  0  0  0  0  0  0  0
    5.3147   -3.5841    0.0000 C   0  0  0  0  0  0  0  0  0  0  0  0
    3.5827   -3.5841    0.0000 C   0  0  0  0  0  0  0  0  0  0  0  0
    5.3147   -2.5841    0.0000 C   0  0  0  0  0  0  0  0  0  0  0  0
    3.5827   -2.5841    0.0000 C   0  0  0  0  0  0  0  0  0  0  0  0
    4.4487   -2.0841    0.0000 C   0  0  0  0  0  0  0  0  0  0  0  0
    6.6808    3.4548    0.0000 C   0  0  0  0  0  0  0  0  0  0  0  0
    7.2685    4.2638    0.0000 C   0  0  0  0  0  0  0  0  0  0  0  0
    5.3147   -0.5841    0.0000 C   0  0  0  0  0  0  0  0  0  0  0  0
    6.1808    1.9159    0.0000 C   0  0  0  0  0  0  0  0  0  0  0  0
    5.3147    0.4159    0.0000 C   0  0  0  0  0  0  0  0  0  0  0  0
    6.8618    5.1773    0.0000 C   0  0  0  0  0  0  0  0  0  0  0  0
    7.9408    2.1947    0.0000 C   0  0  0  0  0  0  0  0  0  0  0  0
    5.8836    5.3852    0.0000 C   0  0  0  0  0  0  0  0  0  0  0  0
    5.7791    6.3798    0.0000 C   0  0  0  0  0  0  0  0  0  0  0  0
    6.6927    6.7865    0.0000 C   0  0  0  0  0  0  0  0  0  0  0  0
    2.9791   -4.6404    0.0000 H   0  0  0  0  0  0  0  0  0  0  0  0
    2.1675   -4.8129    0.0000 H   0  0  0  0  0  0  0  0  0  0  0  0
    3.5430   -7.1952    0.0000 H   0  0  0  0  0  0  0  0  0  0  0  0
    4.0982   -6.5786    0.0000 H   0  0  0  0  0  0  0  0  0  0  0  0
    1.5851   -5.4597    0.0000 H   0  0  0  0  0  0  0  0  0  0  0  0
    1.4984   -6.2849    0.0000 H   0  0  0  0  0  0  0  0  0  0  0  0
    1.9336   -7.0387    0.0000 H   0  0  0  0  0  0  0  0  0  0  0  0
    2.6916   -7.3762    0.0000 H   0  0  0  0  0  0  0  0  0  0  0  0
    4.6608   -5.6667    0.0000 H   0  0  0  0  0  0  0  0  0  0  0  0
    5.0593   -4.9764    0.0000 H   0  0  0  0  0  0  0  0  0  0  0  0
    5.8517   -3.8941    0.0000 H   0  0  0  0  0  0  0  0  0  0  0  0
    3.0457   -3.8941    0.0000 H   0  0  0  0  0  0  0  0  0  0  0  0
    5.8517   -2.2741    0.0000 H   0  0  0  0  0  0  0  0  0  0  0  0
    3.0457   -2.2741    0.0000 H   0  0  0  0  0  0  0  0  0  0  0  0
    3.9118   -0.7741    0.0000 H   0  0  0  0  0  0  0  0  0  0  0  0
    7.6992    3.8178    0.0000 H   0  0  0  0  0  0  0  0  0  0  0  0
    7.7825    4.6105    0.0000 H   0  0  0  0  0  0  0  0  0  0  0  0
    5.1027    0.9985    0.0000 H   0  0  0  0  0  0  0  0  0  0  0  0
    4.7042    0.3083    0.0000 H   0  0  0  0  0  0  0  0  0  0  0  0
    7.7492    1.6050    0.0000 H   0  0  0  0  0  0  0  0  0  0  0  0
    8.5305    2.0031    0.0000 H   0  0  0  0  0  0  0  0  0  0  0  0
    8.1324    2.7844    0.0000 H   0  0  0  0  0  0  0  0  0  0  0  0
    5.4229    4.9704    0.0000 H   0  0  0  0  0  0  0  0  0  0  0  0
    5.2422    6.6898    0.0000 H   0  0  0  0  0  0  0  0  0  0  0  0
    6.8216    7.3930    0.0000 H   0  0  0  0  0  0  0  0  0  0  0  0
  1 23  1  0  0  0  0
  1 24  1  0  0  0  0
  2 25  1  0  0  0  0
  2 29  1  0  0  0  0
  3 22  2  0  0  0  0
  4  9  1  0  0  0  0
  4 10  1  0  0  0  0
  4 13  1  0  0  0  0
  5 19  1  0  0  0  0
  5 22  1  0  0  0  0
  5 44  1  0  0  0  0
  6 20  1  0  0  0  0
  6 23  1  0  0  0  0
  6 26  1  0  0  0  0
  7  8  1  0  0  0  0
  7 20  2  0  0  0  0
  8 23  2  0  0  0  0
  9 11  1  0  0  0  0
  9 30  1  0  0  0  0
  9 31  1  0  0  0  0
 10 12  1  0  0  0  0
 10 32  1  0  0  0  0
 10 33  1  0  0  0  0
 11 12  1  0  0  0  0
 11 34  1  0  0  0  0
 11 35  1  0  0  0  0
 12 36  1  0  0  0  0
 12 37  1  0  0  0  0
 13 14  1  0  0  0  0
 13 38  1  0  0  0  0
 13 39  1  0  0  0  0
 14 15  2  0  0  0  0
 14 16  1  0  0  0  0
 15 17  1  0  0  0  0
 15 40  1  0  0  0  0
 16 18  2  0  0  0  0
 16 41  1  0  0  0  0
 17 19  2  0  0  0  0
 17 42  1  0  0  0  0
 18 19  1  0  0  0  0
 18 43  1  0  0  0  0
 20 21  1  0  0  0  0
 21 25  1  0  0  0  0
 21 45  1  0  0  0  0
 21 46  1  0  0  0  0
 22 24  1  0  0  0  0
 24 47  1  0  0  0  0
 24 48  1  0  0  0  0
 25 27  2  0  0  0  0
 26 49  1  0  0  0  0
 26 50  1  0  0  0  0
 26 51  1  0  0  0  0
 27 28  1  0  0  0  0
 27 52  1  0  0  0  0
 28 29  2  0  0  0  0
 28 53  1  0  0  0  0
 29 54  1  0  0  0  0
M  END
> <PUBCHEM_COMPOUND_CID>
17395595

> <PUBCHEM_COMPOUND_CANONICALIZED>
1

> <PUBCHEM_CACTVS_COMPLEXITY>
525

> <PUBCHEM_CACTVS_HBOND_ACCEPTOR>
6

> <PUBCHEM_CACTVS_HBOND_DONOR>
1

> <PUBCHEM_CACTVS_ROTATABLE_BOND>
8

> <PUBCHEM_CACTVS_SUBSKEYS>
AAADceB7oABgAAAAAAAAAAAAAAAAAWLEgAAwAAAAAAAAAAAB8AAAHgQYAAAADAjF2wSz0YfMEAiuAidydACT0IthCrBdyBg4ZIiIKCLgmZGEIAhgnALoyAcQgAAOCAAAAAAAAAAQAAAAAAAAAAAAAAAAAA==

> <PUBCHEM_IUPAC_OPENEYE_NAME>
2-[[4-methyl-5-(2-thienylmethyl)-1,2,4-triazol-3-yl]sulfanyl]-N-[4-(pyrrolidin-1-ylmethyl)phenyl]acetamide

> <PUBCHEM_IUPAC_CAS_NAME>
2-[[4-methyl-5-(thiophen-2-ylmethyl)-1,2,4-triazol-3-yl]thio]-N-[4-(1-pyrrolidinylmethyl)phenyl]acetamide

> <PUBCHEM_IUPAC_NAME>
2-[[4-methyl-5-(thiophen-2-ylmethyl)-1,2,4-triazol-3-yl]sulfanyl]-N-[4-(pyrrolidin-1-ylmethyl)phenyl]acetamide

> <PUBCHEM_IUPAC_SYSTEMATIC_NAME>
2-[[4-methyl-5-(thiophen-2-ylmethyl)-1,2,4-triazol-3-yl]sulfanyl]-N-[4-(pyrrolidin-1-ylmethyl)phenyl]ethanamide

> <PUBCHEM_IUPAC_TRADITIONAL_NAME>
2-[[4-methyl-5-(2-thenyl)-1,2,4-triazol-3-yl]thio]-N-[4-(pyrrolidinomethyl)phenyl]acetamide

> <PUBCHEM_IUPAC_INCHI>
InChI=1S/C21H25N5OS2/c1-25-19(13-18-5-4-12-28-18)23-24-21(25)29-15-20(27)22-17-8-6-16(7-9-17)14-26-10-2-3-11-26/h4-9,12H,2-3,10-11,13-15H2,1H3,(H,22,27)

> <PUBCHEM_IUPAC_INCHIKEY>
CSJQTVRPJYUDHW-UHFFFAOYSA-N

> <PUBCHEM_XLOGP3_AA>
3.2

> <PUBCHEM_EXACT_MASS>
427.150052

> <PUBCHEM_MOLECULAR_FORMULA>
C21H25N5OS2

> <PUBCHEM_MOLECULAR_WEIGHT>
427.5861

> <PUBCHEM_OPENEYE_CAN_SMILES>
CN1C(=NN=C1SCC(=O)NC2=CC=C(C=C2)CN3CCCC3)CC4=CC=CS4

> <PUBCHEM_OPENEYE_ISO_SMILES>
CN1C(=NN=C1SCC(=O)NC2=CC=C(C=C2)CN3CCCC3)CC4=CC=CS4

> <PUBCHEM_CACTVS_TPSA>
117

> <PUBCHEM_MONOISOTOPIC_WEIGHT>
427.150052

> <PUBCHEM_TOTAL_CHARGE>
0

> <PUBCHEM_HEAVY_ATOM_COUNT>
29

> <PUBCHEM_ATOM_DEF_STEREO_COUNT>
0

> <PUBCHEM_ATOM_UDEF_STEREO_COUNT>
0

> <PUBCHEM_BOND_DEF_STEREO_COUNT>
0

> <PUBCHEM_BOND_UDEF_STEREO_COUNT>
0

> <PUBCHEM_ISOTOPIC_ATOM_COUNT>
0

> <PUBCHEM_COMPONENT_COUNT>
1

> <PUBCHEM_CACTVS_TAUTO_COUNT>
3

> <PUBCHEM_COORDINATE_TYPE>
1
5
255

> <PUBCHEM_BONDANNOTATIONS>
14  15  8
14  16  8
15  17  8
16  18  8
17  19  8
18  19  8
2  25  8
2  29  8
25  27  8
27  28  8
28  29  8
6  20  8
6  23  8
7  20  8
7  8  8
8  23  8

$$$$

