440806
  -OEChem-07051212502D

 30 31  0     0  0  0  0  0  0999 V2000
    2.5369   -0.7351    0.0000 O   0  0  0  0  0  0  0  0  0  0  0  0
    8.0382   -0.5179    0.0000 O   0  0  0  0  0  0  0  0  0  0  0  0
    9.9487    2.5398    0.0000 O   0  0  0  0  0  0  0  0  0  0  0  0
    8.3024    3.0779    0.0000 O   0  0  0  0  0  0  0  0  0  0  0  0
    6.0812   -2.5398    0.0000 N   0  0  0  0  0  0  0  0  0  0  0  0
    7.6811    1.1769    0.0000 N   0  0  0  0  0  0  0  0  0  0  0  0
    6.0812   -0.9304    0.0000 C   0  0  0  0  0  0  0  0  0  0  0  0
    5.1350   -1.2351    0.0000 C   0  0  0  0  0  0  0  0  0  0  0  0
    5.1350   -2.2351    0.0000 C   0  0  0  0  0  0  0  0  0  0  0  0
    6.3919    0.0201    0.0000 C   0  0  0  0  0  0  0  0  0  0  0  0
    6.6648   -1.7351    0.0000 C   0  0  0  0  0  0  0  0  0  0  0  0
    4.2690   -0.7351    0.0000 C   0  0  0  0  0  0  0  0  0  0  0  0
    4.2690   -2.7351    0.0000 C   0  0  0  0  0  0  0  0  0  0  0  0
    7.3704    0.2264    0.0000 C   0  0  0  0  0  0  0  0  0  0  0  0
    3.4030   -1.2351    0.0000 C   0  0  0  0  0  0  0  0  0  0  0  0
    3.4030   -2.2351    0.0000 C   0  0  0  0  0  0  0  0  0  0  0  0
    8.6596    1.3831    0.0000 C   0  0  0  0  0  0  0  0  0  0  0  0
    8.9702    2.3336    0.0000 C   0  0  0  0  0  0  0  0  0  0  0  0
    6.3713    0.6398    0.0000 H   0  0  0  0  0  0  0  0  0  0  0  0
    5.7781    0.1075    0.0000 H   0  0  0  0  0  0  0  0  0  0  0  0
    7.2848   -1.7351    0.0000 H   0  0  0  0  0  0  0  0  0  0  0  0
    6.2738   -3.1292    0.0000 H   0  0  0  0  0  0  0  0  0  0  0  0
    4.2690   -0.1151    0.0000 H   0  0  0  0  0  0  0  0  0  0  0  0
    4.2690   -3.3551    0.0000 H   0  0  0  0  0  0  0  0  0  0  0  0
    2.8660   -2.5451    0.0000 H   0  0  0  0  0  0  0  0  0  0  0  0
    7.2670    1.6384    0.0000 H   0  0  0  0  0  0  0  0  0  0  0  0
    8.6801    0.7634    0.0000 H   0  0  0  0  0  0  0  0  0  0  0  0
    9.2734    1.2958    0.0000 H   0  0  0  0  0  0  0  0  0  0  0  0
    2.0000   -1.0451    0.0000 H   0  0  0  0  0  0  0  0  0  0  0  0
   10.1413    3.1292    0.0000 H   0  0  0  0  0  0  0  0  0  0  0  0
  1 15  1  0  0  0  0
  1 29  1  0  0  0  0
  2 14  2  0  0  0  0
  3 18  1  0  0  0  0
  3 30  1  0  0  0  0
  4 18  2  0  0  0  0
  5  9  1  0  0  0  0
  5 11  1  0  0  0  0
  5 22  1  0  0  0  0
  6 14  1  0  0  0  0
  6 17  1  0  0  0  0
  6 26  1  0  0  0  0
  7  8  1  0  0  0  0
  7 10  1  0  0  0  0
  7 11  2  0  0  0  0
  8  9  2  0  0  0  0
  8 12  1  0  0  0  0
  9 13  1  0  0  0  0
 10 14  1  0  0  0  0
 10 19  1  0  0  0  0
 10 20  1  0  0  0  0
 11 21  1  0  0  0  0
 12 15  2  0  0  0  0
 12 23  1  0  0  0  0
 13 16  2  0  0  0  0
 13 24  1  0  0  0  0
 15 16  1  0  0  0  0
 16 25  1  0  0  0  0
 17 18  1  0  0  0  0
 17 27  1  0  0  0  0
 17 28  1  0  0  0  0
M  END
> <PUBCHEM_COMPOUND_CID>
440806

> <PUBCHEM_COMPOUND_CANONICALIZED>
1

> <PUBCHEM_CACTVS_COMPLEXITY>
334

> <PUBCHEM_CACTVS_HBOND_ACCEPTOR>
4

> <PUBCHEM_CACTVS_HBOND_DONOR>
4

> <PUBCHEM_CACTVS_ROTATABLE_BOND>
4

> <PUBCHEM_CACTVS_SUBSKEYS>
AAADccBzOAAAAAAAAAAAAAAAAAAAAWAAAAAwAAAAAAAAAFgB8AAAHgAQCAAADAzBngQ8zvLJkgCoAzX3XACCgCAxIiAI2aG+bJgKJvLClbOEcAhk1hHY2Ae82fKegEABAAACAAAAgAIAAAQAAAAAAAAAAA==

> <PUBCHEM_IUPAC_OPENEYE_NAME>
2-[[2-(5-hydroxy-1H-indol-3-yl)acetyl]amino]acetic acid

> <PUBCHEM_IUPAC_CAS_NAME>
2-[[2-(5-hydroxy-1H-indol-3-yl)-1-oxoethyl]amino]acetic acid

> <PUBCHEM_IUPAC_NAME>
2-[[2-(5-hydroxy-1H-indol-3-yl)acetyl]amino]acetic acid

> <PUBCHEM_IUPAC_SYSTEMATIC_NAME>
2-[2-(5-oxidanyl-1H-indol-3-yl)ethanoylamino]ethanoic acid

> <PUBCHEM_IUPAC_TRADITIONAL_NAME>
2-[[2-(5-hydroxy-1H-indol-3-yl)acetyl]amino]acetic acid

> <PUBCHEM_IUPAC_INCHI>
InChI=1S/C12H12N2O4/c15-8-1-2-10-9(4-8)7(5-13-10)3-11(16)14-6-12(17)18/h1-2,4-5,13,15H,3,6H2,(H,14,16)(H,17,18)

> <PUBCHEM_IUPAC_INCHIKEY>
LFUCRBSGQMAKCO-UHFFFAOYSA-N

> <PUBCHEM_XLOGP3_AA>
0.5

> <PUBCHEM_EXACT_MASS>
248.079707

> <PUBCHEM_MOLECULAR_FORMULA>
C12H12N2O4

> <PUBCHEM_MOLECULAR_WEIGHT>
248.23468

> <PUBCHEM_OPENEYE_CAN_SMILES>
C1=CC2=C(C=C1O)C(=CN2)CC(=O)NCC(=O)O

> <PUBCHEM_OPENEYE_ISO_SMILES>
C1=CC2=C(C=C1O)C(=CN2)CC(=O)NCC(=O)O

> <PUBCHEM_CACTVS_TPSA>
102

> <PUBCHEM_MONOISOTOPIC_WEIGHT>
248.079707

> <PUBCHEM_TOTAL_CHARGE>
0

> <PUBCHEM_HEAVY_ATOM_COUNT>
18

> <PUBCHEM_ATOM_DEF_STEREO_COUNT>
0

> <PUBCHEM_ATOM_UDEF_STEREO_COUNT>
0

> <PUBCHEM_BOND_DEF_STEREO_COUNT>
0

> <PUBCHEM_BOND_UDEF_STEREO_COUNT>
0

> <PUBCHEM_ISOTOPIC_ATOM_COUNT>
0

> <PUBCHEM_COMPONENT_COUNT>
1

> <PUBCHEM_CACTVS_TAUTO_COUNT>
18

> <PUBCHEM_COORDINATE_TYPE>
1
5
255

> <PUBCHEM_BONDANNOTATIONS>
12  15  8
13  16  8
15  16  8
5  11  8
5  9  8
7  11  8
7  8  8
8  12  8
8  9  8
9  13  8

$$$$

