3035026
  -OEChem-07051212503D

 75 78  0     1  0  0  0  0  0999 V2000
    0.7083   -1.4385    1.0873 O   0  0  0  0  0  0  0  0  0  0  0  0
    6.1096   -3.2863   -1.1018 O   0  0  0  0  0  0  0  0  0  0  0  0
   -5.3895   -1.7958   -1.5362 O   0  0  0  0  0  0  0  0  0  0  0  0
   -7.4410    0.9846   -0.5870 O   0  0  0  0  0  0  0  0  0  0  0  0
   -9.4621   -0.0457   -0.6246 O   0  0  0  0  0  0  0  0  0  0  0  0
   -6.1713   -1.0180    0.5092 N   0  0  0  0  0  0  0  0  0  0  0  0
    0.2966    0.9182    0.5984 C   0  0  1  0  0  0  0  0  0  0  0  0
    1.0605    0.8446   -0.7452 C   0  0  2  0  0  0  0  0  0  0  0  0
    2.5493    1.1875   -0.6065 C   0  0  1  0  0  0  0  0  0  0  0  0
    3.2096    0.1866    0.3965 C   0  0  1  0  0  0  0  0  0  0  0  0
    4.7555    0.4482    0.5574 C   0  0  2  0  0  0  0  0  0  0  0  0
   -1.1297    0.5954    0.0787 C   0  0  2  0  0  0  0  0  0  0  0  0
    0.9130   -0.1099    1.5691 C   0  0  2  0  0  0  0  0  0  0  0  0
    2.4299    0.1221    1.7414 C   0  0  0  0  0  0  0  0  0  0  0  0
    5.4369    0.4260   -0.8525 C   0  0  2  0  0  0  0  0  0  0  0  0
    0.2014    1.6746   -1.6966 C   0  0  0  0  0  0  0  0  0  0  0  0
    3.2555    1.1600   -1.9684 C   0  0  0  0  0  0  0  0  0  0  0  0
   -1.2414    1.4184   -1.2257 C   0  0  0  0  0  0  0  0  0  0  0  0
    4.7589    1.3868   -1.8431 C   0  0  0  0  0  0  0  0  0  0  0  0
    5.4491   -0.6170    1.4564 C   0  0  0  0  0  0  0  0  0  0  0  0
    0.3353    2.3224    1.2595 C   0  0  0  0  0  0  0  0  0  0  0  0
   -2.2770    0.8554    1.0443 C   0  0  1  0  0  0  0  0  0  0  0  0
    5.5135   -0.9930   -1.4551 C   0  0  0  0  0  0  0  0  0  0  0  0
    5.0214    1.8183    1.2340 C   0  0  0  0  0  0  0  0  0  0  0  0
    5.4885   -2.0122    0.8463 C   0  0  0  0  0  0  0  0  0  0  0  0
    6.1762   -1.9918   -0.5128 C   0  0  1  0  0  0  0  0  0  0  0  0
   -3.6533    0.5030    0.4444 C   0  0  0  0  0  0  0  0  0  0  0  0
   -2.0664    0.0569    2.3359 C   0  0  0  0  0  0  0  0  0  0  0  0
   -3.8024   -0.9792    0.0996 C   0  0  0  0  0  0  0  0  0  0  0  0
   -5.1887   -1.3153   -0.4241 C   0  0  0  0  0  0  0  0  0  0  0  0
   -7.5786   -1.2455    0.2738 C   0  0  0  0  0  0  0  0  0  0  0  0
   -8.2678   -0.0608   -0.3525 C   0  0  0  0  0  0  0  0  0  0  0  0
    1.0120   -0.1892   -1.1249 H   0  0  0  0  0  0  0  0  0  0  0  0
    2.6398    2.2077   -0.2201 H   0  0  0  0  0  0  0  0  0  0  0  0
    3.0950   -0.8101   -0.0506 H   0  0  0  0  0  0  0  0  0  0  0  0
   -1.1463   -0.4624   -0.2145 H   0  0  0  0  0  0  0  0  0  0  0  0
    0.4756   -0.0577    2.5662 H   0  0  0  0  0  0  0  0  0  0  0  0
    2.8277   -0.7019    2.3439 H   0  0  0  0  0  0  0  0  0  0  0  0
    2.5895    1.0400    2.3148 H   0  0  0  0  0  0  0  0  0  0  0  0
    6.4756    0.7681   -0.7353 H   0  0  0  0  0  0  0  0  0  0  0  0
    0.4418    2.7415   -1.6287 H   0  0  0  0  0  0  0  0  0  0  0  0
    0.3374    1.3710   -2.7397 H   0  0  0  0  0  0  0  0  0  0  0  0
    3.0639    0.2055   -2.4728 H   0  0  0  0  0  0  0  0  0  0  0  0
    2.8403    1.9387   -2.6195 H   0  0  0  0  0  0  0  0  0  0  0  0
   -1.8049    0.8640   -1.9844 H   0  0  0  0  0  0  0  0  0  0  0  0
   -1.7530    2.3752   -1.0709 H   0  0  0  0  0  0  0  0  0  0  0  0
    4.9382    2.4223   -1.5298 H   0  0  0  0  0  0  0  0  0  0  0  0
    5.2215    1.2910   -2.8332 H   0  0  0  0  0  0  0  0  0  0  0  0
    6.4869   -0.3055    1.6424 H   0  0  0  0  0  0  0  0  0  0  0  0
    4.9814   -0.6645    2.4456 H   0  0  0  0  0  0  0  0  0  0  0  0
   -0.1654    2.3200    2.2328 H   0  0  0  0  0  0  0  0  0  0  0  0
    1.3539    2.6747    1.4419 H   0  0  0  0  0  0  0  0  0  0  0  0
   -0.1540    3.0875    0.6489 H   0  0  0  0  0  0  0  0  0  0  0  0
   -2.3200    1.9204    1.3045 H   0  0  0  0  0  0  0  0  0  0  0  0
    4.5205   -1.3665   -1.7315 H   0  0  0  0  0  0  0  0  0  0  0  0
    6.0773   -0.9664   -2.3971 H   0  0  0  0  0  0  0  0  0  0  0  0
    6.0956    2.0377    1.2588 H   0  0  0  0  0  0  0  0  0  0  0  0
    4.6731    1.8281    2.2720 H   0  0  0  0  0  0  0  0  0  0  0  0
    4.5393    2.6514    0.7173 H   0  0  0  0  0  0  0  0  0  0  0  0
    6.0266   -2.6935    1.5170 H   0  0  0  0  0  0  0  0  0  0  0  0
    4.4790   -2.4309    0.7582 H   0  0  0  0  0  0  0  0  0  0  0  0
    7.2354   -1.7341   -0.3942 H   0  0  0  0  0  0  0  0  0  0  0  0
    1.0972   -2.0505    1.7349 H   0  0  0  0  0  0  0  0  0  0  0  0
   -3.8410    1.1035   -0.4542 H   0  0  0  0  0  0  0  0  0  0  0  0
   -4.4233    0.8134    1.1609 H   0  0  0  0  0  0  0  0  0  0  0  0
   -1.3881    0.5726    3.0183 H   0  0  0  0  0  0  0  0  0  0  0  0
   -1.7120   -0.9620    2.1570 H   0  0  0  0  0  0  0  0  0  0  0  0
   -3.0087   -0.0252    2.8919 H   0  0  0  0  0  0  0  0  0  0  0  0
   -3.0905   -1.2742   -0.6780 H   0  0  0  0  0  0  0  0  0  0  0  0
   -3.6239   -1.6185    0.9708 H   0  0  0  0  0  0  0  0  0  0  0  0
    6.5404   -3.9085   -0.4911 H   0  0  0  0  0  0  0  0  0  0  0  0
   -5.9066   -0.6598    1.4215 H   0  0  0  0  0  0  0  0  0  0  0  0
   -7.6978   -2.1082   -0.3883 H   0  0  0  0  0  0  0  0  0  0  0  0
   -8.0413   -1.4465    1.2441 H   0  0  0  0  0  0  0  0  0  0  0  0
   -7.9126    1.7418   -0.9952 H   0  0  0  0  0  0  0  0  0  0  0  0
  1 13  1  0  0  0  0
  1 63  1  0  0  0  0
  2 26  1  0  0  0  0
  2 71  1  0  0  0  0
  3 30  2  0  0  0  0
  4 32  1  0  0  0  0
  4 75  1  0  0  0  0
  5 32  2  0  0  0  0
  6 30  1  0  0  0  0
  6 31  1  0  0  0  0
  6 72  1  0  0  0  0
  7  8  1  0  0  0  0
  7 12  1  0  0  0  0
  7 13  1  0  0  0  0
  7 21  1  0  0  0  0
  8  9  1  0  0  0  0
  8 16  1  0  0  0  0
  8 33  1  0  0  0  0
  9 10  1  0  0  0  0
  9 17  1  0  0  0  0
  9 34  1  0  0  0  0
 10 11  1  0  0  0  0
 10 14  1  0  0  0  0
 10 35  1  0  0  0  0
 11 15  1  0  0  0  0
 11 20  1  0  0  0  0
 11 24  1  0  0  0  0
 12 18  1  0  0  0  0
 12 22  1  0  0  0  0
 12 36  1  0  0  0  0
 13 14  1  0  0  0  0
 13 37  1  0  0  0  0
 14 38  1  0  0  0  0
 14 39  1  0  0  0  0
 15 19  1  0  0  0  0
 15 23  1  0  0  0  0
 15 40  1  0  0  0  0
 16 18  1  0  0  0  0
 16 41  1  0  0  0  0
 16 42  1  0  0  0  0
 17 19  1  0  0  0  0
 17 43  1  0  0  0  0
 17 44  1  0  0  0  0
 18 45  1  0  0  0  0
 18 46  1  0  0  0  0
 19 47  1  0  0  0  0
 19 48  1  0  0  0  0
 20 25  1  0  0  0  0
 20 49  1  0  0  0  0
 20 50  1  0  0  0  0
 21 51  1  0  0  0  0
 21 52  1  0  0  0  0
 21 53  1  0  0  0  0
 22 27  1  0  0  0  0
 22 28  1  0  0  0  0
 22 54  1  0  0  0  0
 23 26  1  0  0  0  0
 23 55  1  0  0  0  0
 23 56  1  0  0  0  0
 24 57  1  0  0  0  0
 24 58  1  0  0  0  0
 24 59  1  0  0  0  0
 25 26  1  0  0  0  0
 25 60  1  0  0  0  0
 25 61  1  0  0  0  0
 26 62  1  0  0  0  0
 27 29  1  0  0  0  0
 27 64  1  0  0  0  0
 27 65  1  0  0  0  0
 28 66  1  0  0  0  0
 28 67  1  0  0  0  0
 28 68  1  0  0  0  0
 29 30  1  0  0  0  0
 29 69  1  0  0  0  0
 29 70  1  0  0  0  0
 31 32  1  0  0  0  0
 31 73  1  0  0  0  0
 31 74  1  0  0  0  0
M  END
> <PUBCHEM_COMPOUND_CID>
3035026

> <PUBCHEM_CONFORMER_RMSD>
1

> <PUBCHEM_CONFORMER_DIVERSEORDER>
3
9
16
14
17
7
4
8
6
15
13
12
5
2
11
10
1

> <PUBCHEM_MMFF94_PARTIAL_CHARGES>
16
1 -0.68
13 0.28
2 -0.68
26 0.28
29 0.06
3 -0.57
30 0.57
31 0.36
32 0.66
4 -0.65
5 -0.57
6 -0.73
63 0.4
71 0.4
72 0.37
75 0.5

> <PUBCHEM_EFFECTIVE_ROTOR_COUNT>
9.2

> <PUBCHEM_PHARMACOPHORE_FEATURES>
14
1 1 acceptor
1 1 donor
1 2 acceptor
1 2 donor
1 28 hydrophobe
1 3 acceptor
1 4 acceptor
1 5 acceptor
1 6 donor
3 4 5 32 anion
5 7 8 12 16 18 rings
6 11 15 20 23 25 26 rings
6 7 8 9 10 13 14 rings
6 9 10 11 15 17 19 rings

> <PUBCHEM_HEAVY_ATOM_COUNT>
32

> <PUBCHEM_ATOM_DEF_STEREO_COUNT>
10

> <PUBCHEM_ATOM_UDEF_STEREO_COUNT>
0

> <PUBCHEM_BOND_DEF_STEREO_COUNT>
0

> <PUBCHEM_BOND_UDEF_STEREO_COUNT>
0

> <PUBCHEM_ISOTOPIC_ATOM_COUNT>
0

> <PUBCHEM_COMPONENT_COUNT>
1

> <PUBCHEM_CACTVS_TAUTO_COUNT>
2

> <PUBCHEM_CONFORMER_ID>
002E4F9200000003

> <PUBCHEM_MMFF94_ENERGY>
102.5317

> <PUBCHEM_FEATURE_SELFOVERLAP>
71.227

> <PUBCHEM_SHAPE_FINGERPRINT>
10 15 15068346700464580770
10299344 5 17846501409943711467
10693767 8 17917715721033397562
11331351 85 18408606946730181005
117089 54 17680132265294139902
11719270 70 18260545632490722903
12236239 1 18343864399076888025
13533116 47 18334011679833473650
13540713 5 16485022490411526200
13782708 43 17967535662054780551
14251752 14 18413953884776261101
14251757 52 11167935861904482215
14251764 18 6483351132324663049
14294032 229 18268987777970762721
14347424 109 17312827056658843376
14849402 71 7492989783316373587
15082195 135 14908173167035810886
15119646 104 18342737429601966767
15183329 4 17418375788112064597
15188451 53 17822007631385466010
15392192 104 14273743897513897245
15475509 35 17822013146857359586
17349148 13 18340755027585708360
18608769 82 14117515416717752857
1979834 28 13984654867864901612
20028762 73 18333731342955440830
21033648 29 14346068780425409883
21344244 181 18272645749301439106
21521721 280 15195567884006144209
21641784 216 15913330233958469878
21792934 111 14129330845119154947
22224240 67 5400802765636571949
23559900 14 17345471492706206577
23569914 152 16839700781987836431
23569943 247 18057042625658362931
23576562 1 16486115195090949383
29717793 49 18202562869334690484
34797466 226 17632577124117521388
3633792 109 17988917864901861964
4098825 35 17132122359874119085
4258327 124 12031490104316821639
4340502 62 4895555164965734380
439807 62 18261107499785090775
474113 269 17749388225930092615
5104073 3 14418677242668863650
5283156 175 18410292523719045027
6081469 158 18040999562172833829

> <PUBCHEM_SHAPE_MULTIPOLES>
624.22
21.56
2.19
1.89
43.86
0.73
0.17
9.89
-6.41
-2.81
-0.6
-1.6
-0.22
0.07

> <PUBCHEM_SHAPE_SELFOVERLAP>
1301.73

> <PUBCHEM_SHAPE_VOLUME>
351.3

> <PUBCHEM_COORDINATE_TYPE>
2
5
10

$$$$

