168974
  -OEChem-07051213002D

 28 30  0     1  0  0  0  0  0999 V2000
    5.3388   -0.3335    0.0000 O   0  0  0  0  0  0  0  0  0  0  0  0
    5.0601   -2.0936    0.0000 O   0  0  0  0  0  0  0  0  0  0  0  0
    5.7021    0.7845    0.0000 N   0  0  3  0  0  0  0  0  0  0  0  0
    4.7511    0.4755    0.0000 C   0  0  3  0  0  0  0  0  0  0  0  0
    4.1633    1.2846    0.0000 C   0  0  0  0  0  0  0  0  0  0  0  0
    4.7511    2.0936    0.0000 C   0  0  0  0  0  0  0  0  0  0  0  0
    5.7021    1.7846    0.0000 C   0  0  0  0  0  0  0  0  0  0  0  0
    3.8000    0.1665    0.0000 C   0  0  0  0  0  0  0  0  0  0  0  0
    3.8000   -0.8335    0.0000 C   0  0  0  0  0  0  0  0  0  0  0  0
    6.5111    0.1968    0.0000 C   0  0  0  0  0  0  0  0  0  0  0  0
    4.7511   -1.1425    0.0000 C   0  0  0  0  0  0  0  0  0  0  0  0
    2.9061    0.7012    0.0000 C   0  0  0  0  0  0  0  0  0  0  0  0
    2.9061   -1.3682    0.0000 C   0  0  0  0  0  0  0  0  0  0  0  0
    2.0000    0.1873    0.0000 C   0  0  0  0  0  0  0  0  0  0  0  0
    2.0000   -0.8543    0.0000 C   0  0  0  0  0  0  0  0  0  0  0  0
    3.7025    1.6994    0.0000 H   0  0  0  0  0  0  0  0  0  0  0  0
    3.7025    0.8697    0.0000 H   0  0  0  0  0  0  0  0  0  0  0  0
    5.0032    2.6600    0.0000 H   0  0  0  0  0  0  0  0  0  0  0  0
    4.2141    2.4036    0.0000 H   0  0  0  0  0  0  0  0  0  0  0  0
    6.3187    1.7197    0.0000 H   0  0  0  0  0  0  0  0  0  0  0  0
    5.8310    2.3910    0.0000 H   0  0  0  0  0  0  0  0  0  0  0  0
    6.1467   -0.3048    0.0000 H   0  0  0  0  0  0  0  0  0  0  0  0
    7.0127   -0.1677    0.0000 H   0  0  0  0  0  0  0  0  0  0  0  0
    6.8756    0.6984    0.0000 H   0  0  0  0  0  0  0  0  0  0  0  0
    2.9132    1.3211    0.0000 H   0  0  0  0  0  0  0  0  0  0  0  0
    2.9132   -1.9881    0.0000 H   0  0  0  0  0  0  0  0  0  0  0  0
    1.4643    0.4994    0.0000 H   0  0  0  0  0  0  0  0  0  0  0  0
    1.4643   -1.1664    0.0000 H   0  0  0  0  0  0  0  0  0  0  0  0
  1  4  1  0  0  0  0
  1 11  1  0  0  0  0
  2 11  2  0  0  0  0
  3  4  1  0  0  0  0
  3  7  1  0  0  0  0
  3 10  1  0  0  0  0
  4  5  1  0  0  0  0
  4  8  1  0  0  0  0
  5  6  1  0  0  0  0
  5 16  1  0  0  0  0
  5 17  1  0  0  0  0
  6  7  1  0  0  0  0
  6 18  1  0  0  0  0
  6 19  1  0  0  0  0
  7 20  1  0  0  0  0
  7 21  1  0  0  0  0
  8  9  1  0  0  0  0
  8 12  2  0  0  0  0
  9 11  1  0  0  0  0
  9 13  2  0  0  0  0
 10 22  1  0  0  0  0
 10 23  1  0  0  0  0
 10 24  1  0  0  0  0
 12 14  1  0  0  0  0
 12 25  1  0  0  0  0
 13 15  1  0  0  0  0
 13 26  1  0  0  0  0
 14 15  2  0  0  0  0
 14 27  1  0  0  0  0
 15 28  1  0  0  0  0
M  END
> <PUBCHEM_COMPOUND_CID>
168974

> <PUBCHEM_COMPOUND_CANONICALIZED>
1

> <PUBCHEM_CACTVS_COMPLEXITY>
291

> <PUBCHEM_CACTVS_HBOND_ACCEPTOR>
3

> <PUBCHEM_CACTVS_HBOND_DONOR>
0

> <PUBCHEM_CACTVS_ROTATABLE_BOND>
0

> <PUBCHEM_CACTVS_SUBSKEYS>
AAADccByMAAAAAAAAAAAAAAAAAAAAWJAAAAwAAAAAAAAAEgBAAAAHgAAAAAADAzBmAQyCIMABACIAiDSCACCAAAkAAAIiAEIDMgIJjKAtRmOMQhkwAGIqYe+yOCOgAAAAAAQAAAAAAAAACAAAAAAAAAAAA==

> <PUBCHEM_IUPAC_OPENEYE_NAME>
1'-methylspiro[isobenzofuran-3,2'-pyrrolidine]-1-one

> <PUBCHEM_IUPAC_CAS_NAME>
1'-methyl-1-spiro[isobenzofuran-3,2'-pyrrolidine]one

> <PUBCHEM_IUPAC_NAME>
1'-methylspiro[2-benzofuran-3,2'-pyrrolidine]-1-one

> <PUBCHEM_IUPAC_SYSTEMATIC_NAME>
1'-methylspiro[2-benzofuran-3,2'-pyrrolidine]-1-one

> <PUBCHEM_IUPAC_TRADITIONAL_NAME>
1'-methylspiro[phthalan-3,2'-pyrrolidine]-1-one

> <PUBCHEM_IUPAC_INCHI>
InChI=1S/C12H13NO2/c1-13-8-4-7-12(13)10-6-3-2-5-9(10)11(14)15-12/h2-3,5-6H,4,7-8H2,1H3

> <PUBCHEM_IUPAC_INCHIKEY>
YWAAZZCPWLHJAN-UHFFFAOYSA-N

> <PUBCHEM_XLOGP3_AA>
1.8

> <PUBCHEM_EXACT_MASS>
203.094629

> <PUBCHEM_MOLECULAR_FORMULA>
C12H13NO2

> <PUBCHEM_MOLECULAR_WEIGHT>
203.23712

> <PUBCHEM_OPENEYE_CAN_SMILES>
CN1CCCC12C3=CC=CC=C3C(=O)O2

> <PUBCHEM_OPENEYE_ISO_SMILES>
CN1CCCC12C3=CC=CC=C3C(=O)O2

> <PUBCHEM_CACTVS_TPSA>
29.5

> <PUBCHEM_MONOISOTOPIC_WEIGHT>
203.094629

> <PUBCHEM_TOTAL_CHARGE>
0

> <PUBCHEM_HEAVY_ATOM_COUNT>
15

> <PUBCHEM_ATOM_DEF_STEREO_COUNT>
0

> <PUBCHEM_ATOM_UDEF_STEREO_COUNT>
1

> <PUBCHEM_BOND_DEF_STEREO_COUNT>
0

> <PUBCHEM_BOND_UDEF_STEREO_COUNT>
0

> <PUBCHEM_ISOTOPIC_ATOM_COUNT>
0

> <PUBCHEM_COMPONENT_COUNT>
1

> <PUBCHEM_CACTVS_TAUTO_COUNT>
1

> <PUBCHEM_COORDINATE_TYPE>
1
5
255

> <PUBCHEM_BONDANNOTATIONS>
12  14  8
13  15  8
14  15  8
4  5  3
8  12  8
8  9  8
9  13  8

$$$$

