102287
  -OEChem-07051212472D

 21 20  0     1  0  0  0  0  0999 V2000
    6.0010    1.2500    0.0000 O   0  0  0  0  0  0  0  0  0  0  0  0
    5.1350   -1.2500    0.0000 O   0  0  0  0  0  0  0  0  0  0  0  0
    6.8671   -1.2500    0.0000 O   0  0  0  0  0  0  0  0  0  0  0  0
    8.5991   -0.2500    0.0000 O   0  0  0  0  0  0  0  0  0  0  0  0
    4.2690    1.2500    0.0000 O   0  0  0  0  0  0  0  0  0  0  0  0
    2.5369    0.2500    0.0000 O   0  0  0  0  0  0  0  0  0  0  0  0
    3.4030   -1.2500    0.0000 O   0  0  0  0  0  0  0  0  0  0  0  0
    6.0010    0.2500    0.0000 C   0  0  1  0  0  0  0  0  0  0  0  0
    5.1350   -0.2500    0.0000 C   0  0  1  0  0  0  0  0  0  0  0  0
    6.8671   -0.2500    0.0000 C   0  0  0  0  0  0  0  0  0  0  0  0
    4.2690    0.2500    0.0000 C   0  0  0  0  0  0  0  0  0  0  0  0
    7.7331    0.2500    0.0000 C   0  0  0  0  0  0  0  0  0  0  0  0
    3.4030   -0.2500    0.0000 C   0  0  0  0  0  0  0  0  0  0  0  0
    6.5380    0.5600    0.0000 H   0  0  0  0  0  0  0  0  0  0  0  0
    5.6720   -0.5600    0.0000 H   0  0  0  0  0  0  0  0  0  0  0  0
    8.1316    0.7249    0.0000 H   0  0  0  0  0  0  0  0  0  0  0  0
    7.3346    0.7249    0.0000 H   0  0  0  0  0  0  0  0  0  0  0  0
    6.5380    1.5600    0.0000 H   0  0  0  0  0  0  0  0  0  0  0  0
    4.5981   -1.5600    0.0000 H   0  0  0  0  0  0  0  0  0  0  0  0
    9.1360    0.0600    0.0000 H   0  0  0  0  0  0  0  0  0  0  0  0
    2.0000   -0.0600    0.0000 H   0  0  0  0  0  0  0  0  0  0  0  0
  8  1  1  6  0  0  0
  1 18  1  0  0  0  0
  9  2  1  6  0  0  0
  2 19  1  0  0  0  0
  3 10  2  0  0  0  0
  4 12  1  0  0  0  0
  4 20  1  0  0  0  0
  5 11  2  0  0  0  0
  6 13  1  0  0  0  0
  6 21  1  0  0  0  0
  7 13  2  0  0  0  0
  8  9  1  0  0  0  0
  8 10  1  0  0  0  0
  8 14  1  0  0  0  0
  9 11  1  0  0  0  0
  9 15  1  0  0  0  0
 10 12  1  0  0  0  0
 11 13  1  0  0  0  0
 12 16  1  0  0  0  0
 12 17  1  0  0  0  0
M  END
> <PUBCHEM_COMPOUND_CID>
102287

> <PUBCHEM_COMPOUND_CANONICALIZED>
1

> <PUBCHEM_CACTVS_COMPLEXITY>
233

> <PUBCHEM_CACTVS_HBOND_ACCEPTOR>
7

> <PUBCHEM_CACTVS_HBOND_DONOR>
4

> <PUBCHEM_CACTVS_ROTATABLE_BOND>
5

> <PUBCHEM_CACTVS_SUBSKEYS>
AAADccBgOAAAAAAAAAAAAAAAAAAAAAAAAAAAAAAAAAAAAAAAAAAAGgAACAAACBSggAIACAAAAgAIAICQCAIAAAAAAAAAAAFAAAABEBYAAAAAQAAFIAABAAHLTgAgAAAAAAAAAAAAAAAAAAAAAAAAAAAAAA==

> <PUBCHEM_IUPAC_OPENEYE_NAME>
(3S,4S)-3,4,6-trihydroxy-2,5-dioxo-hexanoic acid

> <PUBCHEM_IUPAC_CAS_NAME>
(3S,4S)-3,4,6-trihydroxy-2,5-dioxohexanoic acid

> <PUBCHEM_IUPAC_NAME>
(3S,4S)-3,4,6-trihydroxy-2,5-dioxohexanoic acid

> <PUBCHEM_IUPAC_SYSTEMATIC_NAME>
(3S,4S)-3,4,6-tris(oxidanyl)-2,5-bis(oxidanylidene)hexanoic acid

> <PUBCHEM_IUPAC_TRADITIONAL_NAME>
(3S,4S)-3,4,6-trihydroxy-2,5-diketo-hexanoic acid

> <PUBCHEM_IUPAC_INCHI>
InChI=1S/C6H8O7/c7-1-2(8)3(9)4(10)5(11)6(12)13/h3-4,7,9-10H,1H2,(H,12,13)/t3-,4+/m1/s1

> <PUBCHEM_IUPAC_INCHIKEY>
RXMWXENJQAINCC-DMTCNVIQSA-N

> <PUBCHEM_XLOGP3_AA>
-2.5

> <PUBCHEM_EXACT_MASS>
192.027003

> <PUBCHEM_MOLECULAR_FORMULA>
C6H8O7

> <PUBCHEM_MOLECULAR_WEIGHT>
192.12352

> <PUBCHEM_OPENEYE_CAN_SMILES>
C(C(=O)C(C(C(=O)C(=O)O)O)O)O

> <PUBCHEM_OPENEYE_ISO_SMILES>
C(C(=O)[C@H]([C@@H](C(=O)C(=O)O)O)O)O

> <PUBCHEM_CACTVS_TPSA>
132

> <PUBCHEM_MONOISOTOPIC_WEIGHT>
192.027003

> <PUBCHEM_TOTAL_CHARGE>
0

> <PUBCHEM_HEAVY_ATOM_COUNT>
13

> <PUBCHEM_ATOM_DEF_STEREO_COUNT>
2

> <PUBCHEM_ATOM_UDEF_STEREO_COUNT>
0

> <PUBCHEM_BOND_DEF_STEREO_COUNT>
0

> <PUBCHEM_BOND_UDEF_STEREO_COUNT>
0

> <PUBCHEM_ISOTOPIC_ATOM_COUNT>
0

> <PUBCHEM_COMPONENT_COUNT>
1

> <PUBCHEM_CACTVS_TAUTO_COUNT>
63

> <PUBCHEM_COORDINATE_TYPE>
1
5
255

> <PUBCHEM_BONDANNOTATIONS>
8  1  6
9  2  6

$$$$

