16323
  -OEChem-07051212513D

 22 23  0     0  0  0  0  0  0999 V2000
    4.8316   -0.0010   -0.0012 Cl  0  0  0  0  0  0  0  0  0  0  0  0
    0.3208    0.0006    0.0008 C   0  0  0  0  0  0  0  0  0  0  0  0
   -1.1261    0.0001    0.0004 C   0  0  0  0  0  0  0  0  0  0  0  0
    1.0180    0.8500   -0.8582 C   0  0  0  0  0  0  0  0  0  0  0  0
    1.0184   -0.8491    0.8594 C   0  0  0  0  0  0  0  0  0  0  0  0
   -1.8241    0.8591    0.8492 C   0  0  0  0  0  0  0  0  0  0  0  0
   -1.8229   -0.8592   -0.8490 C   0  0  0  0  0  0  0  0  0  0  0  0
    2.4130    0.8498   -0.8586 C   0  0  0  0  0  0  0  0  0  0  0  0
    2.4133   -0.8492    0.8589 C   0  0  0  0  0  0  0  0  0  0  0  0
   -3.2190    0.8588    0.8488 C   0  0  0  0  0  0  0  0  0  0  0  0
   -3.2178   -0.8595   -0.8497 C   0  0  0  0  0  0  0  0  0  0  0  0
    3.1106    0.0002    0.0000 C   0  0  0  0  0  0  0  0  0  0  0  0
   -3.9158   -0.0005   -0.0008 C   0  0  0  0  0  0  0  0  0  0  0  0
    0.4897    1.5185   -1.5340 H   0  0  0  0  0  0  0  0  0  0  0  0
    0.4903   -1.5177    1.5352 H   0  0  0  0  0  0  0  0  0  0  0  0
   -1.2965    1.5355    1.5177 H   0  0  0  0  0  0  0  0  0  0  0  0
   -1.2944   -1.5352   -1.5171 H   0  0  0  0  0  0  0  0  0  0  0  0
    2.9431    1.5168   -1.5335 H   0  0  0  0  0  0  0  0  0  0  0  0
    2.9437   -1.5168    1.5332 H   0  0  0  0  0  0  0  0  0  0  0  0
   -3.7626    1.5275    1.5097 H   0  0  0  0  0  0  0  0  0  0  0  0
   -3.7606   -1.5286   -1.5110 H   0  0  0  0  0  0  0  0  0  0  0  0
   -5.0019   -0.0007   -0.0012 H   0  0  0  0  0  0  0  0  0  0  0  0
  1 12  1  0  0  0  0
  2  3  1  0  0  0  0
  2  4  2  0  0  0  0
  2  5  1  0  0  0  0
  3  6  2  0  0  0  0
  3  7  1  0  0  0  0
  4  8  1  0  0  0  0
  4 14  1  0  0  0  0
  5  9  2  0  0  0  0
  5 15  1  0  0  0  0
  6 10  1  0  0  0  0
  6 16  1  0  0  0  0
  7 11  2  0  0  0  0
  7 17  1  0  0  0  0
  8 12  2  0  0  0  0
  8 18  1  0  0  0  0
  9 12  1  0  0  0  0
  9 19  1  0  0  0  0
 10 13  2  0  0  0  0
 10 20  1  0  0  0  0
 11 13  1  0  0  0  0
 11 21  1  0  0  0  0
 13 22  1  0  0  0  0
M  END
> <PUBCHEM_COMPOUND_CID>
16323

> <PUBCHEM_CONFORMER_RMSD>
0.4

> <PUBCHEM_CONFORMER_DIVERSEORDER>
1
2

> <PUBCHEM_MMFF94_PARTIAL_CHARGES>
20
1 -0.18
10 -0.15
11 -0.15
12 0.18
13 -0.15
14 0.15
15 0.15
16 0.15
17 0.15
18 0.15
19 0.15
20 0.15
21 0.15
22 0.15
4 -0.15
5 -0.15
6 -0.15
7 -0.15
8 -0.15
9 -0.15

> <PUBCHEM_EFFECTIVE_ROTOR_COUNT>
1

> <PUBCHEM_PHARMACOPHORE_FEATURES>
2
6 2 4 5 8 9 12 rings
6 3 6 7 10 11 13 rings

> <PUBCHEM_HEAVY_ATOM_COUNT>
13

> <PUBCHEM_ATOM_DEF_STEREO_COUNT>
0

> <PUBCHEM_ATOM_UDEF_STEREO_COUNT>
0

> <PUBCHEM_BOND_DEF_STEREO_COUNT>
0

> <PUBCHEM_BOND_UDEF_STEREO_COUNT>
0

> <PUBCHEM_ISOTOPIC_ATOM_COUNT>
0

> <PUBCHEM_COMPONENT_COUNT>
1

> <PUBCHEM_CACTVS_TAUTO_COUNT>
1

> <PUBCHEM_CONFORMER_ID>
00003FC300000001

> <PUBCHEM_MMFF94_ENERGY>
39.0294

> <PUBCHEM_FEATURE_SELFOVERLAP>
10.149

> <PUBCHEM_SHAPE_FINGERPRINT>
10219947 1 17632295679215988030
10465860 250 16443347606799731050
10608611 8 15791735217235974913
11401426 45 18059862748850743252
11471102 20 17561083605409235652
12236239 1 18410856563955855875
124424 183 15936411164932274310
12500047 106 17240486930892475607
12932764 1 18411426119611403833
13581323 91 17894353284563928783
13760787 5 17703789228442569398
14144814 61 18412545422580153763
14993402 34 18413393128707200366
15219456 202 15985104106540787157
15309172 13 17775563143536951355
15653759 3 16588027904807135402
15775835 57 18335979843721727689
16945 1 17704072893509664002
17844478 74 16200430286418671757
18175812 5 15791738476952777672
18186145 218 18131350782722079604
190213 19 18410855460212642311
19026448 4 17022621975093606402
19026448 5 18186519904280541188
19049666 15 15575538306032864365
19422 9 18409727352655855271
200 152 18059861649302198655
20201158 50 16415481570740276929
20279233 1 15769774667199476235
20645464 45 15554446301758205497
20645477 56 17385997416884071817
20645477 70 17274277152233961258
23402539 116 17385730213777736853
23402655 69 17775015612753265863
23557571 272 16950557804896740041
23559900 14 16805876399077423348
474 4 18125444112069813688
77492 1 18411136935284214019
9981440 41 17328871998137213160

> <PUBCHEM_SHAPE_MULTIPOLES>
269.4
7.72
1.07
1.07
2.62
0
0
0
0
-0.22
0
-0.14
0
-0.94

> <PUBCHEM_SHAPE_SELFOVERLAP>
575.587

> <PUBCHEM_SHAPE_VOLUME>
142.9

> <PUBCHEM_COORDINATE_TYPE>
2
5
10

$$$$

