9959532
  -OEChem-07051212563D

 68 75  0     1  0  0  0  0  0999 V2000
   -2.9464    0.2343    1.6068 O   0  0  0  0  0  0  0  0  0  0  0  0
   -0.7758    0.2428    0.6654 O   0  0  0  0  0  0  0  0  0  0  0  0
    0.3812   -1.7169   -3.6393 O   0  0  0  0  0  0  0  0  0  0  0  0
   -0.0532   -1.3027    2.4284 O   0  0  0  0  0  0  0  0  0  0  0  0
   -5.2449    4.0309    3.2134 O   0  0  0  0  0  0  0  0  0  0  0  0
    4.0578    0.6467    0.4224 O   0  0  0  0  0  0  0  0  0  0  0  0
   -1.7321   -5.7615    2.3216 O   0  0  0  0  0  0  0  0  0  0  0  0
    8.2375    1.9923    2.4286 O   0  0  0  0  0  0  0  0  0  0  0  0
   -2.6772   -0.2349   -0.7848 C   0  0  1  0  0  0  0  0  0  0  0  0
   -2.8406    1.2677   -1.1364 C   0  0  1  0  0  0  0  0  0  0  0  0
   -1.7921   -0.9353   -1.8422 C   0  0  2  0  0  0  0  0  0  0  0  0
   -2.0771   -0.3878    0.6324 C   0  0  2  0  0  0  0  0  0  0  0  0
   -3.5758    1.3947   -2.4863 C   0  0  0  0  0  0  0  0  0  0  0  0
   -3.4935    2.0033    0.0105 C   0  0  0  0  0  0  0  0  0  0  0  0
   -0.3220   -0.6815   -1.5589 C   0  0  0  0  0  0  0  0  0  0  0  0
   -2.2227   -0.5633   -3.2433 C   0  0  0  0  0  0  0  0  0  0  0  0
   -3.0425    0.4591   -3.5420 C   0  0  0  0  0  0  0  0  0  0  0  0
   -1.9750   -1.8097    1.0890 C   0  0  0  0  0  0  0  0  0  0  0  0
   -3.4901    1.4488    1.2957 C   0  0  0  0  0  0  0  0  0  0  0  0
    0.0875   -0.1097   -0.3440 C   0  0  0  0  0  0  0  0  0  0  0  0
    0.6691   -1.0527   -2.4830 C   0  0  0  0  0  0  0  0  0  0  0  0
   -4.0612    3.2760   -0.1636 C   0  0  0  0  0  0  0  0  0  0  0  0
   -3.4996    0.7243   -4.9467 C   0  0  0  0  0  0  0  0  0  0  0  0
    1.4389    0.1514   -0.0947 C   0  0  0  0  0  0  0  0  0  0  0  0
   -4.0898    2.1242    2.3648 C   0  0  0  0  0  0  0  0  0  0  0  0
   -0.9672   -2.2016    1.9671 C   0  0  0  0  0  0  0  0  0  0  0  0
   -2.9014   -2.7397    0.6228 C   0  0  0  0  0  0  0  0  0  0  0  0
    2.0196   -0.8077   -2.2257 C   0  0  0  0  0  0  0  0  0  0  0  0
    2.4034   -0.1972   -1.0360 C   0  0  0  0  0  0  0  0  0  0  0  0
   -4.6494    3.9539    0.9061 C   0  0  0  0  0  0  0  0  0  0  0  0
   -4.6694    3.3748    2.1700 C   0  0  0  0  0  0  0  0  0  0  0  0
   -0.8855   -3.5309    2.3817 C   0  0  0  0  0  0  0  0  0  0  0  0
   -2.8197   -4.0692    1.0372 C   0  0  0  0  0  0  0  0  0  0  0  0
   -1.8118   -4.4646    1.9169 C   0  0  0  0  0  0  0  0  0  0  0  0
    3.7978    0.0610   -0.7723 C   0  0  0  0  0  0  0  0  0  0  0  0
    4.9521   -0.1590   -1.4785 C   0  0  0  0  0  0  0  0  0  0  0  0
    6.0111    0.3250   -0.6660 C   0  0  0  0  0  0  0  0  0  0  0  0
    5.4090    0.8095    0.4907 C   0  0  0  0  0  0  0  0  0  0  0  0
    7.4099    0.4070   -0.7800 C   0  0  0  0  0  0  0  0  0  0  0  0
    6.1064    1.3769    1.5558 C   0  0  0  0  0  0  0  0  0  0  0  0
    8.1385    0.9731    0.2751 C   0  0  0  0  0  0  0  0  0  0  0  0
    7.4961    1.4483    1.4211 C   0  0  0  0  0  0  0  0  0  0  0  0
   -3.6949   -0.6484   -0.8213 H   0  0  0  0  0  0  0  0  0  0  0  0
   -1.8507    1.7298   -1.2595 H   0  0  0  0  0  0  0  0  0  0  0  0
   -1.9405   -2.0190   -1.7570 H   0  0  0  0  0  0  0  0  0  0  0  0
   -3.4778    2.4237   -2.8536 H   0  0  0  0  0  0  0  0  0  0  0  0
   -4.6487    1.2012   -2.3565 H   0  0  0  0  0  0  0  0  0  0  0  0
   -1.9318   -1.2190   -4.0583 H   0  0  0  0  0  0  0  0  0  0  0  0
   -4.0520    3.7618   -1.1353 H   0  0  0  0  0  0  0  0  0  0  0  0
   -4.5917    0.6748   -5.0052 H   0  0  0  0  0  0  0  0  0  0  0  0
   -3.0946   -0.0019   -5.6593 H   0  0  0  0  0  0  0  0  0  0  0  0
   -3.1787    1.7203   -5.2685 H   0  0  0  0  0  0  0  0  0  0  0  0
    1.7070    0.6161    0.8517 H   0  0  0  0  0  0  0  0  0  0  0  0
   -4.0967    1.6755    3.3557 H   0  0  0  0  0  0  0  0  0  0  0  0
   -3.7257   -2.4869   -0.0329 H   0  0  0  0  0  0  0  0  0  0  0  0
    2.7552   -1.1118   -2.9668 H   0  0  0  0  0  0  0  0  0  0  0  0
   -5.0863    4.9344    0.7370 H   0  0  0  0  0  0  0  0  0  0  0  0
   -0.0998   -3.8404    3.0667 H   0  0  0  0  0  0  0  0  0  0  0  0
   -3.5479   -4.7911    0.6778 H   0  0  0  0  0  0  0  0  0  0  0  0
   -0.3238   -2.3588   -3.4490 H   0  0  0  0  0  0  0  0  0  0  0  0
    0.5710   -1.7581    3.0189 H   0  0  0  0  0  0  0  0  0  0  0  0
   -5.5936    4.8820    2.8969 H   0  0  0  0  0  0  0  0  0  0  0  0
    5.0429   -0.6092   -2.4572 H   0  0  0  0  0  0  0  0  0  0  0  0
   -0.9771   -5.8574    2.9273 H   0  0  0  0  0  0  0  0  0  0  0  0
    7.9229    0.0416   -1.6645 H   0  0  0  0  0  0  0  0  0  0  0  0
    5.5906    1.7403    2.4372 H   0  0  0  0  0  0  0  0  0  0  0  0
    9.2210    1.0396    0.1932 H   0  0  0  0  0  0  0  0  0  0  0  0
    7.6404    2.2701    3.1444 H   0  0  0  0  0  0  0  0  0  0  0  0
  1 12  1  0  0  0  0
  1 19  1  0  0  0  0
  2 12  1  0  0  0  0
  2 20  1  0  0  0  0
  3 21  1  0  0  0  0
  3 60  1  0  0  0  0
  4 26  1  0  0  0  0
  4 61  1  0  0  0  0
  5 31  1  0  0  0  0
  5 62  1  0  0  0  0
  6 35  1  0  0  0  0
  6 38  1  0  0  0  0
  7 34  1  0  0  0  0
  7 64  1  0  0  0  0
  8 42  1  0  0  0  0
  8 68  1  0  0  0  0
  9 10  1  0  0  0  0
  9 11  1  0  0  0  0
  9 12  1  0  0  0  0
  9 43  1  0  0  0  0
 10 13  1  0  0  0  0
 10 14  1  0  0  0  0
 10 44  1  0  0  0  0
 11 15  1  0  0  0  0
 11 16  1  0  0  0  0
 11 45  1  0  0  0  0
 12 18  1  0  0  0  0
 13 17  1  0  0  0  0
 13 46  1  0  0  0  0
 13 47  1  0  0  0  0
 14 19  2  0  0  0  0
 14 22  1  0  0  0  0
 15 20  1  0  0  0  0
 15 21  2  0  0  0  0
 16 17  2  0  0  0  0
 16 48  1  0  0  0  0
 17 23  1  0  0  0  0
 18 26  2  0  0  0  0
 18 27  1  0  0  0  0
 19 25  1  0  0  0  0
 20 24  2  0  0  0  0
 21 28  1  0  0  0  0
 22 30  2  0  0  0  0
 22 49  1  0  0  0  0
 23 50  1  0  0  0  0
 23 51  1  0  0  0  0
 23 52  1  0  0  0  0
 24 29  1  0  0  0  0
 24 53  1  0  0  0  0
 25 31  2  0  0  0  0
 25 54  1  0  0  0  0
 26 32  1  0  0  0  0
 27 33  2  0  0  0  0
 27 55  1  0  0  0  0
 28 29  2  0  0  0  0
 28 56  1  0  0  0  0
 29 35  1  0  0  0  0
 30 31  1  0  0  0  0
 30 57  1  0  0  0  0
 32 34  2  0  0  0  0
 32 58  1  0  0  0  0
 33 34  1  0  0  0  0
 33 59  1  0  0  0  0
 35 36  2  0  0  0  0
 36 37  1  0  0  0  0
 36 63  1  0  0  0  0
 37 38  2  0  0  0  0
 37 39  1  0  0  0  0
 38 40  1  0  0  0  0
 39 41  2  0  0  0  0
 39 65  1  0  0  0  0
 40 42  2  0  0  0  0
 40 66  1  0  0  0  0
 41 42  1  0  0  0  0
 41 67  1  0  0  0  0
M  END
> <PUBCHEM_COMPOUND_CID>
9959532

> <PUBCHEM_CONFORMER_RMSD>
0.8

> <PUBCHEM_CONFORMER_DIVERSEORDER>
1
5
8
4
3
7
6
2

> <PUBCHEM_MMFF94_PARTIAL_CHARGES>
58
1 -0.36
10 0.14
11 0.28
12 0.7
13 0.14
14 -0.14
15 -0.14
16 -0.29
17 -0.28
18 -0.14
19 0.08
2 -0.36
20 0.08
21 0.08
22 -0.15
23 0.14
24 -0.15
25 -0.15
26 0.08
27 -0.15
28 -0.15
29 0.05
3 -0.53
30 -0.15
31 0.08
32 -0.15
33 -0.15
34 0.08
35 0.09
36 -0.15
38 0.14
39 -0.15
4 -0.53
40 -0.15
41 -0.15
42 0.08
48 0.15
49 0.15
5 -0.53
53 0.15
54 0.15
55 0.15
56 0.15
57 0.15
58 0.15
59 0.15
6 -0.28
60 0.45
61 0.45
62 0.45
63 0.15
64 0.45
65 0.15
66 0.15
67 0.15
68 0.45
7 -0.53
8 -0.53

> <PUBCHEM_EFFECTIVE_ROTOR_COUNT>
2.6

> <PUBCHEM_PHARMACOPHORE_FEATURES>
16
1 1 acceptor
1 2 acceptor
1 3 donor
1 4 donor
1 5 donor
1 6 acceptor
1 7 donor
1 8 donor
5 6 35 36 37 38 rings
6 1 9 10 12 14 19 rings
6 14 19 22 25 30 31 rings
6 15 20 21 24 28 29 rings
6 18 26 27 32 33 34 rings
6 2 9 11 12 15 20 rings
6 37 38 39 40 41 42 rings
6 9 10 11 13 16 17 rings

> <PUBCHEM_HEAVY_ATOM_COUNT>
42

> <PUBCHEM_ATOM_DEF_STEREO_COUNT>
4

> <PUBCHEM_ATOM_UDEF_STEREO_COUNT>
0

> <PUBCHEM_BOND_DEF_STEREO_COUNT>
0

> <PUBCHEM_BOND_UDEF_STEREO_COUNT>
0

> <PUBCHEM_ISOTOPIC_ATOM_COUNT>
0

> <PUBCHEM_COMPONENT_COUNT>
1

> <PUBCHEM_CACTVS_TAUTO_COUNT>
369

> <PUBCHEM_CONFORMER_ID>
0097F86C00000001

> <PUBCHEM_MMFF94_ENERGY>
135.076

> <PUBCHEM_FEATURE_SELFOVERLAP>
81.575

> <PUBCHEM_SHAPE_FINGERPRINT>
1200032 147 17387683049761226825
12988421 55 18130508646972911381
131258 38 13106122936241161713
13690498 29 15720260304284649821
14068700 675 17557990537145433094
14705955 166 18334848386311879467
15064986 96 16772686592257117712
15361156 5 18114178623659530152
15513586 35 18053941745718804460
16114785 44 17967527974427376455
17980427 26 17978227489570348815
18470217 77 18265337209632715416
19309040 13 18261111936924222194
19438510 23 18187920750318342184
20642791 239 15430324684524500667
21033648 29 18197195130914683985
21756936 100 18409165545353768897
21814621 53 18333445440431249202
23191077 185 17752214044028672893
23522609 53 12462150242348217134
24180151 214 18267608921568782559
255183 313 17846769728702326133
27425 322 18044648935417261677
376196 1 17463387753864589009
4112364 45 17980194515909818337
4144715 1 18338784621350259088
44880168 125 17632289121413616902
469060 322 17532365362308967399
474113 269 14548438195429355481
5080951 261 18200325299043556158
563151 97 17530973505173409836
6009941 240 18408035222469154352
6691757 9 18202566176886633602
7288768 16 18263069071953333145

> <PUBCHEM_SHAPE_MULTIPOLES>
817.39
15.92
4.85
4.19
46.42
5.93
3.5
-16.09
-8.02
-9.61
-5.73
-5.01
-1.17
0.36

> <PUBCHEM_SHAPE_SELFOVERLAP>
1885.193

> <PUBCHEM_SHAPE_VOLUME>
414.7

> <PUBCHEM_COORDINATE_TYPE>
2
5
10

$$$$

