443249
  -OEChem-07051213012D

 21 20  0     1  0  0  0  0  0999 V2000
    3.4030    0.3585    0.0000 S   0  0  0  0  0  0  0  0  0  0  0  0
    6.8671    0.3585    0.0000 P   0  0  0  0  0  0  0  0  0  0  0  0
    6.0010    0.8585    0.0000 O   0  0  0  0  0  0  0  0  0  0  0  0
    2.5369   -0.1415    0.0000 O   0  0  0  0  0  0  0  0  0  0  0  0
    2.9030    1.2245    0.0000 O   0  0  0  0  0  0  0  0  0  0  0  0
    3.9030   -0.5075    0.0000 O   0  0  0  0  0  0  0  0  0  0  0  0
    4.2690   -1.1415    0.0000 O   0  0  0  0  0  0  0  0  0  0  0  0
    7.7331   -0.1415    0.0000 O   0  0  0  0  0  0  0  0  0  0  0  0
    7.3671    1.2245    0.0000 O   0  0  0  0  0  0  0  0  0  0  0  0
    6.0010   -1.1415    0.0000 O   0  0  0  0  0  0  0  0  0  0  0  0
    6.3671   -0.5075    0.0000 O   0  0  0  0  0  0  0  0  0  0  0  0
    5.1350    0.3585    0.0000 C   0  0  1  0  0  0  0  0  0  0  0  0
    4.2690    0.8585    0.0000 C   0  0  0  0  0  0  0  0  0  0  0  0
    5.1350   -0.6415    0.0000 C   0  0  0  0  0  0  0  0  0  0  0  0
    5.1350    0.9785    0.0000 H   0  0  0  0  0  0  0  0  0  0  0  0
    4.6675    1.3335    0.0000 H   0  0  0  0  0  0  0  0  0  0  0  0
    3.8705    1.3335    0.0000 H   0  0  0  0  0  0  0  0  0  0  0  0
    2.0000    0.1685    0.0000 H   0  0  0  0  0  0  0  0  0  0  0  0
    4.2690   -1.7615    0.0000 H   0  0  0  0  0  0  0  0  0  0  0  0
    8.2700    0.1685    0.0000 H   0  0  0  0  0  0  0  0  0  0  0  0
    7.0571    1.7615    0.0000 H   0  0  0  0  0  0  0  0  0  0  0  0
  1  4  1  0  0  0  0
  1  5  2  0  0  0  0
  1  6  2  0  0  0  0
  1 13  1  0  0  0  0
  2  3  1  0  0  0  0
  2  8  1  0  0  0  0
  2  9  1  0  0  0  0
  2 11  2  0  0  0  0
 12  3  1  6  0  0  0
  4 18  1  0  0  0  0
  7 14  1  0  0  0  0
  7 19  1  0  0  0  0
  8 20  1  0  0  0  0
  9 21  1  0  0  0  0
 10 14  2  0  0  0  0
 12 13  1  0  0  0  0
 12 14  1  0  0  0  0
 12 15  1  0  0  0  0
 13 16  1  0  0  0  0
 13 17  1  0  0  0  0
M  END
> <PUBCHEM_COMPOUND_CID>
443249

> <PUBCHEM_COMPOUND_CANONICALIZED>
1

> <PUBCHEM_CACTVS_COMPLEXITY>
345

> <PUBCHEM_CACTVS_HBOND_ACCEPTOR>
9

> <PUBCHEM_CACTVS_HBOND_DONOR>
4

> <PUBCHEM_CACTVS_ROTATABLE_BOND>
5

> <PUBCHEM_CACTVS_SUBSKEYS>
AAADcYBAPAJAAAAAAAAAAAAAAAAAAAAAAAAAAAAAAAAAAAAAAAAAGgQACCAACBSkwAKACAAAA5IIQACQCPJAAAAAAAAAAAFAAAABAAAAAAAAQAAAAAABAAAAAAAAAAAAAAAAAAAAAAAAAAAAAAAAAAAAAA==

> <PUBCHEM_IUPAC_OPENEYE_NAME>
(2R)-2-phosphonooxy-3-sulfo-propanoic acid

> <PUBCHEM_IUPAC_CAS_NAME>
(2R)-2-phosphonooxy-3-sulfopropanoic acid

> <PUBCHEM_IUPAC_NAME>
(2R)-2-phosphonooxy-3-sulfopropanoic acid

> <PUBCHEM_IUPAC_SYSTEMATIC_NAME>
(2R)-2-phosphonooxy-3-sulfo-propanoic acid

> <PUBCHEM_IUPAC_TRADITIONAL_NAME>
(2R)-2-phosphonooxy-3-sulfo-propionic acid

> <PUBCHEM_IUPAC_INCHI>
InChI=1S/C3H7O9PS/c4-3(5)2(1-14(9,10)11)12-13(6,7)8/h2H,1H2,(H,4,5)(H2,6,7,8)(H,9,10,11)/t2-/m0/s1

> <PUBCHEM_IUPAC_INCHIKEY>
CABHHUMGNFUZCZ-REOHCLBHSA-N

> <PUBCHEM_XLOGP3_AA>
-3

> <PUBCHEM_EXACT_MASS>
249.954839

> <PUBCHEM_MOLECULAR_FORMULA>
C3H7O9PS

> <PUBCHEM_MOLECULAR_WEIGHT>
250.121042

> <PUBCHEM_OPENEYE_CAN_SMILES>
C(C(C(=O)O)OP(=O)(O)O)S(=O)(=O)O

> <PUBCHEM_OPENEYE_ISO_SMILES>
C([C@@H](C(=O)O)OP(=O)(O)O)S(=O)(=O)O

> <PUBCHEM_CACTVS_TPSA>
167

> <PUBCHEM_MONOISOTOPIC_WEIGHT>
249.954839

> <PUBCHEM_TOTAL_CHARGE>
0

> <PUBCHEM_HEAVY_ATOM_COUNT>
14

> <PUBCHEM_ATOM_DEF_STEREO_COUNT>
1

> <PUBCHEM_ATOM_UDEF_STEREO_COUNT>
0

> <PUBCHEM_BOND_DEF_STEREO_COUNT>
0

> <PUBCHEM_BOND_UDEF_STEREO_COUNT>
0

> <PUBCHEM_ISOTOPIC_ATOM_COUNT>
0

> <PUBCHEM_COMPONENT_COUNT>
1

> <PUBCHEM_CACTVS_TAUTO_COUNT>
1

> <PUBCHEM_COORDINATE_TYPE>
1
5
255

> <PUBCHEM_BONDANNOTATIONS>
12  3  6

$$$$

