443131
  -OEChem-07051213013D

 34 35  0     1  0  0  0  0  0999 V2000
    1.6626    0.5847   -0.1845 O   0  0  0  0  0  0  0  0  0  0  0  0
    2.9426   -1.3342   -0.3147 O   0  0  0  0  0  0  0  0  0  0  0  0
   -0.8112    0.6922   -0.4360 C   0  0  2  0  0  0  0  0  0  0  0  0
   -1.9062   -0.3951   -0.2143 C   0  0  0  0  0  0  0  0  0  0  0  0
   -1.1889   -0.9121    1.0614 C   0  0  1  0  0  0  0  0  0  0  0  0
    0.4948   -0.1568   -0.4920 C   0  0  2  0  0  0  0  0  0  0  0  0
   -0.8177    1.4655    0.9131 C   0  0  0  0  0  0  0  0  0  0  0  0
    0.2423   -1.2411    0.5720 C   0  0  0  0  0  0  0  0  0  0  0  0
   -1.0667    0.3508    1.9432 C   0  0  0  0  0  0  0  0  0  0  0  0
   -0.9854    1.6073   -1.6337 C   0  0  0  0  0  0  0  0  0  0  0  0
   -2.0379   -1.4481   -1.3329 C   0  0  0  0  0  0  0  0  0  0  0  0
   -3.3307    0.1389    0.0389 C   0  0  0  0  0  0  0  0  0  0  0  0
    2.8291   -0.1306   -0.1262 C   0  0  0  0  0  0  0  0  0  0  0  0
    3.9734    0.7786    0.2057 C   0  0  0  0  0  0  0  0  0  0  0  0
   -1.6732   -1.7487    1.5705 H   0  0  0  0  0  0  0  0  0  0  0  0
    0.6243   -0.6005   -1.4869 H   0  0  0  0  0  0  0  0  0  0  0  0
   -1.6164    2.2145    0.9537 H   0  0  0  0  0  0  0  0  0  0  0  0
    0.1197    1.9951    1.1109 H   0  0  0  0  0  0  0  0  0  0  0  0
    0.9547   -1.2365    1.4036 H   0  0  0  0  0  0  0  0  0  0  0  0
    0.2683   -2.2383    0.1189 H   0  0  0  0  0  0  0  0  0  0  0  0
   -0.2497    0.2792    2.6689 H   0  0  0  0  0  0  0  0  0  0  0  0
   -1.9876    0.5385    2.5052 H   0  0  0  0  0  0  0  0  0  0  0  0
   -0.9927    1.0404   -2.5702 H   0  0  0  0  0  0  0  0  0  0  0  0
   -1.9238    2.1680   -1.5748 H   0  0  0  0  0  0  0  0  0  0  0  0
   -0.1676    2.3337   -1.6911 H   0  0  0  0  0  0  0  0  0  0  0  0
   -2.7103   -2.2546   -1.0178 H   0  0  0  0  0  0  0  0  0  0  0  0
   -2.4603   -0.9985   -2.2387 H   0  0  0  0  0  0  0  0  0  0  0  0
   -1.0998   -1.9231   -1.6262 H   0  0  0  0  0  0  0  0  0  0  0  0
   -3.9882   -0.6737    0.3692 H   0  0  0  0  0  0  0  0  0  0  0  0
   -3.3954    0.9221    0.7969 H   0  0  0  0  0  0  0  0  0  0  0  0
   -3.7555    0.5570   -0.8809 H   0  0  0  0  0  0  0  0  0  0  0  0
    3.8040    1.2455    1.1791 H   0  0  0  0  0  0  0  0  0  0  0  0
    4.0802    1.5381   -0.5728 H   0  0  0  0  0  0  0  0  0  0  0  0
    4.8977    0.1959    0.2544 H   0  0  0  0  0  0  0  0  0  0  0  0
  1  6  1  0  0  0  0
  1 13  1  0  0  0  0
  2 13  2  0  0  0  0
  3  4  1  0  0  0  0
  3  6  1  0  0  0  0
  3  7  1  0  0  0  0
  3 10  1  0  0  0  0
  4  5  1  0  0  0  0
  4 11  1  0  0  0  0
  4 12  1  0  0  0  0
  5  8  1  0  0  0  0
  5  9  1  0  0  0  0
  5 15  1  0  0  0  0
  6  8  1  0  0  0  0
  6 16  1  0  0  0  0
  7  9  1  0  0  0  0
  7 17  1  0  0  0  0
  7 18  1  0  0  0  0
  8 19  1  0  0  0  0
  8 20  1  0  0  0  0
  9 21  1  0  0  0  0
  9 22  1  0  0  0  0
 10 23  1  0  0  0  0
 10 24  1  0  0  0  0
 10 25  1  0  0  0  0
 11 26  1  0  0  0  0
 11 27  1  0  0  0  0
 11 28  1  0  0  0  0
 12 29  1  0  0  0  0
 12 30  1  0  0  0  0
 12 31  1  0  0  0  0
 13 14  1  0  0  0  0
 14 32  1  0  0  0  0
 14 33  1  0  0  0  0
 14 34  1  0  0  0  0
M  END
> <PUBCHEM_COMPOUND_CID>
443131

> <PUBCHEM_CONFORMER_RMSD>
0.6

> <PUBCHEM_CONFORMER_DIVERSEORDER>
2
3
1
4

> <PUBCHEM_MMFF94_PARTIAL_CHARGES>
5
1 -0.43
13 0.66
14 0.06
2 -0.57
6 0.28

> <PUBCHEM_EFFECTIVE_ROTOR_COUNT>
3

> <PUBCHEM_PHARMACOPHORE_FEATURES>
3
1 2 acceptor
3 4 11 12 hydrophobe
7 3 4 5 6 7 8 9 rings

> <PUBCHEM_HEAVY_ATOM_COUNT>
14

> <PUBCHEM_ATOM_DEF_STEREO_COUNT>
1

> <PUBCHEM_ATOM_UDEF_STEREO_COUNT>
2

> <PUBCHEM_BOND_DEF_STEREO_COUNT>
0

> <PUBCHEM_BOND_UDEF_STEREO_COUNT>
0

> <PUBCHEM_ISOTOPIC_ATOM_COUNT>
0

> <PUBCHEM_COMPONENT_COUNT>
1

> <PUBCHEM_CACTVS_TAUTO_COUNT>
1

> <PUBCHEM_CONFORMER_ID>
0006C2FB00000002

> <PUBCHEM_MMFF94_ENERGY>
59.5638

> <PUBCHEM_FEATURE_SELFOVERLAP>
15.223

> <PUBCHEM_SHAPE_FINGERPRINT>
12423570 1 9785982512172415089
12932764 1 18339354266830595054
13024252 1 16845851295598570485
14993402 34 4678811753502265665
15775835 57 18409165515415292798
16945 1 18333741212525535713
187816 3 16917075442706085167
19837323 101 17559967673789424645
200 152 18040723545540341958
20653085 51 18127693939991824084
21524375 3 16981820425299841108
23402539 116 17560815306986117831
23419403 2 17691969263173607587
23559900 14 17530687611123795434
2748010 2 17487042376008696092
369184 2 18113614607841023386
5084963 1 18412543245121379476
528886 8 18060146427082392731
81228 2 17489022781403583372

> <PUBCHEM_SHAPE_MULTIPOLES>
276.37
4.76
1.51
1.43
4.82
0.13
0.25
-0.1
-0.37
-0.2
-0.3
-0.83
0.14
0.02

> <PUBCHEM_SHAPE_SELFOVERLAP>
578.923

> <PUBCHEM_SHAPE_VOLUME>
162.6

> <PUBCHEM_COORDINATE_TYPE>
2
5
10

$$$$

