56928155
  -OEChem-07051213153D

 74 79  0     1  0  0  0  0  0999 V2000
   -3.4115   -2.6488   -1.8493 O   0  0  0  0  0  0  0  0  0  0  0  0
   -4.7947   -0.4159    0.6515 O   0  0  0  0  0  0  0  0  0  0  0  0
   -1.2493   -3.0688    0.2857 O   0  0  0  0  0  0  0  0  0  0  0  0
   -0.2969    1.5863   -0.1969 O   0  0  0  0  0  0  0  0  0  0  0  0
    0.5869   -4.3577    0.0249 O   0  0  0  0  0  0  0  0  0  0  0  0
    0.8271    2.7286    1.4714 O   0  0  0  0  0  0  0  0  0  0  0  0
    5.3275    0.4861   -1.1415 O   0  0  0  0  0  0  0  0  0  0  0  0
    2.9125    1.0571    1.5869 O   0  0  0  0  0  0  0  0  0  0  0  0
    6.0136   -1.6742    0.3171 O   0  0  0  0  0  0  0  0  0  0  0  0
   -2.2079   -0.8983   -0.5104 C   0  0  1  0  0  0  0  0  0  0  0  0
   -3.5143   -1.4926   -1.0048 C   0  0  2  0  0  0  0  0  0  0  0  0
   -2.5662    0.5884   -0.0020 C   0  0  2  0  0  0  0  0  0  0  0  0
   -4.3360   -1.6976    0.2157 C   0  0  1  0  0  0  0  0  0  0  0  0
   -1.9410   -1.8611    0.7191 C   0  0  1  0  0  0  0  0  0  0  0  0
   -4.0549   -1.4970   -2.4138 C   0  0  0  0  0  0  0  0  0  0  0  0
   -3.3422   -2.3222    1.2064 C   0  0  0  0  0  0  0  0  0  0  0  0
   -3.7653    0.5183    1.0228 C   0  0  1  0  0  0  0  0  0  0  0  0
   -1.0855   -0.9504   -1.5542 C   0  0  0  0  0  0  0  0  0  0  0  0
   -3.0171    1.4960   -1.1907 C   0  0  0  0  0  0  0  0  0  0  0  0
   -1.3557    1.2676    0.7209 C   0  0  0  0  0  0  0  0  0  0  0  0
   -4.4722    1.8308    1.2444 C   0  0  0  0  0  0  0  0  0  0  0  0
   -3.4539    2.9026   -0.7606 C   0  0  0  0  0  0  0  0  0  0  0  0
   -4.3301    2.9132    0.4622 C   0  0  0  0  0  0  0  0  0  0  0  0
    0.0509   -3.3720    0.5210 C   0  0  0  0  0  0  0  0  0  0  0  0
   -5.0324    4.2048    0.7604 C   0  0  0  0  0  0  0  0  0  0  0  0
    0.7326    2.2962    0.3335 C   0  0  0  0  0  0  0  0  0  0  0  0
    0.7878   -2.4787    1.4290 C   0  0  0  0  0  0  0  0  0  0  0  0
    1.7437    2.4982   -0.7187 C   0  0  0  0  0  0  0  0  0  0  0  0
    1.8788   -1.7904    1.0594 C   0  0  0  0  0  0  0  0  0  0  0  0
    3.0284    2.1120   -0.6256 C   0  0  0  0  0  0  0  0  0  0  0  0
    3.7305    1.3285    0.4680 C   0  0  2  0  0  0  0  0  0  0  0  0
    4.3903    0.0429   -0.1140 C   0  0  1  0  0  0  0  0  0  0  0  0
    4.0045    2.4739   -1.7237 C   0  0  0  0  0  0  0  0  0  0  0  0
    2.4636   -1.7566   -0.2597 C   0  0  0  0  0  0  0  0  0  0  0  0
    3.4825   -1.0189   -0.7303 C   0  0  0  0  0  0  0  0  0  0  0  0
    4.7426    1.2364   -2.2142 C   0  0  0  0  0  0  0  0  0  0  0  0
    5.2837   -0.6307    0.9424 C   0  0  2  0  0  0  0  0  0  0  0  0
    6.2397    0.3637    1.5679 C   0  0  0  0  0  0  0  0  0  0  0  0
   -5.2093   -2.3381    0.0594 H   0  0  0  0  0  0  0  0  0  0  0  0
   -1.4050   -1.3847    1.5381 H   0  0  0  0  0  0  0  0  0  0  0  0
   -3.5230   -0.9588   -3.1866 H   0  0  0  0  0  0  0  0  0  0  0  0
   -5.1278   -1.5399   -2.5514 H   0  0  0  0  0  0  0  0  0  0  0  0
   -3.4163   -3.4157    1.1733 H   0  0  0  0  0  0  0  0  0  0  0  0
   -3.5361   -2.0042    2.2356 H   0  0  0  0  0  0  0  0  0  0  0  0
   -3.3771    0.2136    2.0028 H   0  0  0  0  0  0  0  0  0  0  0  0
   -0.1264   -0.6536   -1.1269 H   0  0  0  0  0  0  0  0  0  0  0  0
   -0.9517   -1.9571   -1.9652 H   0  0  0  0  0  0  0  0  0  0  0  0
   -1.2889   -0.3033   -2.4116 H   0  0  0  0  0  0  0  0  0  0  0  0
   -3.8692    1.0416   -1.7076 H   0  0  0  0  0  0  0  0  0  0  0  0
   -2.2243    1.6001   -1.9389 H   0  0  0  0  0  0  0  0  0  0  0  0
   -1.6712    2.1939    1.2149 H   0  0  0  0  0  0  0  0  0  0  0  0
   -0.9477    0.6221    1.5038 H   0  0  0  0  0  0  0  0  0  0  0  0
   -5.1289    1.8804    2.1101 H   0  0  0  0  0  0  0  0  0  0  0  0
   -2.5719    3.5264   -0.5720 H   0  0  0  0  0  0  0  0  0  0  0  0
   -3.9892    3.3636   -1.6000 H   0  0  0  0  0  0  0  0  0  0  0  0
   -4.3028    5.0096    0.8966 H   0  0  0  0  0  0  0  0  0  0  0  0
   -5.6374    4.1459    1.6712 H   0  0  0  0  0  0  0  0  0  0  0  0
   -5.6984    4.4748   -0.0654 H   0  0  0  0  0  0  0  0  0  0  0  0
    0.4245   -2.4125    2.4497 H   0  0  0  0  0  0  0  0  0  0  0  0
    1.3886    3.0223   -1.6019 H   0  0  0  0  0  0  0  0  0  0  0  0
    2.3600   -1.2061    1.8339 H   0  0  0  0  0  0  0  0  0  0  0  0
    4.5101    2.0150    0.8207 H   0  0  0  0  0  0  0  0  0  0  0  0
    3.5141    2.9690   -2.5695 H   0  0  0  0  0  0  0  0  0  0  0  0
    4.7293    3.1872   -1.3107 H   0  0  0  0  0  0  0  0  0  0  0  0
    2.0172   -2.4354   -0.9850 H   0  0  0  0  0  0  0  0  0  0  0  0
    3.7303   -1.2597   -1.7661 H   0  0  0  0  0  0  0  0  0  0  0  0
    4.0836    0.5984   -2.8122 H   0  0  0  0  0  0  0  0  0  0  0  0
    5.5614    1.5411   -2.8748 H   0  0  0  0  0  0  0  0  0  0  0  0
    4.6848   -1.0842    1.7394 H   0  0  0  0  0  0  0  0  0  0  0  0
    2.7520    1.8970    2.0499 H   0  0  0  0  0  0  0  0  0  0  0  0
    6.8078    0.9291    0.8219 H   0  0  0  0  0  0  0  0  0  0  0  0
    6.9893   -0.1691    2.1659 H   0  0  0  0  0  0  0  0  0  0  0  0
    5.7407    1.0613    2.2462 H   0  0  0  0  0  0  0  0  0  0  0  0
    6.5545   -2.1078    0.9989 H   0  0  0  0  0  0  0  0  0  0  0  0
  1 11  1  0  0  0  0
  1 15  1  0  0  0  0
  2 13  1  0  0  0  0
  2 17  1  0  0  0  0
  3 14  1  0  0  0  0
  3 24  1  0  0  0  0
  4 20  1  0  0  0  0
  4 26  1  0  0  0  0
  5 24  2  0  0  0  0
  6 26  2  0  0  0  0
  7 32  1  0  0  0  0
  7 36  1  0  0  0  0
  8 31  1  0  0  0  0
  8 70  1  0  0  0  0
  9 37  1  0  0  0  0
  9 74  1  0  0  0  0
 10 11  1  0  0  0  0
 10 12  1  0  0  0  0
 10 14  1  0  0  0  0
 10 18  1  0  0  0  0
 11 13  1  0  0  0  0
 11 15  1  0  0  0  0
 12 17  1  0  0  0  0
 12 19  1  0  0  0  0
 12 20  1  0  0  0  0
 13 16  1  0  0  0  0
 13 39  1  0  0  0  0
 14 16  1  0  0  0  0
 14 40  1  0  0  0  0
 15 41  1  0  0  0  0
 15 42  1  0  0  0  0
 16 43  1  0  0  0  0
 16 44  1  0  0  0  0
 17 21  1  0  0  0  0
 17 45  1  0  0  0  0
 18 46  1  0  0  0  0
 18 47  1  0  0  0  0
 18 48  1  0  0  0  0
 19 22  1  0  0  0  0
 19 49  1  0  0  0  0
 19 50  1  0  0  0  0
 20 51  1  0  0  0  0
 20 52  1  0  0  0  0
 21 23  2  0  0  0  0
 21 53  1  0  0  0  0
 22 23  1  0  0  0  0
 22 54  1  0  0  0  0
 22 55  1  0  0  0  0
 23 25  1  0  0  0  0
 24 27  1  0  0  0  0
 25 56  1  0  0  0  0
 25 57  1  0  0  0  0
 25 58  1  0  0  0  0
 26 28  1  0  0  0  0
 27 29  2  0  0  0  0
 27 59  1  0  0  0  0
 28 30  2  0  0  0  0
 28 60  1  0  0  0  0
 29 34  1  0  0  0  0
 29 61  1  0  0  0  0
 30 31  1  0  0  0  0
 30 33  1  0  0  0  0
 31 32  1  0  0  0  0
 31 62  1  0  0  0  0
 32 35  1  0  0  0  0
 32 37  1  0  0  0  0
 33 36  1  0  0  0  0
 33 63  1  0  0  0  0
 33 64  1  0  0  0  0
 34 35  2  0  0  0  0
 34 65  1  0  0  0  0
 35 66  1  0  0  0  0
 36 67  1  0  0  0  0
 36 68  1  0  0  0  0
 37 38  1  0  0  0  0
 37 69  1  0  0  0  0
 38 71  1  0  0  0  0
 38 72  1  0  0  0  0
 38 73  1  0  0  0  0
M  END
> <PUBCHEM_COMPOUND_CID>
56928155

> <PUBCHEM_CONFORMER_RMSD>
0.8

> <PUBCHEM_CONFORMER_DIVERSEORDER>
1
2
3
4

> <PUBCHEM_MMFF94_PARTIAL_CHARGES>
43
1 -0.3
10 0.09
11 -0.04
13 0.38
14 0.28
15 -0.05
17 0.42
2 -0.56
20 0.28
21 -0.29
22 0.14
23 -0.28
24 0.71
25 0.14
26 0.71
27 -0.14
28 -0.14
29 -0.15
3 -0.43
30 -0.28
31 0.42
32 0.42
33 0.14
34 -0.15
35 -0.29
36 0.28
37 0.28
4 -0.43
41 0.1
42 0.1
5 -0.57
53 0.15
59 0.15
6 -0.57
60 0.15
61 0.15
65 0.15
66 0.15
7 -0.56
70 0.4
74 0.4
8 -0.68
9 -0.68

> <PUBCHEM_EFFECTIVE_ROTOR_COUNT>
3.6

> <PUBCHEM_PHARMACOPHORE_FEATURES>
12
1 1 acceptor
1 2 acceptor
1 5 acceptor
1 6 acceptor
1 7 acceptor
1 8 acceptor
1 8 donor
1 9 acceptor
1 9 donor
6 12 17 19 21 22 23 rings
6 7 30 31 32 33 36 rings
8 2 10 11 12 13 14 16 17 rings

> <PUBCHEM_HEAVY_ATOM_COUNT>
38

> <PUBCHEM_ATOM_DEF_STEREO_COUNT>
8

> <PUBCHEM_ATOM_UDEF_STEREO_COUNT>
1

> <PUBCHEM_BOND_DEF_STEREO_COUNT>
3

> <PUBCHEM_BOND_UDEF_STEREO_COUNT>
0

> <PUBCHEM_ISOTOPIC_ATOM_COUNT>
0

> <PUBCHEM_COMPONENT_COUNT>
1

> <PUBCHEM_CACTVS_TAUTO_COUNT>
1

> <PUBCHEM_CONFORMER_ID>
0364A79B00000001

> <PUBCHEM_MMFF94_ENERGY>
152.7577

> <PUBCHEM_FEATURE_SELFOVERLAP>
60.915

> <PUBCHEM_SHAPE_FINGERPRINT>
10190206 1 17769073663508773588
10439779 11 18338814363766831530
1100329 8 18267300022292034592
11513181 2 18333723620350814790
12107698 1 18114754732537281734
12156800 1 13988029470233456139
12422481 6 17631453539108373796
12633257 1 18272090474638386054
12788726 201 18266453205318716049
12925494 130 18267866262813241465
12978246 48 18343582919451580672
13617811 41 18269562641925326221
13726171 33 18194658442242862468
14117953 113 18126000722656242172
14347332 77 18262803956580711349
14394314 77 18339646745667077424
14725015 67 18265062331462345499
14790565 3 18340476833394552945
14840074 17 17632286831467307765
15001296 14 18200309892795139304
15297060 5 18188493592071953074
15484559 13 15178994223375448508
15968369 153 18191022305596439771
17809404 112 17385441038024910988
20642791 178 18343011224897726640
20764821 26 18343306993451596188
23559900 14 18191582158794258710
32027 91 16661472069656135198
3298306 158 18337951311284045741
338550 245 18342451565063314460
3388396 114 17613169472324137757
350125 39 18411694388302235729
3680242 22 18200591522817739466
392239 28 18199453386597128043
44062 13 18335416863730324789
460360 51 17845110591410154017
463206 1 18191308174029320567
508706 21 18412822469266481059
5265222 85 18268127817452357268
6371009 1 18269290005437390294

> <PUBCHEM_SHAPE_MULTIPOLES>
729.2
12.69
4.73
1.75
9.49
0.28
0.63
-4.3
-0.39
-3.71
-0.4
0.17
-0.01
-2.24

> <PUBCHEM_SHAPE_SELFOVERLAP>
1575.828

> <PUBCHEM_SHAPE_VOLUME>
389.4

> <PUBCHEM_COORDINATE_TYPE>
2
5
10

$$$$

