2541
  -OEChem-07051212532D

 53 57  0     0  0  0  0  0  0999 V2000
    6.2619   -2.3771    0.0000 O   0  0  0  0  0  0  0  0  0  0  0  0
    2.0000    0.1229    0.0000 O   0  0  0  0  0  0  0  0  0  0  0  0
    3.7320    0.1229    0.0000 O   0  0  0  0  0  0  0  0  0  0  0  0
    4.6783   -1.5724    0.0000 N   0  0  0  0  0  0  0  0  0  0  0  0
    4.6783   -3.1818    0.0000 N   0  0  0  0  0  0  0  0  0  0  0  0
    7.5511    1.7950    0.0000 N   0  0  0  0  0  0  0  0  0  0  0  0
    8.7554    2.8756    0.0000 N   0  0  0  0  0  0  0  0  0  0  0  0
    7.1459    2.7093    0.0000 N   0  0  0  0  0  0  0  0  0  0  0  0
    7.8902    3.3771    0.0000 N   0  0  0  0  0  0  0  0  0  0  0  0
    4.9889   -0.6219    0.0000 C   0  0  0  0  0  0  0  0  0  0  0  0
    3.7320   -1.8771    0.0000 C   0  0  0  0  0  0  0  0  0  0  0  0
    5.9674   -0.4156    0.0000 C   0  0  0  0  0  0  0  0  0  0  0  0
    3.7320   -2.8771    0.0000 C   0  0  0  0  0  0  0  0  0  0  0  0
    5.2619   -2.3771    0.0000 C   0  0  0  0  0  0  0  0  0  0  0  0
    2.8660   -1.3771    0.0000 C   0  0  0  0  0  0  0  0  0  0  0  0
    6.6353   -1.1600    0.0000 C   0  0  0  0  0  0  0  0  0  0  0  0
    6.2781    0.5349    0.0000 C   0  0  0  0  0  0  0  0  0  0  0  0
    7.9244   -0.0032    0.0000 C   0  0  0  0  0  0  0  0  0  0  0  0
    2.8660   -3.3771    0.0000 C   0  0  0  0  0  0  0  0  0  0  0  0
    7.6138   -0.9537    0.0000 C   0  0  0  0  0  0  0  0  0  0  0  0
    7.2566    0.7411    0.0000 C   0  0  0  0  0  0  0  0  0  0  0  0
    2.0000   -1.8771    0.0000 C   0  0  0  0  0  0  0  0  0  0  0  0
    8.9030    0.2030    0.0000 C   0  0  0  0  0  0  0  0  0  0  0  0
    2.0000   -2.8771    0.0000 C   0  0  0  0  0  0  0  0  0  0  0  0
    9.2136    1.1535    0.0000 C   0  0  0  0  0  0  0  0  0  0  0  0
    2.8660   -0.3771    0.0000 C   0  0  0  0  0  0  0  0  0  0  0  0
    6.7619   -3.2431    0.0000 C   0  0  0  0  0  0  0  0  0  0  0  0
    9.5708   -0.5413    0.0000 C   0  0  0  0  0  0  0  0  0  0  0  0
   10.1921    1.3598    0.0000 C   0  0  0  0  0  0  0  0  0  0  0  0
   10.5493   -0.3351    0.0000 C   0  0  0  0  0  0  0  0  0  0  0  0
    8.5458    1.8978    0.0000 C   0  0  0  0  0  0  0  0  0  0  0  0
   10.8600    0.6154    0.0000 C   0  0  0  0  0  0  0  0  0  0  0  0
    7.7619   -3.2431    0.0000 C   0  0  0  0  0  0  0  0  0  0  0  0
    4.9684   -0.0022    0.0000 H   0  0  0  0  0  0  0  0  0  0  0  0
    4.3751   -0.5345    0.0000 H   0  0  0  0  0  0  0  0  0  0  0  0
    6.4427   -1.7493    0.0000 H   0  0  0  0  0  0  0  0  0  0  0  0
    5.8640    0.9963    0.0000 H   0  0  0  0  0  0  0  0  0  0  0  0
    2.8660   -3.9971    0.0000 H   0  0  0  0  0  0  0  0  0  0  0  0
    8.0279   -1.4152    0.0000 H   0  0  0  0  0  0  0  0  0  0  0  0
    7.4492    1.3304    0.0000 H   0  0  0  0  0  0  0  0  0  0  0  0
    1.4631   -1.5671    0.0000 H   0  0  0  0  0  0  0  0  0  0  0  0
    1.4631   -3.1871    0.0000 H   0  0  0  0  0  0  0  0  0  0  0  0
    6.1793   -3.4552    0.0000 H   0  0  0  0  0  0  0  0  0  0  0  0
    6.8695   -3.8537    0.0000 H   0  0  0  0  0  0  0  0  0  0  0  0
    9.3782   -1.1306    0.0000 H   0  0  0  0  0  0  0  0  0  0  0  0
   10.3847    1.9491    0.0000 H   0  0  0  0  0  0  0  0  0  0  0  0
   10.9634   -0.7965    0.0000 H   0  0  0  0  0  0  0  0  0  0  0  0
   11.4666    0.7433    0.0000 H   0  0  0  0  0  0  0  0  0  0  0  0
    7.7619   -3.8631    0.0000 H   0  0  0  0  0  0  0  0  0  0  0  0
    8.3819   -3.2431    0.0000 H   0  0  0  0  0  0  0  0  0  0  0  0
    7.7619   -2.6231    0.0000 H   0  0  0  0  0  0  0  0  0  0  0  0
    2.0000    0.7429    0.0000 H   0  0  0  0  0  0  0  0  0  0  0  0
    6.5397    2.8392    0.0000 H   0  0  0  0  0  0  0  0  0  0  0  0
  1 14  1  0  0  0  0
  1 27  1  0  0  0  0
  2 26  1  0  0  0  0
  2 52  1  0  0  0  0
  3 26  2  0  0  0  0
  4 10  1  0  0  0  0
  4 11  1  0  0  0  0
  4 14  1  0  0  0  0
  5 13  1  0  0  0  0
  5 14  2  0  0  0  0
  6  8  1  0  0  0  0
  6 31  2  0  0  0  0
  7  9  2  0  0  0  0
  7 31  1  0  0  0  0
  8  9  1  0  0  0  0
  8 53  1  0  0  0  0
 10 12  1  0  0  0  0
 10 34  1  0  0  0  0
 10 35  1  0  0  0  0
 11 13  1  0  0  0  0
 11 15  2  0  0  0  0
 12 16  2  0  0  0  0
 12 17  1  0  0  0  0
 13 19  2  0  0  0  0
 15 22  1  0  0  0  0
 15 26  1  0  0  0  0
 16 20  1  0  0  0  0
 16 36  1  0  0  0  0
 17 21  2  0  0  0  0
 17 37  1  0  0  0  0
 18 20  2  0  0  0  0
 18 21  1  0  0  0  0
 18 23  1  0  0  0  0
 19 24  1  0  0  0  0
 19 38  1  0  0  0  0
 20 39  1  0  0  0  0
 21 40  1  0  0  0  0
 22 24  2  0  0  0  0
 22 41  1  0  0  0  0
 23 25  1  0  0  0  0
 23 28  2  0  0  0  0
 24 42  1  0  0  0  0
 25 29  2  0  0  0  0
 25 31  1  0  0  0  0
 27 33  1  0  0  0  0
 27 43  1  0  0  0  0
 27 44  1  0  0  0  0
 28 30  1  0  0  0  0
 28 45  1  0  0  0  0
 29 32  1  0  0  0  0
 29 46  1  0  0  0  0
 30 32  2  0  0  0  0
 30 47  1  0  0  0  0
 32 48  1  0  0  0  0
 33 49  1  0  0  0  0
 33 50  1  0  0  0  0
 33 51  1  0  0  0  0
M  END
> <PUBCHEM_COMPOUND_CID>
2541

> <PUBCHEM_COMPOUND_CANONICALIZED>
1

> <PUBCHEM_CACTVS_COMPLEXITY>
660

> <PUBCHEM_CACTVS_HBOND_ACCEPTOR>
7

> <PUBCHEM_CACTVS_HBOND_DONOR>
2

> <PUBCHEM_CACTVS_ROTATABLE_BOND>
7

> <PUBCHEM_CACTVS_SUBSKEYS>
AAADceB7sAAAAAAAAAAAAAAAAAAAAWLAAAAwYMAAAAAAAFgB/AAAHgAYCAAADAjhnwYz2LcOFgCqAybybACCgC8lEqAd+CE4fNiIbrrAnZGccYhuwAPI2ee8yOCOwAAAQAASACCAAACAACQAQAAAAAAAAA==

> <PUBCHEM_IUPAC_OPENEYE_NAME>
2-ethoxy-3-[[4-[2-(2H-tetrazol-5-yl)phenyl]phenyl]methyl]benzimidazole-4-carboxylic acid

> <PUBCHEM_IUPAC_CAS_NAME>
2-ethoxy-3-[[4-[2-(2H-tetrazol-5-yl)phenyl]phenyl]methyl]-4-benzimidazolecarboxylic acid

> <PUBCHEM_IUPAC_NAME>
2-ethoxy-3-[[4-[2-(2H-tetrazol-5-yl)phenyl]phenyl]methyl]benzimidazole-4-carboxylic acid

> <PUBCHEM_IUPAC_SYSTEMATIC_NAME>
2-ethoxy-3-[[4-[2-(2H-1,2,3,4-tetrazol-5-yl)phenyl]phenyl]methyl]benzimidazole-4-carboxylic acid

> <PUBCHEM_IUPAC_TRADITIONAL_NAME>
2-ethoxy-3-[4-[2-(2H-tetrazol-5-yl)phenyl]benzyl]benzimidazole-4-carboxylic acid

> <PUBCHEM_IUPAC_INCHI>
InChI=1S/C24H20N6O3/c1-2-33-24-25-20-9-5-8-19(23(31)32)21(20)30(24)14-15-10-12-16(13-11-15)17-6-3-4-7-18(17)22-26-28-29-27-22/h3-13H,2,14H2,1H3,(H,31,32)(H,26,27,28,29)

> <PUBCHEM_IUPAC_INCHIKEY>
HTQMVQVXFRQIKW-UHFFFAOYSA-N

> <PUBCHEM_XLOGP3_AA>
4.1

> <PUBCHEM_EXACT_MASS>
440.159689

> <PUBCHEM_MOLECULAR_FORMULA>
C24H20N6O3

> <PUBCHEM_MOLECULAR_WEIGHT>
440.454

> <PUBCHEM_OPENEYE_CAN_SMILES>
CCOC1=NC2=CC=CC(=C2N1CC3=CC=C(C=C3)C4=CC=CC=C4C5=NNN=N5)C(=O)O

> <PUBCHEM_OPENEYE_ISO_SMILES>
CCOC1=NC2=CC=CC(=C2N1CC3=CC=C(C=C3)C4=CC=CC=C4C5=NNN=N5)C(=O)O

> <PUBCHEM_CACTVS_TPSA>
119

> <PUBCHEM_MONOISOTOPIC_WEIGHT>
440.159689

> <PUBCHEM_TOTAL_CHARGE>
0

> <PUBCHEM_HEAVY_ATOM_COUNT>
33

> <PUBCHEM_ATOM_DEF_STEREO_COUNT>
0

> <PUBCHEM_ATOM_UDEF_STEREO_COUNT>
0

> <PUBCHEM_BOND_DEF_STEREO_COUNT>
0

> <PUBCHEM_BOND_UDEF_STEREO_COUNT>
0

> <PUBCHEM_ISOTOPIC_ATOM_COUNT>
0

> <PUBCHEM_COMPONENT_COUNT>
1

> <PUBCHEM_CACTVS_TAUTO_COUNT>
2

> <PUBCHEM_COORDINATE_TYPE>
1
5
255

> <PUBCHEM_BONDANNOTATIONS>
11  13  8
11  15  8
12  16  8
12  17  8
13  19  8
15  22  8
16  20  8
17  21  8
18  20  8
18  21  8
19  24  8
22  24  8
23  25  8
23  28  8
25  29  8
28  30  8
29  32  8
30  32  8
4  11  8
4  14  8
5  13  8
5  14  8
6  31  8
6  8  8
7  31  8
7  9  8
8  9  8

$$$$

