25245825
  -OEChem-07051213152D

 39 39  0     1  0  0  0  0  0999 V2000
    8.0622   -0.8100    0.0000 O   0  0  0  0  0  0  0  0  0  0  0  0
    7.1962    0.6900    0.0000 O   0  0  0  0  0  0  0  0  0  0  0  0
    5.4641   -0.3100    0.0000 C   0  0  2  0  0  0  0  0  0  0  0  0
    5.4641    0.6900    0.0000 C   0  0  0  0  0  0  0  0  0  0  0  0
    4.5981   -0.8100    0.0000 C   0  0  0  0  0  0  0  0  0  0  0  0
    4.5981    1.1900    0.0000 C   0  0  0  0  0  0  0  0  0  0  0  0
    3.7320    0.6900    0.0000 C   0  0  0  0  0  0  0  0  0  0  0  0
    6.3301   -0.8100    0.0000 C   0  0  0  0  0  0  0  0  0  0  0  0
    3.7320   -0.3100    0.0000 C   0  0  0  0  0  0  0  0  0  0  0  0
    2.0000   -0.3100    0.0000 C   0  0  0  0  0  0  0  0  0  0  0  0
    2.8660   -0.8100    0.0000 C   0  0  0  0  0  0  0  0  0  0  0  0
    2.0000    0.6900    0.0000 C   0  0  0  0  0  0  0  0  0  0  0  0
    2.8660    1.1900    0.0000 C   0  0  0  0  0  0  0  0  0  0  0  0
    4.0013   -0.8364    0.0000 C   0  0  0  0  0  0  0  0  0  0  0  0
    2.8660   -1.8100    0.0000 C   0  0  0  0  0  0  0  0  0  0  0  0
    7.1962   -0.3100    0.0000 C   0  0  0  0  0  0  0  0  0  0  0  0
    6.3301   -1.8100    0.0000 C   0  0  0  0  0  0  0  0  0  0  0  0
    5.4641   -0.9300    0.0000 H   0  0  0  0  0  0  0  0  0  0  0  0
    6.0747    0.5823    0.0000 H   0  0  0  0  0  0  0  0  0  0  0  0
    5.6762    1.2726    0.0000 H   0  0  0  0  0  0  0  0  0  0  0  0
    4.1996   -1.2850    0.0000 H   0  0  0  0  0  0  0  0  0  0  0  0
    4.9966   -1.2850    0.0000 H   0  0  0  0  0  0  0  0  0  0  0  0
    4.9966    1.6650    0.0000 H   0  0  0  0  0  0  0  0  0  0  0  0
    4.1996    1.6650    0.0000 H   0  0  0  0  0  0  0  0  0  0  0  0
    3.3335    0.1649    0.0000 H   0  0  0  0  0  0  0  0  0  0  0  0
    1.3894   -0.2023    0.0000 H   0  0  0  0  0  0  0  0  0  0  0  0
    1.7880   -0.8926    0.0000 H   0  0  0  0  0  0  0  0  0  0  0  0
    1.7880    1.2726    0.0000 H   0  0  0  0  0  0  0  0  0  0  0  0
    1.3894    0.5823    0.0000 H   0  0  0  0  0  0  0  0  0  0  0  0
    2.8660    1.8100    0.0000 H   0  0  0  0  0  0  0  0  0  0  0  0
    3.3907   -0.9441    0.0000 H   0  0  0  0  0  0  0  0  0  0  0  0
    4.1090   -1.4470    0.0000 H   0  0  0  0  0  0  0  0  0  0  0  0
    4.6119   -0.7287    0.0000 H   0  0  0  0  0  0  0  0  0  0  0  0
    2.2460   -1.8100    0.0000 H   0  0  0  0  0  0  0  0  0  0  0  0
    2.8660   -2.4300    0.0000 H   0  0  0  0  0  0  0  0  0  0  0  0
    3.4860   -1.8100    0.0000 H   0  0  0  0  0  0  0  0  0  0  0  0
    5.7932   -2.1200    0.0000 H   0  0  0  0  0  0  0  0  0  0  0  0
    6.8671   -2.1200    0.0000 H   0  0  0  0  0  0  0  0  0  0  0  0
    8.5991   -0.5000    0.0000 H   0  0  0  0  0  0  0  0  0  0  0  0
  1 16  1  0  0  0  0
  1 39  1  0  0  0  0
  2 16  2  0  0  0  0
  3  4  1  0  0  0  0
  3  5  1  0  0  0  0
  3  8  1  1  0  0  0
  3 18  1  0  0  0  0
  4  6  1  0  0  0  0
  4 19  1  0  0  0  0
  4 20  1  0  0  0  0
  5  9  1  0  0  0  0
  5 21  1  0  0  0  0
  5 22  1  0  0  0  0
  6  7  1  0  0  0  0
  6 23  1  0  0  0  0
  6 24  1  0  0  0  0
  7 13  2  0  0  0  0
  7 14  1  0  0  0  0
  8 16  1  0  0  0  0
  8 17  2  0  0  0  0
  9 11  2  0  0  0  0
  9 25  1  0  0  0  0
 10 11  1  0  0  0  0
 10 12  1  0  0  0  0
 10 26  1  0  0  0  0
 10 27  1  0  0  0  0
 11 15  1  0  0  0  0
 12 13  1  0  0  0  0
 12 28  1  0  0  0  0
 12 29  1  0  0  0  0
 13 30  1  0  0  0  0
 14 31  1  0  0  0  0
 14 32  1  0  0  0  0
 14 33  1  0  0  0  0
 15 34  1  0  0  0  0
 15 35  1  0  0  0  0
 15 36  1  0  0  0  0
 17 37  1  0  0  0  0
 17 38  1  0  0  0  0
M  END
> <PUBCHEM_COMPOUND_CID>
25245825

> <PUBCHEM_COMPOUND_CANONICALIZED>
1

> <PUBCHEM_CACTVS_COMPLEXITY>
361

> <PUBCHEM_CACTVS_HBOND_ACCEPTOR>
2

> <PUBCHEM_CACTVS_HBOND_DONOR>
1

> <PUBCHEM_CACTVS_ROTATABLE_BOND>
2

> <PUBCHEM_CACTVS_SUBSKEYS>
AAADceBwMAAAAAAAAAAAAAAAAAAAAAAAAAAAAAAAAAAAAACAAAAAGgAACAAADQCAgAACCAAAAgCIAiDSCAAAAAAgAAAACAEAAEgABBIAAQAAQAAEgAAIEIOIyCCOAAAAAAAAAAAAAAAAAAAAAAAAAAAAAA==

> <PUBCHEM_IUPAC_OPENEYE_NAME>
2-[(1R,3E,7E)-4,8-dimethylcyclodeca-3,7-dien-1-yl]prop-2-enoic acid

> <PUBCHEM_IUPAC_CAS_NAME>
2-[(1R,3E,7E)-4,8-dimethyl-1-cyclodeca-3,7-dienyl]-2-propenoic acid

> <PUBCHEM_IUPAC_NAME>
2-[(1R,3E,7E)-4,8-dimethylcyclodeca-3,7-dien-1-yl]prop-2-enoic acid

> <PUBCHEM_IUPAC_SYSTEMATIC_NAME>
2-[(1R,3E,7E)-4,8-dimethylcyclodeca-3,7-dien-1-yl]prop-2-enoic acid

> <PUBCHEM_IUPAC_TRADITIONAL_NAME>
2-[(1R,3E,7E)-4,8-dimethylcyclodeca-3,7-dien-1-yl]acrylic acid

> <PUBCHEM_IUPAC_INCHI>
InChI=1S/C15H22O2/c1-11-5-4-6-12(2)8-10-14(9-7-11)13(3)15(16)17/h5,8,14H,3-4,6-7,9-10H2,1-2H3,(H,16,17)/b11-5+,12-8+/t14-/m1/s1

> <PUBCHEM_IUPAC_INCHIKEY>
IBJVPIJUFFVDBS-JBMXZMKISA-N

> <PUBCHEM_XLOGP3_AA>
3.3

> <PUBCHEM_EXACT_MASS>
234.16198

> <PUBCHEM_MOLECULAR_FORMULA>
C15H22O2

> <PUBCHEM_MOLECULAR_WEIGHT>
234.33398

> <PUBCHEM_OPENEYE_CAN_SMILES>
CC1=CCCC(=CCC(CC1)C(=C)C(=O)O)C

> <PUBCHEM_OPENEYE_ISO_SMILES>
C/C/1=C\CC/C(=C/C[C@@H](CC1)C(=C)C(=O)O)/C

> <PUBCHEM_CACTVS_TPSA>
37.3

> <PUBCHEM_MONOISOTOPIC_WEIGHT>
234.16198

> <PUBCHEM_TOTAL_CHARGE>
0

> <PUBCHEM_HEAVY_ATOM_COUNT>
17

> <PUBCHEM_ATOM_DEF_STEREO_COUNT>
1

> <PUBCHEM_ATOM_UDEF_STEREO_COUNT>
0

> <PUBCHEM_BOND_DEF_STEREO_COUNT>
2

> <PUBCHEM_BOND_UDEF_STEREO_COUNT>
0

> <PUBCHEM_ISOTOPIC_ATOM_COUNT>
0

> <PUBCHEM_COMPONENT_COUNT>
1

> <PUBCHEM_CACTVS_TAUTO_COUNT>
1

> <PUBCHEM_COORDINATE_TYPE>
1
5
255

> <PUBCHEM_BONDANNOTATIONS>
3  8  5

$$$$

