13713
  -OEChem-06241222402D

 27 29  0     0  0  0  0  0  0999 V2000
    4.6660   -1.3329    0.0000 N   0  0  0  0  0  0  0  0  0  0  0  0
    4.6660    1.6671    0.0000 N   0  0  0  0  0  0  0  0  0  0  0  0
    8.1962   -1.3571    0.0000 N   0  0  0  0  0  0  0  0  0  0  0  0
    5.5321    0.1671    0.0000 C   0  0  0  0  0  0  0  0  0  0  0  0
    3.8000    0.1671    0.0000 C   0  0  0  0  0  0  0  0  0  0  0  0
    4.6660    0.6671    0.0000 C   0  0  0  0  0  0  0  0  0  0  0  0
    5.5321   -0.8329    0.0000 C   0  0  0  0  0  0  0  0  0  0  0  0
    3.8000   -0.8329    0.0000 C   0  0  0  0  0  0  0  0  0  0  0  0
    6.4260    0.7017    0.0000 C   0  0  0  0  0  0  0  0  0  0  0  0
    6.4260   -1.3676    0.0000 C   0  0  0  0  0  0  0  0  0  0  0  0
    2.9061    0.7017    0.0000 C   0  0  0  0  0  0  0  0  0  0  0  0
    7.3321   -0.8537    0.0000 C   0  0  0  0  0  0  0  0  0  0  0  0
    2.9061   -1.3676    0.0000 C   0  0  0  0  0  0  0  0  0  0  0  0
    7.3321    0.1879    0.0000 C   0  0  0  0  0  0  0  0  0  0  0  0
    2.0000    0.1879    0.0000 C   0  0  0  0  0  0  0  0  0  0  0  0
    2.0000   -0.8537    0.0000 C   0  0  0  0  0  0  0  0  0  0  0  0
    6.4188    1.3217    0.0000 H   0  0  0  0  0  0  0  0  0  0  0  0
    6.4188   -1.9876    0.0000 H   0  0  0  0  0  0  0  0  0  0  0  0
    2.9132    1.3217    0.0000 H   0  0  0  0  0  0  0  0  0  0  0  0
    2.9132   -1.9876    0.0000 H   0  0  0  0  0  0  0  0  0  0  0  0
    7.8678    0.5000    0.0000 H   0  0  0  0  0  0  0  0  0  0  0  0
    1.4643    0.5000    0.0000 H   0  0  0  0  0  0  0  0  0  0  0  0
    1.4643   -1.1658    0.0000 H   0  0  0  0  0  0  0  0  0  0  0  0
    4.1291    1.9771    0.0000 H   0  0  0  0  0  0  0  0  0  0  0  0
    5.2030    1.9771    0.0000 H   0  0  0  0  0  0  0  0  0  0  0  0
    8.7343   -1.0492    0.0000 H   0  0  0  0  0  0  0  0  0  0  0  0
    8.1938   -1.9771    0.0000 H   0  0  0  0  0  0  0  0  0  0  0  0
  1  7  2  0  0  0  0
  1  8  1  0  0  0  0
  2  6  1  0  0  0  0
  2 24  1  0  0  0  0
  2 25  1  0  0  0  0
  3 12  1  0  0  0  0
  3 26  1  0  0  0  0
  3 27  1  0  0  0  0
  4  6  2  0  0  0  0
  4  7  1  0  0  0  0
  4  9  1  0  0  0  0
  5  6  1  0  0  0  0
  5  8  1  0  0  0  0
  5 11  2  0  0  0  0
  7 10  1  0  0  0  0
  8 13  2  0  0  0  0
  9 14  2  0  0  0  0
  9 17  1  0  0  0  0
 10 12  2  0  0  0  0
 10 18  1  0  0  0  0
 11 15  1  0  0  0  0
 11 19  1  0  0  0  0
 12 14  1  0  0  0  0
 13 16  1  0  0  0  0
 13 20  1  0  0  0  0
 14 21  1  0  0  0  0
 15 16  2  0  0  0  0
 15 22  1  0  0  0  0
 16 23  1  0  0  0  0
M  END
> <PUBCHEM_COMPOUND_CID>
13713

> <PUBCHEM_COMPOUND_CANONICALIZED>
1

> <PUBCHEM_CACTVS_COMPLEXITY>
256

> <PUBCHEM_CACTVS_HBOND_ACCEPTOR>
3

> <PUBCHEM_CACTVS_HBOND_DONOR>
2

> <PUBCHEM_CACTVS_ROTATABLE_BOND>
0

> <PUBCHEM_CACTVS_SUBSKEYS>
AAADccBzAAAAAAAAAAAAAAAAAAAAAAAAAAA8YIAAAAAAAACx/AAAHAAQAAAADAiBHgAwwPJIEACgAyRiRACCgCAhAiAImCAwZJgIIOLA0dGEJAhgkADIyAcQgMAOCAAAAAQCAAAQAAAACAQAAAAAAAAAAA==

> <PUBCHEM_IUPAC_OPENEYE_NAME>
acridine-3,9-diamine

> <PUBCHEM_IUPAC_CAS_NAME>
acridine-3,9-diamine

> <PUBCHEM_IUPAC_NAME>
acridine-3,9-diamine

> <PUBCHEM_IUPAC_SYSTEMATIC_NAME>
acridine-3,9-diamine

> <PUBCHEM_IUPAC_TRADITIONAL_NAME>
(3-aminoacridin-9-yl)amine

> <PUBCHEM_IUPAC_INCHI>
InChI=1S/C13H11N3/c14-8-5-6-10-12(7-8)16-11-4-2-1-3-9(11)13(10)15/h1-7H,14H2,(H2,15,16)

> <PUBCHEM_IUPAC_INCHIKEY>
AMOPBNMABDFREG-UHFFFAOYSA-N

> <PUBCHEM_XLOGP3>
2.1

> <PUBCHEM_EXACT_MASS>
209.095297

> <PUBCHEM_MOLECULAR_FORMULA>
C13H11N3

> <PUBCHEM_MOLECULAR_WEIGHT>
209.24654

> <PUBCHEM_OPENEYE_CAN_SMILES>
C1=CC=C2C(=C1)C(=C3C=CC(=CC3=N2)N)N

> <PUBCHEM_OPENEYE_ISO_SMILES>
C1=CC=C2C(=C1)C(=C3C=CC(=CC3=N2)N)N

> <PUBCHEM_CACTVS_TPSA>
64.9

> <PUBCHEM_MONOISOTOPIC_WEIGHT>
209.095297

> <PUBCHEM_TOTAL_CHARGE>
0

> <PUBCHEM_HEAVY_ATOM_COUNT>
16

> <PUBCHEM_ATOM_DEF_STEREO_COUNT>
0

> <PUBCHEM_ATOM_UDEF_STEREO_COUNT>
0

> <PUBCHEM_BOND_DEF_STEREO_COUNT>
0

> <PUBCHEM_BOND_UDEF_STEREO_COUNT>
0

> <PUBCHEM_ISOTOPIC_ATOM_COUNT>
0

> <PUBCHEM_COMPONENT_COUNT>
1

> <PUBCHEM_CACTVS_TAUTO_COUNT>
22

> <PUBCHEM_COORDINATE_TYPE>
1
5
255

> <PUBCHEM_BONDANNOTATIONS>
1  7  8
1  8  8
10  12  8
11  15  8
12  14  8
13  16  8
15  16  8
4  6  8
4  7  8
4  9  8
5  11  8
5  6  8
5  8  8
7  10  8
8  13  8
9  14  8

$$$$

