442847
  -OEChem-07051212592D

 57 59  0     1  0  0  0  0  0999 V2000
    2.4846    2.3863    0.0000 O   0  0  0  0  0  0  0  0  0  0  0  0
    3.6672   -3.5154    0.0000 O   0  0  0  0  0  0  0  0  0  0  0  0
    4.5332   -2.0154    0.0000 N   0  0  0  0  0  0  0  0  0  0  0  0
    5.9187    1.6378    0.0000 N   0  0  0  0  0  0  0  0  0  0  0  0
    2.5797    0.8148    0.0000 N   0  0  0  0  0  0  0  0  0  0  0  0
    5.0332    2.1025    0.0000 C   0  0  1  0  0  0  0  0  0  0  0  0
    6.2527   -1.1129    0.0000 C   0  0  0  0  0  0  0  0  0  0  0  0
    6.6073   -0.1779    0.0000 C   0  0  0  0  0  0  0  0  0  0  0  0
    5.5042   -1.7760    0.0000 C   0  0  0  0  0  0  0  0  0  0  0  0
    6.4868    0.8148    0.0000 C   0  0  0  0  0  0  0  0  0  0  0  0
    3.5623   -1.7760    0.0000 C   0  0  0  0  0  0  0  0  0  0  0  0
    4.0332    2.1025    0.0000 C   0  0  0  0  0  0  0  0  0  0  0  0
    2.8138   -1.1129    0.0000 C   0  0  0  0  0  0  0  0  0  0  0  0
    2.4592   -0.1779    0.0000 C   0  0  0  0  0  0  0  0  0  0  0  0
    5.2726    3.0735    0.0000 C   0  0  0  0  0  0  0  0  0  0  0  0
    3.1478    1.6378    0.0000 C   0  0  0  0  0  0  0  0  0  0  0  0
    4.5332   -3.0154    0.0000 C   0  0  0  0  0  0  0  0  0  0  0  0
    6.2331    3.3517    0.0000 C   0  0  0  0  0  0  0  0  0  0  0  0
    4.5513    3.7662    0.0000 C   0  0  0  0  0  0  0  0  0  0  0  0
    5.3993   -3.5154    0.0000 C   0  0  0  0  0  0  0  0  0  0  0  0
    6.4724    4.3226    0.0000 C   0  0  0  0  0  0  0  0  0  0  0  0
    4.7907    4.7371    0.0000 C   0  0  0  0  0  0  0  0  0  0  0  0
    5.7512    5.0154    0.0000 C   0  0  0  0  0  0  0  0  0  0  0  0
    5.3993   -4.5154    0.0000 C   0  0  0  0  0  0  0  0  0  0  0  0
    6.2653   -3.0154    0.0000 C   0  0  0  0  0  0  0  0  0  0  0  0
    6.2653   -5.0154    0.0000 C   0  0  0  0  0  0  0  0  0  0  0  0
    7.1313   -3.5154    0.0000 C   0  0  0  0  0  0  0  0  0  0  0  0
    7.1313   -4.5154    0.0000 C   0  0  0  0  0  0  0  0  0  0  0  0
    5.5986    2.3570    0.0000 H   0  0  0  0  0  0  0  0  0  0  0  0
    6.4725   -1.6926    0.0000 H   0  0  0  0  0  0  0  0  0  0  0  0
    5.7424   -0.7607    0.0000 H   0  0  0  0  0  0  0  0  0  0  0  0
    7.0714   -0.5890    0.0000 H   0  0  0  0  0  0  0  0  0  0  0  0
    5.9918   -0.1032    0.0000 H   0  0  0  0  0  0  0  0  0  0  0  0
    5.4294   -2.3915    0.0000 H   0  0  0  0  0  0  0  0  0  0  0  0
    5.2160   -1.2270    0.0000 H   0  0  0  0  0  0  0  0  0  0  0  0
    7.0887    0.6664    0.0000 H   0  0  0  0  0  0  0  0  0  0  0  0
    5.9070    0.5950    0.0000 H   0  0  0  0  0  0  0  0  0  0  0  0
    3.0133   -2.0642    0.0000 H   0  0  0  0  0  0  0  0  0  0  0  0
    3.8504   -1.2270    0.0000 H   0  0  0  0  0  0  0  0  0  0  0  0
    6.3298    2.1019    0.0000 H   0  0  0  0  0  0  0  0  0  0  0  0
    4.2531    2.6822    0.0000 H   0  0  0  0  0  0  0  0  0  0  0  0
    4.1816    1.5005    0.0000 H   0  0  0  0  0  0  0  0  0  0  0  0
    2.1938   -1.1129    0.0000 H   0  0  0  0  0  0  0  0  0  0  0  0
    3.3240   -0.7607    0.0000 H   0  0  0  0  0  0  0  0  0  0  0  0
    1.9102    0.1102    0.0000 H   0  0  0  0  0  0  0  0  0  0  0  0
    3.0746   -0.1032    0.0000 H   0  0  0  0  0  0  0  0  0  0  0  0
    2.0000    1.0347    0.0000 H   0  0  0  0  0  0  0  0  0  0  0  0
    6.6802    2.9222    0.0000 H   0  0  0  0  0  0  0  0  0  0  0  0
    3.9558    3.5937    0.0000 H   0  0  0  0  0  0  0  0  0  0  0  0
    7.0679    4.4951    0.0000 H   0  0  0  0  0  0  0  0  0  0  0  0
    4.3435    5.1666    0.0000 H   0  0  0  0  0  0  0  0  0  0  0  0
    5.8995    5.6173    0.0000 H   0  0  0  0  0  0  0  0  0  0  0  0
    4.8623   -4.8254    0.0000 H   0  0  0  0  0  0  0  0  0  0  0  0
    6.2653   -2.3954    0.0000 H   0  0  0  0  0  0  0  0  0  0  0  0
    6.2653   -5.6354    0.0000 H   0  0  0  0  0  0  0  0  0  0  0  0
    7.6682   -3.2054    0.0000 H   0  0  0  0  0  0  0  0  0  0  0  0
    7.6682   -4.8254    0.0000 H   0  0  0  0  0  0  0  0  0  0  0  0
  1 16  2  0  0  0  0
  2 17  2  0  0  0  0
  3  9  1  0  0  0  0
  3 11  1  0  0  0  0
  3 17  1  0  0  0  0
  4  6  1  0  0  0  0
  4 10  1  0  0  0  0
  4 40  1  0  0  0  0
  5 14  1  0  0  0  0
  5 16  1  0  0  0  0
  5 47  1  0  0  0  0
  6 12  1  0  0  0  0
  6 15  1  1  0  0  0
  6 29  1  0  0  0  0
  7  8  1  0  0  0  0
  7  9  1  0  0  0  0
  7 30  1  0  0  0  0
  7 31  1  0  0  0  0
  8 10  1  0  0  0  0
  8 32  1  0  0  0  0
  8 33  1  0  0  0  0
  9 34  1  0  0  0  0
  9 35  1  0  0  0  0
 10 36  1  0  0  0  0
 10 37  1  0  0  0  0
 11 13  1  0  0  0  0
 11 38  1  0  0  0  0
 11 39  1  0  0  0  0
 12 16  1  0  0  0  0
 12 41  1  0  0  0  0
 12 42  1  0  0  0  0
 13 14  1  0  0  0  0
 13 43  1  0  0  0  0
 13 44  1  0  0  0  0
 14 45  1  0  0  0  0
 14 46  1  0  0  0  0
 15 18  2  0  0  0  0
 15 19  1  0  0  0  0
 17 20  1  0  0  0  0
 18 21  1  0  0  0  0
 18 48  1  0  0  0  0
 19 22  2  0  0  0  0
 19 49  1  0  0  0  0
 20 24  2  0  0  0  0
 20 25  1  0  0  0  0
 21 23  2  0  0  0  0
 21 50  1  0  0  0  0
 22 23  1  0  0  0  0
 22 51  1  0  0  0  0
 23 52  1  0  0  0  0
 24 26  1  0  0  0  0
 24 53  1  0  0  0  0
 25 27  2  0  0  0  0
 25 54  1  0  0  0  0
 26 28  2  0  0  0  0
 26 55  1  0  0  0  0
 27 28  1  0  0  0  0
 27 56  1  0  0  0  0
 28 57  1  0  0  0  0
M  END
> <PUBCHEM_COMPOUND_CID>
442847

> <PUBCHEM_COMPOUND_CANONICALIZED>
1

> <PUBCHEM_CACTVS_COMPLEXITY>
484

> <PUBCHEM_CACTVS_HBOND_ACCEPTOR>
3

> <PUBCHEM_CACTVS_HBOND_DONOR>
2

> <PUBCHEM_CACTVS_ROTATABLE_BOND>
2

> <PUBCHEM_CACTVS_SUBSKEYS>
AAADceB7MAAAAAAAAAAAAAAAAAAAAAAAAAAwYAAAAAAAAAABQAAAHgAQAAAADCjBmAQwAIPAAACIAiFSEACCAAAkAAAIiIEIBMgIIDqA1RGEIQhglgCIiYcYiICOAAAAAAAAAAAAAAAAAAAAAAAAAAAAAA==

> <PUBCHEM_IUPAC_OPENEYE_NAME>
(2S)-9-benzoyl-2-phenyl-1,5,9-triazacyclotridecan-4-one

> <PUBCHEM_IUPAC_CAS_NAME>
(2S)-9-benzoyl-2-phenyl-1,5,9-triazacyclotridecan-4-one

> <PUBCHEM_IUPAC_NAME>
(2S)-9-benzoyl-2-phenyl-1,5,9-triazacyclotridecan-4-one

> <PUBCHEM_IUPAC_SYSTEMATIC_NAME>
(2S)-2-phenyl-9-(phenylcarbonyl)-1,5,9-triazacyclotridecan-4-one

> <PUBCHEM_IUPAC_TRADITIONAL_NAME>
(2S)-9-benzoyl-2-phenyl-1,5,9-triazacyclotridecan-4-one

> <PUBCHEM_IUPAC_INCHI>
InChI=1S/C23H29N3O2/c27-22-18-21(19-10-3-1-4-11-19)24-14-7-8-16-26(17-9-15-25-22)23(28)20-12-5-2-6-13-20/h1-6,10-13,21,24H,7-9,14-18H2,(H,25,27)/t21-/m0/s1

> <PUBCHEM_IUPAC_INCHIKEY>
LSYKFBZWBDMZLQ-NRFANRHFSA-N

> <PUBCHEM_XLOGP3_AA>
2.6

> <PUBCHEM_EXACT_MASS>
379.225977

> <PUBCHEM_MOLECULAR_FORMULA>
C23H29N3O2

> <PUBCHEM_MOLECULAR_WEIGHT>
379.49526

> <PUBCHEM_OPENEYE_CAN_SMILES>
C1CCN(CCCNC(=O)CC(NC1)C2=CC=CC=C2)C(=O)C3=CC=CC=C3

> <PUBCHEM_OPENEYE_ISO_SMILES>
C1CCN(CCCNC(=O)C[C@H](NC1)C2=CC=CC=C2)C(=O)C3=CC=CC=C3

> <PUBCHEM_CACTVS_TPSA>
61.4

> <PUBCHEM_MONOISOTOPIC_WEIGHT>
379.225977

> <PUBCHEM_TOTAL_CHARGE>
0

> <PUBCHEM_HEAVY_ATOM_COUNT>
28

> <PUBCHEM_ATOM_DEF_STEREO_COUNT>
1

> <PUBCHEM_ATOM_UDEF_STEREO_COUNT>
0

> <PUBCHEM_BOND_DEF_STEREO_COUNT>
0

> <PUBCHEM_BOND_UDEF_STEREO_COUNT>
0

> <PUBCHEM_ISOTOPIC_ATOM_COUNT>
0

> <PUBCHEM_COMPONENT_COUNT>
1

> <PUBCHEM_CACTVS_TAUTO_COUNT>
3

> <PUBCHEM_COORDINATE_TYPE>
1
5
255

> <PUBCHEM_BONDANNOTATIONS>
15  18  8
15  19  8
18  21  8
19  22  8
20  24  8
20  25  8
21  23  8
22  23  8
24  26  8
25  27  8
26  28  8
27  28  8
6  15  5

$$$$

