193405
  -OEChem-07051212582D

 56 56  0     1  0  0  0  0  0999 V2000
    2.0000    1.1900    0.0000 O   0  0  0  0  0  0  0  0  0  0  0  0
   14.1244   -1.8100    0.0000 O   0  0  0  0  0  0  0  0  0  0  0  0
    3.7320   -0.8100    0.0000 N   0  0  0  0  0  0  0  0  0  0  0  0
    4.5981   -0.3100    0.0000 C   0  0  2  0  0  0  0  0  0  0  0  0
    4.5981    0.6900    0.0000 C   0  0  0  0  0  0  0  0  0  0  0  0
    2.8660   -0.3100    0.0000 C   0  0  1  0  0  0  0  0  0  0  0  0
    2.8660    0.6900    0.0000 C   0  0  1  0  0  0  0  0  0  0  0  0
    3.7320    1.1900    0.0000 C   0  0  0  0  0  0  0  0  0  0  0  0
    5.4641   -0.8100    0.0000 C   0  0  0  0  0  0  0  0  0  0  0  0
    6.3301   -0.3100    0.0000 C   0  0  0  0  0  0  0  0  0  0  0  0
    7.1962   -0.8100    0.0000 C   0  0  0  0  0  0  0  0  0  0  0  0
    2.0000   -0.8100    0.0000 C   0  0  0  0  0  0  0  0  0  0  0  0
    8.0622   -0.3100    0.0000 C   0  0  0  0  0  0  0  0  0  0  0  0
    8.9282   -0.8100    0.0000 C   0  0  0  0  0  0  0  0  0  0  0  0
    9.7942   -0.3100    0.0000 C   0  0  0  0  0  0  0  0  0  0  0  0
   10.6603   -0.8100    0.0000 C   0  0  0  0  0  0  0  0  0  0  0  0
   11.5263   -0.3100    0.0000 C   0  0  0  0  0  0  0  0  0  0  0  0
   12.3923   -0.8100    0.0000 C   0  0  0  0  0  0  0  0  0  0  0  0
   13.2583   -0.3100    0.0000 C   0  0  0  0  0  0  0  0  0  0  0  0
   14.1244   -0.8100    0.0000 C   0  0  0  0  0  0  0  0  0  0  0  0
   14.9904   -0.3100    0.0000 C   0  0  0  0  0  0  0  0  0  0  0  0
    4.5981   -0.9300    0.0000 H   0  0  0  0  0  0  0  0  0  0  0  0
    5.2087    0.5823    0.0000 H   0  0  0  0  0  0  0  0  0  0  0  0
    4.8101    1.2726    0.0000 H   0  0  0  0  0  0  0  0  0  0  0  0
    2.8660   -0.9300    0.0000 H   0  0  0  0  0  0  0  0  0  0  0  0
    2.3291    0.3800    0.0000 H   0  0  0  0  0  0  0  0  0  0  0  0
    4.1306    1.6650    0.0000 H   0  0  0  0  0  0  0  0  0  0  0  0
    3.3335    1.6650    0.0000 H   0  0  0  0  0  0  0  0  0  0  0  0
    5.0656   -1.2850    0.0000 H   0  0  0  0  0  0  0  0  0  0  0  0
    5.8626   -1.2850    0.0000 H   0  0  0  0  0  0  0  0  0  0  0  0
    3.7320   -1.4300    0.0000 H   0  0  0  0  0  0  0  0  0  0  0  0
    6.7287    0.1649    0.0000 H   0  0  0  0  0  0  0  0  0  0  0  0
    5.9316    0.1649    0.0000 H   0  0  0  0  0  0  0  0  0  0  0  0
    6.7976   -1.2850    0.0000 H   0  0  0  0  0  0  0  0  0  0  0  0
    7.5947   -1.2850    0.0000 H   0  0  0  0  0  0  0  0  0  0  0  0
    1.6900   -0.2731    0.0000 H   0  0  0  0  0  0  0  0  0  0  0  0
    1.4631   -1.1200    0.0000 H   0  0  0  0  0  0  0  0  0  0  0  0
    2.3100   -1.3469    0.0000 H   0  0  0  0  0  0  0  0  0  0  0  0
    8.4607    0.1649    0.0000 H   0  0  0  0  0  0  0  0  0  0  0  0
    7.6636    0.1649    0.0000 H   0  0  0  0  0  0  0  0  0  0  0  0
    8.5297   -1.2850    0.0000 H   0  0  0  0  0  0  0  0  0  0  0  0
    9.3267   -1.2850    0.0000 H   0  0  0  0  0  0  0  0  0  0  0  0
    2.0000    1.8100    0.0000 H   0  0  0  0  0  0  0  0  0  0  0  0
   10.1928    0.1649    0.0000 H   0  0  0  0  0  0  0  0  0  0  0  0
    9.3957    0.1649    0.0000 H   0  0  0  0  0  0  0  0  0  0  0  0
   10.2617   -1.2850    0.0000 H   0  0  0  0  0  0  0  0  0  0  0  0
   11.0588   -1.2850    0.0000 H   0  0  0  0  0  0  0  0  0  0  0  0
   11.9248    0.1649    0.0000 H   0  0  0  0  0  0  0  0  0  0  0  0
   11.1278    0.1649    0.0000 H   0  0  0  0  0  0  0  0  0  0  0  0
   11.9938   -1.2850    0.0000 H   0  0  0  0  0  0  0  0  0  0  0  0
   12.7908   -1.2850    0.0000 H   0  0  0  0  0  0  0  0  0  0  0  0
   13.6569    0.1649    0.0000 H   0  0  0  0  0  0  0  0  0  0  0  0
   12.8598    0.1649    0.0000 H   0  0  0  0  0  0  0  0  0  0  0  0
   15.3004   -0.8469    0.0000 H   0  0  0  0  0  0  0  0  0  0  0  0
   15.5273    0.0000    0.0000 H   0  0  0  0  0  0  0  0  0  0  0  0
   14.6804    0.2269    0.0000 H   0  0  0  0  0  0  0  0  0  0  0  0
  7  1  1  6  0  0  0
  1 43  1  0  0  0  0
  2 20  2  0  0  0  0
  3  4  1  0  0  0  0
  3  6  1  0  0  0  0
  3 31  1  0  0  0  0
  4  5  1  0  0  0  0
  4  9  1  6  0  0  0
  4 22  1  0  0  0  0
  5  8  1  0  0  0  0
  5 23  1  0  0  0  0
  5 24  1  0  0  0  0
  6  7  1  0  0  0  0
  6 12  1  6  0  0  0
  6 25  1  0  0  0  0
  7  8  1  0  0  0  0
  7 26  1  0  0  0  0
  8 27  1  0  0  0  0
  8 28  1  0  0  0  0
  9 10  1  0  0  0  0
  9 29  1  0  0  0  0
  9 30  1  0  0  0  0
 10 11  1  0  0  0  0
 10 32  1  0  0  0  0
 10 33  1  0  0  0  0
 11 13  1  0  0  0  0
 11 34  1  0  0  0  0
 11 35  1  0  0  0  0
 12 36  1  0  0  0  0
 12 37  1  0  0  0  0
 12 38  1  0  0  0  0
 13 14  1  0  0  0  0
 13 39  1  0  0  0  0
 13 40  1  0  0  0  0
 14 15  1  0  0  0  0
 14 41  1  0  0  0  0
 14 42  1  0  0  0  0
 15 16  1  0  0  0  0
 15 44  1  0  0  0  0
 15 45  1  0  0  0  0
 16 17  1  0  0  0  0
 16 46  1  0  0  0  0
 16 47  1  0  0  0  0
 17 18  1  0  0  0  0
 17 48  1  0  0  0  0
 17 49  1  0  0  0  0
 18 19  1  0  0  0  0
 18 50  1  0  0  0  0
 18 51  1  0  0  0  0
 19 20  1  0  0  0  0
 19 52  1  0  0  0  0
 19 53  1  0  0  0  0
 20 21  1  0  0  0  0
 21 54  1  0  0  0  0
 21 55  1  0  0  0  0
 21 56  1  0  0  0  0
M  END
> <PUBCHEM_COMPOUND_CID>
193405

> <PUBCHEM_COMPOUND_CANONICALIZED>
1

> <PUBCHEM_CACTVS_COMPLEXITY>
280

> <PUBCHEM_CACTVS_HBOND_ACCEPTOR>
3

> <PUBCHEM_CACTVS_HBOND_DONOR>
2

> <PUBCHEM_CACTVS_ROTATABLE_BOND>
11

> <PUBCHEM_CACTVS_SUBSKEYS>
AAADcfB6MAAAAAAAAAAAAAAAAAAAAAAAAAAsAAAAAAAAAAAAAAAAHgAQCAAACDzhgAYCAALAAgAIAIAQAAAAAAAAAAAAAIEIAAACEBIAgAAEQAAEEACQAAG4yKCAAAAAAAAAAAAAAAAAAAAAAAAAAAAAAA==

> <PUBCHEM_IUPAC_OPENEYE_NAME>
12-[(2S,5R,6R)-5-hydroxy-6-methyl-2-piperidyl]dodecan-2-one

> <PUBCHEM_IUPAC_CAS_NAME>
12-[(2S,5R,6R)-5-hydroxy-6-methyl-2-piperidinyl]-2-dodecanone

> <PUBCHEM_IUPAC_NAME>
12-[(2S,5R,6R)-5-hydroxy-6-methylpiperidin-2-yl]dodecan-2-one

> <PUBCHEM_IUPAC_SYSTEMATIC_NAME>
12-[(2S,5R,6R)-6-methyl-5-oxidanyl-piperidin-2-yl]dodecan-2-one

> <PUBCHEM_IUPAC_TRADITIONAL_NAME>
12-[(2S,5R,6R)-5-hydroxy-6-methyl-2-piperidyl]dodecan-2-one

> <PUBCHEM_IUPAC_INCHI>
InChI=1S/C18H35NO2/c1-15(20)11-9-7-5-3-4-6-8-10-12-17-13-14-18(21)16(2)19-17/h16-19,21H,3-14H2,1-2H3/t16-,17+,18-/m1/s1

> <PUBCHEM_IUPAC_INCHIKEY>
QPRMGHKASRLPJP-FGTMMUONSA-N

> <PUBCHEM_XLOGP3_AA>
4.1

> <PUBCHEM_EXACT_MASS>
297.266779

> <PUBCHEM_MOLECULAR_FORMULA>
C18H35NO2

> <PUBCHEM_MOLECULAR_WEIGHT>
297.476

> <PUBCHEM_OPENEYE_CAN_SMILES>
CC1C(CCC(N1)CCCCCCCCCCC(=O)C)O

> <PUBCHEM_OPENEYE_ISO_SMILES>
C[C@@H]1[C@@H](CC[C@@H](N1)CCCCCCCCCCC(=O)C)O

> <PUBCHEM_CACTVS_TPSA>
49.3

> <PUBCHEM_MONOISOTOPIC_WEIGHT>
297.266779

> <PUBCHEM_TOTAL_CHARGE>
0

> <PUBCHEM_HEAVY_ATOM_COUNT>
21

> <PUBCHEM_ATOM_DEF_STEREO_COUNT>
3

> <PUBCHEM_ATOM_UDEF_STEREO_COUNT>
0

> <PUBCHEM_BOND_DEF_STEREO_COUNT>
0

> <PUBCHEM_BOND_UDEF_STEREO_COUNT>
0

> <PUBCHEM_ISOTOPIC_ATOM_COUNT>
0

> <PUBCHEM_COMPONENT_COUNT>
1

> <PUBCHEM_CACTVS_TAUTO_COUNT>
3

> <PUBCHEM_COORDINATE_TYPE>
1
5
255

> <PUBCHEM_BONDANNOTATIONS>
7  1  6
4  9  6
6  12  6

$$$$

