115245
  -OEChem-07051213073D

 74 77  0     1  0  0  0  0  0999 V2000
   -6.5819   -2.6935    2.1459 O   0  0  0  0  0  0  0  0  0  0  0  0
    5.8841    0.4443    1.4417 O   0  0  0  0  0  0  0  0  0  0  0  0
    8.0524   -2.0769    0.0650 O   0  0  0  0  0  0  0  0  0  0  0  0
   10.0216   -1.2672    0.8489 O   0  0  0  0  0  0  0  0  0  0  0  0
    7.0613    0.2598   -0.5533 N   0  0  0  0  0  0  0  0  0  0  0  0
   -0.5127    0.5243   -0.5949 C   0  0  1  0  0  0  0  0  0  0  0  0
   -1.4370    1.0312    0.5331 C   0  0  2  0  0  0  0  0  0  0  0  0
   -2.8895    1.2129    0.0784 C   0  0  1  0  0  0  0  0  0  0  0  0
   -3.4348   -0.1655   -0.4176 C   0  0  1  0  0  0  0  0  0  0  0  0
   -4.9427   -0.0764   -0.8646 C   0  0  2  0  0  0  0  0  0  0  0  0
    0.8312    0.5125    0.1739 C   0  0  2  0  0  0  0  0  0  0  0  0
   -1.0184   -0.8580   -1.0288 C   0  0  0  0  0  0  0  0  0  0  0  0
   -5.7968    0.5252    0.3026 C   0  0  2  0  0  0  0  0  0  0  0  0
   -2.4933   -0.8132   -1.4691 C   0  0  0  0  0  0  0  0  0  0  0  0
   -0.6824    2.2280    1.1045 C   0  0  0  0  0  0  0  0  0  0  0  0
   -3.7605    1.7846    1.2043 C   0  0  0  0  0  0  0  0  0  0  0  0
    0.8003    1.8294    0.9844 C   0  0  0  0  0  0  0  0  0  0  0  0
   -5.2324    1.8627    0.8099 C   0  0  0  0  0  0  0  0  0  0  0  0
   -5.5328   -1.4661   -1.2452 C   0  0  0  0  0  0  0  0  0  0  0  0
   -0.4422    1.4623   -1.8261 C   0  0  0  0  0  0  0  0  0  0  0  0
    2.0940    0.3611   -0.6620 C   0  0  1  0  0  0  0  0  0  0  0  0
   -5.9743   -0.4573    1.4799 C   0  0  0  0  0  0  0  0  0  0  0  0
   -5.0978    0.8142   -2.1249 C   0  0  0  0  0  0  0  0  0  0  0  0
   -5.6736   -2.4234   -0.0685 C   0  0  0  0  0  0  0  0  0  0  0  0
   -6.5267   -1.8072    1.0328 C   0  0  1  0  0  0  0  0  0  0  0  0
    3.3781    0.3571    0.1923 C   0  0  0  0  0  0  0  0  0  0  0  0
    2.0270   -0.9311   -1.4841 C   0  0  0  0  0  0  0  0  0  0  0  0
    4.6586    0.2713   -0.6390 C   0  0  0  0  0  0  0  0  0  0  0  0
    5.9112    0.3391    0.2185 C   0  0  0  0  0  0  0  0  0  0  0  0
    8.3925    0.2926    0.0077 C   0  0  0  0  0  0  0  0  0  0  0  0
    8.9173   -1.0770    0.3542 C   0  0  0  0  0  0  0  0  0  0  0  0
   -1.4530    0.2740    1.3354 H   0  0  0  0  0  0  0  0  0  0  0  0
   -2.9135    1.9357   -0.7432 H   0  0  0  0  0  0  0  0  0  0  0  0
   -3.3920   -0.8374    0.4508 H   0  0  0  0  0  0  0  0  0  0  0  0
    0.8060   -0.3129    0.9024 H   0  0  0  0  0  0  0  0  0  0  0  0
   -0.4669   -1.2781   -1.8689 H   0  0  0  0  0  0  0  0  0  0  0  0
   -0.9225   -1.5724   -0.2010 H   0  0  0  0  0  0  0  0  0  0  0  0
   -6.8061    0.7298   -0.0836 H   0  0  0  0  0  0  0  0  0  0  0  0
   -2.8067   -1.8448   -1.6631 H   0  0  0  0  0  0  0  0  0  0  0  0
   -2.5657   -0.2835   -2.4240 H   0  0  0  0  0  0  0  0  0  0  0  0
   -0.8809    3.1397    0.5301 H   0  0  0  0  0  0  0  0  0  0  0  0
   -0.9568    2.4262    2.1457 H   0  0  0  0  0  0  0  0  0  0  0  0
   -3.6497    1.1785    2.1112 H   0  0  0  0  0  0  0  0  0  0  0  0
   -3.4168    2.7926    1.4660 H   0  0  0  0  0  0  0  0  0  0  0  0
    1.3572    2.6345    0.4914 H   0  0  0  0  0  0  0  0  0  0  0  0
    1.2432    1.6815    1.9756 H   0  0  0  0  0  0  0  0  0  0  0  0
   -5.8174    2.2140    1.6689 H   0  0  0  0  0  0  0  0  0  0  0  0
   -5.3532    2.6286    0.0344 H   0  0  0  0  0  0  0  0  0  0  0  0
   -4.9421   -1.9432   -2.0345 H   0  0  0  0  0  0  0  0  0  0  0  0
   -6.5327   -1.3223   -1.6791 H   0  0  0  0  0  0  0  0  0  0  0  0
   -0.0204    2.4421   -1.5801 H   0  0  0  0  0  0  0  0  0  0  0  0
    0.1744    1.0376   -2.6239 H   0  0  0  0  0  0  0  0  0  0  0  0
   -1.4243    1.6480   -2.2692 H   0  0  0  0  0  0  0  0  0  0  0  0
    2.1832    1.2026   -1.3607 H   0  0  0  0  0  0  0  0  0  0  0  0
   -6.6541   -0.0227    2.2246 H   0  0  0  0  0  0  0  0  0  0  0  0
   -5.0320   -0.6178    2.0165 H   0  0  0  0  0  0  0  0  0  0  0  0
   -4.6192    0.3604   -2.9989 H   0  0  0  0  0  0  0  0  0  0  0  0
   -6.1563    0.9486   -2.3780 H   0  0  0  0  0  0  0  0  0  0  0  0
   -4.6726    1.8126   -1.9984 H   0  0  0  0  0  0  0  0  0  0  0  0
   -6.1348   -3.3602   -0.4047 H   0  0  0  0  0  0  0  0  0  0  0  0
   -4.6910   -2.7098    0.3247 H   0  0  0  0  0  0  0  0  0  0  0  0
   -7.5525   -1.6805    0.6658 H   0  0  0  0  0  0  0  0  0  0  0  0
    3.3470   -0.4799    0.9022 H   0  0  0  0  0  0  0  0  0  0  0  0
    3.4202    1.2706    0.7976 H   0  0  0  0  0  0  0  0  0  0  0  0
    1.3774   -0.8126   -2.3522 H   0  0  0  0  0  0  0  0  0  0  0  0
    1.6950   -1.7825   -0.8812 H   0  0  0  0  0  0  0  0  0  0  0  0
    2.9814   -1.2130   -1.9306 H   0  0  0  0  0  0  0  0  0  0  0  0
   -7.1399   -2.2776    2.8250 H   0  0  0  0  0  0  0  0  0  0  0  0
    4.7268   -0.6739   -1.1842 H   0  0  0  0  0  0  0  0  0  0  0  0
    4.6926    1.0919   -1.3650 H   0  0  0  0  0  0  0  0  0  0  0  0
    6.9761    0.1544   -1.5601 H   0  0  0  0  0  0  0  0  0  0  0  0
    9.0498    0.7393   -0.7433 H   0  0  0  0  0  0  0  0  0  0  0  0
    8.3850    0.9027    0.9157 H   0  0  0  0  0  0  0  0  0  0  0  0
    8.4169   -2.9571    0.2990 H   0  0  0  0  0  0  0  0  0  0  0  0
  1 25  1  0  0  0  0
  1 68  1  0  0  0  0
  2 29  2  0  0  0  0
  3 31  1  0  0  0  0
  3 74  1  0  0  0  0
  4 31  2  0  0  0  0
  5 29  1  0  0  0  0
  5 30  1  0  0  0  0
  5 71  1  0  0  0  0
  6  7  1  0  0  0  0
  6 11  1  0  0  0  0
  6 12  1  0  0  0  0
  6 20  1  0  0  0  0
  7  8  1  0  0  0  0
  7 15  1  0  0  0  0
  7 32  1  0  0  0  0
  8  9  1  0  0  0  0
  8 16  1  0  0  0  0
  8 33  1  0  0  0  0
  9 10  1  0  0  0  0
  9 14  1  0  0  0  0
  9 34  1  0  0  0  0
 10 13  1  0  0  0  0
 10 19  1  0  0  0  0
 10 23  1  0  0  0  0
 11 17  1  0  0  0  0
 11 21  1  0  0  0  0
 11 35  1  0  0  0  0
 12 14  1  0  0  0  0
 12 36  1  0  0  0  0
 12 37  1  0  0  0  0
 13 18  1  0  0  0  0
 13 22  1  0  0  0  0
 13 38  1  0  0  0  0
 14 39  1  0  0  0  0
 14 40  1  0  0  0  0
 15 17  1  0  0  0  0
 15 41  1  0  0  0  0
 15 42  1  0  0  0  0
 16 18  1  0  0  0  0
 16 43  1  0  0  0  0
 16 44  1  0  0  0  0
 17 45  1  0  0  0  0
 17 46  1  0  0  0  0
 18 47  1  0  0  0  0
 18 48  1  0  0  0  0
 19 24  1  0  0  0  0
 19 49  1  0  0  0  0
 19 50  1  0  0  0  0
 20 51  1  0  0  0  0
 20 52  1  0  0  0  0
 20 53  1  0  0  0  0
 21 26  1  0  0  0  0
 21 27  1  0  0  0  0
 21 54  1  0  0  0  0
 22 25  1  0  0  0  0
 22 55  1  0  0  0  0
 22 56  1  0  0  0  0
 23 57  1  0  0  0  0
 23 58  1  0  0  0  0
 23 59  1  0  0  0  0
 24 25  1  0  0  0  0
 24 60  1  0  0  0  0
 24 61  1  0  0  0  0
 25 62  1  0  0  0  0
 26 28  1  0  0  0  0
 26 63  1  0  0  0  0
 26 64  1  0  0  0  0
 27 65  1  0  0  0  0
 27 66  1  0  0  0  0
 27 67  1  0  0  0  0
 28 29  1  0  0  0  0
 28 69  1  0  0  0  0
 28 70  1  0  0  0  0
 30 31  1  0  0  0  0
 30 72  1  0  0  0  0
 30 73  1  0  0  0  0
M  END
> <PUBCHEM_COMPOUND_CID>
115245

> <PUBCHEM_CONFORMER_RMSD>
1

> <PUBCHEM_CONFORMER_DIVERSEORDER>
1
12
19
17
13
6
4
8
5
3
16
21
20
7
14
10
2
9
18
15
11

> <PUBCHEM_MMFF94_PARTIAL_CHARGES>
13
1 -0.68
2 -0.57
25 0.28
28 0.06
29 0.57
3 -0.65
30 0.36
31 0.66
4 -0.57
5 -0.73
68 0.4
71 0.37
74 0.5

> <PUBCHEM_EFFECTIVE_ROTOR_COUNT>
9.2

> <PUBCHEM_PHARMACOPHORE_FEATURES>
12
1 1 acceptor
1 1 donor
1 2 acceptor
1 27 hydrophobe
1 3 acceptor
1 4 acceptor
1 5 donor
3 3 4 31 anion
5 6 7 11 15 17 rings
6 10 13 19 22 24 25 rings
6 6 7 8 9 12 14 rings
6 8 9 10 13 16 18 rings

> <PUBCHEM_HEAVY_ATOM_COUNT>
31

> <PUBCHEM_ATOM_DEF_STEREO_COUNT>
9

> <PUBCHEM_ATOM_UDEF_STEREO_COUNT>
0

> <PUBCHEM_BOND_DEF_STEREO_COUNT>
0

> <PUBCHEM_BOND_UDEF_STEREO_COUNT>
0

> <PUBCHEM_ISOTOPIC_ATOM_COUNT>
0

> <PUBCHEM_COMPONENT_COUNT>
1

> <PUBCHEM_CACTVS_TAUTO_COUNT>
2

> <PUBCHEM_CONFORMER_ID>
0001C22D00000001

> <PUBCHEM_MMFF94_ENERGY>
96.427

> <PUBCHEM_FEATURE_SELFOVERLAP>
61.08

> <PUBCHEM_SHAPE_FINGERPRINT>
10 15 17822010891788006616
10299344 5 18409167723698279044
10675989 125 16818536403910655049
11135926 11 18187087286144775886
11315181 36 18408605850911763197
11456790 92 16732985349883515154
13668630 136 17918276454999419086
13782708 43 18201723929030257792
14251764 18 18186523224754445918
14849402 71 16879074031469750192
15021287 119 18343019956671819565
15461852 350 16917066650876635094
17093844 174 13984661452054683895
1754908 1 17095249120830063330
1754911 235 10231752306723304866
17686467 74 18410295779547745176
1818759 1 18335133212217902142
19611394 137 18262514784579650858
21267235 1 18113898225906460804
21756936 100 6483352227356993157
21792961 116 18412550920686919189
23559900 14 17823432512677635001
23576562 1 10663518375791884194
3178227 256 17458340828331848210
3383291 50 18334293124055239095
3711267 37 8069736439230191946
4169191 19 11240006663066883612
4616759 239 17240477014325290219
5104073 3 17750222763470942851
6009941 240 18412824724825976825
6201320 82 9366808306909442195
6441014 3 17621876492236930827
9953998 17 16443062798870213979
999808 66 18410570661211124883

> <PUBCHEM_SHAPE_MULTIPOLES>
609.51
25.42
2.17
1.63
63.44
0.29
0.13
13.74
-8.69
-2.73
-0.76
-2.35
0.27
0.46

> <PUBCHEM_SHAPE_SELFOVERLAP>
1267.821

> <PUBCHEM_SHAPE_VOLUME>
344.5

> <PUBCHEM_COORDINATE_TYPE>
2
5
10

$$$$

