5281441
  -OEChem-07051212573D

 61 64  0     1  0  0  0  0  0999 V2000
    1.5994   -2.5296    2.6580 O   0  0  0  0  0  0  0  0  0  0  0  0
    3.2273   -1.8409    0.2493 O   0  0  0  0  0  0  0  0  0  0  0  0
    0.8540    1.3637   -0.3351 O   0  0  0  0  0  0  0  0  0  0  0  0
    0.6468    4.7028    0.3312 O   0  0  0  0  0  0  0  0  0  0  0  0
   -1.9608    0.9803   -0.4916 O   0  0  0  0  0  0  0  0  0  0  0  0
    4.7823   -1.6361   -1.4286 O   0  0  0  0  0  0  0  0  0  0  0  0
   -0.8399    2.7153   -1.1427 O   0  0  0  0  0  0  0  0  0  0  0  0
   -2.1606   -0.7596   -2.4207 O   0  0  0  0  0  0  0  0  0  0  0  0
   -2.0402   -3.0196   -1.9335 O   0  0  0  0  0  0  0  0  0  0  0  0
   -3.3160    0.7102    1.3628 O   0  0  0  0  0  0  0  0  0  0  0  0
    0.3595   -1.8294    2.5150 C   0  0  1  0  0  0  0  0  0  0  0  0
    1.1497   -2.2760    1.3168 C   0  0  1  0  0  0  0  0  0  0  0  0
    1.9321   -1.2748    0.5330 C   0  0  2  0  0  0  0  0  0  0  0  0
    1.2956   -0.9835   -0.8309 C   0  0  1  0  0  0  0  0  0  0  0  0
   -0.8812   -2.5725    2.8845 C   0  0  0  0  0  0  0  0  0  0  0  0
    0.2644    0.1678   -0.8700 C   0  0  1  0  0  0  0  0  0  0  0  0
    0.4863   -0.4555    3.0905 C   0  0  0  0  0  0  0  0  0  0  0  0
    2.5372   -0.7701   -1.6434 C   0  0  0  0  0  0  0  0  0  0  0  0
   -2.1091   -1.9575    2.2045 C   0  0  0  0  0  0  0  0  0  0  0  0
   -1.0470   -0.0476   -0.0727 C   0  0  2  0  0  0  0  0  0  0  0  0
    3.6686   -1.4430   -0.9755 C   0  0  0  0  0  0  0  0  0  0  0  0
    0.3744    3.3746    0.7792 C   0  0  2  0  0  0  0  0  0  0  0  0
   -1.7332   -1.3766   -0.2530 C   0  0  0  0  0  0  0  0  0  0  0  0
   -2.1574   -2.2061    0.7184 C   0  0  0  0  0  0  0  0  0  0  0  0
    1.7448    3.9614    0.8786 C   0  0  1  0  0  0  0  0  0  0  0  0
    0.0500    2.4590   -0.3443 C   0  0  0  0  0  0  0  0  0  0  0  0
    2.7171   -0.1057   -2.7884 C   0  0  0  0  0  0  0  0  0  0  0  0
   -0.4648    3.3278    1.9990 C   0  0  0  0  0  0  0  0  0  0  0  0
    2.8049    3.6519   -0.1099 C   0  0  0  0  0  0  0  0  0  0  0  0
   -1.9936   -1.8432   -1.6248 C   0  0  0  0  0  0  0  0  0  0  0  0
   -3.1307    1.0282    0.1968 C   0  0  0  0  0  0  0  0  0  0  0  0
   -4.2355    1.5366   -0.6557 C   0  0  0  0  0  0  0  0  0  0  0  0
   -2.4246   -1.0524   -3.7966 C   0  0  0  0  0  0  0  0  0  0  0  0
    0.8412   -3.1414    0.7457 H   0  0  0  0  0  0  0  0  0  0  0  0
    2.1427   -0.3591    1.0912 H   0  0  0  0  0  0  0  0  0  0  0  0
    0.8294   -1.8945   -1.2286 H   0  0  0  0  0  0  0  0  0  0  0  0
   -0.7979   -3.6338    2.6175 H   0  0  0  0  0  0  0  0  0  0  0  0
   -1.0157   -2.5382    3.9727 H   0  0  0  0  0  0  0  0  0  0  0  0
    0.0246    0.3782   -1.9202 H   0  0  0  0  0  0  0  0  0  0  0  0
   -0.4196   -0.1455    3.6219 H   0  0  0  0  0  0  0  0  0  0  0  0
    1.2947   -0.4216    3.8310 H   0  0  0  0  0  0  0  0  0  0  0  0
    0.7006    0.3175    2.3542 H   0  0  0  0  0  0  0  0  0  0  0  0
   -3.0106   -2.4078    2.6394 H   0  0  0  0  0  0  0  0  0  0  0  0
   -2.1686   -0.8993    2.4512 H   0  0  0  0  0  0  0  0  0  0  0  0
   -0.8464    0.1453    0.9780 H   0  0  0  0  0  0  0  0  0  0  0  0
   -2.6307   -3.1508    0.4541 H   0  0  0  0  0  0  0  0  0  0  0  0
    2.1330    4.2510    1.8453 H   0  0  0  0  0  0  0  0  0  0  0  0
    3.6910   -0.0360   -3.2618 H   0  0  0  0  0  0  0  0  0  0  0  0
    1.8917    0.3868   -3.2899 H   0  0  0  0  0  0  0  0  0  0  0  0
   -0.3902    2.3523    2.4854 H   0  0  0  0  0  0  0  0  0  0  0  0
   -1.5171    3.4976    1.7476 H   0  0  0  0  0  0  0  0  0  0  0  0
   -0.1750    4.0874    2.7333 H   0  0  0  0  0  0  0  0  0  0  0  0
    3.5650    4.4399   -0.0975 H   0  0  0  0  0  0  0  0  0  0  0  0
    2.4282    3.5784   -1.1354 H   0  0  0  0  0  0  0  0  0  0  0  0
    3.2987    2.7091    0.1455 H   0  0  0  0  0  0  0  0  0  0  0  0
   -4.4369    0.8299   -1.4644 H   0  0  0  0  0  0  0  0  0  0  0  0
   -5.1433    1.6490   -0.0558 H   0  0  0  0  0  0  0  0  0  0  0  0
   -3.9712    2.5164   -1.0618 H   0  0  0  0  0  0  0  0  0  0  0  0
   -1.5829   -1.5966   -4.2355 H   0  0  0  0  0  0  0  0  0  0  0  0
   -3.3501   -1.6283   -3.8911 H   0  0  0  0  0  0  0  0  0  0  0  0
   -2.5450   -0.1045   -4.3278 H   0  0  0  0  0  0  0  0  0  0  0  0
  1 11  1  0  0  0  0
  1 12  1  0  0  0  0
  2 13  1  0  0  0  0
  2 21  1  0  0  0  0
  3 16  1  0  0  0  0
  3 26  1  0  0  0  0
  4 22  1  0  0  0  0
  4 25  1  0  0  0  0
  5 20  1  0  0  0  0
  5 31  1  0  0  0  0
  6 21  2  0  0  0  0
  7 26  2  0  0  0  0
  8 30  1  0  0  0  0
  8 33  1  0  0  0  0
  9 30  2  0  0  0  0
 10 31  2  0  0  0  0
 11 12  1  0  0  0  0
 11 15  1  0  0  0  0
 11 17  1  0  0  0  0
 12 13  1  0  0  0  0
 12 34  1  0  0  0  0
 13 14  1  0  0  0  0
 13 35  1  0  0  0  0
 14 16  1  0  0  0  0
 14 18  1  0  0  0  0
 14 36  1  0  0  0  0
 15 19  1  0  0  0  0
 15 37  1  0  0  0  0
 15 38  1  0  0  0  0
 16 20  1  0  0  0  0
 16 39  1  0  0  0  0
 17 40  1  0  0  0  0
 17 41  1  0  0  0  0
 17 42  1  0  0  0  0
 18 21  1  0  0  0  0
 18 27  2  0  0  0  0
 19 24  1  0  0  0  0
 19 43  1  0  0  0  0
 19 44  1  0  0  0  0
 20 23  1  0  0  0  0
 20 45  1  0  0  0  0
 22 25  1  0  0  0  0
 22 26  1  0  0  0  0
 22 28  1  0  0  0  0
 23 24  2  0  0  0  0
 23 30  1  0  0  0  0
 24 46  1  0  0  0  0
 25 29  1  0  0  0  0
 25 47  1  0  0  0  0
 27 48  1  0  0  0  0
 27 49  1  0  0  0  0
 28 50  1  0  0  0  0
 28 51  1  0  0  0  0
 28 52  1  0  0  0  0
 29 53  1  0  0  0  0
 29 54  1  0  0  0  0
 29 55  1  0  0  0  0
 31 32  1  0  0  0  0
 32 56  1  0  0  0  0
 32 57  1  0  0  0  0
 32 58  1  0  0  0  0
 33 59  1  0  0  0  0
 33 60  1  0  0  0  0
 33 61  1  0  0  0  0
M  END
> <PUBCHEM_COMPOUND_CID>
5281441

> <PUBCHEM_CONFORMER_RMSD>
1

> <PUBCHEM_CONFORMER_DIVERSEORDER>
1
3
4
5
2

> <PUBCHEM_MMFF94_PARTIAL_CHARGES>
38
1 -0.3
10 -0.57
11 -0.04
12 -0.05
13 0.38
14 0.14
15 0.09
16 0.28
17 0.09
18 -0.12
19 0.14
2 -0.43
20 0.42
21 0.71
22 0.05
23 -0.12
24 -0.29
25 -0.05
26 0.72
27 -0.3
28 0.09
29 0.09
3 -0.43
30 0.71
31 0.66
32 0.06
33 0.28
34 0.1
4 -0.3
46 0.15
47 0.1
48 0.15
49 0.15
5 -0.43
6 -0.57
7 -0.57
8 -0.43
9 -0.57

> <PUBCHEM_EFFECTIVE_ROTOR_COUNT>
8.8

> <PUBCHEM_PHARMACOPHORE_FEATURES>
7
1 1 acceptor
1 10 acceptor
1 4 acceptor
1 6 acceptor
1 7 acceptor
1 9 acceptor
5 2 13 14 18 21 rings

> <PUBCHEM_HEAVY_ATOM_COUNT>
33

> <PUBCHEM_ATOM_DEF_STEREO_COUNT>
8

> <PUBCHEM_ATOM_UDEF_STEREO_COUNT>
0

> <PUBCHEM_BOND_DEF_STEREO_COUNT>
1

> <PUBCHEM_BOND_UDEF_STEREO_COUNT>
0

> <PUBCHEM_ISOTOPIC_ATOM_COUNT>
0

> <PUBCHEM_COMPONENT_COUNT>
1

> <PUBCHEM_CACTVS_TAUTO_COUNT>
1

> <PUBCHEM_CONFORMER_ID>
005096A100000001

> <PUBCHEM_MMFF94_ENERGY>
98.1794

> <PUBCHEM_FEATURE_SELFOVERLAP>
35.523

> <PUBCHEM_SHAPE_FINGERPRINT>
10165383 225 16593365157592214033
11578080 2 16517105999550213011
11582403 64 16828175318905288879
11763715 3 17547620222813740835
12539773 59 17191256503859161079
12788726 201 18123458647393200422
13140716 1 18337654369866039876
133893 2 18053138101138559405
14787075 74 17915433126171895571
19319366 153 17987788743294663962
20600515 1 17396480147605107191
21033648 29 16879654788995389809
229495 10 17682653165802811067
23419403 2 17912353239288642738
35225 105 16475361042719003570

> <PUBCHEM_SHAPE_MULTIPOLES>
620.43
5.33
5.04
3.36
1.03
1.93
-0.28
1.27
-1.76
3.83
1.16
-1.98
-1.93
2.11

> <PUBCHEM_SHAPE_SELFOVERLAP>
1323.578

> <PUBCHEM_SHAPE_VOLUME>
343.4

> <PUBCHEM_COORDINATE_TYPE>
2
5
10

$$$$

