11014
  -OEChem-06261205143D

 57 61  0     1  0  0  0  0  0999 V2000
   -1.1508    1.4368    0.3455 O   0  0  0  0  0  0  0  0  0  0  0  0
   -4.9596    1.3872    0.0780 O   0  0  0  0  0  0  0  0  0  0  0  0
   -6.9037    0.9533    1.1734 O   0  0  0  0  0  0  0  0  0  0  0  0
   -0.3385    0.4475   -0.3033 C   0  0  2  0  0  0  0  0  0  0  0  0
   -0.9310   -0.9710   -0.0830 C   0  0  1  0  0  0  0  0  0  0  0  0
    1.1195    0.6105    0.2122 C   0  0  1  0  0  0  0  0  0  0  0  0
    2.0822   -0.5143   -0.2495 C   0  0  2  0  0  0  0  0  0  0  0  0
   -2.1803   -0.9814   -1.0195 C   0  0  2  0  0  0  0  0  0  0  0  0
    0.0724   -2.0483   -0.5800 C   0  0  0  0  0  0  0  0  0  0  0  0
   -0.5204    0.6726   -1.8173 C   0  0  0  0  0  0  0  0  0  0  0  0
    1.4672   -1.9013    0.0226 C   0  0  0  0  0  0  0  0  0  0  0  0
    3.5274   -0.3393    0.3693 C   0  0  2  0  0  0  0  0  0  0  0  0
   -1.7468   -0.1491   -2.2398 C   0  0  0  0  0  0  0  0  0  0  0  0
    1.6853    2.0054   -0.1274 C   0  0  0  0  0  0  0  0  0  0  0  0
   -1.2936   -1.2664    1.3862 C   0  0  0  0  0  0  0  0  0  0  0  0
    4.0131    1.1048    0.1922 C   0  0  0  0  0  0  0  0  0  0  0  0
    4.5186   -1.2882   -0.3672 C   0  0  0  0  0  0  0  0  0  0  0  0
    3.1707    2.1321   -0.0063 C   0  0  0  0  0  0  0  0  0  0  0  0
   -3.4478   -0.4261   -0.4360 C   0  0  0  0  0  0  0  0  0  0  0  0
    3.5429   -0.6682    1.8851 C   0  0  0  0  0  0  0  0  0  0  0  0
    5.9832   -1.0878    0.0426 C   0  0  0  0  0  0  0  0  0  0  0  0
    5.4488    1.3438    0.2136 C   0  0  0  0  0  0  0  0  0  0  0  0
    6.3533    0.3569    0.1654 C   0  0  0  0  0  0  0  0  0  0  0  0
   -4.3694   -1.3339    0.1957 C   0  0  0  0  0  0  0  0  0  0  0  0
   -3.7757    0.8696   -0.4667 C   0  0  0  0  0  0  0  0  0  0  0  0
   -5.5115   -0.8909    0.7304 C   0  0  0  0  0  0  0  0  0  0  0  0
   -5.8553    0.5457    0.6840 C   0  0  0  0  0  0  0  0  0  0  0  0
    1.0577    0.5711    1.3084 H   0  0  0  0  0  0  0  0  0  0  0  0
    2.1895   -0.4235   -1.3404 H   0  0  0  0  0  0  0  0  0  0  0  0
   -2.3875   -2.0036   -1.3664 H   0  0  0  0  0  0  0  0  0  0  0  0
    0.1713   -2.0217   -1.6721 H   0  0  0  0  0  0  0  0  0  0  0  0
   -0.3142   -3.0486   -0.3451 H   0  0  0  0  0  0  0  0  0  0  0  0
    0.3466    0.3306   -2.3921 H   0  0  0  0  0  0  0  0  0  0  0  0
   -0.6826    1.7270   -2.0683 H   0  0  0  0  0  0  0  0  0  0  0  0
    1.4137   -2.1013    1.0968 H   0  0  0  0  0  0  0  0  0  0  0  0
    2.1007   -2.6850   -0.4064 H   0  0  0  0  0  0  0  0  0  0  0  0
   -2.5260    0.4742   -2.6905 H   0  0  0  0  0  0  0  0  0  0  0  0
   -1.4384   -0.8312   -3.0439 H   0  0  0  0  0  0  0  0  0  0  0  0
    1.2253    2.7512    0.5321 H   0  0  0  0  0  0  0  0  0  0  0  0
    1.4289    2.2917   -1.1531 H   0  0  0  0  0  0  0  0  0  0  0  0
   -0.4100   -1.2493    2.0317 H   0  0  0  0  0  0  0  0  0  0  0  0
   -1.9859   -0.5295    1.8053 H   0  0  0  0  0  0  0  0  0  0  0  0
   -1.7522   -2.2563    1.4861 H   0  0  0  0  0  0  0  0  0  0  0  0
    4.4387   -1.1244   -1.4513 H   0  0  0  0  0  0  0  0  0  0  0  0
    4.2598   -2.3392   -0.1955 H   0  0  0  0  0  0  0  0  0  0  0  0
   -0.8789    2.3168    0.0365 H   0  0  0  0  0  0  0  0  0  0  0  0
    3.5645    3.1381   -0.1389 H   0  0  0  0  0  0  0  0  0  0  0  0
    4.5052   -0.4297    2.3523 H   0  0  0  0  0  0  0  0  0  0  0  0
    2.7856   -0.1029    2.4368 H   0  0  0  0  0  0  0  0  0  0  0  0
    3.3662   -1.7335    2.0666 H   0  0  0  0  0  0  0  0  0  0  0  0
    6.6273   -1.5645   -0.7054 H   0  0  0  0  0  0  0  0  0  0  0  0
    6.1831   -1.5878    0.9973 H   0  0  0  0  0  0  0  0  0  0  0  0
    5.7980    2.3717    0.2616 H   0  0  0  0  0  0  0  0  0  0  0  0
    7.4104    0.6039    0.2030 H   0  0  0  0  0  0  0  0  0  0  0  0
   -4.1269   -2.3906    0.2349 H   0  0  0  0  0  0  0  0  0  0  0  0
   -3.2236    1.6834   -0.9120 H   0  0  0  0  0  0  0  0  0  0  0  0
   -6.2103   -1.5679    1.2078 H   0  0  0  0  0  0  0  0  0  0  0  0
  1  4  1  0  0  0  0
  1 46  1  0  0  0  0
  2 25  1  0  0  0  0
  2 27  1  0  0  0  0
  3 27  2  0  0  0  0
  4  5  1  0  0  0  0
  4  6  1  0  0  0  0
  4 10  1  0  0  0  0
  5  8  1  0  0  0  0
  5  9  1  0  0  0  0
  5 15  1  0  0  0  0
  6  7  1  0  0  0  0
  6 14  1  0  0  0  0
  6 28  1  0  0  0  0
  7 11  1  0  0  0  0
  7 12  1  0  0  0  0
  7 29  1  0  0  0  0
  8 13  1  0  0  0  0
  8 19  1  0  0  0  0
  8 30  1  0  0  0  0
  9 11  1  0  0  0  0
  9 31  1  0  0  0  0
  9 32  1  0  0  0  0
 10 13  1  0  0  0  0
 10 33  1  0  0  0  0
 10 34  1  0  0  0  0
 11 35  1  0  0  0  0
 11 36  1  0  0  0  0
 12 16  1  0  0  0  0
 12 17  1  0  0  0  0
 12 20  1  0  0  0  0
 13 37  1  0  0  0  0
 13 38  1  0  0  0  0
 14 18  1  0  0  0  0
 14 39  1  0  0  0  0
 14 40  1  0  0  0  0
 15 41  1  0  0  0  0
 15 42  1  0  0  0  0
 15 43  1  0  0  0  0
 16 18  2  0  0  0  0
 16 22  1  0  0  0  0
 17 21  1  0  0  0  0
 17 44  1  0  0  0  0
 17 45  1  0  0  0  0
 18 47  1  0  0  0  0
 19 24  1  0  0  0  0
 19 25  2  0  0  0  0
 20 48  1  0  0  0  0
 20 49  1  0  0  0  0
 20 50  1  0  0  0  0
 21 23  1  0  0  0  0
 21 51  1  0  0  0  0
 21 52  1  0  0  0  0
 22 23  2  0  0  0  0
 22 53  1  0  0  0  0
 23 54  1  0  0  0  0
 24 26  2  0  0  0  0
 24 55  1  0  0  0  0
 25 56  1  0  0  0  0
 26 27  1  0  0  0  0
 26 57  1  0  0  0  0
M  END
> <PUBCHEM_COMPOUND_CID>
11014

> <PUBCHEM_CONFORMER_RMSD>
0.6

> <PUBCHEM_CONFORMER_DIVERSEORDER>
2
7
17
12
24
21
14
4
10
19
3
16
5
18
11
6
1
23
13
20
8
9
15
22

> <PUBCHEM_MMFF94_PARTIAL_CHARGES>
24
1 -0.68
12 0.14
14 0.14
16 -0.14
18 -0.29
19 -0.14
2 -0.23
21 0.14
22 -0.15
23 -0.29
24 -0.15
25 -0.07
26 -0.14
27 0.71
3 -0.57
4 0.28
46 0.4
47 0.15
53 0.15
54 0.15
55 0.15
56 0.15
57 0.15
8 0.14

> <PUBCHEM_EFFECTIVE_ROTOR_COUNT>
2.6

> <PUBCHEM_PHARMACOPHORE_FEATURES>
8
1 1 acceptor
1 1 donor
1 3 acceptor
5 4 5 8 10 13 rings
6 12 16 17 21 22 23 rings
6 2 19 24 25 26 27 rings
6 4 5 6 7 9 11 rings
6 6 7 12 14 16 18 rings

> <PUBCHEM_HEAVY_ATOM_COUNT>
27

> <PUBCHEM_ATOM_DEF_STEREO_COUNT>
4

> <PUBCHEM_ATOM_UDEF_STEREO_COUNT>
2

> <PUBCHEM_BOND_DEF_STEREO_COUNT>
0

> <PUBCHEM_BOND_UDEF_STEREO_COUNT>
0

> <PUBCHEM_ISOTOPIC_ATOM_COUNT>
0

> <PUBCHEM_COMPONENT_COUNT>
1

> <PUBCHEM_CACTVS_TAUTO_COUNT>
1

> <PUBCHEM_CONFORMER_ID>
00002B0600000002

> <PUBCHEM_MMFF94_ENERGY>
97.1454

> <PUBCHEM_FEATURE_SELFOVERLAP>
40.793

> <PUBCHEM_SHAPE_FINGERPRINT>
10 15 18343295977577731361
10447042 23 9727638289217562904
10674148 151 18259979384819529984
10906281 52 18338500985387631382
11045977 3 18201999906907798163
11089746 13 15864077571821531731
11578080 2 13828408681636250108
11796584 16 15936693684129266790
11963148 33 15698001799296712538
12035758 1 17917990551172889849
12236239 1 17749109971867318270
12403259 415 17988934374354981196
12596602 18 18409445860873569043
12788726 201 17676476251264893928
13140716 1 18268433434334444498
13533116 47 4750610923864042468
13782708 43 15697453251022820266
14251764 18 18409728435541222357
14341114 176 18341890801190010057
14617045 38 17489587866071431562
14790565 3 18409728448120695396
14849402 71 18339356340746690480
14955137 171 18343295946790559604
15142383 8 18412548746716503604
15183329 4 18260552225127878180
15196674 1 18410014312574639854
15238133 3 18409438176797820133
15301273 46 17418095434295833213
15840311 113 18408597081168819549
1601671 61 18408325488499945404
1813 80 16630806603999043823
19141452 34 18337393742919306902
19489759 90 6122503510152177735
20739085 24 18343015579815269076
21033648 29 18337687338077514040
21267235 1 18411417350285178510
21279426 13 18339079418555775796
22122407 14 18041265596293989889
22224240 67 18202844353613700387
23522609 53 17986648481117884956
23559900 14 18411141303250389904
24771293 8 18043266643707642208
2838139 119 17676209083093368601
3009799 131 7637400718191199887
335352 9 18408603656584096590
350125 39 18409446986050037520
3680242 22 18342466971480121394
38695281 34 17967813855550357999
4073 2 18130501925375577858
4325135 7 10735877265943092784
4340502 62 16773799195282880602
5104073 3 18339369556365523754
542803 24 18410860949513130006
7226269 152 17022901246441046809
7495541 125 17346320384285840292
9996256 80 18336548222719825255

> <PUBCHEM_SHAPE_MULTIPOLES>
538.04
14.41
1.94
1.3
4.06
0.14
0.26
1.96
-4.36
-0.75
-0.04
0.7
-0.12
-0.14

> <PUBCHEM_SHAPE_SELFOVERLAP>
1177.963

> <PUBCHEM_SHAPE_VOLUME>
287.4

> <PUBCHEM_COORDINATE_TYPE>
2
5
10

$$$$

