9543307
  -OEChem-07051213152D

 14 14  0     0  0  0  0  0  0999 V2000
    6.2633    0.6240    0.0000 O   0  0  0  0  0  0  0  0  0  0  0  0
    5.7281   -1.0233    0.0000 O   0  0  0  0  0  0  0  0  0  0  0  0
    2.0000   -0.0452    0.0000 O   0  0  0  0  0  0  0  0  0  0  0  0
    3.7601   -0.3239    0.0000 N   0  0  0  0  0  0  0  0  0  0  0  0
    4.5691    0.2638    0.0000 C   0  0  0  0  0  0  0  0  0  0  0  0
    4.2601    1.2149    0.0000 C   0  0  0  0  0  0  0  0  0  0  0  0
    2.9511    0.2638    0.0000 C   0  0  0  0  0  0  0  0  0  0  0  0
    3.2601    1.2149    0.0000 C   0  0  0  0  0  0  0  0  0  0  0  0
    5.5202   -0.0452    0.0000 C   0  0  0  0  0  0  0  0  0  0  0  0
    3.7601   -0.9439    0.0000 H   0  0  0  0  0  0  0  0  0  0  0  0
    4.6245    1.7165    0.0000 H   0  0  0  0  0  0  0  0  0  0  0  0
    2.8956    1.7165    0.0000 H   0  0  0  0  0  0  0  0  0  0  0  0
    6.8530    0.4324    0.0000 H   0  0  0  0  0  0  0  0  0  0  0  0
    6.3177   -1.2149    0.0000 H   0  0  0  0  0  0  0  0  0  0  0  0
  1  9  1  0  0  0  0
  1 13  1  0  0  0  0
  2  9  1  0  0  0  0
  2 14  1  0  0  0  0
  3  7  2  0  0  0  0
  4  5  1  0  0  0  0
  4  7  1  0  0  0  0
  4 10  1  0  0  0  0
  5  6  1  0  0  0  0
  5  9  2  0  0  0  0
  6  8  2  0  0  0  0
  6 11  1  0  0  0  0
  7  8  1  0  0  0  0
  8 12  1  0  0  0  0
M  END
> <PUBCHEM_COMPOUND_CID>
9543307

> <PUBCHEM_COMPOUND_CANONICALIZED>
1

> <PUBCHEM_CACTVS_COMPLEXITY>
200

> <PUBCHEM_CACTVS_HBOND_ACCEPTOR>
3

> <PUBCHEM_CACTVS_HBOND_DONOR>
3

> <PUBCHEM_CACTVS_ROTATABLE_BOND>
0

> <PUBCHEM_CACTVS_SUBSKEYS>
AAADcYBiMAAAAAAAAAAAAAAAAAAAAQAAAAAAAAAAAAAAAAAAAAAAHgAQCAAACAiBgAAACALAAgCIACVSUACAAAAAIAAICAAAAEAIAAAAAAAAAAAAFACAgYAAAAAAAAAAAAAAAAAAAAAAAAAAAAAAAAAAAA==

> <PUBCHEM_IUPAC_OPENEYE_NAME>
5-(dihydroxymethylene)pyrrol-2-one

> <PUBCHEM_IUPAC_CAS_NAME>
5-(dihydroxymethylidene)-2-pyrrolone

> <PUBCHEM_IUPAC_NAME>
5-(dihydroxymethylidene)pyrrol-2-one

> <PUBCHEM_IUPAC_SYSTEMATIC_NAME>
5-[bis(oxidanyl)methylidene]pyrrol-2-one

> <PUBCHEM_IUPAC_TRADITIONAL_NAME>
5-(dihydroxymethylene)-3-pyrrolin-2-one

> <PUBCHEM_IUPAC_INCHI>
InChI=1S/C5H5NO3/c7-4-2-1-3(6-4)5(8)9/h1-2,8-9H,(H,6,7)

> <PUBCHEM_IUPAC_INCHIKEY>
FOAIAAXAYDDHRB-UHFFFAOYSA-N

> <PUBCHEM_XLOGP3_AA>
-0.6

> <PUBCHEM_EXACT_MASS>
127.026943

> <PUBCHEM_MOLECULAR_FORMULA>
C5H5NO3

> <PUBCHEM_MOLECULAR_WEIGHT>
127.0981

> <PUBCHEM_OPENEYE_CAN_SMILES>
C1=CC(=O)NC1=C(O)O

> <PUBCHEM_OPENEYE_ISO_SMILES>
C1=CC(=O)NC1=C(O)O

> <PUBCHEM_CACTVS_TPSA>
69.6

> <PUBCHEM_MONOISOTOPIC_WEIGHT>
127.026943

> <PUBCHEM_TOTAL_CHARGE>
0

> <PUBCHEM_HEAVY_ATOM_COUNT>
9

> <PUBCHEM_ATOM_DEF_STEREO_COUNT>
0

> <PUBCHEM_ATOM_UDEF_STEREO_COUNT>
0

> <PUBCHEM_BOND_DEF_STEREO_COUNT>
0

> <PUBCHEM_BOND_UDEF_STEREO_COUNT>
0

> <PUBCHEM_ISOTOPIC_ATOM_COUNT>
0

> <PUBCHEM_COMPONENT_COUNT>
1

> <PUBCHEM_CACTVS_TAUTO_COUNT>
9

> <PUBCHEM_COORDINATE_TYPE>
1
5
255

$$$$

