51090897
  -OEChem-06241223003D

 36 36  0     0  0  0  0  0  0999 V2000
    1.0277    1.5774    1.5426 O   0  0  0  0  0  0  0  0  0  0  0  0
   -1.5183    0.1776   -1.3012 O   0  0  0  0  0  0  0  0  0  0  0  0
   -3.2044   -1.7199    1.2952 O   0  0  0  0  0  0  0  0  0  0  0  0
    2.3400    1.3557   -0.3628 N   0  0  0  0  0  0  0  0  0  0  0  0
   -1.1465    2.1262   -0.0903 N   0  0  0  0  0  0  0  0  0  0  0  0
   -3.9704   -0.1616   -0.2579 N   0  0  0  0  0  0  0  0  0  0  0  0
    3.2643   -0.7606    0.2112 C   0  0  0  0  0  0  0  0  0  0  0  0
    3.5601   -1.4102   -1.1567 C   0  0  0  0  0  0  0  0  0  0  0  0
    4.4239   -1.6062    0.7775 C   0  0  0  0  0  0  0  0  0  0  0  0
    4.1635   -2.5968   -0.3764 C   0  0  0  0  0  0  0  0  0  0  0  0
    3.4867    0.7368    0.2626 C   0  0  0  0  0  0  0  0  0  0  0  0
    1.1997    1.7261    0.3354 C   0  0  0  0  0  0  0  0  0  0  0  0
    0.1897    2.3997   -0.5688 C   0  0  0  0  0  0  0  0  0  0  0  0
   -1.8923    1.0304   -0.5001 C   0  0  0  0  0  0  0  0  0  0  0  0
   -3.2287    0.9723    0.2087 C   0  0  0  0  0  0  0  0  0  0  0  0
   -3.8976   -1.4221    0.3261 C   0  0  0  0  0  0  0  0  0  0  0  0
   -4.7975   -2.4249   -0.3450 C   0  0  0  0  0  0  0  0  0  0  0  0
    2.2981   -1.0720    0.6342 H   0  0  0  0  0  0  0  0  0  0  0  0
    5.4093   -1.1278    0.7278 H   0  0  0  0  0  0  0  0  0  0  0  0
    4.2742   -2.0050    1.7842 H   0  0  0  0  0  0  0  0  0  0  0  0
    2.6855   -1.6457   -1.7690 H   0  0  0  0  0  0  0  0  0  0  0  0
    4.2932   -0.8792   -1.7753 H   0  0  0  0  0  0  0  0  0  0  0  0
    5.0503   -3.0568   -0.8190 H   0  0  0  0  0  0  0  0  0  0  0  0
    3.4368   -3.3798   -0.1312 H   0  0  0  0  0  0  0  0  0  0  0  0
    3.5629    1.0826    1.2987 H   0  0  0  0  0  0  0  0  0  0  0  0
    4.3840    1.0501   -0.2801 H   0  0  0  0  0  0  0  0  0  0  0  0
    2.3866    1.5184   -1.3643 H   0  0  0  0  0  0  0  0  0  0  0  0
    0.3513    3.4811   -0.5379 H   0  0  0  0  0  0  0  0  0  0  0  0
    0.2821    2.0470   -1.6007 H   0  0  0  0  0  0  0  0  0  0  0  0
   -1.5394    2.7617    0.5982 H   0  0  0  0  0  0  0  0  0  0  0  0
   -3.8049    1.8743   -0.0175 H   0  0  0  0  0  0  0  0  0  0  0  0
   -3.0671    0.8970    1.2887 H   0  0  0  0  0  0  0  0  0  0  0  0
   -4.5730   -0.0304   -1.0653 H   0  0  0  0  0  0  0  0  0  0  0  0
   -4.6854   -2.3689   -1.4316 H   0  0  0  0  0  0  0  0  0  0  0  0
   -4.5324   -3.4341   -0.0181 H   0  0  0  0  0  0  0  0  0  0  0  0
   -5.8366   -2.2189   -0.0747 H   0  0  0  0  0  0  0  0  0  0  0  0
  1 12  2  0  0  0  0
  2 14  2  0  0  0  0
  3 16  2  0  0  0  0
  4 11  1  0  0  0  0
  4 12  1  0  0  0  0
  4 27  1  0  0  0  0
  5 13  1  0  0  0  0
  5 14  1  0  0  0  0
  5 30  1  0  0  0  0
  6 15  1  0  0  0  0
  6 16  1  0  0  0  0
  6 33  1  0  0  0  0
  7  8  1  0  0  0  0
  7  9  1  0  0  0  0
  7 11  1  0  0  0  0
  7 18  1  0  0  0  0
  8 10  1  0  0  0  0
  8 21  1  0  0  0  0
  8 22  1  0  0  0  0
  9 10  1  0  0  0  0
  9 19  1  0  0  0  0
  9 20  1  0  0  0  0
 10 23  1  0  0  0  0
 10 24  1  0  0  0  0
 11 25  1  0  0  0  0
 11 26  1  0  0  0  0
 12 13  1  0  0  0  0
 13 28  1  0  0  0  0
 13 29  1  0  0  0  0
 14 15  1  0  0  0  0
 15 31  1  0  0  0  0
 15 32  1  0  0  0  0
 16 17  1  0  0  0  0
 17 34  1  0  0  0  0
 17 35  1  0  0  0  0
 17 36  1  0  0  0  0
M  END
> <PUBCHEM_COMPOUND_CID>
51090897

> <PUBCHEM_CONFORMER_RMSD>
1

> <PUBCHEM_CONFORMER_DIVERSEORDER>
1
3
29
99
38
25
81
77
18
80
69
11
57
63
78
76
21
23
82
68
84
64
92
45
93
73
72
49
19
62
36
60
91
79
17
94
55
39
85
35
9
71
95
28
32
6
52
51
66
58
90
74
8
56
37
61
70
97
33
13
98
83
75
40
87
24
10
53
2
44
59
7
27
15
42
100
31
5
4
65
88
89
14
86
30
47
43
26
12
67
20
50
96
41
34
16
54
48
46
22

> <PUBCHEM_MMFF94_PARTIAL_CHARGES>
16
1 -0.57
11 0.3
12 0.57
13 0.36
14 0.57
15 0.36
16 0.57
17 0.06
2 -0.57
27 0.37
3 -0.57
30 0.37
33 0.37
4 -0.73
5 -0.73
6 -0.73

> <PUBCHEM_EFFECTIVE_ROTOR_COUNT>
9.8

> <PUBCHEM_PHARMACOPHORE_FEATURES>
7
1 1 acceptor
1 2 acceptor
1 3 acceptor
1 4 donor
1 5 donor
1 6 donor
4 7 8 9 10 rings

> <PUBCHEM_HEAVY_ATOM_COUNT>
17

> <PUBCHEM_ATOM_DEF_STEREO_COUNT>
0

> <PUBCHEM_ATOM_UDEF_STEREO_COUNT>
0

> <PUBCHEM_BOND_DEF_STEREO_COUNT>
0

> <PUBCHEM_BOND_UDEF_STEREO_COUNT>
0

> <PUBCHEM_ISOTOPIC_ATOM_COUNT>
0

> <PUBCHEM_COMPONENT_COUNT>
1

> <PUBCHEM_CACTVS_TAUTO_COUNT>
8

> <PUBCHEM_CONFORMER_ID>
030B95D100000001

> <PUBCHEM_MMFF94_ENERGY>
30.4442

> <PUBCHEM_FEATURE_SELFOVERLAP>
35.52

> <PUBCHEM_SHAPE_FINGERPRINT>
10498660 4 10735865193074951366
10670039 82 7636818033269392090
10968037 57 18408879655398526139
11595378 159 15140948574043398314
117890 22 18408599249462451311
12006461 19 18411699872379432049
12596599 1 18115291393017236563
12596602 18 15285655273557714142
12824470 246 18334008419336455632
12892183 10 17894353250146636208
13103583 49 17749935735327969475
13255334 9 18411697690456885378
13533116 47 18190740830909898603
13911882 115 18187366562926392266
14251705 54 18335982064457287518
14251710 61 18336545035974975620
14251731 5 18411978061537401667
14251764 30 17750495425765834062
15352361 1 18411983563379893355
15375462 189 17894918395281935052
15422964 175 18339931389833669461
17834074 16 18413107238562183579
17959699 21 10303827483592217727
193927 3 18261668281238638718
20281475 54 18411132545691085132
20291156 8 18411138077888030636
20403669 9 18411417323687420575
20621476 21 17896871257204137990
20621476 51 18115033978985700287
20645477 70 17913779310560182021
21354914 76 18408886200532877421
21713013 43 17917435353598430204
221490 88 18409449232781695752
22620623 9 17131287855928369805
23379529 103 18264199374207338438
23503958 8 18333729113671605457
23559900 14 18340778057158398333
2838139 119 10375574989766067978
316301 35 18122631819403893282
3472631 163 10231216822758596571
4259306 186 18342181016472498207
5207 123 18341620283138913639
7987 15 17556836063116225867

> <PUBCHEM_SHAPE_MULTIPOLES>
317.3
10.49
3.16
1.06
2.08
0.44
0.08
9.88
0.26
0.11
-0.06
-0.18
0.08
0.62

> <PUBCHEM_SHAPE_SELFOVERLAP>
622.593

> <PUBCHEM_SHAPE_VOLUME>
189.4

> <PUBCHEM_COORDINATE_TYPE>
2
5
10

$$$$

