441156
  -OEChem-07051212523D

 22 22  0     1  0  0  0  0  0999 V2000
   -0.9714    0.4628   -1.6415 O   0  0  0  0  0  0  0  0  0  0  0  0
   -0.3814    2.3359    0.1173 O   0  0  0  0  0  0  0  0  0  0  0  0
   -1.8181   -1.0108    1.4741 O   0  0  0  0  0  0  0  0  0  0  0  0
   -3.0954   -0.2118   -0.2365 O   0  0  0  0  0  0  0  0  0  0  0  0
   -0.6831   -0.0310   -0.3390 C   0  0  2  0  0  0  0  0  0  0  0  0
    0.0328    1.0330    0.5290 C   0  0  1  0  0  0  0  0  0  0  0  0
    0.1029   -1.3013   -0.5102 C   0  0  0  0  0  0  0  0  0  0  0  0
    1.5375    0.9436    0.4762 C   0  0  0  0  0  0  0  0  0  0  0  0
    2.1793   -0.1733    0.0904 C   0  0  0  0  0  0  0  0  0  0  0  0
    1.4263   -1.3502   -0.2975 C   0  0  0  0  0  0  0  0  0  0  0  0
   -2.0024   -0.4121    0.2720 C   0  0  0  0  0  0  0  0  0  0  0  0
    3.6729   -0.2849    0.0657 C   0  0  0  0  0  0  0  0  0  0  0  0
   -0.2408    0.9404    1.5875 H   0  0  0  0  0  0  0  0  0  0  0  0
   -0.4076   -2.2002   -0.8473 H   0  0  0  0  0  0  0  0  0  0  0  0
    2.1041    1.8123    0.8013 H   0  0  0  0  0  0  0  0  0  0  0  0
    1.9642   -2.2813   -0.4454 H   0  0  0  0  0  0  0  0  0  0  0  0
   -1.4226    1.3188   -1.5475 H   0  0  0  0  0  0  0  0  0  0  0  0
    4.0122   -1.0778    0.7409 H   0  0  0  0  0  0  0  0  0  0  0  0
    4.1576    0.6461    0.3791 H   0  0  0  0  0  0  0  0  0  0  0  0
    4.0245   -0.5160   -0.9456 H   0  0  0  0  0  0  0  0  0  0  0  0
   -1.3310    2.4144    0.3124 H   0  0  0  0  0  0  0  0  0  0  0  0
   -2.6687   -1.2664    1.8904 H   0  0  0  0  0  0  0  0  0  0  0  0
  1  5  1  0  0  0  0
  1 17  1  0  0  0  0
  2  6  1  0  0  0  0
  2 21  1  0  0  0  0
  3 11  1  0  0  0  0
  3 22  1  0  0  0  0
  4 11  2  0  0  0  0
  5  6  1  0  0  0  0
  5  7  1  0  0  0  0
  5 11  1  0  0  0  0
  6  8  1  0  0  0  0
  6 13  1  0  0  0  0
  7 10  2  0  0  0  0
  7 14  1  0  0  0  0
  8  9  2  0  0  0  0
  8 15  1  0  0  0  0
  9 10  1  0  0  0  0
  9 12  1  0  0  0  0
 10 16  1  0  0  0  0
 12 18  1  0  0  0  0
 12 19  1  0  0  0  0
 12 20  1  0  0  0  0
M  END
> <PUBCHEM_COMPOUND_CID>
441156

> <PUBCHEM_CONFORMER_RMSD>
0.4

> <PUBCHEM_CONFORMER_DIVERSEORDER>
1
10
6
8
7
15
2
9
13
14
3
11
12
4
5

> <PUBCHEM_MMFF94_PARTIAL_CHARGES>
18
1 -0.68
10 -0.15
11 0.66
12 0.14
14 0.15
15 0.15
16 0.15
17 0.4
2 -0.68
21 0.4
22 0.5
3 -0.65
4 -0.57
5 0.48
6 0.42
7 -0.29
8 -0.29
9 -0.14

> <PUBCHEM_EFFECTIVE_ROTOR_COUNT>
1.4

> <PUBCHEM_PHARMACOPHORE_FEATURES>
8
1 1 acceptor
1 1 donor
1 2 acceptor
1 2 donor
1 3 acceptor
1 4 acceptor
3 3 4 11 anion
6 5 6 7 8 9 10 rings

> <PUBCHEM_HEAVY_ATOM_COUNT>
12

> <PUBCHEM_ATOM_DEF_STEREO_COUNT>
0

> <PUBCHEM_ATOM_UDEF_STEREO_COUNT>
2

> <PUBCHEM_BOND_DEF_STEREO_COUNT>
0

> <PUBCHEM_BOND_UDEF_STEREO_COUNT>
0

> <PUBCHEM_ISOTOPIC_ATOM_COUNT>
0

> <PUBCHEM_COMPONENT_COUNT>
1

> <PUBCHEM_CACTVS_TAUTO_COUNT>
1

> <PUBCHEM_CONFORMER_ID>
0006BB4400000001

> <PUBCHEM_MMFF94_ENERGY>
19.6142

> <PUBCHEM_FEATURE_SELFOVERLAP>
40.68

> <PUBCHEM_SHAPE_FINGERPRINT>
10219947 1 18334290937916073483
10857977 72 18411983529115009842
12423570 1 7774156075994025177
13024252 1 12175616304366713878
14993402 34 17530970172104590629
15310529 11 17489881444339633434
16945 1 18335126592633828234
17844478 74 18410567401314759050
193761 8 17686335773635783854
20201158 50 18342459257006759315
21061003 4 18409159996297954112
21501502 16 18120653797214565794
23235685 24 18334020479868054650
2748010 2 18046071458465630830
29004967 10 18410288099301427930
369184 2 17749399173658999426
5084963 1 17846497058550990534
528862 383 18124032321621828320
528886 8 18187938278000599514

> <PUBCHEM_SHAPE_MULTIPOLES>
223.48
3.97
1.56
1
1.45
0.61
-0.05
-0.75
0.36
0.04
0.02
-0.49
-0.08
0.3

> <PUBCHEM_SHAPE_SELFOVERLAP>
464.212

> <PUBCHEM_SHAPE_VOLUME>
126.2

> <PUBCHEM_COORDINATE_TYPE>
2
5
10

$$$$

