173866
  -OEChem-07051212563D

 65 68  0     1  0  0  0  0  0999 V2000
   -2.8903   -0.9376   -1.9836 O   0  0  0  0  0  0  0  0  0  0  0  0
   -2.8361    1.5084   -0.4900 O   0  0  0  0  0  0  0  0  0  0  0  0
   -3.5592   -0.9302    0.4664 O   0  0  0  0  0  0  0  0  0  0  0  0
   -2.2421    3.2669   -1.8653 O   0  0  0  0  0  0  0  0  0  0  0  0
    6.6673    0.4341    0.3373 O   0  0  0  0  0  0  0  0  0  0  0  0
   -4.4443   -1.5406    2.5113 O   0  0  0  0  0  0  0  0  0  0  0  0
    7.4179   -1.0303   -1.2716 O   0  0  0  0  0  0  0  0  0  0  0  0
   -1.3023   -0.3901   -0.1002 C   0  0  1  0  0  0  0  0  0  0  0  0
   -1.6437   -1.2582   -1.3462 C   0  0  1  0  0  0  0  0  0  0  0  0
    0.2210   -0.6816    0.2178 C   0  0  1  0  0  0  0  0  0  0  0  0
    0.8983    0.2248    1.3246 C   0  0  2  0  0  0  0  0  0  0  0  0
   -1.4635    1.1369   -0.3592 C   0  0  2  0  0  0  0  0  0  0  0  0
    0.6030    1.7320    1.0033 C   0  0  1  0  0  0  0  0  0  0  0  0
   -1.4172   -2.7406   -1.1915 C   0  0  0  0  0  0  0  0  0  0  0  0
    0.4784   -2.2034    0.3965 C   0  0  0  0  0  0  0  0  0  0  0  0
   -1.7086   -0.7115   -2.7630 C   0  0  0  0  0  0  0  0  0  0  0  0
   -0.8847    2.0038    0.7580 C   0  0  0  0  0  0  0  0  0  0  0  0
    0.0344   -3.0093   -0.8262 C   0  0  0  0  0  0  0  0  0  0  0  0
   -2.2761   -0.8174    1.0328 C   0  0  0  0  0  0  0  0  0  0  0  0
    2.4389    0.0142    1.2624 C   0  0  0  0  0  0  0  0  0  0  0  0
    0.4708   -0.1484    2.7589 C   0  0  0  0  0  0  0  0  0  0  0  0
    1.1091    2.7310    2.0561 C   0  0  0  0  0  0  0  0  0  0  0  0
    2.9707    0.4428   -0.0899 C   0  0  0  0  0  0  0  0  0  0  0  0
   -3.0799    2.5972   -1.2765 C   0  0  0  0  0  0  0  0  0  0  0  0
    4.4444    0.2244   -0.1684 C   0  0  0  0  0  0  0  0  0  0  0  0
   -4.5712   -1.3031    1.3178 C   0  0  0  0  0  0  0  0  0  0  0  0
    5.3808    0.9145    0.7416 C   0  0  0  0  0  0  0  0  0  0  0  0
   -4.5533    2.8672   -1.3217 C   0  0  0  0  0  0  0  0  0  0  0  0
    5.0937   -0.5714   -1.0140 C   0  0  0  0  0  0  0  0  0  0  0  0
   -5.8734   -1.3814    0.5803 C   0  0  0  0  0  0  0  0  0  0  0  0
    6.5171   -0.4430   -0.6976 C   0  0  0  0  0  0  0  0  0  0  0  0
    0.6920   -0.4260   -0.7363 H   0  0  0  0  0  0  0  0  0  0  0  0
   -0.9140    1.3873   -1.2745 H   0  0  0  0  0  0  0  0  0  0  0  0
    1.0589    2.0179    0.0528 H   0  0  0  0  0  0  0  0  0  0  0  0
   -2.0808   -3.1515   -0.4227 H   0  0  0  0  0  0  0  0  0  0  0  0
   -1.6585   -3.2758   -2.1180 H   0  0  0  0  0  0  0  0  0  0  0  0
   -0.0266   -2.5895    1.2869 H   0  0  0  0  0  0  0  0  0  0  0  0
    1.5431   -2.4090    0.5336 H   0  0  0  0  0  0  0  0  0  0  0  0
   -1.5219   -1.3863   -3.5905 H   0  0  0  0  0  0  0  0  0  0  0  0
   -1.4425    0.3112   -2.9836 H   0  0  0  0  0  0  0  0  0  0  0  0
   -1.0152    3.0624    0.4958 H   0  0  0  0  0  0  0  0  0  0  0  0
   -1.4613    1.8859    1.6828 H   0  0  0  0  0  0  0  0  0  0  0  0
    0.6778   -2.7492   -1.6764 H   0  0  0  0  0  0  0  0  0  0  0  0
    0.1767   -4.0790   -0.6352 H   0  0  0  0  0  0  0  0  0  0  0  0
   -1.9997   -1.7845    1.4621 H   0  0  0  0  0  0  0  0  0  0  0  0
   -2.3117   -0.0902    1.8460 H   0  0  0  0  0  0  0  0  0  0  0  0
    2.9215    0.5979    2.0556 H   0  0  0  0  0  0  0  0  0  0  0  0
    2.7136   -1.0235    1.4804 H   0  0  0  0  0  0  0  0  0  0  0  0
    0.5903   -1.2186    2.9529 H   0  0  0  0  0  0  0  0  0  0  0  0
   -0.5636    0.1186    2.9745 H   0  0  0  0  0  0  0  0  0  0  0  0
    1.0862    0.3666    3.5057 H   0  0  0  0  0  0  0  0  0  0  0  0
    0.9177    3.7594    1.7285 H   0  0  0  0  0  0  0  0  0  0  0  0
    2.1874    2.6467    2.2136 H   0  0  0  0  0  0  0  0  0  0  0  0
    0.6048    2.5999    3.0185 H   0  0  0  0  0  0  0  0  0  0  0  0
    2.8439    1.5094   -0.2860 H   0  0  0  0  0  0  0  0  0  0  0  0
    2.5313   -0.1033   -0.9255 H   0  0  0  0  0  0  0  0  0  0  0  0
    5.3526    2.0014    0.6214 H   0  0  0  0  0  0  0  0  0  0  0  0
    5.2296    0.6512    1.7918 H   0  0  0  0  0  0  0  0  0  0  0  0
   -5.0752    2.0021   -1.7387 H   0  0  0  0  0  0  0  0  0  0  0  0
   -4.7444    3.7321   -1.9633 H   0  0  0  0  0  0  0  0  0  0  0  0
   -4.9197    3.0899   -0.3165 H   0  0  0  0  0  0  0  0  0  0  0  0
    4.6860   -1.1984   -1.7880 H   0  0  0  0  0  0  0  0  0  0  0  0
   -6.1177   -0.4032    0.1584 H   0  0  0  0  0  0  0  0  0  0  0  0
   -6.6676   -1.6710    1.2742 H   0  0  0  0  0  0  0  0  0  0  0  0
   -5.8058   -2.1346   -0.2085 H   0  0  0  0  0  0  0  0  0  0  0  0
  1  9  1  0  0  0  0
  1 16  1  0  0  0  0
  2 12  1  0  0  0  0
  2 24  1  0  0  0  0
  3 19  1  0  0  0  0
  3 26  1  0  0  0  0
  4 24  2  0  0  0  0
  5 27  1  0  0  0  0
  5 31  1  0  0  0  0
  6 26  2  0  0  0  0
  7 31  2  0  0  0  0
  8  9  1  0  0  0  0
  8 10  1  0  0  0  0
  8 12  1  0  0  0  0
  8 19  1  0  0  0  0
  9 14  1  0  0  0  0
  9 16  1  0  0  0  0
 10 11  1  0  0  0  0
 10 15  1  0  0  0  0
 10 32  1  0  0  0  0
 11 13  1  0  0  0  0
 11 20  1  0  0  0  0
 11 21  1  0  0  0  0
 12 17  1  0  0  0  0
 12 33  1  0  0  0  0
 13 17  1  0  0  0  0
 13 22  1  0  0  0  0
 13 34  1  0  0  0  0
 14 18  1  0  0  0  0
 14 35  1  0  0  0  0
 14 36  1  0  0  0  0
 15 18  1  0  0  0  0
 15 37  1  0  0  0  0
 15 38  1  0  0  0  0
 16 39  1  0  0  0  0
 16 40  1  0  0  0  0
 17 41  1  0  0  0  0
 17 42  1  0  0  0  0
 18 43  1  0  0  0  0
 18 44  1  0  0  0  0
 19 45  1  0  0  0  0
 19 46  1  0  0  0  0
 20 23  1  0  0  0  0
 20 47  1  0  0  0  0
 20 48  1  0  0  0  0
 21 49  1  0  0  0  0
 21 50  1  0  0  0  0
 21 51  1  0  0  0  0
 22 52  1  0  0  0  0
 22 53  1  0  0  0  0
 22 54  1  0  0  0  0
 23 25  1  0  0  0  0
 23 55  1  0  0  0  0
 23 56  1  0  0  0  0
 24 28  1  0  0  0  0
 25 27  1  0  0  0  0
 25 29  2  0  0  0  0
 26 30  1  0  0  0  0
 27 57  1  0  0  0  0
 27 58  1  0  0  0  0
 28 59  1  0  0  0  0
 28 60  1  0  0  0  0
 28 61  1  0  0  0  0
 29 31  1  0  0  0  0
 29 62  1  0  0  0  0
 30 63  1  0  0  0  0
 30 64  1  0  0  0  0
 30 65  1  0  0  0  0
M  END
> <PUBCHEM_COMPOUND_CID>
173866

> <PUBCHEM_CONFORMER_RMSD>
1

> <PUBCHEM_CONFORMER_DIVERSEORDER>
1
4
2
5
3

> <PUBCHEM_MMFF94_PARTIAL_CHARGES>
25
1 -0.3
12 0.28
14 0.09
16 -0.05
19 0.28
2 -0.43
23 0.14
24 0.66
25 -0.28
26 0.66
27 0.42
28 0.06
29 -0.14
3 -0.43
30 0.06
31 0.71
39 0.1
4 -0.57
40 0.1
5 -0.43
6 -0.57
62 0.15
7 -0.57
8 0.09
9 -0.04

> <PUBCHEM_EFFECTIVE_ROTOR_COUNT>
10.2

> <PUBCHEM_PHARMACOPHORE_FEATURES>
7
1 1 acceptor
1 4 acceptor
1 6 acceptor
1 7 acceptor
5 5 25 27 29 31 rings
6 8 10 11 12 13 17 rings
6 8 9 10 14 15 18 rings

> <PUBCHEM_HEAVY_ATOM_COUNT>
31

> <PUBCHEM_ATOM_DEF_STEREO_COUNT>
6

> <PUBCHEM_ATOM_UDEF_STEREO_COUNT>
0

> <PUBCHEM_BOND_DEF_STEREO_COUNT>
0

> <PUBCHEM_BOND_UDEF_STEREO_COUNT>
0

> <PUBCHEM_ISOTOPIC_ATOM_COUNT>
0

> <PUBCHEM_COMPONENT_COUNT>
1

> <PUBCHEM_CACTVS_TAUTO_COUNT>
1

> <PUBCHEM_CONFORMER_ID>
0002A72A00000001

> <PUBCHEM_MMFF94_ENERGY>
89.1753

> <PUBCHEM_FEATURE_SELFOVERLAP>
35.533

> <PUBCHEM_SHAPE_FINGERPRINT>
10165383 225 18260544558969957273
10190108 129 18336828598802405071
107951 10 18130786823288190315
11578080 2 18193263325279348171
12011746 2 18411702054718768787
12082328 90 18060414734433302606
12107698 1 17917425385290682900
12553582 1 18187656786408613370
14713325 29 18201997771945262901
14856354 85 17845641574059505483
14955137 171 18187636951705970968
15064986 266 17604417614035183288
15439362 3 17619066574264943916
15849732 13 17603577504903397731
17980427 23 15051150381487206425
19141452 34 17023180488114020782
20775530 9 14855863716507689900
21403212 168 17386272273463982915
21756936 100 17775569762624918824
22182313 1 18263070166737392895
23419403 2 17607496297831396511
23559900 14 17908153418461576490
2818148 4 17836356056396608647
4015057 19 16805619040305397128
4058900 60 17693945493971175165
469060 322 18200855344893619312
484985 159 16371013966412771807
497634 4 16988844977503543790
5283173 99 18335715918762402408

> <PUBCHEM_SHAPE_MULTIPOLES>
596.88
12.57
3.15
2.26
20.35
0.98
0.17
-1.53
-1.99
-3.16
-0.96
-1.96
0.24
2.72

> <PUBCHEM_SHAPE_SELFOVERLAP>
1255.432

> <PUBCHEM_SHAPE_VOLUME>
333.4

> <PUBCHEM_COORDINATE_TYPE>
2
5
10

$$$$

