440579
  -OEChem-07051212503D

 24 23  0     1  0  0  0  0  0999 V2000
   -2.5769    1.5010    0.5528 O   0  0  0  0  0  0  0  0  0  0  0  0
   -3.3061   -0.2357   -0.7124 O   0  0  0  0  0  0  0  0  0  0  0  0
    2.7724    0.5789   -1.3586 N   0  0  0  0  0  0  0  0  0  0  0  0
   -1.1957   -1.7542   -0.1645 N   0  0  0  0  0  0  0  0  0  0  0  0
    1.3668   -0.3650    0.4534 C   0  0  0  0  0  0  0  0  0  0  0  0
    0.0697    0.3364    0.0192 C   0  0  0  0  0  0  0  0  0  0  0  0
    2.6387    0.4209    0.0896 C   0  0  1  0  0  0  0  0  0  0  0  0
   -1.1820   -0.4358    0.4645 C   0  0  1  0  0  0  0  0  0  0  0  0
    3.8786   -0.2962    0.6224 C   0  0  0  0  0  0  0  0  0  0  0  0
   -2.4656    0.2497    0.0337 C   0  0  0  0  0  0  0  0  0  0  0  0
    1.4213   -1.3651    0.0048 H   0  0  0  0  0  0  0  0  0  0  0  0
    1.3397   -0.5110    1.5410 H   0  0  0  0  0  0  0  0  0  0  0  0
    0.0487    1.3441    0.4530 H   0  0  0  0  0  0  0  0  0  0  0  0
    0.0548    0.4723   -1.0699 H   0  0  0  0  0  0  0  0  0  0  0  0
    2.5857    1.4173    0.5433 H   0  0  0  0  0  0  0  0  0  0  0  0
   -1.2040   -0.5574    1.5528 H   0  0  0  0  0  0  0  0  0  0  0  0
    3.8240   -0.4029    1.7112 H   0  0  0  0  0  0  0  0  0  0  0  0
    3.9827   -1.2986    0.1917 H   0  0  0  0  0  0  0  0  0  0  0  0
    4.7897    0.2676    0.3923 H   0  0  0  0  0  0  0  0  0  0  0  0
    2.8339   -0.3368   -1.8024 H   0  0  0  0  0  0  0  0  0  0  0  0
    3.6463    1.0573   -1.5742 H   0  0  0  0  0  0  0  0  0  0  0  0
   -1.2136   -1.6621   -1.1794 H   0  0  0  0  0  0  0  0  0  0  0  0
   -2.0402   -2.2598    0.0996 H   0  0  0  0  0  0  0  0  0  0  0  0
   -3.4016    1.9451    0.2616 H   0  0  0  0  0  0  0  0  0  0  0  0
  1 10  1  0  0  0  0
  1 24  1  0  0  0  0
  2 10  2  0  0  0  0
  3  7  1  0  0  0  0
  3 20  1  0  0  0  0
  3 21  1  0  0  0  0
  4  8  1  0  0  0  0
  4 22  1  0  0  0  0
  4 23  1  0  0  0  0
  5  6  1  0  0  0  0
  5  7  1  0  0  0  0
  5 11  1  0  0  0  0
  5 12  1  0  0  0  0
  6  8  1  0  0  0  0
  6 13  1  0  0  0  0
  6 14  1  0  0  0  0
  7  9  1  0  0  0  0
  7 15  1  0  0  0  0
  8 10  1  0  0  0  0
  8 16  1  0  0  0  0
  9 17  1  0  0  0  0
  9 18  1  0  0  0  0
  9 19  1  0  0  0  0
M  END
> <PUBCHEM_COMPOUND_CID>
440579

> <PUBCHEM_CONFORMER_RMSD>
0.6

> <PUBCHEM_CONFORMER_DIVERSEORDER>
20
62
4
63
65
39
66
60
8
69
56
44
5
70
68
48
15
53
10
50
13
12
67
21
61
58
49
29
64
43
1
30
54
52
3
41
55
45
24
46
57
38
35
59
14
7
31
2
34
32
23
22
27
6
51
26
33
36
11
18
16
25
9
47
19
40
28
17
37
42

> <PUBCHEM_MMFF94_PARTIAL_CHARGES>
12
1 -0.65
10 0.66
2 -0.57
20 0.36
21 0.36
22 0.36
23 0.36
24 0.5
3 -0.99
4 -0.99
7 0.27
8 0.33

> <PUBCHEM_EFFECTIVE_ROTOR_COUNT>
4

> <PUBCHEM_PHARMACOPHORE_FEATURES>
7
1 1 acceptor
1 2 acceptor
1 3 cation
1 3 donor
1 4 cation
1 4 donor
3 1 2 10 anion

> <PUBCHEM_HEAVY_ATOM_COUNT>
10

> <PUBCHEM_ATOM_DEF_STEREO_COUNT>
0

> <PUBCHEM_ATOM_UDEF_STEREO_COUNT>
2

> <PUBCHEM_BOND_DEF_STEREO_COUNT>
0

> <PUBCHEM_BOND_UDEF_STEREO_COUNT>
0

> <PUBCHEM_ISOTOPIC_ATOM_COUNT>
0

> <PUBCHEM_COMPONENT_COUNT>
1

> <PUBCHEM_CACTVS_TAUTO_COUNT>
1

> <PUBCHEM_CONFORMER_ID>
0006B90300000014

> <PUBCHEM_MMFF94_ENERGY>
1.7142

> <PUBCHEM_FEATURE_SELFOVERLAP>
35.579

> <PUBCHEM_SHAPE_FINGERPRINT>
11062470 55 17095245813008406272
12932741 1 17458621173257490706
12932764 1 18338224952171395194
14325111 11 18334859449825684978
14390081 3 18334014994804551184
190213 19 17989208144270976424
20201158 50 17240201023731035222
20279233 1 17313100835228401398
21293036 1 16732988608697776186
23402539 116 18187660097738396429
3248919 1 18343860017835634666
42627469 27 18342452677106065641

> <PUBCHEM_SHAPE_MULTIPOLES>
184.09
6.24
1.14
0.89
2.09
0.17
0.16
-0.66
0.16
-0.6
-0.01
0.33
-0.11
-0.57

> <PUBCHEM_SHAPE_SELFOVERLAP>
340.286

> <PUBCHEM_SHAPE_VOLUME>
116.1

> <PUBCHEM_COORDINATE_TYPE>
2
5
10

$$$$

