73072
  -OEChem-07051212593D

 27 30  0     0  0  0  0  0  0999 V2000
    2.5941   -1.7771   -0.0002 O   0  0  0  0  0  0  0  0  0  0  0  0
    4.3037   -0.0870   -0.0003 O   0  0  0  0  0  0  0  0  0  0  0  0
   -0.0568   -2.3999    0.0012 O   0  0  0  0  0  0  0  0  0  0  0  0
   -1.3116    2.7967    0.0017 O   0  0  0  0  0  0  0  0  0  0  0  0
    0.7212   -0.1802   -0.0004 C   0  0  0  0  0  0  0  0  0  0  0  0
    0.3939    1.1807   -0.0003 C   0  0  0  0  0  0  0  0  0  0  0  0
    2.0654   -0.5211   -0.0004 C   0  0  0  0  0  0  0  0  0  0  0  0
   -1.7526   -0.7786   -0.0006 C   0  0  0  0  0  0  0  0  0  0  0  0
   -2.0812    0.5784   -0.0004 C   0  0  0  0  0  0  0  0  0  0  0  0
   -0.3391   -1.2084   -0.0003 C   0  0  0  0  0  0  0  0  0  0  0  0
    3.0497    0.4434   -0.0005 C   0  0  0  0  0  0  0  0  0  0  0  0
   -1.0211    1.6068    0.0004 C   0  0  0  0  0  0  0  0  0  0  0  0
    1.4078    2.1614   -0.0004 C   0  0  0  0  0  0  0  0  0  0  0  0
    2.7537    1.7904   -0.0006 C   0  0  0  0  0  0  0  0  0  0  0  0
    4.0063   -1.4953    0.0016 C   0  0  0  0  0  0  0  0  0  0  0  0
   -2.7683   -1.7425   -0.0006 C   0  0  0  0  0  0  0  0  0  0  0  0
   -3.4252    0.9714   -0.0001 C   0  0  0  0  0  0  0  0  0  0  0  0
   -4.1060   -1.3467    0.0000 C   0  0  0  0  0  0  0  0  0  0  0  0
   -4.4339    0.0075    0.0001 C   0  0  0  0  0  0  0  0  0  0  0  0
    1.1622    3.2205   -0.0003 H   0  0  0  0  0  0  0  0  0  0  0  0
    3.5358    2.5413   -0.0008 H   0  0  0  0  0  0  0  0  0  0  0  0
    4.4566   -1.9513   -0.8876 H   0  0  0  0  0  0  0  0  0  0  0  0
    4.4540   -1.9483    0.8936 H   0  0  0  0  0  0  0  0  0  0  0  0
   -2.5393   -2.8048   -0.0007 H   0  0  0  0  0  0  0  0  0  0  0  0
   -3.7071    2.0209    0.0003 H   0  0  0  0  0  0  0  0  0  0  0  0
   -4.8930   -2.0953    0.0001 H   0  0  0  0  0  0  0  0  0  0  0  0
   -5.4762    0.3133    0.0005 H   0  0  0  0  0  0  0  0  0  0  0  0
  1  7  1  0  0  0  0
  1 15  1  0  0  0  0
  2 11  1  0  0  0  0
  2 15  1  0  0  0  0
  3 10  2  0  0  0  0
  4 12  2  0  0  0  0
  5  6  2  0  0  0  0
  5  7  1  0  0  0  0
  5 10  1  0  0  0  0
  6 12  1  0  0  0  0
  6 13  1  0  0  0  0
  7 11  2  0  0  0  0
  8  9  1  0  0  0  0
  8 10  1  0  0  0  0
  8 16  2  0  0  0  0
  9 12  1  0  0  0  0
  9 17  2  0  0  0  0
 11 14  1  0  0  0  0
 13 14  2  0  0  0  0
 13 20  1  0  0  0  0
 14 21  1  0  0  0  0
 15 22  1  0  0  0  0
 15 23  1  0  0  0  0
 16 18  1  0  0  0  0
 16 24  1  0  0  0  0
 17 19  1  0  0  0  0
 17 25  1  0  0  0  0
 18 19  2  0  0  0  0
 18 26  1  0  0  0  0
 19 27  1  0  0  0  0
M  END
> <PUBCHEM_COMPOUND_CID>
73072

> <PUBCHEM_CONFORMER_RMSD>
0.6

> <PUBCHEM_CONFORMER_DIVERSEORDER>
1

> <PUBCHEM_MMFF94_PARTIAL_CHARGES>
25
1 -0.36
10 0.4
11 0.08
12 0.4
13 -0.15
14 -0.15
15 0.56
16 -0.15
17 -0.15
18 -0.15
19 -0.15
2 -0.36
20 0.15
21 0.15
24 0.15
25 0.15
26 0.15
27 0.15
3 -0.57
4 -0.57
5 0.09
6 0.09
7 0.08
8 0.09
9 0.09

> <PUBCHEM_EFFECTIVE_ROTOR_COUNT>
0.6

> <PUBCHEM_PHARMACOPHORE_FEATURES>
8
1 1 acceptor
1 2 acceptor
1 3 acceptor
1 4 acceptor
5 1 2 7 11 15 rings
6 5 6 7 11 13 14 rings
6 5 6 8 9 10 12 rings
6 8 9 16 17 18 19 rings

> <PUBCHEM_HEAVY_ATOM_COUNT>
19

> <PUBCHEM_ATOM_DEF_STEREO_COUNT>
0

> <PUBCHEM_ATOM_UDEF_STEREO_COUNT>
0

> <PUBCHEM_BOND_DEF_STEREO_COUNT>
0

> <PUBCHEM_BOND_UDEF_STEREO_COUNT>
0

> <PUBCHEM_ISOTOPIC_ATOM_COUNT>
0

> <PUBCHEM_COMPONENT_COUNT>
1

> <PUBCHEM_CACTVS_TAUTO_COUNT>
1

> <PUBCHEM_CONFORMER_ID>
00011D7000000001

> <PUBCHEM_MMFF94_ENERGY>
55.9269

> <PUBCHEM_FEATURE_SELFOVERLAP>
40.796

> <PUBCHEM_SHAPE_FINGERPRINT>
10062212 137 18335426755329884863
10608611 8 18411141303271514653
10616163 171 18409164437204662079
10618630 7 18411699867878567597
10967382 1 18338517421910955493
11132069 177 18409173211701223281
11471102 20 18411141298807495580
11578080 2 17345218729717667820
11680986 33 18269269058628251512
12032990 46 18411979131310981211
12403259 226 18410862078752263020
13140716 1 18410005525177021577
13221675 6 18411420626295413291
13583140 156 14273738503282873623
138480 1 14807694721426946048
13862211 1 18410862070136110531
14115302 16 17917701383872939166
14178342 30 18193849364666119528
14790565 3 17619623579846957980
14866123 147 17180237228680771250
15042514 8 17907583880428859610
15196674 1 18410573967997994693
15230672 131 13442844589226341995
15442244 35 18410292553298493354
15536298 74 18334858277421049312
16945 1 18338517576746192389
17492 89 18337390431204817463
17804303 29 18409163337555682860
1813 80 17489588952439694564
18186145 218 17775012262631412159
19591789 44 18411137992015519603
200 152 18113342994483790247
20028762 73 18042968675529429623
20510252 161 18261113027523999984
20645477 70 18408886209154688087
21267235 1 18410846651451301323
21501502 16 18409724049836619000
221490 88 18269548351735396890
2334 1 18266458715798303245
23402539 116 18334584533301212119
23463225 33 18411135814308403285
23559900 14 18408327683434260912
238 59 4730283603650679414
2748010 2 18339083683621895645
2871803 45 18342181084928282623
335352 9 18266459987182573749
34934 24 18264776462696543662
350125 39 18410852183142604600
5104073 3 18410011022355391897
69090 78 18335143068070444407
7364860 26 18263646173797777000
8809292 202 18343861113004939459
9709674 26 18410851027812148294
9981440 41 17475800849115923520

> <PUBCHEM_SHAPE_MULTIPOLES>
367.53
7.51
2.54
0.6
0.65
0.49
0
-1.97
0
-0.28
0
0.03
0.01
0

> <PUBCHEM_SHAPE_SELFOVERLAP>
849.99

> <PUBCHEM_SHAPE_VOLUME>
186.8

> <PUBCHEM_COORDINATE_TYPE>
2
5
10

$$$$

