5281602
  -OEChem-07051212582D

 59 62  0     1  0  0  0  0  0999 V2000
   12.1292   -0.4719    0.0000 O   0  0  0  0  0  0  0  0  0  0  0  0
   10.3972   -0.4786    0.0000 O   0  0  0  0  0  0  0  0  0  0  0  0
   13.8690   -2.4652    0.0000 O   0  0  0  0  0  0  0  0  0  0  0  0
   12.1408   -3.4719    0.0000 O   0  0  0  0  0  0  0  0  0  0  0  0
   10.4049   -2.4785    0.0000 O   0  0  0  0  0  0  0  0  0  0  0  0
   13.8574    0.5348    0.0000 O   0  0  0  0  0  0  0  0  0  0  0  0
    6.8671   -0.5027    0.0000 O   0  0  0  0  0  0  0  0  0  0  0  0
    8.6155   -3.5373    0.0000 O   0  0  0  0  0  0  0  0  0  0  0  0
   15.5894    0.5415    0.0000 O   0  0  0  0  0  0  0  0  0  0  0  0
    6.8671   -3.5027    0.0000 O   0  0  0  0  0  0  0  0  0  0  0  0
   15.5779    3.5414    0.0000 O   0  0  0  0  0  0  0  0  0  0  0  0
   16.4497    2.0448    0.0000 O   0  0  0  0  0  0  0  0  0  0  0  0
    2.5369    0.9973    0.0000 O   0  0  0  0  0  0  0  0  0  0  0  0
   13.0010   -1.9685    0.0000 C   0  0  1  0  0  0  0  0  0  0  0  0
   12.1369   -2.4719    0.0000 C   0  0  1  0  0  0  0  0  0  0  0  0
   12.9972   -0.9685    0.0000 C   0  0  1  0  0  0  0  0  0  0  0  0
   11.2690   -1.9752    0.0000 C   0  0  2  0  0  0  0  0  0  0  0  0
   11.2651   -0.9752    0.0000 C   0  0  1  0  0  0  0  0  0  0  0  0
   13.8613   -0.4652    0.0000 C   0  0  0  0  0  0  0  0  0  0  0  0
    9.5331   -0.9819    0.0000 C   0  0  0  0  0  0  0  0  0  0  0  0
    8.6270   -0.4681    0.0000 C   0  0  0  0  0  0  0  0  0  0  0  0
    9.5331   -2.0235    0.0000 C   0  0  0  0  0  0  0  0  0  0  0  0
   14.7215    1.0381    0.0000 C   0  0  0  0  0  0  0  0  0  0  0  0
    7.7331   -1.0027    0.0000 C   0  0  0  0  0  0  0  0  0  0  0  0
    7.7331   -2.0027    0.0000 C   0  0  0  0  0  0  0  0  0  0  0  0
    8.6270   -2.5374    0.0000 C   0  0  0  0  0  0  0  0  0  0  0  0
   14.7176    2.0381    0.0000 C   0  0  0  0  0  0  0  0  0  0  0  0
    6.8671   -2.5027    0.0000 C   0  0  0  0  0  0  0  0  0  0  0  0
    6.0010   -1.0027    0.0000 C   0  0  0  0  0  0  0  0  0  0  0  0
    6.0010   -2.0027    0.0000 C   0  0  0  0  0  0  0  0  0  0  0  0
    5.1350   -0.5027    0.0000 C   0  0  0  0  0  0  0  0  0  0  0  0
   15.5817    2.5414    0.0000 C   0  0  0  0  0  0  0  0  0  0  0  0
    5.1350    0.4973    0.0000 C   0  0  0  0  0  0  0  0  0  0  0  0
    4.2690   -1.0027    0.0000 C   0  0  0  0  0  0  0  0  0  0  0  0
    4.2690    0.9973    0.0000 C   0  0  0  0  0  0  0  0  0  0  0  0
    3.4030   -0.5027    0.0000 C   0  0  0  0  0  0  0  0  0  0  0  0
    3.4030    0.4973    0.0000 C   0  0  0  0  0  0  0  0  0  0  0  0
   13.0034   -2.5885    0.0000 H   0  0  0  0  0  0  0  0  0  0  0  0
   11.6012   -2.7839    0.0000 H   0  0  0  0  0  0  0  0  0  0  0  0
   12.9948   -0.3486    0.0000 H   0  0  0  0  0  0  0  0  0  0  0  0
   11.2714   -2.5952    0.0000 H   0  0  0  0  0  0  0  0  0  0  0  0
   10.7294   -1.2873    0.0000 H   0  0  0  0  0  0  0  0  0  0  0  0
   14.0756   -1.0470    0.0000 H   0  0  0  0  0  0  0  0  0  0  0  0
   14.4714   -0.3552    0.0000 H   0  0  0  0  0  0  0  0  0  0  0  0
   14.4047   -2.1531    0.0000 H   0  0  0  0  0  0  0  0  0  0  0  0
   12.6789   -3.7798    0.0000 H   0  0  0  0  0  0  0  0  0  0  0  0
   10.4073   -3.0986    0.0000 H   0  0  0  0  0  0  0  0  0  0  0  0
    8.6199    0.1519    0.0000 H   0  0  0  0  0  0  0  0  0  0  0  0
   10.0688   -2.3356    0.0000 H   0  0  0  0  0  0  0  0  0  0  0  0
   14.5034    2.6199    0.0000 H   0  0  0  0  0  0  0  0  0  0  0  0
   14.1075    1.9281    0.0000 H   0  0  0  0  0  0  0  0  0  0  0  0
    5.4641   -2.3127    0.0000 H   0  0  0  0  0  0  0  0  0  0  0  0
    9.1488   -3.8535    0.0000 H   0  0  0  0  0  0  0  0  0  0  0  0
    5.6720    0.8073    0.0000 H   0  0  0  0  0  0  0  0  0  0  0  0
    4.2690   -1.6227    0.0000 H   0  0  0  0  0  0  0  0  0  0  0  0
    4.2690    1.6173    0.0000 H   0  0  0  0  0  0  0  0  0  0  0  0
    2.8660   -0.8127    0.0000 H   0  0  0  0  0  0  0  0  0  0  0  0
   16.1136    3.8535    0.0000 H   0  0  0  0  0  0  0  0  0  0  0  0
    2.0000    0.6873    0.0000 H   0  0  0  0  0  0  0  0  0  0  0  0
  1 16  1  0  0  0  0
  1 18  1  0  0  0  0
 18  2  1  6  0  0  0
  2 20  1  0  0  0  0
 14  3  1  1  0  0  0
  3 45  1  0  0  0  0
 15  4  1  6  0  0  0
  4 46  1  0  0  0  0
 17  5  1  1  0  0  0
  5 47  1  0  0  0  0
  6 19  1  0  0  0  0
  6 23  1  0  0  0  0
  7 24  1  0  0  0  0
  7 29  1  0  0  0  0
  8 26  1  0  0  0  0
  8 53  1  0  0  0  0
  9 23  2  0  0  0  0
 10 28  2  0  0  0  0
 11 32  1  0  0  0  0
 11 58  1  0  0  0  0
 12 32  2  0  0  0  0
 13 37  1  0  0  0  0
 13 59  1  0  0  0  0
 14 15  1  0  0  0  0
 14 16  1  0  0  0  0
 14 38  1  0  0  0  0
 15 17  1  0  0  0  0
 15 39  1  0  0  0  0
 16 19  1  6  0  0  0
 16 40  1  0  0  0  0
 17 18  1  0  0  0  0
 17 41  1  0  0  0  0
 18 42  1  0  0  0  0
 19 43  1  0  0  0  0
 19 44  1  0  0  0  0
 20 21  1  0  0  0  0
 20 22  2  0  0  0  0
 21 24  2  0  0  0  0
 21 48  1  0  0  0  0
 22 26  1  0  0  0  0
 22 49  1  0  0  0  0
 23 27  1  0  0  0  0
 24 25  1  0  0  0  0
 25 26  2  0  0  0  0
 25 28  1  0  0  0  0
 27 32  1  0  0  0  0
 27 50  1  0  0  0  0
 27 51  1  0  0  0  0
 28 30  1  0  0  0  0
 29 30  2  0  0  0  0
 29 31  1  0  0  0  0
 30 52  1  0  0  0  0
 31 33  2  0  0  0  0
 31 34  1  0  0  0  0
 33 35  1  0  0  0  0
 33 54  1  0  0  0  0
 34 36  2  0  0  0  0
 34 55  1  0  0  0  0
 35 37  2  0  0  0  0
 35 56  1  0  0  0  0
 36 37  1  0  0  0  0
 36 57  1  0  0  0  0
M  END
> <PUBCHEM_COMPOUND_CID>
5281602

> <PUBCHEM_COMPOUND_CANONICALIZED>
1

> <PUBCHEM_CACTVS_COMPLEXITY>
882

> <PUBCHEM_CACTVS_HBOND_ACCEPTOR>
13

> <PUBCHEM_CACTVS_HBOND_DONOR>
6

> <PUBCHEM_CACTVS_ROTATABLE_BOND>
8

> <PUBCHEM_CACTVS_SUBSKEYS>
AAADceB4PAAAAAAAAAAAAAAAAAAAAAAAAAA0YIEAAAAAAACBQAAAGgAACAAADBSwmAMwDoAABgCIAqDSCAACCAAkIAAIiAEGCMgdNzaONRqieWCl4BUPuQfI7KzOIAAACAAIAABAAAAQABAAAAAAAAAAAA==

> <PUBCHEM_IUPAC_OPENEYE_NAME>
3-oxo-3-[[(2R,3S,4S,5R,6S)-3,4,5-trihydroxy-6-[5-hydroxy-2-(4-hydroxyphenyl)-4-oxo-chromen-7-yl]oxy-tetrahydropyran-2-yl]methoxy]propanoic acid

> <PUBCHEM_IUPAC_CAS_NAME>
3-oxo-3-[[(2R,3S,4S,5R,6S)-3,4,5-trihydroxy-6-[[5-hydroxy-2-(4-hydroxyphenyl)-4-oxo-1-benzopyran-7-yl]oxy]-2-oxanyl]methoxy]propanoic acid

> <PUBCHEM_IUPAC_NAME>
3-oxo-3-[[(2R,3S,4S,5R,6S)-3,4,5-trihydroxy-6-[5-hydroxy-2-(4-hydroxyphenyl)-4-oxochromen-7-yl]oxyoxan-2-yl]methoxy]propanoic acid

> <PUBCHEM_IUPAC_SYSTEMATIC_NAME>
3-[[(2R,3S,4S,5R,6S)-6-[2-(4-hydroxyphenyl)-5-oxidanyl-4-oxidanylidene-chromen-7-yl]oxy-3,4,5-tris(oxidanyl)oxan-2-yl]methoxy]-3-oxidanylidene-propanoic acid

> <PUBCHEM_IUPAC_TRADITIONAL_NAME>
3-keto-3-[[(2R,3S,4S,5R,6S)-3,4,5-trihydroxy-6-[5-hydroxy-2-(4-hydroxyphenyl)-4-keto-chromen-7-yl]oxy-tetrahydropyran-2-yl]methoxy]propionic acid

> <PUBCHEM_IUPAC_INCHI>
InChI=1S/C24H22O13/c25-11-3-1-10(2-4-11)15-7-14(27)20-13(26)5-12(6-16(20)36-15)35-24-23(33)22(32)21(31)17(37-24)9-34-19(30)8-18(28)29/h1-7,17,21-26,31-33H,8-9H2,(H,28,29)/t17-,21-,22+,23-,24-/m1/s1

> <PUBCHEM_IUPAC_INCHIKEY>
JXWAQRJFONLTSI-ASDZUOGYSA-N

> <PUBCHEM_XLOGP3>
-0.3

> <PUBCHEM_EXACT_MASS>
518.106041

> <PUBCHEM_MOLECULAR_FORMULA>
C24H22O13

> <PUBCHEM_MOLECULAR_WEIGHT>
518.42368

> <PUBCHEM_OPENEYE_CAN_SMILES>
C1=CC(=CC=C1C2=CC(=O)C3=C(C=C(C=C3O2)OC4C(C(C(C(O4)COC(=O)CC(=O)O)O)O)O)O)O

> <PUBCHEM_OPENEYE_ISO_SMILES>
C1=CC(=CC=C1C2=CC(=O)C3=C(C=C(C=C3O2)O[C@H]4[C@@H]([C@H]([C@@H]([C@H](O4)COC(=O)CC(=O)O)O)O)O)O)O

> <PUBCHEM_CACTVS_TPSA>
210

> <PUBCHEM_MONOISOTOPIC_WEIGHT>
518.106041

> <PUBCHEM_TOTAL_CHARGE>
0

> <PUBCHEM_HEAVY_ATOM_COUNT>
37

> <PUBCHEM_ATOM_DEF_STEREO_COUNT>
5

> <PUBCHEM_ATOM_UDEF_STEREO_COUNT>
0

> <PUBCHEM_BOND_DEF_STEREO_COUNT>
0

> <PUBCHEM_BOND_UDEF_STEREO_COUNT>
0

> <PUBCHEM_ISOTOPIC_ATOM_COUNT>
0

> <PUBCHEM_COMPONENT_COUNT>
1

> <PUBCHEM_CACTVS_TAUTO_COUNT>
24

> <PUBCHEM_COORDINATE_TYPE>
1
5
255

> <PUBCHEM_BONDANNOTATIONS>
16  19  6
18  2  6
20  21  8
20  22  8
21  24  8
22  26  8
24  25  8
25  26  8
25  28  8
28  30  8
29  30  8
14  3  5
31  33  8
31  34  8
33  35  8
34  36  8
35  37  8
36  37  8
15  4  6
17  5  5
7  24  8
7  29  8

$$$$

