440292
  -OEChem-07051212493D

 76 81  0     1  0  0  0  0  0999 V2000
   -4.4533    0.7838   -0.8760 P   0  0  1  0  0  0  0  0  0  0  0  0
   -4.5468   -2.1643   -1.0008 P   0  0  2  0  0  0  0  0  0  0  0  0
   -5.5879    2.3288    1.3572 P   0  0  0  0  0  0  0  0  0  0  0  0
   -0.3165    2.8447    1.0042 O   0  0  0  0  0  0  0  0  0  0  0  0
   -0.6429   -3.9242   -0.4233 O   0  0  0  0  0  0  0  0  0  0  0  0
   -0.7830    4.9332   -1.1681 O   0  0  0  0  0  0  0  0  0  0  0  0
    1.4813    3.6781   -1.9949 O   0  0  0  0  0  0  0  0  0  0  0  0
   -0.2571   -5.3529    2.2427 O   0  0  0  0  0  0  0  0  0  0  0  0
    1.4995   -3.2847    2.3913 O   0  0  0  0  0  0  0  0  0  0  0  0
   -3.1525    1.7384   -1.0070 O   0  0  0  0  0  0  0  0  0  0  0  0
   -3.3461   -3.1955   -0.6653 O   0  0  0  0  0  0  0  0  0  0  0  0
   -3.8508   -0.7151   -0.8327 O   0  0  0  0  0  0  0  0  0  0  0  0
   -4.9719    1.0196    0.6370 O   0  0  0  0  0  0  0  0  0  0  0  0
   -5.5190   -2.2654    0.2880 O   0  0  0  0  0  0  0  0  0  0  0  0
   -5.4996    1.0058   -1.9296 O   0  0  0  0  0  0  0  0  0  0  0  0
   -5.2277   -2.3709   -2.3224 O   0  0  0  0  0  0  0  0  0  0  0  0
   -6.0393    1.7881    2.8116 O   0  0  0  0  0  0  0  0  0  0  0  0
   -6.9896    2.5478    0.5829 O   0  0  0  0  0  0  0  0  0  0  0  0
   -4.6737    3.5183    1.3720 O   0  0  0  0  0  0  0  0  0  0  0  0
    1.9356    2.1405    0.7533 N   0  0  0  0  0  0  0  0  0  0  0  0
    1.2536   -2.5228   -0.6881 N   0  0  0  0  0  0  0  0  0  0  0  0
    2.8347    0.2553    1.5326 N   0  0  0  0  0  0  0  0  0  0  0  0
    1.4229   -0.7531   -2.0333 N   0  0  0  0  0  0  0  0  0  0  0  0
    3.9385    3.4968    0.5309 N   0  0  0  0  0  0  0  0  0  0  0  0
    3.6044   -3.0790   -0.4331 N   0  0  0  0  0  0  0  0  0  0  0  0
    5.9270    2.2606    1.2195 N   0  0  0  0  0  0  0  0  0  0  0  0
    5.0208   -1.5399   -1.6906 N   0  0  0  0  0  0  0  0  0  0  0  0
    5.8283    0.0008    2.0008 N   0  0  0  0  0  0  0  0  0  0  0  0
    4.1260    0.2639   -2.9841 N   0  0  0  0  0  0  0  0  0  0  0  0
   -0.8314    3.5073   -1.2236 C   0  0  1  0  0  0  0  0  0  0  0  0
    0.5786    2.9520   -1.1858 C   0  0  2  0  0  0  0  0  0  0  0  0
   -1.4220    2.9843    0.0820 C   0  0  1  0  0  0  0  0  0  0  0  0
   -0.7771   -4.0560    1.9498 C   0  0  1  0  0  0  0  0  0  0  0  0
    0.3608   -3.1295    1.5692 C   0  0  2  0  0  0  0  0  0  0  0  0
    0.9141    3.0781    0.2925 C   0  0  1  0  0  0  0  0  0  0  0  0
   -1.5829   -4.1298    0.6565 C   0  0  1  0  0  0  0  0  0  0  0  0
    0.6335   -3.5583    0.1355 C   0  0  1  0  0  0  0  0  0  0  0  0
   -2.0928    1.6264   -0.0721 C   0  0  0  0  0  0  0  0  0  0  0  0
   -2.6596   -3.0576    0.5663 C   0  0  0  0  0  0  0  0  0  0  0  0
    3.2788    2.3712    0.8432 C   0  0  0  0  0  0  0  0  0  0  0  0
    2.5890   -2.3461   -0.9142 C   0  0  0  0  0  0  0  0  0  0  0  0
    1.7181    0.8568    1.1788 C   0  0  0  0  0  0  0  0  0  0  0  0
    0.5947   -1.5425   -1.3816 C   0  0  0  0  0  0  0  0  0  0  0  0
    3.8182    1.1903    1.3277 C   0  0  0  0  0  0  0  0  0  0  0  0
    2.6727   -1.2439   -1.7499 C   0  0  0  0  0  0  0  0  0  0  0  0
    5.1964    1.1583    1.5143 C   0  0  0  0  0  0  0  0  0  0  0  0
    3.9475   -0.8449   -2.1388 C   0  0  0  0  0  0  0  0  0  0  0  0
    5.2623    3.3454    0.7530 C   0  0  0  0  0  0  0  0  0  0  0  0
    4.7859   -2.5982   -0.8776 C   0  0  0  0  0  0  0  0  0  0  0  0
   -1.3763    3.2314   -2.1304 H   0  0  0  0  0  0  0  0  0  0  0  0
    0.5843    1.9033   -1.5032 H   0  0  0  0  0  0  0  0  0  0  0  0
   -2.1274    3.7038    0.5097 H   0  0  0  0  0  0  0  0  0  0  0  0
   -1.3408   -3.7161    2.8232 H   0  0  0  0  0  0  0  0  0  0  0  0
    0.0261   -2.0865    1.6201 H   0  0  0  0  0  0  0  0  0  0  0  0
    1.2657    4.0844    0.5516 H   0  0  0  0  0  0  0  0  0  0  0  0
   -2.0288   -5.1184    0.4994 H   0  0  0  0  0  0  0  0  0  0  0  0
    1.2864   -4.4385    0.0847 H   0  0  0  0  0  0  0  0  0  0  0  0
   -1.3877    0.8685   -0.4282 H   0  0  0  0  0  0  0  0  0  0  0  0
   -2.4586    1.2814    0.9011 H   0  0  0  0  0  0  0  0  0  0  0  0
   -2.2152   -2.0581    0.6057 H   0  0  0  0  0  0  0  0  0  0  0  0
   -3.3683   -3.1653    1.3933 H   0  0  0  0  0  0  0  0  0  0  0  0
   -1.7009    5.2541   -1.1554 H   0  0  0  0  0  0  0  0  0  0  0  0
    1.1435    3.6485   -2.9063 H   0  0  0  0  0  0  0  0  0  0  0  0
   -1.0142   -5.9319    2.4358 H   0  0  0  0  0  0  0  0  0  0  0  0
    2.1949   -2.7008    2.0434 H   0  0  0  0  0  0  0  0  0  0  0  0
    0.7336    0.4108    1.2095 H   0  0  0  0  0  0  0  0  0  0  0  0
   -0.4824   -1.4447   -1.3747 H   0  0  0  0  0  0  0  0  0  0  0  0
    5.8783    4.2093    0.5271 H   0  0  0  0  0  0  0  0  0  0  0  0
    5.6677   -3.1302   -0.5369 H   0  0  0  0  0  0  0  0  0  0  0  0
   -6.3684   -1.7750    0.2805 H   0  0  0  0  0  0  0  0  0  0  0  0
    6.8315    0.0014    2.1258 H   0  0  0  0  0  0  0  0  0  0  0  0
    5.2857   -0.8246    2.2170 H   0  0  0  0  0  0  0  0  0  0  0  0
    5.0625    0.5363   -3.2499 H   0  0  0  0  0  0  0  0  0  0  0  0
    3.3269    0.7875   -3.3150 H   0  0  0  0  0  0  0  0  0  0  0  0
   -6.3738    2.4295    3.4741 H   0  0  0  0  0  0  0  0  0  0  0  0
   -7.5175    3.3519    0.7747 H   0  0  0  0  0  0  0  0  0  0  0  0
  1 10  1  0  0  0  0
  1 12  1  0  0  0  0
  1 13  1  0  0  0  0
  1 15  2  0  0  0  0
  2 11  1  0  0  0  0
  2 12  1  0  0  0  0
  2 14  1  0  0  0  0
  2 16  2  0  0  0  0
  3 13  1  0  0  0  0
  3 17  1  0  0  0  0
  3 18  1  0  0  0  0
  3 19  2  0  0  0  0
  4 32  1  0  0  0  0
  4 35  1  0  0  0  0
  5 36  1  0  0  0  0
  5 37  1  0  0  0  0
  6 30  1  0  0  0  0
  6 62  1  0  0  0  0
  7 31  1  0  0  0  0
  7 63  1  0  0  0  0
  8 33  1  0  0  0  0
  8 64  1  0  0  0  0
  9 34  1  0  0  0  0
  9 65  1  0  0  0  0
 10 38  1  0  0  0  0
 11 39  1  0  0  0  0
 14 70  1  0  0  0  0
 17 75  1  0  0  0  0
 18 76  1  0  0  0  0
 20 35  1  0  0  0  0
 20 40  1  0  0  0  0
 20 42  1  0  0  0  0
 21 37  1  0  0  0  0
 21 41  1  0  0  0  0
 21 43  1  0  0  0  0
 22 42  2  0  0  0  0
 22 44  1  0  0  0  0
 23 43  2  0  0  0  0
 23 45  1  0  0  0  0
 24 40  1  0  0  0  0
 24 48  2  0  0  0  0
 25 41  1  0  0  0  0
 25 49  2  0  0  0  0
 26 46  2  0  0  0  0
 26 48  1  0  0  0  0
 27 47  2  0  0  0  0
 27 49  1  0  0  0  0
 28 46  1  0  0  0  0
 28 71  1  0  0  0  0
 28 72  1  0  0  0  0
 29 47  1  0  0  0  0
 29 73  1  0  0  0  0
 29 74  1  0  0  0  0
 30 31  1  0  0  0  0
 30 32  1  0  0  0  0
 30 50  1  0  0  0  0
 31 35  1  0  0  0  0
 31 51  1  0  0  0  0
 32 38  1  0  0  0  0
 32 52  1  0  0  0  0
 33 34  1  0  0  0  0
 33 36  1  0  0  0  0
 33 53  1  0  0  0  0
 34 37  1  0  0  0  0
 34 54  1  0  0  0  0
 35 55  1  0  0  0  0
 36 39  1  0  0  0  0
 36 56  1  0  0  0  0
 37 57  1  0  0  0  0
 38 58  1  0  0  0  0
 38 59  1  0  0  0  0
 39 60  1  0  0  0  0
 39 61  1  0  0  0  0
 40 44  2  0  0  0  0
 41 45  2  0  0  0  0
 42 66  1  0  0  0  0
 43 67  1  0  0  0  0
 44 46  1  0  0  0  0
 45 47  1  0  0  0  0
 48 68  1  0  0  0  0
 49 69  1  0  0  0  0
M  END
> <PUBCHEM_COMPOUND_CID>
440292

> <PUBCHEM_CONFORMER_RMSD>
1.8

> <PUBCHEM_CONFORMER_DIVERSEORDER>
1
233
171
314
273
288
253
344
151
217
227
18
152
55
90
93
166
69
170
321
286
8
270
172
81
156
10
237
137
22
242
113
75
139
192
255
219
181
7
102
11
161
302
266
259
304
190
296
66
187
143
277
214
49
140
299
319
260
202
43
162
212
267
101
182
328
250
306
211
6
225
109
135
257
41
63
20
83
272
186
53
201
322
132
218
188
238
4
112
252
269
124
221
16
70
207
301
261
342
176
9
110
254
114
220
180
5
54
157
12
264
28
229
78
271
177
195
332
100
38
120
117
228
68
205
3
226
198
2
144
199
305
95
37
71
289
138
224
239
57
111
297
146
73
236
173
15
204
307
128
21
45
194
129
193
244
29
91
59
30
312
210
97
133
323
268
274
235
127
34
262
159
216
67
315
303
25
105
208
338
189
284
174
336
243
119
245
278
42
247
65
60
183
35
149
48
330
39
295
104
145
232
276
89
122
279
147
191
40
169
309
185
209
231
327
74
141
196
76
87
36
222
281
167
86
31
197
13
92
251
14
283
154
275
79
125
179
99
292
213
341
300
126
103
317
77
142
164
329
249
160
200
107
19
334
150
121
311
115
293
287
47
85
51
106
24
116
153
234
96
294
178
215
50
118
325
203
316
256
80
88
324
337
230
290
62
134
163
335
33
291
223
246
148
339
206
84
248
123
282
98
175
184
32
130
318
131
343
331
285
94
265
82
56
72
263
240
155
26
340
298
108
310
241
64
58
168
44
46
320
61
333
27
165
136
258
326
17
52
313
158
308
23
280

> <PUBCHEM_MMFF94_PARTIAL_CHARGES>
64
1 1.51
10 -0.55
11 -0.55
12 -0.54
13 -0.54
14 -0.77
15 -0.7
16 -0.7
17 -0.77
18 -0.77
19 -0.7
2 1.51
20 0.05
21 0.05
22 -0.57
23 -0.57
24 -0.57
25 -0.57
26 -0.62
27 -0.62
28 -0.9
29 -0.9
3 1.51
30 0.28
31 0.28
32 0.28
33 0.28
34 0.28
35 0.54
36 0.28
37 0.54
38 0.28
39 0.28
4 -0.56
40 0.11
41 0.11
42 0.04
43 0.04
44 0.23
45 0.23
46 0.41
47 0.41
48 0.47
49 0.47
5 -0.56
6 -0.68
62 0.4
63 0.4
64 0.4
65 0.4
66 0.15
67 0.15
68 0.15
69 0.15
7 -0.68
70 0.5
71 0.4
72 0.4
73 0.4
74 0.4
75 0.5
76 0.5
8 -0.68
9 -0.68

> <PUBCHEM_EFFECTIVE_ROTOR_COUNT>
14

> <PUBCHEM_PHARMACOPHORE_FEATURES>
31
1 14 acceptor
1 15 acceptor
1 16 acceptor
1 17 acceptor
1 18 acceptor
1 19 acceptor
1 28 donor
1 29 donor
1 4 acceptor
1 5 acceptor
1 6 acceptor
1 6 donor
1 7 acceptor
1 7 donor
1 8 acceptor
1 8 donor
1 9 acceptor
1 9 donor
3 20 22 42 cation
3 21 23 43 cation
3 24 26 48 cation
3 25 27 49 cation
3 26 28 46 cation
3 27 29 47 cation
4 3 17 18 19 anion
5 20 22 40 42 44 rings
5 21 23 41 43 45 rings
5 4 30 31 32 35 rings
5 5 33 34 36 37 rings
6 24 26 40 44 46 48 rings
6 25 27 41 45 47 49 rings

> <PUBCHEM_HEAVY_ATOM_COUNT>
49

> <PUBCHEM_ATOM_DEF_STEREO_COUNT>
8

> <PUBCHEM_ATOM_UDEF_STEREO_COUNT>
1

> <PUBCHEM_BOND_DEF_STEREO_COUNT>
0

> <PUBCHEM_BOND_UDEF_STEREO_COUNT>
0

> <PUBCHEM_ISOTOPIC_ATOM_COUNT>
0

> <PUBCHEM_COMPONENT_COUNT>
1

> <PUBCHEM_CACTVS_TAUTO_COUNT>
9

> <PUBCHEM_CONFORMER_ID>
0006B7E400000001

> <PUBCHEM_MMFF94_ENERGY>
49.035

> <PUBCHEM_FEATURE_SELFOVERLAP>
157.872

> <PUBCHEM_SHAPE_FINGERPRINT>
10032420 55 18123740113890948396
10439779 11 18337113341277900279
10864689 126 18047462610930562351
11285246 1 18124010567786801310
11513181 2 17895193264213843079
12156800 1 18054491527433611524
140371 6 18122905322319097113
15264996 44 17830435207545168094
16112460 7 18261107530050127241
19319366 153 18055901337411049367
20764821 26 18341598300947653423
21133410 38 18187080642732234003
21133410 90 16956187077293182595
22223350 30 18342725313219994235
392239 28 18338811120459822022
86090 222 18337944718308721992

> <PUBCHEM_SHAPE_MULTIPOLES>
876.23
13.35
7.5
2.43
8.74
2.24
-0.16
-6.55
1.82
1.71
1.82
-0.68
0.61
0.39

> <PUBCHEM_SHAPE_SELFOVERLAP>
1855.713

> <PUBCHEM_SHAPE_VOLUME>
494.3

> <PUBCHEM_COORDINATE_TYPE>
2
5
10

$$$$

