439788
  -OEChem-07051212473D

 29 29  0     1  0  0  0  0  0999 V2000
   -0.6960    0.6092    1.4830 O   0  0  0  0  0  0  0  0  0  0  0  0
   -3.1916    2.0200   -0.0529 O   0  0  0  0  0  0  0  0  0  0  0  0
   -2.7722    0.6474   -1.8078 O   0  0  0  0  0  0  0  0  0  0  0  0
    3.6078    2.4790   -0.2409 O   0  0  0  0  0  0  0  0  0  0  0  0
   -4.2483   -1.1445    0.0397 N   0  0  0  0  0  0  0  0  0  0  0  0
    1.5359    1.4757    0.3073 N   0  0  0  0  0  0  0  0  0  0  0  0
   -1.8334   -1.1870    0.3932 C   0  0  0  0  0  0  0  0  0  0  0  0
   -3.0944   -0.3217    0.4109 C   0  0  1  0  0  0  0  0  0  0  0  0
   -0.5960   -0.3946    0.7788 C   0  0  0  0  0  0  0  0  0  0  0  0
    0.7508   -0.8238    0.2989 C   0  0  0  0  0  0  0  0  0  0  0  0
    1.7403    0.1103    0.0884 C   0  0  0  0  0  0  0  0  0  0  0  0
    0.9461   -2.1715    0.0850 C   0  0  0  0  0  0  0  0  0  0  0  0
   -2.9910    0.7980   -0.6126 C   0  0  0  0  0  0  0  0  0  0  0  0
    2.9883   -0.3235   -0.3588 C   0  0  0  0  0  0  0  0  0  0  0  0
    2.1942   -2.6051   -0.3622 C   0  0  0  0  0  0  0  0  0  0  0  0
    3.2153   -1.6812   -0.5841 C   0  0  0  0  0  0  0  0  0  0  0  0
    2.4442    2.5134    0.1342 C   0  0  0  0  0  0  0  0  0  0  0  0
   -1.6844   -1.6043   -0.6107 H   0  0  0  0  0  0  0  0  0  0  0  0
   -1.9356   -2.0154    1.1044 H   0  0  0  0  0  0  0  0  0  0  0  0
   -3.2596    0.1003    1.4084 H   0  0  0  0  0  0  0  0  0  0  0  0
    0.1751   -2.9135    0.2646 H   0  0  0  0  0  0  0  0  0  0  0  0
    3.8282    0.3285   -0.5532 H   0  0  0  0  0  0  0  0  0  0  0  0
   -4.1197   -1.5295   -0.8952 H   0  0  0  0  0  0  0  0  0  0  0  0
   -5.0879   -0.5678    0.0054 H   0  0  0  0  0  0  0  0  0  0  0  0
    2.3724   -3.6627   -0.5341 H   0  0  0  0  0  0  0  0  0  0  0  0
    4.1869   -2.0205   -0.9314 H   0  0  0  0  0  0  0  0  0  0  0  0
    0.6117    1.7520    0.6268 H   0  0  0  0  0  0  0  0  0  0  0  0
   -3.1319    2.7399   -0.7167 H   0  0  0  0  0  0  0  0  0  0  0  0
    1.9622    3.4715    0.3941 H   0  0  0  0  0  0  0  0  0  0  0  0
  1  9  2  0  0  0  0
  2 13  1  0  0  0  0
  2 28  1  0  0  0  0
  3 13  2  0  0  0  0
  4 17  2  0  0  0  0
  5  8  1  0  0  0  0
  5 23  1  0  0  0  0
  5 24  1  0  0  0  0
  6 11  1  0  0  0  0
  6 17  1  0  0  0  0
  6 27  1  0  0  0  0
  7  8  1  0  0  0  0
  7  9  1  0  0  0  0
  7 18  1  0  0  0  0
  7 19  1  0  0  0  0
  8 13  1  0  0  0  0
  8 20  1  0  0  0  0
  9 10  1  0  0  0  0
 10 11  1  0  0  0  0
 10 12  2  0  0  0  0
 11 14  2  0  0  0  0
 12 15  1  0  0  0  0
 12 21  1  0  0  0  0
 14 16  1  0  0  0  0
 14 22  1  0  0  0  0
 15 16  2  0  0  0  0
 15 25  1  0  0  0  0
 16 26  1  0  0  0  0
 17 29  1  0  0  0  0
M  END
> <PUBCHEM_COMPOUND_CID>
439788

> <PUBCHEM_CONFORMER_RMSD>
0.8

> <PUBCHEM_CONFORMER_DIVERSEORDER>
1
41
70
79
34
23
38
47
51
74
72
49
16
83
67
55
29
24
61
27
31
57
14
62
25
10
40
65
42
5
56
17
28
15
73
66
32
33
84
77
21
18
3
58
22
59
26
63
2
75
39
86
8
30
6
68
53
13
46
60
82
85
78
50
45
11
81
44
71
4
52
9
35
80
76
69
54
12
7
43
37
64
36
20
19
48

> <PUBCHEM_MMFF94_PARTIAL_CHARGES>
26
1 -0.57
10 0.09
11 0.12
12 -0.15
13 0.66
14 -0.15
15 -0.15
16 -0.15
17 0.57
2 -0.65
21 0.15
22 0.15
23 0.36
24 0.36
25 0.15
26 0.15
27 0.37
28 0.5
29 0.06
3 -0.57
4 -0.57
5 -0.99
6 -0.55
7 0.06
8 0.33
9 0.42

> <PUBCHEM_EFFECTIVE_ROTOR_COUNT>
6

> <PUBCHEM_PHARMACOPHORE_FEATURES>
9
1 1 acceptor
1 2 acceptor
1 3 acceptor
1 4 acceptor
1 5 cation
1 5 donor
1 6 donor
3 2 3 13 anion
6 10 11 12 14 15 16 rings

> <PUBCHEM_HEAVY_ATOM_COUNT>
17

> <PUBCHEM_ATOM_DEF_STEREO_COUNT>
1

> <PUBCHEM_ATOM_UDEF_STEREO_COUNT>
0

> <PUBCHEM_BOND_DEF_STEREO_COUNT>
0

> <PUBCHEM_BOND_UDEF_STEREO_COUNT>
0

> <PUBCHEM_ISOTOPIC_ATOM_COUNT>
0

> <PUBCHEM_COMPONENT_COUNT>
1

> <PUBCHEM_CACTVS_TAUTO_COUNT>
9

> <PUBCHEM_CONFORMER_ID>
0006B5EC00000001

> <PUBCHEM_MMFF94_ENERGY>
43.7677

> <PUBCHEM_FEATURE_SELFOVERLAP>
45.728

> <PUBCHEM_SHAPE_FINGERPRINT>
10498660 4 17274831310979489591
10608611 8 18342175570306176123
116883 192 17326329330073622278
11715629 250 18272093760050854183
11759241 127 18056483854992209487
12932764 1 17632015368244155499
13134695 92 18194971957453379854
14250199 8 18410300245780294397
15219456 202 18341894077964999441
15375462 6 18338515244673876823
15502722 9 18408884014489391292
16945 1 18336252531422372994
17041 50 18267302221436843302
18186145 218 18340207500390504507
19930381 70 18194401091828096705
20645477 70 18333446534740697279
20671657 53 18117833520009672262
21524375 3 18125160429384246560
21639500 275 18408323267964949580
21947302 44 18342465836906894520
221490 88 18411127026642357122
22802520 49 18341614862457734013
23114952 82 18412820300545237276
23402539 116 18045501065592933126
23526113 38 18129369553032303866
23532345 88 18334021596185180903
23557571 272 17559659652015633019
23559900 14 18335708294551841578
23598291 2 17678149750458114201
25 1 18057037136805773323
2748010 2 18121761856249448914
3071541 158 18341325686731145350
3286 77 18272371987858618622
6049 1 18058713771900146099
7364860 26 18408318878576996906
74978 22 18338236084684649179
7832392 63 18048314736774375449
81228 2 17542216213510106898
84936 182 18114463379505523432
93112 12 18338517546829205399

> <PUBCHEM_SHAPE_MULTIPOLES>
316.41
6.73
2.8
0.98
3.83
0.83
0.14
0.96
1.43
-2.68
0.15
0.55
0.11
0.62

> <PUBCHEM_SHAPE_SELFOVERLAP>
659.149

> <PUBCHEM_SHAPE_VOLUME>
175.9

> <PUBCHEM_COORDINATE_TYPE>
2
5
10

$$$$

