440339
  -OEChem-07051212493D

 72 74  0     1  0  0  0  0  0999 V2000
    1.7775   -1.6308   -0.1568 O   0  0  0  0  0  0  0  0  0  0  0  0
   -0.5410   -1.8801   -0.0500 O   0  0  0  0  0  0  0  0  0  0  0  0
   -3.2040   -1.2758    0.2287 O   0  0  0  0  0  0  0  0  0  0  0  0
    4.1188    0.0909    0.3731 O   0  0  0  0  0  0  0  0  0  0  0  0
    3.7759    1.6414   -1.3817 O   0  0  0  0  0  0  0  0  0  0  0  0
    3.2834   -3.6514   -1.5016 O   0  0  0  0  0  0  0  0  0  0  0  0
    2.3043   -5.7297    0.0640 O   0  0  0  0  0  0  0  0  0  0  0  0
   -0.1891   -4.5311    0.9076 O   0  0  0  0  0  0  0  0  0  0  0  0
   -1.9014    2.1563    0.2518 O   0  0  0  0  0  0  0  0  0  0  0  0
   -4.7054    2.4967    0.8240 O   0  0  0  0  0  0  0  0  0  0  0  0
    6.0059    1.7539    1.5284 O   0  0  0  0  0  0  0  0  0  0  0  0
    4.3988    4.1110    1.8996 O   0  0  0  0  0  0  0  0  0  0  0  0
   -5.3342   -2.1510   -0.1160 O   0  0  0  0  0  0  0  0  0  0  0  0
    3.5466    4.4482   -0.7195 O   0  0  0  0  0  0  0  0  0  0  0  0
    1.0548    1.4911   -2.4938 O   0  0  0  0  0  0  0  0  0  0  0  0
   -7.4904    1.5144    1.2260 O   0  0  0  0  0  0  0  0  0  0  0  0
   -6.3565    0.5020   -0.5367 N   0  0  0  0  0  0  0  0  0  0  0  0
    3.0703   -2.0544    0.2934 C   0  0  1  0  0  0  0  0  0  0  0  0
    3.2961   -3.5240   -0.0783 C   0  0  1  0  0  0  0  0  0  0  0  0
    2.1860   -4.3862    0.5236 C   0  0  1  0  0  0  0  0  0  0  0  0
    0.8065   -3.8460    0.1480 C   0  0  2  0  0  0  0  0  0  0  0  0
   -2.2671   -0.2285   -0.0296 C   0  0  1  0  0  0  0  0  0  0  0  0
    0.7082   -2.3501    0.4558 C   0  0  1  0  0  0  0  0  0  0  0  0
   -2.7739    1.0795    0.5835 C   0  0  2  0  0  0  0  0  0  0  0  0
   -4.1687    1.4193    0.0536 C   0  0  1  0  0  0  0  0  0  0  0  0
   -5.1184    0.2223    0.1605 C   0  0  2  0  0  0  0  0  0  0  0  0
    4.1002   -1.1298   -0.3450 C   0  0  0  0  0  0  0  0  0  0  0  0
    4.6887    1.1482   -0.3973 C   0  0  1  0  0  0  0  0  0  0  0  0
   -0.9297   -0.6632    0.5610 C   0  0  0  0  0  0  0  0  0  0  0  0
    5.1485    2.2825    0.5220 C   0  0  1  0  0  0  0  0  0  0  0  0
    3.9473    2.9797    1.1605 C   0  0  2  0  0  0  0  0  0  0  0  0
   -4.4684   -1.0507   -0.3925 C   0  0  1  0  0  0  0  0  0  0  0  0
    2.9557    3.4206    0.0801 C   0  0  2  0  0  0  0  0  0  0  0  0
    2.5932    2.2355   -0.8243 C   0  0  1  0  0  0  0  0  0  0  0  0
    1.7012    2.6464   -1.9909 C   0  0  0  0  0  0  0  0  0  0  0  0
   -7.4361    1.1259    0.0620 C   0  0  0  0  0  0  0  0  0  0  0  0
   -8.5836    1.3169   -0.8933 C   0  0  0  0  0  0  0  0  0  0  0  0
    3.1068   -1.9351    1.3846 H   0  0  0  0  0  0  0  0  0  0  0  0
    4.2722   -3.8802    0.2705 H   0  0  0  0  0  0  0  0  0  0  0  0
    2.2857   -4.4133    1.6160 H   0  0  0  0  0  0  0  0  0  0  0  0
    0.5887   -4.0431   -0.9082 H   0  0  0  0  0  0  0  0  0  0  0  0
   -2.1417   -0.1310   -1.1167 H   0  0  0  0  0  0  0  0  0  0  0  0
    0.7375   -2.1945    1.5433 H   0  0  0  0  0  0  0  0  0  0  0  0
   -2.8031    1.0056    1.6773 H   0  0  0  0  0  0  0  0  0  0  0  0
   -4.1068    1.7752   -0.9823 H   0  0  0  0  0  0  0  0  0  0  0  0
   -5.3720    0.0619    1.2174 H   0  0  0  0  0  0  0  0  0  0  0  0
    3.8445   -0.9516   -1.3968 H   0  0  0  0  0  0  0  0  0  0  0  0
    5.1036   -1.5659   -0.2873 H   0  0  0  0  0  0  0  0  0  0  0  0
    5.5716    0.7613   -0.9224 H   0  0  0  0  0  0  0  0  0  0  0  0
   -1.0380   -0.8256    1.6404 H   0  0  0  0  0  0  0  0  0  0  0  0
   -0.1662    0.1033    0.3877 H   0  0  0  0  0  0  0  0  0  0  0  0
    5.7344    3.0162   -0.0445 H   0  0  0  0  0  0  0  0  0  0  0  0
    3.4612    2.3040    1.8745 H   0  0  0  0  0  0  0  0  0  0  0  0
   -4.3386   -0.9896   -1.4808 H   0  0  0  0  0  0  0  0  0  0  0  0
    2.0621    3.8543    0.5416 H   0  0  0  0  0  0  0  0  0  0  0  0
    2.0727    1.4701   -0.2340 H   0  0  0  0  0  0  0  0  0  0  0  0
   -6.4033    0.2854   -1.5285 H   0  0  0  0  0  0  0  0  0  0  0  0
    0.9233    3.3431   -1.6627 H   0  0  0  0  0  0  0  0  0  0  0  0
    2.2787    3.0980   -2.8039 H   0  0  0  0  0  0  0  0  0  0  0  0
    4.1020   -3.2538   -1.8430 H   0  0  0  0  0  0  0  0  0  0  0  0
    3.1918   -6.0447    0.3066 H   0  0  0  0  0  0  0  0  0  0  0  0
   -0.0148   -4.3686    1.8504 H   0  0  0  0  0  0  0  0  0  0  0  0
   -1.8287    2.1975   -0.7170 H   0  0  0  0  0  0  0  0  0  0  0  0
   -4.7663    2.2053    1.7497 H   0  0  0  0  0  0  0  0  0  0  0  0
    6.7511    1.3185    1.0804 H   0  0  0  0  0  0  0  0  0  0  0  0
    3.6149    4.5440    2.2786 H   0  0  0  0  0  0  0  0  0  0  0  0
   -5.1361   -2.8411   -0.7716 H   0  0  0  0  0  0  0  0  0  0  0  0
    4.2213    4.0433   -1.2898 H   0  0  0  0  0  0  0  0  0  0  0  0
    0.4844    1.7773   -3.2274 H   0  0  0  0  0  0  0  0  0  0  0  0
   -8.7763    0.3937   -1.4473 H   0  0  0  0  0  0  0  0  0  0  0  0
   -9.4857    1.5838   -0.3358 H   0  0  0  0  0  0  0  0  0  0  0  0
   -8.3427    2.1199   -1.5952 H   0  0  0  0  0  0  0  0  0  0  0  0
  1 18  1  0  0  0  0
  1 23  1  0  0  0  0
  2 23  1  0  0  0  0
  2 29  1  0  0  0  0
  3 22  1  0  0  0  0
  3 32  1  0  0  0  0
  4 27  1  0  0  0  0
  4 28  1  0  0  0  0
  5 28  1  0  0  0  0
  5 34  1  0  0  0  0
  6 19  1  0  0  0  0
  6 60  1  0  0  0  0
  7 20  1  0  0  0  0
  7 61  1  0  0  0  0
  8 21  1  0  0  0  0
  8 62  1  0  0  0  0
  9 24  1  0  0  0  0
  9 63  1  0  0  0  0
 10 25  1  0  0  0  0
 10 64  1  0  0  0  0
 11 30  1  0  0  0  0
 11 65  1  0  0  0  0
 12 31  1  0  0  0  0
 12 66  1  0  0  0  0
 13 32  1  0  0  0  0
 13 67  1  0  0  0  0
 14 33  1  0  0  0  0
 14 68  1  0  0  0  0
 15 35  1  0  0  0  0
 15 69  1  0  0  0  0
 16 36  2  0  0  0  0
 17 26  1  0  0  0  0
 17 36  1  0  0  0  0
 17 57  1  0  0  0  0
 18 19  1  0  0  0  0
 18 27  1  0  0  0  0
 18 38  1  0  0  0  0
 19 20  1  0  0  0  0
 19 39  1  0  0  0  0
 20 21  1  0  0  0  0
 20 40  1  0  0  0  0
 21 23  1  0  0  0  0
 21 41  1  0  0  0  0
 22 24  1  0  0  0  0
 22 29  1  0  0  0  0
 22 42  1  0  0  0  0
 23 43  1  0  0  0  0
 24 25  1  0  0  0  0
 24 44  1  0  0  0  0
 25 26  1  0  0  0  0
 25 45  1  0  0  0  0
 26 32  1  0  0  0  0
 26 46  1  0  0  0  0
 27 47  1  0  0  0  0
 27 48  1  0  0  0  0
 28 30  1  0  0  0  0
 28 49  1  0  0  0  0
 29 50  1  0  0  0  0
 29 51  1  0  0  0  0
 30 31  1  0  0  0  0
 30 52  1  0  0  0  0
 31 33  1  0  0  0  0
 31 53  1  0  0  0  0
 32 54  1  0  0  0  0
 33 34  1  0  0  0  0
 33 55  1  0  0  0  0
 34 35  1  0  0  0  0
 34 56  1  0  0  0  0
 35 58  1  0  0  0  0
 35 59  1  0  0  0  0
 36 37  1  0  0  0  0
 37 70  1  0  0  0  0
 37 71  1  0  0  0  0
 37 72  1  0  0  0  0
M  END
> <PUBCHEM_COMPOUND_CID>
440339

> <PUBCHEM_CONFORMER_RMSD>
1.2

> <PUBCHEM_CONFORMER_DIVERSEORDER>
1
54
20
5
30
44
29
63
13
17
34
38
70
55
43
8
14
4
49
57
65
56
16
25
18
45
60
12
58
23
69
27
7
67
33
28
52
2
47
53
32
3
62
10
21
40
39
24
26
19
36
42
51
11
41
50
61
59
31
64
37
9
46
15
48
6
66
22
35
68

> <PUBCHEM_MMFF94_PARTIAL_CHARGES>
48
1 -0.56
10 -0.68
11 -0.68
12 -0.68
13 -0.68
14 -0.68
15 -0.68
16 -0.57
17 -0.73
18 0.28
19 0.28
2 -0.56
20 0.28
21 0.28
22 0.28
23 0.56
24 0.28
25 0.28
26 0.3
27 0.28
28 0.56
29 0.28
3 -0.56
30 0.28
31 0.28
32 0.56
33 0.28
34 0.28
35 0.28
36 0.57
37 0.06
4 -0.56
5 -0.56
57 0.37
6 -0.68
60 0.4
61 0.4
62 0.4
63 0.4
64 0.4
65 0.4
66 0.4
67 0.4
68 0.4
69 0.4
7 -0.68
8 -0.68
9 -0.68

> <PUBCHEM_EFFECTIVE_ROTOR_COUNT>
12.6

> <PUBCHEM_PHARMACOPHORE_FEATURES>
30
1 1 acceptor
1 10 acceptor
1 10 donor
1 11 acceptor
1 11 donor
1 12 acceptor
1 12 donor
1 13 acceptor
1 13 donor
1 14 acceptor
1 14 donor
1 15 acceptor
1 15 donor
1 16 acceptor
1 17 donor
1 2 acceptor
1 3 acceptor
1 4 acceptor
1 5 acceptor
1 6 acceptor
1 6 donor
1 7 acceptor
1 7 donor
1 8 acceptor
1 8 donor
1 9 acceptor
1 9 donor
6 1 18 19 20 21 23 rings
6 3 22 24 25 26 32 rings
6 5 28 30 31 33 34 rings

> <PUBCHEM_HEAVY_ATOM_COUNT>
37

> <PUBCHEM_ATOM_DEF_STEREO_COUNT>
15

> <PUBCHEM_ATOM_UDEF_STEREO_COUNT>
0

> <PUBCHEM_BOND_DEF_STEREO_COUNT>
0

> <PUBCHEM_BOND_UDEF_STEREO_COUNT>
0

> <PUBCHEM_ISOTOPIC_ATOM_COUNT>
0

> <PUBCHEM_COMPONENT_COUNT>
1

> <PUBCHEM_CACTVS_TAUTO_COUNT>
2

> <PUBCHEM_CONFORMER_ID>
0006B81300000001

> <PUBCHEM_MMFF94_ENERGY>
97.855

> <PUBCHEM_FEATURE_SELFOVERLAP>
152.424

> <PUBCHEM_SHAPE_FINGERPRINT>
10411042 1 17834677476183853914
10439779 11 18338242575039356986
10673678 19 18334573525727521123
10675989 125 18334012774565481160
11093857 51 18058145320463105398
11966995 178 18334846252177466701
12166972 35 18118120501382045251
12788726 201 16759709765416118412
12925494 130 18340486677638943747
13533116 47 18409726305037464429
1361 2 18413387652671260307
13965767 371 18128554695278853738
15082195 135 18337684112989584555
15400415 2 18195244408314210229
15890870 6 18410573951567627640
18681886 176 18119534494616081674
1979834 28 18273212001920647660
20715895 44 18338801117802554896
23522609 53 17677318533586425225
23559900 14 18339365270611043875
394071 54 18341609365099977451
5109719 28 18411974759298323971
513532 50 18187634839299479806
6371380 46 18336260138521578252
653340 110 17617378381955941552
99344 41 18410297982353810057
9961470 85 18265618689115090730
9981440 41 18269272357532855163

> <PUBCHEM_SHAPE_MULTIPOLES>
662.55
17.16
6.86
1.3
37.34
6.05
-0.38
-12.75
1.38
-11.3
0.68
-1.08
-1.09
0.7

> <PUBCHEM_SHAPE_SELFOVERLAP>
1362.913

> <PUBCHEM_SHAPE_VOLUME>
372.6

> <PUBCHEM_COORDINATE_TYPE>
2
5
10

$$$$

