7989
  -OEChem-06261202313D

 17 16  0     0  0  0  0  0  0999 V2000
   -1.7647    1.2690   -0.0772 O   0  0  0  0  0  0  0  0  0  0  0  0
   -0.2278   -0.5889    0.1104 C   0  0  0  0  0  0  0  0  0  0  0  0
    0.8903    0.4447    0.2323 C   0  0  0  0  0  0  0  0  0  0  0  0
   -1.5976    0.0511   -0.0354 C   0  0  0  0  0  0  0  0  0  0  0  0
    2.2286   -0.2158    0.3805 C   0  0  0  0  0  0  0  0  0  0  0  0
   -2.7661   -0.8961   -0.1256 C   0  0  0  0  0  0  0  0  0  0  0  0
    3.2372   -0.0639   -0.4850 C   0  0  0  0  0  0  0  0  0  0  0  0
   -0.0603   -1.2243   -0.7671 H   0  0  0  0  0  0  0  0  0  0  0  0
   -0.2494   -1.2274    1.0014 H   0  0  0  0  0  0  0  0  0  0  0  0
    0.7155    1.0806    1.1089 H   0  0  0  0  0  0  0  0  0  0  0  0
    0.8782    1.1093   -0.6406 H   0  0  0  0  0  0  0  0  0  0  0  0
    2.3816   -0.8451    1.2534 H   0  0  0  0  0  0  0  0  0  0  0  0
   -3.6940   -0.3281   -0.2358 H   0  0  0  0  0  0  0  0  0  0  0  0
   -2.8241   -1.4942    0.7871 H   0  0  0  0  0  0  0  0  0  0  0  0
   -2.6445   -1.5457   -0.9959 H   0  0  0  0  0  0  0  0  0  0  0  0
    4.1842   -0.5653   -0.3180 H   0  0  0  0  0  0  0  0  0  0  0  0
    3.1384    0.5568   -1.3686 H   0  0  0  0  0  0  0  0  0  0  0  0
  1  4  2  0  0  0  0
  2  3  1  0  0  0  0
  2  4  1  0  0  0  0
  2  8  1  0  0  0  0
  2  9  1  0  0  0  0
  3  5  1  0  0  0  0
  3 10  1  0  0  0  0
  3 11  1  0  0  0  0
  4  6  1  0  0  0  0
  5  7  2  0  0  0  0
  5 12  1  0  0  0  0
  6 13  1  0  0  0  0
  6 14  1  0  0  0  0
  6 15  1  0  0  0  0
  7 16  1  0  0  0  0
  7 17  1  0  0  0  0
M  END
> <PUBCHEM_COMPOUND_CID>
7989

> <PUBCHEM_CONFORMER_RMSD>
0.4

> <PUBCHEM_CONFORMER_DIVERSEORDER>
1
38
4
8
34
32
16
41
22
31
20
19
2
40
17
5
23
28
3
6
33
11
45
10
7
27
43
18
24
26
12
44
30
9
15
42
13
21
25
14
46
37
36
39
35
29

> <PUBCHEM_MMFF94_PARTIAL_CHARGES>
10
1 -0.57
12 0.15
16 0.15
17 0.15
2 0.06
3 0.14
4 0.45
5 -0.29
6 0.06
7 -0.3

> <PUBCHEM_EFFECTIVE_ROTOR_COUNT>
3

> <PUBCHEM_PHARMACOPHORE_FEATURES>
2
1 1 acceptor
1 7 hydrophobe

> <PUBCHEM_HEAVY_ATOM_COUNT>
7

> <PUBCHEM_ATOM_DEF_STEREO_COUNT>
0

> <PUBCHEM_ATOM_UDEF_STEREO_COUNT>
0

> <PUBCHEM_BOND_DEF_STEREO_COUNT>
0

> <PUBCHEM_BOND_UDEF_STEREO_COUNT>
0

> <PUBCHEM_ISOTOPIC_ATOM_COUNT>
0

> <PUBCHEM_COMPONENT_COUNT>
1

> <PUBCHEM_CACTVS_TAUTO_COUNT>
3

> <PUBCHEM_CONFORMER_ID>
00001F3500000001

> <PUBCHEM_MMFF94_ENERGY>
3.1595

> <PUBCHEM_FEATURE_SELFOVERLAP>
10.148

> <PUBCHEM_SHAPE_FINGERPRINT>
11062470 55 13398636043368653535
12897270 3 18341336621306495687
12932764 1 17530973479313927646
14325111 11 18411419531379348698
14390081 3 18343303656520411336
16714656 1 18409731742212515559
23552423 10 18057326291173505298
29004967 10 16443344273657046466
3248919 1 17275384313524973666
5460574 1 8646773300358644834

> <PUBCHEM_SHAPE_MULTIPOLES>
138.19
4.88
0.98
0.67
1.53
0.14
0
-0.67
-0.63
-0.56
-0.02
0.18
-0.02
0

> <PUBCHEM_SHAPE_SELFOVERLAP>
247.751

> <PUBCHEM_SHAPE_VOLUME>
89.3

> <PUBCHEM_COORDINATE_TYPE>
2
5
10

$$$$

