193305
  -OEChem-07051212452D

 18 17  0     1  0  0  0  0  0999 V2000
    5.4641    0.7500    0.0000 O   0  0  0  0  0  0  0  0  0  0  0  0
    4.5981    2.2500    0.0000 O   0  0  0  0  0  0  0  0  0  0  0  0
    2.0000   -2.2500    0.0000 O   0  0  0  0  0  0  0  0  0  0  0  0
    2.8660    1.2500    0.0000 N   0  0  0  0  0  0  0  0  0  0  0  0
    3.7320   -0.2500    0.0000 C   0  0  0  0  0  0  0  0  0  0  0  0
    3.7320    0.7500    0.0000 C   0  0  1  0  0  0  0  0  0  0  0  0
    2.8660   -0.7500    0.0000 C   0  0  0  0  0  0  0  0  0  0  0  0
    4.5981    1.2500    0.0000 C   0  0  0  0  0  0  0  0  0  0  0  0
    2.8660   -1.7500    0.0000 C   0  0  0  0  0  0  0  0  0  0  0  0
    3.9441   -0.8326    0.0000 H   0  0  0  0  0  0  0  0  0  0  0  0
    4.3426   -0.1423    0.0000 H   0  0  0  0  0  0  0  0  0  0  0  0
    3.7320    1.3700    0.0000 H   0  0  0  0  0  0  0  0  0  0  0  0
    2.6540   -0.1674    0.0000 H   0  0  0  0  0  0  0  0  0  0  0  0
    2.2554   -0.8577    0.0000 H   0  0  0  0  0  0  0  0  0  0  0  0
    2.3291    0.9400    0.0000 H   0  0  0  0  0  0  0  0  0  0  0  0
    2.8660    1.8700    0.0000 H   0  0  0  0  0  0  0  0  0  0  0  0
    3.4030   -2.0600    0.0000 H   0  0  0  0  0  0  0  0  0  0  0  0
    6.0010    1.0600    0.0000 H   0  0  0  0  0  0  0  0  0  0  0  0
  1  8  1  0  0  0  0
  1 18  1  0  0  0  0
  2  8  2  0  0  0  0
  3  9  2  0  0  0  0
  6  4  1  6  0  0  0
  4 15  1  0  0  0  0
  4 16  1  0  0  0  0
  5  6  1  0  0  0  0
  5  7  1  0  0  0  0
  5 10  1  0  0  0  0
  5 11  1  0  0  0  0
  6  8  1  0  0  0  0
  6 12  1  0  0  0  0
  7  9  1  0  0  0  0
  7 13  1  0  0  0  0
  7 14  1  0  0  0  0
  9 17  1  0  0  0  0
M  END
> <PUBCHEM_COMPOUND_CID>
193305

> <PUBCHEM_COMPOUND_CANONICALIZED>
1

> <PUBCHEM_CACTVS_COMPLEXITY>
113

> <PUBCHEM_CACTVS_HBOND_ACCEPTOR>
4

> <PUBCHEM_CACTVS_HBOND_DONOR>
2

> <PUBCHEM_CACTVS_ROTATABLE_BOND>
4

> <PUBCHEM_CACTVS_SUBSKEYS>
AAADccBiMAAAAAAAAAAAAAAAAAAAAAAAAAAAAAAAAAAAAAAAAAAAHgAQCAAACCjhgAYACABAAgAIAAiQiAAAAAAAAAAAAIGAAAACABIAgAAAQAAEEAAAAACMBgAAAAAAAAAAAAAAAAAAAAAAAAAAAAAAAA==

> <PUBCHEM_IUPAC_OPENEYE_NAME>
(2S)-2-amino-5-oxo-pentanoic acid

> <PUBCHEM_IUPAC_CAS_NAME>
(2S)-2-amino-5-oxopentanoic acid

> <PUBCHEM_IUPAC_NAME>
(2S)-2-amino-5-oxopentanoic acid

> <PUBCHEM_IUPAC_SYSTEMATIC_NAME>
(2S)-2-azanyl-5-oxidanylidene-pentanoic acid

> <PUBCHEM_IUPAC_TRADITIONAL_NAME>
(2S)-2-amino-5-keto-valeric acid

> <PUBCHEM_IUPAC_INCHI>
InChI=1S/C5H9NO3/c6-4(5(8)9)2-1-3-7/h3-4H,1-2,6H2,(H,8,9)/t4-/m0/s1

> <PUBCHEM_IUPAC_INCHIKEY>
KABXUUFDPUOJMW-BYPYZUCNSA-N

> <PUBCHEM_XLOGP3>
-3.8

> <PUBCHEM_EXACT_MASS>
131.058243

> <PUBCHEM_MOLECULAR_FORMULA>
C5H9NO3

> <PUBCHEM_MOLECULAR_WEIGHT>
131.12986

> <PUBCHEM_OPENEYE_CAN_SMILES>
C(CC(C(=O)O)N)C=O

> <PUBCHEM_OPENEYE_ISO_SMILES>
C(C[C@@H](C(=O)O)N)C=O

> <PUBCHEM_CACTVS_TPSA>
80.4

> <PUBCHEM_MONOISOTOPIC_WEIGHT>
131.058243

> <PUBCHEM_TOTAL_CHARGE>
0

> <PUBCHEM_HEAVY_ATOM_COUNT>
9

> <PUBCHEM_ATOM_DEF_STEREO_COUNT>
1

> <PUBCHEM_ATOM_UDEF_STEREO_COUNT>
0

> <PUBCHEM_BOND_DEF_STEREO_COUNT>
0

> <PUBCHEM_BOND_UDEF_STEREO_COUNT>
0

> <PUBCHEM_ISOTOPIC_ATOM_COUNT>
0

> <PUBCHEM_COMPONENT_COUNT>
1

> <PUBCHEM_CACTVS_TAUTO_COUNT>
2

> <PUBCHEM_COORDINATE_TYPE>
1
5
255

> <PUBCHEM_BONDANNOTATIONS>
6  4  6

$$$$

