586254
  -OEChem-06241222462D

 66 69  0     1  0  0  0  0  0999 V2000
    7.0476    0.0000    0.0000 Si  0  0  0  0  0  0  0  0  0  0  0  0
    8.0135    0.2588    0.0000 O   0  0  0  0  0  0  0  0  0  0  0  0
    6.0816   -0.2588    0.0000 O   0  0  0  0  0  0  0  0  0  0  0  0
   10.0044    2.2247    0.0000 C   0  0  3  0  0  0  0  0  0  0  0  0
    4.0908   -2.2247    0.0000 C   0  0  3  0  0  0  0  0  0  0  0  0
    9.5266    4.1733    0.0000 C   0  0  0  0  0  0  0  0  0  0  0  0
    4.5686   -4.1733    0.0000 C   0  0  0  0  0  0  0  0  0  0  0  0
   10.2632    3.1907    0.0000 C   0  0  3  0  0  0  0  0  0  0  0  0
    3.8320   -3.1907    0.0000 C   0  0  3  0  0  0  0  0  0  0  0  0
    8.2723    1.2247    0.0000 C   0  0  3  0  0  0  0  0  0  0  0  0
    5.8228   -1.2247    0.0000 C   0  0  3  0  0  0  0  0  0  0  0  0
   11.8363    1.4659    0.0000 C   0  0  0  0  0  0  0  0  0  0  0  0
    2.2588   -1.4659    0.0000 C   0  0  0  0  0  0  0  0  0  0  0  0
    7.7723    2.0908    0.0000 C   0  0  0  0  0  0  0  0  0  0  0  0
    6.3228   -2.0908    0.0000 C   0  0  0  0  0  0  0  0  0  0  0  0
   12.0951    2.4318    0.0000 C   0  0  0  0  0  0  0  0  0  0  0  0
    2.0000   -2.4318    0.0000 C   0  0  0  0  0  0  0  0  0  0  0  0
    9.7455    1.2588    0.0000 C   0  0  0  0  0  0  0  0  0  0  0  0
    4.3496   -1.2588    0.0000 C   0  0  0  0  0  0  0  0  0  0  0  0
    9.6311    5.1678    0.0000 C   0  0  0  0  0  0  0  0  0  0  0  0
    8.6130    4.5800    0.0000 C   0  0  0  0  0  0  0  0  0  0  0  0
    4.4640   -5.1678    0.0000 C   0  0  0  0  0  0  0  0  0  0  0  0
    5.4821   -4.5800    0.0000 C   0  0  0  0  0  0  0  0  0  0  0  0
    6.7888    0.9659    0.0000 C   0  0  0  0  0  0  0  0  0  0  0  0
    7.3064   -0.9659    0.0000 C   0  0  0  0  0  0  0  0  0  0  0  0
    8.2723   -1.2247    0.0000 C   0  0  0  0  0  0  0  0  0  0  0  0
    3.8248   -2.5707    0.0000 H   0  0  0  0  0  0  0  0  0  0  0  0
   10.2703    2.5707    0.0000 H   0  0  0  0  0  0  0  0  0  0  0  0
    5.3309   -0.8473    0.0000 H   0  0  0  0  0  0  0  0  0  0  0  0
    8.7642    0.8473    0.0000 H   0  0  0  0  0  0  0  0  0  0  0  0
   11.6243    0.8833    0.0000 H   0  0  0  0  0  0  0  0  0  0  0  0
   12.4276    1.2795    0.0000 H   0  0  0  0  0  0  0  0  0  0  0  0
    2.4709   -0.8833    0.0000 H   0  0  0  0  0  0  0  0  0  0  0  0
    1.6675   -1.2795    0.0000 H   0  0  0  0  0  0  0  0  0  0  0  0
    7.5017    2.6486    0.0000 H   0  0  0  0  0  0  0  0  0  0  0  0
    7.2246    1.8003    0.0000 H   0  0  0  0  0  0  0  0  0  0  0  0
    6.5935   -2.6486    0.0000 H   0  0  0  0  0  0  0  0  0  0  0  0
    6.8705   -1.8003    0.0000 H   0  0  0  0  0  0  0  0  0  0  0  0
   12.6864    2.2454    0.0000 H   0  0  0  0  0  0  0  0  0  0  0  0
   12.3072    3.0145    0.0000 H   0  0  0  0  0  0  0  0  0  0  0  0
    1.4087   -2.2454    0.0000 H   0  0  0  0  0  0  0  0  0  0  0  0
    1.7880   -3.0145    0.0000 H   0  0  0  0  0  0  0  0  0  0  0  0
    4.9485   -1.4193    0.0000 H   0  0  0  0  0  0  0  0  0  0  0  0
    4.5101   -0.6599    0.0000 H   0  0  0  0  0  0  0  0  0  0  0  0
    3.7507   -1.0984    0.0000 H   0  0  0  0  0  0  0  0  0  0  0  0
    9.1467    1.4193    0.0000 H   0  0  0  0  0  0  0  0  0  0  0  0
    9.5851    0.6599    0.0000 H   0  0  0  0  0  0  0  0  0  0  0  0
   10.3444    1.0984    0.0000 H   0  0  0  0  0  0  0  0  0  0  0  0
   10.2477    5.1030    0.0000 H   0  0  0  0  0  0  0  0  0  0  0  0
    8.8652    5.1464    0.0000 H   0  0  0  0  0  0  0  0  0  0  0  0
    8.0466    4.8322    0.0000 H   0  0  0  0  0  0  0  0  0  0  0  0
    5.2299   -5.1464    0.0000 H   0  0  0  0  0  0  0  0  0  0  0  0
    6.0485   -4.8322    0.0000 H   0  0  0  0  0  0  0  0  0  0  0  0
    5.7343   -4.0136    0.0000 H   0  0  0  0  0  0  0  0  0  0  0  0
    3.8474   -5.1030    0.0000 H   0  0  0  0  0  0  0  0  0  0  0  0
    4.3992   -5.7844    0.0000 H   0  0  0  0  0  0  0  0  0  0  0  0
    5.0806   -5.2326    0.0000 H   0  0  0  0  0  0  0  0  0  0  0  0
    8.3608    4.0136    0.0000 H   0  0  0  0  0  0  0  0  0  0  0  0
    9.6959    5.7844    0.0000 H   0  0  0  0  0  0  0  0  0  0  0  0
    9.0145    5.2326    0.0000 H   0  0  0  0  0  0  0  0  0  0  0  0
    7.3876    1.1264    0.0000 H   0  0  0  0  0  0  0  0  0  0  0  0
    6.6283    1.5648    0.0000 H   0  0  0  0  0  0  0  0  0  0  0  0
    6.1899    0.8055    0.0000 H   0  0  0  0  0  0  0  0  0  0  0  0
    6.8680   -1.4043    0.0000 H   0  0  0  0  0  0  0  0  0  0  0  0
    8.4328   -1.8236    0.0000 H   0  0  0  0  0  0  0  0  0  0  0  0
    8.7107   -0.7863    0.0000 H   0  0  0  0  0  0  0  0  0  0  0  0
  1  2  1  0  0  0  0
  1  3  1  0  0  0  0
  1 24  1  0  0  0  0
  1 25  1  0  0  0  0
  2 10  1  0  0  0  0
  3 11  1  0  0  0  0
  4  6  1  0  0  0  0
  4 10  1  0  0  0  0
  4 12  1  0  0  0  0
  4 18  1  0  0  0  0
  5  7  1  0  0  0  0
  5 11  1  0  0  0  0
  5 13  1  0  0  0  0
  5 19  1  0  0  0  0
  6  8  1  0  0  0  0
  6 20  1  0  0  0  0
  6 21  1  0  0  0  0
  7  9  1  0  0  0  0
  7 22  1  0  0  0  0
  7 23  1  0  0  0  0
  8 14  1  0  0  0  0
  8 16  1  0  0  0  0
  8 28  1  0  0  0  0
  9 15  1  0  0  0  0
  9 17  1  0  0  0  0
  9 27  1  0  0  0  0
 10 14  1  0  0  0  0
 10 30  1  0  0  0  0
 11 15  1  0  0  0  0
 11 29  1  0  0  0  0
 12 16  1  0  0  0  0
 12 31  1  0  0  0  0
 12 32  1  0  0  0  0
 13 17  1  0  0  0  0
 13 33  1  0  0  0  0
 13 34  1  0  0  0  0
 14 35  1  0  0  0  0
 14 36  1  0  0  0  0
 15 37  1  0  0  0  0
 15 38  1  0  0  0  0
 16 39  1  0  0  0  0
 16 40  1  0  0  0  0
 17 41  1  0  0  0  0
 17 42  1  0  0  0  0
 18 46  1  0  0  0  0
 18 47  1  0  0  0  0
 18 48  1  0  0  0  0
 19 43  1  0  0  0  0
 19 44  1  0  0  0  0
 19 45  1  0  0  0  0
 20 49  1  0  0  0  0
 20 59  1  0  0  0  0
 20 60  1  0  0  0  0
 21 50  1  0  0  0  0
 21 51  1  0  0  0  0
 21 58  1  0  0  0  0
 22 55  1  0  0  0  0
 22 56  1  0  0  0  0
 22 57  1  0  0  0  0
 23 52  1  0  0  0  0
 23 53  1  0  0  0  0
 23 54  1  0  0  0  0
 24 61  1  0  0  0  0
 24 62  1  0  0  0  0
 24 63  1  0  0  0  0
 25 26  2  0  0  0  0
 25 64  1  0  0  0  0
 26 65  1  0  0  0  0
 26 66  1  0  0  0  0
M  END
> <PUBCHEM_COMPOUND_CID>
586254

> <PUBCHEM_COMPOUND_CANONICALIZED>
1

> <PUBCHEM_CACTVS_COMPLEXITY>
565

> <PUBCHEM_CACTVS_HBOND_ACCEPTOR>
2

> <PUBCHEM_CACTVS_HBOND_DONOR>
0

> <PUBCHEM_CACTVS_ROTATABLE_BOND>
5

> <PUBCHEM_CACTVS_SUBSKEYS>
AAADcfB4MAgAAAAAAAAAAAAAAAAAAYMGDAAwYAAAAAAAAAAAAAAAGhAAAEAADxSgoAJCAAAAAAGAAAACAAAAAAAAAAAIAAAAAAAAAAIAAAAAAAAEAAAAAAGAwPAPgAAAAAAAAACAAAIAABAAAYAADAAAAA==

> <PUBCHEM_IUPAC_OPENEYE_NAME>
methyl-bis[(1,7,7-trimethylnorbornan-2-yl)oxy]-vinyl-silane

> <PUBCHEM_IUPAC_CAS_NAME>
ethenyl-methyl-bis[(4,7,7-trimethyl-3-bicyclo[2.2.1]heptanyl)oxy]silane

> <PUBCHEM_IUPAC_NAME>
ethenyl-methyl-bis[(4,7,7-trimethyl-3-bicyclo[2.2.1]heptanyl)oxy]silane

> <PUBCHEM_IUPAC_SYSTEMATIC_NAME>
ethenyl-methyl-bis[(4,7,7-trimethyl-3-bicyclo[2.2.1]heptanyl)oxy]silane

> <PUBCHEM_IUPAC_TRADITIONAL_NAME>
bis(2-bornyloxy)-methyl-vinyl-silane

> <PUBCHEM_IUPAC_INCHI>
InChI=1S/C23H40O2Si/c1-9-26(8,24-18-14-16-10-12-22(18,6)20(16,2)3)25-19-15-17-11-13-23(19,7)21(17,4)5/h9,16-19H,1,10-15H2,2-8H3

> <PUBCHEM_IUPAC_INCHIKEY>
SLSNFDBZWQXDPB-UHFFFAOYSA-N

> <PUBCHEM_EXACT_MASS>
376.279757

> <PUBCHEM_MOLECULAR_FORMULA>
C23H40O2Si

> <PUBCHEM_MOLECULAR_WEIGHT>
376.648

> <PUBCHEM_OPENEYE_CAN_SMILES>
CC1(C2CCC1(C(C2)O[Si](C)(C=C)OC3CC4CCC3(C4(C)C)C)C)C

> <PUBCHEM_OPENEYE_ISO_SMILES>
CC1(C2CCC1(C(C2)O[Si](C)(C=C)OC3CC4CCC3(C4(C)C)C)C)C

> <PUBCHEM_CACTVS_TPSA>
18.5

> <PUBCHEM_MONOISOTOPIC_WEIGHT>
376.279757

> <PUBCHEM_TOTAL_CHARGE>
0

> <PUBCHEM_HEAVY_ATOM_COUNT>
26

> <PUBCHEM_ATOM_DEF_STEREO_COUNT>
0

> <PUBCHEM_ATOM_UDEF_STEREO_COUNT>
6

> <PUBCHEM_BOND_DEF_STEREO_COUNT>
0

> <PUBCHEM_BOND_UDEF_STEREO_COUNT>
0

> <PUBCHEM_ISOTOPIC_ATOM_COUNT>
0

> <PUBCHEM_COMPONENT_COUNT>
1

> <PUBCHEM_CACTVS_TAUTO_COUNT>
1

> <PUBCHEM_COORDINATE_TYPE>
1
5
255

> <PUBCHEM_BONDANNOTATIONS>
10  2  3
11  3  3
4  18  3
5  19  3
8  6  3
9  7  3

$$$$

