439950
  -OEChem-07051212482D

 18 18  0     1  0  0  0  0  0999 V2000
    3.7320    1.3450    0.0000 O   0  0  0  0  0  0  0  0  0  0  0  0
    2.0000   -1.6550    0.0000 O   0  0  0  0  0  0  0  0  0  0  0  0
    3.7320    0.3450    0.0000 C   0  0  3  0  0  0  0  0  0  0  0  0
    4.5981   -0.1550    0.0000 C   0  0  0  0  0  0  0  0  0  0  0  0
    4.5981   -1.1550    0.0000 C   0  0  0  0  0  0  0  0  0  0  0  0
    2.8660   -0.1550    0.0000 C   0  0  0  0  0  0  0  0  0  0  0  0
    3.7320   -1.6550    0.0000 C   0  0  0  0  0  0  0  0  0  0  0  0
    2.8660   -1.1550    0.0000 C   0  0  0  0  0  0  0  0  0  0  0  0
    4.4682    0.7700    0.0000 H   0  0  0  0  0  0  0  0  0  0  0  0
    5.2087   -0.2627    0.0000 H   0  0  0  0  0  0  0  0  0  0  0  0
    4.8101    0.4276    0.0000 H   0  0  0  0  0  0  0  0  0  0  0  0
    4.8101   -1.7376    0.0000 H   0  0  0  0  0  0  0  0  0  0  0  0
    5.2087   -1.0473    0.0000 H   0  0  0  0  0  0  0  0  0  0  0  0
    2.6540    0.4276    0.0000 H   0  0  0  0  0  0  0  0  0  0  0  0
    2.2554   -0.2627    0.0000 H   0  0  0  0  0  0  0  0  0  0  0  0
    3.3335   -2.1300    0.0000 H   0  0  0  0  0  0  0  0  0  0  0  0
    4.1306   -2.1300    0.0000 H   0  0  0  0  0  0  0  0  0  0  0  0
    4.2690    1.6550    0.0000 H   0  0  0  0  0  0  0  0  0  0  0  0
  1  3  1  0  0  0  0
  1 18  1  0  0  0  0
  2  8  2  0  0  0  0
  3  4  1  0  0  0  0
  3  6  1  0  0  0  0
  3  9  1  0  0  0  0
  4  5  1  0  0  0  0
  4 10  1  0  0  0  0
  4 11  1  0  0  0  0
  5  7  1  0  0  0  0
  5 12  1  0  0  0  0
  5 13  1  0  0  0  0
  6  8  1  0  0  0  0
  6 14  1  0  0  0  0
  6 15  1  0  0  0  0
  7  8  1  0  0  0  0
  7 16  1  0  0  0  0
  7 17  1  0  0  0  0
M  END
> <PUBCHEM_COMPOUND_CID>
439950

> <PUBCHEM_COMPOUND_CANONICALIZED>
1

> <PUBCHEM_CACTVS_COMPLEXITY>
98.7

> <PUBCHEM_CACTVS_HBOND_ACCEPTOR>
2

> <PUBCHEM_CACTVS_HBOND_DONOR>
1

> <PUBCHEM_CACTVS_ROTATABLE_BOND>
0

> <PUBCHEM_CACTVS_SUBSKEYS>
AAADccBgMAAAAAAAAAAAAAAAAAAAAAAAAAAwAAAAAAAAAAAAAAAAGgAACAAACBSggAIAAAAAAgAIAIAQAAAAAAAAAAAAAAEAAAAAEBYAAAAAQAAEIAAAAAGITABAAAAAAAAAAAAAAAAAAAAAAAAAAAAAAA==

> <PUBCHEM_IUPAC_OPENEYE_NAME>
3-hydroxycyclohexanone

> <PUBCHEM_IUPAC_CAS_NAME>
3-hydroxy-1-cyclohexanone

> <PUBCHEM_IUPAC_NAME>
3-hydroxycyclohexan-1-one

> <PUBCHEM_IUPAC_SYSTEMATIC_NAME>
3-oxidanylcyclohexan-1-one

> <PUBCHEM_IUPAC_TRADITIONAL_NAME>
3-hydroxycyclohexanone

> <PUBCHEM_IUPAC_INCHI>
InChI=1S/C6H10O2/c7-5-2-1-3-6(8)4-5/h5,7H,1-4H2

> <PUBCHEM_IUPAC_INCHIKEY>
TWEVQGUWCLBRMJ-UHFFFAOYSA-N

> <PUBCHEM_XLOGP3_AA>
-0.2

> <PUBCHEM_EXACT_MASS>
114.06808

> <PUBCHEM_MOLECULAR_FORMULA>
C6H10O2

> <PUBCHEM_MOLECULAR_WEIGHT>
114.1424

> <PUBCHEM_OPENEYE_CAN_SMILES>
C1CC(CC(=O)C1)O

> <PUBCHEM_OPENEYE_ISO_SMILES>
C1CC(CC(=O)C1)O

> <PUBCHEM_CACTVS_TPSA>
37.3

> <PUBCHEM_MONOISOTOPIC_WEIGHT>
114.06808

> <PUBCHEM_TOTAL_CHARGE>
0

> <PUBCHEM_HEAVY_ATOM_COUNT>
8

> <PUBCHEM_ATOM_DEF_STEREO_COUNT>
0

> <PUBCHEM_ATOM_UDEF_STEREO_COUNT>
1

> <PUBCHEM_BOND_DEF_STEREO_COUNT>
0

> <PUBCHEM_BOND_UDEF_STEREO_COUNT>
0

> <PUBCHEM_ISOTOPIC_ATOM_COUNT>
0

> <PUBCHEM_COMPONENT_COUNT>
1

> <PUBCHEM_CACTVS_TAUTO_COUNT>
3

> <PUBCHEM_COORDINATE_TYPE>
1
5
255

> <PUBCHEM_BONDANNOTATIONS>
3  9  3

$$$$

