14399
  -OEChem-06241222432D

 42 42  0     1  0  0  0  0  0999 V2000
    6.8671    4.5000    0.0000 Cl  0  0  0  0  0  0  0  0  0  0  0  0
    3.4030    4.5000    0.0000 Cl  0  0  0  0  0  0  0  0  0  0  0  0
    2.5369   -2.0000    0.0000 O   0  0  0  0  0  0  0  0  0  0  0  0
    3.4030   -0.5000    0.0000 O   0  0  0  0  0  0  0  0  0  0  0  0
    2.5369   -3.0000    0.0000 O   0  0  0  0  0  0  0  0  0  0  0  0
    5.1350    2.5000    0.0000 N   0  0  0  0  0  0  0  0  0  0  0  0
    4.2690   -3.0000    0.0000 N   0  0  0  0  0  0  0  0  0  0  0  0
    5.1350   -1.5000    0.0000 C   0  0  0  0  0  0  0  0  0  0  0  0
    5.1350   -0.5000    0.0000 C   0  0  0  0  0  0  0  0  0  0  0  0
    4.2690   -2.0000    0.0000 C   0  0  3  0  0  0  0  0  0  0  0  0
    5.1350    1.5000    0.0000 C   0  0  0  0  0  0  0  0  0  0  0  0
    6.0010    3.0000    0.0000 C   0  0  0  0  0  0  0  0  0  0  0  0
    4.2690    3.0000    0.0000 C   0  0  0  0  0  0  0  0  0  0  0  0
    6.0010    0.0000    0.0000 C   0  0  0  0  0  0  0  0  0  0  0  0
    4.2690    0.0000    0.0000 C   0  0  0  0  0  0  0  0  0  0  0  0
    6.0010    1.0000    0.0000 C   0  0  0  0  0  0  0  0  0  0  0  0
    4.2690    1.0000    0.0000 C   0  0  0  0  0  0  0  0  0  0  0  0
    6.0010    4.0000    0.0000 C   0  0  0  0  0  0  0  0  0  0  0  0
    4.2690    4.0000    0.0000 C   0  0  0  0  0  0  0  0  0  0  0  0
    3.4030   -1.5000    0.0000 C   0  0  0  0  0  0  0  0  0  0  0  0
    3.4030   -3.5000    0.0000 C   0  0  0  0  0  0  0  0  0  0  0  0
    3.4030   -4.5000    0.0000 C   0  0  0  0  0  0  0  0  0  0  0  0
    5.3471   -2.0826    0.0000 H   0  0  0  0  0  0  0  0  0  0  0  0
    5.7456   -1.3923    0.0000 H   0  0  0  0  0  0  0  0  0  0  0  0
    5.0051   -2.4250    0.0000 H   0  0  0  0  0  0  0  0  0  0  0  0
    3.6584    3.1077    0.0000 H   0  0  0  0  0  0  0  0  0  0  0  0
    4.0569    2.4174    0.0000 H   0  0  0  0  0  0  0  0  0  0  0  0
    6.2131    2.4174    0.0000 H   0  0  0  0  0  0  0  0  0  0  0  0
    6.6116    3.1077    0.0000 H   0  0  0  0  0  0  0  0  0  0  0  0
    6.5380   -0.3100    0.0000 H   0  0  0  0  0  0  0  0  0  0  0  0
    3.7320   -0.3100    0.0000 H   0  0  0  0  0  0  0  0  0  0  0  0
    6.5380    1.3100    0.0000 H   0  0  0  0  0  0  0  0  0  0  0  0
    3.7320    1.3100    0.0000 H   0  0  0  0  0  0  0  0  0  0  0  0
    4.8059   -3.3100    0.0000 H   0  0  0  0  0  0  0  0  0  0  0  0
    5.7890    4.5826    0.0000 H   0  0  0  0  0  0  0  0  0  0  0  0
    5.3905    3.8923    0.0000 H   0  0  0  0  0  0  0  0  0  0  0  0
    4.8796    3.8923    0.0000 H   0  0  0  0  0  0  0  0  0  0  0  0
    4.4810    4.5826    0.0000 H   0  0  0  0  0  0  0  0  0  0  0  0
    2.7830   -4.5000    0.0000 H   0  0  0  0  0  0  0  0  0  0  0  0
    3.4030   -5.1200    0.0000 H   0  0  0  0  0  0  0  0  0  0  0  0
    4.0230   -4.5000    0.0000 H   0  0  0  0  0  0  0  0  0  0  0  0
    2.0000   -1.6900    0.0000 H   0  0  0  0  0  0  0  0  0  0  0  0
  1 18  1  0  0  0  0
  2 19  1  0  0  0  0
  3 20  1  0  0  0  0
  3 42  1  0  0  0  0
  4 20  2  0  0  0  0
  5 21  2  0  0  0  0
  6 11  1  0  0  0  0
  6 12  1  0  0  0  0
  6 13  1  0  0  0  0
  7 10  1  0  0  0  0
  7 21  1  0  0  0  0
  7 34  1  0  0  0  0
  8  9  1  0  0  0  0
  8 10  1  0  0  0  0
  8 23  1  0  0  0  0
  8 24  1  0  0  0  0
  9 14  2  0  0  0  0
  9 15  1  0  0  0  0
 10 20  1  0  0  0  0
 10 25  1  0  0  0  0
 11 16  2  0  0  0  0
 11 17  1  0  0  0  0
 12 18  1  0  0  0  0
 12 28  1  0  0  0  0
 12 29  1  0  0  0  0
 13 19  1  0  0  0  0
 13 26  1  0  0  0  0
 13 27  1  0  0  0  0
 14 16  1  0  0  0  0
 14 30  1  0  0  0  0
 15 17  2  0  0  0  0
 15 31  1  0  0  0  0
 16 32  1  0  0  0  0
 17 33  1  0  0  0  0
 18 35  1  0  0  0  0
 18 36  1  0  0  0  0
 19 37  1  0  0  0  0
 19 38  1  0  0  0  0
 21 22  1  0  0  0  0
 22 39  1  0  0  0  0
 22 40  1  0  0  0  0
 22 41  1  0  0  0  0
M  END
> <PUBCHEM_COMPOUND_CID>
14399

> <PUBCHEM_COMPOUND_CANONICALIZED>
1

> <PUBCHEM_CACTVS_COMPLEXITY>
355

> <PUBCHEM_CACTVS_HBOND_ACCEPTOR>
4

> <PUBCHEM_CACTVS_HBOND_DONOR>
2

> <PUBCHEM_CACTVS_ROTATABLE_BOND>
9

> <PUBCHEM_CACTVS_SUBSKEYS>
AAADceBzMAAGAAAAAAAAAAAAAAAAAAAAAAAwAAAAAAAAAAABAAAAHgIQCAAADCvBmEQyyIPAAgCIAiXSWACCAAAhAgAIiIGIZIgKIDLAkbHEYAhklgDYyAeYyKCOCAAAAAAAAAAQAAAAAAAAAAAAAAAAAA==

> <PUBCHEM_IUPAC_OPENEYE_NAME>
2-acetamido-3-[4-[bis(2-chloroethyl)amino]phenyl]propanoic acid

> <PUBCHEM_IUPAC_CAS_NAME>
2-acetamido-3-[4-[bis(2-chloroethyl)amino]phenyl]propanoic acid

> <PUBCHEM_IUPAC_NAME>
2-acetamido-3-[4-[bis(2-chloroethyl)amino]phenyl]propanoic acid

> <PUBCHEM_IUPAC_SYSTEMATIC_NAME>
2-acetamido-3-[4-[bis(2-chloroethyl)amino]phenyl]propanoic acid

> <PUBCHEM_IUPAC_TRADITIONAL_NAME>
2-acetamido-3-[4-[bis(2-chloroethyl)amino]phenyl]propionic acid

> <PUBCHEM_IUPAC_INCHI>
InChI=1S/C15H20Cl2N2O3/c1-11(20)18-14(15(21)22)10-12-2-4-13(5-3-12)19(8-6-16)9-7-17/h2-5,14H,6-10H2,1H3,(H,18,20)(H,21,22)

> <PUBCHEM_IUPAC_INCHIKEY>
NZEYWBNQKCRBFO-UHFFFAOYSA-N

> <PUBCHEM_XLOGP3>
1.4

> <PUBCHEM_EXACT_MASS>
346.085098

> <PUBCHEM_MOLECULAR_FORMULA>
C15H20Cl2N2O3

> <PUBCHEM_MOLECULAR_WEIGHT>
347.2369

> <PUBCHEM_OPENEYE_CAN_SMILES>
CC(=O)NC(CC1=CC=C(C=C1)N(CCCl)CCCl)C(=O)O

> <PUBCHEM_OPENEYE_ISO_SMILES>
CC(=O)NC(CC1=CC=C(C=C1)N(CCCl)CCCl)C(=O)O

> <PUBCHEM_CACTVS_TPSA>
69.6

> <PUBCHEM_MONOISOTOPIC_WEIGHT>
346.085098

> <PUBCHEM_TOTAL_CHARGE>
0

> <PUBCHEM_HEAVY_ATOM_COUNT>
22

> <PUBCHEM_ATOM_DEF_STEREO_COUNT>
0

> <PUBCHEM_ATOM_UDEF_STEREO_COUNT>
1

> <PUBCHEM_BOND_DEF_STEREO_COUNT>
0

> <PUBCHEM_BOND_UDEF_STEREO_COUNT>
0

> <PUBCHEM_ISOTOPIC_ATOM_COUNT>
0

> <PUBCHEM_COMPONENT_COUNT>
1

> <PUBCHEM_CACTVS_TAUTO_COUNT>
2

> <PUBCHEM_COORDINATE_TYPE>
1
5
255

> <PUBCHEM_BONDANNOTATIONS>
10  25  3
11  16  8
11  17  8
14  16  8
15  17  8
9  14  8
9  15  8

$$$$

