442402
  -OEChem-07051212582D

 39 41  0     1  0  0  0  0  0999 V2000
    3.7320   -0.0492    0.0000 C   0  0  1  0  0  0  0  0  0  0  0  0
    2.8660    0.4508    0.0000 C   0  0  1  0  0  0  0  0  0  0  0  0
    4.5981    0.4508    0.0000 C   0  0  1  0  0  0  0  0  0  0  0  0
    2.8658   -0.5496    0.0000 C   0  0  0  0  0  0  0  0  0  0  0  0
    3.7160   -1.0907    0.0000 C   0  0  0  0  0  0  0  0  0  0  0  0
    5.5081   -0.0560    0.0000 C   0  0  0  0  0  0  0  0  0  0  0  0
    4.6140   -1.6184    0.0000 C   0  0  0  0  0  0  0  0  0  0  0  0
    4.5981    1.4508    0.0000 C   0  0  0  0  0  0  0  0  0  0  0  0
    2.8660    1.4508    0.0000 C   0  0  0  0  0  0  0  0  0  0  0  0
    5.5161   -1.0976    0.0000 C   0  0  0  0  0  0  0  0  0  0  0  0
    5.4641    0.9508    0.0000 C   0  0  0  0  0  0  0  0  0  0  0  0
    3.2060   -1.9508    0.0000 C   0  0  0  0  0  0  0  0  0  0  0  0
    2.7724   -1.4218    0.0000 C   0  0  0  0  0  0  0  0  0  0  0  0
    3.7320    1.9508    0.0000 C   0  0  0  0  0  0  0  0  0  0  0  0
    2.0000    1.9508    0.0000 C   0  0  0  0  0  0  0  0  0  0  0  0
    2.0160    0.4510    0.0000 H   0  0  0  0  0  0  0  0  0  0  0  0
    2.2552   -0.6572    0.0000 H   0  0  0  0  0  0  0  0  0  0  0  0
    3.0779   -1.1322    0.0000 H   0  0  0  0  0  0  0  0  0  0  0  0
    6.1197   -0.1574    0.0000 H   0  0  0  0  0  0  0  0  0  0  0  0
    5.7126    0.5293    0.0000 H   0  0  0  0  0  0  0  0  0  0  0  0
    4.2131   -2.0913    0.0000 H   0  0  0  0  0  0  0  0  0  0  0  0
    5.0113   -2.0944    0.0000 H   0  0  0  0  0  0  0  0  0  0  0  0
    5.2087    1.3432    0.0000 H   0  0  0  0  0  0  0  0  0  0  0  0
    4.8101    2.0335    0.0000 H   0  0  0  0  0  0  0  0  0  0  0  0
    5.7297   -1.6797    0.0000 H   0  0  0  0  0  0  0  0  0  0  0  0
    6.1261   -0.9868    0.0000 H   0  0  0  0  0  0  0  0  0  0  0  0
    5.7741    0.4139    0.0000 H   0  0  0  0  0  0  0  0  0  0  0  0
    6.0010    1.2608    0.0000 H   0  0  0  0  0  0  0  0  0  0  0  0
    5.1541    1.4878    0.0000 H   0  0  0  0  0  0  0  0  0  0  0  0
    2.6727   -1.6347    0.0000 H   0  0  0  0  0  0  0  0  0  0  0  0
    2.8898   -2.4842    0.0000 H   0  0  0  0  0  0  0  0  0  0  0  0
    3.7393   -2.2670    0.0000 H   0  0  0  0  0  0  0  0  0  0  0  0
    2.5671   -0.8368    0.0000 H   0  0  0  0  0  0  0  0  0  0  0  0
    2.1874   -1.6271    0.0000 H   0  0  0  0  0  0  0  0  0  0  0  0
    2.9777   -2.0068    0.0000 H   0  0  0  0  0  0  0  0  0  0  0  0
    3.7320    2.5708    0.0000 H   0  0  0  0  0  0  0  0  0  0  0  0
    2.3100    2.4878    0.0000 H   0  0  0  0  0  0  0  0  0  0  0  0
    1.4631    2.2608    0.0000 H   0  0  0  0  0  0  0  0  0  0  0  0
    1.6900    1.4139    0.0000 H   0  0  0  0  0  0  0  0  0  0  0  0
  1  2  1  0  0  0  0
  1  3  1  0  0  0  0
  1  4  1  1  0  0  0
  1  5  1  0  0  0  0
  2  4  1  0  0  0  0
  2  9  1  0  0  0  0
  2 16  1  6  0  0  0
  3  6  1  0  0  0  0
  3  8  1  0  0  0  0
  3 11  1  1  0  0  0
  4 17  1  0  0  0  0
  4 18  1  0  0  0  0
  5  7  1  0  0  0  0
  5 12  1  0  0  0  0
  5 13  1  0  0  0  0
  6 10  1  0  0  0  0
  6 19  1  0  0  0  0
  6 20  1  0  0  0  0
  7 10  1  0  0  0  0
  7 21  1  0  0  0  0
  7 22  1  0  0  0  0
  8 14  1  0  0  0  0
  8 23  1  0  0  0  0
  8 24  1  0  0  0  0
  9 14  2  0  0  0  0
  9 15  1  0  0  0  0
 10 25  1  0  0  0  0
 10 26  1  0  0  0  0
 11 27  1  0  0  0  0
 11 28  1  0  0  0  0
 11 29  1  0  0  0  0
 12 30  1  0  0  0  0
 12 31  1  0  0  0  0
 12 32  1  0  0  0  0
 13 33  1  0  0  0  0
 13 34  1  0  0  0  0
 13 35  1  0  0  0  0
 14 36  1  0  0  0  0
 15 37  1  0  0  0  0
 15 38  1  0  0  0  0
 15 39  1  0  0  0  0
M  END
> <PUBCHEM_COMPOUND_CID>
442402

> <PUBCHEM_COMPOUND_CANONICALIZED>
1

> <PUBCHEM_CACTVS_COMPLEXITY>
336

> <PUBCHEM_CACTVS_HBOND_ACCEPTOR>
0

> <PUBCHEM_CACTVS_HBOND_DONOR>
0

> <PUBCHEM_CACTVS_ROTATABLE_BOND>
0

> <PUBCHEM_CACTVS_SUBSKEYS>
AAADceBwAAAAAAAAAAAAAAAAGAAAAAAAAAAwQAAABAAAAACAAAAAGAAAAAAADwCAAAACAAAAAACAAiBCAAAAAAAgAAAACAAAAAgAAAIAAQAAAAAAgAAIAAMAgMAPgAAAAAAAAAAAAAQAACAAAAAAAAAAAA==

> <PUBCHEM_IUPAC_OPENEYE_NAME>
(1aS,4aS,8aS)-2,4a,8,8-tetramethyl-1,1a,4,5,6,7-hexahydrocyclopropa[j]naphthalene

> <PUBCHEM_IUPAC_CAS_NAME>
(1aS,4aS,8aS)-2,4a,8,8-tetramethyl-1,1a,4,5,6,7-hexahydrocyclopropa[j]naphthalene

> <PUBCHEM_IUPAC_NAME>
(1aS,4aS,8aS)-2,4a,8,8-tetramethyl-1,1a,4,5,6,7-hexahydrocyclopropa[j]naphthalene

> <PUBCHEM_IUPAC_SYSTEMATIC_NAME>
(1aS,4aS,8aS)-2,4a,8,8-tetramethyl-1,1a,4,5,6,7-hexahydrocyclopropa[j]naphthalene

> <PUBCHEM_IUPAC_TRADITIONAL_NAME>
(1aS,4aS,8aS)-2,4a,8,8-tetramethyl-1,1a,4,5,6,7-hexahydrocyclopropa[j]naphthalene

> <PUBCHEM_IUPAC_INCHI>
InChI=1S/C15H24/c1-11-6-9-14(4)8-5-7-13(2,3)15(14)10-12(11)15/h6,12H,5,7-10H2,1-4H3/t12-,14-,15-/m0/s1

> <PUBCHEM_IUPAC_INCHIKEY>
WXQGPFZDVCRBME-QEJZJMRPSA-N

> <PUBCHEM_XLOGP3_AA>
4.8

> <PUBCHEM_EXACT_MASS>
204.187801

> <PUBCHEM_MOLECULAR_FORMULA>
C15H24

> <PUBCHEM_MOLECULAR_WEIGHT>
204.35106

> <PUBCHEM_OPENEYE_CAN_SMILES>
CC1=CCC2(CCCC(C23C1C3)(C)C)C

> <PUBCHEM_OPENEYE_ISO_SMILES>
CC1=CC[C@@]2(CCCC([C@]23[C@H]1C3)(C)C)C

> <PUBCHEM_CACTVS_TPSA>
0

> <PUBCHEM_MONOISOTOPIC_WEIGHT>
204.187801

> <PUBCHEM_TOTAL_CHARGE>
0

> <PUBCHEM_HEAVY_ATOM_COUNT>
15

> <PUBCHEM_ATOM_DEF_STEREO_COUNT>
3

> <PUBCHEM_ATOM_UDEF_STEREO_COUNT>
0

> <PUBCHEM_BOND_DEF_STEREO_COUNT>
0

> <PUBCHEM_BOND_UDEF_STEREO_COUNT>
0

> <PUBCHEM_ISOTOPIC_ATOM_COUNT>
0

> <PUBCHEM_COMPONENT_COUNT>
1

> <PUBCHEM_CACTVS_TAUTO_COUNT>
1

> <PUBCHEM_COORDINATE_TYPE>
1
5
255

> <PUBCHEM_BONDANNOTATIONS>
1  4  5
2  16  6
3  11  5

$$$$

