78659
  -OEChem-07051213092D

 18 18  0     0  0  0  0  0  0999 V2000
    2.0000   -0.5950    0.0000 Br  0  0  0  0  0  0  0  0  0  0  0  0
    2.0000    1.4050    0.0000 Br  0  0  0  0  0  0  0  0  0  0  0  0
    5.4641    1.4050    0.0000 O   0  0  0  0  0  0  0  0  0  0  0  0
    4.5981   -2.0950    0.0000 O   0  0  0  0  0  0  0  0  0  0  0  0
    3.7320    2.4050    0.0000 O   0  0  0  0  0  0  0  0  0  0  0  0
    3.7320   -0.5950    0.0000 C   0  0  0  0  0  0  0  0  0  0  0  0
    4.5981   -0.0950    0.0000 C   0  0  0  0  0  0  0  0  0  0  0  0
    2.8660   -0.0950    0.0000 C   0  0  0  0  0  0  0  0  0  0  0  0
    4.5981    0.9050    0.0000 C   0  0  0  0  0  0  0  0  0  0  0  0
    3.7320   -1.5950    0.0000 C   0  0  0  0  0  0  0  0  0  0  0  0
    3.7320    1.4050    0.0000 C   0  0  0  0  0  0  0  0  0  0  0  0
    2.8660    0.9050    0.0000 C   0  0  0  0  0  0  0  0  0  0  0  0
    5.1350   -0.4050    0.0000 H   0  0  0  0  0  0  0  0  0  0  0  0
    3.1215   -1.4873    0.0000 H   0  0  0  0  0  0  0  0  0  0  0  0
    3.5200   -2.1776    0.0000 H   0  0  0  0  0  0  0  0  0  0  0  0
    6.0010    1.0950    0.0000 H   0  0  0  0  0  0  0  0  0  0  0  0
    4.5981   -2.7150    0.0000 H   0  0  0  0  0  0  0  0  0  0  0  0
    4.2690    2.7150    0.0000 H   0  0  0  0  0  0  0  0  0  0  0  0
  1  8  1  0  0  0  0
  2 12  1  0  0  0  0
  3  9  1  0  0  0  0
  3 16  1  0  0  0  0
  4 10  1  0  0  0  0
  4 17  1  0  0  0  0
  5 11  1  0  0  0  0
  5 18  1  0  0  0  0
  6  7  2  0  0  0  0
  6  8  1  0  0  0  0
  6 10  1  0  0  0  0
  7  9  1  0  0  0  0
  7 13  1  0  0  0  0
  8 12  2  0  0  0  0
  9 11  2  0  0  0  0
 10 14  1  0  0  0  0
 10 15  1  0  0  0  0
 11 12  1  0  0  0  0
M  END
> <PUBCHEM_COMPOUND_CID>
78659

> <PUBCHEM_COMPOUND_CANONICALIZED>
1

> <PUBCHEM_CACTVS_COMPLEXITY>
156

> <PUBCHEM_CACTVS_HBOND_ACCEPTOR>
3

> <PUBCHEM_CACTVS_HBOND_DONOR>
3

> <PUBCHEM_CACTVS_ROTATABLE_BOND>
1

> <PUBCHEM_CACTVS_SUBSKEYS>
AAADcYBgMAAAGAAAAAAAAAAAAAAAAAAAAAAwAAAAAAAAAAABAAAAGgBACAABrASgmAIwBoAAAgCAAiBCAAACAAAgIAQAiAAGiKgJNiKCERKAcAEkwBEJmhfA4DQOIBABEIAAxAFAIAIhAAGIAgAAAAAAAA==

> <PUBCHEM_IUPAC_OPENEYE_NAME>
3,4-dibromo-5-(hydroxymethyl)benzene-1,2-diol

> <PUBCHEM_IUPAC_CAS_NAME>
3,4-dibromo-5-(hydroxymethyl)benzene-1,2-diol

> <PUBCHEM_IUPAC_NAME>
3,4-dibromo-5-(hydroxymethyl)benzene-1,2-diol

> <PUBCHEM_IUPAC_SYSTEMATIC_NAME>
3,4-bis(bromanyl)-5-(hydroxymethyl)benzene-1,2-diol

> <PUBCHEM_IUPAC_TRADITIONAL_NAME>
3,4-dibromo-5-methylol-pyrocatechol

> <PUBCHEM_IUPAC_INCHI>
InChI=1S/C7H6Br2O3/c8-5-3(2-10)1-4(11)7(12)6(5)9/h1,10-12H,2H2

> <PUBCHEM_IUPAC_INCHIKEY>
GKZCMEUEEFOXIJ-UHFFFAOYSA-N

> <PUBCHEM_XLOGP3_AA>
1.7

> <PUBCHEM_EXACT_MASS>
297.866322

> <PUBCHEM_MOLECULAR_FORMULA>
C7H6Br2O3

> <PUBCHEM_MOLECULAR_WEIGHT>
297.92874

> <PUBCHEM_OPENEYE_CAN_SMILES>
C1=C(C(=C(C(=C1O)O)Br)Br)CO

> <PUBCHEM_OPENEYE_ISO_SMILES>
C1=C(C(=C(C(=C1O)O)Br)Br)CO

> <PUBCHEM_CACTVS_TPSA>
60.7

> <PUBCHEM_MONOISOTOPIC_WEIGHT>
295.868368

> <PUBCHEM_TOTAL_CHARGE>
0

> <PUBCHEM_HEAVY_ATOM_COUNT>
12

> <PUBCHEM_ATOM_DEF_STEREO_COUNT>
0

> <PUBCHEM_ATOM_UDEF_STEREO_COUNT>
0

> <PUBCHEM_BOND_DEF_STEREO_COUNT>
0

> <PUBCHEM_BOND_UDEF_STEREO_COUNT>
0

> <PUBCHEM_ISOTOPIC_ATOM_COUNT>
0

> <PUBCHEM_COMPONENT_COUNT>
1

> <PUBCHEM_CACTVS_TAUTO_COUNT>
8

> <PUBCHEM_COORDINATE_TYPE>
1
5
255

> <PUBCHEM_BONDANNOTATIONS>
11  12  8
6  7  8
6  8  8
7  9  8
8  12  8
9  11  8

$$$$

