12032
  -OEChem-07051213153D

 19 19  0     0  0  0  0  0  0999 V2000
   -1.9202   -2.2370    0.5279 O   0  0  0  0  0  0  0  0  0  0  0  0
   -3.2752   -0.7460   -0.5244 O   0  0  0  0  0  0  0  0  0  0  0  0
    3.6834    0.2940   -0.0231 O   0  5  0  0  0  0  0  0  0  0  0  0
    2.7940   -1.7110   -0.1113 O   0  0  0  0  0  0  0  0  0  0  0  0
   -2.4474    1.8331    0.0950 N   0  0  0  0  0  0  0  0  0  0  0  0
    2.6828   -0.4626   -0.0516 N   0  3  0  0  0  0  0  0  0  0  0  0
   -1.0177   -0.1444   -0.0092 C   0  0  0  0  0  0  0  0  0  0  0  0
   -1.1652    1.2411    0.0578 C   0  0  0  0  0  0  0  0  0  0  0  0
    1.3847    0.1117   -0.0146 C   0  0  0  0  0  0  0  0  0  0  0  0
    0.2573   -0.7090   -0.0453 C   0  0  0  0  0  0  0  0  0  0  0  0
   -0.0378    2.0619    0.0886 C   0  0  0  0  0  0  0  0  0  0  0  0
    1.2371    1.4971    0.0523 C   0  0  0  0  0  0  0  0  0  0  0  0
   -2.1758   -1.0290   -0.0420 C   0  0  0  0  0  0  0  0  0  0  0  0
    0.3685   -1.7886   -0.1134 H   0  0  0  0  0  0  0  0  0  0  0  0
   -0.1388    3.1430    0.1408 H   0  0  0  0  0  0  0  0  0  0  0  0
    2.0925    2.1674    0.0779 H   0  0  0  0  0  0  0  0  0  0  0  0
   -2.5331    2.8399    0.1456 H   0  0  0  0  0  0  0  0  0  0  0  0
   -3.2819    1.2633    0.0852 H   0  0  0  0  0  0  0  0  0  0  0  0
   -2.7037   -2.8267    0.5011 H   0  0  0  0  0  0  0  0  0  0  0  0
  1 13  1  0  0  0  0
  1 19  1  0  0  0  0
  2 13  2  0  0  0  0
  3  6  1  0  0  0  0
  4  6  2  0  0  0  0
  5  8  1  0  0  0  0
  5 17  1  0  0  0  0
  5 18  1  0  0  0  0
  6  9  1  0  0  0  0
  7  8  2  0  0  0  0
  7 10  1  0  0  0  0
  7 13  1  0  0  0  0
  8 11  1  0  0  0  0
  9 10  2  0  0  0  0
  9 12  1  0  0  0  0
 10 14  1  0  0  0  0
 11 12  2  0  0  0  0
 11 15  1  0  0  0  0
 12 16  1  0  0  0  0
M  CHG  2   3  -1   6   1
M  END
> <PUBCHEM_COMPOUND_CID>
12032

> <PUBCHEM_CONFORMER_RMSD>
0.6

> <PUBCHEM_CONFORMER_DIVERSEORDER>
1

> <PUBCHEM_MMFF94_PARTIAL_CHARGES>
19
1 -0.65
10 -0.15
11 -0.15
12 -0.15
13 0.63
14 0.15
15 0.15
16 0.15
17 0.4
18 0.4
19 0.5
2 -0.57
3 -0.52
4 -0.52
5 -0.9
6 0.91
7 0.09
8 0.1
9 0.13

> <PUBCHEM_EFFECTIVE_ROTOR_COUNT>
2

> <PUBCHEM_PHARMACOPHORE_FEATURES>
9
1 1 acceptor
1 2 acceptor
1 3 acceptor
1 3 anion
1 4 acceptor
1 5 cation
1 5 donor
3 1 2 13 anion
6 7 8 9 10 11 12 rings

> <PUBCHEM_HEAVY_ATOM_COUNT>
13

> <PUBCHEM_ATOM_DEF_STEREO_COUNT>
0

> <PUBCHEM_ATOM_UDEF_STEREO_COUNT>
0

> <PUBCHEM_BOND_DEF_STEREO_COUNT>
0

> <PUBCHEM_BOND_UDEF_STEREO_COUNT>
0

> <PUBCHEM_ISOTOPIC_ATOM_COUNT>
0

> <PUBCHEM_COMPONENT_COUNT>
1

> <PUBCHEM_CACTVS_TAUTO_COUNT>
2

> <PUBCHEM_CONFORMER_ID>
00002F0000000001

> <PUBCHEM_MMFF94_ENERGY>
52.1743

> <PUBCHEM_FEATURE_SELFOVERLAP>
45.808

> <PUBCHEM_SHAPE_FINGERPRINT>
11206711 2 18412263938976761045
12716758 59 18266743669503383952
13380535 76 18191308393014520143
14128692 85 18339074895934295652
14325111 11 18337673121809363612
16945 1 18267018366947971825
17990270 104 17981048509562283443
193761 8 18338514123503250897
20201158 50 18340209591823488038
20645477 70 17764600811320172087
20871998 184 18186801404504868559
20871998 22 18262223452632000382
21501502 16 18409725145000674877
23552423 10 18271804579755342188
23559900 14 18263367061606824042
241688 4 18412546513407330433
2748010 2 18408609136545816404
3312278 4 18341891844703558746
7364860 26 18119249458889247712
81228 2 18339357569064574208
8809292 202 18265890444433448558

> <PUBCHEM_SHAPE_MULTIPOLES>
234.09
4.63
2.19
0.61
1.76
0.21
0
-1.54
-0.3
-0.71
0.18
-0.1
-0.03
0.08

> <PUBCHEM_SHAPE_SELFOVERLAP>
498.259

> <PUBCHEM_SHAPE_VOLUME>
130.4

> <PUBCHEM_COORDINATE_TYPE>
2
5
10

$$$$

