12905
  -OEChem-06261207313D

 30 31  0     0  0  0  0  0  0999 V2000
    7.4859   -0.4184   -0.0001 Cl  0  0  0  0  0  0  0  0  0  0  0  0
   -7.2130   -0.8441   -0.0002 Cl  0  0  0  0  0  0  0  0  0  0  0  0
    0.8561    1.5137   -0.0030 S   0  0  0  0  0  0  0  0  0  0  0  0
   -1.8017    2.7400   -0.0076 S   0  0  0  0  0  0  0  0  0  0  0  0
   -1.3703    0.0403    0.0013 N   0  0  0  0  0  0  0  0  0  0  0  0
    2.9784   -0.2490    0.0010 C   0  0  0  0  0  0  0  0  0  0  0  0
    1.4879   -0.1918    0.0012 C   0  0  0  0  0  0  0  0  0  0  0  0
    3.6756   -0.2728    1.2088 C   0  0  0  0  0  0  0  0  0  0  0  0
    3.6749   -0.2779   -1.2072 C   0  0  0  0  0  0  0  0  0  0  0  0
    5.0695   -0.3252    1.2085 C   0  0  0  0  0  0  0  0  0  0  0  0
    5.0689   -0.3304   -1.2076 C   0  0  0  0  0  0  0  0  0  0  0  0
    5.7662   -0.3541    0.0003 C   0  0  0  0  0  0  0  0  0  0  0  0
   -2.7583   -0.1707    0.0013 C   0  0  0  0  0  0  0  0  0  0  0  0
   -3.4414   -0.2780   -1.2068 C   0  0  0  0  0  0  0  0  0  0  0  0
   -3.4431   -0.2703    1.2092 C   0  0  0  0  0  0  0  0  0  0  0  0
   -0.8815    1.2413   -0.0018 C   0  0  0  0  0  0  0  0  0  0  0  0
   -4.8206   -0.4865   -1.2071 C   0  0  0  0  0  0  0  0  0  0  0  0
   -4.8223   -0.4790    1.2090 C   0  0  0  0  0  0  0  0  0  0  0  0
   -5.5111   -0.5872    0.0009 C   0  0  0  0  0  0  0  0  0  0  0  0
    1.0986   -0.7220   -0.8762 H   0  0  0  0  0  0  0  0  0  0  0  0
    1.0990   -0.7176    0.8815 H   0  0  0  0  0  0  0  0  0  0  0  0
    3.1451   -0.2495    2.1571 H   0  0  0  0  0  0  0  0  0  0  0  0
    3.1440   -0.2587   -2.1553 H   0  0  0  0  0  0  0  0  0  0  0  0
    5.5996   -0.3427    2.1572 H   0  0  0  0  0  0  0  0  0  0  0  0
    5.5985   -0.3519   -2.1566 H   0  0  0  0  0  0  0  0  0  0  0  0
   -2.9113   -0.2019   -2.1524 H   0  0  0  0  0  0  0  0  0  0  0  0
   -2.9142   -0.1880    2.1549 H   0  0  0  0  0  0  0  0  0  0  0  0
   -5.3442   -0.5688   -2.1561 H   0  0  0  0  0  0  0  0  0  0  0  0
   -5.3472   -0.5552    2.1578 H   0  0  0  0  0  0  0  0  0  0  0  0
   -0.7520    3.5743   -0.0099 H   0  0  0  0  0  0  0  0  0  0  0  0
  1 12  1  0  0  0  0
  2 19  1  0  0  0  0
  3  7  1  0  0  0  0
  3 16  1  0  0  0  0
  4 16  1  0  0  0  0
  4 30  1  0  0  0  0
  5 13  1  0  0  0  0
  5 16  2  0  0  0  0
  6  7  1  0  0  0  0
  6  8  2  0  0  0  0
  6  9  1  0  0  0  0
  7 20  1  0  0  0  0
  7 21  1  0  0  0  0
  8 10  1  0  0  0  0
  8 22  1  0  0  0  0
  9 11  2  0  0  0  0
  9 23  1  0  0  0  0
 10 12  2  0  0  0  0
 10 24  1  0  0  0  0
 11 12  1  0  0  0  0
 11 25  1  0  0  0  0
 13 14  2  0  0  0  0
 13 15  1  0  0  0  0
 14 17  1  0  0  0  0
 14 26  1  0  0  0  0
 15 18  2  0  0  0  0
 15 27  1  0  0  0  0
 17 19  2  0  0  0  0
 17 28  1  0  0  0  0
 18 19  1  0  0  0  0
 18 29  1  0  0  0  0
M  END
> <PUBCHEM_COMPOUND_CID>
12905

> <PUBCHEM_CONFORMER_RMSD>
0.6

> <PUBCHEM_CONFORMER_DIVERSEORDER>
1
4
8
13
6
3
11
14
7
2
9
10
12
5

> <PUBCHEM_MMFF94_PARTIAL_CHARGES>
28
1 -0.18
10 -0.15
11 -0.15
12 0.18
13 0.18
14 -0.15
15 -0.15
16 0.73
17 -0.15
18 -0.15
19 0.18
2 -0.18
22 0.15
23 0.15
24 0.15
25 0.15
26 0.15
27 0.15
28 0.15
29 0.15
3 -0.37
30 0.18
4 -0.32
5 -0.63
6 -0.14
7 0.37
8 -0.15
9 -0.15

> <PUBCHEM_EFFECTIVE_ROTOR_COUNT>
4

> <PUBCHEM_PHARMACOPHORE_FEATURES>
3
1 5 acceptor
6 13 14 15 17 18 19 rings
6 6 8 9 10 11 12 rings

> <PUBCHEM_HEAVY_ATOM_COUNT>
19

> <PUBCHEM_ATOM_DEF_STEREO_COUNT>
0

> <PUBCHEM_ATOM_UDEF_STEREO_COUNT>
0

> <PUBCHEM_BOND_DEF_STEREO_COUNT>
0

> <PUBCHEM_BOND_UDEF_STEREO_COUNT>
0

> <PUBCHEM_ISOTOPIC_ATOM_COUNT>
0

> <PUBCHEM_COMPONENT_COUNT>
1

> <PUBCHEM_CACTVS_TAUTO_COUNT>
2

> <PUBCHEM_CONFORMER_ID>
0000326900000001

> <PUBCHEM_MMFF94_ENERGY>
45.1944

> <PUBCHEM_FEATURE_SELFOVERLAP>
15.223

> <PUBCHEM_SHAPE_FINGERPRINT>
10 15 5617249334461241134
10299344 5 17095239212160669462
10354089 29 14634869747847080722
10447042 23 17989494030590745082
10595046 47 15698000734192300846
11089746 13 12607402183401548260
11315181 36 17489300888956706141
11719270 70 16774087280520319258
12107183 9 15144580398352257826
12166972 35 17418371376721911372
12516196 113 18333733506990528249
12596602 18 15647051564448083835
12760667 363 18413107264701200505
12788726 201 18272094949920715713
13288520 33 18410293614582904181
13668630 136 17704068517102020074
13685833 64 18411980231081104451
13862211 1 18411419505393468483
14123256 10 18131070433443538298
1420 363 18408885140018833586
14251752 14 16558757823112654821
14251764 18 14706927337030937035
14341114 176 15647049361118908914
14849402 71 16226906441244264152
14933364 13 15140960647533856250
15183329 4 15626229026004422244
15537594 2 18410858758748194791
15716309 27 17676206875189514694
17844677 252 18040996258953093752
18006028 8 18410012126647536013
1813 80 18261663831294278741
18222031 100 18407758127346371604
19141452 34 17385729058405005047
19489759 90 13183019622512005831
200 152 17846781818739969029
20281389 69 7637401813608528282
21267235 1 18410290306872491317
221357 26 15123796175396201791
22224240 67 16950005824653692166
23035841 295 18260267447495539382
23198884 109 14979960281044285757
23402539 116 18343020016590091669
23536379 177 15698005145118341559
23559900 14 17489304122935510100
23845131 108 16740275308653317545
29717793 49 17704069629762085982
3004659 81 16702305650509372376
312425 54 16950554497993630311
314173 85 18261107478568658513
351380 3 18411139129849199359
3545911 37 9583518724359269492
4325135 7 18260828173151845212
5104073 3 17314512728797514482
5283156 175 17988644125134494482
8863177 126 17915168015358394667
9663363 56 18410863152530834889

> <PUBCHEM_SHAPE_MULTIPOLES>
397.47
19.04
1.44
1.23
6.07
1.47
0
-8.24
0
-1.13
0
0.07
-0.21
0

> <PUBCHEM_SHAPE_SELFOVERLAP>
797.804

> <PUBCHEM_SHAPE_VOLUME>
236.9

> <PUBCHEM_COORDINATE_TYPE>
2
5
10

$$$$

