24883440
  -OEChem-07051213152D

 65 66  0     1  0  0  0  0  0999 V2000
    3.4030    2.9809    0.0000 P   0  0  3  0  0  0  0  0  0  0  0  0
    3.4030    4.7129    0.0000 P   0  0  0  0  0  0  0  0  0  0  0  0
    3.9030    2.1148    0.0000 O   0  0  0  0  0  0  0  0  0  0  0  0
    2.9030    3.8469    0.0000 O   0  0  0  0  0  0  0  0  0  0  0  0
    4.2690    3.4809    0.0000 O   0  0  0  0  0  0  0  0  0  0  0  0
    2.5369    2.4809    0.0000 O   0  0  0  0  0  0  0  0  0  0  0  0
    3.9030    5.5790    0.0000 O   0  0  0  0  0  0  0  0  0  0  0  0
    2.5369    5.2129    0.0000 O   0  0  0  0  0  0  0  0  0  0  0  0
    4.2690    4.2129    0.0000 O   0  0  0  0  0  0  0  0  0  0  0  0
    4.7690   -3.5813    0.0000 C   0  0  1  0  0  0  0  0  0  0  0  0
    3.9030   -3.0813    0.0000 C   0  0  1  0  0  0  0  0  0  0  0  0
    4.7690   -4.5813    0.0000 C   0  0  2  0  0  0  0  0  0  0  0  0
    3.0369   -3.5813    0.0000 C   0  0  1  0  0  0  0  0  0  0  0  0
    3.9030   -5.0813    0.0000 C   0  0  0  0  0  0  0  0  0  0  0  0
    3.0369   -4.5813    0.0000 C   0  0  0  0  0  0  0  0  0  0  0  0
    5.6629   -3.0466    0.0000 C   0  0  0  0  0  0  0  0  0  0  0  0
    3.4030   -2.2153    0.0000 C   0  0  0  0  0  0  0  0  0  0  0  0
    5.6629   -5.1160    0.0000 C   0  0  0  0  0  0  0  0  0  0  0  0
    4.4030   -2.2153    0.0000 C   0  0  0  0  0  0  0  0  0  0  0  0
    4.7690   -5.5813    0.0000 C   0  0  0  0  0  0  0  0  0  0  0  0
    6.5690   -3.5605    0.0000 C   0  0  0  0  0  0  0  0  0  0  0  0
    2.1709   -3.0813    0.0000 C   0  0  0  0  0  0  0  0  0  0  0  0
    6.5690   -4.6021    0.0000 C   0  0  0  0  0  0  0  0  0  0  0  0
    3.9030   -1.3492    0.0000 C   0  0  0  0  0  0  0  0  0  0  0  0
    5.6514   -6.1159    0.0000 C   0  0  0  0  0  0  0  0  0  0  0  0
    3.4030   -0.4832    0.0000 C   0  0  0  0  0  0  0  0  0  0  0  0
    2.4030   -0.4832    0.0000 C   0  0  0  0  0  0  0  0  0  0  0  0
    3.9030    0.3828    0.0000 C   0  0  0  0  0  0  0  0  0  0  0  0
    3.4030    1.2488    0.0000 C   0  0  0  0  0  0  0  0  0  0  0  0
    4.7624   -2.7313    0.0000 H   0  0  0  0  0  0  0  0  0  0  0  0
    3.0369   -2.9613    0.0000 H   0  0  0  0  0  0  0  0  0  0  0  0
    3.5044   -5.5562    0.0000 H   0  0  0  0  0  0  0  0  0  0  0  0
    4.3015   -5.5562    0.0000 H   0  0  0  0  0  0  0  0  0  0  0  0
    2.4263   -4.4736    0.0000 H   0  0  0  0  0  0  0  0  0  0  0  0
    2.8249   -5.1639    0.0000 H   0  0  0  0  0  0  0  0  0  0  0  0
    6.0566   -2.5676    0.0000 H   0  0  0  0  0  0  0  0  0  0  0  0
    5.2583   -2.5768    0.0000 H   0  0  0  0  0  0  0  0  0  0  0  0
    2.9280   -1.8167    0.0000 H   0  0  0  0  0  0  0  0  0  0  0  0
    2.9280   -2.6138    0.0000 H   0  0  0  0  0  0  0  0  0  0  0  0
    4.9399   -2.5253    0.0000 H   0  0  0  0  0  0  0  0  0  0  0  0
    4.7130   -1.6783    0.0000 H   0  0  0  0  0  0  0  0  0  0  0  0
    3.8660   -1.9053    0.0000 H   0  0  0  0  0  0  0  0  0  0  0  0
    4.1490   -5.5813    0.0000 H   0  0  0  0  0  0  0  0  0  0  0  0
    4.7690   -6.2013    0.0000 H   0  0  0  0  0  0  0  0  0  0  0  0
    5.3890   -5.5813    0.0000 H   0  0  0  0  0  0  0  0  0  0  0  0
    7.1798   -3.6666    0.0000 H   0  0  0  0  0  0  0  0  0  0  0  0
    6.7780   -2.9768    0.0000 H   0  0  0  0  0  0  0  0  0  0  0  0
    2.4809   -2.5444    0.0000 H   0  0  0  0  0  0  0  0  0  0  0  0
    1.6340   -2.7713    0.0000 H   0  0  0  0  0  0  0  0  0  0  0  0
    1.8609   -3.6182    0.0000 H   0  0  0  0  0  0  0  0  0  0  0  0
    7.1047   -4.9142    0.0000 H   0  0  0  0  0  0  0  0  0  0  0  0
    4.3779   -1.7478    0.0000 H   0  0  0  0  0  0  0  0  0  0  0  0
    4.3779   -0.9507    0.0000 H   0  0  0  0  0  0  0  0  0  0  0  0
    5.0314   -6.1087    0.0000 H   0  0  0  0  0  0  0  0  0  0  0  0
    5.6442   -6.7358    0.0000 H   0  0  0  0  0  0  0  0  0  0  0  0
    6.2713   -6.1231    0.0000 H   0  0  0  0  0  0  0  0  0  0  0  0
    2.4030    0.1368    0.0000 H   0  0  0  0  0  0  0  0  0  0  0  0
    1.7830   -0.4832    0.0000 H   0  0  0  0  0  0  0  0  0  0  0  0
    2.4030   -1.1032    0.0000 H   0  0  0  0  0  0  0  0  0  0  0  0
    4.5230    0.3828    0.0000 H   0  0  0  0  0  0  0  0  0  0  0  0
    2.9280    1.6474    0.0000 H   0  0  0  0  0  0  0  0  0  0  0  0
    2.9280    0.8503    0.0000 H   0  0  0  0  0  0  0  0  0  0  0  0
    4.8059    3.1709    0.0000 H   0  0  0  0  0  0  0  0  0  0  0  0
    2.0000    4.9029    0.0000 H   0  0  0  0  0  0  0  0  0  0  0  0
    3.5930    6.1159    0.0000 H   0  0  0  0  0  0  0  0  0  0  0  0
  1  3  1  0  0  0  0
  1  4  1  0  0  0  0
  1  5  1  0  0  0  0
  1  6  2  0  0  0  0
  2  4  1  0  0  0  0
  2  7  1  0  0  0  0
  2  8  1  0  0  0  0
  2  9  2  0  0  0  0
  3 29  1  0  0  0  0
  5 63  1  0  0  0  0
  7 65  1  0  0  0  0
  8 64  1  0  0  0  0
 10 11  1  0  0  0  0
 10 12  1  0  0  0  0
 10 16  1  0  0  0  0
 10 30  1  1  0  0  0
 11 13  1  0  0  0  0
 11 17  1  0  0  0  0
 11 19  1  6  0  0  0
 12 14  1  0  0  0  0
 12 18  1  0  0  0  0
 12 20  1  6  0  0  0
 13 15  1  0  0  0  0
 13 22  1  1  0  0  0
 13 31  1  0  0  0  0
 14 15  1  0  0  0  0
 14 32  1  0  0  0  0
 14 33  1  0  0  0  0
 15 34  1  0  0  0  0
 15 35  1  0  0  0  0
 16 21  1  0  0  0  0
 16 36  1  0  0  0  0
 16 37  1  0  0  0  0
 17 24  1  0  0  0  0
 17 38  1  0  0  0  0
 17 39  1  0  0  0  0
 18 23  2  0  0  0  0
 18 25  1  0  0  0  0
 19 40  1  0  0  0  0
 19 41  1  0  0  0  0
 19 42  1  0  0  0  0
 20 43  1  0  0  0  0
 20 44  1  0  0  0  0
 20 45  1  0  0  0  0
 21 23  1  0  0  0  0
 21 46  1  0  0  0  0
 21 47  1  0  0  0  0
 22 48  1  0  0  0  0
 22 49  1  0  0  0  0
 22 50  1  0  0  0  0
 23 51  1  0  0  0  0
 24 26  1  0  0  0  0
 24 52  1  0  0  0  0
 24 53  1  0  0  0  0
 25 54  1  0  0  0  0
 25 55  1  0  0  0  0
 25 56  1  0  0  0  0
 26 27  1  0  0  0  0
 26 28  2  0  0  0  0
 27 57  1  0  0  0  0
 27 58  1  0  0  0  0
 27 59  1  0  0  0  0
 28 29  1  0  0  0  0
 28 60  1  0  0  0  0
 29 61  1  0  0  0  0
 29 62  1  0  0  0  0
M  END
> <PUBCHEM_COMPOUND_CID>
24883440

> <PUBCHEM_COMPOUND_CANONICALIZED>
1

> <PUBCHEM_CACTVS_COMPLEXITY>
756

> <PUBCHEM_CACTVS_HBOND_ACCEPTOR>
7

> <PUBCHEM_CACTVS_HBOND_DONOR>
3

> <PUBCHEM_CACTVS_ROTATABLE_BOND>
8

> <PUBCHEM_CACTVS_SUBSKEYS>
AAADcfB4OAMAAAAAAAAAAAAAAAAAAAAAAAAwQAAAAAAAAACAAAAAGgAACCAADwCggAICAAAAARCAQiBCAIAAAAAgAAAACAAAAAgABAIAAQAAEAAAgAAIAAMAgMAPgAAAAAAAAACAAAQAACAAAAAAAAAAAA==

> <PUBCHEM_IUPAC_OPENEYE_NAME>
[(E)-5-[(1R,2R,4aS,8aS)-1,2,4a,5-tetramethyl-2,3,4,7,8,8a-hexahydronaphthalen-1-yl]-3-methyl-pent-2-enyl] phosphono hydrogen phosphate

> <PUBCHEM_IUPAC_CAS_NAME>
[(E)-5-[(1R,2R,4aS,8aS)-1,2,4a,5-tetramethyl-2,3,4,7,8,8a-hexahydronaphthalen-1-yl]-3-methylpent-2-enyl] phosphono hydrogen phosphate

> <PUBCHEM_IUPAC_NAME>
[(E)-5-[(1R,2R,4aS,8aS)-1,2,4a,5-tetramethyl-2,3,4,7,8,8a-hexahydronaphthalen-1-yl]-3-methylpent-2-enyl] phosphono hydrogen phosphate

> <PUBCHEM_IUPAC_SYSTEMATIC_NAME>
[(E)-5-[(1R,2R,4aS,8aS)-1,2,4a,5-tetramethyl-2,3,4,7,8,8a-hexahydronaphthalen-1-yl]-3-methyl-pent-2-enyl] phosphono hydrogen phosphate

> <PUBCHEM_IUPAC_TRADITIONAL_NAME>
[(E)-5-[(1R,2R,4aS,8aS)-1,2,4a,5-tetramethyl-2,3,4,7,8,8a-hexahydronaphthalen-1-yl]-3-methyl-pent-2-enyl] phosphono hydrogen phosphate

> <PUBCHEM_IUPAC_INCHI>
InChI=1S/C20H36O7P2/c1-15(11-14-26-29(24,25)27-28(21,22)23)9-12-19(4)17(3)10-13-20(5)16(2)7-6-8-18(19)20/h7,11,17-18H,6,8-10,12-14H2,1-5H3,(H,24,25)(H2,21,22,23)/b15-11+/t17-,18+,19-,20-/m1/s1

> <PUBCHEM_IUPAC_INCHIKEY>
LKJRXYMJDDAXEN-LENLPTBCSA-N

> <PUBCHEM_XLOGP3_AA>
3.8

> <PUBCHEM_EXACT_MASS>
450.193627

> <PUBCHEM_MOLECULAR_FORMULA>
C20H36O7P2

> <PUBCHEM_MOLECULAR_WEIGHT>
450.443164

> <PUBCHEM_OPENEYE_CAN_SMILES>
CC1CCC2(C(C1(C)CCC(=CCOP(=O)(O)OP(=O)(O)O)C)CCC=C2C)C

> <PUBCHEM_OPENEYE_ISO_SMILES>
C[C@@H]1CC[C@]2([C@H]([C@]1(C)CC/C(=C/COP(=O)(O)OP(=O)(O)O)/C)CCC=C2C)C

> <PUBCHEM_CACTVS_TPSA>
113

> <PUBCHEM_MONOISOTOPIC_WEIGHT>
450.193627

> <PUBCHEM_TOTAL_CHARGE>
0

> <PUBCHEM_HEAVY_ATOM_COUNT>
29

> <PUBCHEM_ATOM_DEF_STEREO_COUNT>
4

> <PUBCHEM_ATOM_UDEF_STEREO_COUNT>
0

> <PUBCHEM_BOND_DEF_STEREO_COUNT>
1

> <PUBCHEM_BOND_UDEF_STEREO_COUNT>
0

> <PUBCHEM_ISOTOPIC_ATOM_COUNT>
0

> <PUBCHEM_COMPONENT_COUNT>
1

> <PUBCHEM_CACTVS_TAUTO_COUNT>
1

> <PUBCHEM_COORDINATE_TYPE>
1
5
255

> <PUBCHEM_BONDANNOTATIONS>
10  30  5
11  19  6
12  20  6
13  22  5

$$$$

