441592
  -OEChem-07051212553D

 46 51  0     1  0  0  0  0  0999 V2000
   -3.0467   -1.8073    1.0388 O   0  0  0  0  0  0  0  0  0  0  0  0
   -2.1878   -0.1725    2.8370 O   0  0  0  0  0  0  0  0  0  0  0  0
   -3.6576   -0.3280   -2.2619 O   0  0  0  0  0  0  0  0  0  0  0  0
    3.0709    2.0745   -0.7391 O   0  0  0  0  0  0  0  0  0  0  0  0
    3.4554   -2.5072   -0.1157 O   0  0  0  0  0  0  0  0  0  0  0  0
    4.4897   -0.4130   -0.7032 O   0  0  0  0  0  0  0  0  0  0  0  0
   -1.0913    2.0095    0.4310 N   0  0  1  0  0  0  0  0  0  0  0  0
   -1.0453   -0.3404    0.6142 C   0  0  1  0  0  0  0  0  0  0  0  0
   -1.7784   -1.6494    0.3719 C   0  0  2  0  0  0  0  0  0  0  0  0
   -1.6820    0.8130   -0.2060 C   0  0  1  0  0  0  0  0  0  0  0  0
   -3.0984   -1.6768   -0.3786 C   0  0  2  0  0  0  0  0  0  0  0  0
   -1.0609    0.2126    2.0648 C   0  0  1  0  0  0  0  0  0  0  0  0
   -3.2185    0.8326   -0.1816 C   0  0  0  0  0  0  0  0  0  0  0  0
   -3.7790   -0.4298   -0.8433 C   0  0  1  0  0  0  0  0  0  0  0  0
    0.4559   -0.3911    0.2154 C   0  0  0  0  0  0  0  0  0  0  0  0
   -1.1149    1.7375    1.8853 C   0  0  0  0  0  0  0  0  0  0  0  0
    0.2987    2.1444   -0.0625 C   0  0  0  0  0  0  0  0  0  0  0  0
    1.0952    0.8526   -0.0894 C   0  0  0  0  0  0  0  0  0  0  0  0
    1.2350   -1.5597    0.2449 C   0  0  0  0  0  0  0  0  0  0  0  0
    2.4573    0.9045   -0.4245 C   0  0  0  0  0  0  0  0  0  0  0  0
    2.5744   -1.4687   -0.0862 C   0  0  0  0  0  0  0  0  0  0  0  0
    3.1667   -0.2748   -0.4172 C   0  0  0  0  0  0  0  0  0  0  0  0
   -4.3710    0.7923   -2.7604 C   0  0  0  0  0  0  0  0  0  0  0  0
    4.6649   -1.8317   -0.5155 C   0  0  0  0  0  0  0  0  0  0  0  0
    4.1678    2.4771    0.0819 C   0  0  0  0  0  0  0  0  0  0  0  0
   -1.1754   -2.5417    0.3462 H   0  0  0  0  0  0  0  0  0  0  0  0
   -1.3944    0.7616   -1.2674 H   0  0  0  0  0  0  0  0  0  0  0  0
   -3.3620   -2.5565   -0.9498 H   0  0  0  0  0  0  0  0  0  0  0  0
   -0.1721   -0.0820    2.6346 H   0  0  0  0  0  0  0  0  0  0  0  0
   -3.6002    0.8955    0.8408 H   0  0  0  0  0  0  0  0  0  0  0  0
   -3.5702    1.7555   -0.6520 H   0  0  0  0  0  0  0  0  0  0  0  0
   -4.8455   -0.5231   -0.6010 H   0  0  0  0  0  0  0  0  0  0  0  0
   -2.0378    2.1543    2.3068 H   0  0  0  0  0  0  0  0  0  0  0  0
   -0.2893    2.2316    2.4110 H   0  0  0  0  0  0  0  0  0  0  0  0
    0.8243    2.8993    0.5357 H   0  0  0  0  0  0  0  0  0  0  0  0
    0.2533    2.5353   -1.0875 H   0  0  0  0  0  0  0  0  0  0  0  0
    0.8355   -2.5232    0.5347 H   0  0  0  0  0  0  0  0  0  0  0  0
   -2.9758   -0.2103    2.2764 H   0  0  0  0  0  0  0  0  0  0  0  0
   -3.7487    1.6912   -2.7365 H   0  0  0  0  0  0  0  0  0  0  0  0
   -5.3207    0.9544   -2.2401 H   0  0  0  0  0  0  0  0  0  0  0  0
   -4.5982    0.5958   -3.8129 H   0  0  0  0  0  0  0  0  0  0  0  0
    5.4276   -1.9921    0.2552 H   0  0  0  0  0  0  0  0  0  0  0  0
    5.0174   -2.2697   -1.4563 H   0  0  0  0  0  0  0  0  0  0  0  0
    4.0302    2.1678    1.1238 H   0  0  0  0  0  0  0  0  0  0  0  0
    4.2270    3.5691    0.0531 H   0  0  0  0  0  0  0  0  0  0  0  0
    5.1036    2.0747   -0.3157 H   0  0  0  0  0  0  0  0  0  0  0  0
  1  9  1  0  0  0  0
  1 11  1  0  0  0  0
  2 12  1  0  0  0  0
  2 38  1  0  0  0  0
  3 14  1  0  0  0  0
  3 23  1  0  0  0  0
  4 20  1  0  0  0  0
  4 25  1  0  0  0  0
  5 21  1  0  0  0  0
  5 24  1  0  0  0  0
  6 22  1  0  0  0  0
  6 24  1  0  0  0  0
  7 10  1  0  0  0  0
  7 16  1  0  0  0  0
  7 17  1  0  0  0  0
  8  9  1  0  0  0  0
  8 10  1  0  0  0  0
  8 12  1  0  0  0  0
  8 15  1  0  0  0  0
  9 11  1  0  0  0  0
  9 26  1  0  0  0  0
 10 13  1  0  0  0  0
 10 27  1  0  0  0  0
 11 14  1  0  0  0  0
 11 28  1  0  0  0  0
 12 16  1  0  0  0  0
 12 29  1  0  0  0  0
 13 14  1  0  0  0  0
 13 30  1  0  0  0  0
 13 31  1  0  0  0  0
 14 32  1  0  0  0  0
 15 18  1  0  0  0  0
 15 19  2  0  0  0  0
 16 33  1  0  0  0  0
 16 34  1  0  0  0  0
 17 18  1  0  0  0  0
 17 35  1  0  0  0  0
 17 36  1  0  0  0  0
 18 20  2  0  0  0  0
 19 21  1  0  0  0  0
 19 37  1  0  0  0  0
 20 22  1  0  0  0  0
 21 22  2  0  0  0  0
 23 39  1  0  0  0  0
 23 40  1  0  0  0  0
 23 41  1  0  0  0  0
 24 42  1  0  0  0  0
 24 43  1  0  0  0  0
 25 44  1  0  0  0  0
 25 45  1  0  0  0  0
 25 46  1  0  0  0  0
M  END
> <PUBCHEM_COMPOUND_CID>
441592

> <PUBCHEM_CONFORMER_RMSD>
0.8

> <PUBCHEM_CONFORMER_DIVERSEORDER>
1
2

> <PUBCHEM_MMFF94_PARTIAL_CHARGES>
28
1 -0.3
10 0.27
11 -0.05
12 0.28
14 0.38
15 -0.14
16 0.27
17 0.41
18 -0.14
19 -0.15
2 -0.68
20 0.08
21 0.08
22 0.08
23 0.28
24 0.56
25 0.28
26 0.1
28 0.1
3 -0.56
37 0.15
38 0.4
4 -0.36
5 -0.36
6 -0.36
7 -0.81
8 0.24
9 -0.05

> <PUBCHEM_EFFECTIVE_ROTOR_COUNT>
3.8

> <PUBCHEM_PHARMACOPHORE_FEATURES>
12
1 1 acceptor
1 2 acceptor
1 2 donor
1 3 acceptor
1 4 acceptor
1 5 acceptor
1 6 acceptor
1 7 cation
5 5 6 21 22 24 rings
6 15 18 19 20 21 22 rings
7 1 8 9 10 11 13 14 rings
8 7 8 10 12 15 16 17 18 rings

> <PUBCHEM_HEAVY_ATOM_COUNT>
25

> <PUBCHEM_ATOM_DEF_STEREO_COUNT>
6

> <PUBCHEM_ATOM_UDEF_STEREO_COUNT>
0

> <PUBCHEM_BOND_DEF_STEREO_COUNT>
0

> <PUBCHEM_BOND_UDEF_STEREO_COUNT>
0

> <PUBCHEM_ISOTOPIC_ATOM_COUNT>
0

> <PUBCHEM_COMPONENT_COUNT>
1

> <PUBCHEM_CACTVS_TAUTO_COUNT>
1

> <PUBCHEM_CONFORMER_ID>
0006BCF800000001

> <PUBCHEM_MMFF94_ENERGY>
106.8504

> <PUBCHEM_FEATURE_SELFOVERLAP>
61.082

> <PUBCHEM_SHAPE_FINGERPRINT>
10764073 3 17338959317468722769
10863032 1 18411699855151875845
11578080 2 17775280556453868420
11582403 64 17411372843540941200
12553582 1 18267567182755132010
12788726 201 17386272281858829913
13140716 1 18338217358690354136
13224815 77 18186793665295573898
13911987 19 17907849605354801468
14251757 17 18130801069931678951
14787075 74 17100590350158531256
15163728 17 15050333543448340117
16752209 62 18041572449974001807
16945 1 18129677416472118857
17349148 13 18260833751797371774
17492 89 18409722967806183886
1813 80 15213312872086043845
18186145 218 17847064397713055469
192875 21 18266190593869998418
19862831 5 18130786789091891046
200 152 18186240640695205310
20645477 70 18410291398174148870
20775438 99 16960747890370697391
21033648 29 17060059284856970349
21033650 10 16774079595995631540
21267235 1 18337940255658463155
21756936 100 13182732680147721606
22112679 90 17531792623871480985
221490 88 18341322319519288482
22182313 1 18130505228025696601
22393880 68 18131638880544194110
23402539 116 18189057649641489951
23419403 2 16518259537202464145
23557571 272 14273730806680309242
23559900 14 18411423908325530824
23598288 3 17458610246882126633
2748010 2 18201143382965083376
3027735 51 17824266123196561999
312423 11 17895740860122923174
46194498 28 17843974645843676245
463206 1 17313686887853730591
5104073 3 18411693270951174610
5161694 15 17632574972149086278
5283173 99 18059026054524680116
7471813 234 17967824868199386380
9709674 26 18271239431000107466

> <PUBCHEM_SHAPE_MULTIPOLES>
474.29
8.31
2.52
1.83
3.51
0.27
0.2
-1.65
-4.46
2
0.12
-2.88
0.36
0.24

> <PUBCHEM_SHAPE_SELFOVERLAP>
1068.552

> <PUBCHEM_SHAPE_VOLUME>
249.1

> <PUBCHEM_COORDINATE_TYPE>
2
5
10

$$$$

