644280
  -OEChem-07051212543D

 35 36  0     1  0  0  0  0  0999 V2000
   -0.5815   -2.0618   -3.0386 I   0  0  0  0  0  0  0  0  0  0  0  0
    6.3437   -0.6753    1.3720 I   0  0  0  0  0  0  0  0  0  0  0  0
    2.5262    3.4236   -1.0493 I   0  0  0  0  0  0  0  0  0  0  0  0
    1.4028   -1.8132   -0.4554 O   0  0  0  0  0  0  0  0  0  0  0  0
   -3.5705    1.6801   -1.1461 O   0  0  0  0  0  0  0  0  0  0  0  0
   -5.7637    1.1718   -0.8687 O   0  0  0  0  0  0  0  0  0  0  0  0
    5.1674    2.1455    0.3125 O   0  0  0  0  0  0  0  0  0  0  0  0
   -5.3773    1.1657    1.8482 N   0  0  0  0  0  0  0  0  0  0  0  0
   -3.8882   -0.6429    1.1224 C   0  0  0  0  0  0  0  0  0  0  0  0
   -4.2321    0.8496    0.9976 C   0  0  1  0  0  0  0  0  0  0  0  0
   -2.4753   -0.9584    0.6882 C   0  0  0  0  0  0  0  0  0  0  0  0
   -2.2292   -1.2836   -0.6354 C   0  0  0  0  0  0  0  0  0  0  0  0
   -1.4544   -0.9154    1.6232 C   0  0  0  0  0  0  0  0  0  0  0  0
    0.1145   -1.5354   -0.1061 C   0  0  0  0  0  0  0  0  0  0  0  0
   -0.9249   -1.5741   -1.0354 C   0  0  0  0  0  0  0  0  0  0  0  0
   -0.1502   -1.2060    1.2233 C   0  0  0  0  0  0  0  0  0  0  0  0
   -4.6259    1.2286   -0.4197 C   0  0  0  0  0  0  0  0  0  0  0  0
    2.3475   -0.8205   -0.2639 C   0  0  0  0  0  0  0  0  0  0  0  0
    2.0525    0.4751   -0.6493 C   0  0  0  0  0  0  0  0  0  0  0  0
    3.5635   -1.1478    0.3096 C   0  0  0  0  0  0  0  0  0  0  0  0
    4.5153   -0.1468    0.5040 C   0  0  0  0  0  0  0  0  0  0  0  0
    3.0043    1.4762   -0.4550 C   0  0  0  0  0  0  0  0  0  0  0  0
    4.2357    1.1651    0.1217 C   0  0  0  0  0  0  0  0  0  0  0  0
   -4.5940   -1.2550    0.5440 H   0  0  0  0  0  0  0  0  0  0  0  0
   -4.0011   -0.9753    2.1639 H   0  0  0  0  0  0  0  0  0  0  0  0
   -3.3995    1.4880    1.3148 H   0  0  0  0  0  0  0  0  0  0  0  0
   -3.0486   -1.3129   -1.3492 H   0  0  0  0  0  0  0  0  0  0  0  0
   -1.6508   -0.6598    2.6604 H   0  0  0  0  0  0  0  0  0  0  0  0
    0.6442   -1.1818    1.9648 H   0  0  0  0  0  0  0  0  0  0  0  0
   -5.1437    0.9706    2.8213 H   0  0  0  0  0  0  0  0  0  0  0  0
   -6.1577    0.5492    1.6216 H   0  0  0  0  0  0  0  0  0  0  0  0
    1.1015    0.7174   -1.1155 H   0  0  0  0  0  0  0  0  0  0  0  0
    3.7595   -2.1766    0.6002 H   0  0  0  0  0  0  0  0  0  0  0  0
   -3.8349    1.9347   -2.0557 H   0  0  0  0  0  0  0  0  0  0  0  0
    5.9549    1.7473    0.7219 H   0  0  0  0  0  0  0  0  0  0  0  0
  1 15  1  0  0  0  0
  2 21  1  0  0  0  0
  3 22  1  0  0  0  0
  4 14  1  0  0  0  0
  4 18  1  0  0  0  0
  5 17  1  0  0  0  0
  5 34  1  0  0  0  0
  6 17  2  0  0  0  0
  7 23  1  0  0  0  0
  7 35  1  0  0  0  0
  8 10  1  0  0  0  0
  8 30  1  0  0  0  0
  8 31  1  0  0  0  0
  9 10  1  0  0  0  0
  9 11  1  0  0  0  0
  9 24  1  0  0  0  0
  9 25  1  0  0  0  0
 10 17  1  0  0  0  0
 10 26  1  0  0  0  0
 11 12  2  0  0  0  0
 11 13  1  0  0  0  0
 12 15  1  0  0  0  0
 12 27  1  0  0  0  0
 13 16  2  0  0  0  0
 13 28  1  0  0  0  0
 14 15  2  0  0  0  0
 14 16  1  0  0  0  0
 16 29  1  0  0  0  0
 18 19  2  0  0  0  0
 18 20  1  0  0  0  0
 19 22  1  0  0  0  0
 19 32  1  0  0  0  0
 20 21  2  0  0  0  0
 20 33  1  0  0  0  0
 21 23  1  0  0  0  0
 22 23  2  0  0  0  0
M  END
> <PUBCHEM_COMPOUND_CID>
644280

> <PUBCHEM_CONFORMER_RMSD>
0.8

> <PUBCHEM_CONFORMER_DIVERSEORDER>
1
27
52
59
18
46
54
20
56
55
5
37
69
14
21
31
34
33
16
25
67
51
64
38
72
57
29
62
66
6
49
24
32
48
11
39
60
10
26
15
28
41
40
13
30
36
2
68
12
65
47
45
3
9
71
4
17
58
53
50
42
43
44
23
8
19
35
22
63
7
70
61

> <PUBCHEM_MMFF94_PARTIAL_CHARGES>
32
1 -0.08
10 0.33
11 -0.14
12 -0.15
13 -0.15
14 0.08
15 0.08
16 -0.15
17 0.66
18 0.08
19 -0.15
2 -0.08
20 -0.15
21 0.08
22 0.08
23 0.08
27 0.15
28 0.15
29 0.15
3 -0.08
30 0.36
31 0.36
32 0.15
33 0.15
34 0.5
35 0.45
4 -0.17
5 -0.65
6 -0.57
7 -0.53
8 -0.99
9 0.14

> <PUBCHEM_EFFECTIVE_ROTOR_COUNT>
5

> <PUBCHEM_PHARMACOPHORE_FEATURES>
12
1 1 hydrophobe
1 2 hydrophobe
1 3 hydrophobe
1 4 acceptor
1 5 acceptor
1 6 acceptor
1 7 donor
1 8 cation
1 8 donor
3 5 6 17 anion
6 11 12 13 14 15 16 rings
6 18 19 20 21 22 23 rings

> <PUBCHEM_HEAVY_ATOM_COUNT>
23

> <PUBCHEM_ATOM_DEF_STEREO_COUNT>
1

> <PUBCHEM_ATOM_UDEF_STEREO_COUNT>
0

> <PUBCHEM_BOND_DEF_STEREO_COUNT>
0

> <PUBCHEM_BOND_UDEF_STEREO_COUNT>
0

> <PUBCHEM_ISOTOPIC_ATOM_COUNT>
0

> <PUBCHEM_COMPONENT_COUNT>
1

> <PUBCHEM_CACTVS_TAUTO_COUNT>
2

> <PUBCHEM_CONFORMER_ID>
0009D4B800000001

> <PUBCHEM_MMFF94_ENERGY>
63.7313

> <PUBCHEM_FEATURE_SELFOVERLAP>
60.95

> <PUBCHEM_SHAPE_FINGERPRINT>
105312 117 17458343026738191903
11089746 13 18060145357646267347
11370993 144 17632579310398189306
11640471 11 18042675110118526950
12403259 118 18335979783592419531
12596602 18 14764332830464215349
12633257 1 17131272342348019304
12670546 177 4751154112018663843
12788726 201 17608097468156473014
13103583 49 13398621788804734365
13149001 5 16154288095617124131
13402501 40 18130794498695766669
13544653 18 9799688186637205579
13583140 156 18131629015331174755
14178342 30 16630228239614336363
14251758 9 18409729590998454610
14251764 30 13973968735676149448
14251764 38 18341888610804759629
14466204 15 18130513040945865080
15163728 17 17750210609093030709
15188451 53 15840976777483916891
15209294 21 17418092144092597099
15238133 3 18060412530629640084
15295992 7 17989200413298182288
1813 80 13901901215457590887
200 152 9583520918897601846
20511986 3 18042139695495820410
20715895 44 18263640822184136913
21033648 29 17131553950880218693
21033650 10 15575532743897307344
21054139 6 8935005867608556296
21315763 76 18410578405158628249
21475661 188 18131353016232057453
21864079 5 18195519295116297172
23227448 37 18341891853636215831
235170 7 5039672525999740817
23557571 272 15287030651520331806
23559900 14 18189040049161721910
2838139 119 18411145761743129613
312425 83 5399984681118225064
33382 64 15123240978913511930
351380 180 18272933834332251845
351380 3 11959727161861490344
392239 28 17845923096581315833
465052 167 12031774860600704097
474 4 18412821365470325243
5104073 3 18271530780497029050
6086070 43 17702127848718545927
7970288 3 12391515256562048592

> <PUBCHEM_SHAPE_MULTIPOLES>
480.68
12.89
2.94
2.05
0.63
2.05
-1.04
5.96
5.72
1.13
-1.73
-1.22
-0.97
-1.54

> <PUBCHEM_SHAPE_SELFOVERLAP>
960.142

> <PUBCHEM_SHAPE_VOLUME>
292.6

> <PUBCHEM_COORDINATE_TYPE>
2
5
10

$$$$

