14061
  -OEChem-06241222412D

 12 11  0     0  0  0  0  0  0999 V2000
    2.0000   -0.5670    0.0000 Cl  0  0  0  0  0  0  0  0  0  0  0  0
    2.3660    0.7990    0.0000 Cl  0  0  0  0  0  0  0  0  0  0  0  0
    3.3660   -0.9330    0.0000 Cl  0  0  0  0  0  0  0  0  0  0  0  0
    2.8660   -0.0670    0.0000 Si  0  0  0  0  0  0  0  0  0  0  0  0
    6.3301    0.9330    0.0000 N   0  0  0  0  0  0  0  0  0  0  0  0
    3.7320    0.4330    0.0000 C   0  0  0  0  0  0  0  0  0  0  0  0
    4.5981   -0.0670    0.0000 C   0  0  0  0  0  0  0  0  0  0  0  0
    5.4641    0.4330    0.0000 C   0  0  0  0  0  0  0  0  0  0  0  0
    4.1306    0.9080    0.0000 H   0  0  0  0  0  0  0  0  0  0  0  0
    3.3335    0.9080    0.0000 H   0  0  0  0  0  0  0  0  0  0  0  0
    4.1996   -0.5419    0.0000 H   0  0  0  0  0  0  0  0  0  0  0  0
    4.9966   -0.5419    0.0000 H   0  0  0  0  0  0  0  0  0  0  0  0
  1  4  1  0  0  0  0
  2  4  1  0  0  0  0
  3  4  1  0  0  0  0
  4  6  1  0  0  0  0
  5  8  3  0  0  0  0
  6  7  1  0  0  0  0
  6  9  1  0  0  0  0
  6 10  1  0  0  0  0
  7  8  1  0  0  0  0
  7 11  1  0  0  0  0
  7 12  1  0  0  0  0
M  END
> <PUBCHEM_COMPOUND_CID>
14061

> <PUBCHEM_COMPOUND_CANONICALIZED>
1

> <PUBCHEM_CACTVS_COMPLEXITY>
109

> <PUBCHEM_CACTVS_HBOND_ACCEPTOR>
1

> <PUBCHEM_CACTVS_HBOND_DONOR>
0

> <PUBCHEM_CACTVS_ROTATABLE_BOND>
1

> <PUBCHEM_CACTVS_SUBSKEYS>
AAADcYBCAAgGAAAAAAAAAAAAAAAAAAAAAAAAAAAAAAAAAAAAAAAAHBAAAAAgCACBIABAAAAAAAAQBAAAAAAAAAAAAAAAAAAAAAAAgAAAAAAAAAAAAAAAAAAAAAAAAAAAAAAAAAAAAAAAAAAAAAAAAAAAAA==

> <PUBCHEM_IUPAC_OPENEYE_NAME>
3-trichlorosilylpropanenitrile

> <PUBCHEM_IUPAC_CAS_NAME>
3-trichlorosilylpropanenitrile

> <PUBCHEM_IUPAC_NAME>
3-trichlorosilylpropanenitrile

> <PUBCHEM_IUPAC_SYSTEMATIC_NAME>
3-tris(chloranyl)silylpropanenitrile

> <PUBCHEM_IUPAC_TRADITIONAL_NAME>
3-trichlorosilylpropionitrile

> <PUBCHEM_IUPAC_INCHI>
InChI=1S/C3H4Cl3NSi/c4-8(5,6)3-1-2-7/h1,3H2

> <PUBCHEM_IUPAC_INCHIKEY>
OLBGECWYBGXCNV-UHFFFAOYSA-N

> <PUBCHEM_EXACT_MASS>
186.917859

> <PUBCHEM_MOLECULAR_FORMULA>
C3H4Cl3NSi

> <PUBCHEM_MOLECULAR_WEIGHT>
188.51506

> <PUBCHEM_OPENEYE_CAN_SMILES>
C(C[Si](Cl)(Cl)Cl)C#N

> <PUBCHEM_OPENEYE_ISO_SMILES>
C(C[Si](Cl)(Cl)Cl)C#N

> <PUBCHEM_CACTVS_TPSA>
23.8

> <PUBCHEM_MONOISOTOPIC_WEIGHT>
186.917859

> <PUBCHEM_TOTAL_CHARGE>
0

> <PUBCHEM_HEAVY_ATOM_COUNT>
8

> <PUBCHEM_ATOM_DEF_STEREO_COUNT>
0

> <PUBCHEM_ATOM_UDEF_STEREO_COUNT>
0

> <PUBCHEM_BOND_DEF_STEREO_COUNT>
0

> <PUBCHEM_BOND_UDEF_STEREO_COUNT>
0

> <PUBCHEM_ISOTOPIC_ATOM_COUNT>
0

> <PUBCHEM_COMPONENT_COUNT>
1

> <PUBCHEM_CACTVS_TAUTO_COUNT>
1

> <PUBCHEM_COORDINATE_TYPE>
1
5
255

$$$$

