46173718
  -OEChem-07051212463D

 52 55  0     1  0  0  0  0  0999 V2000
    4.5292    0.4178   -1.4228 O   0  0  0  0  0  0  0  0  0  0  0  0
    0.3722   -3.2266   -1.0993 O   0  0  0  0  0  0  0  0  0  0  0  0
   -1.7115    2.7072   -1.1414 O   0  0  0  0  0  0  0  0  0  0  0  0
   -0.2787   -3.0329    1.0767 O   0  0  0  0  0  0  0  0  0  0  0  0
   -2.4819   -1.1020   -1.8767 O   0  0  0  0  0  0  0  0  0  0  0  0
   -3.9752    0.5197   -1.2967 O   0  0  0  0  0  0  0  0  0  0  0  0
    1.2539   -0.3188   -0.0113 C   0  0  1  0  0  0  0  0  0  0  0  0
    0.8470    1.0714    0.6150 C   0  0  2  0  0  0  0  0  0  0  0  0
   -0.6867    1.1616    0.4151 C   0  0  1  0  0  0  0  0  0  0  0  0
   -1.1054   -0.3202    0.5690 C   0  0  2  0  0  0  0  0  0  0  0  0
   -0.0805   -1.0626   -0.3079 C   0  0  2  0  0  0  0  0  0  0  0  0
    2.1564   -0.1113   -1.2356 C   0  0  0  0  0  0  0  0  0  0  0  0
    3.3990    0.5035   -0.5755 C   0  0  2  0  0  0  0  0  0  0  0  0
    2.2387   -1.0514    0.9405 C   0  0  0  0  0  0  0  0  0  0  0  0
    1.6612    2.2709    0.0938 C   0  0  0  0  0  0  0  0  0  0  0  0
   -2.6290   -0.5549    0.4111 C   0  0  2  0  0  0  0  0  0  0  0  0
   -1.4121    2.0145    1.4620 C   0  0  0  0  0  0  0  0  0  0  0  0
    3.1440    1.9593   -0.1440 C   0  0  0  0  0  0  0  0  0  0  0  0
    3.5534   -0.3790    0.6457 C   0  0  0  0  0  0  0  0  0  0  0  0
   -3.3746    0.3746    1.4058 C   0  0  0  0  0  0  0  0  0  0  0  0
   -2.9326    1.8425    1.3616 C   0  0  0  0  0  0  0  0  0  0  0  0
   -0.9952    1.7284   -0.9590 C   0  0  0  0  0  0  0  0  0  0  0  0
   -0.0179   -2.5280   -0.0052 C   0  0  0  0  0  0  0  0  0  0  0  0
   -3.0282   -2.0074    0.7213 C   0  0  0  0  0  0  0  0  0  0  0  0
   -3.1197   -0.2976   -0.9914 C   0  0  0  0  0  0  0  0  0  0  0  0
    4.6742   -0.5787    1.3494 C   0  0  0  0  0  0  0  0  0  0  0  0
    1.0306    1.0209    1.6984 H   0  0  0  0  0  0  0  0  0  0  0  0
   -0.8841   -0.6035    1.6131 H   0  0  0  0  0  0  0  0  0  0  0  0
   -0.3054   -0.9433   -1.3698 H   0  0  0  0  0  0  0  0  0  0  0  0
    1.7256    0.5409   -2.0026 H   0  0  0  0  0  0  0  0  0  0  0  0
    2.3958   -1.0611   -1.7328 H   0  0  0  0  0  0  0  0  0  0  0  0
    1.9498   -0.9684    1.9928 H   0  0  0  0  0  0  0  0  0  0  0  0
    2.3446   -2.1114    0.6850 H   0  0  0  0  0  0  0  0  0  0  0  0
    1.5641    3.1171    0.7845 H   0  0  0  0  0  0  0  0  0  0  0  0
    1.2620    2.6291   -0.8612 H   0  0  0  0  0  0  0  0  0  0  0  0
   -1.1550    3.0760    1.3597 H   0  0  0  0  0  0  0  0  0  0  0  0
   -1.0943    1.7175    2.4700 H   0  0  0  0  0  0  0  0  0  0  0  0
    3.5283    2.6525   -0.9038 H   0  0  0  0  0  0  0  0  0  0  0  0
    3.7133    2.1937    0.7652 H   0  0  0  0  0  0  0  0  0  0  0  0
   -3.2046    0.0077    2.4277 H   0  0  0  0  0  0  0  0  0  0  0  0
   -4.4598    0.3273    1.2466 H   0  0  0  0  0  0  0  0  0  0  0  0
   -3.3412    2.3274    0.4717 H   0  0  0  0  0  0  0  0  0  0  0  0
   -3.3944    2.3676    2.2075 H   0  0  0  0  0  0  0  0  0  0  0  0
   -0.5425    1.2192   -1.8246 H   0  0  0  0  0  0  0  0  0  0  0  0
   -4.1200   -2.1188    0.6988 H   0  0  0  0  0  0  0  0  0  0  0  0
   -2.6395   -2.7306   -0.0013 H   0  0  0  0  0  0  0  0  0  0  0  0
   -2.6990   -2.3047    1.7229 H   0  0  0  0  0  0  0  0  0  0  0  0
    4.3165    0.8842   -2.2492 H   0  0  0  0  0  0  0  0  0  0  0  0
    5.5994   -0.0771    1.0878 H   0  0  0  0  0  0  0  0  0  0  0  0
    4.6847   -1.2463    2.2042 H   0  0  0  0  0  0  0  0  0  0  0  0
    0.4213   -4.1897   -0.9203 H   0  0  0  0  0  0  0  0  0  0  0  0
   -2.7860   -0.9482   -2.7964 H   0  0  0  0  0  0  0  0  0  0  0  0
  1 13  1  0  0  0  0
  1 48  1  0  0  0  0
  2 23  1  0  0  0  0
  2 51  1  0  0  0  0
  3 22  2  0  0  0  0
  4 23  2  0  0  0  0
  5 25  1  0  0  0  0
  5 52  1  0  0  0  0
  6 25  2  0  0  0  0
  7  8  1  0  0  0  0
  7 11  1  0  0  0  0
  7 12  1  0  0  0  0
  7 14  1  0  0  0  0
  8  9  1  0  0  0  0
  8 15  1  0  0  0  0
  8 27  1  0  0  0  0
  9 10  1  0  0  0  0
  9 17  1  0  0  0  0
  9 22  1  0  0  0  0
 10 11  1  0  0  0  0
 10 16  1  0  0  0  0
 10 28  1  0  0  0  0
 11 23  1  0  0  0  0
 11 29  1  0  0  0  0
 12 13  1  0  0  0  0
 12 30  1  0  0  0  0
 12 31  1  0  0  0  0
 13 18  1  0  0  0  0
 13 19  1  0  0  0  0
 14 19  1  0  0  0  0
 14 32  1  0  0  0  0
 14 33  1  0  0  0  0
 15 18  1  0  0  0  0
 15 34  1  0  0  0  0
 15 35  1  0  0  0  0
 16 20  1  0  0  0  0
 16 24  1  0  0  0  0
 16 25  1  0  0  0  0
 17 21  1  0  0  0  0
 17 36  1  0  0  0  0
 17 37  1  0  0  0  0
 18 38  1  0  0  0  0
 18 39  1  0  0  0  0
 19 26  2  0  0  0  0
 20 21  1  0  0  0  0
 20 40  1  0  0  0  0
 20 41  1  0  0  0  0
 21 42  1  0  0  0  0
 21 43  1  0  0  0  0
 22 44  1  0  0  0  0
 24 45  1  0  0  0  0
 24 46  1  0  0  0  0
 24 47  1  0  0  0  0
 26 49  1  0  0  0  0
 26 50  1  0  0  0  0
M  END
> <PUBCHEM_COMPOUND_CID>
46173718

> <PUBCHEM_CONFORMER_RMSD>
0.8

> <PUBCHEM_CONFORMER_DIVERSEORDER>
1
2

> <PUBCHEM_MMFF94_PARTIAL_CHARGES>
22
1 -0.68
11 0.06
13 0.42
14 0.14
16 0.06
19 -0.28
2 -0.65
22 0.45
23 0.66
25 0.66
26 -0.3
3 -0.57
4 -0.57
44 0.06
48 0.4
49 0.15
5 -0.65
50 0.15
51 0.5
52 0.5
6 -0.57
9 0.06

> <PUBCHEM_EFFECTIVE_ROTOR_COUNT>
4.8

> <PUBCHEM_PHARMACOPHORE_FEATURES>
12
1 1 acceptor
1 1 donor
1 2 acceptor
1 3 acceptor
1 4 acceptor
1 5 acceptor
1 6 acceptor
3 2 4 23 anion
3 5 6 25 anion
5 7 8 9 10 11 rings
6 9 10 16 17 20 21 rings
8 7 8 12 13 14 15 18 19 rings

> <PUBCHEM_HEAVY_ATOM_COUNT>
26

> <PUBCHEM_ATOM_DEF_STEREO_COUNT>
6

> <PUBCHEM_ATOM_UDEF_STEREO_COUNT>
1

> <PUBCHEM_BOND_DEF_STEREO_COUNT>
0

> <PUBCHEM_BOND_UDEF_STEREO_COUNT>
0

> <PUBCHEM_ISOTOPIC_ATOM_COUNT>
0

> <PUBCHEM_COMPONENT_COUNT>
1

> <PUBCHEM_CACTVS_TAUTO_COUNT>
1

> <PUBCHEM_CONFORMER_ID>
02C08E1600000001

> <PUBCHEM_MMFF94_ENERGY>
105.8437

> <PUBCHEM_FEATURE_SELFOVERLAP>
61.119

> <PUBCHEM_SHAPE_FINGERPRINT>
10759866 29 17918272031061733102
10863032 1 17560811999924707123
10967382 1 18265040495800528984
11132069 177 18335698377245151024
11578080 2 17772781315158814868
12035759 4 18114196254246020391
121448 382 18335437767177567422
12403814 3 18201431532358415169
12553582 1 18411129251688318736
12596599 1 17749390308693565607
12633257 1 18410567409762581040
12788726 201 18114172012860381889
13140716 1 18410290272839716665
13224815 77 18335701607060771840
13538477 17 18271244907421162978
13583140 156 17417528008374631464
14142880 1 18261958560782716417
14178342 30 18117555339204059496
14223421 5 18341044219917237858
14614273 12 18340490092127329341
15209289 33 18261944193768444770
15309172 13 18412542119565686979
16752209 62 18339092556976706952
16945 1 18263069054715221057
17349148 13 18337405906055517082
18186145 218 18410851032159473312
192875 21 18336840744151681848
200 152 18260843591366902485
20028762 73 17751915818585115007
20691752 17 18197760279833078783
20775438 99 16023433906836461111
2334 1 18193556662433607851
23402539 116 18187362147388483380
23419403 2 16026835864251524869
23493267 7 17561090189430726265
23559900 14 18261383426650056884
238 59 18053414207479737413
2748010 2 17904762176740078306
296302 2 16559028281387611468
34934 24 18042123331364571329
352729 6 18335975364139708402
633830 44 18187071862869567124
81228 2 18122066403510808042
90525 40 18412262878156644808

> <PUBCHEM_SHAPE_MULTIPOLES>
499.85
6.92
2.92
1.51
3.68
0.9
0.16
-0.61
-0.18
-0.81
-0.04
-0.44
-0.07
-0.54

> <PUBCHEM_SHAPE_SELFOVERLAP>
1101.504

> <PUBCHEM_SHAPE_VOLUME>
266.9

> <PUBCHEM_COORDINATE_TYPE>
2
5
10

$$$$

