6442707
  -OEChem-07051212552D

 27 26  0     1  0  0  0  0  0999 V2000
   11.5263    2.4050    0.0000 O   0  0  0  0  0  0  0  0  0  0  0  0
   13.2583    1.4050    0.0000 O   0  0  0  0  0  0  0  0  0  0  0  0
   11.5263    1.4050    0.0000 C   0  0  1  0  0  0  0  0  0  0  0  0
   12.3923    0.9050    0.0000 C   0  0  0  0  0  0  0  0  0  0  0  0
   10.6603    0.9050    0.0000 C   0  0  0  0  0  0  0  0  0  0  0  0
    9.7942    1.4050    0.0000 C   0  0  0  0  0  0  0  0  0  0  0  0
    8.9282    0.9050    0.0000 C   0  0  0  0  0  0  0  0  0  0  0  0
    2.0000   -2.0950    0.0000 C   0  0  0  0  0  0  0  0  0  0  0  0
    2.8660   -1.5950    0.0000 C   0  0  0  0  0  0  0  0  0  0  0  0
    3.7320   -2.0950    0.0000 C   0  0  0  0  0  0  0  0  0  0  0  0
    8.0622    0.4050    0.0000 C   0  0  0  0  0  0  0  0  0  0  0  0
    4.5981   -1.5950    0.0000 C   0  0  0  0  0  0  0  0  0  0  0  0
    7.1962   -0.0950    0.0000 C   0  0  0  0  0  0  0  0  0  0  0  0
    5.4641   -1.0950    0.0000 C   0  0  0  0  0  0  0  0  0  0  0  0
    6.3301   -0.5950    0.0000 C   0  0  0  0  0  0  0  0  0  0  0  0
   12.0632    1.7150    0.0000 H   0  0  0  0  0  0  0  0  0  0  0  0
   11.9938    0.4301    0.0000 H   0  0  0  0  0  0  0  0  0  0  0  0
   12.7908    0.4301    0.0000 H   0  0  0  0  0  0  0  0  0  0  0  0
   10.6603    0.2850    0.0000 H   0  0  0  0  0  0  0  0  0  0  0  0
   12.0632    2.7150    0.0000 H   0  0  0  0  0  0  0  0  0  0  0  0
    9.7942    2.0250    0.0000 H   0  0  0  0  0  0  0  0  0  0  0  0
   13.7953    1.0950    0.0000 H   0  0  0  0  0  0  0  0  0  0  0  0
    1.6900   -1.5581    0.0000 H   0  0  0  0  0  0  0  0  0  0  0  0
    1.4631   -2.4050    0.0000 H   0  0  0  0  0  0  0  0  0  0  0  0
    2.3100   -2.6319    0.0000 H   0  0  0  0  0  0  0  0  0  0  0  0
    2.8660   -0.9750    0.0000 H   0  0  0  0  0  0  0  0  0  0  0  0
    3.7320   -2.7150    0.0000 H   0  0  0  0  0  0  0  0  0  0  0  0
  3  1  1  1  0  0  0
  1 20  1  0  0  0  0
  2  4  1  0  0  0  0
  2 22  1  0  0  0  0
  3  4  1  0  0  0  0
  3  5  1  0  0  0  0
  3 16  1  0  0  0  0
  4 17  1  0  0  0  0
  4 18  1  0  0  0  0
  5  6  2  0  0  0  0
  5 19  1  0  0  0  0
  6  7  1  0  0  0  0
  6 21  1  0  0  0  0
  7 11  3  0  0  0  0
  8  9  1  0  0  0  0
  8 23  1  0  0  0  0
  8 24  1  0  0  0  0
  8 25  1  0  0  0  0
  9 10  2  0  0  0  0
  9 26  1  0  0  0  0
 10 12  1  0  0  0  0
 10 27  1  0  0  0  0
 11 13  1  0  0  0  0
 12 14  3  0  0  0  0
 13 15  3  0  0  0  0
 14 15  1  0  0  0  0
M  END
> <PUBCHEM_COMPOUND_CID>
6442707

> <PUBCHEM_COMPOUND_CANONICALIZED>
1

> <PUBCHEM_CACTVS_COMPLEXITY>
428

> <PUBCHEM_CACTVS_HBOND_ACCEPTOR>
2

> <PUBCHEM_CACTVS_HBOND_DONOR>
2

> <PUBCHEM_CACTVS_ROTATABLE_BOND>
4

> <PUBCHEM_CACTVS_SUBSKEYS>
AAADccBwMAAAAAAAAAAAAAAAAAAAAAAAAAAAAAAAAAAAAAAAAAAAGgAACAAACBSggAICAAAAAgDAECBCAAAAAAAgAAAICAAAAAgBFAAAAQAAUAAAQAAJEAIAAAAAAAAAAAAAAAAAAAAAAAAAAAAAAAAAAA==

> <PUBCHEM_IUPAC_OPENEYE_NAME>
(2R,3E,11E)-trideca-3,11-dien-5,7,9-triyne-1,2-diol

> <PUBCHEM_IUPAC_CAS_NAME>
(2R,3E,11E)-trideca-3,11-dien-5,7,9-triyne-1,2-diol

> <PUBCHEM_IUPAC_NAME>
(2R,3E,11E)-trideca-3,11-dien-5,7,9-triyne-1,2-diol

> <PUBCHEM_IUPAC_SYSTEMATIC_NAME>
(2R,3E,11E)-trideca-3,11-dien-5,7,9-triyne-1,2-diol

> <PUBCHEM_IUPAC_TRADITIONAL_NAME>
(2R,3E,11E)-trideca-3,11-dien-5,7,9-triyne-1,2-diol

> <PUBCHEM_IUPAC_INCHI>
InChI=1S/C13H12O2/c1-2-3-4-5-6-7-8-9-10-11-13(15)12-14/h2-3,10-11,13-15H,12H2,1H3/b3-2+,11-10+/t13-/m1/s1

> <PUBCHEM_IUPAC_INCHIKEY>
GVCJUCQUVWZELI-DXFRQSKKSA-N

> <PUBCHEM_XLOGP3_AA>
1.6

> <PUBCHEM_EXACT_MASS>
200.08373

> <PUBCHEM_MOLECULAR_FORMULA>
C13H12O2

> <PUBCHEM_MOLECULAR_WEIGHT>
200.23318

> <PUBCHEM_OPENEYE_CAN_SMILES>
CC=CC#CC#CC#CC=CC(CO)O

> <PUBCHEM_OPENEYE_ISO_SMILES>
C/C=C/C#CC#CC#C/C=C/[C@H](CO)O

> <PUBCHEM_CACTVS_TPSA>
40.5

> <PUBCHEM_MONOISOTOPIC_WEIGHT>
200.08373

> <PUBCHEM_TOTAL_CHARGE>
0

> <PUBCHEM_HEAVY_ATOM_COUNT>
15

> <PUBCHEM_ATOM_DEF_STEREO_COUNT>
1

> <PUBCHEM_ATOM_UDEF_STEREO_COUNT>
0

> <PUBCHEM_BOND_DEF_STEREO_COUNT>
2

> <PUBCHEM_BOND_UDEF_STEREO_COUNT>
0

> <PUBCHEM_ISOTOPIC_ATOM_COUNT>
0

> <PUBCHEM_COMPONENT_COUNT>
1

> <PUBCHEM_CACTVS_TAUTO_COUNT>
1

> <PUBCHEM_COORDINATE_TYPE>
1
5
255

> <PUBCHEM_BONDANNOTATIONS>
3  1  5

$$$$

