5281473
  -OEChem-07051212573D

 59 61  0     1  0  0  0  0  0999 V2000
    1.8562    1.6534    1.1839 O   0  0  0  0  0  0  0  0  0  0  0  0
    1.1702   -3.6138   -1.2794 O   0  0  0  0  0  0  0  0  0  0  0  0
   -1.9144   -0.4459    0.3266 O   0  0  0  0  0  0  0  0  0  0  0  0
    0.0062    2.9597   -0.8378 O   0  0  0  0  0  0  0  0  0  0  0  0
    0.6210    3.3411    2.0889 O   0  0  0  0  0  0  0  0  0  0  0  0
   -2.3241   -2.1701    1.7965 O   0  0  0  0  0  0  0  0  0  0  0  0
   -1.6501    1.9677   -2.1064 O   0  0  0  0  0  0  0  0  0  0  0  0
    2.4065   -0.6128    0.7133 C   0  0  2  0  0  0  0  0  0  0  0  0
    2.3550   -1.9121   -0.1203 C   0  0  1  0  0  0  0  0  0  0  0  0
    0.2234    0.6165   -0.1903 C   0  0  1  0  0  0  0  0  0  0  0  0
    1.7360    0.6504    0.1430 C   0  0  1  0  0  0  0  0  0  0  0  0
    1.1312   -2.1919   -1.0045 C   0  0  2  0  0  0  0  0  0  0  0  0
   -0.4951   -0.6007    0.4185 C   0  0  2  0  0  0  0  0  0  0  0  0
   -0.1972   -1.9528   -0.2623 C   0  0  0  0  0  0  0  0  0  0  0  0
   -0.2346    2.0327    0.2259 C   0  0  1  0  0  0  0  0  0  0  0  0
    3.7119   -2.0036   -0.8484 C   0  0  0  0  0  0  0  0  0  0  0  0
    3.9086   -0.4516    0.8942 C   0  0  0  0  0  0  0  0  0  0  0  0
    4.6043   -1.2174    0.0455 C   0  0  0  0  0  0  0  0  0  0  0  0
    0.7502    2.4326    1.2831 C   0  0  0  0  0  0  0  0  0  0  0  0
    1.1774   -1.5338   -2.3925 C   0  0  0  0  0  0  0  0  0  0  0  0
   -1.6621    2.2530    0.6943 C   0  0  0  0  0  0  0  0  0  0  0  0
    4.5038    0.4294    1.9367 C   0  0  0  0  0  0  0  0  0  0  0  0
   -2.6519   -1.4585    0.8576 C   0  0  0  0  0  0  0  0  0  0  0  0
   -0.7777    2.8113   -1.9501 C   0  0  0  0  0  0  0  0  0  0  0  0
   -3.9396   -1.5792    0.1088 C   0  0  0  0  0  0  0  0  0  0  0  0
   -0.4162    3.8443   -2.9739 C   0  0  0  0  0  0  0  0  0  0  0  0
   -3.9762   -2.4567   -1.1072 C   0  0  0  0  0  0  0  0  0  0  0  0
   -4.9661   -0.8505    0.5845 C   0  0  0  0  0  0  0  0  0  0  0  0
   -4.9567    0.0593    1.7719 C   0  0  0  0  0  0  0  0  0  0  0  0
    1.9882   -0.8199    1.7082 H   0  0  0  0  0  0  0  0  0  0  0  0
    2.3829   -2.7252    0.6274 H   0  0  0  0  0  0  0  0  0  0  0  0
    0.1077    0.5216   -1.2706 H   0  0  0  0  0  0  0  0  0  0  0  0
    2.2999    1.0309   -0.7183 H   0  0  0  0  0  0  0  0  0  0  0  0
   -0.2436   -0.6528    1.4854 H   0  0  0  0  0  0  0  0  0  0  0  0
   -0.2851   -2.7330    0.5078 H   0  0  0  0  0  0  0  0  0  0  0  0
   -0.9966   -2.2053   -0.9730 H   0  0  0  0  0  0  0  0  0  0  0  0
    3.7164   -1.5509   -1.8433 H   0  0  0  0  0  0  0  0  0  0  0  0
    4.0417   -3.0440   -0.9301 H   0  0  0  0  0  0  0  0  0  0  0  0
    5.6831   -1.2585   -0.0046 H   0  0  0  0  0  0  0  0  0  0  0  0
    1.5388   -0.5047   -2.3776 H   0  0  0  0  0  0  0  0  0  0  0  0
    1.8309   -2.0955   -3.0713 H   0  0  0  0  0  0  0  0  0  0  0  0
    0.1881   -1.5440   -2.8641 H   0  0  0  0  0  0  0  0  0  0  0  0
   -2.4366    1.8876    0.0178 H   0  0  0  0  0  0  0  0  0  0  0  0
   -1.8305    1.7822    1.6703 H   0  0  0  0  0  0  0  0  0  0  0  0
   -1.8637    3.3240    0.8278 H   0  0  0  0  0  0  0  0  0  0  0  0
    1.1158   -4.0946   -0.4361 H   0  0  0  0  0  0  0  0  0  0  0  0
    5.5808    0.2579    2.0387 H   0  0  0  0  0  0  0  0  0  0  0  0
    4.0451    0.2325    2.9107 H   0  0  0  0  0  0  0  0  0  0  0  0
    4.3612    1.4843    1.6868 H   0  0  0  0  0  0  0  0  0  0  0  0
    0.6283    3.7207   -3.2708 H   0  0  0  0  0  0  0  0  0  0  0  0
   -0.5857    4.8441   -2.5665 H   0  0  0  0  0  0  0  0  0  0  0  0
   -1.0477    3.7158   -3.8576 H   0  0  0  0  0  0  0  0  0  0  0  0
   -4.9833   -2.5141   -1.5326 H   0  0  0  0  0  0  0  0  0  0  0  0
   -3.3057   -2.0663   -1.8790 H   0  0  0  0  0  0  0  0  0  0  0  0
   -3.6604   -3.4730   -0.8514 H   0  0  0  0  0  0  0  0  0  0  0  0
   -5.9163   -0.9044    0.0563 H   0  0  0  0  0  0  0  0  0  0  0  0
   -5.1996    1.0781    1.4537 H   0  0  0  0  0  0  0  0  0  0  0  0
   -4.0020    0.0946    2.3020 H   0  0  0  0  0  0  0  0  0  0  0  0
   -5.7211   -0.2640    2.4856 H   0  0  0  0  0  0  0  0  0  0  0  0
  1 11  1  0  0  0  0
  1 19  1  0  0  0  0
  2 12  1  0  0  0  0
  2 46  1  0  0  0  0
  3 13  1  0  0  0  0
  3 23  1  0  0  0  0
  4 15  1  0  0  0  0
  4 24  1  0  0  0  0
  5 19  2  0  0  0  0
  6 23  2  0  0  0  0
  7 24  2  0  0  0  0
  8  9  1  0  0  0  0
  8 11  1  0  0  0  0
  8 17  1  0  0  0  0
  8 30  1  0  0  0  0
  9 12  1  0  0  0  0
  9 16  1  0  0  0  0
  9 31  1  0  0  0  0
 10 11  1  0  0  0  0
 10 13  1  0  0  0  0
 10 15  1  0  0  0  0
 10 32  1  0  0  0  0
 11 33  1  0  0  0  0
 12 14  1  0  0  0  0
 12 20  1  0  0  0  0
 13 14  1  0  0  0  0
 13 34  1  0  0  0  0
 14 35  1  0  0  0  0
 14 36  1  0  0  0  0
 15 19  1  0  0  0  0
 15 21  1  0  0  0  0
 16 18  1  0  0  0  0
 16 37  1  0  0  0  0
 16 38  1  0  0  0  0
 17 18  2  0  0  0  0
 17 22  1  0  0  0  0
 18 39  1  0  0  0  0
 20 40  1  0  0  0  0
 20 41  1  0  0  0  0
 20 42  1  0  0  0  0
 21 43  1  0  0  0  0
 21 44  1  0  0  0  0
 21 45  1  0  0  0  0
 22 47  1  0  0  0  0
 22 48  1  0  0  0  0
 22 49  1  0  0  0  0
 23 25  1  0  0  0  0
 24 26  1  0  0  0  0
 25 27  1  0  0  0  0
 25 28  2  0  0  0  0
 26 50  1  0  0  0  0
 26 51  1  0  0  0  0
 26 52  1  0  0  0  0
 27 53  1  0  0  0  0
 27 54  1  0  0  0  0
 27 55  1  0  0  0  0
 28 29  1  0  0  0  0
 28 56  1  0  0  0  0
 29 57  1  0  0  0  0
 29 58  1  0  0  0  0
 29 59  1  0  0  0  0
M  END
> <PUBCHEM_COMPOUND_CID>
5281473

> <PUBCHEM_CONFORMER_RMSD>
0.8

> <PUBCHEM_CONFORMER_DIVERSEORDER>
9
57
54
42
45
22
20
49
59
51
58
65
73
27
55
28
63
66
11
32
72
21
71
41
47
68
53
70
25
50
15
16
39
67
10
38
26
37
12
64
30
43
74
19
56
69
52
34
46
44
40
31
7
8
14
62
48
17
35
18
2
6
60
24
29
4
23
1
13
33
61
36
3
5

> <PUBCHEM_MMFF94_PARTIAL_CHARGES>
27
1 -0.43
11 0.28
12 0.28
13 0.28
15 0.34
16 0.14
17 -0.28
18 -0.29
19 0.66
2 -0.68
22 0.14
23 0.71
24 0.66
25 -0.12
26 0.06
27 0.14
28 -0.29
29 0.14
3 -0.43
39 0.15
4 -0.43
46 0.4
5 -0.57
56 0.15
6 -0.57
7 -0.57
8 0.14

> <PUBCHEM_EFFECTIVE_ROTOR_COUNT>
6.2

> <PUBCHEM_PHARMACOPHORE_FEATURES>
10
1 2 acceptor
1 2 donor
1 27 hydrophobe
1 29 hydrophobe
1 5 acceptor
1 6 acceptor
1 7 acceptor
5 1 10 11 15 19 rings
5 8 9 16 17 18 rings
7 8 9 10 11 12 13 14 rings

> <PUBCHEM_HEAVY_ATOM_COUNT>
29

> <PUBCHEM_ATOM_DEF_STEREO_COUNT>
7

> <PUBCHEM_ATOM_UDEF_STEREO_COUNT>
0

> <PUBCHEM_BOND_DEF_STEREO_COUNT>
1

> <PUBCHEM_BOND_UDEF_STEREO_COUNT>
0

> <PUBCHEM_ISOTOPIC_ATOM_COUNT>
0

> <PUBCHEM_COMPONENT_COUNT>
1

> <PUBCHEM_CACTVS_TAUTO_COUNT>
1

> <PUBCHEM_CONFORMER_ID>
005096C100000009

> <PUBCHEM_MMFF94_ENERGY>
104.4583

> <PUBCHEM_FEATURE_SELFOVERLAP>
50.804

> <PUBCHEM_SHAPE_FINGERPRINT>
10688039 33 18201999958072911119
10906281 52 18265874939332374667
11421498 54 16200151040904807201
12156800 1 14719788466317275266
12160290 23 17765125642958189411
12422481 6 18335422399926845131
12788726 201 17561079245848631762
13140716 1 18116723013623899410
13149001 5 17326327126681488070
133893 2 17839433641161462617
13402501 40 18408887373148698147
13681431 1 18196347278769058511
14181834 199 18117552925453485695
14790565 3 18045496409568965760
14840074 17 18054515703804890184
15420108 30 17611200260263228104
1601671 61 18262511499103618938
16945 1 18043813087367820178
17357779 13 18338812168584647911
17876694 64 17059769026592764774
17980427 26 17244156928892255457
1813 80 18202274797541381777
20600515 1 18271792506681550515
20642791 268 17676765362260719424
20691752 17 18200575003819884298
20739085 24 18341041913693879561
21285901 2 18341610481717783975
21304253 335 17895738704234184803
21304303 282 16982974822414400045
21641784 216 18129639998822480014
22182313 1 18189631582564797762
22907989 373 18270114755443976428
23419403 2 18265635237287030589
23557571 272 18265600160283726166
23558518 356 17322684427779327848
238 59 17389976639822557246
24941158 1 12913449938880095780
2748010 2 18189067533009909074
3052486 1 17916579980997094501
3380486 145 18335424607777489675
350125 39 18260261984819378458
469060 322 17772445006313069345
56638632 10 17170984460233886648
6443956 14 18260539022435184155
81228 2 17981296170288034931
9981440 41 17538890083736111578

> <PUBCHEM_SHAPE_MULTIPOLES>
555.72
7.7
4.41
2.24
2.82
2.9
0.99
-5.59
-3.55
0.74
2.29
0.15
1.65
1.52

> <PUBCHEM_SHAPE_SELFOVERLAP>
1175.232

> <PUBCHEM_SHAPE_VOLUME>
309.9

> <PUBCHEM_COORDINATE_TYPE>
2
5
10

$$$$

