442896
  -OEChem-07051213002D

 60 62  0     1  0  0  0  0  0999 V2000
    6.3465   -0.5569    0.0000 O   0  0  0  0  0  0  0  0  0  0  0  0
    6.3465    3.5123    0.0000 O   0  0  0  0  0  0  0  0  0  0  0  0
    2.8660   -0.5223    0.0000 O   0  0  0  0  0  0  0  0  0  0  0  0
    8.1282    0.4536    0.0000 O   0  0  0  0  0  0  0  0  0  0  0  0
    6.3301   -2.5223    0.0000 O   0  0  0  0  0  0  0  0  0  0  0  0
    4.5981   -3.5223    0.0000 O   0  0  0  0  0  0  0  0  0  0  0  0
    4.5981    0.4777    0.0000 C   0  0  2  0  0  0  0  0  0  0  0  0
    3.7320    0.9777    0.0000 C   0  0  2  0  0  0  0  0  0  0  0  0
    5.4641    0.9777    0.0000 C   0  0  0  0  0  0  0  0  0  0  0  0
    3.7320    1.9777    0.0000 C   0  0  0  0  0  0  0  0  0  0  0  0
    4.5981   -0.5223    0.0000 C   0  0  0  0  0  0  0  0  0  0  0  0
    5.4641    1.9777    0.0000 C   0  0  0  0  0  0  0  0  0  0  0  0
    2.8660    0.4777    0.0000 C   0  0  0  0  0  0  0  0  0  0  0  0
    4.5981    2.4777    0.0000 C   0  0  0  0  0  0  0  0  0  0  0  0
    6.3580    0.4431    0.0000 C   0  0  0  0  0  0  0  0  0  0  0  0
    6.3580    2.5124    0.0000 C   0  0  0  0  0  0  0  0  0  0  0  0
    2.8660    2.4777    0.0000 C   0  0  0  0  0  0  0  0  0  0  0  0
    3.7320   -1.0223    0.0000 C   0  0  0  0  0  0  0  0  0  0  0  0
    5.4641   -1.0223    0.0000 C   0  0  0  0  0  0  0  0  0  0  0  0
    7.2641    0.9569    0.0000 C   0  0  0  0  0  0  0  0  0  0  0  0
    7.2641    1.9985    0.0000 C   0  0  0  0  0  0  0  0  0  0  0  0
    5.4641   -2.0223    0.0000 C   0  0  0  0  0  0  0  0  0  0  0  0
    3.7320   -2.0223    0.0000 C   0  0  0  0  0  0  0  0  0  0  0  0
    4.5981   -2.5223    0.0000 C   0  0  0  0  0  0  0  0  0  0  0  0
    7.2067   -1.0669    0.0000 C   0  0  0  0  0  0  0  0  0  0  0  0
    7.2067    4.0223    0.0000 C   0  0  0  0  0  0  0  0  0  0  0  0
    2.0000   -1.0223    0.0000 C   0  0  0  0  0  0  0  0  0  0  0  0
    8.9962    0.9502    0.0000 C   0  0  0  0  0  0  0  0  0  0  0  0
    6.3301   -3.5223    0.0000 C   0  0  0  0  0  0  0  0  0  0  0  0
    3.7320   -4.0223    0.0000 C   0  0  0  0  0  0  0  0  0  0  0  0
    3.8620    0.0527    0.0000 H   0  0  0  0  0  0  0  0  0  0  0  0
    3.7320    0.3577    0.0000 H   0  0  0  0  0  0  0  0  0  0  0  0
    2.5560    1.0146    0.0000 H   0  0  0  0  0  0  0  0  0  0  0  0
    2.3291    0.1677    0.0000 H   0  0  0  0  0  0  0  0  0  0  0  0
    3.1760   -0.0592    0.0000 H   0  0  0  0  0  0  0  0  0  0  0  0
    4.5981    3.0977    0.0000 H   0  0  0  0  0  0  0  0  0  0  0  0
    3.1760    3.0146    0.0000 H   0  0  0  0  0  0  0  0  0  0  0  0
    2.3291    2.7877    0.0000 H   0  0  0  0  0  0  0  0  0  0  0  0
    2.5560    1.9408    0.0000 H   0  0  0  0  0  0  0  0  0  0  0  0
    6.0010   -0.7123    0.0000 H   0  0  0  0  0  0  0  0  0  0  0  0
    7.7998    2.3106    0.0000 H   0  0  0  0  0  0  0  0  0  0  0  0
    3.1951   -2.3323    0.0000 H   0  0  0  0  0  0  0  0  0  0  0  0
    6.8905   -1.6002    0.0000 H   0  0  0  0  0  0  0  0  0  0  0  0
    7.7400   -1.3830    0.0000 H   0  0  0  0  0  0  0  0  0  0  0  0
    7.5228   -0.5335    0.0000 H   0  0  0  0  0  0  0  0  0  0  0  0
    7.5228    3.4890    0.0000 H   0  0  0  0  0  0  0  0  0  0  0  0
    7.7400    4.3385    0.0000 H   0  0  0  0  0  0  0  0  0  0  0  0
    6.8905    4.5556    0.0000 H   0  0  0  0  0  0  0  0  0  0  0  0
    1.6900   -0.4854    0.0000 H   0  0  0  0  0  0  0  0  0  0  0  0
    1.4631   -1.3323    0.0000 H   0  0  0  0  0  0  0  0  0  0  0  0
    2.3100   -1.5592    0.0000 H   0  0  0  0  0  0  0  0  0  0  0  0
    9.3041    0.4121    0.0000 H   0  0  0  0  0  0  0  0  0  0  0  0
    9.5343    1.2582    0.0000 H   0  0  0  0  0  0  0  0  0  0  0  0
    8.6882    1.4884    0.0000 H   0  0  0  0  0  0  0  0  0  0  0  0
    5.7101   -3.5223    0.0000 H   0  0  0  0  0  0  0  0  0  0  0  0
    6.3301   -4.1423    0.0000 H   0  0  0  0  0  0  0  0  0  0  0  0
    6.9501   -3.5223    0.0000 H   0  0  0  0  0  0  0  0  0  0  0  0
    3.4220   -3.4854    0.0000 H   0  0  0  0  0  0  0  0  0  0  0  0
    3.1951   -4.3323    0.0000 H   0  0  0  0  0  0  0  0  0  0  0  0
    4.0420   -4.5592    0.0000 H   0  0  0  0  0  0  0  0  0  0  0  0
  1 15  1  0  0  0  0
  1 25  1  0  0  0  0
  2 16  1  0  0  0  0
  2 26  1  0  0  0  0
  3 18  1  0  0  0  0
  3 27  1  0  0  0  0
  4 20  1  0  0  0  0
  4 28  1  0  0  0  0
  5 22  1  0  0  0  0
  5 29  1  0  0  0  0
  6 24  1  0  0  0  0
  6 30  1  0  0  0  0
  7  8  1  0  0  0  0
  7  9  1  0  0  0  0
  7 11  1  0  0  0  0
  7 31  1  1  0  0  0
  8 10  1  0  0  0  0
  8 13  1  1  0  0  0
  8 32  1  0  0  0  0
  9 12  2  0  0  0  0
  9 15  1  0  0  0  0
 10 14  2  0  0  0  0
 10 17  1  0  0  0  0
 11 18  1  0  0  0  0
 11 19  2  0  0  0  0
 12 14  1  0  0  0  0
 12 16  1  0  0  0  0
 13 33  1  0  0  0  0
 13 34  1  0  0  0  0
 13 35  1  0  0  0  0
 14 36  1  0  0  0  0
 15 20  2  0  0  0  0
 16 21  2  0  0  0  0
 17 37  1  0  0  0  0
 17 38  1  0  0  0  0
 17 39  1  0  0  0  0
 18 23  2  0  0  0  0
 19 22  1  0  0  0  0
 19 40  1  0  0  0  0
 20 21  1  0  0  0  0
 21 41  1  0  0  0  0
 22 24  2  0  0  0  0
 23 24  1  0  0  0  0
 23 42  1  0  0  0  0
 25 43  1  0  0  0  0
 25 44  1  0  0  0  0
 25 45  1  0  0  0  0
 26 46  1  0  0  0  0
 26 47  1  0  0  0  0
 26 48  1  0  0  0  0
 27 49  1  0  0  0  0
 27 50  1  0  0  0  0
 27 51  1  0  0  0  0
 28 52  1  0  0  0  0
 28 53  1  0  0  0  0
 28 54  1  0  0  0  0
 29 55  1  0  0  0  0
 29 56  1  0  0  0  0
 29 57  1  0  0  0  0
 30 58  1  0  0  0  0
 30 59  1  0  0  0  0
 30 60  1  0  0  0  0
M  END
> <PUBCHEM_COMPOUND_CID>
442896

> <PUBCHEM_COMPOUND_CANONICALIZED>
1

> <PUBCHEM_CACTVS_COMPLEXITY>
580

> <PUBCHEM_CACTVS_HBOND_ACCEPTOR>
6

> <PUBCHEM_CACTVS_HBOND_DONOR>
0

> <PUBCHEM_CACTVS_ROTATABLE_BOND>
7

> <PUBCHEM_CACTVS_SUBSKEYS>
AAADceB4OAAAAAAAAAAAAAAAAAAAAAAAAAAwYIAAAAAAAACBQAAAGgAAAAAADQSAmAIyBoAABACAAiBCAAACCAAgIAAAiAAGiIgNJyKEMRqAMCIlwBUKqAfA4PwOoQABCAAYQABCAAIQADCAAAAAAAAAAA==

> <PUBCHEM_IUPAC_OPENEYE_NAME>
(1S,2R)-5,7,8-trimethoxy-2,3-dimethyl-1-(2,4,5-trimethoxyphenyl)-1,2-dihydronaphthalene

> <PUBCHEM_IUPAC_CAS_NAME>
(1S,2R)-5,7,8-trimethoxy-2,3-dimethyl-1-(2,4,5-trimethoxyphenyl)-1,2-dihydronaphthalene

> <PUBCHEM_IUPAC_NAME>
(1S,2R)-5,7,8-trimethoxy-2,3-dimethyl-1-(2,4,5-trimethoxyphenyl)-1,2-dihydronaphthalene

> <PUBCHEM_IUPAC_SYSTEMATIC_NAME>
(1S,2R)-5,7,8-trimethoxy-2,3-dimethyl-1-(2,4,5-trimethoxyphenyl)-1,2-dihydronaphthalene

> <PUBCHEM_IUPAC_TRADITIONAL_NAME>
(1S,2R)-1-asaryl-5,7,8-trimethoxy-2,3-dimethyl-1,2-dihydronaphthalene

> <PUBCHEM_IUPAC_INCHI>
InChI=1S/C24H30O6/c1-13-9-15-18(26-4)12-21(29-7)24(30-8)23(15)22(14(13)2)16-10-19(27-5)20(28-6)11-17(16)25-3/h9-12,14,22H,1-8H3/t14-,22-/m0/s1

> <PUBCHEM_IUPAC_INCHIKEY>
MWJAXRZVJODRGN-FPTDNZKUSA-N

> <PUBCHEM_XLOGP3_AA>
4.5

> <PUBCHEM_EXACT_MASS>
414.204239

> <PUBCHEM_MOLECULAR_FORMULA>
C24H30O6

> <PUBCHEM_MOLECULAR_WEIGHT>
414.4914

> <PUBCHEM_OPENEYE_CAN_SMILES>
CC1C(C2=C(C=C1C)C(=CC(=C2OC)OC)OC)C3=CC(=C(C=C3OC)OC)OC

> <PUBCHEM_OPENEYE_ISO_SMILES>
C[C@@H]1[C@H](C2=C(C=C1C)C(=CC(=C2OC)OC)OC)C3=CC(=C(C=C3OC)OC)OC

> <PUBCHEM_CACTVS_TPSA>
55.4

> <PUBCHEM_MONOISOTOPIC_WEIGHT>
414.204239

> <PUBCHEM_TOTAL_CHARGE>
0

> <PUBCHEM_HEAVY_ATOM_COUNT>
30

> <PUBCHEM_ATOM_DEF_STEREO_COUNT>
2

> <PUBCHEM_ATOM_UDEF_STEREO_COUNT>
0

> <PUBCHEM_BOND_DEF_STEREO_COUNT>
0

> <PUBCHEM_BOND_UDEF_STEREO_COUNT>
0

> <PUBCHEM_ISOTOPIC_ATOM_COUNT>
0

> <PUBCHEM_COMPONENT_COUNT>
1

> <PUBCHEM_CACTVS_TAUTO_COUNT>
1

> <PUBCHEM_COORDINATE_TYPE>
1
5
255

> <PUBCHEM_BONDANNOTATIONS>
11  18  8
11  19  8
12  16  8
15  20  8
16  21  8
18  23  8
19  22  8
20  21  8
22  24  8
23  24  8
7  31  5
8  13  5
9  12  8
9  15  8

$$$$

