8754
  -OEChem-06261203043D

 60 60  0     0  0  0  0  0  0999 V2000
    3.7504   -0.5783   -0.8953 N   0  3  0  0  0  0  0  0  0  0  0  0
    3.0429   -1.2534    0.2174 C   0  0  0  0  0  0  0  0  0  0  0  0
    2.5303   -2.6194   -0.2216 C   0  0  0  0  0  0  0  0  0  0  0  0
    4.2758    0.7967   -0.4564 C   0  0  0  0  0  0  0  0  0  0  0  0
    1.7312   -3.4009    0.8280 C   0  0  0  0  0  0  0  0  0  0  0  0
    2.8126   -0.3680   -2.0932 C   0  0  0  0  0  0  0  0  0  0  0  0
    4.9479   -1.4145   -1.3707 C   0  0  0  0  0  0  0  0  0  0  0  0
    0.4921   -2.6934    1.3846 C   0  0  0  0  0  0  0  0  0  0  0  0
   -0.5089   -2.2781    0.3034 C   0  0  0  0  0  0  0  0  0  0  0  0
   -1.7649   -1.6592    0.9228 C   0  0  0  0  0  0  0  0  0  0  0  0
    3.1919    1.7115    0.0326 C   0  0  0  0  0  0  0  0  0  0  0  0
   -2.8156   -1.2488   -0.1129 C   0  0  0  0  0  0  0  0  0  0  0  0
   -4.0604   -0.6078    0.5046 C   0  0  0  0  0  0  0  0  0  0  0  0
   -5.1059   -0.2850   -0.5655 C   0  0  0  0  0  0  0  0  0  0  0  0
    2.5333    2.5538   -0.8632 C   0  0  0  0  0  0  0  0  0  0  0  0
    2.8423    1.7194    1.3830 C   0  0  0  0  0  0  0  0  0  0  0  0
   -6.3668    0.3205    0.0536 C   0  0  0  0  0  0  0  0  0  0  0  0
   -7.3979    0.6738   -1.0179 C   0  0  0  0  0  0  0  0  0  0  0  0
    1.5254    3.4042   -0.4088 C   0  0  0  0  0  0  0  0  0  0  0  0
    1.8343    2.5698    1.8374 C   0  0  0  0  0  0  0  0  0  0  0  0
    1.1758    3.4122    0.9415 C   0  0  0  0  0  0  0  0  0  0  0  0
   -8.6660    1.2449   -0.4036 C   0  0  0  0  0  0  0  0  0  0  0  0
    3.7305   -1.3481    1.0661 H   0  0  0  0  0  0  0  0  0  0  0  0
    2.1873   -0.6427    0.5131 H   0  0  0  0  0  0  0  0  0  0  0  0
    3.3698   -3.2702   -0.4894 H   0  0  0  0  0  0  0  0  0  0  0  0
    1.9008   -2.5496   -1.1132 H   0  0  0  0  0  0  0  0  0  0  0  0
    4.8088    1.2424   -1.3062 H   0  0  0  0  0  0  0  0  0  0  0  0
    5.0185    0.6205    0.3326 H   0  0  0  0  0  0  0  0  0  0  0  0
    2.3948   -3.6439    1.6674 H   0  0  0  0  0  0  0  0  0  0  0  0
    1.4255   -4.3594    0.3899 H   0  0  0  0  0  0  0  0  0  0  0  0
    2.6770   -1.3182   -2.6174 H   0  0  0  0  0  0  0  0  0  0  0  0
    3.2844    0.3357   -2.7860 H   0  0  0  0  0  0  0  0  0  0  0  0
    1.8472    0.0048   -1.7408 H   0  0  0  0  0  0  0  0  0  0  0  0
    5.5307   -0.8064   -2.0700 H   0  0  0  0  0  0  0  0  0  0  0  0
    4.5958   -2.3087   -1.8902 H   0  0  0  0  0  0  0  0  0  0  0  0
    5.5552   -1.6737   -0.4986 H   0  0  0  0  0  0  0  0  0  0  0  0
    0.7962   -1.8137    1.9641 H   0  0  0  0  0  0  0  0  0  0  0  0
    0.0003   -3.3725    2.0923 H   0  0  0  0  0  0  0  0  0  0  0  0
   -0.0556   -1.5487   -0.3767 H   0  0  0  0  0  0  0  0  0  0  0  0
   -0.7885   -3.1532   -0.2950 H   0  0  0  0  0  0  0  0  0  0  0  0
   -1.4794   -0.7784    1.5114 H   0  0  0  0  0  0  0  0  0  0  0  0
   -2.2151   -2.3749    1.6219 H   0  0  0  0  0  0  0  0  0  0  0  0
   -3.1108   -2.1355   -0.6877 H   0  0  0  0  0  0  0  0  0  0  0  0
   -2.3640   -0.5465   -0.8247 H   0  0  0  0  0  0  0  0  0  0  0  0
   -4.4927   -1.2913    1.2452 H   0  0  0  0  0  0  0  0  0  0  0  0
   -3.7765    0.3084    1.0361 H   0  0  0  0  0  0  0  0  0  0  0  0
   -5.3696   -1.1989   -1.1115 H   0  0  0  0  0  0  0  0  0  0  0  0
   -4.6794    0.4155   -1.2939 H   0  0  0  0  0  0  0  0  0  0  0  0
    2.8010    2.5705   -1.9160 H   0  0  0  0  0  0  0  0  0  0  0  0
    3.3512    1.0751    2.0949 H   0  0  0  0  0  0  0  0  0  0  0  0
   -6.1030    1.2224    0.6195 H   0  0  0  0  0  0  0  0  0  0  0  0
   -6.8033   -0.3911    0.7651 H   0  0  0  0  0  0  0  0  0  0  0  0
   -6.9741    1.4051   -1.7159 H   0  0  0  0  0  0  0  0  0  0  0  0
   -7.6524   -0.2201   -1.5992 H   0  0  0  0  0  0  0  0  0  0  0  0
    1.0146    4.0622   -1.1057 H   0  0  0  0  0  0  0  0  0  0  0  0
    1.5632    2.5772    2.8891 H   0  0  0  0  0  0  0  0  0  0  0  0
    0.3916    4.0749    1.2955 H   0  0  0  0  0  0  0  0  0  0  0  0
   -9.1330    0.5235    0.2745 H   0  0  0  0  0  0  0  0  0  0  0  0
   -9.3890    1.4915   -1.1874 H   0  0  0  0  0  0  0  0  0  0  0  0
   -8.4516    2.1583    0.1605 H   0  0  0  0  0  0  0  0  0  0  0  0
  1  2  1  0  0  0  0
  1  4  1  0  0  0  0
  1  6  1  0  0  0  0
  1  7  1  0  0  0  0
  2  3  1  0  0  0  0
  2 23  1  0  0  0  0
  2 24  1  0  0  0  0
  3  5  1  0  0  0  0
  3 25  1  0  0  0  0
  3 26  1  0  0  0  0
  4 11  1  0  0  0  0
  4 27  1  0  0  0  0
  4 28  1  0  0  0  0
  5  8  1  0  0  0  0
  5 29  1  0  0  0  0
  5 30  1  0  0  0  0
  6 31  1  0  0  0  0
  6 32  1  0  0  0  0
  6 33  1  0  0  0  0
  7 34  1  0  0  0  0
  7 35  1  0  0  0  0
  7 36  1  0  0  0  0
  8  9  1  0  0  0  0
  8 37  1  0  0  0  0
  8 38  1  0  0  0  0
  9 10  1  0  0  0  0
  9 39  1  0  0  0  0
  9 40  1  0  0  0  0
 10 12  1  0  0  0  0
 10 41  1  0  0  0  0
 10 42  1  0  0  0  0
 11 15  2  0  0  0  0
 11 16  1  0  0  0  0
 12 13  1  0  0  0  0
 12 43  1  0  0  0  0
 12 44  1  0  0  0  0
 13 14  1  0  0  0  0
 13 45  1  0  0  0  0
 13 46  1  0  0  0  0
 14 17  1  0  0  0  0
 14 47  1  0  0  0  0
 14 48  1  0  0  0  0
 15 19  1  0  0  0  0
 15 49  1  0  0  0  0
 16 20  2  0  0  0  0
 16 50  1  0  0  0  0
 17 18  1  0  0  0  0
 17 51  1  0  0  0  0
 17 52  1  0  0  0  0
 18 22  1  0  0  0  0
 18 53  1  0  0  0  0
 18 54  1  0  0  0  0
 19 21  2  0  0  0  0
 19 55  1  0  0  0  0
 20 21  1  0  0  0  0
 20 56  1  0  0  0  0
 21 57  1  0  0  0  0
 22 58  1  0  0  0  0
 22 59  1  0  0  0  0
 22 60  1  0  0  0  0
M  CHG  1   1   1
M  END
> <PUBCHEM_COMPOUND_CID>
8754

> <PUBCHEM_CONFORMER_RMSD>
1.4

> <PUBCHEM_CONFORMER_DIVERSEORDER>
1
49
39
11
30
33
52
17
68
62
3
35
81
18
48
6
87
9
41
16
38
54
22
25
79
86
83
24
77
56
27
31
44
65
82
32
50
67
78
5
69
61
10
85
74
84
73
14
57
53
7
55
70
13
51
46
71
58
66
72
28
8
29
19
36
76
47
34
43
64
63
26
75
60
21
42
37
4
12
15
59
2
40
20
80
23
45

> <PUBCHEM_MMFF94_PARTIAL_CHARGES>
16
1 -1.01
11 -0.14
15 -0.15
16 -0.15
19 -0.15
2 0.5
20 -0.15
21 -0.15
4 0.65
49 0.15
50 0.15
55 0.15
56 0.15
57 0.15
6 0.5
7 0.5

> <PUBCHEM_EFFECTIVE_ROTOR_COUNT>
13

> <PUBCHEM_PHARMACOPHORE_FEATURES>
3
1 1 cation
1 22 hydrophobe
6 11 15 16 19 20 21 rings

> <PUBCHEM_HEAVY_ATOM_COUNT>
22

> <PUBCHEM_ATOM_DEF_STEREO_COUNT>
0

> <PUBCHEM_ATOM_UDEF_STEREO_COUNT>
0

> <PUBCHEM_BOND_DEF_STEREO_COUNT>
0

> <PUBCHEM_BOND_UDEF_STEREO_COUNT>
0

> <PUBCHEM_ISOTOPIC_ATOM_COUNT>
0

> <PUBCHEM_COMPONENT_COUNT>
1

> <PUBCHEM_CACTVS_TAUTO_COUNT>
1

> <PUBCHEM_CONFORMER_ID>
0000223200000001

> <PUBCHEM_MMFF94_ENERGY>
41.023

> <PUBCHEM_FEATURE_SELFOVERLAP>
15.223

> <PUBCHEM_SHAPE_FINGERPRINT>
10638233 991 18261392291641949529
10675989 125 18409729526157915897
1200032 147 16701440283276644348
12769317 202 18342179963868361603
12778500 126 14979688726946137333
13878862 14 18129402517354511727
14251764 38 17978794510514703311
14931854 50 18336811061822610092
15183329 4 17167858661215297025
15210252 30 18201427070113981676
15322687 12 18413107247315551299
15326921 28 16818004785073738848
17093844 170 18338798893120804440
18335252 114 18338519745889852327
20567600 9 18410576197740220985
21315763 76 18335419062958886675
21315764 21 18340760434264128665
21344244 78 17840328909709749978
21475661 188 18342177700531132511
21860390 5 18260821575675890494
221357 26 18336825393869929247
22289505 5 18334850585530215724
22956985 138 10356006040650158294
238 59 17608073283653732986
24893992 56 18343865507289571187
3014063 31 18411135874300957761
44317340 157 18333731287421013343
5047190 2 18189606328189272745
513532 50 18040725748768985162
5312510 48 18412263935282952665
54672768 99 18052250700992406456

> <PUBCHEM_SHAPE_MULTIPOLES>
447.77
16.06
4.5
1.51
50.86
1.05
0.05
5.15
6.44
-5.01
-1.55
-1.38
0.19
1.37

> <PUBCHEM_SHAPE_SELFOVERLAP>
860.399

> <PUBCHEM_SHAPE_VOLUME>
274.4

> <PUBCHEM_COORDINATE_TYPE>
2
5
10

$$$$

