446576
  -OEChem-07051213082D

 23 24  0     1  0  0  0  0  0999 V2000
    5.8605   -0.9963    0.0000 O   0  0  0  0  0  0  0  0  0  0  0  0
    3.9632    0.6175    0.0000 O   0  0  0  0  0  0  0  0  0  0  0  0
    3.9632   -1.0006    0.0000 O   0  0  0  0  0  0  0  0  0  0  0  0
    4.9143    1.3084    0.0000 O   0  0  0  0  0  0  0  0  0  0  0  0
    6.1711    1.5637    0.0000 O   0  0  0  0  0  0  0  0  0  0  0  0
    2.5664   -0.7793    0.0000 O   0  0  0  0  0  0  0  0  0  0  0  0
    2.5664    0.3962    0.0000 O   0  0  0  0  0  0  0  0  0  0  0  0
    4.9143    0.3084    0.0000 C   0  0  1  0  0  0  0  0  0  0  0  0
    4.9143   -0.6916    0.0000 C   0  0  2  0  0  0  0  0  0  0  0  0
    5.8605    0.6132    0.0000 C   0  0  2  0  0  0  0  0  0  0  0  0
    6.4441   -0.1916    0.0000 C   0  0  0  0  0  0  0  0  0  0  0  0
    4.9143   -1.6916    0.0000 C   0  0  0  0  0  0  0  0  0  0  0  0
    3.3754   -0.1916    0.0000 B   0  5  0  0  0  0  0  0  0  0  0  0
    5.4230    1.0525    0.0000 H   0  0  0  0  0  0  0  0  0  0  0  0
    6.9050   -0.6063    0.0000 H   0  0  0  0  0  0  0  0  0  0  0  0
    6.9050    0.2232    0.0000 H   0  0  0  0  0  0  0  0  0  0  0  0
    4.2943   -1.6916    0.0000 H   0  0  0  0  0  0  0  0  0  0  0  0
    4.9143   -2.3116    0.0000 H   0  0  0  0  0  0  0  0  0  0  0  0
    5.5343   -1.6916    0.0000 H   0  0  0  0  0  0  0  0  0  0  0  0
    4.3773    1.6184    0.0000 H   0  0  0  0  0  0  0  0  0  0  0  0
    6.7778    1.6916    0.0000 H   0  0  0  0  0  0  0  0  0  0  0  0
    2.0000   -0.5272    0.0000 H   0  0  0  0  0  0  0  0  0  0  0  0
    2.6312    1.0128    0.0000 H   0  0  0  0  0  0  0  0  0  0  0  0
  1  9  1  0  0  0  0
  1 11  1  0  0  0  0
  2  8  1  0  0  0  0
  2 13  1  0  0  0  0
  3  9  1  0  0  0  0
  3 13  1  0  0  0  0
  8  4  1  1  0  0  0
  4 20  1  0  0  0  0
 10  5  1  1  0  0  0
  5 21  1  0  0  0  0
  6 13  1  0  0  0  0
  6 22  1  0  0  0  0
  7 13  1  0  0  0  0
  7 23  1  0  0  0  0
  8  9  1  0  0  0  0
  8 10  1  0  0  0  0
  9 12  1  1  0  0  0
 10 11  1  0  0  0  0
 10 14  1  0  0  0  0
 11 15  1  0  0  0  0
 11 16  1  0  0  0  0
 12 17  1  0  0  0  0
 12 18  1  0  0  0  0
 12 19  1  0  0  0  0
M  CHG  1  13  -1
M  END
> <PUBCHEM_COMPOUND_CID>
446576

> <PUBCHEM_COMPOUND_CANONICALIZED>
1

> <PUBCHEM_CACTVS_COMPLEXITY>
245

> <PUBCHEM_CACTVS_HBOND_ACCEPTOR>
8

> <PUBCHEM_CACTVS_HBOND_DONOR>
4

> <PUBCHEM_CACTVS_ROTATABLE_BOND>
0

> <PUBCHEM_CACTVS_SUBSKEYS>
AAADccJgOAAAAAAAAAAAAAAAAAAAASJAAAAAAAAAAAASAAAAAAAIGgAACAAACBSggAICCAAABgAAAAAAAAAAAAAAAAAAAAAAAAAREAIAAAACQAAFAAAHAADAAAAAAAAAAAAAAAAAAAAAAAAAAAAAAAAAAA==

> <PUBCHEM_IUPAC_OPENEYE_NAME>
(1S,4S,5R)-7,7-dihydroxy-1-methyl-2,6,8-trioxa-7-boranuidabicyclo[3.3.0]octane-4,5-diol

> <PUBCHEM_IUPAC_CAS_NAME>
(1S,4S,5R)-7,7-dihydroxy-1-methyl-2,6,8-trioxa-7-boranuidabicyclo[3.3.0]octane-4,5-diol

> <PUBCHEM_IUPAC_NAME>
(1S,4S,5R)-7,7-dihydroxy-1-methyl-2,6,8-trioxa-7-boranuidabicyclo[3.3.0]octane-4,5-diol

> <PUBCHEM_IUPAC_SYSTEMATIC_NAME>
(1S,4S,5R)-1-methyl-7,7-bis(oxidanyl)-2,6,8-trioxa-7-boranuidabicyclo[3.3.0]octane-4,5-diol

> <PUBCHEM_IUPAC_TRADITIONAL_NAME>
(1S,4S,5R)-7,7-dihydroxy-1-methyl-2,6,8-trioxa-7-boranuidabicyclo[3.3.0]octane-4,5-diol

> <PUBCHEM_IUPAC_INCHI>
InChI=1S/C5H10BO7/c1-4-5(8,3(7)2-11-4)13-6(9,10)12-4/h3,7-10H,2H2,1H3/q-1/t3-,4+,5+/m0/s1

> <PUBCHEM_IUPAC_INCHIKEY>
ACKRRKSNOOISSG-VPENINKCSA-N

> <PUBCHEM_EXACT_MASS>
193.051958

> <PUBCHEM_MOLECULAR_FORMULA>
C5H10BO7-

> <PUBCHEM_MOLECULAR_WEIGHT>
192.9397

> <PUBCHEM_OPENEYE_CAN_SMILES>
[B-]1(OC2(C(O1)(C(CO2)O)O)C)(O)O

> <PUBCHEM_OPENEYE_ISO_SMILES>
[B-]1(O[C@@]2([C@](O1)([C@H](CO2)O)O)C)(O)O

> <PUBCHEM_CACTVS_TPSA>
109

> <PUBCHEM_MONOISOTOPIC_WEIGHT>
193.051958

> <PUBCHEM_TOTAL_CHARGE>
-1

> <PUBCHEM_HEAVY_ATOM_COUNT>
13

> <PUBCHEM_ATOM_DEF_STEREO_COUNT>
3

> <PUBCHEM_ATOM_UDEF_STEREO_COUNT>
0

> <PUBCHEM_BOND_DEF_STEREO_COUNT>
0

> <PUBCHEM_BOND_UDEF_STEREO_COUNT>
0

> <PUBCHEM_ISOTOPIC_ATOM_COUNT>
0

> <PUBCHEM_COMPONENT_COUNT>
1

> <PUBCHEM_CACTVS_TAUTO_COUNT>
1

> <PUBCHEM_COORDINATE_TYPE>
1
5
255

> <PUBCHEM_BONDANNOTATIONS>
8  4  5
10  5  5
9  12  5

$$$$

