585202
  -OEChem-06241222453D

 46 48  0     1  0  0  0  0  0999 V2000
   -3.6542   -1.2285   -1.4927 S   0  0  0  0  0  0  0  0  0  0  0  0
   -1.4294    0.6182    1.6794 O   0  0  0  0  0  0  0  0  0  0  0  0
   -0.3039   -3.1799    0.2801 O   0  0  0  0  0  0  0  0  0  0  0  0
   -0.8016   -1.4638    2.3990 O   0  0  0  0  0  0  0  0  0  0  0  0
    4.5048    0.8016   -0.4584 O   0  0  0  0  0  0  0  0  0  0  0  0
   -1.5400    0.1804   -0.6094 N   0  0  2  0  0  0  0  0  0  0  0  0
   -1.5072   -1.1156    0.0818 C   0  0  1  0  0  0  0  0  0  0  0  0
   -1.9111    1.1271    0.4344 C   0  0  2  0  0  0  0  0  0  0  0  0
   -1.2688    2.4838    0.1866 C   0  0  0  0  0  0  0  0  0  0  0  0
   -2.8893   -1.7802    0.0460 C   0  0  0  0  0  0  0  0  0  0  0  0
   -0.3958   -1.9939   -0.4911 C   0  0  1  0  0  0  0  0  0  0  0  0
   -2.4733    0.1186   -1.7317 C   0  0  0  0  0  0  0  0  0  0  0  0
   -1.1867   -0.7167    1.5127 C   0  0  0  0  0  0  0  0  0  0  0  0
   -1.5638    3.4285    1.3665 C   0  0  0  0  0  0  0  0  0  0  0  0
    0.2562    2.3250    0.0413 C   0  0  0  0  0  0  0  0  0  0  0  0
   -1.8330    3.1045   -1.1050 C   0  0  0  0  0  0  0  0  0  0  0  0
    0.9089   -1.2492   -0.4822 C   0  0  0  0  0  0  0  0  0  0  0  0
    1.2667   -0.4780   -1.5809 C   0  0  0  0  0  0  0  0  0  0  0  0
    1.7437   -1.3409    0.6247 C   0  0  0  0  0  0  0  0  0  0  0  0
    2.4786    0.2126   -1.5728 C   0  0  0  0  0  0  0  0  0  0  0  0
    2.9555   -0.6502    0.6328 C   0  0  0  0  0  0  0  0  0  0  0  0
    3.3230    0.1266   -0.4659 C   0  0  0  0  0  0  0  0  0  0  0  0
    5.3205    0.6700    0.7048 C   0  0  0  0  0  0  0  0  0  0  0  0
   -3.0006    1.2263    0.5401 H   0  0  0  0  0  0  0  0  0  0  0  0
   -2.8599   -2.8719    0.0693 H   0  0  0  0  0  0  0  0  0  0  0  0
   -3.5272   -1.4507    0.8739 H   0  0  0  0  0  0  0  0  0  0  0  0
   -0.6178   -2.3014   -1.5216 H   0  0  0  0  0  0  0  0  0  0  0  0
   -3.0464    1.0299   -1.9055 H   0  0  0  0  0  0  0  0  0  0  0  0
   -1.9154   -0.0908   -2.6498 H   0  0  0  0  0  0  0  0  0  0  0  0
   -1.1161    3.0678    2.2990 H   0  0  0  0  0  0  0  0  0  0  0  0
   -1.1612    4.4310    1.1809 H   0  0  0  0  0  0  0  0  0  0  0  0
   -2.6428    3.5310    1.5280 H   0  0  0  0  0  0  0  0  0  0  0  0
    0.5139    1.9259   -0.9382 H   0  0  0  0  0  0  0  0  0  0  0  0
    0.6960    1.7071    0.8290 H   0  0  0  0  0  0  0  0  0  0  0  0
    0.7463    3.3050    0.0980 H   0  0  0  0  0  0  0  0  0  0  0  0
   -2.9278    3.1388   -1.0905 H   0  0  0  0  0  0  0  0  0  0  0  0
   -1.4860    4.1403   -1.2091 H   0  0  0  0  0  0  0  0  0  0  0  0
   -1.4970    2.5880   -2.0093 H   0  0  0  0  0  0  0  0  0  0  0  0
   -0.9820   -3.8001   -0.0355 H   0  0  0  0  0  0  0  0  0  0  0  0
    0.6272   -0.4110   -2.4563 H   0  0  0  0  0  0  0  0  0  0  0  0
    1.4991   -1.9526    1.4869 H   0  0  0  0  0  0  0  0  0  0  0  0
    2.7604    0.8144   -2.4324 H   0  0  0  0  0  0  0  0  0  0  0  0
    3.5655   -0.7640    1.5224 H   0  0  0  0  0  0  0  0  0  0  0  0
    6.2195    1.2727    0.5393 H   0  0  0  0  0  0  0  0  0  0  0  0
    5.6510   -0.3642    0.8495 H   0  0  0  0  0  0  0  0  0  0  0  0
    4.8231    1.0749    1.5928 H   0  0  0  0  0  0  0  0  0  0  0  0
  1 10  1  0  0  0  0
  1 12  1  0  0  0  0
  2  8  1  0  0  0  0
  2 13  1  0  0  0  0
  3 11  1  0  0  0  0
  3 39  1  0  0  0  0
  4 13  2  0  0  0  0
  5 22  1  0  0  0  0
  5 23  1  0  0  0  0
  6  7  1  0  0  0  0
  6  8  1  0  0  0  0
  6 12  1  0  0  0  0
  7 10  1  0  0  0  0
  7 11  1  0  0  0  0
  7 13  1  0  0  0  0
  8  9  1  0  0  0  0
  8 24  1  0  0  0  0
  9 14  1  0  0  0  0
  9 15  1  0  0  0  0
  9 16  1  0  0  0  0
 10 25  1  0  0  0  0
 10 26  1  0  0  0  0
 11 17  1  0  0  0  0
 11 27  1  0  0  0  0
 12 28  1  0  0  0  0
 12 29  1  0  0  0  0
 14 30  1  0  0  0  0
 14 31  1  0  0  0  0
 14 32  1  0  0  0  0
 15 33  1  0  0  0  0
 15 34  1  0  0  0  0
 15 35  1  0  0  0  0
 16 36  1  0  0  0  0
 16 37  1  0  0  0  0
 16 38  1  0  0  0  0
 17 18  2  0  0  0  0
 17 19  1  0  0  0  0
 18 20  1  0  0  0  0
 18 40  1  0  0  0  0
 19 21  2  0  0  0  0
 19 41  1  0  0  0  0
 20 22  2  0  0  0  0
 20 42  1  0  0  0  0
 21 22  1  0  0  0  0
 21 43  1  0  0  0  0
 23 44  1  0  0  0  0
 23 45  1  0  0  0  0
 23 46  1  0  0  0  0
M  END
> <PUBCHEM_COMPOUND_CID>
585202

> <PUBCHEM_CONFORMER_RMSD>
0.8

> <PUBCHEM_CONFORMER_DIVERSEORDER>
4
8
11
23
2
21
9
22
17
24
14
19
7
5
25
13
12
16
1
20
3
15
18
6
10

> <PUBCHEM_MMFF94_PARTIAL_CHARGES>
24
1 -0.46
10 0.23
11 0.42
12 0.5
13 0.66
17 -0.14
18 -0.15
19 -0.15
2 -0.43
20 -0.15
21 -0.15
22 0.08
23 0.28
3 -0.68
39 0.4
4 -0.57
40 0.15
41 0.15
42 0.15
43 0.15
5 -0.36
6 -0.81
7 0.33
8 0.55

> <PUBCHEM_EFFECTIVE_ROTOR_COUNT>
5

> <PUBCHEM_PHARMACOPHORE_FEATURES>
9
1 3 acceptor
1 3 donor
1 4 acceptor
1 5 acceptor
1 6 cation
4 9 14 15 16 hydrophobe
5 1 6 7 10 12 rings
5 2 6 7 8 13 rings
6 17 18 19 20 21 22 rings

> <PUBCHEM_HEAVY_ATOM_COUNT>
23

> <PUBCHEM_ATOM_DEF_STEREO_COUNT>
0

> <PUBCHEM_ATOM_UDEF_STEREO_COUNT>
3

> <PUBCHEM_BOND_DEF_STEREO_COUNT>
0

> <PUBCHEM_BOND_UDEF_STEREO_COUNT>
0

> <PUBCHEM_ISOTOPIC_ATOM_COUNT>
0

> <PUBCHEM_COMPONENT_COUNT>
1

> <PUBCHEM_CACTVS_TAUTO_COUNT>
1

> <PUBCHEM_CONFORMER_ID>
0008EDF200000004

> <PUBCHEM_MMFF94_ENERGY>
80.5833

> <PUBCHEM_FEATURE_SELFOVERLAP>
46.058

> <PUBCHEM_SHAPE_FINGERPRINT>
10165383 225 17323746435414973760
10670039 82 18339064997032211348
10863032 1 17970360423158324790
10871710 139 18409720755644364380
10948715 1 17983018039756676005
11315181 36 18131073706588471516
11578080 2 16878810222204860185
11640471 11 18053110810715712053
11759241 127 17095519531474803020
12156800 1 16480562767853768340
12403814 3 17749112166521838215
12670546 56 18335710442726397482
12788726 201 18334302006479630313
13027679 85 18122621661130368309
13140716 1 18121773924864749682
13149001 5 17976839587910636839
133893 2 17544180594101560187
13965767 371 17769653436416264044
14142880 1 17894901953904182537
14817 1 6034053649701336587
15848702 105 18126862705523508485
16945 1 18411706456775410423
17357779 13 18114189583571219300
17492 54 18339660953012022247
18981168 100 18051950791657144678
192875 21 18130509652169306452
19765921 60 17916596482636011589
20510252 161 18410012134857532718
20600515 1 17679288685659401767
20715895 44 17986411072885023845
20905425 154 16966879750173885366
21524375 3 17765135560063997561
229495 10 17753873206969245475
2306618 200 17775283841750180998
23352939 185 18041283145471974425
23402539 116 18187652353564598526
23419403 2 17697304128399746699
23557571 272 18260550017372165710
23558518 356 18199742708040965178
23559900 14 18408893953713809198
238 59 17325476104523476401
350125 39 18048863384581730903
4340502 62 17344616274945343993
5845 1 10228606499927378629
7495541 125 17984419642900957359
81228 2 18338215150913828173
9981440 41 18340778129861671434

> <PUBCHEM_SHAPE_MULTIPOLES>
448.72
6.26
3.31
1.73
8.58
2.24
0.26
0.4
-1.09
-2.59
0.56
-0.64
-0.08
-0.32

> <PUBCHEM_SHAPE_SELFOVERLAP>
952.217

> <PUBCHEM_SHAPE_VOLUME>
257.3

> <PUBCHEM_COORDINATE_TYPE>
2
5
10

$$$$

