5319013
  -OEChem-07051213102D

 50 52  0     0  0  0  0  0  0999 V2000
    6.3301    1.7327    0.0000 O   0  0  0  0  0  0  0  0  0  0  0  0
    8.9282    2.2327    0.0000 O   0  0  0  0  0  0  0  0  0  0  0  0
    4.5981   -1.2673    0.0000 O   0  0  0  0  0  0  0  0  0  0  0  0
    8.0622   -1.2673    0.0000 O   0  0  0  0  0  0  0  0  0  0  0  0
    8.9282   -0.7673    0.0000 O   0  0  0  0  0  0  0  0  0  0  0  0
   12.4583    2.2568    0.0000 O   0  0  0  0  0  0  0  0  0  0  0  0
    5.4641    0.2327    0.0000 C   0  0  0  0  0  0  0  0  0  0  0  0
    7.1962    0.2327    0.0000 C   0  0  0  0  0  0  0  0  0  0  0  0
    6.3301    0.7327    0.0000 C   0  0  0  0  0  0  0  0  0  0  0  0
    4.5981    0.7327    0.0000 C   0  0  0  0  0  0  0  0  0  0  0  0
    8.0622    0.7327    0.0000 C   0  0  0  0  0  0  0  0  0  0  0  0
    5.4641   -0.7673    0.0000 C   0  0  0  0  0  0  0  0  0  0  0  0
    7.1962   -0.7673    0.0000 C   0  0  0  0  0  0  0  0  0  0  0  0
    6.3301   -1.2673    0.0000 C   0  0  0  0  0  0  0  0  0  0  0  0
    8.9282    0.2327    0.0000 C   0  0  0  0  0  0  0  0  0  0  0  0
    9.7942    0.7327    0.0000 C   0  0  0  0  0  0  0  0  0  0  0  0
    3.7320    0.2327    0.0000 C   0  0  0  0  0  0  0  0  0  0  0  0
    9.7942    1.7327    0.0000 C   0  0  0  0  0  0  0  0  0  0  0  0
    8.0622    1.7327    0.0000 C   0  0  0  0  0  0  0  0  0  0  0  0
    2.8660    0.7327    0.0000 C   0  0  0  0  0  0  0  0  0  0  0  0
   10.6882    0.1980    0.0000 C   0  0  0  0  0  0  0  0  0  0  0  0
   10.6882    2.2673    0.0000 C   0  0  0  0  0  0  0  0  0  0  0  0
   11.5942    0.7119    0.0000 C   0  0  0  0  0  0  0  0  0  0  0  0
   11.5942    1.7535    0.0000 C   0  0  0  0  0  0  0  0  0  0  0  0
    2.0000    0.2327    0.0000 C   0  0  0  0  0  0  0  0  0  0  0  0
    2.8660    1.7327    0.0000 C   0  0  0  0  0  0  0  0  0  0  0  0
    5.4641    2.2327    0.0000 C   0  0  0  0  0  0  0  0  0  0  0  0
    4.5981   -2.2673    0.0000 C   0  0  0  0  0  0  0  0  0  0  0  0
    4.9966    1.2076    0.0000 H   0  0  0  0  0  0  0  0  0  0  0  0
    4.1996    1.2076    0.0000 H   0  0  0  0  0  0  0  0  0  0  0  0
    6.3301   -1.8873    0.0000 H   0  0  0  0  0  0  0  0  0  0  0  0
    3.7320   -0.3873    0.0000 H   0  0  0  0  0  0  0  0  0  0  0  0
    7.5252    2.0427    0.0000 H   0  0  0  0  0  0  0  0  0  0  0  0
   10.6810   -0.4220    0.0000 H   0  0  0  0  0  0  0  0  0  0  0  0
   10.6810    2.8873    0.0000 H   0  0  0  0  0  0  0  0  0  0  0  0
   12.1300    0.3998    0.0000 H   0  0  0  0  0  0  0  0  0  0  0  0
    8.0622   -1.8873    0.0000 H   0  0  0  0  0  0  0  0  0  0  0  0
    1.6900    0.7696    0.0000 H   0  0  0  0  0  0  0  0  0  0  0  0
    3.4860    1.7327    0.0000 H   0  0  0  0  0  0  0  0  0  0  0  0
    2.8660    2.3527    0.0000 H   0  0  0  0  0  0  0  0  0  0  0  0
    2.2460    1.7327    0.0000 H   0  0  0  0  0  0  0  0  0  0  0  0
    1.4631   -0.0773    0.0000 H   0  0  0  0  0  0  0  0  0  0  0  0
    2.3100   -0.3043    0.0000 H   0  0  0  0  0  0  0  0  0  0  0  0
    5.7741    2.7696    0.0000 H   0  0  0  0  0  0  0  0  0  0  0  0
    4.9272    2.5427    0.0000 H   0  0  0  0  0  0  0  0  0  0  0  0
    5.1541    1.6957    0.0000 H   0  0  0  0  0  0  0  0  0  0  0  0
    3.9781   -2.2673    0.0000 H   0  0  0  0  0  0  0  0  0  0  0  0
    4.5981   -2.8873    0.0000 H   0  0  0  0  0  0  0  0  0  0  0  0
    5.2181   -2.2673    0.0000 H   0  0  0  0  0  0  0  0  0  0  0  0
   12.9965    1.9489    0.0000 H   0  0  0  0  0  0  0  0  0  0  0  0
  1  9  1  0  0  0  0
  1 27  1  0  0  0  0
  2 18  1  0  0  0  0
  2 19  1  0  0  0  0
  3 12  1  0  0  0  0
  3 28  1  0  0  0  0
  4 13  1  0  0  0  0
  4 37  1  0  0  0  0
  5 15  2  0  0  0  0
  6 24  1  0  0  0  0
  6 50  1  0  0  0  0
  7  9  1  0  0  0  0
  7 10  1  0  0  0  0
  7 12  2  0  0  0  0
  8  9  2  0  0  0  0
  8 11  1  0  0  0  0
  8 13  1  0  0  0  0
 10 17  1  0  0  0  0
 10 29  1  0  0  0  0
 10 30  1  0  0  0  0
 11 15  1  0  0  0  0
 11 19  2  0  0  0  0
 12 14  1  0  0  0  0
 13 14  2  0  0  0  0
 14 31  1  0  0  0  0
 15 16  1  0  0  0  0
 16 18  2  0  0  0  0
 16 21  1  0  0  0  0
 17 20  2  0  0  0  0
 17 32  1  0  0  0  0
 18 22  1  0  0  0  0
 19 33  1  0  0  0  0
 20 25  1  0  0  0  0
 20 26  1  0  0  0  0
 21 23  2  0  0  0  0
 21 34  1  0  0  0  0
 22 24  2  0  0  0  0
 22 35  1  0  0  0  0
 23 24  1  0  0  0  0
 23 36  1  0  0  0  0
 25 38  1  0  0  0  0
 25 42  1  0  0  0  0
 25 43  1  0  0  0  0
 26 39  1  0  0  0  0
 26 40  1  0  0  0  0
 26 41  1  0  0  0  0
 27 44  1  0  0  0  0
 27 45  1  0  0  0  0
 27 46  1  0  0  0  0
 28 47  1  0  0  0  0
 28 48  1  0  0  0  0
 28 49  1  0  0  0  0
M  END
> <PUBCHEM_COMPOUND_CID>
5319013

> <PUBCHEM_COMPOUND_CANONICALIZED>
1

> <PUBCHEM_CACTVS_COMPLEXITY>
623

> <PUBCHEM_CACTVS_HBOND_ACCEPTOR>
6

> <PUBCHEM_CACTVS_HBOND_DONOR>
2

> <PUBCHEM_CACTVS_ROTATABLE_BOND>
5

> <PUBCHEM_CACTVS_SUBSKEYS>
AAADceB4OAAAAAAAAAAAAAAAAAAAAAAAAAAwYIAAAAAAAACBQAAAGgAACAAADASgmAIyBoAABgCIAqBSAAACCAAkIAAIiAEGCMgMJzaGNRqAcWAl4BUIuYeK7PzOIAACCAAIAABAAAQQABAAAAAAAAAAAA==

> <PUBCHEM_IUPAC_OPENEYE_NAME>
7-hydroxy-3-[6-hydroxy-2,4-dimethoxy-3-(3-methylbut-2-enyl)phenyl]chromen-4-one

> <PUBCHEM_IUPAC_CAS_NAME>
7-hydroxy-3-[6-hydroxy-2,4-dimethoxy-3-(3-methylbut-2-enyl)phenyl]-1-benzopyran-4-one

> <PUBCHEM_IUPAC_NAME>
7-hydroxy-3-[6-hydroxy-2,4-dimethoxy-3-(3-methylbut-2-enyl)phenyl]chromen-4-one

> <PUBCHEM_IUPAC_SYSTEMATIC_NAME>
3-[2,4-dimethoxy-3-(3-methylbut-2-enyl)-6-oxidanyl-phenyl]-7-oxidanyl-chromen-4-one

> <PUBCHEM_IUPAC_TRADITIONAL_NAME>
7-hydroxy-3-[6-hydroxy-2,4-dimethoxy-3-(3-methylbut-2-enyl)phenyl]chromone

> <PUBCHEM_IUPAC_INCHI>
InChI=1S/C22H22O6/c1-12(2)5-7-15-18(26-3)10-17(24)20(22(15)27-4)16-11-28-19-9-13(23)6-8-14(19)21(16)25/h5-6,8-11,23-24H,7H2,1-4H3

> <PUBCHEM_IUPAC_INCHIKEY>
GGWMNTNDTRKETA-UHFFFAOYSA-N

> <PUBCHEM_XLOGP3_AA>
4.3

> <PUBCHEM_EXACT_MASS>
382.141638

> <PUBCHEM_MOLECULAR_FORMULA>
C22H22O6

> <PUBCHEM_MOLECULAR_WEIGHT>
382.40648

> <PUBCHEM_OPENEYE_CAN_SMILES>
CC(=CCC1=C(C=C(C(=C1OC)C2=COC3=C(C2=O)C=CC(=C3)O)O)OC)C

> <PUBCHEM_OPENEYE_ISO_SMILES>
CC(=CCC1=C(C=C(C(=C1OC)C2=COC3=C(C2=O)C=CC(=C3)O)O)OC)C

> <PUBCHEM_CACTVS_TPSA>
85.2

> <PUBCHEM_MONOISOTOPIC_WEIGHT>
382.141638

> <PUBCHEM_TOTAL_CHARGE>
0

> <PUBCHEM_HEAVY_ATOM_COUNT>
28

> <PUBCHEM_ATOM_DEF_STEREO_COUNT>
0

> <PUBCHEM_ATOM_UDEF_STEREO_COUNT>
0

> <PUBCHEM_BOND_DEF_STEREO_COUNT>
0

> <PUBCHEM_BOND_UDEF_STEREO_COUNT>
0

> <PUBCHEM_ISOTOPIC_ATOM_COUNT>
0

> <PUBCHEM_COMPONENT_COUNT>
1

> <PUBCHEM_CACTVS_TAUTO_COUNT>
15

> <PUBCHEM_COORDINATE_TYPE>
1
5
255

> <PUBCHEM_BONDANNOTATIONS>
11  15  8
11  19  8
12  14  8
13  14  8
15  16  8
16  18  8
16  21  8
18  22  8
2  18  8
2  19  8
21  23  8
22  24  8
23  24  8
7  12  8
7  9  8
8  13  8
8  9  8

$$$$

