6951
  -OEChem-06261201373D

 17 17  0     0  0  0  0  0  0999 V2000
   -0.0850    2.4661    0.0520 Cl  0  0  0  0  0  0  0  0  0  0  0  0
    0.1526   -3.7742   -0.1113 Cl  0  0  0  0  0  0  0  0  0  0  0  0
   -3.2663    0.2509    1.0206 O   0  0  0  0  0  0  0  0  0  0  0  0
   -2.9166    1.4086   -0.9040 O   0  0  0  0  0  0  0  0  0  0  0  0
    3.5244    0.1508    0.0532 O   0  5  0  0  0  0  0  0  0  0  0  0
    2.4192    2.0473    0.0815 O   0  0  0  0  0  0  0  0  0  0  0  0
    2.4500    0.7952    0.0498 N   0  3  0  0  0  0  0  0  0  0  0  0
   -1.1941   -0.0084   -0.0382 C   0  0  0  0  0  0  0  0  0  0  0  0
    1.2200    0.0790    0.0080 C   0  0  0  0  0  0  0  0  0  0  0  0
   -0.0126    0.7321    0.0027 C   0  0  0  0  0  0  0  0  0  0  0  0
   -1.1431   -1.4018   -0.0735 C   0  0  0  0  0  0  0  0  0  0  0  0
    1.2709   -1.3145   -0.0275 C   0  0  0  0  0  0  0  0  0  0  0  0
    0.0893   -2.0549   -0.0682 C   0  0  0  0  0  0  0  0  0  0  0  0
   -2.5086    0.6236   -0.0451 C   0  0  0  0  0  0  0  0  0  0  0  0
   -2.0630   -1.9819   -0.1097 H   0  0  0  0  0  0  0  0  0  0  0  0
    2.2171   -1.8513   -0.0241 H   0  0  0  0  0  0  0  0  0  0  0  0
   -4.1489    0.6789    1.0088 H   0  0  0  0  0  0  0  0  0  0  0  0
  1 10  1  0  0  0  0
  2 13  1  0  0  0  0
  3 14  1  0  0  0  0
  3 17  1  0  0  0  0
  4 14  2  0  0  0  0
  5  7  1  0  0  0  0
  6  7  2  0  0  0  0
  7  9  1  0  0  0  0
  8 10  2  0  0  0  0
  8 11  1  0  0  0  0
  8 14  1  0  0  0  0
  9 10  1  0  0  0  0
  9 12  2  0  0  0  0
 11 13  2  0  0  0  0
 11 15  1  0  0  0  0
 12 13  1  0  0  0  0
 12 16  1  0  0  0  0
M  CHG  2   5  -1   7   1
M  END
> <PUBCHEM_COMPOUND_CID>
6951

> <PUBCHEM_CONFORMER_RMSD>
0.6

> <PUBCHEM_CONFORMER_DIVERSEORDER>
1

> <PUBCHEM_MMFF94_PARTIAL_CHARGES>
17
1 -0.18
10 0.18
11 -0.15
12 -0.15
13 0.18
14 0.63
15 0.15
16 0.15
17 0.5
2 -0.18
3 -0.65
4 -0.57
5 -0.52
6 -0.52
7 0.91
8 0.09
9 0.13

> <PUBCHEM_EFFECTIVE_ROTOR_COUNT>
2

> <PUBCHEM_PHARMACOPHORE_FEATURES>
7
1 3 acceptor
1 4 acceptor
1 5 acceptor
1 5 anion
1 6 acceptor
3 3 4 14 anion
6 8 9 10 11 12 13 rings

> <PUBCHEM_HEAVY_ATOM_COUNT>
14

> <PUBCHEM_ATOM_DEF_STEREO_COUNT>
0

> <PUBCHEM_ATOM_UDEF_STEREO_COUNT>
0

> <PUBCHEM_BOND_DEF_STEREO_COUNT>
0

> <PUBCHEM_BOND_UDEF_STEREO_COUNT>
0

> <PUBCHEM_ISOTOPIC_ATOM_COUNT>
0

> <PUBCHEM_COMPONENT_COUNT>
1

> <PUBCHEM_CACTVS_TAUTO_COUNT>
1

> <PUBCHEM_CONFORMER_ID>
00001B2700000001

> <PUBCHEM_MMFF94_ENERGY>
51.8715

> <PUBCHEM_FEATURE_SELFOVERLAP>
35.66

> <PUBCHEM_SHAPE_FINGERPRINT>
1 1 18410575131997643551
10967382 1 18266461090604124518
11680986 33 17473272444712224632
12138202 78 17979079610649163391
12423570 1 6625820419664939610
13140716 1 18410012160522140538
13380535 76 18411986874889459795
14648413 74 17908705373340267961
14817 1 6934507531758075907
15309172 13 18410003317526908025
16945 1 18193556907099264895
17990270 104 17834964448390733347
193761 8 17689717458869658560
20645476 183 17987501659591720902
20645477 70 18196101164827743359
21501502 16 17906452121753991432
21524375 3 18411702054085720363
2334 1 18337955588749647742
23493267 7 17703789274964919568
23552423 10 18049161369438613949
23559900 14 15957811303331838094
241688 4 16969145323847351499
2748010 2 18410848850210767406
528886 8 18409454690951873648
7364860 26 18121221153667613990
81228 2 17833840365038967675

> <PUBCHEM_SHAPE_MULTIPOLES>
263.39
3.99
3.38
0.7
0.66
2.6
0.01
-2.01
0.19
-1.19
-0.14
0.34
-0.02
0.22

> <PUBCHEM_SHAPE_SELFOVERLAP>
544.009

> <PUBCHEM_SHAPE_VOLUME>
153.1

> <PUBCHEM_COORDINATE_TYPE>
2
5
10

$$$$

