47205469
  -OEChem-06241222582D

 43 44  0     0  0  0  0  0  0999 V2000
    2.8660   -2.8170    0.0000 S   0  0  0  0  0  0  0  0  0  0  0  0
    2.3660   -3.6830    0.0000 O   0  0  0  0  0  0  0  0  0  0  0  0
    3.3660   -3.6830    0.0000 O   0  0  0  0  0  0  0  0  0  0  0  0
    4.5981    0.1830    0.0000 O   0  0  0  0  0  0  0  0  0  0  0  0
    2.8660   -0.8170    0.0000 N   0  0  0  0  0  0  0  0  0  0  0  0
    3.7320    1.6830    0.0000 N   0  0  0  0  0  0  0  0  0  0  0  0
    4.5981    2.1830    0.0000 C   0  0  0  0  0  0  0  0  0  0  0  0
    6.3301    3.1830    0.0000 C   0  0  0  0  0  0  0  0  0  0  0  0
    5.4641    1.6830    0.0000 C   0  0  0  0  0  0  0  0  0  0  0  0
    4.5981    3.1830    0.0000 C   0  0  0  0  0  0  0  0  0  0  0  0
    6.3301    2.1830    0.0000 C   0  0  0  0  0  0  0  0  0  0  0  0
    5.4641    3.6830    0.0000 C   0  0  0  0  0  0  0  0  0  0  0  0
    2.0000   -1.3170    0.0000 C   0  0  0  0  0  0  0  0  0  0  0  0
    3.7320   -1.3170    0.0000 C   0  0  0  0  0  0  0  0  0  0  0  0
    7.1962    3.6830    0.0000 C   0  0  0  0  0  0  0  0  0  0  0  0
    2.0000   -2.3170    0.0000 C   0  0  0  0  0  0  0  0  0  0  0  0
    3.7320   -2.3170    0.0000 C   0  0  0  0  0  0  0  0  0  0  0  0
    2.8660    0.1830    0.0000 C   0  0  0  0  0  0  0  0  0  0  0  0
    3.7320    0.6830    0.0000 C   0  0  0  0  0  0  0  0  0  0  0  0
    4.5981    1.5630    0.0000 H   0  0  0  0  0  0  0  0  0  0  0  0
    6.8671    2.8730    0.0000 H   0  0  0  0  0  0  0  0  0  0  0  0
    5.0656    1.2081    0.0000 H   0  0  0  0  0  0  0  0  0  0  0  0
    5.8626    1.2081    0.0000 H   0  0  0  0  0  0  0  0  0  0  0  0
    4.3860    3.7656    0.0000 H   0  0  0  0  0  0  0  0  0  0  0  0
    3.9875    3.0753    0.0000 H   0  0  0  0  0  0  0  0  0  0  0  0
    6.5422    1.6004    0.0000 H   0  0  0  0  0  0  0  0  0  0  0  0
    6.9407    2.2907    0.0000 H   0  0  0  0  0  0  0  0  0  0  0  0
    5.8626    4.1580    0.0000 H   0  0  0  0  0  0  0  0  0  0  0  0
    5.0656    4.1580    0.0000 H   0  0  0  0  0  0  0  0  0  0  0  0
    3.1951    1.9930    0.0000 H   0  0  0  0  0  0  0  0  0  0  0  0
    4.3426   -1.4246    0.0000 H   0  0  0  0  0  0  0  0  0  0  0  0
    1.7880   -0.7344    0.0000 H   0  0  0  0  0  0  0  0  0  0  0  0
    1.3894   -1.4246    0.0000 H   0  0  0  0  0  0  0  0  0  0  0  0
    3.9441   -0.7344    0.0000 H   0  0  0  0  0  0  0  0  0  0  0  0
    3.9441   -2.8996    0.0000 H   0  0  0  0  0  0  0  0  0  0  0  0
    4.3426   -2.2093    0.0000 H   0  0  0  0  0  0  0  0  0  0  0  0
    1.3894   -2.2093    0.0000 H   0  0  0  0  0  0  0  0  0  0  0  0
    1.7880   -2.8996    0.0000 H   0  0  0  0  0  0  0  0  0  0  0  0
    7.5062    3.1461    0.0000 H   0  0  0  0  0  0  0  0  0  0  0  0
    7.7331    3.9930    0.0000 H   0  0  0  0  0  0  0  0  0  0  0  0
    6.8862    4.2200    0.0000 H   0  0  0  0  0  0  0  0  0  0  0  0
    2.6540    0.7656    0.0000 H   0  0  0  0  0  0  0  0  0  0  0  0
    2.2554    0.0754    0.0000 H   0  0  0  0  0  0  0  0  0  0  0  0
  1  2  2  0  0  0  0
  1  3  2  0  0  0  0
  1 16  1  0  0  0  0
  1 17  1  0  0  0  0
  4 19  2  0  0  0  0
  5 13  1  0  0  0  0
  5 14  1  0  0  0  0
  5 18  1  0  0  0  0
  6  7  1  0  0  0  0
  6 19  1  0  0  0  0
  6 30  1  0  0  0  0
  7  9  1  0  0  0  0
  7 10  1  0  0  0  0
  7 20  1  0  0  0  0
  8 11  1  0  0  0  0
  8 12  1  0  0  0  0
  8 15  1  0  0  0  0
  8 21  1  0  0  0  0
  9 11  1  0  0  0  0
  9 22  1  0  0  0  0
  9 23  1  0  0  0  0
 10 12  1  0  0  0  0
 10 24  1  0  0  0  0
 10 25  1  0  0  0  0
 11 26  1  0  0  0  0
 11 27  1  0  0  0  0
 12 28  1  0  0  0  0
 12 29  1  0  0  0  0
 13 16  1  0  0  0  0
 13 32  1  0  0  0  0
 13 33  1  0  0  0  0
 14 17  1  0  0  0  0
 14 31  1  0  0  0  0
 14 34  1  0  0  0  0
 15 39  1  0  0  0  0
 15 40  1  0  0  0  0
 15 41  1  0  0  0  0
 16 37  1  0  0  0  0
 16 38  1  0  0  0  0
 17 35  1  0  0  0  0
 17 36  1  0  0  0  0
 18 19  1  0  0  0  0
 18 42  1  0  0  0  0
 18 43  1  0  0  0  0
M  END
> <PUBCHEM_COMPOUND_CID>
47205469

> <PUBCHEM_COMPOUND_CANONICALIZED>
1

> <PUBCHEM_CACTVS_COMPLEXITY>
394

> <PUBCHEM_CACTVS_HBOND_ACCEPTOR>
4

> <PUBCHEM_CACTVS_HBOND_DONOR>
1

> <PUBCHEM_CACTVS_ROTATABLE_BOND>
3

> <PUBCHEM_CACTVS_SUBSKEYS>
AAADceBzMABAAAAAAAAAAAAAAAAAAAAAAAA8QAAAAAAAAAAAAAAAHgQQAAAADSjFwASCAAPAAAoIAAEQEHBAAAAAABAAAICIAAAAQAIAgCAUAAAAFgCgAAEQgAAOAAAAAAAAAAAQAAAAAAAAAAAAAAAAAA==

> <PUBCHEM_IUPAC_OPENEYE_NAME>
2-(1,1-dioxo-1,4-thiazinan-4-yl)-N-(4-methylcyclohexyl)acetamide

> <PUBCHEM_IUPAC_CAS_NAME>
2-(1,1-dioxo-1,4-thiazinan-4-yl)-N-(4-methylcyclohexyl)acetamide

> <PUBCHEM_IUPAC_NAME>
2-(1,1-dioxo-1,4-thiazinan-4-yl)-N-(4-methylcyclohexyl)acetamide

> <PUBCHEM_IUPAC_SYSTEMATIC_NAME>
2-[1,1-bis(oxidanylidene)-1,4-thiazinan-4-yl]-N-(4-methylcyclohexyl)ethanamide

> <PUBCHEM_IUPAC_TRADITIONAL_NAME>
2-(1,1-diketo-1,4-thiazinan-4-yl)-N-(4-methylcyclohexyl)acetamide

> <PUBCHEM_IUPAC_INCHI>
InChI=1S/C13H24N2O3S/c1-11-2-4-12(5-3-11)14-13(16)10-15-6-8-19(17,18)9-7-15/h11-12H,2-10H2,1H3,(H,14,16)

> <PUBCHEM_IUPAC_INCHIKEY>
PVKHZSGTTUTKOG-UHFFFAOYSA-N

> <PUBCHEM_XLOGP3_AA>
0.8

> <PUBCHEM_EXACT_MASS>
288.150764

> <PUBCHEM_MOLECULAR_FORMULA>
C13H24N2O3S

> <PUBCHEM_MOLECULAR_WEIGHT>
288.40626

> <PUBCHEM_OPENEYE_CAN_SMILES>
CC1CCC(CC1)NC(=O)CN2CCS(=O)(=O)CC2

> <PUBCHEM_OPENEYE_ISO_SMILES>
CC1CCC(CC1)NC(=O)CN2CCS(=O)(=O)CC2

> <PUBCHEM_CACTVS_TPSA>
74.9

> <PUBCHEM_MONOISOTOPIC_WEIGHT>
288.150764

> <PUBCHEM_TOTAL_CHARGE>
0

> <PUBCHEM_HEAVY_ATOM_COUNT>
19

> <PUBCHEM_ATOM_DEF_STEREO_COUNT>
0

> <PUBCHEM_ATOM_UDEF_STEREO_COUNT>
0

> <PUBCHEM_BOND_DEF_STEREO_COUNT>
0

> <PUBCHEM_BOND_UDEF_STEREO_COUNT>
0

> <PUBCHEM_ISOTOPIC_ATOM_COUNT>
0

> <PUBCHEM_COMPONENT_COUNT>
1

> <PUBCHEM_CACTVS_TAUTO_COUNT>
2

> <PUBCHEM_COORDINATE_TYPE>
1
5
255

$$$$

