168919
  -OEChem-07051212572D

 37 41  0     0  0  0  0  0  0999 V2000
    6.9654    1.0205    0.0000 N   0  0  0  0  0  0  0  0  0  0  0  0
    4.5124   -0.0969    0.0000 N   0  0  0  0  0  0  0  0  0  0  0  0
    7.6200   -0.9426    0.0000 C   0  0  0  0  0  0  0  0  0  0  0  0
    8.3170   -0.1685    0.0000 C   0  0  0  0  0  0  0  0  0  0  0  0
    7.9393   -1.9795    0.0000 C   0  0  0  0  0  0  0  0  0  0  0  0
    9.3816   -0.3777    0.0000 C   0  0  0  0  0  0  0  0  0  0  0  0
    8.9988   -2.2132    0.0000 C   0  0  0  0  0  0  0  0  0  0  0  0
    9.7248   -1.4069    0.0000 C   0  0  0  0  0  0  0  0  0  0  0  0
    6.2962    0.2774    0.0000 C   0  0  0  0  0  0  0  0  0  0  0  0
    6.6028   -0.7181    0.0000 C   0  0  0  0  0  0  0  0  0  0  0  0
    7.9875    0.8197    0.0000 C   0  0  0  0  0  0  0  0  0  0  0  0
    5.3181    0.4853    0.0000 C   0  0  0  0  0  0  0  0  0  0  0  0
    5.0091    1.4363    0.0000 C   0  0  0  0  0  0  0  0  0  0  0  0
    6.6564    1.9716    0.0000 C   0  0  0  0  0  0  0  0  0  0  0  0
    4.0150    1.4338    0.0000 C   0  0  0  0  0  0  0  0  0  0  0  0
    5.6782    2.1795    0.0000 C   0  0  0  0  0  0  0  0  0  0  0  0
    3.7086    0.4881    0.0000 C   0  0  0  0  0  0  0  0  0  0  0  0
    3.3334    2.2132    0.0000 C   0  0  0  0  0  0  0  0  0  0  0  0
    2.6994    0.2563    0.0000 C   0  0  0  0  0  0  0  0  0  0  0  0
    2.3191    2.0049    0.0000 C   0  0  0  0  0  0  0  0  0  0  0  0
    2.0000    1.0198    0.0000 C   0  0  0  0  0  0  0  0  0  0  0  0
    7.3243   -2.0579    0.0000 H   0  0  0  0  0  0  0  0  0  0  0  0
    7.9113   -2.5989    0.0000 H   0  0  0  0  0  0  0  0  0  0  0  0
    9.9946   -0.2851    0.0000 H   0  0  0  0  0  0  0  0  0  0  0  0
    9.3953    0.2422    0.0000 H   0  0  0  0  0  0  0  0  0  0  0  0
    8.7636   -2.7869    0.0000 H   0  0  0  0  0  0  0  0  0  0  0  0
    9.5238   -2.5431    0.0000 H   0  0  0  0  0  0  0  0  0  0  0  0
   10.1078   -1.8945    0.0000 H   0  0  0  0  0  0  0  0  0  0  0  0
   10.2708   -1.1131    0.0000 H   0  0  0  0  0  0  0  0  0  0  0  0
    6.1826   -1.1741    0.0000 H   0  0  0  0  0  0  0  0  0  0  0  0
    8.3970    1.2852    0.0000 H   0  0  0  0  0  0  0  0  0  0  0  0
    7.0712    2.4323    0.0000 H   0  0  0  0  0  0  0  0  0  0  0  0
    5.4866    2.7691    0.0000 H   0  0  0  0  0  0  0  0  0  0  0  0
    3.5313    2.8008    0.0000 H   0  0  0  0  0  0  0  0  0  0  0  0
    2.5152   -0.3357    0.0000 H   0  0  0  0  0  0  0  0  0  0  0  0
    1.9056    2.4669    0.0000 H   0  0  0  0  0  0  0  0  0  0  0  0
    1.3942    0.8881    0.0000 H   0  0  0  0  0  0  0  0  0  0  0  0
  1  9  1  0  0  0  0
  1 11  1  0  0  0  0
  1 14  1  0  0  0  0
  2 12  1  0  0  0  0
  2 17  2  0  0  0  0
  3  4  1  0  0  0  0
  3  5  1  0  0  0  0
  3 10  2  0  0  0  0
  4  6  1  0  0  0  0
  4 11  2  0  0  0  0
  5  7  1  0  0  0  0
  5 22  1  0  0  0  0
  5 23  1  0  0  0  0
  6  8  1  0  0  0  0
  6 24  1  0  0  0  0
  6 25  1  0  0  0  0
  7  8  1  0  0  0  0
  7 26  1  0  0  0  0
  7 27  1  0  0  0  0
  8 28  1  0  0  0  0
  8 29  1  0  0  0  0
  9 10  1  0  0  0  0
  9 12  2  0  0  0  0
 10 30  1  0  0  0  0
 11 31  1  0  0  0  0
 12 13  1  0  0  0  0
 13 15  2  0  0  0  0
 13 16  1  0  0  0  0
 14 16  2  0  0  0  0
 14 32  1  0  0  0  0
 15 17  1  0  0  0  0
 15 18  1  0  0  0  0
 16 33  1  0  0  0  0
 17 19  1  0  0  0  0
 18 20  2  0  0  0  0
 18 34  1  0  0  0  0
 19 21  2  0  0  0  0
 19 35  1  0  0  0  0
 20 21  1  0  0  0  0
 20 36  1  0  0  0  0
 21 37  1  0  0  0  0
M  END
> <PUBCHEM_COMPOUND_CID>
168919

> <PUBCHEM_COMPOUND_CANONICALIZED>
1

> <PUBCHEM_CACTVS_COMPLEXITY>
492

> <PUBCHEM_CACTVS_HBOND_ACCEPTOR>
1

> <PUBCHEM_CACTVS_HBOND_DONOR>
0

> <PUBCHEM_CACTVS_ROTATABLE_BOND>
0

> <PUBCHEM_CACTVS_SUBSKEYS>
AAADceB7AAAAAAAAAAAAAAAAAAAAAWAAAAA8YIEAAAAAAFiBwAAAHAAAAAAADAjBHgQ8wPMMEACgAzRnRACCgCQxEiAI2CA4dJgIYOLAkZGUIAhggADIyAcQgMAOgAAAAAACAAAAAAAAAAQAAAAAAAAAAA==

> <PUBCHEM_IUPAC_OPENEYE_NAME>
16,17,18,19-tetrahydroyohimban

> <PUBCHEM_IUPAC_CAS_NAME>
16,17,18,19-tetrahydroyohimban

> <PUBCHEM_IUPAC_NAME>
16,17,18,19-tetrahydroyohimban

> <PUBCHEM_IUPAC_SYSTEMATIC_NAME>
16,17,18,19-tetrahydroyohimban

> <PUBCHEM_IUPAC_TRADITIONAL_NAME>
16,17,18,19-tetrahydroyohimban

> <PUBCHEM_IUPAC_INCHI>
InChI=1S/C19H16N2/c1-2-6-14-12-21-10-9-16-15-7-3-4-8-17(15)20-19(16)18(21)11-13(14)5-1/h3-4,7-12H,1-2,5-6H2

> <PUBCHEM_IUPAC_INCHIKEY>
UQVUEULZDJRMJR-UHFFFAOYSA-N

> <PUBCHEM_XLOGP3_AA>
5.2

> <PUBCHEM_EXACT_MASS>
272.131349

> <PUBCHEM_MOLECULAR_FORMULA>
C19H16N2

> <PUBCHEM_MOLECULAR_WEIGHT>
272.34374

> <PUBCHEM_OPENEYE_CAN_SMILES>
C1CCC2=CN3C=CC4=C5C=CC=CC5=NC4=C3C=C2C1

> <PUBCHEM_OPENEYE_ISO_SMILES>
C1CCC2=CN3C=CC4=C5C=CC=CC5=NC4=C3C=C2C1

> <PUBCHEM_CACTVS_TPSA>
17.8

> <PUBCHEM_MONOISOTOPIC_WEIGHT>
272.131349

> <PUBCHEM_TOTAL_CHARGE>
0

> <PUBCHEM_HEAVY_ATOM_COUNT>
21

> <PUBCHEM_ATOM_DEF_STEREO_COUNT>
0

> <PUBCHEM_ATOM_UDEF_STEREO_COUNT>
0

> <PUBCHEM_BOND_DEF_STEREO_COUNT>
0

> <PUBCHEM_BOND_UDEF_STEREO_COUNT>
0

> <PUBCHEM_ISOTOPIC_ATOM_COUNT>
0

> <PUBCHEM_COMPONENT_COUNT>
1

> <PUBCHEM_CACTVS_TAUTO_COUNT>
1

> <PUBCHEM_COORDINATE_TYPE>
1
5
255

> <PUBCHEM_BONDANNOTATIONS>
1  11  8
1  14  8
1  9  8
13  15  8
13  16  8
14  16  8
15  17  8
15  18  8
17  19  8
18  20  8
19  21  8
2  12  8
2  17  8
20  21  8
3  10  8
3  4  8
4  11  8
9  10  8
9  12  8

$$$$

