7654
  -OEChem-07051213033D

 24 24  0     0  0  0  0  0  0999 V2000
    1.7454   -0.0337    0.3625 O   0  0  0  0  0  0  0  0  0  0  0  0
    3.6145    0.4230   -0.9162 O   0  0  0  0  0  0  0  0  0  0  0  0
   -0.0211    1.4979    0.9621 C   0  0  0  0  0  0  0  0  0  0  0  0
   -1.1150    0.6317    0.4348 C   0  0  0  0  0  0  0  0  0  0  0  0
    1.3027    1.3094    0.2152 C   0  0  0  0  0  0  0  0  0  0  0  0
   -1.9413    1.0967   -0.5882 C   0  0  0  0  0  0  0  0  0  0  0  0
   -1.3121   -0.6434    0.9653 C   0  0  0  0  0  0  0  0  0  0  0  0
   -2.9644    0.2867   -1.0809 C   0  0  0  0  0  0  0  0  0  0  0  0
   -2.3351   -1.4534    0.4724 C   0  0  0  0  0  0  0  0  0  0  0  0
   -3.1612   -0.9884   -0.5507 C   0  0  0  0  0  0  0  0  0  0  0  0
    2.9238   -0.3434   -0.2584 C   0  0  0  0  0  0  0  0  0  0  0  0
    3.2637   -1.7831   -0.0179 C   0  0  0  0  0  0  0  0  0  0  0  0
    0.1287    1.2760    2.0268 H   0  0  0  0  0  0  0  0  0  0  0  0
   -0.3214    2.5518    0.9117 H   0  0  0  0  0  0  0  0  0  0  0  0
    2.0533    1.9881    0.6368 H   0  0  0  0  0  0  0  0  0  0  0  0
    1.1734    1.5377   -0.8498 H   0  0  0  0  0  0  0  0  0  0  0  0
   -1.7970    2.0874   -1.0111 H   0  0  0  0  0  0  0  0  0  0  0  0
   -0.6762   -1.0185    1.7628 H   0  0  0  0  0  0  0  0  0  0  0  0
   -3.6074    0.6485   -1.8780 H   0  0  0  0  0  0  0  0  0  0  0  0
   -2.4883   -2.4462    0.8852 H   0  0  0  0  0  0  0  0  0  0  0  0
   -3.9577   -1.6191   -0.9346 H   0  0  0  0  0  0  0  0  0  0  0  0
    2.4756   -2.4222   -0.4238 H   0  0  0  0  0  0  0  0  0  0  0  0
    3.3895   -1.9598    1.0532 H   0  0  0  0  0  0  0  0  0  0  0  0
    4.2028   -2.0238   -0.5241 H   0  0  0  0  0  0  0  0  0  0  0  0
  1  5  1  0  0  0  0
  1 11  1  0  0  0  0
  2 11  2  0  0  0  0
  3  4  1  0  0  0  0
  3  5  1  0  0  0  0
  3 13  1  0  0  0  0
  3 14  1  0  0  0  0
  4  6  2  0  0  0  0
  4  7  1  0  0  0  0
  5 15  1  0  0  0  0
  5 16  1  0  0  0  0
  6  8  1  0  0  0  0
  6 17  1  0  0  0  0
  7  9  2  0  0  0  0
  7 18  1  0  0  0  0
  8 10  2  0  0  0  0
  8 19  1  0  0  0  0
  9 10  1  0  0  0  0
  9 20  1  0  0  0  0
 10 21  1  0  0  0  0
 11 12  1  0  0  0  0
 12 22  1  0  0  0  0
 12 23  1  0  0  0  0
 12 24  1  0  0  0  0
M  END
> <PUBCHEM_COMPOUND_CID>
7654

> <PUBCHEM_CONFORMER_RMSD>
0.6

> <PUBCHEM_CONFORMER_DIVERSEORDER>
1
18
9
6
8
17
27
15
30
23
13
19
22
24
14
26
3
10
20
11
29
7
12
21
2
25
16
5
28
4

> <PUBCHEM_MMFF94_PARTIAL_CHARGES>
17
1 -0.43
10 -0.15
11 0.66
12 0.06
17 0.15
18 0.15
19 0.15
2 -0.57
20 0.15
21 0.15
3 0.14
4 -0.14
5 0.28
6 -0.15
7 -0.15
8 -0.15
9 -0.15

> <PUBCHEM_EFFECTIVE_ROTOR_COUNT>
4

> <PUBCHEM_PHARMACOPHORE_FEATURES>
2
1 2 acceptor
6 4 6 7 8 9 10 rings

> <PUBCHEM_HEAVY_ATOM_COUNT>
12

> <PUBCHEM_ATOM_DEF_STEREO_COUNT>
0

> <PUBCHEM_ATOM_UDEF_STEREO_COUNT>
0

> <PUBCHEM_BOND_DEF_STEREO_COUNT>
0

> <PUBCHEM_BOND_UDEF_STEREO_COUNT>
0

> <PUBCHEM_ISOTOPIC_ATOM_COUNT>
0

> <PUBCHEM_COMPONENT_COUNT>
1

> <PUBCHEM_CACTVS_TAUTO_COUNT>
1

> <PUBCHEM_CONFORMER_ID>
00001DE600000001

> <PUBCHEM_MMFF94_ENERGY>
21.6375

> <PUBCHEM_FEATURE_SELFOVERLAP>
10.148

> <PUBCHEM_SHAPE_FINGERPRINT>
10857977 72 6483077422432526113
11031198 65 14189582956823700057
11127187 94 18412261735790367815
11137873 295 18336261327293751403
12186901 62 17346605192510594023
122479 349 9295021162708405651
12251169 10 7060374838232851226
12696612 119 7276824714567688322
12897270 3 18131072588889483857
13296908 3 18113342998356887800
13897977 13 8718527446256717779
15775835 57 13686307854570206711
17834072 14 18337410317334940554
18186145 218 14548734028080178892
18619055 16 18342738546219448194
19107657 9 12535345739871718654
20201158 50 18409731755018439054
20279233 1 18337400361310604336
20361792 2 17458346316525021025
20645476 183 16630537210707574155
20645477 70 17895481319285841229
20653085 51 16917064490476352285
20671657 53 18334293167326106800
20871999 31 17988648467399165501
22169311 14 6266910051671521798
22802520 49 18201441329072925937
23403322 49 18335702805641782830
23559900 14 18338247045936970040
27216 239 9655275030535890638
369184 2 5833993845351909033
81228 2 17678731473972452160

> <PUBCHEM_SHAPE_MULTIPOLES>
235.22
6.13
1.7
1.03
3.66
0.2
0.01
2.35
2.03
0.23
-0.22
-0.33
-0.1
0.2

> <PUBCHEM_SHAPE_SELFOVERLAP>
476.122

> <PUBCHEM_SHAPE_VOLUME>
136.9

> <PUBCHEM_COORDINATE_TYPE>
2
5
10

$$$$

