15337591
  -OEChem-07051213082D

 40 42  0     0  0  0  0  0  0999 V2000
    7.1962    2.4827    0.0000 O   0  0  0  0  0  0  0  0  0  0  0  0
    4.5981    1.9827    0.0000 O   0  0  0  0  0  0  0  0  0  0  0  0
    4.5981   -2.0173    0.0000 O   0  0  0  0  0  0  0  0  0  0  0  0
    2.8660   -1.0173    0.0000 O   0  0  0  0  0  0  0  0  0  0  0  0
    7.1962   -0.5173    0.0000 O   0  0  0  0  0  0  0  0  0  0  0  0
   10.7263    2.5068    0.0000 O   0  0  0  0  0  0  0  0  0  0  0  0
    5.4641    0.4827    0.0000 C   0  0  0  0  0  0  0  0  0  0  0  0
    6.3301    0.9827    0.0000 C   0  0  0  0  0  0  0  0  0  0  0  0
    8.0622    0.9827    0.0000 C   0  0  0  0  0  0  0  0  0  0  0  0
    7.1962    0.4827    0.0000 C   0  0  0  0  0  0  0  0  0  0  0  0
    4.5981    0.9827    0.0000 C   0  0  0  0  0  0  0  0  0  0  0  0
    8.0622    1.9827    0.0000 C   0  0  0  0  0  0  0  0  0  0  0  0
    5.4641   -0.5173    0.0000 C   0  0  0  0  0  0  0  0  0  0  0  0
    4.5981   -1.0173    0.0000 C   0  0  0  0  0  0  0  0  0  0  0  0
    6.3301    1.9827    0.0000 C   0  0  0  0  0  0  0  0  0  0  0  0
    3.7320    0.4827    0.0000 C   0  0  0  0  0  0  0  0  0  0  0  0
    3.7320   -0.5173    0.0000 C   0  0  0  0  0  0  0  0  0  0  0  0
    8.9561    0.4480    0.0000 C   0  0  0  0  0  0  0  0  0  0  0  0
    8.9561    2.5173    0.0000 C   0  0  0  0  0  0  0  0  0  0  0  0
    9.8622    0.9619    0.0000 C   0  0  0  0  0  0  0  0  0  0  0  0
    9.8622    2.0035    0.0000 C   0  0  0  0  0  0  0  0  0  0  0  0
    3.7320    2.4827    0.0000 C   0  0  0  0  0  0  0  0  0  0  0  0
    3.7320   -2.5173    0.0000 C   0  0  0  0  0  0  0  0  0  0  0  0
    2.0000   -0.5173    0.0000 C   0  0  0  0  0  0  0  0  0  0  0  0
    6.0010   -0.8273    0.0000 H   0  0  0  0  0  0  0  0  0  0  0  0
    5.7932    2.2927    0.0000 H   0  0  0  0  0  0  0  0  0  0  0  0
    3.1951    0.7927    0.0000 H   0  0  0  0  0  0  0  0  0  0  0  0
    8.9490   -0.1720    0.0000 H   0  0  0  0  0  0  0  0  0  0  0  0
    8.9490    3.1373    0.0000 H   0  0  0  0  0  0  0  0  0  0  0  0
   10.3979    0.6498    0.0000 H   0  0  0  0  0  0  0  0  0  0  0  0
    4.0420    3.0196    0.0000 H   0  0  0  0  0  0  0  0  0  0  0  0
    3.1951    2.7927    0.0000 H   0  0  0  0  0  0  0  0  0  0  0  0
    3.4220    1.9457    0.0000 H   0  0  0  0  0  0  0  0  0  0  0  0
    3.4220   -1.9804    0.0000 H   0  0  0  0  0  0  0  0  0  0  0  0
    3.1951   -2.8273    0.0000 H   0  0  0  0  0  0  0  0  0  0  0  0
    4.0420   -3.0543    0.0000 H   0  0  0  0  0  0  0  0  0  0  0  0
    2.3100    0.0196    0.0000 H   0  0  0  0  0  0  0  0  0  0  0  0
    1.4631   -0.2073    0.0000 H   0  0  0  0  0  0  0  0  0  0  0  0
    1.6900   -1.0543    0.0000 H   0  0  0  0  0  0  0  0  0  0  0  0
   11.2644    2.1989    0.0000 H   0  0  0  0  0  0  0  0  0  0  0  0
  1 12  1  0  0  0  0
  1 15  1  0  0  0  0
  2 11  1  0  0  0  0
  2 22  1  0  0  0  0
  3 14  1  0  0  0  0
  3 23  1  0  0  0  0
  4 17  1  0  0  0  0
  4 24  1  0  0  0  0
  5 10  2  0  0  0  0
  6 21  1  0  0  0  0
  6 40  1  0  0  0  0
  7  8  1  0  0  0  0
  7 11  1  0  0  0  0
  7 13  2  0  0  0  0
  8 10  1  0  0  0  0
  8 15  2  0  0  0  0
  9 10  1  0  0  0  0
  9 12  2  0  0  0  0
  9 18  1  0  0  0  0
 11 16  2  0  0  0  0
 12 19  1  0  0  0  0
 13 14  1  0  0  0  0
 13 25  1  0  0  0  0
 14 17  2  0  0  0  0
 15 26  1  0  0  0  0
 16 17  1  0  0  0  0
 16 27  1  0  0  0  0
 18 20  2  0  0  0  0
 18 28  1  0  0  0  0
 19 21  2  0  0  0  0
 19 29  1  0  0  0  0
 20 21  1  0  0  0  0
 20 30  1  0  0  0  0
 22 31  1  0  0  0  0
 22 32  1  0  0  0  0
 22 33  1  0  0  0  0
 23 34  1  0  0  0  0
 23 35  1  0  0  0  0
 23 36  1  0  0  0  0
 24 37  1  0  0  0  0
 24 38  1  0  0  0  0
 24 39  1  0  0  0  0
M  END
> <PUBCHEM_COMPOUND_CID>
15337591

> <PUBCHEM_COMPOUND_CANONICALIZED>
1

> <PUBCHEM_CACTVS_COMPLEXITY>
490

> <PUBCHEM_CACTVS_HBOND_ACCEPTOR>
6

> <PUBCHEM_CACTVS_HBOND_DONOR>
1

> <PUBCHEM_CACTVS_ROTATABLE_BOND>
4

> <PUBCHEM_CACTVS_SUBSKEYS>
AAADceB4OAAAAAAAAAAAAAAAAAAAAAAAAAAwYIAAAAAAAACBQAAAGgAACAAADASgmAIyBoAABgCIAqBSAAACCAAkIAAIiAEGiMgNJzaGNRqAcWIl4BUKuYfK7PzOIQABCAAIQABCAAIQABCAAAAAAAAAAA==

> <PUBCHEM_IUPAC_OPENEYE_NAME>
7-hydroxy-3-(2,4,5-trimethoxyphenyl)chromen-4-one

> <PUBCHEM_IUPAC_CAS_NAME>
7-hydroxy-3-(2,4,5-trimethoxyphenyl)-1-benzopyran-4-one

> <PUBCHEM_IUPAC_NAME>
7-hydroxy-3-(2,4,5-trimethoxyphenyl)chromen-4-one

> <PUBCHEM_IUPAC_SYSTEMATIC_NAME>
7-oxidanyl-3-(2,4,5-trimethoxyphenyl)chromen-4-one

> <PUBCHEM_IUPAC_TRADITIONAL_NAME>
3-asaryl-7-hydroxy-chromone

> <PUBCHEM_IUPAC_INCHI>
InChI=1S/C18H16O6/c1-21-14-8-17(23-3)16(22-2)7-12(14)13-9-24-15-6-10(19)4-5-11(15)18(13)20/h4-9,19H,1-3H3

> <PUBCHEM_IUPAC_INCHIKEY>
IXZYJZHCXHSCDY-UHFFFAOYSA-N

> <PUBCHEM_XLOGP3_AA>
2.7

> <PUBCHEM_EXACT_MASS>
328.094688

> <PUBCHEM_MOLECULAR_FORMULA>
C18H16O6

> <PUBCHEM_MOLECULAR_WEIGHT>
328.31604

> <PUBCHEM_OPENEYE_CAN_SMILES>
COC1=CC(=C(C=C1C2=COC3=C(C2=O)C=CC(=C3)O)OC)OC

> <PUBCHEM_OPENEYE_ISO_SMILES>
COC1=CC(=C(C=C1C2=COC3=C(C2=O)C=CC(=C3)O)OC)OC

> <PUBCHEM_CACTVS_TPSA>
74.2

> <PUBCHEM_MONOISOTOPIC_WEIGHT>
328.094688

> <PUBCHEM_TOTAL_CHARGE>
0

> <PUBCHEM_HEAVY_ATOM_COUNT>
24

> <PUBCHEM_ATOM_DEF_STEREO_COUNT>
0

> <PUBCHEM_ATOM_UDEF_STEREO_COUNT>
0

> <PUBCHEM_BOND_DEF_STEREO_COUNT>
0

> <PUBCHEM_BOND_UDEF_STEREO_COUNT>
0

> <PUBCHEM_ISOTOPIC_ATOM_COUNT>
0

> <PUBCHEM_COMPONENT_COUNT>
1

> <PUBCHEM_CACTVS_TAUTO_COUNT>
5

> <PUBCHEM_COORDINATE_TYPE>
1
5
255

> <PUBCHEM_BONDANNOTATIONS>
1  12  8
1  15  8
11  16  8
12  19  8
13  14  8
14  17  8
16  17  8
18  20  8
19  21  8
20  21  8
7  11  8
7  13  8
8  10  8
8  15  8
9  10  8
9  12  8
9  18  8

$$$$

