5320227
  -OEChem-07051213103D

 48 50  0     1  0  0  0  0  0999 V2000
    0.3679   -1.1062   -0.5857 O   0  0  0  0  0  0  0  0  0  0  0  0
    4.8467   -2.3083   -0.0829 O   0  0  0  0  0  0  0  0  0  0  0  0
    3.6406    2.3614    0.3017 O   0  0  0  0  0  0  0  0  0  0  0  0
   -6.4905   -1.1758   -0.4527 O   0  0  0  0  0  0  0  0  0  0  0  0
    2.9682    4.5444    0.4660 O   0  0  0  0  0  0  0  0  0  0  0  0
   -4.3218   -1.9543    0.2605 C   0  0  0  0  0  0  0  0  0  0  0  0
   -5.2511   -0.7411    0.1105 C   0  0  1  0  0  0  0  0  0  0  0  0
    1.6601   -0.7144   -0.3526 C   0  0  0  0  0  0  0  0  0  0  0  0
   -2.9506   -1.5760    0.7841 C   0  0  0  0  0  0  0  0  0  0  0  0
    2.6912   -1.6729   -0.3183 C   0  0  0  0  0  0  0  0  0  0  0  0
    1.9811    0.6353   -0.1448 C   0  0  0  0  0  0  0  0  0  0  0  0
    3.9938   -1.2452   -0.0785 C   0  0  0  0  0  0  0  0  0  0  0  0
    3.3056    1.0035    0.0911 C   0  0  0  0  0  0  0  0  0  0  0  0
   -0.4163   -1.4383    0.5532 C   0  0  0  0  0  0  0  0  0  0  0  0
   -1.8055   -1.7561    0.0974 C   0  0  0  0  0  0  0  0  0  0  0  0
    4.3564    0.0827    0.1328 C   0  0  0  0  0  0  0  0  0  0  0  0
   -4.6461    0.2742   -0.8223 C   0  0  0  0  0  0  0  0  0  0  0  0
    2.7710   -3.0820   -0.4758 C   0  0  0  0  0  0  0  0  0  0  0  0
   -2.9208   -0.9952    2.1731 C   0  0  0  0  0  0  0  0  0  0  0  0
    0.9606    1.6716   -0.1693 C   0  0  0  0  0  0  0  0  0  0  0  0
   -4.3859    1.5716   -0.5717 C   0  0  0  0  0  0  0  0  0  0  0  0
    4.0970   -3.4151   -0.3242 C   0  0  0  0  0  0  0  0  0  0  0  0
    1.2894    2.9500    0.0310 C   0  0  0  0  0  0  0  0  0  0  0  0
    2.6803    3.3669    0.2830 C   0  0  0  0  0  0  0  0  0  0  0  0
   -3.7914    2.4490   -1.6414 C   0  0  0  0  0  0  0  0  0  0  0  0
   -4.6300    2.2703    0.7359 C   0  0  0  0  0  0  0  0  0  0  0  0
   -4.7834   -2.6870    0.9354 H   0  0  0  0  0  0  0  0  0  0  0  0
   -4.2373   -2.4758   -0.7030 H   0  0  0  0  0  0  0  0  0  0  0  0
   -5.4811   -0.3359    1.0982 H   0  0  0  0  0  0  0  0  0  0  0  0
    0.0114   -2.3248    1.0354 H   0  0  0  0  0  0  0  0  0  0  0  0
   -0.4023   -0.6018    1.2591 H   0  0  0  0  0  0  0  0  0  0  0  0
   -1.8801   -2.2130   -0.8887 H   0  0  0  0  0  0  0  0  0  0  0  0
    5.3823    0.3771    0.3163 H   0  0  0  0  0  0  0  0  0  0  0  0
   -4.4225   -0.1047   -1.8197 H   0  0  0  0  0  0  0  0  0  0  0  0
    1.9616   -3.7700   -0.6754 H   0  0  0  0  0  0  0  0  0  0  0  0
   -3.1246    0.0787    2.1473 H   0  0  0  0  0  0  0  0  0  0  0  0
   -1.9685   -1.1547    2.6869 H   0  0  0  0  0  0  0  0  0  0  0  0
   -3.6824   -1.4727    2.7999 H   0  0  0  0  0  0  0  0  0  0  0  0
   -0.0735    1.4069   -0.3586 H   0  0  0  0  0  0  0  0  0  0  0  0
    4.6404   -4.3481   -0.3576 H   0  0  0  0  0  0  0  0  0  0  0  0
    0.5313    3.7254    0.0105 H   0  0  0  0  0  0  0  0  0  0  0  0
   -7.0777   -0.4019   -0.5035 H   0  0  0  0  0  0  0  0  0  0  0  0
   -4.4605    3.2878   -1.8591 H   0  0  0  0  0  0  0  0  0  0  0  0
   -3.6208    1.9085   -2.5785 H   0  0  0  0  0  0  0  0  0  0  0  0
   -2.8274    2.8490   -1.3099 H   0  0  0  0  0  0  0  0  0  0  0  0
   -3.6826    2.6334    1.1483 H   0  0  0  0  0  0  0  0  0  0  0  0
   -5.2887    3.1318    0.5818 H   0  0  0  0  0  0  0  0  0  0  0  0
   -5.0979    1.6426    1.4955 H   0  0  0  0  0  0  0  0  0  0  0  0
  1  8  1  0  0  0  0
  1 14  1  0  0  0  0
  2 12  1  0  0  0  0
  2 22  1  0  0  0  0
  3 13  1  0  0  0  0
  3 24  1  0  0  0  0
  4  7  1  0  0  0  0
  4 42  1  0  0  0  0
  5 24  2  0  0  0  0
  6  7  1  0  0  0  0
  6  9  1  0  0  0  0
  6 27  1  0  0  0  0
  6 28  1  0  0  0  0
  7 17  1  0  0  0  0
  7 29  1  0  0  0  0
  8 10  1  0  0  0  0
  8 11  2  0  0  0  0
  9 15  2  0  0  0  0
  9 19  1  0  0  0  0
 10 12  2  0  0  0  0
 10 18  1  0  0  0  0
 11 13  1  0  0  0  0
 11 20  1  0  0  0  0
 12 16  1  0  0  0  0
 13 16  2  0  0  0  0
 14 15  1  0  0  0  0
 14 30  1  0  0  0  0
 14 31  1  0  0  0  0
 15 32  1  0  0  0  0
 16 33  1  0  0  0  0
 17 21  2  0  0  0  0
 17 34  1  0  0  0  0
 18 22  2  0  0  0  0
 18 35  1  0  0  0  0
 19 36  1  0  0  0  0
 19 37  1  0  0  0  0
 19 38  1  0  0  0  0
 20 23  2  0  0  0  0
 20 39  1  0  0  0  0
 21 25  1  0  0  0  0
 21 26  1  0  0  0  0
 22 40  1  0  0  0  0
 23 24  1  0  0  0  0
 23 41  1  0  0  0  0
 25 43  1  0  0  0  0
 25 44  1  0  0  0  0
 25 45  1  0  0  0  0
 26 46  1  0  0  0  0
 26 47  1  0  0  0  0
 26 48  1  0  0  0  0
M  END
> <PUBCHEM_COMPOUND_CID>
5320227

> <PUBCHEM_CONFORMER_RMSD>
1

> <PUBCHEM_CONFORMER_DIVERSEORDER>
5
224
94
273
32
490
20
217
186
474
27
262
578
625
541
4
399
28
41
386
60
285
293
276
455
140
238
441
21
263
22
623
237
266
85
203
138
195
236
10
132
539
66
330
163
567
434
374
84
234
259
600
179
104
458
232
159
15
189
593
360
6
222
530
43
387
381
521
454
3
74
154
198
338
101
334
331
2
546
267
9
135
69
432
55
416
11
78
311
17
194
470
226
112
151
58
248
393
281
29
515
42
131
73
537
308
346
76
307
86
79
529
320
220
8
44
13
249
207
185
544
359
499
229
16
615
240
306
270
26
116
348
1
188
329
47
453
45
469
513
496
337
414
139
562
210
106
457
134
152
95
149
439
443
71
126
385
75
156
35
93
279
202
327

> <PUBCHEM_MMFF94_PARTIAL_CHARGES>
33
1 -0.36
11 0.03
12 0.14
13 0.08
14 0.42
15 -0.29
16 -0.15
17 -0.29
18 -0.15
19 0.14
2 -0.28
20 -0.18
21 -0.28
22 -0.01
23 -0.14
24 0.71
25 0.14
26 0.14
3 -0.23
32 0.15
33 0.15
34 0.15
35 0.15
39 0.15
4 -0.68
40 0.15
41 0.15
42 0.4
5 -0.57
6 0.14
7 0.42
8 0.08
9 -0.28

> <PUBCHEM_EFFECTIVE_ROTOR_COUNT>
6

> <PUBCHEM_PHARMACOPHORE_FEATURES>
10
1 1 acceptor
1 19 hydrophobe
1 2 acceptor
1 4 acceptor
1 4 donor
1 5 acceptor
3 21 25 26 hydrophobe
5 2 10 12 18 22 rings
6 3 11 13 20 23 24 rings
6 8 10 11 12 13 16 rings

> <PUBCHEM_HEAVY_ATOM_COUNT>
26

> <PUBCHEM_ATOM_DEF_STEREO_COUNT>
0

> <PUBCHEM_ATOM_UDEF_STEREO_COUNT>
1

> <PUBCHEM_BOND_DEF_STEREO_COUNT>
1

> <PUBCHEM_BOND_UDEF_STEREO_COUNT>
0

> <PUBCHEM_ISOTOPIC_ATOM_COUNT>
0

> <PUBCHEM_COMPONENT_COUNT>
1

> <PUBCHEM_CACTVS_TAUTO_COUNT>
1

> <PUBCHEM_CONFORMER_ID>
00512E2300000005

> <PUBCHEM_MMFF94_ENERGY>
62.8642

> <PUBCHEM_FEATURE_SELFOVERLAP>
50.874

> <PUBCHEM_SHAPE_FINGERPRINT>
10411042 1 18265330793548251774
12107698 1 18335424591030189471
12166972 35 18186238450467820955
12549972 3 17845639383298929491
12645989 146 18409730690246949503
12788726 201 17694501846717244962
13402501 40 18343023319968529813
13583140 156 18340195306910428995
13757389 114 16972502653155784076
14251757 17 18341335573635234049
14251764 38 18409164403214273321
14466204 15 18270971257284197610
14790565 3 17979629040716235980
15081414 286 18335971043745350650
16087824 20 17905323275289126345
16992752 21 18051126193378654678
17349148 13 17530960315223704963
17844677 252 18408598176169221479
17980427 23 17531238525834951386
20157964 124 18336547097607224547
21065198 57 18411135814388018191
21279426 13 18198063775207310559
21315763 129 18411140246767945899
21315764 268 18412830183639447271
221357 26 18412829105660834039
23559900 14 18409735087912898595
4015057 19 18410017649954132977
508706 21 17846221102897574829
6086070 43 18127992973143234131
6443956 14 18411696621542895686
7399639 24 17908133287838628979
9709674 26 18341611495387808377
9981440 41 17761495790029016170

> <PUBCHEM_SHAPE_MULTIPOLES>
505.72
12.82
4.72
1.06
12.03
3.46
-0.22
-2.62
1.08
-4.61
-0.12
1.24
0.05
1.82

> <PUBCHEM_SHAPE_SELFOVERLAP>
1079.861

> <PUBCHEM_SHAPE_VOLUME>
282.5

> <PUBCHEM_COORDINATE_TYPE>
2
5
10

$$$$

