12503
  -OEChem-06261207013D

 21 21  0     0  0  0  0  0  0999 V2000
    4.6832    0.0393   -0.9868 Br  0  0  0  0  0  0  0  0  0  0  0  0
    0.8831    0.0002    0.9653 C   0  0  0  0  0  0  0  0  0  0  0  0
    1.9698    0.0170   -0.1246 C   0  0  0  0  0  0  0  0  0  0  0  0
   -0.5129    0.0001    0.4397 C   0  0  0  0  0  0  0  0  0  0  0  0
    3.3749   -0.0569    0.4539 C   0  0  0  0  0  0  0  0  0  0  0  0
   -1.1709    1.2079    0.2079 C   0  0  0  0  0  0  0  0  0  0  0  0
   -1.1604   -1.2078    0.1805 C   0  0  0  0  0  0  0  0  0  0  0  0
   -2.4766    1.2079   -0.2830 C   0  0  0  0  0  0  0  0  0  0  0  0
   -2.4660   -1.2079   -0.3106 C   0  0  0  0  0  0  0  0  0  0  0  0
   -3.1240    0.0000   -0.5424 C   0  0  0  0  0  0  0  0  0  0  0  0
    1.0274   -0.8802    1.6058 H   0  0  0  0  0  0  0  0  0  0  0  0
    1.0237    0.8633    1.6296 H   0  0  0  0  0  0  0  0  0  0  0  0
    1.8595    0.9278   -0.7279 H   0  0  0  0  0  0  0  0  0  0  0  0
    1.8100   -0.8243   -0.8119 H   0  0  0  0  0  0  0  0  0  0  0  0
    3.5854    0.7819    1.1227 H   0  0  0  0  0  0  0  0  0  0  0  0
    3.5518   -0.9991    0.9792 H   0  0  0  0  0  0  0  0  0  0  0  0
   -0.6766    2.1557    0.4041 H   0  0  0  0  0  0  0  0  0  0  0  0
   -0.6580   -2.1555    0.3549 H   0  0  0  0  0  0  0  0  0  0  0  0
   -2.9888    2.1483   -0.4640 H   0  0  0  0  0  0  0  0  0  0  0  0
   -2.9701   -2.1483   -0.5132 H   0  0  0  0  0  0  0  0  0  0  0  0
   -4.1405   -0.0001   -0.9250 H   0  0  0  0  0  0  0  0  0  0  0  0
  1  5  1  0  0  0  0
  2  3  1  0  0  0  0
  2  4  1  0  0  0  0
  2 11  1  0  0  0  0
  2 12  1  0  0  0  0
  3  5  1  0  0  0  0
  3 13  1  0  0  0  0
  3 14  1  0  0  0  0
  4  6  2  0  0  0  0
  4  7  1  0  0  0  0
  5 15  1  0  0  0  0
  5 16  1  0  0  0  0
  6  8  1  0  0  0  0
  6 17  1  0  0  0  0
  7  9  2  0  0  0  0
  7 18  1  0  0  0  0
  8 10  2  0  0  0  0
  8 19  1  0  0  0  0
  9 10  1  0  0  0  0
  9 20  1  0  0  0  0
 10 21  1  0  0  0  0
M  END
> <PUBCHEM_COMPOUND_CID>
12503

> <PUBCHEM_CONFORMER_RMSD>
0.6

> <PUBCHEM_CONFORMER_DIVERSEORDER>
1
8
7
4
9
3
2
5
6

> <PUBCHEM_MMFF94_PARTIAL_CHARGES>
14
1 -0.23
10 -0.15
17 0.15
18 0.15
19 0.15
2 0.14
20 0.15
21 0.15
4 -0.14
5 0.23
6 -0.15
7 -0.15
8 -0.15
9 -0.15

> <PUBCHEM_EFFECTIVE_ROTOR_COUNT>
3

> <PUBCHEM_PHARMACOPHORE_FEATURES>
2
1 1 hydrophobe
6 4 6 7 8 9 10 rings

> <PUBCHEM_HEAVY_ATOM_COUNT>
10

> <PUBCHEM_ATOM_DEF_STEREO_COUNT>
0

> <PUBCHEM_ATOM_UDEF_STEREO_COUNT>
0

> <PUBCHEM_BOND_DEF_STEREO_COUNT>
0

> <PUBCHEM_BOND_UDEF_STEREO_COUNT>
0

> <PUBCHEM_ISOTOPIC_ATOM_COUNT>
0

> <PUBCHEM_COMPONENT_COUNT>
1

> <PUBCHEM_CACTVS_TAUTO_COUNT>
1

> <PUBCHEM_CONFORMER_ID>
000030D700000001

> <PUBCHEM_MMFF94_ENERGY>
18.0663

> <PUBCHEM_FEATURE_SELFOVERLAP>
10.148

> <PUBCHEM_SHAPE_FINGERPRINT>
12897270 3 18408610248889293234
12932764 1 18410295809099968890
13024252 1 17561362877162708003
14123260 362 17203029834394550060
14993402 34 18059861661812547957
15775835 57 17703792556456830308
1986462 14 18334292076430449718
20201158 50 17749107803003902854
20279233 1 17676210173930204178
20645476 183 17988927755831840359
20671657 53 17458054976736230592
20871999 31 18341058436717858791
21061003 4 16732979795435473626
21119208 17 18342455941708381028
22485316 2 15357699699647476934
23403322 49 17531238509193353686
23552423 10 18200324195167791817
23559900 14 18259990396899204448
528716 315 18341891874725969334
93112 12 18410291394042464796

> <PUBCHEM_SHAPE_MULTIPOLES>
211.74
7.35
1.2
0.93
8.9
0
-0.02
0.05
-2.63
-1.04
-0.05
0.48
0
-0.05

> <PUBCHEM_SHAPE_SELFOVERLAP>
408.667

> <PUBCHEM_SHAPE_VOLUME>
130

> <PUBCHEM_COORDINATE_TYPE>
2
5
10

$$$$

