17395714
  -OEChem-06241222512D

 40 42  0     1  0  0  0  0  0999 V2000
    7.0468    0.4420    0.0000 S   0  0  0  0  0  0  0  0  0  0  0  0
    2.0000    0.7784    0.0000 O   0  0  0  0  0  0  0  0  0  0  0  0
    5.3147    1.4420    0.0000 O   0  0  0  0  0  0  0  0  0  0  0  0
    8.7788    0.4420    0.0000 N   0  0  0  0  0  0  0  0  0  0  0  0
    4.4487   -0.0580    0.0000 N   0  0  0  0  0  0  0  0  0  0  0  0
    2.6691    0.0353    0.0000 N   0  0  0  0  0  0  0  0  0  0  0  0
    9.6448   -1.0580    0.0000 C   0  0  0  0  0  0  0  0  0  0  0  0
    6.1808   -0.0580    0.0000 C   0  0  3  0  0  0  0  0  0  0  0  0
    8.7788   -1.5580    0.0000 C   0  0  0  0  0  0  0  0  0  0  0  0
    9.6448   -0.0580    0.0000 C   0  0  0  0  0  0  0  0  0  0  0  0
    7.9128   -0.0580    0.0000 C   0  0  0  0  0  0  0  0  0  0  0  0
    7.9128   -1.0580    0.0000 C   0  0  0  0  0  0  0  0  0  0  0  0
   10.5388   -1.5926    0.0000 C   0  0  0  0  0  0  0  0  0  0  0  0
    5.3147    0.4420    0.0000 C   0  0  0  0  0  0  0  0  0  0  0  0
    6.1808   -1.0580    0.0000 C   0  0  0  0  0  0  0  0  0  0  0  0
    8.7788   -2.5580    0.0000 C   0  0  0  0  0  0  0  0  0  0  0  0
   10.5388    0.4767    0.0000 C   0  0  0  0  0  0  0  0  0  0  0  0
   11.4449   -1.0788    0.0000 C   0  0  0  0  0  0  0  0  0  0  0  0
   11.4449   -0.0372    0.0000 C   0  0  0  0  0  0  0  0  0  0  0  0
    3.5827    0.4420    0.0000 C   0  0  0  0  0  0  0  0  0  0  0  0
    3.4782    1.4365    0.0000 C   0  0  0  0  0  0  0  0  0  0  0  0
    2.5000    1.6444    0.0000 C   0  0  0  0  0  0  0  0  0  0  0  0
    2.0933    2.5580    0.0000 C   0  0  0  0  0  0  0  0  0  0  0  0
    6.7177   -0.3680    0.0000 H   0  0  0  0  0  0  0  0  0  0  0  0
    7.3759   -1.3680    0.0000 H   0  0  0  0  0  0  0  0  0  0  0  0
   10.5316   -2.2126    0.0000 H   0  0  0  0  0  0  0  0  0  0  0  0
    5.5608   -1.0580    0.0000 H   0  0  0  0  0  0  0  0  0  0  0  0
    6.1808   -1.6780    0.0000 H   0  0  0  0  0  0  0  0  0  0  0  0
    6.8008   -1.0580    0.0000 H   0  0  0  0  0  0  0  0  0  0  0  0
    8.1588   -2.5580    0.0000 H   0  0  0  0  0  0  0  0  0  0  0  0
    8.7788   -3.1780    0.0000 H   0  0  0  0  0  0  0  0  0  0  0  0
    9.3988   -2.5580    0.0000 H   0  0  0  0  0  0  0  0  0  0  0  0
   10.5316    1.0966    0.0000 H   0  0  0  0  0  0  0  0  0  0  0  0
   11.9806   -1.3909    0.0000 H   0  0  0  0  0  0  0  0  0  0  0  0
    4.4487   -0.6780    0.0000 H   0  0  0  0  0  0  0  0  0  0  0  0
   11.9806    0.2749    0.0000 H   0  0  0  0  0  0  0  0  0  0  0  0
    3.9389    1.8514    0.0000 H   0  0  0  0  0  0  0  0  0  0  0  0
    2.6597    2.8102    0.0000 H   0  0  0  0  0  0  0  0  0  0  0  0
    1.8411    3.1244    0.0000 H   0  0  0  0  0  0  0  0  0  0  0  0
    1.5269    2.3058    0.0000 H   0  0  0  0  0  0  0  0  0  0  0  0
  1  8  1  0  0  0  0
  1 11  1  0  0  0  0
  2  6  1  0  0  0  0
  2 22  1  0  0  0  0
  3 14  2  0  0  0  0
  4 10  1  0  0  0  0
  4 11  2  0  0  0  0
  5 14  1  0  0  0  0
  5 20  1  0  0  0  0
  5 35  1  0  0  0  0
  6 20  2  0  0  0  0
  7  9  1  0  0  0  0
  7 10  1  0  0  0  0
  7 13  2  0  0  0  0
  8 14  1  0  0  0  0
  8 15  1  0  0  0  0
  8 24  1  0  0  0  0
  9 12  2  0  0  0  0
  9 16  1  0  0  0  0
 10 17  2  0  0  0  0
 11 12  1  0  0  0  0
 12 25  1  0  0  0  0
 13 18  1  0  0  0  0
 13 26  1  0  0  0  0
 15 27  1  0  0  0  0
 15 28  1  0  0  0  0
 15 29  1  0  0  0  0
 16 30  1  0  0  0  0
 16 31  1  0  0  0  0
 16 32  1  0  0  0  0
 17 19  1  0  0  0  0
 17 33  1  0  0  0  0
 18 19  2  0  0  0  0
 18 34  1  0  0  0  0
 19 36  1  0  0  0  0
 20 21  1  0  0  0  0
 21 22  2  0  0  0  0
 21 37  1  0  0  0  0
 22 23  1  0  0  0  0
 23 38  1  0  0  0  0
 23 39  1  0  0  0  0
 23 40  1  0  0  0  0
M  END
> <PUBCHEM_COMPOUND_CID>
17395714

> <PUBCHEM_COMPOUND_CANONICALIZED>
1

> <PUBCHEM_CACTVS_COMPLEXITY>
423

> <PUBCHEM_CACTVS_HBOND_ACCEPTOR>
5

> <PUBCHEM_CACTVS_HBOND_DONOR>
1

> <PUBCHEM_CACTVS_ROTATABLE_BOND>
4

> <PUBCHEM_CACTVS_SUBSKEYS>
AAADceB7MABAAAAAAAAAAAAAAAAAAWAAAAA8QAAAAAAAAACx/AAAHgQUAAAADAyF3gCz9fLYEAipA6dydgCC0CBlKjApmDk2bNqIJOrgmZGEIIhilQroyEcQgMAOgAAAAAACAAAAAAAAAAQAAAAAAAAAAA==

> <PUBCHEM_IUPAC_OPENEYE_NAME>
N-(5-methylisoxazol-3-yl)-2-[(4-methyl-2-quinolyl)sulfanyl]propanamide

> <PUBCHEM_IUPAC_CAS_NAME>
N-(5-methyl-3-isoxazolyl)-2-[(4-methyl-2-quinolinyl)thio]propanamide

> <PUBCHEM_IUPAC_NAME>
N-(5-methyl-1,2-oxazol-3-yl)-2-(4-methylquinolin-2-yl)sulfanylpropanamide

> <PUBCHEM_IUPAC_SYSTEMATIC_NAME>
N-(5-methyl-1,2-oxazol-3-yl)-2-(4-methylquinolin-2-yl)sulfanyl-propanamide

> <PUBCHEM_IUPAC_TRADITIONAL_NAME>
N-(5-methylisoxazol-3-yl)-2-[(4-methyl-2-quinolyl)thio]propionamide

> <PUBCHEM_IUPAC_INCHI>
InChI=1S/C17H17N3O2S/c1-10-8-16(18-14-7-5-4-6-13(10)14)23-12(3)17(21)19-15-9-11(2)22-20-15/h4-9,12H,1-3H3,(H,19,20,21)

> <PUBCHEM_IUPAC_INCHIKEY>
CJCSBQGWLJPBIQ-UHFFFAOYSA-N

> <PUBCHEM_XLOGP3_AA>
3.9

> <PUBCHEM_EXACT_MASS>
327.104148

> <PUBCHEM_MOLECULAR_FORMULA>
C17H17N3O2S

> <PUBCHEM_MOLECULAR_WEIGHT>
327.40078

> <PUBCHEM_OPENEYE_CAN_SMILES>
CC1=CC(=NC2=CC=CC=C12)SC(C)C(=O)NC3=NOC(=C3)C

> <PUBCHEM_OPENEYE_ISO_SMILES>
CC1=CC(=NC2=CC=CC=C12)SC(C)C(=O)NC3=NOC(=C3)C

> <PUBCHEM_CACTVS_TPSA>
93.3

> <PUBCHEM_MONOISOTOPIC_WEIGHT>
327.104148

> <PUBCHEM_TOTAL_CHARGE>
0

> <PUBCHEM_HEAVY_ATOM_COUNT>
23

> <PUBCHEM_ATOM_DEF_STEREO_COUNT>
0

> <PUBCHEM_ATOM_UDEF_STEREO_COUNT>
1

> <PUBCHEM_BOND_DEF_STEREO_COUNT>
0

> <PUBCHEM_BOND_UDEF_STEREO_COUNT>
0

> <PUBCHEM_ISOTOPIC_ATOM_COUNT>
0

> <PUBCHEM_COMPONENT_COUNT>
1

> <PUBCHEM_CACTVS_TAUTO_COUNT>
10

> <PUBCHEM_COORDINATE_TYPE>
1
5
255

> <PUBCHEM_BONDANNOTATIONS>
10  17  8
11  12  8
13  18  8
17  19  8
18  19  8
2  22  8
2  6  8
20  21  8
21  22  8
4  10  8
4  11  8
6  20  8
7  10  8
7  13  8
7  9  8
8  15  3
9  12  8

$$$$

