42626432
  -OEChem-07051213152D

 61 65  0     1  0  0  0  0  0999 V2000
    8.5012    6.6874    0.0000 P   0  0  3  0  0  0  0  0  0  0  0  0
    5.4104    1.9750    0.0000 P   0  0  3  0  0  0  0  0  0  0  0  0
    5.0474    0.2814    0.0000 P   0  0  3  0  0  0  0  0  0  0  0  0
    7.4382    4.3043    0.0000 O   0  0  0  0  0  0  0  0  0  0  0  0
    7.5128    6.7939    0.0000 O   0  0  0  0  0  0  0  0  0  0  0  0
    4.4026   -3.1718    0.0000 O   0  0  0  0  0  0  0  0  0  0  0  0
    8.7070    5.7149    0.0000 O   0  0  0  0  0  0  0  0  0  0  0  0
    5.3248    5.7973    0.0000 O   0  0  0  0  0  0  0  0  0  0  0  0
    6.7523   -2.0881    0.0000 O   0  0  0  0  0  0  0  0  0  0  0  0
    6.7485   -4.2636    0.0000 O   0  0  0  0  0  0  0  0  0  0  0  0
    6.0809    2.7170    0.0000 O   0  0  0  0  0  0  0  0  0  0  0  0
    5.3548   -0.6702    0.0000 O   0  0  0  0  0  0  0  0  0  0  0  0
    8.6074    7.6818    0.0000 O   0  0  0  0  0  0  0  0  0  0  0  0
    9.4797    6.8936    0.0000 O   0  0  0  0  0  0  0  0  0  0  0  0
    4.7400    1.2330    0.0000 O   0  0  0  0  0  0  0  0  0  0  0  0
    4.6685    2.6454    0.0000 O   0  0  0  0  0  0  0  0  0  0  0  0
    5.9990    0.5888    0.0000 O   0  0  0  0  0  0  0  0  0  0  0  0
    6.1524    1.3045    0.0000 O   0  0  0  0  0  0  0  0  0  0  0  0
    4.0958   -0.0260    0.0000 O   0  0  0  0  0  0  0  0  0  0  0  0
    4.6783   -4.9323    0.0000 N   0  0  0  0  0  0  0  0  0  0  0  0
    4.6783   -6.5418    0.0000 N   0  0  0  0  0  0  0  0  0  0  0  0
    2.8660   -4.7371    0.0000 N   0  0  0  0  0  0  0  0  0  0  0  0
    2.0000   -6.2371    0.0000 N   0  0  0  0  0  0  0  0  0  0  0  0
    2.8660   -7.7371    0.0000 N   0  0  0  0  0  0  0  0  0  0  0  0
    7.1046    5.8875    0.0000 C   0  0  2  0  0  0  0  0  0  0  0  0
    6.2377    5.3890    0.0000 C   0  0  1  0  0  0  0  0  0  0  0  0
    6.4439    4.4105    0.0000 C   0  0  1  0  0  0  0  0  0  0  0  0
    7.8466    5.2171    0.0000 C   0  0  2  0  0  0  0  0  0  0  0  0
    5.9422   -2.6744    0.0000 C   0  0  1  0  0  0  0  0  0  0  0  0
    5.9405   -3.6744    0.0000 C   0  0  2  0  0  0  0  0  0  0  0  0
    4.9917   -2.3638    0.0000 C   0  0  1  0  0  0  0  0  0  0  0  0
    4.9889   -3.9818    0.0000 C   0  0  1  0  0  0  0  0  0  0  0  0
    5.7735    3.6685    0.0000 C   0  0  0  0  0  0  0  0  0  0  0  0
    4.6844   -1.4122    0.0000 C   0  0  0  0  0  0  0  0  0  0  0  0
    3.7320   -5.2371    0.0000 C   0  0  0  0  0  0  0  0  0  0  0  0
    5.2619   -5.7371    0.0000 C   0  0  0  0  0  0  0  0  0  0  0  0
    3.7320   -6.2371    0.0000 C   0  0  0  0  0  0  0  0  0  0  0  0
    2.8660   -6.7371    0.0000 C   0  0  0  0  0  0  0  0  0  0  0  0
    2.0000   -5.2371    0.0000 C   0  0  0  0  0  0  0  0  0  0  0  0
    6.4746    6.4582    0.0000 H   0  0  0  0  0  0  0  0  0  0  0  0
    6.2063    6.0082    0.0000 H   0  0  0  0  0  0  0  0  0  0  0  0
    6.6651    3.8313    0.0000 H   0  0  0  0  0  0  0  0  0  0  0  0
    8.4780    4.6481    0.0000 H   0  0  0  0  0  0  0  0  0  0  0  0
    6.4942   -2.9569    0.0000 H   0  0  0  0  0  0  0  0  0  0  0  0
    6.4934   -3.3939    0.0000 H   0  0  0  0  0  0  0  0  0  0  0  0
    4.3795   -2.2657    0.0000 H   0  0  0  0  0  0  0  0  0  0  0  0
    5.4266   -4.4210    0.0000 H   0  0  0  0  0  0  0  0  0  0  0  0
    5.3926    4.1578    0.0000 H   0  0  0  0  0  0  0  0  0  0  0  0
    5.2256    3.3784    0.0000 H   0  0  0  0  0  0  0  0  0  0  0  0
    4.3035   -0.9230    0.0000 H   0  0  0  0  0  0  0  0  0  0  0  0
    4.1364   -1.7023    0.0000 H   0  0  0  0  0  0  0  0  0  0  0  0
    5.2611    6.4141    0.0000 H   0  0  0  0  0  0  0  0  0  0  0  0
    7.3182   -2.3412    0.0000 H   0  0  0  0  0  0  0  0  0  0  0  0
    7.3154   -4.0124    0.0000 H   0  0  0  0  0  0  0  0  0  0  0  0
    5.8819   -5.7371    0.0000 H   0  0  0  0  0  0  0  0  0  0  0  0
    8.1065    8.0471    0.0000 H   0  0  0  0  0  0  0  0  0  0  0  0
    1.4631   -4.9271    0.0000 H   0  0  0  0  0  0  0  0  0  0  0  0
    4.0785    2.4548    0.0000 H   0  0  0  0  0  0  0  0  0  0  0  0
    6.4590    0.1731    0.0000 H   0  0  0  0  0  0  0  0  0  0  0  0
    2.3291   -8.0471    0.0000 H   0  0  0  0  0  0  0  0  0  0  0  0
    3.4030   -8.0471    0.0000 H   0  0  0  0  0  0  0  0  0  0  0  0
  1  5  1  0  0  0  0
  1  7  1  0  0  0  0
  1 13  1  0  0  0  0
  1 14  2  0  0  0  0
  2 11  1  0  0  0  0
  2 15  1  0  0  0  0
  2 16  1  0  0  0  0
  2 18  2  0  0  0  0
  3 12  1  0  0  0  0
  3 15  1  0  0  0  0
  3 17  1  0  0  0  0
  3 19  2  0  0  0  0
  4 27  1  0  0  0  0
  4 28  1  0  0  0  0
  5 25  1  0  0  0  0
  6 31  1  0  0  0  0
  6 32  1  0  0  0  0
  7 28  1  0  0  0  0
 26  8  1  1  0  0  0
  8 52  1  0  0  0  0
 29  9  1  1  0  0  0
  9 53  1  0  0  0  0
 30 10  1  1  0  0  0
 10 54  1  0  0  0  0
 11 33  1  0  0  0  0
 12 34  1  0  0  0  0
 13 56  1  0  0  0  0
 16 58  1  0  0  0  0
 17 59  1  0  0  0  0
 32 20  1  6  0  0  0
 20 35  1  0  0  0  0
 20 36  1  0  0  0  0
 21 36  2  0  0  0  0
 21 37  1  0  0  0  0
 22 35  1  0  0  0  0
 22 39  2  0  0  0  0
 23 38  2  0  0  0  0
 23 39  1  0  0  0  0
 24 38  1  0  0  0  0
 24 60  1  0  0  0  0
 24 61  1  0  0  0  0
 25 26  1  0  0  0  0
 25 28  1  0  0  0  0
 25 40  1  6  0  0  0
 26 27  1  0  0  0  0
 26 41  1  0  0  0  0
 27 33  1  6  0  0  0
 27 42  1  0  0  0  0
 28 43  1  6  0  0  0
 29 30  1  0  0  0  0
 29 31  1  0  0  0  0
 29 44  1  0  0  0  0
 30 32  1  0  0  0  0
 30 45  1  0  0  0  0
 31 34  1  6  0  0  0
 31 46  1  0  0  0  0
 32 47  1  0  0  0  0
 33 48  1  0  0  0  0
 33 49  1  0  0  0  0
 34 50  1  0  0  0  0
 34 51  1  0  0  0  0
 35 37  2  0  0  0  0
 36 55  1  0  0  0  0
 37 38  1  0  0  0  0
 39 57  1  0  0  0  0
M  END
> <PUBCHEM_COMPOUND_CID>
42626432

> <PUBCHEM_COMPOUND_CANONICALIZED>
1

> <PUBCHEM_CACTVS_COMPLEXITY>
1060

> <PUBCHEM_CACTVS_HBOND_ACCEPTOR>
20

> <PUBCHEM_CACTVS_HBOND_DONOR>
7

> <PUBCHEM_CACTVS_ROTATABLE_BOND>
9

> <PUBCHEM_CACTVS_SUBSKEYS>
AAADceBzvgMAAAAAAAAAAAAAAAAAAWJEiQAsAAAAAAASAFgB+AAAHgAQCCAACBzxlwcF+L9MFxCgQQZhZICAgC0REKABUCAoVBCTWAJAyEAeRAgPAALXACDwMAIAAAAAAAAAAAAAAAAAAAAAAAAAAAAAAA==

> <PUBCHEM_IUPAC_OPENEYE_NAME>
[[(3aR,5R,6R,6aR)-2,6-dihydroxy-2-oxo-3a,5,6,6a-tetrahydrofuro[2,3-d][1,3,2]dioxaphosphol-5-yl]methoxy-hydroxy-phosphoryl] [(2R,3S,4R,5R)-5-(6-aminopurin-9-yl)-3,4-dihydroxy-tetrahydrofuran-2-yl]methyl hydrogen phosphate

> <PUBCHEM_IUPAC_CAS_NAME>
[[(3aR,5R,6R,6aR)-2,6-dihydroxy-2-oxo-3a,5,6,6a-tetrahydrofuro[2,3-d][1,3,2]dioxaphosphol-5-yl]methoxy-hydroxyphosphoryl] [(2R,3S,4R,5R)-5-(6-aminopurin-9-yl)-3,4-dihydroxy-2-oxolanyl]methyl hydrogen phosphate

> <PUBCHEM_IUPAC_NAME>
[[(3aR,5R,6R,6aR)-2,6-dihydroxy-2-oxo-3a,5,6,6a-tetrahydrofuro[2,3-d][1,3,2]dioxaphosphol-5-yl]methoxy-hydroxyphosphoryl] [(2R,3S,4R,5R)-5-(6-aminopurin-9-yl)-3,4-dihydroxyoxolan-2-yl]methyl hydrogen phosphate

> <PUBCHEM_IUPAC_SYSTEMATIC_NAME>
[[(3aR,5R,6R,6aR)-2,6-bis(oxidanyl)-2-oxidanylidene-3a,5,6,6a-tetrahydrofuro[2,3-d][1,3,2]dioxaphosphol-5-yl]methoxy-oxidanyl-phosphoryl] [(2R,3S,4R,5R)-5-(6-aminopurin-9-yl)-3,4-bis(oxidanyl)oxolan-2-yl]methyl hydrogen phosphate

> <PUBCHEM_IUPAC_TRADITIONAL_NAME>
[[(3aR,5R,6R,6aR)-2,6-dihydroxy-2-keto-3a,5,6,6a-tetrahydrofuro[2,3-d][1,3,2]dioxaphosphol-5-yl]methoxy-hydroxy-phosphoryl] [(2R,3S,4R,5R)-5-adenin-9-yl-3,4-dihydroxy-tetrahydrofuran-2-yl]methyl hydrogen phosphate

> <PUBCHEM_IUPAC_INCHI>
InChI=1S/C15H22N5O16P3/c16-12-7-13(18-3-17-12)20(4-19-7)14-10(23)8(21)5(32-14)1-30-37(24,25)36-38(26,27)31-2-6-9(22)11-15(33-6)35-39(28,29)34-11/h3-6,8-11,14-15,21-23H,1-2H2,(H,24,25)(H,26,27)(H,28,29)(H2,16,17,18)/t5-,6-,8-,9-,10-,11-,14-,15-/m1/s1

> <PUBCHEM_IUPAC_INCHIKEY>
NPSPRYXPOGPCPM-KEOHHSTQSA-N

> <PUBCHEM_XLOGP3>
-6.2

> <PUBCHEM_EXACT_MASS>
621.02744

> <PUBCHEM_MOLECULAR_FORMULA>
C15H22N5O16P3

> <PUBCHEM_MOLECULAR_WEIGHT>
621.280366

> <PUBCHEM_OPENEYE_CAN_SMILES>
C1=NC2=C(C(=N1)N)N=CN2C3C(C(C(O3)COP(=O)(O)OP(=O)(O)OCC4C(C5C(O4)OP(=O)(O5)O)O)O)O

> <PUBCHEM_OPENEYE_ISO_SMILES>
C1=NC2=C(C(=N1)N)N=CN2[C@H]3[C@@H]([C@@H]([C@H](O3)COP(=O)(O)OP(=O)(O)OC[C@@H]4[C@H]([C@@H]5[C@H](O4)OP(=O)(O5)O)O)O)O

> <PUBCHEM_CACTVS_TPSA>
307

> <PUBCHEM_MONOISOTOPIC_WEIGHT>
621.02744

> <PUBCHEM_TOTAL_CHARGE>
0

> <PUBCHEM_HEAVY_ATOM_COUNT>
39

> <PUBCHEM_ATOM_DEF_STEREO_COUNT>
8

> <PUBCHEM_ATOM_UDEF_STEREO_COUNT>
0

> <PUBCHEM_BOND_DEF_STEREO_COUNT>
0

> <PUBCHEM_BOND_UDEF_STEREO_COUNT>
0

> <PUBCHEM_ISOTOPIC_ATOM_COUNT>
0

> <PUBCHEM_COMPONENT_COUNT>
1

> <PUBCHEM_CACTVS_TAUTO_COUNT>
3

> <PUBCHEM_COORDINATE_TYPE>
1
5
255

> <PUBCHEM_BONDANNOTATIONS>
30  10  5
32  20  6
20  35  8
20  36  8
21  36  8
21  37  8
22  35  8
22  39  8
23  38  8
23  39  8
25  40  6
27  33  6
28  43  6
31  34  6
35  37  8
37  38  8
26  8  5
29  9  5

$$$$

