2315
  -OEChem-07051212543D

 41 43  0     1  0  0  0  0  0999 V2000
   -0.3624   -2.7842    0.0617 S   0  0  0  0  0  0  0  0  0  0  0  0
    4.4629   -0.4159   -0.4424 S   0  0  0  0  0  0  0  0  0  0  0  0
    2.3023    3.3031    0.6950 F   0  0  0  0  0  0  0  0  0  0  0  0
    4.0348    2.1233    1.2521 F   0  0  0  0  0  0  0  0  0  0  0  0
    3.6081    2.4991   -0.8468 F   0  0  0  0  0  0  0  0  0  0  0  0
    0.3709   -3.8311    0.7461 O   0  0  0  0  0  0  0  0  0  0  0  0
   -0.7624   -2.9262   -1.3238 O   0  0  0  0  0  0  0  0  0  0  0  0
    5.1659    0.6741    0.2171 O   0  0  0  0  0  0  0  0  0  0  0  0
    4.8704   -1.7923   -0.2037 O   0  0  0  0  0  0  0  0  0  0  0  0
   -1.7068   -2.3659    1.0207 N   0  0  0  0  0  0  0  0  0  0  0  0
   -1.3449    0.0540    0.8261 N   0  0  0  0  0  0  0  0  0  0  0  0
    4.4519   -0.1290   -2.1261 N   0  0  0  0  0  0  0  0  0  0  0  0
   -2.3100   -1.0292    0.8258 C   0  0  1  0  0  0  0  0  0  0  0  0
    0.5951   -1.3080    0.1540 C   0  0  0  0  0  0  0  0  0  0  0  0
   -0.0071   -0.0926    0.5054 C   0  0  0  0  0  0  0  0  0  0  0  0
   -3.1545   -0.9877   -0.4403 C   0  0  0  0  0  0  0  0  0  0  0  0
    1.9603   -1.4097   -0.1319 C   0  0  0  0  0  0  0  0  0  0  0  0
    0.8286    1.0359    0.5609 C   0  0  0  0  0  0  0  0  0  0  0  0
    2.7593   -0.2727   -0.0722 C   0  0  0  0  0  0  0  0  0  0  0  0
    2.1943    0.9507    0.2740 C   0  0  0  0  0  0  0  0  0  0  0  0
   -4.2003    0.0919   -0.3754 C   0  0  0  0  0  0  0  0  0  0  0  0
    3.0180    2.1949    0.3446 C   0  0  0  0  0  0  0  0  0  0  0  0
   -5.4534   -0.1997    0.1465 C   0  0  0  0  0  0  0  0  0  0  0  0
   -3.8988    1.3654   -0.8387 C   0  0  0  0  0  0  0  0  0  0  0  0
   -6.4231    0.8012    0.2063 C   0  0  0  0  0  0  0  0  0  0  0  0
   -4.8685    2.3663   -0.7789 C   0  0  0  0  0  0  0  0  0  0  0  0
   -6.1306    2.0842   -0.2563 C   0  0  0  0  0  0  0  0  0  0  0  0
   -2.9596   -0.8762    1.6978 H   0  0  0  0  0  0  0  0  0  0  0  0
   -1.7106   -2.6981    1.9936 H   0  0  0  0  0  0  0  0  0  0  0  0
   -1.6848    0.9880    1.0276 H   0  0  0  0  0  0  0  0  0  0  0  0
   -3.6582   -1.9520   -0.5941 H   0  0  0  0  0  0  0  0  0  0  0  0
   -2.5330   -0.8412   -1.3335 H   0  0  0  0  0  0  0  0  0  0  0  0
    2.3830   -2.3702   -0.4130 H   0  0  0  0  0  0  0  0  0  0  0  0
    0.3929    1.9954    0.8360 H   0  0  0  0  0  0  0  0  0  0  0  0
   -5.6909   -1.1949    0.5116 H   0  0  0  0  0  0  0  0  0  0  0  0
   -2.9205    1.5966   -1.2505 H   0  0  0  0  0  0  0  0  0  0  0  0
    4.8417    0.7604   -2.4609 H   0  0  0  0  0  0  0  0  0  0  0  0
    4.6397   -0.9255   -2.7471 H   0  0  0  0  0  0  0  0  0  0  0  0
   -7.4057    0.5818    0.6138 H   0  0  0  0  0  0  0  0  0  0  0  0
   -4.6410    3.3651   -1.1396 H   0  0  0  0  0  0  0  0  0  0  0  0
   -6.8856    2.8636   -0.2095 H   0  0  0  0  0  0  0  0  0  0  0  0
  1  6  2  0  0  0  0
  1  7  2  0  0  0  0
  1 10  1  0  0  0  0
  1 14  1  0  0  0  0
  2  8  2  0  0  0  0
  2  9  2  0  0  0  0
  2 12  1  0  0  0  0
  2 19  1  0  0  0  0
  3 22  1  0  0  0  0
  4 22  1  0  0  0  0
  5 22  1  0  0  0  0
 10 13  1  0  0  0  0
 10 29  1  0  0  0  0
 11 13  1  0  0  0  0
 11 15  1  0  0  0  0
 11 30  1  0  0  0  0
 12 37  1  0  0  0  0
 12 38  1  0  0  0  0
 13 16  1  0  0  0  0
 13 28  1  0  0  0  0
 14 15  2  0  0  0  0
 14 17  1  0  0  0  0
 15 18  1  0  0  0  0
 16 21  1  0  0  0  0
 16 31  1  0  0  0  0
 16 32  1  0  0  0  0
 17 19  2  0  0  0  0
 17 33  1  0  0  0  0
 18 20  2  0  0  0  0
 18 34  1  0  0  0  0
 19 20  1  0  0  0  0
 20 22  1  0  0  0  0
 21 23  2  0  0  0  0
 21 24  1  0  0  0  0
 23 25  1  0  0  0  0
 23 35  1  0  0  0  0
 24 26  2  0  0  0  0
 24 36  1  0  0  0  0
 25 27  2  0  0  0  0
 25 39  1  0  0  0  0
 26 27  1  0  0  0  0
 26 40  1  0  0  0  0
 27 41  1  0  0  0  0
M  END
> <PUBCHEM_COMPOUND_CID>
2315

> <PUBCHEM_CONFORMER_RMSD>
0.8

> <PUBCHEM_CONFORMER_DIVERSEORDER>
1
2
4
7
6
3
8
9
10
5

> <PUBCHEM_MMFF94_PARTIAL_CHARGES>
38
1 1.45
10 -0.91
11 -0.87
12 -0.98
13 0.72
14 -0.01
15 0.1
16 0.14
17 -0.15
18 -0.15
19 -0.01
2 1.45
20 -0.14
21 -0.14
22 1.16
23 -0.15
24 -0.15
25 -0.15
26 -0.15
27 -0.15
29 0.42
3 -0.34
30 0.4
33 0.15
34 0.15
35 0.15
36 0.15
37 0.42
38 0.42
39 0.15
4 -0.34
40 0.15
41 0.15
5 -0.34
6 -0.65
7 -0.65
8 -0.65
9 -0.65

> <PUBCHEM_EFFECTIVE_ROTOR_COUNT>
4.6

> <PUBCHEM_PHARMACOPHORE_FEATURES>
11
1 10 donor
1 11 cation
1 11 donor
1 12 donor
1 6 acceptor
1 7 acceptor
1 8 acceptor
1 9 acceptor
6 1 10 11 13 14 15 rings
6 14 15 17 18 19 20 rings
6 21 23 24 25 26 27 rings

> <PUBCHEM_HEAVY_ATOM_COUNT>
27

> <PUBCHEM_ATOM_DEF_STEREO_COUNT>
0

> <PUBCHEM_ATOM_UDEF_STEREO_COUNT>
1

> <PUBCHEM_BOND_DEF_STEREO_COUNT>
0

> <PUBCHEM_BOND_UDEF_STEREO_COUNT>
0

> <PUBCHEM_ISOTOPIC_ATOM_COUNT>
0

> <PUBCHEM_COMPONENT_COUNT>
1

> <PUBCHEM_CACTVS_TAUTO_COUNT>
1

> <PUBCHEM_CONFORMER_ID>
0000090B00000001

> <PUBCHEM_MMFF94_ENERGY>
52.9636

> <PUBCHEM_FEATURE_SELFOVERLAP>
55.895

> <PUBCHEM_SHAPE_FINGERPRINT>
10411042 1 17546167862422195483
10693767 8 17896601888949216902
11578080 2 18270674243838633284
11595378 159 15913339030167964773
11796584 16 5978099129644715373
12403259 415 18411130308366006403
12596602 18 14692560014533555149
12730499 353 18341325678415673499
12769317 202 18338528542124818281
13402501 40 18341614845320400845
13540713 4 18045490929601567642
13944108 23 17978508964436893685
14790565 3 18411979161460654997
15099037 51 18408885148223964630
15183329 4 18260544575865054705
1601671 61 18341615970258453679
18335252 114 18264498445775317589
20715895 44 18335708225864000488
21033648 29 18339365166909245784
21279426 13 18338516455648835206
21307412 95 17823673400746350598
21709351 56 18335711567680664799
21859007 373 18341344365549801056
221357 26 18335706074365161061
22393880 68 18334298660642039119
23559900 14 18259984847617147042
2838139 119 18411144662320906407
314194 84 10375859771893756297
3178227 256 18339916112539597819
3298306 158 18410291432359950151
335352 9 18410292528035384270
350125 39 18340487858443927820
38695281 34 18187366566852432695
474 4 18410294735632418875
495365 180 17604155822571317200
5104073 3 18130223887232170561
5283173 99 18263366906038396739
6138700 20 18265894842575301470
633830 44 18335712615341474623
7808743 9 18198346143611311857

> <PUBCHEM_SHAPE_MULTIPOLES>
503.1
13.15
3.52
1.07
10.75
0.87
-0.28
-8.06
-2.29
-1.09
0.31
-0.57
0.01
1.08

> <PUBCHEM_SHAPE_SELFOVERLAP>
1071.81

> <PUBCHEM_SHAPE_VOLUME>
281.4

> <PUBCHEM_COORDINATE_TYPE>
2
5
10

$$$$

