23724657
  -OEChem-07051213082D

 62 65  0     1  0  0  0  0  0999 V2000
    5.1350   -0.3879    0.0000 O   0  0  0  0  0  0  0  0  0  0  0  0
    4.2690   -1.8879    0.0000 O   0  0  0  0  0  0  0  0  0  0  0  0
    4.2690    2.1121    0.0000 O   0  0  0  0  0  0  0  0  0  0  0  0
    2.5369    1.1121    0.0000 O   0  0  0  0  0  0  0  0  0  0  0  0
    2.5369   -0.8879    0.0000 O   0  0  0  0  0  0  0  0  0  0  0  0
    6.0010    2.1121    0.0000 O   0  0  0  0  0  0  0  0  0  0  0  0
    4.2690   -3.8879    0.0000 O   0  0  0  0  0  0  0  0  0  0  0  0
    7.7610   -1.8533    0.0000 O   0  0  0  0  0  0  0  0  0  0  0  0
    7.7331    2.1121    0.0000 O   0  0  0  0  0  0  0  0  0  0  0  0
    7.7494   -4.9225    0.0000 O   0  0  0  0  0  0  0  0  0  0  0  0
    7.7331    5.1121    0.0000 O   0  0  0  0  0  0  0  0  0  0  0  0
    8.5991    3.6121    0.0000 O   0  0  0  0  0  0  0  0  0  0  0  0
   12.1234   -5.4221    0.0000 O   0  0  0  0  0  0  0  0  0  0  0  0
    4.2690    1.1121    0.0000 C   0  0  1  0  0  0  0  0  0  0  0  0
    3.4030    0.6121    0.0000 C   0  0  1  0  0  0  0  0  0  0  0  0
    5.1350    0.6121    0.0000 C   0  0  1  0  0  0  0  0  0  0  0  0
    3.4030   -0.3879    0.0000 C   0  0  2  0  0  0  0  0  0  0  0  0
    4.2690   -0.8879    0.0000 C   0  0  1  0  0  0  0  0  0  0  0  0
    6.0010    1.1121    0.0000 C   0  0  0  0  0  0  0  0  0  0  0  0
    5.1350   -2.3879    0.0000 C   0  0  0  0  0  0  0  0  0  0  0  0
    5.1350   -3.3879    0.0000 C   0  0  0  0  0  0  0  0  0  0  0  0
    6.0010   -1.8879    0.0000 C   0  0  0  0  0  0  0  0  0  0  0  0
    6.8671   -2.3879    0.0000 C   0  0  0  0  0  0  0  0  0  0  0  0
    6.8671    2.6121    0.0000 C   0  0  0  0  0  0  0  0  0  0  0  0
    6.8671   -3.3879    0.0000 C   0  0  0  0  0  0  0  0  0  0  0  0
    6.0010   -3.8879    0.0000 C   0  0  0  0  0  0  0  0  0  0  0  0
    7.7610   -3.9226    0.0000 C   0  0  0  0  0  0  0  0  0  0  0  0
    6.8671    3.6121    0.0000 C   0  0  0  0  0  0  0  0  0  0  0  0
    8.6671   -3.4087    0.0000 C   0  0  0  0  0  0  0  0  0  0  0  0
    8.6671   -2.3671    0.0000 C   0  0  0  0  0  0  0  0  0  0  0  0
    9.5312   -3.9121    0.0000 C   0  0  0  0  0  0  0  0  0  0  0  0
    4.2690   -4.8879    0.0000 C   0  0  0  0  0  0  0  0  0  0  0  0
    7.7331    4.1121    0.0000 C   0  0  0  0  0  0  0  0  0  0  0  0
    9.5273   -4.9121    0.0000 C   0  0  0  0  0  0  0  0  0  0  0  0
   10.3991   -3.4154    0.0000 C   0  0  0  0  0  0  0  0  0  0  0  0
   10.3914   -5.4154    0.0000 C   0  0  0  0  0  0  0  0  0  0  0  0
   11.2632   -3.9188    0.0000 C   0  0  0  0  0  0  0  0  0  0  0  0
   11.2593   -4.9187    0.0000 C   0  0  0  0  0  0  0  0  0  0  0  0
    4.8059    1.4221    0.0000 H   0  0  0  0  0  0  0  0  0  0  0  0
    2.8660    0.3021    0.0000 H   0  0  0  0  0  0  0  0  0  0  0  0
    5.6720    0.3021    0.0000 H   0  0  0  0  0  0  0  0  0  0  0  0
    3.4030   -1.0079    0.0000 H   0  0  0  0  0  0  0  0  0  0  0  0
    3.7320   -1.1979    0.0000 H   0  0  0  0  0  0  0  0  0  0  0  0
    6.2131    0.5295    0.0000 H   0  0  0  0  0  0  0  0  0  0  0  0
    6.6116    1.2197    0.0000 H   0  0  0  0  0  0  0  0  0  0  0  0
    3.7320    2.4221    0.0000 H   0  0  0  0  0  0  0  0  0  0  0  0
    2.5369    1.7321    0.0000 H   0  0  0  0  0  0  0  0  0  0  0  0
    2.0000   -0.5779    0.0000 H   0  0  0  0  0  0  0  0  0  0  0  0
    6.0010   -1.2679    0.0000 H   0  0  0  0  0  0  0  0  0  0  0  0
    6.0010   -4.5079    0.0000 H   0  0  0  0  0  0  0  0  0  0  0  0
    6.6550    4.1947    0.0000 H   0  0  0  0  0  0  0  0  0  0  0  0
    6.2565    3.5044    0.0000 H   0  0  0  0  0  0  0  0  0  0  0  0
    9.2028   -2.0550    0.0000 H   0  0  0  0  0  0  0  0  0  0  0  0
    3.6490   -4.8879    0.0000 H   0  0  0  0  0  0  0  0  0  0  0  0
    4.2690   -5.5079    0.0000 H   0  0  0  0  0  0  0  0  0  0  0  0
    4.8890   -4.8879    0.0000 H   0  0  0  0  0  0  0  0  0  0  0  0
    8.9892   -5.2200    0.0000 H   0  0  0  0  0  0  0  0  0  0  0  0
   10.4015   -2.7954    0.0000 H   0  0  0  0  0  0  0  0  0  0  0  0
   10.3890   -6.0354    0.0000 H   0  0  0  0  0  0  0  0  0  0  0  0
   11.8013   -3.6108    0.0000 H   0  0  0  0  0  0  0  0  0  0  0  0
    8.2700    5.4221    0.0000 H   0  0  0  0  0  0  0  0  0  0  0  0
   12.6616   -5.1142    0.0000 H   0  0  0  0  0  0  0  0  0  0  0  0
  1 16  1  0  0  0  0
  1 18  1  0  0  0  0
 18  2  1  1  0  0  0
  2 20  1  0  0  0  0
 14  3  1  6  0  0  0
  3 46  1  0  0  0  0
 15  4  1  1  0  0  0
  4 47  1  0  0  0  0
 17  5  1  6  0  0  0
  5 48  1  0  0  0  0
  6 19  1  0  0  0  0
  6 24  1  0  0  0  0
  7 21  1  0  0  0  0
  7 32  1  0  0  0  0
  8 23  1  0  0  0  0
  8 30  1  0  0  0  0
  9 24  2  0  0  0  0
 10 27  2  0  0  0  0
 11 33  1  0  0  0  0
 11 61  1  0  0  0  0
 12 33  2  0  0  0  0
 13 38  1  0  0  0  0
 13 62  1  0  0  0  0
 14 15  1  0  0  0  0
 14 16  1  0  0  0  0
 14 39  1  0  0  0  0
 15 17  1  0  0  0  0
 15 40  1  0  0  0  0
 16 19  1  1  0  0  0
 16 41  1  0  0  0  0
 17 18  1  0  0  0  0
 17 42  1  0  0  0  0
 18 43  1  0  0  0  0
 19 44  1  0  0  0  0
 19 45  1  0  0  0  0
 20 21  2  0  0  0  0
 20 22  1  0  0  0  0
 21 26  1  0  0  0  0
 22 23  2  0  0  0  0
 22 49  1  0  0  0  0
 23 25  1  0  0  0  0
 24 28  1  0  0  0  0
 25 26  2  0  0  0  0
 25 27  1  0  0  0  0
 26 50  1  0  0  0  0
 27 29  1  0  0  0  0
 28 33  1  0  0  0  0
 28 51  1  0  0  0  0
 28 52  1  0  0  0  0
 29 30  2  0  0  0  0
 29 31  1  0  0  0  0
 30 53  1  0  0  0  0
 31 34  2  0  0  0  0
 31 35  1  0  0  0  0
 32 54  1  0  0  0  0
 32 55  1  0  0  0  0
 32 56  1  0  0  0  0
 34 36  1  0  0  0  0
 34 57  1  0  0  0  0
 35 37  2  0  0  0  0
 35 58  1  0  0  0  0
 36 38  2  0  0  0  0
 36 59  1  0  0  0  0
 37 38  1  0  0  0  0
 37 60  1  0  0  0  0
M  END
> <PUBCHEM_COMPOUND_CID>
23724657

> <PUBCHEM_COMPOUND_CANONICALIZED>
1

> <PUBCHEM_CACTVS_COMPLEXITY>
898

> <PUBCHEM_CACTVS_HBOND_ACCEPTOR>
13

> <PUBCHEM_CACTVS_HBOND_DONOR>
5

> <PUBCHEM_CACTVS_ROTATABLE_BOND>
9

> <PUBCHEM_CACTVS_SUBSKEYS>
AAADceB4PAAAAAAAAAAAAAAAAAAAAAAAAAA0YIEAAAAAAACBQAAAGgAACAAADBSwmAMyDoAABgCIAqDSCAACCAAkIAAIiAEGiMgdNzaONRqieWKl4BUPuYfK7PzOIQABCAAIQABCAAIQABCAAAAAAAAAAA==

> <PUBCHEM_IUPAC_OPENEYE_NAME>
3-oxo-3-[[(2R,3S,4S,5R,6S)-3,4,5-trihydroxy-6-[3-(4-hydroxyphenyl)-6-methoxy-4-oxo-chromen-7-yl]oxy-tetrahydropyran-2-yl]methoxy]propanoic acid

> <PUBCHEM_IUPAC_CAS_NAME>
3-oxo-3-[[(2R,3S,4S,5R,6S)-3,4,5-trihydroxy-6-[[3-(4-hydroxyphenyl)-6-methoxy-4-oxo-1-benzopyran-7-yl]oxy]-2-oxanyl]methoxy]propanoic acid

> <PUBCHEM_IUPAC_NAME>
3-oxo-3-[[(2R,3S,4S,5R,6S)-3,4,5-trihydroxy-6-[3-(4-hydroxyphenyl)-6-methoxy-4-oxochromen-7-yl]oxyoxan-2-yl]methoxy]propanoic acid

> <PUBCHEM_IUPAC_SYSTEMATIC_NAME>
3-[[(2R,3S,4S,5R,6S)-6-[3-(4-hydroxyphenyl)-6-methoxy-4-oxidanylidene-chromen-7-yl]oxy-3,4,5-tris(oxidanyl)oxan-2-yl]methoxy]-3-oxidanylidene-propanoic acid

> <PUBCHEM_IUPAC_TRADITIONAL_NAME>
3-keto-3-[[(2R,3S,4S,5R,6S)-3,4,5-trihydroxy-6-[3-(4-hydroxyphenyl)-4-keto-6-methoxy-chromen-7-yl]oxy-tetrahydropyran-2-yl]methoxy]propionic acid

> <PUBCHEM_IUPAC_INCHI>
InChI=1S/C25H24O13/c1-34-16-6-13-15(35-9-14(21(13)30)11-2-4-12(26)5-3-11)7-17(16)37-25-24(33)23(32)22(31)18(38-25)10-36-20(29)8-19(27)28/h2-7,9,18,22-26,31-33H,8,10H2,1H3,(H,27,28)/t18-,22-,23+,24-,25-/m1/s1

> <PUBCHEM_IUPAC_INCHIKEY>
OWMHCYFEIJPHFB-GOZZSVHWSA-N

> <PUBCHEM_XLOGP3_AA>
0.4

> <PUBCHEM_EXACT_MASS>
532.121691

> <PUBCHEM_MOLECULAR_FORMULA>
C25H24O13

> <PUBCHEM_MOLECULAR_WEIGHT>
532.45026

> <PUBCHEM_OPENEYE_CAN_SMILES>
COC1=C(C=C2C(=C1)C(=O)C(=CO2)C3=CC=C(C=C3)O)OC4C(C(C(C(O4)COC(=O)CC(=O)O)O)O)O

> <PUBCHEM_OPENEYE_ISO_SMILES>
COC1=C(C=C2C(=C1)C(=O)C(=CO2)C3=CC=C(C=C3)O)O[C@H]4[C@@H]([C@H]([C@@H]([C@H](O4)COC(=O)CC(=O)O)O)O)O

> <PUBCHEM_CACTVS_TPSA>
199

> <PUBCHEM_MONOISOTOPIC_WEIGHT>
532.121691

> <PUBCHEM_TOTAL_CHARGE>
0

> <PUBCHEM_HEAVY_ATOM_COUNT>
38

> <PUBCHEM_ATOM_DEF_STEREO_COUNT>
5

> <PUBCHEM_ATOM_UDEF_STEREO_COUNT>
0

> <PUBCHEM_BOND_DEF_STEREO_COUNT>
0

> <PUBCHEM_BOND_UDEF_STEREO_COUNT>
0

> <PUBCHEM_ISOTOPIC_ATOM_COUNT>
0

> <PUBCHEM_COMPONENT_COUNT>
1

> <PUBCHEM_CACTVS_TAUTO_COUNT>
2

> <PUBCHEM_COORDINATE_TYPE>
1
5
255

> <PUBCHEM_BONDANNOTATIONS>
16  19  5
18  2  5
20  21  8
20  22  8
21  26  8
22  23  8
23  25  8
25  26  8
25  27  8
27  29  8
29  30  8
14  3  6
31  34  8
31  35  8
34  36  8
35  37  8
36  38  8
37  38  8
15  4  5
17  5  6
8  23  8
8  30  8

$$$$

