443629
  -OEChem-07051213023D

 69 71  0     1  0  0  0  0  0999 V2000
   -2.2649    0.7234   -0.4581 O   0  0  0  0  0  0  0  0  0  0  0  0
    1.0100   -2.7793   -0.8851 O   0  0  0  0  0  0  0  0  0  0  0  0
   -1.7245   -2.0711   -1.0342 O   0  0  0  0  0  0  0  0  0  0  0  0
   -4.0273   -0.7589   -0.0827 O   0  0  0  0  0  0  0  0  0  0  0  0
   -0.0035    2.6196    2.5115 O   0  0  0  0  0  0  0  0  0  0  0  0
    3.8531    1.3057   -1.9705 O   0  0  0  0  0  0  0  0  0  0  0  0
   -4.1185    2.8571   -0.5980 O   0  0  0  0  0  0  0  0  0  0  0  0
    5.5317    2.1264    1.1757 O   0  0  0  0  0  0  0  0  0  0  0  0
   -6.7758    1.9491   -1.4896 O   0  0  0  0  0  0  0  0  0  0  0  0
   -7.6575   -0.3056    0.0899 O   0  0  0  0  0  0  0  0  0  0  0  0
    6.7208    0.5665   -1.8656 O   0  0  0  0  0  0  0  0  0  0  0  0
   -4.6846   -3.1187    1.1645 O   0  0  0  0  0  0  0  0  0  0  0  0
    7.7957   -1.6522    0.8321 O   0  0  0  0  0  0  0  0  0  0  0  0
    2.2008   -0.2543   -0.3363 N   0  0  0  0  0  0  0  0  0  0  0  0
    1.4508   -0.9837    0.6915 C   0  0  1  0  0  0  0  0  0  0  0  0
   -0.3311    0.8240    0.9712 C   0  0  2  0  0  0  0  0  0  0  0  0
   -1.3690   -0.0923    0.2992 C   0  0  2  0  0  0  0  0  0  0  0  0
    0.7788    0.0050    1.6506 C   0  0  0  0  0  0  0  0  0  0  0  0
    0.3948   -1.9017    0.0588 C   0  0  1  0  0  0  0  0  0  0  0  0
   -0.7267   -1.1252   -0.6363 C   0  0  1  0  0  0  0  0  0  0  0  0
    3.4905    0.1993    0.1917 C   0  0  2  0  0  0  0  0  0  0  0  0
   -0.9945    1.7575    1.9890 C   0  0  0  0  0  0  0  0  0  0  0  0
   -3.6049    0.5990    0.0173 C   0  0  2  0  0  0  0  0  0  0  0  0
    3.9788    1.4585   -0.5565 C   0  0  1  0  0  0  0  0  0  0  0  0
   -4.4937    1.5012   -0.8387 C   0  0  1  0  0  0  0  0  0  0  0  0
    5.4370    1.7838   -0.2061 C   0  0  2  0  0  0  0  0  0  0  0  0
   -5.9715    1.3147   -0.4940 C   0  0  2  0  0  0  0  0  0  0  0  0
    4.5044   -0.9150    0.1963 C   0  0  0  0  0  0  0  0  0  0  0  0
   -6.3479   -0.1665   -0.4551 C   0  0  1  0  0  0  0  0  0  0  0  0
   -5.3565   -0.9566    0.4023 C   0  0  1  0  0  0  0  0  0  0  0  0
    6.3826    0.5993   -0.4794 C   0  0  1  0  0  0  0  0  0  0  0  0
    5.8024   -0.7498   -0.1160 C   0  0  0  0  0  0  0  0  0  0  0  0
   -5.6431   -2.4543    0.3616 C   0  0  0  0  0  0  0  0  0  0  0  0
    6.7633   -1.9050   -0.1012 C   0  0  0  0  0  0  0  0  0  0  0  0
    2.1217   -1.6335    1.2662 H   0  0  0  0  0  0  0  0  0  0  0  0
    0.1293    1.4628    0.2044 H   0  0  0  0  0  0  0  0  0  0  0  0
   -1.9037   -0.6323    1.0947 H   0  0  0  0  0  0  0  0  0  0  0  0
    0.3391   -0.5677    2.4794 H   0  0  0  0  0  0  0  0  0  0  0  0
    1.5130    0.6698    2.1167 H   0  0  0  0  0  0  0  0  0  0  0  0
   -0.0392   -2.5452    0.8354 H   0  0  0  0  0  0  0  0  0  0  0  0
   -0.3724   -0.6535   -1.5598 H   0  0  0  0  0  0  0  0  0  0  0  0
    2.3490   -0.8382   -1.1588 H   0  0  0  0  0  0  0  0  0  0  0  0
    3.3896    0.5009    1.2413 H   0  0  0  0  0  0  0  0  0  0  0  0
   -1.7622    2.3782    1.5180 H   0  0  0  0  0  0  0  0  0  0  0  0
   -1.4478    1.1953    2.8121 H   0  0  0  0  0  0  0  0  0  0  0  0
   -3.6344    0.9204    1.0670 H   0  0  0  0  0  0  0  0  0  0  0  0
    3.3346    2.2984   -0.2654 H   0  0  0  0  0  0  0  0  0  0  0  0
   -4.3207    1.3097   -1.9044 H   0  0  0  0  0  0  0  0  0  0  0  0
    5.7587    2.6557   -0.7889 H   0  0  0  0  0  0  0  0  0  0  0  0
   -6.2172    1.8054    0.4551 H   0  0  0  0  0  0  0  0  0  0  0  0
    4.1688   -1.9084    0.4841 H   0  0  0  0  0  0  0  0  0  0  0  0
    1.7193   -3.2565   -0.4218 H   0  0  0  0  0  0  0  0  0  0  0  0
   -2.0856   -2.4854   -0.2320 H   0  0  0  0  0  0  0  0  0  0  0  0
   -6.3743   -0.5670   -1.4760 H   0  0  0  0  0  0  0  0  0  0  0  0
   -5.3961   -0.6323    1.4512 H   0  0  0  0  0  0  0  0  0  0  0  0
    7.3129    0.7512    0.0809 H   0  0  0  0  0  0  0  0  0  0  0  0
   -0.4397    3.2022    3.1561 H   0  0  0  0  0  0  0  0  0  0  0  0
   -5.5487   -2.8414   -0.6585 H   0  0  0  0  0  0  0  0  0  0  0  0
   -6.6420   -2.6830    0.7448 H   0  0  0  0  0  0  0  0  0  0  0  0
    4.1493    2.1351   -2.3825 H   0  0  0  0  0  0  0  0  0  0  0  0
    6.2716   -2.8430    0.1777 H   0  0  0  0  0  0  0  0  0  0  0  0
    7.2076   -2.0395   -1.0929 H   0  0  0  0  0  0  0  0  0  0  0  0
   -4.2591    3.0459    0.3456 H   0  0  0  0  0  0  0  0  0  0  0  0
    6.4489    2.3984    1.3495 H   0  0  0  0  0  0  0  0  0  0  0  0
   -6.5668    1.5458   -2.3494 H   0  0  0  0  0  0  0  0  0  0  0  0
   -7.6414    0.0343    1.0009 H   0  0  0  0  0  0  0  0  0  0  0  0
    7.1627    1.4057   -2.0797 H   0  0  0  0  0  0  0  0  0  0  0  0
   -4.8817   -4.0698    1.1190 H   0  0  0  0  0  0  0  0  0  0  0  0
    8.4045   -2.4098    0.7998 H   0  0  0  0  0  0  0  0  0  0  0  0
  1 17  1  0  0  0  0
  1 23  1  0  0  0  0
  2 19  1  0  0  0  0
  2 52  1  0  0  0  0
  3 20  1  0  0  0  0
  3 53  1  0  0  0  0
  4 23  1  0  0  0  0
  4 30  1  0  0  0  0
  5 22  1  0  0  0  0
  5 57  1  0  0  0  0
  6 24  1  0  0  0  0
  6 60  1  0  0  0  0
  7 25  1  0  0  0  0
  7 63  1  0  0  0  0
  8 26  1  0  0  0  0
  8 64  1  0  0  0  0
  9 27  1  0  0  0  0
  9 65  1  0  0  0  0
 10 29  1  0  0  0  0
 10 66  1  0  0  0  0
 11 31  1  0  0  0  0
 11 67  1  0  0  0  0
 12 33  1  0  0  0  0
 12 68  1  0  0  0  0
 13 34  1  0  0  0  0
 13 69  1  0  0  0  0
 14 15  1  0  0  0  0
 14 21  1  0  0  0  0
 14 42  1  0  0  0  0
 15 18  1  0  0  0  0
 15 19  1  0  0  0  0
 15 35  1  0  0  0  0
 16 17  1  0  0  0  0
 16 18  1  0  0  0  0
 16 22  1  0  0  0  0
 16 36  1  0  0  0  0
 17 20  1  0  0  0  0
 17 37  1  0  0  0  0
 18 38  1  0  0  0  0
 18 39  1  0  0  0  0
 19 20  1  0  0  0  0
 19 40  1  0  0  0  0
 20 41  1  0  0  0  0
 21 24  1  0  0  0  0
 21 28  1  0  0  0  0
 21 43  1  0  0  0  0
 22 44  1  0  0  0  0
 22 45  1  0  0  0  0
 23 25  1  0  0  0  0
 23 46  1  0  0  0  0
 24 26  1  0  0  0  0
 24 47  1  0  0  0  0
 25 27  1  0  0  0  0
 25 48  1  0  0  0  0
 26 31  1  0  0  0  0
 26 49  1  0  0  0  0
 27 29  1  0  0  0  0
 27 50  1  0  0  0  0
 28 32  2  0  0  0  0
 28 51  1  0  0  0  0
 29 30  1  0  0  0  0
 29 54  1  0  0  0  0
 30 33  1  0  0  0  0
 30 55  1  0  0  0  0
 31 32  1  0  0  0  0
 31 56  1  0  0  0  0
 32 34  1  0  0  0  0
 33 58  1  0  0  0  0
 33 59  1  0  0  0  0
 34 61  1  0  0  0  0
 34 62  1  0  0  0  0
M  END
> <PUBCHEM_COMPOUND_CID>
443629

> <PUBCHEM_CONFORMER_RMSD>
1

> <PUBCHEM_CONFORMER_DIVERSEORDER>
1
26
20
3
23
17
11
16
13
18
14
27
5
10
19
8
21
22
15
7
2
12
6
24
9
25
4

> <PUBCHEM_MMFF94_PARTIAL_CHARGES>
45
1 -0.56
10 -0.68
11 -0.68
12 -0.68
13 -0.68
14 -0.9
15 0.27
17 0.28
19 0.28
2 -0.68
20 0.28
21 0.41
22 0.28
23 0.56
24 0.28
25 0.28
26 0.28
27 0.28
28 -0.29
29 0.28
3 -0.68
30 0.28
31 0.42
32 -0.28
33 0.28
34 0.42
4 -0.56
42 0.36
5 -0.68
51 0.15
52 0.4
53 0.4
57 0.4
6 -0.68
60 0.4
63 0.4
64 0.4
65 0.4
66 0.4
67 0.4
68 0.4
69 0.4
7 -0.68
8 -0.68
9 -0.68

> <PUBCHEM_EFFECTIVE_ROTOR_COUNT>
10.2

> <PUBCHEM_PHARMACOPHORE_FEATURES>
29
1 1 acceptor
1 10 acceptor
1 10 donor
1 11 acceptor
1 11 donor
1 12 acceptor
1 12 donor
1 13 acceptor
1 13 donor
1 14 cation
1 14 donor
1 2 acceptor
1 2 donor
1 3 acceptor
1 3 donor
1 4 acceptor
1 5 acceptor
1 5 donor
1 6 acceptor
1 6 donor
1 7 acceptor
1 7 donor
1 8 acceptor
1 8 donor
1 9 acceptor
1 9 donor
6 15 16 17 18 19 20 rings
6 21 24 26 28 31 32 rings
6 4 23 25 27 29 30 rings

> <PUBCHEM_HEAVY_ATOM_COUNT>
34

> <PUBCHEM_ATOM_DEF_STEREO_COUNT>
14

> <PUBCHEM_ATOM_UDEF_STEREO_COUNT>
0

> <PUBCHEM_BOND_DEF_STEREO_COUNT>
0

> <PUBCHEM_BOND_UDEF_STEREO_COUNT>
0

> <PUBCHEM_ISOTOPIC_ATOM_COUNT>
0

> <PUBCHEM_COMPONENT_COUNT>
1

> <PUBCHEM_CACTVS_TAUTO_COUNT>
1

> <PUBCHEM_CONFORMER_ID>
0006C4ED00000001

> <PUBCHEM_MMFF94_ENERGY>
82.1529

> <PUBCHEM_FEATURE_SELFOVERLAP>
147.245

> <PUBCHEM_SHAPE_FINGERPRINT>
11135926 11 18187079607307745891
11578080 2 14978578259479288765
11719270 70 18334298699349940486
11991303 11 17822013055935222863
12107698 1 17418096559266275724
12166972 35 18341609300791999652
12236239 1 18343582936869021566
12516196 113 9655576314123147566
12788726 201 17603856815469968048
13533116 47 18260828216196333510
13690498 29 18337395921063967719
13782708 43 18263082128390441859
14251752 14 18335140903438393894
14294032 229 17679283424562400440
14856354 85 18341044139209716687
14933364 13 18343863311933060999
15183329 4 17167857556622477918
1577012 14 18059852849009239676
16994733 274 17561369482422216749
18335252 114 18342466966594570396
18608769 82 18341609267044295275
19611394 137 17988066796042062339
19841028 212 18128261280621329834
21521721 280 18113616742292180793
21781051 124 18334573512505256122
21792934 111 17967542284799289368
21792961 116 18334012834731562723
22224240 67 14045740413403721585
23559900 14 18194405721971744287
23569917 315 18262231226972069766
23569943 247 16342315742645069890
23576562 1 17970080963376468469
3004659 81 18411140255832049770
4073 2 17704065175179770290
4098825 35 18273216430079174947
4325135 7 18060137631158110751
484989 97 18335415725785050466
77296 10 18343579659661431046
99344 41 18343304803467031810

> <PUBCHEM_SHAPE_MULTIPOLES>
618.42
20.76
2.84
1.45
3.58
0.45
-0.37
0.64
4.59
-1.44
-0.33
0.42
-0.81
0.86

> <PUBCHEM_SHAPE_SELFOVERLAP>
1277.713

> <PUBCHEM_SHAPE_VOLUME>
347.1

> <PUBCHEM_COORDINATE_TYPE>
2
5
10

$$$$

