91446
  -OEChem-07051212552D

 37 38  0     1  0  0  0  0  0999 V2000
    5.1350    0.6550    0.0000 O   0  0  0  0  0  0  0  0  0  0  0  0
    4.2690   -0.8450    0.0000 O   0  0  0  0  0  0  0  0  0  0  0  0
    2.5369    2.1550    0.0000 O   0  0  0  0  0  0  0  0  0  0  0  0
    4.2690    3.1550    0.0000 O   0  0  0  0  0  0  0  0  0  0  0  0
    2.5369    0.1550    0.0000 O   0  0  0  0  0  0  0  0  0  0  0  0
    6.8671    1.6550    0.0000 O   0  0  0  0  0  0  0  0  0  0  0  0
    6.0010    0.1550    0.0000 O   0  0  0  0  0  0  0  0  0  0  0  0
    6.0010   -2.8450    0.0000 N   0  0  0  0  0  0  0  0  0  0  0  0
    6.8671   -1.3450    0.0000 N   0  0  0  0  0  0  0  0  0  0  0  0
    4.2690   -2.8450    0.0000 N   0  0  0  0  0  0  0  0  0  0  0  0
    7.7331   -2.8450    0.0000 N   0  0  0  0  0  0  0  0  0  0  0  0
    3.4030    1.6550    0.0000 C   0  0  1  0  0  0  0  0  0  0  0  0
    4.2690    2.1550    0.0000 C   0  0  1  0  0  0  0  0  0  0  0  0
    3.4030    0.6550    0.0000 C   0  0  2  0  0  0  0  0  0  0  0  0
    5.1350    1.6550    0.0000 C   0  0  1  0  0  0  0  0  0  0  0  0
    4.2690    0.1550    0.0000 C   0  0  1  0  0  0  0  0  0  0  0  0
    6.0010    2.1550    0.0000 C   0  0  0  0  0  0  0  0  0  0  0  0
    5.1350   -1.3450    0.0000 C   0  0  0  0  0  0  0  0  0  0  0  0
    5.1350   -2.3450    0.0000 C   0  0  0  0  0  0  0  0  0  0  0  0
    6.0010   -0.8450    0.0000 C   0  0  0  0  0  0  0  0  0  0  0  0
    6.8671   -2.3450    0.0000 C   0  0  0  0  0  0  0  0  0  0  0  0
    3.4030    2.2750    0.0000 H   0  0  0  0  0  0  0  0  0  0  0  0
    4.8059    2.4650    0.0000 H   0  0  0  0  0  0  0  0  0  0  0  0
    3.4030    0.0350    0.0000 H   0  0  0  0  0  0  0  0  0  0  0  0
    5.6720    1.3450    0.0000 H   0  0  0  0  0  0  0  0  0  0  0  0
    3.7320   -0.1550    0.0000 H   0  0  0  0  0  0  0  0  0  0  0  0
    6.3996    2.6300    0.0000 H   0  0  0  0  0  0  0  0  0  0  0  0
    5.6025    2.6300    0.0000 H   0  0  0  0  0  0  0  0  0  0  0  0
    2.5369    2.7750    0.0000 H   0  0  0  0  0  0  0  0  0  0  0  0
    4.8059    3.4650    0.0000 H   0  0  0  0  0  0  0  0  0  0  0  0
    2.0000    0.4650    0.0000 H   0  0  0  0  0  0  0  0  0  0  0  0
    7.4040    1.9650    0.0000 H   0  0  0  0  0  0  0  0  0  0  0  0
    6.0010   -3.4650    0.0000 H   0  0  0  0  0  0  0  0  0  0  0  0
    4.2690   -3.4650    0.0000 H   0  0  0  0  0  0  0  0  0  0  0  0
    3.7320   -2.5350    0.0000 H   0  0  0  0  0  0  0  0  0  0  0  0
    8.2700   -2.5350    0.0000 H   0  0  0  0  0  0  0  0  0  0  0  0
    7.7331   -3.4650    0.0000 H   0  0  0  0  0  0  0  0  0  0  0  0
  1 15  1  0  0  0  0
  1 16  1  0  0  0  0
 16  2  1  1  0  0  0
  2 18  1  0  0  0  0
 12  3  1  1  0  0  0
  3 29  1  0  0  0  0
 13  4  1  6  0  0  0
  4 30  1  0  0  0  0
 14  5  1  6  0  0  0
  5 31  1  0  0  0  0
  6 17  1  0  0  0  0
  6 32  1  0  0  0  0
  7 20  2  0  0  0  0
  8 19  1  0  0  0  0
  8 21  1  0  0  0  0
  8 33  1  0  0  0  0
  9 20  1  0  0  0  0
  9 21  2  0  0  0  0
 10 19  1  0  0  0  0
 10 34  1  0  0  0  0
 10 35  1  0  0  0  0
 11 21  1  0  0  0  0
 11 36  1  0  0  0  0
 11 37  1  0  0  0  0
 12 13  1  0  0  0  0
 12 14  1  0  0  0  0
 12 22  1  0  0  0  0
 13 15  1  0  0  0  0
 13 23  1  0  0  0  0
 14 16  1  0  0  0  0
 14 24  1  0  0  0  0
 15 17  1  1  0  0  0
 15 25  1  0  0  0  0
 16 26  1  0  0  0  0
 17 27  1  0  0  0  0
 17 28  1  0  0  0  0
 18 19  2  0  0  0  0
 18 20  1  0  0  0  0
M  END
> <PUBCHEM_COMPOUND_CID>
91446

> <PUBCHEM_COMPOUND_CANONICALIZED>
1

> <PUBCHEM_CACTVS_COMPLEXITY>
494

> <PUBCHEM_CACTVS_HBOND_ACCEPTOR>
8

> <PUBCHEM_CACTVS_HBOND_DONOR>
7

> <PUBCHEM_CACTVS_ROTATABLE_BOND>
3

> <PUBCHEM_CACTVS_SUBSKEYS>
AAADceBzuAAAAAAAAAAAAAAAAAAAAAAAAAAkQAAAAAAAAAAAAAAAHgAQCAAACBSxgAMBCALABgCoAAFQdAKACAEAAAABAABAAECTEAIAAAQjQAAFAAAHAEHAYAwAAAAAAAAAAAAAAAAAAAAAAAAAAAAAAA==

> <PUBCHEM_IUPAC_OPENEYE_NAME>
2,6-diamino-5-[(2S,3R,4S,5S,6R)-3,4,5-trihydroxy-6-(hydroxymethyl)tetrahydropyran-2-yl]oxy-1H-pyrimidin-4-one

> <PUBCHEM_IUPAC_CAS_NAME>
2,6-diamino-5-[[(2S,3R,4S,5S,6R)-3,4,5-trihydroxy-6-(hydroxymethyl)-2-oxanyl]oxy]-1H-pyrimidin-4-one

> <PUBCHEM_IUPAC_NAME>
2,6-diamino-5-[(2S,3R,4S,5S,6R)-3,4,5-trihydroxy-6-(hydroxymethyl)oxan-2-yl]oxy-1H-pyrimidin-4-one

> <PUBCHEM_IUPAC_SYSTEMATIC_NAME>
2,6-bis(azanyl)-5-[(2S,3R,4S,5S,6R)-6-(hydroxymethyl)-3,4,5-tris(oxidanyl)oxan-2-yl]oxy-1H-pyrimidin-4-one

> <PUBCHEM_IUPAC_TRADITIONAL_NAME>
2,6-diamino-5-[(2S,3R,4S,5S,6R)-3,4,5-trihydroxy-6-methylol-tetrahydropyran-2-yl]oxy-1H-pyrimidin-4-one

> <PUBCHEM_IUPAC_INCHI>
InChI=1S/C10H16N4O7/c11-7-6(8(19)14-10(12)13-7)21-9-5(18)4(17)3(16)2(1-15)20-9/h2-5,9,15-18H,1H2,(H5,11,12,13,14,19)/t2-,3-,4+,5-,9+/m1/s1

> <PUBCHEM_IUPAC_INCHIKEY>
KGNGTSCIQCLKEH-SYCVNHKBSA-N

> <PUBCHEM_XLOGP3_AA>
-3.7

> <PUBCHEM_EXACT_MASS>
304.101899

> <PUBCHEM_MOLECULAR_FORMULA>
C10H16N4O7

> <PUBCHEM_MOLECULAR_WEIGHT>
304.25664

> <PUBCHEM_OPENEYE_CAN_SMILES>
C(C1C(C(C(C(O1)OC2=C(NC(=NC2=O)N)N)O)O)O)O

> <PUBCHEM_OPENEYE_ISO_SMILES>
C([C@@H]1[C@H]([C@@H]([C@H]([C@@H](O1)OC2=C(NC(=NC2=O)N)N)O)O)O)O

> <PUBCHEM_CACTVS_TPSA>
193

> <PUBCHEM_MONOISOTOPIC_WEIGHT>
304.101899

> <PUBCHEM_TOTAL_CHARGE>
0

> <PUBCHEM_HEAVY_ATOM_COUNT>
21

> <PUBCHEM_ATOM_DEF_STEREO_COUNT>
5

> <PUBCHEM_ATOM_UDEF_STEREO_COUNT>
0

> <PUBCHEM_BOND_DEF_STEREO_COUNT>
0

> <PUBCHEM_BOND_UDEF_STEREO_COUNT>
0

> <PUBCHEM_ISOTOPIC_ATOM_COUNT>
0

> <PUBCHEM_COMPONENT_COUNT>
1

> <PUBCHEM_CACTVS_TAUTO_COUNT>
17

> <PUBCHEM_COORDINATE_TYPE>
1
5
255

> <PUBCHEM_BONDANNOTATIONS>
15  17  5
18  19  8
18  20  8
16  2  5
12  3  5
13  4  6
14  5  6
8  19  8
8  21  8
9  20  8
9  21  8

$$$$

