656690
  -OEChem-07051213033D

 32 33  0     0  0  0  0  0  0999 V2000
    4.8254    1.7887   -0.3637 O   0  0  0  0  0  0  0  0  0  0  0  0
   -4.0837    0.0168   -1.5198 O   0  0  0  0  0  0  0  0  0  0  0  0
   -4.2576    1.8147    0.4741 O   0  0  0  0  0  0  0  0  0  0  0  0
    0.2376   -1.4576    0.1316 C   0  0  0  0  0  0  0  0  0  0  0  0
    1.4906   -0.5709   -0.0034 C   0  0  0  0  0  0  0  0  0  0  0  0
   -1.0057   -0.6186    0.1482 C   0  0  0  0  0  0  0  0  0  0  0  0
    0.2159   -2.3133    1.4207 C   0  0  0  0  0  0  0  0  0  0  0  0
    0.1993   -2.4425   -1.0631 C   0  0  0  0  0  0  0  0  0  0  0  0
    1.6055    0.2228   -1.1148 C   0  0  0  0  0  0  0  0  0  0  0  0
    2.4290   -0.6193    0.9946 C   0  0  0  0  0  0  0  0  0  0  0  0
   -1.9685   -0.7590   -0.7753 C   0  0  0  0  0  0  0  0  0  0  0  0
   -1.1109    0.3546    1.2180 C   0  0  0  0  0  0  0  0  0  0  0  0
    2.7398    1.0252   -1.2373 C   0  0  0  0  0  0  0  0  0  0  0  0
    3.5632    0.1833    0.8723 C   0  0  0  0  0  0  0  0  0  0  0  0
   -3.1722    0.0945   -0.7109 C   0  0  0  0  0  0  0  0  0  0  0  0
   -2.1564    1.1749    1.3681 C   0  0  0  0  0  0  0  0  0  0  0  0
    3.7188    1.0057   -0.2436 C   0  0  0  0  0  0  0  0  0  0  0  0
   -3.2700    1.1001    0.4042 C   0  0  0  0  0  0  0  0  0  0  0  0
   -0.7062   -2.9073    1.4795 H   0  0  0  0  0  0  0  0  0  0  0  0
    0.2684   -1.7297    2.3469 H   0  0  0  0  0  0  0  0  0  0  0  0
    1.0438   -3.0335    1.4359 H   0  0  0  0  0  0  0  0  0  0  0  0
    1.1178   -3.0452   -1.0790 H   0  0  0  0  0  0  0  0  0  0  0  0
   -0.6292   -3.1582   -0.9875 H   0  0  0  0  0  0  0  0  0  0  0  0
    0.1486   -1.9535   -2.0430 H   0  0  0  0  0  0  0  0  0  0  0  0
    0.8532    0.2573   -1.8957 H   0  0  0  0  0  0  0  0  0  0  0  0
    2.3615   -1.2396    1.8788 H   0  0  0  0  0  0  0  0  0  0  0  0
   -1.9603   -1.4607   -1.5981 H   0  0  0  0  0  0  0  0  0  0  0  0
   -0.3020    0.4388    1.9371 H   0  0  0  0  0  0  0  0  0  0  0  0
    2.8484    1.6626   -2.1109 H   0  0  0  0  0  0  0  0  0  0  0  0
    4.3232    0.1636    1.6488 H   0  0  0  0  0  0  0  0  0  0  0  0
   -2.2113    1.8967    2.1735 H   0  0  0  0  0  0  0  0  0  0  0  0
    4.7677    2.2906   -1.1949 H   0  0  0  0  0  0  0  0  0  0  0  0
  1 17  1  0  0  0  0
  1 32  1  0  0  0  0
  2 15  2  0  0  0  0
  3 18  2  0  0  0  0
  4  5  1  0  0  0  0
  4  6  1  0  0  0  0
  4  7  1  0  0  0  0
  4  8  1  0  0  0  0
  5  9  2  0  0  0  0
  5 10  1  0  0  0  0
  6 11  2  0  0  0  0
  6 12  1  0  0  0  0
  7 19  1  0  0  0  0
  7 20  1  0  0  0  0
  7 21  1  0  0  0  0
  8 22  1  0  0  0  0
  8 23  1  0  0  0  0
  8 24  1  0  0  0  0
  9 13  1  0  0  0  0
  9 25  1  0  0  0  0
 10 14  2  0  0  0  0
 10 26  1  0  0  0  0
 11 15  1  0  0  0  0
 11 27  1  0  0  0  0
 12 16  2  0  0  0  0
 12 28  1  0  0  0  0
 13 17  2  0  0  0  0
 13 29  1  0  0  0  0
 14 17  1  0  0  0  0
 14 30  1  0  0  0  0
 15 18  1  0  0  0  0
 16 18  1  0  0  0  0
 16 31  1  0  0  0  0
M  END
> <PUBCHEM_COMPOUND_CID>
656690

> <PUBCHEM_CONFORMER_RMSD>
0.6

> <PUBCHEM_CONFORMER_DIVERSEORDER>
1
7
4
5
6
3
9
8
2

> <PUBCHEM_MMFF94_PARTIAL_CHARGES>
24
1 -0.53
10 -0.15
11 -0.14
12 -0.15
13 -0.15
14 -0.15
15 0.56
16 -0.14
17 0.08
18 0.56
2 -0.57
25 0.15
26 0.15
27 0.15
28 0.15
29 0.15
3 -0.57
30 0.15
31 0.15
32 0.45
4 0.28
5 -0.14
6 -0.14
9 -0.15

> <PUBCHEM_EFFECTIVE_ROTOR_COUNT>
2

> <PUBCHEM_PHARMACOPHORE_FEATURES>
6
1 1 donor
1 2 acceptor
1 3 acceptor
3 4 7 8 hydrophobe
6 5 9 10 13 14 17 rings
6 6 11 12 15 16 18 rings

> <PUBCHEM_HEAVY_ATOM_COUNT>
18

> <PUBCHEM_ATOM_DEF_STEREO_COUNT>
0

> <PUBCHEM_ATOM_UDEF_STEREO_COUNT>
0

> <PUBCHEM_BOND_DEF_STEREO_COUNT>
0

> <PUBCHEM_BOND_UDEF_STEREO_COUNT>
0

> <PUBCHEM_ISOTOPIC_ATOM_COUNT>
0

> <PUBCHEM_COMPONENT_COUNT>
1

> <PUBCHEM_CACTVS_TAUTO_COUNT>
2

> <PUBCHEM_CONFORMER_ID>
000A053200000001

> <PUBCHEM_MMFF94_ENERGY>
58.1969

> <PUBCHEM_FEATURE_SELFOVERLAP>
30.453

> <PUBCHEM_SHAPE_FINGERPRINT>
10498660 4 17749112231294786529
10618630 7 9151181939134350344
11046707 91 9871476400173366944
11640471 11 18411422816728591310
11725454 13 15840457863540388071
12119455 92 17418105307676670847
12251169 10 14979950350568155488
12633257 1 15554155995938889712
12788726 201 17979929211158279802
12892183 10 15482677891799566912
13296908 3 8646488475202182194
13583140 156 17274822398474171425
14739800 52 17971776388942517176
15309172 13 17846498131981714546
15342168 16 18271234002272494605
15653759 3 14908179759040346348
15775835 57 18411417314975932800
15906896 17 18197210352400366690
16945 1 17968378948612928763
17357779 13 14059294020451934469
1741750 31 18341609253372792370
17804303 29 13326570795498342739
1813 80 17617094046120639930
18186145 218 18272929461707469462
18981168 100 18123716911913378570
192875 21 18337402594562086592
19765921 60 18410291449713574715
20291156 8 8935002559787314984
204376 136 18131912645848483882
20671657 53 5256413790332625104
20871999 31 17022627459861977789
21499 59 18411699898091031619
21524375 3 18412265029882707486
21713013 43 14706932817435899149
21731228 192 17703784795466848354
21731516 1 8935000339173126458
2255824 54 18121215643351602443
23184049 59 17775289374068939318
23402539 116 17676496055332337980
23557571 272 16588319245497759371
23559900 14 17458061573969358398
2838139 119 17823986632875011400
3323516 105 14273746118017107991
3472631 163 18186517717921473077
4028521 119 17821726130649864808
4340502 62 18058717118370474187
474 4 18341893034377598027
5262128 65 16226040063955819704
633830 44 18339073895106610983
7364860 26 17679863987849277254
83771 10 8935001468865517862
90316 7 11383842583869286399
9981440 41 18188778223971042690

> <PUBCHEM_SHAPE_MULTIPOLES>
352.82
7.48
2.03
1.43
0.51
0.83
-0.03
-5.54
0.96
0.17
-0.13
-0.27
0.16
-0.95

> <PUBCHEM_SHAPE_SELFOVERLAP>
765.738

> <PUBCHEM_SHAPE_VOLUME>
193.8

> <PUBCHEM_COORDINATE_TYPE>
2
5
10

$$$$

