128861
  -OEChem-07051212503D

 32 34  0     0  0  0  0  0  0999 V2000
    0.4531   -0.8154   -0.0948 O   0  3  0  0  0  0  0  0  0  0  0  0
   -0.7701    2.6724    0.0653 O   0  0  0  0  0  0  0  0  0  0  0  0
    4.3271    2.1069    0.1359 O   0  0  0  0  0  0  0  0  0  0  0  0
    4.8931   -2.6149    0.0089 O   0  0  0  0  0  0  0  0  0  0  0  0
   -4.6405   -0.5518    2.0197 O   0  0  0  0  0  0  0  0  0  0  0  0
   -5.8811   -0.6447   -0.4647 O   0  0  0  0  0  0  0  0  0  0  0  0
    2.3770    0.6936    0.0241 C   0  0  0  0  0  0  0  0  0  0  0  0
   -0.3355    0.2228   -0.1096 C   0  0  0  0  0  0  0  0  0  0  0  0
    1.8423   -0.5976   -0.0327 C   0  0  0  0  0  0  0  0  0  0  0  0
   -1.7967   -0.0056   -0.1999 C   0  0  0  0  0  0  0  0  0  0  0  0
    0.1365    1.6405   -0.0129 C   0  0  0  0  0  0  0  0  0  0  0  0
    1.4612    1.8286    0.0441 C   0  0  0  0  0  0  0  0  0  0  0  0
    3.7633    0.8666    0.0765 C   0  0  0  0  0  0  0  0  0  0  0  0
    2.6868   -1.7083   -0.0377 C   0  0  0  0  0  0  0  0  0  0  0  0
   -2.5404   -0.1729    0.9629 C   0  0  0  0  0  0  0  0  0  0  0  0
    4.0685   -1.5320    0.0141 C   0  0  0  0  0  0  0  0  0  0  0  0
   -2.4104   -0.0510   -1.4465 C   0  0  0  0  0  0  0  0  0  0  0  0
    4.6061   -0.2462    0.0704 C   0  0  0  0  0  0  0  0  0  0  0  0
   -3.9158   -0.3885    0.8778 C   0  0  0  0  0  0  0  0  0  0  0  0
   -3.7859   -0.2668   -1.5315 C   0  0  0  0  0  0  0  0  0  0  0  0
   -4.5386   -0.4355   -0.3694 C   0  0  0  0  0  0  0  0  0  0  0  0
    1.8384    2.8388    0.1471 H   0  0  0  0  0  0  0  0  0  0  0  0
    2.2548   -2.7043   -0.0838 H   0  0  0  0  0  0  0  0  0  0  0  0
   -2.0569   -0.1372    1.9360 H   0  0  0  0  0  0  0  0  0  0  0  0
   -1.8316    0.0789   -2.3569 H   0  0  0  0  0  0  0  0  0  0  0  0
    5.6843   -0.1114    0.1111 H   0  0  0  0  0  0  0  0  0  0  0  0
   -4.2582   -0.3011   -2.5096 H   0  0  0  0  0  0  0  0  0  0  0  0
   -1.6735    2.3231    0.0305 H   0  0  0  0  0  0  0  0  0  0  0  0
    3.7356    2.7673   -0.2566 H   0  0  0  0  0  0  0  0  0  0  0  0
    4.3525   -3.4224   -0.0333 H   0  0  0  0  0  0  0  0  0  0  0  0
   -5.5718   -0.6899    1.7738 H   0  0  0  0  0  0  0  0  0  0  0  0
   -6.1356   -0.6459   -1.4034 H   0  0  0  0  0  0  0  0  0  0  0  0
  1  8  2  0  0  0  0
  1  9  1  0  0  0  0
  2 11  1  0  0  0  0
  2 28  1  0  0  0  0
  3 13  1  0  0  0  0
  3 29  1  0  0  0  0
  4 16  1  0  0  0  0
  4 30  1  0  0  0  0
  5 19  1  0  0  0  0
  5 31  1  0  0  0  0
  6 21  1  0  0  0  0
  6 32  1  0  0  0  0
  7  9  1  0  0  0  0
  7 12  1  0  0  0  0
  7 13  2  0  0  0  0
  8 10  1  0  0  0  0
  8 11  1  0  0  0  0
  9 14  2  0  0  0  0
 10 15  2  0  0  0  0
 10 17  1  0  0  0  0
 11 12  2  0  0  0  0
 12 22  1  0  0  0  0
 13 18  1  0  0  0  0
 14 16  1  0  0  0  0
 14 23  1  0  0  0  0
 15 19  1  0  0  0  0
 15 24  1  0  0  0  0
 16 18  2  0  0  0  0
 17 20  2  0  0  0  0
 17 25  1  0  0  0  0
 18 26  1  0  0  0  0
 19 21  2  0  0  0  0
 20 21  1  0  0  0  0
 20 27  1  0  0  0  0
M  CHG  1   1   1
M  END
> <PUBCHEM_COMPOUND_CID>
128861

> <PUBCHEM_CONFORMER_RMSD>
0.6

> <PUBCHEM_CONFORMER_DIVERSEORDER>
1
3
2

> <PUBCHEM_MMFF94_PARTIAL_CHARGES>
32
1 -0.87
10 0.09
11 0.09
12 -0.18
13 0.08
14 -0.15
15 -0.15
16 0.08
17 -0.15
18 -0.15
19 0.08
2 -0.53
20 -0.15
21 0.08
22 0.15
23 0.15
24 0.15
25 0.15
26 0.15
27 0.15
28 0.45
29 0.45
3 -0.53
30 0.45
31 0.45
32 0.45
4 -0.53
5 -0.53
6 -0.53
7 0.03
8 0.85
9 0.92

> <PUBCHEM_EFFECTIVE_ROTOR_COUNT>
1

> <PUBCHEM_PHARMACOPHORE_FEATURES>
8
1 2 donor
1 3 donor
1 4 donor
1 5 donor
1 6 donor
6 1 7 8 9 11 12 rings
6 10 15 17 19 20 21 rings
6 7 9 13 14 16 18 rings

> <PUBCHEM_HEAVY_ATOM_COUNT>
21

> <PUBCHEM_ATOM_DEF_STEREO_COUNT>
0

> <PUBCHEM_ATOM_UDEF_STEREO_COUNT>
0

> <PUBCHEM_BOND_DEF_STEREO_COUNT>
0

> <PUBCHEM_BOND_UDEF_STEREO_COUNT>
0

> <PUBCHEM_ISOTOPIC_ATOM_COUNT>
0

> <PUBCHEM_COMPONENT_COUNT>
1

> <PUBCHEM_CACTVS_TAUTO_COUNT>
524

> <PUBCHEM_CONFORMER_ID>
0001F75D00000001

> <PUBCHEM_MMFF94_ENERGY>
66.3312

> <PUBCHEM_FEATURE_SELFOVERLAP>
40.629

> <PUBCHEM_SHAPE_FINGERPRINT>
10912923 1 17676204650164418267
11471102 20 18411421678894749188
11796584 16 17203332212423436579
12107183 9 17610045034024159515
12236239 1 17749107764765688103
12553582 1 18334857225428238614
12596602 18 17385726842281079171
12633257 1 16443061712000797993
12670546 56 17530686489557186673
13134695 92 18335707109046149581
13140716 1 17976544914683911872
13533116 47 18260269633359502195
13544653 18 18413669127568940613
13760787 5 18334577936220642516
13862211 1 18410578426617776706
13955234 65 18409170974825109200
14386348 63 17989488502761963803
14739800 52 16009611052993912320
15196674 1 18410014372446037428
15375462 189 18113056025954004624
15788980 27 18408888451269742471
15961568 22 16056311714278073844
17357779 13 18272101508114269557
17844677 252 18411979186929570813
1813 80 18261098708124049812
18186145 218 17561084738885118688
18785283 64 17700404780617055845
193927 3 18340761663104816006
200 152 18334019401799543461
20028762 73 18187089476869000574
20281475 54 18187090541777179022
20645477 70 18412833494769361294
21033648 29 18130242483792059437
21065198 48 18040710372759672185
21065201 7 16702310073887986626
21267235 1 18408318917495687142
21641784 216 18129645492134046892
221490 88 18340486781097817228
23175994 123 18201999924151217749
23402539 116 18335143141111190759
23557571 272 17275114937133844588
23559900 14 17418093234887683098
239999 70 17846498111055316034
26918003 58 18130791156867630114
2871803 45 18201441415035484442
312423 11 18337942502474679908
345986 75 17968945317681909458
34797466 226 16845565400931974151
46194498 28 17631738158133138077
465052 167 18334010583905144215
474 4 17753060396992965384
5104073 3 18264776635302435848
5281201 14 17988926686495390340
5283173 99 18057898020293488965
573450 72 16877944932107065903
7064713 232 16877947165094765558
77492 1 17603865559996670557

> <PUBCHEM_SHAPE_MULTIPOLES>
396.95
11.34
2.02
1.08
3.78
0.5
-0.1
-4.38
-0.55
-2.92
-0.06
1.79
-0.15
0.17

> <PUBCHEM_SHAPE_SELFOVERLAP>
886.134

> <PUBCHEM_SHAPE_VOLUME>
208.7

> <PUBCHEM_COORDINATE_TYPE>
2
5
10

$$$$

