8789
  -OEChem-06261203063D

 32 33  0     0  0  0  0  0  0999 V2000
   -0.0032   -1.6435    1.2681 O   0  0  0  0  0  0  0  0  0  0  0  0
   -2.3587   -1.5855   -0.1257 N   0  0  0  0  0  0  0  0  0  0  0  0
    2.3557   -1.5818   -0.1306 N   0  0  0  0  0  0  0  0  0  0  0  0
   -1.1498   -1.5729   -0.7464 N   0  0  0  0  0  0  0  0  0  0  0  0
    1.1396   -1.5711   -0.7485 N   0  0  0  0  0  0  0  0  0  0  0  0
   -3.0981   -0.3872   -0.0439 C   0  0  0  0  0  0  0  0  0  0  0  0
    3.0935   -0.3947   -0.0467 C   0  0  0  0  0  0  0  0  0  0  0  0
   -4.4474   -0.4225    0.3081 C   0  0  0  0  0  0  0  0  0  0  0  0
    4.4497   -0.4271    0.2997 C   0  0  0  0  0  0  0  0  0  0  0  0
   -2.4799    0.8335   -0.3154 C   0  0  0  0  0  0  0  0  0  0  0  0
    2.4829    0.8377   -0.3080 C   0  0  0  0  0  0  0  0  0  0  0  0
   -5.1786    0.7626    0.3884 C   0  0  0  0  0  0  0  0  0  0  0  0
    5.1844    0.7556    0.3839 C   0  0  0  0  0  0  0  0  0  0  0  0
   -3.2112    2.0185   -0.2351 C   0  0  0  0  0  0  0  0  0  0  0  0
    3.2177    2.0204   -0.2240 C   0  0  0  0  0  0  0  0  0  0  0  0
   -0.0044   -1.6043    0.0376 C   0  0  0  0  0  0  0  0  0  0  0  0
   -4.5605    1.9830    0.1168 C   0  0  0  0  0  0  0  0  0  0  0  0
    4.5684    1.9793    0.1220 C   0  0  0  0  0  0  0  0  0  0  0  0
   -2.8202   -2.4781   -0.0062 H   0  0  0  0  0  0  0  0  0  0  0  0
    2.8098   -2.4775   -0.0069 H   0  0  0  0  0  0  0  0  0  0  0  0
   -4.9403   -1.3674    0.5222 H   0  0  0  0  0  0  0  0  0  0  0  0
    4.9427   -1.3739    0.5067 H   0  0  0  0  0  0  0  0  0  0  0  0
   -1.4308    0.9068   -0.5874 H   0  0  0  0  0  0  0  0  0  0  0  0
    1.4324    0.9161   -0.5751 H   0  0  0  0  0  0  0  0  0  0  0  0
   -1.1515   -1.5637   -1.7600 H   0  0  0  0  0  0  0  0  0  0  0  0
    1.1393   -1.5608   -1.7621 H   0  0  0  0  0  0  0  0  0  0  0  0
   -6.2292    0.7352    0.6625 H   0  0  0  0  0  0  0  0  0  0  0  0
    6.2359    0.7237    0.6534 H   0  0  0  0  0  0  0  0  0  0  0  0
   -2.7300    2.9694   -0.4450 H   0  0  0  0  0  0  0  0  0  0  0  0
    2.7382    2.9738   -0.4263 H   0  0  0  0  0  0  0  0  0  0  0  0
   -5.1297    2.9058    0.1797 H   0  0  0  0  0  0  0  0  0  0  0  0
    5.1403    2.9002    0.1878 H   0  0  0  0  0  0  0  0  0  0  0  0
  1 16  2  0  0  0  0
  2  4  1  0  0  0  0
  2  6  1  0  0  0  0
  2 19  1  0  0  0  0
  3  5  1  0  0  0  0
  3  7  1  0  0  0  0
  3 20  1  0  0  0  0
  4 16  1  0  0  0  0
  4 25  1  0  0  0  0
  5 16  1  0  0  0  0
  5 26  1  0  0  0  0
  6  8  2  0  0  0  0
  6 10  1  0  0  0  0
  7  9  2  0  0  0  0
  7 11  1  0  0  0  0
  8 12  1  0  0  0  0
  8 21  1  0  0  0  0
  9 13  1  0  0  0  0
  9 22  1  0  0  0  0
 10 14  2  0  0  0  0
 10 23  1  0  0  0  0
 11 15  2  0  0  0  0
 11 24  1  0  0  0  0
 12 17  2  0  0  0  0
 12 27  1  0  0  0  0
 13 18  2  0  0  0  0
 13 28  1  0  0  0  0
 14 17  1  0  0  0  0
 14 29  1  0  0  0  0
 15 18  1  0  0  0  0
 15 30  1  0  0  0  0
 17 31  1  0  0  0  0
 18 32  1  0  0  0  0
M  END
> <PUBCHEM_COMPOUND_CID>
8789

> <PUBCHEM_CONFORMER_RMSD>
0.8

> <PUBCHEM_CONFORMER_DIVERSEORDER>
1
9
16
4
18
12
6
5
11
2
14
17
7
19
15
10
13
8
3

> <PUBCHEM_MMFF94_PARTIAL_CHARGES>
32
1 -0.57
10 -0.15
11 -0.15
12 -0.15
13 -0.15
14 -0.15
15 -0.15
16 0.69
17 -0.15
18 -0.15
19 0.4
2 -0.52
20 0.4
21 0.15
22 0.15
23 0.15
24 0.15
25 0.37
26 0.37
27 0.15
28 0.15
29 0.15
3 -0.52
30 0.15
31 0.15
32 0.15
4 -0.41
5 -0.41
6 0.1
7 0.1
8 -0.15
9 -0.15

> <PUBCHEM_EFFECTIVE_ROTOR_COUNT>
6

> <PUBCHEM_PHARMACOPHORE_FEATURES>
7
1 1 acceptor
1 2 donor
1 3 donor
1 4 donor
1 5 donor
6 6 8 10 12 14 17 rings
6 7 9 11 13 15 18 rings

> <PUBCHEM_HEAVY_ATOM_COUNT>
18

> <PUBCHEM_ATOM_DEF_STEREO_COUNT>
0

> <PUBCHEM_ATOM_UDEF_STEREO_COUNT>
0

> <PUBCHEM_BOND_DEF_STEREO_COUNT>
0

> <PUBCHEM_BOND_UDEF_STEREO_COUNT>
0

> <PUBCHEM_ISOTOPIC_ATOM_COUNT>
0

> <PUBCHEM_COMPONENT_COUNT>
1

> <PUBCHEM_CACTVS_TAUTO_COUNT>
2

> <PUBCHEM_CONFORMER_ID>
0000225500000001

> <PUBCHEM_MMFF94_ENERGY>
63.4937

> <PUBCHEM_FEATURE_SELFOVERLAP>
38.756

> <PUBCHEM_SHAPE_FINGERPRINT>
12107183 9 18269004240221082514
122479 349 18341047437064143650
12596602 18 16630243606521861768
12633257 1 16558752261330538040
13103583 49 12679179466182612221
13402501 40 18410856563961793289
14123255 352 18410295808741499828
14251764 18 18272376356731538298
14251764 38 18412536630635146464
14576447 43 8790891791828821228
15188451 53 16128084534973186251
15196674 1 18410292514469876740
17834072 32 18408322206960444869
193927 3 10663819719112738800
20621476 66 18410852123719879284
21652331 79 18412263934834754685
23227448 37 18335702706857119495
23559900 14 18118683450892932863
245318 6 17414138123975050940
2838139 119 18333458637810733884
351380 180 18342458144615212064
3680242 22 18340205310004786760
38570 142 17130118950983549404
465052 167 11527942374260188592
474 4 18272932708670927699
5104073 3 18199741604782561763
54446538 1 18411140233755956297
6328613 192 18271799091773854780
7808743 9 18265336110273976944
960060 61 6699803198454251008

> <PUBCHEM_SHAPE_MULTIPOLES>
344.64
12.39
2.45
0.76
0.06
0.33
0.06
6.67
1.51
0
-0.1
0
-0.14
0.01

> <PUBCHEM_SHAPE_SELFOVERLAP>
728.265

> <PUBCHEM_SHAPE_VOLUME>
191

> <PUBCHEM_COORDINATE_TYPE>
2
5
10

$$$$

