72014
  -OEChem-07051213023D

 50 51  0     1  0  0  0  0  0999 V2000
    3.7123    2.7585    2.3924 O   0  0  0  0  0  0  0  0  0  0  0  0
    3.7609    0.4047    0.9130 O   0  0  0  0  0  0  0  0  0  0  0  0
   -2.0210   -0.3502   -1.8346 O   0  0  0  0  0  0  0  0  0  0  0  0
   -6.4995   -1.9440    2.6158 O   0  0  0  0  0  0  0  0  0  0  0  0
    1.2367    2.5182   -0.3506 N   0  0  0  0  0  0  0  0  0  0  0  0
   -2.1487    1.9680   -1.7828 N   0  0  0  0  0  0  0  0  0  0  0  0
    0.9915   -1.6847   -0.0181 N   0  0  0  0  0  0  0  0  0  0  0  0
    3.2820    2.7548    1.0282 C   0  0  2  0  0  0  0  0  0  0  0  0
    1.7625    2.5726    1.0067 C   0  0  0  0  0  0  0  0  0  0  0  0
   -0.2016    2.2881   -0.3432 C   0  0  0  0  0  0  0  0  0  0  0  0
   -0.7340    2.2226   -1.7672 C   0  0  0  0  0  0  0  0  0  0  0  0
    4.0337    1.6532    0.2843 C   0  0  0  0  0  0  0  0  0  0  0  0
   -4.1998    0.7070   -1.8203 C   0  0  0  0  0  0  0  0  0  0  0  0
   -2.6835    0.6840   -1.8156 C   0  0  0  0  0  0  0  0  0  0  0  0
   -4.8111    0.0006   -0.6393 C   0  0  0  0  0  0  0  0  0  0  0  0
    4.3473   -0.7030    0.3616 C   0  0  0  0  0  0  0  0  0  0  0  0
   -5.1095   -1.3598   -0.7174 C   0  0  0  0  0  0  0  0  0  0  0  0
   -5.0801    0.7076    0.5327 C   0  0  0  0  0  0  0  0  0  0  0  0
    3.5795   -1.7602   -0.1270 C   0  0  0  0  0  0  0  0  0  0  0  0
    5.7394   -0.7625    0.2940 C   0  0  0  0  0  0  0  0  0  0  0  0
   -5.6770   -2.0132    0.3764 C   0  0  0  0  0  0  0  0  0  0  0  0
   -5.6476    0.0541    1.6266 C   0  0  0  0  0  0  0  0  0  0  0  0
   -5.9461   -1.3063    1.5484 C   0  0  0  0  0  0  0  0  0  0  0  0
    4.2038   -2.8766   -0.6834 C   0  0  0  0  0  0  0  0  0  0  0  0
    6.3636   -1.8790   -0.2626 C   0  0  0  0  0  0  0  0  0  0  0  0
    5.5959   -2.9359   -0.7511 C   0  0  0  0  0  0  0  0  0  0  0  0
    2.1504   -1.7186   -0.0668 C   0  0  0  0  0  0  0  0  0  0  0  0
    3.5400    3.7291    0.5964 H   0  0  0  0  0  0  0  0  0  0  0  0
    1.3026    3.4000    1.5629 H   0  0  0  0  0  0  0  0  0  0  0  0
    1.5014    1.6592    1.5569 H   0  0  0  0  0  0  0  0  0  0  0  0
   -0.7167    3.0893    0.2018 H   0  0  0  0  0  0  0  0  0  0  0  0
   -0.4289    1.3461    0.1713 H   0  0  0  0  0  0  0  0  0  0  0  0
    1.4486    3.3880   -0.8383 H   0  0  0  0  0  0  0  0  0  0  0  0
   -0.5714    3.1737   -2.2865 H   0  0  0  0  0  0  0  0  0  0  0  0
   -0.2235    1.4356   -2.3345 H   0  0  0  0  0  0  0  0  0  0  0  0
    3.7455    1.6152   -0.7726 H   0  0  0  0  0  0  0  0  0  0  0  0
    5.1064    1.8703    0.3442 H   0  0  0  0  0  0  0  0  0  0  0  0
   -2.7691    2.7715   -1.7543 H   0  0  0  0  0  0  0  0  0  0  0  0
   -4.5296    0.2321   -2.7534 H   0  0  0  0  0  0  0  0  0  0  0  0
   -4.5849    1.7329   -1.8686 H   0  0  0  0  0  0  0  0  0  0  0  0
    4.6732    2.9075    2.3959 H   0  0  0  0  0  0  0  0  0  0  0  0
   -4.9031   -1.9218   -1.6244 H   0  0  0  0  0  0  0  0  0  0  0  0
   -4.8501    1.7673    0.6057 H   0  0  0  0  0  0  0  0  0  0  0  0
    6.3576    0.0397    0.6868 H   0  0  0  0  0  0  0  0  0  0  0  0
   -5.9068   -3.0731    0.3098 H   0  0  0  0  0  0  0  0  0  0  0  0
   -5.8518    0.6160    2.5341 H   0  0  0  0  0  0  0  0  0  0  0  0
    3.6200   -3.7094   -1.0686 H   0  0  0  0  0  0  0  0  0  0  0  0
    7.4475   -1.9275   -0.3111 H   0  0  0  0  0  0  0  0  0  0  0  0
    6.0821   -3.8057   -1.1832 H   0  0  0  0  0  0  0  0  0  0  0  0
   -6.6164   -1.3044    3.3391 H   0  0  0  0  0  0  0  0  0  0  0  0
  1  8  1  0  0  0  0
  1 41  1  0  0  0  0
  2 12  1  0  0  0  0
  2 16  1  0  0  0  0
  3 14  2  0  0  0  0
  4 23  1  0  0  0  0
  4 50  1  0  0  0  0
  5  9  1  0  0  0  0
  5 10  1  0  0  0  0
  5 33  1  0  0  0  0
  6 11  1  0  0  0  0
  6 14  1  0  0  0  0
  6 38  1  0  0  0  0
  7 27  3  0  0  0  0
  8  9  1  0  0  0  0
  8 12  1  0  0  0  0
  8 28  1  0  0  0  0
  9 29  1  0  0  0  0
  9 30  1  0  0  0  0
 10 11  1  0  0  0  0
 10 31  1  0  0  0  0
 10 32  1  0  0  0  0
 11 34  1  0  0  0  0
 11 35  1  0  0  0  0
 12 36  1  0  0  0  0
 12 37  1  0  0  0  0
 13 14  1  0  0  0  0
 13 15  1  0  0  0  0
 13 39  1  0  0  0  0
 13 40  1  0  0  0  0
 15 17  2  0  0  0  0
 15 18  1  0  0  0  0
 16 19  1  0  0  0  0
 16 20  2  0  0  0  0
 17 21  1  0  0  0  0
 17 42  1  0  0  0  0
 18 22  2  0  0  0  0
 18 43  1  0  0  0  0
 19 24  2  0  0  0  0
 19 27  1  0  0  0  0
 20 25  1  0  0  0  0
 20 44  1  0  0  0  0
 21 23  2  0  0  0  0
 21 45  1  0  0  0  0
 22 23  1  0  0  0  0
 22 46  1  0  0  0  0
 24 26  1  0  0  0  0
 24 47  1  0  0  0  0
 25 26  2  0  0  0  0
 25 48  1  0  0  0  0
 26 49  1  0  0  0  0
M  END
> <PUBCHEM_COMPOUND_CID>
72014

> <PUBCHEM_CONFORMER_RMSD>
1.4

> <PUBCHEM_CONFORMER_DIVERSEORDER>
1
7
42
36
11
104
98
106
61
16
94
21
107
2
60
38
54
50
20
91
6
48
47
9
101
34
88
46
63
58
78
62
25
108
10
95
4
43
5
79
97
109
24
52
41
45
35
31
55
100
13
92
66
89
68
44
15
53
22
99
74
12
73
30
71
83
67
93
82
77
105
64
26
33
19
80
51
72
3
17
49
102
57
96
27
70
37
75
28
40
39
59
90
81
69
103
86
85
87
18
76
84
8
14
23
32
56
65
29

> <PUBCHEM_MMFF94_PARTIAL_CHARGES>
39
1 -0.68
10 0.27
11 0.3
12 0.28
13 0.2
14 0.57
15 -0.14
16 0.08
17 -0.15
18 -0.15
19 0.07
2 -0.36
20 -0.15
21 -0.15
22 -0.15
23 0.08
24 -0.15
25 -0.15
26 -0.15
27 0.48
3 -0.57
33 0.36
38 0.37
4 -0.53
41 0.4
42 0.15
43 0.15
44 0.15
45 0.15
46 0.15
47 0.15
48 0.15
49 0.15
5 -0.9
50 0.45
6 -0.73
7 -0.56
8 0.28
9 0.27

> <PUBCHEM_EFFECTIVE_ROTOR_COUNT>
11

> <PUBCHEM_PHARMACOPHORE_FEATURES>
11
1 1 acceptor
1 1 donor
1 2 acceptor
1 3 acceptor
1 4 donor
1 5 cation
1 5 donor
1 6 donor
1 7 acceptor
6 15 17 18 21 22 23 rings
6 16 19 20 24 25 26 rings

> <PUBCHEM_HEAVY_ATOM_COUNT>
27

> <PUBCHEM_ATOM_DEF_STEREO_COUNT>
0

> <PUBCHEM_ATOM_UDEF_STEREO_COUNT>
1

> <PUBCHEM_BOND_DEF_STEREO_COUNT>
0

> <PUBCHEM_BOND_UDEF_STEREO_COUNT>
0

> <PUBCHEM_ISOTOPIC_ATOM_COUNT>
0

> <PUBCHEM_COMPONENT_COUNT>
1

> <PUBCHEM_CACTVS_TAUTO_COUNT>
4

> <PUBCHEM_CONFORMER_ID>
0001194E00000001

> <PUBCHEM_MMFF94_ENERGY>
55.0222

> <PUBCHEM_FEATURE_SELFOVERLAP>
55.822

> <PUBCHEM_SHAPE_FINGERPRINT>
10864689 126 18199760313407388711
10981352 41 18058445397212264715
12422481 6 16515960479663296989
13075007 39 18272931579289779113
13103583 49 16660657249191950660
13402501 40 18343585144118325298
1361 87 18271248338672635023
13782708 43 18129948982959797298
14251764 30 18342736342605819831
14950920 106 17967251984081321257
15419008 47 18273208716138420298
15510800 12 17703225084863351699
16994733 274 14058433069204682680
21623969 137 18341621373538769904
22864921 267 18341314619281068779
25222932 49 17130725889338069976
3089732 80 18272371979442529711
3388396 114 12247679409101618518
3737641 26 18409735057832718845
3862424 121 16414046622910833411
4435113 14 18201424870711015611
46194498 28 18130791157685782300
484989 97 18271802458801315574
508706 21 17703800197852418199
7918774 8 18060136531441105381
86090 222 17988646255237878963
8863177 126 18413672413229328478
999808 66 18410574032702202758

> <PUBCHEM_SHAPE_MULTIPOLES>
517.23
18.4
3.85
1.95
9.25
1
-0.29
-13.63
-5.94
-4.58
-0.47
2.97
0.65
4.2

> <PUBCHEM_SHAPE_SELFOVERLAP>
1072.869

> <PUBCHEM_SHAPE_VOLUME>
292.1

> <PUBCHEM_COORDINATE_TYPE>
2
5
10

$$$$

