50980
  -OEChem-07051213052D

 56 58  0     1  0  0  0  0  0999 V2000
    2.8660   -6.7500    0.0000 F   0  0  0  0  0  0  0  0  0  0  0  0
    2.0000   -5.2500    0.0000 F   0  0  0  0  0  0  0  0  0  0  0  0
    4.5981    0.2500    0.0000 O   0  0  0  0  0  0  0  0  0  0  0  0
    5.4641   -1.2500    0.0000 O   0  0  0  0  0  0  0  0  0  0  0  0
    3.7320   -5.2500    0.0000 O   0  0  0  0  0  0  0  0  0  0  0  0
    7.1962    3.7500    0.0000 O   0  0  0  0  0  0  0  0  0  0  0  0
    7.1962   -0.2500    0.0000 N   0  0  0  0  0  0  0  0  0  0  0  0
    3.7320   -1.2500    0.0000 C   0  0  3  0  0  0  0  0  0  0  0  0
    2.8660   -0.7500    0.0000 C   0  0  0  0  0  0  0  0  0  0  0  0
    3.7320   -2.2500    0.0000 C   0  0  0  0  0  0  0  0  0  0  0  0
    2.8660    0.2500    0.0000 C   0  0  0  0  0  0  0  0  0  0  0  0
    2.0000   -1.2500    0.0000 C   0  0  0  0  0  0  0  0  0  0  0  0
    4.5981   -0.7500    0.0000 C   0  0  0  0  0  0  0  0  0  0  0  0
    2.8660   -2.7500    0.0000 C   0  0  0  0  0  0  0  0  0  0  0  0
    4.5981   -2.7500    0.0000 C   0  0  0  0  0  0  0  0  0  0  0  0
    5.4641    0.7500    0.0000 C   0  0  3  0  0  0  0  0  0  0  0  0
    2.8660   -3.7500    0.0000 C   0  0  0  0  0  0  0  0  0  0  0  0
    4.5981   -3.7500    0.0000 C   0  0  0  0  0  0  0  0  0  0  0  0
    3.7320   -4.2500    0.0000 C   0  0  0  0  0  0  0  0  0  0  0  0
    5.4641    1.7500    0.0000 C   0  0  0  0  0  0  0  0  0  0  0  0
    6.3301    2.2500    0.0000 C   0  0  0  0  0  0  0  0  0  0  0  0
    4.5981    2.2500    0.0000 C   0  0  0  0  0  0  0  0  0  0  0  0
    6.3301    3.2500    0.0000 C   0  0  0  0  0  0  0  0  0  0  0  0
    6.3301    0.2500    0.0000 C   0  0  0  0  0  0  0  0  0  0  0  0
    4.5981    3.2500    0.0000 C   0  0  0  0  0  0  0  0  0  0  0  0
    5.4641    3.7500    0.0000 C   0  0  0  0  0  0  0  0  0  0  0  0
    2.8660   -5.7500    0.0000 C   0  0  0  0  0  0  0  0  0  0  0  0
    7.1962    4.7500    0.0000 C   0  0  0  0  0  0  0  0  0  0  0  0
    8.0622    5.2500    0.0000 C   0  0  0  0  0  0  0  0  0  0  0  0
    6.3301    5.2500    0.0000 C   0  0  0  0  0  0  0  0  0  0  0  0
    8.0622    6.2500    0.0000 C   0  0  0  0  0  0  0  0  0  0  0  0
    6.3301    6.2500    0.0000 C   0  0  0  0  0  0  0  0  0  0  0  0
    7.1962    6.7500    0.0000 C   0  0  0  0  0  0  0  0  0  0  0  0
    3.7320   -0.6300    0.0000 H   0  0  0  0  0  0  0  0  0  0  0  0
    2.8660   -1.3700    0.0000 H   0  0  0  0  0  0  0  0  0  0  0  0
    3.4860    0.2500    0.0000 H   0  0  0  0  0  0  0  0  0  0  0  0
    2.8660    0.8700    0.0000 H   0  0  0  0  0  0  0  0  0  0  0  0
    2.2460    0.2500    0.0000 H   0  0  0  0  0  0  0  0  0  0  0  0
    1.6900   -0.7131    0.0000 H   0  0  0  0  0  0  0  0  0  0  0  0
    1.4631   -1.5600    0.0000 H   0  0  0  0  0  0  0  0  0  0  0  0
    2.3100   -1.7869    0.0000 H   0  0  0  0  0  0  0  0  0  0  0  0
    2.3291   -2.4400    0.0000 H   0  0  0  0  0  0  0  0  0  0  0  0
    5.1350   -2.4400    0.0000 H   0  0  0  0  0  0  0  0  0  0  0  0
    5.4641    0.1300    0.0000 H   0  0  0  0  0  0  0  0  0  0  0  0
    2.3291   -4.0600    0.0000 H   0  0  0  0  0  0  0  0  0  0  0  0
    5.1350   -4.0600    0.0000 H   0  0  0  0  0  0  0  0  0  0  0  0
    6.8671    1.9400    0.0000 H   0  0  0  0  0  0  0  0  0  0  0  0
    4.0611    1.9400    0.0000 H   0  0  0  0  0  0  0  0  0  0  0  0
    4.0611    3.5600    0.0000 H   0  0  0  0  0  0  0  0  0  0  0  0
    5.4641    4.3700    0.0000 H   0  0  0  0  0  0  0  0  0  0  0  0
    2.8660   -5.1300    0.0000 H   0  0  0  0  0  0  0  0  0  0  0  0
    8.5991    4.9400    0.0000 H   0  0  0  0  0  0  0  0  0  0  0  0
    5.7932    4.9400    0.0000 H   0  0  0  0  0  0  0  0  0  0  0  0
    8.5991    6.5600    0.0000 H   0  0  0  0  0  0  0  0  0  0  0  0
    5.7932    6.5600    0.0000 H   0  0  0  0  0  0  0  0  0  0  0  0
    7.1962    7.3700    0.0000 H   0  0  0  0  0  0  0  0  0  0  0  0
  1 27  1  0  0  0  0
  2 27  1  0  0  0  0
  3 13  1  0  0  0  0
  3 16  1  0  0  0  0
  4 13  2  0  0  0  0
  5 19  1  0  0  0  0
  5 27  1  0  0  0  0
  6 23  1  0  0  0  0
  6 28  1  0  0  0  0
  7 24  3  0  0  0  0
  8  9  1  0  0  0  0
  8 10  1  0  0  0  0
  8 13  1  0  0  0  0
  8 34  1  0  0  0  0
  9 11  1  0  0  0  0
  9 12  1  0  0  0  0
  9 35  1  0  0  0  0
 10 14  2  0  0  0  0
 10 15  1  0  0  0  0
 11 36  1  0  0  0  0
 11 37  1  0  0  0  0
 11 38  1  0  0  0  0
 12 39  1  0  0  0  0
 12 40  1  0  0  0  0
 12 41  1  0  0  0  0
 14 17  1  0  0  0  0
 14 42  1  0  0  0  0
 15 18  2  0  0  0  0
 15 43  1  0  0  0  0
 16 20  1  0  0  0  0
 16 24  1  0  0  0  0
 16 44  1  0  0  0  0
 17 19  2  0  0  0  0
 17 45  1  0  0  0  0
 18 19  1  0  0  0  0
 18 46  1  0  0  0  0
 20 21  2  0  0  0  0
 20 22  1  0  0  0  0
 21 23  1  0  0  0  0
 21 47  1  0  0  0  0
 22 25  2  0  0  0  0
 22 48  1  0  0  0  0
 23 26  2  0  0  0  0
 25 26  1  0  0  0  0
 25 49  1  0  0  0  0
 26 50  1  0  0  0  0
 27 51  1  0  0  0  0
 28 29  2  0  0  0  0
 28 30  1  0  0  0  0
 29 31  1  0  0  0  0
 29 52  1  0  0  0  0
 30 32  2  0  0  0  0
 30 53  1  0  0  0  0
 31 33  2  0  0  0  0
 31 54  1  0  0  0  0
 32 33  1  0  0  0  0
 32 55  1  0  0  0  0
 33 56  1  0  0  0  0
M  END
> <PUBCHEM_COMPOUND_CID>
50980

> <PUBCHEM_COMPOUND_CANONICALIZED>
1

> <PUBCHEM_CACTVS_COMPLEXITY>
650

> <PUBCHEM_CACTVS_HBOND_ACCEPTOR>
7

> <PUBCHEM_CACTVS_HBOND_DONOR>
0

> <PUBCHEM_CACTVS_ROTATABLE_BOND>
10

> <PUBCHEM_CACTVS_SUBSKEYS>
AAADceB6OYAAAAAAAAAAAAAAAAAAAAAAAAAwYMAAAAAAAAABUAAAHwAAAAAADRShmBIyDoAABACYBiDSCAACCAAgIAAIiAEGCIgMpjKENRqCOCCkwBEIqA/IyPCOoAABAAAAAABAAAIAAAAAAAAAAAAAAA==

> <PUBCHEM_IUPAC_OPENEYE_NAME>
[cyano-(3-phenoxyphenyl)methyl] 2-[4-(difluoromethoxy)phenyl]-3-methyl-butanoate

> <PUBCHEM_IUPAC_CAS_NAME>
2-[4-(difluoromethoxy)phenyl]-3-methylbutanoic acid [cyano-(3-phenoxyphenyl)methyl] ester

> <PUBCHEM_IUPAC_NAME>
[cyano-(3-phenoxyphenyl)methyl] 2-[4-(difluoromethoxy)phenyl]-3-methylbutanoate

> <PUBCHEM_IUPAC_SYSTEMATIC_NAME>
[cyano-(3-phenoxyphenyl)methyl] 2-[4-[bis(fluoranyl)methoxy]phenyl]-3-methyl-butanoate

> <PUBCHEM_IUPAC_TRADITIONAL_NAME>
2-[4-(difluoromethoxy)phenyl]-3-methyl-butyric acid [cyano-(3-phenoxyphenyl)methyl] ester

> <PUBCHEM_IUPAC_INCHI>
InChI=1S/C26H23F2NO4/c1-17(2)24(18-11-13-21(14-12-18)32-26(27)28)25(30)33-23(16-29)19-7-6-10-22(15-19)31-20-8-4-3-5-9-20/h3-15,17,23-24,26H,1-2H3

> <PUBCHEM_IUPAC_INCHIKEY>
GBIHOLCMZGAKNG-UHFFFAOYSA-N

> <PUBCHEM_XLOGP3>
6.2

> <PUBCHEM_EXACT_MASS>
451.159515

> <PUBCHEM_MOLECULAR_FORMULA>
C26H23F2NO4

> <PUBCHEM_MOLECULAR_WEIGHT>
451.461926

> <PUBCHEM_OPENEYE_CAN_SMILES>
CC(C)C(C1=CC=C(C=C1)OC(F)F)C(=O)OC(C#N)C2=CC(=CC=C2)OC3=CC=CC=C3

> <PUBCHEM_OPENEYE_ISO_SMILES>
CC(C)C(C1=CC=C(C=C1)OC(F)F)C(=O)OC(C#N)C2=CC(=CC=C2)OC3=CC=CC=C3

> <PUBCHEM_CACTVS_TPSA>
68.6

> <PUBCHEM_MONOISOTOPIC_WEIGHT>
451.159515

> <PUBCHEM_TOTAL_CHARGE>
0

> <PUBCHEM_HEAVY_ATOM_COUNT>
33

> <PUBCHEM_ATOM_DEF_STEREO_COUNT>
0

> <PUBCHEM_ATOM_UDEF_STEREO_COUNT>
2

> <PUBCHEM_BOND_DEF_STEREO_COUNT>
0

> <PUBCHEM_BOND_UDEF_STEREO_COUNT>
0

> <PUBCHEM_ISOTOPIC_ATOM_COUNT>
0

> <PUBCHEM_COMPONENT_COUNT>
1

> <PUBCHEM_CACTVS_TAUTO_COUNT>
1

> <PUBCHEM_COORDINATE_TYPE>
1
5
255

> <PUBCHEM_BONDANNOTATIONS>
10  14  8
10  15  8
14  17  8
15  18  8
16  24  3
17  19  8
18  19  8
20  21  8
20  22  8
21  23  8
22  25  8
23  26  8
25  26  8
28  29  8
28  30  8
29  31  8
30  32  8
31  33  8
32  33  8
8  9  3

$$$$

