68934
  -OEChem-07051212472D

 32 34  0     1  0  0  0  0  0999 V2000
    6.3234   -1.2582    0.0000 P   0  0  3  0  0  0  0  0  0  0  0  0
    3.2547   -1.2582    0.0000 O   0  0  0  0  0  0  0  0  0  0  0  0
    5.7398   -2.0629    0.0000 O   0  0  0  0  0  0  0  0  0  0  0  0
    5.7398   -0.4534    0.0000 O   0  0  0  0  0  0  0  0  0  0  0  0
    7.1324   -1.8460    0.0000 O   0  0  0  0  0  0  0  0  0  0  0  0
    2.5553   -3.2262    0.0000 O   0  0  0  0  0  0  0  0  0  0  0  0
    7.1324   -0.6704    0.0000 O   0  0  0  0  0  0  0  0  0  0  0  0
    5.1808    1.0371    0.0000 O   0  0  0  0  0  0  0  0  0  0  0  0
    3.5335    0.5019    0.0000 N   0  0  0  0  0  0  0  0  0  0  0  0
    3.8936    2.1961    0.0000 N   0  0  0  0  0  0  0  0  0  0  0  0
    2.6064    3.3551    0.0000 N   0  0  0  0  0  0  0  0  0  0  0  0
    4.7936   -1.7582    0.0000 C   0  0  1  0  0  0  0  0  0  0  0  0
    4.7936   -0.7582    0.0000 C   0  0  2  0  0  0  0  0  0  0  0  0
    3.8425   -2.0672    0.0000 C   0  0  1  0  0  0  0  0  0  0  0  0
    3.8425   -0.4492    0.0000 C   0  0  1  0  0  0  0  0  0  0  0  0
    3.5335   -3.0182    0.0000 C   0  0  0  0  0  0  0  0  0  0  0  0
    2.5553    0.7098    0.0000 C   0  0  0  0  0  0  0  0  0  0  0  0
    4.2026    1.2450    0.0000 C   0  0  0  0  0  0  0  0  0  0  0  0
    2.2463    1.6609    0.0000 C   0  0  0  0  0  0  0  0  0  0  0  0
    2.9155    2.4040    0.0000 C   0  0  0  0  0  0  0  0  0  0  0  0
    4.7947   -2.6082    0.0000 H   0  0  0  0  0  0  0  0  0  0  0  0
    4.7947    0.0918    0.0000 H   0  0  0  0  0  0  0  0  0  0  0  0
    3.2302   -2.1642    0.0000 H   0  0  0  0  0  0  0  0  0  0  0  0
    3.2302   -0.3522    0.0000 H   0  0  0  0  0  0  0  0  0  0  0  0
    3.5551   -3.6379    0.0000 H   0  0  0  0  0  0  0  0  0  0  0  0
    4.1475   -3.1045    0.0000 H   0  0  0  0  0  0  0  0  0  0  0  0
    2.1405    0.2491    0.0000 H   0  0  0  0  0  0  0  0  0  0  0  0
    7.0676   -2.4626    0.0000 H   0  0  0  0  0  0  0  0  0  0  0  0
    2.3638   -3.8158    0.0000 H   0  0  0  0  0  0  0  0  0  0  0  0
    1.6399    1.7898    0.0000 H   0  0  0  0  0  0  0  0  0  0  0  0
    2.0000    3.4840    0.0000 H   0  0  0  0  0  0  0  0  0  0  0  0
    3.0213    3.8158    0.0000 H   0  0  0  0  0  0  0  0  0  0  0  0
  1  3  1  0  0  0  0
  1  4  1  0  0  0  0
  1  5  1  0  0  0  0
  1  7  2  0  0  0  0
  2 14  1  0  0  0  0
  2 15  1  0  0  0  0
  3 12  1  0  0  0  0
  4 13  1  0  0  0  0
  5 28  1  0  0  0  0
  6 16  1  0  0  0  0
  6 29  1  0  0  0  0
  8 18  2  0  0  0  0
 15  9  1  1  0  0  0
  9 17  1  0  0  0  0
  9 18  1  0  0  0  0
 10 18  1  0  0  0  0
 10 20  2  0  0  0  0
 11 20  1  0  0  0  0
 11 31  1  0  0  0  0
 11 32  1  0  0  0  0
 12 13  1  0  0  0  0
 12 14  1  0  0  0  0
 12 21  1  1  0  0  0
 13 15  1  0  0  0  0
 13 22  1  1  0  0  0
 14 16  1  1  0  0  0
 14 23  1  0  0  0  0
 15 24  1  0  0  0  0
 16 25  1  0  0  0  0
 16 26  1  0  0  0  0
 17 19  2  0  0  0  0
 17 27  1  0  0  0  0
 19 20  1  0  0  0  0
 19 30  1  0  0  0  0
M  END
> <PUBCHEM_COMPOUND_CID>
68934

> <PUBCHEM_COMPOUND_CANONICALIZED>
1

> <PUBCHEM_CACTVS_COMPLEXITY>
550

> <PUBCHEM_CACTVS_HBOND_ACCEPTOR>
7

> <PUBCHEM_CACTVS_HBOND_DONOR>
3

> <PUBCHEM_CACTVS_ROTATABLE_BOND>
2

> <PUBCHEM_CACTVS_SUBSKEYS>
AAADccBzOAIAAAAAAAAAAAAAAAAAASJAAAAgAAAAAAASAAAAAAAAHgAQCCAACBThgAYBAANABxCoQCJmdICAAAEAAgAIAAAYABCDEAIAgAAOQAAHFgITAADwMAIAAAAAAAAAAAAAAAAAAAAAAAAAAAAAAA==

> <PUBCHEM_IUPAC_OPENEYE_NAME>
1-[(3aR,4R,6R,6aR)-2-hydroxy-6-(hydroxymethyl)-2-oxo-3a,4,6,6a-tetrahydrofuro[3,4-d][1,3,2]dioxaphosphol-4-yl]-4-amino-pyrimidin-2-one

> <PUBCHEM_IUPAC_CAS_NAME>
1-[(3aR,4R,6R,6aR)-2-hydroxy-6-(hydroxymethyl)-2-oxo-3a,4,6,6a-tetrahydrofuro[3,4-d][1,3,2]dioxaphosphol-4-yl]-4-amino-2-pyrimidinone

> <PUBCHEM_IUPAC_NAME>
1-[(3aR,4R,6R,6aR)-2-hydroxy-6-(hydroxymethyl)-2-oxo-3a,4,6,6a-tetrahydrofuro[3,4-d][1,3,2]dioxaphosphol-4-yl]-4-aminopyrimidin-2-one

> <PUBCHEM_IUPAC_SYSTEMATIC_NAME>
1-[(3aR,4R,6R,6aR)-6-(hydroxymethyl)-2-oxidanyl-2-oxidanylidene-3a,4,6,6a-tetrahydrofuro[3,4-d][1,3,2]dioxaphosphol-4-yl]-4-azanyl-pyrimidin-2-one

> <PUBCHEM_IUPAC_TRADITIONAL_NAME>
1-[(3aR,4R,6R,6aR)-2-hydroxy-2-keto-6-methylol-3a,4,6,6a-tetrahydrofuro[3,4-d][1,3,2]dioxaphosphol-4-yl]-4-amino-pyrimidin-2-one

> <PUBCHEM_IUPAC_INCHI>
InChI=1S/C9H12N3O7P/c10-5-1-2-12(9(14)11-5)8-7-6(4(3-13)17-8)18-20(15,16)19-7/h1-2,4,6-8,13H,3H2,(H,15,16)(H2,10,11,14)/t4-,6-,7-,8-/m1/s1

> <PUBCHEM_IUPAC_INCHIKEY>
NMPZCCZXCOMSDQ-XVFCMESISA-N

> <PUBCHEM_XLOGP3_AA>
-3.3

> <PUBCHEM_EXACT_MASS>
305.041286

> <PUBCHEM_MOLECULAR_FORMULA>
C9H12N3O7P

> <PUBCHEM_MOLECULAR_WEIGHT>
305.181242

> <PUBCHEM_OPENEYE_CAN_SMILES>
C1=CN(C(=O)N=C1N)C2C3C(C(O2)CO)OP(=O)(O3)O

> <PUBCHEM_OPENEYE_ISO_SMILES>
C1=CN(C(=O)N=C1N)[C@H]2[C@H]3[C@@H]([C@H](O2)CO)OP(=O)(O3)O

> <PUBCHEM_CACTVS_TPSA>
144

> <PUBCHEM_MONOISOTOPIC_WEIGHT>
305.041286

> <PUBCHEM_TOTAL_CHARGE>
0

> <PUBCHEM_HEAVY_ATOM_COUNT>
20

> <PUBCHEM_ATOM_DEF_STEREO_COUNT>
4

> <PUBCHEM_ATOM_UDEF_STEREO_COUNT>
0

> <PUBCHEM_BOND_DEF_STEREO_COUNT>
0

> <PUBCHEM_BOND_UDEF_STEREO_COUNT>
0

> <PUBCHEM_ISOTOPIC_ATOM_COUNT>
0

> <PUBCHEM_COMPONENT_COUNT>
1

> <PUBCHEM_CACTVS_TAUTO_COUNT>
3

> <PUBCHEM_COORDINATE_TYPE>
1
5
255

> <PUBCHEM_BONDANNOTATIONS>
10  18  8
10  20  8
12  21  5
13  22  5
14  16  5
17  19  8
19  20  8
15  9  5
9  17  8
9  18  8

$$$$

