9776837
  -OEChem-07051212512D

 19 18  0     0  0  0  0  0  0999 V2000
    6.3301   -0.5600    0.0000 O   0  0  0  0  0  0  0  0  0  0  0  0
    3.7320   -2.0600    0.0000 O   0  0  0  0  0  0  0  0  0  0  0  0
    6.3301    1.4400    0.0000 O   0  0  0  0  0  0  0  0  0  0  0  0
    4.5981    1.4400    0.0000 O   0  0  0  0  0  0  0  0  0  0  0  0
    3.7320   -0.0600    0.0000 C   0  0  0  0  0  0  0  0  0  0  0  0
    2.8660   -0.5600    0.0000 C   0  0  0  0  0  0  0  0  0  0  0  0
    4.5981   -0.5600    0.0000 C   0  0  0  0  0  0  0  0  0  0  0  0
    2.8660   -1.5600    0.0000 C   0  0  0  0  0  0  0  0  0  0  0  0
    5.4641   -0.0600    0.0000 C   0  0  0  0  0  0  0  0  0  0  0  0
    2.0000   -2.0600    0.0000 C   0  0  0  0  0  0  0  0  0  0  0  0
    5.4641    0.9400    0.0000 C   0  0  0  0  0  0  0  0  0  0  0  0
    3.7320    0.5600    0.0000 H   0  0  0  0  0  0  0  0  0  0  0  0
    4.5981   -1.1800    0.0000 H   0  0  0  0  0  0  0  0  0  0  0  0
    2.3291   -0.2500    0.0000 H   0  0  0  0  0  0  0  0  0  0  0  0
    1.6900   -1.5231    0.0000 H   0  0  0  0  0  0  0  0  0  0  0  0
    1.4631   -2.3700    0.0000 H   0  0  0  0  0  0  0  0  0  0  0  0
    2.3100   -2.5969    0.0000 H   0  0  0  0  0  0  0  0  0  0  0  0
    6.8671   -0.2500    0.0000 H   0  0  0  0  0  0  0  0  0  0  0  0
    6.3301    2.0600    0.0000 H   0  0  0  0  0  0  0  0  0  0  0  0
  1  9  1  0  0  0  0
  1 18  1  0  0  0  0
  2  8  2  0  0  0  0
  3 11  1  0  0  0  0
  3 19  1  0  0  0  0
  4 11  2  0  0  0  0
  5  6  2  0  0  0  0
  5  7  1  0  0  0  0
  5 12  1  0  0  0  0
  6  8  1  0  0  0  0
  6 14  1  0  0  0  0
  7  9  2  0  0  0  0
  7 13  1  0  0  0  0
  8 10  1  0  0  0  0
  9 11  1  0  0  0  0
 10 15  1  0  0  0  0
 10 16  1  0  0  0  0
 10 17  1  0  0  0  0
M  END
> <PUBCHEM_COMPOUND_CID>
9776837

> <PUBCHEM_COMPOUND_CANONICALIZED>
1

> <PUBCHEM_CACTVS_COMPLEXITY>
225

> <PUBCHEM_CACTVS_HBOND_ACCEPTOR>
4

> <PUBCHEM_CACTVS_HBOND_DONOR>
2

> <PUBCHEM_CACTVS_ROTATABLE_BOND>
3

> <PUBCHEM_CACTVS_SUBSKEYS>
AAADccBgOAAAAAAAAAAAAAAAAAAAAAAAAAAAAAAAAAAAAAAAAAAAGgAACAAACASAgAACCAAAAgCIAKDSCAIAAAAgIAAICABAAEgJBAAAAQAAEAAAAAAJkYIAAAAAAAAAAAAAAAAAAAAAAAAAAAAAAAAAAA==

> <PUBCHEM_IUPAC_OPENEYE_NAME>
(2E,4Z)-2-hydroxy-6-oxo-hepta-2,4-dienoic acid

> <PUBCHEM_IUPAC_CAS_NAME>
(2E,4Z)-2-hydroxy-6-oxohepta-2,4-dienoic acid

> <PUBCHEM_IUPAC_NAME>
(2E,4Z)-2-hydroxy-6-oxohepta-2,4-dienoic acid

> <PUBCHEM_IUPAC_SYSTEMATIC_NAME>
(2E,4Z)-2-oxidanyl-6-oxidanylidene-hepta-2,4-dienoic acid

> <PUBCHEM_IUPAC_TRADITIONAL_NAME>
(2E,4Z)-2-hydroxy-6-keto-hepta-2,4-dienoic acid

> <PUBCHEM_IUPAC_INCHI>
InChI=1S/C7H8O4/c1-5(8)3-2-4-6(9)7(10)11/h2-4,9H,1H3,(H,10,11)/b3-2-,6-4+

> <PUBCHEM_IUPAC_INCHIKEY>
HVZGWILTESYJSP-MGLVMYNNSA-N

> <PUBCHEM_XLOGP3_AA>
0.2

> <PUBCHEM_EXACT_MASS>
156.042259

> <PUBCHEM_MOLECULAR_FORMULA>
C7H8O4

> <PUBCHEM_MOLECULAR_WEIGHT>
156.13602

> <PUBCHEM_OPENEYE_CAN_SMILES>
CC(=O)C=CC=C(C(=O)O)O

> <PUBCHEM_OPENEYE_ISO_SMILES>
CC(=O)/C=C\C=C(/C(=O)O)\O

> <PUBCHEM_CACTVS_TPSA>
74.6

> <PUBCHEM_MONOISOTOPIC_WEIGHT>
156.042259

> <PUBCHEM_TOTAL_CHARGE>
0

> <PUBCHEM_HEAVY_ATOM_COUNT>
11

> <PUBCHEM_ATOM_DEF_STEREO_COUNT>
0

> <PUBCHEM_ATOM_UDEF_STEREO_COUNT>
0

> <PUBCHEM_BOND_DEF_STEREO_COUNT>
2

> <PUBCHEM_BOND_UDEF_STEREO_COUNT>
0

> <PUBCHEM_ISOTOPIC_ATOM_COUNT>
0

> <PUBCHEM_COMPONENT_COUNT>
1

> <PUBCHEM_CACTVS_TAUTO_COUNT>
7

> <PUBCHEM_COORDINATE_TYPE>
1
5
255

$$$$

