667467
  -OEChem-07051212543D

 39 41  0     0  0  0  0  0  0999 V2000
    2.6052   -3.6035    1.3357 Cl  0  0  0  0  0  0  0  0  0  0  0  0
   -2.4866   -1.1905   -1.5019 S   0  0  0  0  0  0  0  0  0  0  0  0
    4.2030    1.6923   -0.5391 N   0  0  0  0  0  0  0  0  0  0  0  0
   -0.4875    0.4591    0.2028 C   0  0  0  0  0  0  0  0  0  0  0  0
    1.9632    0.9885    0.1651 C   0  0  0  0  0  0  0  0  0  0  0  0
   -0.1634   -0.9859    0.0615 C   0  0  0  0  0  0  0  0  0  0  0  0
   -1.8941    0.9429    0.2246 C   0  0  0  0  0  0  0  0  0  0  0  0
    0.5146    1.3594    0.1876 C   0  0  0  0  0  0  0  0  0  0  0  0
    2.7913    2.0596   -0.5435 C   0  0  0  0  0  0  0  0  0  0  0  0
   -1.0214   -1.8155   -0.6853 C   0  0  0  0  0  0  0  0  0  0  0  0
   -2.8737    0.2490   -0.5108 C   0  0  0  0  0  0  0  0  0  0  0  0
    0.9528   -1.5619    0.6934 C   0  0  0  0  0  0  0  0  0  0  0  0
   -2.2870    2.0490    0.9986 C   0  0  0  0  0  0  0  0  0  0  0  0
   -0.7305   -3.1813   -0.8216 C   0  0  0  0  0  0  0  0  0  0  0  0
   -4.2051    0.6912   -0.4943 C   0  0  0  0  0  0  0  0  0  0  0  0
    1.2294   -2.9231    0.5570 C   0  0  0  0  0  0  0  0  0  0  0  0
   -3.6155    2.4767    1.0135 C   0  0  0  0  0  0  0  0  0  0  0  0
    5.0004    2.7035   -1.2350 C   0  0  0  0  0  0  0  0  0  0  0  0
    4.6857    1.5197    0.8320 C   0  0  0  0  0  0  0  0  0  0  0  0
    0.3914   -3.7308   -0.2036 C   0  0  0  0  0  0  0  0  0  0  0  0
   -4.5724    1.8017    0.2636 C   0  0  0  0  0  0  0  0  0  0  0  0
    2.1765    0.0766   -0.3960 H   0  0  0  0  0  0  0  0  0  0  0  0
    2.2768    0.9101    1.2098 H   0  0  0  0  0  0  0  0  0  0  0  0
    2.4392    2.1531   -1.5796 H   0  0  0  0  0  0  0  0  0  0  0  0
    2.6389    3.0365   -0.0638 H   0  0  0  0  0  0  0  0  0  0  0  0
    0.2985    2.4241    0.2422 H   0  0  0  0  0  0  0  0  0  0  0  0
    1.5572   -1.0141    1.4086 H   0  0  0  0  0  0  0  0  0  0  0  0
   -1.5691    2.5894    1.6114 H   0  0  0  0  0  0  0  0  0  0  0  0
   -1.3763   -3.8341   -1.4048 H   0  0  0  0  0  0  0  0  0  0  0  0
   -4.9726    0.1740   -1.0661 H   0  0  0  0  0  0  0  0  0  0  0  0
   -3.9019    3.3351    1.6141 H   0  0  0  0  0  0  0  0  0  0  0  0
    4.9481    3.6819   -0.7436 H   0  0  0  0  0  0  0  0  0  0  0  0
    4.6586    2.8181   -2.2698 H   0  0  0  0  0  0  0  0  0  0  0  0
    6.0515    2.3980   -1.2860 H   0  0  0  0  0  0  0  0  0  0  0  0
    4.4269    2.3651    1.4798 H   0  0  0  0  0  0  0  0  0  0  0  0
    5.7784    1.4208    0.8410 H   0  0  0  0  0  0  0  0  0  0  0  0
    4.3212    0.5899    1.2799 H   0  0  0  0  0  0  0  0  0  0  0  0
    0.5943   -4.7923   -0.3200 H   0  0  0  0  0  0  0  0  0  0  0  0
   -5.6061    2.1347    0.2740 H   0  0  0  0  0  0  0  0  0  0  0  0
  1 16  1  0  0  0  0
  2 10  1  0  0  0  0
  2 11  1  0  0  0  0
  3  9  1  0  0  0  0
  3 18  1  0  0  0  0
  3 19  1  0  0  0  0
  4  6  1  0  0  0  0
  4  7  1  0  0  0  0
  4  8  2  0  0  0  0
  5  8  1  0  0  0  0
  5  9  1  0  0  0  0
  5 22  1  0  0  0  0
  5 23  1  0  0  0  0
  6 10  2  0  0  0  0
  6 12  1  0  0  0  0
  7 11  1  0  0  0  0
  7 13  2  0  0  0  0
  8 26  1  0  0  0  0
  9 24  1  0  0  0  0
  9 25  1  0  0  0  0
 10 14  1  0  0  0  0
 11 15  2  0  0  0  0
 12 16  2  0  0  0  0
 12 27  1  0  0  0  0
 13 17  1  0  0  0  0
 13 28  1  0  0  0  0
 14 20  2  0  0  0  0
 14 29  1  0  0  0  0
 15 21  1  0  0  0  0
 15 30  1  0  0  0  0
 16 20  1  0  0  0  0
 17 21  2  0  0  0  0
 17 31  1  0  0  0  0
 18 32  1  0  0  0  0
 18 33  1  0  0  0  0
 18 34  1  0  0  0  0
 19 35  1  0  0  0  0
 19 36  1  0  0  0  0
 19 37  1  0  0  0  0
 20 38  1  0  0  0  0
 21 39  1  0  0  0  0
M  END
> <PUBCHEM_COMPOUND_CID>
667467

> <PUBCHEM_CONFORMER_RMSD>
0.6

> <PUBCHEM_CONFORMER_DIVERSEORDER>
2
9
3
5
10
4
1
6
7
8

> <PUBCHEM_MMFF94_PARTIAL_CHARGES>
29
1 -0.18
10 0.1
11 0.1
12 -0.15
13 -0.15
14 -0.15
15 -0.15
16 0.18
17 -0.15
18 0.27
19 0.27
2 -0.2
20 -0.15
21 -0.15
26 0.15
27 0.15
28 0.15
29 0.15
3 -0.81
30 0.15
31 0.15
38 0.15
39 0.15
4 -0.06
5 0.14
6 0.03
7 0.03
8 -0.29
9 0.27

> <PUBCHEM_EFFECTIVE_ROTOR_COUNT>
3.2

> <PUBCHEM_PHARMACOPHORE_FEATURES>
4
1 3 cation
6 2 4 6 7 10 11 rings
6 6 10 12 14 16 20 rings
6 7 11 13 15 17 21 rings

> <PUBCHEM_HEAVY_ATOM_COUNT>
21

> <PUBCHEM_ATOM_DEF_STEREO_COUNT>
0

> <PUBCHEM_ATOM_UDEF_STEREO_COUNT>
0

> <PUBCHEM_BOND_DEF_STEREO_COUNT>
1

> <PUBCHEM_BOND_UDEF_STEREO_COUNT>
0

> <PUBCHEM_ISOTOPIC_ATOM_COUNT>
0

> <PUBCHEM_COMPONENT_COUNT>
1

> <PUBCHEM_CACTVS_TAUTO_COUNT>
1

> <PUBCHEM_CONFORMER_ID>
000A2F4B00000002

> <PUBCHEM_MMFF94_ENERGY>
73.6306

> <PUBCHEM_FEATURE_SELFOVERLAP>
20.326

> <PUBCHEM_SHAPE_FINGERPRINT>
107951 10 18266162968745722926
1100329 8 18337675321133663442
11578080 2 16479876728600843825
12553582 1 17689151631589102247
12592029 89 18341609334544719616
12644460 14 18194667396979785641
12788726 201 17836084473077811682
13140716 1 18264497350353136515
13540713 5 18189345718131393717
13941206 138 18270960133751371870
14022349 108 18267586986210588907
14251757 5 17621592818536033374
14790565 3 18410571782044984920
14955137 171 17977936114378009562
15463212 79 18269843008304712672
15475509 35 16984591109329777641
15664445 248 17683508912130014326
16752209 62 18122355579432465082
167882 2 18341896358624340684
1813 80 17763179545894867227
18785283 64 18269548515033766419
20642791 178 18265054810979352131
20739085 24 17977674430647301706
21524375 3 18342175544420756680
2255824 54 18193554690875028203
22907989 373 17691110553340517716
23366157 5 18127688442407220531
23419403 2 17325705679088787471
23557571 272 17543075580784962000
23558518 356 18339917104904227510
23559900 14 17974583682197348233
25147074 1 18187659054409509525
266924 1 18262818305950578351
283562 15 18051978013107502163
3091708 16 9408299443012574963
3759504 43 18271238305423426192
394222 165 18342175613198035458
474 4 18342459257222855232
5282940 2 18411707607689469630
53917941 68 18266187136284357164
6034566 193 17773020965775437740
6138700 20 18193264424902285214
7364860 26 18192711365487977681
81228 2 17543068987529497737
9709674 26 18043240242131768836
9981440 41 18411700976280811025

> <PUBCHEM_SHAPE_MULTIPOLES>
432.91
8.23
4.85
1.19
3.1
4.06
0.08
-9.52
0.46
3.78
-0.32
0.17
0.11
-2.78

> <PUBCHEM_SHAPE_SELFOVERLAP>
907.637

> <PUBCHEM_SHAPE_VOLUME>
246.4

> <PUBCHEM_COORDINATE_TYPE>
2
5
10

$$$$

