47205303
  -OEChem-06241222582D

 23 24  0     0  0  0  0  0  0999 V2000
    2.0000   -3.3786    0.0000 Br  0  0  0  0  0  0  0  0  0  0  0  0
    3.5878   -2.5696    0.0000 S   0  0  0  0  0  0  0  0  0  0  0  0
    2.2218    0.4692    0.0000 O   0  0  0  0  0  0  0  0  0  0  0  0
    3.9538    0.4692    0.0000 N   0  0  0  0  0  0  0  0  0  0  0  0
    4.9244    2.9638    0.0000 N   0  0  0  0  0  0  0  0  0  0  0  0
    5.9025    3.1717    0.0000 N   0  0  0  0  0  0  0  0  0  0  0  0
    3.9538    1.4692    0.0000 C   0  0  0  0  0  0  0  0  0  0  0  0
    4.8198    1.9692    0.0000 C   0  0  0  0  0  0  0  0  0  0  0  0
    3.0878   -1.0308    0.0000 C   0  0  0  0  0  0  0  0  0  0  0  0
    3.0878   -0.0308    0.0000 C   0  0  0  0  0  0  0  0  0  0  0  0
    5.7334    1.5625    0.0000 C   0  0  0  0  0  0  0  0  0  0  0  0
    2.2788   -1.6186    0.0000 C   0  0  0  0  0  0  0  0  0  0  0  0
    3.8968   -1.6186    0.0000 C   0  0  0  0  0  0  0  0  0  0  0  0
    6.4025    2.3056    0.0000 C   0  0  0  0  0  0  0  0  0  0  0  0
    2.5878   -2.5696    0.0000 C   0  0  0  0  0  0  0  0  0  0  0  0
    3.7418    2.0518    0.0000 H   0  0  0  0  0  0  0  0  0  0  0  0
    3.3432    1.3616    0.0000 H   0  0  0  0  0  0  0  0  0  0  0  0
    4.4908    0.1592    0.0000 H   0  0  0  0  0  0  0  0  0  0  0  0
    5.8623    0.9560    0.0000 H   0  0  0  0  0  0  0  0  0  0  0  0
    4.4636    3.3786    0.0000 H   0  0  0  0  0  0  0  0  0  0  0  0
    1.6891   -1.4270    0.0000 H   0  0  0  0  0  0  0  0  0  0  0  0
    4.4865   -1.4270    0.0000 H   0  0  0  0  0  0  0  0  0  0  0  0
    7.0191    2.2408    0.0000 H   0  0  0  0  0  0  0  0  0  0  0  0
  1 15  1  0  0  0  0
  2 13  1  0  0  0  0
  2 15  1  0  0  0  0
  3 10  2  0  0  0  0
  4  7  1  0  0  0  0
  4 10  1  0  0  0  0
  4 18  1  0  0  0  0
  5  6  1  0  0  0  0
  5  8  1  0  0  0  0
  5 20  1  0  0  0  0
  6 14  2  0  0  0  0
  7  8  1  0  0  0  0
  7 16  1  0  0  0  0
  7 17  1  0  0  0  0
  8 11  2  0  0  0  0
  9 10  1  0  0  0  0
  9 12  1  0  0  0  0
  9 13  2  0  0  0  0
 11 14  1  0  0  0  0
 11 19  1  0  0  0  0
 12 15  2  0  0  0  0
 12 21  1  0  0  0  0
 13 22  1  0  0  0  0
 14 23  1  0  0  0  0
M  END
> <PUBCHEM_COMPOUND_CID>
47205303

> <PUBCHEM_COMPOUND_CANONICALIZED>
1

> <PUBCHEM_CACTVS_COMPLEXITY>
241

> <PUBCHEM_CACTVS_HBOND_ACCEPTOR>
3

> <PUBCHEM_CACTVS_HBOND_DONOR>
2

> <PUBCHEM_CACTVS_ROTATABLE_BOND>
3

> <PUBCHEM_CACTVS_SUBSKEYS>
AAADccBzIABAEAAAAAAAAAAAAAAAAWJAAAAAAAAAAAAAAAAB4AAAHgRYAAABLAjF3gS8gZLjAAiuAzV3UACTBIAkihRYubk4ZPgIYJAgxcEUhQhAHgCgQ5AAAAAIAAAAAAAAAAAAAAAAAAAAAAAAAAAAAA==

> <PUBCHEM_IUPAC_OPENEYE_NAME>
5-bromo-N-(1H-pyrazol-5-ylmethyl)thiophene-3-carboxamide

> <PUBCHEM_IUPAC_CAS_NAME>
5-bromo-N-(1H-pyrazol-5-ylmethyl)-3-thiophenecarboxamide

> <PUBCHEM_IUPAC_NAME>
5-bromo-N-(1H-pyrazol-5-ylmethyl)thiophene-3-carboxamide

> <PUBCHEM_IUPAC_SYSTEMATIC_NAME>
5-bromanyl-N-(1H-pyrazol-5-ylmethyl)thiophene-3-carboxamide

> <PUBCHEM_IUPAC_TRADITIONAL_NAME>
5-bromo-N-(1H-pyrazol-5-ylmethyl)thiophene-3-carboxamide

> <PUBCHEM_IUPAC_INCHI>
InChI=1S/C9H8BrN3OS/c10-8-3-6(5-15-8)9(14)11-4-7-1-2-12-13-7/h1-3,5H,4H2,(H,11,14)(H,12,13)

> <PUBCHEM_IUPAC_INCHIKEY>
IDFZDSBYPPRPFF-UHFFFAOYSA-N

> <PUBCHEM_XLOGP3_AA>
1.7

> <PUBCHEM_EXACT_MASS>
284.957145

> <PUBCHEM_MOLECULAR_FORMULA>
C9H8BrN3OS

> <PUBCHEM_MOLECULAR_WEIGHT>
286.14832

> <PUBCHEM_OPENEYE_CAN_SMILES>
C1=C(NN=C1)CNC(=O)C2=CSC(=C2)Br

> <PUBCHEM_OPENEYE_ISO_SMILES>
C1=C(NN=C1)CNC(=O)C2=CSC(=C2)Br

> <PUBCHEM_CACTVS_TPSA>
86

> <PUBCHEM_MONOISOTOPIC_WEIGHT>
284.957145

> <PUBCHEM_TOTAL_CHARGE>
0

> <PUBCHEM_HEAVY_ATOM_COUNT>
15

> <PUBCHEM_ATOM_DEF_STEREO_COUNT>
0

> <PUBCHEM_ATOM_UDEF_STEREO_COUNT>
0

> <PUBCHEM_BOND_DEF_STEREO_COUNT>
0

> <PUBCHEM_BOND_UDEF_STEREO_COUNT>
0

> <PUBCHEM_ISOTOPIC_ATOM_COUNT>
0

> <PUBCHEM_COMPONENT_COUNT>
1

> <PUBCHEM_CACTVS_TAUTO_COUNT>
4

> <PUBCHEM_COORDINATE_TYPE>
1
5
255

> <PUBCHEM_BONDANNOTATIONS>
11  14  8
12  15  8
2  13  8
2  15  8
5  6  8
5  8  8
6  14  8
8  11  8
9  12  8
9  13  8

$$$$

