854041
  -OEChem-06241222472D

 19 20  0     0  0  0  0  0  0999 V2000
    2.5369   -2.2694    0.0000 Cl  0  0  0  0  0  0  0  0  0  0  0  0
    6.0010   -2.2694    0.0000 Cl  0  0  0  0  0  0  0  0  0  0  0  0
    3.4600    1.3184    0.0000 O   0  0  0  0  0  0  0  0  0  0  0  0
    2.5369   -0.2694    0.0000 O   0  0  0  0  0  0  0  0  0  0  0  0
    3.7690    2.2694    0.0000 N   0  0  0  0  0  0  0  0  0  0  0  0
    4.2690   -0.2694    0.0000 C   0  0  0  0  0  0  0  0  0  0  0  0
    4.2690    0.7306    0.0000 C   0  0  0  0  0  0  0  0  0  0  0  0
    3.4030   -0.7694    0.0000 C   0  0  0  0  0  0  0  0  0  0  0  0
    5.1350   -0.7694    0.0000 C   0  0  0  0  0  0  0  0  0  0  0  0
    3.4030   -1.7694    0.0000 C   0  0  0  0  0  0  0  0  0  0  0  0
    5.1350   -1.7694    0.0000 C   0  0  0  0  0  0  0  0  0  0  0  0
    4.2690   -2.2694    0.0000 C   0  0  0  0  0  0  0  0  0  0  0  0
    5.0780    1.3184    0.0000 C   0  0  0  0  0  0  0  0  0  0  0  0
    4.7690    2.2694    0.0000 C   0  0  0  0  0  0  0  0  0  0  0  0
    5.6719   -0.4594    0.0000 H   0  0  0  0  0  0  0  0  0  0  0  0
    4.2690   -2.8894    0.0000 H   0  0  0  0  0  0  0  0  0  0  0  0
    5.6677    1.1268    0.0000 H   0  0  0  0  0  0  0  0  0  0  0  0
    5.1334    2.7710    0.0000 H   0  0  0  0  0  0  0  0  0  0  0  0
    2.0000   -0.5794    0.0000 H   0  0  0  0  0  0  0  0  0  0  0  0
  1 10  1  0  0  0  0
  2 11  1  0  0  0  0
  3  5  1  0  0  0  0
  3  7  1  0  0  0  0
  4  8  1  0  0  0  0
  4 19  1  0  0  0  0
  5 14  2  0  0  0  0
  6  7  1  0  0  0  0
  6  8  2  0  0  0  0
  6  9  1  0  0  0  0
  7 13  2  0  0  0  0
  8 10  1  0  0  0  0
  9 11  2  0  0  0  0
  9 15  1  0  0  0  0
 10 12  2  0  0  0  0
 11 12  1  0  0  0  0
 12 16  1  0  0  0  0
 13 14  1  0  0  0  0
 13 17  1  0  0  0  0
 14 18  1  0  0  0  0
M  END
> <PUBCHEM_COMPOUND_CID>
854041

> <PUBCHEM_COMPOUND_CANONICALIZED>
1

> <PUBCHEM_CACTVS_COMPLEXITY>
205

> <PUBCHEM_CACTVS_HBOND_ACCEPTOR>
3

> <PUBCHEM_CACTVS_HBOND_DONOR>
1

> <PUBCHEM_CACTVS_ROTATABLE_BOND>
1

> <PUBCHEM_CACTVS_SUBSKEYS>
AAADcYByMAAGAAAAAAAAAAAAAAAAAWAAAAAwAAAAAAAAAAABwAAAHgIECAAADAbBmiQ8hpAQAgCpArB3QgCCAAAkJ0AomCE2b9oIJz6Dl5KAccBn4BkI2ceY2KCOACAAIACICAAAQABAARAQAAAAAAAAAA==

> <PUBCHEM_IUPAC_OPENEYE_NAME>
2,4-dichloro-6-isoxazol-5-yl-phenol

> <PUBCHEM_IUPAC_CAS_NAME>
2,4-dichloro-6-(5-isoxazolyl)phenol

> <PUBCHEM_IUPAC_NAME>
2,4-dichloro-6-(1,2-oxazol-5-yl)phenol

> <PUBCHEM_IUPAC_SYSTEMATIC_NAME>
2,4-bis(chloranyl)-6-(1,2-oxazol-5-yl)phenol

> <PUBCHEM_IUPAC_TRADITIONAL_NAME>
2,4-dichloro-6-isoxazol-5-yl-phenol

> <PUBCHEM_IUPAC_INCHI>
InChI=1S/C9H5Cl2NO2/c10-5-3-6(8-1-2-12-14-8)9(13)7(11)4-5/h1-4,13H

> <PUBCHEM_IUPAC_INCHIKEY>
NWTXPEMLVWSELN-UHFFFAOYSA-N

> <PUBCHEM_XLOGP3_AA>
2.9

> <PUBCHEM_EXACT_MASS>
228.969734

> <PUBCHEM_MOLECULAR_FORMULA>
C9H5Cl2NO2

> <PUBCHEM_MOLECULAR_WEIGHT>
230.0475

> <PUBCHEM_OPENEYE_CAN_SMILES>
C1=C(ON=C1)C2=CC(=CC(=C2O)Cl)Cl

> <PUBCHEM_OPENEYE_ISO_SMILES>
C1=C(ON=C1)C2=CC(=CC(=C2O)Cl)Cl

> <PUBCHEM_CACTVS_TPSA>
46.3

> <PUBCHEM_MONOISOTOPIC_WEIGHT>
228.969734

> <PUBCHEM_TOTAL_CHARGE>
0

> <PUBCHEM_HEAVY_ATOM_COUNT>
14

> <PUBCHEM_ATOM_DEF_STEREO_COUNT>
0

> <PUBCHEM_ATOM_UDEF_STEREO_COUNT>
0

> <PUBCHEM_BOND_DEF_STEREO_COUNT>
0

> <PUBCHEM_BOND_UDEF_STEREO_COUNT>
0

> <PUBCHEM_ISOTOPIC_ATOM_COUNT>
0

> <PUBCHEM_COMPONENT_COUNT>
1

> <PUBCHEM_CACTVS_TAUTO_COUNT>
4

> <PUBCHEM_COORDINATE_TYPE>
1
5
255

> <PUBCHEM_BONDANNOTATIONS>
10  12  8
11  12  8
13  14  8
3  5  8
3  7  8
5  14  8
6  8  8
6  9  8
7  13  8
8  10  8
9  11  8

$$$$

