5282170
  -OEChem-07051213033D

 16 15  0     0  0  0  0  0  0999 V2000
   -0.5998   -1.8877   -0.0495 Cl  0  0  0  0  0  0  0  0  0  0  0  0
    2.5845   -2.1283    0.0460 Cl  0  0  0  0  0  0  0  0  0  0  0  0
   -2.4427    2.4364   -0.0263 Cl  0  0  0  0  0  0  0  0  0  0  0  0
    2.9552    1.0227   -1.1952 O   0  0  0  0  0  0  0  0  0  0  0  0
   -2.9133   -0.7042    1.1915 O   0  0  0  0  0  0  0  0  0  0  0  0
    3.0634    1.1503    1.0714 O   0  0  0  0  0  0  0  0  0  0  0  0
   -2.9753   -0.8007   -1.0734 O   0  0  0  0  0  0  0  0  0  0  0  0
    0.4324   -0.4795   -0.0002 C   0  0  0  0  0  0  0  0  0  0  0  0
   -0.3163    0.7667    0.0117 C   0  0  0  0  0  0  0  0  0  0  0  0
    1.7755   -0.5919    0.0198 C   0  0  0  0  0  0  0  0  0  0  0  0
   -1.6549    0.8921   -0.0078 C   0  0  0  0  0  0  0  0  0  0  0  0
    2.6597    0.6023    0.0576 C   0  0  0  0  0  0  0  0  0  0  0  0
   -2.5686   -0.2782   -0.0456 C   0  0  0  0  0  0  0  0  0  0  0  0
    0.2731    1.6813    0.0314 H   0  0  0  0  0  0  0  0  0  0  0  0
    3.5335    1.8152   -1.1896 H   0  0  0  0  0  0  0  0  0  0  0  0
   -3.5180   -1.4760    1.1591 H   0  0  0  0  0  0  0  0  0  0  0  0
  1  8  1  0  0  0  0
  2 10  1  0  0  0  0
  3 11  1  0  0  0  0
  4 12  1  0  0  0  0
  4 15  1  0  0  0  0
  5 13  1  0  0  0  0
  5 16  1  0  0  0  0
  6 12  2  0  0  0  0
  7 13  2  0  0  0  0
  8  9  1  0  0  0  0
  8 10  2  0  0  0  0
  9 11  2  0  0  0  0
  9 14  1  0  0  0  0
 10 12  1  0  0  0  0
 11 13  1  0  0  0  0
M  END
> <PUBCHEM_COMPOUND_CID>
5282170

> <PUBCHEM_CONFORMER_RMSD>
0.6

> <PUBCHEM_CONFORMER_DIVERSEORDER>
1
2
3
4

> <PUBCHEM_MMFF94_PARTIAL_CHARGES>
16
1 -0.14
10 0.15
11 0.15
12 0.71
13 0.71
14 0.15
15 0.5
16 0.5
2 -0.14
3 -0.14
4 -0.65
5 -0.65
6 -0.57
7 -0.57
8 0.14
9 -0.15

> <PUBCHEM_EFFECTIVE_ROTOR_COUNT>
3

> <PUBCHEM_PHARMACOPHORE_FEATURES>
6
1 4 acceptor
1 5 acceptor
1 6 acceptor
1 7 acceptor
3 4 6 12 anion
3 5 7 13 anion

> <PUBCHEM_HEAVY_ATOM_COUNT>
13

> <PUBCHEM_ATOM_DEF_STEREO_COUNT>
0

> <PUBCHEM_ATOM_UDEF_STEREO_COUNT>
0

> <PUBCHEM_BOND_DEF_STEREO_COUNT>
2

> <PUBCHEM_BOND_UDEF_STEREO_COUNT>
0

> <PUBCHEM_ISOTOPIC_ATOM_COUNT>
0

> <PUBCHEM_COMPONENT_COUNT>
1

> <PUBCHEM_CACTVS_TAUTO_COUNT>
1

> <PUBCHEM_CONFORMER_ID>
0050997A00000001

> <PUBCHEM_MMFF94_ENERGY>
55.4842

> <PUBCHEM_FEATURE_SELFOVERLAP>
30.563

> <PUBCHEM_SHAPE_FINGERPRINT>
10608611 8 18337396036152215904
107287 299 18337094692878320514
12932764 1 18114177544782994124
13296908 3 18131346431899324099
13380535 21 18265882734840551705
13380535 76 17978794833158996143
14325111 11 18410294752247986728
14648413 74 18194400232449002538
15775835 57 18187362129728559763
16945 1 18339079272358036780
17844478 74 18341317925609203635
18186145 218 17675921010534687984
19973954 147 18341327902580965524
20525323 117 18412550907253624557
21028194 46 18334575754651510546
21501502 16 18338236084373191828
21524375 3 17833831956047110697
230 275 18342459223132096638
2334 1 18411135874269192276
23552423 10 18269837673633317806
25610 137 18270953553755699929
2748010 2 18339642359750457245
3248919 1 18060421321789423696
5084963 1 18272367637230482990
7364860 26 18261114110378056006
8030462 33 18411136948068902358
81228 2 17612879197175896702
9939556 21 18266460008261680044

> <PUBCHEM_SHAPE_MULTIPOLES>
249.67
5.53
2.23
0.9
0.52
0.07
0
0.82
0.04
-0.08
-0.01
0.01
0.05
0

> <PUBCHEM_SHAPE_SELFOVERLAP>
477.725

> <PUBCHEM_SHAPE_VOLUME>
153.4

> <PUBCHEM_COORDINATE_TYPE>
2
5
10

$$$$

