443037
  -OEChem-07051213002D

 41 43  0     0  0  0  0  0  0999 V2000
    8.1962   -0.8915    0.0000 Cl  0  0  0  0  0  0  0  0  0  0  0  0
    4.6660   -2.9157    0.0000 S   0  0  0  0  0  0  0  0  0  0  0  0
    2.0680    2.5843    0.0000 O   0  5  0  0  0  0  0  0  0  0  0  0
    2.9340    2.0843    0.0000 N   0  3  0  0  0  0  0  0  0  0  0  0
    4.6660   -0.9157    0.0000 N   0  0  0  0  0  0  0  0  0  0  0  0
    3.8000    0.5843    0.0000 C   0  0  0  0  0  0  0  0  0  0  0  0
    3.8000    1.5843    0.0000 C   0  0  0  0  0  0  0  0  0  0  0  0
    4.6660    0.0843    0.0000 C   0  0  0  0  0  0  0  0  0  0  0  0
    5.5321   -1.4157    0.0000 C   0  0  0  0  0  0  0  0  0  0  0  0
    3.8000   -1.4157    0.0000 C   0  0  0  0  0  0  0  0  0  0  0  0
    3.4340    2.9503    0.0000 C   0  0  0  0  0  0  0  0  0  0  0  0
    2.4340    1.2183    0.0000 C   0  0  0  0  0  0  0  0  0  0  0  0
    5.5321   -2.4157    0.0000 C   0  0  0  0  0  0  0  0  0  0  0  0
    3.8000   -2.4157    0.0000 C   0  0  0  0  0  0  0  0  0  0  0  0
    6.4260   -0.8810    0.0000 C   0  0  0  0  0  0  0  0  0  0  0  0
    2.9061   -0.8810    0.0000 C   0  0  0  0  0  0  0  0  0  0  0  0
    6.4260   -2.9503    0.0000 C   0  0  0  0  0  0  0  0  0  0  0  0
    2.9061   -2.9503    0.0000 C   0  0  0  0  0  0  0  0  0  0  0  0
    7.3321   -1.3949    0.0000 C   0  0  0  0  0  0  0  0  0  0  0  0
    2.0000   -1.3949    0.0000 C   0  0  0  0  0  0  0  0  0  0  0  0
    7.3321   -2.4365    0.0000 C   0  0  0  0  0  0  0  0  0  0  0  0
    2.0000   -2.4365    0.0000 C   0  0  0  0  0  0  0  0  0  0  0  0
    3.1894    0.6920    0.0000 H   0  0  0  0  0  0  0  0  0  0  0  0
    3.5880    0.0017    0.0000 H   0  0  0  0  0  0  0  0  0  0  0  0
    4.4106    1.4767    0.0000 H   0  0  0  0  0  0  0  0  0  0  0  0
    4.0121    2.1669    0.0000 H   0  0  0  0  0  0  0  0  0  0  0  0
    5.2766   -0.0233    0.0000 H   0  0  0  0  0  0  0  0  0  0  0  0
    4.8781    0.6669    0.0000 H   0  0  0  0  0  0  0  0  0  0  0  0
    1.8970    1.5283    0.0000 H   0  0  0  0  0  0  0  0  0  0  0  0
    2.1240    0.6814    0.0000 H   0  0  0  0  0  0  0  0  0  0  0  0
    3.9709    2.6403    0.0000 H   0  0  0  0  0  0  0  0  0  0  0  0
    3.7440    3.4873    0.0000 H   0  0  0  0  0  0  0  0  0  0  0  0
    2.8970    3.2603    0.0000 H   0  0  0  0  0  0  0  0  0  0  0  0
    2.9709    0.9083    0.0000 H   0  0  0  0  0  0  0  0  0  0  0  0
    6.4188   -0.2611    0.0000 H   0  0  0  0  0  0  0  0  0  0  0  0
    2.9132   -0.2611    0.0000 H   0  0  0  0  0  0  0  0  0  0  0  0
    6.4188   -3.5703    0.0000 H   0  0  0  0  0  0  0  0  0  0  0  0
    2.9132   -3.5703    0.0000 H   0  0  0  0  0  0  0  0  0  0  0  0
    1.4643   -1.0828    0.0000 H   0  0  0  0  0  0  0  0  0  0  0  0
    7.8678   -2.7486    0.0000 H   0  0  0  0  0  0  0  0  0  0  0  0
    1.4643   -2.7486    0.0000 H   0  0  0  0  0  0  0  0  0  0  0  0
  1 19  1  0  0  0  0
  2 13  1  0  0  0  0
  2 14  1  0  0  0  0
  3  4  1  0  0  0  0
  4  7  1  0  0  0  0
  4 11  1  0  0  0  0
  4 12  1  0  0  0  0
  5  8  1  0  0  0  0
  5  9  1  0  0  0  0
  5 10  1  0  0  0  0
  6  7  1  0  0  0  0
  6  8  1  0  0  0  0
  6 23  1  0  0  0  0
  6 24  1  0  0  0  0
  7 25  1  0  0  0  0
  7 26  1  0  0  0  0
  8 27  1  0  0  0  0
  8 28  1  0  0  0  0
  9 13  2  0  0  0  0
  9 15  1  0  0  0  0
 10 14  1  0  0  0  0
 10 16  2  0  0  0  0
 11 31  1  0  0  0  0
 11 32  1  0  0  0  0
 11 33  1  0  0  0  0
 12 29  1  0  0  0  0
 12 30  1  0  0  0  0
 12 34  1  0  0  0  0
 13 17  1  0  0  0  0
 14 18  2  0  0  0  0
 15 19  2  0  0  0  0
 15 35  1  0  0  0  0
 16 20  1  0  0  0  0
 16 36  1  0  0  0  0
 17 21  2  0  0  0  0
 17 37  1  0  0  0  0
 18 22  1  0  0  0  0
 18 38  1  0  0  0  0
 19 21  1  0  0  0  0
 20 22  2  0  0  0  0
 20 39  1  0  0  0  0
 21 40  1  0  0  0  0
 22 41  1  0  0  0  0
M  CHG  2   3  -1   4   1
M  END
> <PUBCHEM_COMPOUND_CID>
443037

> <PUBCHEM_COMPOUND_CANONICALIZED>
1

> <PUBCHEM_CACTVS_COMPLEXITY>
382

> <PUBCHEM_CACTVS_HBOND_ACCEPTOR>
3

> <PUBCHEM_CACTVS_HBOND_DONOR>
0

> <PUBCHEM_CACTVS_ROTATABLE_BOND>
4

> <PUBCHEM_CACTVS_SUBSKEYS>
AAADceB7IABEAAAAAAAAAAAAAAAAAAAAAAA8YIAAAAAAAACxQAAAHAYEAAAACArBUCQywYMQAAiAACRCQACCAAAhDxAoiBwIZogIIGLh05GEIAhggADoyAcQAAAAAAIAAAIAAQAABAAABAACAAAAAAAAAA==

> <PUBCHEM_IUPAC_OPENEYE_NAME>
3-(2-chlorophenothiazin-10-yl)-N,N-dimethyl-propan-1-amine oxide

> <PUBCHEM_IUPAC_CAS_NAME>
3-(2-chloro-10-phenothiazinyl)-N,N-dimethyl-1-propanamine oxide

> <PUBCHEM_IUPAC_NAME>
3-(2-chlorophenothiazin-10-yl)-N,N-dimethylpropan-1-amine oxide

> <PUBCHEM_IUPAC_SYSTEMATIC_NAME>
3-(2-chloranylphenothiazin-10-yl)-N,N-dimethyl-propan-1-amine oxide

> <PUBCHEM_IUPAC_TRADITIONAL_NAME>
3-(2-chlorophenothiazin-10-yl)-N,N-dimethyl-propan-1-amine oxide

> <PUBCHEM_IUPAC_INCHI>
InChI=1S/C17H19ClN2OS/c1-20(2,21)11-5-10-19-14-6-3-4-7-16(14)22-17-9-8-13(18)12-15(17)19/h3-4,6-9,12H,5,10-11H2,1-2H3

> <PUBCHEM_IUPAC_INCHIKEY>
LFDFWIIFGRXCFR-UHFFFAOYSA-N

> <PUBCHEM_XLOGP3>
4.6

> <PUBCHEM_EXACT_MASS>
334.090662

> <PUBCHEM_MOLECULAR_FORMULA>
C17H19ClN2OS

> <PUBCHEM_MOLECULAR_WEIGHT>
334.86356

> <PUBCHEM_OPENEYE_CAN_SMILES>
C[N+](C)(CCCN1C2=CC=CC=C2SC3=C1C=C(C=C3)Cl)[O-]

> <PUBCHEM_OPENEYE_ISO_SMILES>
C[N+](C)(CCCN1C2=CC=CC=C2SC3=C1C=C(C=C3)Cl)[O-]

> <PUBCHEM_CACTVS_TPSA>
46.6

> <PUBCHEM_MONOISOTOPIC_WEIGHT>
334.090662

> <PUBCHEM_TOTAL_CHARGE>
0

> <PUBCHEM_HEAVY_ATOM_COUNT>
22

> <PUBCHEM_ATOM_DEF_STEREO_COUNT>
0

> <PUBCHEM_ATOM_UDEF_STEREO_COUNT>
0

> <PUBCHEM_BOND_DEF_STEREO_COUNT>
0

> <PUBCHEM_BOND_UDEF_STEREO_COUNT>
0

> <PUBCHEM_ISOTOPIC_ATOM_COUNT>
0

> <PUBCHEM_COMPONENT_COUNT>
1

> <PUBCHEM_CACTVS_TAUTO_COUNT>
1

> <PUBCHEM_COORDINATE_TYPE>
1
5
255

> <PUBCHEM_BONDANNOTATIONS>
10  14  8
10  16  8
13  17  8
14  18  8
15  19  8
16  20  8
17  21  8
18  22  8
19  21  8
20  22  8
9  13  8
9  15  8

$$$$

