11471283
  -OEChem-07051213113D

 52 54  0     1  0  0  0  0  0999 V2000
    1.0154    0.7205    0.2213 C   0  0  2  0  0  0  0  0  0  0  0  0
    1.8358   -0.5740   -0.1347 C   0  0  1  0  0  0  0  0  0  0  0  0
   -0.4994    0.4365   -0.1613 C   0  0  1  0  0  0  0  0  0  0  0  0
    3.4026   -0.4426   -0.1796 C   0  0  0  0  0  0  0  0  0  0  0  0
   -1.0679   -0.8363    0.5239 C   0  0  2  0  0  0  0  0  0  0  0  0
    1.3178   -1.7739    0.6810 C   0  0  0  0  0  0  0  0  0  0  0  0
    1.5464    1.9016   -0.6317 C   0  0  0  0  0  0  0  0  0  0  0  0
   -0.1456   -2.0551    0.3473 C   0  0  0  0  0  0  0  0  0  0  0  0
    3.7973    0.8267   -0.9746 C   0  0  0  0  0  0  0  0  0  0  0  0
    3.0580    2.0853   -0.5401 C   0  0  0  0  0  0  0  0  0  0  0  0
   -1.4352    1.6482    0.0662 C   0  0  0  0  0  0  0  0  0  0  0  0
   -2.5302   -1.1434    0.0634 C   0  0  1  0  0  0  0  0  0  0  0  0
    1.1208    1.1098    1.7183 C   0  0  0  0  0  0  0  0  0  0  0  0
    3.9973   -1.6527   -0.9513 C   0  0  0  0  0  0  0  0  0  0  0  0
    4.0927   -0.4362    1.1982 C   0  0  0  0  0  0  0  0  0  0  0  0
   -3.4086    0.0915    0.1271 C   0  0  0  0  0  0  0  0  0  0  0  0
   -2.8989    1.3328    0.1156 C   0  0  0  0  0  0  0  0  0  0  0  0
   -2.6309   -1.7619   -1.3415 C   0  0  0  0  0  0  0  0  0  0  0  0
   -4.8344   -0.1162    0.2390 C   0  0  0  0  0  0  0  0  0  0  0  0
   -5.7331    0.6396   -0.3868 C   0  0  0  0  0  0  0  0  0  0  0  0
    1.5662   -0.7931   -1.1818 H   0  0  0  0  0  0  0  0  0  0  0  0
   -0.5139    0.2426   -1.2444 H   0  0  0  0  0  0  0  0  0  0  0  0
   -1.1246   -0.6338    1.6030 H   0  0  0  0  0  0  0  0  0  0  0  0
    1.4304   -1.6067    1.7568 H   0  0  0  0  0  0  0  0  0  0  0  0
    1.8877   -2.6794    0.4509 H   0  0  0  0  0  0  0  0  0  0  0  0
    1.0641    2.8401   -0.3327 H   0  0  0  0  0  0  0  0  0  0  0  0
    1.2806    1.7418   -1.6852 H   0  0  0  0  0  0  0  0  0  0  0  0
   -0.1728   -2.4062   -0.6901 H   0  0  0  0  0  0  0  0  0  0  0  0
   -0.5070   -2.8832    0.9688 H   0  0  0  0  0  0  0  0  0  0  0  0
    3.5911    0.6659   -2.0418 H   0  0  0  0  0  0  0  0  0  0  0  0
    4.8782    1.0015   -0.8986 H   0  0  0  0  0  0  0  0  0  0  0  0
    3.3551    2.9151   -1.1927 H   0  0  0  0  0  0  0  0  0  0  0  0
    3.3530    2.3751    0.4734 H   0  0  0  0  0  0  0  0  0  0  0  0
   -1.2694    2.3805   -0.7331 H   0  0  0  0  0  0  0  0  0  0  0  0
   -1.2062    2.1559    1.0066 H   0  0  0  0  0  0  0  0  0  0  0  0
   -2.9258   -1.8850    0.7725 H   0  0  0  0  0  0  0  0  0  0  0  0
    0.6400    2.0719    1.9208 H   0  0  0  0  0  0  0  0  0  0  0  0
    0.6592    0.3751    2.3822 H   0  0  0  0  0  0  0  0  0  0  0  0
    2.1476    1.2362    2.0520 H   0  0  0  0  0  0  0  0  0  0  0  0
    5.0697   -1.5137   -1.1342 H   0  0  0  0  0  0  0  0  0  0  0  0
    3.8870   -2.5885   -0.3946 H   0  0  0  0  0  0  0  0  0  0  0  0
    3.5152   -1.7815   -1.9267 H   0  0  0  0  0  0  0  0  0  0  0  0
    5.1778   -0.5559    1.0861 H   0  0  0  0  0  0  0  0  0  0  0  0
    3.9580    0.4977    1.7429 H   0  0  0  0  0  0  0  0  0  0  0  0
    3.7482   -1.2589    1.8319 H   0  0  0  0  0  0  0  0  0  0  0  0
   -3.5479    2.2025    0.1934 H   0  0  0  0  0  0  0  0  0  0  0  0
   -2.1840   -2.7603   -1.3694 H   0  0  0  0  0  0  0  0  0  0  0  0
   -3.6751   -1.8882   -1.6497 H   0  0  0  0  0  0  0  0  0  0  0  0
   -2.1380   -1.1424   -2.0975 H   0  0  0  0  0  0  0  0  0  0  0  0
   -5.1712   -0.9482    0.8506 H   0  0  0  0  0  0  0  0  0  0  0  0
   -6.7914    0.4277   -0.2715 H   0  0  0  0  0  0  0  0  0  0  0  0
   -5.4659    1.4677   -1.0345 H   0  0  0  0  0  0  0  0  0  0  0  0
  1  2  1  0  0  0  0
  1  3  1  0  0  0  0
  1  7  1  0  0  0  0
  1 13  1  0  0  0  0
  2  4  1  0  0  0  0
  2  6  1  0  0  0  0
  2 21  1  0  0  0  0
  3  5  1  0  0  0  0
  3 11  1  0  0  0  0
  3 22  1  0  0  0  0
  4  9  1  0  0  0  0
  4 14  1  0  0  0  0
  4 15  1  0  0  0  0
  5  8  1  0  0  0  0
  5 12  1  0  0  0  0
  5 23  1  0  0  0  0
  6  8  1  0  0  0  0
  6 24  1  0  0  0  0
  6 25  1  0  0  0  0
  7 10  1  0  0  0  0
  7 26  1  0  0  0  0
  7 27  1  0  0  0  0
  8 28  1  0  0  0  0
  8 29  1  0  0  0  0
  9 10  1  0  0  0  0
  9 30  1  0  0  0  0
  9 31  1  0  0  0  0
 10 32  1  0  0  0  0
 10 33  1  0  0  0  0
 11 17  1  0  0  0  0
 11 34  1  0  0  0  0
 11 35  1  0  0  0  0
 12 16  1  0  0  0  0
 12 18  1  0  0  0  0
 12 36  1  0  0  0  0
 13 37  1  0  0  0  0
 13 38  1  0  0  0  0
 13 39  1  0  0  0  0
 14 40  1  0  0  0  0
 14 41  1  0  0  0  0
 14 42  1  0  0  0  0
 15 43  1  0  0  0  0
 15 44  1  0  0  0  0
 15 45  1  0  0  0  0
 16 17  2  0  0  0  0
 16 19  1  0  0  0  0
 17 46  1  0  0  0  0
 18 47  1  0  0  0  0
 18 48  1  0  0  0  0
 18 49  1  0  0  0  0
 19 20  2  0  0  0  0
 19 50  1  0  0  0  0
 20 51  1  0  0  0  0
 20 52  1  0  0  0  0
M  END
> <PUBCHEM_COMPOUND_CID>
11471283

> <PUBCHEM_CONFORMER_RMSD>
0.6

> <PUBCHEM_CONFORMER_DIVERSEORDER>
1

> <PUBCHEM_MMFF94_PARTIAL_CHARGES>
10
11 0.14
12 0.14
16 -0.14
17 -0.29
19 -0.15
20 -0.3
46 0.15
50 0.15
51 0.15
52 0.15

> <PUBCHEM_EFFECTIVE_ROTOR_COUNT>
2.6

> <PUBCHEM_PHARMACOPHORE_FEATURES>
5
1 20 hydrophobe
3 4 14 15 hydrophobe
6 1 2 3 5 6 8 rings
6 1 2 4 7 9 10 rings
6 3 5 11 12 16 17 rings

> <PUBCHEM_HEAVY_ATOM_COUNT>
20

> <PUBCHEM_ATOM_DEF_STEREO_COUNT>
5

> <PUBCHEM_ATOM_UDEF_STEREO_COUNT>
0

> <PUBCHEM_BOND_DEF_STEREO_COUNT>
0

> <PUBCHEM_BOND_UDEF_STEREO_COUNT>
0

> <PUBCHEM_ISOTOPIC_ATOM_COUNT>
0

> <PUBCHEM_COMPONENT_COUNT>
1

> <PUBCHEM_CACTVS_TAUTO_COUNT>
1

> <PUBCHEM_CONFORMER_ID>
00AF09B300000001

> <PUBCHEM_MMFF94_ENERGY>
70.0724

> <PUBCHEM_FEATURE_SELFOVERLAP>
25.4

> <PUBCHEM_SHAPE_FINGERPRINT>
10062212 137 18337117786664438859
10967382 1 18413385427973198288
11132069 177 18334581247693324498
11471102 20 18341892995654372405
12011746 2 18340204193497756319
12236239 1 18410575088963327463
12592029 89 18201998867161865411
12644460 14 18059854021408555155
12788726 201 18336252518511526152
13140716 1 18269841925671975362
13221675 6 18411136952596198947
13224815 77 18335987458571993345
14115302 16 18333448733536820073
14178342 30 18051987101558844864
14251751 93 18270685380161109261
14790565 3 18336255851769969217
15099037 51 18410011057174052367
15196674 1 18341047428653316751
15536298 74 18408884018747519748
16752209 62 17968095382477619241
16945 1 18342170060127204442
17492 89 18337668607746767814
17980427 23 18191890937247360872
18186145 218 17846501404899872462
19141452 34 17967536766051370983
19862831 5 18186518787383328939
200 152 18187366545424529353
20645477 70 18411134744766659679
20691752 17 17703243818455304266
21267235 1 18339632429844318339
21501502 16 18338235951471915748
231179 274 17418382389102135421
23227448 37 18340768157105807031
2334 1 18268427927985599184
23402539 116 18410863126924483638
23402655 69 18409726244564829541
23557571 272 17168139087539265096
23558518 356 17482268210684889424
23559900 14 18261672576375044872
25 1 18273496745251282778
2748010 2 16897360915731205448
2871803 45 18342738554714437317
3004659 81 18341890814243502860
3060560 45 18272650160237353294
3286 77 17603871108888935785
335352 9 18341612641717133678
34934 24 18335422305342904612
350125 39 18341613745502882741
474 4 17273968052386220964
495365 180 17749959851648749928
5104073 3 18342173324223098937
633830 44 18202004291790066247
69090 78 18186241732023125951
7364860 26 18335981974305412472
9709674 26 18338790109817524094
9981440 41 17545889226444871472
9999458 23 18131630084276702415

> <PUBCHEM_SHAPE_MULTIPOLES>
411.59
9.16
2.19
1.11
6.71
0.06
0.13
-0.39
-1.38
-0.8
-0.27
-0.62
0.05
-0.38

> <PUBCHEM_SHAPE_SELFOVERLAP>
852.47

> <PUBCHEM_SHAPE_VOLUME>
233.2

> <PUBCHEM_COORDINATE_TYPE>
2
5
10

$$$$

