30165
  -OEChem-07051212442D

  1  0  0     0  0  0  0  0  0999 V2000
    2.0000    0.0000    0.0000 I   0  5  0  0  0  0  0  0  0  0  0  0
M  CHG  1   1  -1
M  END
> <PUBCHEM_COMPOUND_CID>
30165

> <PUBCHEM_COMPOUND_CANONICALIZED>
1

> <PUBCHEM_CACTVS_COMPLEXITY>
0

> <PUBCHEM_CACTVS_HBOND_ACCEPTOR>
1

> <PUBCHEM_CACTVS_HBOND_DONOR>
0

> <PUBCHEM_CACTVS_ROTATABLE_BOND>
0

> <PUBCHEM_CACTVS_SUBSKEYS>
AAADcQAAAAAAAgAAAAAAAAAAAAAAAAAAAAAAAAAAAAAAAAAAAAAAAAAAAAAAAAAAAAAAAAAAAAAAAAAAAAAAAAAAAAAAAAAAAAAAAAAAAAAAAAAAAAAAAAAAAAAAAAAAAAAAAAAAAAAAAAAAAAAAAAAAAA==

> <PUBCHEM_IUPAC_OPENEYE_NAME>
iodide

> <PUBCHEM_IUPAC_CAS_NAME>
iodide

> <PUBCHEM_IUPAC_NAME>
iodide

> <PUBCHEM_IUPAC_SYSTEMATIC_NAME>
iodide

> <PUBCHEM_IUPAC_TRADITIONAL_NAME>
iodide

> <PUBCHEM_IUPAC_INCHI>
InChI=1S/HI/h1H/p-1

> <PUBCHEM_IUPAC_INCHIKEY>
XMBWDFGMSWQBCA-UHFFFAOYSA-M

> <PUBCHEM_XLOGP3_AA>
0.9

> <PUBCHEM_EXACT_MASS>
126.904473

> <PUBCHEM_MOLECULAR_FORMULA>
I-

> <PUBCHEM_MOLECULAR_WEIGHT>
126.90447

> <PUBCHEM_OPENEYE_CAN_SMILES>
[I-]

> <PUBCHEM_OPENEYE_ISO_SMILES>
[I-]

> <PUBCHEM_CACTVS_TPSA>
0

> <PUBCHEM_MONOISOTOPIC_WEIGHT>
126.904473

> <PUBCHEM_TOTAL_CHARGE>
-1

> <PUBCHEM_HEAVY_ATOM_COUNT>
1

> <PUBCHEM_ATOM_DEF_STEREO_COUNT>
0

> <PUBCHEM_ATOM_UDEF_STEREO_COUNT>
0

> <PUBCHEM_BOND_DEF_STEREO_COUNT>
0

> <PUBCHEM_BOND_UDEF_STEREO_COUNT>
0

> <PUBCHEM_ISOTOPIC_ATOM_COUNT>
0

> <PUBCHEM_COMPONENT_COUNT>
1

> <PUBCHEM_CACTVS_TAUTO_COUNT>
1

> <PUBCHEM_COORDINATE_TYPE>
1
5
255

$$$$

