11638
  -OEChem-07051213012D

  5  4  0     0  0  0  0  0  0999 V2000
    2.0000    0.0000    0.0000 F   0  0  0  0  0  0  0  0  0  0  0  0
    3.0000    0.0000    0.0000 C   0  0  0  0  0  0  0  0  0  0  0  0
    3.0000   -0.6200    0.0000 H   0  0  0  0  0  0  0  0  0  0  0  0
    3.6200    0.0000    0.0000 H   0  0  0  0  0  0  0  0  0  0  0  0
    3.0000    0.6200    0.0000 H   0  0  0  0  0  0  0  0  0  0  0  0
  1  2  1  0  0  0  0
  2  3  1  0  0  0  0
  2  4  1  0  0  0  0
  2  5  1  0  0  0  0
M  END
> <PUBCHEM_COMPOUND_CID>
11638

> <PUBCHEM_COMPOUND_CANONICALIZED>
1

> <PUBCHEM_CACTVS_COMPLEXITY>
2

> <PUBCHEM_CACTVS_HBOND_ACCEPTOR>
1

> <PUBCHEM_CACTVS_HBOND_DONOR>
0

> <PUBCHEM_CACTVS_ROTATABLE_BOND>
0

> <PUBCHEM_CACTVS_SUBSKEYS>
AAADcQAAAQAAAAAAAAAAAAAAAAAAAAAAAAAAAAAAAAAAAAAAAAAAEQAAAAAAAAAAAAACAAAAAAAAAAAAAAAAAAAAAAAAAAAAAAAAAAAAAAAAAAAAAAAAAAAAAAAAAAAAAAAAAAAAAAAAAAAAAAAAAAAAAA==

> <PUBCHEM_IUPAC_OPENEYE_NAME>
fluoromethane

> <PUBCHEM_IUPAC_CAS_NAME>
fluoromethane

> <PUBCHEM_IUPAC_NAME>
fluoromethane

> <PUBCHEM_IUPAC_SYSTEMATIC_NAME>
fluoranylmethane

> <PUBCHEM_IUPAC_TRADITIONAL_NAME>
fluoromethane

> <PUBCHEM_IUPAC_INCHI>
InChI=1S/CH3F/c1-2/h1H3

> <PUBCHEM_IUPAC_INCHIKEY>
NBVXSUQYWXRMNV-UHFFFAOYSA-N

> <PUBCHEM_XLOGP3_AA>
0.6

> <PUBCHEM_EXACT_MASS>
34.021878

> <PUBCHEM_MOLECULAR_FORMULA>
CH3F

> <PUBCHEM_MOLECULAR_WEIGHT>
34.032923

> <PUBCHEM_OPENEYE_CAN_SMILES>
CF

> <PUBCHEM_OPENEYE_ISO_SMILES>
CF

> <PUBCHEM_CACTVS_TPSA>
0

> <PUBCHEM_MONOISOTOPIC_WEIGHT>
34.021878

> <PUBCHEM_TOTAL_CHARGE>
0

> <PUBCHEM_HEAVY_ATOM_COUNT>
2

> <PUBCHEM_ATOM_DEF_STEREO_COUNT>
0

> <PUBCHEM_ATOM_UDEF_STEREO_COUNT>
0

> <PUBCHEM_BOND_DEF_STEREO_COUNT>
0

> <PUBCHEM_BOND_UDEF_STEREO_COUNT>
0

> <PUBCHEM_ISOTOPIC_ATOM_COUNT>
0

> <PUBCHEM_COMPONENT_COUNT>
1

> <PUBCHEM_CACTVS_TAUTO_COUNT>
1

> <PUBCHEM_COORDINATE_TYPE>
1
5
255

$$$$

