82320
  -OEChem-07051213043D

 22 23  0     0  0  0  0  0  0999 V2000
   -2.5832   -1.6079    0.0973 O   0  0  0  0  0  0  0  0  0  0  0  0
   -1.0997    0.2454    0.2483 N   0  0  0  0  0  0  0  0  0  0  0  0
   -0.2390   -1.8208   -0.1312 N   0  0  0  0  0  0  0  0  0  0  0  0
    0.2953    0.3625    0.1482 C   0  0  0  0  0  0  0  0  0  0  0  0
    0.8159   -0.9092   -0.0843 C   0  0  0  0  0  0  0  0  0  0  0  0
   -2.0160    1.3308    0.4866 C   0  0  0  0  0  0  0  0  0  0  0  0
   -1.4616   -1.1205    0.0757 C   0  0  0  0  0  0  0  0  0  0  0  0
    1.1121    1.4697    0.2437 C   0  0  0  0  0  0  0  0  0  0  0  0
    2.1658   -1.1388   -0.2322 C   0  0  0  0  0  0  0  0  0  0  0  0
   -2.4860    1.9553   -0.8109 C   0  0  0  0  0  0  0  0  0  0  0  0
    2.4877    1.2617    0.0971 C   0  0  0  0  0  0  0  0  0  0  0  0
    3.0087   -0.0282   -0.1382 C   0  0  0  0  0  0  0  0  0  0  0  0
   -2.8855    0.9292    1.0194 H   0  0  0  0  0  0  0  0  0  0  0  0
   -1.5484    2.0776    1.1363 H   0  0  0  0  0  0  0  0  0  0  0  0
   -0.1379   -2.8160   -0.2877 H   0  0  0  0  0  0  0  0  0  0  0  0
    0.7225    2.4648    0.4215 H   0  0  0  0  0  0  0  0  0  0  0  0
    2.5642   -2.1300   -0.4130 H   0  0  0  0  0  0  0  0  0  0  0  0
   -1.6463    2.3748   -1.3748 H   0  0  0  0  0  0  0  0  0  0  0  0
   -2.9787    1.2148   -1.4498 H   0  0  0  0  0  0  0  0  0  0  0  0
   -3.1985    2.7613   -0.6103 H   0  0  0  0  0  0  0  0  0  0  0  0
    3.1685    2.1065    0.1644 H   0  0  0  0  0  0  0  0  0  0  0  0
    4.0824   -0.1572   -0.2480 H   0  0  0  0  0  0  0  0  0  0  0  0
  1  7  2  0  0  0  0
  2  4  1  0  0  0  0
  2  6  1  0  0  0  0
  2  7  1  0  0  0  0
  3  5  1  0  0  0  0
  3  7  1  0  0  0  0
  3 15  1  0  0  0  0
  4  5  1  0  0  0  0
  4  8  2  0  0  0  0
  5  9  2  0  0  0  0
  6 10  1  0  0  0  0
  6 13  1  0  0  0  0
  6 14  1  0  0  0  0
  8 11  1  0  0  0  0
  8 16  1  0  0  0  0
  9 12  1  0  0  0  0
  9 17  1  0  0  0  0
 10 18  1  0  0  0  0
 10 19  1  0  0  0  0
 10 20  1  0  0  0  0
 11 12  2  0  0  0  0
 11 21  1  0  0  0  0
 12 22  1  0  0  0  0
M  END
> <PUBCHEM_COMPOUND_CID>
82320

> <PUBCHEM_CONFORMER_RMSD>
0.4

> <PUBCHEM_CONFORMER_DIVERSEORDER>
2
3
1

> <PUBCHEM_MMFF94_PARTIAL_CHARGES>
16
1 -0.57
11 -0.15
12 -0.15
15 0.37
16 0.15
17 0.15
2 -0.48
21 0.15
22 0.15
3 -0.55
4 0.12
5 0.12
6 0.3
7 0.69
8 -0.15
9 -0.15

> <PUBCHEM_EFFECTIVE_ROTOR_COUNT>
1

> <PUBCHEM_PHARMACOPHORE_FEATURES>
4
1 1 acceptor
1 3 donor
5 2 3 4 5 7 rings
6 4 5 8 9 11 12 rings

> <PUBCHEM_HEAVY_ATOM_COUNT>
12

> <PUBCHEM_ATOM_DEF_STEREO_COUNT>
0

> <PUBCHEM_ATOM_UDEF_STEREO_COUNT>
0

> <PUBCHEM_BOND_DEF_STEREO_COUNT>
0

> <PUBCHEM_BOND_UDEF_STEREO_COUNT>
0

> <PUBCHEM_ISOTOPIC_ATOM_COUNT>
0

> <PUBCHEM_COMPONENT_COUNT>
1

> <PUBCHEM_CACTVS_TAUTO_COUNT>
2

> <PUBCHEM_CONFORMER_ID>
0001419000000002

> <PUBCHEM_MMFF94_ENERGY>
34.283

> <PUBCHEM_FEATURE_SELFOVERLAP>
20.398

> <PUBCHEM_SHAPE_FINGERPRINT>
11206711 2 18409726223052836109
12897270 3 18265615377236499326
13380535 21 18337938082367639884
13380535 76 18337960111460713895
14325111 11 18409728456647073080
14911166 2 18120650490258481740
15279308 100 18268428112796033956
15775835 57 18271237321912825708
16945 1 18193839249785833458
17844478 74 18198893734792980555
193761 8 18410011069637162338
19973954 147 18410008810552838948
21040471 1 18409446994676440704
21501502 16 18410854352063542200
2334 1 18409446968785213674
23402655 69 18190755321887306765
23552423 10 18342452617298354554
23559900 14 18189325935934444150
241688 4 17687750441247244482
25 1 18051697947112069381
2748010 2 18408036325457947942
5084963 1 18188203200352543706
528886 8 18337113487544243256
6333449 129 18409450297237324437

> <PUBCHEM_SHAPE_MULTIPOLES>
231.12
4.16
2.12
0.7
0.25
0.09
0.04
-0.9
0.36
-0.93
0.12
-0.15
-0.15
0.37

> <PUBCHEM_SHAPE_SELFOVERLAP>
495.561

> <PUBCHEM_SHAPE_VOLUME>
128.2

> <PUBCHEM_COORDINATE_TYPE>
2
5
10

$$$$

