5281548
  -OEChem-07051212582D

 54 55  0     1  0  0  0  0  0999 V2000
    7.2537   -0.8003    0.0000 O   0  0  0  0  0  0  0  0  0  0  0  0
    8.6550   -1.8183    0.0000 O   0  0  0  0  0  0  0  0  0  0  0  0
    2.9945   -4.3385    0.0000 O   0  0  0  0  0  0  0  0  0  0  0  0
    3.1756   -2.6160    0.0000 O   0  0  0  0  0  0  0  0  0  0  0  0
   10.1016    1.2688    0.0000 O   0  0  0  0  0  0  0  0  0  0  0  0
    6.9682   -3.5174    0.0000 C   0  0  0  0  0  0  0  0  0  0  0  0
    6.1591   -2.9296    0.0000 C   0  0  1  0  0  0  0  0  0  0  0  0
    7.0727   -2.5228    0.0000 C   0  0  1  0  0  0  0  0  0  0  0  0
    6.3804   -4.3264    0.0000 C   0  0  0  0  0  0  0  0  0  0  0  0
    7.9627   -3.6219    0.0000 C   0  0  0  0  0  0  0  0  0  0  0  0
    5.1646   -2.8250    0.0000 C   0  0  0  0  0  0  0  0  0  0  0  0
    7.6605   -1.7138    0.0000 C   0  0  0  0  0  0  0  0  0  0  0  0
    4.5768   -3.6340    0.0000 C   0  0  0  0  0  0  0  0  0  0  0  0
    7.8415    0.0088    0.0000 C   0  0  1  0  0  0  0  0  0  0  0  0
    4.9836   -4.5476    0.0000 C   0  0  0  0  0  0  0  0  0  0  0  0
    8.8415    0.0088    0.0000 C   0  0  0  0  0  0  0  0  0  0  0  0
    7.5325    0.9598    0.0000 C   0  0  0  0  0  0  0  0  0  0  0  0
    3.5823   -3.5295    0.0000 C   0  0  0  0  0  0  0  0  0  0  0  0
    8.3415    1.5476    0.0000 C   0  0  0  0  0  0  0  0  0  0  0  0
    9.1505    0.9598    0.0000 C   0  0  0  0  0  0  0  0  0  0  0  0
    6.5814    1.2688    0.0000 C   0  0  0  0  0  0  0  0  0  0  0  0
    8.3415    2.5476    0.0000 C   0  0  0  0  0  0  0  0  0  0  0  0
    9.2075    3.0476    0.0000 C   0  0  0  0  0  0  0  0  0  0  0  0
    2.0000   -4.2340    0.0000 C   0  0  0  0  0  0  0  0  0  0  0  0
    9.2075    4.0476    0.0000 C   0  0  0  0  0  0  0  0  0  0  0  0
    8.3415    4.5476    0.0000 C   0  0  0  0  0  0  0  0  0  0  0  0
    6.0622   -2.3172    0.0000 H   0  0  0  0  0  0  0  0  0  0  0  0
    6.6825   -2.0410    0.0000 H   0  0  0  0  0  0  0  0  0  0  0  0
    5.8788   -3.9619    0.0000 H   0  0  0  0  0  0  0  0  0  0  0  0
    6.0159   -4.8280    0.0000 H   0  0  0  0  0  0  0  0  0  0  0  0
    6.8820   -4.6908    0.0000 H   0  0  0  0  0  0  0  0  0  0  0  0
    7.8979   -4.2385    0.0000 H   0  0  0  0  0  0  0  0  0  0  0  0
    8.5793   -3.6867    0.0000 H   0  0  0  0  0  0  0  0  0  0  0  0
    8.0275   -3.0053    0.0000 H   0  0  0  0  0  0  0  0  0  0  0  0
    4.9124   -2.2586    0.0000 H   0  0  0  0  0  0  0  0  0  0  0  0
    8.1230   -0.5437    0.0000 H   0  0  0  0  0  0  0  0  0  0  0  0
    4.4172   -4.7998    0.0000 H   0  0  0  0  0  0  0  0  0  0  0  0
    5.2357   -5.1140    0.0000 H   0  0  0  0  0  0  0  0  0  0  0  0
    5.5500   -4.2954    0.0000 H   0  0  0  0  0  0  0  0  0  0  0  0
    8.7767   -0.6078    0.0000 H   0  0  0  0  0  0  0  0  0  0  0  0
    9.4480   -0.1202    0.0000 H   0  0  0  0  0  0  0  0  0  0  0  0
    6.7730    1.8585    0.0000 H   0  0  0  0  0  0  0  0  0  0  0  0
    5.9918    1.4604    0.0000 H   0  0  0  0  0  0  0  0  0  0  0  0
    6.3898    0.6792    0.0000 H   0  0  0  0  0  0  0  0  0  0  0  0
    8.1295    3.1302    0.0000 H   0  0  0  0  0  0  0  0  0  0  0  0
    7.7309    2.4399    0.0000 H   0  0  0  0  0  0  0  0  0  0  0  0
    9.7445    2.7376    0.0000 H   0  0  0  0  0  0  0  0  0  0  0  0
    2.0648   -3.6174    0.0000 H   0  0  0  0  0  0  0  0  0  0  0  0
    1.3834   -4.1692    0.0000 H   0  0  0  0  0  0  0  0  0  0  0  0
    1.9352   -4.8506    0.0000 H   0  0  0  0  0  0  0  0  0  0  0  0
    9.7445    4.3576    0.0000 H   0  0  0  0  0  0  0  0  0  0  0  0
    8.6515    5.0845    0.0000 H   0  0  0  0  0  0  0  0  0  0  0  0
    7.8046    4.8576    0.0000 H   0  0  0  0  0  0  0  0  0  0  0  0
    8.0315    4.0107    0.0000 H   0  0  0  0  0  0  0  0  0  0  0  0
  1 12  1  0  0  0  0
 14  1  1  6  0  0  0
  2 12  2  0  0  0  0
  3 18  1  0  0  0  0
  3 24  1  0  0  0  0
  4 18  2  0  0  0  0
  5 20  2  0  0  0  0
  6  7  1  0  0  0  0
  6  8  1  0  0  0  0
  6  9  1  0  0  0  0
  6 10  1  0  0  0  0
  7  8  1  0  0  0  0
  7 11  1  6  0  0  0
  7 27  1  0  0  0  0
  8 12  1  1  0  0  0
  8 28  1  0  0  0  0
  9 29  1  0  0  0  0
  9 30  1  0  0  0  0
  9 31  1  0  0  0  0
 10 32  1  0  0  0  0
 10 33  1  0  0  0  0
 10 34  1  0  0  0  0
 11 13  2  0  0  0  0
 11 35  1  0  0  0  0
 13 15  1  0  0  0  0
 13 18  1  0  0  0  0
 14 16  1  0  0  0  0
 14 17  1  0  0  0  0
 14 36  1  0  0  0  0
 15 37  1  0  0  0  0
 15 38  1  0  0  0  0
 15 39  1  0  0  0  0
 16 20  1  0  0  0  0
 16 40  1  0  0  0  0
 16 41  1  0  0  0  0
 17 19  2  0  0  0  0
 17 21  1  0  0  0  0
 19 20  1  0  0  0  0
 19 22  1  0  0  0  0
 21 42  1  0  0  0  0
 21 43  1  0  0  0  0
 21 44  1  0  0  0  0
 22 23  1  0  0  0  0
 22 45  1  0  0  0  0
 22 46  1  0  0  0  0
 23 25  2  0  0  0  0
 23 47  1  0  0  0  0
 24 48  1  0  0  0  0
 24 49  1  0  0  0  0
 24 50  1  0  0  0  0
 25 26  1  0  0  0  0
 25 51  1  0  0  0  0
 26 52  1  0  0  0  0
 26 53  1  0  0  0  0
 26 54  1  0  0  0  0
M  END
> <PUBCHEM_COMPOUND_CID>
5281548

> <PUBCHEM_COMPOUND_CANONICALIZED>
1

> <PUBCHEM_CACTVS_COMPLEXITY>
708

> <PUBCHEM_CACTVS_HBOND_ACCEPTOR>
5

> <PUBCHEM_CACTVS_HBOND_DONOR>
0

> <PUBCHEM_CACTVS_ROTATABLE_BOND>
8

> <PUBCHEM_CACTVS_SUBSKEYS>
AAADceB4OAAAAAAAAAAAAAAAGAAAAQAAAAAAAAAAAAAAAAAAAAAAGgAAAAAADxSggAICCAAABACIAqDSCAAAAAAgAAAICAEAAEgABBYAIQACEAAEoAAIIYOIwIAPgAAAAAAAAAAAAAAAAAAAAAAAAAAAAA==

> <PUBCHEM_IUPAC_OPENEYE_NAME>
[(1S)-3-[(Z)-but-2-enyl]-2-methyl-4-oxo-cyclopent-2-en-1-yl] (1R,3R)-3-[(E)-3-methoxy-2-methyl-3-oxo-prop-1-enyl]-2,2-dimethyl-cyclopropanecarboxylate

> <PUBCHEM_IUPAC_CAS_NAME>
(1R,3R)-3-[(E)-3-methoxy-2-methyl-3-oxoprop-1-enyl]-2,2-dimethyl-1-cyclopropanecarboxylic acid [(1S)-3-[(Z)-but-2-enyl]-2-methyl-4-oxo-1-cyclopent-2-enyl] ester

> <PUBCHEM_IUPAC_NAME>
[(1S)-3-[(Z)-but-2-enyl]-2-methyl-4-oxocyclopent-2-en-1-yl] (1R,3R)-3-[(E)-3-methoxy-2-methyl-3-oxoprop-1-enyl]-2,2-dimethylcyclopropane-1-carboxylate

> <PUBCHEM_IUPAC_SYSTEMATIC_NAME>
[(1S)-3-[(Z)-but-2-enyl]-2-methyl-4-oxidanylidene-cyclopent-2-en-1-yl] (1R,3R)-3-[(E)-3-methoxy-2-methyl-3-oxidanylidene-prop-1-enyl]-2,2-dimethyl-cyclopropane-1-carboxylate

> <PUBCHEM_IUPAC_TRADITIONAL_NAME>
(1R,3R)-3-[(E)-3-keto-3-methoxy-2-methyl-prop-1-enyl]-2,2-dimethyl-cyclopropanecarboxylic acid [(1S)-3-[(Z)-but-2-enyl]-4-keto-2-methyl-cyclopent-2-en-1-yl] ester

> <PUBCHEM_IUPAC_INCHI>
InChI=1S/C21H28O5/c1-7-8-9-14-13(3)17(11-16(14)22)26-20(24)18-15(21(18,4)5)10-12(2)19(23)25-6/h7-8,10,15,17-18H,9,11H2,1-6H3/b8-7-,12-10+/t15-,17+,18+/m1/s1

> <PUBCHEM_IUPAC_INCHIKEY>
SHCRDCOTRILILT-WOBDGSLYSA-N

> <PUBCHEM_XLOGP3>
4

> <PUBCHEM_EXACT_MASS>
360.193674

> <PUBCHEM_MOLECULAR_FORMULA>
C21H28O5

> <PUBCHEM_MOLECULAR_WEIGHT>
360.44402

> <PUBCHEM_OPENEYE_CAN_SMILES>
CC=CCC1=C(C(CC1=O)OC(=O)C2C(C2(C)C)C=C(C)C(=O)OC)C

> <PUBCHEM_OPENEYE_ISO_SMILES>
C/C=C\CC1=C([C@H](CC1=O)OC(=O)[C@@H]2[C@H](C2(C)C)/C=C(\C)/C(=O)OC)C

> <PUBCHEM_CACTVS_TPSA>
69.7

> <PUBCHEM_MONOISOTOPIC_WEIGHT>
360.193674

> <PUBCHEM_TOTAL_CHARGE>
0

> <PUBCHEM_HEAVY_ATOM_COUNT>
26

> <PUBCHEM_ATOM_DEF_STEREO_COUNT>
3

> <PUBCHEM_ATOM_UDEF_STEREO_COUNT>
0

> <PUBCHEM_BOND_DEF_STEREO_COUNT>
2

> <PUBCHEM_BOND_UDEF_STEREO_COUNT>
0

> <PUBCHEM_ISOTOPIC_ATOM_COUNT>
0

> <PUBCHEM_COMPONENT_COUNT>
1

> <PUBCHEM_CACTVS_TAUTO_COUNT>
5

> <PUBCHEM_COORDINATE_TYPE>
1
5
255

> <PUBCHEM_BONDANNOTATIONS>
14  1  6
7  11  6
8  12  5

$$$$

