9342
  -OEChem-06261203383D

 62 63  0     1  0  0  0  0  0999 V2000
    2.1255   -0.9172   -0.2107 O   0  0  0  0  0  0  0  0  0  0  0  0
   -0.8759    1.1337    0.6892 O   0  0  0  0  0  0  0  0  0  0  0  0
   -4.0167   -0.4462    1.2874 O   0  0  0  0  0  0  0  0  0  0  0  0
   -1.2368   -1.0403   -1.0324 O   0  0  0  0  0  0  0  0  0  0  0  0
   -2.5481    1.5562   -1.4016 O   0  0  0  0  0  0  0  0  0  0  0  0
   -1.9928    0.5111    2.5967 O   0  0  0  0  0  0  0  0  0  0  0  0
    3.0618   -1.9414    1.6267 O   0  0  0  0  0  0  0  0  0  0  0  0
    2.9596    2.4254   -1.0025 N   0  0  2  0  0  0  0  0  0  0  0  0
    1.9503    1.4962   -0.4072 C   0  0  1  0  0  0  0  0  0  0  0  0
    2.7441    0.3080    0.1396 C   0  0  2  0  0  0  0  0  0  0  0  0
    4.1010    0.4403   -0.5303 C   0  0  0  0  0  0  0  0  0  0  0  0
    4.2841    1.9426   -0.5830 C   0  0  0  0  0  0  0  0  0  0  0  0
    1.2126    2.2992    0.6209 C   0  0  0  0  0  0  0  0  0  0  0  0
    2.6565    3.7694   -0.4649 C   0  0  0  0  0  0  0  0  0  0  0  0
    1.6127    3.5733    0.5829 C   0  0  0  0  0  0  0  0  0  0  0  0
    0.1602    1.7123    1.4889 C   0  0  0  0  0  0  0  0  0  0  0  0
   -2.9471   -0.0296    0.4115 C   0  0  1  0  0  0  0  0  0  0  0  0
   -2.4266   -1.3265   -0.2932 C   0  0  0  0  0  0  0  0  0  0  0  0
   -3.5601    1.0590   -0.5145 C   0  0  1  0  0  0  0  0  0  0  0  0
   -1.9047    0.5599    1.3749 C   0  0  0  0  0  0  0  0  0  0  0  0
    2.3657   -1.9755    0.6219 C   0  0  0  0  0  0  0  0  0  0  0  0
   -2.0807   -2.4293    0.7222 C   0  0  0  0  0  0  0  0  0  0  0  0
   -3.4559   -1.8951   -1.2880 C   0  0  0  0  0  0  0  0  0  0  0  0
   -4.2364    2.2556    0.1425 C   0  0  0  0  0  0  0  0  0  0  0  0
    1.6550   -3.1910    0.1211 C   0  0  0  0  0  0  0  0  0  0  0  0
    1.2331   -4.2299    1.1174 C   0  0  0  0  0  0  0  0  0  0  0  0
   -3.1133    1.9883   -2.6264 C   0  0  0  0  0  0  0  0  0  0  0  0
    1.4798   -3.2616   -1.2113 C   0  0  0  0  0  0  0  0  0  0  0  0
    0.7928   -4.3470   -1.9778 C   0  0  0  0  0  0  0  0  0  0  0  0
    1.2536    1.1830   -1.1950 H   0  0  0  0  0  0  0  0  0  0  0  0
    2.8605    0.4034    1.2282 H   0  0  0  0  0  0  0  0  0  0  0  0
    4.8906   -0.0579    0.0408 H   0  0  0  0  0  0  0  0  0  0  0  0
    4.0912   -0.0003   -1.5352 H   0  0  0  0  0  0  0  0  0  0  0  0
    5.0597    2.2363   -1.2963 H   0  0  0  0  0  0  0  0  0  0  0  0
    4.5663    2.3085    0.4129 H   0  0  0  0  0  0  0  0  0  0  0  0
    3.5376    4.2757   -0.0556 H   0  0  0  0  0  0  0  0  0  0  0  0
    2.2543    4.3958   -1.2686 H   0  0  0  0  0  0  0  0  0  0  0  0
    1.2211    4.3673    1.2020 H   0  0  0  0  0  0  0  0  0  0  0  0
   -0.2778    2.4844    2.1330 H   0  0  0  0  0  0  0  0  0  0  0  0
    0.5995    0.9374    2.1278 H   0  0  0  0  0  0  0  0  0  0  0  0
   -4.3523    0.5722   -1.0986 H   0  0  0  0  0  0  0  0  0  0  0  0
   -2.9492   -2.7401    1.3110 H   0  0  0  0  0  0  0  0  0  0  0  0
   -1.2909   -2.1028    1.4072 H   0  0  0  0  0  0  0  0  0  0  0  0
   -1.6881   -3.3164    0.2117 H   0  0  0  0  0  0  0  0  0  0  0  0
   -3.5984   -1.2280   -2.1441 H   0  0  0  0  0  0  0  0  0  0  0  0
   -4.4242   -2.0904   -0.8182 H   0  0  0  0  0  0  0  0  0  0  0  0
   -3.0958   -2.8391   -1.7157 H   0  0  0  0  0  0  0  0  0  0  0  0
   -4.9684    1.9399    0.8920 H   0  0  0  0  0  0  0  0  0  0  0  0
   -4.7652    2.8788   -0.5846 H   0  0  0  0  0  0  0  0  0  0  0  0
   -3.4977    2.9007    0.6305 H   0  0  0  0  0  0  0  0  0  0  0  0
   -4.8247   -0.5589    0.7592 H   0  0  0  0  0  0  0  0  0  0  0  0
   -0.9723   -1.8469   -1.5057 H   0  0  0  0  0  0  0  0  0  0  0  0
   -3.6644    1.1797   -3.1166 H   0  0  0  0  0  0  0  0  0  0  0  0
   -3.7565    2.8615   -2.4930 H   0  0  0  0  0  0  0  0  0  0  0  0
   -2.2929    2.2815   -3.2881 H   0  0  0  0  0  0  0  0  0  0  0  0
    0.4675   -4.9088    0.7356 H   0  0  0  0  0  0  0  0  0  0  0  0
    0.8100   -3.7480    2.0056 H   0  0  0  0  0  0  0  0  0  0  0  0
    2.0977   -4.8231    1.4315 H   0  0  0  0  0  0  0  0  0  0  0  0
    1.8563   -2.4770   -1.8649 H   0  0  0  0  0  0  0  0  0  0  0  0
    0.4885   -5.1958   -1.3627 H   0  0  0  0  0  0  0  0  0  0  0  0
    1.4656   -4.7284   -2.7528 H   0  0  0  0  0  0  0  0  0  0  0  0
   -0.0984   -3.9458   -2.4701 H   0  0  0  0  0  0  0  0  0  0  0  0
  1 10  1  0  0  0  0
  1 21  1  0  0  0  0
  2 16  1  0  0  0  0
  2 20  1  0  0  0  0
  3 17  1  0  0  0  0
  3 51  1  0  0  0  0
  4 18  1  0  0  0  0
  4 52  1  0  0  0  0
  5 19  1  0  0  0  0
  5 27  1  0  0  0  0
  6 20  2  0  0  0  0
  7 21  2  0  0  0  0
  8  9  1  0  0  0  0
  8 12  1  0  0  0  0
  8 14  1  0  0  0  0
  9 10  1  0  0  0  0
  9 13  1  0  0  0  0
  9 30  1  0  0  0  0
 10 11  1  0  0  0  0
 10 31  1  0  0  0  0
 11 12  1  0  0  0  0
 11 32  1  0  0  0  0
 11 33  1  0  0  0  0
 12 34  1  0  0  0  0
 12 35  1  0  0  0  0
 13 15  2  0  0  0  0
 13 16  1  0  0  0  0
 14 15  1  0  0  0  0
 14 36  1  0  0  0  0
 14 37  1  0  0  0  0
 15 38  1  0  0  0  0
 16 39  1  0  0  0  0
 16 40  1  0  0  0  0
 17 18  1  0  0  0  0
 17 19  1  0  0  0  0
 17 20  1  0  0  0  0
 18 22  1  0  0  0  0
 18 23  1  0  0  0  0
 19 24  1  0  0  0  0
 19 41  1  0  0  0  0
 21 25  1  0  0  0  0
 22 42  1  0  0  0  0
 22 43  1  0  0  0  0
 22 44  1  0  0  0  0
 23 45  1  0  0  0  0
 23 46  1  0  0  0  0
 23 47  1  0  0  0  0
 24 48  1  0  0  0  0
 24 49  1  0  0  0  0
 24 50  1  0  0  0  0
 25 26  1  0  0  0  0
 25 28  2  0  0  0  0
 26 56  1  0  0  0  0
 26 57  1  0  0  0  0
 26 58  1  0  0  0  0
 27 53  1  0  0  0  0
 27 54  1  0  0  0  0
 27 55  1  0  0  0  0
 28 29  1  0  0  0  0
 28 59  1  0  0  0  0
 29 60  1  0  0  0  0
 29 61  1  0  0  0  0
 29 62  1  0  0  0  0
M  END
> <PUBCHEM_COMPOUND_CID>
9342

> <PUBCHEM_CONFORMER_RMSD>
1.2

> <PUBCHEM_CONFORMER_DIVERSEORDER>
1
45
72
55
21
51
60
73
34
43
87
80
16
74
71
57
56
84
91
38
24
75
30
66
49
36
59
54
58
61
27
44
69
33
83
79
25
85
22
32
63
48
93
67
17
82
23
53
39
86
41
13
90
35
4
26
11
89
12
88
40
62
42
64
5
65
2
18
68
14
6
29
78
3
20
19
28
47
50
10
37
77
92
8
70
31
76
52
9
15
81
7
46

> <PUBCHEM_MMFF94_PARTIAL_CHARGES>
29
1 -0.43
10 0.28
12 0.27
13 -0.28
14 0.41
15 -0.29
16 0.42
17 0.34
18 0.28
19 0.28
2 -0.43
20 0.66
21 0.71
25 -0.12
26 0.14
27 0.28
28 -0.29
29 0.14
3 -0.68
38 0.15
4 -0.68
5 -0.56
51 0.4
52 0.4
59 0.15
6 -0.57
7 -0.57
8 -0.81
9 0.41

> <PUBCHEM_EFFECTIVE_ROTOR_COUNT>
10.8

> <PUBCHEM_PHARMACOPHORE_FEATURES>
13
1 26 hydrophobe
1 29 hydrophobe
1 3 acceptor
1 3 donor
1 4 acceptor
1 4 donor
1 5 acceptor
1 6 acceptor
1 7 acceptor
1 8 cation
3 18 22 23 hydrophobe
5 8 9 10 11 12 rings
5 8 9 13 14 15 rings

> <PUBCHEM_HEAVY_ATOM_COUNT>
29

> <PUBCHEM_ATOM_DEF_STEREO_COUNT>
4

> <PUBCHEM_ATOM_UDEF_STEREO_COUNT>
0

> <PUBCHEM_BOND_DEF_STEREO_COUNT>
0

> <PUBCHEM_BOND_UDEF_STEREO_COUNT>
1

> <PUBCHEM_ISOTOPIC_ATOM_COUNT>
0

> <PUBCHEM_COMPONENT_COUNT>
1

> <PUBCHEM_CACTVS_TAUTO_COUNT>
1

> <PUBCHEM_CONFORMER_ID>
0000247E00000001

> <PUBCHEM_MMFF94_ENERGY>
69.4818

> <PUBCHEM_FEATURE_SELFOVERLAP>
66.345

> <PUBCHEM_SHAPE_FINGERPRINT>
10006869 2 17907864993953863898
11370993 70 18269278958607197852
12156800 1 15098262478910261030
12553582 1 18121203544749872538
12788726 201 17532364451802547417
13004483 165 17693673914387384402
13583140 156 17986669479803597875
14117953 113 18048321329723118374
14251757 17 17555747851257163813
15463212 79 17695077599957645472
15840311 113 16520758908154431169
19930381 70 18196373839094561349
22393880 68 18336825299660691332
238 59 18123220989324866591
35225 105 17902220118662564806
4280585 95 18048590723447936038
469060 322 16905520417227724290
6287921 2 17841701916180441669
7399639 24 18055916498471472769
81228 2 17473548430905295464

> <PUBCHEM_SHAPE_MULTIPOLES>
550.74
7.4
5.68
1.85
1.94
4
-0.19
-3.75
-1.2
-3.77
-1.12
1.21
0.21
-0.2

> <PUBCHEM_SHAPE_SELFOVERLAP>
1128.766

> <PUBCHEM_SHAPE_VOLUME>
321.3

> <PUBCHEM_COORDINATE_TYPE>
2
5
10

$$$$

