16203171
  -OEChem-07051213113D

 67 72  0     1  0  0  0  0  0999 V2000
    2.6590   -1.6681   -0.0963 O   0  0  0  0  0  0  0  0  0  0  0  0
   -1.9533   -0.9855   -0.0125 O   0  0  0  0  0  0  0  0  0  0  0  0
   -3.6634   -2.9524   -1.1996 O   0  0  0  0  0  0  0  0  0  0  0  0
   -0.1725   -5.3632    1.0678 O   0  0  0  0  0  0  0  0  0  0  0  0
    5.1973   -1.6694   -1.6272 O   0  0  0  0  0  0  0  0  0  0  0  0
    4.1863    2.7188    0.0212 O   0  0  0  0  0  0  0  0  0  0  0  0
   -1.6374    4.1504   -0.5982 O   0  0  0  0  0  0  0  0  0  0  0  0
   -1.4318    4.4089    2.1618 O   0  0  0  0  0  0  0  0  0  0  0  0
   -5.1662    1.7009   -2.7035 O   0  0  0  0  0  0  0  0  0  0  0  0
    8.5938    0.9565    0.4403 O   0  0  0  0  0  0  0  0  0  0  0  0
   -7.2142    2.3403   -0.9361 O   0  0  0  0  0  0  0  0  0  0  0  0
    0.8540   -0.0646   -0.4518 C   0  0  1  0  0  0  0  0  0  0  0  0
    2.3667   -0.2476   -0.1738 C   0  0  2  0  0  0  0  0  0  0  0  0
    0.3645   -1.4028   -0.0031 C   0  0  0  0  0  0  0  0  0  0  0  0
   -0.9293   -1.8672    0.1912 C   0  0  0  0  0  0  0  0  0  0  0  0
    1.4464   -2.2553    0.1544 C   0  0  0  0  0  0  0  0  0  0  0  0
   -1.1243   -3.2115    0.5418 C   0  0  0  0  0  0  0  0  0  0  0  0
    3.2331    0.3632   -1.2673 C   0  0  0  0  0  0  0  0  0  0  0  0
   -2.5101   -3.7633    0.7564 C   0  0  0  0  0  0  0  0  0  0  0  0
   -3.5785   -2.8107    0.2190 C   0  0  1  0  0  0  0  0  0  0  0  0
   -3.2034   -1.3679    0.5787 C   0  0  2  0  0  0  0  0  0  0  0  0
    0.2423    1.1300    0.2424 C   0  0  0  0  0  0  0  0  0  0  0  0
    1.2896   -3.5811    0.5084 C   0  0  0  0  0  0  0  0  0  0  0  0
   -0.0077   -4.0561    0.7100 C   0  0  0  0  0  0  0  0  0  0  0  0
    4.6604    0.5211   -0.8124 C   0  0  0  0  0  0  0  0  0  0  0  0
   -4.2752   -0.3757    0.1699 C   0  0  0  0  0  0  0  0  0  0  0  0
   -0.4241    2.1036   -0.5016 C   0  0  0  0  0  0  0  0  0  0  0  0
    0.3451    1.2598    1.6275 C   0  0  0  0  0  0  0  0  0  0  0  0
    5.5759   -0.5112   -1.0173 C   0  0  0  0  0  0  0  0  0  0  0  0
    5.0666    1.6995   -0.1864 C   0  0  0  0  0  0  0  0  0  0  0  0
   -0.9879    3.2067    0.1392 C   0  0  0  0  0  0  0  0  0  0  0  0
   -0.2186    2.3630    2.2684 C   0  0  0  0  0  0  0  0  0  0  0  0
   -4.2326    0.2167   -1.0922 C   0  0  0  0  0  0  0  0  0  0  0  0
   -5.3032   -0.0551    1.0565 C   0  0  0  0  0  0  0  0  0  0  0  0
   -0.8851    3.3364    1.5243 C   0  0  0  0  0  0  0  0  0  0  0  0
    6.8978   -0.3648   -0.5963 C   0  0  0  0  0  0  0  0  0  0  0  0
    6.3883    1.8458    0.2346 C   0  0  0  0  0  0  0  0  0  0  0  0
   -5.2179    1.1298   -1.4677 C   0  0  0  0  0  0  0  0  0  0  0  0
   -6.2886    0.8580    0.6811 C   0  0  0  0  0  0  0  0  0  0  0  0
    7.3040    0.8137    0.0296 C   0  0  0  0  0  0  0  0  0  0  0  0
   -6.2459    1.4504   -0.5811 C   0  0  0  0  0  0  0  0  0  0  0  0
    0.6792   -0.0058   -1.5350 H   0  0  0  0  0  0  0  0  0  0  0  0
    2.6503    0.1711    0.8011 H   0  0  0  0  0  0  0  0  0  0  0  0
    2.8406    1.3442   -1.5632 H   0  0  0  0  0  0  0  0  0  0  0  0
    3.1980   -0.2501   -2.1768 H   0  0  0  0  0  0  0  0  0  0  0  0
   -2.6027   -4.7381    0.2634 H   0  0  0  0  0  0  0  0  0  0  0  0
   -2.6549   -3.9004    1.8349 H   0  0  0  0  0  0  0  0  0  0  0  0
   -4.5581   -3.0789    0.6314 H   0  0  0  0  0  0  0  0  0  0  0  0
   -3.0779   -1.2804    1.6683 H   0  0  0  0  0  0  0  0  0  0  0  0
    2.1539   -4.2268    0.6238 H   0  0  0  0  0  0  0  0  0  0  0  0
   -0.5058    2.0027   -1.5812 H   0  0  0  0  0  0  0  0  0  0  0  0
    0.8501    0.5097    2.2299 H   0  0  0  0  0  0  0  0  0  0  0  0
   -3.9232   -3.8703   -1.3875 H   0  0  0  0  0  0  0  0  0  0  0  0
   -0.1333    2.4503    3.3483 H   0  0  0  0  0  0  0  0  0  0  0  0
   -3.4403   -0.0324   -1.7937 H   0  0  0  0  0  0  0  0  0  0  0  0
   -5.3485   -0.5114    2.0417 H   0  0  0  0  0  0  0  0  0  0  0  0
    0.6998   -5.7880    1.1351 H   0  0  0  0  0  0  0  0  0  0  0  0
    7.6124   -1.1687   -0.7555 H   0  0  0  0  0  0  0  0  0  0  0  0
    6.7129    2.7613    0.7231 H   0  0  0  0  0  0  0  0  0  0  0  0
   -7.0841    1.0984    1.3813 H   0  0  0  0  0  0  0  0  0  0  0  0
    5.9631   -2.2663   -1.6801 H   0  0  0  0  0  0  0  0  0  0  0  0
    4.6461    3.4501    0.4680 H   0  0  0  0  0  0  0  0  0  0  0  0
   -1.6126    3.8927   -1.5357 H   0  0  0  0  0  0  0  0  0  0  0  0
   -1.2626    4.3299    3.1164 H   0  0  0  0  0  0  0  0  0  0  0  0
   -4.3867    1.3633   -3.1771 H   0  0  0  0  0  0  0  0  0  0  0  0
    9.0868    0.1476    0.2194 H   0  0  0  0  0  0  0  0  0  0  0  0
   -7.8403    2.4381   -0.1984 H   0  0  0  0  0  0  0  0  0  0  0  0
  1 13  1  0  0  0  0
  1 16  1  0  0  0  0
  2 15  1  0  0  0  0
  2 21  1  0  0  0  0
  3 20  1  0  0  0  0
  3 53  1  0  0  0  0
  4 24  1  0  0  0  0
  4 57  1  0  0  0  0
  5 29  1  0  0  0  0
  5 61  1  0  0  0  0
  6 30  1  0  0  0  0
  6 62  1  0  0  0  0
  7 31  1  0  0  0  0
  7 63  1  0  0  0  0
  8 35  1  0  0  0  0
  8 64  1  0  0  0  0
  9 38  1  0  0  0  0
  9 65  1  0  0  0  0
 10 40  1  0  0  0  0
 10 66  1  0  0  0  0
 11 41  1  0  0  0  0
 11 67  1  0  0  0  0
 12 13  1  0  0  0  0
 12 14  1  0  0  0  0
 12 22  1  0  0  0  0
 12 42  1  0  0  0  0
 13 18  1  0  0  0  0
 13 43  1  0  0  0  0
 14 15  1  0  0  0  0
 14 16  2  0  0  0  0
 15 17  2  0  0  0  0
 16 23  1  0  0  0  0
 17 19  1  0  0  0  0
 17 24  1  0  0  0  0
 18 25  1  0  0  0  0
 18 44  1  0  0  0  0
 18 45  1  0  0  0  0
 19 20  1  0  0  0  0
 19 46  1  0  0  0  0
 19 47  1  0  0  0  0
 20 21  1  0  0  0  0
 20 48  1  0  0  0  0
 21 26  1  0  0  0  0
 21 49  1  0  0  0  0
 22 27  2  0  0  0  0
 22 28  1  0  0  0  0
 23 24  2  0  0  0  0
 23 50  1  0  0  0  0
 25 29  2  0  0  0  0
 25 30  1  0  0  0  0
 26 33  2  0  0  0  0
 26 34  1  0  0  0  0
 27 31  1  0  0  0  0
 27 51  1  0  0  0  0
 28 32  2  0  0  0  0
 28 52  1  0  0  0  0
 29 36  1  0  0  0  0
 30 37  2  0  0  0  0
 31 35  2  0  0  0  0
 32 35  1  0  0  0  0
 32 54  1  0  0  0  0
 33 38  1  0  0  0  0
 33 55  1  0  0  0  0
 34 39  2  0  0  0  0
 34 56  1  0  0  0  0
 36 40  2  0  0  0  0
 36 58  1  0  0  0  0
 37 40  1  0  0  0  0
 37 59  1  0  0  0  0
 38 41  2  0  0  0  0
 39 41  1  0  0  0  0
 39 60  1  0  0  0  0
M  END
> <PUBCHEM_COMPOUND_CID>
16203171

> <PUBCHEM_CONFORMER_RMSD>
1

> <PUBCHEM_CONFORMER_DIVERSEORDER>
1
38
16
45
33
40
23
15
24
46
34
42
6
26
39
20
31
48
25
7
35
30
41
11
28
37
14
43
13
9
51
5
36
44
32
49
22
27
21
17
47
50
10
4
29
8
19
12
2
52
18
3

> <PUBCHEM_MMFF94_PARTIAL_CHARGES>
59
1 -0.36
10 -0.53
11 -0.53
12 0.29
13 0.28
14 -0.14
15 0.08
16 0.08
17 -0.14
18 0.14
19 0.14
2 -0.36
20 0.28
21 0.42
22 -0.14
23 -0.15
24 0.08
25 -0.14
26 -0.14
27 -0.15
28 -0.15
29 0.08
3 -0.68
30 0.08
31 0.08
32 -0.15
33 -0.15
34 -0.15
35 0.08
36 -0.15
37 -0.15
38 0.08
39 -0.15
4 -0.53
40 0.08
41 0.08
5 -0.53
50 0.15
51 0.15
52 0.15
53 0.4
54 0.15
55 0.15
56 0.15
57 0.45
58 0.15
59 0.15
6 -0.53
60 0.15
61 0.45
62 0.45
63 0.45
64 0.45
65 0.45
66 0.45
67 0.45
7 -0.53
8 -0.53
9 -0.53

> <PUBCHEM_EFFECTIVE_ROTOR_COUNT>
5.4

> <PUBCHEM_PHARMACOPHORE_FEATURES>
18
1 1 acceptor
1 10 donor
1 11 donor
1 2 acceptor
1 3 acceptor
1 3 donor
1 4 donor
1 5 donor
1 6 donor
1 7 donor
1 8 donor
1 9 donor
5 1 12 13 14 16 rings
6 14 15 16 17 23 24 rings
6 2 15 17 19 20 21 rings
6 22 27 28 31 32 35 rings
6 25 29 30 36 37 40 rings
6 26 33 34 38 39 41 rings

> <PUBCHEM_HEAVY_ATOM_COUNT>
41

> <PUBCHEM_ATOM_DEF_STEREO_COUNT>
4

> <PUBCHEM_ATOM_UDEF_STEREO_COUNT>
0

> <PUBCHEM_BOND_DEF_STEREO_COUNT>
0

> <PUBCHEM_BOND_UDEF_STEREO_COUNT>
0

> <PUBCHEM_ISOTOPIC_ATOM_COUNT>
0

> <PUBCHEM_COMPONENT_COUNT>
1

> <PUBCHEM_CACTVS_TAUTO_COUNT>
994

> <PUBCHEM_CONFORMER_ID>
00F73DA300000001

> <PUBCHEM_MMFF94_ENERGY>
121.7471

> <PUBCHEM_FEATURE_SELFOVERLAP>
91.478

> <PUBCHEM_SHAPE_FINGERPRINT>
10006869 2 18338241582153214646
10165383 225 18343021104181980461
10190206 1 18265037193429848124
10675989 125 18125441058426667931
11135926 11 18341046423873946041
11136131 41 17986958642302491427
12293681 160 18334295383196760315
12788726 201 18189335843394906027
13811026 1 18333729105350767334
13947920 24 18201725106200087061
140371 6 18264188259016060028
14394314 77 18262508317077036033
14415360 78 18270134418068261429
14790565 3 18342452591359615983
15150948 74 18341891918498796133
15351339 4 18338240465361173153
19319366 153 18339371871780696599
19958102 18 18338789135012636726
20715895 44 18341892979007292380
21279426 13 18335976502569656182
21796203 349 16464699289055443274
23559900 14 18263075540637986214
283562 15 18408880763294132994
4258327 124 17916849233315202172
50150288 127 17170670266576057809
508706 21 18196662791715154283
5171179 24 17827366475160818009
563151 248 14189567520901006641
6009941 240 18413108333842108790
7226269 152 18408318865686833242

> <PUBCHEM_SHAPE_MULTIPOLES>
779.2
16.61
5.61
1.52
16.31
2.87
0
-8.64
5.35
-3.62
-2.24
-1.26
-1.04
1.39

> <PUBCHEM_SHAPE_SELFOVERLAP>
1753.249

> <PUBCHEM_SHAPE_VOLUME>
408.3

> <PUBCHEM_COORDINATE_TYPE>
2
5
10

$$$$

