179647
  -OEChem-07051212553D

 36 36  0     1  0  0  0  0  0999 V2000
    0.6163    0.7628   -0.0067 O   0  0  0  0  0  0  0  0  0  0  0  0
   -1.1085   -0.8080    0.0278 O   0  0  0  0  0  0  0  0  0  0  0  0
    3.4168   -2.1375   -0.7893 O   0  0  0  0  0  0  0  0  0  0  0  0
    4.2607    0.4514    0.1808 O   0  0  0  0  0  0  0  0  0  0  0  0
    0.8036   -2.8678    0.3589 O   0  0  0  0  0  0  0  0  0  0  0  0
    1.2270    3.3684    0.6212 O   0  0  0  0  0  0  0  0  0  0  0  0
   -2.7709   -0.9059   -2.1502 O   0  0  0  0  0  0  0  0  0  0  0  0
   -3.7400   -1.0483    2.1556 N   0  0  0  0  0  0  0  0  0  0  0  0
    2.6123   -1.3018    0.0442 C   0  0  1  0  0  0  0  0  0  0  0  0
    2.9462    0.1539   -0.2827 C   0  0  1  0  0  0  0  0  0  0  0  0
    1.1348   -1.6010   -0.2094 C   0  0  2  0  0  0  0  0  0  0  0  0
    1.9477    1.1031    0.3840 C   0  0  1  0  0  0  0  0  0  0  0  0
    0.2356   -0.5410    0.4267 C   0  0  1  0  0  0  0  0  0  0  0  0
    2.1897    2.5534   -0.0220 C   0  0  0  0  0  0  0  0  0  0  0  0
   -2.0079    0.1430    0.5758 C   0  0  1  0  0  0  0  0  0  0  0  0
   -2.7039    0.8832   -0.5459 C   0  0  0  0  0  0  0  0  0  0  0  0
   -3.5476    0.1068   -1.5267 C   0  0  0  0  0  0  0  0  0  0  0  0
   -2.9780   -0.5226    1.4556 C   0  0  0  0  0  0  0  0  0  0  0  0
   -2.5342    2.2078   -0.6976 C   0  0  0  0  0  0  0  0  0  0  0  0
    2.8889   -1.5349    1.0800 H   0  0  0  0  0  0  0  0  0  0  0  0
    2.9378    0.2965   -1.3709 H   0  0  0  0  0  0  0  0  0  0  0  0
    0.9367   -1.6691   -1.2865 H   0  0  0  0  0  0  0  0  0  0  0  0
    2.0180    1.0406    1.4785 H   0  0  0  0  0  0  0  0  0  0  0  0
    0.2872   -0.6068    1.5226 H   0  0  0  0  0  0  0  0  0  0  0  0
    2.0754    2.6914   -1.1023 H   0  0  0  0  0  0  0  0  0  0  0  0
    3.1851    2.8966    0.2741 H   0  0  0  0  0  0  0  0  0  0  0  0
    3.2653   -3.0583   -0.5176 H   0  0  0  0  0  0  0  0  0  0  0  0
    4.8677   -0.1813   -0.2400 H   0  0  0  0  0  0  0  0  0  0  0  0
    1.3137   -3.5461   -0.1145 H   0  0  0  0  0  0  0  0  0  0  0  0
   -1.4794    0.8675    1.2122 H   0  0  0  0  0  0  0  0  0  0  0  0
    0.3481    3.0469    0.3586 H   0  0  0  0  0  0  0  0  0  0  0  0
   -3.9444    0.7499   -2.3192 H   0  0  0  0  0  0  0  0  0  0  0  0
   -4.4034   -0.3597   -1.0281 H   0  0  0  0  0  0  0  0  0  0  0  0
   -1.9213    2.7840   -0.0132 H   0  0  0  0  0  0  0  0  0  0  0  0
   -3.0100    2.7499   -1.5081 H   0  0  0  0  0  0  0  0  0  0  0  0
   -2.5507   -1.5701   -1.4752 H   0  0  0  0  0  0  0  0  0  0  0  0
  1 12  1  0  0  0  0
  1 13  1  0  0  0  0
  2 13  1  0  0  0  0
  2 15  1  0  0  0  0
  3  9  1  0  0  0  0
  3 27  1  0  0  0  0
  4 10  1  0  0  0  0
  4 28  1  0  0  0  0
  5 11  1  0  0  0  0
  5 29  1  0  0  0  0
  6 14  1  0  0  0  0
  6 31  1  0  0  0  0
  7 17  1  0  0  0  0
  7 36  1  0  0  0  0
  8 18  3  0  0  0  0
  9 10  1  0  0  0  0
  9 11  1  0  0  0  0
  9 20  1  0  0  0  0
 10 12  1  0  0  0  0
 10 21  1  0  0  0  0
 11 13  1  0  0  0  0
 11 22  1  0  0  0  0
 12 14  1  0  0  0  0
 12 23  1  0  0  0  0
 13 24  1  0  0  0  0
 14 25  1  0  0  0  0
 14 26  1  0  0  0  0
 15 16  1  0  0  0  0
 15 18  1  0  0  0  0
 15 30  1  0  0  0  0
 16 17  1  0  0  0  0
 16 19  2  0  0  0  0
 17 32  1  0  0  0  0
 17 33  1  0  0  0  0
 19 34  1  0  0  0  0
 19 35  1  0  0  0  0
M  END
> <PUBCHEM_COMPOUND_CID>
179647

> <PUBCHEM_CONFORMER_RMSD>
0.8

> <PUBCHEM_CONFORMER_DIVERSEORDER>
1
103
134
76
135
179
20
33
96
98
137
154
151
68
32
166
116
118
162
58
45
111
84
73
39
65
141
119
132
177
123
17
171
97
108
74
64
105
59
26
47
142
155
106
125
101
36
52
21
167
56
82
72
99
50
10
136
57
94
109
170
38
148
90
16
53
117
126
70
60
78
153
85
110
23
152
91
150
130
69
15
168
176
100
102
24
140
165
112
172
173
146
9
83
66
149
180
6
71
40
114
8
86
122
157
104
133
131
95
13
48
147
27
35
124
46
37
80
121
87
19
55
156
11
30
175
143
81
129
144
44
29
164
113
63
79
120
178
88
12
77
145
28
138
61
174
7
169
18
31
14
89
139
75
54
127
92
51
49
128
160
4
161
41
25
158
3
159
22
43
115
34
93
42
67
5
62
2
163
107

> <PUBCHEM_MMFF94_PARTIAL_CHARGES>
26
1 -0.56
10 0.28
11 0.28
12 0.28
13 0.56
14 0.28
15 0.62
16 -0.28
17 0.42
18 0.36
19 -0.3
2 -0.56
27 0.4
28 0.4
29 0.4
3 -0.68
31 0.4
34 0.15
35 0.15
36 0.4
4 -0.68
5 -0.68
6 -0.68
7 -0.68
8 -0.56
9 0.28

> <PUBCHEM_EFFECTIVE_ROTOR_COUNT>
6.2

> <PUBCHEM_PHARMACOPHORE_FEATURES>
15
1 1 acceptor
1 19 hydrophobe
1 2 acceptor
1 3 acceptor
1 3 donor
1 4 acceptor
1 4 donor
1 5 acceptor
1 5 donor
1 6 acceptor
1 6 donor
1 7 acceptor
1 7 donor
1 8 acceptor
6 1 9 10 11 12 13 rings

> <PUBCHEM_HEAVY_ATOM_COUNT>
19

> <PUBCHEM_ATOM_DEF_STEREO_COUNT>
6

> <PUBCHEM_ATOM_UDEF_STEREO_COUNT>
0

> <PUBCHEM_BOND_DEF_STEREO_COUNT>
0

> <PUBCHEM_BOND_UDEF_STEREO_COUNT>
0

> <PUBCHEM_ISOTOPIC_ATOM_COUNT>
0

> <PUBCHEM_COMPONENT_COUNT>
1

> <PUBCHEM_CACTVS_TAUTO_COUNT>
1

> <PUBCHEM_CONFORMER_ID>
0002BDBF00000001

> <PUBCHEM_MMFF94_ENERGY>
40.0259

> <PUBCHEM_FEATURE_SELFOVERLAP>
76.182

> <PUBCHEM_SHAPE_FINGERPRINT>
10366900 7 18130779071267716995
10608611 8 18343863337808528617
12403259 226 18343294855821270179
12596599 1 17603583027909359940
12654215 9 18270403918290560574
13140716 1 17977942389556694984
13583140 156 17130451007183442808
14250199 8 18337117778201059637
14251745 187 18271254914220481748
15219456 202 18271518775509561123
15653759 3 17703781527059792649
16945 1 18409730621357874650
18186145 218 18187638077356705946
18219364 16 18342457010801842259
19049666 15 18130221678722207067
20645477 70 18261960772316210727
21041028 32 18191004884650132273
21524375 3 17975978666005280728
21639500 275 18336268929311908368
22802520 49 18271806847693467633
23402539 116 18262248819452467150
23419403 2 16338370381660774567
23526113 38 18271253827482440608
23557571 272 17561081363631472859
23598291 2 17894628201209981207
238 59 18267042590695267005
2748010 2 18201441311766553613
31174 14 18268129999258229193
6049 1 18130779053903036433
6438718 38 17248086948463793089
6992083 37 17677892512102946405
77492 1 17385721396088311963
7832392 63 18119539974872193893
81228 2 17329713635369013698

> <PUBCHEM_SHAPE_MULTIPOLES>
344.94
6.82
2.84
1.39
0.35
1.26
0.03
-0.44
0.41
-1.82
-0.2
2.1
-0.44
1.12

> <PUBCHEM_SHAPE_SELFOVERLAP>
692.003

> <PUBCHEM_SHAPE_VOLUME>
198.1

> <PUBCHEM_COORDINATE_TYPE>
2
5
10

$$$$

