11953983
  -OEChem-07051213022D

 96100  0     1  0  0  0  0  0999 V2000
    8.9962   -1.7500    0.0000 O   0  0  0  0  0  0  0  0  0  0  0  0
    8.9962   -0.7500    0.0000 O   0  0  0  0  0  0  0  0  0  0  0  0
    6.3981    0.7500    0.0000 O   0  0  0  0  0  0  0  0  0  0  0  0
    6.3981   -3.2500    0.0000 O   0  0  0  0  0  0  0  0  0  0  0  0
    5.0393    4.6939    0.0000 O   0  0  0  0  0  0  0  0  0  0  0  0
    5.1900    4.1897    0.0000 O   0  0  0  0  0  0  0  0  0  0  0  0
    2.8680    3.7742    0.0000 O   0  0  0  0  0  0  0  0  0  0  0  0
    7.3981    1.7500    0.0000 O   0  0  0  0  0  0  0  0  0  0  0  0
   11.5942    3.7500    0.0000 O   0  0  0  0  0  0  0  0  0  0  0  0
    8.1301   -1.2500    0.0000 C   0  0  2  0  0  0  0  0  0  0  0  0
    8.9962   -2.7500    0.0000 C   0  0  1  0  0  0  0  0  0  0  0  0
    8.1301   -3.2500    0.0000 C   0  0  2  0  0  0  0  0  0  0  0  0
    7.2641   -1.7500    0.0000 C   0  0  0  0  0  0  0  0  0  0  0  0
    7.2641   -0.7500    0.0000 C   0  0  0  0  0  0  0  0  0  0  0  0
    7.2641   -2.7500    0.0000 C   0  0  2  0  0  0  0  0  0  0  0  0
    7.2641    0.2500    0.0000 C   0  0  2  0  0  0  0  0  0  0  0  0
    8.9962    0.2500    0.0000 C   0  0  1  0  0  0  0  0  0  0  0  0
    8.1301    0.7500    0.0000 C   0  0  0  0  0  0  0  0  0  0  0  0
    9.8622   -3.2500    0.0000 C   0  0  3  0  0  0  0  0  0  0  0  0
    5.5320    3.2500    0.0000 C   0  0  1  0  0  0  0  0  0  0  0  0
    4.6381    3.7847    0.0000 C   0  0  1  0  0  0  0  0  0  0  0  0
    5.5320    2.2500    0.0000 C   0  0  2  0  0  0  0  0  0  0  0  0
    8.1301   -4.2500    0.0000 C   0  0  0  0  0  0  0  0  0  0  0  0
    3.7320    3.2708    0.0000 C   0  0  1  0  0  0  0  0  0  0  0  0
    9.8622    0.7500    0.0000 C   0  0  0  0  0  0  0  0  0  0  0  0
    9.8622   -4.2500    0.0000 C   0  0  0  0  0  0  0  0  0  0  0  0
    6.3981    3.7500    0.0000 C   0  0  0  0  0  0  0  0  0  0  0  0
    6.3981    1.7500    0.0000 C   0  0  0  0  0  0  0  0  0  0  0  0
   10.7282   -2.7500    0.0000 C   0  0  0  0  0  0  0  0  0  0  0  0
    4.6381    1.7153    0.0000 C   0  0  0  0  0  0  0  0  0  0  0  0
    3.7320    2.2292    0.0000 C   0  0  0  0  0  0  0  0  0  0  0  0
    6.0330    4.6743    0.0000 C   0  0  0  0  0  0  0  0  0  0  0  0
    9.8622    1.7500    0.0000 C   0  0  0  0  0  0  0  0  0  0  0  0
   10.7282   -4.7500    0.0000 C   0  0  0  0  0  0  0  0  0  0  0  0
    7.2641    3.2500    0.0000 C   0  0  0  0  0  0  0  0  0  0  0  0
    2.8680    1.7258    0.0000 C   0  0  0  0  0  0  0  0  0  0  0  0
   10.7282    2.2500    0.0000 C   0  0  0  0  0  0  0  0  0  0  0  0
   10.7282    3.2500    0.0000 C   0  0  2  0  0  0  0  0  0  0  0  0
    8.1301    3.7500    0.0000 C   0  0  0  0  0  0  0  0  0  0  0  0
    9.8622    3.7500    0.0000 C   0  0  2  0  0  0  0  0  0  0  0  0
    2.0000    3.2775    0.0000 C   0  0  0  0  0  0  0  0  0  0  0  0
    8.9962    3.2500    0.0000 C   0  0  0  0  0  0  0  0  0  0  0  0
   11.5942    1.7500    0.0000 C   0  0  0  0  0  0  0  0  0  0  0  0
    9.8622    4.7500    0.0000 C   0  0  0  0  0  0  0  0  0  0  0  0
    9.5331   -2.4400    0.0000 H   0  0  0  0  0  0  0  0  0  0  0  0
    8.6671   -3.5600    0.0000 H   0  0  0  0  0  0  0  0  0  0  0  0
    7.0520   -1.1674    0.0000 H   0  0  0  0  0  0  0  0  0  0  0  0
    6.6535   -1.8577    0.0000 H   0  0  0  0  0  0  0  0  0  0  0  0
    6.6535   -0.6423    0.0000 H   0  0  0  0  0  0  0  0  0  0  0  0
    7.0520   -1.3326    0.0000 H   0  0  0  0  0  0  0  0  0  0  0  0
    7.2641   -3.3700    0.0000 H   0  0  0  0  0  0  0  0  0  0  0  0
    6.5280   -0.1750    0.0000 H   0  0  0  0  0  0  0  0  0  0  0  0
    9.7323   -0.1750    0.0000 H   0  0  0  0  0  0  0  0  0  0  0  0
    8.5287    1.2250    0.0000 H   0  0  0  0  0  0  0  0  0  0  0  0
    7.7316    1.2250    0.0000 H   0  0  0  0  0  0  0  0  0  0  0  0
   10.5983   -3.6750    0.0000 H   0  0  0  0  0  0  0  0  0  0  0  0
    4.0077    4.3548    0.0000 H   0  0  0  0  0  0  0  0  0  0  0  0
    5.5320    1.4000    0.0000 H   0  0  0  0  0  0  0  0  0  0  0  0
    7.5101   -4.2500    0.0000 H   0  0  0  0  0  0  0  0  0  0  0  0
    8.1301   -4.8700    0.0000 H   0  0  0  0  0  0  0  0  0  0  0  0
    8.7501   -4.2500    0.0000 H   0  0  0  0  0  0  0  0  0  0  0  0
    3.1945    2.9618    0.0000 H   0  0  0  0  0  0  0  0  0  0  0  0
   10.0742    0.1674    0.0000 H   0  0  0  0  0  0  0  0  0  0  0  0
   10.4728    0.8577    0.0000 H   0  0  0  0  0  0  0  0  0  0  0  0
    9.2516   -4.1423    0.0000 H   0  0  0  0  0  0  0  0  0  0  0  0
    9.6501   -4.8326    0.0000 H   0  0  0  0  0  0  0  0  0  0  0  0
   11.0382   -3.2869    0.0000 H   0  0  0  0  0  0  0  0  0  0  0  0
   11.2651   -2.4400    0.0000 H   0  0  0  0  0  0  0  0  0  0  0  0
   10.4182   -2.2131    0.0000 H   0  0  0  0  0  0  0  0  0  0  0  0
    4.6453    1.0954    0.0000 H   0  0  0  0  0  0  0  0  0  0  0  0
    6.6346    4.8242    0.0000 H   0  0  0  0  0  0  0  0  0  0  0  0
    5.9635    5.2904    0.0000 H   0  0  0  0  0  0  0  0  0  0  0  0
    6.3981   -3.8700    0.0000 H   0  0  0  0  0  0  0  0  0  0  0  0
    4.6074    4.4018    0.0000 H   0  0  0  0  0  0  0  0  0  0  0  0
    9.3252    2.0600    0.0000 H   0  0  0  0  0  0  0  0  0  0  0  0
   10.4182   -5.2869    0.0000 H   0  0  0  0  0  0  0  0  0  0  0  0
   11.2651   -5.0600    0.0000 H   0  0  0  0  0  0  0  0  0  0  0  0
   11.0382   -4.2131    0.0000 H   0  0  0  0  0  0  0  0  0  0  0  0
    7.5742    2.7131    0.0000 H   0  0  0  0  0  0  0  0  0  0  0  0
    2.5559    2.2616    0.0000 H   0  0  0  0  0  0  0  0  0  0  0  0
    2.3322    1.4138    0.0000 H   0  0  0  0  0  0  0  0  0  0  0  0
    3.1800    1.1901    0.0000 H   0  0  0  0  0  0  0  0  0  0  0  0
   10.7282    3.8700    0.0000 H   0  0  0  0  0  0  0  0  0  0  0  0
    8.1301    4.3700    0.0000 H   0  0  0  0  0  0  0  0  0  0  0  0
   10.3991    4.0600    0.0000 H   0  0  0  0  0  0  0  0  0  0  0  0
    1.6921    3.8156    0.0000 H   0  0  0  0  0  0  0  0  0  0  0  0
    1.4619    2.9696    0.0000 H   0  0  0  0  0  0  0  0  0  0  0  0
    2.3079    2.7394    0.0000 H   0  0  0  0  0  0  0  0  0  0  0  0
    8.9962    2.6300    0.0000 H   0  0  0  0  0  0  0  0  0  0  0  0
   11.2842    1.2131    0.0000 H   0  0  0  0  0  0  0  0  0  0  0  0
   12.1312    1.4400    0.0000 H   0  0  0  0  0  0  0  0  0  0  0  0
   11.9042    2.2869    0.0000 H   0  0  0  0  0  0  0  0  0  0  0  0
   10.4822    4.7500    0.0000 H   0  0  0  0  0  0  0  0  0  0  0  0
    9.8622    5.3700    0.0000 H   0  0  0  0  0  0  0  0  0  0  0  0
    9.2422    4.7500    0.0000 H   0  0  0  0  0  0  0  0  0  0  0  0
   12.1312    3.4400    0.0000 H   0  0  0  0  0  0  0  0  0  0  0  0
 10  1  1  6  0  0  0
  1 11  1  0  0  0  0
  2 10  1  0  0  0  0
  2 17  1  0  0  0  0
  3 16  1  0  0  0  0
  3 28  1  0  0  0  0
 15  4  1  1  0  0  0
  4 73  1  0  0  0  0
  5 21  1  0  0  0  0
  5 32  1  0  0  0  0
 20  6  1  6  0  0  0
  6 74  1  0  0  0  0
 24  7  1  1  0  0  0
  7 41  1  0  0  0  0
  8 28  2  0  0  0  0
 38  9  1  6  0  0  0
  9 96  1  0  0  0  0
 10 13  1  0  0  0  0
 10 14  1  0  0  0  0
 11 12  1  0  0  0  0
 11 19  1  6  0  0  0
 11 45  1  0  0  0  0
 12 15  1  0  0  0  0
 12 23  1  1  0  0  0
 12 46  1  0  0  0  0
 13 15  1  0  0  0  0
 13 47  1  0  0  0  0
 13 48  1  0  0  0  0
 14 16  1  0  0  0  0
 14 49  1  0  0  0  0
 14 50  1  0  0  0  0
 15 51  1  0  0  0  0
 16 18  1  0  0  0  0
 16 52  1  6  0  0  0
 17 18  1  0  0  0  0
 17 25  1  0  0  0  0
 17 53  1  6  0  0  0
 18 54  1  0  0  0  0
 18 55  1  0  0  0  0
 19 26  1  0  0  0  0
 19 29  1  0  0  0  0
 19 56  1  0  0  0  0
 20 21  1  0  0  0  0
 20 22  1  0  0  0  0
 20 27  1  0  0  0  0
 21 24  1  0  0  0  0
 21 57  1  6  0  0  0
 22 28  1  0  0  0  0
 22 30  1  0  0  0  0
 22 58  1  1  0  0  0
 23 59  1  0  0  0  0
 23 60  1  0  0  0  0
 23 61  1  0  0  0  0
 24 31  1  0  0  0  0
 24 62  1  0  0  0  0
 25 33  1  0  0  0  0
 25 63  1  0  0  0  0
 25 64  1  0  0  0  0
 26 34  1  0  0  0  0
 26 65  1  0  0  0  0
 26 66  1  0  0  0  0
 27 32  1  0  0  0  0
 27 35  2  0  0  0  0
 29 67  1  0  0  0  0
 29 68  1  0  0  0  0
 29 69  1  0  0  0  0
 30 31  2  0  0  0  0
 30 70  1  0  0  0  0
 31 36  1  0  0  0  0
 32 71  1  0  0  0  0
 32 72  1  0  0  0  0
 33 37  2  0  0  0  0
 33 75  1  0  0  0  0
 34 76  1  0  0  0  0
 34 77  1  0  0  0  0
 34 78  1  0  0  0  0
 35 39  1  0  0  0  0
 35 79  1  0  0  0  0
 36 80  1  0  0  0  0
 36 81  1  0  0  0  0
 36 82  1  0  0  0  0
 37 38  1  0  0  0  0
 37 43  1  0  0  0  0
 38 40  1  0  0  0  0
 38 83  1  0  0  0  0
 39 42  2  0  0  0  0
 39 84  1  0  0  0  0
 40 42  1  0  0  0  0
 40 44  1  6  0  0  0
 40 85  1  0  0  0  0
 41 86  1  0  0  0  0
 41 87  1  0  0  0  0
 41 88  1  0  0  0  0
 42 89  1  0  0  0  0
 43 90  1  0  0  0  0
 43 91  1  0  0  0  0
 43 92  1  0  0  0  0
 44 93  1  0  0  0  0
 44 94  1  0  0  0  0
 44 95  1  0  0  0  0
M  END
> <PUBCHEM_COMPOUND_CID>
11953983

> <PUBCHEM_COMPOUND_CANONICALIZED>
1

> <PUBCHEM_CACTVS_COMPLEXITY>
1190

> <PUBCHEM_CACTVS_HBOND_ACCEPTOR>
9

> <PUBCHEM_CACTVS_HBOND_DONOR>
3

> <PUBCHEM_CACTVS_ROTATABLE_BOND>
3

> <PUBCHEM_CACTVS_SUBSKEYS>
AAADcfB8PAAAAAAAAAAAAAAAAAAAASAAAAAkSIAAAAAAAEAAAAAAGgAACAAADVSggAICCAAABgCIAiDSCAAAAAAgAAAICAEAAAgZFBYAIQAiUAAF4AAPsAPK7OzOgAAAAAAAAAAAAAAAAAAAAAAAAAAAAA==

> <PUBCHEM_IUPAC_INCHI>
InChI=1S/C35H52O9/c1-8-19(2)30-23(6)28(36)17-34(44-30)16-26-15-25(43-34)13-12-21(4)29(37)20(3)10-9-11-24-18-41-32-31(40-7)22(5)14-27(33(38)42-26)35(24,32)39/h9-12,14,19-20,23,25-32,36-37,39H,8,13,15-18H2,1-7H3/b10-9+,21-12+,24-11+/t19?,20-,23-,25+,26-,27-,28-,29-,30+,31+,32+,34-,35+/m0/s1

> <PUBCHEM_IUPAC_INCHIKEY>
LYBOOCMZYUURMK-IYDKXMBSSA-N

> <PUBCHEM_XLOGP3_AA>
2.9

> <PUBCHEM_EXACT_MASS>
616.361133

> <PUBCHEM_MOLECULAR_FORMULA>
C35H52O9

> <PUBCHEM_MOLECULAR_WEIGHT>
616.78198

> <PUBCHEM_OPENEYE_CAN_SMILES>
CCC(C)C1C(C(CC2(O1)CC3CC(O2)CC=C(C(C(C=CC=C4COC5C4(C(C=C(C5OC)C)C(=O)O3)O)C)O)C)O)C

> <PUBCHEM_OPENEYE_ISO_SMILES>
CCC(C)[C@@H]1[C@H]([C@H](C[C@@]2(O1)C[C@@H]3C[C@H](O2)C/C=C(/[C@H]([C@H](/C=C/C=C/4\CO[C@H]5[C@@]4([C@@H](C=C([C@H]5OC)C)C(=O)O3)O)C)O)\C)O)C

> <PUBCHEM_CACTVS_TPSA>
124

> <PUBCHEM_MONOISOTOPIC_WEIGHT>
616.361133

> <PUBCHEM_TOTAL_CHARGE>
0

> <PUBCHEM_HEAVY_ATOM_COUNT>
44

> <PUBCHEM_ATOM_DEF_STEREO_COUNT>
12

> <PUBCHEM_ATOM_UDEF_STEREO_COUNT>
1

> <PUBCHEM_BOND_DEF_STEREO_COUNT>
3

> <PUBCHEM_BOND_UDEF_STEREO_COUNT>
0

> <PUBCHEM_ISOTOPIC_ATOM_COUNT>
0

> <PUBCHEM_COMPONENT_COUNT>
1

> <PUBCHEM_CACTVS_TAUTO_COUNT>
1

> <PUBCHEM_COORDINATE_TYPE>
1
5
255

> <PUBCHEM_BONDANNOTATIONS>
10  1  6
11  19  6
12  23  5
16  52  6
17  53  6
19  56  3
21  57  6
22  58  5
15  4  5
40  44  6
20  6  6
24  7  5
38  9  6

$$$$

