4325
  -OEChem-06261200022D

 54 56  0     1  0  0  0  0  0999 V2000
    7.9452    1.9322    0.0000 O   0  0  0  0  0  0  0  0  0  0  0  0
   11.1914    3.5013    0.0000 O   0  0  0  0  0  0  0  0  0  0  0  0
   11.5486    1.8065    0.0000 O   0  0  0  0  0  0  0  0  0  0  0  0
    9.1879    5.7342    0.0000 O   0  0  0  0  0  0  0  0  0  0  0  0
    7.8987    4.5775    0.0000 O   0  0  0  0  0  0  0  0  0  0  0  0
    9.5916    1.3941    0.0000 N   0  0  0  0  0  0  0  0  0  0  0  0
    3.4030   -4.0757    0.0000 N   0  0  0  0  0  0  0  0  0  0  0  0
    6.0812   -5.3804    0.0000 N   0  0  0  0  0  0  0  0  0  0  0  0
    4.2690   -5.5757    0.0000 N   0  0  0  0  0  0  0  0  0  0  0  0
    2.5369   -5.5757    0.0000 N   0  0  0  0  0  0  0  0  0  0  0  0
    6.3919   -2.8204    0.0000 C   0  0  0  0  0  0  0  0  0  0  0  0
    6.0812   -3.7710    0.0000 C   0  0  0  0  0  0  0  0  0  0  0  0
    7.3704   -2.6142    0.0000 C   0  0  0  0  0  0  0  0  0  0  0  0
    5.1350   -4.0757    0.0000 C   0  0  0  0  0  0  0  0  0  0  0  0
    7.6811   -1.6637    0.0000 C   0  0  0  0  0  0  0  0  0  0  0  0
    9.9022    2.3446    0.0000 C   0  0  3  0  0  0  0  0  0  0  0  0
    4.2690   -3.5757    0.0000 C   0  0  0  0  0  0  0  0  0  0  0  0
    5.1350   -5.0757    0.0000 C   0  0  0  0  0  0  0  0  0  0  0  0
    9.2344    3.0889    0.0000 C   0  0  0  0  0  0  0  0  0  0  0  0
    6.6648   -4.5757    0.0000 C   0  0  0  0  0  0  0  0  0  0  0  0
    7.0132   -0.9194    0.0000 C   0  0  0  0  0  0  0  0  0  0  0  0
    8.6596   -1.4575    0.0000 C   0  0  0  0  0  0  0  0  0  0  0  0
    8.3024    0.2373    0.0000 C   0  0  0  0  0  0  0  0  0  0  0  0
    9.5450    4.0394    0.0000 C   0  0  0  0  0  0  0  0  0  0  0  0
    7.3239    0.0311    0.0000 C   0  0  0  0  0  0  0  0  0  0  0  0
    8.9702   -0.5070    0.0000 C   0  0  0  0  0  0  0  0  0  0  0  0
    8.6130    1.1879    0.0000 C   0  0  0  0  0  0  0  0  0  0  0  0
    4.2690   -2.5757    0.0000 C   0  0  0  0  0  0  0  0  0  0  0  0
    3.4030   -5.0757    0.0000 C   0  0  0  0  0  0  0  0  0  0  0  0
   10.8807    2.5508    0.0000 C   0  0  0  0  0  0  0  0  0  0  0  0
    8.8772    4.7837    0.0000 C   0  0  0  0  0  0  0  0  0  0  0  0
    6.3713   -2.2008    0.0000 H   0  0  0  0  0  0  0  0  0  0  0  0
    5.7781   -2.7331    0.0000 H   0  0  0  0  0  0  0  0  0  0  0  0
    7.3910   -3.2339    0.0000 H   0  0  0  0  0  0  0  0  0  0  0  0
    7.9842   -2.7016    0.0000 H   0  0  0  0  0  0  0  0  0  0  0  0
   10.3163    1.8831    0.0000 H   0  0  0  0  0  0  0  0  0  0  0  0
    8.6875    3.3809    0.0000 H   0  0  0  0  0  0  0  0  0  0  0  0
    8.8518    2.6010    0.0000 H   0  0  0  0  0  0  0  0  0  0  0  0
    7.2848   -4.5757    0.0000 H   0  0  0  0  0  0  0  0  0  0  0  0
    6.4065   -1.0473    0.0000 H   0  0  0  0  0  0  0  0  0  0  0  0
    9.0736   -1.9190    0.0000 H   0  0  0  0  0  0  0  0  0  0  0  0
   10.0056    0.9326    0.0000 H   0  0  0  0  0  0  0  0  0  0  0  0
   10.0920    3.7474    0.0000 H   0  0  0  0  0  0  0  0  0  0  0  0
    9.9276    4.5273    0.0000 H   0  0  0  0  0  0  0  0  0  0  0  0
    2.8660   -3.7657    0.0000 H   0  0  0  0  0  0  0  0  0  0  0  0
    6.9098    0.4926    0.0000 H   0  0  0  0  0  0  0  0  0  0  0  0
    9.5769   -0.3791    0.0000 H   0  0  0  0  0  0  0  0  0  0  0  0
    4.8890   -2.5757    0.0000 H   0  0  0  0  0  0  0  0  0  0  0  0
    4.2690   -1.9557    0.0000 H   0  0  0  0  0  0  0  0  0  0  0  0
    3.6490   -2.5757    0.0000 H   0  0  0  0  0  0  0  0  0  0  0  0
    2.5369   -6.1957    0.0000 H   0  0  0  0  0  0  0  0  0  0  0  0
    2.0000   -5.2657    0.0000 H   0  0  0  0  0  0  0  0  0  0  0  0
   11.7981    3.6292    0.0000 H   0  0  0  0  0  0  0  0  0  0  0  0
    8.7738    6.1957    0.0000 H   0  0  0  0  0  0  0  0  0  0  0  0
  1 27  2  0  0  0  0
  2 30  1  0  0  0  0
  2 53  1  0  0  0  0
  3 30  2  0  0  0  0
  4 31  1  0  0  0  0
  4 54  1  0  0  0  0
  5 31  2  0  0  0  0
  6 16  1  0  0  0  0
  6 27  1  0  0  0  0
  6 42  1  0  0  0  0
  7 17  1  0  0  0  0
  7 29  1  0  0  0  0
  7 45  1  0  0  0  0
  8 18  2  0  0  0  0
  8 20  1  0  0  0  0
  9 18  1  0  0  0  0
  9 29  2  0  0  0  0
 10 29  1  0  0  0  0
 10 51  1  0  0  0  0
 10 52  1  0  0  0  0
 11 12  1  0  0  0  0
 11 13  1  0  0  0  0
 11 32  1  0  0  0  0
 11 33  1  0  0  0  0
 12 14  1  0  0  0  0
 12 20  2  0  0  0  0
 13 15  1  0  0  0  0
 13 34  1  0  0  0  0
 13 35  1  0  0  0  0
 14 17  2  0  0  0  0
 14 18  1  0  0  0  0
 15 21  2  0  0  0  0
 15 22  1  0  0  0  0
 16 19  1  0  0  0  0
 16 30  1  0  0  0  0
 16 36  1  0  0  0  0
 17 28  1  0  0  0  0
 19 24  1  0  0  0  0
 19 37  1  0  0  0  0
 19 38  1  0  0  0  0
 20 39  1  0  0  0  0
 21 25  1  0  0  0  0
 21 40  1  0  0  0  0
 22 26  2  0  0  0  0
 22 41  1  0  0  0  0
 23 25  2  0  0  0  0
 23 26  1  0  0  0  0
 23 27  1  0  0  0  0
 24 31  1  0  0  0  0
 24 43  1  0  0  0  0
 24 44  1  0  0  0  0
 25 46  1  0  0  0  0
 26 47  1  0  0  0  0
 28 48  1  0  0  0  0
 28 49  1  0  0  0  0
 28 50  1  0  0  0  0
M  END
> <PUBCHEM_COMPOUND_CID>
4325

> <PUBCHEM_COMPOUND_CANONICALIZED>
1

> <PUBCHEM_CACTVS_COMPLEXITY>
654

> <PUBCHEM_CACTVS_HBOND_ACCEPTOR>
8

> <PUBCHEM_CACTVS_HBOND_DONOR>
5

> <PUBCHEM_CACTVS_ROTATABLE_BOND>
9

> <PUBCHEM_CACTVS_SUBSKEYS>
AAADceB7uAAAAAAAAAAAAAAAAAAAAWAAAAA8QAAAAAAAAFgBwAAAHgAQCAAADCjBnwQ/uN7JkgCoAzf3fACCgCm1AKAJ2aG4RNiKKHLA3fGEZQhslgLYyae8rsCOwAAAAAAAAACAAAAAAAAAAAAAAAAAAA==

> <PUBCHEM_IUPAC_OPENEYE_NAME>
2-[[4-[2-(2-amino-4-methyl-3H-pyrrolo[2,3-d]pyrimidin-5-yl)ethyl]benzoyl]amino]pentanedioic acid

> <PUBCHEM_IUPAC_CAS_NAME>
2-[[[4-[2-(2-amino-4-methyl-3H-pyrrolo[2,3-d]pyrimidin-5-yl)ethyl]phenyl]-oxomethyl]amino]pentanedioic acid

> <PUBCHEM_IUPAC_NAME>
2-[[4-[2-(2-amino-4-methyl-3H-pyrrolo[2,3-d]pyrimidin-5-yl)ethyl]benzoyl]amino]pentanedioic acid

> <PUBCHEM_IUPAC_SYSTEMATIC_NAME>
2-[[4-[2-(2-azanyl-4-methyl-3H-pyrrolo[2,3-d]pyrimidin-5-yl)ethyl]phenyl]carbonylamino]pentanedioic acid

> <PUBCHEM_IUPAC_TRADITIONAL_NAME>
2-[[4-[2-(2-amino-4-methyl-3H-pyrrolo[2,3-d]pyrimidin-5-yl)ethyl]benzoyl]amino]glutaric acid

> <PUBCHEM_IUPAC_INCHI>
InChI=1S/C21H23N5O5/c1-11-17-14(10-23-18(17)26-21(22)24-11)7-4-12-2-5-13(6-3-12)19(29)25-15(20(30)31)8-9-16(27)28/h2-3,5-6,10,15H,4,7-9H2,1H3,(H,25,29)(H,27,28)(H,30,31)(H3,22,23,24,26)

> <PUBCHEM_IUPAC_INCHIKEY>
FICRNCFTTZHHPO-UHFFFAOYSA-N

> <PUBCHEM_XLOGP3_AA>
1.5

> <PUBCHEM_EXACT_MASS>
425.169919

> <PUBCHEM_MOLECULAR_FORMULA>
C21H23N5O5

> <PUBCHEM_MOLECULAR_WEIGHT>
425.43782

> <PUBCHEM_OPENEYE_CAN_SMILES>
CC1=C2C(=CN=C2N=C(N1)N)CCC3=CC=C(C=C3)C(=O)NC(CCC(=O)O)C(=O)O

> <PUBCHEM_OPENEYE_ISO_SMILES>
CC1=C2C(=CN=C2N=C(N1)N)CCC3=CC=C(C=C3)C(=O)NC(CCC(=O)O)C(=O)O

> <PUBCHEM_CACTVS_TPSA>
171

> <PUBCHEM_MONOISOTOPIC_WEIGHT>
425.169919

> <PUBCHEM_TOTAL_CHARGE>
0

> <PUBCHEM_HEAVY_ATOM_COUNT>
31

> <PUBCHEM_ATOM_DEF_STEREO_COUNT>
0

> <PUBCHEM_ATOM_UDEF_STEREO_COUNT>
1

> <PUBCHEM_BOND_DEF_STEREO_COUNT>
0

> <PUBCHEM_BOND_UDEF_STEREO_COUNT>
0

> <PUBCHEM_ISOTOPIC_ATOM_COUNT>
0

> <PUBCHEM_COMPONENT_COUNT>
1

> <PUBCHEM_CACTVS_TAUTO_COUNT>
18

> <PUBCHEM_COORDINATE_TYPE>
1
5
255

> <PUBCHEM_BONDANNOTATIONS>
12  14  8
12  20  8
14  17  8
15  21  8
15  22  8
21  25  8
22  26  8
23  25  8
23  26  8
16  6  3
7  17  8
7  29  8
8  18  8
8  20  8
9  18  8
9  29  8

$$$$

