66413
  -OEChem-07051213053D

 47 50  0     1  0  0  0  0  0999 V2000
    4.8703   -0.9836   -0.6899 O   0  0  0  0  0  0  0  0  0  0  0  0
   -6.0816   -0.1861   -0.3328 O   0  0  0  0  0  0  0  0  0  0  0  0
    2.4625   -0.5169   -0.3094 C   0  0  1  0  0  0  0  0  0  0  0  0
    1.7744    0.7362    0.2764 C   0  0  2  0  0  0  0  0  0  0  0  0
    0.2878    0.8132   -0.0828 C   0  0  1  0  0  0  0  0  0  0  0  0
    3.9422   -0.2532    0.1089 C   0  0  2  0  0  0  0  0  0  0  0  0
   -0.4386   -0.4366    0.4993 C   0  0  2  0  0  0  0  0  0  0  0  0
    2.6895    1.8779   -0.1527 C   0  0  0  0  0  0  0  0  0  0  0  0
    1.7744   -1.7539    0.2907 C   0  0  0  0  0  0  0  0  0  0  0  0
    4.1060    1.2742   -0.1171 C   0  0  0  0  0  0  0  0  0  0  0  0
    0.2528   -1.7492    0.0452 C   0  0  0  0  0  0  0  0  0  0  0  0
   -0.3826    2.0754    0.4651 C   0  0  0  0  0  0  0  0  0  0  0  0
    2.3637   -0.6082   -1.8611 C   0  0  0  0  0  0  0  0  0  0  0  0
   -1.9415   -0.3737    0.2404 C   0  0  0  0  0  0  0  0  0  0  0  0
    4.2853   -0.6163    1.5593 C   0  0  0  0  0  0  0  0  0  0  0  0
   -1.8161    2.1665   -0.0493 C   0  0  0  0  0  0  0  0  0  0  0  0
   -2.5805    0.8674    0.0265 C   0  0  0  0  0  0  0  0  0  0  0  0
   -2.7392   -1.5305    0.2960 C   0  0  0  0  0  0  0  0  0  0  0  0
   -3.9711    0.9139   -0.1758 C   0  0  0  0  0  0  0  0  0  0  0  0
   -4.1209   -1.4690    0.1018 C   0  0  0  0  0  0  0  0  0  0  0  0
   -4.7367   -0.2477   -0.1387 C   0  0  0  0  0  0  0  0  0  0  0  0
    1.8242    0.6951    1.3749 H   0  0  0  0  0  0  0  0  0  0  0  0
    0.1737    0.8314   -1.1740 H   0  0  0  0  0  0  0  0  0  0  0  0
   -0.3378   -0.3985    1.5951 H   0  0  0  0  0  0  0  0  0  0  0  0
    1.9280   -1.7919    1.3757 H   0  0  0  0  0  0  0  0  0  0  0  0
    2.2111   -2.6734   -0.1169 H   0  0  0  0  0  0  0  0  0  0  0  0
    2.6108    2.7384    0.5197 H   0  0  0  0  0  0  0  0  0  0  0  0
    2.4498    2.2271   -1.1633 H   0  0  0  0  0  0  0  0  0  0  0  0
    4.6272    1.4875   -1.0578 H   0  0  0  0  0  0  0  0  0  0  0  0
    4.6975    1.7396    0.6798 H   0  0  0  0  0  0  0  0  0  0  0  0
    0.0379   -1.9396   -1.0129 H   0  0  0  0  0  0  0  0  0  0  0  0
   -0.1602   -2.6029    0.5953 H   0  0  0  0  0  0  0  0  0  0  0  0
    0.1590    2.9779    0.1610 H   0  0  0  0  0  0  0  0  0  0  0  0
   -0.3800    2.0566    1.5627 H   0  0  0  0  0  0  0  0  0  0  0  0
    2.8575    0.2319   -2.3596 H   0  0  0  0  0  0  0  0  0  0  0  0
    2.8476   -1.5239   -2.2209 H   0  0  0  0  0  0  0  0  0  0  0  0
    1.3351   -0.6334   -2.2283 H   0  0  0  0  0  0  0  0  0  0  0  0
    3.6403   -0.1201    2.2892 H   0  0  0  0  0  0  0  0  0  0  0  0
    4.2260   -1.6990    1.7169 H   0  0  0  0  0  0  0  0  0  0  0  0
    5.3214   -0.3396    1.7901 H   0  0  0  0  0  0  0  0  0  0  0  0
   -1.7984    2.4848   -1.0996 H   0  0  0  0  0  0  0  0  0  0  0  0
   -2.3435    2.9416    0.5200 H   0  0  0  0  0  0  0  0  0  0  0  0
    5.7629   -0.6516   -0.4930 H   0  0  0  0  0  0  0  0  0  0  0  0
   -2.3042   -2.5044    0.4991 H   0  0  0  0  0  0  0  0  0  0  0  0
   -4.4586    1.8687   -0.3624 H   0  0  0  0  0  0  0  0  0  0  0  0
   -4.7033   -2.3856    0.1457 H   0  0  0  0  0  0  0  0  0  0  0  0
   -6.4504   -1.0842   -0.2726 H   0  0  0  0  0  0  0  0  0  0  0  0
  1  6  1  0  0  0  0
  1 43  1  0  0  0  0
  2 21  1  0  0  0  0
  2 47  1  0  0  0  0
  3  4  1  0  0  0  0
  3  6  1  0  0  0  0
  3  9  1  0  0  0  0
  3 13  1  0  0  0  0
  4  5  1  0  0  0  0
  4  8  1  0  0  0  0
  4 22  1  0  0  0  0
  5  7  1  0  0  0  0
  5 12  1  0  0  0  0
  5 23  1  0  0  0  0
  6 10  1  0  0  0  0
  6 15  1  0  0  0  0
  7 11  1  0  0  0  0
  7 14  1  0  0  0  0
  7 24  1  0  0  0  0
  8 10  1  0  0  0  0
  8 27  1  0  0  0  0
  8 28  1  0  0  0  0
  9 11  1  0  0  0  0
  9 25  1  0  0  0  0
  9 26  1  0  0  0  0
 10 29  1  0  0  0  0
 10 30  1  0  0  0  0
 11 31  1  0  0  0  0
 11 32  1  0  0  0  0
 12 16  1  0  0  0  0
 12 33  1  0  0  0  0
 12 34  1  0  0  0  0
 13 35  1  0  0  0  0
 13 36  1  0  0  0  0
 13 37  1  0  0  0  0
 14 17  2  0  0  0  0
 14 18  1  0  0  0  0
 15 38  1  0  0  0  0
 15 39  1  0  0  0  0
 15 40  1  0  0  0  0
 16 17  1  0  0  0  0
 16 41  1  0  0  0  0
 16 42  1  0  0  0  0
 17 19  1  0  0  0  0
 18 20  2  0  0  0  0
 18 44  1  0  0  0  0
 19 21  2  0  0  0  0
 19 45  1  0  0  0  0
 20 21  1  0  0  0  0
 20 46  1  0  0  0  0
M  END
> <PUBCHEM_COMPOUND_CID>
66413

> <PUBCHEM_CONFORMER_RMSD>
0.6

> <PUBCHEM_CONFORMER_DIVERSEORDER>
1

> <PUBCHEM_MMFF94_PARTIAL_CHARGES>
16
1 -0.68
14 -0.14
16 0.14
17 -0.14
18 -0.15
19 -0.15
2 -0.53
20 -0.15
21 0.08
43 0.4
44 0.15
45 0.15
46 0.15
47 0.45
6 0.28
7 0.14

> <PUBCHEM_EFFECTIVE_ROTOR_COUNT>
1.4

> <PUBCHEM_PHARMACOPHORE_FEATURES>
7
1 1 acceptor
1 1 donor
1 2 donor
5 3 4 6 8 10 rings
6 14 17 18 19 20 21 rings
6 3 4 5 7 9 11 rings
6 5 7 12 14 16 17 rings

> <PUBCHEM_HEAVY_ATOM_COUNT>
21

> <PUBCHEM_ATOM_DEF_STEREO_COUNT>
5

> <PUBCHEM_ATOM_UDEF_STEREO_COUNT>
0

> <PUBCHEM_BOND_DEF_STEREO_COUNT>
0

> <PUBCHEM_BOND_UDEF_STEREO_COUNT>
0

> <PUBCHEM_ISOTOPIC_ATOM_COUNT>
0

> <PUBCHEM_COMPONENT_COUNT>
1

> <PUBCHEM_CACTVS_TAUTO_COUNT>
9

> <PUBCHEM_CONFORMER_ID>
0001036D00000001

> <PUBCHEM_MMFF94_ENERGY>
78.6937

> <PUBCHEM_FEATURE_SELFOVERLAP>
35.614

> <PUBCHEM_SHAPE_FINGERPRINT>
10 15 18261970553211998736
10062212 137 18340775866340007531
10498660 4 18412824702802514357
10616163 171 18409165536890272143
10646746 165 18411699915397468972
10759866 29 17988073388542476564
10967382 1 18411136922241108649
11132069 177 18333733511258920459
11471102 20 18410575063193530180
11578080 2 17416432942328683812
12011746 2 18411693280110729820
12166972 35 17704070694148980852
12236239 1 17632578262014790186
12403259 226 18339930415129235820
12403260 363 18341615944805440368
12596599 1 17896298277974247263
12839892 36 18267040499236656722
128620 24 17676489453614046263
13140716 1 18266468602918806426
13224815 77 18410571786207420953
13533116 47 17632304513800582642
13862211 1 18411144627861077451
14115302 16 17845927455276671726
14178342 30 18120378911002823008
14252887 29 17675918815632235502
14790565 3 17760645168142473337
15196674 1 18411418380212062353
15375358 24 18335137587913720759
15536298 74 18335420149258597024
15788980 27 17275105028976289571
16945 1 18267011928855272736
17349148 13 18131353024478782258
17492 89 18341051929357933659
17802600 8 18412266146436943968
17862501 102 18271814557233188578
18186145 218 18131637767957195188
18681886 176 18410012109794578152
19141452 34 17967532338182727399
192875 21 17203603796064032093
19862831 5 17846780702232958641
200 152 18040154015697036025
20261772 1 17822296760046808470
20645477 70 18260544532630506542
20715895 44 17913503599430063805
21267235 1 18410847764048141715
21421861 104 17986678279595203283
21452121 103 18261682454794583912
221490 88 18268985397518559379
23402539 116 18335990787145534046
23557571 272 18114456863654623140
23559900 14 18410292489180198792
239999 70 18333446543525505478
2871803 45 18411982468242120333
3004659 81 18272370875556787396
335352 9 18411699906612297375
34797466 226 16153984634602507537
34934 24 18409735036811335559
350125 39 18412265013262247824
351380 180 18411420600652145098
3680242 22 18341895254970649083
4072396 5 18340218452377949826
4214541 1 18411418440579267113
474 4 17418085486449942748
5104073 3 18411980226538309065
5283173 99 18200041758493655109
5374978 207 18410860945070638840
542803 24 14117800223781813783
69090 78 18260268533774034295
9709674 26 18337102457957678159

> <PUBCHEM_SHAPE_MULTIPOLES>
420.43
10.21
2.06
0.96
5.41
0.49
0.14
-1.46
0.36
0.06
-0.11
-0.96
-0.19
0.06

> <PUBCHEM_SHAPE_SELFOVERLAP>
914.451

> <PUBCHEM_SHAPE_VOLUME>
229.7

> <PUBCHEM_COORDINATE_TYPE>
2
5
10

$$$$

