10983
  -OEChem-07051212553D

 22 21  0     0  0  0  0  0  0999 V2000
   -1.0031    0.0612    0.4798 N   0  0  0  0  0  0  0  0  0  0  0  0
   -3.1417    0.9184    0.7413 N   0  0  0  0  0  0  0  0  0  0  0  0
   -2.8309   -0.5966   -0.9330 N   0  0  0  0  0  0  0  0  0  0  0  0
    2.2709    0.0493   -0.0260 C   0  0  0  0  0  0  0  0  0  0  0  0
    1.2621   -0.7702    0.3259 C   0  0  0  0  0  0  0  0  0  0  0  0
   -0.1133   -0.8323   -0.2611 C   0  0  0  0  0  0  0  0  0  0  0  0
    3.6113   -0.0551    0.6514 C   0  0  0  0  0  0  0  0  0  0  0  0
    2.1863    1.1223   -1.0745 C   0  0  0  0  0  0  0  0  0  0  0  0
   -2.2416    0.1031    0.0963 C   0  0  0  0  0  0  0  0  0  0  0  0
    1.4456   -1.4986    1.1148 H   0  0  0  0  0  0  0  0  0  0  0  0
   -0.4634   -1.8700   -0.1919 H   0  0  0  0  0  0  0  0  0  0  0  0
   -0.0874   -0.5685   -1.3245 H   0  0  0  0  0  0  0  0  0  0  0  0
    3.6376   -0.8487    1.4055 H   0  0  0  0  0  0  0  0  0  0  0  0
    4.3916   -0.2721   -0.0855 H   0  0  0  0  0  0  0  0  0  0  0  0
    3.8578    0.8869    1.1522 H   0  0  0  0  0  0  0  0  0  0  0  0
    2.8627    0.8931   -1.9043 H   0  0  0  0  0  0  0  0  0  0  0  0
    1.1806    1.2425   -1.4853 H   0  0  0  0  0  0  0  0  0  0  0  0
    2.4767    2.0888   -0.6489 H   0  0  0  0  0  0  0  0  0  0  0  0
   -2.8565    1.4979    1.5233 H   0  0  0  0  0  0  0  0  0  0  0  0
   -4.1140    0.9647    0.4568 H   0  0  0  0  0  0  0  0  0  0  0  0
   -3.8166   -0.4838   -1.1442 H   0  0  0  0  0  0  0  0  0  0  0  0
   -2.3116   -1.2456   -1.5134 H   0  0  0  0  0  0  0  0  0  0  0  0
  1  6  1  0  0  0  0
  1  9  2  0  0  0  0
  2  9  1  0  0  0  0
  2 19  1  0  0  0  0
  2 20  1  0  0  0  0
  3  9  1  0  0  0  0
  3 21  1  0  0  0  0
  3 22  1  0  0  0  0
  4  5  2  0  0  0  0
  4  7  1  0  0  0  0
  4  8  1  0  0  0  0
  5  6  1  0  0  0  0
  5 10  1  0  0  0  0
  6 11  1  0  0  0  0
  6 12  1  0  0  0  0
  7 13  1  0  0  0  0
  7 14  1  0  0  0  0
  7 15  1  0  0  0  0
  8 16  1  0  0  0  0
  8 17  1  0  0  0  0
  8 18  1  0  0  0  0
M  END
> <PUBCHEM_COMPOUND_CID>
10983

> <PUBCHEM_CONFORMER_RMSD>
0.4

> <PUBCHEM_CONFORMER_DIVERSEORDER>
1
15
4
13
20
3
17
10
22
14
5
18
8
9
16
21
11
12
2
19
6
7

> <PUBCHEM_MMFF94_PARTIAL_CHARGES>
14
1 -0.7
10 0.15
19 0.4
2 -0.85
20 0.4
21 0.4
22 0.4
3 -0.85
4 -0.28
5 -0.29
6 0.38
7 0.14
8 0.14
9 0.55

> <PUBCHEM_EFFECTIVE_ROTOR_COUNT>
2

> <PUBCHEM_PHARMACOPHORE_FEATURES>
4
1 2 donor
1 3 donor
3 4 7 8 hydrophobe
4 1 2 3 9 cation

> <PUBCHEM_HEAVY_ATOM_COUNT>
9

> <PUBCHEM_ATOM_DEF_STEREO_COUNT>
0

> <PUBCHEM_ATOM_UDEF_STEREO_COUNT>
0

> <PUBCHEM_BOND_DEF_STEREO_COUNT>
0

> <PUBCHEM_BOND_UDEF_STEREO_COUNT>
0

> <PUBCHEM_ISOTOPIC_ATOM_COUNT>
0

> <PUBCHEM_COMPONENT_COUNT>
1

> <PUBCHEM_CACTVS_TAUTO_COUNT>
2

> <PUBCHEM_CONFORMER_ID>
00002AE700000001

> <PUBCHEM_MMFF94_ENERGY>
17.3185

> <PUBCHEM_FEATURE_SELFOVERLAP>
20.353

> <PUBCHEM_SHAPE_FINGERPRINT>
10219947 1 17988649609886956562
10857977 72 14261346929875490839
11062470 55 15864073174012352026
124424 183 16199886036726489726
12897270 3 15430032171244215160
12932764 1 17458058270337868859
14325111 11 17894352189442369674
14390081 3 17967533488632283585
15310529 11 5256411582366033016
15775835 57 18186801404483866800
20279233 1 15285357323144075653
3248919 1 18412823573057258290

> <PUBCHEM_SHAPE_MULTIPOLES>
170.27
5.86
1.03
0.93
0.75
0.29
0.01
0.59
-0.93
-0.64
0.12
0.49
0.04
-0.45

> <PUBCHEM_SHAPE_SELFOVERLAP>
314.705

> <PUBCHEM_SHAPE_VOLUME>
106.8

> <PUBCHEM_COORDINATE_TYPE>
2
5
10

$$$$

