11766
  -OEChem-06261206053D

 34 37  0     0  0  0  0  0  0999 V2000
    0.1223    0.0002   -0.0001 C   0  0  0  0  0  0  0  0  0  0  0  0
   -0.5663    1.2248   -0.0001 C   0  0  0  0  0  0  0  0  0  0  0  0
   -0.5645   -1.2254    0.0000 C   0  0  0  0  0  0  0  0  0  0  0  0
   -1.9784    1.2238    0.0000 C   0  0  0  0  0  0  0  0  0  0  0  0
   -1.9766   -1.2264    0.0000 C   0  0  0  0  0  0  0  0  0  0  0  0
   -2.6652   -0.0018   -0.0001 C   0  0  0  0  0  0  0  0  0  0  0  0
    1.5847    0.0013   -0.0002 C   0  0  0  0  0  0  0  0  0  0  0  0
    0.1197    2.4508   -0.0002 C   0  0  0  0  0  0  0  0  0  0  0  0
    0.1233   -2.4503    0.0001 C   0  0  0  0  0  0  0  0  0  0  0  0
   -2.6661    2.4487    0.0002 C   0  0  0  0  0  0  0  0  0  0  0  0
   -2.6626   -2.4523   -0.0001 C   0  0  0  0  0  0  0  0  0  0  0  0
    2.2667    0.0018    1.2079 C   0  0  0  0  0  0  0  0  0  0  0  0
    2.2668    0.0011   -1.2082 C   0  0  0  0  0  0  0  0  0  0  0  0
   -0.5785    3.6585   -0.0001 C   0  0  0  0  0  0  0  0  0  0  0  0
   -0.5732   -3.6589    0.0003 C   0  0  0  0  0  0  0  0  0  0  0  0
   -1.9697    3.6575    0.0001 C   0  0  0  0  0  0  0  0  0  0  0  0
   -1.9645   -3.6600    0.0001 C   0  0  0  0  0  0  0  0  0  0  0  0
    3.6614    0.0026    1.2081 C   0  0  0  0  0  0  0  0  0  0  0  0
    3.6617    0.0017   -1.2078 C   0  0  0  0  0  0  0  0  0  0  0  0
    4.3590    0.0024    0.0002 C   0  0  0  0  0  0  0  0  0  0  0  0
   -3.7552   -0.0026    0.0000 H   0  0  0  0  0  0  0  0  0  0  0  0
    1.2043    2.5170   -0.0003 H   0  0  0  0  0  0  0  0  0  0  0  0
    1.2079   -2.5150    0.0002 H   0  0  0  0  0  0  0  0  0  0  0  0
   -3.7540    2.4717    0.0003 H   0  0  0  0  0  0  0  0  0  0  0  0
   -3.7504   -2.4768   -0.0002 H   0  0  0  0  0  0  0  0  0  0  0  0
    1.7363    0.0018    2.1567 H   0  0  0  0  0  0  0  0  0  0  0  0
    1.7367    0.0005   -2.1571 H   0  0  0  0  0  0  0  0  0  0  0  0
   -0.0360    4.5995   -0.0002 H   0  0  0  0  0  0  0  0  0  0  0  0
   -0.0295   -4.5992    0.0004 H   0  0  0  0  0  0  0  0  0  0  0  0
   -2.5140    4.5973    0.0002 H   0  0  0  0  0  0  0  0  0  0  0  0
   -2.5074   -4.6006    0.0001 H   0  0  0  0  0  0  0  0  0  0  0  0
    4.2045    0.0031    2.1487 H   0  0  0  0  0  0  0  0  0  0  0  0
    4.2050    0.0015   -2.1483 H   0  0  0  0  0  0  0  0  0  0  0  0
    5.4450    0.0029    0.0004 H   0  0  0  0  0  0  0  0  0  0  0  0
  1  2  2  0  0  0  0
  1  3  1  0  0  0  0
  1  7  1  0  0  0  0
  2  4  1  0  0  0  0
  2  8  1  0  0  0  0
  3  5  1  0  0  0  0
  3  9  2  0  0  0  0
  4  6  2  0  0  0  0
  4 10  1  0  0  0  0
  5  6  1  0  0  0  0
  5 11  2  0  0  0  0
  6 21  1  0  0  0  0
  7 12  2  0  0  0  0
  7 13  1  0  0  0  0
  8 14  2  0  0  0  0
  8 22  1  0  0  0  0
  9 15  1  0  0  0  0
  9 23  1  0  0  0  0
 10 16  2  0  0  0  0
 10 24  1  0  0  0  0
 11 17  1  0  0  0  0
 11 25  1  0  0  0  0
 12 18  1  0  0  0  0
 12 26  1  0  0  0  0
 13 19  2  0  0  0  0
 13 27  1  0  0  0  0
 14 16  1  0  0  0  0
 14 28  1  0  0  0  0
 15 17  2  0  0  0  0
 15 29  1  0  0  0  0
 16 30  1  0  0  0  0
 17 31  1  0  0  0  0
 18 20  2  0  0  0  0
 18 32  1  0  0  0  0
 19 20  1  0  0  0  0
 19 33  1  0  0  0  0
 20 34  1  0  0  0  0
M  END
> <PUBCHEM_COMPOUND_CID>
11766

> <PUBCHEM_CONFORMER_RMSD>
0.6

> <PUBCHEM_CONFORMER_DIVERSEORDER>
1

> <PUBCHEM_MMFF94_PARTIAL_CHARGES>
28
10 -0.15
11 -0.15
12 -0.15
13 -0.15
14 -0.15
15 -0.15
16 -0.15
17 -0.15
18 -0.15
19 -0.15
20 -0.15
21 0.15
22 0.15
23 0.15
24 0.15
25 0.15
26 0.15
27 0.15
28 0.15
29 0.15
30 0.15
31 0.15
32 0.15
33 0.15
34 0.15
6 -0.15
8 -0.15
9 -0.15

> <PUBCHEM_EFFECTIVE_ROTOR_COUNT>
1

> <PUBCHEM_PHARMACOPHORE_FEATURES>
4
6 1 2 3 4 5 6 rings
6 2 4 8 10 14 16 rings
6 3 5 9 11 15 17 rings
6 7 12 13 18 19 20 rings

> <PUBCHEM_HEAVY_ATOM_COUNT>
20

> <PUBCHEM_ATOM_DEF_STEREO_COUNT>
0

> <PUBCHEM_ATOM_UDEF_STEREO_COUNT>
0

> <PUBCHEM_BOND_DEF_STEREO_COUNT>
0

> <PUBCHEM_BOND_UDEF_STEREO_COUNT>
0

> <PUBCHEM_ISOTOPIC_ATOM_COUNT>
0

> <PUBCHEM_COMPONENT_COUNT>
1

> <PUBCHEM_CACTVS_TAUTO_COUNT>
1

> <PUBCHEM_CONFORMER_ID>
00002DF600000001

> <PUBCHEM_MMFF94_ENERGY>
76.0288

> <PUBCHEM_FEATURE_SELFOVERLAP>
20.349

> <PUBCHEM_SHAPE_FINGERPRINT>
10165383 225 17902769079855183824
10319926 262 18191330272611654890
10411042 1 18122624942396283106
10967382 1 16681474625126502823
1100329 8 18338795594769952673
11582403 64 16668021881570546064
11640471 11 17631429268527954372
11680986 33 17975987457687375489
11725454 13 16954551261710214250
12173636 292 18267025140248892308
12553582 1 18195238919271665610
12788726 201 18271516490966975650
13083527 12 17040099549566918450
13140716 1 18266455404652760067
13149001 5 17908178428292745127
138480 1 16537359449682211329
13878862 14 16610825509785466193
14022347 108 18196069084884053071
14178342 30 18341347642968226058
14787075 74 17481998835280170928
14790565 3 18338498821041619185
15042514 8 18412540998679891251
16752209 62 18412833481562673415
16945 1 18410855460381349895
18785283 64 17331665259860748873
19591789 44 18049151465186240875
20510252 161 18334574684941306320
20600515 1 18048060500553706675
20905425 154 18262795284636279982
21421861 104 17187560547400162211
21452121 199 17832997048167777626
21524375 3 17900549178610189901
21650355 55 18267037080304934674
22149856 69 17690546908416024761
23184049 29 18123192303164299860
2334 1 17978510828420174337
23366157 5 17336456914407033107
23402539 116 18261967266522916575
23419403 2 17389974187174724201
23557571 272 18261105228528047772
23559900 14 18188768479085659334
2748010 2 18121228580108849093
3071541 12 17257088693283745101
3091708 16 9129628216752654475
350125 39 17834387196074721649
352729 6 18339923834764052029
43471831 8 18123752221124043833
458136 41 17688292899959585049
484985 159 15966900630797162024
6442390 28 18119232103105603513
7364860 26 17256812719996616865
77492 1 17704072893678456068
81228 2 18334852766972831427
84936 182 17541105697891593632
90316 7 18338801100243104914
9709674 26 18261106413828310622
9981440 41 18051701232508928217

> <PUBCHEM_SHAPE_MULTIPOLES>
411.59
5.46
4.79
0.91
6
0.01
0
-0.01
0
-5.31
0
0.87
0
0

> <PUBCHEM_SHAPE_SELFOVERLAP>
942.171

> <PUBCHEM_SHAPE_VOLUME>
195.4

> <PUBCHEM_COORDINATE_TYPE>
2
5
10

$$$$

