47205800
  -OEChem-06241223003D

 35 35  0     0  0  0  0  0  0999 V2000
    3.6737    3.3029   -0.0727 Cl  0  0  0  0  0  0  0  0  0  0  0  0
   -3.2417   -0.5616    1.3359 O   0  0  0  0  0  0  0  0  0  0  0  0
   -0.4619    0.7698   -0.6323 O   0  0  0  0  0  0  0  0  0  0  0  0
   -2.6155   -0.8302   -0.8833 N   0  0  0  0  0  0  0  0  0  0  0  0
    0.9719   -1.0478   -0.2326 N   0  0  0  0  0  0  0  0  0  0  0  0
   -4.7275    0.2175   -0.4096 C   0  0  0  0  0  0  0  0  0  0  0  0
   -5.6763    0.6696    0.6965 C   0  0  0  0  0  0  0  0  0  0  0  0
    2.2311   -0.4279   -0.0508 C   0  0  0  0  0  0  0  0  0  0  0  0
   -1.3476   -1.4691   -0.6219 C   0  0  0  0  0  0  0  0  0  0  0  0
   -3.4653   -0.4258    0.1359 C   0  0  0  0  0  0  0  0  0  0  0  0
    3.3704   -1.1884    0.2127 C   0  0  0  0  0  0  0  0  0  0  0  0
   -0.2470   -0.4307   -0.5007 C   0  0  0  0  0  0  0  0  0  0  0  0
   -6.9463    1.2801    0.1269 C   0  0  0  0  0  0  0  0  0  0  0  0
    2.3246    0.9610   -0.1390 C   0  0  0  0  0  0  0  0  0  0  0  0
    4.6033   -0.5598    0.3877 C   0  0  0  0  0  0  0  0  0  0  0  0
    3.2999   -2.6779    0.3117 C   0  0  0  0  0  0  0  0  0  0  0  0
    3.5575    1.5894    0.0361 C   0  0  0  0  0  0  0  0  0  0  0  0
    4.6969    0.8290    0.2995 C   0  0  0  0  0  0  0  0  0  0  0  0
   -4.4364    1.0756   -1.0273 H   0  0  0  0  0  0  0  0  0  0  0  0
   -5.2285   -0.5108   -1.0586 H   0  0  0  0  0  0  0  0  0  0  0  0
   -5.1772    1.4041    1.3398 H   0  0  0  0  0  0  0  0  0  0  0  0
   -5.9408   -0.1823    1.3344 H   0  0  0  0  0  0  0  0  0  0  0  0
   -1.4073   -2.0516    0.3031 H   0  0  0  0  0  0  0  0  0  0  0  0
   -1.1294   -2.1354   -1.4622 H   0  0  0  0  0  0  0  0  0  0  0  0
   -2.8760   -0.6597   -1.8504 H   0  0  0  0  0  0  0  0  0  0  0  0
    0.9616   -2.0614   -0.1581 H   0  0  0  0  0  0  0  0  0  0  0  0
   -6.7183    2.1560   -0.4890 H   0  0  0  0  0  0  0  0  0  0  0  0
   -7.6105    1.5979    0.9367 H   0  0  0  0  0  0  0  0  0  0  0  0
   -7.4868    0.5562   -0.4913 H   0  0  0  0  0  0  0  0  0  0  0  0
    1.4837    1.6089   -0.3397 H   0  0  0  0  0  0  0  0  0  0  0  0
    5.5010   -1.1369    0.5933 H   0  0  0  0  0  0  0  0  0  0  0  0
    2.6301   -2.9787    1.1242 H   0  0  0  0  0  0  0  0  0  0  0  0
    2.9500   -3.1104   -0.6315 H   0  0  0  0  0  0  0  0  0  0  0  0
    4.2810   -3.1174    0.5235 H   0  0  0  0  0  0  0  0  0  0  0  0
    5.6641    1.3053    0.4381 H   0  0  0  0  0  0  0  0  0  0  0  0
  1 17  1  0  0  0  0
  2 10  2  0  0  0  0
  3 12  2  0  0  0  0
  4  9  1  0  0  0  0
  4 10  1  0  0  0  0
  4 25  1  0  0  0  0
  5  8  1  0  0  0  0
  5 12  1  0  0  0  0
  5 26  1  0  0  0  0
  6  7  1  0  0  0  0
  6 10  1  0  0  0  0
  6 19  1  0  0  0  0
  6 20  1  0  0  0  0
  7 13  1  0  0  0  0
  7 21  1  0  0  0  0
  7 22  1  0  0  0  0
  8 11  2  0  0  0  0
  8 14  1  0  0  0  0
  9 12  1  0  0  0  0
  9 23  1  0  0  0  0
  9 24  1  0  0  0  0
 11 15  1  0  0  0  0
 11 16  1  0  0  0  0
 13 27  1  0  0  0  0
 13 28  1  0  0  0  0
 13 29  1  0  0  0  0
 14 17  2  0  0  0  0
 14 30  1  0  0  0  0
 15 18  2  0  0  0  0
 15 31  1  0  0  0  0
 16 32  1  0  0  0  0
 16 33  1  0  0  0  0
 16 34  1  0  0  0  0
 17 18  1  0  0  0  0
 18 35  1  0  0  0  0
M  END
> <PUBCHEM_COMPOUND_CID>
47205800

> <PUBCHEM_CONFORMER_RMSD>
0.8

> <PUBCHEM_CONFORMER_DIVERSEORDER>
1
61
100
59
80
132
37
16
75
126
6
33
102
124
103
97
50
28
82
72
23
4
70
98
56
10
68
85
114
48
27
135
128
67
99
64
20
78
15
45
131
14
39
49
83
84
118
117
47
34
38
130
73
136
7
88
115
90
25
36
122
29
101
94
11
77
134
95
74
13
46
12
93
106
54
44
40
119
116
127
3
133
91
71
109
22
8
92
76
5
58
96
26
42
9
24
112
69
113
121
2
21
52
125
31
51
18
110
105
57
19
41
43
63
17
107
30
62
129
53
87
120
66
104
32
123
55
108
65
79
89
81
111
35
86
60

> <PUBCHEM_MMFF94_PARTIAL_CHARGES>
21
1 -0.18
10 0.57
11 -0.14
12 0.57
14 -0.15
15 -0.15
16 0.14
17 0.18
18 -0.15
2 -0.57
25 0.37
26 0.37
3 -0.57
30 0.15
31 0.15
35 0.15
4 -0.73
5 -0.55
6 0.06
8 0.12
9 0.36

> <PUBCHEM_EFFECTIVE_ROTOR_COUNT>
7

> <PUBCHEM_PHARMACOPHORE_FEATURES>
6
1 13 hydrophobe
1 2 acceptor
1 3 acceptor
1 4 donor
1 5 donor
6 8 11 14 15 17 18 rings

> <PUBCHEM_HEAVY_ATOM_COUNT>
18

> <PUBCHEM_ATOM_DEF_STEREO_COUNT>
0

> <PUBCHEM_ATOM_UDEF_STEREO_COUNT>
0

> <PUBCHEM_BOND_DEF_STEREO_COUNT>
0

> <PUBCHEM_BOND_UDEF_STEREO_COUNT>
0

> <PUBCHEM_ISOTOPIC_ATOM_COUNT>
0

> <PUBCHEM_COMPONENT_COUNT>
1

> <PUBCHEM_CACTVS_TAUTO_COUNT>
4

> <PUBCHEM_CONFORMER_ID>
02D04DA800000001

> <PUBCHEM_MMFF94_ENERGY>
38.3734

> <PUBCHEM_FEATURE_SELFOVERLAP>
30.446

> <PUBCHEM_SHAPE_FINGERPRINT>
10354089 29 18410572890140629450
10411042 1 17978511163834825210
11089746 13 17749115465125377512
12107183 9 17831295378183778011
12236239 1 17967256390132568295
12596602 18 18272365361515066881
12616971 3 18334303075836602159
13167372 99 18189051057457761761
13533116 47 18129662036105048619
13675066 3 17917711297000297687
13785724 45 17685771724002897879
13878862 14 18266199338603053997
14251732 16 18339921512147048699
14251764 38 18335977683733687585
14790565 3 17622155772658965092
15188451 53 16486680357168455875
15348495 7 18131062711060633643
15475509 35 16629974342416573858
15527383 91 18272369789146222462
17834072 33 18334581192149075583
20157964 124 18334575785112180455
20281389 69 18341893039601395709
20645477 70 18410864290913894734
212847 35 18113339717070296153
21315764 268 18342178912297907933
22950370 63 11095880471912465551
23402539 116 16877953745738523783
23503953 91 18335148570044973874
23532345 1 18411698760098667754
23557571 272 16917078784000718668
268830 7 18340219513424431703
2767999 5 17676489475764252641
2838139 119 18267030625840150685
300161 21 17894355470681339275
34797466 226 14129065781534248705
351380 180 18410855490810189449
351380 3 12607401083784503457
474 4 18339082562930798096
5104073 3 18271814458238158922
602551 16 15913042063249187058
633830 44 18191025604321045428
8272917 22 18335420192567362630

> <PUBCHEM_SHAPE_MULTIPOLES>
350.6
14.3
2.46
0.83
22.17
1.07
-0.07
5.78
-2.57
-3.88
-0.01
0.49
-0.08
-0.52

> <PUBCHEM_SHAPE_SELFOVERLAP>
701.226

> <PUBCHEM_SHAPE_VOLUME>
206.7

> <PUBCHEM_COORDINATE_TYPE>
2
5
10

$$$$

