439689
  -OEChem-07051212473D

 35 35  0     0  0  0  0  0  0999 V2000
   -1.3601   -0.9439   -2.0240 O   0  0  0  0  0  0  0  0  0  0  0  0
   -0.8096   -1.6670    0.1105 N   0  0  0  0  0  0  0  0  0  0  0  0
    3.3156    0.5310    0.0713 N   0  0  0  0  0  0  0  0  0  0  0  0
    4.4305    2.2986   -0.9309 N   0  0  0  0  0  0  0  0  0  0  0  0
    5.6135    1.0373    0.5539 N   0  0  0  0  0  0  0  0  0  0  0  0
    1.6080   -1.8593   -0.3158 C   0  0  0  0  0  0  0  0  0  0  0  0
    2.0191   -1.2980    1.0506 C   0  0  0  0  0  0  0  0  0  0  0  0
    0.2510   -2.5553   -0.2772 C   0  0  0  0  0  0  0  0  0  0  0  0
    3.3711   -0.5937    1.0065 C   0  0  0  0  0  0  0  0  0  0  0  0
   -1.5397   -0.9223   -0.8091 C   0  0  0  0  0  0  0  0  0  0  0  0
   -2.5859   -0.0304   -0.2460 C   0  0  0  0  0  0  0  0  0  0  0  0
   -2.9463    1.1002   -0.9493 C   0  0  0  0  0  0  0  0  0  0  0  0
   -3.1640   -0.3617    0.9619 C   0  0  0  0  0  0  0  0  0  0  0  0
    4.4009    1.2260   -0.0710 C   0  0  0  0  0  0  0  0  0  0  0  0
   -3.9287    1.9376   -0.4208 C   0  0  0  0  0  0  0  0  0  0  0  0
   -4.1465    0.4757    1.4903 C   0  0  0  0  0  0  0  0  0  0  0  0
   -4.5288    1.6253    0.7989 C   0  0  0  0  0  0  0  0  0  0  0  0
    2.3648   -2.5758   -0.6568 H   0  0  0  0  0  0  0  0  0  0  0  0
    1.5725   -1.0522   -1.0573 H   0  0  0  0  0  0  0  0  0  0  0  0
    2.0626   -2.1123    1.7836 H   0  0  0  0  0  0  0  0  0  0  0  0
    1.2641   -0.5853    1.4036 H   0  0  0  0  0  0  0  0  0  0  0  0
    0.0259   -2.9764   -1.2632 H   0  0  0  0  0  0  0  0  0  0  0  0
    0.2658   -3.3799    0.4434 H   0  0  0  0  0  0  0  0  0  0  0  0
    3.6105   -0.2380    2.0159 H   0  0  0  0  0  0  0  0  0  0  0  0
    4.1400   -1.3127    0.6987 H   0  0  0  0  0  0  0  0  0  0  0  0
   -0.9620   -1.5525    1.1065 H   0  0  0  0  0  0  0  0  0  0  0  0
   -2.4853    1.3603   -1.8975 H   0  0  0  0  0  0  0  0  0  0  0  0
   -2.9208   -1.2636    1.5135 H   0  0  0  0  0  0  0  0  0  0  0  0
   -4.2259    2.8332   -0.9586 H   0  0  0  0  0  0  0  0  0  0  0  0
   -4.6200    0.2289    2.4361 H   0  0  0  0  0  0  0  0  0  0  0  0
   -5.2950    2.2764    1.2097 H   0  0  0  0  0  0  0  0  0  0  0  0
    3.6106    2.5636   -1.4658 H   0  0  0  0  0  0  0  0  0  0  0  0
    5.2694    2.8542   -1.0572 H   0  0  0  0  0  0  0  0  0  0  0  0
    6.4001    1.6489    0.3638 H   0  0  0  0  0  0  0  0  0  0  0  0
    5.7676    0.2904    1.2218 H   0  0  0  0  0  0  0  0  0  0  0  0
  1 10  2  0  0  0  0
  2  8  1  0  0  0  0
  2 10  1  0  0  0  0
  2 26  1  0  0  0  0
  3  9  1  0  0  0  0
  3 14  2  0  0  0  0
  4 14  1  0  0  0  0
  4 32  1  0  0  0  0
  4 33  1  0  0  0  0
  5 14  1  0  0  0  0
  5 34  1  0  0  0  0
  5 35  1  0  0  0  0
  6  7  1  0  0  0  0
  6  8  1  0  0  0  0
  6 18  1  0  0  0  0
  6 19  1  0  0  0  0
  7  9  1  0  0  0  0
  7 20  1  0  0  0  0
  7 21  1  0  0  0  0
  8 22  1  0  0  0  0
  8 23  1  0  0  0  0
  9 24  1  0  0  0  0
  9 25  1  0  0  0  0
 10 11  1  0  0  0  0
 11 12  2  0  0  0  0
 11 13  1  0  0  0  0
 12 15  1  0  0  0  0
 12 27  1  0  0  0  0
 13 16  2  0  0  0  0
 13 28  1  0  0  0  0
 15 17  2  0  0  0  0
 15 29  1  0  0  0  0
 16 17  1  0  0  0  0
 16 30  1  0  0  0  0
 17 31  1  0  0  0  0
M  END
> <PUBCHEM_COMPOUND_CID>
439689

> <PUBCHEM_CONFORMER_RMSD>
0.8

> <PUBCHEM_CONFORMER_DIVERSEORDER>
1
44
68
74
65
29
34
86
105
72
33
110
97
16
37
80
81
56
36
67
38
40
100
78
66
5
48
64
49
25
23
85
99
106
77
21
62
90
93
55
94
79
58
28
46
69
73
102
42
3
45
76
4
22
107
82
83
95
70
7
9
108
35
61
89
18
87
53
10
104
57
2
71
17
91
111
51
30
19
8
26
47
20
63
52
60
11
59
75
14
27
24
84
88
98
50
15
54
43
13
32
96
39
41
12
109
31
92
6
103
101

> <PUBCHEM_MMFF94_PARTIAL_CHARGES>
25
1 -0.57
10 0.54
11 0.09
12 -0.15
13 -0.15
14 0.55
15 -0.15
16 -0.15
17 -0.15
2 -0.73
26 0.37
27 0.15
28 0.15
29 0.15
3 -0.7
30 0.15
31 0.15
32 0.4
33 0.4
34 0.4
35 0.4
4 -0.85
5 -0.85
8 0.3
9 0.25

> <PUBCHEM_EFFECTIVE_ROTOR_COUNT>
7

> <PUBCHEM_PHARMACOPHORE_FEATURES>
6
1 1 acceptor
1 2 donor
1 4 donor
1 5 donor
4 3 4 5 14 cation
6 11 12 13 15 16 17 rings

> <PUBCHEM_HEAVY_ATOM_COUNT>
17

> <PUBCHEM_ATOM_DEF_STEREO_COUNT>
0

> <PUBCHEM_ATOM_UDEF_STEREO_COUNT>
0

> <PUBCHEM_BOND_DEF_STEREO_COUNT>
0

> <PUBCHEM_BOND_UDEF_STEREO_COUNT>
0

> <PUBCHEM_ISOTOPIC_ATOM_COUNT>
0

> <PUBCHEM_COMPONENT_COUNT>
1

> <PUBCHEM_CACTVS_TAUTO_COUNT>
4

> <PUBCHEM_CONFORMER_ID>
0006B58900000001

> <PUBCHEM_MMFF94_ENERGY>
37.6454

> <PUBCHEM_FEATURE_SELFOVERLAP>
30.502

> <PUBCHEM_SHAPE_FINGERPRINT>
10498660 4 17894918433493178696
10681291 71 18409441484228047220
10730089 88 5184348491038959387
12363563 72 10015581735483521618
12633257 1 16128648626860399728
12788726 201 17972623007715142415
12892183 10 17489302031639488411
13828863 39 17630873920571811732
13887833 79 14201116820987976192
14123255 52 18409730655717561036
14123260 362 17894353289027668667
14178342 30 13253972284742307154
1420 369 10952047866355914984
14251764 38 17906741658574818653
14341114 328 16988831770494815804
14848178 5 8862949342648265284
15210252 30 6110200838679206619
15342168 16 18261672683664402477
15352361 1 9223234044183098408
15475509 8 6194554456577491545
17834072 32 18410013230227180368
18785283 64 18340484594728193034
19107657 9 18187652409383238402
193927 3 11239713127790325080
20621476 66 18339920425557466760
21475661 188 17840034266631795069
21503847 285 18341894160065542730
21864079 5 18412552032624538670
22182937 141 18266177236426587154
23403322 49 8646768893732716249
23559900 14 17343485998102842999
23590187 138 18411700941994931384
270888 7 18407762542810369280
27216 239 18201719544264339603
312425 83 14129350588846516288
38570 142 17058061352777280628
44154327 71 18409731793921032144
474 4 18336552723576519499
633830 44 18115586105457634815
76465 3 10519978262340611227
7808743 9 18338515227652224216

> <PUBCHEM_SHAPE_MULTIPOLES>
324.06
11.2
2.49
1.33
7.83
0.15
0.12
-9.37
-2.54
1.33
0.5
-0.78
0.09
-0.67

> <PUBCHEM_SHAPE_SELFOVERLAP>
654.568

> <PUBCHEM_SHAPE_VOLUME>
187.1

> <PUBCHEM_COORDINATE_TYPE>
2
5
10

$$$$

