194461
  -OEChem-07051212472D

 16 16  0     0  0  0  0  0  0999 V2000
    2.8090    0.2239    0.0000 O   0  0  0  0  0  0  0  0  0  0  0  0
    5.9360   -1.7627    0.0000 O   0  0  0  0  0  0  0  0  0  0  0  0
    4.7770   -0.4755    0.0000 N   0  0  0  0  0  0  0  0  0  0  0  0
    4.5691    0.5026    0.0000 C   0  0  0  0  0  0  0  0  0  0  0  0
    3.6180    0.8116    0.0000 C   0  0  0  0  0  0  0  0  0  0  0  0
    3.3090    1.7627    0.0000 C   0  0  0  0  0  0  0  0  0  0  0  0
    2.3090    1.7627    0.0000 C   0  0  0  0  0  0  0  0  0  0  0  0
    2.0000    0.8116    0.0000 C   0  0  0  0  0  0  0  0  0  0  0  0
    5.7281   -0.7845    0.0000 C   0  0  0  0  0  0  0  0  0  0  0  0
    5.1887    0.5243    0.0000 H   0  0  0  0  0  0  0  0  0  0  0  0
    4.6554    1.1166    0.0000 H   0  0  0  0  0  0  0  0  0  0  0  0
    3.6734    2.2643    0.0000 H   0  0  0  0  0  0  0  0  0  0  0  0
    4.3162   -0.8904    0.0000 H   0  0  0  0  0  0  0  0  0  0  0  0
    1.9446    2.2643    0.0000 H   0  0  0  0  0  0  0  0  0  0  0  0
    1.4103    0.6200    0.0000 H   0  0  0  0  0  0  0  0  0  0  0  0
    6.1888   -0.3697    0.0000 H   0  0  0  0  0  0  0  0  0  0  0  0
  1  5  1  0  0  0  0
  1  8  1  0  0  0  0
  2  9  2  0  0  0  0
  3  4  1  0  0  0  0
  3  9  1  0  0  0  0
  3 13  1  0  0  0  0
  4  5  1  0  0  0  0
  4 10  1  0  0  0  0
  4 11  1  0  0  0  0
  5  6  2  0  0  0  0
  6  7  1  0  0  0  0
  6 12  1  0  0  0  0
  7  8  2  0  0  0  0
  7 14  1  0  0  0  0
  8 15  1  0  0  0  0
  9 16  1  0  0  0  0
M  END
> <PUBCHEM_COMPOUND_CID>
194461

> <PUBCHEM_COMPOUND_CANONICALIZED>
1

> <PUBCHEM_CACTVS_COMPLEXITY>
95.1

> <PUBCHEM_CACTVS_HBOND_ACCEPTOR>
2

> <PUBCHEM_CACTVS_HBOND_DONOR>
1

> <PUBCHEM_CACTVS_ROTATABLE_BOND>
2

> <PUBCHEM_CACTVS_SUBSKEYS>
AAADcYBiMAAAAAAAAAAAAAAAAAAAASAAAAAAAAAAAAAAAAABgAAAHgAQAAAACAThkAYwBILABECIAKhSkACCCAAkIAAIiIGODMgOJjKEtTuHGSjkxhEYqYaYEQIAAAAAAAAAAAAAAAAAAAAAAAAAAAAAAA==

> <PUBCHEM_IUPAC_OPENEYE_NAME>
N-(2-furylmethyl)formamide

> <PUBCHEM_IUPAC_CAS_NAME>
N-(2-furanylmethyl)formamide

> <PUBCHEM_IUPAC_NAME>
N-(furan-2-ylmethyl)formamide

> <PUBCHEM_IUPAC_SYSTEMATIC_NAME>
N-(furan-2-ylmethyl)methanamide

> <PUBCHEM_IUPAC_TRADITIONAL_NAME>
N-(2-furfuryl)formamide

> <PUBCHEM_IUPAC_INCHI>
InChI=1S/C6H7NO2/c8-5-7-4-6-2-1-3-9-6/h1-3,5H,4H2,(H,7,8)

> <PUBCHEM_IUPAC_INCHIKEY>
RAZUCHVCRRKTKX-UHFFFAOYSA-N

> <PUBCHEM_XLOGP3_AA>
0.1

> <PUBCHEM_EXACT_MASS>
125.047678

> <PUBCHEM_MOLECULAR_FORMULA>
C6H7NO2

> <PUBCHEM_MOLECULAR_WEIGHT>
125.12528

> <PUBCHEM_OPENEYE_CAN_SMILES>
C1=COC(=C1)CNC=O

> <PUBCHEM_OPENEYE_ISO_SMILES>
C1=COC(=C1)CNC=O

> <PUBCHEM_CACTVS_TPSA>
42.2

> <PUBCHEM_MONOISOTOPIC_WEIGHT>
125.047678

> <PUBCHEM_TOTAL_CHARGE>
0

> <PUBCHEM_HEAVY_ATOM_COUNT>
9

> <PUBCHEM_ATOM_DEF_STEREO_COUNT>
0

> <PUBCHEM_ATOM_UDEF_STEREO_COUNT>
0

> <PUBCHEM_BOND_DEF_STEREO_COUNT>
0

> <PUBCHEM_BOND_UDEF_STEREO_COUNT>
0

> <PUBCHEM_ISOTOPIC_ATOM_COUNT>
0

> <PUBCHEM_COMPONENT_COUNT>
1

> <PUBCHEM_CACTVS_TAUTO_COUNT>
2

> <PUBCHEM_COORDINATE_TYPE>
1
5
255

> <PUBCHEM_BONDANNOTATIONS>
1  5  8
1  8  8
5  6  8
6  7  8
7  8  8

$$$$

