53297436
  -OEChem-07051213143D

 58 61  0     1  0  0  0  0  0999 V2000
   -3.9228   -0.0889    1.9596 O   0  0  0  0  0  0  0  0  0  0  0  0
    0.3839    0.5440    0.7284 O   0  0  0  0  0  0  0  0  0  0  0  0
   -3.1853   -2.5260    0.6482 O   0  0  0  0  0  0  0  0  0  0  0  0
    2.3301   -0.7144    0.4592 O   0  0  0  0  0  0  0  0  0  0  0  0
    1.7881    2.8540   -0.1083 O   0  0  0  0  0  0  0  0  0  0  0  0
    4.6697    2.6610    0.4745 O   0  0  0  0  0  0  0  0  0  0  0  0
    5.7418    0.1731   -0.5338 O   0  0  0  0  0  0  0  0  0  0  0  0
    3.2516   -3.2278   -0.1641 O   0  0  0  0  0  0  0  0  0  0  0  0
   -3.4347    0.9167   -0.2393 C   0  0  0  0  0  0  0  0  0  0  0  0
   -2.8939    0.4712    1.1315 C   0  0  2  0  0  0  0  0  0  0  0  0
   -4.6380    0.2005   -0.8416 C   0  0  0  0  0  0  0  0  0  0  0  0
   -4.7989    1.5838   -0.2894 C   0  0  0  0  0  0  0  0  0  0  0  0
   -1.7633   -0.5674    0.9414 C   0  0  2  0  0  0  0  0  0  0  0  0
   -0.6434   -0.1016   -0.0214 C   0  0  2  0  0  0  0  0  0  0  0  0
   -2.3615    1.3139   -1.2137 C   0  0  0  0  0  0  0  0  0  0  0  0
   -0.0834   -1.4141   -0.5904 C   0  0  0  0  0  0  0  0  0  0  0  0
   -1.1038    0.8364   -1.1129 C   0  0  0  0  0  0  0  0  0  0  0  0
   -2.2098   -1.8773    0.2893 C   0  0  0  0  0  0  0  0  0  0  0  0
   -1.3073   -2.2869   -0.8549 C   0  0  2  0  0  0  0  0  0  0  0  0
   -2.3933    1.6929    1.9232 C   0  0  0  0  0  0  0  0  0  0  0  0
   -2.6816    2.2976   -2.3102 C   0  0  0  0  0  0  0  0  0  0  0  0
   -0.9852   -3.7683   -0.8526 C   0  0  0  0  0  0  0  0  0  0  0  0
    1.6420    0.4683    0.0588 C   0  0  2  0  0  0  0  0  0  0  0  0
    2.4499    1.7109    0.4327 C   0  0  1  0  0  0  0  0  0  0  0  0
    3.8722    1.6377   -0.1231 C   0  0  2  0  0  0  0  0  0  0  0  0
    3.5907   -0.8634   -0.1964 C   0  0  1  0  0  0  0  0  0  0  0  0
    4.5203    0.2892    0.1909 C   0  0  1  0  0  0  0  0  0  0  0  0
    4.1659   -2.2152    0.2145 C   0  0  0  0  0  0  0  0  0  0  0  0
   -5.1140   -0.6090   -0.3030 H   0  0  0  0  0  0  0  0  0  0  0  0
   -5.3617    1.6920    0.6315 H   0  0  0  0  0  0  0  0  0  0  0  0
   -4.9974    2.3828   -0.9924 H   0  0  0  0  0  0  0  0  0  0  0  0
   -4.6964    0.0784   -1.9175 H   0  0  0  0  0  0  0  0  0  0  0  0
   -1.3424   -0.8448    1.9177 H   0  0  0  0  0  0  0  0  0  0  0  0
    0.5010   -1.3125   -1.5117 H   0  0  0  0  0  0  0  0  0  0  0  0
    0.5235   -1.9444    0.1519 H   0  0  0  0  0  0  0  0  0  0  0  0
   -0.3663    1.1563   -1.8447 H   0  0  0  0  0  0  0  0  0  0  0  0
   -1.7938   -1.9965   -1.7929 H   0  0  0  0  0  0  0  0  0  0  0  0
   -3.2192    2.3844    2.1287 H   0  0  0  0  0  0  0  0  0  0  0  0
   -1.6166    2.2568    1.3989 H   0  0  0  0  0  0  0  0  0  0  0  0
   -1.9976    1.3865    2.8985 H   0  0  0  0  0  0  0  0  0  0  0  0
   -4.1684   -0.9597    1.6074 H   0  0  0  0  0  0  0  0  0  0  0  0
   -2.9932    3.2562   -1.8830 H   0  0  0  0  0  0  0  0  0  0  0  0
   -1.8184    2.4977   -2.9547 H   0  0  0  0  0  0  0  0  0  0  0  0
   -3.4814    1.9190   -2.9540 H   0  0  0  0  0  0  0  0  0  0  0  0
   -1.8861   -4.3588   -1.0511 H   0  0  0  0  0  0  0  0  0  0  0  0
   -0.2451   -4.0075   -1.6228 H   0  0  0  0  0  0  0  0  0  0  0  0
   -0.5915   -4.0941    0.1165 H   0  0  0  0  0  0  0  0  0  0  0  0
    1.5285    0.4810   -1.0324 H   0  0  0  0  0  0  0  0  0  0  0  0
    2.4691    1.8422    1.5211 H   0  0  0  0  0  0  0  0  0  0  0  0
    3.8821    1.8342   -1.2017 H   0  0  0  0  0  0  0  0  0  0  0  0
    3.4193   -0.8849   -1.2814 H   0  0  0  0  0  0  0  0  0  0  0  0
    4.7672    0.2387    1.2584 H   0  0  0  0  0  0  0  0  0  0  0  0
    1.7614    2.7586   -1.0757 H   0  0  0  0  0  0  0  0  0  0  0  0
    4.2934   -2.2707    1.3008 H   0  0  0  0  0  0  0  0  0  0  0  0
    5.1261   -2.4085   -0.2731 H   0  0  0  0  0  0  0  0  0  0  0  0
    4.6661    2.5239    1.4372 H   0  0  0  0  0  0  0  0  0  0  0  0
    5.5320    0.2028   -1.4829 H   0  0  0  0  0  0  0  0  0  0  0  0
    3.6342   -4.0781    0.1117 H   0  0  0  0  0  0  0  0  0  0  0  0
  1 10  1  0  0  0  0
  1 41  1  0  0  0  0
  2 14  1  0  0  0  0
  2 23  1  0  0  0  0
  3 18  2  0  0  0  0
  4 23  1  0  0  0  0
  4 26  1  0  0  0  0
  5 24  1  0  0  0  0
  5 53  1  0  0  0  0
  6 25  1  0  0  0  0
  6 56  1  0  0  0  0
  7 27  1  0  0  0  0
  7 57  1  0  0  0  0
  8 28  1  0  0  0  0
  8 58  1  0  0  0  0
  9 10  1  0  0  0  0
  9 11  1  0  0  0  0
  9 12  1  0  0  0  0
  9 15  1  0  0  0  0
 10 13  1  0  0  0  0
 10 20  1  0  0  0  0
 11 12  1  0  0  0  0
 11 29  1  0  0  0  0
 11 32  1  0  0  0  0
 12 30  1  0  0  0  0
 12 31  1  0  0  0  0
 13 14  1  0  0  0  0
 13 18  1  0  0  0  0
 13 33  1  0  0  0  0
 14 16  1  0  0  0  0
 14 17  1  0  0  0  0
 15 17  2  0  0  0  0
 15 21  1  0  0  0  0
 16 19  1  0  0  0  0
 16 34  1  0  0  0  0
 16 35  1  0  0  0  0
 17 36  1  0  0  0  0
 18 19  1  0  0  0  0
 19 22  1  0  0  0  0
 19 37  1  0  0  0  0
 20 38  1  0  0  0  0
 20 39  1  0  0  0  0
 20 40  1  0  0  0  0
 21 42  1  0  0  0  0
 21 43  1  0  0  0  0
 21 44  1  0  0  0  0
 22 45  1  0  0  0  0
 22 46  1  0  0  0  0
 22 47  1  0  0  0  0
 23 24  1  0  0  0  0
 23 48  1  0  0  0  0
 24 25  1  0  0  0  0
 24 49  1  0  0  0  0
 25 27  1  0  0  0  0
 25 50  1  0  0  0  0
 26 27  1  0  0  0  0
 26 28  1  0  0  0  0
 26 51  1  0  0  0  0
 27 52  1  0  0  0  0
 28 54  1  0  0  0  0
 28 55  1  0  0  0  0
M  END
> <PUBCHEM_COMPOUND_CID>
53297436

> <PUBCHEM_CONFORMER_RMSD>
0.8

> <PUBCHEM_CONFORMER_DIVERSEORDER>
1
10
23
20
3
6
30
28
31
13
22
4
32
12
29
18
9
7
27
19
16
11
14
2
17
5
21
26
15
25
24
8

> <PUBCHEM_MMFF94_PARTIAL_CHARGES>
35
1 -0.68
10 0.38
11 -0.2
12 -0.2
13 0.06
14 0.42
15 -0.18
17 -0.29
18 0.45
19 0.06
2 -0.56
21 0.14
23 0.56
24 0.28
25 0.28
26 0.28
27 0.28
28 0.28
29 0.1
3 -0.57
30 0.1
31 0.1
32 0.1
36 0.15
4 -0.56
41 0.4
5 -0.68
53 0.4
56 0.4
57 0.4
58 0.4
6 -0.68
7 -0.68
8 -0.68
9 -0.05

> <PUBCHEM_EFFECTIVE_ROTOR_COUNT>
5.2

> <PUBCHEM_PHARMACOPHORE_FEATURES>
16
1 1 acceptor
1 1 donor
1 2 acceptor
1 3 acceptor
1 4 acceptor
1 5 acceptor
1 5 donor
1 6 acceptor
1 6 donor
1 7 acceptor
1 7 donor
1 8 acceptor
1 8 donor
5 13 14 16 18 19 rings
6 4 23 24 25 26 27 rings
6 9 10 13 14 15 17 rings

> <PUBCHEM_HEAVY_ATOM_COUNT>
28

> <PUBCHEM_ATOM_DEF_STEREO_COUNT>
8

> <PUBCHEM_ATOM_UDEF_STEREO_COUNT>
1

> <PUBCHEM_BOND_DEF_STEREO_COUNT>
0

> <PUBCHEM_BOND_UDEF_STEREO_COUNT>
0

> <PUBCHEM_ISOTOPIC_ATOM_COUNT>
0

> <PUBCHEM_COMPONENT_COUNT>
1

> <PUBCHEM_CACTVS_TAUTO_COUNT>
3

> <PUBCHEM_CONFORMER_ID>
032D411C00000001

> <PUBCHEM_MMFF94_ENERGY>
88.5314

> <PUBCHEM_FEATURE_SELFOVERLAP>
81.51

> <PUBCHEM_SHAPE_FINGERPRINT>
11135926 11 18336256943076505006
11370993 144 18341040930241496489
11552529 35 18115305545003048331
11578080 2 17461457827173347121
12173636 292 18113892762781887561
12236239 1 17313388949887194740
12403259 415 18130229384189357573
12403260 363 18189622807450635883
12422481 6 18198880580067808683
12553582 1 18191302891821173614
12633257 1 18335692896809073362
12788726 201 17530960345256743824
12969540 114 17845396443343408485
13140716 1 18409158939462017459
13224815 77 17845662447594911936
13533116 47 18186805789824733169
13583140 156 18131345315060050051
14178342 30 18189629245991637506
14251757 17 18199754802874585968
16945 1 18191003777297408963
17349148 13 17749113330531730734
19930381 70 18121221145077841998
20645477 56 18272091603877174708
21033648 144 18334869290086877516
21033648 29 18270134498918609756
22393880 68 18335416808628395038
23227448 37 18412830161600413679
23559900 14 18408609184344175850
238 59 17909020881658775997
283562 15 17759815740757389378
3298306 158 18054799643486005287
3380486 145 18270388396642873425
34934 24 18411705391892208610
350125 39 18264483992619541995
3633792 109 18261683674238267413
469060 322 17912642406630668235
474 4 18116147951735985505
5104073 3 18337955585002878784
633830 44 17677598921097457189

> <PUBCHEM_SHAPE_MULTIPOLES>
529.27
9.96
3.48
1.4
8
2.21
-0.03
-2.81
-0.09
1.1
0.68
-1.8
-0.59
0.69

> <PUBCHEM_SHAPE_SELFOVERLAP>
1130.876

> <PUBCHEM_SHAPE_VOLUME>
291.6

> <PUBCHEM_COORDINATE_TYPE>
2
5
10

$$$$

