13656
  -OEChem-06241222393D

 21 22  0     1  0  0  0  0  0999 V2000
    2.8665    1.8686   -0.3395 Cl  0  0  0  0  0  0  0  0  0  0  0  0
    3.9303   -0.4523    0.3903 O   0  0  0  0  0  0  0  0  0  0  0  0
    0.5843   -0.3627   -0.6241 C   0  0  1  0  0  0  0  0  0  0  0  0
    1.5996   -0.3487    0.4760 C   0  0  1  0  0  0  0  0  0  0  0  0
    1.2229   -1.6430   -0.1832 C   0  0  0  0  0  0  0  0  0  0  0  0
   -0.8480   -0.1139   -0.2958 C   0  0  0  0  0  0  0  0  0  0  0  0
    2.9279    0.2284    0.2118 C   0  0  0  0  0  0  0  0  0  0  0  0
   -1.3038    1.1903   -0.1046 C   0  0  0  0  0  0  0  0  0  0  0  0
   -1.7326   -1.1860   -0.1799 C   0  0  0  0  0  0  0  0  0  0  0  0
   -2.6445    1.4226    0.2028 C   0  0  0  0  0  0  0  0  0  0  0  0
   -3.0733   -0.9538    0.1274 C   0  0  0  0  0  0  0  0  0  0  0  0
   -3.5292    0.3505    0.3187 C   0  0  0  0  0  0  0  0  0  0  0  0
    0.8995   -0.0164   -1.6065 H   0  0  0  0  0  0  0  0  0  0  0  0
    1.2506   -0.2195    1.4965 H   0  0  0  0  0  0  0  0  0  0  0  0
    0.7003   -2.3587    0.4397 H   0  0  0  0  0  0  0  0  0  0  0  0
    1.9301   -2.1070   -0.8622 H   0  0  0  0  0  0  0  0  0  0  0  0
   -0.6233    2.0330   -0.1931 H   0  0  0  0  0  0  0  0  0  0  0  0
   -1.4138   -2.2108   -0.3449 H   0  0  0  0  0  0  0  0  0  0  0  0
   -2.9996    2.4382    0.3514 H   0  0  0  0  0  0  0  0  0  0  0  0
   -3.7637   -1.7879    0.2126 H   0  0  0  0  0  0  0  0  0  0  0  0
   -4.5734    0.5314    0.5566 H   0  0  0  0  0  0  0  0  0  0  0  0
  1  7  1  0  0  0  0
  2  7  2  0  0  0  0
  3  4  1  0  0  0  0
  3  5  1  0  0  0  0
  3  6  1  0  0  0  0
  3 13  1  0  0  0  0
  4  5  1  0  0  0  0
  4  7  1  0  0  0  0
  4 14  1  0  0  0  0
  5 15  1  0  0  0  0
  5 16  1  0  0  0  0
  6  8  2  0  0  0  0
  6  9  1  0  0  0  0
  8 10  1  0  0  0  0
  8 17  1  0  0  0  0
  9 11  2  0  0  0  0
  9 18  1  0  0  0  0
 10 12  2  0  0  0  0
 10 19  1  0  0  0  0
 11 12  1  0  0  0  0
 11 20  1  0  0  0  0
 12 21  1  0  0  0  0
M  END
> <PUBCHEM_COMPOUND_CID>
13656

> <PUBCHEM_CONFORMER_RMSD>
0.6

> <PUBCHEM_CONFORMER_DIVERSEORDER>
1
5
3
4
7
6
2

> <PUBCHEM_MMFF94_PARTIAL_CHARGES>
21
1 -0.21
10 -0.15
11 -0.15
12 -0.15
13 0.1
14 0.1
15 0.1
16 0.1
17 0.15
18 0.15
19 0.15
2 -0.57
20 0.15
21 0.15
3 -0.07
4 -0.1
5 -0.2
6 -0.03
7 0.78
8 -0.15
9 -0.15

> <PUBCHEM_EFFECTIVE_ROTOR_COUNT>
2.6

> <PUBCHEM_PHARMACOPHORE_FEATURES>
1
6 6 8 9 10 11 12 rings

> <PUBCHEM_HEAVY_ATOM_COUNT>
12

> <PUBCHEM_ATOM_DEF_STEREO_COUNT>
2

> <PUBCHEM_ATOM_UDEF_STEREO_COUNT>
0

> <PUBCHEM_BOND_DEF_STEREO_COUNT>
0

> <PUBCHEM_BOND_UDEF_STEREO_COUNT>
0

> <PUBCHEM_ISOTOPIC_ATOM_COUNT>
0

> <PUBCHEM_COMPONENT_COUNT>
1

> <PUBCHEM_CACTVS_TAUTO_COUNT>
1

> <PUBCHEM_CONFORMER_ID>
0000355800000001

> <PUBCHEM_MMFF94_ENERGY>
27.5952

> <PUBCHEM_FEATURE_SELFOVERLAP>
5.074

> <PUBCHEM_SHAPE_FINGERPRINT>
10608611 8 18409732901743130053
11031198 65 16950279637076131862
11132069 177 18410018710373354592
12162725 195 18411419501082501544
12251169 10 18342179985548439194
12346645 44 18410856521306889272
12696612 119 18343298167409866956
12932764 1 17418103138839369182
13380535 76 18408324410300091631
14144814 61 18411983589154744650
14325111 11 18410012113503930932
14445660 50 18334002905057026065
15219456 202 18041836336885471263
15775835 57 18337104562713309604
16945 1 18410006650268613823
17802600 8 18409738352141096168
19973954 147 18263923404950906869
200 152 18261127257198752263
20528008 55 18411987957553177021
20645464 45 18187079589858552527
20871998 184 18187360979147355815
21028194 46 18259705584126314690
22485316 2 9727636089972676648
23402539 116 18334305253838721367
23463225 33 18413109459287076892
2748010 2 17977665638574413909
369184 2 17846784031043602971
6333449 129 18334861627817241623
7364860 26 18117556442958199038

> <PUBCHEM_SHAPE_MULTIPOLES>
242.95
6.31
1.7
0.72
1.29
0.32
-0.02
1.05
0.86
0.22
-0.11
0.08
0
-0.27

> <PUBCHEM_SHAPE_SELFOVERLAP>
502.885

> <PUBCHEM_SHAPE_VOLUME>
139.5

> <PUBCHEM_COORDINATE_TYPE>
2
5
10

$$$$

