16203169
  -OEChem-07051213113D

 67 72  0     1  0  0  0  0  0999 V2000
    2.7039    1.6762    0.0467 O   0  0  0  0  0  0  0  0  0  0  0  0
   -1.8972    1.1020    0.4834 O   0  0  0  0  0  0  0  0  0  0  0  0
   -4.8117    3.2445   -0.3442 O   0  0  0  0  0  0  0  0  0  0  0  0
   -0.1629    5.3675   -1.0364 O   0  0  0  0  0  0  0  0  0  0  0  0
    5.3832    1.6997    1.3138 O   0  0  0  0  0  0  0  0  0  0  0  0
    4.1286   -2.7467    0.0292 O   0  0  0  0  0  0  0  0  0  0  0  0
   -1.6375   -4.0010    1.2677 O   0  0  0  0  0  0  0  0  0  0  0  0
   -1.7137   -4.3931   -1.4832 O   0  0  0  0  0  0  0  0  0  0  0  0
   -5.2674   -2.1167   -1.7628 O   0  0  0  0  0  0  0  0  0  0  0  0
    8.5036   -1.1189   -0.9277 O   0  0  0  0  0  0  0  0  0  0  0  0
   -6.8375   -2.6946    0.4571 O   0  0  0  0  0  0  0  0  0  0  0  0
    0.9142    0.1379    0.6703 C   0  0  1  0  0  0  0  0  0  0  0  0
    2.3945    0.2698    0.2336 C   0  0  2  0  0  0  0  0  0  0  0  0
    0.4075    1.4648    0.2057 C   0  0  0  0  0  0  0  0  0  0  0  0
   -0.8909    1.9528    0.1327 C   0  0  0  0  0  0  0  0  0  0  0  0
    1.4837    2.2793   -0.1103 C   0  0  0  0  0  0  0  0  0  0  0  0
   -1.0956    3.2632   -0.3185 C   0  0  0  0  0  0  0  0  0  0  0  0
    3.3549   -0.3009    1.2688 C   0  0  0  0  0  0  0  0  0  0  0  0
   -2.4832    3.8176   -0.4434 C   0  0  0  0  0  0  0  0  0  0  0  0
   -3.5105    2.6902   -0.5089 C   0  0  1  0  0  0  0  0  0  0  0  0
   -3.2130    1.6623    0.5921 C   0  0  1  0  0  0  0  0  0  0  0  0
    0.2114   -1.0722    0.0990 C   0  0  0  0  0  0  0  0  0  0  0  0
    1.3164    3.5878   -0.5186 C   0  0  0  0  0  0  0  0  0  0  0  0
    0.0135    4.0772   -0.6272 C   0  0  0  0  0  0  0  0  0  0  0  0
    4.7256   -0.5185    0.6837 C   0  0  0  0  0  0  0  0  0  0  0  0
   -4.1815    0.4952    0.5528 C   0  0  0  0  0  0  0  0  0  0  0  0
   -0.3976   -1.9926    0.9519 C   0  0  0  0  0  0  0  0  0  0  0  0
    0.1728   -1.2689   -1.2815 C   0  0  0  0  0  0  0  0  0  0  0  0
    5.6766    0.5006    0.7367 C   0  0  0  0  0  0  0  0  0  0  0  0
    5.0442   -1.7394    0.0890 C   0  0  0  0  0  0  0  0  0  0  0  0
   -1.0453   -3.1097    0.4245 C   0  0  0  0  0  0  0  0  0  0  0  0
   -0.4749   -2.3860   -1.8090 C   0  0  0  0  0  0  0  0  0  0  0  0
   -4.2850   -0.2870   -0.5976 C   0  0  0  0  0  0  0  0  0  0  0  0
   -4.9693    0.2048    1.6667 C   0  0  0  0  0  0  0  0  0  0  0  0
   -1.0840   -3.3064   -0.9559 C   0  0  0  0  0  0  0  0  0  0  0  0
    6.9460    0.2988    0.1952 C   0  0  0  0  0  0  0  0  0  0  0  0
    6.3138   -1.9411   -0.4525 C   0  0  0  0  0  0  0  0  0  0  0  0
   -5.1761   -1.3595   -0.6340 C   0  0  0  0  0  0  0  0  0  0  0  0
   -5.8605   -0.8675    1.6304 C   0  0  0  0  0  0  0  0  0  0  0  0
    7.2648   -0.9219   -0.3994 C   0  0  0  0  0  0  0  0  0  0  0  0
   -5.9638   -1.6498    0.4800 C   0  0  0  0  0  0  0  0  0  0  0  0
    0.8483    0.1345    1.7671 H   0  0  0  0  0  0  0  0  0  0  0  0
    2.5713   -0.2087   -0.7391 H   0  0  0  0  0  0  0  0  0  0  0  0
    2.9757   -1.2541    1.6580 H   0  0  0  0  0  0  0  0  0  0  0  0
    3.4231    0.3624    2.1406 H   0  0  0  0  0  0  0  0  0  0  0  0
   -2.6897    4.4714    0.4137 H   0  0  0  0  0  0  0  0  0  0  0  0
   -2.5822    4.4357   -1.3442 H   0  0  0  0  0  0  0  0  0  0  0  0
   -3.4587    2.2260   -1.5017 H   0  0  0  0  0  0  0  0  0  0  0  0
   -3.2890    2.1485    1.5748 H   0  0  0  0  0  0  0  0  0  0  0  0
    2.1762    4.2077   -0.7506 H   0  0  0  0  0  0  0  0  0  0  0  0
   -0.3686   -1.8397    2.0280 H   0  0  0  0  0  0  0  0  0  0  0  0
    0.6305   -0.5608   -1.9668 H   0  0  0  0  0  0  0  0  0  0  0  0
   -4.9454    3.8948   -1.0548 H   0  0  0  0  0  0  0  0  0  0  0  0
   -0.5001   -2.5256   -2.8864 H   0  0  0  0  0  0  0  0  0  0  0  0
   -3.6638   -0.0748   -1.4641 H   0  0  0  0  0  0  0  0  0  0  0  0
   -4.9001    0.8049    2.5699 H   0  0  0  0  0  0  0  0  0  0  0  0
    0.7061    5.7715   -1.2020 H   0  0  0  0  0  0  0  0  0  0  0  0
    7.6882    1.0925    0.2359 H   0  0  0  0  0  0  0  0  0  0  0  0
    6.5701   -2.8898   -0.9176 H   0  0  0  0  0  0  0  0  0  0  0  0
   -6.4681   -1.0826    2.5053 H   0  0  0  0  0  0  0  0  0  0  0  0
    6.1616    2.2798    1.2558 H   0  0  0  0  0  0  0  0  0  0  0  0
    4.5271   -3.5126   -0.4186 H   0  0  0  0  0  0  0  0  0  0  0  0
   -1.5127   -3.7014    2.1845 H   0  0  0  0  0  0  0  0  0  0  0  0
   -1.6405   -4.3621   -2.4525 H   0  0  0  0  0  0  0  0  0  0  0  0
   -4.6454   -1.7730   -2.4268 H   0  0  0  0  0  0  0  0  0  0  0  0
    9.0316   -0.3115   -0.8036 H   0  0  0  0  0  0  0  0  0  0  0  0
   -7.2952   -2.7435    1.3138 H   0  0  0  0  0  0  0  0  0  0  0  0
  1 13  1  0  0  0  0
  1 16  1  0  0  0  0
  2 15  1  0  0  0  0
  2 21  1  0  0  0  0
  3 20  1  0  0  0  0
  3 53  1  0  0  0  0
  4 24  1  0  0  0  0
  4 57  1  0  0  0  0
  5 29  1  0  0  0  0
  5 61  1  0  0  0  0
  6 30  1  0  0  0  0
  6 62  1  0  0  0  0
  7 31  1  0  0  0  0
  7 63  1  0  0  0  0
  8 35  1  0  0  0  0
  8 64  1  0  0  0  0
  9 38  1  0  0  0  0
  9 65  1  0  0  0  0
 10 40  1  0  0  0  0
 10 66  1  0  0  0  0
 11 41  1  0  0  0  0
 11 67  1  0  0  0  0
 12 13  1  0  0  0  0
 12 14  1  0  0  0  0
 12 22  1  0  0  0  0
 12 42  1  0  0  0  0
 13 18  1  0  0  0  0
 13 43  1  0  0  0  0
 14 15  1  0  0  0  0
 14 16  2  0  0  0  0
 15 17  2  0  0  0  0
 16 23  1  0  0  0  0
 17 19  1  0  0  0  0
 17 24  1  0  0  0  0
 18 25  1  0  0  0  0
 18 44  1  0  0  0  0
 18 45  1  0  0  0  0
 19 20  1  0  0  0  0
 19 46  1  0  0  0  0
 19 47  1  0  0  0  0
 20 21  1  0  0  0  0
 20 48  1  0  0  0  0
 21 26  1  0  0  0  0
 21 49  1  0  0  0  0
 22 27  2  0  0  0  0
 22 28  1  0  0  0  0
 23 24  2  0  0  0  0
 23 50  1  0  0  0  0
 25 29  2  0  0  0  0
 25 30  1  0  0  0  0
 26 33  2  0  0  0  0
 26 34  1  0  0  0  0
 27 31  1  0  0  0  0
 27 51  1  0  0  0  0
 28 32  2  0  0  0  0
 28 52  1  0  0  0  0
 29 36  1  0  0  0  0
 30 37  2  0  0  0  0
 31 35  2  0  0  0  0
 32 35  1  0  0  0  0
 32 54  1  0  0  0  0
 33 38  1  0  0  0  0
 33 55  1  0  0  0  0
 34 39  2  0  0  0  0
 34 56  1  0  0  0  0
 36 40  2  0  0  0  0
 36 58  1  0  0  0  0
 37 40  1  0  0  0  0
 37 59  1  0  0  0  0
 38 41  2  0  0  0  0
 39 41  1  0  0  0  0
 39 60  1  0  0  0  0
M  END
> <PUBCHEM_COMPOUND_CID>
16203169

> <PUBCHEM_CONFORMER_RMSD>
1

> <PUBCHEM_CONFORMER_DIVERSEORDER>
1
45
15
33
42
14
44
22
12
39
20
40
7
19
8
26
16
25
34
5
41
37
24
21
9
36
43
28
35
6
17
11
23
10
29
38
30
31
13
4
27
32
18
2
3

> <PUBCHEM_MMFF94_PARTIAL_CHARGES>
59
1 -0.36
10 -0.53
11 -0.53
12 0.29
13 0.28
14 -0.14
15 0.08
16 0.08
17 -0.14
18 0.14
19 0.14
2 -0.36
20 0.28
21 0.42
22 -0.14
23 -0.15
24 0.08
25 -0.14
26 -0.14
27 -0.15
28 -0.15
29 0.08
3 -0.68
30 0.08
31 0.08
32 -0.15
33 -0.15
34 -0.15
35 0.08
36 -0.15
37 -0.15
38 0.08
39 -0.15
4 -0.53
40 0.08
41 0.08
5 -0.53
50 0.15
51 0.15
52 0.15
53 0.4
54 0.15
55 0.15
56 0.15
57 0.45
58 0.15
59 0.15
6 -0.53
60 0.15
61 0.45
62 0.45
63 0.45
64 0.45
65 0.45
66 0.45
67 0.45
7 -0.53
8 -0.53
9 -0.53

> <PUBCHEM_EFFECTIVE_ROTOR_COUNT>
5.4

> <PUBCHEM_PHARMACOPHORE_FEATURES>
18
1 1 acceptor
1 10 donor
1 11 donor
1 2 acceptor
1 3 acceptor
1 3 donor
1 4 donor
1 5 donor
1 6 donor
1 7 donor
1 8 donor
1 9 donor
5 1 12 13 14 16 rings
6 14 15 16 17 23 24 rings
6 2 15 17 19 20 21 rings
6 22 27 28 31 32 35 rings
6 25 29 30 36 37 40 rings
6 26 33 34 38 39 41 rings

> <PUBCHEM_HEAVY_ATOM_COUNT>
41

> <PUBCHEM_ATOM_DEF_STEREO_COUNT>
4

> <PUBCHEM_ATOM_UDEF_STEREO_COUNT>
0

> <PUBCHEM_BOND_DEF_STEREO_COUNT>
0

> <PUBCHEM_BOND_UDEF_STEREO_COUNT>
0

> <PUBCHEM_ISOTOPIC_ATOM_COUNT>
0

> <PUBCHEM_COMPONENT_COUNT>
1

> <PUBCHEM_CACTVS_TAUTO_COUNT>
994

> <PUBCHEM_CONFORMER_ID>
00F73DA100000001

> <PUBCHEM_MMFF94_ENERGY>
122.2225

> <PUBCHEM_FEATURE_SELFOVERLAP>
91.475

> <PUBCHEM_SHAPE_FINGERPRINT>
10076449 9 18113893867395324794
10119406 146 18339071688158916462
10653451 467 18334569161671385834
10815517 723 18259991439954252575
1100329 8 18197220239614691259
11007060 377 18410294705293510386
11756154 67 18411132520480008934
12106331 60 18342462543205165971
12422481 6 17822292417819080351
12522641 33 18049733112124949549
12645989 146 18337669707432260823
12788726 201 18271254906120852698
13140716 1 17474107601473197425
13782708 43 18114468954699536170
13811026 1 18410581690444294513
140371 6 17691700987185070800
14117953 113 18408328792036613429
14394314 77 18339918320353650545
14725015 67 18341050727662856713
15183329 4 18260274044571055062
15274700 232 16967452076474735934
15276724 80 18408888421700772166
15968369 26 17401780013058550510
16628084 112 18268151031956683858
18608769 82 18339361985161288480
21033648 29 18114762502202140904
21583282 1 17772736187436308924
21779490 97 17489594467594577370
21796203 349 18053628500799985449
25019877 29 17530961363000456527
3383291 50 18342177735060131418
50677037 204 18190758452337579826
550186 72 18269555099488150380
563151 248 16950285074789676199
9896288 288 18115300228203132785

> <PUBCHEM_SHAPE_MULTIPOLES>
779.2
16.43
5.76
1.3
18.59
3.08
-0.06
-8.75
1.75
-4.48
-2.01
-0.85
-0.67
0.59

> <PUBCHEM_SHAPE_SELFOVERLAP>
1752.643

> <PUBCHEM_SHAPE_VOLUME>
408.2

> <PUBCHEM_COORDINATE_TYPE>
2
5
10

$$$$

