11954094
  -OEChem-07051213063D

 59 62  0     1  0  0  0  0  0999 V2000
   -0.4739    1.9994    1.9141 O   0  0  0  0  0  0  0  0  0  0  0  0
   -4.4960    1.1204   -2.8290 O   0  0  0  0  0  0  0  0  0  0  0  0
    5.8511    2.4304   -1.0630 O   0  0  0  0  0  0  0  0  0  0  0  0
   -2.5589    0.1982    0.9113 C   0  0  2  0  0  0  0  0  0  0  0  0
   -0.3922   -1.1860    0.4433 C   0  0  2  0  0  0  0  0  0  0  0  0
   -1.0843    0.2049    0.3699 C   0  0  2  0  0  0  0  0  0  0  0  0
    1.0428   -1.1257   -0.1786 C   0  0  1  0  0  0  0  0  0  0  0  0
   -3.3779   -0.9039    0.1582 C   0  0  2  0  0  0  0  0  0  0  0  0
    1.9625   -0.0405    0.4829 C   0  0  2  0  0  0  0  0  0  0  0  0
   -1.2542   -2.2623   -0.2442 C   0  0  0  0  0  0  0  0  0  0  0  0
   -2.6994   -2.2774    0.2407 C   0  0  0  0  0  0  0  0  0  0  0  0
   -3.2775    1.5646    0.6981 C   0  0  0  0  0  0  0  0  0  0  0  0
    1.2377    1.3207    0.4082 C   0  0  0  0  0  0  0  0  0  0  0  0
   -0.1495    1.2364    1.0073 C   0  0  0  0  0  0  0  0  0  0  0  0
   -3.6688   -0.5382   -1.3119 C   0  0  0  0  0  0  0  0  0  0  0  0
    1.7278   -2.5121   -0.2151 C   0  0  0  0  0  0  0  0  0  0  0  0
   -2.6052   -0.1031    2.4332 C   0  0  0  0  0  0  0  0  0  0  0  0
   -3.5457    1.9112   -0.7618 C   0  0  0  0  0  0  0  0  0  0  0  0
    3.3058    0.0210   -0.2722 C   0  0  0  0  0  0  0  0  0  0  0  0
   -4.3534    0.8165   -1.4456 C   0  0  1  0  0  0  0  0  0  0  0  0
    3.2215   -2.4611   -0.5466 C   0  0  0  0  0  0  0  0  0  0  0  0
    2.2632   -0.3688    1.9673 C   0  0  0  0  0  0  0  0  0  0  0  0
    3.6329   -1.1406   -1.1829 C   0  0  0  0  0  0  0  0  0  0  0  0
    4.1906    1.0249   -0.1391 C   0  0  0  0  0  0  0  0  0  0  0  0
    5.5011    1.0711   -0.8443 C   0  0  0  0  0  0  0  0  0  0  0  0
   -0.2857   -1.4787    1.4944 H   0  0  0  0  0  0  0  0  0  0  0  0
   -1.1223    0.4939   -0.6889 H   0  0  0  0  0  0  0  0  0  0  0  0
    0.9011   -0.8274   -1.2303 H   0  0  0  0  0  0  0  0  0  0  0  0
   -4.3566   -1.0003    0.6508 H   0  0  0  0  0  0  0  0  0  0  0  0
   -0.8349   -3.2572   -0.0557 H   0  0  0  0  0  0  0  0  0  0  0  0
   -1.2303   -2.1188   -1.3309 H   0  0  0  0  0  0  0  0  0  0  0  0
   -3.2676   -3.0108   -0.3448 H   0  0  0  0  0  0  0  0  0  0  0  0
   -2.7253   -2.6408    1.2748 H   0  0  0  0  0  0  0  0  0  0  0  0
   -2.7201    2.3862    1.1576 H   0  0  0  0  0  0  0  0  0  0  0  0
   -4.2449    1.5419    1.2196 H   0  0  0  0  0  0  0  0  0  0  0  0
    1.1316    1.6627   -0.6290 H   0  0  0  0  0  0  0  0  0  0  0  0
    1.7850    2.1011    0.9503 H   0  0  0  0  0  0  0  0  0  0  0  0
   -2.7537   -0.5391   -1.9158 H   0  0  0  0  0  0  0  0  0  0  0  0
   -4.3089   -1.3058   -1.7668 H   0  0  0  0  0  0  0  0  0  0  0  0
    1.2374   -3.1290   -0.9784 H   0  0  0  0  0  0  0  0  0  0  0  0
    1.5908   -3.0380    0.7378 H   0  0  0  0  0  0  0  0  0  0  0  0
   -3.6397   -0.2427    2.7693 H   0  0  0  0  0  0  0  0  0  0  0  0
   -2.0560   -1.0079    2.7047 H   0  0  0  0  0  0  0  0  0  0  0  0
   -2.1945    0.7175    3.0280 H   0  0  0  0  0  0  0  0  0  0  0  0
   -4.0945    2.8594   -0.8206 H   0  0  0  0  0  0  0  0  0  0  0  0
   -2.6076    2.0878   -1.3011 H   0  0  0  0  0  0  0  0  0  0  0  0
   -5.3587    0.7631   -1.0108 H   0  0  0  0  0  0  0  0  0  0  0  0
    3.4747   -3.2932   -1.2145 H   0  0  0  0  0  0  0  0  0  0  0  0
    3.8030   -2.6234    0.3699 H   0  0  0  0  0  0  0  0  0  0  0  0
    2.8813    0.4114    2.4280 H   0  0  0  0  0  0  0  0  0  0  0  0
    1.3526   -0.4423    2.5696 H   0  0  0  0  0  0  0  0  0  0  0  0
    2.8047   -1.3132    2.0811 H   0  0  0  0  0  0  0  0  0  0  0  0
    3.1157   -1.0082   -2.1411 H   0  0  0  0  0  0  0  0  0  0  0  0
    4.6989   -1.2331   -1.4061 H   0  0  0  0  0  0  0  0  0  0  0  0
    3.9837    1.8373    0.5519 H   0  0  0  0  0  0  0  0  0  0  0  0
   -4.9368    1.9845   -2.8952 H   0  0  0  0  0  0  0  0  0  0  0  0
    5.5032    0.5943   -1.8267 H   0  0  0  0  0  0  0  0  0  0  0  0
    6.2822    0.6244   -0.2224 H   0  0  0  0  0  0  0  0  0  0  0  0
    5.1819    2.8178   -1.6532 H   0  0  0  0  0  0  0  0  0  0  0  0
  1 14  2  0  0  0  0
  2 20  1  0  0  0  0
  2 56  1  0  0  0  0
  3 25  1  0  0  0  0
  3 59  1  0  0  0  0
  4  6  1  0  0  0  0
  4  8  1  0  0  0  0
  4 12  1  0  0  0  0
  4 17  1  0  0  0  0
  5  6  1  0  0  0  0
  5  7  1  0  0  0  0
  5 10  1  0  0  0  0
  5 26  1  0  0  0  0
  6 14  1  0  0  0  0
  6 27  1  0  0  0  0
  7  9  1  0  0  0  0
  7 16  1  0  0  0  0
  7 28  1  0  0  0  0
  8 11  1  0  0  0  0
  8 15  1  0  0  0  0
  8 29  1  0  0  0  0
  9 13  1  0  0  0  0
  9 19  1  0  0  0  0
  9 22  1  0  0  0  0
 10 11  1  0  0  0  0
 10 30  1  0  0  0  0
 10 31  1  0  0  0  0
 11 32  1  0  0  0  0
 11 33  1  0  0  0  0
 12 18  1  0  0  0  0
 12 34  1  0  0  0  0
 12 35  1  0  0  0  0
 13 14  1  0  0  0  0
 13 36  1  0  0  0  0
 13 37  1  0  0  0  0
 15 20  1  0  0  0  0
 15 38  1  0  0  0  0
 15 39  1  0  0  0  0
 16 21  1  0  0  0  0
 16 40  1  0  0  0  0
 16 41  1  0  0  0  0
 17 42  1  0  0  0  0
 17 43  1  0  0  0  0
 17 44  1  0  0  0  0
 18 20  1  0  0  0  0
 18 45  1  0  0  0  0
 18 46  1  0  0  0  0
 19 23  1  0  0  0  0
 19 24  2  0  0  0  0
 20 47  1  0  0  0  0
 21 23  1  0  0  0  0
 21 48  1  0  0  0  0
 21 49  1  0  0  0  0
 22 50  1  0  0  0  0
 22 51  1  0  0  0  0
 22 52  1  0  0  0  0
 23 53  1  0  0  0  0
 23 54  1  0  0  0  0
 24 25  1  0  0  0  0
 24 55  1  0  0  0  0
 25 57  1  0  0  0  0
 25 58  1  0  0  0  0
M  END
> <PUBCHEM_COMPOUND_CID>
11954094

> <PUBCHEM_CONFORMER_RMSD>
0.6

> <PUBCHEM_CONFORMER_DIVERSEORDER>
1
2

> <PUBCHEM_MMFF94_PARTIAL_CHARGES>
15
1 -0.57
13 0.06
14 0.45
19 -0.28
2 -0.68
20 0.28
23 0.14
24 -0.29
25 0.42
3 -0.68
55 0.15
56 0.4
59 0.4
6 0.06
9 0.14

> <PUBCHEM_EFFECTIVE_ROTOR_COUNT>
3

> <PUBCHEM_PHARMACOPHORE_FEATURES>
9
1 1 acceptor
1 2 acceptor
1 2 donor
1 3 acceptor
1 3 donor
6 4 5 6 8 10 11 rings
6 4 8 12 15 18 20 rings
6 5 6 7 9 13 14 rings
6 7 9 16 19 21 23 rings

> <PUBCHEM_HEAVY_ATOM_COUNT>
25

> <PUBCHEM_ATOM_DEF_STEREO_COUNT>
7

> <PUBCHEM_ATOM_UDEF_STEREO_COUNT>
0

> <PUBCHEM_BOND_DEF_STEREO_COUNT>
1

> <PUBCHEM_BOND_UDEF_STEREO_COUNT>
0

> <PUBCHEM_ISOTOPIC_ATOM_COUNT>
0

> <PUBCHEM_COMPONENT_COUNT>
1

> <PUBCHEM_CACTVS_TAUTO_COUNT>
3

> <PUBCHEM_CONFORMER_ID>
00B667AE00000001

> <PUBCHEM_MMFF94_ENERGY>
76.6193

> <PUBCHEM_FEATURE_SELFOVERLAP>
45.754

> <PUBCHEM_SHAPE_FINGERPRINT>
10366900 7 17675927586293064258
10498660 4 18409727357288237668
10759866 29 18272094902744588466
11578080 2 17988926703675168598
11796584 16 5255862896526743684
11961588 58 17845950584276681335
12553582 1 18113613495370680184
12788726 201 17169538821497008689
13224815 77 17967254225521779194
13583140 156 17489867120207113312
13911987 19 18337103459012326804
14420673 8 9510370393860838804
14790565 3 17828745572006861257
14950920 106 10159407782245561413
15196674 1 18334565863368578490
15209294 21 14333413349855122636
15238133 3 15338836520952912910
15788980 27 17704355468129968946
16752209 62 18120099634780043691
16945 1 18187938222640876115
17349148 13 18044110144064238426
17492 54 18335998523009232429
18608769 82 18339359665847462483
19862831 5 18334863869621624903
200 152 17240492411698025863
20775438 99 16523626107872012487
20775530 9 15504661416032578597
21033648 29 16629676392124656781
22182313 1 17898302605850702216
22393880 68 18262527987319446996
22907989 373 18186519917054725357
23379529 103 16228038877547882319
23402539 116 17967805059820890256
23493267 7 17774428512119864803
23557571 272 17704066266348947433
23559900 14 18189053256592053170
2748010 2 17613734625970055307
2838139 119 17703800193315267820
296302 2 18060137647768274106
350125 39 18265042553564766891
4280585 95 17248339824129298878
46194498 28 18201155426053459837
633830 44 18191855923840195907
9709674 26 17969209200478233190

> <PUBCHEM_SHAPE_MULTIPOLES>
496.88
10
2.6
1.81
6.67
0.69
-0.02
-4.49
5.58
0.98
0.3
-1.74
-0.63
0.19

> <PUBCHEM_SHAPE_SELFOVERLAP>
1049.438

> <PUBCHEM_SHAPE_VOLUME>
273.7

> <PUBCHEM_COORDINATE_TYPE>
2
5
10

$$$$

