4533
  -OEChem-06261200122D

 92104  0     1  0  0  0  0  0999 V2000
    7.7164   -2.6287    0.0000 O   0  0  0  0  0  0  0  0  0  0  0  0
    4.7095    1.0783    0.0000 O   0  0  0  0  0  0  0  0  0  0  0  0
   10.1917   -0.1278    0.0000 O   0  0  0  0  0  0  0  0  0  0  0  0
    7.9191    2.6958    0.0000 O   0  0  0  0  0  0  0  0  0  0  0  0
    8.1605   -4.9469    0.0000 O   0  0  0  0  0  0  0  0  0  0  0  0
    2.5381    1.9980    0.0000 O   0  0  0  0  0  0  0  0  0  0  0  0
   10.2118    0.5465    0.0000 N   0  0  3  0  0  0  0  0  0  0  0  0
    6.5124    3.5131    0.0000 N   0  0  3  0  0  0  0  0  0  0  0  0
    6.5432   -0.4615    0.0000 N   0  0  0  0  0  0  0  0  0  0  0  0
    8.9443   -1.7048    0.0000 C   0  0  3  0  0  0  0  0  0  0  0  0
    6.0682    2.0222    0.0000 C   0  0  3  0  0  0  0  0  0  0  0  0
    6.9343    2.5222    0.0000 C   0  0  3  0  0  0  0  0  0  0  0  0
    9.5047   -0.8545    0.0000 C   0  0  3  0  0  0  0  0  0  0  0  0
    7.9282   -1.6367    0.0000 C   0  0  3  0  0  0  0  0  0  0  0  0
    5.7031    1.0979    0.0000 C   0  0  3  0  0  0  0  0  0  0  0  0
   10.5644   -0.9009    0.0000 C   0  0  3  0  0  0  0  0  0  0  0  0
    6.9343    3.5222    0.0000 C   0  0  3  0  0  0  0  0  0  0  0  0
    9.0416    0.0524    0.0000 C   0  0  0  0  0  0  0  0  0  0  0  0
    7.6256    1.8227    0.0000 C   0  0  0  0  0  0  0  0  0  0  0  0
    8.0242    0.0970    0.0000 C   0  0  0  0  0  0  0  0  0  0  0  0
    7.4155    0.8620    0.0000 C   0  0  0  0  0  0  0  0  0  0  0  0
    5.8652    2.3921    0.0000 C   0  0  0  0  0  0  0  0  0  0  0  0
    8.0051   -0.5484    0.0000 C   0  0  0  0  0  0  0  0  0  0  0  0
    7.4862   -0.7193    0.0000 C   0  0  0  0  0  0  0  0  0  0  0  0
    6.4953    0.5150    0.0000 C   0  0  0  0  0  0  0  0  0  0  0  0
    9.4047   -2.6604    0.0000 C   0  0  0  0  0  0  0  0  0  0  0  0
    5.2022    2.5222    0.0000 C   0  0  0  0  0  0  0  0  0  0  0  0
   11.0468   -1.8456    0.0000 C   0  0  0  0  0  0  0  0  0  0  0  0
    6.0682    4.0222    0.0000 C   0  0  0  0  0  0  0  0  0  0  0  0
    8.7359    0.7498    0.0000 C   0  0  0  0  0  0  0  0  0  0  0  0
    5.7815    3.1877    0.0000 C   0  0  0  0  0  0  0  0  0  0  0  0
   10.4631   -2.7312    0.0000 C   0  0  0  0  0  0  0  0  0  0  0  0
    5.2022    3.5222    0.0000 C   0  0  0  0  0  0  0  0  0  0  0  0
    8.5500   -3.2066    0.0000 C   0  0  0  0  0  0  0  0  0  0  0  0
    4.3083    1.9875    0.0000 C   0  0  0  0  0  0  0  0  0  0  0  0
   10.8819    1.2888    0.0000 C   0  0  0  0  0  0  0  0  0  0  0  0
    6.7203    4.4912    0.0000 C   0  0  0  0  0  0  0  0  0  0  0  0
   11.8597    1.0796    0.0000 C   0  0  0  0  0  0  0  0  0  0  0  0
    7.6713    4.8003    0.0000 C   0  0  0  0  0  0  0  0  0  0  0  0
   12.6020    0.4095    0.0000 C   0  0  0  0  0  0  0  0  0  0  0  0
   12.8112    1.3874    0.0000 C   0  0  0  0  0  0  0  0  0  0  0  0
    8.6495    4.5924    0.0000 C   0  0  0  0  0  0  0  0  0  0  0  0
    8.3405    5.5434    0.0000 C   0  0  0  0  0  0  0  0  0  0  0  0
   10.6702   -3.7795    0.0000 C   0  0  0  0  0  0  0  0  0  0  0  0
    4.3083    4.0568    0.0000 C   0  0  0  0  0  0  0  0  0  0  0  0
    3.4022    2.5014    0.0000 C   0  0  0  0  0  0  0  0  0  0  0  0
    8.8576   -4.2299    0.0000 C   0  0  0  0  0  0  0  0  0  0  0  0
    9.8891   -4.5086    0.0000 C   0  0  0  0  0  0  0  0  0  0  0  0
    3.4022    3.5430    0.0000 C   0  0  0  0  0  0  0  0  0  0  0  0
    7.0843   -1.7379    0.0000 H   0  0  0  0  0  0  0  0  0  0  0  0
    5.4460    0.2877    0.0000 H   0  0  0  0  0  0  0  0  0  0  0  0
    7.6704    3.9472    0.0000 H   0  0  0  0  0  0  0  0  0  0  0  0
   11.3613   -0.6050    0.0000 H   0  0  0  0  0  0  0  0  0  0  0  0
    8.1949    1.5771    0.0000 H   0  0  0  0  0  0  0  0  0  0  0  0
    7.9753    2.3347    0.0000 H   0  0  0  0  0  0  0  0  0  0  0  0
    9.6339    0.2357    0.0000 H   0  0  0  0  0  0  0  0  0  0  0  0
    8.9623    0.6673    0.0000 H   0  0  0  0  0  0  0  0  0  0  0  0
    5.2704    2.5673    0.0000 H   0  0  0  0  0  0  0  0  0  0  0  0
    6.4568    2.5773    0.0000 H   0  0  0  0  0  0  0  0  0  0  0  0
    7.5071   -0.1791    0.0000 H   0  0  0  0  0  0  0  0  0  0  0  0
    7.5764   -0.9963    0.0000 H   0  0  0  0  0  0  0  0  0  0  0  0
   11.4985   -2.2704    0.0000 H   0  0  0  0  0  0  0  0  0  0  0  0
   11.5426   -1.4733    0.0000 H   0  0  0  0  0  0  0  0  0  0  0  0
    6.4668    4.4971    0.0000 H   0  0  0  0  0  0  0  0  0  0  0  0
    5.6697    4.4971    0.0000 H   0  0  0  0  0  0  0  0  0  0  0  0
    8.8966    1.3486    0.0000 H   0  0  0  0  0  0  0  0  0  0  0  0
    8.1619    0.9841    0.0000 H   0  0  0  0  0  0  0  0  0  0  0  0
    5.5899    3.7774    0.0000 H   0  0  0  0  0  0  0  0  0  0  0  0
    5.1751    3.0588    0.0000 H   0  0  0  0  0  0  0  0  0  0  0  0
    6.0597   -0.8496    0.0000 H   0  0  0  0  0  0  0  0  0  0  0  0
   11.1149    1.8633    0.0000 H   0  0  0  0  0  0  0  0  0  0  0  0
   10.3565    1.6180    0.0000 H   0  0  0  0  0  0  0  0  0  0  0  0
    6.6340    5.1052    0.0000 H   0  0  0  0  0  0  0  0  0  0  0  0
    6.1007    4.5129    0.0000 H   0  0  0  0  0  0  0  0  0  0  0  0
   10.7948   -0.2714    0.0000 H   0  0  0  0  0  0  0  0  0  0  0  0
    8.1311    3.2784    0.0000 H   0  0  0  0  0  0  0  0  0  0  0  0
   11.5775    0.5275    0.0000 H   0  0  0  0  0  0  0  0  0  0  0  0
    7.7038    4.1811    0.0000 H   0  0  0  0  0  0  0  0  0  0  0  0
   12.2728   -0.1159    0.0000 H   0  0  0  0  0  0  0  0  0  0  0  0
   13.1766    0.1765    0.0000 H   0  0  0  0  0  0  0  0  0  0  0  0
   13.4308    1.3649    0.0000 H   0  0  0  0  0  0  0  0  0  0  0  0
   12.7257    2.0014    0.0000 H   0  0  0  0  0  0  0  0  0  0  0  0
    8.6278    3.9727    0.0000 H   0  0  0  0  0  0  0  0  0  0  0  0
    9.2634    4.6786    0.0000 H   0  0  0  0  0  0  0  0  0  0  0  0
    8.8879    5.8345    0.0000 H   0  0  0  0  0  0  0  0  0  0  0  0
    7.9588    6.0320    0.0000 H   0  0  0  0  0  0  0  0  0  0  0  0
   11.2602   -3.9700    0.0000 H   0  0  0  0  0  0  0  0  0  0  0  0
    4.3154    4.6768    0.0000 H   0  0  0  0  0  0  0  0  0  0  0  0
   10.0386   -5.1103    0.0000 H   0  0  0  0  0  0  0  0  0  0  0  0
    2.8665    3.8551    0.0000 H   0  0  0  0  0  0  0  0  0  0  0  0
    8.3293   -5.5434    0.0000 H   0  0  0  0  0  0  0  0  0  0  0  0
    2.0000    2.3060    0.0000 H   0  0  0  0  0  0  0  0  0  0  0  0
  1 14  1  0  0  0  0
  1 34  1  0  0  0  0
  2 15  1  0  0  0  0
  2 35  1  0  0  0  0
  3 13  1  0  0  0  0
  3 75  1  0  0  0  0
  4 12  1  0  0  0  0
  4 76  1  0  0  0  0
  5 47  1  0  0  0  0
  5 91  1  0  0  0  0
  6 46  1  0  0  0  0
  6 92  1  0  0  0  0
  7 16  1  0  0  0  0
  7 30  1  0  0  0  0
  7 36  1  0  0  0  0
  8 17  1  0  0  0  0
  8 31  1  0  0  0  0
  8 37  1  0  0  0  0
  9 24  1  0  0  0  0
  9 25  1  0  0  0  0
  9 70  1  0  0  0  0
 10 13  1  0  0  0  0
 10 14  1  0  0  0  0
 10 23  1  0  0  0  0
 10 26  1  0  0  0  0
 11 12  1  0  0  0  0
 11 15  1  0  0  0  0
 11 22  1  0  0  0  0
 11 27  1  0  0  0  0
 12 17  1  0  0  0  0
 12 19  1  0  0  0  0
 13 16  1  0  0  0  0
 13 18  1  0  0  0  0
 14 24  1  0  0  0  0
 14 50  1  0  0  0  0
 15 25  1  0  0  0  0
 15 51  1  0  0  0  0
 16 28  1  0  0  0  0
 16 53  1  0  0  0  0
 17 29  1  0  0  0  0
 17 52  1  0  0  0  0
 18 20  1  0  0  0  0
 18 56  1  0  0  0  0
 18 57  1  0  0  0  0
 19 21  1  0  0  0  0
 19 54  1  0  0  0  0
 19 55  1  0  0  0  0
 20 21  1  0  0  0  0
 20 24  2  0  0  0  0
 21 25  2  0  0  0  0
 22 31  1  0  0  0  0
 22 58  1  0  0  0  0
 22 59  1  0  0  0  0
 23 30  1  0  0  0  0
 23 60  1  0  0  0  0
 23 61  1  0  0  0  0
 26 32  2  0  0  0  0
 26 34  1  0  0  0  0
 27 33  2  0  0  0  0
 27 35  1  0  0  0  0
 28 32  1  0  0  0  0
 28 62  1  0  0  0  0
 28 63  1  0  0  0  0
 29 33  1  0  0  0  0
 29 64  1  0  0  0  0
 29 65  1  0  0  0  0
 30 66  1  0  0  0  0
 30 67  1  0  0  0  0
 31 68  1  0  0  0  0
 31 69  1  0  0  0  0
 32 44  1  0  0  0  0
 33 45  1  0  0  0  0
 34 47  2  0  0  0  0
 35 46  2  0  0  0  0
 36 38  1  0  0  0  0
 36 71  1  0  0  0  0
 36 72  1  0  0  0  0
 37 39  1  0  0  0  0
 37 73  1  0  0  0  0
 37 74  1  0  0  0  0
 38 40  1  0  0  0  0
 38 41  1  0  0  0  0
 38 77  1  0  0  0  0
 39 42  1  0  0  0  0
 39 43  1  0  0  0  0
 39 78  1  0  0  0  0
 40 41  1  0  0  0  0
 40 79  1  0  0  0  0
 40 80  1  0  0  0  0
 41 81  1  0  0  0  0
 41 82  1  0  0  0  0
 42 43  1  0  0  0  0
 42 83  1  0  0  0  0
 42 84  1  0  0  0  0
 43 85  1  0  0  0  0
 43 86  1  0  0  0  0
 44 48  2  0  0  0  0
 44 87  1  0  0  0  0
 45 49  2  0  0  0  0
 45 88  1  0  0  0  0
 46 49  1  0  0  0  0
 47 48  1  0  0  0  0
 48 89  1  0  0  0  0
 49 90  1  0  0  0  0
M  END
> <PUBCHEM_COMPOUND_CID>
4533

> <PUBCHEM_COMPOUND_CANONICALIZED>
1

> <PUBCHEM_CACTVS_COMPLEXITY>
1340

> <PUBCHEM_CACTVS_HBOND_ACCEPTOR>
8

> <PUBCHEM_CACTVS_HBOND_DONOR>
5

> <PUBCHEM_CACTVS_ROTATABLE_BOND>
4

> <PUBCHEM_CACTVS_SUBSKEYS>
AAADcfB/OAAAAAAAAAAAAAAAGDAAAWJEgAA8eMGDAAAWLFjx0AAAHgAQCAAAD3zhngYwhpPJlgCgAyRiRASCiCAhICAImSA+zJgPJmLGsZuHeCvl0BHb+Afw8P8PoAABAAAYQADQgAaQADSgAAAAAAAAAA==

> <PUBCHEM_IUPAC_INCHI>
InChI=1S/C40H43N3O6/c44-25-7-5-21-13-27-39(46)15-23-24-16-40(47)28-14-22-6-8-26(45)34-30(22)38(40,10-12-43(28)18-20-3-4-20)36(49-34)32(24)41-31(23)35-37(39,29(21)33(25)48-35)9-11-42(27)17-19-1-2-19/h5-8,19-20,27-28,35-36,41,44-47H,1-4,9-18H2

> <PUBCHEM_IUPAC_INCHIKEY>
APSUXPSYBJVPPS-UHFFFAOYSA-N

> <PUBCHEM_XLOGP3_AA>
3.2

> <PUBCHEM_EXACT_MASS>
661.315186

> <PUBCHEM_MOLECULAR_FORMULA>
C40H43N3O6

> <PUBCHEM_MOLECULAR_WEIGHT>
661.78592

> <PUBCHEM_OPENEYE_CAN_SMILES>
C1CC1CN2CCC34C5C6=C(CC3(C2CC7=C4C(=C(C=C7)O)O5)O)C8=C(N6)C9C12CCN(C(C1(C8)O)CC1=C2C(=C(C=C1)O)O9)CC1CC1

> <PUBCHEM_OPENEYE_ISO_SMILES>
C1CC1CN2CCC34C5C6=C(CC3(C2CC7=C4C(=C(C=C7)O)O5)O)C8=C(N6)C9C12CCN(C(C1(C8)O)CC1=C2C(=C(C=C1)O)O9)CC1CC1

> <PUBCHEM_CACTVS_TPSA>
122

> <PUBCHEM_MONOISOTOPIC_WEIGHT>
661.315186

> <PUBCHEM_TOTAL_CHARGE>
0

> <PUBCHEM_HEAVY_ATOM_COUNT>
49

> <PUBCHEM_ATOM_DEF_STEREO_COUNT>
0

> <PUBCHEM_ATOM_UDEF_STEREO_COUNT>
8

> <PUBCHEM_BOND_DEF_STEREO_COUNT>
0

> <PUBCHEM_BOND_UDEF_STEREO_COUNT>
0

> <PUBCHEM_ISOTOPIC_ATOM_COUNT>
0

> <PUBCHEM_COMPONENT_COUNT>
1

> <PUBCHEM_CACTVS_TAUTO_COUNT>
2

> <PUBCHEM_COORDINATE_TYPE>
1
5
255

> <PUBCHEM_BONDANNOTATIONS>
10  23  3
11  22  3
14  50  3
15  51  3
16  53  3
17  52  3
20  21  8
20  24  8
21  25  8
26  32  8
26  34  8
27  33  8
27  35  8
13  3  3
32  44  8
33  45  8
34  47  8
35  46  8
12  4  3
44  48  8
45  49  8
46  49  8
47  48  8
9  24  8
9  25  8

$$$$

