10456
  -OEChem-06261204342D

 22 21  0     0  0  0  0  0  0999 V2000
    9.4651   -0.4400    0.0000 O   0  0  0  0  0  0  0  0  0  0  0  0
    2.5369   -0.4400    0.0000 O   0  0  0  0  0  0  0  0  0  0  0  0
    8.5991    1.0600    0.0000 O   0  0  0  0  0  0  0  0  0  0  0  0
    3.4030    1.0600    0.0000 O   0  0  0  0  0  0  0  0  0  0  0  0
    6.0010   -0.4400    0.0000 N   0  0  0  0  0  0  0  0  0  0  0  0
    6.8671    0.0600    0.0000 C   0  0  0  0  0  0  0  0  0  0  0  0
    5.1350    0.0600    0.0000 C   0  0  0  0  0  0  0  0  0  0  0  0
    7.7331   -0.4400    0.0000 C   0  0  0  0  0  0  0  0  0  0  0  0
    4.2690   -0.4400    0.0000 C   0  0  0  0  0  0  0  0  0  0  0  0
    8.5991    0.0600    0.0000 C   0  0  0  0  0  0  0  0  0  0  0  0
    3.4030    0.0600    0.0000 C   0  0  0  0  0  0  0  0  0  0  0  0
    7.2656    0.5349    0.0000 H   0  0  0  0  0  0  0  0  0  0  0  0
    6.4685    0.5349    0.0000 H   0  0  0  0  0  0  0  0  0  0  0  0
    5.5335    0.5349    0.0000 H   0  0  0  0  0  0  0  0  0  0  0  0
    4.7365    0.5349    0.0000 H   0  0  0  0  0  0  0  0  0  0  0  0
    6.0010   -1.0600    0.0000 H   0  0  0  0  0  0  0  0  0  0  0  0
    7.3346   -0.9149    0.0000 H   0  0  0  0  0  0  0  0  0  0  0  0
    8.1316   -0.9149    0.0000 H   0  0  0  0  0  0  0  0  0  0  0  0
    3.8705   -0.9149    0.0000 H   0  0  0  0  0  0  0  0  0  0  0  0
    4.6675   -0.9149    0.0000 H   0  0  0  0  0  0  0  0  0  0  0  0
    2.0000   -0.1300    0.0000 H   0  0  0  0  0  0  0  0  0  0  0  0
   10.0021   -0.1300    0.0000 H   0  0  0  0  0  0  0  0  0  0  0  0
  1 10  1  0  0  0  0
  1 22  1  0  0  0  0
  2 11  1  0  0  0  0
  2 21  1  0  0  0  0
  3 10  2  0  0  0  0
  4 11  2  0  0  0  0
  5  6  1  0  0  0  0
  5  7  1  0  0  0  0
  5 16  1  0  0  0  0
  6  8  1  0  0  0  0
  6 12  1  0  0  0  0
  6 13  1  0  0  0  0
  7  9  1  0  0  0  0
  7 14  1  0  0  0  0
  7 15  1  0  0  0  0
  8 10  1  0  0  0  0
  8 17  1  0  0  0  0
  8 18  1  0  0  0  0
  9 11  1  0  0  0  0
  9 19  1  0  0  0  0
  9 20  1  0  0  0  0
M  END
> <PUBCHEM_COMPOUND_CID>
10456

> <PUBCHEM_COMPOUND_CANONICALIZED>
1

> <PUBCHEM_CACTVS_COMPLEXITY>
130

> <PUBCHEM_CACTVS_HBOND_ACCEPTOR>
5

> <PUBCHEM_CACTVS_HBOND_DONOR>
3

> <PUBCHEM_CACTVS_ROTATABLE_BOND>
6

> <PUBCHEM_CACTVS_SUBSKEYS>
AAADccBiOAAAAAAAAAAAAAAAAAAAAAAAAAAAAAAAAAAAAAAAAAAAHgAQCAAACADBgAQACALAAgAIAACQCAAAAAAAAAAAAIEIAAAAAAgAAAAEQAACEACAAAAAAAAAAAAAAAAAAAAAAAAAAAAAAAAAAAAAAA==

> <PUBCHEM_IUPAC_OPENEYE_NAME>
3-(2-carboxyethylamino)propanoic acid

> <PUBCHEM_IUPAC_CAS_NAME>
3-(2-carboxyethylamino)propanoic acid

> <PUBCHEM_IUPAC_NAME>
3-(2-carboxyethylamino)propanoic acid

> <PUBCHEM_IUPAC_SYSTEMATIC_NAME>
3-(3-hydroxy-3-oxopropylamino)propanoic acid

> <PUBCHEM_IUPAC_TRADITIONAL_NAME>
3-(2-carboxyethylamino)propionic acid

> <PUBCHEM_IUPAC_INCHI>
InChI=1S/C6H11NO4/c8-5(9)1-3-7-4-2-6(10)11/h7H,1-4H2,(H,8,9)(H,10,11)

> <PUBCHEM_IUPAC_INCHIKEY>
TXPKUUXHNFRBPS-UHFFFAOYSA-N

> <PUBCHEM_XLOGP3_AA>
-3.5

> <PUBCHEM_EXACT_MASS>
161.068808

> <PUBCHEM_MOLECULAR_FORMULA>
C6H11NO4

> <PUBCHEM_MOLECULAR_WEIGHT>
161.15584

> <PUBCHEM_OPENEYE_CAN_SMILES>
C(CNCCC(=O)O)C(=O)O

> <PUBCHEM_OPENEYE_ISO_SMILES>
C(CNCCC(=O)O)C(=O)O

> <PUBCHEM_CACTVS_TPSA>
86.6

> <PUBCHEM_MONOISOTOPIC_WEIGHT>
161.068808

> <PUBCHEM_TOTAL_CHARGE>
0

> <PUBCHEM_HEAVY_ATOM_COUNT>
11

> <PUBCHEM_ATOM_DEF_STEREO_COUNT>
0

> <PUBCHEM_ATOM_UDEF_STEREO_COUNT>
0

> <PUBCHEM_BOND_DEF_STEREO_COUNT>
0

> <PUBCHEM_BOND_UDEF_STEREO_COUNT>
0

> <PUBCHEM_ISOTOPIC_ATOM_COUNT>
0

> <PUBCHEM_COMPONENT_COUNT>
1

> <PUBCHEM_CACTVS_TAUTO_COUNT>
1

> <PUBCHEM_COORDINATE_TYPE>
1
5
255

$$$$

