12034
  -OEChem-06261206253D

 26 25  0     0  0  0  0  0  0999 V2000
   -1.3998    2.4102   -0.6487 O   0  0  0  0  0  0  0  0  0  0  0  0
   -2.1226   -2.2377   -0.7622 O   0  0  0  0  0  0  0  0  0  0  0  0
   -2.1297    1.3767    1.2346 O   0  0  0  0  0  0  0  0  0  0  0  0
   -1.7723   -1.3915    1.3144 O   0  0  0  0  0  0  0  0  0  0  0  0
    1.0931    0.0180    0.0662 C   0  0  0  0  0  0  0  0  0  0  0  0
    0.0834   -0.0229   -1.0906 C   0  0  0  0  0  0  0  0  0  0  0  0
    2.5297   -0.0763   -0.4563 C   0  0  0  0  0  0  0  0  0  0  0  0
   -1.3906    0.0187   -0.6470 C   0  0  0  0  0  0  0  0  0  0  0  0
    3.5812   -0.0704    0.6556 C   0  0  0  0  0  0  0  0  0  0  0  0
    5.0116   -0.0935    0.1393 C   0  0  0  0  0  0  0  0  0  0  0  0
   -1.6905    1.3107    0.0938 C   0  0  0  0  0  0  0  0  0  0  0  0
   -1.7935   -1.2420    0.1010 C   0  0  0  0  0  0  0  0  0  0  0  0
    0.9766    0.9460    0.6373 H   0  0  0  0  0  0  0  0  0  0  0  0
    0.9080   -0.8138    0.7550 H   0  0  0  0  0  0  0  0  0  0  0  0
    0.2881    0.8133   -1.7709 H   0  0  0  0  0  0  0  0  0  0  0  0
    0.2502   -0.9400   -1.6705 H   0  0  0  0  0  0  0  0  0  0  0  0
    2.6433   -0.9928   -1.0486 H   0  0  0  0  0  0  0  0  0  0  0  0
    2.7205    0.7646   -1.1346 H   0  0  0  0  0  0  0  0  0  0  0  0
   -2.0305    0.0551   -1.5406 H   0  0  0  0  0  0  0  0  0  0  0  0
    3.4239   -0.9373    1.3082 H   0  0  0  0  0  0  0  0  0  0  0  0
    3.4468    0.8232    1.2770 H   0  0  0  0  0  0  0  0  0  0  0  0
    5.2156    0.7827   -0.4842 H   0  0  0  0  0  0  0  0  0  0  0  0
    5.7180   -0.0896    0.9751 H   0  0  0  0  0  0  0  0  0  0  0  0
    5.1954   -0.9914   -0.4591 H   0  0  0  0  0  0  0  0  0  0  0  0
   -1.5873    3.2405   -0.1611 H   0  0  0  0  0  0  0  0  0  0  0  0
   -2.3534   -3.0672   -0.2922 H   0  0  0  0  0  0  0  0  0  0  0  0
  1 11  1  0  0  0  0
  1 25  1  0  0  0  0
  2 12  1  0  0  0  0
  2 26  1  0  0  0  0
  3 11  2  0  0  0  0
  4 12  2  0  0  0  0
  5  6  1  0  0  0  0
  5  7  1  0  0  0  0
  5 13  1  0  0  0  0
  5 14  1  0  0  0  0
  6  8  1  0  0  0  0
  6 15  1  0  0  0  0
  6 16  1  0  0  0  0
  7  9  1  0  0  0  0
  7 17  1  0  0  0  0
  7 18  1  0  0  0  0
  8 11  1  0  0  0  0
  8 12  1  0  0  0  0
  8 19  1  0  0  0  0
  9 10  1  0  0  0  0
  9 20  1  0  0  0  0
  9 21  1  0  0  0  0
 10 22  1  0  0  0  0
 10 23  1  0  0  0  0
 10 24  1  0  0  0  0
M  END
> <PUBCHEM_COMPOUND_CID>
12034

> <PUBCHEM_CONFORMER_RMSD>
0.6

> <PUBCHEM_CONFORMER_DIVERSEORDER>
1
94
97
85
70
15
99
36
73
80
84
95
89
57
39
90
72
74
37
86
19
76
91
14
82
98
22
68
60
65
6
96
69
56
83
41
77
28
78
24
35
48
71
81
44
46
18
25
66
87
75
2
62
34
8
59
29
42
9
43
38
61
92
12
17
88
11
67
53
93
79
45
58
40
55
49
5
30
26
64
23
33
31
32
54
51
63
21
20
52
13
10
27
47
3
7
50
4
16

> <PUBCHEM_MMFF94_PARTIAL_CHARGES>
9
1 -0.65
11 0.66
12 0.66
2 -0.65
25 0.5
26 0.5
3 -0.57
4 -0.57
8 0.12

> <PUBCHEM_EFFECTIVE_ROTOR_COUNT>
6

> <PUBCHEM_PHARMACOPHORE_FEATURES>
9
1 1 acceptor
1 10 hydrophobe
1 2 acceptor
1 3 acceptor
1 4 acceptor
1 8 anion
3 1 3 11 anion
3 2 4 12 anion
5 5 6 7 8 9 hydrophobe

> <PUBCHEM_HEAVY_ATOM_COUNT>
12

> <PUBCHEM_ATOM_DEF_STEREO_COUNT>
0

> <PUBCHEM_ATOM_UDEF_STEREO_COUNT>
0

> <PUBCHEM_BOND_DEF_STEREO_COUNT>
0

> <PUBCHEM_BOND_UDEF_STEREO_COUNT>
0

> <PUBCHEM_ISOTOPIC_ATOM_COUNT>
0

> <PUBCHEM_COMPONENT_COUNT>
1

> <PUBCHEM_CACTVS_TAUTO_COUNT>
1

> <PUBCHEM_CONFORMER_ID>
00002F0200000001

> <PUBCHEM_MMFF94_ENERGY>
7.2933

> <PUBCHEM_FEATURE_SELFOVERLAP>
46.29

> <PUBCHEM_SHAPE_FINGERPRINT>
10680689 15 18408601457829807502
124424 183 17895486941867445232
12932764 1 17489594493517036284
13024252 1 17060621109634051789
13296909 8 18412548708341061116
187816 3 18339378413131283527
20645464 45 18113613534141384532
20653085 51 15648446969320859377
20871998 184 18409722972000171039
21061003 4 17313384479052658120
2306618 200 16370730335272690098
23402539 116 18260557710207258311
23500284 214 17895749733072105192
3086196 2 18336267838379828078
3248919 1 18341896299022319510

> <PUBCHEM_SHAPE_MULTIPOLES>
223.48
6.41
1.85
1.07
11.24
0.18
0.13
-0.48
1.09
-2.43
-0.09
-0.44
-0.04
-0.12

> <PUBCHEM_SHAPE_SELFOVERLAP>
421.439

> <PUBCHEM_SHAPE_VOLUME>
137.9

> <PUBCHEM_COORDINATE_TYPE>
2
5
10

$$$$

