6857359
  -OEChem-07051212493D

 21 20  0     1  0  0  0  0  0999 V2000
    1.1932    1.5456    0.6692 O   0  0  0  0  0  0  0  0  0  0  0  0
    2.6234   -1.5872   -0.5912 O   0  0  0  0  0  0  0  0  0  0  0  0
   -1.3340    1.4422   -0.5866 O   0  0  0  0  0  0  0  0  0  0  0  0
   -3.5994    0.3952   -0.2148 O   0  0  0  0  0  0  0  0  0  0  0  0
   -2.6174   -1.5560    0.4871 O   0  0  0  0  0  0  0  0  0  0  0  0
    1.2558    0.3519   -0.1133 C   0  0  1  0  0  0  0  0  0  0  0  0
    2.5377   -0.4240    0.2296 C   0  0  2  0  0  0  0  0  0  0  0  0
   -0.0086   -0.4751    0.1477 C   0  0  0  0  0  0  0  0  0  0  0  0
    3.7959    0.4117    0.0252 C   0  0  0  0  0  0  0  0  0  0  0  0
   -1.2727    0.3014   -0.1534 C   0  0  0  0  0  0  0  0  0  0  0  0
   -2.5738   -0.4057    0.1004 C   0  0  0  0  0  0  0  0  0  0  0  0
    1.2734    0.6507   -1.1684 H   0  0  0  0  0  0  0  0  0  0  0  0
    2.5030   -0.7492    1.2764 H   0  0  0  0  0  0  0  0  0  0  0  0
   -0.0070   -1.3795   -0.4696 H   0  0  0  0  0  0  0  0  0  0  0  0
   -0.0504   -0.7608    1.2054 H   0  0  0  0  0  0  0  0  0  0  0  0
    3.8063    1.2945    0.6711 H   0  0  0  0  0  0  0  0  0  0  0  0
    3.8816    0.7374   -1.0173 H   0  0  0  0  0  0  0  0  0  0  0  0
    4.6902   -0.1827    0.2423 H   0  0  0  0  0  0  0  0  0  0  0  0
    1.1849    1.2861    1.6064 H   0  0  0  0  0  0  0  0  0  0  0  0
    3.4224   -2.0748   -0.3275 H   0  0  0  0  0  0  0  0  0  0  0  0
   -4.4674   -0.0429   -0.0841 H   0  0  0  0  0  0  0  0  0  0  0  0
  1  6  1  0  0  0  0
  1 19  1  0  0  0  0
  2  7  1  0  0  0  0
  2 20  1  0  0  0  0
  3 10  2  0  0  0  0
  4 11  1  0  0  0  0
  4 21  1  0  0  0  0
  5 11  2  0  0  0  0
  6  7  1  0  0  0  0
  6  8  1  0  0  0  0
  6 12  1  0  0  0  0
  7  9  1  0  0  0  0
  7 13  1  0  0  0  0
  8 10  1  0  0  0  0
  8 14  1  0  0  0  0
  8 15  1  0  0  0  0
  9 16  1  0  0  0  0
  9 17  1  0  0  0  0
  9 18  1  0  0  0  0
 10 11  1  0  0  0  0
M  END
> <PUBCHEM_COMPOUND_CID>
6857359

> <PUBCHEM_CONFORMER_RMSD>
0.6

> <PUBCHEM_CONFORMER_DIVERSEORDER>
1
30
17
19
3
28
20
4
18
24
23
15
12
22
29
26
11
5
8
25
2
27
16
9
10
13
6
7
21
14

> <PUBCHEM_MMFF94_PARTIAL_CHARGES>
13
1 -0.68
10 0.51
11 0.72
19 0.4
2 -0.68
20 0.4
21 0.5
3 -0.57
4 -0.65
5 -0.57
6 0.28
7 0.28
8 0.06

> <PUBCHEM_EFFECTIVE_ROTOR_COUNT>
4

> <PUBCHEM_PHARMACOPHORE_FEATURES>
8
1 1 acceptor
1 1 donor
1 2 acceptor
1 2 donor
1 3 acceptor
1 4 acceptor
1 5 acceptor
3 4 5 11 anion

> <PUBCHEM_HEAVY_ATOM_COUNT>
11

> <PUBCHEM_ATOM_DEF_STEREO_COUNT>
2

> <PUBCHEM_ATOM_UDEF_STEREO_COUNT>
0

> <PUBCHEM_BOND_DEF_STEREO_COUNT>
0

> <PUBCHEM_BOND_UDEF_STEREO_COUNT>
0

> <PUBCHEM_ISOTOPIC_ATOM_COUNT>
0

> <PUBCHEM_COMPONENT_COUNT>
1

> <PUBCHEM_CACTVS_TAUTO_COUNT>
2

> <PUBCHEM_CONFORMER_ID>
0068A28F00000001

> <PUBCHEM_MMFF94_ENERGY>
16.8329

> <PUBCHEM_FEATURE_SELFOVERLAP>
40.668

> <PUBCHEM_SHAPE_FINGERPRINT>
10219947 1 17313101956119770700
10857977 72 18270689662211588457
11062470 55 18410856563945319368
12897270 3 18272653454276750563
12932764 1 16588317106688422408
14325111 11 18412263943234655202
20201158 50 18409167714201340394
20279233 1 18410856563961383998
20281407 28 18411695482780209922
20645477 70 18114748255721662654
23402539 116 17846227626710050662
23552423 10 17988641852801376119
29004967 10 18186522124578218746
3248919 1 18409173228849450248

> <PUBCHEM_SHAPE_MULTIPOLES>
197.03
5.99
1.38
0.69
0.39
0.08
-0.01
0.69
0.09
0.01
0.01
0.07
-0.01
0.52

> <PUBCHEM_SHAPE_SELFOVERLAP>
378.716

> <PUBCHEM_SHAPE_VOLUME>
119.4

> <PUBCHEM_COORDINATE_TYPE>
2
5
10

$$$$

