13272
  -OEChem-06261208222D

 22 22  0     0  0  0  0  0  0999 V2000
    4.5032   -1.1024    0.0000 O   0  0  0  0  0  0  0  0  0  0  0  0
    8.7006    0.2056    0.0000 O   0  0  0  0  0  0  0  0  0  0  0  0
    8.1654   -1.4417    0.0000 O   0  0  0  0  0  0  0  0  0  0  0  0
    2.0000   -0.1545    0.0000 O   0  5  0  0  0  0  0  0  0  0  0  0
    2.5352   -1.8018    0.0000 O   0  0  0  0  0  0  0  0  0  0  0  0
    2.7431   -0.8236    0.0000 N   0  3  0  0  0  0  0  0  0  0  0  0
    6.5906    1.8018    0.0000 N   0  0  0  0  0  0  0  0  0  0  0  0
    5.3122   -0.5146    0.0000 C   0  0  0  0  0  0  0  0  0  0  0  0
    5.0032    0.4364    0.0000 C   0  0  0  0  0  0  0  0  0  0  0  0
    3.6942   -0.5146    0.0000 C   0  0  0  0  0  0  0  0  0  0  0  0
    4.0032    0.4364    0.0000 C   0  0  0  0  0  0  0  0  0  0  0  0
    6.2633   -0.8236    0.0000 C   0  0  0  0  0  0  0  0  0  0  0  0
    7.0064   -0.1545    0.0000 C   0  0  0  0  0  0  0  0  0  0  0  0
    7.9575   -0.4635    0.0000 C   0  0  0  0  0  0  0  0  0  0  0  0
    6.7985    0.8236    0.0000 C   0  0  0  0  0  0  0  0  0  0  0  0
    9.6517   -0.1034    0.0000 C   0  0  0  0  0  0  0  0  0  0  0  0
    5.3676    0.9380    0.0000 H   0  0  0  0  0  0  0  0  0  0  0  0
    3.6388    0.9380    0.0000 H   0  0  0  0  0  0  0  0  0  0  0  0
    6.3922   -1.4301    0.0000 H   0  0  0  0  0  0  0  0  0  0  0  0
    9.4601   -0.6931    0.0000 H   0  0  0  0  0  0  0  0  0  0  0  0
   10.2413   -0.2950    0.0000 H   0  0  0  0  0  0  0  0  0  0  0  0
    9.8433    0.4862    0.0000 H   0  0  0  0  0  0  0  0  0  0  0  0
  1  8  1  0  0  0  0
  1 10  1  0  0  0  0
  2 14  1  0  0  0  0
  2 16  1  0  0  0  0
  3 14  2  0  0  0  0
  4  6  1  0  0  0  0
  5  6  2  0  0  0  0
  6 10  1  0  0  0  0
  7 15  3  0  0  0  0
  8  9  2  0  0  0  0
  8 12  1  0  0  0  0
  9 11  1  0  0  0  0
  9 17  1  0  0  0  0
 10 11  2  0  0  0  0
 11 18  1  0  0  0  0
 12 13  2  3  0  0  0
 12 19  1  0  0  0  0
 13 14  1  0  0  0  0
 13 15  1  0  0  0  0
 16 20  1  0  0  0  0
 16 21  1  0  0  0  0
 16 22  1  0  0  0  0
M  CHG  2   4  -1   6   1
M  END
> <PUBCHEM_COMPOUND_CID>
13272

> <PUBCHEM_COMPOUND_CANONICALIZED>
1

> <PUBCHEM_CACTVS_COMPLEXITY>
375

> <PUBCHEM_CACTVS_HBOND_ACCEPTOR>
6

> <PUBCHEM_CACTVS_HBOND_DONOR>
0

> <PUBCHEM_CACTVS_ROTATABLE_BOND>
3

> <PUBCHEM_CACTVS_SUBSKEYS>
AAADcYBzOAAAAAAAAAAAAAAAAAAAASAAAAAAAAAAAAAAAAABgAAAHgAEAAAADASBkAIyjIAQRECZBqHSWwCiCAAsIgAoiAEGbMoMpjKEtZuKGSDkwBEI6Ya8AAAAAAAAAAAAAAAAAAAAAAAAAAAAAAAAAA==

> <PUBCHEM_IUPAC_OPENEYE_NAME>
methyl 2-cyano-3-(5-nitro-2-furyl)prop-2-enoate

> <PUBCHEM_IUPAC_CAS_NAME>
2-cyano-3-(5-nitro-2-furanyl)-2-propenoic acid methyl ester

> <PUBCHEM_IUPAC_NAME>
methyl 2-cyano-3-(5-nitrofuran-2-yl)prop-2-enoate

> <PUBCHEM_IUPAC_SYSTEMATIC_NAME>
methyl 2-cyano-3-(5-nitrofuran-2-yl)prop-2-enoate

> <PUBCHEM_IUPAC_TRADITIONAL_NAME>
2-cyano-3-(5-nitro-2-furyl)acrylic acid methyl ester

> <PUBCHEM_IUPAC_INCHI>
InChI=1S/C9H6N2O5/c1-15-9(12)6(5-10)4-7-2-3-8(16-7)11(13)14/h2-4H,1H3

> <PUBCHEM_IUPAC_INCHIKEY>
VTPSQKRYJMAJDL-UHFFFAOYSA-N

> <PUBCHEM_XLOGP3>
1.5

> <PUBCHEM_EXACT_MASS>
222.027671

> <PUBCHEM_MOLECULAR_FORMULA>
C9H6N2O5

> <PUBCHEM_MOLECULAR_WEIGHT>
222.15434

> <PUBCHEM_OPENEYE_CAN_SMILES>
COC(=O)C(=CC1=CC=C(O1)[N+](=O)[O-])C#N

> <PUBCHEM_OPENEYE_ISO_SMILES>
COC(=O)C(=CC1=CC=C(O1)[N+](=O)[O-])C#N

> <PUBCHEM_CACTVS_TPSA>
109

> <PUBCHEM_MONOISOTOPIC_WEIGHT>
222.027671

> <PUBCHEM_TOTAL_CHARGE>
0

> <PUBCHEM_HEAVY_ATOM_COUNT>
16

> <PUBCHEM_ATOM_DEF_STEREO_COUNT>
0

> <PUBCHEM_ATOM_UDEF_STEREO_COUNT>
0

> <PUBCHEM_BOND_DEF_STEREO_COUNT>
0

> <PUBCHEM_BOND_UDEF_STEREO_COUNT>
1

> <PUBCHEM_ISOTOPIC_ATOM_COUNT>
0

> <PUBCHEM_COMPONENT_COUNT>
1

> <PUBCHEM_CACTVS_TAUTO_COUNT>
1

> <PUBCHEM_COORDINATE_TYPE>
1
5
255

> <PUBCHEM_BONDANNOTATIONS>
1  10  8
1  8  8
10  11  8
12  13  1
8  9  8
9  11  8

$$$$

