14332178
  -OEChem-07051213112D

 40 43  0     0  0  0  0  0  0999 V2000
    8.6663   -1.4050    0.0000 O   0  0  0  0  0  0  0  0  0  0  0  0
    8.6663    2.5950    0.0000 O   0  0  0  0  0  0  0  0  0  0  0  0
    6.0682    1.0950    0.0000 O   0  0  0  0  0  0  0  0  0  0  0  0
    6.9343    1.5950    0.0000 O   0  0  0  0  0  0  0  0  0  0  0  0
   10.4147   -1.4396    0.0000 O   0  0  0  0  0  0  0  0  0  0  0  0
    7.8003   -1.9050    0.0000 O   0  0  0  0  0  0  0  0  0  0  0  0
    4.3198    1.1296    0.0000 O   0  0  0  0  0  0  0  0  0  0  0  0
    6.0682   -2.9050    0.0000 O   0  0  0  0  0  0  0  0  0  0  0  0
   12.1965    1.6192    0.0000 O   0  0  0  0  0  0  0  0  0  0  0  0
    2.5381   -1.9292    0.0000 O   0  0  0  0  0  0  0  0  0  0  0  0
    7.8003    0.0950    0.0000 C   0  0  0  0  0  0  0  0  0  0  0  0
    6.9343   -0.4050    0.0000 C   0  0  0  0  0  0  0  0  0  0  0  0
    9.5323    0.0950    0.0000 C   0  0  0  0  0  0  0  0  0  0  0  0
    8.6663   -0.4050    0.0000 C   0  0  0  0  0  0  0  0  0  0  0  0
    9.5323    1.0950    0.0000 C   0  0  0  0  0  0  0  0  0  0  0  0
    5.2022   -0.4050    0.0000 C   0  0  0  0  0  0  0  0  0  0  0  0
    6.0682    0.0950    0.0000 C   0  0  0  0  0  0  0  0  0  0  0  0
    5.2022   -1.4050    0.0000 C   0  0  0  0  0  0  0  0  0  0  0  0
    7.8003    1.0950    0.0000 C   0  0  0  0  0  0  0  0  0  0  0  0
    8.6663    1.5950    0.0000 C   0  0  0  0  0  0  0  0  0  0  0  0
    6.9343   -1.4050    0.0000 C   0  0  0  0  0  0  0  0  0  0  0  0
    6.0682   -1.9050    0.0000 C   0  0  0  0  0  0  0  0  0  0  0  0
   10.4263   -0.4397    0.0000 C   0  0  0  0  0  0  0  0  0  0  0  0
   10.4263    1.6297    0.0000 C   0  0  0  0  0  0  0  0  0  0  0  0
    4.3083    0.1297    0.0000 C   0  0  0  0  0  0  0  0  0  0  0  0
    4.3083   -1.9397    0.0000 C   0  0  0  0  0  0  0  0  0  0  0  0
   11.3324    0.0742    0.0000 C   0  0  0  0  0  0  0  0  0  0  0  0
   11.3324    1.1158    0.0000 C   0  0  0  0  0  0  0  0  0  0  0  0
    3.4022   -0.3842    0.0000 C   0  0  0  0  0  0  0  0  0  0  0  0
    3.4022   -1.4258    0.0000 C   0  0  0  0  0  0  0  0  0  0  0  0
   10.4191    2.2496    0.0000 H   0  0  0  0  0  0  0  0  0  0  0  0
    4.3154   -2.5596    0.0000 H   0  0  0  0  0  0  0  0  0  0  0  0
   11.8681   -0.2379    0.0000 H   0  0  0  0  0  0  0  0  0  0  0  0
    2.8665   -0.0721    0.0000 H   0  0  0  0  0  0  0  0  0  0  0  0
    9.2033   -1.7150    0.0000 H   0  0  0  0  0  0  0  0  0  0  0  0
    9.2033    2.9050    0.0000 H   0  0  0  0  0  0  0  0  0  0  0  0
   10.9480   -1.7558    0.0000 H   0  0  0  0  0  0  0  0  0  0  0  0
    3.7865    1.4458    0.0000 H   0  0  0  0  0  0  0  0  0  0  0  0
   12.7346    1.3112    0.0000 H   0  0  0  0  0  0  0  0  0  0  0  0
    2.0000   -1.6212    0.0000 H   0  0  0  0  0  0  0  0  0  0  0  0
  1 14  1  0  0  0  0
  1 35  1  0  0  0  0
  2 20  1  0  0  0  0
  2 36  1  0  0  0  0
  3 17  2  0  0  0  0
  4 19  2  0  0  0  0
  5 23  1  0  0  0  0
  5 37  1  0  0  0  0
  6 21  2  0  0  0  0
  7 25  1  0  0  0  0
  7 38  1  0  0  0  0
  8 22  2  0  0  0  0
  9 28  1  0  0  0  0
  9 39  1  0  0  0  0
 10 30  1  0  0  0  0
 10 40  1  0  0  0  0
 11 12  2  0  0  0  0
 11 14  1  0  0  0  0
 11 19  1  0  0  0  0
 12 17  1  0  0  0  0
 12 21  1  0  0  0  0
 13 14  2  0  0  0  0
 13 15  1  0  0  0  0
 13 23  1  0  0  0  0
 15 20  2  0  0  0  0
 15 24  1  0  0  0  0
 16 17  1  0  0  0  0
 16 18  1  0  0  0  0
 16 25  2  0  0  0  0
 18 22  1  0  0  0  0
 18 26  2  0  0  0  0
 19 20  1  0  0  0  0
 21 22  1  0  0  0  0
 23 27  2  0  0  0  0
 24 28  2  0  0  0  0
 24 31  1  0  0  0  0
 25 29  1  0  0  0  0
 26 30  1  0  0  0  0
 26 32  1  0  0  0  0
 27 28  1  0  0  0  0
 27 33  1  0  0  0  0
 29 30  2  0  0  0  0
 29 34  1  0  0  0  0
M  END
> <PUBCHEM_COMPOUND_CID>
14332178

> <PUBCHEM_COMPOUND_CANONICALIZED>
1

> <PUBCHEM_CACTVS_COMPLEXITY>
1100

> <PUBCHEM_CACTVS_HBOND_ACCEPTOR>
10

> <PUBCHEM_CACTVS_HBOND_DONOR>
6

> <PUBCHEM_CACTVS_ROTATABLE_BOND>
0

> <PUBCHEM_CACTVS_SUBSKEYS>
AAADccB4PAAAAAAAAAAAAAAAAAAAAAAAAAAwYIEAAAAAAADBAAAAGgAACAAADASAmAAwBoAAAgCIAqBSAAICAAAkIAAAiAFGCMgIJzaKFRKAcUAl4BUImYfL7rTuoAABCAAYAABAAAIQADAAAAAAAAAAAA==

> <PUBCHEM_IUPAC_OPENEYE_NAME>
(3E)-5,7-dihydroxy-3-(1,4,6,8-tetrahydroxy-3-oxo-2-naphthylidene)tetralin-1,2,4-trione

> <PUBCHEM_IUPAC_CAS_NAME>
(3E)-5,7-dihydroxy-3-(1,4,6,8-tetrahydroxy-3-oxo-2-naphthalenylidene)naphthalene-1,2,4-trione

> <PUBCHEM_IUPAC_NAME>
(3E)-5,7-dihydroxy-3-(1,4,6,8-tetrahydroxy-3-oxonaphthalen-2-ylidene)naphthalene-1,2,4-trione

> <PUBCHEM_IUPAC_SYSTEMATIC_NAME>
(3E)-5,7-bis(oxidanyl)-3-[1,4,6,8-tetrakis(oxidanyl)-3-oxidanylidene-naphthalen-2-ylidene]naphthalene-1,2,4-trione

> <PUBCHEM_IUPAC_TRADITIONAL_NAME>
(3E)-5,7-dihydroxy-3-(1,4,6,8-tetrahydroxy-3-keto-2-naphthylidene)tetralin-1,2,4-trione

> <PUBCHEM_IUPAC_INCHI>
InChI=1S/C20H10O10/c21-5-1-7-11(9(23)3-5)17(27)13(19(29)15(7)25)14-18(28)12-8(16(26)20(14)30)2-6(22)4-10(12)24/h1-4,21-25,27H/b14-13+

> <PUBCHEM_IUPAC_INCHIKEY>
YWJBYBQYNXGDPO-BUHFOSPRSA-N

> <PUBCHEM_XLOGP3_AA>
0.7

> <PUBCHEM_EXACT_MASS>
410.027397

> <PUBCHEM_MOLECULAR_FORMULA>
C20H10O10

> <PUBCHEM_MOLECULAR_WEIGHT>
410.2874

> <PUBCHEM_OPENEYE_CAN_SMILES>
C1=C(C=C(C2=C(C(=C3C(=O)C4=C(C=C(C=C4C(=O)C3=O)O)O)C(=O)C(=C21)O)O)O)O

> <PUBCHEM_OPENEYE_ISO_SMILES>
C1=C(C=C(C2=C(/C(=C\3/C(=O)C4=C(C=C(C=C4C(=O)C3=O)O)O)/C(=O)C(=C21)O)O)O)O

> <PUBCHEM_CACTVS_TPSA>
190

> <PUBCHEM_MONOISOTOPIC_WEIGHT>
410.027397

> <PUBCHEM_TOTAL_CHARGE>
0

> <PUBCHEM_HEAVY_ATOM_COUNT>
30

> <PUBCHEM_ATOM_DEF_STEREO_COUNT>
0

> <PUBCHEM_ATOM_UDEF_STEREO_COUNT>
0

> <PUBCHEM_BOND_DEF_STEREO_COUNT>
1

> <PUBCHEM_BOND_UDEF_STEREO_COUNT>
0

> <PUBCHEM_ISOTOPIC_ATOM_COUNT>
0

> <PUBCHEM_COMPONENT_COUNT>
1

> <PUBCHEM_CACTVS_TAUTO_COUNT>
1000

> <PUBCHEM_COORDINATE_TYPE>
1
5
255

> <PUBCHEM_BONDANNOTATIONS>
13  15  8
13  23  8
15  24  8
16  18  8
16  25  8
18  26  8
23  27  8
24  28  8
25  29  8
26  30  8
27  28  8
29  30  8

$$$$

