247740
  -OEChem-07051213073D

 28 29  0     1  0  0  0  0  0999 V2000
   -2.1614    3.0483    0.0397 Cl  0  0  0  0  0  0  0  0  0  0  0  0
    0.7074    3.3886    0.1981 Cl  0  0  0  0  0  0  0  0  0  0  0  0
    4.9569   -1.5792    0.3390 Cl  0  0  0  0  0  0  0  0  0  0  0  0
   -0.4558    0.9105   -0.3892 C   0  0  1  0  0  0  0  0  0  0  0  0
    0.9345    0.2720   -0.2016 C   0  0  0  0  0  0  0  0  0  0  0  0
   -1.5423   -0.0979   -0.2245 C   0  0  0  0  0  0  0  0  0  0  0  0
   -0.6271    2.2175    0.4600 C   0  0  0  0  0  0  0  0  0  0  0  0
    1.9434    0.6575   -1.0452 C   0  0  0  0  0  0  0  0  0  0  0  0
    1.0934   -0.6511    0.7991 C   0  0  0  0  0  0  0  0  0  0  0  0
   -1.8724   -0.9463   -1.2813 C   0  0  0  0  0  0  0  0  0  0  0  0
   -2.2281   -0.1930    0.9866 C   0  0  0  0  0  0  0  0  0  0  0  0
    3.2013    0.0787   -0.8762 C   0  0  0  0  0  0  0  0  0  0  0  0
    2.3512   -1.2299    0.9683 C   0  0  0  0  0  0  0  0  0  0  0  0
   -2.8883   -1.8896   -1.1274 C   0  0  0  0  0  0  0  0  0  0  0  0
   -3.2439   -1.1365    1.1405 C   0  0  0  0  0  0  0  0  0  0  0  0
    3.4053   -0.8649    0.1306 C   0  0  0  0  0  0  0  0  0  0  0  0
   -3.5740   -1.9847    0.0834 C   0  0  0  0  0  0  0  0  0  0  0  0
   -0.5090    1.2363   -1.4411 H   0  0  0  0  0  0  0  0  0  0  0  0
   -0.6313    2.0205    1.5350 H   0  0  0  0  0  0  0  0  0  0  0  0
    1.7925    1.3813   -1.8395 H   0  0  0  0  0  0  0  0  0  0  0  0
    0.3072   -0.9405    1.4852 H   0  0  0  0  0  0  0  0  0  0  0  0
   -1.3460   -0.8849   -2.2303 H   0  0  0  0  0  0  0  0  0  0  0  0
   -1.9917    0.4287    1.8431 H   0  0  0  0  0  0  0  0  0  0  0  0
    4.0126    0.3708   -1.5382 H   0  0  0  0  0  0  0  0  0  0  0  0
    2.4973   -1.9598    1.7605 H   0  0  0  0  0  0  0  0  0  0  0  0
   -3.1449   -2.5506   -1.9500 H   0  0  0  0  0  0  0  0  0  0  0  0
   -3.7746   -1.2147    2.0848 H   0  0  0  0  0  0  0  0  0  0  0  0
   -4.3640   -2.7202    0.2038 H   0  0  0  0  0  0  0  0  0  0  0  0
  1  7  1  0  0  0  0
  2  7  1  0  0  0  0
  3 16  1  0  0  0  0
  4  5  1  0  0  0  0
  4  6  1  0  0  0  0
  4  7  1  0  0  0  0
  4 18  1  0  0  0  0
  5  8  2  0  0  0  0
  5  9  1  0  0  0  0
  6 10  2  0  0  0  0
  6 11  1  0  0  0  0
  7 19  1  0  0  0  0
  8 12  1  0  0  0  0
  8 20  1  0  0  0  0
  9 13  2  0  0  0  0
  9 21  1  0  0  0  0
 10 14  1  0  0  0  0
 10 22  1  0  0  0  0
 11 15  2  0  0  0  0
 11 23  1  0  0  0  0
 12 16  2  0  0  0  0
 12 24  1  0  0  0  0
 13 16  1  0  0  0  0
 13 25  1  0  0  0  0
 14 17  2  0  0  0  0
 14 26  1  0  0  0  0
 15 17  1  0  0  0  0
 15 27  1  0  0  0  0
 17 28  1  0  0  0  0
M  END
> <PUBCHEM_COMPOUND_CID>
247740

> <PUBCHEM_CONFORMER_RMSD>
0.6

> <PUBCHEM_CONFORMER_DIVERSEORDER>
1
3
8
7
6
9
5
10
2
4

> <PUBCHEM_MMFF94_PARTIAL_CHARGES>
26
1 -0.29
10 -0.15
11 -0.15
12 -0.15
13 -0.15
14 -0.15
15 -0.15
16 0.18
17 -0.15
2 -0.29
20 0.15
21 0.15
22 0.15
23 0.15
24 0.15
25 0.15
26 0.15
27 0.15
28 0.15
3 -0.18
4 0.29
5 -0.14
6 -0.14
7 0.58
8 -0.15
9 -0.15

> <PUBCHEM_EFFECTIVE_ROTOR_COUNT>
3

> <PUBCHEM_PHARMACOPHORE_FEATURES>
2
6 5 8 9 12 13 16 rings
6 6 10 11 14 15 17 rings

> <PUBCHEM_HEAVY_ATOM_COUNT>
17

> <PUBCHEM_ATOM_DEF_STEREO_COUNT>
0

> <PUBCHEM_ATOM_UDEF_STEREO_COUNT>
1

> <PUBCHEM_BOND_DEF_STEREO_COUNT>
0

> <PUBCHEM_BOND_UDEF_STEREO_COUNT>
0

> <PUBCHEM_ISOTOPIC_ATOM_COUNT>
0

> <PUBCHEM_COMPONENT_COUNT>
1

> <PUBCHEM_CACTVS_TAUTO_COUNT>
1

> <PUBCHEM_CONFORMER_ID>
0003C7BC00000001

> <PUBCHEM_MMFF94_ENERGY>
51.7462

> <PUBCHEM_FEATURE_SELFOVERLAP>
10.149

> <PUBCHEM_SHAPE_FINGERPRINT>
10989021 7 18262235491615118017
11357001 24 18338795744519015953
11578080 2 17750250135772625521
12553582 1 18336823104578851711
12633257 1 16008750164964302763
12714826 92 18114455751421454856
13140716 1 18336826489393136040
13538477 17 18198620132549553364
13583140 156 17387721485777018658
14178342 30 18126296474178188666
14787075 74 18127976304728307048
15042514 8 18266454502166587937
15375462 189 18339632326733220843
15906896 17 18196090165079024233
16752209 62 18337963401627072367
16945 1 18198342844865042084
1813 80 18260817172970233118
18186145 218 16415482631692319722
19868273 325 18409171034094996164
200 152 18202847642941522354
20291156 8 18411698772815050286
20361792 2 18335145232923781399
20600515 1 17968928811748661032
20645477 70 18048325440392163527
20671657 53 18264491693902124575
20871998 184 18261670501409702501
21296965 67 18409450250135018005
21524375 3 17543640085115487713
21713013 43 17060060285632199291
21731516 1 18336828597973534679
22112679 90 18262784216410066657
2255824 54 18048591517246115692
23402539 116 18342459274877685866
23419403 2 15972522386626476480
23557571 272 18114748247690513416
23559900 14 17972326372415654866
23598288 3 18338792424403658444
23598291 2 17898840263300853471
23598294 1 18337101375652143816
23728640 28 18050577536030798531
2748010 2 18262818309887141336
3091708 16 9496376930152456033
312423 11 18272355491453236942
458136 41 17550656725936846445
465052 167 18193545680751728527
474 4 17687465659082866897
7364860 26 17974286513009334333
7471813 234 18337402538653392724
7970288 3 18410573950898513510
81228 2 18262808491792194001
90316 7 18334285500624821785

> <PUBCHEM_SHAPE_MULTIPOLES>
355.46
6.92
3.17
1.16
5.26
3.3
-0.08
-5.54
0.45
-1.78
0.19
-0.3
-0.35
-0.67

> <PUBCHEM_SHAPE_SELFOVERLAP>
730.462

> <PUBCHEM_SHAPE_VOLUME>
197.1

> <PUBCHEM_COORDINATE_TYPE>
2
5
10

$$$$

