17395742
  -OEChem-06241222523D

 37 39  0     0  0  0  0  0  0999 V2000
   -4.3038    3.7767   -0.3275 F   0  0  0  0  0  0  0  0  0  0  0  0
   -0.2333   -0.2298    1.7257 O   0  0  0  0  0  0  0  0  0  0  0  0
    5.6577    0.0788   -1.3143 O   0  0  0  0  0  0  0  0  0  0  0  0
   -2.3776   -1.3849   -0.1523 N   0  0  0  0  0  0  0  0  0  0  0  0
    1.1259   -0.9654   -0.0398 N   0  0  0  0  0  0  0  0  0  0  0  0
   -2.3544   -3.5963   -0.3557 N   0  0  0  0  0  0  0  0  0  0  0  0
   -1.1338   -1.7845    0.2481 C   0  0  0  0  0  0  0  0  0  0  0  0
   -2.8607   -0.0899   -0.1966 C   0  0  0  0  0  0  0  0  0  0  0  0
   -0.0769   -0.9370    0.7016 C   0  0  0  0  0  0  0  0  0  0  0  0
   -3.0747   -2.5069   -0.5053 C   0  0  0  0  0  0  0  0  0  0  0  0
    2.3355   -0.2617    0.1804 C   0  0  0  0  0  0  0  0  0  0  0  0
   -1.1436   -3.1531    0.1142 C   0  0  0  0  0  0  0  0  0  0  0  0
   -4.2210    0.1535   -0.0075 C   0  0  0  0  0  0  0  0  0  0  0  0
   -1.9878    0.9729   -0.4300 C   0  0  0  0  0  0  0  0  0  0  0  0
    3.4140   -0.4403   -0.6860 C   0  0  0  0  0  0  0  0  0  0  0  0
    2.4481    0.6096    1.2637 C   0  0  0  0  0  0  0  0  0  0  0  0
   -4.7086    1.4596   -0.0518 C   0  0  0  0  0  0  0  0  0  0  0  0
   -2.4755    2.2789   -0.4745 C   0  0  0  0  0  0  0  0  0  0  0  0
    4.6050    0.2525   -0.4691 C   0  0  0  0  0  0  0  0  0  0  0  0
   -3.8358    2.5222   -0.2852 C   0  0  0  0  0  0  0  0  0  0  0  0
    3.6390    1.3026    1.4808 C   0  0  0  0  0  0  0  0  0  0  0  0
    4.7174    1.1240    0.6144 C   0  0  0  0  0  0  0  0  0  0  0  0
    6.8448    0.8186   -1.0335 C   0  0  0  0  0  0  0  0  0  0  0  0
   -4.0897   -2.4930   -0.8807 H   0  0  0  0  0  0  0  0  0  0  0  0
   -0.3425   -3.8455    0.3312 H   0  0  0  0  0  0  0  0  0  0  0  0
    1.1377   -1.5782   -0.8529 H   0  0  0  0  0  0  0  0  0  0  0  0
   -4.9282   -0.6461    0.1961 H   0  0  0  0  0  0  0  0  0  0  0  0
   -0.9384    0.8448   -0.6672 H   0  0  0  0  0  0  0  0  0  0  0  0
    3.3337   -1.1180   -1.5328 H   0  0  0  0  0  0  0  0  0  0  0  0
    1.6582    0.8002    1.9761 H   0  0  0  0  0  0  0  0  0  0  0  0
   -5.7669    1.6504    0.0997 H   0  0  0  0  0  0  0  0  0  0  0  0
   -1.7997    3.1055   -0.6739 H   0  0  0  0  0  0  0  0  0  0  0  0
    3.7267    1.9814    2.3243 H   0  0  0  0  0  0  0  0  0  0  0  0
    5.6123    1.6933    0.8415 H   0  0  0  0  0  0  0  0  0  0  0  0
    7.5774    0.5589   -1.8046 H   0  0  0  0  0  0  0  0  0  0  0  0
    7.2796    0.5313   -0.0701 H   0  0  0  0  0  0  0  0  0  0  0  0
    6.6731    1.8979   -1.1062 H   0  0  0  0  0  0  0  0  0  0  0  0
  1 20  1  0  0  0  0
  2  9  2  0  0  0  0
  3 19  1  0  0  0  0
  3 23  1  0  0  0  0
  4  7  1  0  0  0  0
  4  8  1  0  0  0  0
  4 10  1  0  0  0  0
  5  9  1  0  0  0  0
  5 11  1  0  0  0  0
  5 26  1  0  0  0  0
  6 10  2  0  0  0  0
  6 12  1  0  0  0  0
  7  9  1  0  0  0  0
  7 12  2  0  0  0  0
  8 13  2  0  0  0  0
  8 14  1  0  0  0  0
 10 24  1  0  0  0  0
 11 15  2  0  0  0  0
 11 16  1  0  0  0  0
 12 25  1  0  0  0  0
 13 17  1  0  0  0  0
 13 27  1  0  0  0  0
 14 18  2  0  0  0  0
 14 28  1  0  0  0  0
 15 19  1  0  0  0  0
 15 29  1  0  0  0  0
 16 21  2  0  0  0  0
 16 30  1  0  0  0  0
 17 20  2  0  0  0  0
 17 31  1  0  0  0  0
 18 20  1  0  0  0  0
 18 32  1  0  0  0  0
 19 22  2  0  0  0  0
 21 22  1  0  0  0  0
 21 33  1  0  0  0  0
 22 34  1  0  0  0  0
 23 35  1  0  0  0  0
 23 36  1  0  0  0  0
 23 37  1  0  0  0  0
M  END
> <PUBCHEM_COMPOUND_CID>
17395742

> <PUBCHEM_CONFORMER_RMSD>
0.8

> <PUBCHEM_CONFORMER_DIVERSEORDER>
3
30
16
12
10
11
27
31
18
19
25
9
26
13
5
17
15
14
8
6
1
4
28
29
2
24
7
23
21
22
20

> <PUBCHEM_MMFF94_PARTIAL_CHARGES>
34
1 -0.19
10 0.04
11 0.12
12 0.08
13 -0.15
14 -0.15
15 -0.15
16 -0.15
17 -0.15
18 -0.15
19 0.08
2 -0.57
20 0.19
21 -0.15
22 -0.15
23 0.28
24 0.15
25 0.15
26 0.37
27 0.15
28 0.15
29 0.15
3 -0.36
30 0.15
31 0.15
32 0.15
33 0.15
34 0.15
4 0.33
5 -0.55
6 -0.57
7 -0.24
8 -0.02
9 0.71

> <PUBCHEM_EFFECTIVE_ROTOR_COUNT>
5

> <PUBCHEM_PHARMACOPHORE_FEATURES>
7
1 2 acceptor
1 3 acceptor
1 5 donor
3 4 6 10 cation
5 4 6 7 10 12 rings
6 11 15 16 19 21 22 rings
6 8 13 14 17 18 20 rings

> <PUBCHEM_HEAVY_ATOM_COUNT>
23

> <PUBCHEM_ATOM_DEF_STEREO_COUNT>
0

> <PUBCHEM_ATOM_UDEF_STEREO_COUNT>
0

> <PUBCHEM_BOND_DEF_STEREO_COUNT>
0

> <PUBCHEM_BOND_UDEF_STEREO_COUNT>
0

> <PUBCHEM_ISOTOPIC_ATOM_COUNT>
0

> <PUBCHEM_COMPONENT_COUNT>
1

> <PUBCHEM_CACTVS_TAUTO_COUNT>
2

> <PUBCHEM_CONFORMER_ID>
0109701E00000003

> <PUBCHEM_MMFF94_ENERGY>
83.7063

> <PUBCHEM_FEATURE_SELFOVERLAP>
35.52

> <PUBCHEM_SHAPE_FINGERPRINT>
10165383 225 18261663866302376601
10319688 140 15813416100420518286
10319926 262 18191893174977629034
10411042 1 17907294356715688711
10498660 4 18267595769941533037
105312 117 18410293635530070998
10670039 82 18342741810299686932
107951 10 18408039632678341967
12107183 9 18126862714229656722
12173636 292 18410586097439579399
12236239 1 17418096507647169504
12390115 104 18262231239988158209
12403259 415 18041841701937537722
12596602 18 16558746806395401568
12788726 201 18129388098711845483
12895837 130 18129929097377359268
13944108 23 17184751836099032765
14187579 7 18054774101732611012
14251752 14 18412260667039745750
14251757 5 18409724058622018264
14251764 38 18197782090263122248
14251764 75 18048873288998465913
14508225 48 17902245420890353631
1454969 45 18411141351602721453
14713325 29 18341043026265093427
14790565 3 18192712461021928953
14840074 17 17489862765142339845
15575132 122 17988086698604572517
15961568 22 17836659517659768568
16988056 13 16181036327234618981
17844677 252 18267018363343971104
200 152 15574708102050776970
20101258 96 18053937356182612763
20645477 56 18408880737424290579
20645477 70 16732977609967039430
21033648 29 18335990847359933777
21033650 10 18342736278787933520
21065201 7 18335708174640936554
22122407 14 15626226818644557887
22393880 68 18333731291520788830
23227448 37 18337115566303412557
23557571 272 18262512589814451862
23559900 14 18114181922093186322
3298306 158 18113617911040893198
3610482 184 17916849258804826790
3729539 64 17901653088459135366
38570 142 17631720682280325714
394222 165 17984147238641495107
44062 13 18261111838145203798
508706 21 18262809466543677940
5252454 2 18270972356779968236
5283173 99 18335984186434888848
531348 171 18411414017069245138
56616090 163 18335417993169229150
6327066 14 18271811288900772341
7399639 24 17393061542615851122
7808743 9 18342176682681996668

> <PUBCHEM_SHAPE_MULTIPOLES>
439.37
12.58
3.42
1.1
16.84
0.72
-0.25
-7.28
3.76
-6.45
0.42
1.32
-0.17
0.54

> <PUBCHEM_SHAPE_SELFOVERLAP>
963.975

> <PUBCHEM_SHAPE_VOLUME>
239.9

> <PUBCHEM_COORDINATE_TYPE>
2
5
10

$$$$

