17395972
  -OEChem-06241222532D

 49 52  0     0  0  0  0  0  0999 V2000
    8.9282   -0.6550    0.0000 O   0  0  0  0  0  0  0  0  0  0  0  0
    9.7942   -2.1550    0.0000 O   0  0  0  0  0  0  0  0  0  0  0  0
    4.5981   -1.1550    0.0000 N   0  0  0  0  0  0  0  0  0  0  0  0
    6.3301   -1.1550    0.0000 N   0  0  0  0  0  0  0  0  0  0  0  0
    5.4641    0.3450    0.0000 N   0  0  0  0  0  0  0  0  0  0  0  0
   11.5263   -1.1550    0.0000 N   0  0  0  0  0  0  0  0  0  0  0  0
    7.1962    0.3450    0.0000 N   0  0  0  0  0  0  0  0  0  0  0  0
   11.5263    0.8450    0.0000 N   0  0  0  0  0  0  0  0  0  0  0  0
    6.3301    1.8450    0.0000 N   0  0  0  0  0  0  0  0  0  0  0  0
    3.7320    0.3450    0.0000 C   0  0  0  0  0  0  0  0  0  0  0  0
    3.7320   -0.6550    0.0000 C   0  0  0  0  0  0  0  0  0  0  0  0
    4.5981    0.8450    0.0000 C   0  0  0  0  0  0  0  0  0  0  0  0
    2.8660    0.8450    0.0000 C   0  0  0  0  0  0  0  0  0  0  0  0
    2.8660   -1.1550    0.0000 C   0  0  0  0  0  0  0  0  0  0  0  0
    4.5981    1.8450    0.0000 C   0  0  0  0  0  0  0  0  0  0  0  0
    2.0000    0.3450    0.0000 C   0  0  0  0  0  0  0  0  0  0  0  0
    2.0000   -0.6550    0.0000 C   0  0  0  0  0  0  0  0  0  0  0  0
    5.4641   -0.6550    0.0000 C   0  0  0  0  0  0  0  0  0  0  0  0
    7.1962   -0.6550    0.0000 C   0  0  0  0  0  0  0  0  0  0  0  0
   12.3923   -0.6550    0.0000 C   0  0  0  0  0  0  0  0  0  0  0  0
   12.3923    0.3450    0.0000 C   0  0  0  0  0  0  0  0  0  0  0  0
    8.0622   -1.1550    0.0000 C   0  0  0  0  0  0  0  0  0  0  0  0
   10.6603   -0.6550    0.0000 C   0  0  0  0  0  0  0  0  0  0  0  0
   13.2862   -1.1897    0.0000 C   0  0  0  0  0  0  0  0  0  0  0  0
   13.2862    0.8797    0.0000 C   0  0  0  0  0  0  0  0  0  0  0  0
    6.3301    0.8450    0.0000 C   0  0  0  0  0  0  0  0  0  0  0  0
   10.6603    0.3450    0.0000 C   0  0  0  0  0  0  0  0  0  0  0  0
    9.7942   -1.1550    0.0000 C   0  0  0  0  0  0  0  0  0  0  0  0
   14.1923   -0.6758    0.0000 C   0  0  0  0  0  0  0  0  0  0  0  0
   14.1923    0.3658    0.0000 C   0  0  0  0  0  0  0  0  0  0  0  0
    4.8101    0.2624    0.0000 H   0  0  0  0  0  0  0  0  0  0  0  0
    5.2087    0.9527    0.0000 H   0  0  0  0  0  0  0  0  0  0  0  0
    2.8660    1.4650    0.0000 H   0  0  0  0  0  0  0  0  0  0  0  0
    2.8660   -1.7750    0.0000 H   0  0  0  0  0  0  0  0  0  0  0  0
    4.5981   -1.7750    0.0000 H   0  0  0  0  0  0  0  0  0  0  0  0
    5.2181    1.8450    0.0000 H   0  0  0  0  0  0  0  0  0  0  0  0
    4.5981    2.4650    0.0000 H   0  0  0  0  0  0  0  0  0  0  0  0
    3.9781    1.8450    0.0000 H   0  0  0  0  0  0  0  0  0  0  0  0
    1.4631    0.6550    0.0000 H   0  0  0  0  0  0  0  0  0  0  0  0
    1.4631   -0.9650    0.0000 H   0  0  0  0  0  0  0  0  0  0  0  0
    7.6636   -1.6300    0.0000 H   0  0  0  0  0  0  0  0  0  0  0  0
    8.4607   -1.6300    0.0000 H   0  0  0  0  0  0  0  0  0  0  0  0
   13.2791   -1.8096    0.0000 H   0  0  0  0  0  0  0  0  0  0  0  0
   13.2791    1.4996    0.0000 H   0  0  0  0  0  0  0  0  0  0  0  0
   10.1233    0.6550    0.0000 H   0  0  0  0  0  0  0  0  0  0  0  0
   14.7281   -0.9879    0.0000 H   0  0  0  0  0  0  0  0  0  0  0  0
   14.7281    0.6779    0.0000 H   0  0  0  0  0  0  0  0  0  0  0  0
    6.8671    2.1550    0.0000 H   0  0  0  0  0  0  0  0  0  0  0  0
    5.7932    2.1550    0.0000 H   0  0  0  0  0  0  0  0  0  0  0  0
  1 22  1  0  0  0  0
  1 28  1  0  0  0  0
  2 28  2  0  0  0  0
  3 11  1  0  0  0  0
  3 18  1  0  0  0  0
  3 35  1  0  0  0  0
  4 18  2  0  0  0  0
  4 19  1  0  0  0  0
  5 18  1  0  0  0  0
  5 26  2  0  0  0  0
  6 20  1  0  0  0  0
  6 23  2  0  0  0  0
  7 19  2  0  0  0  0
  7 26  1  0  0  0  0
  8 21  1  0  0  0  0
  8 27  2  0  0  0  0
  9 26  1  0  0  0  0
  9 48  1  0  0  0  0
  9 49  1  0  0  0  0
 10 11  1  0  0  0  0
 10 12  1  0  0  0  0
 10 13  2  0  0  0  0
 11 14  2  0  0  0  0
 12 15  1  0  0  0  0
 12 31  1  0  0  0  0
 12 32  1  0  0  0  0
 13 16  1  0  0  0  0
 13 33  1  0  0  0  0
 14 17  1  0  0  0  0
 14 34  1  0  0  0  0
 15 36  1  0  0  0  0
 15 37  1  0  0  0  0
 15 38  1  0  0  0  0
 16 17  2  0  0  0  0
 16 39  1  0  0  0  0
 17 40  1  0  0  0  0
 19 22  1  0  0  0  0
 20 21  1  0  0  0  0
 20 24  2  0  0  0  0
 21 25  2  0  0  0  0
 22 41  1  0  0  0  0
 22 42  1  0  0  0  0
 23 27  1  0  0  0  0
 23 28  1  0  0  0  0
 24 29  1  0  0  0  0
 24 43  1  0  0  0  0
 25 30  1  0  0  0  0
 25 44  1  0  0  0  0
 27 45  1  0  0  0  0
 29 30  2  0  0  0  0
 29 46  1  0  0  0  0
 30 47  1  0  0  0  0
M  END
> <PUBCHEM_COMPOUND_CID>
17395972

> <PUBCHEM_COMPOUND_CANONICALIZED>
1

> <PUBCHEM_CACTVS_COMPLEXITY>
566

> <PUBCHEM_CACTVS_HBOND_ACCEPTOR>
9

> <PUBCHEM_CACTVS_HBOND_DONOR>
2

> <PUBCHEM_CACTVS_ROTATABLE_BOND>
7

> <PUBCHEM_CACTVS_SUBSKEYS>
AAADceB7sAAAAAAAAAAAAAAAAAAAAAAAAAA8eIEAAAAAAACx/AAAHgAQAAAADAjhnwY/2LbIFACoAzb3bASCgC03EqAJ2CG4fNiKbOrAubmXIIhqkALY6OcQgIAOAAAAAAACACAAAAAAAAQAQAAAAAAAAA==

> <PUBCHEM_IUPAC_OPENEYE_NAME>
[4-amino-6-(2-ethylanilino)-1,3,5-triazin-2-yl]methyl quinoxaline-2-carboxylate

> <PUBCHEM_IUPAC_CAS_NAME>
2-quinoxalinecarboxylic acid [4-amino-6-(2-ethylanilino)-1,3,5-triazin-2-yl]methyl ester

> <PUBCHEM_IUPAC_NAME>
[4-amino-6-(2-ethylanilino)-1,3,5-triazin-2-yl]methyl quinoxaline-2-carboxylate

> <PUBCHEM_IUPAC_SYSTEMATIC_NAME>
[4-azanyl-6-[(2-ethylphenyl)amino]-1,3,5-triazin-2-yl]methyl quinoxaline-2-carboxylate

> <PUBCHEM_IUPAC_TRADITIONAL_NAME>
quinoxaline-2-carboxylic acid [4-amino-6-(2-ethylanilino)-s-triazin-2-yl]methyl ester

> <PUBCHEM_IUPAC_INCHI>
InChI=1S/C21H19N7O2/c1-2-13-7-3-4-8-14(13)25-21-27-18(26-20(22)28-21)12-30-19(29)17-11-23-15-9-5-6-10-16(15)24-17/h3-11H,2,12H2,1H3,(H3,22,25,26,27,28)

> <PUBCHEM_IUPAC_INCHIKEY>
GLJZGOWRTOFOOV-UHFFFAOYSA-N

> <PUBCHEM_XLOGP3_AA>
3.3

> <PUBCHEM_EXACT_MASS>
401.160023

> <PUBCHEM_MOLECULAR_FORMULA>
C21H19N7O2

> <PUBCHEM_MOLECULAR_WEIGHT>
401.42126

> <PUBCHEM_OPENEYE_CAN_SMILES>
CCC1=CC=CC=C1NC2=NC(=NC(=N2)N)COC(=O)C3=NC4=CC=CC=C4N=C3

> <PUBCHEM_OPENEYE_ISO_SMILES>
CCC1=CC=CC=C1NC2=NC(=NC(=N2)N)COC(=O)C3=NC4=CC=CC=C4N=C3

> <PUBCHEM_CACTVS_TPSA>
129

> <PUBCHEM_MONOISOTOPIC_WEIGHT>
401.160023

> <PUBCHEM_TOTAL_CHARGE>
0

> <PUBCHEM_HEAVY_ATOM_COUNT>
30

> <PUBCHEM_ATOM_DEF_STEREO_COUNT>
0

> <PUBCHEM_ATOM_UDEF_STEREO_COUNT>
0

> <PUBCHEM_BOND_DEF_STEREO_COUNT>
0

> <PUBCHEM_BOND_UDEF_STEREO_COUNT>
0

> <PUBCHEM_ISOTOPIC_ATOM_COUNT>
0

> <PUBCHEM_COMPONENT_COUNT>
1

> <PUBCHEM_CACTVS_TAUTO_COUNT>
9

> <PUBCHEM_COORDINATE_TYPE>
1
5
255

> <PUBCHEM_BONDANNOTATIONS>
10  11  8
10  13  8
11  14  8
13  16  8
14  17  8
16  17  8
20  21  8
20  24  8
21  25  8
23  27  8
24  29  8
25  30  8
29  30  8
4  18  8
4  19  8
5  18  8
5  26  8
6  20  8
6  23  8
7  19  8
7  26  8
8  21  8
8  27  8

$$$$

