11969542
  -OEChem-07051213092D

 66 71  0     1  0  0  0  0  0999 V2000
    5.7364   -0.9629    0.0000 O   0  0  0  0  0  0  0  0  0  0  0  0
    8.1718   -2.2366    0.0000 O   0  0  0  0  0  0  0  0  0  0  0  0
    2.0000    3.3487    0.0000 O   0  0  0  0  0  0  0  0  0  0  0  0
   10.3446    0.9002    0.0000 O   0  0  0  0  0  0  0  0  0  0  0  0
    6.6718   -3.1026    0.0000 O   0  0  0  0  0  0  0  0  0  0  0  0
   11.9910    0.3621    0.0000 O   0  0  0  0  0  0  0  0  0  0  0  0
    6.4739   -0.2957    0.0000 C   0  0  1  0  0  0  0  0  0  0  0  0
    7.3399    0.2043    0.0000 C   0  0  1  0  0  0  0  0  0  0  0  0
    6.6831   -1.2675    0.0000 C   0  0  1  0  0  0  0  0  0  0  0  0
    5.6079    0.2043    0.0000 C   0  0  1  0  0  0  0  0  0  0  0  0
    5.6079    1.2043    0.0000 C   0  0  1  0  0  0  0  0  0  0  0  0
    8.0770   -0.4628    0.0000 C   0  0  2  0  0  0  0  0  0  0  0  0
    7.6718   -1.3706    0.0000 C   0  0  1  0  0  0  0  0  0  0  0  0
    4.7140    1.7390    0.0000 C   0  0  2  0  0  0  0  0  0  0  0  0
    7.3399    1.2043    0.0000 C   0  0  0  0  0  0  0  0  0  0  0  0
    6.4739    1.7043    0.0000 C   0  0  0  0  0  0  0  0  0  0  0  0
    4.7140   -0.3304    0.0000 C   0  0  0  0  0  0  0  0  0  0  0  0
    3.8079    1.2251    0.0000 C   0  0  2  0  0  0  0  0  0  0  0  0
    8.2060    0.7043    0.0000 C   0  0  0  0  0  0  0  0  0  0  0  0
    3.8079    0.1835    0.0000 C   0  0  0  0  0  0  0  0  0  0  0  0
    4.7390    2.8237    0.0000 C   0  0  0  0  0  0  0  0  0  0  0  0
    9.0555   -0.2566    0.0000 C   0  0  0  0  0  0  0  0  0  0  0  0
    2.8641    1.7603    0.0000 C   0  0  0  0  0  0  0  0  0  0  0  0
    5.5838    2.2322    0.0000 C   0  0  0  0  0  0  0  0  0  0  0  0
    3.8079    3.3806    0.0000 C   0  0  0  0  0  0  0  0  0  0  0  0
    2.8641    2.8453    0.0000 C   0  0  2  0  0  0  0  0  0  0  0  0
    9.7233   -1.0009    0.0000 C   0  0  0  0  0  0  0  0  0  0  0  0
    9.3661    0.6939    0.0000 C   0  0  0  0  0  0  0  0  0  0  0  0
    7.6718   -3.1026    0.0000 C   0  0  0  0  0  0  0  0  0  0  0  0
   10.7018   -0.7947    0.0000 C   0  0  0  0  0  0  0  0  0  0  0  0
    8.1718   -3.9687    0.0000 C   0  0  0  0  0  0  0  0  0  0  0  0
   11.0125    0.1559    0.0000 C   0  0  0  0  0  0  0  0  0  0  0  0
    6.5079   -2.0993    0.0000 H   0  0  0  0  0  0  0  0  0  0  0  0
    5.6144   -0.6457    0.0000 H   0  0  0  0  0  0  0  0  0  0  0  0
    6.3440    0.7793    0.0000 H   0  0  0  0  0  0  0  0  0  0  0  0
    8.4665   -0.9451    0.0000 H   0  0  0  0  0  0  0  0  0  0  0  0
    7.3344   -1.8907    0.0000 H   0  0  0  0  0  0  0  0  0  0  0  0
    7.9505    1.0966    0.0000 H   0  0  0  0  0  0  0  0  0  0  0  0
    7.5520    1.7869    0.0000 H   0  0  0  0  0  0  0  0  0  0  0  0
    6.8724    2.1792    0.0000 H   0  0  0  0  0  0  0  0  0  0  0  0
    6.0754    2.1792    0.0000 H   0  0  0  0  0  0  0  0  0  0  0  0
    4.3203   -0.8094    0.0000 H   0  0  0  0  0  0  0  0  0  0  0  0
    5.1185   -0.8002    0.0000 H   0  0  0  0  0  0  0  0  0  0  0  0
    3.0734    0.7973    0.0000 H   0  0  0  0  0  0  0  0  0  0  0  0
    8.5160    0.1673    0.0000 H   0  0  0  0  0  0  0  0  0  0  0  0
    8.7429    1.0143    0.0000 H   0  0  0  0  0  0  0  0  0  0  0  0
    7.8960    1.2412    0.0000 H   0  0  0  0  0  0  0  0  0  0  0  0
    3.1970    0.2896    0.0000 H   0  0  0  0  0  0  0  0  0  0  0  0
    3.5988   -0.4002    0.0000 H   0  0  0  0  0  0  0  0  0  0  0  0
    5.3473    2.7035    0.0000 H   0  0  0  0  0  0  0  0  0  0  0  0
    4.9615    3.4024    0.0000 H   0  0  0  0  0  0  0  0  0  0  0  0
    2.2532    1.8664    0.0000 H   0  0  0  0  0  0  0  0  0  0  0  0
    2.6550    1.1766    0.0000 H   0  0  0  0  0  0  0  0  0  0  0  0
    5.8896    1.6930    0.0000 H   0  0  0  0  0  0  0  0  0  0  0  0
    6.1231    2.5381    0.0000 H   0  0  0  0  0  0  0  0  0  0  0  0
    5.2780    2.7716    0.0000 H   0  0  0  0  0  0  0  0  0  0  0  0
    4.2125    3.8504    0.0000 H   0  0  0  0  0  0  0  0  0  0  0  0
    3.4142    3.8596    0.0000 H   0  0  0  0  0  0  0  0  0  0  0  0
    2.8677    3.4653    0.0000 H   0  0  0  0  0  0  0  0  0  0  0  0
    9.5307   -1.5902    0.0000 H   0  0  0  0  0  0  0  0  0  0  0  0
    8.9521    1.1554    0.0000 H   0  0  0  0  0  0  0  0  0  0  0  0
    2.0024    3.9687    0.0000 H   0  0  0  0  0  0  0  0  0  0  0  0
   11.1159   -1.2561    0.0000 H   0  0  0  0  0  0  0  0  0  0  0  0
    7.6349   -4.2787    0.0000 H   0  0  0  0  0  0  0  0  0  0  0  0
    8.4818   -4.5056    0.0000 H   0  0  0  0  0  0  0  0  0  0  0  0
    8.7088   -3.6587    0.0000 H   0  0  0  0  0  0  0  0  0  0  0  0
  7  1  1  1  0  0  0
  1  9  1  0  0  0  0
 13  2  1  1  0  0  0
  2 29  1  0  0  0  0
 26  3  1  1  0  0  0
  3 62  1  0  0  0  0
  4 28  1  0  0  0  0
  4 32  1  0  0  0  0
  5 29  2  0  0  0  0
  6 32  2  0  0  0  0
  7  8  1  0  0  0  0
  7  9  1  0  0  0  0
  7 10  1  0  0  0  0
  8 12  1  0  0  0  0
  8 15  1  0  0  0  0
  8 19  1  1  0  0  0
  9 13  1  0  0  0  0
  9 33  1  6  0  0  0
 10 11  1  0  0  0  0
 10 17  1  0  0  0  0
 10 34  1  1  0  0  0
 11 14  1  0  0  0  0
 11 16  1  0  0  0  0
 11 35  1  6  0  0  0
 12 13  1  0  0  0  0
 12 22  1  1  0  0  0
 12 36  1  0  0  0  0
 13 37  1  0  0  0  0
 14 18  1  0  0  0  0
 14 21  1  0  0  0  0
 14 24  1  1  0  0  0
 15 16  1  0  0  0  0
 15 38  1  0  0  0  0
 15 39  1  0  0  0  0
 16 40  1  0  0  0  0
 16 41  1  0  0  0  0
 17 20  1  0  0  0  0
 17 42  1  0  0  0  0
 17 43  1  0  0  0  0
 18 20  1  0  0  0  0
 18 23  1  0  0  0  0
 18 44  1  1  0  0  0
 19 45  1  0  0  0  0
 19 46  1  0  0  0  0
 19 47  1  0  0  0  0
 20 48  1  0  0  0  0
 20 49  1  0  0  0  0
 21 25  1  0  0  0  0
 21 50  1  0  0  0  0
 21 51  1  0  0  0  0
 22 27  1  0  0  0  0
 22 28  2  0  0  0  0
 23 26  1  0  0  0  0
 23 52  1  0  0  0  0
 23 53  1  0  0  0  0
 24 54  1  0  0  0  0
 24 55  1  0  0  0  0
 24 56  1  0  0  0  0
 25 26  1  0  0  0  0
 25 57  1  0  0  0  0
 25 58  1  0  0  0  0
 26 59  1  0  0  0  0
 27 30  2  0  0  0  0
 27 60  1  0  0  0  0
 28 61  1  0  0  0  0
 29 31  1  0  0  0  0
 30 32  1  0  0  0  0
 30 63  1  0  0  0  0
 31 64  1  0  0  0  0
 31 65  1  0  0  0  0
 31 66  1  0  0  0  0
M  END
> <PUBCHEM_COMPOUND_CID>
11969542

> <PUBCHEM_COMPOUND_CANONICALIZED>
1

> <PUBCHEM_CACTVS_COMPLEXITY>
923

> <PUBCHEM_CACTVS_HBOND_ACCEPTOR>
6

> <PUBCHEM_CACTVS_HBOND_DONOR>
1

> <PUBCHEM_CACTVS_ROTATABLE_BOND>
3

> <PUBCHEM_CACTVS_SUBSKEYS>
AAADcfB4OAAAAAAAAAAAAAAAEgAAAYAAAAA0YMECAAAAAGDQAAAAGgAACAAAD1SggAICCAAABgCIAiDSCAAACAAgIAAICAAAAEgJFAIAIQACUAAFwAAKoYPA4PgPgAAAAAAAAADAAAYAADAAAYQADCAAAA==

> <PUBCHEM_IUPAC_INCHI>
InChI=1S/C26H34O6/c1-14(27)31-22-21(15-4-7-20(29)30-13-15)25(3)11-9-18-19(26(25)23(22)32-26)6-5-16-12-17(28)8-10-24(16,18)2/h4,7,13,16-19,21-23,28H,5-6,8-12H2,1-3H3/t16-,17+,18+,19-,21+,22-,23-,24+,25-,26-/m1/s1

> <PUBCHEM_IUPAC_INCHIKEY>
SCULJPGYOQQXTK-OLRINKBESA-N

> <PUBCHEM_XLOGP3_AA>
3.3

> <PUBCHEM_EXACT_MASS>
442.235539

> <PUBCHEM_MOLECULAR_FORMULA>
C26H34O6

> <PUBCHEM_MOLECULAR_WEIGHT>
442.54456

> <PUBCHEM_OPENEYE_CAN_SMILES>
CC(=O)OC1C(C2(CCC3C(C24C1O4)CCC5C3(CCC(C5)O)C)C)C6=COC(=O)C=C6

> <PUBCHEM_OPENEYE_ISO_SMILES>
CC(=O)O[C@@H]1[C@@H]([C@]2(CC[C@H]3[C@H]([C@@]24[C@@H]1O4)CC[C@H]5[C@@]3(CC[C@@H](C5)O)C)C)C6=COC(=O)C=C6

> <PUBCHEM_CACTVS_TPSA>
85.4

> <PUBCHEM_MONOISOTOPIC_WEIGHT>
442.235539

> <PUBCHEM_TOTAL_CHARGE>
0

> <PUBCHEM_HEAVY_ATOM_COUNT>
32

> <PUBCHEM_ATOM_DEF_STEREO_COUNT>
10

> <PUBCHEM_ATOM_UDEF_STEREO_COUNT>
0

> <PUBCHEM_BOND_DEF_STEREO_COUNT>
0

> <PUBCHEM_BOND_UDEF_STEREO_COUNT>
0

> <PUBCHEM_ISOTOPIC_ATOM_COUNT>
0

> <PUBCHEM_COMPONENT_COUNT>
1

> <PUBCHEM_CACTVS_TAUTO_COUNT>
1

> <PUBCHEM_COORDINATE_TYPE>
1
5
255

> <PUBCHEM_BONDANNOTATIONS>
7  1  5
10  34  5
11  35  6
12  22  5
14  24  5
18  44  5
13  2  5
22  27  8
22  28  8
27  30  8
26  3  5
30  32  8
4  28  8
4  32  8
8  19  5
9  33  6

$$$$

