5459768
  -OEChem-07051212493D

 23 23  0     1  0  0  0  0  0999 V2000
   -1.6619   -1.3228    1.1632 O   0  0  0  0  0  0  0  0  0  0  0  0
   -3.3181    0.4087   -0.2611 O   0  0  0  0  0  0  0  0  0  0  0  0
    3.0893    0.3518    0.9872 O   0  0  0  0  0  0  0  0  0  0  0  0
    2.7694   -0.4050   -1.1389 O   0  0  0  0  0  0  0  0  0  0  0  0
    0.8717   -0.0140    0.3056 C   0  0  2  0  0  0  0  0  0  0  0  0
   -1.3912   -1.0372   -0.2099 C   0  0  2  0  0  0  0  0  0  0  0  0
    0.1176   -1.1135   -0.4530 C   0  0  0  0  0  0  0  0  0  0  0  0
   -1.9252    0.3559   -0.5517 C   0  0  2  0  0  0  0  0  0  0  0  0
    0.3153    1.3775   -0.0068 C   0  0  0  0  0  0  0  0  0  0  0  0
   -1.1920    1.4525    0.2215 C   0  0  0  0  0  0  0  0  0  0  0  0
    2.3251   -0.0539   -0.0560 C   0  0  0  0  0  0  0  0  0  0  0  0
    0.7780   -0.2162    1.3808 H   0  0  0  0  0  0  0  0  0  0  0  0
   -1.9172   -1.7940   -0.8024 H   0  0  0  0  0  0  0  0  0  0  0  0
    0.3062   -1.0336   -1.5314 H   0  0  0  0  0  0  0  0  0  0  0  0
    0.4981   -2.0923   -0.1346 H   0  0  0  0  0  0  0  0  0  0  0  0
   -1.8118    0.5350   -1.6273 H   0  0  0  0  0  0  0  0  0  0  0  0
    0.5357    1.6436   -1.0492 H   0  0  0  0  0  0  0  0  0  0  0  0
    0.8157    2.1313    0.6134 H   0  0  0  0  0  0  0  0  0  0  0  0
   -1.4130    1.3736    1.2935 H   0  0  0  0  0  0  0  0  0  0  0  0
   -1.5698    2.4354   -0.0849 H   0  0  0  0  0  0  0  0  0  0  0  0
   -1.3187   -2.2133    1.3499 H   0  0  0  0  0  0  0  0  0  0  0  0
   -3.4302    0.2245    0.6873 H   0  0  0  0  0  0  0  0  0  0  0  0
    4.0458    0.3320    0.7702 H   0  0  0  0  0  0  0  0  0  0  0  0
  1  6  1  0  0  0  0
  1 21  1  0  0  0  0
  2  8  1  0  0  0  0
  2 22  1  0  0  0  0
  3 11  1  0  0  0  0
  3 23  1  0  0  0  0
  4 11  2  0  0  0  0
  5  7  1  0  0  0  0
  5  9  1  0  0  0  0
  5 11  1  0  0  0  0
  5 12  1  0  0  0  0
  6  7  1  0  0  0  0
  6  8  1  0  0  0  0
  6 13  1  0  0  0  0
  7 14  1  0  0  0  0
  7 15  1  0  0  0  0
  8 10  1  0  0  0  0
  8 16  1  0  0  0  0
  9 10  1  0  0  0  0
  9 17  1  0  0  0  0
  9 18  1  0  0  0  0
 10 19  1  0  0  0  0
 10 20  1  0  0  0  0
M  END
> <PUBCHEM_COMPOUND_CID>
5459768

> <PUBCHEM_CONFORMER_RMSD>
0.6

> <PUBCHEM_CONFORMER_DIVERSEORDER>
1
4
5
7
6
2
3
8

> <PUBCHEM_MMFF94_PARTIAL_CHARGES>
11
1 -0.68
11 0.66
2 -0.68
21 0.4
22 0.4
23 0.5
3 -0.65
4 -0.57
5 0.06
6 0.28
8 0.28

> <PUBCHEM_EFFECTIVE_ROTOR_COUNT>
2.2

> <PUBCHEM_PHARMACOPHORE_FEATURES>
8
1 1 acceptor
1 1 donor
1 2 acceptor
1 2 donor
1 3 acceptor
1 4 acceptor
3 3 4 11 anion
6 5 6 7 8 9 10 rings

> <PUBCHEM_HEAVY_ATOM_COUNT>
11

> <PUBCHEM_ATOM_DEF_STEREO_COUNT>
3

> <PUBCHEM_ATOM_UDEF_STEREO_COUNT>
0

> <PUBCHEM_BOND_DEF_STEREO_COUNT>
0

> <PUBCHEM_BOND_UDEF_STEREO_COUNT>
0

> <PUBCHEM_ISOTOPIC_ATOM_COUNT>
0

> <PUBCHEM_COMPONENT_COUNT>
1

> <PUBCHEM_CACTVS_TAUTO_COUNT>
1

> <PUBCHEM_CONFORMER_ID>
00534F3800000001

> <PUBCHEM_MMFF94_ENERGY>
17.5567

> <PUBCHEM_FEATURE_SELFOVERLAP>
40.659

> <PUBCHEM_SHAPE_FINGERPRINT>
10857977 72 18338520742010378762
12716758 59 18341048618095611154
12897270 3 18261113014549082828
13024252 1 12535347913156604333
15310529 11 16200152109834542837
15775835 57 17060330812736473780
16945 1 18343018912841375917
20201158 50 18186806885099409294
20645464 45 18113626668293852378
20645476 183 17703498939655319406
20653085 51 17241038928800624329
20715346 28 18187641354205879674
21040471 1 18267021854535243220
23235685 24 18411425046112192509
23402655 69 18048338896957524181
23552423 10 17986672562919761644
2748010 2 18194406589153698341
29004967 10 18187923941689714434
369184 2 18411146835141678850
5084963 1 18056762245955463460
528862 383 16986893443132633003

> <PUBCHEM_SHAPE_MULTIPOLES>
202.9
4.18
1.4
0.92
1.12
0.13
0.07
0.13
-0.1
-0.49
0.1
0.2
-0.16
0.39

> <PUBCHEM_SHAPE_SELFOVERLAP>
406.279

> <PUBCHEM_SHAPE_VOLUME>
117.8

> <PUBCHEM_COORDINATE_TYPE>
2
5
10

$$$$

