10441
  -OEChem-06261204332D

 58 57  0     0  0  0  0  0  0999 V2000
    9.7942   -0.7500    0.0000 O   0  0  0  0  0  0  0  0  0  0  0  0
   13.2583    0.2500    0.0000 C   0  0  0  0  0  0  0  0  0  0  0  0
    6.3301    0.2500    0.0000 C   0  0  0  0  0  0  0  0  0  0  0  0
   12.3923    0.7500    0.0000 C   0  0  0  0  0  0  0  0  0  0  0  0
    7.1962    0.7500    0.0000 C   0  0  0  0  0  0  0  0  0  0  0  0
   14.1244    0.7500    0.0000 C   0  0  0  0  0  0  0  0  0  0  0  0
    5.4641    0.7500    0.0000 C   0  0  0  0  0  0  0  0  0  0  0  0
    8.0622    0.2500    0.0000 C   0  0  0  0  0  0  0  0  0  0  0  0
   11.5263    0.2500    0.0000 C   0  0  0  0  0  0  0  0  0  0  0  0
   10.6603    0.7500    0.0000 C   0  0  0  0  0  0  0  0  0  0  0  0
    8.9282    0.7500    0.0000 C   0  0  0  0  0  0  0  0  0  0  0  0
    4.5981    0.2500    0.0000 C   0  0  0  0  0  0  0  0  0  0  0  0
   14.9904    0.2500    0.0000 C   0  0  0  0  0  0  0  0  0  0  0  0
    9.7942    0.2500    0.0000 C   0  0  0  0  0  0  0  0  0  0  0  0
   15.8564    0.7500    0.0000 C   0  0  0  0  0  0  0  0  0  0  0  0
    3.7320    0.7500    0.0000 C   0  0  0  0  0  0  0  0  0  0  0  0
    2.8660    0.2500    0.0000 C   0  0  0  0  0  0  0  0  0  0  0  0
   16.7224    0.2500    0.0000 C   0  0  0  0  0  0  0  0  0  0  0  0
   17.5885    0.7500    0.0000 C   0  0  0  0  0  0  0  0  0  0  0  0
    2.0000    0.7500    0.0000 C   0  0  0  0  0  0  0  0  0  0  0  0
    5.9316   -0.2249    0.0000 H   0  0  0  0  0  0  0  0  0  0  0  0
    6.7287   -0.2249    0.0000 H   0  0  0  0  0  0  0  0  0  0  0  0
   12.8598   -0.2249    0.0000 H   0  0  0  0  0  0  0  0  0  0  0  0
   13.6569   -0.2249    0.0000 H   0  0  0  0  0  0  0  0  0  0  0  0
   12.7908    1.2250    0.0000 H   0  0  0  0  0  0  0  0  0  0  0  0
   11.9938    1.2250    0.0000 H   0  0  0  0  0  0  0  0  0  0  0  0
    7.5947    1.2250    0.0000 H   0  0  0  0  0  0  0  0  0  0  0  0
    6.7976    1.2250    0.0000 H   0  0  0  0  0  0  0  0  0  0  0  0
    5.8626    1.2250    0.0000 H   0  0  0  0  0  0  0  0  0  0  0  0
    5.0656    1.2250    0.0000 H   0  0  0  0  0  0  0  0  0  0  0  0
   14.5229    1.2250    0.0000 H   0  0  0  0  0  0  0  0  0  0  0  0
   13.7258    1.2250    0.0000 H   0  0  0  0  0  0  0  0  0  0  0  0
    7.6636   -0.2249    0.0000 H   0  0  0  0  0  0  0  0  0  0  0  0
    8.4607   -0.2249    0.0000 H   0  0  0  0  0  0  0  0  0  0  0  0
   11.1278   -0.2249    0.0000 H   0  0  0  0  0  0  0  0  0  0  0  0
   11.9248   -0.2249    0.0000 H   0  0  0  0  0  0  0  0  0  0  0  0
    9.3267    1.2250    0.0000 H   0  0  0  0  0  0  0  0  0  0  0  0
    8.5297    1.2250    0.0000 H   0  0  0  0  0  0  0  0  0  0  0  0
   11.0588    1.2250    0.0000 H   0  0  0  0  0  0  0  0  0  0  0  0
   10.2617    1.2250    0.0000 H   0  0  0  0  0  0  0  0  0  0  0  0
    4.1996   -0.2249    0.0000 H   0  0  0  0  0  0  0  0  0  0  0  0
    4.9966   -0.2249    0.0000 H   0  0  0  0  0  0  0  0  0  0  0  0
   14.5919   -0.2249    0.0000 H   0  0  0  0  0  0  0  0  0  0  0  0
   15.3889   -0.2249    0.0000 H   0  0  0  0  0  0  0  0  0  0  0  0
   16.2549    1.2250    0.0000 H   0  0  0  0  0  0  0  0  0  0  0  0
   15.4579    1.2250    0.0000 H   0  0  0  0  0  0  0  0  0  0  0  0
    4.1306    1.2250    0.0000 H   0  0  0  0  0  0  0  0  0  0  0  0
    3.3335    1.2250    0.0000 H   0  0  0  0  0  0  0  0  0  0  0  0
   16.3239   -0.2249    0.0000 H   0  0  0  0  0  0  0  0  0  0  0  0
   17.1210   -0.2249    0.0000 H   0  0  0  0  0  0  0  0  0  0  0  0
    2.4675   -0.2249    0.0000 H   0  0  0  0  0  0  0  0  0  0  0  0
    3.2646   -0.2249    0.0000 H   0  0  0  0  0  0  0  0  0  0  0  0
   17.8985    0.2131    0.0000 H   0  0  0  0  0  0  0  0  0  0  0  0
   18.1254    1.0600    0.0000 H   0  0  0  0  0  0  0  0  0  0  0  0
   17.2785    1.2869    0.0000 H   0  0  0  0  0  0  0  0  0  0  0  0
    2.3100    1.2869    0.0000 H   0  0  0  0  0  0  0  0  0  0  0  0
    1.4631    1.0600    0.0000 H   0  0  0  0  0  0  0  0  0  0  0  0
    1.6900    0.2131    0.0000 H   0  0  0  0  0  0  0  0  0  0  0  0
  1 14  2  0  0  0  0
  2  4  1  0  0  0  0
  2  6  1  0  0  0  0
  2 23  1  0  0  0  0
  2 24  1  0  0  0  0
  3  5  1  0  0  0  0
  3  7  1  0  0  0  0
  3 21  1  0  0  0  0
  3 22  1  0  0  0  0
  4  9  1  0  0  0  0
  4 25  1  0  0  0  0
  4 26  1  0  0  0  0
  5  8  1  0  0  0  0
  5 27  1  0  0  0  0
  5 28  1  0  0  0  0
  6 13  1  0  0  0  0
  6 31  1  0  0  0  0
  6 32  1  0  0  0  0
  7 12  1  0  0  0  0
  7 29  1  0  0  0  0
  7 30  1  0  0  0  0
  8 11  1  0  0  0  0
  8 33  1  0  0  0  0
  8 34  1  0  0  0  0
  9 10  1  0  0  0  0
  9 35  1  0  0  0  0
  9 36  1  0  0  0  0
 10 14  1  0  0  0  0
 10 39  1  0  0  0  0
 10 40  1  0  0  0  0
 11 14  1  0  0  0  0
 11 37  1  0  0  0  0
 11 38  1  0  0  0  0
 12 16  1  0  0  0  0
 12 41  1  0  0  0  0
 12 42  1  0  0  0  0
 13 15  1  0  0  0  0
 13 43  1  0  0  0  0
 13 44  1  0  0  0  0
 15 18  1  0  0  0  0
 15 45  1  0  0  0  0
 15 46  1  0  0  0  0
 16 17  1  0  0  0  0
 16 47  1  0  0  0  0
 16 48  1  0  0  0  0
 17 20  1  0  0  0  0
 17 51  1  0  0  0  0
 17 52  1  0  0  0  0
 18 19  1  0  0  0  0
 18 49  1  0  0  0  0
 18 50  1  0  0  0  0
 19 53  1  0  0  0  0
 19 54  1  0  0  0  0
 19 55  1  0  0  0  0
 20 56  1  0  0  0  0
 20 57  1  0  0  0  0
 20 58  1  0  0  0  0
M  END
> <PUBCHEM_COMPOUND_CID>
10441

> <PUBCHEM_COMPOUND_CANONICALIZED>
1

> <PUBCHEM_CACTVS_COMPLEXITY>
178

> <PUBCHEM_CACTVS_HBOND_ACCEPTOR>
1

> <PUBCHEM_CACTVS_HBOND_DONOR>
0

> <PUBCHEM_CACTVS_ROTATABLE_BOND>
16

> <PUBCHEM_CACTVS_SUBSKEYS>
AAADcfB4IAAAAAAAAAAAAAAAAAAAAAAAAAAAAAAAAAAAAAAAAAAAGgAAAAAACASAgAACAAAAAAAIAIAQAAAAAAAAAAAAAAEAAAAAABIAAAAAAAAAAAAAAAEIiICAAAAAAAAAAAAAAAAAAAAAAAAAAAAAAA==

> <PUBCHEM_IUPAC_OPENEYE_NAME>
nonadecan-10-one

> <PUBCHEM_IUPAC_CAS_NAME>
10-nonadecanone

> <PUBCHEM_IUPAC_NAME>
nonadecan-10-one

> <PUBCHEM_IUPAC_SYSTEMATIC_NAME>
nonadecan-10-one

> <PUBCHEM_IUPAC_TRADITIONAL_NAME>
nonadecan-10-one

> <PUBCHEM_IUPAC_INCHI>
InChI=1S/C19H38O/c1-3-5-7-9-11-13-15-17-19(20)18-16-14-12-10-8-6-4-2/h3-18H2,1-2H3

> <PUBCHEM_IUPAC_INCHIKEY>
YUPOCHDBBHTUBJ-UHFFFAOYSA-N

> <PUBCHEM_XLOGP3_AA>
8.1

> <PUBCHEM_EXACT_MASS>
282.292266

> <PUBCHEM_MOLECULAR_FORMULA>
C19H38O

> <PUBCHEM_MOLECULAR_WEIGHT>
282.50442

> <PUBCHEM_OPENEYE_CAN_SMILES>
CCCCCCCCCC(=O)CCCCCCCCC

> <PUBCHEM_OPENEYE_ISO_SMILES>
CCCCCCCCCC(=O)CCCCCCCCC

> <PUBCHEM_CACTVS_TPSA>
17.1

> <PUBCHEM_MONOISOTOPIC_WEIGHT>
282.292266

> <PUBCHEM_TOTAL_CHARGE>
0

> <PUBCHEM_HEAVY_ATOM_COUNT>
20

> <PUBCHEM_ATOM_DEF_STEREO_COUNT>
0

> <PUBCHEM_ATOM_UDEF_STEREO_COUNT>
0

> <PUBCHEM_BOND_DEF_STEREO_COUNT>
0

> <PUBCHEM_BOND_UDEF_STEREO_COUNT>
0

> <PUBCHEM_ISOTOPIC_ATOM_COUNT>
0

> <PUBCHEM_COMPONENT_COUNT>
1

> <PUBCHEM_CACTVS_TAUTO_COUNT>
2

> <PUBCHEM_COORDINATE_TYPE>
1
5
255

$$$$

