163911
  -OEChem-07051213152D

 38 41  0     1  0  0  0  0  0999 V2000
    7.0156    0.3351    0.0000 O   0  0  0  0  0  0  0  0  0  0  0  0
    6.5852   -1.2469    0.0000 O   0  0  0  0  0  0  0  0  0  0  0  0
    4.7200   -2.2086    0.0000 O   0  0  0  0  0  0  0  0  0  0  0  0
    7.2651   -0.1582    0.0000 O   0  0  0  0  0  0  0  0  0  0  0  0
    6.4211    0.9064    0.0000 O   0  0  0  0  0  0  0  0  0  0  0  0
    7.5440   -0.6121    0.0000 O   0  0  0  0  0  0  0  0  0  0  0  0
    4.1985    2.0496    0.0000 O   0  0  0  0  0  0  0  0  0  0  0  0
    4.1985   -0.7876    0.0000 N   0  0  0  0  0  0  0  0  0  0  0  0
    3.4030    0.5903    0.0000 N   0  0  0  0  0  0  0  0  0  0  0  0
    2.5369   -0.8283    0.0000 N   0  0  0  0  0  0  0  0  0  0  0  0
    4.9941   -0.3283    0.0000 C   0  0  2  0  0  0  0  0  0  0  0  0
    4.9941    0.5903    0.0000 C   0  0  2  0  0  0  0  0  0  0  0  0
    5.9949    1.0088    0.0000 C   0  0  2  0  0  0  0  0  0  0  0  0
    4.9941   -1.2469    0.0000 C   0  0  3  0  0  0  0  0  0  0  0  0
    5.7896   -1.7062    0.0000 C   0  0  1  0  0  0  0  0  0  0  0  0
    6.3420   -0.5427    0.0000 C   0  0  1  0  0  0  0  0  0  0  0  0
    5.7896    0.1310    0.0000 C   0  0  1  0  0  0  0  0  0  0  0  0
    6.5852   -0.3283    0.0000 C   0  0  1  0  0  0  0  0  0  0  0  0
    4.1985    1.0496    0.0000 C   0  0  2  0  0  0  0  0  0  0  0  0
    7.1365   -1.1499    0.0000 C   0  0  0  0  0  0  0  0  0  0  0  0
    3.4030   -0.3283    0.0000 C   0  0  0  0  0  0  0  0  0  0  0  0
    5.0482    1.4386    0.0000 H   0  0  0  0  0  0  0  0  0  0  0  0
    6.0744    1.8551    0.0000 H   0  0  0  0  0  0  0  0  0  0  0  0
    4.1522   -1.1293    0.0000 H   0  0  0  0  0  0  0  0  0  0  0  0
    5.7896   -2.5562    0.0000 H   0  0  0  0  0  0  0  0  0  0  0  0
    5.3876    0.6030    0.0000 H   0  0  0  0  0  0  0  0  0  0  0  0
    4.7354    1.3596    0.0000 H   0  0  0  0  0  0  0  0  0  0  0  0
    4.1985   -1.4076    0.0000 H   0  0  0  0  0  0  0  0  0  0  0  0
    6.7600   -1.6425    0.0000 H   0  0  0  0  0  0  0  0  0  0  0  0
    7.6291   -1.5264    0.0000 H   0  0  0  0  0  0  0  0  0  0  0  0
    7.5130   -0.6573    0.0000 H   0  0  0  0  0  0  0  0  0  0  0  0
    4.1187   -2.3596    0.0000 H   0  0  0  0  0  0  0  0  0  0  0  0
    7.6416    0.3344    0.0000 H   0  0  0  0  0  0  0  0  0  0  0  0
    7.0005    1.1270    0.0000 H   0  0  0  0  0  0  0  0  0  0  0  0
    7.9709   -1.0618    0.0000 H   0  0  0  0  0  0  0  0  0  0  0  0
    3.6616    2.3596    0.0000 H   0  0  0  0  0  0  0  0  0  0  0  0
    2.0000   -0.5183    0.0000 H   0  0  0  0  0  0  0  0  0  0  0  0
    2.5369   -1.4483    0.0000 H   0  0  0  0  0  0  0  0  0  0  0  0
  1 13  1  0  0  0  0
  1 18  1  0  0  0  0
  2 15  1  0  0  0  0
  2 18  1  0  0  0  0
  3 14  1  0  0  0  0
  3 32  1  0  0  0  0
 16  4  1  6  0  0  0
  4 33  1  0  0  0  0
 17  5  1  6  0  0  0
  5 34  1  0  0  0  0
 18  6  1  1  0  0  0
  6 35  1  0  0  0  0
 19  7  1  1  0  0  0
  7 36  1  0  0  0  0
 11  8  1  1  0  0  0
  8 21  1  0  0  0  0
  8 28  1  0  0  0  0
  9 19  1  0  0  0  0
  9 21  2  0  0  0  0
 10 21  1  0  0  0  0
 10 37  1  0  0  0  0
 10 38  1  0  0  0  0
 11 12  1  0  0  0  0
 11 14  1  0  0  0  0
 11 17  1  0  0  0  0
 12 13  1  0  0  0  0
 12 19  1  0  0  0  0
 12 22  1  6  0  0  0
 13 16  1  0  0  0  0
 13 23  1  6  0  0  0
 14 15  1  0  0  0  0
 14 24  1  0  0  0  0
 15 16  1  0  0  0  0
 15 25  1  6  0  0  0
 16 20  1  0  0  0  0
 17 18  1  0  0  0  0
 17 26  1  0  0  0  0
 19 27  1  0  0  0  0
 20 29  1  0  0  0  0
 20 30  1  0  0  0  0
 20 31  1  0  0  0  0
M  END
> <PUBCHEM_COMPOUND_CID>
163911

> <PUBCHEM_COMPOUND_CANONICALIZED>
1

> <PUBCHEM_CACTVS_COMPLEXITY>
546

> <PUBCHEM_CACTVS_HBOND_ACCEPTOR>
8

> <PUBCHEM_CACTVS_HBOND_DONOR>
7

> <PUBCHEM_CACTVS_ROTATABLE_BOND>
0

> <PUBCHEM_CACTVS_SUBSKEYS>
AAADceBzOAAAAAAAAAAAAAAAAAAAAAAAAAA0SJECAAAAAACAAAAAHgAQCAAADdzhgAYDCALABgAgAAAAJAAAAAEAAAABAAAAAACTEAIAyAAmQAAHEAIXAAHw8P8OgAAAAAAAAADSgAYUADSgAAAAAAAAAA==

> <PUBCHEM_IUPAC_INCHI>
InChI=1S/C11H17N3O7/c1-9(18)4-2-6(16)13-8(12)14-10(2)3(15)5(9)21-11(19,20-4)7(10)17/h2-7,15-19H,1H3,(H3,12,13,14)/t2-,3?,4-,5+,6+,7+,9+,10-,11+/m1/s1

> <PUBCHEM_IUPAC_INCHIKEY>
XXUFXWUHBMGUMY-FDOMXQSUSA-N

> <PUBCHEM_XLOGP3_AA>
-4.9

> <PUBCHEM_EXACT_MASS>
303.10665

> <PUBCHEM_MOLECULAR_FORMULA>
C11H17N3O7

> <PUBCHEM_MOLECULAR_WEIGHT>
303.26858

> <PUBCHEM_OPENEYE_CAN_SMILES>
CC1(C2C3C(N=C(NC34C(C1OC(C4O)(O2)O)O)N)O)O

> <PUBCHEM_OPENEYE_ISO_SMILES>
C[C@@]1([C@H]2[C@@H]3[C@@H](N=C(N[C@]34[C@@H]([C@](O2)(O[C@H]1C4O)O)O)N)O)O

> <PUBCHEM_CACTVS_TPSA>
170

> <PUBCHEM_MONOISOTOPIC_WEIGHT>
303.10665

> <PUBCHEM_TOTAL_CHARGE>
0

> <PUBCHEM_HEAVY_ATOM_COUNT>
21

> <PUBCHEM_ATOM_DEF_STEREO_COUNT>
8

> <PUBCHEM_ATOM_UDEF_STEREO_COUNT>
1

> <PUBCHEM_BOND_DEF_STEREO_COUNT>
0

> <PUBCHEM_BOND_UDEF_STEREO_COUNT>
0

> <PUBCHEM_ISOTOPIC_ATOM_COUNT>
0

> <PUBCHEM_COMPONENT_COUNT>
1

> <PUBCHEM_CACTVS_TAUTO_COUNT>
3

> <PUBCHEM_COORDINATE_TYPE>
1
5
255

> <PUBCHEM_BONDANNOTATIONS>
12  22  6
13  23  6
14  24  3
15  25  6
16  4  6
17  5  6
18  6  5
19  7  5
11  8  5

$$$$

