5280619
  -OEChem-07051212482D

 49 52  0     1  0  0  0  0  0999 V2000
    6.6578   -2.5772    0.0000 O   0  0  0  0  0  0  0  0  0  0  0  0
    8.3885   -2.6442    0.0000 O   0  0  0  0  0  0  0  0  0  0  0  0
    5.8505   -1.0447    0.0000 O   0  0  0  0  0  0  0  0  0  0  0  0
    6.9654    1.8505    0.0000 N   0  3  0  0  0  0  0  0  0  0  0  0
    4.5124    0.7330    0.0000 N   0  0  0  0  0  0  0  0  0  0  0  0
    6.2962    1.1073    0.0000 C   0  0  1  0  0  0  0  0  0  0  0  0
    6.6028    0.1118    0.0000 C   0  0  0  0  0  0  0  0  0  0  0  0
    5.3181    1.3153    0.0000 C   0  0  0  0  0  0  0  0  0  0  0  0
    7.6200   -0.1126    0.0000 C   0  0  1  0  0  0  0  0  0  0  0  0
    6.6564    2.8016    0.0000 C   0  0  0  0  0  0  0  0  0  0  0  0
    5.0091    2.2663    0.0000 C   0  0  0  0  0  0  0  0  0  0  0  0
    5.6782    3.0095    0.0000 C   0  0  0  0  0  0  0  0  0  0  0  0
    8.3170    0.6615    0.0000 C   0  0  0  0  0  0  0  0  0  0  0  0
    7.9875    1.6497    0.0000 C   0  0  0  0  0  0  0  0  0  0  0  0
    4.0150    2.2637    0.0000 C   0  0  0  0  0  0  0  0  0  0  0  0
    3.7086    1.3180    0.0000 C   0  0  0  0  0  0  0  0  0  0  0  0
    7.5812   -1.1118    0.0000 C   0  0  0  0  0  0  0  0  0  0  0  0
    9.2959    0.4574    0.0000 C   0  0  0  0  0  0  0  0  0  0  0  0
    3.3334    3.0432    0.0000 C   0  0  0  0  0  0  0  0  0  0  0  0
    2.6994    1.0863    0.0000 C   0  0  0  0  0  0  0  0  0  0  0  0
    6.6965   -1.5779    0.0000 C   0  0  0  0  0  0  0  0  0  0  0  0
    8.4272   -1.6450    0.0000 C   0  0  0  0  0  0  0  0  0  0  0  0
    2.3191    2.8349    0.0000 C   0  0  0  0  0  0  0  0  0  0  0  0
    2.0000    1.8498    0.0000 C   0  0  0  0  0  0  0  0  0  0  0  0
    9.6086   -0.4925    0.0000 C   0  0  0  0  0  0  0  0  0  0  0  0
    5.7730   -3.0432    0.0000 C   0  0  0  0  0  0  0  0  0  0  0  0
    5.7226    0.4801    0.0000 H   0  0  0  0  0  0  0  0  0  0  0  0
    5.9878    0.0335    0.0000 H   0  0  0  0  0  0  0  0  0  0  0  0
    6.5748   -0.5075    0.0000 H   0  0  0  0  0  0  0  0  0  0  0  0
    8.1944   -0.3459    0.0000 H   0  0  0  0  0  0  0  0  0  0  0  0
    7.2703    2.8878    0.0000 H   0  0  0  0  0  0  0  0  0  0  0  0
    6.6780    3.4212    0.0000 H   0  0  0  0  0  0  0  0  0  0  0  0
    5.9105    3.5843    0.0000 H   0  0  0  0  0  0  0  0  0  0  0  0
    5.1524    3.3380    0.0000 H   0  0  0  0  0  0  0  0  0  0  0  0
    8.3970    2.1152    0.0000 H   0  0  0  0  0  0  0  0  0  0  0  0
    4.5113    0.1130    0.0000 H   0  0  0  0  0  0  0  0  0  0  0  0
    9.7090    0.9197    0.0000 H   0  0  0  0  0  0  0  0  0  0  0  0
    3.5313    3.6308    0.0000 H   0  0  0  0  0  0  0  0  0  0  0  0
    2.5152    0.4943    0.0000 H   0  0  0  0  0  0  0  0  0  0  0  0
    8.8439   -1.1858    0.0000 H   0  0  0  0  0  0  0  0  0  0  0  0
    1.9056    3.2969    0.0000 H   0  0  0  0  0  0  0  0  0  0  0  0
    1.3942    1.7181    0.0000 H   0  0  0  0  0  0  0  0  0  0  0  0
    9.0197   -0.6863    0.0000 H   0  0  0  0  0  0  0  0  0  0  0  0
    9.8024   -1.0814    0.0000 H   0  0  0  0  0  0  0  0  0  0  0  0
   10.1975   -0.2986    0.0000 H   0  0  0  0  0  0  0  0  0  0  0  0
    8.9130   -2.9748    0.0000 H   0  0  0  0  0  0  0  0  0  0  0  0
    5.4841   -2.4947    0.0000 H   0  0  0  0  0  0  0  0  0  0  0  0
    5.2245   -3.3322    0.0000 H   0  0  0  0  0  0  0  0  0  0  0  0
    6.0620   -3.5918    0.0000 H   0  0  0  0  0  0  0  0  0  0  0  0
  1 21  1  0  0  0  0
  1 26  1  0  0  0  0
  2 22  1  0  0  0  0
  2 46  1  0  0  0  0
  3 21  2  0  0  0  0
  4  6  1  0  0  0  0
  4 10  1  0  0  0  0
  4 14  2  0  0  0  0
  5  8  1  0  0  0  0
  5 16  1  0  0  0  0
  5 36  1  0  0  0  0
  6  7  1  0  0  0  0
  6  8  1  0  0  0  0
  6 27  1  6  0  0  0
  7  9  1  0  0  0  0
  7 28  1  0  0  0  0
  7 29  1  0  0  0  0
  8 11  2  0  0  0  0
  9 13  1  0  0  0  0
  9 17  1  1  0  0  0
  9 30  1  0  0  0  0
 10 12  1  0  0  0  0
 10 31  1  0  0  0  0
 10 32  1  0  0  0  0
 11 12  1  0  0  0  0
 11 15  1  0  0  0  0
 12 33  1  0  0  0  0
 12 34  1  0  0  0  0
 13 14  1  0  0  0  0
 13 18  2  0  0  0  0
 14 35  1  0  0  0  0
 15 16  1  0  0  0  0
 15 19  2  0  0  0  0
 16 20  2  0  0  0  0
 17 21  1  0  0  0  0
 17 22  2  0  0  0  0
 18 25  1  0  0  0  0
 18 37  1  0  0  0  0
 19 23  1  0  0  0  0
 19 38  1  0  0  0  0
 20 24  1  0  0  0  0
 20 39  1  0  0  0  0
 22 40  1  0  0  0  0
 23 24  2  0  0  0  0
 23 41  1  0  0  0  0
 24 42  1  0  0  0  0
 25 43  1  0  0  0  0
 25 44  1  0  0  0  0
 25 45  1  0  0  0  0
 26 47  1  0  0  0  0
 26 48  1  0  0  0  0
 26 49  1  0  0  0  0
M  CHG  1   4   1
M  END
> <PUBCHEM_COMPOUND_CID>
5280619

> <PUBCHEM_COMPOUND_CANONICALIZED>
1

> <PUBCHEM_CACTVS_COMPLEXITY>
666

> <PUBCHEM_CACTVS_HBOND_ACCEPTOR>
3

> <PUBCHEM_CACTVS_HBOND_DONOR>
2

> <PUBCHEM_CACTVS_ROTATABLE_BOND>
3

> <PUBCHEM_CACTVS_SUBSKEYS>
AAADceB7MAAAAAAAAAAAAAAAAAAAAWAAAAA8QIAAAAAAAFiB8AAAHgAQCAAADSjhngYyyPPJlgCoAzTzTACCgCAhIiAImSE4ZNgIdPLAsZGUIAhkkADI6IeY2eOegAAAAAACAAAAAAAAAAQAAAAAAAAAAA==

> <PUBCHEM_IUPAC_OPENEYE_NAME>
methyl (Z)-2-[(2S,3E,12bS)-3-ethylidene-1,2,6,7,12,12b-hexahydroindolo[2,3-a]quinolizin-5-ium-2-yl]-3-hydroxy-prop-2-enoate

> <PUBCHEM_IUPAC_CAS_NAME>
(Z)-2-[(2S,3E,12bS)-3-ethylidene-1,2,6,7,12,12b-hexahydroindolo[2,3-a]quinolizin-5-ium-2-yl]-3-hydroxy-2-propenoic acid methyl ester

> <PUBCHEM_IUPAC_NAME>
methyl (Z)-2-[(2S,3E,12bS)-3-ethylidene-1,2,6,7,12,12b-hexahydroindolo[2,3-a]quinolizin-5-ium-2-yl]-3-hydroxyprop-2-enoate

> <PUBCHEM_IUPAC_SYSTEMATIC_NAME>
methyl (Z)-2-[(2S,3E,12bS)-3-ethylidene-1,2,6,7,12,12b-hexahydroindolo[2,3-a]quinolizin-5-ium-2-yl]-3-oxidanyl-prop-2-enoate

> <PUBCHEM_IUPAC_TRADITIONAL_NAME>
(Z)-2-[(2S,3E,12bS)-3-ethylidene-1,2,6,7,12,12b-hexahydropyrido[2,1-a]$b-carbolin-5-ium-2-yl]-3-hydroxy-acrylic acid methyl ester

> <PUBCHEM_IUPAC_INCHI>
InChI=1S/C21H22N2O3/c1-3-13-11-23-9-8-15-14-6-4-5-7-18(14)22-20(15)19(23)10-16(13)17(12-24)21(25)26-2/h3-7,11-12,16,19,22H,8-10H2,1-2H3/p+1/b13-3-/t16-,19-/m0/s1

> <PUBCHEM_IUPAC_INCHIKEY>
CUHFIPBCFIPFJM-JXSBNBLESA-O

> <PUBCHEM_XLOGP3_AA>
2.7

> <PUBCHEM_EXACT_MASS>
351.170868

> <PUBCHEM_MOLECULAR_FORMULA>
C21H23N2O3+

> <PUBCHEM_MOLECULAR_WEIGHT>
351.41892

> <PUBCHEM_OPENEYE_CAN_SMILES>
CC=C1C=[N+]2CCC3=C(C2CC1C(=CO)C(=O)OC)NC4=CC=CC=C34

> <PUBCHEM_OPENEYE_ISO_SMILES>
C/C=C\1/C=[N+]2CCC3=C([C@@H]2C[C@@H]1/C(=C/O)/C(=O)OC)NC4=CC=CC=C34

> <PUBCHEM_CACTVS_TPSA>
65.3

> <PUBCHEM_MONOISOTOPIC_WEIGHT>
351.170868

> <PUBCHEM_TOTAL_CHARGE>
1

> <PUBCHEM_HEAVY_ATOM_COUNT>
26

> <PUBCHEM_ATOM_DEF_STEREO_COUNT>
2

> <PUBCHEM_ATOM_UDEF_STEREO_COUNT>
0

> <PUBCHEM_BOND_DEF_STEREO_COUNT>
2

> <PUBCHEM_BOND_UDEF_STEREO_COUNT>
0

> <PUBCHEM_ISOTOPIC_ATOM_COUNT>
0

> <PUBCHEM_COMPONENT_COUNT>
1

> <PUBCHEM_CACTVS_TAUTO_COUNT>
3

> <PUBCHEM_COORDINATE_TYPE>
1
5
255

> <PUBCHEM_BONDANNOTATIONS>
11  15  8
15  16  8
15  19  8
16  20  8
19  23  8
20  24  8
23  24  8
5  16  8
5  8  8
6  27  6
8  11  8
9  17  5

$$$$

