35
  -OEChem-07051212493D

 16 16  0     1  0  0  0  0  0999 V2000
    0.4403   -1.2620    1.7010 Cl  0  0  0  0  0  0  0  0  0  0  0  0
   -0.7122    0.6636    0.3399 O   0  0  0  0  0  0  0  0  0  0  0  0
    3.3877    0.0200   -0.6950 O   0  0  0  0  0  0  0  0  0  0  0  0
   -2.8154    1.5252   -0.0251 O   0  0  0  0  0  0  0  0  0  0  0  0
    2.0246    1.3011    0.6017 O   0  0  0  0  0  0  0  0  0  0  0  0
   -0.0922   -0.6130    0.1342 C   0  0  1  0  0  0  0  0  0  0  0  0
    1.0924   -0.4553   -0.8078 C   0  0  0  0  0  0  0  0  0  0  0  0
   -1.1816   -1.4407   -0.4279 C   0  0  0  0  0  0  0  0  0  0  0  0
   -2.3064   -0.7430   -0.5507 C   0  0  0  0  0  0  0  0  0  0  0  0
   -2.0157    0.6062   -0.0635 C   0  0  0  0  0  0  0  0  0  0  0  0
    2.1785    0.3979   -0.2067 C   0  0  0  0  0  0  0  0  0  0  0  0
    1.5081   -1.4411   -1.0527 H   0  0  0  0  0  0  0  0  0  0  0  0
    0.7909    0.0314   -1.7435 H   0  0  0  0  0  0  0  0  0  0  0  0
   -1.0809   -2.4790   -0.7117 H   0  0  0  0  0  0  0  0  0  0  0  0
   -3.2556   -1.0779   -0.9303 H   0  0  0  0  0  0  0  0  0  0  0  0
    4.1176    0.5584   -0.3210 H   0  0  0  0  0  0  0  0  0  0  0  0
  1  6  1  0  0  0  0
  2  6  1  0  0  0  0
  2 10  1  0  0  0  0
  3 11  1  0  0  0  0
  3 16  1  0  0  0  0
  4 10  2  0  0  0  0
  5 11  2  0  0  0  0
  6  7  1  0  0  0  0
  6  8  1  0  0  0  0
  7 11  1  0  0  0  0
  7 12  1  0  0  0  0
  7 13  1  0  0  0  0
  8  9  2  0  0  0  0
  8 14  1  0  0  0  0
  9 10  1  0  0  0  0
  9 15  1  0  0  0  0
M  END
> <PUBCHEM_COMPOUND_CID>
35

> <PUBCHEM_CONFORMER_RMSD>
0.6

> <PUBCHEM_CONFORMER_DIVERSEORDER>
1
4
9
11
8
6
3
10
12
5
7
2

> <PUBCHEM_MMFF94_PARTIAL_CHARGES>
14
1 -0.29
10 0.71
11 0.66
14 0.15
15 0.15
16 0.5
2 -0.43
3 -0.65
4 -0.57
5 -0.57
6 0.71
7 0.06
8 -0.29
9 -0.14

> <PUBCHEM_EFFECTIVE_ROTOR_COUNT>
2.4

> <PUBCHEM_PHARMACOPHORE_FEATURES>
5
1 3 acceptor
1 4 acceptor
1 5 acceptor
3 3 5 11 anion
5 2 6 8 9 10 rings

> <PUBCHEM_HEAVY_ATOM_COUNT>
11

> <PUBCHEM_ATOM_DEF_STEREO_COUNT>
0

> <PUBCHEM_ATOM_UDEF_STEREO_COUNT>
1

> <PUBCHEM_BOND_DEF_STEREO_COUNT>
0

> <PUBCHEM_BOND_UDEF_STEREO_COUNT>
0

> <PUBCHEM_ISOTOPIC_ATOM_COUNT>
0

> <PUBCHEM_COMPONENT_COUNT>
1

> <PUBCHEM_CACTVS_TAUTO_COUNT>
1

> <PUBCHEM_CONFORMER_ID>
0000002300000001

> <PUBCHEM_MMFF94_ENERGY>
11.1842

> <PUBCHEM_FEATURE_SELFOVERLAP>
25.428

> <PUBCHEM_SHAPE_FINGERPRINT>
12716758 59 18334580113716547714
12897270 3 18040715840031337910
12932764 1 18187921742634985790
13024252 1 17632009728672611655
14390081 3 18408327678732988237
15775835 57 18271805769371631901
16945 1 18337957761960706663
19837323 101 18261384559883275215
19973954 147 18263081011609059644
20653085 51 18337096904554219944
21040471 1 18043826479170820339
23235685 24 17275381006215506742
23552423 10 18339082579641220854
29004967 10 14056713522205740302
305870 269 17845660376988054795
369184 2 18261671467661305982
5084963 1 18060140899148298598
528886 8 18040434429494954231

> <PUBCHEM_SHAPE_MULTIPOLES>
204.77
4.01
1.45
1.09
1.21
0.05
-0.28
-1.47
0.79
-0.52
-0.35
0.28
0.39
-0.25

> <PUBCHEM_SHAPE_SELFOVERLAP>
417.271

> <PUBCHEM_SHAPE_VOLUME>
118.8

> <PUBCHEM_COORDINATE_TYPE>
2
5
10

$$$$

