5281503
  -OEChem-07051212573D

 75 77  0     1  0  0  0  0  0999 V2000
   -0.7667   -2.9176   -0.2241 O   0  0  0  0  0  0  0  0  0  0  0  0
   -1.3264   -1.0262   -2.2802 O   0  0  0  0  0  0  0  0  0  0  0  0
    0.6306    2.8102   -0.7580 O   0  0  0  0  0  0  0  0  0  0  0  0
   -2.9137    0.5897    0.6540 O   0  0  0  0  0  0  0  0  0  0  0  0
   -3.6242   -2.0023    0.4194 O   0  0  0  0  0  0  0  0  0  0  0  0
    4.0033   -0.6978    0.7273 O   0  0  0  0  0  0  0  0  0  0  0  0
   -2.3463   -4.4846   -0.7686 O   0  0  0  0  0  0  0  0  0  0  0  0
   -4.4548    2.0995   -0.1631 O   0  0  0  0  0  0  0  0  0  0  0  0
    0.4546    2.0145   -2.9196 O   0  0  0  0  0  0  0  0  0  0  0  0
    5.5982   -0.3076   -0.8870 O   0  0  0  0  0  0  0  0  0  0  0  0
   -1.8405   -0.9840   -0.9398 C   0  0  1  0  0  0  0  0  0  0  0  0
    0.8954    0.4316   -0.7306 C   0  0  2  0  0  0  0  0  0  0  0  0
   -0.7504   -1.4919    0.0136 C   0  0  2  0  0  0  0  0  0  0  0  0
   -0.0019    1.6069   -0.2664 C   0  0  2  0  0  0  0  0  0  0  0  0
    0.6418   -0.9419   -0.1434 C   0  0  0  0  0  0  0  0  0  0  0  0
   -2.3660    0.4366   -0.6501 C   0  0  2  0  0  0  0  0  0  0  0  0
   -1.3913    1.5833   -0.9437 C   0  0  0  0  0  0  0  0  0  0  0  0
   -2.8937   -2.1060   -0.7950 C   0  0  1  0  0  0  0  0  0  0  0  0
    2.3864    0.6550   -0.4090 C   0  0  0  0  0  0  0  0  0  0  0  0
    2.9902   -0.7338   -0.2632 C   0  0  2  0  0  0  0  0  0  0  0  0
    1.8052   -1.5624    0.1451 C   0  0  0  0  0  0  0  0  0  0  0  0
   -0.0848    1.7638    1.2580 C   0  0  0  0  0  0  0  0  0  0  0  0
   -2.0142   -3.3199   -0.6140 C   0  0  0  0  0  0  0  0  0  0  0  0
   -3.8557   -2.2620   -1.9659 C   0  0  0  0  0  0  0  0  0  0  0  0
    2.0300   -2.9096    0.7489 C   0  0  0  0  0  0  0  0  0  0  0  0
   -3.9642    1.4597    0.7584 C   0  0  0  0  0  0  0  0  0  0  0  0
    0.7885    2.8649   -2.1057 C   0  0  0  0  0  0  0  0  0  0  0  0
   -4.4217    1.5424    2.2048 C   0  0  2  0  0  0  0  0  0  0  0  0
    5.2766   -0.4749    0.2809 C   0  0  0  0  0  0  0  0  0  0  0  0
    1.4517    4.1591   -2.4683 C   0  0  0  0  0  0  0  0  0  0  0  0
   -5.8917    1.1239    2.3535 C   0  0  0  0  0  0  0  0  0  0  0  0
   -4.2087    2.9718    2.6953 C   0  0  0  0  0  0  0  0  0  0  0  0
    6.2281   -0.4708    1.4334 C   0  0  0  0  0  0  0  0  0  0  0  0
   -6.1415   -0.3066    1.8930 C   0  0  0  0  0  0  0  0  0  0  0  0
    6.3051   -1.6948    2.2969 C   0  0  0  0  0  0  0  0  0  0  0  0
    6.9242    0.6664    1.6161 C   0  0  0  0  0  0  0  0  0  0  0  0
    6.8486    1.9156    0.7969 C   0  0  0  0  0  0  0  0  0  0  0  0
    0.8254    0.2572   -1.8071 H   0  0  0  0  0  0  0  0  0  0  0  0
   -1.0521   -1.3421    1.0586 H   0  0  0  0  0  0  0  0  0  0  0  0
   -3.1835    0.5711   -1.3742 H   0  0  0  0  0  0  0  0  0  0  0  0
   -1.8806    2.5320   -0.6771 H   0  0  0  0  0  0  0  0  0  0  0  0
   -1.3605    1.6218   -2.0311 H   0  0  0  0  0  0  0  0  0  0  0  0
    2.5370    1.2342    0.5093 H   0  0  0  0  0  0  0  0  0  0  0  0
    2.8939    1.2109   -1.2059 H   0  0  0  0  0  0  0  0  0  0  0  0
    3.3645   -1.1203   -1.2202 H   0  0  0  0  0  0  0  0  0  0  0  0
    0.8917    1.9852    1.6993 H   0  0  0  0  0  0  0  0  0  0  0  0
   -0.7230    2.6172    1.5162 H   0  0  0  0  0  0  0  0  0  0  0  0
   -0.4921    0.8789    1.7521 H   0  0  0  0  0  0  0  0  0  0  0  0
   -4.4402   -1.3482   -2.1147 H   0  0  0  0  0  0  0  0  0  0  0  0
   -3.3401   -2.5086   -2.8994 H   0  0  0  0  0  0  0  0  0  0  0  0
   -4.5786   -3.0636   -1.7729 H   0  0  0  0  0  0  0  0  0  0  0  0
   -1.9887   -0.6337   -2.8736 H   0  0  0  0  0  0  0  0  0  0  0  0
    2.3942   -3.6088   -0.0099 H   0  0  0  0  0  0  0  0  0  0  0  0
    1.1289   -3.3264    1.2046 H   0  0  0  0  0  0  0  0  0  0  0  0
    2.7761   -2.8519    1.5483 H   0  0  0  0  0  0  0  0  0  0  0  0
   -4.2551   -2.7410    0.4621 H   0  0  0  0  0  0  0  0  0  0  0  0
   -3.8003    0.8735    2.8139 H   0  0  0  0  0  0  0  0  0  0  0  0
    0.8253    4.9979   -2.1548 H   0  0  0  0  0  0  0  0  0  0  0  0
    1.5816    4.2078   -3.5532 H   0  0  0  0  0  0  0  0  0  0  0  0
    2.4365    4.2155   -1.9975 H   0  0  0  0  0  0  0  0  0  0  0  0
   -6.5384    1.7960    1.7760 H   0  0  0  0  0  0  0  0  0  0  0  0
   -6.1916    1.2149    3.4044 H   0  0  0  0  0  0  0  0  0  0  0  0
   -4.8197    3.6854    2.1315 H   0  0  0  0  0  0  0  0  0  0  0  0
   -4.4705    3.0629    3.7546 H   0  0  0  0  0  0  0  0  0  0  0  0
   -3.1612    3.2711    2.5783 H   0  0  0  0  0  0  0  0  0  0  0  0
   -7.1828   -0.5849    2.0847 H   0  0  0  0  0  0  0  0  0  0  0  0
   -5.4995   -1.0099    2.4324 H   0  0  0  0  0  0  0  0  0  0  0  0
   -5.9611   -0.4206    0.8200 H   0  0  0  0  0  0  0  0  0  0  0  0
    7.0708   -1.5922    3.0729 H   0  0  0  0  0  0  0  0  0  0  0  0
    6.5574   -2.5704    1.6904 H   0  0  0  0  0  0  0  0  0  0  0  0
    5.3468   -1.8788    2.7925 H   0  0  0  0  0  0  0  0  0  0  0  0
    7.6280    0.7037    2.4456 H   0  0  0  0  0  0  0  0  0  0  0  0
    7.7358    2.0006    0.1624 H   0  0  0  0  0  0  0  0  0  0  0  0
    6.8292    2.7825    1.4662 H   0  0  0  0  0  0  0  0  0  0  0  0
    5.9573    1.9854    0.1690 H   0  0  0  0  0  0  0  0  0  0  0  0
  1 13  1  0  0  0  0
  1 23  1  0  0  0  0
  2 11  1  0  0  0  0
  2 52  1  0  0  0  0
  3 14  1  0  0  0  0
  3 27  1  0  0  0  0
  4 16  1  0  0  0  0
  4 26  1  0  0  0  0
  5 18  1  0  0  0  0
  5 56  1  0  0  0  0
  6 20  1  0  0  0  0
  6 29  1  0  0  0  0
  7 23  2  0  0  0  0
  8 26  2  0  0  0  0
  9 27  2  0  0  0  0
 10 29  2  0  0  0  0
 11 13  1  0  0  0  0
 11 16  1  0  0  0  0
 11 18  1  0  0  0  0
 12 14  1  0  0  0  0
 12 15  1  0  0  0  0
 12 19  1  0  0  0  0
 12 38  1  0  0  0  0
 13 15  1  0  0  0  0
 13 39  1  0  0  0  0
 14 17  1  0  0  0  0
 14 22  1  0  0  0  0
 15 21  2  0  0  0  0
 16 17  1  0  0  0  0
 16 40  1  0  0  0  0
 17 41  1  0  0  0  0
 17 42  1  0  0  0  0
 18 23  1  0  0  0  0
 18 24  1  0  0  0  0
 19 20  1  0  0  0  0
 19 43  1  0  0  0  0
 19 44  1  0  0  0  0
 20 21  1  0  0  0  0
 20 45  1  0  0  0  0
 21 25  1  0  0  0  0
 22 46  1  0  0  0  0
 22 47  1  0  0  0  0
 22 48  1  0  0  0  0
 24 49  1  0  0  0  0
 24 50  1  0  0  0  0
 24 51  1  0  0  0  0
 25 53  1  0  0  0  0
 25 54  1  0  0  0  0
 25 55  1  0  0  0  0
 26 28  1  0  0  0  0
 27 30  1  0  0  0  0
 28 31  1  0  0  0  0
 28 32  1  0  0  0  0
 28 57  1  0  0  0  0
 29 33  1  0  0  0  0
 30 58  1  0  0  0  0
 30 59  1  0  0  0  0
 30 60  1  0  0  0  0
 31 34  1  0  0  0  0
 31 61  1  0  0  0  0
 31 62  1  0  0  0  0
 32 63  1  0  0  0  0
 32 64  1  0  0  0  0
 32 65  1  0  0  0  0
 33 35  1  0  0  0  0
 33 36  2  0  0  0  0
 34 66  1  0  0  0  0
 34 67  1  0  0  0  0
 34 68  1  0  0  0  0
 35 69  1  0  0  0  0
 35 70  1  0  0  0  0
 35 71  1  0  0  0  0
 36 37  1  0  0  0  0
 36 72  1  0  0  0  0
 37 73  1  0  0  0  0
 37 74  1  0  0  0  0
 37 75  1  0  0  0  0
M  END
> <PUBCHEM_COMPOUND_CID>
5281503

> <PUBCHEM_CONFORMER_RMSD>
1.2

> <PUBCHEM_CONFORMER_DIVERSEORDER>
1
4
16
17
5
13
15
6
18
10
11
9
12
14
8
3
7
2

> <PUBCHEM_MMFF94_PARTIAL_CHARGES>
33
1 -0.43
10 -0.57
11 0.28
12 0.14
13 0.42
14 0.28
15 -0.28
16 0.28
18 0.34
2 -0.68
20 0.42
21 -0.28
23 0.66
25 0.14
26 0.66
27 0.66
28 0.06
29 0.71
3 -0.43
30 0.06
33 -0.12
35 0.14
36 -0.29
37 0.14
4 -0.43
5 -0.68
52 0.4
56 0.4
6 -0.43
7 -0.57
72 0.15
8 -0.57
9 -0.57

> <PUBCHEM_EFFECTIVE_ROTOR_COUNT>
10.4

> <PUBCHEM_PHARMACOPHORE_FEATURES>
15
1 10 acceptor
1 2 acceptor
1 2 donor
1 32 hydrophobe
1 34 hydrophobe
1 35 hydrophobe
1 37 hydrophobe
1 5 acceptor
1 5 donor
1 7 acceptor
1 8 acceptor
1 9 acceptor
5 1 11 13 18 23 rings
5 12 15 19 20 21 rings
7 11 12 13 14 15 16 17 rings

> <PUBCHEM_HEAVY_ATOM_COUNT>
37

> <PUBCHEM_ATOM_DEF_STEREO_COUNT>
8

> <PUBCHEM_ATOM_UDEF_STEREO_COUNT>
0

> <PUBCHEM_BOND_DEF_STEREO_COUNT>
1

> <PUBCHEM_BOND_UDEF_STEREO_COUNT>
0

> <PUBCHEM_ISOTOPIC_ATOM_COUNT>
0

> <PUBCHEM_COMPONENT_COUNT>
1

> <PUBCHEM_CACTVS_TAUTO_COUNT>
1

> <PUBCHEM_CONFORMER_ID>
005096DF00000001

> <PUBCHEM_MMFF94_ENERGY>
106.8981

> <PUBCHEM_FEATURE_SELFOVERLAP>
76.16

> <PUBCHEM_SHAPE_FINGERPRINT>
10493431 412 18260824955762086291
1100329 8 18335130973479637641
11007060 377 18114470036852212969
11115154 58 17462882825220787831
11445158 3 17417514831531246279
12128747 34 17603875464138800592
12422481 6 18270399515980802200
12608794 3 17988357079384682283
13140716 1 18339354158913242969
13383668 90 11311502471662554746
13540713 5 18124022443212761773
13782708 43 13686294703950279936
13947930 73 16557878196441045411
14068700 675 18118709637503488543
14790565 3 17972031715208451504
14840074 17 18272081738759477168
14955137 171 18199726172221404549
15021287 119 18130784542934849457
15324884 4 17764858483582074733
15684973 49 17895753976468262710
15840311 113 17897994974924813057
15950262 2 16009590320865547089
16110190 28 18411419501467480680
16114785 44 18121240901948951253
17980427 23 18334013852559652076
20642791 13 18187649076394067742
20739085 24 17907270476448726165
21033648 29 18116428335596402609
21796203 349 17772440552369205808
22122407 14 16226336932495876008
23559900 14 17981630181231091335
25147074 1 18266167345338489709
255183 313 18337394945214399691
3380486 145 18129954493049092493
392239 28 18335146401408366656
469060 322 18201730548033744890
5104073 3 18335999592799032850
6009941 240 16199877296557830277

> <PUBCHEM_SHAPE_MULTIPOLES>
702.75
14.09
4.37
2.5
16.74
0.62
-0.02
-1.74
-12.74
-2.5
1.82
-1.38
-1.86
-3.85

> <PUBCHEM_SHAPE_SELFOVERLAP>
1480.245

> <PUBCHEM_SHAPE_VOLUME>
391.6

> <PUBCHEM_COORDINATE_TYPE>
2
5
10

$$$$

