5281294
  -OEChem-07051212562D

 33 34  0     0  0  0  0  0  0999 V2000
    2.5369   -0.9050    0.0000 O   0  0  0  0  0  0  0  0  0  0  0  0
    2.5369   -2.9050    0.0000 O   0  0  0  0  0  0  0  0  0  0  0  0
    4.2690   -3.9050    0.0000 O   0  0  0  0  0  0  0  0  0  0  0  0
    3.4030    0.5950    0.0000 O   0  0  0  0  0  0  0  0  0  0  0  0
    8.5991    1.5950    0.0000 O   0  0  0  0  0  0  0  0  0  0  0  0
    8.5991    3.5950    0.0000 O   0  0  0  0  0  0  0  0  0  0  0  0
    4.2690   -0.9050    0.0000 C   0  0  0  0  0  0  0  0  0  0  0  0
    3.4030   -1.4050    0.0000 C   0  0  0  0  0  0  0  0  0  0  0  0
    6.0010    2.0950    0.0000 C   0  0  0  0  0  0  0  0  0  0  0  0
    4.2690    0.0950    0.0000 C   0  0  0  0  0  0  0  0  0  0  0  0
    5.1350   -1.4050    0.0000 C   0  0  0  0  0  0  0  0  0  0  0  0
    3.4030   -2.4050    0.0000 C   0  0  0  0  0  0  0  0  0  0  0  0
    5.1350    1.5950    0.0000 C   0  0  0  0  0  0  0  0  0  0  0  0
    4.2690   -2.9050    0.0000 C   0  0  0  0  0  0  0  0  0  0  0  0
    5.1350    0.5950    0.0000 C   0  0  0  0  0  0  0  0  0  0  0  0
    5.1350   -2.4050    0.0000 C   0  0  0  0  0  0  0  0  0  0  0  0
    6.8671    1.5950    0.0000 C   0  0  0  0  0  0  0  0  0  0  0  0
    6.0010    3.0950    0.0000 C   0  0  0  0  0  0  0  0  0  0  0  0
    7.7331    2.0950    0.0000 C   0  0  0  0  0  0  0  0  0  0  0  0
    7.7331    3.0950    0.0000 C   0  0  0  0  0  0  0  0  0  0  0  0
    6.8671    3.5950    0.0000 C   0  0  0  0  0  0  0  0  0  0  0  0
    5.6720   -1.0950    0.0000 H   0  0  0  0  0  0  0  0  0  0  0  0
    4.5981    1.9050    0.0000 H   0  0  0  0  0  0  0  0  0  0  0  0
    5.6720    0.2850    0.0000 H   0  0  0  0  0  0  0  0  0  0  0  0
    5.6720   -2.7150    0.0000 H   0  0  0  0  0  0  0  0  0  0  0  0
    6.8671    0.9750    0.0000 H   0  0  0  0  0  0  0  0  0  0  0  0
    5.4641    3.4050    0.0000 H   0  0  0  0  0  0  0  0  0  0  0  0
    6.8671    4.2150    0.0000 H   0  0  0  0  0  0  0  0  0  0  0  0
    2.0000   -1.2150    0.0000 H   0  0  0  0  0  0  0  0  0  0  0  0
    2.5369   -3.5250    0.0000 H   0  0  0  0  0  0  0  0  0  0  0  0
    4.8059   -4.2150    0.0000 H   0  0  0  0  0  0  0  0  0  0  0  0
    9.1360    1.9050    0.0000 H   0  0  0  0  0  0  0  0  0  0  0  0
    8.5991    4.2150    0.0000 H   0  0  0  0  0  0  0  0  0  0  0  0
  1  8  1  0  0  0  0
  1 29  1  0  0  0  0
  2 12  1  0  0  0  0
  2 30  1  0  0  0  0
  3 14  1  0  0  0  0
  3 31  1  0  0  0  0
  4 10  2  0  0  0  0
  5 19  1  0  0  0  0
  5 32  1  0  0  0  0
  6 20  1  0  0  0  0
  6 33  1  0  0  0  0
  7  8  2  0  0  0  0
  7 10  1  0  0  0  0
  7 11  1  0  0  0  0
  8 12  1  0  0  0  0
  9 13  1  0  0  0  0
  9 17  2  0  0  0  0
  9 18  1  0  0  0  0
 10 15  1  0  0  0  0
 11 16  2  0  0  0  0
 11 22  1  0  0  0  0
 12 14  2  0  0  0  0
 13 15  2  0  0  0  0
 13 23  1  0  0  0  0
 14 16  1  0  0  0  0
 15 24  1  0  0  0  0
 16 25  1  0  0  0  0
 17 19  1  0  0  0  0
 17 26  1  0  0  0  0
 18 21  2  0  0  0  0
 18 27  1  0  0  0  0
 19 20  2  0  0  0  0
 20 21  1  0  0  0  0
 21 28  1  0  0  0  0
M  END
> <PUBCHEM_COMPOUND_CID>
5281294

> <PUBCHEM_COMPOUND_CANONICALIZED>
1

> <PUBCHEM_CACTVS_COMPLEXITY>
396

> <PUBCHEM_CACTVS_HBOND_ACCEPTOR>
6

> <PUBCHEM_CACTVS_HBOND_DONOR>
5

> <PUBCHEM_CACTVS_ROTATABLE_BOND>
3

> <PUBCHEM_CACTVS_SUBSKEYS>
AAADccBwOAAAAAAAAAAAAAAAAAAAAAAAAAAwYAAAAAAAAAABQAAAGgAACAAADASAmAAwBoAAAgCIAqBSAAACAAAkIAAIiAEGiMgJJzaCFRKAcUEl4BUJmYeK7LTOIAABCAAIQABAAAIQABCAAAAAAAAAAA==

> <PUBCHEM_IUPAC_OPENEYE_NAME>
(E)-3-(3,4-dihydroxyphenyl)-1-(2,3,4-trihydroxyphenyl)prop-2-en-1-one

> <PUBCHEM_IUPAC_CAS_NAME>
(E)-3-(3,4-dihydroxyphenyl)-1-(2,3,4-trihydroxyphenyl)-2-propen-1-one

> <PUBCHEM_IUPAC_NAME>
(E)-3-(3,4-dihydroxyphenyl)-1-(2,3,4-trihydroxyphenyl)prop-2-en-1-one

> <PUBCHEM_IUPAC_SYSTEMATIC_NAME>
(E)-3-[3,4-bis(oxidanyl)phenyl]-1-[2,3,4-tris(oxidanyl)phenyl]prop-2-en-1-one

> <PUBCHEM_IUPAC_TRADITIONAL_NAME>
(E)-3-(3,4-dihydroxyphenyl)-1-(2,3,4-trihydroxyphenyl)prop-2-en-1-one

> <PUBCHEM_IUPAC_INCHI>
InChI=1S/C15H12O6/c16-10(9-3-6-12(18)15(21)14(9)20)4-1-8-2-5-11(17)13(19)7-8/h1-7,17-21H/b4-1+

> <PUBCHEM_IUPAC_INCHIKEY>
GSBNFGRTUCCBTK-DAFODLJHSA-N

> <PUBCHEM_XLOGP3_AA>
2.5

> <PUBCHEM_EXACT_MASS>
288.063388

> <PUBCHEM_MOLECULAR_FORMULA>
C15H12O6

> <PUBCHEM_MOLECULAR_WEIGHT>
288.25218

> <PUBCHEM_OPENEYE_CAN_SMILES>
C1=CC(=C(C=C1C=CC(=O)C2=C(C(=C(C=C2)O)O)O)O)O

> <PUBCHEM_OPENEYE_ISO_SMILES>
C1=CC(=C(C=C1/C=C/C(=O)C2=C(C(=C(C=C2)O)O)O)O)O

> <PUBCHEM_CACTVS_TPSA>
118

> <PUBCHEM_MONOISOTOPIC_WEIGHT>
288.063388

> <PUBCHEM_TOTAL_CHARGE>
0

> <PUBCHEM_HEAVY_ATOM_COUNT>
21

> <PUBCHEM_ATOM_DEF_STEREO_COUNT>
0

> <PUBCHEM_ATOM_UDEF_STEREO_COUNT>
0

> <PUBCHEM_BOND_DEF_STEREO_COUNT>
1

> <PUBCHEM_BOND_UDEF_STEREO_COUNT>
0

> <PUBCHEM_ISOTOPIC_ATOM_COUNT>
0

> <PUBCHEM_COMPONENT_COUNT>
1

> <PUBCHEM_CACTVS_TAUTO_COUNT>
679

> <PUBCHEM_COORDINATE_TYPE>
1
5
255

> <PUBCHEM_BONDANNOTATIONS>
11  16  8
12  14  8
14  16  8
17  19  8
18  21  8
19  20  8
20  21  8
7  11  8
7  8  8
8  12  8
9  17  8
9  18  8

$$$$

