4775
  -OEChem-06261200203D

 24 24  0     0  0  0  0  0  0999 V2000
   -4.4670   -0.1717   -0.6713 O   0  0  0  0  0  0  0  0  0  0  0  0
   -3.0377    1.4162    0.0912 O   0  0  0  0  0  0  0  0  0  0  0  0
   -0.3383   -0.3745   -0.4544 C   0  0  0  0  0  0  0  0  0  0  0  0
   -1.1212   -0.6520    0.8369 C   0  0  0  0  0  0  0  0  0  0  0  0
    1.1360   -0.1387   -0.2528 C   0  0  0  0  0  0  0  0  0  0  0  0
   -2.6122   -0.9230    0.6137 C   0  0  0  0  0  0  0  0  0  0  0  0
    1.5967    1.1513   -0.0327 C   0  0  0  0  0  0  0  0  0  0  0  0
    2.0104   -1.2151   -0.2904 C   0  0  0  0  0  0  0  0  0  0  0  0
   -3.3548    0.2390   -0.0085 C   0  0  0  0  0  0  0  0  0  0  0  0
    2.9617    1.3695    0.1539 C   0  0  0  0  0  0  0  0  0  0  0  0
    3.3754   -0.9967   -0.1038 C   0  0  0  0  0  0  0  0  0  0  0  0
    3.8510    0.2956    0.1183 C   0  0  0  0  0  0  0  0  0  0  0  0
   -0.4735   -1.2168   -1.1463 H   0  0  0  0  0  0  0  0  0  0  0  0
   -0.7619    0.4924   -0.9766 H   0  0  0  0  0  0  0  0  0  0  0  0
   -0.6828   -1.5182    1.3482 H   0  0  0  0  0  0  0  0  0  0  0  0
   -1.0058    0.2005    1.5185 H   0  0  0  0  0  0  0  0  0  0  0  0
   -2.7177   -1.7957   -0.0414 H   0  0  0  0  0  0  0  0  0  0  0  0
   -3.0948   -1.1527    1.5697 H   0  0  0  0  0  0  0  0  0  0  0  0
    0.9118    1.9939   -0.0010 H   0  0  0  0  0  0  0  0  0  0  0  0
    1.6497   -2.2255   -0.4606 H   0  0  0  0  0  0  0  0  0  0  0  0
    3.3320    2.3756    0.3275 H   0  0  0  0  0  0  0  0  0  0  0  0
    4.0679   -1.8330   -0.1308 H   0  0  0  0  0  0  0  0  0  0  0  0
    4.9138    0.4656    0.2639 H   0  0  0  0  0  0  0  0  0  0  0  0
   -4.9606    0.5822   -1.0591 H   0  0  0  0  0  0  0  0  0  0  0  0
  1  9  1  0  0  0  0
  1 24  1  0  0  0  0
  2  9  2  0  0  0  0
  3  4  1  0  0  0  0
  3  5  1  0  0  0  0
  3 13  1  0  0  0  0
  3 14  1  0  0  0  0
  4  6  1  0  0  0  0
  4 15  1  0  0  0  0
  4 16  1  0  0  0  0
  5  7  2  0  0  0  0
  5  8  1  0  0  0  0
  6  9  1  0  0  0  0
  6 17  1  0  0  0  0
  6 18  1  0  0  0  0
  7 10  1  0  0  0  0
  7 19  1  0  0  0  0
  8 11  2  0  0  0  0
  8 20  1  0  0  0  0
 10 12  2  0  0  0  0
 10 21  1  0  0  0  0
 11 12  1  0  0  0  0
 11 22  1  0  0  0  0
 12 23  1  0  0  0  0
M  END
> <PUBCHEM_COMPOUND_CID>
4775

> <PUBCHEM_CONFORMER_RMSD>
0.6

> <PUBCHEM_CONFORMER_DIVERSEORDER>
2
23
18
15
14
22
1
19
13
8
7
5
12
9
10
21
20
3
4
16
17
11
6

> <PUBCHEM_MMFF94_PARTIAL_CHARGES>
17
1 -0.65
10 -0.15
11 -0.15
12 -0.15
19 0.15
2 -0.57
20 0.15
21 0.15
22 0.15
23 0.15
24 0.5
3 0.14
5 -0.14
6 0.06
7 -0.15
8 -0.15
9 0.66

> <PUBCHEM_EFFECTIVE_ROTOR_COUNT>
4

> <PUBCHEM_PHARMACOPHORE_FEATURES>
4
1 1 acceptor
1 2 acceptor
3 1 2 9 anion
6 5 7 8 10 11 12 rings

> <PUBCHEM_HEAVY_ATOM_COUNT>
12

> <PUBCHEM_ATOM_DEF_STEREO_COUNT>
0

> <PUBCHEM_ATOM_UDEF_STEREO_COUNT>
0

> <PUBCHEM_BOND_DEF_STEREO_COUNT>
0

> <PUBCHEM_BOND_UDEF_STEREO_COUNT>
0

> <PUBCHEM_ISOTOPIC_ATOM_COUNT>
0

> <PUBCHEM_COMPONENT_COUNT>
1

> <PUBCHEM_CACTVS_TAUTO_COUNT>
1

> <PUBCHEM_CONFORMER_ID>
000012A700000002

> <PUBCHEM_MMFF94_ENERGY>
20.4769

> <PUBCHEM_FEATURE_SELFOVERLAP>
20.356

> <PUBCHEM_SHAPE_FINGERPRINT>
10219947 1 18114176449956808318
10608611 8 18412545396620783689
11062470 55 18409728465062836914
11471102 20 18410012135279350438
12162725 195 18335136509824091049
124424 183 18272651255332577506
12500047 106 17988642965050628794
12932764 1 18188479173286399779
13705890 14 8718836375144010098
13922767 16 18408887334746979088
14144814 61 18411132549974989915
14251717 144 18334577957843561782
14325111 11 18410571773285550227
14415576 193 18411413990987685572
14993402 34 17312818260608025228
15442244 35 18120933068989046258
17802600 8 18409454686826003593
18186145 218 18272366507580283139
190213 19 13614239286806343958
200 152 17894915126737534559
20201158 50 18411979173928429314
20279233 1 18272646839942894250
20528008 55 18343304751610276415
20645477 70 18336546105174562262
22096605 113 18187930529927024977
23402539 116 18409737249041077815
23402655 69 18334298694917329509
3248919 1 17489018258523036039
351380 180 18411143536812634213
4028521 119 18202292428735703037
69090 78 18410296895800963183
93112 12 18411134714733621319

> <PUBCHEM_SHAPE_MULTIPOLES>
235.22
7.85
1.36
0.76
4.34
0.21
-0.04
0.72
0.41
-0.51
-0.05
0.22
-0.08
0.3

> <PUBCHEM_SHAPE_SELFOVERLAP>
476.142

> <PUBCHEM_SHAPE_VOLUME>
137

> <PUBCHEM_COORDINATE_TYPE>
2
5
10

$$$$

