5280539
  -OEChem-07051212473D

 37 37  0     0  0  0  0  0  0999 V2000
    3.6701    2.5183   -0.8029 O   0  0  0  0  0  0  0  0  0  0  0  0
    5.1220   -1.9283    0.2249 O   0  0  0  0  0  0  0  0  0  0  0  0
    5.7221    0.7099   -0.3677 O   0  0  0  0  0  0  0  0  0  0  0  0
   -2.9152    0.3245    0.3783 O   0  0  0  0  0  0  0  0  0  0  0  0
   -2.3361   -1.8935    0.0911 O   0  0  0  0  0  0  0  0  0  0  0  0
   -6.4003    0.9412    0.9371 O   0  0  0  0  0  0  0  0  0  0  0  0
   -5.5607   -1.7544   -0.5672 O   0  0  0  0  0  0  0  0  0  0  0  0
   -4.6271    2.3527    0.7779 O   0  0  0  0  0  0  0  0  0  0  0  0
   -4.2003   -0.5361   -1.9192 O   0  0  0  0  0  0  0  0  0  0  0  0
    1.7646   -0.5282   -0.1334 C   0  0  0  0  0  0  0  0  0  0  0  0
    3.3921    1.2170   -0.5107 C   0  0  0  0  0  0  0  0  0  0  0  0
    4.1246   -1.0260    0.0081 C   0  0  0  0  0  0  0  0  0  0  0  0
    2.7954   -1.4419    0.0867 C   0  0  0  0  0  0  0  0  0  0  0  0
    2.0629    0.8012   -0.4320 C   0  0  0  0  0  0  0  0  0  0  0  0
    4.4229    0.3034   -0.2906 C   0  0  0  0  0  0  0  0  0  0  0  0
    0.3788   -0.9618   -0.0511 C   0  0  0  0  0  0  0  0  0  0  0  0
   -0.6836   -0.1480    0.1384 C   0  0  0  0  0  0  0  0  0  0  0  0
   -4.2985   -0.0351    0.4580 C   0  0  0  0  0  0  0  0  0  0  0  0
   -2.0519   -0.7107    0.1936 C   0  0  0  0  0  0  0  0  0  0  0  0
    3.7874    3.4186    0.2968 C   0  0  0  0  0  0  0  0  0  0  0  0
    5.5819   -2.0758    1.5669 C   0  0  0  0  0  0  0  0  0  0  0  0
   -5.0899    1.2218    0.7276 C   0  0  0  0  0  0  0  0  0  0  0  0
   -4.6611   -0.7687   -0.8105 C   0  0  0  0  0  0  0  0  0  0  0  0
    2.5748   -2.4812    0.3209 H   0  0  0  0  0  0  0  0  0  0  0  0
    1.2887    1.5374   -0.6298 H   0  0  0  0  0  0  0  0  0  0  0  0
    0.2177   -2.0332   -0.1504 H   0  0  0  0  0  0  0  0  0  0  0  0
   -0.5880    0.9242    0.2675 H   0  0  0  0  0  0  0  0  0  0  0  0
   -4.4129   -0.6941    1.3280 H   0  0  0  0  0  0  0  0  0  0  0  0
    5.7393    1.6477   -0.6248 H   0  0  0  0  0  0  0  0  0  0  0  0
    4.0510    4.4049   -0.0947 H   0  0  0  0  0  0  0  0  0  0  0  0
    2.8339    3.4967    0.8287 H   0  0  0  0  0  0  0  0  0  0  0  0
    4.5746    3.0932    0.9842 H   0  0  0  0  0  0  0  0  0  0  0  0
    6.3818   -2.8213    1.5751 H   0  0  0  0  0  0  0  0  0  0  0  0
    5.9818   -1.1292    1.9440 H   0  0  0  0  0  0  0  0  0  0  0  0
    4.7709   -2.4254    2.2136 H   0  0  0  0  0  0  0  0  0  0  0  0
   -6.9226    1.7502    1.1243 H   0  0  0  0  0  0  0  0  0  0  0  0
   -5.7955   -2.2452   -1.3835 H   0  0  0  0  0  0  0  0  0  0  0  0
  1 11  1  0  0  0  0
  1 20  1  0  0  0  0
  2 12  1  0  0  0  0
  2 21  1  0  0  0  0
  3 15  1  0  0  0  0
  3 29  1  0  0  0  0
  4 18  1  0  0  0  0
  4 19  1  0  0  0  0
  5 19  2  0  0  0  0
  6 22  1  0  0  0  0
  6 36  1  0  0  0  0
  7 23  1  0  0  0  0
  7 37  1  0  0  0  0
  8 22  2  0  0  0  0
  9 23  2  0  0  0  0
 10 13  2  0  0  0  0
 10 14  1  0  0  0  0
 10 16  1  0  0  0  0
 11 14  2  0  0  0  0
 11 15  1  0  0  0  0
 12 13  1  0  0  0  0
 12 15  2  0  0  0  0
 13 24  1  0  0  0  0
 14 25  1  0  0  0  0
 16 17  2  0  0  0  0
 16 26  1  0  0  0  0
 17 19  1  0  0  0  0
 17 27  1  0  0  0  0
 18 22  1  0  0  0  0
 18 23  1  0  0  0  0
 18 28  1  0  0  0  0
 20 30  1  0  0  0  0
 20 31  1  0  0  0  0
 20 32  1  0  0  0  0
 21 33  1  0  0  0  0
 21 34  1  0  0  0  0
 21 35  1  0  0  0  0
M  END
> <PUBCHEM_COMPOUND_CID>
5280539

> <PUBCHEM_CONFORMER_RMSD>
0.8

> <PUBCHEM_CONFORMER_DIVERSEORDER>
2
26
5
27
21
30
8
7
25
10
9
16
24
29
14
12
22
4
6
20
13
17
28
1
32
18
15
31
23
19
11
3

> <PUBCHEM_MMFF94_PARTIAL_CHARGES>
30
1 -0.36
10 0.03
11 0.08
12 0.08
13 -0.15
14 -0.15
15 0.08
16 -0.18
17 -0.14
18 0.4
19 0.71
2 -0.36
20 0.28
21 0.28
22 0.66
23 0.66
24 0.15
25 0.15
26 0.15
27 0.15
29 0.45
3 -0.53
36 0.5
37 0.5
4 -0.43
5 -0.57
6 -0.65
7 -0.65
8 -0.57
9 -0.57

> <PUBCHEM_EFFECTIVE_ROTOR_COUNT>
8

> <PUBCHEM_PHARMACOPHORE_FEATURES>
12
1 1 acceptor
1 18 anion
1 2 acceptor
1 3 donor
1 5 acceptor
1 6 acceptor
1 7 acceptor
1 8 acceptor
1 9 acceptor
3 6 8 22 anion
3 7 9 23 anion
6 10 11 12 13 14 15 rings

> <PUBCHEM_HEAVY_ATOM_COUNT>
23

> <PUBCHEM_ATOM_DEF_STEREO_COUNT>
0

> <PUBCHEM_ATOM_UDEF_STEREO_COUNT>
0

> <PUBCHEM_BOND_DEF_STEREO_COUNT>
1

> <PUBCHEM_BOND_UDEF_STEREO_COUNT>
0

> <PUBCHEM_ISOTOPIC_ATOM_COUNT>
0

> <PUBCHEM_COMPONENT_COUNT>
1

> <PUBCHEM_CACTVS_TAUTO_COUNT>
2

> <PUBCHEM_CONFORMER_ID>
0050931B00000002

> <PUBCHEM_MMFF94_ENERGY>
76.2116

> <PUBCHEM_FEATURE_SELFOVERLAP>
61.537

> <PUBCHEM_SHAPE_FINGERPRINT>
10595046 47 18264208019738608711
10763959 59 17561089106919795612
10912923 1 18334574625070038379
11089746 13 18409729534873684084
11405975 8 18343581819903413298
12107183 9 18122342651227470067
12236239 1 18260830405738214886
12616971 3 18335419080122846775
13073987 5 18338795620302373187
13167372 99 18337668719341473289
13167823 11 18335140882137988143
13533116 47 18201721764868056746
13785724 45 17905040705739443878
14251764 18 18342740724168878474
14528608 73 18335135341334543388
14739800 52 17969232131503942216
15183329 4 18341333374348344734
15250474 111 18261684700725395759
1577012 14 18408322189743594047
15788980 27 18334853926809128051
17834072 33 18335421231738126767
17844677 252 18409440376147648819
18681886 176 18040715845170414666
19433438 15 18040437694049946607
20281389 69 18342173397427641105
20645477 70 18413388744073592486
21033648 144 18270688566847254893
21033648 29 17131845256741729381
21315764 268 18342738529124624821
21709351 56 18335987557435466831
2303208 19 16415472783311295875
23081809 10 18410012143321022575
23402539 116 18261396680349562839
23557571 272 13984650486533926250
23559900 14 18411982443116317282
268830 7 18413110558830372613
3004659 81 18260824908607019118
34797466 226 16081365189990748193
4073 2 17916577627640217162
4214541 1 18409446999066327499
5104073 3 18343017761779702315
542803 24 18260548935230473431
633830 44 18410008858119551175

> <PUBCHEM_SHAPE_MULTIPOLES>
420.51
16.25
2.65
1.03
10.17
1.85
0.06
0.37
-1.91
-3
-0.43
0.47
-0.13
-2.38

> <PUBCHEM_SHAPE_SELFOVERLAP>
878.475

> <PUBCHEM_SHAPE_VOLUME>
238.3

> <PUBCHEM_COORDINATE_TYPE>
2
5
10

$$$$

