7158
  -OEChem-07051213053D

 22 22  0     1  0  0  0  0  0999 V2000
    0.5439   -3.1285    0.3170 Cl  0  0  0  0  0  0  0  0  0  0  0  0
    2.3576    2.8280   -0.1379 Cl  0  0  0  0  0  0  0  0  0  0  0  0
    4.5031    0.4167   -0.3750 Cl  0  0  0  0  0  0  0  0  0  0  0  0
   -1.2066   -0.6921    0.4962 O   0  0  0  0  0  0  0  0  0  0  0  0
   -3.9152    1.3221   -0.7527 O   0  0  0  0  0  0  0  0  0  0  0  0
   -3.0570    1.0667    1.3330 O   0  0  0  0  0  0  0  0  0  0  0  0
   -2.1126   -0.2209   -0.4988 C   0  0  1  0  0  0  0  0  0  0  0  0
    0.1184   -0.4424    0.2947 C   0  0  0  0  0  0  0  0  0  0  0  0
   -2.8629   -1.4184   -1.0550 C   0  0  0  0  0  0  0  0  0  0  0  0
    1.0430   -1.4818    0.1922 C   0  0  0  0  0  0  0  0  0  0  0  0
    0.5437    0.8821    0.1905 C   0  0  0  0  0  0  0  0  0  0  0  0
   -3.0592    0.7700    0.1453 C   0  0  0  0  0  0  0  0  0  0  0  0
    1.8933    1.1672   -0.0164 C   0  0  0  0  0  0  0  0  0  0  0  0
    2.3927   -1.1966   -0.0144 C   0  0  0  0  0  0  0  0  0  0  0  0
    2.8178    0.1278   -0.1189 C   0  0  0  0  0  0  0  0  0  0  0  0
   -1.5888    0.2918   -1.3161 H   0  0  0  0  0  0  0  0  0  0  0  0
   -3.4144   -1.9371   -0.2625 H   0  0  0  0  0  0  0  0  0  0  0  0
   -2.1657   -2.1446   -1.4858 H   0  0  0  0  0  0  0  0  0  0  0  0
   -3.5787   -1.1233   -1.8286 H   0  0  0  0  0  0  0  0  0  0  0  0
   -0.1752    1.6932    0.2819 H   0  0  0  0  0  0  0  0  0  0  0  0
    3.1125   -2.0088   -0.0942 H   0  0  0  0  0  0  0  0  0  0  0  0
   -4.5198    1.9695   -0.3313 H   0  0  0  0  0  0  0  0  0  0  0  0
  1 10  1  0  0  0  0
  2 13  1  0  0  0  0
  3 15  1  0  0  0  0
  4  7  1  0  0  0  0
  4  8  1  0  0  0  0
  5 12  1  0  0  0  0
  5 22  1  0  0  0  0
  6 12  2  0  0  0  0
  7  9  1  0  0  0  0
  7 12  1  0  0  0  0
  7 16  1  0  0  0  0
  8 10  1  0  0  0  0
  8 11  2  0  0  0  0
  9 17  1  0  0  0  0
  9 18  1  0  0  0  0
  9 19  1  0  0  0  0
 10 14  2  0  0  0  0
 11 13  1  0  0  0  0
 11 20  1  0  0  0  0
 13 15  2  0  0  0  0
 14 15  1  0  0  0  0
 14 21  1  0  0  0  0
M  END
> <PUBCHEM_COMPOUND_CID>
7158

> <PUBCHEM_CONFORMER_RMSD>
0.6

> <PUBCHEM_CONFORMER_DIVERSEORDER>
1
5
19
22
25
17
4
20
29
27
3
2
14
23
26
10
16
13
9
28
12
15
18
11
6
8
7
21
24

> <PUBCHEM_MMFF94_PARTIAL_CHARGES>
17
1 -0.18
10 0.18
11 -0.15
12 0.66
13 0.18
14 -0.15
15 0.18
2 -0.18
20 0.15
21 0.15
22 0.5
3 -0.18
4 -0.36
5 -0.65
6 -0.57
7 0.34
8 0.08

> <PUBCHEM_EFFECTIVE_ROTOR_COUNT>
3

> <PUBCHEM_PHARMACOPHORE_FEATURES>
5
1 4 acceptor
1 5 acceptor
1 6 acceptor
3 5 6 12 anion
6 8 10 11 13 14 15 rings

> <PUBCHEM_HEAVY_ATOM_COUNT>
15

> <PUBCHEM_ATOM_DEF_STEREO_COUNT>
0

> <PUBCHEM_ATOM_UDEF_STEREO_COUNT>
1

> <PUBCHEM_BOND_DEF_STEREO_COUNT>
0

> <PUBCHEM_BOND_UDEF_STEREO_COUNT>
0

> <PUBCHEM_ISOTOPIC_ATOM_COUNT>
0

> <PUBCHEM_COMPONENT_COUNT>
1

> <PUBCHEM_CACTVS_TAUTO_COUNT>
1

> <PUBCHEM_CONFORMER_ID>
00001BF600000001

> <PUBCHEM_MMFF94_ENERGY>
36.4431

> <PUBCHEM_FEATURE_SELFOVERLAP>
25.437

> <PUBCHEM_SHAPE_FINGERPRINT>
10608611 8 18341896242707930237
10967382 1 18339360889353608786
10980938 120 18339924947223995683
11401426 45 18334298669495386256
11471102 20 18340771549633910012
12654215 9 18128541646493072620
13583140 156 16700633194376227824
14911166 2 18410567354518446998
15279307 12 18260831522767458527
15279308 100 18268423539104094132
15775835 57 18411136952437722719
16945 1 18339082708337148362
18186145 218 18335416846623983644
20510252 161 17977945679053458515
20645476 183 18187936101085235623
20645477 70 18197785598860603895
21524375 3 18272090440099513786
231179 274 18131356344536091820
2334 1 18266177227630839673
23402539 116 18334299777776387926
23402655 69 18337116764815475221
23558518 356 17840588098501340306
23559900 14 18334847279170477372
23598291 2 18043536212111465327
25 1 18342738550282326390
2748010 2 17833821682595504318
3060560 45 18409733988633542022
350125 39 18196923383938243291
474 4 18412262830896375345
528886 8 18411421717465000530
7364860 26 18266179624365372778
74978 22 18334860532447535389
7832392 63 18335985384271776309
81228 2 17409365070841447098
90525 40 17894633643165959503

> <PUBCHEM_SHAPE_MULTIPOLES>
296.69
6.67
2.72
0.86
0.93
0.77
0.02
-2.88
-1.17
-0.75
0.14
0.57
-0.02
-0.45

> <PUBCHEM_SHAPE_SELFOVERLAP>
588.709

> <PUBCHEM_SHAPE_VOLUME>
179.5

> <PUBCHEM_COORDINATE_TYPE>
2
5
10

$$$$

