12565
  -OEChem-06261207053D

 32 33  0     0  0  0  0  0  0999 V2000
   -1.8524   -1.0371   -0.2701 O   0  0  0  0  0  0  0  0  0  0  0  0
    2.8478   -1.5298   -0.3675 O   0  0  0  0  0  0  0  0  0  0  0  0
    3.1823    1.1449    0.3048 O   0  0  0  0  0  0  0  0  0  0  0  0
   -3.0520   -0.2559   -0.0808 C   0  0  0  0  0  0  0  0  0  0  0  0
   -2.8461    1.1956    0.2837 C   0  0  0  0  0  0  0  0  0  0  0  0
   -0.6346   -0.4381   -0.1133 C   0  0  0  0  0  0  0  0  0  0  0  0
   -0.4716    0.9070    0.2243 C   0  0  0  0  0  0  0  0  0  0  0  0
   -3.8449   -0.9482    1.0343 C   0  0  0  0  0  0  0  0  0  0  0  0
   -3.8324   -0.3406   -1.3979 C   0  0  0  0  0  0  0  0  0  0  0  0
   -1.6393    1.7468    0.4280 C   0  0  0  0  0  0  0  0  0  0  0  0
    0.4839   -1.2522   -0.3113 C   0  0  0  0  0  0  0  0  0  0  0  0
    0.8188    1.4321    0.3625 C   0  0  0  0  0  0  0  0  0  0  0  0
    1.7668   -0.7244   -0.1723 C   0  0  0  0  0  0  0  0  0  0  0  0
    1.9343    0.6170    0.1643 C   0  0  0  0  0  0  0  0  0  0  0  0
    3.3552   -2.2215    0.7720 C   0  0  0  0  0  0  0  0  0  0  0  0
    3.7843    1.7044   -0.8609 C   0  0  0  0  0  0  0  0  0  0  0  0
   -3.7264    1.8158    0.4341 H   0  0  0  0  0  0  0  0  0  0  0  0
   -4.0200   -2.0031    0.7921 H   0  0  0  0  0  0  0  0  0  0  0  0
   -3.2835   -0.9381    1.9765 H   0  0  0  0  0  0  0  0  0  0  0  0
   -4.8151   -0.4694    1.2071 H   0  0  0  0  0  0  0  0  0  0  0  0
   -3.2622    0.1103   -2.2191 H   0  0  0  0  0  0  0  0  0  0  0  0
   -4.0072   -1.3850   -1.6820 H   0  0  0  0  0  0  0  0  0  0  0  0
   -4.8022    0.1655   -1.3344 H   0  0  0  0  0  0  0  0  0  0  0  0
   -1.5197    2.7912    0.6900 H   0  0  0  0  0  0  0  0  0  0  0  0
    0.3547   -2.2993   -0.5748 H   0  0  0  0  0  0  0  0  0  0  0  0
    0.9618    2.4779    0.6262 H   0  0  0  0  0  0  0  0  0  0  0  0
    2.5963   -2.8968    1.1798 H   0  0  0  0  0  0  0  0  0  0  0  0
    3.6797   -1.5127    1.5404 H   0  0  0  0  0  0  0  0  0  0  0  0
    4.2180   -2.8145    0.4566 H   0  0  0  0  0  0  0  0  0  0  0  0
    3.1868    2.5408   -1.2370 H   0  0  0  0  0  0  0  0  0  0  0  0
    3.8977    0.9433   -1.6393 H   0  0  0  0  0  0  0  0  0  0  0  0
    4.7757    2.0769   -0.5891 H   0  0  0  0  0  0  0  0  0  0  0  0
  1  4  1  0  0  0  0
  1  6  1  0  0  0  0
  2 13  1  0  0  0  0
  2 15  1  0  0  0  0
  3 14  1  0  0  0  0
  3 16  1  0  0  0  0
  4  5  1  0  0  0  0
  4  8  1  0  0  0  0
  4  9  1  0  0  0  0
  5 10  2  0  0  0  0
  5 17  1  0  0  0  0
  6  7  1  0  0  0  0
  6 11  2  0  0  0  0
  7 10  1  0  0  0  0
  7 12  2  0  0  0  0
  8 18  1  0  0  0  0
  8 19  1  0  0  0  0
  8 20  1  0  0  0  0
  9 21  1  0  0  0  0
  9 22  1  0  0  0  0
  9 23  1  0  0  0  0
 10 24  1  0  0  0  0
 11 13  1  0  0  0  0
 11 25  1  0  0  0  0
 12 14  1  0  0  0  0
 12 26  1  0  0  0  0
 13 14  2  0  0  0  0
 15 27  1  0  0  0  0
 15 28  1  0  0  0  0
 15 29  1  0  0  0  0
 16 30  1  0  0  0  0
 16 31  1  0  0  0  0
 16 32  1  0  0  0  0
M  END
> <PUBCHEM_COMPOUND_CID>
12565

> <PUBCHEM_CONFORMER_RMSD>
0.6

> <PUBCHEM_CONFORMER_DIVERSEORDER>
1
2

> <PUBCHEM_MMFF94_PARTIAL_CHARGES>
18
1 -0.36
10 -0.18
11 -0.15
12 -0.15
13 0.08
14 0.08
15 0.28
16 0.28
17 0.15
2 -0.36
24 0.15
25 0.15
26 0.15
3 -0.36
4 0.42
5 -0.29
6 0.08
7 0.03

> <PUBCHEM_EFFECTIVE_ROTOR_COUNT>
2.4

> <PUBCHEM_PHARMACOPHORE_FEATURES>
6
1 1 acceptor
1 2 acceptor
1 3 acceptor
3 4 8 9 hydrophobe
6 1 4 5 6 7 10 rings
6 6 7 11 12 13 14 rings

> <PUBCHEM_HEAVY_ATOM_COUNT>
16

> <PUBCHEM_ATOM_DEF_STEREO_COUNT>
0

> <PUBCHEM_ATOM_UDEF_STEREO_COUNT>
0

> <PUBCHEM_BOND_DEF_STEREO_COUNT>
0

> <PUBCHEM_BOND_UDEF_STEREO_COUNT>
0

> <PUBCHEM_ISOTOPIC_ATOM_COUNT>
0

> <PUBCHEM_COMPONENT_COUNT>
1

> <PUBCHEM_CACTVS_TAUTO_COUNT>
1

> <PUBCHEM_CONFORMER_ID>
0000311500000001

> <PUBCHEM_MMFF94_ENERGY>
68.5524

> <PUBCHEM_FEATURE_SELFOVERLAP>
30.48

> <PUBCHEM_SHAPE_FINGERPRINT>
10062212 137 18262525921614387195
10608611 8 18410294747974501705
10967382 1 18335984164305710048
10980938 120 18333450924170549102
11471102 20 18408609158347401717
11543360 7 16414898803845123263
11769659 78 18335708281492495811
12932764 1 17603871082939621289
13140716 1 18263923422125631712
13221675 6 18187925028047460524
13296908 3 18272931630934868883
13380535 76 18339361868790775138
13760787 5 18408604764569464719
14144814 61 18334011692111694625
14325111 11 18408602586652098705
14576447 43 17897744062929677359
14787075 74 17913200962816864315
15196674 1 18408884057750346073
15219456 202 18413669115000387273
15375462 189 18114457877504178209
15375462 6 18342455941418594404
15442244 35 18265614471246313296
15536298 74 18260829323944162658
16945 1 18262805047001393849
17844478 74 18343293748273394217
18186145 218 17703789257900795859
19026448 4 17418095416598999239
19422 9 18409444825443591273
200 152 18041014963629983173
20281475 54 18334577923647087203
20559304 39 18335424577839182880
20645477 70 18410299133236377047
21267235 1 18335974346090001982
21501502 16 18335419114102991376
21501925 9 18336840783033279834
221490 88 18340758325709485858
2255824 54 18272085037389403514
22959321 4 18340766030579965587
2334 1 18335700563362626280
23402655 69 18260837012030958197
23463225 33 18337391642558596312
23559900 14 18342182214837166418
25147074 1 18262513805237520584
25610 137 18411130308292296049
2748010 2 18335423520739437125
312423 11 18336536209347813779
5104073 3 18408882966781148601
7364860 26 18333732433960542322
81539 233 18130507427666104700
8809292 202 18342731966366695171

> <PUBCHEM_SHAPE_MULTIPOLES>
311.66
7.13
2.07
0.94
0.44
0.13
-0.12
0.84
-0.48
-1.71
0.23
0.47
0.08
-0.57

> <PUBCHEM_SHAPE_SELFOVERLAP>
661.395

> <PUBCHEM_SHAPE_VOLUME>
176.7

> <PUBCHEM_COORDINATE_TYPE>
2
5
10

$$$$

