17395639
  -OEChem-06241222513D

 48 50  0     1  0  0  0  0  0999 V2000
   -2.0321   -2.9272   -0.9724 F   0  0  0  0  0  0  0  0  0  0  0  0
    1.7794   -0.5354    1.0856 O   0  0  0  0  0  0  0  0  0  0  0  0
    0.2591    4.1269   -0.3072 O   0  0  0  0  0  0  0  0  0  0  0  0
   -2.2954    2.3163   -0.7951 N   0  0  0  0  0  0  0  0  0  0  0  0
    0.5552    1.9116    0.4113 N   0  0  0  0  0  0  0  0  0  0  0  0
   -3.5695    1.6616   -0.4449 C   0  0  2  0  0  0  0  0  0  0  0  0
   -3.3750    0.2830    0.0895 C   0  0  0  0  0  0  0  0  0  0  0  0
   -4.4828    1.6966   -1.6838 C   0  0  0  0  0  0  0  0  0  0  0  0
   -1.6506    2.8316    0.3974 C   0  0  0  0  0  0  0  0  0  0  0  0
   -2.7826   -0.6968   -0.7072 C   0  0  0  0  0  0  0  0  0  0  0  0
   -3.7861   -0.0267    1.3858 C   0  0  0  0  0  0  0  0  0  0  0  0
   -0.1757    3.0604    0.1154 C   0  0  0  0  0  0  0  0  0  0  0  0
    1.9518    1.7203    0.2851 C   0  0  0  0  0  0  0  0  0  0  0  0
   -2.6011   -1.9862   -0.2074 C   0  0  0  0  0  0  0  0  0  0  0  0
   -3.6048   -1.3163    1.8857 C   0  0  0  0  0  0  0  0  0  0  0  0
   -3.0122   -2.2960    1.0890 C   0  0  0  0  0  0  0  0  0  0  0  0
    2.5364    0.5002    0.6246 C   0  0  0  0  0  0  0  0  0  0  0  0
    2.7451    2.7668   -0.1852 C   0  0  0  0  0  0  0  0  0  0  0  0
    3.9143    0.3268    0.4939 C   0  0  0  0  0  0  0  0  0  0  0  0
    4.1229    2.5934   -0.3161 C   0  0  0  0  0  0  0  0  0  0  0  0
    4.7074    1.3732    0.0236 C   0  0  0  0  0  0  0  0  0  0  0  0
    1.7893   -1.7117    0.3567 C   0  0  0  0  0  0  0  0  0  0  0  0
    1.6702   -1.6724   -1.0325 C   0  0  0  0  0  0  0  0  0  0  0  0
    1.9185   -2.9366    1.0113 C   0  0  0  0  0  0  0  0  0  0  0  0
    1.6802   -2.8581   -1.7672 C   0  0  0  0  0  0  0  0  0  0  0  0
    1.9286   -4.1223    0.2765 C   0  0  0  0  0  0  0  0  0  0  0  0
    1.8095   -4.0831   -1.1127 C   0  0  0  0  0  0  0  0  0  0  0  0
   -4.0860    2.2789    0.3043 H   0  0  0  0  0  0  0  0  0  0  0  0
   -2.4567    3.0855   -1.4447 H   0  0  0  0  0  0  0  0  0  0  0  0
   -4.0373    1.1804   -2.5418 H   0  0  0  0  0  0  0  0  0  0  0  0
   -4.6913    2.7290   -1.9873 H   0  0  0  0  0  0  0  0  0  0  0  0
   -5.4433    1.2139   -1.4694 H   0  0  0  0  0  0  0  0  0  0  0  0
   -2.0957    3.7882    0.6959 H   0  0  0  0  0  0  0  0  0  0  0  0
   -1.7390    2.1613    1.2607 H   0  0  0  0  0  0  0  0  0  0  0  0
   -2.4505   -0.4757   -1.7179 H   0  0  0  0  0  0  0  0  0  0  0  0
   -4.2486    0.7252    2.0197 H   0  0  0  0  0  0  0  0  0  0  0  0
    0.0457    1.0982    0.7501 H   0  0  0  0  0  0  0  0  0  0  0  0
   -3.9243   -1.5575    2.8954 H   0  0  0  0  0  0  0  0  0  0  0  0
   -2.8700   -3.3000    1.4780 H   0  0  0  0  0  0  0  0  0  0  0  0
    2.3727    3.7402   -0.4696 H   0  0  0  0  0  0  0  0  0  0  0  0
    4.3884   -0.6132    0.7641 H   0  0  0  0  0  0  0  0  0  0  0  0
    4.7420    3.4075   -0.6818 H   0  0  0  0  0  0  0  0  0  0  0  0
    5.7806    1.2390   -0.0760 H   0  0  0  0  0  0  0  0  0  0  0  0
    1.5490   -0.7341   -1.5667 H   0  0  0  0  0  0  0  0  0  0  0  0
    2.0115   -2.9729    2.0931 H   0  0  0  0  0  0  0  0  0  0  0  0
    1.5825   -2.8280   -2.8484 H   0  0  0  0  0  0  0  0  0  0  0  0
    2.0287   -5.0761    0.7861 H   0  0  0  0  0  0  0  0  0  0  0  0
    1.8158   -5.0064   -1.6846 H   0  0  0  0  0  0  0  0  0  0  0  0
  1 14  1  0  0  0  0
  2 17  1  0  0  0  0
  2 22  1  0  0  0  0
  3 12  2  0  0  0  0
  4  6  1  0  0  0  0
  4  9  1  0  0  0  0
  4 29  1  0  0  0  0
  5 12  1  0  0  0  0
  5 13  1  0  0  0  0
  5 37  1  0  0  0  0
  6  7  1  0  0  0  0
  6  8  1  0  0  0  0
  6 28  1  0  0  0  0
  7 10  2  0  0  0  0
  7 11  1  0  0  0  0
  8 30  1  0  0  0  0
  8 31  1  0  0  0  0
  8 32  1  0  0  0  0
  9 12  1  0  0  0  0
  9 33  1  0  0  0  0
  9 34  1  0  0  0  0
 10 14  1  0  0  0  0
 10 35  1  0  0  0  0
 11 15  2  0  0  0  0
 11 36  1  0  0  0  0
 13 17  1  0  0  0  0
 13 18  2  0  0  0  0
 14 16  2  0  0  0  0
 15 16  1  0  0  0  0
 15 38  1  0  0  0  0
 16 39  1  0  0  0  0
 17 19  2  0  0  0  0
 18 20  1  0  0  0  0
 18 40  1  0  0  0  0
 19 21  1  0  0  0  0
 19 41  1  0  0  0  0
 20 21  2  0  0  0  0
 20 42  1  0  0  0  0
 21 43  1  0  0  0  0
 22 23  2  0  0  0  0
 22 24  1  0  0  0  0
 23 25  1  0  0  0  0
 23 44  1  0  0  0  0
 24 26  2  0  0  0  0
 24 45  1  0  0  0  0
 25 27  2  0  0  0  0
 25 46  1  0  0  0  0
 26 27  1  0  0  0  0
 26 47  1  0  0  0  0
 27 48  1  0  0  0  0
M  END
> <PUBCHEM_COMPOUND_CID>
17395639

> <PUBCHEM_CONFORMER_RMSD>
1.2

> <PUBCHEM_CONFORMER_DIVERSEORDER>
1
30
124
113
78
109
120
122
88
35
16
72
51
110
81
100
119
14
56
66
70
115
23
15
8
61
33
68
116
57
73
50
53
83
76
25
34
75
87
67
89
5
111
85
102
82
7
99
22
107
114
112
45
2
74
11
26
118
117
31
103
101
43
63
17
10
49
71
6
69
97
65
126
19
104
13
125
39
59
79
91
108
106
32
84
95
36
60
105
86
58
46
12
77
64
123
37
98
62
90
4
29
40
3
80
55
38
93
121
52
94
54
48
24
44
127
92
47
18
96
28
42
21
20
27
41
9

> <PUBCHEM_MMFF94_PARTIAL_CHARGES>
41
1 -0.19
10 -0.15
11 -0.15
12 0.57
13 0.12
14 0.19
15 -0.15
16 -0.15
17 0.08
18 -0.15
19 -0.15
2 -0.17
20 -0.15
21 -0.15
22 0.08
23 -0.15
24 -0.15
25 -0.15
26 -0.15
27 -0.15
29 0.36
3 -0.57
35 0.15
36 0.15
37 0.37
38 0.15
39 0.15
4 -0.9
40 0.15
41 0.15
42 0.15
43 0.15
44 0.15
45 0.15
46 0.15
47 0.15
48 0.15
5 -0.55
6 0.41
7 -0.14
9 0.33

> <PUBCHEM_EFFECTIVE_ROTOR_COUNT>
8

> <PUBCHEM_PHARMACOPHORE_FEATURES>
8
1 2 acceptor
1 3 acceptor
1 4 cation
1 4 donor
1 5 donor
6 13 17 18 19 20 21 rings
6 22 23 24 25 26 27 rings
6 7 10 11 14 15 16 rings

> <PUBCHEM_HEAVY_ATOM_COUNT>
27

> <PUBCHEM_ATOM_DEF_STEREO_COUNT>
0

> <PUBCHEM_ATOM_UDEF_STEREO_COUNT>
1

> <PUBCHEM_BOND_DEF_STEREO_COUNT>
0

> <PUBCHEM_BOND_UDEF_STEREO_COUNT>
0

> <PUBCHEM_ISOTOPIC_ATOM_COUNT>
0

> <PUBCHEM_COMPONENT_COUNT>
1

> <PUBCHEM_CACTVS_TAUTO_COUNT>
2

> <PUBCHEM_CONFORMER_ID>
01096FB700000001

> <PUBCHEM_MMFF94_ENERGY>
80.4072

> <PUBCHEM_FEATURE_SELFOVERLAP>
40.595

> <PUBCHEM_SHAPE_FINGERPRINT>
10616163 171 18411984628611001545
10675989 125 17621341446643502165
11488393 25 18043516408624080894
11513181 2 18042975465518095261
12156800 1 15895262715404525999
12422481 6 18191048836031862346
12553582 1 18410581652011570257
12788726 201 17604989394035684145
12839892 36 18338535117936169728
13122387 1 17473264752314975579
13140716 1 18192427468466769089
13402501 40 18199744752740420865
1361 2 17617949028544290891
14251757 5 17834939894506080772
14363568 33 18118940680726327970
14765038 42 17830147148378609697
16112460 7 17612867510253529777
19591789 44 18337956658655277896
19930381 70 18337400452016828415
20764821 26 18337678619220037119
23559900 14 18266468795764741616
3493558 16 14040089774330718756
4280585 95 17834679675348995050
4403749 210 18123778386535381704
445580 102 18412260614561225953
5081480 168 17461694454091204838
5309563 4 17981885238465188467
6433294 58 18266458891918349148
9709674 26 18194968667170970025

> <PUBCHEM_SHAPE_MULTIPOLES>
526.67
8.37
5.87
1.38
2.29
1.72
-0.09
-2.56
0.19
-3.15
-1.09
0.98
0.81
1.42

> <PUBCHEM_SHAPE_SELFOVERLAP>
1130.41

> <PUBCHEM_SHAPE_VOLUME>
290.3

> <PUBCHEM_COORDINATE_TYPE>
2
5
10

$$$$

