5281654
  -OEChem-07051212583D

 35 37  0     0  0  0  0  0  0999 V2000
   -0.5812   -0.8939   -0.1631 O   0  0  0  0  0  0  0  0  0  0  0  0
    0.5296    2.6164   -0.3413 O   0  0  0  0  0  0  0  0  0  0  0  0
   -4.6067    1.7783    0.2138 O   0  0  0  0  0  0  0  0  0  0  0  0
    4.5824   -0.5629    1.7143 O   0  0  0  0  0  0  0  0  0  0  0  0
   -2.2281    2.8316   -0.0501 O   0  0  0  0  0  0  0  0  0  0  0  0
   -4.8278   -2.9639    0.2977 O   0  0  0  0  0  0  0  0  0  0  0  0
    5.6822   -0.8961   -0.8167 O   0  0  0  0  0  0  0  0  0  0  0  0
   -2.5610    0.4980    0.0221 C   0  0  0  0  0  0  0  0  0  0  0  0
    0.2027    0.2460   -0.2467 C   0  0  0  0  0  0  0  0  0  0  0  0
   -1.9372   -0.7467   -0.0255 C   0  0  0  0  0  0  0  0  0  0  0  0
    1.6384   -0.0531   -0.3925 C   0  0  0  0  0  0  0  0  0  0  0  0
   -0.2748    1.5037   -0.2226 C   0  0  0  0  0  0  0  0  0  0  0  0
   -1.7360    1.7115   -0.0798 C   0  0  0  0  0  0  0  0  0  0  0  0
   -3.9483    0.5871    0.1624 C   0  0  0  0  0  0  0  0  0  0  0  0
   -2.6979   -1.9125    0.0667 C   0  0  0  0  0  0  0  0  0  0  0  0
    2.4457   -0.1692    0.7394 C   0  0  0  0  0  0  0  0  0  0  0  0
    2.1911   -0.2201   -1.6626 C   0  0  0  0  0  0  0  0  0  0  0  0
   -4.0832   -1.8278    0.2072 C   0  0  0  0  0  0  0  0  0  0  0  0
   -4.7069   -0.5804    0.2551 C   0  0  0  0  0  0  0  0  0  0  0  0
    3.8046   -0.4521    0.6013 C   0  0  0  0  0  0  0  0  0  0  0  0
    3.5499   -0.5030   -1.8007 C   0  0  0  0  0  0  0  0  0  0  0  0
    4.3566   -0.6190   -0.6688 C   0  0  0  0  0  0  0  0  0  0  0  0
    5.2059    0.6281    2.1904 C   0  0  0  0  0  0  0  0  0  0  0  0
   -2.2143   -2.8855    0.0294 H   0  0  0  0  0  0  0  0  0  0  0  0
    2.0223   -0.0417    1.7335 H   0  0  0  0  0  0  0  0  0  0  0  0
    1.5748   -0.1331   -2.5542 H   0  0  0  0  0  0  0  0  0  0  0  0
   -5.7867   -0.5126    0.3644 H   0  0  0  0  0  0  0  0  0  0  0  0
    3.9739   -0.6320   -2.7929 H   0  0  0  0  0  0  0  0  0  0  0  0
   -0.0469    3.3990   -0.3025 H   0  0  0  0  0  0  0  0  0  0  0  0
   -3.9817    2.5161    0.1448 H   0  0  0  0  0  0  0  0  0  0  0  0
   -5.7649   -2.7203    0.3904 H   0  0  0  0  0  0  0  0  0  0  0  0
    6.0808   -0.9808    0.0665 H   0  0  0  0  0  0  0  0  0  0  0  0
    4.4499    1.3564    2.5007 H   0  0  0  0  0  0  0  0  0  0  0  0
    5.8521    1.0631    1.4214 H   0  0  0  0  0  0  0  0  0  0  0  0
    5.8196    0.3703    3.0577 H   0  0  0  0  0  0  0  0  0  0  0  0
  1  9  1  0  0  0  0
  1 10  1  0  0  0  0
  2 12  1  0  0  0  0
  2 29  1  0  0  0  0
  3 14  1  0  0  0  0
  3 30  1  0  0  0  0
  4 20  1  0  0  0  0
  4 23  1  0  0  0  0
  5 13  2  0  0  0  0
  6 18  1  0  0  0  0
  6 31  1  0  0  0  0
  7 22  1  0  0  0  0
  7 32  1  0  0  0  0
  8 10  1  0  0  0  0
  8 13  1  0  0  0  0
  8 14  2  0  0  0  0
  9 11  1  0  0  0  0
  9 12  2  0  0  0  0
 10 15  2  0  0  0  0
 11 16  2  0  0  0  0
 11 17  1  0  0  0  0
 12 13  1  0  0  0  0
 14 19  1  0  0  0  0
 15 18  1  0  0  0  0
 15 24  1  0  0  0  0
 16 20  1  0  0  0  0
 16 25  1  0  0  0  0
 17 21  2  0  0  0  0
 17 26  1  0  0  0  0
 18 19  2  0  0  0  0
 19 27  1  0  0  0  0
 20 22  2  0  0  0  0
 21 22  1  0  0  0  0
 21 28  1  0  0  0  0
 23 33  1  0  0  0  0
 23 34  1  0  0  0  0
 23 35  1  0  0  0  0
M  END
> <PUBCHEM_COMPOUND_CID>
5281654

> <PUBCHEM_CONFORMER_RMSD>
0.6

> <PUBCHEM_CONFORMER_DIVERSEORDER>
1
5
3
4
2
6

> <PUBCHEM_MMFF94_PARTIAL_CHARGES>
32
1 -0.16
10 0.08
11 0.03
12 0.09
13 0.47
14 0.08
15 -0.15
16 -0.15
17 -0.15
18 0.08
19 -0.15
2 -0.53
20 0.08
21 -0.15
22 0.08
23 0.28
24 0.15
25 0.15
26 0.15
27 0.15
28 0.15
29 0.45
3 -0.53
30 0.45
31 0.45
32 0.45
4 -0.36
5 -0.57
6 -0.53
7 -0.53
8 0.09
9 0.05

> <PUBCHEM_EFFECTIVE_ROTOR_COUNT>
2

> <PUBCHEM_PHARMACOPHORE_FEATURES>
10
1 1 acceptor
1 2 donor
1 3 donor
1 4 acceptor
1 5 acceptor
1 6 donor
1 7 donor
6 1 8 9 10 12 13 rings
6 11 16 17 20 21 22 rings
6 8 10 14 15 18 19 rings

> <PUBCHEM_HEAVY_ATOM_COUNT>
23

> <PUBCHEM_ATOM_DEF_STEREO_COUNT>
0

> <PUBCHEM_ATOM_UDEF_STEREO_COUNT>
0

> <PUBCHEM_BOND_DEF_STEREO_COUNT>
0

> <PUBCHEM_BOND_UDEF_STEREO_COUNT>
0

> <PUBCHEM_ISOTOPIC_ATOM_COUNT>
0

> <PUBCHEM_COMPONENT_COUNT>
1

> <PUBCHEM_CACTVS_TAUTO_COUNT>
174

> <PUBCHEM_CONFORMER_ID>
0050977600000001

> <PUBCHEM_MMFF94_ENERGY>
79.2051

> <PUBCHEM_FEATURE_SELFOVERLAP>
50.771

> <PUBCHEM_SHAPE_FINGERPRINT>
10062212 137 18131347510241972979
10319926 262 18263378035079409034
10912923 1 17775564225984663294
11045977 3 18041002855663832880
11370993 144 17023171782104431595
11545043 162 18188205507283023734
12236239 1 17703783747900776022
12403259 415 17821446872297947222
12553582 1 18341886377458149715
12616971 3 17060620026938315851
13140716 1 18337667525931363225
13583140 156 18043550480477917638
13675066 3 17966969417602759559
13782708 43 17822286925136612590
14386348 63 17895188935097486310
15099037 37 18335143089629436629
15196674 1 18410849924216270653
15880784 105 16588031212000499543
15961568 22 18339362955787701612
17349148 13 17418374709827249810
17804303 29 18408600357906885425
17844677 252 16732978747590196912
1813 80 17775011145887427916
18186145 218 12247681577700665828
18222031 100 18336547122865150302
18681886 176 18342164537321176902
18785283 64 17751654147601814536
19141452 34 17822005381398077463
200 152 16415760846846764772
20028762 73 18044089060777469863
20600515 1 18409450310149243221
21033648 29 17313396650657756794
21065201 7 18336824307559824822
21267235 1 18340757170785276251
21728266 224 18201167602027430283
22646028 1 17775286071059922386
2297311 6 18335971034749065454
23366157 5 17843114805844096949
23402539 116 18411979178244567455
23557571 272 18261104235989656548
23559900 14 18262507225769493350
2838139 119 14852718297440488289
3004659 81 18060134310615914022
335352 9 18411696579083385189
3411729 13 18193840332503422216
474 4 16987135142992456004
5104073 3 18265603283473614995
573450 72 18202284722915410219
602551 16 18410012139363665522
633830 44 13984662508627382916
7495541 125 17967811657222686934
77492 1 17560792273530125052
9709674 26 18124308308041589931

> <PUBCHEM_SHAPE_MULTIPOLES>
432.24
11.81
2.28
1.32
4.57
0.58
0.2
-4.2
2.84
-3.49
0.02
2.76
-0.07
0.86

> <PUBCHEM_SHAPE_SELFOVERLAP>
962

> <PUBCHEM_SHAPE_VOLUME>
229.3

> <PUBCHEM_COORDINATE_TYPE>
2
5
10

$$$$

