5281526
  -OEChem-07051212583D

 51 52  0     1  0  0  0  0  0999 V2000
   -2.6636   -0.4484   -0.0632 O   0  0  0  0  0  0  0  0  0  0  0  0
    4.4258    1.7765   -0.8620 O   0  0  0  0  0  0  0  0  0  0  0  0
   -4.0577    0.7571    1.3169 O   0  0  0  0  0  0  0  0  0  0  0  0
    1.1048   -0.2682    0.7209 C   0  0  1  0  0  0  0  0  0  0  0  0
   -0.2568   -0.8339    0.1584 C   0  0  2  0  0  0  0  0  0  0  0  0
    2.2756   -0.9787   -0.0240 C   0  0  0  0  0  0  0  0  0  0  0  0
    1.1760    1.2448    0.4857 C   0  0  0  0  0  0  0  0  0  0  0  0
   -1.4833   -0.0020    0.6032 C   0  0  1  0  0  0  0  0  0  0  0  0
   -0.0432    2.0463    0.8758 C   0  0  0  0  0  0  0  0  0  0  0  0
   -1.3054    1.4730    0.2547 C   0  0  0  0  0  0  0  0  0  0  0  0
    3.6261   -0.2799    0.1488 C   0  0  2  0  0  0  0  0  0  0  0  0
    1.2425   -0.5289    2.2389 C   0  0  0  0  0  0  0  0  0  0  0  0
   -0.4809   -2.3228    0.4784 C   0  0  0  0  0  0  0  0  0  0  0  0
    2.2456    1.8791   -0.0219 C   0  0  0  0  0  0  0  0  0  0  0  0
    3.5085    1.1612   -0.3215 C   0  0  0  0  0  0  0  0  0  0  0  0
    4.6986   -0.9864   -0.6218 C   0  0  0  0  0  0  0  0  0  0  0  0
    5.8667   -1.4854    0.1758 C   0  0  0  0  0  0  0  0  0  0  0  0
   -3.8094    0.2221    0.2457 C   0  0  0  0  0  0  0  0  0  0  0  0
    4.6187   -1.1630   -1.9490 C   0  0  0  0  0  0  0  0  0  0  0  0
   -4.7332    0.2028   -0.9289 C   0  0  0  0  0  0  0  0  0  0  0  0
   -4.6626    1.3365   -1.9086 C   0  0  0  0  0  0  0  0  0  0  0  0
   -5.5858   -0.8368   -0.9885 C   0  0  0  0  0  0  0  0  0  0  0  0
   -5.7070   -1.9651   -0.0138 C   0  0  0  0  0  0  0  0  0  0  0  0
   -0.2217   -0.7699   -0.9401 H   0  0  0  0  0  0  0  0  0  0  0  0
    2.0173   -1.0320   -1.0907 H   0  0  0  0  0  0  0  0  0  0  0  0
    2.3672   -2.0168    0.3208 H   0  0  0  0  0  0  0  0  0  0  0  0
   -1.6311   -0.1237    1.6837 H   0  0  0  0  0  0  0  0  0  0  0  0
   -0.1365    2.0504    1.9687 H   0  0  0  0  0  0  0  0  0  0  0  0
    0.0551    3.0956    0.5716 H   0  0  0  0  0  0  0  0  0  0  0  0
   -2.1478    2.0858    0.5915 H   0  0  0  0  0  0  0  0  0  0  0  0
   -1.2749    1.5941   -0.8370 H   0  0  0  0  0  0  0  0  0  0  0  0
    3.8984   -0.2447    1.2106 H   0  0  0  0  0  0  0  0  0  0  0  0
    0.3697   -0.1782    2.7990 H   0  0  0  0  0  0  0  0  0  0  0  0
    1.3632   -1.5960    2.4544 H   0  0  0  0  0  0  0  0  0  0  0  0
    2.1153   -0.0165    2.6599 H   0  0  0  0  0  0  0  0  0  0  0  0
   -0.6219   -2.4878    1.5511 H   0  0  0  0  0  0  0  0  0  0  0  0
   -1.3773   -2.6959   -0.0289 H   0  0  0  0  0  0  0  0  0  0  0  0
    0.3531   -2.9426    0.1391 H   0  0  0  0  0  0  0  0  0  0  0  0
    2.2472    2.9512   -0.1898 H   0  0  0  0  0  0  0  0  0  0  0  0
    6.3685   -0.6516    0.6775 H   0  0  0  0  0  0  0  0  0  0  0  0
    5.5310   -2.1990    0.9354 H   0  0  0  0  0  0  0  0  0  0  0  0
    6.6082   -1.9913   -0.4514 H   0  0  0  0  0  0  0  0  0  0  0  0
    5.4040   -1.6781   -2.4929 H   0  0  0  0  0  0  0  0  0  0  0  0
    3.7825   -0.7939   -2.5328 H   0  0  0  0  0  0  0  0  0  0  0  0
   -5.4128    1.2350   -2.6994 H   0  0  0  0  0  0  0  0  0  0  0  0
   -4.8350    2.2897   -1.3988 H   0  0  0  0  0  0  0  0  0  0  0  0
   -3.6754    1.3682   -2.3802 H   0  0  0  0  0  0  0  0  0  0  0  0
   -6.2806   -0.8777   -1.8254 H   0  0  0  0  0  0  0  0  0  0  0  0
   -6.7215   -1.9859    0.3967 H   0  0  0  0  0  0  0  0  0  0  0  0
   -5.0097   -1.9098    0.8253 H   0  0  0  0  0  0  0  0  0  0  0  0
   -5.5316   -2.9142   -0.5304 H   0  0  0  0  0  0  0  0  0  0  0  0
  1  8  1  0  0  0  0
  1 18  1  0  0  0  0
  2 15  2  0  0  0  0
  3 18  2  0  0  0  0
  4  5  1  0  0  0  0
  4  6  1  0  0  0  0
  4  7  1  0  0  0  0
  4 12  1  0  0  0  0
  5  8  1  0  0  0  0
  5 13  1  0  0  0  0
  5 24  1  0  0  0  0
  6 11  1  0  0  0  0
  6 25  1  0  0  0  0
  6 26  1  0  0  0  0
  7  9  1  0  0  0  0
  7 14  2  0  0  0  0
  8 10  1  0  0  0  0
  8 27  1  0  0  0  0
  9 10  1  0  0  0  0
  9 28  1  0  0  0  0
  9 29  1  0  0  0  0
 10 30  1  0  0  0  0
 10 31  1  0  0  0  0
 11 15  1  0  0  0  0
 11 16  1  0  0  0  0
 11 32  1  0  0  0  0
 12 33  1  0  0  0  0
 12 34  1  0  0  0  0
 12 35  1  0  0  0  0
 13 36  1  0  0  0  0
 13 37  1  0  0  0  0
 13 38  1  0  0  0  0
 14 15  1  0  0  0  0
 14 39  1  0  0  0  0
 16 17  1  0  0  0  0
 16 19  2  0  0  0  0
 17 40  1  0  0  0  0
 17 41  1  0  0  0  0
 17 42  1  0  0  0  0
 18 20  1  0  0  0  0
 19 43  1  0  0  0  0
 19 44  1  0  0  0  0
 20 21  1  0  0  0  0
 20 22  2  0  0  0  0
 21 45  1  0  0  0  0
 21 46  1  0  0  0  0
 21 47  1  0  0  0  0
 22 23  1  0  0  0  0
 22 48  1  0  0  0  0
 23 49  1  0  0  0  0
 23 50  1  0  0  0  0
 23 51  1  0  0  0  0
M  END
> <PUBCHEM_COMPOUND_CID>
5281526

> <PUBCHEM_CONFORMER_RMSD>
0.8

> <PUBCHEM_CONFORMER_DIVERSEORDER>
1
24
12
29
27
7
16
28
22
30
18
17
20
14
19
15
25
3
9
31
23
21
8
10
26
11
6
4
13
5
2

> <PUBCHEM_MMFF94_PARTIAL_CHARGES>
22
1 -0.43
11 0.2
14 -0.14
15 0.49
16 -0.28
17 0.14
18 0.71
19 -0.3
2 -0.57
20 -0.12
21 0.14
22 -0.29
23 0.14
3 -0.57
39 0.15
4 0.14
43 0.15
44 0.15
48 0.15
7 -0.28
8 0.28
9 0.14

> <PUBCHEM_EFFECTIVE_ROTOR_COUNT>
5.2

> <PUBCHEM_PHARMACOPHORE_FEATURES>
6
1 2 acceptor
1 21 hydrophobe
1 23 hydrophobe
1 3 acceptor
6 4 5 7 8 9 10 rings
6 4 6 7 11 14 15 rings

> <PUBCHEM_HEAVY_ATOM_COUNT>
23

> <PUBCHEM_ATOM_DEF_STEREO_COUNT>
4

> <PUBCHEM_ATOM_UDEF_STEREO_COUNT>
0

> <PUBCHEM_BOND_DEF_STEREO_COUNT>
1

> <PUBCHEM_BOND_UDEF_STEREO_COUNT>
0

> <PUBCHEM_ISOTOPIC_ATOM_COUNT>
0

> <PUBCHEM_COMPONENT_COUNT>
1

> <PUBCHEM_CACTVS_TAUTO_COUNT>
8

> <PUBCHEM_CONFORMER_ID>
005096F600000001

> <PUBCHEM_MMFF94_ENERGY>
58.3885

> <PUBCHEM_FEATURE_SELFOVERLAP>
30.466

> <PUBCHEM_SHAPE_FINGERPRINT>
10366900 7 16702308936323143737
10670039 82 16415202320735993836
10693767 8 18187376440718612751
11796584 16 14779549002214498917
12166972 35 18131066017758443493
12236239 1 17822006506731912033
12670546 177 18413111645609962767
12892183 10 7925920270042990156
13760787 5 18410566292902285321
13862211 1 18408886269532234402
14251751 18 15864081948572671919
14528608 73 17775570823128224687
15099037 51 18411417327897809898
15142383 8 15574703721337207107
15183329 4 18409726291798686422
15188451 53 13840564934434234117
15196674 1 18408882927746809353
15209294 21 12031786972419105647
15238133 3 14405190547565178404
15788980 27 15791734096755996689
15848702 151 17822286915934143679
1601671 61 15123509228810386814
16752209 62 18339365278710173216
17349148 13 17385716980925215623
1813 80 14490188302102148936
18186145 218 18343300366359132977
200 152 17821446876081289680
20028762 73 18186803595213353782
20612939 158 18341891879295438228
20645477 70 18334008380987308574
21267235 1 18334005090699786579
21637258 2 16226340307844401694
221357 26 18410300194599512901
22393880 68 18271255979799171437
23402539 116 18114743836210571752
23559900 14 18262796256074192872
2838139 119 16056878069612916158
2871803 45 18272373083154387112
296302 2 11455888066041059777
29717793 49 18113620101225767813
3004659 81 18413107260643493142
3286 77 16732708254744524952
4340502 62 14201403785534225910
46194498 28 18200596874189053157
463206 1 16732987522103239046
465052 167 17894625920497996727
4990 188 18410013225757996911
5104073 3 18040992934183598883
5718773 13 18042965579211203262
7495541 125 17167867443426118976
7970288 3 17604156926478678791
9981440 41 17474952026587822784

> <PUBCHEM_SHAPE_MULTIPOLES>
455.72
13.03
2.14
1.46
5.89
0.12
0.1
-4.37
5.79
-0.3
0.02
0.05
0
0.42

> <PUBCHEM_SHAPE_SELFOVERLAP>
941.11

> <PUBCHEM_SHAPE_VOLUME>
259.4

> <PUBCHEM_COORDINATE_TYPE>
2
5
10

$$$$

