46174052
  -OEChem-07051213113D

 23 24  0     0  0  0  0  0  0999 V2000
    0.9157   -0.5463    2.7444 Br  0  0  0  0  0  0  0  0  0  0  0  0
    0.5597   -1.3167   -2.8914 Br  0  0  0  0  0  0  0  0  0  0  0  0
   -3.0140   -2.6813    0.4677 Br  0  0  0  0  0  0  0  0  0  0  0  0
    4.0560    0.6563    2.3509 Br  0  0  0  0  0  0  0  0  0  0  0  0
    5.3233    0.8089   -0.8048 Br  0  0  0  0  0  0  0  0  0  0  0  0
   -5.5157   -0.3227    0.3225 Br  0  0  0  0  0  0  0  0  0  0  0  0
   -1.6274    3.6811   -0.5259 Br  0  0  0  0  0  0  0  0  0  0  0  0
   -0.2953   -1.3248    0.0791 O   0  0  0  0  0  0  0  0  0  0  0  0
    0.9880   -0.8337   -0.0836 C   0  0  0  0  0  0  0  0  0  0  0  0
   -1.3248   -0.4318    0.0287 C   0  0  0  0  0  0  0  0  0  0  0  0
    1.7321   -0.4153    1.0195 C   0  0  0  0  0  0  0  0  0  0  0  0
    1.5364   -0.7590   -1.3640 C   0  0  0  0  0  0  0  0  0  0  0  0
   -2.6530   -0.8296    0.1816 C   0  0  0  0  0  0  0  0  0  0  0  0
   -1.0195    0.9126   -0.1825 C   0  0  0  0  0  0  0  0  0  0  0  0
    3.0249    0.0778    0.8421 C   0  0  0  0  0  0  0  0  0  0  0  0
    2.8290   -0.2659   -1.5412 C   0  0  0  0  0  0  0  0  0  0  0  0
    3.5733    0.1526   -0.4381 C   0  0  0  0  0  0  0  0  0  0  0  0
   -3.6758    0.1171    0.1234 C   0  0  0  0  0  0  0  0  0  0  0  0
   -2.0423    1.8594   -0.2408 C   0  0  0  0  0  0  0  0  0  0  0  0
   -3.3705    1.4615   -0.0877 C   0  0  0  0  0  0  0  0  0  0  0  0
   -0.0119    1.2935   -0.3093 H   0  0  0  0  0  0  0  0  0  0  0  0
    3.2527   -0.2089   -2.5419 H   0  0  0  0  0  0  0  0  0  0  0  0
   -4.1642    2.2043   -0.1335 H   0  0  0  0  0  0  0  0  0  0  0  0
  1 11  1  0  0  0  0
  2 12  1  0  0  0  0
  3 13  1  0  0  0  0
  4 15  1  0  0  0  0
  5 17  1  0  0  0  0
  6 18  1  0  0  0  0
  7 19  1  0  0  0  0
  8  9  1  0  0  0  0
  8 10  1  0  0  0  0
  9 11  2  0  0  0  0
  9 12  1  0  0  0  0
 10 13  2  0  0  0  0
 10 14  1  0  0  0  0
 11 15  1  0  0  0  0
 12 16  2  0  0  0  0
 13 18  1  0  0  0  0
 14 19  2  0  0  0  0
 14 21  1  0  0  0  0
 15 17  2  0  0  0  0
 16 17  1  0  0  0  0
 16 22  1  0  0  0  0
 18 20  2  0  0  0  0
 19 20  1  0  0  0  0
 20 23  1  0  0  0  0
M  END
> <PUBCHEM_COMPOUND_CID>
46174052

> <PUBCHEM_CONFORMER_RMSD>
0.6

> <PUBCHEM_CONFORMER_DIVERSEORDER>
1
6
7
8
5
2
3
4

> <PUBCHEM_MMFF94_PARTIAL_CHARGES>
23
1 -0.11
10 0.08
11 0.11
12 0.11
13 0.11
14 -0.15
15 0.11
16 -0.15
17 0.11
18 0.11
19 0.11
2 -0.11
20 -0.15
21 0.15
22 0.15
23 0.15
3 -0.11
4 -0.11
5 -0.11
6 -0.11
7 -0.11
8 -0.17
9 0.08

> <PUBCHEM_EFFECTIVE_ROTOR_COUNT>
2

> <PUBCHEM_PHARMACOPHORE_FEATURES>
10
1 1 hydrophobe
1 2 hydrophobe
1 3 hydrophobe
1 4 hydrophobe
1 5 hydrophobe
1 6 hydrophobe
1 7 hydrophobe
1 8 acceptor
6 10 13 14 18 19 20 rings
6 9 11 12 15 16 17 rings

> <PUBCHEM_HEAVY_ATOM_COUNT>
20

> <PUBCHEM_ATOM_DEF_STEREO_COUNT>
0

> <PUBCHEM_ATOM_UDEF_STEREO_COUNT>
0

> <PUBCHEM_BOND_DEF_STEREO_COUNT>
0

> <PUBCHEM_BOND_UDEF_STEREO_COUNT>
0

> <PUBCHEM_ISOTOPIC_ATOM_COUNT>
0

> <PUBCHEM_COMPONENT_COUNT>
1

> <PUBCHEM_CACTVS_TAUTO_COUNT>
1

> <PUBCHEM_CONFORMER_ID>
02C08F6400000001

> <PUBCHEM_MMFF94_ENERGY>
65.4017

> <PUBCHEM_FEATURE_SELFOVERLAP>
50.744

> <PUBCHEM_SHAPE_FINGERPRINT>
10165383 225 17531238448699717028
10366900 7 17748828527277197003
10498660 4 18341047540254401669
11595378 159 18059866073055586832
11640471 11 17417238965597057765
12173636 292 18124599932026372173
12236239 1 17489869323483176651
12403259 415 17894634768457894600
12553582 1 18342176640322907491
12596602 18 17274819125983593216
12730499 353 17313098644462972527
12788726 201 18201999949863174801
13583140 156 18187947070500476266
13782708 43 17822006514626112431
13965767 371 17054704834891541845
14341114 328 18131634465248897952
14739800 52 18200323100716899584
14787075 74 17630037153283135152
15342168 16 16878799179274190808
16945 1 18412827988304484255
17349148 13 16917350333408390563
17876694 64 17561078142126946461
18186145 218 16587747529795557702
18219364 16 17023191487245756066
200 152 16128660738889616579
20344682 1 18040709264594702519
20510252 161 18337950220578572081
20511986 3 17274838947362964357
20600515 1 18338802204661298345
20645477 70 16878214368158850550
20715895 44 16984364640063017293
22149856 69 17694217074129622437
23114952 82 17606950960990346684
23366157 5 17484237458107993805
23402539 116 18340484465461890902
23526113 38 17677600037641677022
23557571 272 18335129908427741213
23559900 14 18337383958709526198
238 59 16734974455547013788
25 1 16153719686886493426
3472631 163 18271520987544793725
34934 24 18202001023741830179
350125 39 17908697676932940315
3524813 1 17821730537439102880
474 4 14563682915015047122
621550 34 17894630391965088037
633830 44 15719114656170354928
7097593 13 17126786588019575145
77492 1 17418373579855465130
7808743 9 18341044233172015436
81228 2 18265312058704954721
9925002 15 16885561025513619663

> <PUBCHEM_SHAPE_MULTIPOLES>
447.32
9.34
2.54
2.29
0.29
2.1
0.17
0.99
1.23
-2.99
-0.54
2.72
-0.83
0.76

> <PUBCHEM_SHAPE_SELFOVERLAP>
860.157

> <PUBCHEM_SHAPE_VOLUME>
287.6

> <PUBCHEM_COORDINATE_TYPE>
2
5
10

$$$$

