17395603
  -OEChem-06241222512D

 45 48  0     0  0  0  0  0  0999 V2000
    4.6750    1.9569    0.0000 S   0  0  0  0  0  0  0  0  0  0  0  0
    5.5981    0.3691    0.0000 O   0  0  0  0  0  0  0  0  0  0  0  0
    4.7320   -3.1309    0.0000 N   0  0  0  0  0  0  0  0  0  0  0  0
    6.5443   -2.9357    0.0000 N   0  0  0  0  0  0  0  0  0  0  0  0
    7.1279   -2.1309    0.0000 N   0  0  0  0  0  0  0  0  0  0  0  0
    3.8660    0.3691    0.0000 N   0  0  0  0  0  0  0  0  0  0  0  0
    3.0570    1.9569    0.0000 N   0  0  0  0  0  0  0  0  0  0  0  0
    3.3660    2.9079    0.0000 N   0  0  0  0  0  0  0  0  0  0  0  0
    3.0000   -3.1309    0.0000 C   0  0  0  0  0  0  0  0  0  0  0  0
    2.0000   -3.1309    0.0000 C   0  0  0  0  0  0  0  0  0  0  0  0
    2.5000   -3.9970    0.0000 C   0  0  0  0  0  0  0  0  0  0  0  0
    3.8660   -2.6309    0.0000 C   0  0  0  0  0  0  0  0  0  0  0  0
    3.8660   -1.6309    0.0000 C   0  0  0  0  0  0  0  0  0  0  0  0
    5.5981   -2.6309    0.0000 C   0  0  0  0  0  0  0  0  0  0  0  0
    4.7320   -1.1309    0.0000 C   0  0  0  0  0  0  0  0  0  0  0  0
    5.5981   -1.6309    0.0000 C   0  0  0  0  0  0  0  0  0  0  0  0
    6.8550   -3.8862    0.0000 C   0  0  0  0  0  0  0  0  0  0  0  0
    6.5443   -1.3262    0.0000 C   0  0  0  0  0  0  0  0  0  0  0  0
    4.7320   -0.1309    0.0000 C   0  0  0  0  0  0  0  0  0  0  0  0
    7.8335   -4.0924    0.0000 C   0  0  0  0  0  0  0  0  0  0  0  0
    6.1871   -4.6305    0.0000 C   0  0  0  0  0  0  0  0  0  0  0  0
    3.8660    1.3691    0.0000 C   0  0  0  0  0  0  0  0  0  0  0  0
    4.3660    2.9079    0.0000 C   0  0  0  0  0  0  0  0  0  0  0  0
    4.9538    3.7169    0.0000 C   0  0  0  0  0  0  0  0  0  0  0  0
    4.5471    4.6305    0.0000 C   0  0  0  0  0  0  0  0  0  0  0  0
    2.8395   -2.5320    0.0000 H   0  0  0  0  0  0  0  0  0  0  0  0
    2.0250   -4.3955    0.0000 H   0  0  0  0  0  0  0  0  0  0  0  0
    2.9750   -4.3955    0.0000 H   0  0  0  0  0  0  0  0  0  0  0  0
    1.8923   -2.5203    0.0000 H   0  0  0  0  0  0  0  0  0  0  0  0
    1.4174   -3.3430    0.0000 H   0  0  0  0  0  0  0  0  0  0  0  0
    3.3291   -1.3209    0.0000 H   0  0  0  0  0  0  0  0  0  0  0  0
    7.2690   -3.4247    0.0000 H   0  0  0  0  0  0  0  0  0  0  0  0
    6.7369   -0.7369    0.0000 H   0  0  0  0  0  0  0  0  0  0  0  0
    7.7056   -4.6991    0.0000 H   0  0  0  0  0  0  0  0  0  0  0  0
    8.4401   -4.2202    0.0000 H   0  0  0  0  0  0  0  0  0  0  0  0
    7.9613   -3.4857    0.0000 H   0  0  0  0  0  0  0  0  0  0  0  0
    5.7256   -4.2164    0.0000 H   0  0  0  0  0  0  0  0  0  0  0  0
    5.7730   -5.0920    0.0000 H   0  0  0  0  0  0  0  0  0  0  0  0
    6.6486   -5.0445    0.0000 H   0  0  0  0  0  0  0  0  0  0  0  0
    3.3291    0.0591    0.0000 H   0  0  0  0  0  0  0  0  0  0  0  0
    5.3845    3.2709    0.0000 H   0  0  0  0  0  0  0  0  0  0  0  0
    5.4678    4.0636    0.0000 H   0  0  0  0  0  0  0  0  0  0  0  0
    5.1135    4.8827    0.0000 H   0  0  0  0  0  0  0  0  0  0  0  0
    4.2949    5.1969    0.0000 H   0  0  0  0  0  0  0  0  0  0  0  0
    3.9807    4.3783    0.0000 H   0  0  0  0  0  0  0  0  0  0  0  0
  1 22  1  0  0  0  0
  1 23  1  0  0  0  0
  2 19  2  0  0  0  0
  3 12  2  0  0  0  0
  3 14  1  0  0  0  0
  4  5  1  0  0  0  0
  4 14  1  0  0  0  0
  4 17  1  0  0  0  0
  5 18  2  0  0  0  0
  6 19  1  0  0  0  0
  6 22  1  0  0  0  0
  6 40  1  0  0  0  0
  7  8  1  0  0  0  0
  7 22  2  0  0  0  0
  8 23  2  0  0  0  0
  9 10  1  0  0  0  0
  9 11  1  0  0  0  0
  9 12  1  0  0  0  0
  9 26  1  0  0  0  0
 10 11  1  0  0  0  0
 10 29  1  0  0  0  0
 10 30  1  0  0  0  0
 11 27  1  0  0  0  0
 11 28  1  0  0  0  0
 12 13  1  0  0  0  0
 13 15  2  0  0  0  0
 13 31  1  0  0  0  0
 14 16  2  0  0  0  0
 15 16  1  0  0  0  0
 15 19  1  0  0  0  0
 16 18  1  0  0  0  0
 17 20  1  0  0  0  0
 17 21  1  0  0  0  0
 17 32  1  0  0  0  0
 18 33  1  0  0  0  0
 20 34  1  0  0  0  0
 20 35  1  0  0  0  0
 20 36  1  0  0  0  0
 21 37  1  0  0  0  0
 21 38  1  0  0  0  0
 21 39  1  0  0  0  0
 23 24  1  0  0  0  0
 24 25  1  0  0  0  0
 24 41  1  0  0  0  0
 24 42  1  0  0  0  0
 25 43  1  0  0  0  0
 25 44  1  0  0  0  0
 25 45  1  0  0  0  0
M  END
> <PUBCHEM_COMPOUND_CID>
17395603

> <PUBCHEM_COMPOUND_CANONICALIZED>
1

> <PUBCHEM_CACTVS_COMPLEXITY>
502

> <PUBCHEM_CACTVS_HBOND_ACCEPTOR>
6

> <PUBCHEM_CACTVS_HBOND_DONOR>
1

> <PUBCHEM_CACTVS_ROTATABLE_BOND>
5

> <PUBCHEM_CACTVS_SUBSKEYS>
AAADceB7oABAAAAAAAAAAAAAGAAAAWLAAAAsAAAAAAAAAFgB/gAAHgQYAAAADSjB3wQ/sN7IEAiuAzd3dACShKtlgrkV2CE4ZNiIKPLg3dGEpQh4iQLIyacciMCOgAAAAAAAAAAAAAAAAAAAAAAAAAAAAA==

> <PUBCHEM_IUPAC_OPENEYE_NAME>
6-cyclopropyl-N-(5-ethyl-1,3,4-thiadiazol-2-yl)-1-isopropyl-pyrazolo[3,4-b]pyridine-4-carboxamide

> <PUBCHEM_IUPAC_CAS_NAME>
6-cyclopropyl-N-(5-ethyl-1,3,4-thiadiazol-2-yl)-1-propan-2-yl-4-pyrazolo[3,4-b]pyridinecarboxamide

> <PUBCHEM_IUPAC_NAME>
6-cyclopropyl-N-(5-ethyl-1,3,4-thiadiazol-2-yl)-1-propan-2-ylpyrazolo[3,4-b]pyridine-4-carboxamide

> <PUBCHEM_IUPAC_SYSTEMATIC_NAME>
6-cyclopropyl-N-(5-ethyl-1,3,4-thiadiazol-2-yl)-1-propan-2-yl-pyrazolo[3,4-b]pyridine-4-carboxamide

> <PUBCHEM_IUPAC_TRADITIONAL_NAME>
6-cyclopropyl-N-(5-ethyl-1,3,4-thiadiazol-2-yl)-1-isopropyl-pyrazolo[3,4-b]pyridine-4-carboxamide

> <PUBCHEM_IUPAC_INCHI>
InChI=1S/C17H20N6OS/c1-4-14-21-22-17(25-14)20-16(24)11-7-13(10-5-6-10)19-15-12(11)8-18-23(15)9(2)3/h7-10H,4-6H2,1-3H3,(H,20,22,24)

> <PUBCHEM_IUPAC_INCHIKEY>
MWGCIICOYCLFDG-UHFFFAOYSA-N

> <PUBCHEM_XLOGP3_AA>
2.6

> <PUBCHEM_EXACT_MASS>
356.14193

> <PUBCHEM_MOLECULAR_FORMULA>
C17H20N6OS

> <PUBCHEM_MOLECULAR_WEIGHT>
356.4453

> <PUBCHEM_OPENEYE_CAN_SMILES>
CCC1=NN=C(S1)NC(=O)C2=CC(=NC3=C2C=NN3C(C)C)C4CC4

> <PUBCHEM_OPENEYE_ISO_SMILES>
CCC1=NN=C(S1)NC(=O)C2=CC(=NC3=C2C=NN3C(C)C)C4CC4

> <PUBCHEM_CACTVS_TPSA>
114

> <PUBCHEM_MONOISOTOPIC_WEIGHT>
356.14193

> <PUBCHEM_TOTAL_CHARGE>
0

> <PUBCHEM_HEAVY_ATOM_COUNT>
25

> <PUBCHEM_ATOM_DEF_STEREO_COUNT>
0

> <PUBCHEM_ATOM_UDEF_STEREO_COUNT>
0

> <PUBCHEM_BOND_DEF_STEREO_COUNT>
0

> <PUBCHEM_BOND_UDEF_STEREO_COUNT>
0

> <PUBCHEM_ISOTOPIC_ATOM_COUNT>
0

> <PUBCHEM_COMPONENT_COUNT>
1

> <PUBCHEM_CACTVS_TAUTO_COUNT>
3

> <PUBCHEM_COORDINATE_TYPE>
1
5
255

> <PUBCHEM_BONDANNOTATIONS>
1  22  8
1  23  8
12  13  8
13  15  8
14  16  8
15  16  8
16  18  8
3  12  8
3  14  8
4  14  8
4  5  8
5  18  8
7  22  8
7  8  8
8  23  8

$$$$

