20647557
  -OEChem-07051212502D

 11 11  0     0  0  0  0  0  0999 V2000
    2.8660    0.0000    0.0000 C   0  0  0  0  0  0  0  0  0  0  0  0
    2.0000   -0.5000    0.0000 C   0  0  0  0  0  0  0  0  0  0  0  0
    2.0000    0.5000    0.0000 C   0  0  0  0  0  0  0  0  0  0  0  0
    3.8660    0.0000    0.0000 C   0  5  0  0  0  0  0  0  0  0  0  0
    3.0265    0.5989    0.0000 H   0  0  0  0  0  0  0  0  0  0  0  0
    1.3894   -0.6077    0.0000 H   0  0  0  0  0  0  0  0  0  0  0  0
    2.2120   -1.0826    0.0000 H   0  0  0  0  0  0  0  0  0  0  0  0
    2.2120    1.0826    0.0000 H   0  0  0  0  0  0  0  0  0  0  0  0
    1.3894    0.6077    0.0000 H   0  0  0  0  0  0  0  0  0  0  0  0
    4.1760   -0.5369    0.0000 H   0  0  0  0  0  0  0  0  0  0  0  0
    4.1760    0.5369    0.0000 H   0  0  0  0  0  0  0  0  0  0  0  0
  1  2  1  0  0  0  0
  1  3  1  0  0  0  0
  1  4  1  0  0  0  0
  1  5  1  0  0  0  0
  2  3  1  0  0  0  0
  2  6  1  0  0  0  0
  2  7  1  0  0  0  0
  3  8  1  0  0  0  0
  3  9  1  0  0  0  0
  4 10  1  0  0  0  0
  4 11  1  0  0  0  0
M  CHG  1   4  -1
M  END
> <PUBCHEM_COMPOUND_CID>
20647557

> <PUBCHEM_COMPOUND_CANONICALIZED>
1

> <PUBCHEM_CACTVS_COMPLEXITY>
19.2

> <PUBCHEM_CACTVS_HBOND_ACCEPTOR>
1

> <PUBCHEM_CACTVS_HBOND_DONOR>
0

> <PUBCHEM_CACTVS_ROTATABLE_BOND>
0

> <PUBCHEM_CACTVS_SUBSKEYS>
AAADcYBgAAAAAAAAAAAAAAAAGAAAAAAAAAAAAAAAAAAAAAAAAAAAGAAAAAAADQCAAAAAAAAAAAAAAAAAAAAAAAAAAAAAAAAAAAAAAAAAAAAAAAAAAAAAAAAAAAAAAAAAAAAAAAAAAAAAAAAAAAAAAAAAAA==

> <PUBCHEM_IUPAC_OPENEYE_NAME>
methanidylcyclopropane

> <PUBCHEM_IUPAC_CAS_NAME>
methanidylcyclopropane

> <PUBCHEM_IUPAC_NAME>
methanidylcyclopropane

> <PUBCHEM_IUPAC_SYSTEMATIC_NAME>
methanidylcyclopropane

> <PUBCHEM_IUPAC_TRADITIONAL_NAME>
methanidylcyclopropane

> <PUBCHEM_IUPAC_INCHI>
InChI=1S/C4H7/c1-4-2-3-4/h4H,1-3H2/q-1

> <PUBCHEM_IUPAC_INCHIKEY>
LWMXAOBKDKCIOW-UHFFFAOYSA-N

> <PUBCHEM_XLOGP3_AA>
1.9

> <PUBCHEM_EXACT_MASS>
55.054775

> <PUBCHEM_MOLECULAR_FORMULA>
C4H7-

> <PUBCHEM_MOLECULAR_WEIGHT>
55.09838

> <PUBCHEM_OPENEYE_CAN_SMILES>
[CH2-]C1CC1

> <PUBCHEM_OPENEYE_ISO_SMILES>
[CH2-]C1CC1

> <PUBCHEM_CACTVS_TPSA>
0

> <PUBCHEM_MONOISOTOPIC_WEIGHT>
55.054775

> <PUBCHEM_TOTAL_CHARGE>
-1

> <PUBCHEM_HEAVY_ATOM_COUNT>
4

> <PUBCHEM_ATOM_DEF_STEREO_COUNT>
0

> <PUBCHEM_ATOM_UDEF_STEREO_COUNT>
0

> <PUBCHEM_BOND_DEF_STEREO_COUNT>
0

> <PUBCHEM_BOND_UDEF_STEREO_COUNT>
0

> <PUBCHEM_ISOTOPIC_ATOM_COUNT>
0

> <PUBCHEM_COMPONENT_COUNT>
1

> <PUBCHEM_CACTVS_TAUTO_COUNT>
1

> <PUBCHEM_COORDINATE_TYPE>
1
5
255

$$$$

