12785740
  -OEChem-07051213132D

 21 21  0     1  0  0  0  0  0999 V2000
    3.2320    1.3100    0.0000 O   0  0  0  0  0  0  0  0  0  0  0  0
    2.0000    0.4440    0.0000 O   0  0  0  0  0  0  0  0  0  0  0  0
    5.4641   -1.5560    0.0000 O   0  0  0  0  0  0  0  0  0  0  0  0
    5.7320    2.1760    0.0000 O   0  0  0  0  0  0  0  0  0  0  0  0
    5.7320    0.4440    0.0000 O   0  0  0  0  0  0  0  0  0  0  0  0
    2.8660   -1.0560    0.0000 N   0  0  0  0  0  0  0  0  0  0  0  0
    3.7320   -1.5560    0.0000 N   0  0  0  0  0  0  0  0  0  0  0  0
    3.7320    0.4440    0.0000 C   0  0  3  0  0  0  0  0  0  0  0  0
    4.5981   -0.0560    0.0000 C   0  0  0  0  0  0  0  0  0  0  0  0
    4.2320    1.3100    0.0000 C   0  0  0  0  0  0  0  0  0  0  0  0
    2.8660   -0.0560    0.0000 C   0  0  0  0  0  0  0  0  0  0  0  0
    4.5981   -1.0560    0.0000 C   0  0  0  0  0  0  0  0  0  0  0  0
    5.2320    1.3100    0.0000 C   0  0  0  0  0  0  0  0  0  0  0  0
    5.2087   -0.1637    0.0000 H   0  0  0  0  0  0  0  0  0  0  0  0
    4.8101    0.5266    0.0000 H   0  0  0  0  0  0  0  0  0  0  0  0
    4.3397    1.9206    0.0000 H   0  0  0  0  0  0  0  0  0  0  0  0
    3.6494    1.5220    0.0000 H   0  0  0  0  0  0  0  0  0  0  0  0
    2.3291   -1.3660    0.0000 H   0  0  0  0  0  0  0  0  0  0  0  0
    3.7320   -2.1760    0.0000 H   0  0  0  0  0  0  0  0  0  0  0  0
    3.5420    1.8469    0.0000 H   0  0  0  0  0  0  0  0  0  0  0  0
    6.3520    2.1760    0.0000 H   0  0  0  0  0  0  0  0  0  0  0  0
  1  8  1  0  0  0  0
  1 20  1  0  0  0  0
  2 11  2  0  0  0  0
  3 12  2  0  0  0  0
  4 13  1  0  0  0  0
  4 21  1  0  0  0  0
  5 13  2  0  0  0  0
  6  7  1  0  0  0  0
  6 11  1  0  0  0  0
  6 18  1  0  0  0  0
  7 12  1  0  0  0  0
  7 19  1  0  0  0  0
  8  9  1  0  0  0  0
  8 10  1  0  0  0  0
  8 11  1  0  0  0  0
  9 12  1  0  0  0  0
  9 14  1  0  0  0  0
  9 15  1  0  0  0  0
 10 13  1  0  0  0  0
 10 16  1  0  0  0  0
 10 17  1  0  0  0  0
M  END
> <PUBCHEM_COMPOUND_CID>
12785740

> <PUBCHEM_COMPOUND_CANONICALIZED>
1

> <PUBCHEM_CACTVS_COMPLEXITY>
276

> <PUBCHEM_CACTVS_HBOND_ACCEPTOR>
5

> <PUBCHEM_CACTVS_HBOND_DONOR>
4

> <PUBCHEM_CACTVS_ROTATABLE_BOND>
2

> <PUBCHEM_CACTVS_SUBSKEYS>
AAADccBjOAAAAAAAAAAAAAAAAAAAAAAAAAAsAAAAAAAAAAAAAAAAHgAYCAAADESBgAAACABiAgAIAAGQGAIAAAAAAAISIAFAAAACABYAgAAAQAAHMAAAAAC/FwAKAAAAAAAAAAAAAAAAAAAAAAAAAAAAAA==

> <PUBCHEM_IUPAC_OPENEYE_NAME>
2-(4-hydroxy-3,6-dioxo-hexahydropyridazin-4-yl)acetic acid

> <PUBCHEM_IUPAC_CAS_NAME>
2-(4-hydroxy-3,6-dioxo-4-diazinanyl)acetic acid

> <PUBCHEM_IUPAC_NAME>
2-(4-hydroxy-3,6-dioxodiazinan-4-yl)acetic acid

> <PUBCHEM_IUPAC_SYSTEMATIC_NAME>
2-[4-oxidanyl-3,6-bis(oxidanylidene)-1,2-diazinan-4-yl]ethanoic acid

> <PUBCHEM_IUPAC_TRADITIONAL_NAME>
2-(4-hydroxy-3,6-diketo-hexahydropyridazin-4-yl)acetic acid

> <PUBCHEM_IUPAC_INCHI>
InChI=1S/C6H8N2O5/c9-3-1-6(13,2-4(10)11)5(12)8-7-3/h13H,1-2H2,(H,7,9)(H,8,12)(H,10,11)

> <PUBCHEM_IUPAC_INCHIKEY>
BKVRQJSQZDTXCG-UHFFFAOYSA-N

> <PUBCHEM_XLOGP3_AA>
-2

> <PUBCHEM_EXACT_MASS>
188.043321

> <PUBCHEM_MOLECULAR_FORMULA>
C6H8N2O5

> <PUBCHEM_MOLECULAR_WEIGHT>
188.13812

> <PUBCHEM_OPENEYE_CAN_SMILES>
C1C(=O)NNC(=O)C1(CC(=O)O)O

> <PUBCHEM_OPENEYE_ISO_SMILES>
C1C(=O)NNC(=O)C1(CC(=O)O)O

> <PUBCHEM_CACTVS_TPSA>
116

> <PUBCHEM_MONOISOTOPIC_WEIGHT>
188.043321

> <PUBCHEM_TOTAL_CHARGE>
0

> <PUBCHEM_HEAVY_ATOM_COUNT>
13

> <PUBCHEM_ATOM_DEF_STEREO_COUNT>
0

> <PUBCHEM_ATOM_UDEF_STEREO_COUNT>
1

> <PUBCHEM_BOND_DEF_STEREO_COUNT>
0

> <PUBCHEM_BOND_UDEF_STEREO_COUNT>
0

> <PUBCHEM_ISOTOPIC_ATOM_COUNT>
0

> <PUBCHEM_COMPONENT_COUNT>
1

> <PUBCHEM_CACTVS_TAUTO_COUNT>
6

> <PUBCHEM_COORDINATE_TYPE>
1
5
255

> <PUBCHEM_BONDANNOTATIONS>
8  1  3

$$$$

