2380
  -OEChem-07051212513D

 28 29  0     1  0  0  0  0  0999 V2000
   -2.9333    1.1282   -1.5208 O   0  0  0  0  0  0  0  0  0  0  0  0
   -3.7212   -1.1444    1.2624 O   0  0  0  0  0  0  0  0  0  0  0  0
    1.3035    2.5469   -0.0205 O   0  0  0  0  0  0  0  0  0  0  0  0
   -0.5259    0.6316   -0.3630 N   0  0  0  0  0  0  0  0  0  0  0  0
    0.3435   -2.0372   -0.2961 N   0  0  0  0  0  0  0  0  0  0  0  0
    2.5782   -1.2409    0.0786 N   0  0  0  0  0  0  0  0  0  0  0  0
    3.0633    1.0873    0.2177 N   0  0  0  0  0  0  0  0  0  0  0  0
    4.7348   -0.5428    0.4383 N   0  0  0  0  0  0  0  0  0  0  0  0
   -2.8144   -0.0762   -0.7445 C   0  0  2  0  0  0  0  0  0  0  0  0
   -3.6740    0.0823    0.5367 C   0  0  2  0  0  0  0  0  0  0  0  0
   -1.3772   -0.3978   -0.5255 C   0  0  0  0  0  0  0  0  0  0  0  0
   -3.1635    1.1705    1.4709 C   0  0  0  0  0  0  0  0  0  0  0  0
    0.7641    0.2910   -0.1675 C   0  0  0  0  0  0  0  0  0  0  0  0
    1.2141   -1.0187   -0.1310 C   0  0  0  0  0  0  0  0  0  0  0  0
   -0.9508   -1.7072   -0.4926 C   0  0  0  0  0  0  0  0  0  0  0  0
    1.7301    1.3969    0.0150 C   0  0  0  0  0  0  0  0  0  0  0  0
    3.4287   -0.1695    0.2417 C   0  0  0  0  0  0  0  0  0  0  0  0
   -3.2516   -0.8736   -1.3593 H   0  0  0  0  0  0  0  0  0  0  0  0
   -4.7012    0.3389    0.2507 H   0  0  0  0  0  0  0  0  0  0  0  0
   -2.1926    0.9084    1.9041 H   0  0  0  0  0  0  0  0  0  0  0  0
   -3.0805    2.1366    0.9647 H   0  0  0  0  0  0  0  0  0  0  0  0
   -3.8494    1.2866    2.3178 H   0  0  0  0  0  0  0  0  0  0  0  0
   -1.6279   -2.5438   -0.6206 H   0  0  0  0  0  0  0  0  0  0  0  0
    2.9058   -2.1983    0.1049 H   0  0  0  0  0  0  0  0  0  0  0  0
   -3.8781    1.2631   -1.7073 H   0  0  0  0  0  0  0  0  0  0  0  0
   -4.0700   -1.8252    0.6621 H   0  0  0  0  0  0  0  0  0  0  0  0
    5.4638    0.1494    0.5725 H   0  0  0  0  0  0  0  0  0  0  0  0
    5.0091   -1.5190    0.4559 H   0  0  0  0  0  0  0  0  0  0  0  0
  1  9  1  0  0  0  0
  1 25  1  0  0  0  0
  2 10  1  0  0  0  0
  2 26  1  0  0  0  0
  3 16  2  0  0  0  0
  4 11  1  0  0  0  0
  4 13  2  0  0  0  0
  5 14  2  0  0  0  0
  5 15  1  0  0  0  0
  6 14  1  0  0  0  0
  6 17  1  0  0  0  0
  6 24  1  0  0  0  0
  7 16  1  0  0  0  0
  7 17  2  0  0  0  0
  8 17  1  0  0  0  0
  8 27  1  0  0  0  0
  8 28  1  0  0  0  0
  9 10  1  0  0  0  0
  9 11  1  0  0  0  0
  9 18  1  0  0  0  0
 10 12  1  0  0  0  0
 10 19  1  0  0  0  0
 11 15  2  0  0  0  0
 12 20  1  0  0  0  0
 12 21  1  0  0  0  0
 12 22  1  0  0  0  0
 13 14  1  0  0  0  0
 13 16  1  0  0  0  0
 15 23  1  0  0  0  0
M  END
> <PUBCHEM_COMPOUND_CID>
2380

> <PUBCHEM_CONFORMER_RMSD>
0.6

> <PUBCHEM_CONFORMER_DIVERSEORDER>
4
23
17
19
11
16
5
2
14
22
1
6
18
25
10
3
21
8
7
12
15
20
9
13
24

> <PUBCHEM_MMFF94_PARTIAL_CHARGES>
22
1 -0.68
10 0.28
11 0.17
13 0.4
14 0.41
15 0.16
16 0.69
17 0.55
2 -0.68
23 0.15
24 0.4
25 0.4
26 0.4
27 0.4
28 0.4
3 -0.57
4 -0.62
5 -0.62
6 -0.55
7 -0.66
8 -0.85
9 0.42

> <PUBCHEM_EFFECTIVE_ROTOR_COUNT>
2

> <PUBCHEM_PHARMACOPHORE_FEATURES>
12
1 1 acceptor
1 1 donor
1 2 acceptor
1 2 donor
1 3 acceptor
1 4 acceptor
1 6 donor
1 7 donor
1 8 donor
3 5 6 14 cation
6 4 5 11 13 14 15 rings
6 6 7 13 14 16 17 rings

> <PUBCHEM_HEAVY_ATOM_COUNT>
17

> <PUBCHEM_ATOM_DEF_STEREO_COUNT>
0

> <PUBCHEM_ATOM_UDEF_STEREO_COUNT>
2

> <PUBCHEM_BOND_DEF_STEREO_COUNT>
0

> <PUBCHEM_BOND_UDEF_STEREO_COUNT>
0

> <PUBCHEM_ISOTOPIC_ATOM_COUNT>
0

> <PUBCHEM_COMPONENT_COUNT>
1

> <PUBCHEM_CACTVS_TAUTO_COUNT>
9

> <PUBCHEM_CONFORMER_ID>
0000094C00000004

> <PUBCHEM_MMFF94_ENERGY>
46.5118

> <PUBCHEM_FEATURE_SELFOVERLAP>
61.071

> <PUBCHEM_SHAPE_FINGERPRINT>
10366900 7 17704069577700213267
10465860 228 17823964830939631603
10980938 120 18411705395860258086
11132069 177 18335999613825378158
11471102 22 18271796922023605027
12251169 10 18410006616004009315
124424 183 17988093277939944885
12507557 5 18410859849843396265
12633257 1 18199727229294907107
13132413 78 17968374657919676760
13140716 1 18264773164393905538
13675066 3 17748820834658447594
14004511 7 18113901550184533718
14144814 61 18407761438723796416
14289901 80 16989122049959193995
15209294 21 17749108941075161128
15309172 13 18408605868138968711
15375462 189 18202292415782274858
15653759 3 17489590077794816325
16945 1 18408606980429834614
17844478 74 17989488528273350437
18186145 218 18259985963749266900
18219364 16 18413112779291379205
200 152 18187094923361291439
20279233 1 17988925608764553631
20510252 161 16822775540103282352
20671657 1 18195520403075713932
20871999 31 9871465371172163441
21029758 27 18273210911405012940
21256008 23 18411696603945931312
21501502 16 18121220883332431990
22854114 111 18410291367782167433
23184049 59 18407759244285515544
23402539 116 17386012788081250964
23493267 7 17560252438769236045
2748010 2 18048886491579234022
5104073 3 18337962177835888778
77492 1 17531252772404943653
81228 2 17618800058490357395

> <PUBCHEM_SHAPE_MULTIPOLES>
307.34
7.11
1.9
1.02
1.29
0.26
0.05
0.33
1.96
0.4
-0.03
-1.18
0.17
-0.07

> <PUBCHEM_SHAPE_SELFOVERLAP>
657.809

> <PUBCHEM_SHAPE_VOLUME>
168

> <PUBCHEM_COORDINATE_TYPE>
2
5
10

$$$$

