4223
  -OEChem-06251223582D

 48 50  0     1  0  0  0  0  0999 V2000
    3.0000    0.8450    0.0000 S   0  0  0  0  0  0  0  0  0  0  0  0
    4.0000    0.8450    0.0000 O   0  0  0  0  0  0  0  0  0  0  0  0
    2.0000    0.8450    0.0000 O   0  0  0  0  0  0  0  0  0  0  0  0
    4.7320    3.8450    0.0000 O   0  0  0  0  0  0  0  0  0  0  0  0
    3.0000    4.8450    0.0000 O   0  0  0  0  0  0  0  0  0  0  0  0
    3.0000    1.8450    0.0000 N   0  0  0  0  0  0  0  0  0  0  0  0
    3.0000    3.8450    0.0000 N   0  0  0  0  0  0  0  0  0  0  0  0
    3.8660    2.3450    0.0000 C   0  0  3  0  0  0  0  0  0  0  0  0
    4.7320    1.8450    0.0000 C   0  0  0  0  0  0  0  0  0  0  0  0
    5.5981    2.3450    0.0000 C   0  0  0  0  0  0  0  0  0  0  0  0
    3.0000   -0.1550    0.0000 C   0  0  0  0  0  0  0  0  0  0  0  0
    3.8660    3.3450    0.0000 C   0  0  0  0  0  0  0  0  0  0  0  0
    2.1340   -0.6550    0.0000 C   0  0  0  0  0  0  0  0  0  0  0  0
    3.8660   -0.6550    0.0000 C   0  0  0  0  0  0  0  0  0  0  0  0
    3.0000   -2.1550    0.0000 C   0  0  0  0  0  0  0  0  0  0  0  0
    6.4641    1.8450    0.0000 C   0  0  0  0  0  0  0  0  0  0  0  0
    5.5981    3.3450    0.0000 C   0  0  0  0  0  0  0  0  0  0  0  0
    2.1340   -1.6550    0.0000 C   0  0  0  0  0  0  0  0  0  0  0  0
    3.8660   -1.6550    0.0000 C   0  0  0  0  0  0  0  0  0  0  0  0
    3.0000   -3.1550    0.0000 C   0  0  0  0  0  0  0  0  0  0  0  0
    7.3301    2.3450    0.0000 C   0  0  0  0  0  0  0  0  0  0  0  0
    6.4641    3.8450    0.0000 C   0  0  0  0  0  0  0  0  0  0  0  0
    7.3301    3.3450    0.0000 C   0  0  0  0  0  0  0  0  0  0  0  0
    2.1340   -3.6550    0.0000 C   0  0  0  0  0  0  0  0  0  0  0  0
    3.8660   -3.6550    0.0000 C   0  0  0  0  0  0  0  0  0  0  0  0
    2.1340   -4.6550    0.0000 C   0  0  0  0  0  0  0  0  0  0  0  0
    3.8660   -4.6550    0.0000 C   0  0  0  0  0  0  0  0  0  0  0  0
    3.0000   -5.1550    0.0000 C   0  0  0  0  0  0  0  0  0  0  0  0
    3.8660    1.7250    0.0000 H   0  0  0  0  0  0  0  0  0  0  0  0
    4.3335    1.3700    0.0000 H   0  0  0  0  0  0  0  0  0  0  0  0
    5.1306    1.3700    0.0000 H   0  0  0  0  0  0  0  0  0  0  0  0
    2.4631    2.1550    0.0000 H   0  0  0  0  0  0  0  0  0  0  0  0
    1.5970   -0.3450    0.0000 H   0  0  0  0  0  0  0  0  0  0  0  0
    4.4030   -0.3450    0.0000 H   0  0  0  0  0  0  0  0  0  0  0  0
    6.4641    1.2250    0.0000 H   0  0  0  0  0  0  0  0  0  0  0  0
    5.0611    3.6550    0.0000 H   0  0  0  0  0  0  0  0  0  0  0  0
    1.5970   -1.9650    0.0000 H   0  0  0  0  0  0  0  0  0  0  0  0
    4.4030   -1.9650    0.0000 H   0  0  0  0  0  0  0  0  0  0  0  0
    2.4631    3.5350    0.0000 H   0  0  0  0  0  0  0  0  0  0  0  0
    7.8671    2.0350    0.0000 H   0  0  0  0  0  0  0  0  0  0  0  0
    6.4641    4.4650    0.0000 H   0  0  0  0  0  0  0  0  0  0  0  0
    7.8671    3.6550    0.0000 H   0  0  0  0  0  0  0  0  0  0  0  0
    1.5970   -3.3450    0.0000 H   0  0  0  0  0  0  0  0  0  0  0  0
    4.4030   -3.3450    0.0000 H   0  0  0  0  0  0  0  0  0  0  0  0
    1.5970   -4.9650    0.0000 H   0  0  0  0  0  0  0  0  0  0  0  0
    4.4030   -4.9650    0.0000 H   0  0  0  0  0  0  0  0  0  0  0  0
    3.0000   -5.7750    0.0000 H   0  0  0  0  0  0  0  0  0  0  0  0
    2.4631    5.1550    0.0000 H   0  0  0  0  0  0  0  0  0  0  0  0
  1  2  2  0  0  0  0
  1  3  2  0  0  0  0
  1  6  1  0  0  0  0
  1 11  1  0  0  0  0
  4 12  2  0  0  0  0
  5  7  1  0  0  0  0
  5 48  1  0  0  0  0
  6  8  1  0  0  0  0
  6 32  1  0  0  0  0
  7 12  1  0  0  0  0
  7 39  1  0  0  0  0
  8  9  1  0  0  0  0
  8 12  1  0  0  0  0
  8 29  1  0  0  0  0
  9 10  1  0  0  0  0
  9 30  1  0  0  0  0
  9 31  1  0  0  0  0
 10 16  2  0  0  0  0
 10 17  1  0  0  0  0
 11 13  2  0  0  0  0
 11 14  1  0  0  0  0
 13 18  1  0  0  0  0
 13 33  1  0  0  0  0
 14 19  2  0  0  0  0
 14 34  1  0  0  0  0
 15 18  2  0  0  0  0
 15 19  1  0  0  0  0
 15 20  1  0  0  0  0
 16 21  1  0  0  0  0
 16 35  1  0  0  0  0
 17 22  2  0  0  0  0
 17 36  1  0  0  0  0
 18 37  1  0  0  0  0
 19 38  1  0  0  0  0
 20 24  2  0  0  0  0
 20 25  1  0  0  0  0
 21 23  2  0  0  0  0
 21 40  1  0  0  0  0
 22 23  1  0  0  0  0
 22 41  1  0  0  0  0
 23 42  1  0  0  0  0
 24 26  1  0  0  0  0
 24 43  1  0  0  0  0
 25 27  2  0  0  0  0
 25 44  1  0  0  0  0
 26 28  2  0  0  0  0
 26 45  1  0  0  0  0
 27 28  1  0  0  0  0
 27 46  1  0  0  0  0
 28 47  1  0  0  0  0
M  END
> <PUBCHEM_COMPOUND_CID>
4223

> <PUBCHEM_COMPOUND_CANONICALIZED>
1

> <PUBCHEM_CACTVS_COMPLEXITY>
584

> <PUBCHEM_CACTVS_HBOND_ACCEPTOR>
5

> <PUBCHEM_CACTVS_HBOND_DONOR>
3

> <PUBCHEM_CACTVS_ROTATABLE_BOND>
7

> <PUBCHEM_CACTVS_SUBSKEYS>
AAADceB7OABAAAAAAAAAAAAAAAAAAAAAAAAwYMAAAAAAAAABUAAAHgQUSAAADCjB2AQwAYBQAAKIAiFSEHBCABAgAAAoiJmAAIgIYDKAkRGAIAAgkAAIiAcYiMCOkAAAAAAAAAAgAAAAAAAAAAAAAAAAAA==

> <PUBCHEM_IUPAC_OPENEYE_NAME>
3-phenyl-2-[(4-phenylphenyl)sulfonylamino]propanehydroxamic acid

> <PUBCHEM_IUPAC_CAS_NAME>
N-hydroxy-3-phenyl-2-[(4-phenylphenyl)sulfonylamino]propanamide

> <PUBCHEM_IUPAC_NAME>
N-hydroxy-3-phenyl-2-[(4-phenylphenyl)sulfonylamino]propanamide

> <PUBCHEM_IUPAC_SYSTEMATIC_NAME>
N-oxidanyl-3-phenyl-2-[(4-phenylphenyl)sulfonylamino]propanamide

> <PUBCHEM_IUPAC_TRADITIONAL_NAME>
3-phenyl-2-[(4-phenylphenyl)sulfonylamino]propanehydroxamic acid

> <PUBCHEM_IUPAC_INCHI>
InChI=1S/C21H20N2O4S/c24-21(22-25)20(15-16-7-3-1-4-8-16)23-28(26,27)19-13-11-18(12-14-19)17-9-5-2-6-10-17/h1-14,20,23,25H,15H2,(H,22,24)

> <PUBCHEM_IUPAC_INCHIKEY>
UPCAIRKRFXQRRM-UHFFFAOYSA-N

> <PUBCHEM_XLOGP3_AA>
3.4

> <PUBCHEM_EXACT_MASS>
396.114378

> <PUBCHEM_MOLECULAR_FORMULA>
C21H20N2O4S

> <PUBCHEM_MOLECULAR_WEIGHT>
396.4595

> <PUBCHEM_OPENEYE_CAN_SMILES>
C1=CC=C(C=C1)CC(C(=O)NO)NS(=O)(=O)C2=CC=C(C=C2)C3=CC=CC=C3

> <PUBCHEM_OPENEYE_ISO_SMILES>
C1=CC=C(C=C1)CC(C(=O)NO)NS(=O)(=O)C2=CC=C(C=C2)C3=CC=CC=C3

> <PUBCHEM_CACTVS_TPSA>
104

> <PUBCHEM_MONOISOTOPIC_WEIGHT>
396.114378

> <PUBCHEM_TOTAL_CHARGE>
0

> <PUBCHEM_HEAVY_ATOM_COUNT>
28

> <PUBCHEM_ATOM_DEF_STEREO_COUNT>
0

> <PUBCHEM_ATOM_UDEF_STEREO_COUNT>
1

> <PUBCHEM_BOND_DEF_STEREO_COUNT>
0

> <PUBCHEM_BOND_UDEF_STEREO_COUNT>
0

> <PUBCHEM_ISOTOPIC_ATOM_COUNT>
0

> <PUBCHEM_COMPONENT_COUNT>
1

> <PUBCHEM_CACTVS_TAUTO_COUNT>
4

> <PUBCHEM_COORDINATE_TYPE>
1
5
255

> <PUBCHEM_BONDANNOTATIONS>
10  16  8
10  17  8
11  13  8
11  14  8
13  18  8
14  19  8
15  18  8
15  19  8
16  21  8
17  22  8
20  24  8
20  25  8
21  23  8
22  23  8
24  26  8
25  27  8
26  28  8
27  28  8
8  9  3

$$$$

