443744
  -OEChem-07051213033D

 48 51  0     1  0  0  0  0  0999 V2000
    2.7503    1.6548   -1.6220 O   0  0  0  0  0  0  0  0  0  0  0  0
    4.7794    0.4514   -0.1519 O   0  0  0  0  0  0  0  0  0  0  0  0
   -2.6729   -1.8316   -0.6956 N   0  0  2  0  0  0  0  0  0  0  0  0
   -2.4602    2.1624    1.6262 N   0  0  0  0  0  0  0  0  0  0  0  0
   -0.5660   -1.4335    0.2882 C   0  0  2  0  0  0  0  0  0  0  0  0
   -1.6262   -0.7836   -0.6574 C   0  0  2  0  0  0  0  0  0  0  0  0
   -0.6306   -2.9216   -0.1413 C   0  0  0  0  0  0  0  0  0  0  0  0
   -1.0609   -1.3086    1.7608 C   0  0  0  0  0  0  0  0  0  0  0  0
   -1.9585   -3.0988   -0.8671 C   0  0  0  0  0  0  0  0  0  0  0  0
   -2.1326    0.5550   -0.1582 C   0  0  0  0  0  0  0  0  0  0  0  0
    0.8760   -0.9216    0.1674 C   0  0  0  0  0  0  0  0  0  0  0  0
   -1.2497    0.1456    2.1800 C   0  0  0  0  0  0  0  0  0  0  0  0
   -2.0026    0.9666    1.1718 C   0  0  0  0  0  0  0  0  0  0  0  0
   -3.6774   -1.6593   -1.7388 C   0  0  0  0  0  0  0  0  0  0  0  0
   -2.7473    1.4489   -1.0457 C   0  0  0  0  0  0  0  0  0  0  0  0
    1.1668    0.1458   -0.6808 C   0  0  0  0  0  0  0  0  0  0  0  0
    1.8928   -1.5258    0.9054 C   0  0  0  0  0  0  0  0  0  0  0  0
   -3.2251    2.6747   -0.6002 C   0  0  0  0  0  0  0  0  0  0  0  0
    2.4774    0.6103   -0.7911 C   0  0  0  0  0  0  0  0  0  0  0  0
    3.2033   -1.0614    0.7951 C   0  0  0  0  0  0  0  0  0  0  0  0
   -3.0631    2.9789    0.7363 C   0  0  0  0  0  0  0  0  0  0  0  0
    3.4956    0.0067   -0.0532 C   0  0  0  0  0  0  0  0  0  0  0  0
    2.6712    2.9648   -1.0638 C   0  0  0  0  0  0  0  0  0  0  0  0
    5.7605   -0.2202    0.6360 C   0  0  0  0  0  0  0  0  0  0  0  0
   -1.2123   -0.6687   -1.6693 H   0  0  0  0  0  0  0  0  0  0  0  0
   -0.5564   -3.5976    0.7189 H   0  0  0  0  0  0  0  0  0  0  0  0
    0.1832   -3.1836   -0.8297 H   0  0  0  0  0  0  0  0  0  0  0  0
   -0.3782   -1.7993    2.4648 H   0  0  0  0  0  0  0  0  0  0  0  0
   -2.0217   -1.8284    1.8806 H   0  0  0  0  0  0  0  0  0  0  0  0
   -1.7616   -3.3183   -1.9245 H   0  0  0  0  0  0  0  0  0  0  0  0
   -2.5320   -3.9325   -0.4488 H   0  0  0  0  0  0  0  0  0  0  0  0
   -0.2721    0.6164    2.3398 H   0  0  0  0  0  0  0  0  0  0  0  0
   -1.7789    0.1746    3.1401 H   0  0  0  0  0  0  0  0  0  0  0  0
   -3.2309   -1.5377   -2.7321 H   0  0  0  0  0  0  0  0  0  0  0  0
   -4.3162   -0.7957   -1.5329 H   0  0  0  0  0  0  0  0  0  0  0  0
   -4.3464   -2.5271   -1.7702 H   0  0  0  0  0  0  0  0  0  0  0  0
   -2.8561    1.1922   -2.0966 H   0  0  0  0  0  0  0  0  0  0  0  0
    0.4111    0.6502   -1.2711 H   0  0  0  0  0  0  0  0  0  0  0  0
    1.6882   -2.3648    1.5646 H   0  0  0  0  0  0  0  0  0  0  0  0
   -3.7069    3.3677   -1.2799 H   0  0  0  0  0  0  0  0  0  0  0  0
    3.9426   -1.5794    1.3962 H   0  0  0  0  0  0  0  0  0  0  0  0
   -3.4177    3.9213    1.1401 H   0  0  0  0  0  0  0  0  0  0  0  0
    3.3857    3.0777   -0.2423 H   0  0  0  0  0  0  0  0  0  0  0  0
    1.6558    3.1696   -0.7096 H   0  0  0  0  0  0  0  0  0  0  0  0
    2.9208    3.6865   -1.8463 H   0  0  0  0  0  0  0  0  0  0  0  0
    5.8648   -1.2702    0.3417 H   0  0  0  0  0  0  0  0  0  0  0  0
    5.5656   -0.1047    1.7076 H   0  0  0  0  0  0  0  0  0  0  0  0
    6.7220    0.2634    0.4341 H   0  0  0  0  0  0  0  0  0  0  0  0
  1 19  1  0  0  0  0
  1 23  1  0  0  0  0
  2 22  1  0  0  0  0
  2 24  1  0  0  0  0
  3  6  1  0  0  0  0
  3  9  1  0  0  0  0
  3 14  1  0  0  0  0
  4 13  1  0  0  0  0
  4 21  2  0  0  0  0
  5  6  1  0  0  0  0
  5  7  1  0  0  0  0
  5  8  1  0  0  0  0
  5 11  1  0  0  0  0
  6 10  1  0  0  0  0
  6 25  1  0  0  0  0
  7  9  1  0  0  0  0
  7 26  1  0  0  0  0
  7 27  1  0  0  0  0
  8 12  1  0  0  0  0
  8 28  1  0  0  0  0
  8 29  1  0  0  0  0
  9 30  1  0  0  0  0
  9 31  1  0  0  0  0
 10 13  2  0  0  0  0
 10 15  1  0  0  0  0
 11 16  2  0  0  0  0
 11 17  1  0  0  0  0
 12 13  1  0  0  0  0
 12 32  1  0  0  0  0
 12 33  1  0  0  0  0
 14 34  1  0  0  0  0
 14 35  1  0  0  0  0
 14 36  1  0  0  0  0
 15 18  2  0  0  0  0
 15 37  1  0  0  0  0
 16 19  1  0  0  0  0
 16 38  1  0  0  0  0
 17 20  2  0  0  0  0
 17 39  1  0  0  0  0
 18 21  1  0  0  0  0
 18 40  1  0  0  0  0
 19 22  2  0  0  0  0
 20 22  1  0  0  0  0
 20 41  1  0  0  0  0
 21 42  1  0  0  0  0
 23 43  1  0  0  0  0
 23 44  1  0  0  0  0
 23 45  1  0  0  0  0
 24 46  1  0  0  0  0
 24 47  1  0  0  0  0
 24 48  1  0  0  0  0
M  END
> <PUBCHEM_COMPOUND_CID>
443744

> <PUBCHEM_CONFORMER_RMSD>
0.8

> <PUBCHEM_CONFORMER_DIVERSEORDER>
1
14
5
13
8
15
12
10
6
11
2
3
7
4
16
9

> <PUBCHEM_MMFF94_PARTIAL_CHARGES>
28
1 -0.36
10 -0.14
11 -0.14
12 0.14
13 0.17
14 0.27
15 -0.15
16 -0.15
17 -0.15
18 -0.15
19 0.08
2 -0.36
20 -0.15
21 0.16
22 0.08
23 0.28
24 0.28
3 -0.81
37 0.15
38 0.15
39 0.15
4 -0.62
40 0.15
41 0.15
42 0.15
5 0.14
6 0.41
9 0.27

> <PUBCHEM_EFFECTIVE_ROTOR_COUNT>
4

> <PUBCHEM_PHARMACOPHORE_FEATURES>
8
1 1 acceptor
1 2 acceptor
1 3 cation
1 4 acceptor
5 3 5 6 7 9 rings
6 11 16 17 19 20 22 rings
6 4 10 13 15 18 21 rings
6 5 6 8 10 12 13 rings

> <PUBCHEM_HEAVY_ATOM_COUNT>
24

> <PUBCHEM_ATOM_DEF_STEREO_COUNT>
2

> <PUBCHEM_ATOM_UDEF_STEREO_COUNT>
0

> <PUBCHEM_BOND_DEF_STEREO_COUNT>
0

> <PUBCHEM_BOND_UDEF_STEREO_COUNT>
0

> <PUBCHEM_ISOTOPIC_ATOM_COUNT>
0

> <PUBCHEM_COMPONENT_COUNT>
1

> <PUBCHEM_CACTVS_TAUTO_COUNT>
1

> <PUBCHEM_CONFORMER_ID>
0006C56000000001

> <PUBCHEM_MMFF94_ENERGY>
97.6478

> <PUBCHEM_FEATURE_SELFOVERLAP>
40.762

> <PUBCHEM_SHAPE_FINGERPRINT>
10291535 26 17603868927077185360
10764073 3 5541038885211412295
11315181 36 18201445732073644354
11582403 64 16699231562370091973
11640471 11 18191028013201664105
11725454 13 16699505332112261173
12403259 327 16771525533758883953
12403260 363 18341058410953219132
12403814 3 18410283693271695899
12788726 201 18261948536518405997
13140716 1 18051407370809735562
13583140 156 17632290228881520737
13965767 371 17763205912883194720
14142880 1 18343303699559690309
15209289 33 8430306974747645830
15420108 30 18050579734969599296
16752209 62 18262250953365872183
16945 1 18337967679388716455
18981168 100 17972006336183181342
192875 21 18267874891059355324
20600515 1 17171509988216306551
20775438 99 16243544027262561079
21095088 737 18195243317471209708
21475661 188 17129296747671270581
21524375 3 18271519909565608425
21731228 192 18200581635439013753
22907989 373 18187643548886552677
23557571 272 17894917299822298202
23559900 14 18192725440623301402
350125 39 18412542089601272489
469060 322 17052996876626617745
474 4 18124031501457102809
7164475 11 18336264535644949366
7615 1 18269548356584193636
7832392 63 18342175617878039438

> <PUBCHEM_SHAPE_MULTIPOLES>
472.21
7.82
3.49
1.64
9.85
0.59
0.44
2.67
-0.82
-2.97
-0.74
-0.89
0.17
-2

> <PUBCHEM_SHAPE_SELFOVERLAP>
1029.548

> <PUBCHEM_SHAPE_VOLUME>
257.6

> <PUBCHEM_COORDINATE_TYPE>
2
5
10

$$$$

