440939
  -OEChem-07051212513D

 20 20  0     1  0  0  0  0  0999 V2000
   -0.5520   -1.6242    0.1175 P   0  0  1  0  0  0  0  0  0  0  0  0
   -2.0790    0.8751   -0.0437 P   0  0  2  0  0  0  0  0  0  0  0  0
    0.8761   -0.9705   -0.2692 O   0  0  0  0  0  0  0  0  0  0  0  0
   -0.7213    1.5682    0.4964 O   0  0  0  0  0  0  0  0  0  0  0  0
   -1.6183   -0.5964   -0.5281 O   0  0  0  0  0  0  0  0  0  0  0  0
   -0.6468   -2.9064   -0.8634 O   0  0  0  0  0  0  0  0  0  0  0  0
   -2.3887    1.6417   -1.4339 O   0  0  0  0  0  0  0  0  0  0  0  0
   -0.7642   -1.9261    1.5718 O   0  0  0  0  0  0  0  0  0  0  0  0
   -3.2161    0.8776    0.9358 O   0  0  0  0  0  0  0  0  0  0  0  0
    3.2703    1.4503    0.5941 O   0  0  0  0  0  0  0  0  0  0  0  0
    3.3417   -0.4243   -0.7007 O   0  0  0  0  0  0  0  0  0  0  0  0
    1.2750    0.2482    0.3422 C   0  0  2  0  0  0  0  0  0  0  0  0
    0.4994    1.4284   -0.2243 C   0  0  0  0  0  0  0  0  0  0  0  0
    2.7238    0.3584    0.0055 C   0  0  0  0  0  0  0  0  0  0  0  0
    1.1643    0.1493    1.4274 H   0  0  0  0  0  0  0  0  0  0  0  0
    1.0383    2.3725   -0.1012 H   0  0  0  0  0  0  0  0  0  0  0  0
    0.2888    1.3004   -1.2918 H   0  0  0  0  0  0  0  0  0  0  0  0
   -0.1415   -3.7158   -0.6363 H   0  0  0  0  0  0  0  0  0  0  0  0
   -2.8150    2.5245   -1.4040 H   0  0  0  0  0  0  0  0  0  0  0  0
    4.2245    1.5405    0.3850 H   0  0  0  0  0  0  0  0  0  0  0  0
  1  3  1  0  0  0  0
  1  5  1  0  0  0  0
  1  6  1  0  0  0  0
  1  8  2  0  0  0  0
  2  4  1  0  0  0  0
  2  5  1  0  0  0  0
  2  7  1  0  0  0  0
  2  9  2  0  0  0  0
  3 12  1  0  0  0  0
  4 13  1  0  0  0  0
  6 18  1  0  0  0  0
  7 19  1  0  0  0  0
 10 14  1  0  0  0  0
 10 20  1  0  0  0  0
 11 14  2  0  0  0  0
 12 13  1  0  0  0  0
 12 14  1  0  0  0  0
 12 15  1  0  0  0  0
 13 16  1  0  0  0  0
 13 17  1  0  0  0  0
M  END
> <PUBCHEM_COMPOUND_CID>
440939

> <PUBCHEM_CONFORMER_RMSD>
0.6

> <PUBCHEM_CONFORMER_DIVERSEORDER>
3
14
13
9
12
2
4
6
1
10
8
7
11
5

> <PUBCHEM_MMFF94_PARTIAL_CHARGES>
17
1 1.51
10 -0.65
11 -0.57
12 0.34
13 0.28
14 0.66
18 0.5
19 0.5
2 1.51
20 0.5
3 -0.55
4 -0.55
5 -0.54
6 -0.77
7 -0.77
8 -0.7
9 -0.7

> <PUBCHEM_EFFECTIVE_ROTOR_COUNT>
2

> <PUBCHEM_PHARMACOPHORE_FEATURES>
8
1 10 acceptor
1 11 acceptor
1 6 acceptor
1 7 acceptor
1 8 acceptor
1 9 acceptor
3 10 11 14 anion
7 1 2 3 4 5 12 13 rings

> <PUBCHEM_HEAVY_ATOM_COUNT>
14

> <PUBCHEM_ATOM_DEF_STEREO_COUNT>
0

> <PUBCHEM_ATOM_UDEF_STEREO_COUNT>
1

> <PUBCHEM_BOND_DEF_STEREO_COUNT>
0

> <PUBCHEM_BOND_UDEF_STEREO_COUNT>
0

> <PUBCHEM_ISOTOPIC_ATOM_COUNT>
0

> <PUBCHEM_COMPONENT_COUNT>
1

> <PUBCHEM_CACTVS_TAUTO_COUNT>
1

> <PUBCHEM_CONFORMER_ID>
0006BA6B00000003

> <PUBCHEM_MMFF94_ENERGY>
-12.6466

> <PUBCHEM_FEATURE_SELFOVERLAP>
40.672

> <PUBCHEM_SHAPE_FINGERPRINT>
1 1 18266461099262702535
11132069 177 18340478985568592971
12138202 97 18410017606883062932
14817 1 4961953336326777403
15775835 57 18341613754203184349
16945 1 18116720805409322012
18186145 218 18261675964698020564
20645476 183 17560508573655015678
20653085 51 18040990752319216594
20871998 184 18265042540331796031
21028194 46 18342452694333329444
21501502 16 18122908616628065608
21524375 3 18341898540589215147
22802520 49 18261096492200447566
23235685 24 18409728499496577793
23559900 14 18260263063225077636
241688 4 16175112171489460539
2748010 2 18410569621496437518
6333449 129 18335144146307546320
81228 2 18124881148787859363

> <PUBCHEM_SHAPE_MULTIPOLES>
242.99
4.41
2.41
1.04
2.21
1.45
-0.06
-2.07
0.02
-0.92
0.2
-0.46
0.14
0.4

> <PUBCHEM_SHAPE_SELFOVERLAP>
463.106

> <PUBCHEM_SHAPE_VOLUME>
148.1

> <PUBCHEM_COORDINATE_TYPE>
2
5
10

$$$$

