7340
  -OEChem-07051213132D

 32 33  0     0  0  0  0  0  0999 V2000
    3.7320   -0.4050    0.0000 N   0  0  0  0  0  0  0  0  0  0  0  0
    4.5981   -0.9050    0.0000 N   0  0  0  0  0  0  0  0  0  0  0  0
    3.7320    3.5950    0.0000 N   0  0  0  0  0  0  0  0  0  0  0  0
    2.8660    2.0950    0.0000 C   0  0  0  0  0  0  0  0  0  0  0  0
    3.7320    2.5950    0.0000 C   0  0  0  0  0  0  0  0  0  0  0  0
    2.8660    1.0950    0.0000 C   0  0  0  0  0  0  0  0  0  0  0  0
    3.7320    0.5950    0.0000 C   0  0  0  0  0  0  0  0  0  0  0  0
    3.7320   -2.4050    0.0000 C   0  0  0  0  0  0  0  0  0  0  0  0
    4.5981   -1.9050    0.0000 C   0  0  0  0  0  0  0  0  0  0  0  0
    4.5981    2.0950    0.0000 C   0  0  0  0  0  0  0  0  0  0  0  0
    4.5981    1.0950    0.0000 C   0  0  0  0  0  0  0  0  0  0  0  0
    2.0000    2.5950    0.0000 C   0  0  0  0  0  0  0  0  0  0  0  0
    3.7320   -3.4050    0.0000 C   0  0  0  0  0  0  0  0  0  0  0  0
    5.4641   -2.4050    0.0000 C   0  0  0  0  0  0  0  0  0  0  0  0
    2.8660   -1.9050    0.0000 C   0  0  0  0  0  0  0  0  0  0  0  0
    4.5981   -3.9050    0.0000 C   0  0  0  0  0  0  0  0  0  0  0  0
    5.4641   -3.4050    0.0000 C   0  0  0  0  0  0  0  0  0  0  0  0
    2.3291    0.7850    0.0000 H   0  0  0  0  0  0  0  0  0  0  0  0
    5.1350    2.4050    0.0000 H   0  0  0  0  0  0  0  0  0  0  0  0
    5.1350    0.7850    0.0000 H   0  0  0  0  0  0  0  0  0  0  0  0
    2.3100    3.1319    0.0000 H   0  0  0  0  0  0  0  0  0  0  0  0
    1.4631    2.9050    0.0000 H   0  0  0  0  0  0  0  0  0  0  0  0
    1.6900    2.0581    0.0000 H   0  0  0  0  0  0  0  0  0  0  0  0
    3.1951   -3.7150    0.0000 H   0  0  0  0  0  0  0  0  0  0  0  0
    6.0010   -2.0950    0.0000 H   0  0  0  0  0  0  0  0  0  0  0  0
    3.1760   -1.3681    0.0000 H   0  0  0  0  0  0  0  0  0  0  0  0
    2.3291   -1.5950    0.0000 H   0  0  0  0  0  0  0  0  0  0  0  0
    2.5560   -2.4419    0.0000 H   0  0  0  0  0  0  0  0  0  0  0  0
    4.5981   -4.5250    0.0000 H   0  0  0  0  0  0  0  0  0  0  0  0
    6.0010   -3.7150    0.0000 H   0  0  0  0  0  0  0  0  0  0  0  0
    4.2690    3.9050    0.0000 H   0  0  0  0  0  0  0  0  0  0  0  0
    3.1951    3.9050    0.0000 H   0  0  0  0  0  0  0  0  0  0  0  0
  1  2  2  0  0  0  0
  1  7  1  0  0  0  0
  2  9  1  0  0  0  0
  3  5  1  0  0  0  0
  3 31  1  0  0  0  0
  3 32  1  0  0  0  0
  4  5  2  0  0  0  0
  4  6  1  0  0  0  0
  4 12  1  0  0  0  0
  5 10  1  0  0  0  0
  6  7  2  0  0  0  0
  6 18  1  0  0  0  0
  7 11  1  0  0  0  0
  8  9  1  0  0  0  0
  8 13  2  0  0  0  0
  8 15  1  0  0  0  0
  9 14  2  0  0  0  0
 10 11  2  0  0  0  0
 10 19  1  0  0  0  0
 11 20  1  0  0  0  0
 12 21  1  0  0  0  0
 12 22  1  0  0  0  0
 12 23  1  0  0  0  0
 13 16  1  0  0  0  0
 13 24  1  0  0  0  0
 14 17  1  0  0  0  0
 14 25  1  0  0  0  0
 15 26  1  0  0  0  0
 15 27  1  0  0  0  0
 15 28  1  0  0  0  0
 16 17  2  0  0  0  0
 16 29  1  0  0  0  0
 17 30  1  0  0  0  0
M  END
> <PUBCHEM_COMPOUND_CID>
7340

> <PUBCHEM_COMPOUND_CANONICALIZED>
1

> <PUBCHEM_CACTVS_COMPLEXITY>
264

> <PUBCHEM_CACTVS_HBOND_ACCEPTOR>
3

> <PUBCHEM_CACTVS_HBOND_DONOR>
1

> <PUBCHEM_CACTVS_ROTATABLE_BOND>
2

> <PUBCHEM_CACTVS_SUBSKEYS>
AAADccBzAAAAAAAAAAAAAAAAAAAAAAAAAAAwYAAAAAAAAAABQAAAHAAYAAAADAiBGAAywIBAAACCAiRCQACCAAAgAgAIiAAAZIgIICKAkZGAIABgkAAIyAcQgAAOAACAQAACAAAAAQCAAAQAAAAAAAAAAA==

> <PUBCHEM_IUPAC_OPENEYE_NAME>
2-methyl-4-(o-tolylazo)aniline

> <PUBCHEM_IUPAC_CAS_NAME>
2-methyl-4-(2-methylphenyl)azoaniline

> <PUBCHEM_IUPAC_NAME>
2-methyl-4-[(2-methylphenyl)diazenyl]aniline

> <PUBCHEM_IUPAC_SYSTEMATIC_NAME>
2-methyl-4-[(2-methylphenyl)diazenyl]aniline

> <PUBCHEM_IUPAC_TRADITIONAL_NAME>
[2-methyl-4-(o-tolylazo)phenyl]amine

> <PUBCHEM_IUPAC_INCHI>
InChI=1S/C14H15N3/c1-10-5-3-4-6-14(10)17-16-12-7-8-13(15)11(2)9-12/h3-9H,15H2,1-2H3

> <PUBCHEM_IUPAC_INCHIKEY>
PFRYFZZSECNQOL-UHFFFAOYSA-N

> <PUBCHEM_XLOGP3_AA>
3.7

> <PUBCHEM_EXACT_MASS>
225.126597

> <PUBCHEM_MOLECULAR_FORMULA>
C14H15N3

> <PUBCHEM_MOLECULAR_WEIGHT>
225.289

> <PUBCHEM_OPENEYE_CAN_SMILES>
CC1=CC=CC=C1N=NC2=CC(=C(C=C2)N)C

> <PUBCHEM_OPENEYE_ISO_SMILES>
CC1=CC=CC=C1N=NC2=CC(=C(C=C2)N)C

> <PUBCHEM_CACTVS_TPSA>
50.7

> <PUBCHEM_MONOISOTOPIC_WEIGHT>
225.126597

> <PUBCHEM_TOTAL_CHARGE>
0

> <PUBCHEM_HEAVY_ATOM_COUNT>
17

> <PUBCHEM_ATOM_DEF_STEREO_COUNT>
0

> <PUBCHEM_ATOM_UDEF_STEREO_COUNT>
0

> <PUBCHEM_BOND_DEF_STEREO_COUNT>
0

> <PUBCHEM_BOND_UDEF_STEREO_COUNT>
0

> <PUBCHEM_ISOTOPIC_ATOM_COUNT>
0

> <PUBCHEM_COMPONENT_COUNT>
1

> <PUBCHEM_CACTVS_TAUTO_COUNT>
2

> <PUBCHEM_COORDINATE_TYPE>
1
5
255

> <PUBCHEM_BONDANNOTATIONS>
10  11  8
13  16  8
14  17  8
16  17  8
4  5  8
4  6  8
5  10  8
6  7  8
7  11  8
8  13  8
8  9  8
9  14  8

$$$$

