443963
  -OEChem-07051213033D

 19 18  0     1  0  0  0  0  0999 V2000
   -1.9915    2.0730    0.5251 Cl  0  0  0  0  0  0  0  0  0  0  0  0
   -0.5364   -0.8892    1.1739 O   0  0  0  0  0  0  0  0  0  0  0  0
    4.3833   -0.7215    0.4545 O   0  0  0  0  0  0  0  0  0  0  0  0
   -2.7722   -1.4371   -1.0562 O   0  0  0  0  0  0  0  0  0  0  0  0
    3.6090    0.8511   -0.9881 O   0  0  0  0  0  0  0  0  0  0  0  0
   -3.9544   -0.0570    0.2963 O   0  0  0  0  0  0  0  0  0  0  0  0
    0.8977    0.3847   -0.2600 C   0  0  0  0  0  0  0  0  0  0  0  0
    2.0334   -0.3923    0.3955 C   0  0  0  0  0  0  0  0  0  0  0  0
   -0.4544   -0.0594    0.2669 C   0  0  0  0  0  0  0  0  0  0  0  0
   -1.6869    0.5594   -0.3610 C   0  0  1  0  0  0  0  0  0  0  0  0
    3.3944   -0.0014   -0.1379 C   0  0  0  0  0  0  0  0  0  0  0  0
   -2.9219   -0.3103   -0.3091 C   0  0  0  0  0  0  0  0  0  0  0  0
    1.0132    1.4570   -0.0698 H   0  0  0  0  0  0  0  0  0  0  0  0
    0.9122    0.2242   -1.3438 H   0  0  0  0  0  0  0  0  0  0  0  0
    1.9002   -1.4663    0.2196 H   0  0  0  0  0  0  0  0  0  0  0  0
    2.0319   -0.2137    1.4771 H   0  0  0  0  0  0  0  0  0  0  0  0
   -1.4937    0.8185   -1.4062 H   0  0  0  0  0  0  0  0  0  0  0  0
    5.2696   -0.4724    0.1157 H   0  0  0  0  0  0  0  0  0  0  0  0
   -3.5760   -1.9989   -1.0345 H   0  0  0  0  0  0  0  0  0  0  0  0
  1 10  1  0  0  0  0
  2  9  2  0  0  0  0
  3 11  1  0  0  0  0
  3 18  1  0  0  0  0
  4 12  1  0  0  0  0
  4 19  1  0  0  0  0
  5 11  2  0  0  0  0
  6 12  2  0  0  0  0
  7  8  1  0  0  0  0
  7  9  1  0  0  0  0
  7 13  1  0  0  0  0
  7 14  1  0  0  0  0
  8 11  1  0  0  0  0
  8 15  1  0  0  0  0
  8 16  1  0  0  0  0
  9 10  1  0  0  0  0
 10 12  1  0  0  0  0
 10 17  1  0  0  0  0
M  END
> <PUBCHEM_COMPOUND_CID>
443963

> <PUBCHEM_CONFORMER_RMSD>
0.6

> <PUBCHEM_CONFORMER_DIVERSEORDER>
1
243
174
124
246
7
153
275
91
321
187
282
166
27
259
39
201
140
300
62
257
108
319
10
267
2
176
227
14
297
200
75
218
302
113
116
205
281
64
215
20
327
87
308
306
231
105
318
311
26
219
4
119
148
312
18
84
309
109
73
310
94
328
296
43
322
154
63
220
50
129
268
8
313
202
141
212
12
323
57
68
209
266
30
264
3
288
185
99
172
217
90
147
60
56
6
326
177
320
180
324
204
66
216
69
29
49
110
65
292
33
213
175
95
314
17
262
123
16
135
54
195
48
78
161
206
210
229
125
46
83
72
169
190
121
100
96
118
193
122
208
241
93
162
19
22
289
103
221
146
15
32
183
47
260
23
272
191
228
269
167
184
168
155
142
303
163
242
164
230
280
11
315
44
41
271
188
283
304
52
255
290
203
101
107
145
53
265
35
245
211
179
298
132
143
197
79
151
136
317
61
299
25
253
81
286
196
67
28
236
170
295
38
45
42
277
225
294
150
115
134
76
13
104
156
71
126
252
249
278
58
21
9
291
189
273
232
214
182
226
40
248
24
59
222
36
316
80
279
250
307
34
178
70
223
51
111
274
139
130
239
173
235
207
127
82
152
293
240
138
144
263
88
128
133
287
276
325
270
285
247
97
254
199
284
159
114
192
237
258
106
194
85
5
55
112
238
256
31
224
77
234
120
89
131
181
233
157
149
137
261
74
37
160
158
171
251
102
305
244
92
98
301
86
198
186
117
165

> <PUBCHEM_MMFF94_PARTIAL_CHARGES>
14
1 -0.29
10 0.41
11 0.66
12 0.66
18 0.5
19 0.5
2 -0.57
3 -0.65
4 -0.65
5 -0.57
6 -0.57
7 0.06
8 0.06
9 0.45

> <PUBCHEM_EFFECTIVE_ROTOR_COUNT>
5

> <PUBCHEM_PHARMACOPHORE_FEATURES>
8
1 10 anion
1 2 acceptor
1 3 acceptor
1 4 acceptor
1 5 acceptor
1 6 acceptor
3 3 5 11 anion
3 4 6 12 anion

> <PUBCHEM_HEAVY_ATOM_COUNT>
12

> <PUBCHEM_ATOM_DEF_STEREO_COUNT>
0

> <PUBCHEM_ATOM_UDEF_STEREO_COUNT>
1

> <PUBCHEM_BOND_DEF_STEREO_COUNT>
0

> <PUBCHEM_BOND_UDEF_STEREO_COUNT>
0

> <PUBCHEM_ISOTOPIC_ATOM_COUNT>
0

> <PUBCHEM_COMPONENT_COUNT>
1

> <PUBCHEM_CACTVS_TAUTO_COUNT>
5

> <PUBCHEM_CONFORMER_ID>
0006C63B00000001

> <PUBCHEM_MMFF94_ENERGY>
12.8883

> <PUBCHEM_FEATURE_SELFOVERLAP>
40.968

> <PUBCHEM_SHAPE_FINGERPRINT>
11062470 55 18409448076770776982
12162725 195 18342735234889411764
12932764 1 17603878822433654906
14144814 61 17775849034093353048
14325111 11 18059857293936367644
18186145 218 17132117948415198134
18342897 69 18333736809894023897
19107657 47 16200157612083229408
20279233 1 15864072074469062870
20281407 28 17530964661577328991
20645477 56 18041558160512371569
20645477 70 16128665188787069754
21061003 4 15864070940566145635
21293036 1 17203611466938685391
22485316 2 14129061421556887172
23380061 127 18334300902435443992
23402539 116 18410865364333341623
23402655 69 18272374195619365524
23557571 272 17603857940635432304
3248919 1 18131063844852884514

> <PUBCHEM_SHAPE_MULTIPOLES>
219.48
7.36
1.35
0.91
4.89
0.53
0
-0.76
-0.59
-1.11
0.01
0.05
-0.09
-0.74

> <PUBCHEM_SHAPE_SELFOVERLAP>
418.044

> <PUBCHEM_SHAPE_VOLUME>
134.1

> <PUBCHEM_COORDINATE_TYPE>
2
5
10

$$$$

