5282155
  -OEChem-07051213032D

 73 77  0     1  0  0  0  0  0999 V2000
    6.0010   -0.5000    0.0000 O   0  0  0  0  0  0  0  0  0  0  0  0
    8.5991   -1.0000    0.0000 O   0  0  0  0  0  0  0  0  0  0  0  0
    5.1350   -2.0000    0.0000 O   0  0  0  0  0  0  0  0  0  0  0  0
    6.0010   -2.5000    0.0000 O   0  0  0  0  0  0  0  0  0  0  0  0
    7.7331    0.5000    0.0000 O   0  0  0  0  0  0  0  0  0  0  0  0
    7.7331   -3.5000    0.0000 O   0  0  0  0  0  0  0  0  0  0  0  0
    4.2690    0.5000    0.0000 O   0  0  0  0  0  0  0  0  0  0  0  0
    2.5369   -0.5000    0.0000 O   0  0  0  0  0  0  0  0  0  0  0  0
    2.5369   -2.5000    0.0000 O   0  0  0  0  0  0  0  0  0  0  0  0
    9.4651   -3.5000    0.0000 O   0  0  0  0  0  0  0  0  0  0  0  0
    3.4030   -4.0000    0.0000 O   0  0  0  0  0  0  0  0  0  0  0  0
    9.4651    2.5000    0.0000 O   0  0  0  0  0  0  0  0  0  0  0  0
    9.4651   -0.5000    0.0000 O   0  0  0  0  0  0  0  0  0  0  0  0
   11.2135   -0.5346    0.0000 O   0  0  0  0  0  0  0  0  0  0  0  0
   12.9953    2.5242    0.0000 O   0  0  0  0  0  0  0  0  0  0  0  0
    5.1350    4.0000    0.0000 O   0  0  0  0  0  0  0  0  0  0  0  0
    6.8671   -1.0000    0.0000 C   0  0  2  0  0  0  0  0  0  0  0  0
    6.8671   -2.0000    0.0000 C   0  0  2  0  0  0  0  0  0  0  0  0
    7.7331   -2.5000    0.0000 C   0  0  1  0  0  0  0  0  0  0  0  0
    5.1350   -1.0000    0.0000 C   0  0  2  0  0  0  0  0  0  0  0  0
    4.2690   -0.5000    0.0000 C   0  0  1  0  0  0  0  0  0  0  0  0
    7.7331   -0.5000    0.0000 C   0  0  1  0  0  0  0  0  0  0  0  0
    8.5991   -2.0000    0.0000 C   0  0  1  0  0  0  0  0  0  0  0  0
    3.4030   -1.0000    0.0000 C   0  0  2  0  0  0  0  0  0  0  0  0
    3.4030   -2.0000    0.0000 C   0  0  1  0  0  0  0  0  0  0  0  0
    4.2690   -2.5000    0.0000 C   0  0  1  0  0  0  0  0  0  0  0  0
    9.4651   -2.5000    0.0000 C   0  0  0  0  0  0  0  0  0  0  0  0
    4.2690   -3.5000    0.0000 C   0  0  0  0  0  0  0  0  0  0  0  0
    8.5991    1.0000    0.0000 C   0  0  0  0  0  0  0  0  0  0  0  0
    8.5991    2.0000    0.0000 C   0  0  0  0  0  0  0  0  0  0  0  0
    9.4651    0.5000    0.0000 C   0  0  0  0  0  0  0  0  0  0  0  0
   10.3312    1.0000    0.0000 C   0  0  0  0  0  0  0  0  0  0  0  0
    7.7331    2.5000    0.0000 C   0  0  0  0  0  0  0  0  0  0  0  0
   10.3312    2.0000    0.0000 C   0  0  0  0  0  0  0  0  0  0  0  0
   11.2251    0.4653    0.0000 C   0  0  0  0  0  0  0  0  0  0  0  0
   11.2251    2.5347    0.0000 C   0  0  0  0  0  0  0  0  0  0  0  0
    7.7331    3.5000    0.0000 C   0  0  0  0  0  0  0  0  0  0  0  0
    6.8671    2.0000    0.0000 C   0  0  0  0  0  0  0  0  0  0  0  0
   12.1312    0.9792    0.0000 C   0  0  0  0  0  0  0  0  0  0  0  0
   12.1312    2.0208    0.0000 C   0  0  0  0  0  0  0  0  0  0  0  0
    6.8671    4.0000    0.0000 C   0  0  0  0  0  0  0  0  0  0  0  0
    6.0010    2.5000    0.0000 C   0  0  0  0  0  0  0  0  0  0  0  0
    6.0010    3.5000    0.0000 C   0  0  0  0  0  0  0  0  0  0  0  0
    6.3301   -1.3100    0.0000 H   0  0  0  0  0  0  0  0  0  0  0  0
    6.3301   -1.6900    0.0000 H   0  0  0  0  0  0  0  0  0  0  0  0
    8.2700   -2.8100    0.0000 H   0  0  0  0  0  0  0  0  0  0  0  0
    5.1350   -0.3800    0.0000 H   0  0  0  0  0  0  0  0  0  0  0  0
    4.8059   -0.1900    0.0000 H   0  0  0  0  0  0  0  0  0  0  0  0
    7.1962   -0.1900    0.0000 H   0  0  0  0  0  0  0  0  0  0  0  0
    9.1360   -1.6900    0.0000 H   0  0  0  0  0  0  0  0  0  0  0  0
    3.4030   -0.3800    0.0000 H   0  0  0  0  0  0  0  0  0  0  0  0
    3.4030   -2.6200    0.0000 H   0  0  0  0  0  0  0  0  0  0  0  0
    4.8059   -2.8100    0.0000 H   0  0  0  0  0  0  0  0  0  0  0  0
   10.0757   -2.6077    0.0000 H   0  0  0  0  0  0  0  0  0  0  0  0
    9.6772   -1.9174    0.0000 H   0  0  0  0  0  0  0  0  0  0  0  0
    4.4810   -4.0826    0.0000 H   0  0  0  0  0  0  0  0  0  0  0  0
    4.8796   -3.3923    0.0000 H   0  0  0  0  0  0  0  0  0  0  0  0
    6.0010   -3.1200    0.0000 H   0  0  0  0  0  0  0  0  0  0  0  0
    7.1962   -3.8100    0.0000 H   0  0  0  0  0  0  0  0  0  0  0  0
    3.7320    0.8100    0.0000 H   0  0  0  0  0  0  0  0  0  0  0  0
    2.0000   -0.8100    0.0000 H   0  0  0  0  0  0  0  0  0  0  0  0
    2.0000   -2.1900    0.0000 H   0  0  0  0  0  0  0  0  0  0  0  0
   10.0021   -3.8100    0.0000 H   0  0  0  0  0  0  0  0  0  0  0  0
    3.4030   -4.6200    0.0000 H   0  0  0  0  0  0  0  0  0  0  0  0
   11.2179    3.1546    0.0000 H   0  0  0  0  0  0  0  0  0  0  0  0
    8.2700    3.8100    0.0000 H   0  0  0  0  0  0  0  0  0  0  0  0
    6.8671    1.3800    0.0000 H   0  0  0  0  0  0  0  0  0  0  0  0
   12.6669    0.6671    0.0000 H   0  0  0  0  0  0  0  0  0  0  0  0
    6.8671    4.6200    0.0000 H   0  0  0  0  0  0  0  0  0  0  0  0
    5.4641    2.1900    0.0000 H   0  0  0  0  0  0  0  0  0  0  0  0
   11.7469   -0.8508    0.0000 H   0  0  0  0  0  0  0  0  0  0  0  0
   13.5334    2.2162    0.0000 H   0  0  0  0  0  0  0  0  0  0  0  0
    5.1350    4.6200    0.0000 H   0  0  0  0  0  0  0  0  0  0  0  0
 17  1  1  1  0  0  0
 20  1  1  6  0  0  0
  2 22  1  0  0  0  0
  2 23  1  0  0  0  0
  3 20  1  0  0  0  0
  3 26  1  0  0  0  0
 18  4  1  6  0  0  0
  4 58  1  0  0  0  0
 22  5  1  6  0  0  0
  5 29  1  0  0  0  0
 19  6  1  1  0  0  0
  6 59  1  0  0  0  0
 21  7  1  1  0  0  0
  7 60  1  0  0  0  0
 24  8  1  6  0  0  0
  8 61  1  0  0  0  0
 25  9  1  1  0  0  0
  9 62  1  0  0  0  0
 10 27  1  0  0  0  0
 10 63  1  0  0  0  0
 11 28  1  0  0  0  0
 11 64  1  0  0  0  0
 12 30  1  0  0  0  0
 12 34  1  0  0  0  0
 13 31  2  0  0  0  0
 14 35  1  0  0  0  0
 14 71  1  0  0  0  0
 15 40  1  0  0  0  0
 15 72  1  0  0  0  0
 16 43  1  0  0  0  0
 16 73  1  0  0  0  0
 17 18  1  0  0  0  0
 17 22  1  0  0  0  0
 17 44  1  0  0  0  0
 18 19  1  0  0  0  0
 18 45  1  0  0  0  0
 19 23  1  0  0  0  0
 19 46  1  0  0  0  0
 20 21  1  0  0  0  0
 20 47  1  0  0  0  0
 21 24  1  0  0  0  0
 21 48  1  0  0  0  0
 22 49  1  0  0  0  0
 23 27  1  6  0  0  0
 23 50  1  0  0  0  0
 24 25  1  0  0  0  0
 24 51  1  0  0  0  0
 25 26  1  0  0  0  0
 25 52  1  0  0  0  0
 26 28  1  6  0  0  0
 26 53  1  0  0  0  0
 27 54  1  0  0  0  0
 27 55  1  0  0  0  0
 28 56  1  0  0  0  0
 28 57  1  0  0  0  0
 29 30  2  0  0  0  0
 29 31  1  0  0  0  0
 30 33  1  0  0  0  0
 31 32  1  0  0  0  0
 32 34  1  0  0  0  0
 32 35  2  0  0  0  0
 33 37  2  0  0  0  0
 33 38  1  0  0  0  0
 34 36  2  0  0  0  0
 35 39  1  0  0  0  0
 36 40  1  0  0  0  0
 36 65  1  0  0  0  0
 37 41  1  0  0  0  0
 37 66  1  0  0  0  0
 38 42  2  0  0  0  0
 38 67  1  0  0  0  0
 39 40  2  0  0  0  0
 39 68  1  0  0  0  0
 41 43  2  0  0  0  0
 41 69  1  0  0  0  0
 42 43  1  0  0  0  0
 42 70  1  0  0  0  0
M  END
> <PUBCHEM_COMPOUND_CID>
5282155

> <PUBCHEM_COMPOUND_CANONICALIZED>
1

> <PUBCHEM_CACTVS_COMPLEXITY>
1000

> <PUBCHEM_CACTVS_HBOND_ACCEPTOR>
16

> <PUBCHEM_CACTVS_HBOND_DONOR>
10

> <PUBCHEM_CACTVS_ROTATABLE_BOND>
7

> <PUBCHEM_CACTVS_SUBSKEYS>
AAADceB4PgAAAAAAAAAAAAAAAAAAAAAAAAA0aIECAAAAAACBQAAAGgAACAAADBSwmAMwDoAABgCIAqBSAAICCAAkIAAIiAFGCMgdNzaGNR6ieWCl4BUPuQfI7KzOIAAACAAIAABAAAAQABAAAAAAAAAAAA==

> <PUBCHEM_IUPAC_OPENEYE_NAME>
3-[(2S,3R,4S,5S,6R)-4,5-dihydroxy-6-(hydroxymethyl)-3-[(2S,3R,4S,5S,6R)-3,4,5-trihydroxy-6-(hydroxymethyl)tetrahydropyran-2-yl]oxy-tetrahydropyran-2-yl]oxy-5,7-dihydroxy-2-(4-hydroxyphenyl)chromen-4-one

> <PUBCHEM_IUPAC_CAS_NAME>
3-[[(2S,3R,4S,5S,6R)-4,5-dihydroxy-6-(hydroxymethyl)-3-[[(2S,3R,4S,5S,6R)-3,4,5-trihydroxy-6-(hydroxymethyl)-2-oxanyl]oxy]-2-oxanyl]oxy]-5,7-dihydroxy-2-(4-hydroxyphenyl)-1-benzopyran-4-one

> <PUBCHEM_IUPAC_NAME>
3-[(2S,3R,4S,5S,6R)-4,5-dihydroxy-6-(hydroxymethyl)-3-[(2S,3R,4S,5S,6R)-3,4,5-trihydroxy-6-(hydroxymethyl)oxan-2-yl]oxyoxan-2-yl]oxy-5,7-dihydroxy-2-(4-hydroxyphenyl)chromen-4-one

> <PUBCHEM_IUPAC_SYSTEMATIC_NAME>
3-[(2S,3R,4S,5S,6R)-6-(hydroxymethyl)-3-[(2S,3R,4S,5S,6R)-6-(hydroxymethyl)-3,4,5-tris(oxidanyl)oxan-2-yl]oxy-4,5-bis(oxidanyl)oxan-2-yl]oxy-2-(4-hydroxyphenyl)-5,7-bis(oxidanyl)chromen-4-one

> <PUBCHEM_IUPAC_TRADITIONAL_NAME>
3-[(2S,3R,4S,5S,6R)-4,5-dihydroxy-6-methylol-3-[(2S,3R,4S,5S,6R)-3,4,5-trihydroxy-6-methylol-tetrahydropyran-2-yl]oxy-tetrahydropyran-2-yl]oxy-5,7-dihydroxy-2-(4-hydroxyphenyl)chromone

> <PUBCHEM_IUPAC_INCHI>
InChI=1S/C27H30O16/c28-7-14-17(33)20(36)22(38)26(40-14)43-25-21(37)18(34)15(8-29)41-27(25)42-24-19(35)16-12(32)5-11(31)6-13(16)39-23(24)9-1-3-10(30)4-2-9/h1-6,14-15,17-18,20-22,25-34,36-38H,7-8H2/t14-,15-,17-,18-,20+,21+,22-,25-,26+,27+/m1/s1

> <PUBCHEM_IUPAC_INCHIKEY>
LKZDFKLGDGSGEO-UJECXLDQSA-N

> <PUBCHEM_XLOGP3_AA>
-0.9

> <PUBCHEM_EXACT_MASS>
610.153385

> <PUBCHEM_MOLECULAR_FORMULA>
C27H30O16

> <PUBCHEM_MOLECULAR_WEIGHT>
610.5175

> <PUBCHEM_OPENEYE_CAN_SMILES>
C1=CC(=CC=C1C2=C(C(=O)C3=C(C=C(C=C3O2)O)O)OC4C(C(C(C(O4)CO)O)O)OC5C(C(C(C(O5)CO)O)O)O)O

> <PUBCHEM_OPENEYE_ISO_SMILES>
C1=CC(=CC=C1C2=C(C(=O)C3=C(C=C(C=C3O2)O)O)O[C@H]4[C@@H]([C@H]([C@@H]([C@H](O4)CO)O)O)O[C@H]5[C@@H]([C@H]([C@@H]([C@H](O5)CO)O)O)O)O

> <PUBCHEM_CACTVS_TPSA>
266

> <PUBCHEM_MONOISOTOPIC_WEIGHT>
610.153385

> <PUBCHEM_TOTAL_CHARGE>
0

> <PUBCHEM_HEAVY_ATOM_COUNT>
43

> <PUBCHEM_ATOM_DEF_STEREO_COUNT>
10

> <PUBCHEM_ATOM_UDEF_STEREO_COUNT>
0

> <PUBCHEM_BOND_DEF_STEREO_COUNT>
0

> <PUBCHEM_BOND_UDEF_STEREO_COUNT>
0

> <PUBCHEM_ISOTOPIC_ATOM_COUNT>
0

> <PUBCHEM_COMPONENT_COUNT>
1

> <PUBCHEM_CACTVS_TAUTO_COUNT>
57

> <PUBCHEM_COORDINATE_TYPE>
1
5
255

> <PUBCHEM_BONDANNOTATIONS>
17  1  5
20  1  6
12  30  8
12  34  8
23  27  6
26  28  6
29  30  8
29  31  8
31  32  8
32  34  8
32  35  8
33  37  8
33  38  8
34  36  8
35  39  8
36  40  8
37  41  8
38  42  8
39  40  8
18  4  6
41  43  8
42  43  8
22  5  6
19  6  5
21  7  5
24  8  6
25  9  5

$$$$

