5747
  -OEChem-06261200512D

 33 33  0     1  0  0  0  0  0999 V2000
    3.1350    0.0000    0.0000 Na  0  3  0  0  0  0  0  0  0  0  0  0
    0.5369    3.5000    0.0000 O   0  0  0  0  0  0  0  0  0  0  0  0
    4.0010    3.5000    0.0000 O   0  0  0  0  0  0  0  0  0  0  0  0
    2.2690    0.5000    0.0000 O   0  5  0  0  0  0  0  0  0  0  0  0
    1.4030    2.0000    0.0000 N   0  0  0  0  0  0  0  0  0  0  0  0
    3.1350    2.0000    0.0000 N   0  0  0  0  0  0  0  0  0  0  0  0
    2.2690    3.5000    0.0000 C   0  0  3  0  0  0  0  0  0  0  0  0
    2.7690    4.3660    0.0000 C   0  0  0  0  0  0  0  0  0  0  0  0
    3.7690    4.3660    0.0000 C   0  0  0  0  0  0  0  0  0  0  0  0
    4.2690    5.2321    0.0000 C   0  0  0  0  0  0  0  0  0  0  0  0
    3.7690    6.0981    0.0000 C   0  0  0  0  0  0  0  0  0  0  0  0
    2.7690    6.0981    0.0000 C   0  0  0  0  0  0  0  0  0  0  0  0
    2.2690    5.2321    0.0000 C   0  0  0  0  0  0  0  0  0  0  0  0
    1.4030    3.0000    0.0000 C   0  0  0  0  0  0  0  0  0  0  0  0
    1.7690    4.3660    0.0000 C   0  0  0  0  0  0  0  0  0  0  0  0
    3.1350    3.0000    0.0000 C   0  0  0  0  0  0  0  0  0  0  0  0
    2.2690    1.5000    0.0000 C   0  0  0  0  0  0  0  0  0  0  0  0
    0.5369    1.5000    0.0000 C   0  0  0  0  0  0  0  0  0  0  0  0
    3.6613    3.7554    0.0000 H   0  0  0  0  0  0  0  0  0  0  0  0
    4.3516    4.1540    0.0000 H   0  0  0  0  0  0  0  0  0  0  0  0
    4.7439    4.8335    0.0000 H   0  0  0  0  0  0  0  0  0  0  0  0
    4.7439    5.6306    0.0000 H   0  0  0  0  0  0  0  0  0  0  0  0
    4.3516    6.3101    0.0000 H   0  0  0  0  0  0  0  0  0  0  0  0
    3.6613    6.7087    0.0000 H   0  0  0  0  0  0  0  0  0  0  0  0
    2.8767    6.7087    0.0000 H   0  0  0  0  0  0  0  0  0  0  0  0
    2.1864    6.3101    0.0000 H   0  0  0  0  0  0  0  0  0  0  0  0
    1.6490    5.2321    0.0000 H   0  0  0  0  0  0  0  0  0  0  0  0
    2.3059    4.6760    0.0000 H   0  0  0  0  0  0  0  0  0  0  0  0
    1.4590    4.9030    0.0000 H   0  0  0  0  0  0  0  0  0  0  0  0
    1.2321    4.0560    0.0000 H   0  0  0  0  0  0  0  0  0  0  0  0
    0.2269    2.0369    0.0000 H   0  0  0  0  0  0  0  0  0  0  0  0
    0.0000    1.1900    0.0000 H   0  0  0  0  0  0  0  0  0  0  0  0
    0.8469    0.9631    0.0000 H   0  0  0  0  0  0  0  0  0  0  0  0
  2 14  2  0  0  0  0
  3 16  2  0  0  0  0
  4 17  1  0  0  0  0
  5 14  1  0  0  0  0
  5 17  1  0  0  0  0
  5 18  1  0  0  0  0
  6 16  1  0  0  0  0
  6 17  2  0  0  0  0
  7  8  1  0  0  0  0
  7 14  1  0  0  0  0
  7 15  1  0  0  0  0
  7 16  1  0  0  0  0
  8  9  1  0  0  0  0
  8 13  2  0  0  0  0
  9 10  1  0  0  0  0
  9 19  1  0  0  0  0
  9 20  1  0  0  0  0
 10 11  1  0  0  0  0
 10 21  1  0  0  0  0
 10 22  1  0  0  0  0
 11 12  1  0  0  0  0
 11 23  1  0  0  0  0
 11 24  1  0  0  0  0
 12 13  1  0  0  0  0
 12 25  1  0  0  0  0
 12 26  1  0  0  0  0
 13 27  1  0  0  0  0
 15 28  1  0  0  0  0
 15 29  1  0  0  0  0
 15 30  1  0  0  0  0
 18 31  1  0  0  0  0
 18 32  1  0  0  0  0
 18 33  1  0  0  0  0
M  CHG  2   1   1   4  -1
M  END
> <PUBCHEM_COMPOUND_CID>
5747

> <PUBCHEM_COMPOUND_CANONICALIZED>
1

> <PUBCHEM_CACTVS_COMPLEXITY>
439

> <PUBCHEM_CACTVS_HBOND_ACCEPTOR>
3

> <PUBCHEM_CACTVS_HBOND_DONOR>
0

> <PUBCHEM_CACTVS_ROTATABLE_BOND>
1

> <PUBCHEM_CACTVS_SUBSKEYS>
AAADccBzMCAAAAAAAAAAAAAAAAAAAAAAAAAgQAAAAAAAAAAAAAAAHgAAAAAADgCBgAQDAAMAAACoAiFSNAAAAAEgAAABCAEIAAgAABoIyQAEAAAAggAIAAMYiMCNAAAAAAAAAAAAAAAAAAAAAAAAAAAAAA==

> <PUBCHEM_IUPAC_OPENEYE_NAME>
sodium 5-(cyclohexen-1-yl)-1,5-dimethyl-4,6-dioxo-pyrimidin-2-olate

> <PUBCHEM_IUPAC_CAS_NAME>
sodium 5-(1-cyclohexenyl)-1,5-dimethyl-4,6-dioxo-2-pyrimidinolate

> <PUBCHEM_IUPAC_NAME>
sodium 5-(cyclohexen-1-yl)-1,5-dimethyl-4,6-dioxopyrimidin-2-olate

> <PUBCHEM_IUPAC_SYSTEMATIC_NAME>
sodium 5-(cyclohexen-1-yl)-1,5-dimethyl-4,6-bis(oxidanylidene)pyrimidin-2-olate

> <PUBCHEM_IUPAC_TRADITIONAL_NAME>
sodium 5-(cyclohexen-1-yl)-4,6-diketo-1,5-dimethyl-pyrimidin-2-olate

> <PUBCHEM_IUPAC_INCHI>
InChI=1S/C12H16N2O3.Na/c1-12(8-6-4-3-5-7-8)9(15)13-11(17)14(2)10(12)16;/h6H,3-5,7H2,1-2H3,(H,13,15,17);/q;+1/p-1

> <PUBCHEM_IUPAC_INCHIKEY>
SQMCFUSVGSBKFK-UHFFFAOYSA-M

> <PUBCHEM_EXACT_MASS>
258.098037

> <PUBCHEM_MOLECULAR_FORMULA>
C12H15N2NaO3

> <PUBCHEM_MOLECULAR_WEIGHT>
258.248869

> <PUBCHEM_OPENEYE_CAN_SMILES>
CC1(C(=O)N=C(N(C1=O)C)[O-])C2=CCCCC2.[Na+]

> <PUBCHEM_OPENEYE_ISO_SMILES>
CC1(C(=O)N=C(N(C1=O)C)[O-])C2=CCCCC2.[Na+]

> <PUBCHEM_CACTVS_TPSA>
72.8

> <PUBCHEM_MONOISOTOPIC_WEIGHT>
258.098037

> <PUBCHEM_TOTAL_CHARGE>
0

> <PUBCHEM_HEAVY_ATOM_COUNT>
18

> <PUBCHEM_ATOM_DEF_STEREO_COUNT>
0

> <PUBCHEM_ATOM_UDEF_STEREO_COUNT>
1

> <PUBCHEM_BOND_DEF_STEREO_COUNT>
0

> <PUBCHEM_BOND_UDEF_STEREO_COUNT>
0

> <PUBCHEM_ISOTOPIC_ATOM_COUNT>
0

> <PUBCHEM_COMPONENT_COUNT>
2

> <PUBCHEM_CACTVS_TAUTO_COUNT>
1

> <PUBCHEM_COORDINATE_TYPE>
1
5
255

> <PUBCHEM_BONDANNOTATIONS>
7  8  3

$$$$

