441558
  -OEChem-07051212553D

 27 28  0     1  0  0  0  0  0999 V2000
    0.4081   -0.5127    0.3736 O   0  0  0  0  0  0  0  0  0  0  0  0
   -1.5849    0.6838    0.7904 O   0  0  0  0  0  0  0  0  0  0  0  0
   -0.6587    0.2477   -0.2213 C   0  0  1  0  0  0  0  0  0  0  0  0
    0.0030    1.4453   -0.8766 C   0  0  0  0  0  0  0  0  0  0  0  0
    1.5491    0.3465    0.5471 C   0  0  2  0  0  0  0  0  0  0  0  0
   -1.4589   -0.6305   -1.1662 C   0  0  0  0  0  0  0  0  0  0  0  0
    1.1301    1.7358    0.0882 C   0  0  0  0  0  0  0  0  0  0  0  0
   -2.4258   -1.2946   -0.2144 C   0  0  0  0  0  0  0  0  0  0  0  0
   -2.7338   -0.1756    0.7575 C   0  0  0  0  0  0  0  0  0  0  0  0
    2.6998   -0.2239   -0.2694 C   0  0  0  0  0  0  0  0  0  0  0  0
    3.0720   -1.6219    0.1911 C   0  0  0  0  0  0  0  0  0  0  0  0
   -0.6667    2.3015   -0.9983 H   0  0  0  0  0  0  0  0  0  0  0  0
    0.4204    1.1775   -1.8543 H   0  0  0  0  0  0  0  0  0  0  0  0
    1.8163    0.3586    1.6098 H   0  0  0  0  0  0  0  0  0  0  0  0
   -0.8487   -1.3568   -1.7107 H   0  0  0  0  0  0  0  0  0  0  0  0
   -2.0200   -0.0223   -1.8857 H   0  0  0  0  0  0  0  0  0  0  0  0
    1.9413    2.3213   -0.3541 H   0  0  0  0  0  0  0  0  0  0  0  0
    0.7406    2.3023    0.9431 H   0  0  0  0  0  0  0  0  0  0  0  0
   -3.3192   -1.6926   -0.7026 H   0  0  0  0  0  0  0  0  0  0  0  0
   -1.9286   -2.1197    0.3095 H   0  0  0  0  0  0  0  0  0  0  0  0
   -3.5853    0.4222    0.4159 H   0  0  0  0  0  0  0  0  0  0  0  0
   -2.9481   -0.5429    1.7651 H   0  0  0  0  0  0  0  0  0  0  0  0
    3.5761    0.4292   -0.1863 H   0  0  0  0  0  0  0  0  0  0  0  0
    2.4274   -0.2767   -1.3303 H   0  0  0  0  0  0  0  0  0  0  0  0
    3.3481   -1.6272    1.2505 H   0  0  0  0  0  0  0  0  0  0  0  0
    2.2474   -2.3270    0.0465 H   0  0  0  0  0  0  0  0  0  0  0  0
    3.9288   -1.9909   -0.3820 H   0  0  0  0  0  0  0  0  0  0  0  0
  1  3  1  0  0  0  0
  1  5  1  0  0  0  0
  2  3  1  0  0  0  0
  2  9  1  0  0  0  0
  3  4  1  0  0  0  0
  3  6  1  0  0  0  0
  4  7  1  0  0  0  0
  4 12  1  0  0  0  0
  4 13  1  0  0  0  0
  5  7  1  0  0  0  0
  5 10  1  0  0  0  0
  5 14  1  0  0  0  0
  6  8  1  0  0  0  0
  6 15  1  0  0  0  0
  6 16  1  0  0  0  0
  7 17  1  0  0  0  0
  7 18  1  0  0  0  0
  8  9  1  0  0  0  0
  8 19  1  0  0  0  0
  8 20  1  0  0  0  0
  9 21  1  0  0  0  0
  9 22  1  0  0  0  0
 10 11  1  0  0  0  0
 10 23  1  0  0  0  0
 10 24  1  0  0  0  0
 11 25  1  0  0  0  0
 11 26  1  0  0  0  0
 11 27  1  0  0  0  0
M  END
> <PUBCHEM_COMPOUND_CID>
441558

> <PUBCHEM_CONFORMER_RMSD>
0.6

> <PUBCHEM_CONFORMER_DIVERSEORDER>
1
2
3

> <PUBCHEM_MMFF94_PARTIAL_CHARGES>
5
1 -0.56
2 -0.56
3 0.56
5 0.28
9 0.28

> <PUBCHEM_EFFECTIVE_ROTOR_COUNT>
2.6

> <PUBCHEM_PHARMACOPHORE_FEATURES>
5
1 1 acceptor
1 11 hydrophobe
1 2 acceptor
5 1 3 4 5 7 rings
5 2 3 6 8 9 rings

> <PUBCHEM_HEAVY_ATOM_COUNT>
11

> <PUBCHEM_ATOM_DEF_STEREO_COUNT>
2

> <PUBCHEM_ATOM_UDEF_STEREO_COUNT>
0

> <PUBCHEM_BOND_DEF_STEREO_COUNT>
0

> <PUBCHEM_BOND_UDEF_STEREO_COUNT>
0

> <PUBCHEM_ISOTOPIC_ATOM_COUNT>
0

> <PUBCHEM_COMPONENT_COUNT>
1

> <PUBCHEM_CACTVS_TAUTO_COUNT>
1

> <PUBCHEM_CONFORMER_ID>
0006BCD600000001

> <PUBCHEM_MMFF94_ENERGY>
19.7546

> <PUBCHEM_FEATURE_SELFOVERLAP>
25.438

> <PUBCHEM_SHAPE_FINGERPRINT>
11769659 78 18261680285334887095
12423570 1 13922172567804569901
12897270 3 14117514337662680458
12932764 1 17822571599177779040
13024252 1 16486117564968287205
14128692 85 18409726227558812636
15076042 46 17822282496502492705
16945 1 18266182720904677588
18511873 20 18334288812223734369
20281407 28 18412265073090752386
20361792 2 18343309171110616086
20711985 344 17558850595766643500
207724 885 18410568504931482579
20871998 22 18337105765383085406
21028194 46 8430309156306182434
21061003 4 17677066757939157706
22445834 79 18261390001316818859
23402539 116 16226335914810451377
23552423 10 18265333897948880303
2748010 2 18200049403018119868
29004967 10 17845663533984326009
369184 2 5112001725042103350
5084963 1 18335986372119392793

> <PUBCHEM_SHAPE_MULTIPOLES>
214.64
4.27
1.61
0.96
0.85
0.16
-0.11
-2.19
0.49
0.68
-0.12
-0.36
0.04
-0.19

> <PUBCHEM_SHAPE_SELFOVERLAP>
438.014

> <PUBCHEM_SHAPE_VOLUME>
127.6

> <PUBCHEM_COORDINATE_TYPE>
2
5
10

$$$$

