657298
  -OEChem-07051212533D

 21 21  0     0  0  0  0  0  0999 V2000
    2.2642   -2.6325    0.1699 S   0  0  0  0  0  0  0  0  0  0  0  0
    2.1387    2.3532    0.2103 O   0  0  0  0  0  0  0  0  0  0  0  0
    0.1238   -1.0910   -0.2512 N   0  0  0  0  0  0  0  0  0  0  0  0
    2.1293    0.0398    0.1792 N   0  0  0  0  0  0  0  0  0  0  0  0
   -2.0130    0.0059   -0.6781 C   0  0  0  0  0  0  0  0  0  0  0  0
   -0.5508    0.1021   -0.3741 C   0  0  0  0  0  0  0  0  0  0  0  0
   -2.8517   -0.0498    0.5953 C   0  0  0  0  0  0  0  0  0  0  0  0
    0.0860    1.2725   -0.2263 C   0  0  0  0  0  0  0  0  0  0  0  0
   -4.3366   -0.1216    0.2748 C   0  0  0  0  0  0  0  0  0  0  0  0
    1.4707   -1.1692    0.0264 C   0  0  0  0  0  0  0  0  0  0  0  0
    1.5394    1.2907    0.0738 C   0  0  0  0  0  0  0  0  0  0  0  0
   -2.3214    0.8736   -1.2765 H   0  0  0  0  0  0  0  0  0  0  0  0
   -2.2143   -0.8720   -1.3054 H   0  0  0  0  0  0  0  0  0  0  0  0
   -2.5725   -0.9254    1.1939 H   0  0  0  0  0  0  0  0  0  0  0  0
   -2.6636    0.8360    1.2141 H   0  0  0  0  0  0  0  0  0  0  0  0
   -0.4003   -1.9532   -0.3691 H   0  0  0  0  0  0  0  0  0  0  0  0
   -0.4237    2.2249   -0.3174 H   0  0  0  0  0  0  0  0  0  0  0  0
   -4.5683   -1.0150   -0.3140 H   0  0  0  0  0  0  0  0  0  0  0  0
   -4.6591    0.7576   -0.2922 H   0  0  0  0  0  0  0  0  0  0  0  0
   -4.9219   -0.1629    1.1987 H   0  0  0  0  0  0  0  0  0  0  0  0
    3.1238    0.0082    0.3841 H   0  0  0  0  0  0  0  0  0  0  0  0
  1 10  2  0  0  0  0
  2 11  2  0  0  0  0
  3  6  1  0  0  0  0
  3 10  1  0  0  0  0
  3 16  1  0  0  0  0
  4 10  1  0  0  0  0
  4 11  1  0  0  0  0
  4 21  1  0  0  0  0
  5  6  1  0  0  0  0
  5  7  1  0  0  0  0
  5 12  1  0  0  0  0
  5 13  1  0  0  0  0
  6  8  2  0  0  0  0
  7  9  1  0  0  0  0
  7 14  1  0  0  0  0
  7 15  1  0  0  0  0
  8 11  1  0  0  0  0
  8 17  1  0  0  0  0
  9 18  1  0  0  0  0
  9 19  1  0  0  0  0
  9 20  1  0  0  0  0
M  END
> <PUBCHEM_COMPOUND_CID>
657298

> <PUBCHEM_CONFORMER_RMSD>
0.4

> <PUBCHEM_CONFORMER_DIVERSEORDER>
1
9
5
8
4
3
7
6
2

> <PUBCHEM_MMFF94_PARTIAL_CHARGES>
12
1 -0.38
10 0.5
11 0.62
16 0.37
17 0.15
2 -0.57
21 0.37
3 -0.54
4 -0.49
5 0.14
6 -0.03
8 -0.14

> <PUBCHEM_EFFECTIVE_ROTOR_COUNT>
2

> <PUBCHEM_PHARMACOPHORE_FEATURES>
6
1 1 acceptor
1 2 acceptor
1 3 donor
1 4 donor
1 9 hydrophobe
6 3 4 6 8 10 11 rings

> <PUBCHEM_HEAVY_ATOM_COUNT>
11

> <PUBCHEM_ATOM_DEF_STEREO_COUNT>
0

> <PUBCHEM_ATOM_UDEF_STEREO_COUNT>
0

> <PUBCHEM_BOND_DEF_STEREO_COUNT>
0

> <PUBCHEM_BOND_UDEF_STEREO_COUNT>
0

> <PUBCHEM_ISOTOPIC_ATOM_COUNT>
0

> <PUBCHEM_COMPONENT_COUNT>
1

> <PUBCHEM_CACTVS_TAUTO_COUNT>
6

> <PUBCHEM_CONFORMER_ID>
000A079200000001

> <PUBCHEM_MMFF94_ENERGY>
11.312

> <PUBCHEM_FEATURE_SELFOVERLAP>
30.488

> <PUBCHEM_SHAPE_FINGERPRINT>
1 1 18339082575483345220
10980938 120 18409167680010303105
12346645 6 18408323267796164157
12932764 1 18410007737217021845
15501101 241 18272085015518597093
15775835 57 18042119865209996529
161256 15 18342176699729815292
16945 1 18410304605003112764
170605 34 18041552521367796973
17841504 4 18339922735437118651
20339313 130 18189048862180834078
20645477 70 18412553128321604471
20708731 107 18272078409774538822
20871998 184 17539141953165991150
20871998 22 18046343299651816350
21040471 1 17978797800886764020
2748010 2 17976840979447748886
3071541 250 18265324191808374022
528862 383 18410860944827863547
54173680 148 17546165663297673554
581208 293 18339929216711475791
7364860 26 18407759239953735446
81228 2 17328312853397312008

> <PUBCHEM_SHAPE_MULTIPOLES>
214.39
5.29
2.28
0.72
6.28
0.06
0.02
-1.72
-0.89
-2.94
-0.18
0.2
-0.04
0.11

> <PUBCHEM_SHAPE_SELFOVERLAP>
419.47

> <PUBCHEM_SHAPE_VOLUME>
130.4

> <PUBCHEM_COORDINATE_TYPE>
2
5
10

$$$$

