194140
  -OEChem-07051212463D

 39 41  0     1  0  0  0  0  0999 V2000
   -0.0620   -0.3434   -0.0928 C   0  0  1  0  0  0  0  0  0  0  0  0
    0.1744    0.6986    1.0460 C   0  0  1  0  0  0  0  0  0  0  0  0
   -1.4260    0.0486   -0.7455 C   0  0  1  0  0  0  0  0  0  0  0  0
    1.1412   -0.1349   -1.0336 C   0  0  0  0  0  0  0  0  0  0  0  0
   -0.2867   -1.7767    0.4675 C   0  0  1  0  0  0  0  0  0  0  0  0
    2.2933    0.3690   -0.1495 C   0  0  0  0  0  0  0  0  0  0  0  0
    1.5694    1.3058    0.8269 C   0  0  0  0  0  0  0  0  0  0  0  0
   -2.4184   -1.0643   -0.3892 C   0  0  0  0  0  0  0  0  0  0  0  0
   -1.7873   -1.8000    0.7821 C   0  0  0  0  0  0  0  0  0  0  0  0
   -1.7671    1.3686   -0.1127 C   0  0  0  0  0  0  0  0  0  0  0  0
   -0.9111    1.7081    0.8561 C   0  0  0  0  0  0  0  0  0  0  0  0
    0.0755   -2.9122   -0.4933 C   0  0  0  0  0  0  0  0  0  0  0  0
    3.3305    1.1291   -0.9852 C   0  0  0  0  0  0  0  0  0  0  0  0
    3.0069   -0.7687    0.5944 C   0  0  0  0  0  0  0  0  0  0  0  0
   -2.9325    2.1723   -0.5715 C   0  0  0  0  0  0  0  0  0  0  0  0
    0.1025    0.2552    2.0453 H   0  0  0  0  0  0  0  0  0  0  0  0
   -1.3521    0.1572   -1.8335 H   0  0  0  0  0  0  0  0  0  0  0  0
    1.4193   -1.0203   -1.6102 H   0  0  0  0  0  0  0  0  0  0  0  0
    0.8937    0.6387   -1.7739 H   0  0  0  0  0  0  0  0  0  0  0  0
    0.2682   -1.9420    1.3972 H   0  0  0  0  0  0  0  0  0  0  0  0
    1.4943    2.3181    0.4079 H   0  0  0  0  0  0  0  0  0  0  0  0
    2.1078    1.4021    1.7771 H   0  0  0  0  0  0  0  0  0  0  0  0
   -2.5204   -1.7472   -1.2413 H   0  0  0  0  0  0  0  0  0  0  0  0
   -3.4226   -0.7047   -0.1446 H   0  0  0  0  0  0  0  0  0  0  0  0
   -1.9869   -1.2598    1.7154 H   0  0  0  0  0  0  0  0  0  0  0  0
   -2.1887   -2.8120    0.8943 H   0  0  0  0  0  0  0  0  0  0  0  0
   -0.9817    2.6155    1.4403 H   0  0  0  0  0  0  0  0  0  0  0  0
    1.1609   -2.9958   -0.6061 H   0  0  0  0  0  0  0  0  0  0  0  0
   -0.2788   -3.8737   -0.1058 H   0  0  0  0  0  0  0  0  0  0  0  0
   -0.3607   -2.7688   -1.4868 H   0  0  0  0  0  0  0  0  0  0  0  0
    4.1147    1.5540   -0.3488 H   0  0  0  0  0  0  0  0  0  0  0  0
    3.8083    0.4663   -1.7151 H   0  0  0  0  0  0  0  0  0  0  0  0
    2.8724    1.9560   -1.5395 H   0  0  0  0  0  0  0  0  0  0  0  0
    2.3550   -1.2812    1.3047 H   0  0  0  0  0  0  0  0  0  0  0  0
    3.3926   -1.5155   -0.1083 H   0  0  0  0  0  0  0  0  0  0  0  0
    3.8573   -0.3839    1.1693 H   0  0  0  0  0  0  0  0  0  0  0  0
   -3.0006    3.1248   -0.0356 H   0  0  0  0  0  0  0  0  0  0  0  0
   -3.8684    1.6302   -0.4080 H   0  0  0  0  0  0  0  0  0  0  0  0
   -2.8426    2.3955   -1.6392 H   0  0  0  0  0  0  0  0  0  0  0  0
  1  2  1  0  0  0  0
  1  3  1  0  0  0  0
  1  4  1  0  0  0  0
  1  5  1  0  0  0  0
  2  7  1  0  0  0  0
  2 11  1  0  0  0  0
  2 16  1  0  0  0  0
  3  8  1  0  0  0  0
  3 10  1  0  0  0  0
  3 17  1  0  0  0  0
  4  6  1  0  0  0  0
  4 18  1  0  0  0  0
  4 19  1  0  0  0  0
  5  9  1  0  0  0  0
  5 12  1  0  0  0  0
  5 20  1  0  0  0  0
  6  7  1  0  0  0  0
  6 13  1  0  0  0  0
  6 14  1  0  0  0  0
  7 21  1  0  0  0  0
  7 22  1  0  0  0  0
  8  9  1  0  0  0  0
  8 23  1  0  0  0  0
  8 24  1  0  0  0  0
  9 25  1  0  0  0  0
  9 26  1  0  0  0  0
 10 11  2  0  0  0  0
 10 15  1  0  0  0  0
 11 27  1  0  0  0  0
 12 28  1  0  0  0  0
 12 29  1  0  0  0  0
 12 30  1  0  0  0  0
 13 31  1  0  0  0  0
 13 32  1  0  0  0  0
 13 33  1  0  0  0  0
 14 34  1  0  0  0  0
 14 35  1  0  0  0  0
 14 36  1  0  0  0  0
 15 37  1  0  0  0  0
 15 38  1  0  0  0  0
 15 39  1  0  0  0  0
M  END
> <PUBCHEM_COMPOUND_CID>
194140

> <PUBCHEM_CONFORMER_RMSD>
0.6

> <PUBCHEM_CONFORMER_DIVERSEORDER>
2
4
1
3

> <PUBCHEM_MMFF94_PARTIAL_CHARGES>
6
10 -0.28
11 -0.29
15 0.14
2 0.14
27 0.15
3 0.14

> <PUBCHEM_EFFECTIVE_ROTOR_COUNT>
1.2

> <PUBCHEM_PHARMACOPHORE_FEATURES>
4
3 6 13 14 hydrophobe
5 1 2 3 10 11 rings
5 1 2 4 6 7 rings
5 1 3 5 8 9 rings

> <PUBCHEM_HEAVY_ATOM_COUNT>
15

> <PUBCHEM_ATOM_DEF_STEREO_COUNT>
3

> <PUBCHEM_ATOM_UDEF_STEREO_COUNT>
1

> <PUBCHEM_BOND_DEF_STEREO_COUNT>
0

> <PUBCHEM_BOND_UDEF_STEREO_COUNT>
0

> <PUBCHEM_ISOTOPIC_ATOM_COUNT>
0

> <PUBCHEM_COMPONENT_COUNT>
1

> <PUBCHEM_CACTVS_TAUTO_COUNT>
1

> <PUBCHEM_CONFORMER_ID>
0002F65C00000002

> <PUBCHEM_MMFF94_ENERGY>
55.361

> <PUBCHEM_FEATURE_SELFOVERLAP>
21.131

> <PUBCHEM_SHAPE_FINGERPRINT>
10948715 1 18130224990189711581
11206711 2 18335981973914769269
11680986 33 17977099381597018355
12138202 97 18408600378964880428
12173636 292 18413108342321598644
12423570 1 8833241787931949717
12491281 212 17918267641262473204
12524768 44 17828202090902113554
12716301 132 18338532858255676001
12716758 59 18410301297757053520
13024252 1 15553887663450808881
13132413 78 16678940246281780508
13380535 76 18267312112904709991
14181834 199 17766285657758615815
14614273 12 18341330071840072125
14761567 1 18046327902066972471
14817 1 10534447753604706353
15076042 46 18412827958509024402
15219459 52 17687470474046582575
15490181 8 18194392527277576090
15775835 57 18202279242743128836
16752209 62 18410018714821451950
16945 1 18195254303933684024
17844478 74 18195798575026829979
19868273 325 17832420904217455886
20510252 161 18335696100880913480
20645476 183 18343015597332332500
21501502 16 18412827996941989038
21524375 3 18268439103775482957
22112679 90 16667128107318821065
22344851 341 18126847337924963787
2334 1 18409448072539132712
23402539 116 18263657181434706799
23419403 2 14567085830282827791
23559900 14 18187932828800021746
241688 4 16535668400835972683
25 1 18192997238601221013
2748010 2 18262246516580038577
5084963 1 17845946177086503214
528862 383 17838060664549650587
53812653 8 18342172224379043934
598444 67 18335129843813340511
7364860 26 17829619709451524951
81228 2 18125170342131946425

> <PUBCHEM_SHAPE_MULTIPOLES>
308.69
4.14
2.61
1.09
1.82
1.07
-0.02
-1.53
0.76
-1.3
0
0.19
-0.13
0.08

> <PUBCHEM_SHAPE_SELFOVERLAP>
659.245

> <PUBCHEM_SHAPE_VOLUME>
171.2

> <PUBCHEM_COORDINATE_TYPE>
2
5
10

$$$$

