2009
  -OEChem-07051213153D

 35 34  0     1  0  0  0  0  0999 V2000
    0.4013    0.3520    0.1878 O   0  0  0  0  0  0  0  0  0  0  0  0
   -3.0753   -0.5148    0.0026 O   0  0  0  0  0  0  0  0  0  0  0  0
   -0.6561   -1.6395   -0.2971 O   0  0  0  0  0  0  0  0  0  0  0  0
   -4.5276    1.2260    0.4473 O   0  0  0  0  0  0  0  0  0  0  0  0
    4.1200    0.0792    0.0378 N   0  3  0  0  0  0  0  0  0  0  0  0
    2.7685    0.7430    0.2588 C   0  0  0  0  0  0  0  0  0  0  0  0
    4.1928   -0.4629   -1.3824 C   0  0  0  0  0  0  0  0  0  0  0  0
    5.2276    1.1017    0.2480 C   0  0  0  0  0  0  0  0  0  0  0  0
    4.2914   -1.0647    1.0268 C   0  0  0  0  0  0  0  0  0  0  0  0
    1.6676   -0.2710    0.0182 C   0  0  0  0  0  0  0  0  0  0  0  0
   -0.6914   -0.4522   -0.0005 C   0  0  0  0  0  0  0  0  0  0  0  0
   -1.9641    0.3497    0.1816 C   0  0  1  0  0  0  0  0  0  0  0  0
   -2.0661    1.4675   -0.8414 C   0  0  0  0  0  0  0  0  0  0  0  0
   -4.3087    0.0556    0.1655 C   0  0  0  0  0  0  0  0  0  0  0  0
   -5.3798   -0.9695   -0.0530 C   0  0  0  0  0  0  0  0  0  0  0  0
    2.7364    1.1348    1.2826 H   0  0  0  0  0  0  0  0  0  0  0  0
    2.6839    1.5925   -0.4296 H   0  0  0  0  0  0  0  0  0  0  0  0
    3.8736    0.3204   -2.0762 H   0  0  0  0  0  0  0  0  0  0  0  0
    5.2337   -0.7361   -1.5852 H   0  0  0  0  0  0  0  0  0  0  0  0
    3.5773   -1.3607   -1.4786 H   0  0  0  0  0  0  0  0  0  0  0  0
    5.1558    1.4823    1.2712 H   0  0  0  0  0  0  0  0  0  0  0  0
    6.1926    0.6110    0.0908 H   0  0  0  0  0  0  0  0  0  0  0  0
    5.0902    1.9124   -0.4737 H   0  0  0  0  0  0  0  0  0  0  0  0
    4.0680   -0.6968    2.0325 H   0  0  0  0  0  0  0  0  0  0  0  0
    3.6427   -1.9009    0.7552 H   0  0  0  0  0  0  0  0  0  0  0  0
    5.3322   -1.4010    0.9760 H   0  0  0  0  0  0  0  0  0  0  0  0
    1.6900   -0.6666   -1.0006 H   0  0  0  0  0  0  0  0  0  0  0  0
    1.7177   -1.0990    0.7309 H   0  0  0  0  0  0  0  0  0  0  0  0
   -1.9629    0.7342    1.2088 H   0  0  0  0  0  0  0  0  0  0  0  0
   -2.4241    1.0955   -1.8085 H   0  0  0  0  0  0  0  0  0  0  0  0
   -2.7399    2.2688   -0.5268 H   0  0  0  0  0  0  0  0  0  0  0  0
   -1.0983    1.9507   -1.0144 H   0  0  0  0  0  0  0  0  0  0  0  0
   -5.2747   -1.7762    0.6768 H   0  0  0  0  0  0  0  0  0  0  0  0
   -5.3155   -1.3605   -1.0715 H   0  0  0  0  0  0  0  0  0  0  0  0
   -6.3605   -0.5039    0.0807 H   0  0  0  0  0  0  0  0  0  0  0  0
  1 10  1  0  0  0  0
  1 11  1  0  0  0  0
  2 12  1  0  0  0  0
  2 14  1  0  0  0  0
  3 11  2  0  0  0  0
  4 14  2  0  0  0  0
  5  6  1  0  0  0  0
  5  7  1  0  0  0  0
  5  8  1  0  0  0  0
  5  9  1  0  0  0  0
  6 10  1  0  0  0  0
  6 16  1  0  0  0  0
  6 17  1  0  0  0  0
  7 18  1  0  0  0  0
  7 19  1  0  0  0  0
  7 20  1  0  0  0  0
  8 21  1  0  0  0  0
  8 22  1  0  0  0  0
  8 23  1  0  0  0  0
  9 24  1  0  0  0  0
  9 25  1  0  0  0  0
  9 26  1  0  0  0  0
 10 27  1  0  0  0  0
 10 28  1  0  0  0  0
 11 12  1  0  0  0  0
 12 13  1  0  0  0  0
 12 29  1  0  0  0  0
 13 30  1  0  0  0  0
 13 31  1  0  0  0  0
 13 32  1  0  0  0  0
 14 15  1  0  0  0  0
 15 33  1  0  0  0  0
 15 34  1  0  0  0  0
 15 35  1  0  0  0  0
M  CHG  1   5   1
M  END
> <PUBCHEM_COMPOUND_CID>
2009

> <PUBCHEM_CONFORMER_RMSD>
0.8

> <PUBCHEM_CONFORMER_DIVERSEORDER>
2
162
171
155
64
39
28
145
161
71
121
18
85
167
1
105
133
138
120
9
8
21
33
14
169
136
125
150
113
44
68
158
80
48
38
24
166
129
74
119
95
164
65
89
62
45
66
117
17
132
152
170
26
11
16
172
84
41
96
27
100
32
46
67
70
10
52
73
72
156
23
49
99
61
97
144
13
127
118
47
43
141
82
168
75
159
91
58
57
12
163
69
148
15
140
87
98
31
51
102
123
36
165
160
149
4
126
59
35
104
116
92
20
37
157
142
55
22
79
63
53
112
93
174
90
154
19
135
122
42
147
131
78
143
94
60
110
29
128
30
6
108
7
151
146
76
173
83
3
106
77
5
40
114
111
54
81
101
139
34
56
25
124
130
115
103
153
86
109
50
137
107
88
134

> <PUBCHEM_MMFF94_PARTIAL_CHARGES>
14
1 -0.43
10 0.28
11 0.66
12 0.34
14 0.66
15 0.06
2 -0.43
3 -0.57
4 -0.57
5 -1.01
6 0.5
7 0.5
8 0.5
9 0.5

> <PUBCHEM_EFFECTIVE_ROTOR_COUNT>
7

> <PUBCHEM_PHARMACOPHORE_FEATURES>
3
1 3 acceptor
1 4 acceptor
1 5 cation

> <PUBCHEM_HEAVY_ATOM_COUNT>
15

> <PUBCHEM_ATOM_DEF_STEREO_COUNT>
0

> <PUBCHEM_ATOM_UDEF_STEREO_COUNT>
1

> <PUBCHEM_BOND_DEF_STEREO_COUNT>
0

> <PUBCHEM_BOND_UDEF_STEREO_COUNT>
0

> <PUBCHEM_ISOTOPIC_ATOM_COUNT>
0

> <PUBCHEM_COMPONENT_COUNT>
1

> <PUBCHEM_CACTVS_TAUTO_COUNT>
1

> <PUBCHEM_CONFORMER_ID>
000007D900000002

> <PUBCHEM_MMFF94_ENERGY>
36.7426

> <PUBCHEM_FEATURE_SELFOVERLAP>
15.223

> <PUBCHEM_SHAPE_FINGERPRINT>
10912923 1 18341894099487367561
11287383 113 18114179709493951650
12815109 37 10303815375673104691
12916748 109 18334008397856064824
13081056 2 18410012143674379020
13533116 47 17703798058600204306
13675066 3 16950285117475571881
13862211 1 18411423890977239735
14123238 8 18409449172040204424
1420 363 18341044143277856483
14251718 22 18261110738274405530
17834072 33 16200143257812026119
17834076 25 17240201019805294152
20279233 1 18040427777324030734
20281389 69 18201439233556666449
20645477 56 18335706005481790160
20645477 70 17458615757805111822
23402539 116 18259992573783225653
23557571 272 18263070149547097733
23559900 14 17967527978864560534
265663 24 18131635594798864451
2916195 48 18113908134559621328
3545911 37 18334294241542509056
366044 4 18408041797167583931
42 15 18131635612179102682
42788 4 18334857212311292992
4990 188 17968090940985543406
522135 26 17846498145415145202
5374978 207 18342463642811752064
542803 24 17749107790108392944
69090 78 18259989253573188670

> <PUBCHEM_SHAPE_MULTIPOLES>
280.23
12.66
1.31
0.88
0.66
0.05
0.17
0.02
-0.76
0.24
0.03
-0.78
-0.05
-0.05

> <PUBCHEM_SHAPE_SELFOVERLAP>
530.827

> <PUBCHEM_SHAPE_VOLUME>
174.9

> <PUBCHEM_COORDINATE_TYPE>
2
5
10

$$$$

