441269
  -OEChem-07051212533D

 29 29  0     0  0  0  0  0  0999 V2000
   -1.3577    0.5722   -1.7437 O   0  0  0  0  0  0  0  0  0  0  0  0
   -0.0049   -2.1684   -0.3842 O   0  0  0  0  0  0  0  0  0  0  0  0
    0.8393    2.5489   -0.1167 O   0  0  0  0  0  0  0  0  0  0  0  0
    4.3665   -0.5663    0.6240 O   0  0  0  0  0  0  0  0  0  0  0  0
   -3.4233    0.0885    0.2166 C   0  0  0  0  0  0  0  0  0  0  0  0
   -2.0103    0.5771    0.5813 C   0  0  0  0  0  0  0  0  0  0  0  0
   -1.0171    0.4648   -0.5682 C   0  0  0  0  0  0  0  0  0  0  0  0
   -3.3696   -1.3676   -0.2509 C   0  0  0  0  0  0  0  0  0  0  0  0
   -4.3820    0.2144    1.4035 C   0  0  0  0  0  0  0  0  0  0  0  0
    0.4134    0.1909   -0.2510 C   0  0  0  0  0  0  0  0  0  0  0  0
    0.8396   -1.1186   -0.1770 C   0  0  0  0  0  0  0  0  0  0  0  0
    1.2645    1.2559   -0.0423 C   0  0  0  0  0  0  0  0  0  0  0  0
    2.1784   -1.3751    0.1194 C   0  0  0  0  0  0  0  0  0  0  0  0
    2.6031    0.9994    0.2541 C   0  0  0  0  0  0  0  0  0  0  0  0
    3.0602   -0.3160    0.3350 C   0  0  0  0  0  0  0  0  0  0  0  0
   -3.8136    0.6992   -0.6072 H   0  0  0  0  0  0  0  0  0  0  0  0
   -2.0474    1.6312    0.8798 H   0  0  0  0  0  0  0  0  0  0  0  0
   -1.6291    0.0041    1.4353 H   0  0  0  0  0  0  0  0  0  0  0  0
   -2.9236   -2.0142    0.5128 H   0  0  0  0  0  0  0  0  0  0  0  0
   -4.3791   -1.7418   -0.4549 H   0  0  0  0  0  0  0  0  0  0  0  0
   -2.7958   -1.4852   -1.1744 H   0  0  0  0  0  0  0  0  0  0  0  0
   -4.0490   -0.3956    2.2501 H   0  0  0  0  0  0  0  0  0  0  0  0
   -5.3905   -0.1100    1.1263 H   0  0  0  0  0  0  0  0  0  0  0  0
   -4.4446    1.2548    1.7392 H   0  0  0  0  0  0  0  0  0  0  0  0
    2.5427   -2.3975    0.1842 H   0  0  0  0  0  0  0  0  0  0  0  0
    3.2857    1.8292    0.4211 H   0  0  0  0  0  0  0  0  0  0  0  0
    0.4900   -2.9996   -0.2849 H   0  0  0  0  0  0  0  0  0  0  0  0
   -0.0973    2.5859   -0.3685 H   0  0  0  0  0  0  0  0  0  0  0  0
    4.8310    0.2801    0.7424 H   0  0  0  0  0  0  0  0  0  0  0  0
  1  7  2  0  0  0  0
  2 11  1  0  0  0  0
  2 27  1  0  0  0  0
  3 12  1  0  0  0  0
  3 28  1  0  0  0  0
  4 15  1  0  0  0  0
  4 29  1  0  0  0  0
  5  6  1  0  0  0  0
  5  8  1  0  0  0  0
  5  9  1  0  0  0  0
  5 16  1  0  0  0  0
  6  7  1  0  0  0  0
  6 17  1  0  0  0  0
  6 18  1  0  0  0  0
  7 10  1  0  0  0  0
  8 19  1  0  0  0  0
  8 20  1  0  0  0  0
  8 21  1  0  0  0  0
  9 22  1  0  0  0  0
  9 23  1  0  0  0  0
  9 24  1  0  0  0  0
 10 11  2  0  0  0  0
 10 12  1  0  0  0  0
 11 13  1  0  0  0  0
 12 14  2  0  0  0  0
 13 15  2  0  0  0  0
 13 25  1  0  0  0  0
 14 15  1  0  0  0  0
 14 26  1  0  0  0  0
M  END
> <PUBCHEM_COMPOUND_CID>
441269

> <PUBCHEM_CONFORMER_RMSD>
0.6

> <PUBCHEM_CONFORMER_DIVERSEORDER>
1
8
7
4
3
5
2
6

> <PUBCHEM_MMFF94_PARTIAL_CHARGES>
17
1 -0.57
10 0.09
11 0.08
12 0.08
13 -0.15
14 -0.15
15 0.08
2 -0.53
25 0.15
26 0.15
27 0.45
28 0.45
29 0.45
3 -0.53
4 -0.53
6 0.06
7 0.42

> <PUBCHEM_EFFECTIVE_ROTOR_COUNT>
3

> <PUBCHEM_PHARMACOPHORE_FEATURES>
6
1 1 acceptor
1 2 donor
1 3 donor
1 4 donor
3 5 8 9 hydrophobe
6 10 11 12 13 14 15 rings

> <PUBCHEM_HEAVY_ATOM_COUNT>
15

> <PUBCHEM_ATOM_DEF_STEREO_COUNT>
0

> <PUBCHEM_ATOM_UDEF_STEREO_COUNT>
0

> <PUBCHEM_BOND_DEF_STEREO_COUNT>
0

> <PUBCHEM_BOND_UDEF_STEREO_COUNT>
0

> <PUBCHEM_ISOTOPIC_ATOM_COUNT>
0

> <PUBCHEM_COMPONENT_COUNT>
1

> <PUBCHEM_CACTVS_TAUTO_COUNT>
25

> <PUBCHEM_CONFORMER_ID>
0006BBB500000001

> <PUBCHEM_MMFF94_ENERGY>
38.1557

> <PUBCHEM_FEATURE_SELFOVERLAP>
30.446

> <PUBCHEM_SHAPE_FINGERPRINT>
10219947 1 18410855473097557208
10498660 4 13913147102708041259
11132069 177 18410015441908633883
11471102 22 18412537738693763920
12032990 46 18339924917581334654
12251169 10 18408880746351594987
12696612 119 18409727344065777845
13675066 3 17530686528280178082
13705890 14 15410890769105795658
14251717 144 18410858737578800239
14252887 29 18335696195697429970
14943859 89 15068627084450993558
15207287 21 17846778520395237179
15309172 13 18409731767913935923
15375462 189 18202004356140664554
15375462 478 17967532402048047985
15501101 241 18201434753393651837
16945 1 18412268315437477206
17844478 74 18060423537966265924
18175812 5 17988642973961881351
200 152 18187943763338293239
20671657 1 18195242205174880804
20871998 22 18264200495045531350
21061003 4 18411143558013359069
21501502 16 18194403286265825462
22959321 4 18266459815463054739
231179 274 5039670326976264123
23402539 116 18187939390776878934
26918003 58 18343578543349365977
2748010 2 17904497538372654878
276578 36 15936682752878439151
3286 77 18341334388134524341
77492 1 17603595114205910293

> <PUBCHEM_SHAPE_MULTIPOLES>
285.22
6.8
1.8
0.99
2.67
0.09
0.11
-0.93
-2.65
-0.59
0.17
0.69
0.11
-0.29

> <PUBCHEM_SHAPE_SELFOVERLAP>
591.803

> <PUBCHEM_SHAPE_VOLUME>
163.8

> <PUBCHEM_COORDINATE_TYPE>
2
5
10

$$$$

