9807507
  -OEChem-07051213063D

 57 60  0     1  0  0  0  0  0999 V2000
   -0.2734   -1.9023   -2.0929 S   0  0  0  0  0  0  0  0  0  0  0  0
    3.8954    3.0119   -2.0410 P   0  0  0  0  0  0  0  0  0  0  0  0
    0.1104    1.2604   -0.7572 F   0  0  0  0  0  0  0  0  0  0  0  0
   -1.0626    3.5504    3.2139 F   0  0  0  0  0  0  0  0  0  0  0  0
    2.1575   -0.1911   -0.7029 O   0  0  0  0  0  0  0  0  0  0  0  0
    3.0010    1.6722   -1.8878 O   0  0  0  0  0  0  0  0  0  0  0  0
    3.4173    3.9563   -0.8172 O   0  0  0  0  0  0  0  0  0  0  0  0
    5.3866    2.5591   -1.6088 O   0  0  0  0  0  0  0  0  0  0  0  0
    3.8066    3.6654   -3.3897 O   0  0  0  0  0  0  0  0  0  0  0  0
    3.8891   -2.0273    0.8148 N   0  0  0  0  0  0  0  0  0  0  0  0
   -1.5547   -1.3212    0.0758 N   0  0  0  0  0  0  0  0  0  0  0  0
    4.1320   -2.0769   -0.5036 N   0  0  0  0  0  0  0  0  0  0  0  0
    5.1191   -3.8207    0.5996 N   0  0  0  0  0  0  0  0  0  0  0  0
   -8.9404    0.5880    0.0082 N   0  0  0  0  0  0  0  0  0  0  0  0
    1.7675   -0.6112    0.6122 C   0  0  1  0  0  0  0  0  0  0  0  0
    0.8705   -1.9044    0.4689 C   0  0  1  0  0  0  0  0  0  0  0  0
    3.0799   -0.9483    1.3906 C   0  0  0  0  0  0  0  0  0  0  0  0
    0.9976    0.5175    1.3154 C   0  0  0  0  0  0  0  0  0  0  0  0
    0.4682   -2.5389    1.8125 C   0  0  0  0  0  0  0  0  0  0  0  0
   -0.3807   -1.6797   -0.3947 C   0  0  0  0  0  0  0  0  0  0  0  0
    0.2069    1.3944    0.5728 C   0  0  0  0  0  0  0  0  0  0  0  0
    1.0923    0.6653    2.6992 C   0  0  0  0  0  0  0  0  0  0  0  0
    2.9958    0.9564   -0.6595 C   0  0  0  0  0  0  0  0  0  0  0  0
   -0.4893    2.4191    1.2140 C   0  0  0  0  0  0  0  0  0  0  0  0
    0.3964    1.6898    3.3404 C   0  0  0  0  0  0  0  0  0  0  0  0
    4.4789   -3.0673    1.4634 C   0  0  0  0  0  0  0  0  0  0  0  0
   -2.4427   -1.2116   -0.9765 C   0  0  0  0  0  0  0  0  0  0  0  0
   -1.9320   -1.4875   -2.2274 C   0  0  0  0  0  0  0  0  0  0  0  0
   -0.3946    2.5667    2.5978 C   0  0  0  0  0  0  0  0  0  0  0  0
   -3.8106   -0.8324   -0.7684 C   0  0  0  0  0  0  0  0  0  0  0  0
    4.8794   -3.1798   -0.5821 C   0  0  0  0  0  0  0  0  0  0  0  0
   -4.8024   -1.3015   -1.6298 C   0  0  0  0  0  0  0  0  0  0  0  0
   -4.1489    0.0048    0.2948 C   0  0  0  0  0  0  0  0  0  0  0  0
   -6.1325   -0.9335   -1.4278 C   0  0  0  0  0  0  0  0  0  0  0  0
   -5.4790    0.3728    0.4965 C   0  0  0  0  0  0  0  0  0  0  0  0
   -6.4709   -0.0963   -0.3647 C   0  0  0  0  0  0  0  0  0  0  0  0
   -7.8336    0.2813   -0.1588 C   0  0  0  0  0  0  0  0  0  0  0  0
    1.4576   -2.6669   -0.0616 H   0  0  0  0  0  0  0  0  0  0  0  0
    3.7603   -0.0955    1.4942 H   0  0  0  0  0  0  0  0  0  0  0  0
    2.8758   -1.2917    2.4088 H   0  0  0  0  0  0  0  0  0  0  0  0
   -0.1193   -3.4487    1.6383 H   0  0  0  0  0  0  0  0  0  0  0  0
    1.3366   -2.8352    2.4059 H   0  0  0  0  0  0  0  0  0  0  0  0
   -0.1557   -1.8730    2.4164 H   0  0  0  0  0  0  0  0  0  0  0  0
    1.6695    0.0023    3.3317 H   0  0  0  0  0  0  0  0  0  0  0  0
    4.0270    0.6248   -0.5098 H   0  0  0  0  0  0  0  0  0  0  0  0
    2.7615    1.6677    0.1349 H   0  0  0  0  0  0  0  0  0  0  0  0
   -1.1054    3.1010    0.6358 H   0  0  0  0  0  0  0  0  0  0  0  0
    0.4649    1.8026    4.4185 H   0  0  0  0  0  0  0  0  0  0  0  0
    4.4140   -3.2245    2.5307 H   0  0  0  0  0  0  0  0  0  0  0  0
   -2.4101   -1.4614   -3.1968 H   0  0  0  0  0  0  0  0  0  0  0  0
    5.2615   -3.5272   -1.5304 H   0  0  0  0  0  0  0  0  0  0  0  0
   -4.5810   -1.9695   -2.4583 H   0  0  0  0  0  0  0  0  0  0  0  0
   -3.3929    0.3870    0.9765 H   0  0  0  0  0  0  0  0  0  0  0  0
   -6.8952   -1.3101   -2.1053 H   0  0  0  0  0  0  0  0  0  0  0  0
   -5.7270    1.0272    1.3289 H   0  0  0  0  0  0  0  0  0  0  0  0
    3.7266    4.8866   -0.7873 H   0  0  0  0  0  0  0  0  0  0  0  0
    6.1309    3.1827   -1.7480 H   0  0  0  0  0  0  0  0  0  0  0  0
  1 20  1  0  0  0  0
  1 28  1  0  0  0  0
  2  6  1  0  0  0  0
  2  7  1  0  0  0  0
  2  8  1  0  0  0  0
  2  9  2  0  0  0  0
  3 21  1  0  0  0  0
  4 29  1  0  0  0  0
  5 15  1  0  0  0  0
  5 23  1  0  0  0  0
  6 23  1  0  0  0  0
  7 56  1  0  0  0  0
  8 57  1  0  0  0  0
 10 12  1  0  0  0  0
 10 17  1  0  0  0  0
 10 26  1  0  0  0  0
 11 20  2  0  0  0  0
 11 27  1  0  0  0  0
 12 31  2  0  0  0  0
 13 26  2  0  0  0  0
 13 31  1  0  0  0  0
 14 37  3  0  0  0  0
 15 16  1  0  0  0  0
 15 17  1  0  0  0  0
 15 18  1  0  0  0  0
 16 19  1  0  0  0  0
 16 20  1  0  0  0  0
 16 38  1  0  0  0  0
 17 39  1  0  0  0  0
 17 40  1  0  0  0  0
 18 21  2  0  0  0  0
 18 22  1  0  0  0  0
 19 41  1  0  0  0  0
 19 42  1  0  0  0  0
 19 43  1  0  0  0  0
 21 24  1  0  0  0  0
 22 25  2  0  0  0  0
 22 44  1  0  0  0  0
 23 45  1  0  0  0  0
 23 46  1  0  0  0  0
 24 29  2  0  0  0  0
 24 47  1  0  0  0  0
 25 29  1  0  0  0  0
 25 48  1  0  0  0  0
 26 49  1  0  0  0  0
 27 28  2  0  0  0  0
 27 30  1  0  0  0  0
 28 50  1  0  0  0  0
 30 32  2  0  0  0  0
 30 33  1  0  0  0  0
 31 51  1  0  0  0  0
 32 34  1  0  0  0  0
 32 52  1  0  0  0  0
 33 35  2  0  0  0  0
 33 53  1  0  0  0  0
 34 36  2  0  0  0  0
 34 54  1  0  0  0  0
 35 36  1  0  0  0  0
 35 55  1  0  0  0  0
 36 37  1  0  0  0  0
M  END
> <PUBCHEM_COMPOUND_CID>
9807507

> <PUBCHEM_CONFORMER_RMSD>
1

> <PUBCHEM_CONFORMER_DIVERSEORDER>
1
12
10
7
9
3
13
6
14
5
4
8
2
11

> <PUBCHEM_MMFF94_PARTIAL_CHARGES>
48
1 -0.08
10 0.31
11 -0.57
12 -0.71
13 -0.57
14 -0.56
15 0.42
16 0.18
17 0.26
18 -0.14
2 1.51
20 0.2
21 0.19
22 -0.15
23 0.56
24 -0.15
25 -0.15
26 0.04
27 0.17
28 -0.11
29 0.19
3 -0.19
30 0.05
31 0.37
32 -0.15
33 -0.15
34 -0.15
35 -0.15
36 0.07
37 0.48
4 -0.19
44 0.15
47 0.15
48 0.15
49 0.15
5 -0.56
50 0.15
51 0.15
52 0.15
53 0.15
54 0.15
55 0.15
56 0.5
57 0.5
6 -0.55
7 -0.77
8 -0.77
9 -0.7

> <PUBCHEM_EFFECTIVE_ROTOR_COUNT>
10

> <PUBCHEM_PHARMACOPHORE_FEATURES>
14
1 11 acceptor
1 14 acceptor
1 19 hydrophobe
1 5 acceptor
1 7 acceptor
1 8 acceptor
1 9 acceptor
3 10 13 26 cation
3 12 13 31 cation
4 2 7 8 9 anion
5 1 11 20 27 28 rings
5 10 12 13 26 31 rings
6 18 21 22 24 25 29 rings
6 30 32 33 34 35 36 rings

> <PUBCHEM_HEAVY_ATOM_COUNT>
37

> <PUBCHEM_ATOM_DEF_STEREO_COUNT>
2

> <PUBCHEM_ATOM_UDEF_STEREO_COUNT>
0

> <PUBCHEM_BOND_DEF_STEREO_COUNT>
0

> <PUBCHEM_BOND_UDEF_STEREO_COUNT>
0

> <PUBCHEM_ISOTOPIC_ATOM_COUNT>
0

> <PUBCHEM_COMPONENT_COUNT>
1

> <PUBCHEM_CACTVS_TAUTO_COUNT>
2

> <PUBCHEM_CONFORMER_ID>
0095A69300000001

> <PUBCHEM_MMFF94_ENERGY>
57.3117

> <PUBCHEM_FEATURE_SELFOVERLAP>
73.827

> <PUBCHEM_SHAPE_FINGERPRINT>
10675989 125 18191868929566443704
10721379 63 18341609296575634380
11578080 2 17201900575765454106
12166972 35 18339366369589583667
12633046 712 18189632561517142343
12788726 201 17895176819100401616
14068700 675 18262522627680731770
14400156 260 17894897556411813321
14955137 171 18041008353644309035
15238133 3 18187651305988002315
15420108 30 16302084401710365482
15840311 113 18114191834603645722
1813 80 18268721665706402318
18365409 1 17464533479145746145
19319366 153 18411427180415981355
21927370 108 18055362581319811930
24893992 56 17968103041316963251
345986 75 18048056321588295619
3552219 110 18263939894216983218
469060 322 17983296216646942290
513532 50 16661494991174114336
6086070 43 17749954358913300039

> <PUBCHEM_SHAPE_MULTIPOLES>
700.34
14.67
4.43
2.96
30.04
1.81
-0.28
-2.6
5.17
-8.38
0.12
-2.77
2.8
-5.07

> <PUBCHEM_SHAPE_SELFOVERLAP>
1493.178

> <PUBCHEM_SHAPE_VOLUME>
393.3

> <PUBCHEM_COORDINATE_TYPE>
2
5
10

$$$$

