10921067
  -OEChem-07051213153D

 22 21  0     1  0  0  0  0  0999 V2000
   -0.0475   -0.5307   -1.7249 O   0  0  0  0  0  0  0  0  0  0  0  0
   -2.6541   -1.1025   -1.0167 O   0  0  0  0  0  0  0  0  0  0  0  0
    0.2497    1.9504   -0.3229 O   0  0  0  0  0  0  0  0  0  0  0  0
   -3.8686    0.2796    1.1074 O   0  0  0  0  0  0  0  0  0  0  0  0
    2.7685    1.0351   -0.4462 O   0  0  0  0  0  0  0  0  0  0  0  0
    3.5860   -1.2328    0.7297 O   0  0  0  0  0  0  0  0  0  0  0  0
   -0.4299   -0.3831   -0.3527 C   0  0  2  0  0  0  0  0  0  0  0  0
   -1.9416   -0.0940   -0.2993 C   0  0  2  0  0  0  0  0  0  0  0  0
    0.4688    0.6874    0.2860 C   0  0  1  0  0  0  0  0  0  0  0  0
   -2.4786   -0.0326    1.1287 C   0  0  0  0  0  0  0  0  0  0  0  0
    1.9383    0.3460    0.1279 C   0  0  0  0  0  0  0  0  0  0  0  0
    2.4090   -0.9226    0.7829 C   0  0  0  0  0  0  0  0  0  0  0  0
   -0.2481   -1.3611    0.1055 H   0  0  0  0  0  0  0  0  0  0  0  0
   -2.1675    0.8427   -0.8213 H   0  0  0  0  0  0  0  0  0  0  0  0
    0.2607    0.7884    1.3560 H   0  0  0  0  0  0  0  0  0  0  0  0
   -1.9741    0.7390    1.7160 H   0  0  0  0  0  0  0  0  0  0  0  0
   -2.3649   -1.0000    1.6291 H   0  0  0  0  0  0  0  0  0  0  0  0
   -0.1960    0.3241   -2.1646 H   0  0  0  0  0  0  0  0  0  0  0  0
   -2.4697   -1.9567   -0.5898 H   0  0  0  0  0  0  0  0  0  0  0  0
    0.7492    2.6123    0.1853 H   0  0  0  0  0  0  0  0  0  0  0  0
   -4.1694    0.3030    2.0319 H   0  0  0  0  0  0  0  0  0  0  0  0
    1.6422   -1.4998    1.3204 H   0  0  0  0  0  0  0  0  0  0  0  0
  1  7  1  0  0  0  0
  1 18  1  0  0  0  0
  2  8  1  0  0  0  0
  2 19  1  0  0  0  0
  3  9  1  0  0  0  0
  3 20  1  0  0  0  0
  4 10  1  0  0  0  0
  4 21  1  0  0  0  0
  5 11  2  0  0  0  0
  6 12  2  0  0  0  0
  7  8  1  0  0  0  0
  7  9  1  0  0  0  0
  7 13  1  0  0  0  0
  8 10  1  0  0  0  0
  8 14  1  0  0  0  0
  9 11  1  0  0  0  0
  9 15  1  0  0  0  0
 10 16  1  0  0  0  0
 10 17  1  0  0  0  0
 11 12  1  0  0  0  0
 12 22  1  0  0  0  0
M  END
> <PUBCHEM_COMPOUND_CID>
10921067

> <PUBCHEM_CONFORMER_RMSD>
0.6

> <PUBCHEM_CONFORMER_DIVERSEORDER>
1
104
57
97
66
10
92
94
65
9
80
79
50
7
67
4
93
102
85
100
86
22
53
2
38
73
64
3
95
87
78
34
62
60
25
101
23
30
81
29
63
37
98
6
84
19
96
51
15
83
91
31
71
75
89
20
54
45
14
58
17
70
24
39
46
56
8
82
74
47
26
77
5
99
52
33
103
88
40
11
43
90
36
49
16
12
27
61
13
72
32
18
41
68
55
21
42
35
69
48
28
76
44
59

> <PUBCHEM_MMFF94_PARTIAL_CHARGES>
17
1 -0.68
10 0.28
11 0.51
12 0.51
18 0.4
19 0.4
2 -0.68
20 0.4
21 0.4
22 0.06
3 -0.68
4 -0.68
5 -0.57
6 -0.57
7 0.28
8 0.28
9 0.34

> <PUBCHEM_EFFECTIVE_ROTOR_COUNT>
5

> <PUBCHEM_PHARMACOPHORE_FEATURES>
10
1 1 acceptor
1 1 donor
1 2 acceptor
1 2 donor
1 3 acceptor
1 3 donor
1 4 acceptor
1 4 donor
1 5 acceptor
1 6 acceptor

> <PUBCHEM_HEAVY_ATOM_COUNT>
12

> <PUBCHEM_ATOM_DEF_STEREO_COUNT>
3

> <PUBCHEM_ATOM_UDEF_STEREO_COUNT>
0

> <PUBCHEM_BOND_DEF_STEREO_COUNT>
0

> <PUBCHEM_BOND_UDEF_STEREO_COUNT>
0

> <PUBCHEM_ISOTOPIC_ATOM_COUNT>
0

> <PUBCHEM_COMPONENT_COUNT>
1

> <PUBCHEM_CACTVS_TAUTO_COUNT>
23

> <PUBCHEM_CONFORMER_ID>
00A6A46B00000001

> <PUBCHEM_MMFF94_ENERGY>
17.2047

> <PUBCHEM_FEATURE_SELFOVERLAP>
50.782

> <PUBCHEM_SHAPE_FINGERPRINT>
10219947 1 18409725166701916481
12251169 10 18040998474633459211
124424 183 18271811271778625933
12897270 3 15338847494509989874
12932764 1 18409450258498346213
13296908 3 16272212976611150523
14390081 3 14996277050543013155
16945 1 17894628196862350553
17844478 74 17203610393133583900
20201158 50 17632306712918789898
20279233 1 16702032945418199155
20281407 28 16056874728428916353
20645477 70 18059028244836668351
20715346 28 16773802454688239111
207724 885 18410575063425664841
20871998 22 18267018552132874914
20871999 31 14620793821052036035
21293036 1 12535334706100663602
22802520 49 16271385117306601707
23211744 41 13912317954348579453
23402539 116 15285937887370567177
29004967 10 17989211408467454104
3248919 1 17530967964385911837
5084963 1 18189065204768414941

> <PUBCHEM_SHAPE_MULTIPOLES>
211.74
5.46
1.28
1.2
0.73
0.36
0.26
-1.42
-1.76
-0.79
0.01
0.7
-0.23
-0.6

> <PUBCHEM_SHAPE_SELFOVERLAP>
407.043

> <PUBCHEM_SHAPE_VOLUME>
127.6

> <PUBCHEM_COORDINATE_TYPE>
2
5
10

$$$$

