442788
  -OEChem-07051212592D

 39 41  0     1  0  0  0  0  0999 V2000
    6.3301    1.9279    0.0000 O   0  0  0  0  0  0  0  0  0  0  0  0
    6.3301   -1.0721    0.0000 O   0  0  0  0  0  0  0  0  0  0  0  0
    3.7320    1.4279    0.0000 O   0  0  0  0  0  0  0  0  0  0  0  0
    8.0785   -1.1067    0.0000 O   0  0  0  0  0  0  0  0  0  0  0  0
    2.0000   -1.5721    0.0000 O   0  0  0  0  0  0  0  0  0  0  0  0
    9.8602    1.9521    0.0000 O   0  0  0  0  0  0  0  0  0  0  0  0
    5.4641    0.4279    0.0000 C   0  0  3  0  0  0  0  0  0  0  0  0
    5.4641    1.4279    0.0000 C   0  0  0  0  0  0  0  0  0  0  0  0
    4.5981   -0.0721    0.0000 C   0  0  0  0  0  0  0  0  0  0  0  0
    6.3301   -0.0721    0.0000 C   0  0  0  0  0  0  0  0  0  0  0  0
    7.1962    0.4279    0.0000 C   0  0  0  0  0  0  0  0  0  0  0  0
    7.1962    1.4279    0.0000 C   0  0  0  0  0  0  0  0  0  0  0  0
    3.7320    0.4279    0.0000 C   0  0  0  0  0  0  0  0  0  0  0  0
    4.5981   -1.0721    0.0000 C   0  0  0  0  0  0  0  0  0  0  0  0
    8.0901   -0.1067    0.0000 C   0  0  0  0  0  0  0  0  0  0  0  0
    8.0901    1.9626    0.0000 C   0  0  0  0  0  0  0  0  0  0  0  0
    2.8660   -0.0721    0.0000 C   0  0  0  0  0  0  0  0  0  0  0  0
    3.7320   -1.5721    0.0000 C   0  0  0  0  0  0  0  0  0  0  0  0
    8.9962    0.4071    0.0000 C   0  0  0  0  0  0  0  0  0  0  0  0
    2.8660   -1.0721    0.0000 C   0  0  0  0  0  0  0  0  0  0  0  0
    8.9962    1.4487    0.0000 C   0  0  0  0  0  0  0  0  0  0  0  0
    2.8660    1.9279    0.0000 C   0  0  0  0  0  0  0  0  0  0  0  0
    2.0000   -2.5721    0.0000 C   0  0  0  0  0  0  0  0  0  0  0  0
    5.4641   -0.1921    0.0000 H   0  0  0  0  0  0  0  0  0  0  0  0
    5.2520    2.0105    0.0000 H   0  0  0  0  0  0  0  0  0  0  0  0
    4.8535    1.3203    0.0000 H   0  0  0  0  0  0  0  0  0  0  0  0
    5.1350   -1.3821    0.0000 H   0  0  0  0  0  0  0  0  0  0  0  0
    8.0829    2.5826    0.0000 H   0  0  0  0  0  0  0  0  0  0  0  0
    2.3291    0.2379    0.0000 H   0  0  0  0  0  0  0  0  0  0  0  0
    3.7320   -2.1921    0.0000 H   0  0  0  0  0  0  0  0  0  0  0  0
    9.5319    0.0950    0.0000 H   0  0  0  0  0  0  0  0  0  0  0  0
    8.6118   -1.4229    0.0000 H   0  0  0  0  0  0  0  0  0  0  0  0
    3.1760    2.4649    0.0000 H   0  0  0  0  0  0  0  0  0  0  0  0
    2.3291    2.2379    0.0000 H   0  0  0  0  0  0  0  0  0  0  0  0
    2.5560    1.3910    0.0000 H   0  0  0  0  0  0  0  0  0  0  0  0
    9.8579    2.5721    0.0000 H   0  0  0  0  0  0  0  0  0  0  0  0
    1.3800   -2.5721    0.0000 H   0  0  0  0  0  0  0  0  0  0  0  0
    2.0000   -3.1921    0.0000 H   0  0  0  0  0  0  0  0  0  0  0  0
    2.6200   -2.5721    0.0000 H   0  0  0  0  0  0  0  0  0  0  0  0
  1  8  1  0  0  0  0
  1 12  1  0  0  0  0
  2 10  2  0  0  0  0
  3 13  1  0  0  0  0
  3 22  1  0  0  0  0
  4 15  1  0  0  0  0
  4 32  1  0  0  0  0
  5 20  1  0  0  0  0
  5 23  1  0  0  0  0
  6 21  1  0  0  0  0
  6 36  1  0  0  0  0
  7  8  1  0  0  0  0
  7  9  1  0  0  0  0
  7 10  1  0  0  0  0
  7 24  1  0  0  0  0
  8 25  1  0  0  0  0
  8 26  1  0  0  0  0
  9 13  2  0  0  0  0
  9 14  1  0  0  0  0
 10 11  1  0  0  0  0
 11 12  1  0  0  0  0
 11 15  2  0  0  0  0
 12 16  2  0  0  0  0
 13 17  1  0  0  0  0
 14 18  2  0  0  0  0
 14 27  1  0  0  0  0
 15 19  1  0  0  0  0
 16 21  1  0  0  0  0
 16 28  1  0  0  0  0
 17 20  2  0  0  0  0
 17 29  1  0  0  0  0
 18 20  1  0  0  0  0
 18 30  1  0  0  0  0
 19 21  2  0  0  0  0
 19 31  1  0  0  0  0
 22 33  1  0  0  0  0
 22 34  1  0  0  0  0
 22 35  1  0  0  0  0
 23 37  1  0  0  0  0
 23 38  1  0  0  0  0
 23 39  1  0  0  0  0
M  END
> <PUBCHEM_COMPOUND_CID>
442788

> <PUBCHEM_COMPOUND_CANONICALIZED>
1

> <PUBCHEM_CACTVS_COMPLEXITY>
427

> <PUBCHEM_CACTVS_HBOND_ACCEPTOR>
6

> <PUBCHEM_CACTVS_HBOND_DONOR>
2

> <PUBCHEM_CACTVS_ROTATABLE_BOND>
3

> <PUBCHEM_CACTVS_SUBSKEYS>
AAADceB4OAAAAAAAAAAAAAAAAAAAAAAAAAA0YIAAAAAAAACRQAAAGgAACAAADQSgmAIyBoAABgCIAqBSAAACCAAkIAAIiAEGCMgMJzaGNRqCeWCl4BUIuQfK7PzOoAAACAAIAABAAAAQABAAAAAAAAAAAA==

> <PUBCHEM_IUPAC_OPENEYE_NAME>
3-(2,4-dimethoxyphenyl)-5,7-dihydroxy-chroman-4-one

> <PUBCHEM_IUPAC_CAS_NAME>
3-(2,4-dimethoxyphenyl)-5,7-dihydroxy-3,4-dihydro-2H-1-benzopyran-4-one

> <PUBCHEM_IUPAC_NAME>
3-(2,4-dimethoxyphenyl)-5,7-dihydroxy-2,3-dihydrochromen-4-one

> <PUBCHEM_IUPAC_SYSTEMATIC_NAME>
3-(2,4-dimethoxyphenyl)-5,7-bis(oxidanyl)-2,3-dihydrochromen-4-one

> <PUBCHEM_IUPAC_TRADITIONAL_NAME>
3-(2,4-dimethoxyphenyl)-5,7-dihydroxy-chroman-4-one

> <PUBCHEM_IUPAC_INCHI>
InChI=1S/C17H16O6/c1-21-10-3-4-11(14(7-10)22-2)12-8-23-15-6-9(18)5-13(19)16(15)17(12)20/h3-7,12,18-19H,8H2,1-2H3

> <PUBCHEM_IUPAC_INCHIKEY>
LMLDNMHDNFCNCW-UHFFFAOYSA-N

> <PUBCHEM_XLOGP3_AA>
2.9

> <PUBCHEM_EXACT_MASS>
316.094688

> <PUBCHEM_MOLECULAR_FORMULA>
C17H16O6

> <PUBCHEM_MOLECULAR_WEIGHT>
316.30534

> <PUBCHEM_OPENEYE_CAN_SMILES>
COC1=CC(=C(C=C1)C2COC3=CC(=CC(=C3C2=O)O)O)OC

> <PUBCHEM_OPENEYE_ISO_SMILES>
COC1=CC(=C(C=C1)C2COC3=CC(=CC(=C3C2=O)O)O)OC

> <PUBCHEM_CACTVS_TPSA>
85.2

> <PUBCHEM_MONOISOTOPIC_WEIGHT>
316.094688

> <PUBCHEM_TOTAL_CHARGE>
0

> <PUBCHEM_HEAVY_ATOM_COUNT>
23

> <PUBCHEM_ATOM_DEF_STEREO_COUNT>
0

> <PUBCHEM_ATOM_UDEF_STEREO_COUNT>
1

> <PUBCHEM_BOND_DEF_STEREO_COUNT>
0

> <PUBCHEM_BOND_UDEF_STEREO_COUNT>
0

> <PUBCHEM_ISOTOPIC_ATOM_COUNT>
0

> <PUBCHEM_COMPONENT_COUNT>
1

> <PUBCHEM_CACTVS_TAUTO_COUNT>
21

> <PUBCHEM_COORDINATE_TYPE>
1
5
255

> <PUBCHEM_BONDANNOTATIONS>
11  12  8
11  15  8
12  16  8
13  17  8
14  18  8
15  19  8
16  21  8
17  20  8
18  20  8
19  21  8
7  9  3
9  13  8
9  14  8

$$$$

