439246
  -OEChem-07051212443D

 32 34  0     1  0  0  0  0  0999 V2000
    0.0447   -0.7890   -0.1534 O   0  0  0  0  0  0  0  0  0  0  0  0
    1.7541    2.9394   -0.0655 O   0  0  0  0  0  0  0  0  0  0  0  0
    4.1136    1.8515    0.1138 O   0  0  0  0  0  0  0  0  0  0  0  0
    4.2929   -2.8906   -0.0094 O   0  0  0  0  0  0  0  0  0  0  0  0
   -6.2197   -0.5953   -0.2336 O   0  0  0  0  0  0  0  0  0  0  0  0
   -0.6674    0.3322    0.3930 C   0  0  1  0  0  0  0  0  0  0  0  0
   -0.2460    1.6333   -0.2872 C   0  0  0  0  0  0  0  0  0  0  0  0
   -2.1517    0.0844    0.2254 C   0  0  0  0  0  0  0  0  0  0  0  0
    2.0471    0.5970   -0.0248 C   0  0  0  0  0  0  0  0  0  0  0  0
    1.2358    1.8296   -0.0979 C   0  0  0  0  0  0  0  0  0  0  0  0
    1.4060   -0.6441   -0.0793 C   0  0  0  0  0  0  0  0  0  0  0  0
    3.4401    0.6689    0.0540 C   0  0  0  0  0  0  0  0  0  0  0  0
    2.1633   -1.8163   -0.0889 C   0  0  0  0  0  0  0  0  0  0  0  0
   -2.9682   -0.0407    1.3488 C   0  0  0  0  0  0  0  0  0  0  0  0
   -2.7007   -0.0184   -1.0523 C   0  0  0  0  0  0  0  0  0  0  0  0
    4.1909   -0.5072    0.0647 C   0  0  0  0  0  0  0  0  0  0  0  0
    3.5546   -1.7467   -0.0116 C   0  0  0  0  0  0  0  0  0  0  0  0
   -4.3355   -0.2692    1.1943 C   0  0  0  0  0  0  0  0  0  0  0  0
   -4.0681   -0.2468   -1.2068 C   0  0  0  0  0  0  0  0  0  0  0  0
   -4.8856   -0.3721   -0.0834 C   0  0  0  0  0  0  0  0  0  0  0  0
   -0.4339    0.3840    1.4669 H   0  0  0  0  0  0  0  0  0  0  0  0
   -0.7758    2.4841    0.1556 H   0  0  0  0  0  0  0  0  0  0  0  0
   -0.4287    1.6248   -1.3676 H   0  0  0  0  0  0  0  0  0  0  0  0
    1.6712   -2.7841   -0.1458 H   0  0  0  0  0  0  0  0  0  0  0  0
   -2.5547    0.0372    2.3507 H   0  0  0  0  0  0  0  0  0  0  0  0
   -2.0793    0.0645   -1.9395 H   0  0  0  0  0  0  0  0  0  0  0  0
    5.2759   -0.4618    0.1250 H   0  0  0  0  0  0  0  0  0  0  0  0
   -4.9672   -0.3660    2.0731 H   0  0  0  0  0  0  0  0  0  0  0  0
   -4.4839   -0.3278   -2.2075 H   0  0  0  0  0  0  0  0  0  0  0  0
    5.0694    1.6789    0.1617 H   0  0  0  0  0  0  0  0  0  0  0  0
    5.2355   -2.6582    0.0493 H   0  0  0  0  0  0  0  0  0  0  0  0
   -6.4270   -0.6383   -1.1829 H   0  0  0  0  0  0  0  0  0  0  0  0
  1  6  1  0  0  0  0
  1 11  1  0  0  0  0
  2 10  2  0  0  0  0
  3 12  1  0  0  0  0
  3 30  1  0  0  0  0
  4 17  1  0  0  0  0
  4 31  1  0  0  0  0
  5 20  1  0  0  0  0
  5 32  1  0  0  0  0
  6  7  1  0  0  0  0
  6  8  1  0  0  0  0
  6 21  1  0  0  0  0
  7 10  1  0  0  0  0
  7 22  1  0  0  0  0
  7 23  1  0  0  0  0
  8 14  2  0  0  0  0
  8 15  1  0  0  0  0
  9 10  1  0  0  0  0
  9 11  1  0  0  0  0
  9 12  2  0  0  0  0
 11 13  2  0  0  0  0
 12 16  1  0  0  0  0
 13 17  1  0  0  0  0
 13 24  1  0  0  0  0
 14 18  1  0  0  0  0
 14 25  1  0  0  0  0
 15 19  2  0  0  0  0
 15 26  1  0  0  0  0
 16 17  2  0  0  0  0
 16 27  1  0  0  0  0
 18 20  2  0  0  0  0
 18 28  1  0  0  0  0
 19 20  1  0  0  0  0
 19 29  1  0  0  0  0
M  END
> <PUBCHEM_COMPOUND_CID>
439246

> <PUBCHEM_CONFORMER_RMSD>
0.6

> <PUBCHEM_CONFORMER_DIVERSEORDER>
1
2
4
3

> <PUBCHEM_MMFF94_PARTIAL_CHARGES>
29
1 -0.36
10 0.42
11 0.08
12 0.08
13 -0.15
14 -0.15
15 -0.15
16 -0.15
17 0.08
18 -0.15
19 -0.15
2 -0.57
20 0.08
24 0.15
25 0.15
26 0.15
27 0.15
28 0.15
29 0.15
3 -0.53
30 0.45
31 0.45
32 0.45
4 -0.53
5 -0.53
6 0.42
7 0.06
8 -0.14
9 0.09

> <PUBCHEM_EFFECTIVE_ROTOR_COUNT>
1.6

> <PUBCHEM_PHARMACOPHORE_FEATURES>
8
1 1 acceptor
1 2 acceptor
1 3 donor
1 4 donor
1 5 donor
6 1 6 7 9 10 11 rings
6 8 14 15 18 19 20 rings
6 9 11 12 13 16 17 rings

> <PUBCHEM_HEAVY_ATOM_COUNT>
20

> <PUBCHEM_ATOM_DEF_STEREO_COUNT>
1

> <PUBCHEM_ATOM_UDEF_STEREO_COUNT>
0

> <PUBCHEM_BOND_DEF_STEREO_COUNT>
0

> <PUBCHEM_BOND_UDEF_STEREO_COUNT>
0

> <PUBCHEM_ISOTOPIC_ATOM_COUNT>
0

> <PUBCHEM_COMPONENT_COUNT>
1

> <PUBCHEM_CACTVS_TAUTO_COUNT>
42

> <PUBCHEM_CONFORMER_ID>
0006B3CE00000001

> <PUBCHEM_MMFF94_ENERGY>
57.1464

> <PUBCHEM_FEATURE_SELFOVERLAP>
40.624

> <PUBCHEM_SHAPE_FINGERPRINT>
10411042 1 18194683890029170422
10912923 1 17749104483278980795
11471102 20 18412262809384537480
11796584 16 16558753442283183922
12107183 9 17900811966685317161
12236239 1 17821726118387039305
12553582 1 18336545014463579734
12670546 56 17821446854944349369
13134695 92 18410294709330371804
13140716 1 18049163268115313608
13167823 11 18114181934593219503
13533116 47 18260550009177941531
13544592 145 17989766705211114827
13544653 18 18341889735774181788
13862211 1 18339080497236625610
13955234 65 18336829676021161832
14386348 63 17847059969881322211
14739800 52 16588602906913453160
14790565 3 17908414758958826244
15196674 1 18410856606942802925
15375462 189 18040716960981041312
15848702 151 18408884066250622887
15961568 22 16199582468475290404
16945 1 18411134697923075732
17349148 13 17821728334294999071
17357779 13 18130798875177413357
1813 80 18188478198560770366
18222031 100 18261955245014995270
200 152 18261114071749327905
20028762 73 18114186366610027846
20279233 1 17775001276279084067
20645477 70 18342179968199933782
21065198 48 18113611309543660105
21065201 7 16630529539937947419
21267235 1 18336259128571280302
21641784 216 17987215876942667796
221357 26 18271815644213647733
221490 88 18341332309634077812
22182313 1 18270419281505103932
22224240 67 18189064101558367496
2255824 54 18262796263988582300
22646028 1 17967814951030079747
23175994 123 18131627898697582893
23557571 272 17203616994699051421
23559900 14 17418369190488475002
2748010 2 18267595782958076596
2871803 45 18130787905741125194
312423 11 18263349434269659568
33824 294 18412266112636180042
345986 75 18041846241317153898
34797466 226 16558455435850847383
42630746 31 18335422335898019596
46194498 28 17560798797290042677
465052 167 18334852827049989975
474 4 18118405046801878304
5104073 3 18337672017860468065
5281201 14 18060420231031384837
573450 72 17167860876959134851
602551 16 14996574940779202125
77492 1 17748821891621309353
7970288 3 18266742569945478562
8272917 22 18409164389785786293
9709674 26 18200589199119372587
9981440 41 17324942356116057017

> <PUBCHEM_SHAPE_MULTIPOLES>
382.24
10.82
2.18
0.93
8.91
0.34
-0.06
-3.88
0.02
-3.74
0.09
1.12
-0.04
0.02

> <PUBCHEM_SHAPE_SELFOVERLAP>
848.778

> <PUBCHEM_SHAPE_VOLUME>
203.4

> <PUBCHEM_COORDINATE_TYPE>
2
5
10

$$$$

