5281943
  -OEChem-07051213013D

 55 57  0     0  0  0  0  0  0999 V2000
    2.3908    0.8404   -0.5195 O   0  0  0  0  0  0  0  0  0  0  0  0
   -1.6642    0.4442    2.0944 O   0  0  0  0  0  0  0  0  0  0  0  0
   -1.5334    3.1434   -1.8454 O   0  0  0  0  0  0  0  0  0  0  0  0
    0.5429   -0.7816    2.7290 O   0  0  0  0  0  0  0  0  0  0  0  0
   -1.6063    1.7886    0.1357 C   0  0  0  0  0  0  0  0  0  0  0  0
   -3.0477    2.1481    0.3440 C   0  0  0  0  0  0  0  0  0  0  0  0
   -5.8514   -0.5136   -0.5412 C   0  0  0  0  0  0  0  0  0  0  0  0
   -4.9187    0.4026    0.2231 C   0  0  0  0  0  0  0  0  0  0  0  0
    0.3814    0.6091    0.8254 C   0  0  0  0  0  0  0  0  0  0  0  0
   -0.9606    0.9362    1.0322 C   0  0  0  0  0  0  0  0  0  0  0  0
   -3.9798    1.1880   -0.3406 C   0  0  0  0  0  0  0  0  0  0  0  0
    1.0734    1.1283   -0.2675 C   0  0  0  0  0  0  0  0  0  0  0  0
   -0.9151    2.3093   -0.9593 C   0  0  0  0  0  0  0  0  0  0  0  0
   -5.3484   -1.9593   -0.6486 C   0  0  0  0  0  0  0  0  0  0  0  0
    0.4252    1.9798   -1.1625 C   0  0  0  0  0  0  0  0  0  0  0  0
    1.0887   -0.2878    1.7521 C   0  0  0  0  0  0  0  0  0  0  0  0
   -5.1250    0.4285    1.7159 C   0  0  0  0  0  0  0  0  0  0  0  0
    3.0631    0.0021    0.3568 C   0  0  0  0  0  0  0  0  0  0  0  0
    2.5052   -0.5645    1.4386 C   0  0  0  0  0  0  0  0  0  0  0  0
   -4.0915   -2.0739   -1.4660 C   0  0  0  0  0  0  0  0  0  0  0  0
    4.4716   -0.2454   -0.0111 C   0  0  0  0  0  0  0  0  0  0  0  0
   -2.8936   -2.5580   -1.0873 C   0  0  0  0  0  0  0  0  0  0  0  0
    5.0769   -1.4634    0.3086 C   0  0  0  0  0  0  0  0  0  0  0  0
    5.2054    0.7372   -0.6806 C   0  0  0  0  0  0  0  0  0  0  0  0
   -1.6744   -2.6430   -1.9606 C   0  0  0  0  0  0  0  0  0  0  0  0
   -2.6950   -3.0874    0.3082 C   0  0  0  0  0  0  0  0  0  0  0  0
    6.4075   -1.6972   -0.0387 C   0  0  0  0  0  0  0  0  0  0  0  0
    6.5359    0.5032   -1.0279 C   0  0  0  0  0  0  0  0  0  0  0  0
    7.1370   -0.7140   -0.7070 C   0  0  0  0  0  0  0  0  0  0  0  0
   -3.2566    3.1588   -0.0289 H   0  0  0  0  0  0  0  0  0  0  0  0
   -3.2421    2.2598    1.4140 H   0  0  0  0  0  0  0  0  0  0  0  0
   -6.0104   -0.1094   -1.5502 H   0  0  0  0  0  0  0  0  0  0  0  0
   -6.8396   -0.5055   -0.0643 H   0  0  0  0  0  0  0  0  0  0  0  0
   -3.8889    1.1493   -1.4258 H   0  0  0  0  0  0  0  0  0  0  0  0
   -6.1210   -2.5495   -1.1583 H   0  0  0  0  0  0  0  0  0  0  0  0
   -5.2586   -2.3978    0.3482 H   0  0  0  0  0  0  0  0  0  0  0  0
    0.9618    2.3861   -2.0162 H   0  0  0  0  0  0  0  0  0  0  0  0
   -6.0157    1.0180    1.9574 H   0  0  0  0  0  0  0  0  0  0  0  0
   -4.2892    0.8160    2.2973 H   0  0  0  0  0  0  0  0  0  0  0  0
   -5.2894   -0.5906    2.0845 H   0  0  0  0  0  0  0  0  0  0  0  0
    3.0361   -1.2096    2.1288 H   0  0  0  0  0  0  0  0  0  0  0  0
   -4.1836   -1.7179   -2.4916 H   0  0  0  0  0  0  0  0  0  0  0  0
   -1.1174   -0.1574    2.6215 H   0  0  0  0  0  0  0  0  0  0  0  0
   -2.4909    2.9904   -1.8483 H   0  0  0  0  0  0  0  0  0  0  0  0
    4.5369   -2.2629    0.8086 H   0  0  0  0  0  0  0  0  0  0  0  0
    4.7649    1.6979   -0.9358 H   0  0  0  0  0  0  0  0  0  0  0  0
   -0.8629   -2.0372   -1.5444 H   0  0  0  0  0  0  0  0  0  0  0  0
   -1.8785   -2.2776   -2.9724 H   0  0  0  0  0  0  0  0  0  0  0  0
   -1.3339   -3.6802   -2.0412 H   0  0  0  0  0  0  0  0  0  0  0  0
   -3.3426   -2.6214    1.0542 H   0  0  0  0  0  0  0  0  0  0  0  0
   -1.6712   -2.8855    0.6448 H   0  0  0  0  0  0  0  0  0  0  0  0
   -2.8470   -4.1711    0.3272 H   0  0  0  0  0  0  0  0  0  0  0  0
    6.8745   -2.6467    0.2065 H   0  0  0  0  0  0  0  0  0  0  0  0
    7.1048    1.2692   -1.5469 H   0  0  0  0  0  0  0  0  0  0  0  0
    8.1727   -0.8963   -0.9781 H   0  0  0  0  0  0  0  0  0  0  0  0
  1 12  1  0  0  0  0
  1 18  1  0  0  0  0
  2 10  1  0  0  0  0
  2 43  1  0  0  0  0
  3 13  1  0  0  0  0
  3 44  1  0  0  0  0
  4 16  2  0  0  0  0
  5  6  1  0  0  0  0
  5 10  2  0  0  0  0
  5 13  1  0  0  0  0
  6 11  1  0  0  0  0
  6 30  1  0  0  0  0
  6 31  1  0  0  0  0
  7  8  1  0  0  0  0
  7 14  1  0  0  0  0
  7 32  1  0  0  0  0
  7 33  1  0  0  0  0
  8 11  2  0  0  0  0
  8 17  1  0  0  0  0
  9 10  1  0  0  0  0
  9 12  2  0  0  0  0
  9 16  1  0  0  0  0
 11 34  1  0  0  0  0
 12 15  1  0  0  0  0
 13 15  2  0  0  0  0
 14 20  1  0  0  0  0
 14 35  1  0  0  0  0
 14 36  1  0  0  0  0
 15 37  1  0  0  0  0
 16 19  1  0  0  0  0
 17 38  1  0  0  0  0
 17 39  1  0  0  0  0
 17 40  1  0  0  0  0
 18 19  2  0  0  0  0
 18 21  1  0  0  0  0
 19 41  1  0  0  0  0
 20 22  2  0  0  0  0
 20 42  1  0  0  0  0
 21 23  2  0  0  0  0
 21 24  1  0  0  0  0
 22 25  1  0  0  0  0
 22 26  1  0  0  0  0
 23 27  1  0  0  0  0
 23 45  1  0  0  0  0
 24 28  2  0  0  0  0
 24 46  1  0  0  0  0
 25 47  1  0  0  0  0
 25 48  1  0  0  0  0
 25 49  1  0  0  0  0
 26 50  1  0  0  0  0
 26 51  1  0  0  0  0
 26 52  1  0  0  0  0
 27 29  2  0  0  0  0
 27 53  1  0  0  0  0
 28 29  1  0  0  0  0
 28 54  1  0  0  0  0
 29 55  1  0  0  0  0
M  END
> <PUBCHEM_COMPOUND_CID>
5281943

> <PUBCHEM_CONFORMER_RMSD>
0.8

> <PUBCHEM_CONFORMER_DIVERSEORDER>
1
74
214
164
70
128
146
58
22
182
98
141
223
179
26
86
43
163
119
109
230
41
174
60
9
69
48
39
16
132
94
32
231
215
157
78
105
135
160
56
96
68
178
234
91
208
18
110
12
207
200
33
89
222
189
216
167
118
10
104
14
213
107
63
196
57
42
73
180
138
176
121
183
126
151
166
219
150
172
130
185
199
67
168
131
15
5
129
61
203
173
211
25
45
140
64
112
4
236
156
65
37
212
49
170
192
24
227
19
144
82
97
154
221
46
136
30
120
13
34
197
2
187
122
11
220
62
218
117
205
35
210
102
17
127
158
153
116
159
23
7
237
28
92
133
81
66
169
54
224
148
124
90
186
47
152
36
52
20
29
181
115
59
3
232
125
101
123
134
171
229
27
139
145
71
149
103
38
106
201
228
206
85
226
44
198
137
100
165
72
188
202
93
195
53
209
191
143
111
77
204
147
175
162
83
155
99
217
177
225
190
79
235
21
193
114
95
108
76
75
184
8
51
6
113
142
194
31
233
55
88
40
80
161
50
87
84

> <PUBCHEM_MMFF94_PARTIAL_CHARGES>
40
1 -0.16
10 0.08
11 -0.29
12 0.08
13 0.08
14 0.14
15 -0.15
16 0.47
17 0.14
18 0.05
19 -0.14
2 -0.53
20 -0.29
21 0.03
22 -0.28
23 -0.15
24 -0.15
25 0.14
26 0.14
27 -0.15
28 -0.15
29 -0.15
3 -0.53
34 0.15
37 0.15
4 -0.57
41 0.15
42 0.15
43 0.45
44 0.45
45 0.15
46 0.15
5 -0.14
53 0.15
54 0.15
55 0.15
6 0.28
7 0.14
8 -0.28
9 0.09

> <PUBCHEM_EFFECTIVE_ROTOR_COUNT>
6

> <PUBCHEM_PHARMACOPHORE_FEATURES>
10
1 1 acceptor
1 17 hydrophobe
1 2 donor
1 3 donor
1 4 acceptor
3 22 25 26 hydrophobe
4 7 8 14 20 hydrophobe
6 1 9 12 16 18 19 rings
6 21 23 24 27 28 29 rings
6 5 9 10 12 13 15 rings

> <PUBCHEM_HEAVY_ATOM_COUNT>
29

> <PUBCHEM_ATOM_DEF_STEREO_COUNT>
0

> <PUBCHEM_ATOM_UDEF_STEREO_COUNT>
0

> <PUBCHEM_BOND_DEF_STEREO_COUNT>
1

> <PUBCHEM_BOND_UDEF_STEREO_COUNT>
0

> <PUBCHEM_ISOTOPIC_ATOM_COUNT>
0

> <PUBCHEM_COMPONENT_COUNT>
1

> <PUBCHEM_CACTVS_TAUTO_COUNT>
12

> <PUBCHEM_CONFORMER_ID>
0050989700000001

> <PUBCHEM_MMFF94_ENERGY>
75.0596

> <PUBCHEM_FEATURE_SELFOVERLAP>
50.777

> <PUBCHEM_SHAPE_FINGERPRINT>
10554248 39 16702297980479146374
11524674 6 17240205460390100383
11578080 2 17823145519232068648
117089 54 17980476768286788587
12522641 33 18051986015834888061
12633257 1 15503211151363474327
12788726 201 18200888360459885929
12969540 114 16559033783593976744
13782708 43 17676213454805326662
13911987 19 16487256577621281561
13947920 75 18342462525809070746
14068700 675 17967816007423249145
14251757 5 18341619187395245375
14767858 380 17632292376381012212
14840074 17 18413386553339168783
14856354 85 17821723957470448053
14931854 50 17917163702014395495
15183329 4 18411703179557348254
15276724 80 18341615906277192956
15799311 1 18114167666764635822
18603816 31 17458359545077216679
19958102 18 18334862757262311390
21792965 302 17630051446786752910
21796203 349 18052784067411735617
23516275 137 17975104824470619258
23522609 53 18119778453042801736
23559900 14 17968950686111759649
2838139 119 12175617360823505087
397830 11 17531545187143366714
4616759 239 7420071233330025734
5265222 85 18040997293791726974
5326457 24 18335699498712163094
54039377 194 18342730777119787379
6437827 68 18187648050208120246
999808 66 18129932404707749619

> <PUBCHEM_SHAPE_MULTIPOLES>
573.33
15.39
3.04
1.81
17.66
0.98
-0.63
6.64
2.98
-3.59
1.52
-0.66
0
-1.38

> <PUBCHEM_SHAPE_SELFOVERLAP>
1228.344

> <PUBCHEM_SHAPE_VOLUME>
316.4

> <PUBCHEM_COORDINATE_TYPE>
2
5
10

$$$$

