442493
  -OEChem-07051212583D

 84 89  0     1  0  0  0  0  0999 V2000
    3.5677    2.6997    0.6461 O   0  0  0  0  0  0  0  0  0  0  0  0
   -6.4635   -2.7314   -1.5274 O   0  0  0  0  0  0  0  0  0  0  0  0
    5.0785   -0.2153   -0.5074 N   0  0  2  0  0  0  0  0  0  0  0  0
    0.6547    1.3734    1.2056 N   0  0  0  0  0  0  0  0  0  0  0  0
   -5.1028   -1.0092   -0.7514 N   0  0  0  0  0  0  0  0  0  0  0  0
    2.8814   -1.1558   -1.2084 C   0  0  2  0  0  0  0  0  0  0  0  0
    2.1887   -1.2980    0.1732 C   0  0  1  0  0  0  0  0  0  0  0  0
    3.3154    1.3585   -1.4143 C   0  0  1  0  0  0  0  0  0  0  0  0
    4.4180   -1.3726   -1.1531 C   0  0  2  0  0  0  0  0  0  0  0  0
    2.5336    0.1483   -1.9409 C   0  0  0  0  0  0  0  0  0  0  0  0
    2.6169    2.0518   -0.2017 C   0  0  1  0  0  0  0  0  0  0  0  0
    2.5490   -2.6580    0.8021 C   0  0  0  0  0  0  0  0  0  0  0  0
    2.4602   -0.1694    1.1772 C   0  0  0  0  0  0  0  0  0  0  0  0
    4.7001   -2.7409   -0.4931 C   0  0  0  0  0  0  0  0  0  0  0  0
    4.8129    1.0090   -1.2765 C   0  0  0  0  0  0  0  0  0  0  0  0
    4.0635   -2.8874    0.8936 C   0  0  2  0  0  0  0  0  0  0  0  0
    1.8265    1.1303    0.7306 C   0  0  0  0  0  0  0  0  0  0  0  0
    1.7060    3.1691   -0.7454 C   0  0  0  0  0  0  0  0  0  0  0  0
   -2.1022    1.0863    0.4990 C   0  0  1  0  0  0  0  0  0  0  0  0
   -0.0984    2.5775    0.8738 C   0  0  1  0  0  0  0  0  0  0  0  0
   -3.1640    0.5636   -0.5007 C   0  0  1  0  0  0  0  0  0  0  0  0
    0.7852    3.6956    0.3410 C   0  0  0  0  0  0  0  0  0  0  0  0
   -1.2190    2.1894   -0.0887 C   0  0  0  0  0  0  0  0  0  0  0  0
   -4.0429   -0.5238    0.1642 C   0  0  1  0  0  0  0  0  0  0  0  0
   -2.7269    1.5526    1.8235 C   0  0  0  0  0  0  0  0  0  0  0  0
   -3.6104    0.4858    2.4854 C   0  0  1  0  0  0  0  0  0  0  0  0
   -4.6529   -0.0546    1.4986 C   0  0  0  0  0  0  0  0  0  0  0  0
   -4.0268    1.6683   -1.1360 C   0  0  0  0  0  0  0  0  0  0  0  0
    4.3588   -4.2701    1.4751 C   0  0  0  0  0  0  0  0  0  0  0  0
    6.5251   -0.3908   -0.3610 C   0  0  0  0  0  0  0  0  0  0  0  0
   -5.0381    1.0643   -2.1056 C   0  0  0  0  0  0  0  0  0  0  0  0
   -5.9049    0.0169   -1.4243 C   0  0  0  0  0  0  0  0  0  0  0  0
   -2.7787   -0.6405    3.1057 C   0  0  0  0  0  0  0  0  0  0  0  0
   -5.4852   -2.3496   -0.8792 C   0  0  0  0  0  0  0  0  0  0  0  0
   -4.6253   -3.3732   -0.1797 C   0  0  0  0  0  0  0  0  0  0  0  0
    2.4716   -1.9645   -1.8330 H   0  0  0  0  0  0  0  0  0  0  0  0
    1.1046   -1.3114   -0.0118 H   0  0  0  0  0  0  0  0  0  0  0  0
    3.3023    2.0998   -2.2284 H   0  0  0  0  0  0  0  0  0  0  0  0
    4.7877   -1.4465   -2.1867 H   0  0  0  0  0  0  0  0  0  0  0  0
    1.4524    0.3297   -1.9267 H   0  0  0  0  0  0  0  0  0  0  0  0
    2.7963    0.0144   -2.9998 H   0  0  0  0  0  0  0  0  0  0  0  0
    2.0956   -2.7449    1.7974 H   0  0  0  0  0  0  0  0  0  0  0  0
    2.0981   -3.4537    0.1932 H   0  0  0  0  0  0  0  0  0  0  0  0
    3.5179   -0.0153    1.3902 H   0  0  0  0  0  0  0  0  0  0  0  0
    2.0072   -0.4345    2.1426 H   0  0  0  0  0  0  0  0  0  0  0  0
    5.7761   -2.9403   -0.4419 H   0  0  0  0  0  0  0  0  0  0  0  0
    4.2990   -3.5243   -1.1521 H   0  0  0  0  0  0  0  0  0  0  0  0
    5.2324    0.8980   -2.2876 H   0  0  0  0  0  0  0  0  0  0  0  0
    5.3431    1.8622   -0.8366 H   0  0  0  0  0  0  0  0  0  0  0  0
    4.5028   -2.1460    1.5716 H   0  0  0  0  0  0  0  0  0  0  0  0
    1.1111    2.8127   -1.5938 H   0  0  0  0  0  0  0  0  0  0  0  0
    2.3172    4.0040   -1.1121 H   0  0  0  0  0  0  0  0  0  0  0  0
   -1.4611    0.2226    0.7188 H   0  0  0  0  0  0  0  0  0  0  0  0
   -0.5224    2.9805    1.7980 H   0  0  0  0  0  0  0  0  0  0  0  0
   -2.6206    0.0806   -1.3268 H   0  0  0  0  0  0  0  0  0  0  0  0
    1.3856    4.1128    1.1596 H   0  0  0  0  0  0  0  0  0  0  0  0
    0.1737    4.5177   -0.0486 H   0  0  0  0  0  0  0  0  0  0  0  0
   -0.8055    1.8322   -1.0391 H   0  0  0  0  0  0  0  0  0  0  0  0
   -1.8130    3.0837   -0.3098 H   0  0  0  0  0  0  0  0  0  0  0  0
   -3.3774   -1.3615    0.3885 H   0  0  0  0  0  0  0  0  0  0  0  0
   -3.3290    2.4534    1.6493 H   0  0  0  0  0  0  0  0  0  0  0  0
   -1.9661    1.8279    2.5591 H   0  0  0  0  0  0  0  0  0  0  0  0
   -4.1516    0.9664    3.3115 H   0  0  0  0  0  0  0  0  0  0  0  0
   -5.2133   -0.8774    1.9602 H   0  0  0  0  0  0  0  0  0  0  0  0
   -5.3903    0.7366    1.3144 H   0  0  0  0  0  0  0  0  0  0  0  0
   -3.4017    2.3716   -1.6963 H   0  0  0  0  0  0  0  0  0  0  0  0
   -4.5534    2.2471   -0.3693 H   0  0  0  0  0  0  0  0  0  0  0  0
    3.9491   -5.0655    0.8434 H   0  0  0  0  0  0  0  0  0  0  0  0
    5.4384   -4.4306    1.5641 H   0  0  0  0  0  0  0  0  0  0  0  0
    3.9217   -4.3720    2.4741 H   0  0  0  0  0  0  0  0  0  0  0  0
    6.9864    0.5171    0.0454 H   0  0  0  0  0  0  0  0  0  0  0  0
    7.0121   -0.6234   -1.3146 H   0  0  0  0  0  0  0  0  0  0  0  0
    6.7581   -1.1809    0.3591 H   0  0  0  0  0  0  0  0  0  0  0  0
    4.1672    2.0290    1.0130 H   0  0  0  0  0  0  0  0  0  0  0  0
   -5.6709    1.8555   -2.5229 H   0  0  0  0  0  0  0  0  0  0  0  0
   -4.5021    0.6042   -2.9453 H   0  0  0  0  0  0  0  0  0  0  0  0
   -6.5489    0.4815   -0.6693 H   0  0  0  0  0  0  0  0  0  0  0  0
   -6.5676   -0.4405   -2.1664 H   0  0  0  0  0  0  0  0  0  0  0  0
   -2.1954   -1.1916    2.3630 H   0  0  0  0  0  0  0  0  0  0  0  0
   -2.0798   -0.2391    3.8474 H   0  0  0  0  0  0  0  0  0  0  0  0
   -3.4277   -1.3585    3.6185 H   0  0  0  0  0  0  0  0  0  0  0  0
   -5.0324   -4.3731   -0.3595 H   0  0  0  0  0  0  0  0  0  0  0  0
   -4.6230   -3.1978    0.8991 H   0  0  0  0  0  0  0  0  0  0  0  0
   -3.6070   -3.3449   -0.5765 H   0  0  0  0  0  0  0  0  0  0  0  0
  1 11  1  0  0  0  0
  1 74  1  0  0  0  0
  2 34  2  0  0  0  0
  3  9  1  0  0  0  0
  3 15  1  0  0  0  0
  3 30  1  0  0  0  0
  4 17  2  0  0  0  0
  4 20  1  0  0  0  0
  5 24  1  0  0  0  0
  5 32  1  0  0  0  0
  5 34  1  0  0  0  0
  6  7  1  0  0  0  0
  6  9  1  0  0  0  0
  6 10  1  0  0  0  0
  6 36  1  0  0  0  0
  7 12  1  0  0  0  0
  7 13  1  0  0  0  0
  7 37  1  0  0  0  0
  8 10  1  0  0  0  0
  8 11  1  0  0  0  0
  8 15  1  0  0  0  0
  8 38  1  0  0  0  0
  9 14  1  0  0  0  0
  9 39  1  0  0  0  0
 10 40  1  0  0  0  0
 10 41  1  0  0  0  0
 11 17  1  0  0  0  0
 11 18  1  0  0  0  0
 12 16  1  0  0  0  0
 12 42  1  0  0  0  0
 12 43  1  0  0  0  0
 13 17  1  0  0  0  0
 13 44  1  0  0  0  0
 13 45  1  0  0  0  0
 14 16  1  0  0  0  0
 14 46  1  0  0  0  0
 14 47  1  0  0  0  0
 15 48  1  0  0  0  0
 15 49  1  0  0  0  0
 16 29  1  0  0  0  0
 16 50  1  0  0  0  0
 18 22  1  0  0  0  0
 18 51  1  0  0  0  0
 18 52  1  0  0  0  0
 19 21  1  0  0  0  0
 19 23  1  0  0  0  0
 19 25  1  0  0  0  0
 19 53  1  0  0  0  0
 20 22  1  0  0  0  0
 20 23  1  0  0  0  0
 20 54  1  0  0  0  0
 21 24  1  0  0  0  0
 21 28  1  0  0  0  0
 21 55  1  0  0  0  0
 22 56  1  0  0  0  0
 22 57  1  0  0  0  0
 23 58  1  0  0  0  0
 23 59  1  0  0  0  0
 24 27  1  0  0  0  0
 24 60  1  0  0  0  0
 25 26  1  0  0  0  0
 25 61  1  0  0  0  0
 25 62  1  0  0  0  0
 26 27  1  0  0  0  0
 26 33  1  0  0  0  0
 26 63  1  0  0  0  0
 27 64  1  0  0  0  0
 27 65  1  0  0  0  0
 28 31  1  0  0  0  0
 28 66  1  0  0  0  0
 28 67  1  0  0  0  0
 29 68  1  0  0  0  0
 29 69  1  0  0  0  0
 29 70  1  0  0  0  0
 30 71  1  0  0  0  0
 30 72  1  0  0  0  0
 30 73  1  0  0  0  0
 31 32  1  0  0  0  0
 31 75  1  0  0  0  0
 31 76  1  0  0  0  0
 32 77  1  0  0  0  0
 32 78  1  0  0  0  0
 33 79  1  0  0  0  0
 33 80  1  0  0  0  0
 33 81  1  0  0  0  0
 34 35  1  0  0  0  0
 35 82  1  0  0  0  0
 35 83  1  0  0  0  0
 35 84  1  0  0  0  0
M  END
> <PUBCHEM_COMPOUND_CID>
442493

> <PUBCHEM_CONFORMER_RMSD>
1

> <PUBCHEM_CONFORMER_DIVERSEORDER>
1
6
4
2
7
3
5

> <PUBCHEM_MMFF94_PARTIAL_CHARGES>
17
1 -0.68
11 0.34
13 0.06
15 0.27
17 0.33
2 -0.57
20 0.25
24 0.3
3 -0.81
30 0.27
32 0.3
34 0.57
35 0.06
4 -0.7
5 -0.66
74 0.4
9 0.27

> <PUBCHEM_EFFECTIVE_ROTOR_COUNT>
6.6

> <PUBCHEM_PHARMACOPHORE_FEATURES>
11
1 1 acceptor
1 1 donor
1 2 acceptor
1 3 cation
1 4 acceptor
6 19 21 24 25 26 27 rings
6 3 6 8 9 10 15 rings
6 4 11 17 18 20 22 rings
6 5 21 24 28 31 32 rings
6 6 7 9 12 14 16 rings
7 6 7 8 10 11 13 17 rings

> <PUBCHEM_HEAVY_ATOM_COUNT>
35

> <PUBCHEM_ATOM_DEF_STEREO_COUNT>
11

> <PUBCHEM_ATOM_UDEF_STEREO_COUNT>
0

> <PUBCHEM_BOND_DEF_STEREO_COUNT>
0

> <PUBCHEM_BOND_UDEF_STEREO_COUNT>
0

> <PUBCHEM_ISOTOPIC_ATOM_COUNT>
0

> <PUBCHEM_COMPONENT_COUNT>
1

> <PUBCHEM_CACTVS_TAUTO_COUNT>
1

> <PUBCHEM_CONFORMER_ID>
0006C07D00000001

> <PUBCHEM_MMFF94_ENERGY>
98.0651

> <PUBCHEM_FEATURE_SELFOVERLAP>
56.766

> <PUBCHEM_SHAPE_FINGERPRINT>
10622 236 18187654587475255863
10928967 22 18338218458038918907
11135926 11 18200014223489513796
11315621 136 18263926549083109077
11991303 11 17334483914302449004
131258 38 16595930963208722015
13383661 66 17405130843421951323
13560911 43 18411143498359005811
14068700 675 18054804033390883738
14705955 166 4967623749856894067
14910302 57 18271822219813891893
15361156 5 18131061624466303221
19315092 285 17894634729497260456
20028762 73 18260543425315161734
20775438 99 17978815431838946435
20775530 9 18128803326123706634
208703 8 17967526865819275759
21033650 10 17704080633336962477
21223535 225 16056329447907745423
21458453 9 14563113371980649974
21703447 108 17822864061114032401
22393880 68 18272098184141735605
23559900 14 18410587175666255197
25222932 49 18189341186265839358
2838139 119 11743828145527158900
3882209 13 16911182275209693514
4017518 198 16177923622943502782
4280585 95 18197231440652327906
4394409 98 17838073837657686759
439807 62 18412826859472254647
46194498 28 16915352451945524685
463206 1 18339629079801268426
508706 21 17418091005825711841
6669772 16 18265051324410874064
6697151 62 17677636223601319917
7808743 9 9798533742092831636

> <PUBCHEM_SHAPE_MULTIPOLES>
693.6
15.1
4.4
2.14
7.22
1.75
0.79
10.49
-5.57
-2.47
0.52
2.26
0.18
-1.86

> <PUBCHEM_SHAPE_SELFOVERLAP>
1465.905

> <PUBCHEM_SHAPE_VOLUME>
378.8

> <PUBCHEM_COORDINATE_TYPE>
2
5
10

$$$$

