17617
  -OEChem-07051213033D

 34 34  0     0  0  0  0  0  0999 V2000
   -2.7175    0.2730    0.0270 O   0  0  0  0  0  0  0  0  0  0  0  0
   -1.8132   -1.7765    0.5790 O   0  0  0  0  0  0  0  0  0  0  0  0
    2.1046   -0.2000   -0.3669 C   0  0  0  0  0  0  0  0  0  0  0  0
    2.3638    1.0243    0.5216 C   0  0  0  0  0  0  0  0  0  0  0  0
    3.2755   -1.1889   -0.2896 C   0  0  0  0  0  0  0  0  0  0  0  0
    3.6944    1.6934    0.1851 C   0  0  0  0  0  0  0  0  0  0  0  0
    4.6047   -0.5161   -0.6246 C   0  0  0  0  0  0  0  0  0  0  0  0
    4.8546    0.7054    0.2545 C   0  0  0  0  0  0  0  0  0  0  0  0
    0.7952   -0.8827    0.0240 C   0  0  0  0  0  0  0  0  0  0  0  0
   -0.3933    0.0519   -0.1666 C   0  0  0  0  0  0  0  0  0  0  0  0
   -1.6978   -0.6205    0.1962 C   0  0  0  0  0  0  0  0  0  0  0  0
   -4.0255   -0.2200    0.3339 C   0  0  0  0  0  0  0  0  0  0  0  0
   -5.0168    0.8710    0.0984 C   0  0  0  0  0  0  0  0  0  0  0  0
   -6.0288    0.7857   -0.7720 C   0  0  0  0  0  0  0  0  0  0  0  0
    2.0218    0.1416   -1.4082 H   0  0  0  0  0  0  0  0  0  0  0  0
    2.3622    0.7301    1.5788 H   0  0  0  0  0  0  0  0  0  0  0  0
    1.5836    1.7810    0.3953 H   0  0  0  0  0  0  0  0  0  0  0  0
    3.1086   -2.0222   -0.9825 H   0  0  0  0  0  0  0  0  0  0  0  0
    3.3339   -1.6203    0.7180 H   0  0  0  0  0  0  0  0  0  0  0  0
    3.8757    2.5230    0.8779 H   0  0  0  0  0  0  0  0  0  0  0  0
    3.6421    2.1243   -0.8225 H   0  0  0  0  0  0  0  0  0  0  0  0
    4.6047   -0.2134   -1.6789 H   0  0  0  0  0  0  0  0  0  0  0  0
    5.4230   -1.2342   -0.4987 H   0  0  0  0  0  0  0  0  0  0  0  0
    5.7807    1.2012   -0.0574 H   0  0  0  0  0  0  0  0  0  0  0  0
    4.9982    0.3838    1.2934 H   0  0  0  0  0  0  0  0  0  0  0  0
    0.8392   -1.2242    1.0663 H   0  0  0  0  0  0  0  0  0  0  0  0
    0.6521   -1.7812   -0.5901 H   0  0  0  0  0  0  0  0  0  0  0  0
   -0.4538    0.3775   -1.2109 H   0  0  0  0  0  0  0  0  0  0  0  0
   -0.3143    0.9279    0.4835 H   0  0  0  0  0  0  0  0  0  0  0  0
   -4.2396   -1.0955   -0.2904 H   0  0  0  0  0  0  0  0  0  0  0  0
   -4.0634   -0.5158    1.3886 H   0  0  0  0  0  0  0  0  0  0  0  0
   -4.9026    1.7837    0.6773 H   0  0  0  0  0  0  0  0  0  0  0  0
   -6.7177    1.6141   -0.8959 H   0  0  0  0  0  0  0  0  0  0  0  0
   -6.1882   -0.1031   -1.3724 H   0  0  0  0  0  0  0  0  0  0  0  0
  1 11  1  0  0  0  0
  1 12  1  0  0  0  0
  2 11  2  0  0  0  0
  3  4  1  0  0  0  0
  3  5  1  0  0  0  0
  3  9  1  0  0  0  0
  3 15  1  0  0  0  0
  4  6  1  0  0  0  0
  4 16  1  0  0  0  0
  4 17  1  0  0  0  0
  5  7  1  0  0  0  0
  5 18  1  0  0  0  0
  5 19  1  0  0  0  0
  6  8  1  0  0  0  0
  6 20  1  0  0  0  0
  6 21  1  0  0  0  0
  7  8  1  0  0  0  0
  7 22  1  0  0  0  0
  7 23  1  0  0  0  0
  8 24  1  0  0  0  0
  8 25  1  0  0  0  0
  9 10  1  0  0  0  0
  9 26  1  0  0  0  0
  9 27  1  0  0  0  0
 10 11  1  0  0  0  0
 10 28  1  0  0  0  0
 10 29  1  0  0  0  0
 12 13  1  0  0  0  0
 12 30  1  0  0  0  0
 12 31  1  0  0  0  0
 13 14  2  0  0  0  0
 13 32  1  0  0  0  0
 14 33  1  0  0  0  0
 14 34  1  0  0  0  0
M  END
> <PUBCHEM_COMPOUND_CID>
17617

> <PUBCHEM_CONFORMER_RMSD>
0.8

> <PUBCHEM_CONFORMER_DIVERSEORDER>
1
3
71
67
24
91
78
45
29
94
83
35
61
36
96
30
33
73
66
47
27
46
50
89
42
82
5
95
38
43
8
74
57
64
7
90
39
81
4
56
2
16
85
48
62
28
63
25
55
92
37
76
52
9
13
31
12
51
34
18
84
10
14
19
86
87
54
70
80
21
68
17
15
72
44
69
77
41
32
65
60
23
49
88
58
6
53
26
59
75
11
20
40
93
22
79

> <PUBCHEM_MMFF94_PARTIAL_CHARGES>
10
1 -0.43
10 0.06
11 0.66
12 0.42
13 -0.29
14 -0.3
2 -0.57
32 0.15
33 0.15
34 0.15

> <PUBCHEM_EFFECTIVE_ROTOR_COUNT>
7.2

> <PUBCHEM_PHARMACOPHORE_FEATURES>
3
1 14 hydrophobe
1 2 acceptor
6 3 4 5 6 7 8 rings

> <PUBCHEM_HEAVY_ATOM_COUNT>
14

> <PUBCHEM_ATOM_DEF_STEREO_COUNT>
0

> <PUBCHEM_ATOM_UDEF_STEREO_COUNT>
0

> <PUBCHEM_BOND_DEF_STEREO_COUNT>
0

> <PUBCHEM_BOND_UDEF_STEREO_COUNT>
0

> <PUBCHEM_ISOTOPIC_ATOM_COUNT>
0

> <PUBCHEM_COMPONENT_COUNT>
1

> <PUBCHEM_CACTVS_TAUTO_COUNT>
1

> <PUBCHEM_CONFORMER_ID>
000044D100000001

> <PUBCHEM_MMFF94_ENERGY>
9.8645

> <PUBCHEM_FEATURE_SELFOVERLAP>
15.223

> <PUBCHEM_SHAPE_FINGERPRINT>
10014705 185 18411982425619527443
11089746 13 18410017632294202740
11287383 113 18335419045858170851
11471102 20 18259701199244286712
12500047 106 18338234864650426874
12596602 18 14979947069503844157
13081056 2 18411701001892579453
13167372 99 18041836345939772657
13533116 47 17916874645834618274
13675066 3 18060411400694622891
14123238 8 16370727041159283445
14252887 29 12247685997543974496
15048467 5 17988637476778451588
15242439 84 18410849967128922774
15501527 16 18341891879453524889
17834072 33 17967819323280400567
17834072 8 18261104188950400356
17834076 25 17418374701205601469
187816 3 14706928445538798407
200 152 17022621992136364635
20279233 1 18409440376079304378
20300324 65 17168142369242523473
20645477 56 18273778237713558031
20645477 70 17895470427428445070
212847 35 18343862217207075828
22289505 5 18334015016580405628
23402539 116 18410017628516206967
23402655 69 18113336405450050694
23559900 14 18408321086264208978
23590187 90 18408045108666224189
29717793 49 16877936170268378180
300161 21 18113907039374349046
351380 180 18334013899841182505
3545911 37 18410289203055203843
4047638 21 18411980269477373130
42788 4 18409166623548412709
522135 26 18334293189022236054
633830 44 18059014973872695518

> <PUBCHEM_SHAPE_MULTIPOLES>
276.37
13.12
1.42
0.75
12.05
0.03
0.04
4.17
1.81
-0.75
-0.13
0.11
0
0.78

> <PUBCHEM_SHAPE_SELFOVERLAP>
534.13

> <PUBCHEM_SHAPE_VOLUME>
166.2

> <PUBCHEM_COORDINATE_TYPE>
2
5
10

$$$$

