442503
  -OEChem-07051212582D

 26 27  0     1  0  0  0  0  0999 V2000
    5.4804   -1.7623    0.0000 O   0  0  0  0  0  0  0  0  0  0  0  0
    2.0000   -0.7277    0.0000 O   0  0  0  0  0  0  0  0  0  0  0  0
    2.8660    0.7723    0.0000 N   0  0  0  0  0  0  0  0  0  0  0  0
    6.3981    0.7931    0.0000 N   0  0  0  0  0  0  0  0  0  0  0  0
    3.7320    1.2723    0.0000 C   0  0  3  0  0  0  0  0  0  0  0  0
    4.5981    0.7723    0.0000 C   0  0  0  0  0  0  0  0  0  0  0  0
    4.5981   -0.2277    0.0000 C   0  0  0  0  0  0  0  0  0  0  0  0
    3.7320   -0.7277    0.0000 C   0  0  0  0  0  0  0  0  0  0  0  0
    2.8660   -0.2277    0.0000 C   0  0  0  0  0  0  0  0  0  0  0  0
    3.7320    2.2723    0.0000 C   0  0  0  0  0  0  0  0  0  0  0  0
    5.4920   -0.7624    0.0000 C   0  0  0  0  0  0  0  0  0  0  0  0
    5.4920    1.3070    0.0000 C   0  0  0  0  0  0  0  0  0  0  0  0
    6.3981   -0.2485    0.0000 C   0  0  0  0  0  0  0  0  0  0  0  0
    6.3406   -2.2723    0.0000 C   0  0  0  0  0  0  0  0  0  0  0  0
    3.1951    1.5823    0.0000 H   0  0  0  0  0  0  0  0  0  0  0  0
    3.3335   -1.2027    0.0000 H   0  0  0  0  0  0  0  0  0  0  0  0
    4.1306   -1.2027    0.0000 H   0  0  0  0  0  0  0  0  0  0  0  0
    2.3291    1.0823    0.0000 H   0  0  0  0  0  0  0  0  0  0  0  0
    4.3520    2.2723    0.0000 H   0  0  0  0  0  0  0  0  0  0  0  0
    3.7320    2.8923    0.0000 H   0  0  0  0  0  0  0  0  0  0  0  0
    3.1120    2.2723    0.0000 H   0  0  0  0  0  0  0  0  0  0  0  0
    5.4848    1.9269    0.0000 H   0  0  0  0  0  0  0  0  0  0  0  0
    6.9338   -0.5606    0.0000 H   0  0  0  0  0  0  0  0  0  0  0  0
    6.0244   -2.8056    0.0000 H   0  0  0  0  0  0  0  0  0  0  0  0
    6.8740   -2.5885    0.0000 H   0  0  0  0  0  0  0  0  0  0  0  0
    6.6568   -1.7390    0.0000 H   0  0  0  0  0  0  0  0  0  0  0  0
  1 11  1  0  0  0  0
  1 14  1  0  0  0  0
  2  9  2  0  0  0  0
  3  5  1  0  0  0  0
  3  9  1  0  0  0  0
  3 18  1  0  0  0  0
  4 12  1  0  0  0  0
  4 13  2  0  0  0  0
  5  6  1  0  0  0  0
  5 10  1  0  0  0  0
  5 15  1  0  0  0  0
  6  7  1  0  0  0  0
  6 12  2  0  0  0  0
  7  8  1  0  0  0  0
  7 11  2  0  0  0  0
  8  9  1  0  0  0  0
  8 16  1  0  0  0  0
  8 17  1  0  0  0  0
 10 19  1  0  0  0  0
 10 20  1  0  0  0  0
 10 21  1  0  0  0  0
 11 13  1  0  0  0  0
 12 22  1  0  0  0  0
 13 23  1  0  0  0  0
 14 24  1  0  0  0  0
 14 25  1  0  0  0  0
 14 26  1  0  0  0  0
M  END
> <PUBCHEM_COMPOUND_CID>
442503

> <PUBCHEM_COMPOUND_CANONICALIZED>
1

> <PUBCHEM_CACTVS_COMPLEXITY>
232

> <PUBCHEM_CACTVS_HBOND_ACCEPTOR>
3

> <PUBCHEM_CACTVS_HBOND_DONOR>
1

> <PUBCHEM_CACTVS_ROTATABLE_BOND>
1

> <PUBCHEM_CACTVS_SUBSKEYS>
AAADccBzMAAAAAAAAAAAAAAAAAAAAAAAAAAsWAAAAAAAAACxgAAAHgAQAAAADCzBmgYuhpLIFACoAhF3VASCiCAxYCAA2KEvTJgOJnLE9ZuFMChk1hHY6Ae6CQAegAAAAAAAAAAAAAAAAAAAAAAAAAAAAA==

> <PUBCHEM_IUPAC_OPENEYE_NAME>
5-methoxy-1-methyl-2,4-dihydro-1H-2,7-naphthyridin-3-one

> <PUBCHEM_IUPAC_CAS_NAME>
5-methoxy-1-methyl-2,4-dihydro-1H-2,7-naphthyridin-3-one

> <PUBCHEM_IUPAC_NAME>
5-methoxy-1-methyl-2,4-dihydro-1H-2,7-naphthyridin-3-one

> <PUBCHEM_IUPAC_SYSTEMATIC_NAME>
5-methoxy-1-methyl-2,4-dihydro-1H-2,7-naphthyridin-3-one

> <PUBCHEM_IUPAC_TRADITIONAL_NAME>
5-methoxy-1-methyl-2,4-dihydro-1H-2,7-naphthyridin-3-one

> <PUBCHEM_IUPAC_INCHI>
InChI=1S/C10H12N2O2/c1-6-8-4-11-5-9(14-2)7(8)3-10(13)12-6/h4-6H,3H2,1-2H3,(H,12,13)

> <PUBCHEM_IUPAC_INCHIKEY>
JSJALGZAHYXCKU-UHFFFAOYSA-N

> <PUBCHEM_XLOGP3_AA>
0

> <PUBCHEM_EXACT_MASS>
192.089878

> <PUBCHEM_MOLECULAR_FORMULA>
C10H12N2O2

> <PUBCHEM_MOLECULAR_WEIGHT>
192.21448

> <PUBCHEM_OPENEYE_CAN_SMILES>
CC1C2=CN=CC(=C2CC(=O)N1)OC

> <PUBCHEM_OPENEYE_ISO_SMILES>
CC1C2=CN=CC(=C2CC(=O)N1)OC

> <PUBCHEM_CACTVS_TPSA>
51.2

> <PUBCHEM_MONOISOTOPIC_WEIGHT>
192.089878

> <PUBCHEM_TOTAL_CHARGE>
0

> <PUBCHEM_HEAVY_ATOM_COUNT>
14

> <PUBCHEM_ATOM_DEF_STEREO_COUNT>
0

> <PUBCHEM_ATOM_UDEF_STEREO_COUNT>
1

> <PUBCHEM_BOND_DEF_STEREO_COUNT>
0

> <PUBCHEM_BOND_UDEF_STEREO_COUNT>
0

> <PUBCHEM_ISOTOPIC_ATOM_COUNT>
0

> <PUBCHEM_COMPONENT_COUNT>
1

> <PUBCHEM_CACTVS_TAUTO_COUNT>
5

> <PUBCHEM_COORDINATE_TYPE>
1
5
255

> <PUBCHEM_BONDANNOTATIONS>
11  13  8
4  12  8
4  13  8
5  10  3
6  12  8
6  7  8
7  11  8

$$$$

