25447
  -OEChem-07051212463D

 36 38  0     1  0  0  0  0  0999 V2000
    2.2132   -0.5237   -0.9322 O   0  0  0  0  0  0  0  0  0  0  0  0
    1.2798    2.3085    1.0747 O   0  0  0  0  0  0  0  0  0  0  0  0
    3.4375    2.2462   -0.5762 O   0  0  0  0  0  0  0  0  0  0  0  0
    4.1568   -2.4460   -0.3081 O   0  0  0  0  0  0  0  0  0  0  0  0
   -4.1389   -1.4004   -0.8923 O   0  0  0  0  0  0  0  0  0  0  0  0
    0.0071   -0.3726   -0.0718 N   0  0  0  0  0  0  0  0  0  0  0  0
   -1.2659   -2.0808    0.5754 N   0  0  0  0  0  0  0  0  0  0  0  0
   -1.6212    1.2969   -0.5550 N   0  0  0  0  0  0  0  0  0  0  0  0
   -4.0431    1.3948   -0.1472 N   0  0  0  0  0  0  0  0  0  0  0  0
    1.2213    0.3728   -0.3959 C   0  0  1  0  0  0  0  0  0  0  0  0
    1.8685    1.0536    0.8004 C   0  0  1  0  0  0  0  0  0  0  0  0
    3.3098    1.1613    0.3428 C   0  0  1  0  0  0  0  0  0  0  0  0
    3.5099   -0.1490   -0.4123 C   0  0  1  0  0  0  0  0  0  0  0  0
    4.0139   -1.2761    0.4782 C   0  0  0  0  0  0  0  0  0  0  0  0
   -1.2836    0.0630   -0.1395 C   0  0  0  0  0  0  0  0  0  0  0  0
   -2.0559   -1.0019    0.2580 C   0  0  0  0  0  0  0  0  0  0  0  0
   -0.0330   -1.6692    0.3670 C   0  0  0  0  0  0  0  0  0  0  0  0
   -3.5358   -1.0398    0.3483 C   0  0  1  0  0  0  0  0  0  0  0  0
   -4.1244    0.2932    0.8223 C   0  0  0  0  0  0  0  0  0  0  0  0
   -2.9161    1.7690   -0.6368 C   0  0  0  0  0  0  0  0  0  0  0  0
    0.9714    1.0830   -1.1915 H   0  0  0  0  0  0  0  0  0  0  0  0
    1.8070    0.4293    1.7000 H   0  0  0  0  0  0  0  0  0  0  0  0
    4.0235    1.3255    1.1550 H   0  0  0  0  0  0  0  0  0  0  0  0
    4.1728   -0.0299   -1.2769 H   0  0  0  0  0  0  0  0  0  0  0  0
    3.3050   -1.5008    1.2813 H   0  0  0  0  0  0  0  0  0  0  0  0
    4.9857   -1.0248    0.9141 H   0  0  0  0  0  0  0  0  0  0  0  0
    0.8565   -2.2646    0.5215 H   0  0  0  0  0  0  0  0  0  0  0  0
    0.3455    2.1536    1.2942 H   0  0  0  0  0  0  0  0  0  0  0  0
    3.1939    3.0580   -0.0993 H   0  0  0  0  0  0  0  0  0  0  0  0
   -3.8192   -1.8084    1.0779 H   0  0  0  0  0  0  0  0  0  0  0  0
   -0.9000    1.9218   -0.9059 H   0  0  0  0  0  0  0  0  0  0  0  0
   -5.1927    0.1406    1.0185 H   0  0  0  0  0  0  0  0  0  0  0  0
   -3.6747    0.6087    1.7723 H   0  0  0  0  0  0  0  0  0  0  0  0
    4.4809   -3.1492    0.2802 H   0  0  0  0  0  0  0  0  0  0  0  0
   -2.9396    2.6607   -1.2858 H   0  0  0  0  0  0  0  0  0  0  0  0
   -3.8018   -2.2791   -1.1380 H   0  0  0  0  0  0  0  0  0  0  0  0
  1 10  1  0  0  0  0
  1 13  1  0  0  0  0
  2 11  1  0  0  0  0
  2 28  1  0  0  0  0
  3 12  1  0  0  0  0
  3 29  1  0  0  0  0
  4 14  1  0  0  0  0
  4 34  1  0  0  0  0
  5 18  1  0  0  0  0
  5 36  1  0  0  0  0
  6 10  1  0  0  0  0
  6 15  1  0  0  0  0
  6 17  1  0  0  0  0
  7 16  1  0  0  0  0
  7 17  2  0  0  0  0
  8 15  1  0  0  0  0
  8 20  1  0  0  0  0
  8 31  1  0  0  0  0
  9 19  1  0  0  0  0
  9 20  2  0  0  0  0
 10 11  1  0  0  0  0
 10 21  1  0  0  0  0
 11 12  1  0  0  0  0
 11 22  1  0  0  0  0
 12 13  1  0  0  0  0
 12 23  1  0  0  0  0
 13 14  1  0  0  0  0
 13 24  1  0  0  0  0
 14 25  1  0  0  0  0
 14 26  1  0  0  0  0
 15 16  2  0  0  0  0
 16 18  1  0  0  0  0
 17 27  1  0  0  0  0
 18 19  1  0  0  0  0
 18 30  1  0  0  0  0
 19 32  1  0  0  0  0
 19 33  1  0  0  0  0
 20 35  1  0  0  0  0
M  END
> <PUBCHEM_COMPOUND_CID>
25447

> <PUBCHEM_CONFORMER_RMSD>
0.6

> <PUBCHEM_CONFORMER_DIVERSEORDER>
1
18
12
9
15
25
21
8
23
6
10
5
24
20
7
19
14
3
13
11
4
22
16
17
2

> <PUBCHEM_MMFF94_PARTIAL_CHARGES>
27
1 -0.56
10 0.54
11 0.28
12 0.28
13 0.28
14 0.28
15 -0.07
16 0.05
17 0.04
18 0.46
19 0.25
2 -0.68
20 0.44
27 0.15
28 0.4
29 0.4
3 -0.68
31 0.4
34 0.4
35 0.06
36 0.4
4 -0.68
5 -0.68
6 0.05
7 -0.57
8 -0.53
9 -0.7

> <PUBCHEM_EFFECTIVE_ROTOR_COUNT>
3.6

> <PUBCHEM_PHARMACOPHORE_FEATURES>
15
1 1 acceptor
1 2 acceptor
1 2 donor
1 3 acceptor
1 3 donor
1 4 acceptor
1 4 donor
1 5 acceptor
1 5 donor
1 8 donor
3 6 7 17 cation
3 8 9 20 cation
5 1 10 11 12 13 rings
5 6 7 15 16 17 rings
7 8 9 15 16 18 19 20 rings

> <PUBCHEM_HEAVY_ATOM_COUNT>
20

> <PUBCHEM_ATOM_DEF_STEREO_COUNT>
5

> <PUBCHEM_ATOM_UDEF_STEREO_COUNT>
0

> <PUBCHEM_BOND_DEF_STEREO_COUNT>
0

> <PUBCHEM_BOND_UDEF_STEREO_COUNT>
0

> <PUBCHEM_ISOTOPIC_ATOM_COUNT>
0

> <PUBCHEM_COMPONENT_COUNT>
1

> <PUBCHEM_CACTVS_TAUTO_COUNT>
2

> <PUBCHEM_CONFORMER_ID>
0000636700000001

> <PUBCHEM_MMFF94_ENERGY>
43.5481

> <PUBCHEM_FEATURE_SELFOVERLAP>
76.173

> <PUBCHEM_SHAPE_FINGERPRINT>
10062212 137 18260275173999397111
10366900 7 18192431857553690488
10498660 4 18201447969261508701
10608611 8 18410294666301395432
10646746 165 18413389847315191397
1100329 8 16608854089635307160
11132069 177 18342177752503269741
11405975 8 18335980951891796929
12403259 226 18410016511698213129
12403259 415 18272089426508370149
12403260 363 18410302410301386519
12670546 56 18271815609178617379
13134695 92 17604443997634069816
13675066 3 18130781257094762771
14866123 147 16893699039742735026
15196674 1 18411981360056122929
15219456 202 18335702728078812988
15442244 35 18411417353904854160
16945 1 18130223757834609091
17802600 8 18410579474404544043
17804303 29 18342171206545764822
18186145 218 18260822717699009433
19049666 15 18410294688039722912
19591789 44 18413107273138524675
200 152 17676212368442143319
20510252 161 18411134706481427049
20645477 70 18040989636150076334
21501502 16 18336547118680699286
23402539 116 18336553784348636556
23493267 7 16845576448152010625
23559900 14 18409168840089134518
3004659 81 17986945453344304094
3286 77 18186807941619269949
335352 9 18267867370323609325
350125 39 18270676597090047805
351380 180 18408890637497708343
4214541 1 18412544327221055476
474 4 16198451015508250740
5104073 3 18411135831403786355
633830 44 17917713504460363955
69090 78 18334297526554485999
7364860 26 18194966481233232387
81228 2 17913215265147604659
9709674 26 18412259515255794014

> <PUBCHEM_SHAPE_MULTIPOLES>
362.32
8.61
2.38
0.89
0.35
0.07
-0.04
-0.67
0.32
-0.88
-0.07
0.03
0.12
0.34

> <PUBCHEM_SHAPE_SELFOVERLAP>
776.474

> <PUBCHEM_SHAPE_VOLUME>
198.6

> <PUBCHEM_COORDINATE_TYPE>
2
5
10

$$$$

