17396296
  -OEChem-06241222553D

 35 37  0     0  0  0  0  0  0999 V2000
    3.4471   -2.5606   -0.6220 Cl  0  0  0  0  0  0  0  0  0  0  0  0
    7.6818    0.1956   -0.8888 F   0  0  0  0  0  0  0  0  0  0  0  0
   -6.1242    0.2998   -0.4265 O   0  0  0  0  0  0  0  0  0  0  0  0
    2.5088   -0.1713    0.9533 O   0  0  0  0  0  0  0  0  0  0  0  0
    0.0152   -0.9198    0.8215 O   0  0  0  0  0  0  0  0  0  0  0  0
   -0.7426    1.1829    0.0754 N   0  0  0  0  0  0  0  0  0  0  0  0
   -4.8983   -1.4706    0.2803 N   0  0  0  0  0  0  0  0  0  0  0  0
   -4.0712   -0.3931    0.0740 C   0  0  0  0  0  0  0  0  0  0  0  0
   -2.1201    1.0047   -0.0680 C   0  0  0  0  0  0  0  0  0  0  0  0
   -4.8181    0.6925   -0.3588 C   0  0  0  0  0  0  0  0  0  0  0  0
   -2.6853   -0.2446    0.2270 C   0  0  0  0  0  0  0  0  0  0  0  0
   -2.9110    2.0754   -0.5027 C   0  0  0  0  0  0  0  0  0  0  0  0
   -4.2949    1.9437   -0.6604 C   0  0  0  0  0  0  0  0  0  0  0  0
   -6.0876   -1.0032   -0.0300 C   0  0  0  0  0  0  0  0  0  0  0  0
    0.2113    0.2464    0.4931 C   0  0  0  0  0  0  0  0  0  0  0  0
    1.6085    0.8267    0.5186 C   0  0  0  0  0  0  0  0  0  0  0  0
    3.7985   -0.1001    0.4832 C   0  0  0  0  0  0  0  0  0  0  0  0
   -7.3804   -1.7036   -0.0034 C   0  0  0  0  0  0  0  0  0  0  0  0
    4.3563   -1.1398   -0.2607 C   0  0  0  0  0  0  0  0  0  0  0  0
    4.5523    1.0396    0.7635 C   0  0  0  0  0  0  0  0  0  0  0  0
    5.6680   -1.0398   -0.7245 C   0  0  0  0  0  0  0  0  0  0  0  0
    5.8641    1.1395    0.2999 C   0  0  0  0  0  0  0  0  0  0  0  0
    6.4219    0.0997   -0.4440 C   0  0  0  0  0  0  0  0  0  0  0  0
   -2.1387   -1.1104    0.5649 H   0  0  0  0  0  0  0  0  0  0  0  0
   -2.4536    3.0373   -0.7266 H   0  0  0  0  0  0  0  0  0  0  0  0
   -4.9154    2.7653   -0.9958 H   0  0  0  0  0  0  0  0  0  0  0  0
   -0.3977    2.1123   -0.1555 H   0  0  0  0  0  0  0  0  0  0  0  0
    1.8528    1.1779   -0.4920 H   0  0  0  0  0  0  0  0  0  0  0  0
    1.6288    1.6697    1.2179 H   0  0  0  0  0  0  0  0  0  0  0  0
   -8.0714   -1.2094    0.6861 H   0  0  0  0  0  0  0  0  0  0  0  0
   -7.8325   -1.7147   -0.9996 H   0  0  0  0  0  0  0  0  0  0  0  0
   -7.2540   -2.7396    0.3251 H   0  0  0  0  0  0  0  0  0  0  0  0
    4.1349    1.8542    1.3490 H   0  0  0  0  0  0  0  0  0  0  0  0
    6.1173   -1.8411   -1.3054 H   0  0  0  0  0  0  0  0  0  0  0  0
    6.4520    2.0256    0.5195 H   0  0  0  0  0  0  0  0  0  0  0  0
  1 19  1  0  0  0  0
  2 23  1  0  0  0  0
  3 10  1  0  0  0  0
  3 14  1  0  0  0  0
  4 16  1  0  0  0  0
  4 17  1  0  0  0  0
  5 15  2  0  0  0  0
  6  9  1  0  0  0  0
  6 15  1  0  0  0  0
  6 27  1  0  0  0  0
  7  8  1  0  0  0  0
  7 14  2  0  0  0  0
  8 10  2  0  0  0  0
  8 11  1  0  0  0  0
  9 11  2  0  0  0  0
  9 12  1  0  0  0  0
 10 13  1  0  0  0  0
 11 24  1  0  0  0  0
 12 13  2  0  0  0  0
 12 25  1  0  0  0  0
 13 26  1  0  0  0  0
 14 18  1  0  0  0  0
 15 16  1  0  0  0  0
 16 28  1  0  0  0  0
 16 29  1  0  0  0  0
 17 19  2  0  0  0  0
 17 20  1  0  0  0  0
 18 30  1  0  0  0  0
 18 31  1  0  0  0  0
 18 32  1  0  0  0  0
 19 21  1  0  0  0  0
 20 22  2  0  0  0  0
 20 33  1  0  0  0  0
 21 23  2  0  0  0  0
 21 34  1  0  0  0  0
 22 23  1  0  0  0  0
 22 35  1  0  0  0  0
M  END
> <PUBCHEM_COMPOUND_CID>
17396296

> <PUBCHEM_CONFORMER_RMSD>
0.8

> <PUBCHEM_CONFORMER_DIVERSEORDER>
1
47
62
37
93
129
70
68
74
77
66
61
35
42
84
51
5
65
14
4
126
67
49
12
17
26
103
125
45
3
132
46
83
117
134
76
118
99
60
2
16
124
40
50
58
81
106
138
96
9
75
97
102
95
120
137
56
107
28
32
80
19
94
41
116
100
78
123
24
21
44
43
92
23
104
20
6
34
108
87
33
18
105
89
63
82
79
130
115
53
122
38
72
59
85
15
131
10
86
91
101
128
119
71
121
127
88
113
7
90
48
54
22
30
98
73
64
29
110
135
111
13
133
136
31
27
52
112
55
8
109
36
39
57
25
69
114
11

> <PUBCHEM_MMFF94_PARTIAL_CHARGES>
30
1 -0.18
10 0.14
11 -0.15
12 -0.15
13 -0.15
14 0.3
15 0.57
16 0.34
17 0.08
18 0.18
19 0.18
2 -0.19
20 -0.15
21 -0.15
22 -0.15
23 0.19
24 0.15
25 0.15
26 0.15
27 0.37
3 -0.28
33 0.15
34 0.15
35 0.15
4 -0.36
5 -0.57
6 -0.55
7 -0.57
8 0.23
9 0.12

> <PUBCHEM_EFFECTIVE_ROTOR_COUNT>
5

> <PUBCHEM_PHARMACOPHORE_FEATURES>
6
1 4 acceptor
1 5 acceptor
1 6 donor
5 3 7 8 10 14 rings
6 17 19 20 21 22 23 rings
6 8 9 10 11 12 13 rings

> <PUBCHEM_HEAVY_ATOM_COUNT>
23

> <PUBCHEM_ATOM_DEF_STEREO_COUNT>
0

> <PUBCHEM_ATOM_UDEF_STEREO_COUNT>
0

> <PUBCHEM_BOND_DEF_STEREO_COUNT>
0

> <PUBCHEM_BOND_UDEF_STEREO_COUNT>
0

> <PUBCHEM_ISOTOPIC_ATOM_COUNT>
0

> <PUBCHEM_COMPONENT_COUNT>
1

> <PUBCHEM_CACTVS_TAUTO_COUNT>
2

> <PUBCHEM_CONFORMER_ID>
0109724800000001

> <PUBCHEM_MMFF94_ENERGY>
57.8695

> <PUBCHEM_FEATURE_SELFOVERLAP>
30.575

> <PUBCHEM_SHAPE_FINGERPRINT>
10299344 5 17676483938818210779
10595046 47 18201440324145407312
10968037 39 18131071528802558585
11089746 13 10231753370825083273
11315181 36 18408602557410332033
11524674 6 16515405140914034399
11719270 70 18334582391178622218
12166972 35 18410008819343967904
12236239 1 17346605196056527104
125118 31 9583522031505569674
12516196 113 18334297552139654065
12616971 3 14273746130860000593
12730499 353 18260551117648723506
13073987 5 17894912966253142064
13167372 99 12031797984451833622
13288520 33 18411139122272036645
13533116 47 15140674813682155702
13668630 136 17530677715123480854
13685833 64 18333730204524414667
14123256 10 18131350799733228090
14251718 22 18342457053930960560
14461889 52 18339086999726928594
14528608 73 18060420231300390240
14617045 38 18187362125539639886
14933364 13 18408603673273549833
15183329 4 18335701675843402946
15348495 7 8934702410250480252
15352257 5 17894912906081726655
15461852 350 11959720573576980297
15537594 2 17385450933603077054
16993427 108 16267727167883884914
17093844 174 8286198349508483869
17844677 252 18333446560225852944
18335252 98 18410853252663048082
18608769 82 18335703793146774086
18681886 176 18271812284868882937
19427546 20 17917436458471096957
20645477 70 17968093175075516454
21150785 3 17918272034966277780
21267235 1 18271242730357826275
21344244 181 16805591587291523830
21623969 137 17676202485411354142
21774942 28 13254255911693130911
22061861 79 17895194437034930036
221357 26 18335141998935064696
2297311 6 18409449189679353921
23035841 295 18410857663820963827
23081809 10 17060063691271869696
23424782 7 18410011001023037818
23516275 137 17168962578530863063
23559900 14 18340496577844853769
239999 70 18187082876051898374
246663 6 17821723918646521550
2767999 5 15339117944511315124
2838139 119 10447931655435921843
300161 21 13973963195110536072
3004659 81 18202003205089558688
335352 9 18343591746812381693
3472631 163 17060044923219074574
34797466 226 18187641371881881020
351380 3 15864074282119234448
3545911 37 18335422361562269944
4073 2 18272645770522483091
4325135 7 18344145882321591630
46194498 28 18412546492470746068
465052 167 17531245084925128492
497634 4 18337390538937371049
5104073 3 18115594875384909705
53794403 172 17844521116203638428
5385378 56 7204231637219556493
636775 8 18059285471145528747
999808 66 18341604881613550363

> <PUBCHEM_SHAPE_MULTIPOLES>
440.36
20.95
1.99
0.84
1.98
0.41
0
4.65
3.43
-0.93
0.33
0.5
-0.02
1.35

> <PUBCHEM_SHAPE_SELFOVERLAP>
952.73

> <PUBCHEM_SHAPE_VOLUME>
243.2

> <PUBCHEM_COORDINATE_TYPE>
2
5
10

$$$$

