440364
  -OEChem-07051212493D

 35 35  0     1  0  0  0  0  0999 V2000
   -0.1556   -2.7415   -0.5631 P   0  0  0  0  0  0  0  0  0  0  0  0
    1.2429   -0.1637    0.9969 O   0  0  0  0  0  0  0  0  0  0  0  0
   -0.3986    3.1845   -0.7739 O   0  0  0  0  0  0  0  0  0  0  0  0
   -0.0735   -1.1360   -0.7136 O   0  0  0  0  0  0  0  0  0  0  0  0
    2.3728    2.5450   -1.2296 O   0  0  0  0  0  0  0  0  0  0  0  0
    3.9120   -0.7363    1.0468 O   0  0  0  0  0  0  0  0  0  0  0  0
   -3.1825    0.7795    1.7431 O   0  0  0  0  0  0  0  0  0  0  0  0
   -1.4543   -2.9761    0.3715 O   0  0  0  0  0  0  0  0  0  0  0  0
    1.0798   -3.0671    0.4282 O   0  0  0  0  0  0  0  0  0  0  0  0
   -0.1491   -3.5042   -1.8557 O   0  0  0  0  0  0  0  0  0  0  0  0
   -2.0692    0.8607   -0.2998 N   0  0  0  0  0  0  0  0  0  0  0  0
   -0.7267    1.0146    0.2118 C   0  0  2  0  0  0  0  0  0  0  0  0
    0.1345    1.8594   -0.7307 C   0  0  2  0  0  0  0  0  0  0  0  0
    1.5777    1.9263   -0.2212 C   0  0  1  0  0  0  0  0  0  0  0  0
    2.1196    0.5288    0.1015 C   0  0  1  0  0  0  0  0  0  0  0  0
   -0.0752   -0.3467    0.4745 C   0  0  2  0  0  0  0  0  0  0  0  0
    3.4889    0.5866    0.7734 C   0  0  0  0  0  0  0  0  0  0  0  0
   -3.1842    0.7561    0.5151 C   0  0  0  0  0  0  0  0  0  0  0  0
   -4.4591    0.6302   -0.2751 C   0  0  0  0  0  0  0  0  0  0  0  0
   -0.8001    1.5470    1.1703 H   0  0  0  0  0  0  0  0  0  0  0  0
    0.1048    1.4730   -1.7565 H   0  0  0  0  0  0  0  0  0  0  0  0
    1.6249    2.5617    0.6724 H   0  0  0  0  0  0  0  0  0  0  0  0
    2.2248   -0.0656   -0.8159 H   0  0  0  0  0  0  0  0  0  0  0  0
   -0.6501   -0.8599    1.2521 H   0  0  0  0  0  0  0  0  0  0  0  0
    3.4456    1.1273    1.7247 H   0  0  0  0  0  0  0  0  0  0  0  0
    4.2336    1.0640    0.1300 H   0  0  0  0  0  0  0  0  0  0  0  0
   -2.1877    0.7736   -1.3053 H   0  0  0  0  0  0  0  0  0  0  0  0
   -0.3797    3.5480    0.1277 H   0  0  0  0  0  0  0  0  0  0  0  0
    1.9906    3.4219   -1.4054 H   0  0  0  0  0  0  0  0  0  0  0  0
    3.2388   -1.1497    1.6141 H   0  0  0  0  0  0  0  0  0  0  0  0
   -5.2954    0.4354    0.4018 H   0  0  0  0  0  0  0  0  0  0  0  0
   -4.6471    1.5599   -0.8191 H   0  0  0  0  0  0  0  0  0  0  0  0
   -4.3804   -0.1987   -0.9844 H   0  0  0  0  0  0  0  0  0  0  0  0
   -1.7455   -3.8940    0.5575 H   0  0  0  0  0  0  0  0  0  0  0  0
    1.3082   -4.0035    0.6101 H   0  0  0  0  0  0  0  0  0  0  0  0
  1  4  1  0  0  0  0
  1  8  1  0  0  0  0
  1  9  1  0  0  0  0
  1 10  2  0  0  0  0
  2 15  1  0  0  0  0
  2 16  1  0  0  0  0
  3 13  1  0  0  0  0
  3 28  1  0  0  0  0
  4 16  1  0  0  0  0
  5 14  1  0  0  0  0
  5 29  1  0  0  0  0
  6 17  1  0  0  0  0
  6 30  1  0  0  0  0
  7 18  2  0  0  0  0
  8 34  1  0  0  0  0
  9 35  1  0  0  0  0
 11 12  1  0  0  0  0
 11 18  1  0  0  0  0
 11 27  1  0  0  0  0
 12 13  1  0  0  0  0
 12 16  1  0  0  0  0
 12 20  1  0  0  0  0
 13 14  1  0  0  0  0
 13 21  1  0  0  0  0
 14 15  1  0  0  0  0
 14 22  1  0  0  0  0
 15 17  1  0  0  0  0
 15 23  1  0  0  0  0
 16 24  1  0  0  0  0
 17 25  1  0  0  0  0
 17 26  1  0  0  0  0
 18 19  1  0  0  0  0
 19 31  1  0  0  0  0
 19 32  1  0  0  0  0
 19 33  1  0  0  0  0
M  END
> <PUBCHEM_COMPOUND_CID>
440364

> <PUBCHEM_CONFORMER_RMSD>
0.8

> <PUBCHEM_CONFORMER_DIVERSEORDER>
1
10
4
13
12
2
3
7
8
11
5
9
6

> <PUBCHEM_MMFF94_PARTIAL_CHARGES>
25
1 1.51
10 -0.7
11 -0.73
12 0.3
13 0.28
14 0.28
15 0.28
16 0.56
17 0.28
18 0.57
19 0.06
2 -0.56
27 0.37
28 0.4
29 0.4
3 -0.68
30 0.4
34 0.5
35 0.5
4 -0.55
5 -0.68
6 -0.68
7 -0.57
8 -0.77
9 -0.77

> <PUBCHEM_EFFECTIVE_ROTOR_COUNT>
6.2

> <PUBCHEM_PHARMACOPHORE_FEATURES>
14
1 10 acceptor
1 11 donor
1 2 acceptor
1 3 acceptor
1 3 donor
1 5 acceptor
1 5 donor
1 6 acceptor
1 6 donor
1 7 acceptor
1 8 acceptor
1 9 acceptor
4 1 8 9 10 anion
6 2 12 13 14 15 16 rings

> <PUBCHEM_HEAVY_ATOM_COUNT>
19

> <PUBCHEM_ATOM_DEF_STEREO_COUNT>
5

> <PUBCHEM_ATOM_UDEF_STEREO_COUNT>
0

> <PUBCHEM_BOND_DEF_STEREO_COUNT>
0

> <PUBCHEM_BOND_UDEF_STEREO_COUNT>
0

> <PUBCHEM_ISOTOPIC_ATOM_COUNT>
0

> <PUBCHEM_COMPONENT_COUNT>
1

> <PUBCHEM_CACTVS_TAUTO_COUNT>
2

> <PUBCHEM_CONFORMER_ID>
0006B82C00000001

> <PUBCHEM_MMFF94_ENERGY>
5.202

> <PUBCHEM_FEATURE_SELFOVERLAP>
71.092

> <PUBCHEM_SHAPE_FINGERPRINT>
10756046 70 18272374118536742548
10906281 52 18129367375716148661
11578080 2 17029368367540214377
116883 192 17690850377349649325
12788726 201 17758673352212498303
13140716 1 18340778022518949000
13836976 161 18411426103074905357
14178342 30 18263065743617312897
14617773 55 17907584627209421288
14943834 7 17836084476929667276
15309172 13 18409452509098132753
15502708 68 18262799695508871475
16752209 62 18119250554121550599
16945 1 18272366511864882856
20511035 2 17914881063522933905
20645477 70 18273496780180863285
20871998 184 18198356245680295048
21524375 3 18408043987721918955
22112679 90 18054523417296888304
2334 1 18125158230150078624
2748010 2 18265878212018189639
3060560 45 18410293631356526877
34934 24 18129948875659422552
352729 6 18336536119501621315
465052 167 18059849584564965449
576247 118 17403700812400495651
5845 1 7234028913090333598
589210 1 17761216514001863105
6992083 37 18340210682803008768
7364860 26 17972035009669646867
7832392 63 18197498415967373724
81228 2 17977413562796894746
8272917 22 18337386171340298269
90525 40 18338510816404449443

> <PUBCHEM_SHAPE_MULTIPOLES>
337.06
5.38
3.92
1.21
2.09
3.21
-0.06
-2.2
1.78
-0.34
-1.77
0.02
0.21
-0.7

> <PUBCHEM_SHAPE_SELFOVERLAP>
660.798

> <PUBCHEM_SHAPE_VOLUME>
202.3

> <PUBCHEM_COORDINATE_TYPE>
2
5
10

$$$$

