39031
  -OEChem-07051213012D

 45 47  0     1  0  0  0  0  0999 V2000
    9.2365    0.3382    0.0000 S   0  0  0  0  0  0  0  0  0  0  0  0
    5.1602    2.1590    0.0000 S   0  0  0  0  0  0  0  0  0  0  0  0
    6.5715   -1.6835    0.0000 O   0  0  0  0  0  0  0  0  0  0  0  0
    8.8764   -2.9740    0.0000 O   0  0  0  0  0  0  0  0  0  0  0  0
   10.5236   -2.4388    0.0000 O   0  0  0  0  0  0  0  0  0  0  0  0
    5.3442   -0.4803    0.0000 O   0  0  0  0  0  0  0  0  0  0  0  0
    5.4210    3.1244    0.0000 O   0  0  0  0  0  0  0  0  0  0  0  0
    4.1948    2.4198    0.0000 O   0  0  0  0  0  0  0  0  0  0  0  0
    6.1256    1.8982    0.0000 O   0  0  0  0  0  0  0  0  0  0  0  0
    8.2854   -0.9708    0.0000 N   0  0  0  0  0  0  0  0  0  0  0  0
    6.5715    0.7419    0.0000 N   0  0  0  0  0  0  0  0  0  0  0  0
    8.2854    0.0292    0.0000 C   0  0  1  0  0  0  0  0  0  0  0  0
    9.8242   -0.4708    0.0000 C   0  0  0  0  0  0  0  0  0  0  0  0
    9.2365   -1.2798    0.0000 C   0  0  2  0  0  0  0  0  0  0  0  0
    7.2771    0.0333    0.0000 C   0  0  1  0  0  0  0  0  0  0  0  0
    7.2771   -0.9750    0.0000 C   0  0  0  0  0  0  0  0  0  0  0  0
   10.6333    0.1170    0.0000 C   0  0  0  0  0  0  0  0  0  0  0  0
   10.6333   -1.0586    0.0000 C   0  0  0  0  0  0  0  0  0  0  0  0
    9.5455   -2.2309    0.0000 C   0  0  0  0  0  0  0  0  0  0  0  0
    5.6050    0.4850    0.0000 C   0  0  0  0  0  0  0  0  0  0  0  0
    4.8994    1.1936    0.0000 C   0  0  3  0  0  0  0  0  0  0  0  0
    3.9329    0.9368    0.0000 C   0  0  0  0  0  0  0  0  0  0  0  0
    3.6721   -0.0286    0.0000 C   0  0  0  0  0  0  0  0  0  0  0  0
    3.2273    1.6453    0.0000 C   0  0  0  0  0  0  0  0  0  0  0  0
    2.7056   -0.2855    0.0000 C   0  0  0  0  0  0  0  0  0  0  0  0
    2.2608    1.3885    0.0000 C   0  0  0  0  0  0  0  0  0  0  0  0
    2.0000    0.4231    0.0000 C   0  0  0  0  0  0  0  0  0  0  0  0
    8.1542    0.8690    0.0000 H   0  0  0  0  0  0  0  0  0  0  0  0
    8.7981   -1.7182    0.0000 H   0  0  0  0  0  0  0  0  0  0  0  0
    6.7041   -0.2034    0.0000 H   0  0  0  0  0  0  0  0  0  0  0  0
   10.9977   -0.3846    0.0000 H   0  0  0  0  0  0  0  0  0  0  0  0
   11.1349    0.4814    0.0000 H   0  0  0  0  0  0  0  0  0  0  0  0
   10.2688    0.6186    0.0000 H   0  0  0  0  0  0  0  0  0  0  0  0
   10.2688   -1.5602    0.0000 H   0  0  0  0  0  0  0  0  0  0  0  0
   11.1349   -1.4230    0.0000 H   0  0  0  0  0  0  0  0  0  0  0  0
   10.9977   -0.5570    0.0000 H   0  0  0  0  0  0  0  0  0  0  0  0
    6.7332    1.3404    0.0000 H   0  0  0  0  0  0  0  0  0  0  0  0
    5.7209    1.4119    0.0000 H   0  0  0  0  0  0  0  0  0  0  0  0
    9.0679   -3.5637    0.0000 H   0  0  0  0  0  0  0  0  0  0  0  0
    4.1096   -0.4679    0.0000 H   0  0  0  0  0  0  0  0  0  0  0  0
    3.3890    2.2439    0.0000 H   0  0  0  0  0  0  0  0  0  0  0  0
    4.9835    3.5637    0.0000 H   0  0  0  0  0  0  0  0  0  0  0  0
    2.5440   -0.8840    0.0000 H   0  0  0  0  0  0  0  0  0  0  0  0
    1.8233    1.8278    0.0000 H   0  0  0  0  0  0  0  0  0  0  0  0
    1.4008    0.2639    0.0000 H   0  0  0  0  0  0  0  0  0  0  0  0
  1 12  1  0  0  0  0
  1 13  1  0  0  0  0
  2  7  1  0  0  0  0
  2  8  2  0  0  0  0
  2  9  2  0  0  0  0
  2 21  1  0  0  0  0
  3 16  2  0  0  0  0
  4 19  1  0  0  0  0
  4 39  1  0  0  0  0
  5 19  2  0  0  0  0
  6 20  2  0  0  0  0
  7 42  1  0  0  0  0
 10 12  1  0  0  0  0
 10 14  1  0  0  0  0
 10 16  1  0  0  0  0
 15 11  1  1  0  0  0
 11 20  1  0  0  0  0
 11 37  1  0  0  0  0
 12 15  1  0  0  0  0
 12 28  1  6  0  0  0
 13 14  1  0  0  0  0
 13 17  1  0  0  0  0
 13 18  1  0  0  0  0
 14 19  1  6  0  0  0
 14 29  1  0  0  0  0
 15 16  1  0  0  0  0
 15 30  1  0  0  0  0
 17 31  1  0  0  0  0
 17 32  1  0  0  0  0
 17 33  1  0  0  0  0
 18 34  1  0  0  0  0
 18 35  1  0  0  0  0
 18 36  1  0  0  0  0
 20 21  1  0  0  0  0
 21 22  1  0  0  0  0
 21 38  1  0  0  0  0
 22 23  2  0  0  0  0
 22 24  1  0  0  0  0
 23 25  1  0  0  0  0
 23 40  1  0  0  0  0
 24 26  2  0  0  0  0
 24 41  1  0  0  0  0
 25 27  2  0  0  0  0
 25 43  1  0  0  0  0
 26 27  1  0  0  0  0
 26 44  1  0  0  0  0
 27 45  1  0  0  0  0
M  END
> <PUBCHEM_COMPOUND_CID>
39031

> <PUBCHEM_COMPOUND_CANONICALIZED>
1

> <PUBCHEM_CACTVS_COMPLEXITY>
755

> <PUBCHEM_CACTVS_HBOND_ACCEPTOR>
8

> <PUBCHEM_CACTVS_HBOND_DONOR>
3

> <PUBCHEM_CACTVS_ROTATABLE_BOND>
5

> <PUBCHEM_CACTVS_SUBSKEYS>
AAADceB7OABgAAAAAAAAAAAAAABYAWAAAAAwAAAABYAAAAABAAAAHgQQCAAADCjF2ASyCIPAAoqIAiHSGHBCAABgABAIiIGIAIgKYDqglTGUYAAklgC4iAcYiICOAAAAAAAAAAAAAAAAAAAAAAAAAAAAAA==

> <PUBCHEM_IUPAC_OPENEYE_NAME>
(2S,5R,6R)-3,3-dimethyl-7-oxo-6-[(2-phenyl-2-sulfo-acetyl)amino]-4-thia-1-azabicyclo[3.2.0]heptane-2-carboxylic acid

> <PUBCHEM_IUPAC_CAS_NAME>
(2S,5R,6R)-3,3-dimethyl-7-oxo-6-[(1-oxo-2-phenyl-2-sulfoethyl)amino]-4-thia-1-azabicyclo[3.2.0]heptane-2-carboxylic acid

> <PUBCHEM_IUPAC_NAME>
(2S,5R,6R)-3,3-dimethyl-7-oxo-6-[(2-phenyl-2-sulfoacetyl)amino]-4-thia-1-azabicyclo[3.2.0]heptane-2-carboxylic acid

> <PUBCHEM_IUPAC_SYSTEMATIC_NAME>
(2S,5R,6R)-3,3-dimethyl-7-oxidanylidene-6-[(2-phenyl-2-sulfo-ethanoyl)amino]-4-thia-1-azabicyclo[3.2.0]heptane-2-carboxylic acid

> <PUBCHEM_IUPAC_TRADITIONAL_NAME>
(2S,5R,6R)-7-keto-3,3-dimethyl-6-[(2-phenyl-2-sulfo-acetyl)amino]-4-thia-1-azabicyclo[3.2.0]heptane-2-carboxylic acid

> <PUBCHEM_IUPAC_INCHI>
InChI=1S/C16H18N2O7S2/c1-16(2)11(15(21)22)18-13(20)9(14(18)26-16)17-12(19)10(27(23,24)25)8-6-4-3-5-7-8/h3-7,9-11,14H,1-2H3,(H,17,19)(H,21,22)(H,23,24,25)/t9-,10?,11+,14-/m1/s1

> <PUBCHEM_IUPAC_INCHIKEY>
JETQIUPBHQNHNZ-OAYJICASSA-N

> <PUBCHEM_XLOGP3>
1.1

> <PUBCHEM_EXACT_MASS>
414.055543

> <PUBCHEM_MOLECULAR_FORMULA>
C16H18N2O7S2

> <PUBCHEM_MOLECULAR_WEIGHT>
414.45332

> <PUBCHEM_OPENEYE_CAN_SMILES>
CC1(C(N2C(S1)C(C2=O)NC(=O)C(C3=CC=CC=C3)S(=O)(=O)O)C(=O)O)C

> <PUBCHEM_OPENEYE_ISO_SMILES>
CC1([C@@H](N2[C@H](S1)[C@@H](C2=O)NC(=O)C(C3=CC=CC=C3)S(=O)(=O)O)C(=O)O)C

> <PUBCHEM_CACTVS_TPSA>
175

> <PUBCHEM_MONOISOTOPIC_WEIGHT>
414.055543

> <PUBCHEM_TOTAL_CHARGE>
0

> <PUBCHEM_HEAVY_ATOM_COUNT>
27

> <PUBCHEM_ATOM_DEF_STEREO_COUNT>
3

> <PUBCHEM_ATOM_UDEF_STEREO_COUNT>
1

> <PUBCHEM_BOND_DEF_STEREO_COUNT>
0

> <PUBCHEM_BOND_UDEF_STEREO_COUNT>
0

> <PUBCHEM_ISOTOPIC_ATOM_COUNT>
0

> <PUBCHEM_COMPONENT_COUNT>
1

> <PUBCHEM_CACTVS_TAUTO_COUNT>
4

> <PUBCHEM_COORDINATE_TYPE>
1
5
255

> <PUBCHEM_BONDANNOTATIONS>
15  11  5
12  28  6
14  19  6
21  38  3
22  23  8
22  24  8
23  25  8
24  26  8
25  27  8
26  27  8

$$$$

