32518
  -OEChem-07051213013D

 60 60  0     1  0  0  0  0  0999 V2000
    7.5745    0.5172    0.2652 O   0  0  0  0  0  0  0  0  0  0  0  0
    4.8456   -0.2480   -0.0239 N   0  0  0  0  0  0  0  0  0  0  0  0
    5.2473    0.7929    0.9322 C   0  0  0  0  0  0  0  0  0  0  0  0
    5.9313   -1.2283   -0.1668 C   0  0  0  0  0  0  0  0  0  0  0  0
    3.6121   -0.9015    0.4101 C   0  0  0  0  0  0  0  0  0  0  0  0
    6.5386    1.4836    0.4775 C   0  0  2  0  0  0  0  0  0  0  0  0
    7.2068   -0.5255   -0.6438 C   0  0  2  0  0  0  0  0  0  0  0  0
    2.4013   -0.0572    0.0131 C   0  0  0  0  0  0  0  0  0  0  0  0
    1.0652   -0.6825    0.4265 C   0  0  0  0  0  0  0  0  0  0  0  0
   -0.1517    0.1221   -0.0377 C   0  0  0  0  0  0  0  0  0  0  0  0
   -1.4568   -0.5839    0.3388 C   0  0  0  0  0  0  0  0  0  0  0  0
   -2.7121    0.1919   -0.0734 C   0  0  0  0  0  0  0  0  0  0  0  0
   -4.0485   -0.5052    0.2037 C   0  0  0  0  0  0  0  0  0  0  0  0
    6.3506    2.3810   -0.7450 C   0  0  0  0  0  0  0  0  0  0  0  0
    8.3729   -1.5041   -0.7133 C   0  0  0  0  0  0  0  0  0  0  0  0
   -5.2644    0.3427   -0.1777 C   0  0  0  0  0  0  0  0  0  0  0  0
   -6.5996   -0.3581    0.0930 C   0  0  0  0  0  0  0  0  0  0  0  0
   -7.8155    0.4792   -0.3103 C   0  0  0  0  0  0  0  0  0  0  0  0
   -9.1218   -0.2330    0.0474 C   0  0  0  0  0  0  0  0  0  0  0  0
  -10.3377    0.6176   -0.3194 C   0  0  0  0  0  0  0  0  0  0  0  0
  -11.6380   -0.1010    0.0038 C   0  0  0  0  0  0  0  0  0  0  0  0
    5.4187    0.3446    1.9204 H   0  0  0  0  0  0  0  0  0  0  0  0
    4.4679    1.5533    1.0486 H   0  0  0  0  0  0  0  0  0  0  0  0
    5.6545   -1.9950   -0.9005 H   0  0  0  0  0  0  0  0  0  0  0  0
    6.1131   -1.7308    0.7929 H   0  0  0  0  0  0  0  0  0  0  0  0
    3.5039   -1.8714   -0.0932 H   0  0  0  0  0  0  0  0  0  0  0  0
    3.6132   -1.1089    1.4878 H   0  0  0  0  0  0  0  0  0  0  0  0
    6.8885    2.1212    1.2979 H   0  0  0  0  0  0  0  0  0  0  0  0
    7.0617   -0.1005   -1.6438 H   0  0  0  0  0  0  0  0  0  0  0  0
    2.4036    0.0883   -1.0752 H   0  0  0  0  0  0  0  0  0  0  0  0
    2.4588    0.9406    0.4627 H   0  0  0  0  0  0  0  0  0  0  0  0
    1.0388   -0.7860    1.5183 H   0  0  0  0  0  0  0  0  0  0  0  0
    1.0044   -1.6961    0.0108 H   0  0  0  0  0  0  0  0  0  0  0  0
   -0.1112    0.2588   -1.1249 H   0  0  0  0  0  0  0  0  0  0  0  0
   -0.1264    1.1199    0.4159 H   0  0  0  0  0  0  0  0  0  0  0  0
   -1.4804   -1.5737   -0.1338 H   0  0  0  0  0  0  0  0  0  0  0  0
   -1.4833   -0.7504    1.4228 H   0  0  0  0  0  0  0  0  0  0  0  0
   -2.7060    1.1613    0.4412 H   0  0  0  0  0  0  0  0  0  0  0  0
   -2.6522    0.4125   -1.1469 H   0  0  0  0  0  0  0  0  0  0  0  0
   -4.0782   -1.4529   -0.3475 H   0  0  0  0  0  0  0  0  0  0  0  0
   -4.1054   -0.7568    1.2698 H   0  0  0  0  0  0  0  0  0  0  0  0
    7.3128    2.7974   -1.0617 H   0  0  0  0  0  0  0  0  0  0  0  0
    5.6703    3.2078   -0.5173 H   0  0  0  0  0  0  0  0  0  0  0  0
    5.9416    1.8380   -1.6024 H   0  0  0  0  0  0  0  0  0  0  0  0
    9.2812   -0.9908   -1.0474 H   0  0  0  0  0  0  0  0  0  0  0  0
    8.1624   -2.3258   -1.4044 H   0  0  0  0  0  0  0  0  0  0  0  0
    8.5943   -1.9226    0.2748 H   0  0  0  0  0  0  0  0  0  0  0  0
   -5.2346    1.2876    0.3786 H   0  0  0  0  0  0  0  0  0  0  0  0
   -5.2034    0.5997   -1.2424 H   0  0  0  0  0  0  0  0  0  0  0  0
   -6.6626   -0.5994    1.1614 H   0  0  0  0  0  0  0  0  0  0  0  0
   -6.6227   -1.3117   -0.4490 H   0  0  0  0  0  0  0  0  0  0  0  0
   -7.7752    1.4492    0.2000 H   0  0  0  0  0  0  0  0  0  0  0  0
   -7.7832    0.6786   -1.3881 H   0  0  0  0  0  0  0  0  0  0  0  0
   -9.1707   -1.1937   -0.4796 H   0  0  0  0  0  0  0  0  0  0  0  0
   -9.1406   -0.4528    1.1219 H   0  0  0  0  0  0  0  0  0  0  0  0
  -10.3163    0.8561   -1.3892 H   0  0  0  0  0  0  0  0  0  0  0  0
  -10.3056    1.5681    0.2258 H   0  0  0  0  0  0  0  0  0  0  0  0
  -12.4942    0.5253   -0.2655 H   0  0  0  0  0  0  0  0  0  0  0  0
  -11.7160   -1.0406   -0.5526 H   0  0  0  0  0  0  0  0  0  0  0  0
  -11.7056   -0.3277    1.0726 H   0  0  0  0  0  0  0  0  0  0  0  0
  1  6  1  0  0  0  0
  1  7  1  0  0  0  0
  2  3  1  0  0  0  0
  2  4  1  0  0  0  0
  2  5  1  0  0  0  0
  3  6  1  0  0  0  0
  3 22  1  0  0  0  0
  3 23  1  0  0  0  0
  4  7  1  0  0  0  0
  4 24  1  0  0  0  0
  4 25  1  0  0  0  0
  5  8  1  0  0  0  0
  5 26  1  0  0  0  0
  5 27  1  0  0  0  0
  6 14  1  0  0  0  0
  6 28  1  0  0  0  0
  7 15  1  0  0  0  0
  7 29  1  0  0  0  0
  8  9  1  0  0  0  0
  8 30  1  0  0  0  0
  8 31  1  0  0  0  0
  9 10  1  0  0  0  0
  9 32  1  0  0  0  0
  9 33  1  0  0  0  0
 10 11  1  0  0  0  0
 10 34  1  0  0  0  0
 10 35  1  0  0  0  0
 11 12  1  0  0  0  0
 11 36  1  0  0  0  0
 11 37  1  0  0  0  0
 12 13  1  0  0  0  0
 12 38  1  0  0  0  0
 12 39  1  0  0  0  0
 13 16  1  0  0  0  0
 13 40  1  0  0  0  0
 13 41  1  0  0  0  0
 14 42  1  0  0  0  0
 14 43  1  0  0  0  0
 14 44  1  0  0  0  0
 15 45  1  0  0  0  0
 15 46  1  0  0  0  0
 15 47  1  0  0  0  0
 16 17  1  0  0  0  0
 16 48  1  0  0  0  0
 16 49  1  0  0  0  0
 17 18  1  0  0  0  0
 17 50  1  0  0  0  0
 17 51  1  0  0  0  0
 18 19  1  0  0  0  0
 18 52  1  0  0  0  0
 18 53  1  0  0  0  0
 19 20  1  0  0  0  0
 19 54  1  0  0  0  0
 19 55  1  0  0  0  0
 20 21  1  0  0  0  0
 20 56  1  0  0  0  0
 20 57  1  0  0  0  0
 21 58  1  0  0  0  0
 21 59  1  0  0  0  0
 21 60  1  0  0  0  0
M  END
> <PUBCHEM_COMPOUND_CID>
32518

> <PUBCHEM_CONFORMER_RMSD>
1.4

> <PUBCHEM_CONFORMER_DIVERSEORDER>
1
69
14
54
7
3
65
56
10
17
22
55
43
41
34
52
8
61
66
20
15
47
37
28
58
59
21
68
67
45
2
27
51
73
16
48
35
31
36
50
64
29
42
71
24
13
46
57
63
70
5
44
11
38
72
60
39
18
49
12
4
6
25
19
26
30
9
40
53
33
62
23
32

> <PUBCHEM_MMFF94_PARTIAL_CHARGES>
7
1 -0.56
2 -0.81
3 0.27
4 0.27
5 0.27
6 0.28
7 0.28

> <PUBCHEM_EFFECTIVE_ROTOR_COUNT>
13.2

> <PUBCHEM_PHARMACOPHORE_FEATURES>
4
1 1 acceptor
1 2 cation
1 21 hydrophobe
6 1 2 3 4 6 7 rings

> <PUBCHEM_HEAVY_ATOM_COUNT>
21

> <PUBCHEM_ATOM_DEF_STEREO_COUNT>
0

> <PUBCHEM_ATOM_UDEF_STEREO_COUNT>
2

> <PUBCHEM_BOND_DEF_STEREO_COUNT>
0

> <PUBCHEM_BOND_UDEF_STEREO_COUNT>
0

> <PUBCHEM_ISOTOPIC_ATOM_COUNT>
0

> <PUBCHEM_COMPONENT_COUNT>
1

> <PUBCHEM_CACTVS_TAUTO_COUNT>
1

> <PUBCHEM_CONFORMER_ID>
00007F0600000001

> <PUBCHEM_MMFF94_ENERGY>
12.8618

> <PUBCHEM_FEATURE_SELFOVERLAP>
20.297

> <PUBCHEM_SHAPE_FINGERPRINT>
10299344 5 17530966886386199607
11315181 36 18334293164075248547
13533116 47 16702034106040382744
14251764 18 17748823017076847209
14251764 46 18410575093253026499
14344974 52 18272934887596135035
15061470 23 18113901577020357465
15510794 2 18407755933573268223
155225 1 18412545375926935352
15840311 113 18343299241410362028
16120349 18 18412546483532534685
1754911 235 18411705387824094807
21150785 3 18040154015865737155
21362267 2 18271259226980291965
21362267 313 18058740251038060521
22224240 67 17561084700700126307
232437 2 18113618989615267023
23521765 1 18335139800238460195
23581129 1 18411982472437036203
246663 6 4895552992065541515
33684 2 15936129677619281415
5283156 175 17240482524667486198
67123 10 18410293610736173835
8209 1 18410293619062377371

> <PUBCHEM_SHAPE_MULTIPOLES>
421.32
41.14
1.37
0.77
84.45
0.55
0
2.88
4.95
-3.94
0.19
-0.74
0.05
0.67

> <PUBCHEM_SHAPE_SELFOVERLAP>
786.289

> <PUBCHEM_SHAPE_VOLUME>
264.8

> <PUBCHEM_COORDINATE_TYPE>
2
5
10

$$$$

