442637
  -OEChem-07051212583D

 37 39  0     1  0  0  0  0  0999 V2000
    2.7300    0.7993   -1.4219 S   0  0  0  0  0  0  0  0  0  0  0  0
   -4.0317    0.6128    0.5217 S   0  0  0  0  0  0  0  0  0  0  0  0
    4.5927   -0.0517   -1.3473 S   0  0  0  0  0  0  0  0  0  0  0  0
   -4.7406   -1.0330   -0.4724 S   0  0  0  0  0  0  0  0  0  0  0  0
    2.5254   -1.9665    0.1896 O   0  0  0  0  0  0  0  0  0  0  0  0
   -1.6624   -1.5365    0.2850 O   0  0  0  0  0  0  0  0  0  0  0  0
   -0.0204    1.4871    0.0609 N   0  0  0  0  0  0  0  0  0  0  0  0
    0.7465    0.2866    0.4098 C   0  0  2  0  0  0  0  0  0  0  0  0
   -1.3749    1.3093    0.6140 C   0  0  2  0  0  0  0  0  0  0  0  0
    0.3103    0.0667    1.8522 C   0  0  0  0  0  0  0  0  0  0  0  0
   -1.1716    0.4097    1.8425 C   0  0  0  0  0  0  0  0  0  0  0  0
    2.2552    0.4625    0.3044 C   0  0  1  0  0  0  0  0  0  0  0  0
   -2.4184    0.7108   -0.3192 C   0  0  1  0  0  0  0  0  0  0  0  0
    3.0531   -0.7686    0.7573 C   0  0  2  0  0  0  0  0  0  0  0  0
   -2.0761   -0.7068   -0.7997 C   0  0  2  0  0  0  0  0  0  0  0  0
    0.0388    1.8459   -1.3465 C   0  0  0  0  0  0  0  0  0  0  0  0
    4.5246   -0.6052    0.3798 C   0  0  0  0  0  0  0  0  0  0  0  0
   -3.2803   -1.3226   -1.5105 C   0  0  0  0  0  0  0  0  0  0  0  0
    0.4533   -0.5692   -0.2024 H   0  0  0  0  0  0  0  0  0  0  0  0
   -1.7221    2.2990    0.9402 H   0  0  0  0  0  0  0  0  0  0  0  0
    0.8459    0.7281    2.5455 H   0  0  0  0  0  0  0  0  0  0  0  0
    0.4726   -0.9651    2.1803 H   0  0  0  0  0  0  0  0  0  0  0  0
   -1.8359   -0.4319    2.0348 H   0  0  0  0  0  0  0  0  0  0  0  0
   -1.3437    1.0358    2.7320 H   0  0  0  0  0  0  0  0  0  0  0  0
    2.5774    1.3314    0.8931 H   0  0  0  0  0  0  0  0  0  0  0  0
   -2.5870    1.3569   -1.1873 H   0  0  0  0  0  0  0  0  0  0  0  0
    2.9791   -0.8867    1.8439 H   0  0  0  0  0  0  0  0  0  0  0  0
   -1.2527   -0.6890   -1.5183 H   0  0  0  0  0  0  0  0  0  0  0  0
    0.0023    1.0047   -2.0440 H   0  0  0  0  0  0  0  0  0  0  0  0
    0.8797    2.5125   -1.5537 H   0  0  0  0  0  0  0  0  0  0  0  0
   -0.8087    2.4958   -1.6011 H   0  0  0  0  0  0  0  0  0  0  0  0
    5.0073    0.1518    1.0061 H   0  0  0  0  0  0  0  0  0  0  0  0
    5.0735   -1.5467    0.4734 H   0  0  0  0  0  0  0  0  0  0  0  0
   -3.4467   -0.8450   -2.4813 H   0  0  0  0  0  0  0  0  0  0  0  0
   -3.1601   -2.3993   -1.6623 H   0  0  0  0  0  0  0  0  0  0  0  0
    2.5953   -1.8871   -0.7772 H   0  0  0  0  0  0  0  0  0  0  0  0
   -1.4530   -2.4133   -0.0793 H   0  0  0  0  0  0  0  0  0  0  0  0
  1  3  1  0  0  0  0
  1 12  1  0  0  0  0
  2  4  1  0  0  0  0
  2 13  1  0  0  0  0
  3 17  1  0  0  0  0
  4 18  1  0  0  0  0
  5 14  1  0  0  0  0
  5 36  1  0  0  0  0
  6 15  1  0  0  0  0
  6 37  1  0  0  0  0
  7  8  1  0  0  0  0
  7  9  1  0  0  0  0
  7 16  1  0  0  0  0
  8 10  1  0  0  0  0
  8 12  1  0  0  0  0
  8 19  1  0  0  0  0
  9 11  1  0  0  0  0
  9 13  1  0  0  0  0
  9 20  1  0  0  0  0
 10 11  1  0  0  0  0
 10 21  1  0  0  0  0
 10 22  1  0  0  0  0
 11 23  1  0  0  0  0
 11 24  1  0  0  0  0
 12 14  1  0  0  0  0
 12 25  1  0  0  0  0
 13 15  1  0  0  0  0
 13 26  1  0  0  0  0
 14 17  1  0  0  0  0
 14 27  1  0  0  0  0
 15 18  1  0  0  0  0
 15 28  1  0  0  0  0
 16 29  1  0  0  0  0
 16 30  1  0  0  0  0
 16 31  1  0  0  0  0
 17 32  1  0  0  0  0
 17 33  1  0  0  0  0
 18 34  1  0  0  0  0
 18 35  1  0  0  0  0
M  END
> <PUBCHEM_COMPOUND_CID>
442637

> <PUBCHEM_CONFORMER_RMSD>
0.6

> <PUBCHEM_CONFORMER_DIVERSEORDER>
2
5
1
6
4
3

> <PUBCHEM_MMFF94_PARTIAL_CHARGES>
18
1 -0.23
12 0.23
13 0.23
14 0.28
15 0.28
16 0.27
17 0.23
18 0.23
2 -0.23
3 -0.23
36 0.4
37 0.4
4 -0.23
5 -0.68
6 -0.68
7 -0.81
8 0.27
9 0.27

> <PUBCHEM_EFFECTIVE_ROTOR_COUNT>
5

> <PUBCHEM_PHARMACOPHORE_FEATURES>
8
1 5 acceptor
1 5 donor
1 6 acceptor
1 6 donor
1 7 cation
5 1 3 12 14 17 rings
5 2 4 13 15 18 rings
5 7 8 9 10 11 rings

> <PUBCHEM_HEAVY_ATOM_COUNT>
18

> <PUBCHEM_ATOM_DEF_STEREO_COUNT>
6

> <PUBCHEM_ATOM_UDEF_STEREO_COUNT>
0

> <PUBCHEM_BOND_DEF_STEREO_COUNT>
0

> <PUBCHEM_BOND_UDEF_STEREO_COUNT>
0

> <PUBCHEM_ISOTOPIC_ATOM_COUNT>
0

> <PUBCHEM_COMPONENT_COUNT>
1

> <PUBCHEM_CACTVS_TAUTO_COUNT>
1

> <PUBCHEM_CONFORMER_ID>
0006C10D00000002

> <PUBCHEM_MMFF94_ENERGY>
61.1259

> <PUBCHEM_FEATURE_SELFOVERLAP>
40.594

> <PUBCHEM_SHAPE_FINGERPRINT>
11046707 91 18040156206093394743
11132069 177 5256402807621636468
11578080 2 18192175796015378937
11769659 78 18186812352529532009
11796584 16 17967536761856526671
11961588 58 13613966531061812567
12236239 1 18411978074406297421
12251169 10 6411299026790787100
124424 183 16660369177688688073
12553582 1 18411983554800352477
12633257 1 15936970722194152959
12670546 177 17131550548701896663
12730499 353 15123516938751482129
12892183 10 4895275944709821087
12969540 114 14404914535760532955
13288520 33 18187927317744999134
13296908 3 16660364766124064316
13675066 3 15791734109118750305
14115302 16 18113897126632040853
14251751 93 17844818177431640605
14252887 29 16081088164874326338
14386348 63 16370721539174295790
14943859 89 12679459789828694096
15295992 7 9655278350925321454
15375358 24 16225768544560098825
15422964 175 16081359769968828580
16752209 62 18113337526647777951
16945 1 18200599098776299017
17349148 13 17703795846929286896
17804303 29 17749112167059687217
17834072 14 16081084883561438729
1813 80 18260825977626959061
18186145 218 16415482657409395525
19107657 162 16805323305757519454
192875 21 17346607395828959556
193927 3 18040991791812358047
19422 9 18343864424756981881
19862831 5 17489873743088738308
200 152 18344145908318274392
20281475 54 18334579087398510714
20600515 1 16588572128961901681
20645477 70 17131828815875958610
20671657 53 18335988579569442493
20871999 31 18271815643870632853
21524375 3 10735881685575086521
22854114 59 6050448110752730737
23227448 37 14691706733048309062
23402539 116 17775290512267090052
23493267 7 16516801649192464736
23557571 272 17895477024672362880
23559900 14 17022894688210699212
24859131 72 14707198924929544493
25 1 16271934830297514777
26918003 58 16732703874046596704
2748010 2 16915920908358158664
2838139 119 12895083889754733598
3082319 5 18342457032366349462
3323516 105 17274821294915359489
351380 180 11239997858304948542
4028521 119 14764351534972585767
4325135 7 18040438742581324104
465052 167 16009031627371901909
633830 44 17131834313149247269
81228 2 15792828149111179185
83771 10 18334864900376579825

> <PUBCHEM_SHAPE_MULTIPOLES>
369.11
8.77
1.64
1.61
1.42
0.05
-0.31
-3.51
1.68
-0.78
0.19
0.59
-0.2
0.89

> <PUBCHEM_SHAPE_SELFOVERLAP>
717.852

> <PUBCHEM_SHAPE_VOLUME>
225.8

> <PUBCHEM_COORDINATE_TYPE>
2
5
10

$$$$

