583205
  -OEChem-06241222442D

 39 42  0     1  0  0  0  0  0999 V2000
    8.0550    0.1441    0.0000 O   0  0  0  0  0  0  0  0  0  0  0  0
    5.6591    2.1441    0.0000 O   0  0  0  0  0  0  0  0  0  0  0  0
    7.7820    1.8993    0.0000 O   0  0  0  0  0  0  0  0  0  0  0  0
    5.6591   -0.8559    0.0000 N   0  0  3  0  0  0  0  0  0  0  0  0
    6.5251   -0.3559    0.0000 C   0  0  3  0  0  0  0  0  0  0  0  0
    6.5251    0.6441    0.0000 C   0  0  3  0  0  0  0  0  0  0  0  0
    4.7931   -0.3559    0.0000 C   0  0  3  0  0  0  0  0  0  0  0  0
    5.6591    1.1441    0.0000 C   0  0  3  0  0  0  0  0  0  0  0  0
    4.7931    0.6441    0.0000 C   0  0  0  0  0  0  0  0  0  0  0  0
    7.4714   -0.6606    0.0000 C   0  0  3  0  0  0  0  0  0  0  0  0
    5.6752   -1.8974    0.0000 C   0  0  0  0  0  0  0  0  0  0  0  0
    3.8831   -0.8628    0.0000 C   0  0  0  0  0  0  0  0  0  0  0  0
    7.4714    0.9488    0.0000 C   0  0  0  0  0  0  0  0  0  0  0  0
    4.7771   -2.4252    0.0000 C   0  0  0  0  0  0  0  0  0  0  0  0
    3.8751   -1.9044    0.0000 C   0  0  0  0  0  0  0  0  0  0  0  0
    7.7820   -1.6112    0.0000 C   0  0  0  0  0  0  0  0  0  0  0  0
    2.9562   -0.2987    0.0000 C   0  0  0  0  0  0  0  0  0  0  0  0
    2.9396   -2.4541    0.0000 C   0  0  0  0  0  0  0  0  0  0  0  0
    2.0084   -0.8266    0.0000 C   0  0  0  0  0  0  0  0  0  0  0  0
    2.0000   -1.9116    0.0000 C   0  0  0  0  0  0  0  0  0  0  0  0
    6.5908   -0.9724    0.0000 H   0  0  0  0  0  0  0  0  0  0  0  0
    6.5908    1.2606    0.0000 H   0  0  0  0  0  0  0  0  0  0  0  0
    5.3300   -0.0459    0.0000 H   0  0  0  0  0  0  0  0  0  0  0  0
    6.1960    1.4541    0.0000 H   0  0  0  0  0  0  0  0  0  0  0  0
    4.5810    1.2267    0.0000 H   0  0  0  0  0  0  0  0  0  0  0  0
    4.1825    0.5364    0.0000 H   0  0  0  0  0  0  0  0  0  0  0  0
    8.0838   -0.7568    0.0000 H   0  0  0  0  0  0  0  0  0  0  0  0
    5.8932   -2.4778    0.0000 H   0  0  0  0  0  0  0  0  0  0  0  0
    6.2843   -1.7819    0.0000 H   0  0  0  0  0  0  0  0  0  0  0  0
    4.3798   -2.9012    0.0000 H   0  0  0  0  0  0  0  0  0  0  0  0
    5.1781   -2.8981    0.0000 H   0  0  0  0  0  0  0  0  0  0  0  0
    7.1927   -1.8038    0.0000 H   0  0  0  0  0  0  0  0  0  0  0  0
    7.9746   -2.2005    0.0000 H   0  0  0  0  0  0  0  0  0  0  0  0
    8.3713   -1.4186    0.0000 H   0  0  0  0  0  0  0  0  0  0  0  0
    5.1222    2.4541    0.0000 H   0  0  0  0  0  0  0  0  0  0  0  0
    2.9682    0.3212    0.0000 H   0  0  0  0  0  0  0  0  0  0  0  0
    2.9420   -3.0741    0.0000 H   0  0  0  0  0  0  0  0  0  0  0  0
    1.4750   -0.5104    0.0000 H   0  0  0  0  0  0  0  0  0  0  0  0
    1.4619   -2.2195    0.0000 H   0  0  0  0  0  0  0  0  0  0  0  0
  1 10  1  0  0  0  0
  1 13  1  0  0  0  0
  2  8  1  0  0  0  0
  2 35  1  0  0  0  0
  3 13  2  0  0  0  0
  4  5  1  0  0  0  0
  4  7  1  0  0  0  0
  4 11  1  0  0  0  0
  5  6  1  0  0  0  0
  5 10  1  0  0  0  0
  5 21  1  0  0  0  0
  6  8  1  0  0  0  0
  6 13  1  0  0  0  0
  6 22  1  0  0  0  0
  7  9  1  0  0  0  0
  7 12  1  0  0  0  0
  7 23  1  0  0  0  0
  8  9  1  0  0  0  0
  8 24  1  0  0  0  0
  9 25  1  0  0  0  0
  9 26  1  0  0  0  0
 10 16  1  0  0  0  0
 10 27  1  0  0  0  0
 11 14  1  0  0  0  0
 11 28  1  0  0  0  0
 11 29  1  0  0  0  0
 12 15  1  0  0  0  0
 12 17  2  0  0  0  0
 14 15  1  0  0  0  0
 14 30  1  0  0  0  0
 14 31  1  0  0  0  0
 15 18  2  0  0  0  0
 16 32  1  0  0  0  0
 16 33  1  0  0  0  0
 16 34  1  0  0  0  0
 17 19  1  0  0  0  0
 17 36  1  0  0  0  0
 18 20  1  0  0  0  0
 18 37  1  0  0  0  0
 19 20  2  0  0  0  0
 19 38  1  0  0  0  0
 20 39  1  0  0  0  0
M  END
> <PUBCHEM_COMPOUND_CID>
583205

> <PUBCHEM_COMPOUND_CANONICALIZED>
1

> <PUBCHEM_CACTVS_COMPLEXITY>
413

> <PUBCHEM_CACTVS_HBOND_ACCEPTOR>
4

> <PUBCHEM_CACTVS_HBOND_DONOR>
1

> <PUBCHEM_CACTVS_ROTATABLE_BOND>
0

> <PUBCHEM_CACTVS_SUBSKEYS>
AAADceB6MAAAAAAAAAAAAAAAAAAAASAAAAA8WIAAAAAAAFixAAAAHgAACAAADTzhmAYyCIMABgCIAiDSCACCAAAgAAAIiAEIBIgKMD6AkRGHYAhnoACYiAfa2fOegAAAAAAQAAAAAAAAACAAAAAAAAAAAA==

> <PUBCHEM_IUPAC_INCHI>
InChI=1S/C16H19NO3/c1-9-15-14(16(19)20-9)13(18)8-12-11-5-3-2-4-10(11)6-7-17(12)15/h2-5,9,12-15,18H,6-8H2,1H3

> <PUBCHEM_IUPAC_INCHIKEY>
MPEJFJFZVUSBET-UHFFFAOYSA-N

> <PUBCHEM_XLOGP3_AA>
1.5

> <PUBCHEM_EXACT_MASS>
273.136493

> <PUBCHEM_MOLECULAR_FORMULA>
C16H19NO3

> <PUBCHEM_MOLECULAR_WEIGHT>
273.32696

> <PUBCHEM_OPENEYE_CAN_SMILES>
CC1C2C(C(CC3N2CCC4=CC=CC=C34)O)C(=O)O1

> <PUBCHEM_OPENEYE_ISO_SMILES>
CC1C2C(C(CC3N2CCC4=CC=CC=C34)O)C(=O)O1

> <PUBCHEM_CACTVS_TPSA>
49.8

> <PUBCHEM_MONOISOTOPIC_WEIGHT>
273.136493

> <PUBCHEM_TOTAL_CHARGE>
0

> <PUBCHEM_HEAVY_ATOM_COUNT>
20

> <PUBCHEM_ATOM_DEF_STEREO_COUNT>
0

> <PUBCHEM_ATOM_UDEF_STEREO_COUNT>
5

> <PUBCHEM_BOND_DEF_STEREO_COUNT>
0

> <PUBCHEM_BOND_UDEF_STEREO_COUNT>
0

> <PUBCHEM_ISOTOPIC_ATOM_COUNT>
0

> <PUBCHEM_COMPONENT_COUNT>
1

> <PUBCHEM_CACTVS_TAUTO_COUNT>
2

> <PUBCHEM_COORDINATE_TYPE>
1
5
255

> <PUBCHEM_BONDANNOTATIONS>
10  16  3
12  15  8
12  17  8
15  18  8
17  19  8
18  20  8
19  20  8
8  2  3
5  4  3
6  13  3
7  9  3

$$$$

