11953903
  -OEChem-07051212553D

 86 90  0     1  0  0  0  0  0999 V2000
   -5.4933   -0.4883    0.7724 O   0  0  0  0  0  0  0  0  0  0  0  0
   -2.6415   -2.3311   -0.5768 O   0  0  0  0  0  0  0  0  0  0  0  0
   -5.1104    1.3599   -0.5993 O   0  0  0  0  0  0  0  0  0  0  0  0
   -2.8075   -0.0724   -0.0156 O   0  0  0  0  0  0  0  0  0  0  0  0
   -6.7267   -2.7415   -0.6708 O   0  0  0  0  0  0  0  0  0  0  0  0
   -5.0494   -5.0898   -0.5044 O   0  0  0  0  0  0  0  0  0  0  0  0
   -7.8719    0.7264    1.7078 O   0  0  0  0  0  0  0  0  0  0  0  0
   -7.7399    3.6657    1.5537 O   0  0  0  0  0  0  0  0  0  0  0  0
   -6.9219    4.5051   -1.0887 O   0  0  0  0  0  0  0  0  0  0  0  0
   -0.8754   -4.4319   -0.7308 O   0  0  0  0  0  0  0  0  0  0  0  0
   -3.9767    2.1290   -2.9825 O   0  0  0  0  0  0  0  0  0  0  0  0
   -1.0616    0.7168   -2.0243 O   0  0  0  0  0  0  0  0  0  0  0  0
    2.7953   -2.1040    2.1746 O   0  5  0  0  0  0  0  0  0  0  0  0
    4.3047   -1.1088    3.5766 O   0  0  0  0  0  0  0  0  0  0  0  0
    5.6293   -0.5418   -3.6646 O   0  0  0  0  0  0  0  0  0  0  0  0
    7.7908    0.1627   -3.8314 O   0  0  0  0  0  0  0  0  0  0  0  0
   10.5382    0.4189   -0.3376 O   0  0  0  0  0  0  0  0  0  0  0  0
    9.9372    1.2793    1.6943 O   0  0  0  0  0  0  0  0  0  0  0  0
    2.5035    0.5875    1.3229 N   0  3  0  0  0  0  0  0  0  0  0  0
    8.1197    0.1725   -1.1790 N   0  0  0  0  0  0  0  0  0  0  0  0
   -4.8219   -1.3543   -0.1422 C   0  0  2  0  0  0  0  0  0  0  0  0
   -5.4353   -2.7523   -0.0606 C   0  0  2  0  0  0  0  0  0  0  0  0
   -4.5733   -3.7785   -0.7964 C   0  0  1  0  0  0  0  0  0  0  0  0
   -6.1042    0.6093    0.0945 C   0  0  2  0  0  0  0  0  0  0  0  0
   -3.3373   -1.3764    0.2212 C   0  0  1  0  0  0  0  0  0  0  0  0
   -6.8004    1.4798    1.1405 C   0  0  1  0  0  0  0  0  0  0  0  0
   -3.1086   -3.6649   -0.3674 C   0  0  1  0  0  0  0  0  0  0  0  0
   -7.3551    2.7610    0.5175 C   0  0  2  0  0  0  0  0  0  0  0  0
   -6.3043    3.4545   -0.3497 C   0  0  1  0  0  0  0  0  0  0  0  0
   -5.6614    2.4625   -1.3217 C   0  0  1  0  0  0  0  0  0  0  0  0
   -2.2103   -4.5986   -1.1727 C   0  0  0  0  0  0  0  0  0  0  0  0
   -4.5284    3.1040   -2.1164 C   0  0  0  0  0  0  0  0  0  0  0  0
   -1.4792    0.1076    0.2572 C   0  0  0  0  0  0  0  0  0  0  0  0
    0.3342    0.0778    1.8141 C   0  0  0  0  0  0  0  0  0  0  0  0
    2.5092    0.1565    2.7543 C   0  0  1  0  0  0  0  0  0  0  0  0
    1.0361   -0.0579    3.1272 C   0  0  0  0  0  0  0  0  0  0  0  0
    1.2051    0.4754    0.8025 C   0  0  0  0  0  0  0  0  0  0  0  0
   -1.0151   -0.1073    1.5564 C   0  0  0  0  0  0  0  0  0  0  0  0
   -0.5974    0.5081   -0.7586 C   0  0  0  0  0  0  0  0  0  0  0  0
    0.7614    0.6983   -0.4922 C   0  0  0  0  0  0  0  0  0  0  0  0
    3.5048    1.0197    0.6442 C   0  0  0  0  0  0  0  0  0  0  0  0
    3.2775   -1.1479    2.8428 C   0  0  0  0  0  0  0  0  0  0  0  0
    4.8556    1.1294    1.2073 C   0  0  0  0  0  0  0  0  0  0  0  0
    5.9055    0.9874    0.3855 C   0  0  0  0  0  0  0  0  0  0  0  0
    5.7394    0.7429   -1.1035 C   0  0  0  0  0  0  0  0  0  0  0  0
    6.8048   -0.2152   -1.6620 C   0  0  1  0  0  0  0  0  0  0  0  0
    7.2773    1.0828    0.8687 C   0  0  0  0  0  0  0  0  0  0  0  0
    8.2934    0.7057    0.0760 C   0  0  0  0  0  0  0  0  0  0  0  0
    6.8284   -0.1681   -3.1548 C   0  0  0  0  0  0  0  0  0  0  0  0
    9.6570    0.8443    0.5918 C   0  0  0  0  0  0  0  0  0  0  0  0
   -4.9272   -0.9984   -1.1775 H   0  0  0  0  0  0  0  0  0  0  0  0
   -5.5923   -3.0465    0.9837 H   0  0  0  0  0  0  0  0  0  0  0  0
   -4.6673   -3.6302   -1.8791 H   0  0  0  0  0  0  0  0  0  0  0  0
   -6.8370    0.2063   -0.6182 H   0  0  0  0  0  0  0  0  0  0  0  0
   -3.2287   -1.6259    1.2848 H   0  0  0  0  0  0  0  0  0  0  0  0
   -6.1123    1.7177    1.9604 H   0  0  0  0  0  0  0  0  0  0  0  0
   -2.9884   -3.9130    0.6960 H   0  0  0  0  0  0  0  0  0  0  0  0
   -8.2638    2.5543   -0.0601 H   0  0  0  0  0  0  0  0  0  0  0  0
   -5.5403    3.9109    0.2915 H   0  0  0  0  0  0  0  0  0  0  0  0
   -6.4003    2.0754   -2.0367 H   0  0  0  0  0  0  0  0  0  0  0  0
   -2.2424   -4.3475   -2.2382 H   0  0  0  0  0  0  0  0  0  0  0  0
   -2.4965   -5.6461   -1.0388 H   0  0  0  0  0  0  0  0  0  0  0  0
   -3.7300    3.4462   -1.4494 H   0  0  0  0  0  0  0  0  0  0  0  0
   -4.8847    3.9464   -2.7169 H   0  0  0  0  0  0  0  0  0  0  0  0
   -6.6225   -2.4607   -1.5959 H   0  0  0  0  0  0  0  0  0  0  0  0
   -4.9585   -5.2361    0.4527 H   0  0  0  0  0  0  0  0  0  0  0  0
   -8.4944    0.5034    0.9946 H   0  0  0  0  0  0  0  0  0  0  0  0
   -6.9555    3.8555    2.0963 H   0  0  0  0  0  0  0  0  0  0  0  0
    2.9542    0.9493    3.3666 H   0  0  0  0  0  0  0  0  0  0  0  0
    0.8377   -1.0280    3.5945 H   0  0  0  0  0  0  0  0  0  0  0  0
    0.6965    0.7337    3.8052 H   0  0  0  0  0  0  0  0  0  0  0  0
   -7.5922    4.1089   -1.6712 H   0  0  0  0  0  0  0  0  0  0  0  0
   -1.6859   -0.3909    2.3607 H   0  0  0  0  0  0  0  0  0  0  0  0
    1.4310    1.0026   -1.2891 H   0  0  0  0  0  0  0  0  0  0  0  0
   -0.3211   -5.0309   -1.2593 H   0  0  0  0  0  0  0  0  0  0  0  0
   -3.2502    2.5549   -3.4687 H   0  0  0  0  0  0  0  0  0  0  0  0
    3.3451    1.3537   -0.3896 H   0  0  0  0  0  0  0  0  0  0  0  0
    4.9859    1.2875    2.2715 H   0  0  0  0  0  0  0  0  0  0  0  0
   -0.3212    0.9885   -2.5933 H   0  0  0  0  0  0  0  0  0  0  0  0
    4.7698    0.3073   -1.3621 H   0  0  0  0  0  0  0  0  0  0  0  0
    5.7999    1.7119   -1.6191 H   0  0  0  0  0  0  0  0  0  0  0  0
    6.6084   -1.2473   -1.3468 H   0  0  0  0  0  0  0  0  0  0  0  0
    7.4344    1.4557    1.8763 H   0  0  0  0  0  0  0  0  0  0  0  0
    8.9465   -0.1567   -1.6667 H   0  0  0  0  0  0  0  0  0  0  0  0
    5.6237   -0.5156   -4.6452 H   0  0  0  0  0  0  0  0  0  0  0  0
   11.4660    0.4961   -0.0287 H   0  0  0  0  0  0  0  0  0  0  0  0
  1 21  1  0  0  0  0
  1 24  1  0  0  0  0
  2 25  1  0  0  0  0
  2 27  1  0  0  0  0
  3 24  1  0  0  0  0
  3 30  1  0  0  0  0
  4 25  1  0  0  0  0
  4 33  1  0  0  0  0
  5 22  1  0  0  0  0
  5 65  1  0  0  0  0
  6 23  1  0  0  0  0
  6 66  1  0  0  0  0
  7 26  1  0  0  0  0
  7 67  1  0  0  0  0
  8 28  1  0  0  0  0
  8 68  1  0  0  0  0
  9 29  1  0  0  0  0
  9 72  1  0  0  0  0
 10 31  1  0  0  0  0
 10 75  1  0  0  0  0
 11 32  1  0  0  0  0
 11 76  1  0  0  0  0
 12 39  1  0  0  0  0
 12 79  1  0  0  0  0
 13 42  1  0  0  0  0
 14 42  2  0  0  0  0
 15 49  1  0  0  0  0
 15 85  1  0  0  0  0
 16 49  2  0  0  0  0
 17 50  1  0  0  0  0
 17 86  1  0  0  0  0
 18 50  2  0  0  0  0
 19 35  1  0  0  0  0
 19 37  1  0  0  0  0
 19 41  2  0  0  0  0
 20 46  1  0  0  0  0
 20 48  1  0  0  0  0
 20 84  1  0  0  0  0
 21 22  1  0  0  0  0
 21 25  1  0  0  0  0
 21 51  1  0  0  0  0
 22 23  1  0  0  0  0
 22 52  1  0  0  0  0
 23 27  1  0  0  0  0
 23 53  1  0  0  0  0
 24 26  1  0  0  0  0
 24 54  1  0  0  0  0
 25 55  1  0  0  0  0
 26 28  1  0  0  0  0
 26 56  1  0  0  0  0
 27 31  1  0  0  0  0
 27 57  1  0  0  0  0
 28 29  1  0  0  0  0
 28 58  1  0  0  0  0
 29 30  1  0  0  0  0
 29 59  1  0  0  0  0
 30 32  1  0  0  0  0
 30 60  1  0  0  0  0
 31 61  1  0  0  0  0
 31 62  1  0  0  0  0
 32 63  1  0  0  0  0
 32 64  1  0  0  0  0
 33 38  1  0  0  0  0
 33 39  2  0  0  0  0
 34 36  1  0  0  0  0
 34 37  1  0  0  0  0
 34 38  2  0  0  0  0
 35 36  1  0  0  0  0
 35 42  1  0  0  0  0
 35 69  1  0  0  0  0
 36 70  1  0  0  0  0
 36 71  1  0  0  0  0
 37 40  2  0  0  0  0
 38 73  1  0  0  0  0
 39 40  1  0  0  0  0
 40 74  1  0  0  0  0
 41 43  1  0  0  0  0
 41 77  1  0  0  0  0
 43 44  2  0  0  0  0
 43 78  1  0  0  0  0
 44 45  1  0  0  0  0
 44 47  1  0  0  0  0
 45 46  1  0  0  0  0
 45 80  1  0  0  0  0
 45 81  1  0  0  0  0
 46 49  1  0  0  0  0
 46 82  1  0  0  0  0
 47 48  2  0  0  0  0
 47 83  1  0  0  0  0
 48 50  1  0  0  0  0
M  CHG  2  13  -1  19   1
M  END
> <PUBCHEM_COMPOUND_CID>
11953903

> <PUBCHEM_CONFORMER_RMSD>
1.4

> <PUBCHEM_CONFORMER_DIVERSEORDER>
3
9
18
14
12
11
4
5
1
16
17
6
19
13
15
8
7
2
10

> <PUBCHEM_MMFF94_PARTIAL_CHARGES>
66
1 -0.56
10 -0.68
11 -0.68
12 -0.53
13 -0.9
14 -0.9
15 -0.65
16 -0.57
17 -0.65
18 -0.57
19 -0.04
2 -0.56
20 -0.87
21 0.28
22 0.28
23 0.28
24 0.56
25 0.56
26 0.28
27 0.28
28 0.28
29 0.28
3 -0.56
30 0.28
31 0.28
32 0.28
33 0.08
34 -0.14
35 0.24
36 0.14
37 0.3
38 -0.15
39 0.08
4 -0.36
40 -0.15
41 0.33
42 0.91
43 -0.14
44 -0.14
45 0.14
46 0.43
47 -0.15
48 0.11
49 0.66
5 -0.68
50 0.71
6 -0.68
65 0.4
66 0.4
67 0.4
68 0.4
7 -0.68
72 0.4
73 0.15
74 0.15
75 0.4
76 0.4
77 0.06
78 0.15
79 0.45
8 -0.68
83 0.15
84 0.4
85 0.5
86 0.5
9 -0.68

> <PUBCHEM_EFFECTIVE_ROTOR_COUNT>
13.4

> <PUBCHEM_PHARMACOPHORE_FEATURES>
35
1 1 acceptor
1 10 acceptor
1 10 donor
1 11 acceptor
1 11 donor
1 12 donor
1 13 acceptor
1 14 acceptor
1 15 acceptor
1 16 acceptor
1 17 acceptor
1 18 acceptor
1 2 acceptor
1 20 cation
1 20 donor
1 3 acceptor
1 4 acceptor
1 5 acceptor
1 5 donor
1 6 acceptor
1 6 donor
1 7 acceptor
1 7 donor
1 8 acceptor
1 8 donor
1 9 acceptor
1 9 donor
3 13 14 42 anion
3 15 16 49 anion
3 17 18 50 anion
5 19 34 35 36 37 rings
6 2 21 22 23 25 27 rings
6 20 44 45 46 47 48 rings
6 3 24 26 28 29 30 rings
6 33 34 37 38 39 40 rings

> <PUBCHEM_HEAVY_ATOM_COUNT>
50

> <PUBCHEM_ATOM_DEF_STEREO_COUNT>
12

> <PUBCHEM_ATOM_UDEF_STEREO_COUNT>
0

> <PUBCHEM_BOND_DEF_STEREO_COUNT>
1

> <PUBCHEM_BOND_UDEF_STEREO_COUNT>
0

> <PUBCHEM_ISOTOPIC_ATOM_COUNT>
0

> <PUBCHEM_COMPONENT_COUNT>
1

> <PUBCHEM_CACTVS_TAUTO_COUNT>
3

> <PUBCHEM_CONFORMER_ID>
00B666EF00000003

> <PUBCHEM_MMFF94_ENERGY>
159.4774

> <PUBCHEM_FEATURE_SELFOVERLAP>
177.983

> <PUBCHEM_SHAPE_FINGERPRINT>
10010297 198 17488195966208357627
11135926 11 16558761078951398410
11411753 29 17969511407198642193
14294032 229 18130801057226358500
14856354 85 17203602654356780619
15230672 131 18335422395754054178
15419008 91 17968674726469429256
15444296 121 18200872877535235635
21814621 53 17968380048388385504
23522609 53 17846495971470986816
335507 130 17346598586550452612
44880568 143 18337669712048981496
5265222 85 18410856603170172547
6009941 240 18040996220134253362
9831232 110 18114452397885349716

> <PUBCHEM_SHAPE_MULTIPOLES>
913.37
29.64
4.72
3.12
45.34
4.3
0.62
-17.02
5.88
-16.47
1.96
5.9
-0.24
0.22

> <PUBCHEM_SHAPE_SELFOVERLAP>
1964.15

> <PUBCHEM_SHAPE_VOLUME>
495.4

> <PUBCHEM_COORDINATE_TYPE>
2
5
10

$$$$

