442967
  -OEChem-07051213003D

 38 41  0     1  0  0  0  0  0999 V2000
    3.1107    2.3406    0.4065 O   0  0  0  0  0  0  0  0  0  0  0  0
   -2.0782   -0.7771    0.2877 N   0  0  2  0  0  0  0  0  0  0  0  0
    1.7089    0.5260   -0.0271 N   0  0  0  0  0  0  0  0  0  0  0  0
   -0.6058    0.7540   -1.2475 C   0  0  2  0  0  0  0  0  0  0  0  0
   -2.0266    0.3792   -0.6579 C   0  0  2  0  0  0  0  0  0  0  0  0
    0.1871   -1.3199   -0.4427 C   0  0  2  0  0  0  0  0  0  0  0  0
   -0.0572   -0.5623   -1.7572 C   0  0  0  0  0  0  0  0  0  0  0  0
   -1.1761   -1.9235   -0.0412 C   0  0  0  0  0  0  0  0  0  0  0  0
   -2.7257    1.5842   -0.0150 C   0  0  0  0  0  0  0  0  0  0  0  0
    0.4855    1.3819   -0.2986 C   0  0  0  0  0  0  0  0  0  0  0  0
   -3.4461   -1.1923    0.5851 C   0  0  0  0  0  0  0  0  0  0  0  0
    1.5665   -0.8863   -0.0562 C   0  0  0  0  0  0  0  0  0  0  0  0
   -4.1660    1.2321    0.3613 C   0  0  0  0  0  0  0  0  0  0  0  0
   -4.2218   -0.0326    1.2157 C   0  0  0  0  0  0  0  0  0  0  0  0
    2.5959   -1.6981    0.2103 C   0  0  0  0  0  0  0  0  0  0  0  0
    2.9218    1.1283    0.3211 C   0  0  0  0  0  0  0  0  0  0  0  0
    3.8733   -1.1297    0.5489 C   0  0  0  0  0  0  0  0  0  0  0  0
    4.0538    0.1954    0.6069 C   0  0  0  0  0  0  0  0  0  0  0  0
   -0.7656    1.4433   -2.0862 H   0  0  0  0  0  0  0  0  0  0  0  0
   -2.6252    0.0902   -1.5365 H   0  0  0  0  0  0  0  0  0  0  0  0
    0.5263   -2.2913   -0.8616 H   0  0  0  0  0  0  0  0  0  0  0  0
    0.8486   -0.4122   -2.3616 H   0  0  0  0  0  0  0  0  0  0  0  0
   -0.7677   -1.0742   -2.4196 H   0  0  0  0  0  0  0  0  0  0  0  0
   -1.6133   -2.5274   -0.8471 H   0  0  0  0  0  0  0  0  0  0  0  0
   -1.0545   -2.5562    0.8450 H   0  0  0  0  0  0  0  0  0  0  0  0
   -2.7320    2.4327   -0.7091 H   0  0  0  0  0  0  0  0  0  0  0  0
   -2.1891    1.9071    0.8849 H   0  0  0  0  0  0  0  0  0  0  0  0
    0.8366    2.3235   -0.7375 H   0  0  0  0  0  0  0  0  0  0  0  0
    0.0629    1.6297    0.6807 H   0  0  0  0  0  0  0  0  0  0  0  0
   -3.4431   -2.0267    1.2967 H   0  0  0  0  0  0  0  0  0  0  0  0
   -3.9543   -1.5399   -0.3228 H   0  0  0  0  0  0  0  0  0  0  0  0
   -4.7532    1.0784   -0.5525 H   0  0  0  0  0  0  0  0  0  0  0  0
   -4.6259    2.0678    0.9004 H   0  0  0  0  0  0  0  0  0  0  0  0
   -3.8046    0.1862    2.2072 H   0  0  0  0  0  0  0  0  0  0  0  0
   -5.2661   -0.3277    1.3692 H   0  0  0  0  0  0  0  0  0  0  0  0
    2.5071   -2.7781    0.1847 H   0  0  0  0  0  0  0  0  0  0  0  0
    4.6924   -1.8089    0.7581 H   0  0  0  0  0  0  0  0  0  0  0  0
    5.0146    0.6259    0.8643 H   0  0  0  0  0  0  0  0  0  0  0  0
  1 16  2  0  0  0  0
  2  5  1  0  0  0  0
  2  8  1  0  0  0  0
  2 11  1  0  0  0  0
  3 10  1  0  0  0  0
  3 12  1  0  0  0  0
  3 16  1  0  0  0  0
  4  5  1  0  0  0  0
  4  7  1  0  0  0  0
  4 10  1  0  0  0  0
  4 19  1  0  0  0  0
  5  9  1  0  0  0  0
  5 20  1  0  0  0  0
  6  7  1  0  0  0  0
  6  8  1  0  0  0  0
  6 12  1  0  0  0  0
  6 21  1  0  0  0  0
  7 22  1  0  0  0  0
  7 23  1  0  0  0  0
  8 24  1  0  0  0  0
  8 25  1  0  0  0  0
  9 13  1  0  0  0  0
  9 26  1  0  0  0  0
  9 27  1  0  0  0  0
 10 28  1  0  0  0  0
 10 29  1  0  0  0  0
 11 14  1  0  0  0  0
 11 30  1  0  0  0  0
 11 31  1  0  0  0  0
 12 15  2  0  0  0  0
 13 14  1  0  0  0  0
 13 32  1  0  0  0  0
 13 33  1  0  0  0  0
 14 34  1  0  0  0  0
 14 35  1  0  0  0  0
 15 17  1  0  0  0  0
 15 36  1  0  0  0  0
 16 18  1  0  0  0  0
 17 18  2  0  0  0  0
 17 37  1  0  0  0  0
 18 38  1  0  0  0  0
M  END
> <PUBCHEM_COMPOUND_CID>
442967

> <PUBCHEM_CONFORMER_RMSD>
0.6

> <PUBCHEM_CONFORMER_DIVERSEORDER>
1

> <PUBCHEM_MMFF94_PARTIAL_CHARGES>
16
1 -0.57
10 0.3
11 0.27
12 -0.03
15 -0.15
16 0.62
17 -0.15
18 -0.14
2 -0.81
3 -0.47
36 0.15
37 0.15
38 0.15
5 0.27
6 0.14
8 0.27

> <PUBCHEM_EFFECTIVE_ROTOR_COUNT>
1.4

> <PUBCHEM_PHARMACOPHORE_FEATURES>
6
1 1 acceptor
1 2 cation
6 2 4 5 6 7 8 rings
6 2 5 9 11 13 14 rings
6 3 12 15 16 17 18 rings
6 3 4 6 7 10 12 rings

> <PUBCHEM_HEAVY_ATOM_COUNT>
18

> <PUBCHEM_ATOM_DEF_STEREO_COUNT>
3

> <PUBCHEM_ATOM_UDEF_STEREO_COUNT>
0

> <PUBCHEM_BOND_DEF_STEREO_COUNT>
0

> <PUBCHEM_BOND_UDEF_STEREO_COUNT>
0

> <PUBCHEM_ISOTOPIC_ATOM_COUNT>
0

> <PUBCHEM_COMPONENT_COUNT>
1

> <PUBCHEM_CACTVS_TAUTO_COUNT>
1

> <PUBCHEM_CONFORMER_ID>
0006C25700000001

> <PUBCHEM_MMFF94_ENERGY>
81.5051

> <PUBCHEM_FEATURE_SELFOVERLAP>
31.263

> <PUBCHEM_SHAPE_FINGERPRINT>
10608611 8 18411422829624257101
10980938 120 18335702715415366238
11045977 3 18343018938695491387
11132069 177 18271806856330608719
12011746 2 18340486780433081847
12119455 92 17530969119763886439
12251169 10 18411419522483400527
12382932 28 18410855464581534105
12390115 104 17975124341392634360
12507560 40 18343582949616799365
12633257 1 18341054106921300203
12670546 177 7781511508125502115
12892183 10 18341327782453626955
13140716 1 18339370686427205778
13705890 14 10519982651754950542
14178342 30 18049739420845519746
14341114 176 18411692222884240720
14790565 3 17981880853251461756
14943859 89 16008751307430306582
15196674 1 18411700984585745939
15209289 33 17561081440482325706
15219456 202 18412547634298426630
15309172 13 18334019401467539559
15375462 189 17917437583061256642
15653759 3 18060137669285328067
15775835 57 17749111071384246713
16945 1 18197496229538454239
17804303 29 18270673293880486663
17844478 74 17988933287944344588
1813 80 16487251088589916678
19862831 5 7493008453127018195
200 152 18261126153624291791
20361792 2 15267059233629065543
20871999 31 8430312412344989265
21065199 12 18413668011104154233
21501502 16 18337680702447785718
21731228 192 18334857216611918279
22854114 59 18408040723536153075
231179 274 14346076477017496419
23184049 59 18409730694171897654
23402539 116 18334866017716813151
23559900 14 18337109093851013882
2748010 2 18271253823171701310
351380 180 18336269028549804449
4280585 95 10373111044401887056
5104073 3 18412545396641539347
69090 78 18409735071176296743
7097593 13 18342176609530064652
84936 31 16589142916914069174

> <PUBCHEM_SHAPE_MULTIPOLES>
354.6
7.7
2.03
1.08
0.87
0.21
0.3
0.99
-3.4
-0.51
-0.14
0.35
-0.04
0.24

> <PUBCHEM_SHAPE_SELFOVERLAP>
762.995

> <PUBCHEM_SHAPE_VOLUME>
191.5

> <PUBCHEM_COORDINATE_TYPE>
2
5
10

$$$$

