11954154
  -OEChem-07051213072D

 55 58  0     1  0  0  0  0  0999 V2000
    8.6338    2.1128    0.0000 O   0  0  0  0  0  0  0  0  0  0  0  0
    5.6449   -0.1425    0.0000 C   0  0  1  0  0  0  0  0  0  0  0  0
    6.5109   -0.6425    0.0000 C   0  0  2  0  0  0  0  0  0  0  0  0
    4.7349   -0.6493    0.0000 C   0  0  2  0  0  0  0  0  0  0  0  0
    7.3770   -0.1425    0.0000 C   0  0  1  0  0  0  0  0  0  0  0  0
    7.3770    0.8575    0.0000 C   0  0  2  0  0  0  0  0  0  0  0  0
    4.7269   -1.6909    0.0000 C   0  0  1  0  0  0  0  0  0  0  0  0
    5.6449    0.8575    0.0000 C   0  0  0  0  0  0  0  0  0  0  0  0
    6.5109    1.3575    0.0000 C   0  0  0  0  0  0  0  0  0  0  0  0
    6.5270   -1.6840    0.0000 C   0  0  0  0  0  0  0  0  0  0  0  0
    5.6290   -2.2117    0.0000 C   0  0  0  0  0  0  0  0  0  0  0  0
    8.3232   -0.4472    0.0000 C   0  0  0  0  0  0  0  0  0  0  0  0
    8.3232    1.1623    0.0000 C   0  0  2  0  0  0  0  0  0  0  0  0
    3.8081   -0.0852    0.0000 C   0  0  0  0  0  0  0  0  0  0  0  0
    8.9068    0.3575    0.0000 C   0  0  0  0  0  0  0  0  0  0  0  0
    3.7914   -2.2406    0.0000 C   0  0  0  0  0  0  0  0  0  0  0  0
    2.8602   -0.6132    0.0000 C   0  0  2  0  0  0  0  0  0  0  0  0
    4.7426    0.3507    0.0000 C   0  0  0  0  0  0  0  0  0  0  0  0
    7.3770    1.8575    0.0000 C   0  0  0  0  0  0  0  0  0  0  0  0
    2.8518   -1.6981    0.0000 C   0  0  0  0  0  0  0  0  0  0  0  0
    2.0000   -0.1032    0.0000 C   0  0  0  0  0  0  0  0  0  0  0  0
    6.3810    0.2825    0.0000 H   0  0  0  0  0  0  0  0  0  0  0  0
    7.2503   -1.0618    0.0000 H   0  0  0  0  0  0  0  0  0  0  0  0
    7.4669   -0.9877    0.0000 H   0  0  0  0  0  0  0  0  0  0  0  0
    4.7302   -2.5409    0.0000 H   0  0  0  0  0  0  0  0  0  0  0  0
    5.4329    1.4401    0.0000 H   0  0  0  0  0  0  0  0  0  0  0  0
    5.0343    0.7499    0.0000 H   0  0  0  0  0  0  0  0  0  0  0  0
    6.9095    1.8325    0.0000 H   0  0  0  0  0  0  0  0  0  0  0  0
    6.1124    1.8325    0.0000 H   0  0  0  0  0  0  0  0  0  0  0  0
    6.7450   -2.2644    0.0000 H   0  0  0  0  0  0  0  0  0  0  0  0
    7.1361   -1.5685    0.0000 H   0  0  0  0  0  0  0  0  0  0  0  0
    5.2316   -2.6877    0.0000 H   0  0  0  0  0  0  0  0  0  0  0  0
    6.0299   -2.6846    0.0000 H   0  0  0  0  0  0  0  0  0  0  0  0
    8.0722   -1.0141    0.0000 H   0  0  0  0  0  0  0  0  0  0  0  0
    8.8606   -0.7564    0.0000 H   0  0  0  0  0  0  0  0  0  0  0  0
    7.8857    1.6016    0.0000 H   0  0  0  0  0  0  0  0  0  0  0  0
    4.2163    0.3814    0.0000 H   0  0  0  0  0  0  0  0  0  0  0  0
    3.4182    0.3968    0.0000 H   0  0  0  0  0  0  0  0  0  0  0  0
    9.3677   -0.0572    0.0000 H   0  0  0  0  0  0  0  0  0  0  0  0
    9.3677    0.7723    0.0000 H   0  0  0  0  0  0  0  0  0  0  0  0
    3.3942   -2.7166    0.0000 H   0  0  0  0  0  0  0  0  0  0  0  0
    4.1924   -2.7135    0.0000 H   0  0  0  0  0  0  0  0  0  0  0  0
    2.3203   -0.9180    0.0000 H   0  0  0  0  0  0  0  0  0  0  0  0
    5.3626    0.3459    0.0000 H   0  0  0  0  0  0  0  0  0  0  0  0
    4.7474    0.9706    0.0000 H   0  0  0  0  0  0  0  0  0  0  0  0
    4.1226    0.3554    0.0000 H   0  0  0  0  0  0  0  0  0  0  0  0
    7.9970    1.8575    0.0000 H   0  0  0  0  0  0  0  0  0  0  0  0
    7.3770    2.4775    0.0000 H   0  0  0  0  0  0  0  0  0  0  0  0
    6.7570    1.8575    0.0000 H   0  0  0  0  0  0  0  0  0  0  0  0
    2.2418   -1.5873    0.0000 H   0  0  0  0  0  0  0  0  0  0  0  0
    2.6383   -2.2802    0.0000 H   0  0  0  0  0  0  0  0  0  0  0  0
    2.3162    0.4301    0.0000 H   0  0  0  0  0  0  0  0  0  0  0  0
    1.4667    0.2130    0.0000 H   0  0  0  0  0  0  0  0  0  0  0  0
    1.6838   -0.6365    0.0000 H   0  0  0  0  0  0  0  0  0  0  0  0
    9.2405    2.2406    0.0000 H   0  0  0  0  0  0  0  0  0  0  0  0
 13  1  1  1  0  0  0
  1 55  1  0  0  0  0
  2  3  1  0  0  0  0
  2  4  1  0  0  0  0
  2  8  1  0  0  0  0
  2 22  1  6  0  0  0
  3  5  1  0  0  0  0
  3 10  1  0  0  0  0
  3 23  1  1  0  0  0
  4  7  1  0  0  0  0
  4 14  1  0  0  0  0
  4 18  1  1  0  0  0
  5  6  1  0  0  0  0
  5 12  1  0  0  0  0
  5 24  1  6  0  0  0
  6  9  1  0  0  0  0
  6 13  1  0  0  0  0
  6 19  1  1  0  0  0
  7 11  1  0  0  0  0
  7 16  1  0  0  0  0
  7 25  1  6  0  0  0
  8  9  1  0  0  0  0
  8 26  1  0  0  0  0
  8 27  1  0  0  0  0
  9 28  1  0  0  0  0
  9 29  1  0  0  0  0
 10 11  1  0  0  0  0
 10 30  1  0  0  0  0
 10 31  1  0  0  0  0
 11 32  1  0  0  0  0
 11 33  1  0  0  0  0
 12 15  1  0  0  0  0
 12 34  1  0  0  0  0
 12 35  1  0  0  0  0
 13 15  1  0  0  0  0
 13 36  1  0  0  0  0
 14 17  1  0  0  0  0
 14 37  1  0  0  0  0
 14 38  1  0  0  0  0
 15 39  1  0  0  0  0
 15 40  1  0  0  0  0
 16 20  1  0  0  0  0
 16 41  1  0  0  0  0
 16 42  1  0  0  0  0
 17 20  1  0  0  0  0
 17 21  1  6  0  0  0
 17 43  1  0  0  0  0
 18 44  1  0  0  0  0
 18 45  1  0  0  0  0
 18 46  1  0  0  0  0
 19 47  1  0  0  0  0
 19 48  1  0  0  0  0
 19 49  1  0  0  0  0
 20 50  1  0  0  0  0
 20 51  1  0  0  0  0
 21 52  1  0  0  0  0
 21 53  1  0  0  0  0
 21 54  1  0  0  0  0
M  END
> <PUBCHEM_COMPOUND_CID>
11954154

> <PUBCHEM_COMPOUND_CANONICALIZED>
1

> <PUBCHEM_CACTVS_COMPLEXITY>
418

> <PUBCHEM_CACTVS_HBOND_ACCEPTOR>
1

> <PUBCHEM_CACTVS_HBOND_DONOR>
1

> <PUBCHEM_CACTVS_ROTATABLE_BOND>
0

> <PUBCHEM_CACTVS_SUBSKEYS>
AAADcfB4IAAAAAAAAAAAAAAAAAAAAYAAAAAwYMAAAAAAAGDAAAAAGgAACAAADxSggAICAAAAAgAAAAAAAAAAAAAAAAAAAAAAAAAAEAIAAAAAQAAEAAAAAAGAwPAPgAAAAAAAAACAAAQAACAAAIAADAAAAA==

> <PUBCHEM_IUPAC_OPENEYE_NAME>
(2S,5R,8R,9S,10S,13S,14S,17S)-2,10,13-trimethyl-2,3,4,5,6,7,8,9,11,12,14,15,16,17-tetradecahydro-1H-cyclopenta[a]phenanthren-17-ol

> <PUBCHEM_IUPAC_CAS_NAME>
(2S,5R,8R,9S,10S,13S,14S,17S)-2,10,13-trimethyl-2,3,4,5,6,7,8,9,11,12,14,15,16,17-tetradecahydro-1H-cyclopenta[a]phenanthren-17-ol

> <PUBCHEM_IUPAC_NAME>
(2S,5R,8R,9S,10S,13S,14S,17S)-2,10,13-trimethyl-2,3,4,5,6,7,8,9,11,12,14,15,16,17-tetradecahydro-1H-cyclopenta[a]phenanthren-17-ol

> <PUBCHEM_IUPAC_SYSTEMATIC_NAME>
(2S,5R,8R,9S,10S,13S,14S,17S)-2,10,13-trimethyl-2,3,4,5,6,7,8,9,11,12,14,15,16,17-tetradecahydro-1H-cyclopenta[a]phenanthren-17-ol

> <PUBCHEM_IUPAC_TRADITIONAL_NAME>
(2S,5R,8R,9S,10S,13S,14S,17S)-2,10,13-trimethyl-2,3,4,5,6,7,8,9,11,12,14,15,16,17-tetradecahydro-1H-cyclopenta[a]phenanthren-17-ol

> <PUBCHEM_IUPAC_INCHI>
InChI=1S/C20H34O/c1-13-4-5-14-6-7-15-16-8-9-18(21)19(16,2)11-10-17(15)20(14,3)12-13/h13-18,21H,4-12H2,1-3H3/t13-,14+,15-,16-,17-,18-,19-,20-/m0/s1

> <PUBCHEM_IUPAC_INCHIKEY>
ZOCYLDVQMLRLSR-RGJFDMQWSA-N

> <PUBCHEM_XLOGP3>
6.1

> <PUBCHEM_EXACT_MASS>
290.260966

> <PUBCHEM_MOLECULAR_FORMULA>
C20H34O

> <PUBCHEM_MOLECULAR_WEIGHT>
290.48336

> <PUBCHEM_OPENEYE_CAN_SMILES>
CC1CCC2CCC3C4CCC(C4(CCC3C2(C1)C)C)O

> <PUBCHEM_OPENEYE_ISO_SMILES>
C[C@H]1CC[C@@H]2CC[C@H]3[C@@H]4CC[C@@H]([C@]4(CC[C@@H]3[C@]2(C1)C)C)O

> <PUBCHEM_CACTVS_TPSA>
20.2

> <PUBCHEM_MONOISOTOPIC_WEIGHT>
290.260966

> <PUBCHEM_TOTAL_CHARGE>
0

> <PUBCHEM_HEAVY_ATOM_COUNT>
21

> <PUBCHEM_ATOM_DEF_STEREO_COUNT>
8

> <PUBCHEM_ATOM_UDEF_STEREO_COUNT>
0

> <PUBCHEM_BOND_DEF_STEREO_COUNT>
0

> <PUBCHEM_BOND_UDEF_STEREO_COUNT>
0

> <PUBCHEM_ISOTOPIC_ATOM_COUNT>
0

> <PUBCHEM_COMPONENT_COUNT>
1

> <PUBCHEM_CACTVS_TAUTO_COUNT>
1

> <PUBCHEM_COORDINATE_TYPE>
1
5
255

> <PUBCHEM_BONDANNOTATIONS>
13  1  5
17  21  6
2  22  6
3  23  5
4  18  5
5  24  6
6  19  5
7  25  6

$$$$

