28495
  -OEChem-07051213083D

 20 21  0     1  0  0  0  0  0999 V2000
   -0.3387    1.6840   -0.4362 O   0  0  0  0  0  0  0  0  0  0  0  0
   -2.2101    1.7210    0.9582 O   0  0  0  0  0  0  0  0  0  0  0  0
   -0.9326   -2.4599    0.0664 O   0  0  0  0  0  0  0  0  0  0  0  0
   -3.0504   -0.7766   -0.1874 O   0  0  0  0  0  0  0  0  0  0  0  0
   -0.7681   -1.0754   -0.0852 N   0  0  0  0  0  0  0  0  0  0  0  0
    0.5249   -0.5522   -0.0203 C   0  0  0  0  0  0  0  0  0  0  0  0
    0.6930    0.8227   -0.1924 C   0  0  0  0  0  0  0  0  0  0  0  0
   -1.6398    1.1742   -0.2275 C   0  0  2  0  0  0  0  0  0  0  0  0
   -1.9053   -0.3271   -0.1823 C   0  0  0  0  0  0  0  0  0  0  0  0
    1.6460   -1.3647    0.1885 C   0  0  0  0  0  0  0  0  0  0  0  0
    1.9727    1.3828   -0.1620 C   0  0  0  0  0  0  0  0  0  0  0  0
    2.9224   -0.8005    0.2279 C   0  0  0  0  0  0  0  0  0  0  0  0
    3.0858    0.5718    0.0525 C   0  0  0  0  0  0  0  0  0  0  0  0
   -2.2423    1.5545   -1.0604 H   0  0  0  0  0  0  0  0  0  0  0  0
    1.5496   -2.4387    0.3226 H   0  0  0  0  0  0  0  0  0  0  0  0
    2.1093    2.4516   -0.3051 H   0  0  0  0  0  0  0  0  0  0  0  0
    3.7898   -1.4335    0.3919 H   0  0  0  0  0  0  0  0  0  0  0  0
    4.0798    1.0088    0.0790 H   0  0  0  0  0  0  0  0  0  0  0  0
   -1.8231    1.2473    1.7142 H   0  0  0  0  0  0  0  0  0  0  0  0
   -1.0319   -2.7295   -0.8628 H   0  0  0  0  0  0  0  0  0  0  0  0
  1  7  1  0  0  0  0
  1  8  1  0  0  0  0
  2  8  1  0  0  0  0
  2 19  1  0  0  0  0
  3  5  1  0  0  0  0
  3 20  1  0  0  0  0
  4  9  2  0  0  0  0
  5  6  1  0  0  0  0
  5  9  1  0  0  0  0
  6  7  1  0  0  0  0
  6 10  2  0  0  0  0
  7 11  2  0  0  0  0
  8  9  1  0  0  0  0
  8 14  1  0  0  0  0
 10 12  1  0  0  0  0
 10 15  1  0  0  0  0
 11 13  1  0  0  0  0
 11 16  1  0  0  0  0
 12 13  2  0  0  0  0
 12 17  1  0  0  0  0
 13 18  1  0  0  0  0
M  END
> <PUBCHEM_COMPOUND_CID>
28495

> <PUBCHEM_CONFORMER_RMSD>
0.4

> <PUBCHEM_CONFORMER_DIVERSEORDER>
1
2

> <PUBCHEM_MMFF94_PARTIAL_CHARGES>
19
1 -0.36
10 -0.15
11 -0.15
12 -0.15
13 -0.15
15 0.15
16 0.15
17 0.15
18 0.15
19 0.4
2 -0.68
20 0.4
3 -0.44
4 -0.57
5 -0.14
6 0.12
7 0.08
8 0.62
9 0.57

> <PUBCHEM_EFFECTIVE_ROTOR_COUNT>
0.6

> <PUBCHEM_PHARMACOPHORE_FEATURES>
6
1 1 acceptor
1 2 acceptor
1 2 donor
1 4 acceptor
6 1 5 6 7 8 9 rings
6 6 7 10 11 12 13 rings

> <PUBCHEM_HEAVY_ATOM_COUNT>
13

> <PUBCHEM_ATOM_DEF_STEREO_COUNT>
0

> <PUBCHEM_ATOM_UDEF_STEREO_COUNT>
1

> <PUBCHEM_BOND_DEF_STEREO_COUNT>
0

> <PUBCHEM_BOND_UDEF_STEREO_COUNT>
0

> <PUBCHEM_ISOTOPIC_ATOM_COUNT>
0

> <PUBCHEM_COMPONENT_COUNT>
1

> <PUBCHEM_CACTVS_TAUTO_COUNT>
1

> <PUBCHEM_CONFORMER_ID>
00006F4F00000001

> <PUBCHEM_MMFF94_ENERGY>
34.5181

> <PUBCHEM_FEATURE_SELFOVERLAP>
30.523

> <PUBCHEM_SHAPE_FINGERPRINT>
10967382 1 18339925900822682462
12382932 28 18336834203101236392
12423570 1 17557721165507304013
12491281 212 18338223951317635632
14144814 61 18412547630304094272
14325111 11 18410576210171610660
15775835 57 18340197596090574200
16945 1 18338233760980578972
193761 8 16970830286772547422
20510252 161 18259703401961513097
20871998 184 18187925019521193479
21040471 1 18411136956917390564
21501502 16 18410292536298037108
2334 1 18411420647833423412
23402539 116 18261969461272290879
23463225 33 18342178903316887822
23552423 10 18201439134386640820
23559900 14 18262511616101879958
241688 4 18342744051993183320
2748010 2 18268432510742006452
5084963 1 18334302001762260602
528886 8 18339368589982083240
66348 1 18339644421487694486

> <PUBCHEM_SHAPE_MULTIPOLES>
239.08
4.25
2.04
0.67
0.54
0.35
-0.05
-0.08
-0.28
-0.48
-0.08
-0.1
-0.13
-0.33

> <PUBCHEM_SHAPE_SELFOVERLAP>
518.17

> <PUBCHEM_SHAPE_VOLUME>
128.7

> <PUBCHEM_COORDINATE_TYPE>
2
5
10

$$$$

