11954104
  -OEChem-07051213063D

 56 59  0     1  0  0  0  0  0999 V2000
    0.5681   -0.2206   -1.1284 F   0  0  0  0  0  0  0  0  0  0  0  0
   -5.0622   -1.0325   -0.1934 O   0  0  0  0  0  0  0  0  0  0  0  0
   -0.5046   -1.8356    1.8903 O   0  0  0  0  0  0  0  0  0  0  0  0
    5.1575    0.3210   -1.4712 O   0  0  0  0  0  0  0  0  0  0  0  0
   -2.6902   -0.4427    0.1235 C   0  0  1  0  0  0  0  0  0  0  0  0
   -1.9204    0.8269   -0.2951 C   0  0  2  0  0  0  0  0  0  0  0  0
   -0.6108    1.0258    0.4833 C   0  0  1  0  0  0  0  0  0  0  0  0
    0.3244   -0.2115    0.2339 C   0  0  2  0  0  0  0  0  0  0  0  0
   -3.9757   -0.2982   -0.7546 C   0  0  2  0  0  0  0  0  0  0  0  0
    1.7294   -0.0249    0.9312 C   0  0  2  0  0  0  0  0  0  0  0  0
   -1.7875   -1.6586   -0.1670 C   0  0  0  0  0  0  0  0  0  0  0  0
   -0.3959   -1.5632    0.5027 C   0  0  2  0  0  0  0  0  0  0  0  0
   -2.9820    1.9207   -0.2348 C   0  0  0  0  0  0  0  0  0  0  0  0
   -4.2777    1.2247   -0.6926 C   0  0  0  0  0  0  0  0  0  0  0  0
    0.0724    2.3456    0.0669 C   0  0  0  0  0  0  0  0  0  0  0  0
   -3.1065   -0.4478    1.6239 C   0  0  0  0  0  0  0  0  0  0  0  0
    2.2935    1.2961    0.3926 C   0  0  0  0  0  0  0  0  0  0  0  0
    1.4594    2.5184    0.6850 C   0  0  0  0  0  0  0  0  0  0  0  0
    2.7252   -1.1895    0.6481 C   0  0  0  0  0  0  0  0  0  0  0  0
   -3.8397   -0.7628   -2.2103 C   0  0  0  0  0  0  0  0  0  0  0  0
    1.6326    0.0614    2.4780 C   0  0  0  0  0  0  0  0  0  0  0  0
    3.3745   -1.1413   -0.7332 C   0  0  1  0  0  0  0  0  0  0  0  0
    3.3836    1.4002   -0.3844 C   0  0  0  0  0  0  0  0  0  0  0  0
    4.0841    0.1934   -0.8860 C   0  0  0  0  0  0  0  0  0  0  0  0
    4.3483   -2.3051   -0.9084 C   0  0  0  0  0  0  0  0  0  0  0  0
   -1.6368    0.7373   -1.3546 H   0  0  0  0  0  0  0  0  0  0  0  0
   -0.8395    1.1071    1.5498 H   0  0  0  0  0  0  0  0  0  0  0  0
   -1.6161   -1.7488   -1.2460 H   0  0  0  0  0  0  0  0  0  0  0  0
   -2.2927   -2.5775    0.1550 H   0  0  0  0  0  0  0  0  0  0  0  0
    0.1954   -2.3729    0.0578 H   0  0  0  0  0  0  0  0  0  0  0  0
   -2.7368    2.7662   -0.8859 H   0  0  0  0  0  0  0  0  0  0  0  0
   -3.0982    2.3107    0.7827 H   0  0  0  0  0  0  0  0  0  0  0  0
   -5.0927    1.4489    0.0055 H   0  0  0  0  0  0  0  0  0  0  0  0
   -4.5873    1.6121   -1.6703 H   0  0  0  0  0  0  0  0  0  0  0  0
   -0.5513    3.1980    0.3612 H   0  0  0  0  0  0  0  0  0  0  0  0
    0.1604    2.3856   -1.0271 H   0  0  0  0  0  0  0  0  0  0  0  0
   -3.8569    0.3166    1.8519 H   0  0  0  0  0  0  0  0  0  0  0  0
   -3.5427   -1.4151    1.8996 H   0  0  0  0  0  0  0  0  0  0  0  0
   -2.2737   -0.2664    2.3053 H   0  0  0  0  0  0  0  0  0  0  0  0
    1.3812    2.6789    1.7657 H   0  0  0  0  0  0  0  0  0  0  0  0
    1.9189    3.4264    0.2759 H   0  0  0  0  0  0  0  0  0  0  0  0
    2.2421   -2.1601    0.8028 H   0  0  0  0  0  0  0  0  0  0  0  0
    3.5341   -1.1502    1.3943 H   0  0  0  0  0  0  0  0  0  0  0  0
   -3.0332   -0.2555   -2.7463 H   0  0  0  0  0  0  0  0  0  0  0  0
   -3.6743   -1.8443   -2.2667 H   0  0  0  0  0  0  0  0  0  0  0  0
   -4.7732   -0.5776   -2.7555 H   0  0  0  0  0  0  0  0  0  0  0  0
    0.8084    0.6874    2.8283 H   0  0  0  0  0  0  0  0  0  0  0  0
    1.5148   -0.9234    2.9396 H   0  0  0  0  0  0  0  0  0  0  0  0
    2.5530    0.4855    2.9003 H   0  0  0  0  0  0  0  0  0  0  0  0
    2.6191   -1.2104   -1.5229 H   0  0  0  0  0  0  0  0  0  0  0  0
   -4.8127   -1.9724   -0.1864 H   0  0  0  0  0  0  0  0  0  0  0  0
    3.7429    2.3581   -0.7449 H   0  0  0  0  0  0  0  0  0  0  0  0
    0.2200   -2.4375    2.1301 H   0  0  0  0  0  0  0  0  0  0  0  0
    3.8366   -3.2646   -0.7808 H   0  0  0  0  0  0  0  0  0  0  0  0
    4.7936   -2.2936   -1.9092 H   0  0  0  0  0  0  0  0  0  0  0  0
    5.1676   -2.2540   -0.1827 H   0  0  0  0  0  0  0  0  0  0  0  0
  1  8  1  0  0  0  0
  2  9  1  0  0  0  0
  2 51  1  0  0  0  0
  3 12  1  0  0  0  0
  3 53  1  0  0  0  0
  4 24  2  0  0  0  0
  5  6  1  0  0  0  0
  5  9  1  0  0  0  0
  5 11  1  0  0  0  0
  5 16  1  0  0  0  0
  6  7  1  0  0  0  0
  6 13  1  0  0  0  0
  6 26  1  0  0  0  0
  7  8  1  0  0  0  0
  7 15  1  0  0  0  0
  7 27  1  0  0  0  0
  8 10  1  0  0  0  0
  8 12  1  0  0  0  0
  9 14  1  0  0  0  0
  9 20  1  0  0  0  0
 10 17  1  0  0  0  0
 10 19  1  0  0  0  0
 10 21  1  0  0  0  0
 11 12  1  0  0  0  0
 11 28  1  0  0  0  0
 11 29  1  0  0  0  0
 12 30  1  0  0  0  0
 13 14  1  0  0  0  0
 13 31  1  0  0  0  0
 13 32  1  0  0  0  0
 14 33  1  0  0  0  0
 14 34  1  0  0  0  0
 15 18  1  0  0  0  0
 15 35  1  0  0  0  0
 15 36  1  0  0  0  0
 16 37  1  0  0  0  0
 16 38  1  0  0  0  0
 16 39  1  0  0  0  0
 17 18  1  0  0  0  0
 17 23  2  0  0  0  0
 18 40  1  0  0  0  0
 18 41  1  0  0  0  0
 19 22  1  0  0  0  0
 19 42  1  0  0  0  0
 19 43  1  0  0  0  0
 20 44  1  0  0  0  0
 20 45  1  0  0  0  0
 20 46  1  0  0  0  0
 21 47  1  0  0  0  0
 21 48  1  0  0  0  0
 21 49  1  0  0  0  0
 22 24  1  0  0  0  0
 22 25  1  0  0  0  0
 22 50  1  0  0  0  0
 23 24  1  0  0  0  0
 23 52  1  0  0  0  0
 25 54  1  0  0  0  0
 25 55  1  0  0  0  0
 25 56  1  0  0  0  0
M  END
> <PUBCHEM_COMPOUND_CID>
11954104

> <PUBCHEM_CONFORMER_RMSD>
0.6

> <PUBCHEM_CONFORMER_DIVERSEORDER>
1

> <PUBCHEM_MMFF94_PARTIAL_CHARGES>
16
1 -0.34
10 0.14
12 0.28
17 -0.28
18 0.14
2 -0.68
22 0.06
23 -0.14
24 0.49
3 -0.68
4 -0.57
51 0.4
52 0.15
53 0.4
8 0.34
9 0.28

> <PUBCHEM_EFFECTIVE_ROTOR_COUNT>
1.8

> <PUBCHEM_PHARMACOPHORE_FEATURES>
9
1 2 acceptor
1 2 donor
1 3 acceptor
1 3 donor
1 4 acceptor
5 5 6 9 13 14 rings
6 10 17 19 22 23 24 rings
6 5 6 7 8 11 12 rings
6 7 8 10 15 17 18 rings

> <PUBCHEM_HEAVY_ATOM_COUNT>
25

> <PUBCHEM_ATOM_DEF_STEREO_COUNT>
7

> <PUBCHEM_ATOM_UDEF_STEREO_COUNT>
1

> <PUBCHEM_BOND_DEF_STEREO_COUNT>
0

> <PUBCHEM_BOND_UDEF_STEREO_COUNT>
0

> <PUBCHEM_ISOTOPIC_ATOM_COUNT>
0

> <PUBCHEM_COMPONENT_COUNT>
1

> <PUBCHEM_CACTVS_TAUTO_COUNT>
5

> <PUBCHEM_CONFORMER_ID>
00B667B800000001

> <PUBCHEM_MMFF94_ENERGY>
99.0006

> <PUBCHEM_FEATURE_SELFOVERLAP>
45.777

> <PUBCHEM_SHAPE_FINGERPRINT>
10366900 7 17917996036415761217
10498660 4 17203335511084757837
10693767 8 18187946000916827135
10863032 1 16845569841943716066
10948715 1 12103548793581732296
1100329 8 17044298034532575113
11796584 16 16443062785774251101
11961588 58 17274822394152661212
12011746 2 18343584014779141013
12236239 1 17632303388893287672
12553582 1 18408037407795104880
12633257 1 14707205470887218527
12788726 201 18116704321721018424
12892183 10 11599731726722273693
13134695 92 17458351831379093632
13140716 1 18268442393562572801
13224815 77 17988931067462115473
14790565 3 17759231191250614441
15163728 17 16127273254347667639
15196674 1 18410292540266086821
15209294 21 11527945672937392639
15238133 3 17843982552504311097
16752209 62 18341061807929718769
16945 1 18337682897049395577
17349148 13 16732698350571201703
17492 89 18115880611360256423
1813 80 17749376088215305244
18186145 218 17988931088789246053
19862831 5 18272653484251837924
200 152 17749103396398884662
20645477 70 18410015403353914796
20691752 17 18131356344531018425
20775438 99 17466825613239901711
20871999 31 18413101779758957676
21069387 34 15502097444636247590
21285901 2 18262232347672612932
221357 26 18409451388565219221
22182313 1 18123744258460555200
22393880 68 18272101521304905469
23402539 116 18409729607903861556
23493267 7 17775280573422480873
23559900 14 18335708230222179928
2748010 2 17620474601735262048
2838139 119 15481812478218491116
296302 2 14261353548356907281
3004659 81 18270959159189512710
3323516 105 18409731746417818612
463206 1 17676773166475382774
474 4 16630234810829435060
633830 44 18271533069408479647
9709674 26 18337395924593576095
9981440 41 17323820867124842065

> <PUBCHEM_SHAPE_MULTIPOLES>
489.61
8.96
2.29
1.63
0.4
0.52
-0.45
-1.96
4.31
-0.76
0.02
0
-0.43
0.33

> <PUBCHEM_SHAPE_SELFOVERLAP>
1057.068

> <PUBCHEM_SHAPE_VOLUME>
270.8

> <PUBCHEM_COORDINATE_TYPE>
2
5
10

$$$$

