14042
  -OEChem-06241222413D

 18 17  0     1  0  0  0  0  0999 V2000
   -0.8589   -0.9075   -1.3974 O   0  0  0  0  0  0  0  0  0  0  0  0
    0.9979    1.8623    0.1112 O   0  0  0  0  0  0  0  0  0  0  0  0
   -0.7015    0.3328   -0.7104 C   0  0  2  0  0  0  0  0  0  0  0  0
    0.7948    0.5460   -0.4014 C   0  0  2  0  0  0  0  0  0  0  0  0
   -1.5973    0.4040    0.5026 C   0  0  0  0  0  0  0  0  0  0  0  0
    1.3610   -0.4305    0.5933 C   0  0  0  0  0  0  0  0  0  0  0  0
   -2.3929   -0.5687    0.9638 C   0  0  0  0  0  0  0  0  0  0  0  0
    2.3968   -1.2383    0.3384 C   0  0  0  0  0  0  0  0  0  0  0  0
   -1.0389    1.1231   -1.3930 H   0  0  0  0  0  0  0  0  0  0  0  0
    1.3615    0.4758   -1.3387 H   0  0  0  0  0  0  0  0  0  0  0  0
   -1.5971    1.3493    1.0417 H   0  0  0  0  0  0  0  0  0  0  0  0
    0.9205   -0.4610    1.5865 H   0  0  0  0  0  0  0  0  0  0  0  0
   -0.3247   -0.8645   -2.2088 H   0  0  0  0  0  0  0  0  0  0  0  0
    0.6699    2.4903   -0.5549 H   0  0  0  0  0  0  0  0  0  0  0  0
   -3.0011   -0.4028    1.8468 H   0  0  0  0  0  0  0  0  0  0  0  0
   -2.4568   -1.5389    0.4851 H   0  0  0  0  0  0  0  0  0  0  0  0
    2.7690   -1.9116    1.1029 H   0  0  0  0  0  0  0  0  0  0  0  0
    2.8881   -1.2446   -0.6282 H   0  0  0  0  0  0  0  0  0  0  0  0
  1  3  1  0  0  0  0
  1 13  1  0  0  0  0
  2  4  1  0  0  0  0
  2 14  1  0  0  0  0
  3  4  1  0  0  0  0
  3  5  1  0  0  0  0
  3  9  1  0  0  0  0
  4  6  1  0  0  0  0
  4 10  1  0  0  0  0
  5  7  2  0  0  0  0
  5 11  1  0  0  0  0
  6  8  2  0  0  0  0
  6 12  1  0  0  0  0
  7 15  1  0  0  0  0
  7 16  1  0  0  0  0
  8 17  1  0  0  0  0
  8 18  1  0  0  0  0
M  END
> <PUBCHEM_COMPOUND_CID>
14042

> <PUBCHEM_CONFORMER_RMSD>
0.6

> <PUBCHEM_CONFORMER_DIVERSEORDER>
1
7
11
12
18
6
10
15
8
4
17
14
19
16
13
9
5
3
2

> <PUBCHEM_MMFF94_PARTIAL_CHARGES>
16
1 -0.68
11 0.15
12 0.15
13 0.4
14 0.4
15 0.15
16 0.15
17 0.15
18 0.15
2 -0.68
3 0.42
4 0.42
5 -0.29
6 -0.29
7 -0.3
8 -0.3

> <PUBCHEM_EFFECTIVE_ROTOR_COUNT>
3

> <PUBCHEM_PHARMACOPHORE_FEATURES>
6
1 1 acceptor
1 1 donor
1 2 acceptor
1 2 donor
1 7 hydrophobe
1 8 hydrophobe

> <PUBCHEM_HEAVY_ATOM_COUNT>
8

> <PUBCHEM_ATOM_DEF_STEREO_COUNT>
0

> <PUBCHEM_ATOM_UDEF_STEREO_COUNT>
2

> <PUBCHEM_BOND_DEF_STEREO_COUNT>
0

> <PUBCHEM_BOND_UDEF_STEREO_COUNT>
0

> <PUBCHEM_ISOTOPIC_ATOM_COUNT>
0

> <PUBCHEM_COMPONENT_COUNT>
1

> <PUBCHEM_CACTVS_TAUTO_COUNT>
1

> <PUBCHEM_CONFORMER_ID>
000036DA00000001

> <PUBCHEM_MMFF94_ENERGY>
8.5546

> <PUBCHEM_FEATURE_SELFOVERLAP>
30.446

> <PUBCHEM_SHAPE_FINGERPRINT>
12897270 3 14476948021751324650
137420 1 4671794369519500956
14128692 85 17345733287852389254
20711978 78 18271810064396787763
21040471 1 16298650733933061565
21922407 69 17971486104021802795
23552333 60 17828509984338771751
23552449 11 18341599396248716395
24536 1 17274277066334244893
29004967 10 18343024427763896594
5084963 1 16371543986930938021

> <PUBCHEM_SHAPE_MULTIPOLES>
152.9
3.05
1.36
1.08
0.02
0.38
-0.33
-1.37
0.82
0.51
0.19
-0.37
-0.15
0.09

> <PUBCHEM_SHAPE_SELFOVERLAP>
281.152

> <PUBCHEM_SHAPE_VOLUME>
96.9

> <PUBCHEM_COORDINATE_TYPE>
2
5
10

$$$$

