128597
  -OEChem-07051212492D

 30 29  0     1  0  0  0  0  0999 V2000
    7.1962    2.1550    0.0000 O   0  0  0  0  0  0  0  0  0  0  0  0
    2.8660   -3.3450    0.0000 O   0  0  0  0  0  0  0  0  0  0  0  0
    6.3301    3.6550    0.0000 O   0  0  0  0  0  0  0  0  0  0  0  0
    2.0000   -1.8450    0.0000 O   0  0  0  0  0  0  0  0  0  0  0  0
    3.7320   -0.8450    0.0000 N   0  0  0  0  0  0  0  0  0  0  0  0
    4.5981    2.6550    0.0000 N   0  0  0  0  0  0  0  0  0  0  0  0
    4.5981    0.6550    0.0000 C   0  0  0  0  0  0  0  0  0  0  0  0
    5.4641    1.1550    0.0000 C   0  0  0  0  0  0  0  0  0  0  0  0
    4.5981   -0.3450    0.0000 C   0  0  0  0  0  0  0  0  0  0  0  0
    5.4641    2.1550    0.0000 C   0  0  1  0  0  0  0  0  0  0  0  0
    3.7320   -1.8450    0.0000 C   0  0  1  0  0  0  0  0  0  0  0  0
    4.5981   -2.3450    0.0000 C   0  0  0  0  0  0  0  0  0  0  0  0
    6.3301    2.6550    0.0000 C   0  0  0  0  0  0  0  0  0  0  0  0
    2.8660   -2.3450    0.0000 C   0  0  0  0  0  0  0  0  0  0  0  0
    4.3860    1.2376    0.0000 H   0  0  0  0  0  0  0  0  0  0  0  0
    3.9875    0.5473    0.0000 H   0  0  0  0  0  0  0  0  0  0  0  0
    5.6762    0.5724    0.0000 H   0  0  0  0  0  0  0  0  0  0  0  0
    6.0747    1.2627    0.0000 H   0  0  0  0  0  0  0  0  0  0  0  0
    4.8101   -0.9276    0.0000 H   0  0  0  0  0  0  0  0  0  0  0  0
    5.2087   -0.2373    0.0000 H   0  0  0  0  0  0  0  0  0  0  0  0
    5.4641    2.7750    0.0000 H   0  0  0  0  0  0  0  0  0  0  0  0
    3.1951   -0.5350    0.0000 H   0  0  0  0  0  0  0  0  0  0  0  0
    4.2690   -1.5350    0.0000 H   0  0  0  0  0  0  0  0  0  0  0  0
    4.2881   -2.8819    0.0000 H   0  0  0  0  0  0  0  0  0  0  0  0
    5.1350   -2.6550    0.0000 H   0  0  0  0  0  0  0  0  0  0  0  0
    4.9081   -1.8081    0.0000 H   0  0  0  0  0  0  0  0  0  0  0  0
    4.0611    2.3450    0.0000 H   0  0  0  0  0  0  0  0  0  0  0  0
    4.5981    3.2750    0.0000 H   0  0  0  0  0  0  0  0  0  0  0  0
    7.7331    2.4650    0.0000 H   0  0  0  0  0  0  0  0  0  0  0  0
    2.3291   -3.6550    0.0000 H   0  0  0  0  0  0  0  0  0  0  0  0
  1 13  1  0  0  0  0
  1 29  1  0  0  0  0
  2 14  1  0  0  0  0
  2 30  1  0  0  0  0
  3 13  2  0  0  0  0
  4 14  2  0  0  0  0
  5  9  1  0  0  0  0
 11  5  1  1  0  0  0
  5 22  1  0  0  0  0
 10  6  1  6  0  0  0
  6 27  1  0  0  0  0
  6 28  1  0  0  0  0
  7  8  1  0  0  0  0
  7  9  1  0  0  0  0
  7 15  1  0  0  0  0
  7 16  1  0  0  0  0
  8 10  1  0  0  0  0
  8 17  1  0  0  0  0
  8 18  1  0  0  0  0
  9 19  1  0  0  0  0
  9 20  1  0  0  0  0
 10 13  1  0  0  0  0
 10 21  1  0  0  0  0
 11 12  1  0  0  0  0
 11 14  1  0  0  0  0
 11 23  1  0  0  0  0
 12 24  1  0  0  0  0
 12 25  1  0  0  0  0
 12 26  1  0  0  0  0
M  END
> <PUBCHEM_COMPOUND_CID>
128597

> <PUBCHEM_COMPOUND_CANONICALIZED>
1

> <PUBCHEM_CACTVS_COMPLEXITY>
208

> <PUBCHEM_CACTVS_HBOND_ACCEPTOR>
6

> <PUBCHEM_CACTVS_HBOND_DONOR>
4

> <PUBCHEM_CACTVS_ROTATABLE_BOND>
7

> <PUBCHEM_CACTVS_SUBSKEYS>
AAADceBzOAAAAAAAAAAAAAAAAAAAAAAAAAAAAAAAAAAAAAAAAAAAHgAQCAAACCjBgAQCCALAAgAIAACQCAAAAAAAAAAAAIGIAAACABIAgCAEQAAEEACQAACYEQIAAAAAAAAAAAAAAAAAAAAAAAAAAAAAAA==

> <PUBCHEM_IUPAC_OPENEYE_NAME>
(2S)-2-amino-5-[[(1S)-1-carboxyethyl]amino]pentanoic acid

> <PUBCHEM_IUPAC_CAS_NAME>
(2S)-2-amino-5-[[(1S)-1-carboxyethyl]amino]pentanoic acid

> <PUBCHEM_IUPAC_NAME>
(2S)-2-amino-5-[[(1S)-1-carboxyethyl]amino]pentanoic acid

> <PUBCHEM_IUPAC_SYSTEMATIC_NAME>
(2S)-2-azanyl-5-[[(2S)-1-oxidanyl-1-oxidanylidene-propan-2-yl]amino]pentanoic acid

> <PUBCHEM_IUPAC_TRADITIONAL_NAME>
(2S)-2-amino-5-[[(1S)-1-carboxyethyl]amino]valeric acid

> <PUBCHEM_IUPAC_INCHI>
InChI=1S/C8H16N2O4/c1-5(7(11)12)10-4-2-3-6(9)8(13)14/h5-6,10H,2-4,9H2,1H3,(H,11,12)(H,13,14)/t5-,6-/m0/s1

> <PUBCHEM_IUPAC_INCHIKEY>
DEGCDQUOHKYOQM-WDSKDSINSA-N

> <PUBCHEM_XLOGP3_AA>
-5.4

> <PUBCHEM_EXACT_MASS>
204.111007

> <PUBCHEM_MOLECULAR_FORMULA>
C8H16N2O4

> <PUBCHEM_MOLECULAR_WEIGHT>
204.22364

> <PUBCHEM_OPENEYE_CAN_SMILES>
CC(C(=O)O)NCCCC(C(=O)O)N

> <PUBCHEM_OPENEYE_ISO_SMILES>
C[C@@H](C(=O)O)NCCC[C@@H](C(=O)O)N

> <PUBCHEM_CACTVS_TPSA>
113

> <PUBCHEM_MONOISOTOPIC_WEIGHT>
204.111007

> <PUBCHEM_TOTAL_CHARGE>
0

> <PUBCHEM_HEAVY_ATOM_COUNT>
14

> <PUBCHEM_ATOM_DEF_STEREO_COUNT>
2

> <PUBCHEM_ATOM_UDEF_STEREO_COUNT>
0

> <PUBCHEM_BOND_DEF_STEREO_COUNT>
0

> <PUBCHEM_BOND_UDEF_STEREO_COUNT>
0

> <PUBCHEM_ISOTOPIC_ATOM_COUNT>
0

> <PUBCHEM_COMPONENT_COUNT>
1

> <PUBCHEM_CACTVS_TAUTO_COUNT>
1

> <PUBCHEM_COORDINATE_TYPE>
1
5
255

> <PUBCHEM_BONDANNOTATIONS>
11  5  5
10  6  6

$$$$

