17395281
  -OEChem-06241222493D

 49 51  0     1  0  0  0  0  0999 V2000
   -0.4240    0.1775   -0.1669 O   0  0  0  0  0  0  0  0  0  0  0  0
   -6.7717   -1.0915   -0.5176 O   0  0  0  0  0  0  0  0  0  0  0  0
    0.5799   -1.8825   -0.3851 O   0  0  0  0  0  0  0  0  0  0  0  0
   -2.5691    1.8162   -0.0778 O   0  0  0  0  0  0  0  0  0  0  0  0
    5.3365   -0.6763    0.0398 N   0  0  0  0  0  0  0  0  0  0  0  0
    4.9703   -1.9567   -0.1509 N   0  0  0  0  0  0  0  0  0  0  0  0
    4.3545    1.5212    0.2773 N   0  0  0  0  0  0  0  0  0  0  0  0
   -4.0649    0.0590   -0.3706 N   0  0  0  0  0  0  0  0  0  0  0  0
    6.7371   -0.3480    0.1631 C   0  0  0  0  0  0  0  0  0  0  0  0
    4.2856    0.1909    0.0966 C   0  0  0  0  0  0  0  0  0  0  0  0
    3.1452   -0.5795   -0.0689 C   0  0  0  0  0  0  0  0  0  0  0  0
    1.9053    0.0711   -0.0508 C   0  0  0  0  0  0  0  0  0  0  0  0
    7.3732   -1.0048    1.3897 C   0  0  0  0  0  0  0  0  0  0  0  0
    7.5148   -0.6685   -1.1149 C   0  0  0  0  0  0  0  0  0  0  0  0
    3.6363   -1.8920   -0.2160 C   0  0  0  0  0  0  0  0  0  0  0  0
    3.1318    2.1056    0.2873 C   0  0  0  0  0  0  0  0  0  0  0  0
    1.9127    1.4539    0.1332 C   0  0  0  0  0  0  0  0  0  0  0  0
   -5.2834    0.8347   -0.3311 C   0  0  2  0  0  0  0  0  0  0  0  0
    0.6612   -0.6563   -0.2177 C   0  0  0  0  0  0  0  0  0  0  0  0
   -6.4076   -0.0132    0.2245 C   0  0  0  0  0  0  0  0  0  0  0  0
   -5.6035    1.4118   -1.7059 C   0  0  0  0  0  0  0  0  0  0  0  0
    3.1232    3.5883    0.4841 C   0  0  0  0  0  0  0  0  0  0  0  0
   -1.7141   -0.4246   -0.3182 C   0  0  0  0  0  0  0  0  0  0  0  0
   -2.8051    0.6220   -0.2395 C   0  0  0  0  0  0  0  0  0  0  0  0
   -7.1745    0.0709    1.3634 C   0  0  0  0  0  0  0  0  0  0  0  0
   -8.0673   -1.0263    1.3180 C   0  0  0  0  0  0  0  0  0  0  0  0
   -7.7824   -1.7028    0.1548 C   0  0  0  0  0  0  0  0  0  0  0  0
    6.7989    0.7372    0.3123 H   0  0  0  0  0  0  0  0  0  0  0  0
    8.4073   -0.6675    1.5166 H   0  0  0  0  0  0  0  0  0  0  0  0
    6.8200   -0.7495    2.3002 H   0  0  0  0  0  0  0  0  0  0  0  0
    7.3840   -2.0968    1.3019 H   0  0  0  0  0  0  0  0  0  0  0  0
    7.0622   -0.1742   -1.9817 H   0  0  0  0  0  0  0  0  0  0  0  0
    8.5516   -0.3254   -1.0333 H   0  0  0  0  0  0  0  0  0  0  0  0
    7.5317   -1.7451   -1.3170 H   0  0  0  0  0  0  0  0  0  0  0  0
    3.0868   -2.8099   -0.3682 H   0  0  0  0  0  0  0  0  0  0  0  0
    0.9967    2.0367    0.1598 H   0  0  0  0  0  0  0  0  0  0  0  0
   -5.1220    1.6745    0.3569 H   0  0  0  0  0  0  0  0  0  0  0  0
   -4.1377   -0.9405   -0.5417 H   0  0  0  0  0  0  0  0  0  0  0  0
   -6.5271    2.0001   -1.6787 H   0  0  0  0  0  0  0  0  0  0  0  0
   -4.7958    2.0633   -2.0565 H   0  0  0  0  0  0  0  0  0  0  0  0
   -5.7336    0.6197   -2.4525 H   0  0  0  0  0  0  0  0  0  0  0  0
    2.5654    3.8487    1.3893 H   0  0  0  0  0  0  0  0  0  0  0  0
    4.1413    3.9771    0.5919 H   0  0  0  0  0  0  0  0  0  0  0  0
    2.6626    4.0837   -0.3766 H   0  0  0  0  0  0  0  0  0  0  0  0
   -1.7721   -0.9187   -1.2947 H   0  0  0  0  0  0  0  0  0  0  0  0
   -1.8701   -1.1556    0.4831 H   0  0  0  0  0  0  0  0  0  0  0  0
   -7.1010    0.8273    2.1314 H   0  0  0  0  0  0  0  0  0  0  0  0
   -8.8238   -1.2911    2.0425 H   0  0  0  0  0  0  0  0  0  0  0  0
   -8.1859   -2.5888   -0.3130 H   0  0  0  0  0  0  0  0  0  0  0  0
  1 19  1  0  0  0  0
  1 23  1  0  0  0  0
  2 20  1  0  0  0  0
  2 27  1  0  0  0  0
  3 19  2  0  0  0  0
  4 24  2  0  0  0  0
  5  6  1  0  0  0  0
  5  9  1  0  0  0  0
  5 10  1  0  0  0  0
  6 15  2  0  0  0  0
  7 10  2  0  0  0  0
  7 16  1  0  0  0  0
  8 18  1  0  0  0  0
  8 24  1  0  0  0  0
  8 38  1  0  0  0  0
  9 13  1  0  0  0  0
  9 14  1  0  0  0  0
  9 28  1  0  0  0  0
 10 11  1  0  0  0  0
 11 12  2  0  0  0  0
 11 15  1  0  0  0  0
 12 17  1  0  0  0  0
 12 19  1  0  0  0  0
 13 29  1  0  0  0  0
 13 30  1  0  0  0  0
 13 31  1  0  0  0  0
 14 32  1  0  0  0  0
 14 33  1  0  0  0  0
 14 34  1  0  0  0  0
 15 35  1  0  0  0  0
 16 17  2  0  0  0  0
 16 22  1  0  0  0  0
 17 36  1  0  0  0  0
 18 20  1  0  0  0  0
 18 21  1  0  0  0  0
 18 37  1  0  0  0  0
 20 25  2  0  0  0  0
 21 39  1  0  0  0  0
 21 40  1  0  0  0  0
 21 41  1  0  0  0  0
 22 42  1  0  0  0  0
 22 43  1  0  0  0  0
 22 44  1  0  0  0  0
 23 24  1  0  0  0  0
 23 45  1  0  0  0  0
 23 46  1  0  0  0  0
 25 26  1  0  0  0  0
 25 47  1  0  0  0  0
 26 27  2  0  0  0  0
 26 48  1  0  0  0  0
 27 49  1  0  0  0  0
M  END
> <PUBCHEM_COMPOUND_CID>
17395281

> <PUBCHEM_CONFORMER_RMSD>
1

> <PUBCHEM_CONFORMER_DIVERSEORDER>
1
58
110
116
179
70
6
182
172
108
157
186
74
199
118
68
75
174
7
155
137
76
149
78
145
200
92
150
128
146
79
198
46
89
61
87
10
50
193
164
8
143
64
11
65
188
163
185
113
41
111
171
25
101
15
88
139
48
109
24
131
201
170
22
168
103
190
53
60
142
26
104
130
66
102
91
86
124
57
20
72
28
156
115
56
85
169
154
191
125
99
49
27
136
97
17
151
202
119
173
77
135
45
94
147
32
43
38
160
162
126
106
175
129
176
2
117
165
82
167
9
67
114
23
21
161
177
184
180
40
120
90
16
4
138
5
194
13
81
80
14
189
134
96
107
166
54
35
93
195
33
71
140
95
39
98
31
196
84
29
34
187
178
18
55
63
141
59
105
3
36
183
12
100
123
47
132
197
30
122
121
83
62
152
148
44
153
37
69
133
52
158
127
159
42
19
181
51
112
73
192
144

> <PUBCHEM_MMFF94_PARTIAL_CHARGES>
29
1 -0.43
10 0.11
12 0.09
15 0.14
16 0.17
17 -0.15
18 0.48
19 0.63
2 -0.28
20 -0.04
22 0.14
23 0.34
24 0.57
25 -0.15
26 -0.15
27 -0.01
3 -0.57
35 0.15
36 0.15
38 0.37
4 -0.57
47 0.15
48 0.15
49 0.15
5 0.31
6 -0.71
7 -0.57
8 -0.73
9 0.26

> <PUBCHEM_EFFECTIVE_ROTOR_COUNT>
8

> <PUBCHEM_PHARMACOPHORE_FEATURES>
10
1 2 acceptor
1 3 acceptor
1 4 acceptor
1 6 acceptor
1 8 donor
3 5 7 10 cation
3 9 13 14 hydrophobe
5 2 20 25 26 27 rings
5 5 6 10 11 15 rings
6 7 10 11 12 16 17 rings

> <PUBCHEM_HEAVY_ATOM_COUNT>
27

> <PUBCHEM_ATOM_DEF_STEREO_COUNT>
0

> <PUBCHEM_ATOM_UDEF_STEREO_COUNT>
1

> <PUBCHEM_BOND_DEF_STEREO_COUNT>
0

> <PUBCHEM_BOND_UDEF_STEREO_COUNT>
0

> <PUBCHEM_ISOTOPIC_ATOM_COUNT>
0

> <PUBCHEM_COMPONENT_COUNT>
1

> <PUBCHEM_CACTVS_TAUTO_COUNT>
2

> <PUBCHEM_CONFORMER_ID>
01096E5100000001

> <PUBCHEM_MMFF94_ENERGY>
41.2875

> <PUBCHEM_FEATURE_SELFOVERLAP>
50.854

> <PUBCHEM_SHAPE_FINGERPRINT>
10050765 1 18121220883612104102
10162869 55 18114756962284685079
10299344 5 18113334194328058567
10411042 1 18120089735846374846
10677351 14 18341615880892394109
11315181 36 15410889661885090901
11578080 2 16879654574173146234
11646440 116 17967254204300170184
12166972 35 18272366456373706325
12539765 74 14129062483200215180
12616971 3 17676212360126788453
13533116 47 18409445864952660641
13560911 43 18412831300284153880
13685833 64 18412262847923029712
13782708 43 17917435388185391795
14170010 4 18333736810516659160
14251764 18 18273495680368464226
14849402 71 18335419024246873152
14933364 13 18413107273449397189
15142383 8 7565343124269388002
15183329 4 18113626698358649871
15419008 47 17988649605534669413
15716309 27 18335137575841046187
17093844 174 6338951166700585559
17844677 252 18410007754671704037
18608769 82 18272651229694967267
21049683 271 18341889689395523724
21150785 3 15841548565968511503
21267235 1 18334572464849181612
22224240 67 14620792691675694616
2303208 19 18273494585668502277
23081809 10 13254806746102524373
23522609 53 17677874753257937385
23559900 14 18335991904111188104
24771750 20 18198051492281781196
249057 3 18333453123252022070
3178227 256 18408321098864365274
335352 9 18408885123382225334
4073 2 18129941165702600531

> <PUBCHEM_SHAPE_MULTIPOLES>
512.25
25.43
2.33
1.03
25.53
1.61
-0.03
-9.62
-4.04
-2.03
-0.18
0.8
0.02
1.3

> <PUBCHEM_SHAPE_SELFOVERLAP>
1093.954

> <PUBCHEM_SHAPE_VOLUME>
286.2

> <PUBCHEM_COORDINATE_TYPE>
2
5
10

$$$$

