5281758
  -OEChem-07051212593D

 31 31  0     0  0  0  0  0  0999 V2000
   -1.9028   -1.7831    0.7006 O   0  0  0  0  0  0  0  0  0  0  0  0
    2.5277    1.4349    0.0393 O   0  0  0  0  0  0  0  0  0  0  0  0
    2.7839   -1.3328    0.0305 O   0  0  0  0  0  0  0  0  0  0  0  0
   -0.9465    0.4163    0.5438 C   0  0  0  0  0  0  0  0  0  0  0  0
   -0.8179   -0.9727    0.5391 C   0  0  0  0  0  0  0  0  0  0  0  0
    1.4350    0.6379    0.2036 C   0  0  0  0  0  0  0  0  0  0  0  0
    1.5637   -0.7509    0.1989 C   0  0  0  0  0  0  0  0  0  0  0  0
    0.1799    1.2216    0.3761 C   0  0  0  0  0  0  0  0  0  0  0  0
    0.4373   -1.5562    0.3667 C   0  0  0  0  0  0  0  0  0  0  0  0
   -2.2463    1.0495    0.7217 C   0  0  0  0  0  0  0  0  0  0  0  0
   -3.0955    1.4026   -0.2681 C   0  0  0  0  0  0  0  0  0  0  0  0
   -2.5953   -2.1796   -0.4806 C   0  0  0  0  0  0  0  0  0  0  0  0
    2.3103    2.8443    0.0566 C   0  0  0  0  0  0  0  0  0  0  0  0
   -2.8183    1.1902   -1.7209 C   0  0  0  0  0  0  0  0  0  0  0  0
    3.1849   -1.6220   -1.3072 C   0  0  0  0  0  0  0  0  0  0  0  0
    0.0225    2.2956    0.3886 H   0  0  0  0  0  0  0  0  0  0  0  0
    0.5381   -2.6388    0.3639 H   0  0  0  0  0  0  0  0  0  0  0  0
   -2.5346    1.2408    1.7524 H   0  0  0  0  0  0  0  0  0  0  0  0
   -4.0408    1.8687   -0.0039 H   0  0  0  0  0  0  0  0  0  0  0  0
   -3.5532   -1.6547   -0.5287 H   0  0  0  0  0  0  0  0  0  0  0  0
   -2.7921   -3.2537   -0.4188 H   0  0  0  0  0  0  0  0  0  0  0  0
   -2.0207   -1.9812   -1.3920 H   0  0  0  0  0  0  0  0  0  0  0  0
    1.9320    3.1830    1.0271 H   0  0  0  0  0  0  0  0  0  0  0  0
    1.6744    3.1652   -0.7756 H   0  0  0  0  0  0  0  0  0  0  0  0
    3.2852    3.3219   -0.0875 H   0  0  0  0  0  0  0  0  0  0  0  0
   -3.6015    0.5606   -2.1552 H   0  0  0  0  0  0  0  0  0  0  0  0
   -2.8338    2.1537   -2.2402 H   0  0  0  0  0  0  0  0  0  0  0  0
   -1.8558    0.7163   -1.9287 H   0  0  0  0  0  0  0  0  0  0  0  0
    3.2365   -0.7041   -1.9013 H   0  0  0  0  0  0  0  0  0  0  0  0
    2.4915   -2.3312   -1.7704 H   0  0  0  0  0  0  0  0  0  0  0  0
    4.1797   -2.0749   -1.2765 H   0  0  0  0  0  0  0  0  0  0  0  0
  1  5  1  0  0  0  0
  1 12  1  0  0  0  0
  2  6  1  0  0  0  0
  2 13  1  0  0  0  0
  3  7  1  0  0  0  0
  3 15  1  0  0  0  0
  4  5  1  0  0  0  0
  4  8  2  0  0  0  0
  4 10  1  0  0  0  0
  5  9  2  0  0  0  0
  6  7  2  0  0  0  0
  6  8  1  0  0  0  0
  7  9  1  0  0  0  0
  8 16  1  0  0  0  0
  9 17  1  0  0  0  0
 10 11  2  0  0  0  0
 10 18  1  0  0  0  0
 11 14  1  0  0  0  0
 11 19  1  0  0  0  0
 12 20  1  0  0  0  0
 12 21  1  0  0  0  0
 12 22  1  0  0  0  0
 13 23  1  0  0  0  0
 13 24  1  0  0  0  0
 13 25  1  0  0  0  0
 14 26  1  0  0  0  0
 14 27  1  0  0  0  0
 14 28  1  0  0  0  0
 15 29  1  0  0  0  0
 15 30  1  0  0  0  0
 15 31  1  0  0  0  0
M  END
> <PUBCHEM_COMPOUND_CID>
5281758

> <PUBCHEM_CONFORMER_RMSD>
0.6

> <PUBCHEM_CONFORMER_DIVERSEORDER>
6
8
11
10
2
1
7
5
9
3
4

> <PUBCHEM_MMFF94_PARTIAL_CHARGES>
19
1 -0.36
10 -0.18
11 -0.29
12 0.28
13 0.28
14 0.14
15 0.28
16 0.15
17 0.15
18 0.15
19 0.15
2 -0.36
3 -0.36
4 0.03
5 0.08
6 0.08
7 0.08
8 -0.15
9 -0.15

> <PUBCHEM_EFFECTIVE_ROTOR_COUNT>
4

> <PUBCHEM_PHARMACOPHORE_FEATURES>
5
1 1 acceptor
1 14 hydrophobe
1 2 acceptor
1 3 acceptor
6 4 5 6 7 8 9 rings

> <PUBCHEM_HEAVY_ATOM_COUNT>
15

> <PUBCHEM_ATOM_DEF_STEREO_COUNT>
0

> <PUBCHEM_ATOM_UDEF_STEREO_COUNT>
0

> <PUBCHEM_BOND_DEF_STEREO_COUNT>
1

> <PUBCHEM_BOND_UDEF_STEREO_COUNT>
0

> <PUBCHEM_ISOTOPIC_ATOM_COUNT>
0

> <PUBCHEM_COMPONENT_COUNT>
1

> <PUBCHEM_CACTVS_TAUTO_COUNT>
1

> <PUBCHEM_CONFORMER_ID>
005097DE00000006

> <PUBCHEM_MMFF94_ENERGY>
71.3931

> <PUBCHEM_FEATURE_SELFOVERLAP>
25.376

> <PUBCHEM_SHAPE_FINGERPRINT>
10756046 5 18408885118137750615
11206711 2 18195806263123934157
12932764 1 17989203780462858489
13140716 1 18411134744787609682
13294875 104 17843150200584641640
13380535 21 18338783529526628617
13380535 239 18340491041209450823
14614273 12 18124880057950633497
14648413 74 18410568483609620592
14911166 2 18266735977185340798
14993402 34 18193274328199739239
15279308 100 18271245035663520388
15490181 7 18130518525645339329
16945 1 18267022945330212658
18186145 218 18266186204545303773
193761 8 18338230470935345250
20233049 118 17915460717041616532
20645476 183 17416097672543620762
21069387 34 17604155946476567926
21501502 16 18410573937912085851
21524375 3 17906734705191058304
22802520 49 18410853244093835813
23114952 82 18411697664792408364
2334 1 18339075978202523554
23402539 116 17829333828065312870
23552423 10 18412259506581151850
23557571 272 17772472279186833823
23559900 14 18265043808355139454
23566358 2 18336829697353255015
25 1 17840308053669656749
2748010 2 18411413982086384658
3060560 45 18052558839168087725
353137 74 18055648213307088259
7364860 26 18261101938324441424
74978 22 18409727399852775826
81228 2 17986383400426273683

> <PUBCHEM_SHAPE_MULTIPOLES>
291.09
5.1
2.79
1.08
0.2
0.38
-0.44
0.21
-1.74
0.65
-0.19
-0.41
-0.02
0.74

> <PUBCHEM_SHAPE_SELFOVERLAP>
595.188

> <PUBCHEM_SHAPE_VOLUME>
170.3

> <PUBCHEM_COORDINATE_TYPE>
2
5
10

$$$$

