439318
  -OEChem-07051212453D

 70 72  0     1  0  0  0  0  0999 V2000
   -1.2799   -0.3858   -0.5446 O   0  0  0  0  0  0  0  0  0  0  0  0
    1.3559   -0.9279    0.4073 O   0  0  0  0  0  0  0  0  0  0  0  0
    0.0970   -3.4720   -1.8820 O   0  0  0  0  0  0  0  0  0  0  0  0
   -3.4485    0.4220   -1.0383 O   0  0  0  0  0  0  0  0  0  0  0  0
    3.6415   -0.5317   -0.0744 O   0  0  0  0  0  0  0  0  0  0  0  0
    1.7420   -0.0479    3.0086 O   0  0  0  0  0  0  0  0  0  0  0  0
   -1.3437    3.9502   -0.5827 O   0  0  0  0  0  0  0  0  0  0  0  0
   -3.1766    3.1102    1.4667 O   0  0  0  0  0  0  0  0  0  0  0  0
    3.0856    3.0948   -0.4059 O   0  0  0  0  0  0  0  0  0  0  0  0
    4.3851   -0.2739   -2.6859 O   0  0  0  0  0  0  0  0  0  0  0  0
   -2.2622   -3.9179   -0.0954 N   0  0  0  0  0  0  0  0  0  0  0  0
    0.5554   -4.4943    0.9193 N   0  0  0  0  0  0  0  0  0  0  0  0
   -0.1306    1.7508   -2.0501 N   0  0  0  0  0  0  0  0  0  0  0  0
    2.6822    2.6952    2.4386 N   0  0  0  0  0  0  0  0  0  0  0  0
   -5.5703   -0.3834    0.6183 N   0  0  0  0  0  0  0  0  0  0  0  0
   -1.2921   -1.7778   -0.8695 C   0  0  1  0  0  0  0  0  0  0  0  0
    1.0771   -2.2651   -0.0134 C   0  0  2  0  0  0  0  0  0  0  0  0
    0.1399   -2.2056   -1.2323 C   0  0  1  0  0  0  0  0  0  0  0  0
   -1.8947   -2.5617    0.3122 C   0  0  2  0  0  0  0  0  0  0  0  0
    0.4994   -3.0544    1.1768 C   0  0  1  0  0  0  0  0  0  0  0  0
   -0.9303   -2.5885    1.5119 C   0  0  0  0  0  0  0  0  0  0  0  0
   -2.0812    0.3634   -1.4557 C   0  0  1  0  0  0  0  0  0  0  0  0
    2.6757   -0.8179    0.9375 C   0  0  1  0  0  0  0  0  0  0  0  0
   -1.5307    1.7846   -1.6256 C   0  0  1  0  0  0  0  0  0  0  0  0
    2.7244    0.2574    2.0251 C   0  0  1  0  0  0  0  0  0  0  0  0
   -1.6801    2.5852   -0.3273 C   0  0  2  0  0  0  0  0  0  0  0  0
    2.4894    1.6504    1.4260 C   0  0  2  0  0  0  0  0  0  0  0  0
   -3.1288    2.5214    0.1693 C   0  0  1  0  0  0  0  0  0  0  0  0
   -3.6336    1.0744    0.2227 C   0  0  1  0  0  0  0  0  0  0  0  0
    3.4569    1.8873    0.2546 C   0  0  1  0  0  0  0  0  0  0  0  0
    3.4145    0.7159   -0.7397 C   0  0  1  0  0  0  0  0  0  0  0  0
   -5.1224    0.9992    0.5500 C   0  0  0  0  0  0  0  0  0  0  0  0
    4.4836    0.8433   -1.8220 C   0  0  0  0  0  0  0  0  0  0  0  0
   -1.9379   -1.9685   -1.7383 H   0  0  0  0  0  0  0  0  0  0  0  0
    2.0093   -2.7426   -0.3502 H   0  0  0  0  0  0  0  0  0  0  0  0
    0.5543   -1.4838   -1.9477 H   0  0  0  0  0  0  0  0  0  0  0  0
   -2.8114   -2.0572    0.6411 H   0  0  0  0  0  0  0  0  0  0  0  0
    1.1071   -2.8690    2.0702 H   0  0  0  0  0  0  0  0  0  0  0  0
   -1.3481   -3.2074    2.3174 H   0  0  0  0  0  0  0  0  0  0  0  0
   -0.8718   -1.5730    1.9272 H   0  0  0  0  0  0  0  0  0  0  0  0
   -2.0688   -0.0964   -2.4529 H   0  0  0  0  0  0  0  0  0  0  0  0
    2.9733   -1.7640    1.4066 H   0  0  0  0  0  0  0  0  0  0  0  0
   -2.1073    2.2925   -2.4105 H   0  0  0  0  0  0  0  0  0  0  0  0
    3.7110    0.2380    2.5070 H   0  0  0  0  0  0  0  0  0  0  0  0
   -0.9929    2.2249    0.4478 H   0  0  0  0  0  0  0  0  0  0  0  0
    1.4507    1.7361    1.0821 H   0  0  0  0  0  0  0  0  0  0  0  0
   -3.7682    3.1248   -0.4864 H   0  0  0  0  0  0  0  0  0  0  0  0
   -3.0881    0.5209    0.9995 H   0  0  0  0  0  0  0  0  0  0  0  0
    4.4786    2.0072    0.6374 H   0  0  0  0  0  0  0  0  0  0  0  0
    2.4409    0.6671   -1.2423 H   0  0  0  0  0  0  0  0  0  0  0  0
   -2.9606   -3.8771   -0.8363 H   0  0  0  0  0  0  0  0  0  0  0  0
   -2.6991   -4.4048    0.6860 H   0  0  0  0  0  0  0  0  0  0  0  0
    0.2096   -5.0019    1.7324 H   0  0  0  0  0  0  0  0  0  0  0  0
    1.5243   -4.7825    0.7894 H   0  0  0  0  0  0  0  0  0  0  0  0
   -0.4479   -3.3758   -2.6815 H   0  0  0  0  0  0  0  0  0  0  0  0
   -5.3320    1.4893    1.5063 H   0  0  0  0  0  0  0  0  0  0  0  0
   -5.7042    1.5106   -0.2257 H   0  0  0  0  0  0  0  0  0  0  0  0
   -0.0536    1.2648   -2.9425 H   0  0  0  0  0  0  0  0  0  0  0  0
    0.2023    2.7011   -2.2072 H   0  0  0  0  0  0  0  0  0  0  0  0
    4.3512    1.7574   -2.4085 H   0  0  0  0  0  0  0  0  0  0  0  0
    5.4862    0.8372   -1.3816 H   0  0  0  0  0  0  0  0  0  0  0  0
    2.4764    3.6063    2.0308 H   0  0  0  0  0  0  0  0  0  0  0  0
    2.0156    2.5596    3.1976 H   0  0  0  0  0  0  0  0  0  0  0  0
    1.9533   -0.9241    3.3735 H   0  0  0  0  0  0  0  0  0  0  0  0
   -1.9419    4.2854   -1.2722 H   0  0  0  0  0  0  0  0  0  0  0  0
   -2.6362    2.5656    2.0642 H   0  0  0  0  0  0  0  0  0  0  0  0
    2.1871    2.9789   -0.7594 H   0  0  0  0  0  0  0  0  0  0  0  0
   -6.5792   -0.4077    0.7604 H   0  0  0  0  0  0  0  0  0  0  0  0
   -5.3942   -0.8464   -0.2725 H   0  0  0  0  0  0  0  0  0  0  0  0
    5.0748   -0.1741   -3.3640 H   0  0  0  0  0  0  0  0  0  0  0  0
  1 16  1  0  0  0  0
  1 22  1  0  0  0  0
  2 17  1  0  0  0  0
  2 23  1  0  0  0  0
  3 18  1  0  0  0  0
  3 55  1  0  0  0  0
  4 22  1  0  0  0  0
  4 29  1  0  0  0  0
  5 23  1  0  0  0  0
  5 31  1  0  0  0  0
  6 25  1  0  0  0  0
  6 64  1  0  0  0  0
  7 26  1  0  0  0  0
  7 65  1  0  0  0  0
  8 28  1  0  0  0  0
  8 66  1  0  0  0  0
  9 30  1  0  0  0  0
  9 67  1  0  0  0  0
 10 33  1  0  0  0  0
 10 70  1  0  0  0  0
 11 19  1  0  0  0  0
 11 51  1  0  0  0  0
 11 52  1  0  0  0  0
 12 20  1  0  0  0  0
 12 53  1  0  0  0  0
 12 54  1  0  0  0  0
 13 24  1  0  0  0  0
 13 58  1  0  0  0  0
 13 59  1  0  0  0  0
 14 27  1  0  0  0  0
 14 62  1  0  0  0  0
 14 63  1  0  0  0  0
 15 32  1  0  0  0  0
 15 68  1  0  0  0  0
 15 69  1  0  0  0  0
 16 18  1  0  0  0  0
 16 19  1  0  0  0  0
 16 34  1  0  0  0  0
 17 18  1  0  0  0  0
 17 20  1  0  0  0  0
 17 35  1  0  0  0  0
 18 36  1  0  0  0  0
 19 21  1  0  0  0  0
 19 37  1  0  0  0  0
 20 21  1  0  0  0  0
 20 38  1  0  0  0  0
 21 39  1  0  0  0  0
 21 40  1  0  0  0  0
 22 24  1  0  0  0  0
 22 41  1  0  0  0  0
 23 25  1  0  0  0  0
 23 42  1  0  0  0  0
 24 26  1  0  0  0  0
 24 43  1  0  0  0  0
 25 27  1  0  0  0  0
 25 44  1  0  0  0  0
 26 28  1  0  0  0  0
 26 45  1  0  0  0  0
 27 30  1  0  0  0  0
 27 46  1  0  0  0  0
 28 29  1  0  0  0  0
 28 47  1  0  0  0  0
 29 32  1  0  0  0  0
 29 48  1  0  0  0  0
 30 31  1  0  0  0  0
 30 49  1  0  0  0  0
 31 33  1  0  0  0  0
 31 50  1  0  0  0  0
 32 56  1  0  0  0  0
 32 57  1  0  0  0  0
 33 60  1  0  0  0  0
 33 61  1  0  0  0  0
M  END
> <PUBCHEM_COMPOUND_CID>
439318

> <PUBCHEM_CONFORMER_RMSD>
1

> <PUBCHEM_CONFORMER_DIVERSEORDER>
1
89
77
86
112
71
49
63
101
34
96
17
73
82
70
108
107
59
37
99
46
10
79
32
56
30
72
45
67
31
5
58
33
95
43
106
75
103
12
102
105
48
38
91
28
104
44
110
74
40
55
88
81
53
9
84
68
100
98
3
66
6
11
16
39
47
15
64
78
54
94
22
61
65
21
20
76
42
51
90
60
7
69
2
14
111
41
4
52
109
26
18
19
92
36
87
97
50
23
29
57
13
8
24
27
62
93
25
80
35
85
83

> <PUBCHEM_MMFF94_PARTIAL_CHARGES>
48
1 -0.56
10 -0.68
11 -0.99
12 -0.99
13 -0.99
14 -0.99
15 -0.99
16 0.28
17 0.28
18 0.28
19 0.27
2 -0.56
20 0.27
22 0.56
23 0.56
24 0.27
25 0.28
26 0.28
27 0.27
28 0.28
29 0.28
3 -0.68
30 0.28
31 0.28
32 0.27
33 0.28
4 -0.56
5 -0.56
51 0.36
52 0.36
53 0.36
54 0.36
55 0.4
58 0.36
59 0.36
6 -0.68
62 0.36
63 0.36
64 0.4
65 0.4
66 0.4
67 0.4
68 0.36
69 0.36
7 -0.68
70 0.4
8 -0.68
9 -0.68

> <PUBCHEM_EFFECTIVE_ROTOR_COUNT>
9.6

> <PUBCHEM_PHARMACOPHORE_FEATURES>
29
1 1 acceptor
1 10 acceptor
1 10 donor
1 11 cation
1 11 donor
1 12 cation
1 12 donor
1 13 cation
1 13 donor
1 14 cation
1 14 donor
1 15 cation
1 15 donor
1 2 acceptor
1 3 acceptor
1 3 donor
1 4 acceptor
1 5 acceptor
1 6 acceptor
1 6 donor
1 7 acceptor
1 7 donor
1 8 acceptor
1 8 donor
1 9 acceptor
1 9 donor
6 16 17 18 19 20 21 rings
6 4 22 24 26 28 29 rings
6 5 23 25 27 30 31 rings

> <PUBCHEM_HEAVY_ATOM_COUNT>
33

> <PUBCHEM_ATOM_DEF_STEREO_COUNT>
15

> <PUBCHEM_ATOM_UDEF_STEREO_COUNT>
0

> <PUBCHEM_BOND_DEF_STEREO_COUNT>
0

> <PUBCHEM_BOND_UDEF_STEREO_COUNT>
0

> <PUBCHEM_ISOTOPIC_ATOM_COUNT>
0

> <PUBCHEM_COMPONENT_COUNT>
1

> <PUBCHEM_CACTVS_TAUTO_COUNT>
1

> <PUBCHEM_CONFORMER_ID>
0006B41600000001

> <PUBCHEM_MMFF94_ENERGY>
70.8817

> <PUBCHEM_FEATURE_SELFOVERLAP>
147.263

> <PUBCHEM_SHAPE_FINGERPRINT>
10006869 2 18339378383120136339
10165383 225 18340194284791945972
1100329 8 18125710206957788159
11578080 2 17896606077274799720
12156800 1 16964847006455956473
12160290 23 18124334730111001478
12788726 201 17907868301172568135
128993 33 18336838566682637200
13122387 1 18339095825162554313
13140716 1 18339659844573024739
13583140 156 15841008769962263183
14713325 29 18127104456395326918
14787075 74 18336270068258762287
14840074 17 17774709905766672405
150020 26 17762074515275807673
151778 21 18196086874654268032
17921350 177 16409865467694902852
20465049 17 18042674173362118860
23419403 2 17398894739279928039
23559900 14 17766569323685559925
238 59 17906487615363602653
25222932 49 16271058464228574169
2637199 183 18338789113358516844
35225 105 18193865702415667260
392239 28 18411414038543497515
469060 322 15696602035263992134
5776283 40 18264466448596627540
6287921 2 18194395817660342151
6442390 28 18413102844847822995

> <PUBCHEM_SHAPE_MULTIPOLES>
595.53
8.02
5.14
2.23
2.36
2.58
0.24
-5.13
-0.16
1.58
0.56
-2.09
-0.34
0.11

> <PUBCHEM_SHAPE_SELFOVERLAP>
1223.956

> <PUBCHEM_SHAPE_VOLUME>
336

> <PUBCHEM_COORDINATE_TYPE>
2
5
10

$$$$

