91774
  -OEChem-07051213133D

 40 41  0     0  0  0  0  0  0999 V2000
   -3.1817    0.7822   -1.7084 S   0  0  0  0  0  0  0  0  0  0  0  0
    2.3018   -5.0470   -0.1229 F   0  0  0  0  0  0  0  0  0  0  0  0
    1.0472   -3.4714    0.6972 F   0  0  0  0  0  0  0  0  0  0  0  0
    6.0780    3.2979    0.8523 F   0  0  0  0  0  0  0  0  0  0  0  0
    4.6493    3.0297   -0.7651 F   0  0  0  0  0  0  0  0  0  0  0  0
   -3.1942   -0.1599   -2.8177 O   0  0  0  0  0  0  0  0  0  0  0  0
   -3.9503    2.0145   -1.7980 O   0  0  0  0  0  0  0  0  0  0  0  0
   -4.5061    2.8324    0.9014 O   0  0  0  0  0  0  0  0  0  0  0  0
   -0.7365   -0.9879   -1.0622 O   0  0  0  0  0  0  0  0  0  0  0  0
    3.1792   -3.0028    0.1021 O   0  0  0  0  0  0  0  0  0  0  0  0
    5.1224    1.2918    0.6043 O   0  0  0  0  0  0  0  0  0  0  0  0
   -2.3105    2.4629    1.3592 O   0  0  0  0  0  0  0  0  0  0  0  0
   -1.5571    1.1701   -1.3274 N   0  0  0  0  0  0  0  0  0  0  0  0
    0.6586    0.8459   -0.6837 N   0  0  0  0  0  0  0  0  0  0  0  0
    1.9155   -1.0986   -0.2915 N   0  0  0  0  0  0  0  0  0  0  0  0
    2.9033    1.0845   -0.0364 N   0  0  0  0  0  0  0  0  0  0  0  0
   -3.6940   -0.0506   -0.2560 C   0  0  0  0  0  0  0  0  0  0  0  0
   -3.7730    0.6098    0.9701 C   0  0  0  0  0  0  0  0  0  0  0  0
   -4.0273   -1.4024   -0.3428 C   0  0  0  0  0  0  0  0  0  0  0  0
   -4.1852   -0.0817    2.1094 C   0  0  0  0  0  0  0  0  0  0  0  0
   -4.4397   -2.0937    0.7964 C   0  0  0  0  0  0  0  0  0  0  0  0
   -4.5186   -1.4334    2.0224 C   0  0  0  0  0  0  0  0  0  0  0  0
   -0.5287    0.2185   -1.0191 C   0  0  0  0  0  0  0  0  0  0  0  0
   -3.4329    2.0204    1.1003 C   0  0  0  0  0  0  0  0  0  0  0  0
    1.8869    0.2475   -0.3189 C   0  0  0  0  0  0  0  0  0  0  0  0
    3.1021   -1.6358    0.0602 C   0  0  0  0  0  0  0  0  0  0  0  0
    4.0595    0.4804    0.3075 C   0  0  0  0  0  0  0  0  0  0  0  0
    4.2190   -0.8888    0.3737 C   0  0  0  0  0  0  0  0  0  0  0  0
    2.0044   -3.7261   -0.2284 C   0  0  0  0  0  0  0  0  0  0  0  0
    4.9084    2.6918    0.5219 C   0  0  0  0  0  0  0  0  0  0  0  0
   -3.9759   -1.9457   -1.2816 H   0  0  0  0  0  0  0  0  0  0  0  0
   -1.3377    2.1661   -1.1995 H   0  0  0  0  0  0  0  0  0  0  0  0
   -4.2506    0.4214    3.0708 H   0  0  0  0  0  0  0  0  0  0  0  0
   -4.6990   -3.1463    0.7292 H   0  0  0  0  0  0  0  0  0  0  0  0
   -4.8394   -1.9718    2.9094 H   0  0  0  0  0  0  0  0  0  0  0  0
    0.6698    1.8620   -0.6947 H   0  0  0  0  0  0  0  0  0  0  0  0
    5.1595   -1.3469    0.6531 H   0  0  0  0  0  0  0  0  0  0  0  0
   -4.2679    3.7800    0.9889 H   0  0  0  0  0  0  0  0  0  0  0  0
    1.6388   -3.5186   -1.2400 H   0  0  0  0  0  0  0  0  0  0  0  0
    4.1167    3.0484    1.1896 H   0  0  0  0  0  0  0  0  0  0  0  0
  1  6  2  0  0  0  0
  1  7  2  0  0  0  0
  1 13  1  0  0  0  0
  1 17  1  0  0  0  0
  2 29  1  0  0  0  0
  3 29  1  0  0  0  0
  4 30  1  0  0  0  0
  5 30  1  0  0  0  0
  8 24  1  0  0  0  0
  8 38  1  0  0  0  0
  9 23  2  0  0  0  0
 10 26  1  0  0  0  0
 10 29  1  0  0  0  0
 11 27  1  0  0  0  0
 11 30  1  0  0  0  0
 12 24  2  0  0  0  0
 13 23  1  0  0  0  0
 13 32  1  0  0  0  0
 14 23  1  0  0  0  0
 14 25  1  0  0  0  0
 14 36  1  0  0  0  0
 15 25  1  0  0  0  0
 15 26  2  0  0  0  0
 16 25  2  0  0  0  0
 16 27  1  0  0  0  0
 17 18  1  0  0  0  0
 17 19  2  0  0  0  0
 18 20  2  0  0  0  0
 18 24  1  0  0  0  0
 19 21  1  0  0  0  0
 19 31  1  0  0  0  0
 20 22  1  0  0  0  0
 20 33  1  0  0  0  0
 21 22  2  0  0  0  0
 21 34  1  0  0  0  0
 22 35  1  0  0  0  0
 26 28  1  0  0  0  0
 27 28  2  0  0  0  0
 28 37  1  0  0  0  0
 29 39  1  0  0  0  0
 30 40  1  0  0  0  0
M  END
> <PUBCHEM_COMPOUND_CID>
91774

> <PUBCHEM_CONFORMER_RMSD>
1

> <PUBCHEM_CONFORMER_DIVERSEORDER>
1
29
28
25
30
10
23
19
27
40
33
13
18
31
16
26
34
14
15
37
17
35
8
12
5
36
38
20
22
39
21
24
2
11
4
32
7
6
9
3

> <PUBCHEM_MMFF94_PARTIAL_CHARGES>
38
1 1.45
10 -0.36
11 -0.36
12 -0.57
13 -0.79
14 -0.55
15 -0.62
16 -0.62
17 -0.01
18 0.09
19 -0.15
2 -0.34
20 -0.15
21 -0.15
22 -0.15
23 0.87
24 0.63
25 0.74
26 0.39
27 0.39
28 -0.15
29 0.96
3 -0.34
30 0.96
31 0.15
32 0.42
33 0.15
34 0.15
35 0.15
36 0.37
37 0.15
38 0.5
4 -0.34
5 -0.34
6 -0.65
7 -0.65
8 -0.65
9 -0.57

> <PUBCHEM_EFFECTIVE_ROTOR_COUNT>
10

> <PUBCHEM_PHARMACOPHORE_FEATURES>
11
1 11 acceptor
1 12 acceptor
1 13 donor
1 14 donor
1 6 acceptor
1 7 acceptor
1 8 acceptor
1 9 acceptor
3 8 12 24 anion
6 15 16 25 26 27 28 rings
6 17 18 19 20 21 22 rings

> <PUBCHEM_HEAVY_ATOM_COUNT>
30

> <PUBCHEM_ATOM_DEF_STEREO_COUNT>
0

> <PUBCHEM_ATOM_UDEF_STEREO_COUNT>
0

> <PUBCHEM_BOND_DEF_STEREO_COUNT>
0

> <PUBCHEM_BOND_UDEF_STEREO_COUNT>
0

> <PUBCHEM_ISOTOPIC_ATOM_COUNT>
0

> <PUBCHEM_COMPONENT_COUNT>
1

> <PUBCHEM_CACTVS_TAUTO_COUNT>
5

> <PUBCHEM_CONFORMER_ID>
0001667E00000001

> <PUBCHEM_MMFF94_ENERGY>
64.4264

> <PUBCHEM_FEATURE_SELFOVERLAP>
55.941

> <PUBCHEM_SHAPE_FINGERPRINT>
10074138 170 17624432887262321482
11135609 201 18043254531456398736
11370993 144 18196366142507879203
11552529 35 18407758149412201179
12107183 9 17613711944047019449
12363563 72 16056589929274190367
12596602 18 17894902993450071203
12892183 10 18410281524070494491
13533116 47 18262527008710624487
13583140 156 18337956795746104597
14347329 18 14780364869696447347
14790565 3 18265891372468150892
16126227 98 17978785711103211900
17349148 13 13614524060386789096
17913733 40 18337394846962934626
20739085 24 18272083916492675340
20775530 9 14257641507403394593
23559900 14 18198071463467821478
392239 28 18190735328434352457
4015057 19 18124054556925859749
469060 322 18198063569417839981
5104073 3 18343869935004948328
6371380 46 17551511476216180533

> <PUBCHEM_SHAPE_MULTIPOLES>
531.13
12.85
4.46
1.75
7.24
3.46
0.44
-6.37
-4.03
5.21
-0.73
-3.06
-0.47
1.05

> <PUBCHEM_SHAPE_SELFOVERLAP>
1120.403

> <PUBCHEM_SHAPE_VOLUME>
297.5

> <PUBCHEM_COORDINATE_TYPE>
2
5
10

$$$$

