8659
  -OEChem-06261202593D

 25 26  0     0  0  0  0  0  0999 V2000
    4.4435    2.3911    0.6873 Cl  0  0  0  0  0  0  0  0  0  0  0  0
   -5.4542    0.8602    1.1345 Cl  0  0  0  0  0  0  0  0  0  0  0  0
   -0.2386   -0.6878   -1.0741 O   0  0  0  0  0  0  0  0  0  0  0  0
    2.8433   -2.5662    0.8255 O   0  5  0  0  0  0  0  0  0  0  0  0
    0.8738   -2.6828   -0.1371 O   0  0  0  0  0  0  0  0  0  0  0  0
    1.8749   -2.0282    0.2385 N   0  3  0  0  0  0  0  0  0  0  0  0
    0.8562    0.0101   -0.6580 C   0  0  0  0  0  0  0  0  0  0  0  0
    1.9131   -0.6283   -0.0090 C   0  0  0  0  0  0  0  0  0  0  0  0
   -1.4676   -0.3229   -0.5537 C   0  0  0  0  0  0  0  0  0  0  0  0
    0.9092    1.3841   -0.8920 C   0  0  0  0  0  0  0  0  0  0  0  0
    3.0231    0.1074    0.4062 C   0  0  0  0  0  0  0  0  0  0  0  0
    2.0192    2.1198   -0.4769 C   0  0  0  0  0  0  0  0  0  0  0  0
    3.0762    1.4816    0.1722 C   0  0  0  0  0  0  0  0  0  0  0  0
   -1.5818   -0.0861    0.8047 C   0  0  0  0  0  0  0  0  0  0  0  0
   -2.5523   -0.2039   -1.4046 C   0  0  0  0  0  0  0  0  0  0  0  0
   -2.8208    0.2815    1.3293 C   0  0  0  0  0  0  0  0  0  0  0  0
   -3.7914    0.1638   -0.8800 C   0  0  0  0  0  0  0  0  0  0  0  0
   -3.9256    0.4067    0.4871 C   0  0  0  0  0  0  0  0  0  0  0  0
    0.1003    1.8963   -1.4062 H   0  0  0  0  0  0  0  0  0  0  0  0
    3.8594   -0.3672    0.9149 H   0  0  0  0  0  0  0  0  0  0  0  0
    2.0478    3.1896   -0.6676 H   0  0  0  0  0  0  0  0  0  0  0  0
   -0.7425   -0.1947    1.4848 H   0  0  0  0  0  0  0  0  0  0  0  0
   -2.4490   -0.3923   -2.4689 H   0  0  0  0  0  0  0  0  0  0  0  0
   -2.9116    0.4635    2.3972 H   0  0  0  0  0  0  0  0  0  0  0  0
   -4.6434    0.2574   -1.5485 H   0  0  0  0  0  0  0  0  0  0  0  0
  1 13  1  0  0  0  0
  2 18  1  0  0  0  0
  3  7  1  0  0  0  0
  3  9  1  0  0  0  0
  4  6  1  0  0  0  0
  5  6  2  0  0  0  0
  6  8  1  0  0  0  0
  7  8  2  0  0  0  0
  7 10  1  0  0  0  0
  8 11  1  0  0  0  0
  9 14  2  0  0  0  0
  9 15  1  0  0  0  0
 10 12  2  0  0  0  0
 10 19  1  0  0  0  0
 11 13  2  0  0  0  0
 11 20  1  0  0  0  0
 12 13  1  0  0  0  0
 12 21  1  0  0  0  0
 14 16  1  0  0  0  0
 14 22  1  0  0  0  0
 15 17  2  0  0  0  0
 15 23  1  0  0  0  0
 16 18  2  0  0  0  0
 16 24  1  0  0  0  0
 17 18  1  0  0  0  0
 17 25  1  0  0  0  0
M  CHG  2   4  -1   6   1
M  END
> <PUBCHEM_COMPOUND_CID>
8659

> <PUBCHEM_CONFORMER_RMSD>
0.6

> <PUBCHEM_CONFORMER_DIVERSEORDER>
1
4
3
5
2

> <PUBCHEM_MMFF94_PARTIAL_CHARGES>
25
1 -0.18
10 -0.15
11 -0.15
12 -0.15
13 0.18
14 -0.15
15 -0.15
16 -0.15
17 -0.15
18 0.18
19 0.15
2 -0.18
20 0.15
21 0.15
22 0.15
23 0.15
24 0.15
25 0.15
3 -0.17
4 -0.52
5 -0.52
6 0.91
7 0.08
8 0.13
9 0.08

> <PUBCHEM_EFFECTIVE_ROTOR_COUNT>
3

> <PUBCHEM_PHARMACOPHORE_FEATURES>
6
1 3 acceptor
1 4 acceptor
1 4 anion
1 5 acceptor
6 7 8 10 11 12 13 rings
6 9 14 15 16 17 18 rings

> <PUBCHEM_HEAVY_ATOM_COUNT>
18

> <PUBCHEM_ATOM_DEF_STEREO_COUNT>
0

> <PUBCHEM_ATOM_UDEF_STEREO_COUNT>
0

> <PUBCHEM_BOND_DEF_STEREO_COUNT>
0

> <PUBCHEM_BOND_UDEF_STEREO_COUNT>
0

> <PUBCHEM_ISOTOPIC_ATOM_COUNT>
0

> <PUBCHEM_COMPONENT_COUNT>
1

> <PUBCHEM_CACTVS_TAUTO_COUNT>
1

> <PUBCHEM_CONFORMER_ID>
000021D300000001

> <PUBCHEM_MMFF94_ENERGY>
61.3712

> <PUBCHEM_FEATURE_SELFOVERLAP>
30.55

> <PUBCHEM_SHAPE_FINGERPRINT>
10382601 240 18341900688473575568
10465860 228 18408882940737121748
10498660 4 16153704319509521161
10980938 120 18413394224140041276
11471102 22 18201442501477503046
11640471 11 17967808332301016217
12236239 1 17966972720432558221
12390115 104 17979910511239554796
12553582 1 18123195868294033246
12633257 1 17203045162684917193
12644460 14 18343027709382797826
12892183 10 18341320159382866937
13533116 47 18271796986986360403
13583140 156 18336826391056702937
13675066 3 17917988417328575973
14178342 30 18128531574789644723
14252887 29 17775283884794929321
14739800 52 17023767640524420384
14790565 3 18199180686260143740
15309172 13 18199192793524153948
15342168 16 18340198571074738749
15527383 91 18340764965733979282
15775835 57 18040432157494522233
16945 1 18343022181453893756
1813 80 17827345885373120110
18186145 218 18409165532626830271
19049666 15 17559689527570455165
19784866 170 18202282472690605700
20157964 124 18410857698782329109
204376 136 18269276755658317988
20510252 161 17400649225262230954
20645477 70 18200049437541349799
20715895 44 17538276633779627401
20739085 24 18272368689951664500
21041028 32 18194965372915093416
21065199 12 18201433701569788865
21503847 285 18187353376606328988
21524375 3 18117280246612008532
21618674 25 18341610391338594649
2255824 54 18336262426969111102
22854114 111 18409727348519143445
23557571 272 14201696221161837885
23558518 356 17549264736063750484
23559900 14 16844732069881476126
283562 15 17618236005231650346
2838139 119 16010453231899631448
3472631 163 17240478079429732265
4340502 62 18340193117157044755
474 4 18337672996981317344
6049 1 17631733893182906189
633830 44 18189049811685247956
7364860 26 18334289907398307182
7615 1 17895492391874937087
77492 1 17967543371489292271
81228 2 17188699078863415382
8272917 22 18410005576542581471

> <PUBCHEM_SHAPE_MULTIPOLES>
351.58
8.79
2.31
1.22
6.06
1.09
-0.05
-4.76
2.94
-3.38
0.4
0.89
-0.1
-0.64

> <PUBCHEM_SHAPE_SELFOVERLAP>
745.056

> <PUBCHEM_SHAPE_VOLUME>
198.6

> <PUBCHEM_COORDINATE_TYPE>
2
5
10

$$$$

