11347
  -OEChem-06261205343D

 31 32  0     0  0  0  0  0  0999 V2000
    3.1890    0.2812    0.0034 O   0  0  0  0  0  0  0  0  0  0  0  0
   -1.6470    2.5863   -0.0003 O   0  0  0  0  0  0  0  0  0  0  0  0
   -3.4901   -1.7284   -0.0011 O   0  0  0  0  0  0  0  0  0  0  0  0
    1.0108    1.2138    0.0008 N   0  0  0  0  0  0  0  0  0  0  0  0
   -1.1720   -1.5257    0.0003 N   0  0  0  0  0  0  0  0  0  0  0  0
   -2.5933    0.4354   -0.0011 N   0  0  0  0  0  0  0  0  0  0  0  0
    1.2332   -1.0045    0.0015 N   0  0  0  0  0  0  0  0  0  0  0  0
   -0.2554    0.7029   -0.0005 C   0  0  0  0  0  0  0  0  0  0  0  0
   -0.0906   -0.6554    0.0002 C   0  0  0  0  0  0  0  0  0  0  0  0
   -1.5194    1.3650   -0.0010 C   0  0  0  0  0  0  0  0  0  0  0  0
    1.8722    0.1472    0.0019 C   0  0  0  0  0  0  0  0  0  0  0  0
   -2.4894   -1.0026   -0.0011 C   0  0  0  0  0  0  0  0  0  0  0  0
    1.3856    2.6087    0.0012 C   0  0  0  0  0  0  0  0  0  0  0  0
   -0.9457   -2.9657    0.0011 C   0  0  0  0  0  0  0  0  0  0  0  0
   -3.9505    0.9716   -0.0007 C   0  0  0  0  0  0  0  0  0  0  0  0
    4.0009   -0.9133    0.0045 C   0  0  0  0  0  0  0  0  0  0  0  0
    5.4617   -0.5165   -0.0091 C   0  0  0  0  0  0  0  0  0  0  0  0
    2.4734    2.7069    0.0013 H   0  0  0  0  0  0  0  0  0  0  0  0
    0.9760    3.0757   -0.8980 H   0  0  0  0  0  0  0  0  0  0  0  0
    0.9759    3.0752    0.9006 H   0  0  0  0  0  0  0  0  0  0  0  0
   -1.8875   -3.5202    0.0012 H   0  0  0  0  0  0  0  0  0  0  0  0
   -0.3769   -3.2358    0.8962 H   0  0  0  0  0  0  0  0  0  0  0  0
   -0.3765   -3.2367   -0.8934 H   0  0  0  0  0  0  0  0  0  0  0  0
   -4.4738    0.6026    0.8872 H   0  0  0  0  0  0  0  0  0  0  0  0
   -4.4748    0.6014   -0.8875 H   0  0  0  0  0  0  0  0  0  0  0  0
   -3.9680    2.0638   -0.0014 H   0  0  0  0  0  0  0  0  0  0  0  0
    3.7817   -1.4995    0.9042 H   0  0  0  0  0  0  0  0  0  0  0  0
    3.7693   -1.5107   -0.8848 H   0  0  0  0  0  0  0  0  0  0  0  0
    6.1069   -1.3994   -0.0085 H   0  0  0  0  0  0  0  0  0  0  0  0
    5.6885    0.0871   -0.8940 H   0  0  0  0  0  0  0  0  0  0  0  0
    5.7018    0.0980    0.8648 H   0  0  0  0  0  0  0  0  0  0  0  0
  1 11  1  0  0  0  0
  1 16  1  0  0  0  0
  2 10  2  0  0  0  0
  3 12  2  0  0  0  0
  4  8  1  0  0  0  0
  4 11  1  0  0  0  0
  4 13  1  0  0  0  0
  5  9  1  0  0  0  0
  5 12  1  0  0  0  0
  5 14  1  0  0  0  0
  6 10  1  0  0  0  0
  6 12  1  0  0  0  0
  6 15  1  0  0  0  0
  7  9  1  0  0  0  0
  7 11  2  0  0  0  0
  8  9  2  0  0  0  0
  8 10  1  0  0  0  0
 13 18  1  0  0  0  0
 13 19  1  0  0  0  0
 13 20  1  0  0  0  0
 14 21  1  0  0  0  0
 14 22  1  0  0  0  0
 14 23  1  0  0  0  0
 15 24  1  0  0  0  0
 15 25  1  0  0  0  0
 15 26  1  0  0  0  0
 16 17  1  0  0  0  0
 16 27  1  0  0  0  0
 16 28  1  0  0  0  0
 17 29  1  0  0  0  0
 17 30  1  0  0  0  0
 17 31  1  0  0  0  0
M  END
> <PUBCHEM_COMPOUND_CID>
11347

> <PUBCHEM_CONFORMER_RMSD>
0.6

> <PUBCHEM_CONFORMER_DIVERSEORDER>
1
2
3

> <PUBCHEM_MMFF94_PARTIAL_CHARGES>
16
1 -0.34
10 0.71
11 0.25
12 0.69
13 0.26
14 0.3
15 0.3
16 0.28
2 -0.57
3 -0.57
4 0.05
5 -0.42
6 -0.42
7 -0.57
8 -0.24
9 0.29

> <PUBCHEM_EFFECTIVE_ROTOR_COUNT>
2

> <PUBCHEM_PHARMACOPHORE_FEATURES>
5
1 2 acceptor
1 3 acceptor
3 4 7 11 cation
5 4 7 8 9 11 rings
6 5 6 8 9 10 12 rings

> <PUBCHEM_HEAVY_ATOM_COUNT>
17

> <PUBCHEM_ATOM_DEF_STEREO_COUNT>
0

> <PUBCHEM_ATOM_UDEF_STEREO_COUNT>
0

> <PUBCHEM_BOND_DEF_STEREO_COUNT>
0

> <PUBCHEM_BOND_UDEF_STEREO_COUNT>
0

> <PUBCHEM_ISOTOPIC_ATOM_COUNT>
0

> <PUBCHEM_COMPONENT_COUNT>
1

> <PUBCHEM_CACTVS_TAUTO_COUNT>
1

> <PUBCHEM_CONFORMER_ID>
00002C5300000001

> <PUBCHEM_MMFF94_ENERGY>
26.9524

> <PUBCHEM_FEATURE_SELFOVERLAP>
25.487

> <PUBCHEM_SHAPE_FINGERPRINT>
10493431 412 18046335598949710129
10967382 1 18266741470612062019
11132069 177 18410014359713811048
11680986 33 18265057929358055248
12032990 46 18340202973484567835
13140716 1 18337945706462306249
13380535 76 18335983163652540543
13862211 1 18410860975019533943
14790565 3 18193827361069328297
14911166 2 18411426137012806405
15042514 8 18412258402943757995
15196674 1 18410856521027509280
15442244 35 18410855417510921656
15536298 74 18263363607994273192
16945 1 18410575089153283489
17804303 29 18408039594049463896
193761 8 18122624950885419269
200 152 17458352948154622533
20510252 161 18116715303851894664
20711985 365 18338797810345427303
21029758 11 18333737930965300016
21029758 27 18201428186378204052
21267235 1 18411693258314529459
21501502 16 18265891363202989620
23175994 123 17095522920314743496
2334 1 17978228253462363495
23366157 5 17914901937781605524
23402539 116 18334866034015876718
23463225 33 18339359660723865372
23559900 14 18334861598211620904
2748010 2 17690559015304981869
335352 9 18410855486072299173
43471831 8 18125722532971108874
5104073 3 18410010996817807112
54173680 148 18267583515882756034
559249 180 18128261284567519698
7364860 26 18119529843345055384
8809292 202 18341610391064456675

> <PUBCHEM_SHAPE_MULTIPOLES>
312.32
7.32
2.7
0.58
7.59
0.02
0
1.3
0.01
-1.38
0
0.02
0
0

> <PUBCHEM_SHAPE_SELFOVERLAP>
660.02

> <PUBCHEM_SHAPE_VOLUME>
176.9

> <PUBCHEM_COORDINATE_TYPE>
2
5
10

$$$$

