443435
  -OEChem-07051213023D

 26 26  0     1  0  0  0  0  0999 V2000
    3.7376    0.1868    0.2509 O   0  0  0  0  0  0  0  0  0  0  0  0
    2.4789    2.0113   -0.3365 O   0  0  0  0  0  0  0  0  0  0  0  0
   -3.6654   -1.2185    0.0802 O   0  0  0  0  0  0  0  0  0  0  0  0
   -1.1443   -0.9069   -1.2215 O   0  0  0  0  0  0  0  0  0  0  0  0
    0.2450    0.3035    0.1928 N   0  0  0  0  0  0  0  0  0  0  0  0
    1.4897   -0.2150   -0.2868 C   0  0  2  0  0  0  0  0  0  0  0  0
    2.0173   -1.3606    0.5437 C   0  0  0  0  0  0  0  0  0  0  0  0
    3.5079   -1.2225    0.3650 C   0  0  0  0  0  0  0  0  0  0  0  0
    2.5784    0.8123   -0.1274 C   0  0  0  0  0  0  0  0  0  0  0  0
   -2.1327    0.6266    0.3738 C   0  0  0  0  0  0  0  0  0  0  0  0
   -0.9831   -0.0894   -0.3196 C   0  0  0  0  0  0  0  0  0  0  0  0
   -3.5055    0.1824   -0.1334 C   0  0  2  0  0  0  0  0  0  0  0  0
   -4.6239    0.8901    0.6188 C   0  0  0  0  0  0  0  0  0  0  0  0
    1.4180   -0.4897   -1.3451 H   0  0  0  0  0  0  0  0  0  0  0  0
    1.6371   -2.3376    0.2318 H   0  0  0  0  0  0  0  0  0  0  0  0
    1.7574   -1.2251    1.6016 H   0  0  0  0  0  0  0  0  0  0  0  0
    4.0626   -1.6178    1.2206 H   0  0  0  0  0  0  0  0  0  0  0  0
    3.8650   -1.7082   -0.5491 H   0  0  0  0  0  0  0  0  0  0  0  0
    0.2657    0.9797    0.9515 H   0  0  0  0  0  0  0  0  0  0  0  0
   -2.0063    1.7057    0.2291 H   0  0  0  0  0  0  0  0  0  0  0  0
   -2.0458    0.4097    1.4462 H   0  0  0  0  0  0  0  0  0  0  0  0
   -3.6044    0.3741   -1.2079 H   0  0  0  0  0  0  0  0  0  0  0  0
   -5.6006    0.5458    0.2618 H   0  0  0  0  0  0  0  0  0  0  0  0
   -4.5672    1.9748    0.4866 H   0  0  0  0  0  0  0  0  0  0  0  0
   -4.5837    0.6632    1.6899 H   0  0  0  0  0  0  0  0  0  0  0  0
   -3.0316   -1.6814   -0.4931 H   0  0  0  0  0  0  0  0  0  0  0  0
  1  8  1  0  0  0  0
  1  9  1  0  0  0  0
  2  9  2  0  0  0  0
  3 12  1  0  0  0  0
  3 26  1  0  0  0  0
  4 11  2  0  0  0  0
  5  6  1  0  0  0  0
  5 11  1  0  0  0  0
  5 19  1  0  0  0  0
  6  7  1  0  0  0  0
  6  9  1  0  0  0  0
  6 14  1  0  0  0  0
  7  8  1  0  0  0  0
  7 15  1  0  0  0  0
  7 16  1  0  0  0  0
  8 17  1  0  0  0  0
  8 18  1  0  0  0  0
 10 11  1  0  0  0  0
 10 12  1  0  0  0  0
 10 20  1  0  0  0  0
 10 21  1  0  0  0  0
 12 13  1  0  0  0  0
 12 22  1  0  0  0  0
 13 23  1  0  0  0  0
 13 24  1  0  0  0  0
 13 25  1  0  0  0  0
M  END
> <PUBCHEM_COMPOUND_CID>
443435

> <PUBCHEM_CONFORMER_RMSD>
0.6

> <PUBCHEM_CONFORMER_DIVERSEORDER>
2
70
45
46
61
19
29
66
73
31
43
71
53
37
72
32
39
41
67
4
55
38
14
57
56
23
65
51
48
25
40
5
9
49
6
62
47
1
33
68
35
24
60
74
11
3
63
64
15
36
12
26
44
28
13
34
50
20
8
16
54
22
59
52
10
7
30
42
17
18
58
69
27
21

> <PUBCHEM_MMFF94_PARTIAL_CHARGES>
13
1 -0.43
10 0.06
11 0.57
12 0.28
19 0.37
2 -0.57
26 0.4
3 -0.68
4 -0.57
5 -0.73
6 0.36
8 0.28
9 0.66

> <PUBCHEM_EFFECTIVE_ROTOR_COUNT>
4.8

> <PUBCHEM_PHARMACOPHORE_FEATURES>
6
1 2 acceptor
1 3 acceptor
1 3 donor
1 4 acceptor
1 5 donor
5 1 6 7 8 9 rings

> <PUBCHEM_HEAVY_ATOM_COUNT>
13

> <PUBCHEM_ATOM_DEF_STEREO_COUNT>
1

> <PUBCHEM_ATOM_UDEF_STEREO_COUNT>
1

> <PUBCHEM_BOND_DEF_STEREO_COUNT>
0

> <PUBCHEM_BOND_UDEF_STEREO_COUNT>
0

> <PUBCHEM_ISOTOPIC_ATOM_COUNT>
0

> <PUBCHEM_COMPONENT_COUNT>
1

> <PUBCHEM_CACTVS_TAUTO_COUNT>
4

> <PUBCHEM_CONFORMER_ID>
0006C42B00000002

> <PUBCHEM_MMFF94_ENERGY>
16.2401

> <PUBCHEM_FEATURE_SELFOVERLAP>
30.449

> <PUBCHEM_SHAPE_FINGERPRINT>
11471102 20 18343305877002438788
12251169 10 18410575110522650991
12932764 1 17203058442665371059
14144814 61 18334013912477898281
14325111 11 18410573976914931447
15501101 241 17988926669378817948
17834072 33 18411422774533428919
18186145 218 18343586256546328087
190213 19 18186802486889426315
19050596 39 18411981356014337411
19422 9 18409167688610858655
20233049 118 17458064884666646000
20279233 1 16559032688092570571
20559304 39 18334857242639970576
20645477 70 18341899635916937815
20871998 22 18121501521239198470
22485316 2 18131073753099992675
2255824 54 18272931609739607110
22854114 111 18411983529252257056
23048698 100 18410570703907369465
23402539 116 16226340299201836153
23402655 69 18412263951740336836
42 15 18272649082147677931
77779 3 18412823582037251787

> <PUBCHEM_SHAPE_MULTIPOLES>
239.08
8.28
1.42
0.78
5.12
0.21
0.07
0.31
-1.47
-0.83
0.01
0.17
-0.09
-0.6

> <PUBCHEM_SHAPE_SELFOVERLAP>
476.648

> <PUBCHEM_SHAPE_VOLUME>
142.7

> <PUBCHEM_COORDINATE_TYPE>
2
5
10

$$$$

