5837
  -OEChem-06261200553D

 38 39  0     1  0  0  0  0  0999 V2000
   -2.2277    1.5086    0.2881 Si  0  0  0  0  0  0  0  0  0  0  0  0
    1.2329   -1.2556    2.1637 O   0  0  0  0  0  0  0  0  0  0  0  0
    0.1165    0.0003   -2.2192 O   0  0  0  0  0  0  0  0  0  0  0  0
    3.9327    1.5546   -0.2460 O   0  0  0  0  0  0  0  0  0  0  0  0
    2.5320    0.2100    0.9827 N   0  0  0  0  0  0  0  0  0  0  0  0
    1.9386    0.8930   -1.1763 N   0  0  0  0  0  0  0  0  0  0  0  0
    0.2081   -0.1816    0.2210 C   0  0  0  0  0  0  0  0  0  0  0  0
   -0.7561   -1.4321    0.1697 C   0  0  1  0  0  0  0  0  0  0  0  0
   -0.4658    1.0782    0.8601 C   0  0  0  0  0  0  0  0  0  0  0  0
   -3.0293   -0.1920    0.1447 C   0  0  0  0  0  0  0  0  0  0  0  0
   -2.1260   -1.2258   -0.5301 C   0  0  0  0  0  0  0  0  0  0  0  0
   -0.0687   -2.6590   -0.4607 C   0  0  0  0  0  0  0  0  0  0  0  0
   -2.2242    2.3954   -1.3493 C   0  0  0  0  0  0  0  0  0  0  0  0
   -3.0914    2.5398    1.5830 C   0  0  0  0  0  0  0  0  0  0  0  0
    1.3597   -0.4977    1.2012 C   0  0  0  0  0  0  0  0  0  0  0  0
    0.7293    0.2132   -1.1744 C   0  0  0  0  0  0  0  0  0  0  0  0
   -0.9276   -3.8937   -0.3122 C   0  0  0  0  0  0  0  0  0  0  0  0
    2.8670    0.9444   -0.1461 C   0  0  0  0  0  0  0  0  0  0  0  0
   -0.9929   -1.6976    1.2111 H   0  0  0  0  0  0  0  0  0  0  0  0
   -0.5384    0.9356    1.9470 H   0  0  0  0  0  0  0  0  0  0  0  0
    0.1532    1.9723    0.7140 H   0  0  0  0  0  0  0  0  0  0  0  0
   -3.9686   -0.1026   -0.4123 H   0  0  0  0  0  0  0  0  0  0  0  0
   -3.2861   -0.5412    1.1518 H   0  0  0  0  0  0  0  0  0  0  0  0
   -2.7089   -2.1519   -0.5223 H   0  0  0  0  0  0  0  0  0  0  0  0
   -1.9894   -0.9720   -1.5867 H   0  0  0  0  0  0  0  0  0  0  0  0
    0.8911   -2.8491    0.0319 H   0  0  0  0  0  0  0  0  0  0  0  0
    0.1474   -2.4989   -1.5223 H   0  0  0  0  0  0  0  0  0  0  0  0
   -1.6074    3.2979   -1.3020 H   0  0  0  0  0  0  0  0  0  0  0  0
   -1.8363    1.7620   -2.1507 H   0  0  0  0  0  0  0  0  0  0  0  0
   -3.2391    2.6960   -1.6272 H   0  0  0  0  0  0  0  0  0  0  0  0
   -4.1278    2.7380    1.2943 H   0  0  0  0  0  0  0  0  0  0  0  0
   -3.1005    2.0254    2.5486 H   0  0  0  0  0  0  0  0  0  0  0  0
   -2.5855    3.5009    1.7152 H   0  0  0  0  0  0  0  0  0  0  0  0
   -1.3377   -3.9933    0.6977 H   0  0  0  0  0  0  0  0  0  0  0  0
   -1.7461   -3.9224   -1.0373 H   0  0  0  0  0  0  0  0  0  0  0  0
   -0.3204   -4.7852   -0.5067 H   0  0  0  0  0  0  0  0  0  0  0  0
    3.2512    0.1269    1.6959 H   0  0  0  0  0  0  0  0  0  0  0  0
    2.2264    1.3035   -2.0602 H   0  0  0  0  0  0  0  0  0  0  0  0
  1  9  1  0  0  0  0
  1 10  1  0  0  0  0
  1 13  1  0  0  0  0
  1 14  1  0  0  0  0
  2 15  2  0  0  0  0
  3 16  2  0  0  0  0
  4 18  2  0  0  0  0
  5 15  1  0  0  0  0
  5 18  1  0  0  0  0
  5 37  1  0  0  0  0
  6 16  1  0  0  0  0
  6 18  1  0  0  0  0
  6 38  1  0  0  0  0
  7  8  1  0  0  0  0
  7  9  1  0  0  0  0
  7 15  1  0  0  0  0
  7 16  1  0  0  0  0
  8 11  1  0  0  0  0
  8 12  1  0  0  0  0
  8 19  1  0  0  0  0
  9 20  1  0  0  0  0
  9 21  1  0  0  0  0
 10 11  1  0  0  0  0
 10 22  1  0  0  0  0
 10 23  1  0  0  0  0
 11 24  1  0  0  0  0
 11 25  1  0  0  0  0
 12 17  1  0  0  0  0
 12 26  1  0  0  0  0
 12 27  1  0  0  0  0
 13 28  1  0  0  0  0
 13 29  1  0  0  0  0
 13 30  1  0  0  0  0
 14 31  1  0  0  0  0
 14 32  1  0  0  0  0
 14 33  1  0  0  0  0
 17 34  1  0  0  0  0
 17 35  1  0  0  0  0
 17 36  1  0  0  0  0
M  END
> <PUBCHEM_COMPOUND_CID>
5837

> <PUBCHEM_CONFORMER_RMSD>
0.6

> <PUBCHEM_CONFORMER_DIVERSEORDER>
1
8
10
6
2
3
9
5
4
7

> <PUBCHEM_MMFF94_PARTIAL_CHARGES>
16
1 0.32
10 -0.08
13 -0.08
14 -0.08
15 0.57
16 0.57
18 0.69
2 -0.57
3 -0.57
37 0.37
38 0.37
4 -0.57
5 -0.49
6 -0.49
7 0.12
9 -0.08

> <PUBCHEM_EFFECTIVE_ROTOR_COUNT>
2.4

> <PUBCHEM_PHARMACOPHORE_FEATURES>
8
1 17 hydrophobe
1 2 acceptor
1 3 acceptor
1 4 acceptor
1 5 donor
1 6 donor
6 1 7 8 9 10 11 rings
6 5 6 7 15 16 18 rings

> <PUBCHEM_HEAVY_ATOM_COUNT>
18

> <PUBCHEM_ATOM_DEF_STEREO_COUNT>
0

> <PUBCHEM_ATOM_UDEF_STEREO_COUNT>
1

> <PUBCHEM_BOND_DEF_STEREO_COUNT>
0

> <PUBCHEM_BOND_UDEF_STEREO_COUNT>
0

> <PUBCHEM_ISOTOPIC_ATOM_COUNT>
0

> <PUBCHEM_COMPONENT_COUNT>
1

> <PUBCHEM_CACTVS_TAUTO_COUNT>
5

> <PUBCHEM_CONFORMER_ID>
000016CD00000001

> <PUBCHEM_MMFF94_ENERGY>
46.6436

> <PUBCHEM_FEATURE_SELFOVERLAP>
40.638

> <PUBCHEM_SHAPE_FINGERPRINT>
10863032 1 18260821644036293844
10948715 1 18261100919900318377
11640471 11 18343861130169263477
12423570 1 15949635734129569435
12491281 212 18340196423638225712
13134695 92 17114660177830912285
13140716 1 18264764552894806411
13380537 58 18335688438638112868
13538477 17 18269007383582832546
13583140 156 17531820018074663250
14181834 199 17841438342853338239
14614273 12 18341331184468924709
14787075 74 16973372362193811792
14817 1 13809414588037760615
15775835 57 18343578564286742505
15852999 172 17835835210439970185
16945 1 18118951516859763332
18981168 100 18123461945991692821
19765921 60 17750228282656983809
20510252 161 18260824861225397977
20600515 1 17611168383005608543
20671657 1 17830438837298518529
21524375 3 18272079496417342200
22112679 90 17690541010480537927
23402539 116 18189337862283035159
23419403 2 12407289254153165887
23493267 7 18186514402206148912
23557571 272 17902220123031300228
2748010 2 18338508767857958711
305870 269 18338227296991430045
350125 39 18192138503140602635
458136 41 18119229899834678033
53812653 8 18411703153713126491
6442390 28 18044344272006923099
7364860 26 17904471153977131123
81228 2 18193831535866340427

> <PUBCHEM_SHAPE_MULTIPOLES>
361.07
4.59
3.32
1.62
0.44
3.48
-0.02
-4.12
0.7
-0.06
-0.34
-0.05
-0.39
-0.56

> <PUBCHEM_SHAPE_SELFOVERLAP>
725.054

> <PUBCHEM_SHAPE_VOLUME>
213.8

> <PUBCHEM_COORDINATE_TYPE>
2
5
10

$$$$

