17396377
  -OEChem-06241222562D

 42 45  0     1  0  0  0  0  0999 V2000
    7.9939    1.2646    0.0000 S   0  0  0  0  0  0  0  0  0  0  0  0
    9.9939    1.2646    0.0000 O   0  0  0  0  0  0  0  0  0  0  0  0
    2.8660    2.2646    0.0000 O   0  0  0  0  0  0  0  0  0  0  0  0
   10.3258   -2.0423    0.0000 N   0  0  0  0  0  0  0  0  0  0  0  0
    6.4103    2.0694    0.0000 N   0  0  0  0  0  0  0  0  0  0  0  0
    6.4103    0.4599    0.0000 N   0  0  0  0  0  0  0  0  0  0  0  0
    9.9939   -0.4674    0.0000 C   0  0  0  0  0  0  0  0  0  0  0  0
   10.9827   -0.5705    0.0000 C   0  0  0  0  0  0  0  0  0  0  0  0
    8.4939    0.3986    0.0000 C   0  0  3  0  0  0  0  0  0  0  0  0
   11.1889   -1.5490    0.0000 C   0  0  0  0  0  0  0  0  0  0  0  0
    9.4939    0.3986    0.0000 C   0  0  0  0  0  0  0  0  0  0  0  0
    9.5888   -1.3752    0.0000 C   0  0  0  0  0  0  0  0  0  0  0  0
    5.4641    1.7646    0.0000 C   0  0  0  0  0  0  0  0  0  0  0  0
    6.9939    1.2646    0.0000 C   0  0  0  0  0  0  0  0  0  0  0  0
   11.7270    0.0974    0.0000 C   0  0  0  0  0  0  0  0  0  0  0  0
    7.9939   -0.4674    0.0000 C   0  0  0  0  0  0  0  0  0  0  0  0
    5.4641    0.7646    0.0000 C   0  0  0  0  0  0  0  0  0  0  0  0
   12.1394   -1.8596    0.0000 C   0  0  0  0  0  0  0  0  0  0  0  0
   12.6775   -0.2133    0.0000 C   0  0  0  0  0  0  0  0  0  0  0  0
    4.5981    2.2646    0.0000 C   0  0  0  0  0  0  0  0  0  0  0  0
   12.8837   -1.1918    0.0000 C   0  0  0  0  0  0  0  0  0  0  0  0
    4.5981    0.2646    0.0000 C   0  0  0  0  0  0  0  0  0  0  0  0
    3.7320    1.7646    0.0000 C   0  0  0  0  0  0  0  0  0  0  0  0
    3.7320    0.7646    0.0000 C   0  0  0  0  0  0  0  0  0  0  0  0
    2.0000    1.7646    0.0000 C   0  0  0  0  0  0  0  0  0  0  0  0
    7.8739    0.3986    0.0000 H   0  0  0  0  0  0  0  0  0  0  0  0
    8.9821   -1.5031    0.0000 H   0  0  0  0  0  0  0  0  0  0  0  0
   10.2589   -2.6587    0.0000 H   0  0  0  0  0  0  0  0  0  0  0  0
   11.5991    0.7040    0.0000 H   0  0  0  0  0  0  0  0  0  0  0  0
    7.4570   -0.1574    0.0000 H   0  0  0  0  0  0  0  0  0  0  0  0
    7.6839   -1.0044    0.0000 H   0  0  0  0  0  0  0  0  0  0  0  0
    8.5309   -0.7774    0.0000 H   0  0  0  0  0  0  0  0  0  0  0  0
   12.2672   -2.4663    0.0000 H   0  0  0  0  0  0  0  0  0  0  0  0
    6.6029    2.6587    0.0000 H   0  0  0  0  0  0  0  0  0  0  0  0
   13.1389    0.2008    0.0000 H   0  0  0  0  0  0  0  0  0  0  0  0
    4.5981    2.8846    0.0000 H   0  0  0  0  0  0  0  0  0  0  0  0
   13.4730   -1.3844    0.0000 H   0  0  0  0  0  0  0  0  0  0  0  0
    4.5981   -0.3554    0.0000 H   0  0  0  0  0  0  0  0  0  0  0  0
    3.1951    0.4546    0.0000 H   0  0  0  0  0  0  0  0  0  0  0  0
    1.6900    2.3016    0.0000 H   0  0  0  0  0  0  0  0  0  0  0  0
    1.4631    1.4546    0.0000 H   0  0  0  0  0  0  0  0  0  0  0  0
    2.3100    1.2277    0.0000 H   0  0  0  0  0  0  0  0  0  0  0  0
  1  9  1  0  0  0  0
  1 14  1  0  0  0  0
  2 11  2  0  0  0  0
  3 23  1  0  0  0  0
  3 25  1  0  0  0  0
  4 10  1  0  0  0  0
  4 12  1  0  0  0  0
  4 28  1  0  0  0  0
  5 13  1  0  0  0  0
  5 14  1  0  0  0  0
  5 34  1  0  0  0  0
  6 14  2  0  0  0  0
  6 17  1  0  0  0  0
  7  8  1  0  0  0  0
  7 11  1  0  0  0  0
  7 12  2  0  0  0  0
  8 10  1  0  0  0  0
  8 15  2  0  0  0  0
  9 11  1  0  0  0  0
  9 16  1  0  0  0  0
  9 26  1  0  0  0  0
 10 18  2  0  0  0  0
 12 27  1  0  0  0  0
 13 17  2  0  0  0  0
 13 20  1  0  0  0  0
 15 19  1  0  0  0  0
 15 29  1  0  0  0  0
 16 30  1  0  0  0  0
 16 31  1  0  0  0  0
 16 32  1  0  0  0  0
 17 22  1  0  0  0  0
 18 21  1  0  0  0  0
 18 33  1  0  0  0  0
 19 21  2  0  0  0  0
 19 35  1  0  0  0  0
 20 23  2  0  0  0  0
 20 36  1  0  0  0  0
 21 37  1  0  0  0  0
 22 24  2  0  0  0  0
 22 38  1  0  0  0  0
 23 24  1  0  0  0  0
 24 39  1  0  0  0  0
 25 40  1  0  0  0  0
 25 41  1  0  0  0  0
 25 42  1  0  0  0  0
M  END
> <PUBCHEM_COMPOUND_CID>
17396377

> <PUBCHEM_COMPOUND_CANONICALIZED>
1

> <PUBCHEM_CACTVS_COMPLEXITY>
491

> <PUBCHEM_CACTVS_HBOND_ACCEPTOR>
4

> <PUBCHEM_CACTVS_HBOND_DONOR>
2

> <PUBCHEM_CACTVS_ROTATABLE_BOND>
5

> <PUBCHEM_CACTVS_SUBSKEYS>
AAADceB7MABAAAAAAAAAAAAAAAAAAWLAAAAwYAAAAAAAAFgB/gAAHgQQAAAADAzF3ga/1vbJlAioA7R3ZACC2i31MrAJ2aE+fNiMbvrkvZuUMahu0BvI6ee82MOOgEAAAgACACAAgAAEAAQAQAAAAAAAAA==

> <PUBCHEM_IUPAC_OPENEYE_NAME>
1-(1H-indol-3-yl)-2-[(6-methoxy-1H-benzimidazol-2-yl)sulfanyl]propan-1-one

> <PUBCHEM_IUPAC_CAS_NAME>
1-(1H-indol-3-yl)-2-[(6-methoxy-1H-benzimidazol-2-yl)thio]-1-propanone

> <PUBCHEM_IUPAC_NAME>
1-(1H-indol-3-yl)-2-[(6-methoxy-1H-benzimidazol-2-yl)sulfanyl]propan-1-one

> <PUBCHEM_IUPAC_SYSTEMATIC_NAME>
1-(1H-indol-3-yl)-2-[(6-methoxy-1H-benzimidazol-2-yl)sulfanyl]propan-1-one

> <PUBCHEM_IUPAC_TRADITIONAL_NAME>
1-(1H-indol-3-yl)-2-[(6-methoxy-1H-benzimidazol-2-yl)thio]propan-1-one

> <PUBCHEM_IUPAC_INCHI>
InChI=1S/C19H17N3O2S/c1-11(18(23)14-10-20-15-6-4-3-5-13(14)15)25-19-21-16-8-7-12(24-2)9-17(16)22-19/h3-11,20H,1-2H3,(H,21,22)

> <PUBCHEM_IUPAC_INCHIKEY>
ZZLQORDHKYPDCZ-UHFFFAOYSA-N

> <PUBCHEM_XLOGP3_AA>
4.2

> <PUBCHEM_EXACT_MASS>
351.104148

> <PUBCHEM_MOLECULAR_FORMULA>
C19H17N3O2S

> <PUBCHEM_MOLECULAR_WEIGHT>
351.42218

> <PUBCHEM_OPENEYE_CAN_SMILES>
CC(C(=O)C1=CNC2=CC=CC=C21)SC3=NC4=C(N3)C=C(C=C4)OC

> <PUBCHEM_OPENEYE_ISO_SMILES>
CC(C(=O)C1=CNC2=CC=CC=C21)SC3=NC4=C(N3)C=C(C=C4)OC

> <PUBCHEM_CACTVS_TPSA>
96.1

> <PUBCHEM_MONOISOTOPIC_WEIGHT>
351.104148

> <PUBCHEM_TOTAL_CHARGE>
0

> <PUBCHEM_HEAVY_ATOM_COUNT>
25

> <PUBCHEM_ATOM_DEF_STEREO_COUNT>
0

> <PUBCHEM_ATOM_UDEF_STEREO_COUNT>
1

> <PUBCHEM_BOND_DEF_STEREO_COUNT>
0

> <PUBCHEM_BOND_UDEF_STEREO_COUNT>
0

> <PUBCHEM_ISOTOPIC_ATOM_COUNT>
0

> <PUBCHEM_COMPONENT_COUNT>
1

> <PUBCHEM_CACTVS_TAUTO_COUNT>
10

> <PUBCHEM_COORDINATE_TYPE>
1
5
255

> <PUBCHEM_BONDANNOTATIONS>
10  18  8
13  17  8
13  20  8
15  19  8
17  22  8
18  21  8
19  21  8
20  23  8
22  24  8
23  24  8
4  10  8
4  12  8
5  13  8
5  14  8
6  14  8
6  17  8
7  12  8
7  8  8
8  10  8
8  15  8
9  16  3

$$$$

