443070
  -OEChem-07051213013D

 33 34  0     1  0  0  0  0  0999 V2000
   -0.6614    0.4866   -0.9156 O   0  0  0  0  0  0  0  0  0  0  0  0
   -2.6732   -0.2959    1.9649 O   0  0  0  0  0  0  0  0  0  0  0  0
   -0.2331   -2.2058    0.0614 O   0  0  0  0  0  0  0  0  0  0  0  0
   -2.6483   -1.6953   -1.3720 O   0  0  0  0  0  0  0  0  0  0  0  0
    1.8365   -0.2774   -0.9502 O   0  0  0  0  0  0  0  0  0  0  0  0
   -1.8311    2.9868   -0.8965 O   0  0  0  0  0  0  0  0  0  0  0  0
    2.1917    0.9565    2.2908 O   0  0  0  0  0  0  0  0  0  0  0  0
    1.3038    0.1774    0.2720 N   0  0  0  0  0  0  0  0  0  0  0  0
   -2.2053   -1.1354    0.9141 C   0  0  2  0  0  0  0  0  0  0  0  0
   -0.6738   -1.1379    0.9003 C   0  0  2  0  0  0  0  0  0  0  0  0
   -2.7890   -0.6409   -0.4152 C   0  0  1  0  0  0  0  0  0  0  0  0
   -0.1328    0.1933    0.3751 C   0  0  2  0  0  0  0  0  0  0  0  0
   -2.0879    0.6119   -0.9686 C   0  0  1  0  0  0  0  0  0  0  0  0
   -2.5496    1.9137   -0.3167 C   0  0  0  0  0  0  0  0  0  0  0  0
    2.2888    0.5268    1.1541 C   0  0  0  0  0  0  0  0  0  0  0  0
    3.2027   -0.1723   -0.7285 C   0  0  0  0  0  0  0  0  0  0  0  0
    3.5621    0.2873    0.4694 C   0  0  0  0  0  0  0  0  0  0  0  0
    4.1002   -0.5793   -1.8389 C   0  0  0  0  0  0  0  0  0  0  0  0
   -2.5731   -2.1492    1.1152 H   0  0  0  0  0  0  0  0  0  0  0  0
   -0.2753   -1.3207    1.9055 H   0  0  0  0  0  0  0  0  0  0  0  0
   -3.8622   -0.4398   -0.3149 H   0  0  0  0  0  0  0  0  0  0  0  0
   -0.3833    0.9930    1.0808 H   0  0  0  0  0  0  0  0  0  0  0  0
   -2.3113    0.6883   -2.0405 H   0  0  0  0  0  0  0  0  0  0  0  0
   -2.3612    1.9350    0.7589 H   0  0  0  0  0  0  0  0  0  0  0  0
   -3.6198    2.0713   -0.4856 H   0  0  0  0  0  0  0  0  0  0  0  0
   -2.3115   -0.6399    2.7993 H   0  0  0  0  0  0  0  0  0  0  0  0
   -0.5622   -3.0361    0.4460 H   0  0  0  0  0  0  0  0  0  0  0  0
   -3.1598   -2.4564   -1.0482 H   0  0  0  0  0  0  0  0  0  0  0  0
    4.5452    0.4545    0.8707 H   0  0  0  0  0  0  0  0  0  0  0  0
   -2.1489    3.8049   -0.4778 H   0  0  0  0  0  0  0  0  0  0  0  0
    3.9324   -1.6294   -2.0977 H   0  0  0  0  0  0  0  0  0  0  0  0
    5.1547   -0.4611   -1.5697 H   0  0  0  0  0  0  0  0  0  0  0  0
    3.9069    0.0307   -2.7269 H   0  0  0  0  0  0  0  0  0  0  0  0
  1 12  1  0  0  0  0
  1 13  1  0  0  0  0
  2  9  1  0  0  0  0
  2 26  1  0  0  0  0
  3 10  1  0  0  0  0
  3 27  1  0  0  0  0
  4 11  1  0  0  0  0
  4 28  1  0  0  0  0
  5  8  1  0  0  0  0
  5 16  1  0  0  0  0
  6 14  1  0  0  0  0
  6 30  1  0  0  0  0
  7 15  2  0  0  0  0
  8 12  1  0  0  0  0
  8 15  1  0  0  0  0
  9 10  1  0  0  0  0
  9 11  1  0  0  0  0
  9 19  1  0  0  0  0
 10 12  1  0  0  0  0
 10 20  1  0  0  0  0
 11 13  1  0  0  0  0
 11 21  1  0  0  0  0
 12 22  1  0  0  0  0
 13 14  1  0  0  0  0
 13 23  1  0  0  0  0
 14 24  1  0  0  0  0
 14 25  1  0  0  0  0
 15 17  1  0  0  0  0
 16 17  2  0  0  0  0
 16 18  1  0  0  0  0
 17 29  1  0  0  0  0
 18 31  1  0  0  0  0
 18 32  1  0  0  0  0
 18 33  1  0  0  0  0
M  END
> <PUBCHEM_COMPOUND_CID>
443070

> <PUBCHEM_CONFORMER_RMSD>
0.6

> <PUBCHEM_CONFORMER_DIVERSEORDER>
4
42
33
48
36
29
31
45
15
43
47
34
9
16
22
35
49
25
27
23
8
1
41
39
30
3
37
38
17
13
44
5
21
28
12
2
10
40
14
46
24
19
6
32
7
18
26
20
11

> <PUBCHEM_MMFF94_PARTIAL_CHARGES>
23
1 -0.56
10 0.28
11 0.28
12 0.58
13 0.28
14 0.28
15 0.62
16 -0.06
17 -0.14
18 0.14
2 -0.68
26 0.4
27 0.4
28 0.4
29 0.15
3 -0.68
30 0.4
4 -0.68
5 -0.11
6 -0.68
7 -0.57
8 -0.32
9 0.28

> <PUBCHEM_EFFECTIVE_ROTOR_COUNT>
3.2

> <PUBCHEM_PHARMACOPHORE_FEATURES>
12
1 1 acceptor
1 2 acceptor
1 2 donor
1 3 acceptor
1 3 donor
1 4 acceptor
1 4 donor
1 6 acceptor
1 6 donor
1 7 acceptor
5 5 8 15 16 17 rings
6 1 9 10 11 12 13 rings

> <PUBCHEM_HEAVY_ATOM_COUNT>
18

> <PUBCHEM_ATOM_DEF_STEREO_COUNT>
5

> <PUBCHEM_ATOM_UDEF_STEREO_COUNT>
0

> <PUBCHEM_BOND_DEF_STEREO_COUNT>
0

> <PUBCHEM_BOND_UDEF_STEREO_COUNT>
0

> <PUBCHEM_ISOTOPIC_ATOM_COUNT>
0

> <PUBCHEM_COMPONENT_COUNT>
1

> <PUBCHEM_CACTVS_TAUTO_COUNT>
1

> <PUBCHEM_CONFORMER_ID>
0006C2BE00000004

> <PUBCHEM_MMFF94_ENERGY>
40.5552

> <PUBCHEM_FEATURE_SELFOVERLAP>
60.907

> <PUBCHEM_SHAPE_FINGERPRINT>
12186901 62 18059557127240944430
12491281 212 17703782669574022508
12932764 1 18334295374765132778
13024252 1 17703792505391885311
13296908 3 17748544853266531974
13538477 17 16988570082437621800
13764800 53 18201716301458789417
14144814 61 17203615882386618220
14787075 74 16194207926715516636
16752209 62 17988653977546956171
16945 1 18272937076721434603
18186145 218 17967812769118186546
19049666 15 18261395606512656946
19422 9 16988839488851675330
20510252 161 18272366456025026913
21501502 16 18057330684877485323
21524375 3 17838632397922643429
21639500 275 16516264928746829384
23402539 116 18268170698051801919
23493267 7 17704061928300109962
23557571 272 18262814951311957961
23559900 14 18188493618385172390
23598294 1 17917703617329818480
3248919 1 17489317398895323210
45790113 50 16298942052943159659
6049 1 18186522094397773328
77492 1 16917073265247401744
8030462 33 17917440816918234202
81228 2 18341338820746729569

> <PUBCHEM_SHAPE_MULTIPOLES>
324.37
6.22
1.89
1.72
4.48
0.89
0.42
0.15
-1.45
-2.1
-0.32
0.82
-0.1
0.69

> <PUBCHEM_SHAPE_SELFOVERLAP>
676.248

> <PUBCHEM_SHAPE_VOLUME>
182.1

> <PUBCHEM_COORDINATE_TYPE>
2
5
10

$$$$

