17395861
  -OEChem-06241222523D

 50 54  0     1  0  0  0  0  0999 V2000
    2.9281   -0.2326    2.1269 O   0  0  0  0  0  0  0  0  0  0  0  0
    4.3885    1.8644   -1.7269 O   0  0  0  0  0  0  0  0  0  0  0  0
   -4.1637    1.0412   -0.6718 O   0  0  0  0  0  0  0  0  0  0  0  0
    1.0716    1.4404    0.4716 N   0  0  0  0  0  0  0  0  0  0  0  0
    3.4099    1.0977    0.2613 N   0  0  0  0  0  0  0  0  0  0  0  0
   -3.3837   -0.7022    0.5486 N   0  0  0  0  0  0  0  0  0  0  0  0
    4.9064   -0.6038    0.7495 C   0  0  1  0  0  0  0  0  0  0  0  0
    5.0133   -0.2622   -0.7405 C   0  0  2  0  0  0  0  0  0  0  0  0
   -1.7846    1.1729   -0.1222 C   0  0  0  0  0  0  0  0  0  0  0  0
    2.3766    2.1000    0.4305 C   0  0  0  0  0  0  0  0  0  0  0  0
    0.6249    1.1011   -0.8866 C   0  0  0  0  0  0  0  0  0  0  0  0
    0.0885    2.2903    1.1578 C   0  0  0  0  0  0  0  0  0  0  0  0
    3.6080    0.0622    1.1558 C   0  0  0  0  0  0  0  0  0  0  0  0
    4.2720    1.0559   -0.8171 C   0  0  0  0  0  0  0  0  0  0  0  0
   -0.7125    0.3565   -0.8589 C   0  0  0  0  0  0  0  0  0  0  0  0
   -1.2693    1.5910    1.2630 C   0  0  0  0  0  0  0  0  0  0  0  0
    5.0246   -2.0799    1.1141 C   0  0  0  0  0  0  0  0  0  0  0  0
    4.3261   -1.2596   -1.6875 C   0  0  0  0  0  0  0  0  0  0  0  0
    4.5425   -3.0281    0.0654 C   0  0  0  0  0  0  0  0  0  0  0  0
    4.2317   -2.6620   -1.1819 C   0  0  0  0  0  0  0  0  0  0  0  0
   -3.1141    0.4399   -0.0449 C   0  0  0  0  0  0  0  0  0  0  0  0
   -5.2041    0.1859   -0.4471 C   0  0  0  0  0  0  0  0  0  0  0  0
   -4.7232   -0.8795    0.2997 C   0  0  0  0  0  0  0  0  0  0  0  0
   -6.5192    0.3241   -0.8734 C   0  0  0  0  0  0  0  0  0  0  0  0
   -5.6070   -1.9053    0.6641 C   0  0  0  0  0  0  0  0  0  0  0  0
   -7.3880   -0.7075   -0.5015 C   0  0  0  0  0  0  0  0  0  0  0  0
   -6.9434   -1.8009    0.2519 C   0  0  0  0  0  0  0  0  0  0  0  0
    5.6839   -0.0540    1.3011 H   0  0  0  0  0  0  0  0  0  0  0  0
    6.0626   -0.1186   -1.0215 H   0  0  0  0  0  0  0  0  0  0  0  0
   -1.9551    2.0920   -0.7017 H   0  0  0  0  0  0  0  0  0  0  0  0
    2.4420    2.8704   -0.3469 H   0  0  0  0  0  0  0  0  0  0  0  0
    2.5901    2.5749    1.3962 H   0  0  0  0  0  0  0  0  0  0  0  0
    1.3554    0.4496   -1.3788 H   0  0  0  0  0  0  0  0  0  0  0  0
    0.5277    2.0038   -1.5043 H   0  0  0  0  0  0  0  0  0  0  0  0
   -0.0281    3.2503    0.6379 H   0  0  0  0  0  0  0  0  0  0  0  0
    0.4316    2.5104    2.1762 H   0  0  0  0  0  0  0  0  0  0  0  0
   -1.0378    0.1491   -1.8859 H   0  0  0  0  0  0  0  0  0  0  0  0
   -0.5789   -0.6182   -0.3706 H   0  0  0  0  0  0  0  0  0  0  0  0
   -1.1786    0.7101    1.9127 H   0  0  0  0  0  0  0  0  0  0  0  0
   -1.9907    2.2618    1.7457 H   0  0  0  0  0  0  0  0  0  0  0  0
    4.4911   -2.2874    2.0488 H   0  0  0  0  0  0  0  0  0  0  0  0
    6.0805   -2.3138    1.3003 H   0  0  0  0  0  0  0  0  0  0  0  0
    4.8815   -1.2688   -2.6342 H   0  0  0  0  0  0  0  0  0  0  0  0
    3.3118   -0.9305   -1.9459 H   0  0  0  0  0  0  0  0  0  0  0  0
    4.4541   -4.0748    0.3431 H   0  0  0  0  0  0  0  0  0  0  0  0
    3.8835   -3.4189   -1.8793 H   0  0  0  0  0  0  0  0  0  0  0  0
   -6.8529    1.1738   -1.4559 H   0  0  0  0  0  0  0  0  0  0  0  0
   -5.2735   -2.7571    1.2476 H   0  0  0  0  0  0  0  0  0  0  0  0
   -8.4313   -0.6588   -0.8043 H   0  0  0  0  0  0  0  0  0  0  0  0
   -7.6469   -2.5843    0.5228 H   0  0  0  0  0  0  0  0  0  0  0  0
  1 13  2  0  0  0  0
  2 14  2  0  0  0  0
  3 21  1  0  0  0  0
  3 22  1  0  0  0  0
  4 10  1  0  0  0  0
  4 11  1  0  0  0  0
  4 12  1  0  0  0  0
  5 10  1  0  0  0  0
  5 13  1  0  0  0  0
  5 14  1  0  0  0  0
  6 21  2  0  0  0  0
  6 23  1  0  0  0  0
  7  8  1  0  0  0  0
  7 13  1  0  0  0  0
  7 17  1  0  0  0  0
  7 28  1  0  0  0  0
  8 14  1  0  0  0  0
  8 18  1  0  0  0  0
  8 29  1  0  0  0  0
  9 15  1  0  0  0  0
  9 16  1  0  0  0  0
  9 21  1  0  0  0  0
  9 30  1  0  0  0  0
 10 31  1  0  0  0  0
 10 32  1  0  0  0  0
 11 15  1  0  0  0  0
 11 33  1  0  0  0  0
 11 34  1  0  0  0  0
 12 16  1  0  0  0  0
 12 35  1  0  0  0  0
 12 36  1  0  0  0  0
 15 37  1  0  0  0  0
 15 38  1  0  0  0  0
 16 39  1  0  0  0  0
 16 40  1  0  0  0  0
 17 19  1  0  0  0  0
 17 41  1  0  0  0  0
 17 42  1  0  0  0  0
 18 20  1  0  0  0  0
 18 43  1  0  0  0  0
 18 44  1  0  0  0  0
 19 20  2  0  0  0  0
 19 45  1  0  0  0  0
 20 46  1  0  0  0  0
 22 23  1  0  0  0  0
 22 24  2  0  0  0  0
 23 25  2  0  0  0  0
 24 26  1  0  0  0  0
 24 47  1  0  0  0  0
 25 27  1  0  0  0  0
 25 48  1  0  0  0  0
 26 27  2  0  0  0  0
 26 49  1  0  0  0  0
 27 50  1  0  0  0  0
M  END
> <PUBCHEM_COMPOUND_CID>
17395861

> <PUBCHEM_CONFORMER_RMSD>
0.8

> <PUBCHEM_CONFORMER_DIVERSEORDER>
1
76
80
64
118
99
101
48
57
84
36
98
87
82
93
111
73
120
49
59
42
24
45
106
37
23
85
43
112
66
105
46
69
86
22
77
79
94
104
92
21
115
29
41
62
117
100
119
74
89
71
30
103
95
81
108
67
47
26
12
44
61
113
27
55
96
110
58
52
78
102
13
38
14
56
50
83
20
18
90
28
65
32
33
114
63
109
53
25
16
34
15
39
70
116
88
91
107
4
60
35
72
9
75
11
68
19
2
97
8
51
10
3
5
40
31
7
17
54
6

> <PUBCHEM_MMFF94_PARTIAL_CHARGES>
31
1 -0.57
10 0.57
11 0.27
12 0.27
13 0.57
14 0.57
17 0.14
18 0.14
19 -0.29
2 -0.57
20 -0.29
21 0.3
22 0.14
23 0.23
24 -0.15
25 -0.15
26 -0.15
27 -0.15
3 -0.28
4 -0.81
45 0.15
46 0.15
47 0.15
48 0.15
49 0.15
5 -0.42
50 0.15
6 -0.57
7 0.06
8 0.06
9 0.18

> <PUBCHEM_EFFECTIVE_ROTOR_COUNT>
4.8

> <PUBCHEM_PHARMACOPHORE_FEATURES>
8
1 1 acceptor
1 2 acceptor
1 4 cation
5 3 6 21 22 23 rings
5 5 7 8 13 14 rings
6 22 23 24 25 26 27 rings
6 4 9 11 12 15 16 rings
6 7 8 17 18 19 20 rings

> <PUBCHEM_HEAVY_ATOM_COUNT>
27

> <PUBCHEM_ATOM_DEF_STEREO_COUNT>
0

> <PUBCHEM_ATOM_UDEF_STEREO_COUNT>
2

> <PUBCHEM_BOND_DEF_STEREO_COUNT>
0

> <PUBCHEM_BOND_UDEF_STEREO_COUNT>
0

> <PUBCHEM_ISOTOPIC_ATOM_COUNT>
0

> <PUBCHEM_COMPONENT_COUNT>
1

> <PUBCHEM_CACTVS_TAUTO_COUNT>
3

> <PUBCHEM_CONFORMER_ID>
0109709500000001

> <PUBCHEM_MMFF94_ENERGY>
38.7981

> <PUBCHEM_FEATURE_SELFOVERLAP>
40.893

> <PUBCHEM_SHAPE_FINGERPRINT>
10 15 7132431350572010445
10316853 100 18410292505922939159
10498660 4 12678879265386023356
10638233 991 12967132718465803231
10670039 82 12463301361775351078
117089 54 17971462151438723326
11719270 70 17966969435479306031
11796584 16 18272655627962764835
11991303 11 18049430745957851545
12422481 6 16371001966284877661
12633257 1 15502960587629857152
12925494 130 7924818521302665459
13533116 47 18333731307956547800
1361 2 17275384283254435096
13782708 43 18410016507888516823
13914758 101 17313103086487674961
14211702 104 18261671566772601347
14216079 64 18408887330990361151
14251740 57 17968088789771651774
14347332 77 18409450314908109413
14528608 73 17132116835733935937
14739800 52 7348899840946929279
15183329 4 17775006795422971897
15352257 5 18412824660406878567
15419008 42 18049172356276214093
15475509 35 18260274031479801658
15475509 8 17131834313407931661
15510800 12 18187927356437414422
15537594 2 17967251966316033014
15664445 248 17774995740319986860
17134984 74 18343295934264314598
17492 89 18117553149261335670
17844677 252 17917993888595146341
18335252 114 10952059944072769018
1979834 28 17022900177089311294
20567600 75 18412829079922568565
20715895 44 11095882649097017806
21315764 119 17988926691265013613
21623969 137 18260270758867871438
21641784 216 13829862347893636967
21792934 111 13768194001363090483
22061861 79 18342179951547416677
23522609 53 18195497403990580457
23559900 14 18271530793614266053
239999 70 18273216370450812312
249057 3 11743845772569450904
25122255 55 18411978057891287507
25269216 80 15697135350444569259
2838139 119 9583243799444938971
2916195 48 7781518122939581501
29717793 49 18060139842586532085
3004659 81 18202285809948259768
3089732 80 18409444782768737927
33382 64 18409726248986286969
345986 75 17023180565238530640
3472631 163 11527937963513333512
34797466 226 17417809505026853125
3886686 26 16740564492879330930
394071 54 16588032264557806560
397830 11 7637109399629787717
439807 62 18341894125331381267
44317340 157 12679458699017803473
46194498 28 17846218826021868692
465052 167 18333448729257716156
5104073 3 17749670791475010360
5364581 5 7709158184874329495
5951187 136 11455595626572557690
6695519 79 17402585486234313785
7970288 3 18337112370916556586
960060 61 17132111364293662856

> <PUBCHEM_SHAPE_MULTIPOLES>
523.1
18.72
2.69
1.43
24.36
1
0.05
11.59
-2.19
-2.8
0.18
-1.65
-0.04
0.3

> <PUBCHEM_SHAPE_SELFOVERLAP>
1146.863

> <PUBCHEM_SHAPE_VOLUME>
282.7

> <PUBCHEM_COORDINATE_TYPE>
2
5
10

$$$$

