11954051
  -OEChem-07051213063D

 21 23  0     1  0  0  0  0  0999 V2000
   -3.0868    0.0346    0.8711 O   0  0  0  0  0  0  0  0  0  0  0  0
    3.5711   -0.5091    0.1593 O   0  5  0  0  0  0  0  0  0  0  0  0
    2.0204   -2.0577    0.0326 O   0  0  0  0  0  0  0  0  0  0  0  0
    2.3713   -0.8560    0.0675 N   0  3  0  0  0  0  0  0  0  0  0  0
   -2.4276    0.5753   -0.2842 C   0  0  2  0  0  0  0  0  0  0  0  0
   -2.8379   -0.8861   -0.2017 C   0  0  1  0  0  0  0  0  0  0  0  0
   -0.9559    0.8949   -0.1623 C   0  0  0  0  0  0  0  0  0  0  0  0
   -1.7425   -1.8666   -0.1703 C   0  0  0  0  0  0  0  0  0  0  0  0
    0.0032   -0.1463   -0.0986 C   0  0  0  0  0  0  0  0  0  0  0  0
   -0.4373   -1.5527   -0.1285 C   0  0  0  0  0  0  0  0  0  0  0  0
   -0.5002    2.2217   -0.1150 C   0  0  0  0  0  0  0  0  0  0  0  0
    1.3682    0.1539    0.0009 C   0  0  0  0  0  0  0  0  0  0  0  0
    0.8609    2.5131   -0.0136 C   0  0  0  0  0  0  0  0  0  0  0  0
    1.7931    1.4809    0.0428 C   0  0  0  0  0  0  0  0  0  0  0  0
   -3.0234    1.2088   -0.9341 H   0  0  0  0  0  0  0  0  0  0  0  0
   -3.6966   -1.1947   -0.7874 H   0  0  0  0  0  0  0  0  0  0  0  0
   -2.0297   -2.9145   -0.2054 H   0  0  0  0  0  0  0  0  0  0  0  0
    0.1486   -2.4488   -0.1679 H   0  0  0  0  0  0  0  0  0  0  0  0
   -1.2142    3.0410   -0.1604 H   0  0  0  0  0  0  0  0  0  0  0  0
    1.1919    3.5472    0.0200 H   0  0  0  0  0  0  0  0  0  0  0  0
    2.8412    1.7588    0.1206 H   0  0  0  0  0  0  0  0  0  0  0  0
  1  5  1  0  0  0  0
  1  6  1  0  0  0  0
  2  4  1  0  0  0  0
  3  4  2  0  0  0  0
  4 12  1  0  0  0  0
  5  6  1  0  0  0  0
  5  7  1  0  0  0  0
  5 15  1  0  0  0  0
  6  8  1  0  0  0  0
  6 16  1  0  0  0  0
  7  9  2  0  0  0  0
  7 11  1  0  0  0  0
  8 10  2  0  0  0  0
  8 17  1  0  0  0  0
  9 10  1  0  0  0  0
  9 12  1  0  0  0  0
 10 18  1  0  0  0  0
 11 13  2  0  0  0  0
 11 19  1  0  0  0  0
 12 14  2  0  0  0  0
 13 14  1  0  0  0  0
 13 20  1  0  0  0  0
 14 21  1  0  0  0  0
M  CHG  2   2  -1   4   1
M  END
> <PUBCHEM_COMPOUND_CID>
11954051

> <PUBCHEM_CONFORMER_RMSD>
0.4

> <PUBCHEM_CONFORMER_DIVERSEORDER>
1
2

> <PUBCHEM_MMFF94_PARTIAL_CHARGES>
21
1 -0.3
10 -0.18
11 -0.15
12 0.13
13 -0.15
14 -0.15
15 0.1
16 0.1
17 0.15
18 0.15
19 0.15
2 -0.52
20 0.15
21 0.15
3 -0.52
4 0.91
5 0.08
6 0.09
7 -0.03
8 -0.19
9 0.03

> <PUBCHEM_EFFECTIVE_ROTOR_COUNT>
1.2

> <PUBCHEM_PHARMACOPHORE_FEATURES>
6
1 1 acceptor
1 2 acceptor
1 2 anion
1 3 acceptor
6 7 9 11 12 13 14 rings
7 1 5 6 7 8 9 10 rings

> <PUBCHEM_HEAVY_ATOM_COUNT>
14

> <PUBCHEM_ATOM_DEF_STEREO_COUNT>
0

> <PUBCHEM_ATOM_UDEF_STEREO_COUNT>
2

> <PUBCHEM_BOND_DEF_STEREO_COUNT>
0

> <PUBCHEM_BOND_UDEF_STEREO_COUNT>
0

> <PUBCHEM_ISOTOPIC_ATOM_COUNT>
0

> <PUBCHEM_COMPONENT_COUNT>
1

> <PUBCHEM_CACTVS_TAUTO_COUNT>
1

> <PUBCHEM_CONFORMER_ID>
00B6678300000001

> <PUBCHEM_MMFF94_ENERGY>
56.0606

> <PUBCHEM_FEATURE_SELFOVERLAP>
30.538

> <PUBCHEM_SHAPE_FINGERPRINT>
10967382 1 18410294704903054775
11132069 177 18408893931843119504
12251169 10 18334850611152274515
12382932 28 18336273370418771570
12524768 44 18269843025367985133
12696612 119 18337950086832861317
13140716 1 18338237042245929218
13172582 1 18408317800403010091
13380535 21 18125427618925262037
15375462 189 18273495688842283242
16945 1 18410858758694758701
17990270 104 18268153045709750378
193761 8 17978510827924607551
20201158 50 18412268332575388575
20871998 184 18117002280602265310
21130352 189 18412268328433291693
21501502 16 18265331694794259135
22445834 79 18192424174178730451
22721475 48 18411134740519028542
2334 1 18050288072356712814
23419403 2 11862731823709567300
23463225 33 18411418397223094030
23552423 10 18124032330211457701
23559900 14 17759784968013916988
241688 4 18411704313243669633
2748010 2 18194967339925400716
2897 32 17762621681271940573
7364860 26 18191024495671168016
8809292 202 18272930483973184498

> <PUBCHEM_SHAPE_MULTIPOLES>
265.52
4.26
2.51
0.65
0.04
0.49
0.02
-1.3
0.37
0.79
-0.08
-0.19
0.04
-0.1

> <PUBCHEM_SHAPE_SELFOVERLAP>
586.977

> <PUBCHEM_SHAPE_VOLUME>
141.6

> <PUBCHEM_COORDINATE_TYPE>
2
5
10

$$$$

