86840
  -OEChem-07051213023D

 26 27  0     1  0  0  0  0  0999 V2000
   -2.2965   -1.5995   -0.3674 O   0  0  0  0  0  0  0  0  0  0  0  0
   -3.2037    0.3510    0.4090 O   0  0  0  0  0  0  0  0  0  0  0  0
    1.5160   -0.5028    0.3349 C   0  0  0  0  0  0  0  0  0  0  0  0
    1.7253    0.8532   -0.4153 C   0  0  1  0  0  0  0  0  0  0  0  0
    0.2506   -0.6424   -0.5806 C   0  0  2  0  0  0  0  0  0  0  0  0
    1.1235    0.1034   -1.6488 C   0  0  0  0  0  0  0  0  0  0  0  0
    0.8168    1.9816    0.1093 C   0  0  0  0  0  0  0  0  0  0  0  0
   -0.8865    0.1985   -0.0988 C   0  0  0  0  0  0  0  0  0  0  0  0
    2.6034   -1.5487    0.1897 C   0  0  0  0  0  0  0  0  0  0  0  0
    1.2024   -0.3577    1.8166 C   0  0  0  0  0  0  0  0  0  0  0  0
   -0.6003    1.4687    0.2325 C   0  0  0  0  0  0  0  0  0  0  0  0
   -2.2510   -0.3053    0.0188 C   0  0  0  0  0  0  0  0  0  0  0  0
    2.7647    1.1756   -0.5344 H   0  0  0  0  0  0  0  0  0  0  0  0
   -0.0050   -1.6688   -0.8570 H   0  0  0  0  0  0  0  0  0  0  0  0
    1.8198   -0.5222   -2.2171 H   0  0  0  0  0  0  0  0  0  0  0  0
    0.5852    0.7244   -2.3733 H   0  0  0  0  0  0  0  0  0  0  0  0
    0.8335    2.8243   -0.5909 H   0  0  0  0  0  0  0  0  0  0  0  0
    1.1746    2.3510    1.0762 H   0  0  0  0  0  0  0  0  0  0  0  0
    2.9004   -1.7267   -0.8476 H   0  0  0  0  0  0  0  0  0  0  0  0
    3.5092   -1.2510    0.7303 H   0  0  0  0  0  0  0  0  0  0  0  0
    2.2760   -2.5136    0.5937 H   0  0  0  0  0  0  0  0  0  0  0  0
    0.4426    0.3636    2.1151 H   0  0  0  0  0  0  0  0  0  0  0  0
    0.8735   -1.3207    2.2276 H   0  0  0  0  0  0  0  0  0  0  0  0
    2.1088   -0.0730    2.3661 H   0  0  0  0  0  0  0  0  0  0  0  0
   -1.3574    2.1576    0.5926 H   0  0  0  0  0  0  0  0  0  0  0  0
   -3.2015   -1.9720   -0.3009 H   0  0  0  0  0  0  0  0  0  0  0  0
  1 12  1  0  0  0  0
  1 26  1  0  0  0  0
  2 12  2  0  0  0  0
  3  4  1  0  0  0  0
  3  5  1  0  0  0  0
  3  9  1  0  0  0  0
  3 10  1  0  0  0  0
  4  6  1  0  0  0  0
  4  7  1  0  0  0  0
  4 13  1  0  0  0  0
  5  6  1  0  0  0  0
  5  8  1  0  0  0  0
  5 14  1  0  0  0  0
  6 15  1  0  0  0  0
  6 16  1  0  0  0  0
  7 11  1  0  0  0  0
  7 17  1  0  0  0  0
  7 18  1  0  0  0  0
  8 11  2  0  0  0  0
  8 12  1  0  0  0  0
  9 19  1  0  0  0  0
  9 20  1  0  0  0  0
  9 21  1  0  0  0  0
 10 22  1  0  0  0  0
 10 23  1  0  0  0  0
 10 24  1  0  0  0  0
 11 25  1  0  0  0  0
M  END
> <PUBCHEM_COMPOUND_CID>
86840

> <PUBCHEM_CONFORMER_RMSD>
0.4

> <PUBCHEM_CONFORMER_DIVERSEORDER>
1
4
3
2

> <PUBCHEM_MMFF94_PARTIAL_CHARGES>
9
1 -0.65
11 -0.29
12 0.71
2 -0.57
25 0.15
26 0.5
5 0.12
7 0.14
8 -0.1

> <PUBCHEM_EFFECTIVE_ROTOR_COUNT>
1.6

> <PUBCHEM_PHARMACOPHORE_FEATURES>
5
1 1 acceptor
1 2 acceptor
3 1 2 12 anion
3 3 9 10 hydrophobe
7 3 4 5 6 7 8 11 rings

> <PUBCHEM_HEAVY_ATOM_COUNT>
12

> <PUBCHEM_ATOM_DEF_STEREO_COUNT>
0

> <PUBCHEM_ATOM_UDEF_STEREO_COUNT>
2

> <PUBCHEM_BOND_DEF_STEREO_COUNT>
0

> <PUBCHEM_BOND_UDEF_STEREO_COUNT>
0

> <PUBCHEM_ISOTOPIC_ATOM_COUNT>
0

> <PUBCHEM_COMPONENT_COUNT>
1

> <PUBCHEM_CACTVS_TAUTO_COUNT>
1

> <PUBCHEM_CONFORMER_ID>
0001533800000001

> <PUBCHEM_MMFF94_ENERGY>
42.8434

> <PUBCHEM_FEATURE_SELFOVERLAP>
25.426

> <PUBCHEM_SHAPE_FINGERPRINT>
12423570 1 14973798840904095272
12932764 1 18272365339739438973
13024252 1 13898500611203506674
137420 1 12387239131592913340
14128692 85 18130784594379284230
16945 1 18270397174944174468
20653091 64 18270124495917898825
23552423 10 18268142050925951005
2748010 2 17543059534469872965
5084963 1 17968099749878960835
528886 8 18041828532903403637

> <PUBCHEM_SHAPE_MULTIPOLES>
235.22
3.46
1.65
1.21
2.17
0.36
-0.1
-1.28
-0.26
-0.29
-0.04
-0.55
-0.08
-0.33

> <PUBCHEM_SHAPE_SELFOVERLAP>
501.977

> <PUBCHEM_SHAPE_VOLUME>
132.8

> <PUBCHEM_COORDINATE_TYPE>
2
5
10

$$$$

