5354238
  -OEChem-07051213113D

 26 26  0     0  0  0  0  0  0999 V2000
   -2.5932    1.6791   -0.5175 O   0  0  0  0  0  0  0  0  0  0  0  0
   -4.0064   -0.6519    0.0258 O   0  0  0  0  0  0  0  0  0  0  0  0
    4.4390   -0.8490   -0.1180 O   0  0  0  0  0  0  0  0  0  0  0  0
    0.1444   -0.6987   -0.0551 C   0  0  0  0  0  0  0  0  0  0  0  0
   -1.9352    0.5111   -0.2753 C   0  0  0  0  0  0  0  0  0  0  0  0
   -0.5408    0.4910   -0.3016 C   0  0  0  0  0  0  0  0  0  0  0  0
   -0.5649   -1.8684    0.2177 C   0  0  0  0  0  0  0  0  0  0  0  0
   -2.6445   -0.6586   -0.0024 C   0  0  0  0  0  0  0  0  0  0  0  0
   -1.9594   -1.8483    0.2442 C   0  0  0  0  0  0  0  0  0  0  0  0
    1.5984   -0.7197   -0.0825 C   0  0  0  0  0  0  0  0  0  0  0  0
    2.3934    0.3651    0.0488 C   0  0  0  0  0  0  0  0  0  0  0  0
    3.8779    0.2358    0.0174 C   0  0  0  0  0  0  0  0  0  0  0  0
   -2.8787    2.5075    0.6078 C   0  0  0  0  0  0  0  0  0  0  0  0
    4.6702    1.5050    0.1906 C   0  0  0  0  0  0  0  0  0  0  0  0
   -0.0253    1.4177   -0.5385 H   0  0  0  0  0  0  0  0  0  0  0  0
   -0.0482   -2.8049    0.4137 H   0  0  0  0  0  0  0  0  0  0  0  0
   -2.4996   -2.7666    0.4585 H   0  0  0  0  0  0  0  0  0  0  0  0
    2.0501   -1.7010   -0.2100 H   0  0  0  0  0  0  0  0  0  0  0  0
    2.0051    1.3646    0.2059 H   0  0  0  0  0  0  0  0  0  0  0  0
   -3.5159    1.9792    1.3240 H   0  0  0  0  0  0  0  0  0  0  0  0
   -3.4112    3.3946    0.2541 H   0  0  0  0  0  0  0  0  0  0  0  0
   -1.9513    2.8266    1.0939 H   0  0  0  0  0  0  0  0  0  0  0  0
   -4.3234   -1.5483    0.2309 H   0  0  0  0  0  0  0  0  0  0  0  0
    4.9614    1.6101    1.2386 H   0  0  0  0  0  0  0  0  0  0  0  0
    5.5629    1.4601   -0.4399 H   0  0  0  0  0  0  0  0  0  0  0  0
    4.0887    2.3782   -0.1171 H   0  0  0  0  0  0  0  0  0  0  0  0
  1  5  1  0  0  0  0
  1 13  1  0  0  0  0
  2  8  1  0  0  0  0
  2 23  1  0  0  0  0
  3 12  2  0  0  0  0
  4  6  2  0  0  0  0
  4  7  1  0  0  0  0
  4 10  1  0  0  0  0
  5  6  1  0  0  0  0
  5  8  2  0  0  0  0
  6 15  1  0  0  0  0
  7  9  2  0  0  0  0
  7 16  1  0  0  0  0
  8  9  1  0  0  0  0
  9 17  1  0  0  0  0
 10 11  2  0  0  0  0
 10 18  1  0  0  0  0
 11 12  1  0  0  0  0
 11 19  1  0  0  0  0
 12 14  1  0  0  0  0
 13 20  1  0  0  0  0
 13 21  1  0  0  0  0
 13 22  1  0  0  0  0
 14 24  1  0  0  0  0
 14 25  1  0  0  0  0
 14 26  1  0  0  0  0
M  END
> <PUBCHEM_COMPOUND_CID>
5354238

> <PUBCHEM_CONFORMER_RMSD>
0.6

> <PUBCHEM_CONFORMER_DIVERSEORDER>
2
10
12
7
8
4
3
5
11
1
6
9

> <PUBCHEM_MMFF94_PARTIAL_CHARGES>
20
1 -0.36
10 -0.18
11 -0.14
12 0.49
13 0.28
14 0.06
15 0.15
16 0.15
17 0.15
18 0.15
19 0.15
2 -0.53
23 0.45
3 -0.57
4 0.03
5 0.08
6 -0.15
7 -0.15
8 0.08
9 -0.15

> <PUBCHEM_EFFECTIVE_ROTOR_COUNT>
3

> <PUBCHEM_PHARMACOPHORE_FEATURES>
4
1 1 acceptor
1 2 donor
1 3 acceptor
6 4 5 6 7 8 9 rings

> <PUBCHEM_HEAVY_ATOM_COUNT>
14

> <PUBCHEM_ATOM_DEF_STEREO_COUNT>
0

> <PUBCHEM_ATOM_UDEF_STEREO_COUNT>
0

> <PUBCHEM_BOND_DEF_STEREO_COUNT>
1

> <PUBCHEM_BOND_UDEF_STEREO_COUNT>
0

> <PUBCHEM_ISOTOPIC_ATOM_COUNT>
0

> <PUBCHEM_COMPONENT_COUNT>
1

> <PUBCHEM_CACTVS_TAUTO_COUNT>
6

> <PUBCHEM_CONFORMER_ID>
0051B2FE00000002

> <PUBCHEM_MMFF94_ENERGY>
45.4811

> <PUBCHEM_FEATURE_SELFOVERLAP>
20.297

> <PUBCHEM_SHAPE_FINGERPRINT>
10608611 8 18408605855559839916
12173636 292 18410296887036669782
122479 349 18336264625970994628
12346645 44 18412826918921080611
12390115 104 18189316013695015233
13024252 1 12319744661234584783
13081056 2 18335419050131909180
13897977 58 18270677567589055084
14123255 52 18122625221711504257
14144814 61 18202007633517046738
14325111 11 18411983572402136806
15042514 8 18268987579684595547
15219456 202 18188202221042335390
16945 1 18341037546002400375
1741750 31 18336265746741122736
17834072 32 18339642364125253685
18186145 218 18338797943874490004
18522853 276 18341332206169909676
20300324 65 18260835877879666287
20510252 161 18407758140389360465
20645477 56 18411411851687783668
20645477 70 17095791201473791462
21501502 16 18267311004634654411
21524375 3 18338521966176291327
22182937 141 18261384602706874297
2306618 200 18187075148677752635
23402539 116 18337117782844089271
23557571 272 18261661611275955308
23559900 14 18189336930792245542
27216 239 18342450461256641769
2748010 2 18125712629177217111
3071541 12 17904761437868936567
4214541 1 18411419523116481196
5104073 3 18341333366290887978
6333449 129 18411702110104586805
69090 78 18333735684576130542
77779 3 18411698773395065102
90316 7 17489317407654375108
9709674 26 18408880742052028678

> <PUBCHEM_SHAPE_MULTIPOLES>
270.51
8.13
2.15
0.66
8.62
0.77
0.01
2.5
0.32
-1.72
0.32
-0.11
0.08
0.06

> <PUBCHEM_SHAPE_SELFOVERLAP>
557.677

> <PUBCHEM_SHAPE_VOLUME>
156.1

> <PUBCHEM_COORDINATE_TYPE>
2
5
10

$$$$

