5281496
  -OEChem-07051212572D

 44 46  0     1  0  0  0  0  0999 V2000
    6.2616    2.6162    0.0000 O   0  0  0  0  0  0  0  0  0  0  0  0
    3.5836    1.9205    0.0000 O   0  0  0  0  0  0  0  0  0  0  0  0
    5.3958   -0.8842    0.0000 O   0  0  0  0  0  0  0  0  0  0  0  0
    2.0000    1.1158    0.0000 O   0  0  0  0  0  0  0  0  0  0  0  0
    3.8958   -1.7501    0.0000 O   0  0  0  0  0  0  0  0  0  0  0  0
    6.2619    1.6158    0.0000 C   0  0  1  0  0  0  0  0  0  0  0  0
    7.1279    2.1158    0.0000 C   0  0  1  0  0  0  0  0  0  0  0  0
    5.3958    2.1158    0.0000 C   0  0  0  0  0  0  0  0  0  0  0  0
    4.5298    1.6158    0.0000 C   0  0  1  0  0  0  0  0  0  0  0  0
    7.9939    1.6158    0.0000 C   0  0  0  0  0  0  0  0  0  0  0  0
    4.5298    0.6158    0.0000 C   0  0  2  0  0  0  0  0  0  0  0  0
    5.3958    1.1158    0.0000 C   0  0  0  0  0  0  0  0  0  0  0  0
    7.9939    0.6158    0.0000 C   0  0  0  0  0  0  0  0  0  0  0  0
    5.3958    0.1158    0.0000 C   0  0  1  0  0  0  0  0  0  0  0  0
    3.5836    0.3111    0.0000 C   0  0  0  0  0  0  0  0  0  0  0  0
    7.1279    0.1158    0.0000 C   0  0  0  0  0  0  0  0  0  0  0  0
    6.2619    0.6158    0.0000 C   0  0  0  0  0  0  0  0  0  0  0  0
    3.0000    1.1158    0.0000 C   0  0  0  0  0  0  0  0  0  0  0  0
    7.1279   -0.8842    0.0000 C   0  0  0  0  0  0  0  0  0  0  0  0
    2.8394   -0.3568    0.0000 C   0  0  0  0  0  0  0  0  0  0  0  0
    4.8958   -1.7502    0.0000 C   0  0  0  0  0  0  0  0  0  0  0  0
    5.3959   -2.6162    0.0000 C   0  0  0  0  0  0  0  0  0  0  0  0
    7.5530    2.8519    0.0000 H   0  0  0  0  0  0  0  0  0  0  0  0
    5.7944    2.5908    0.0000 H   0  0  0  0  0  0  0  0  0  0  0  0
    4.9973    2.5908    0.0000 H   0  0  0  0  0  0  0  0  0  0  0  0
    4.4399    2.4610    0.0000 H   0  0  0  0  0  0  0  0  0  0  0  0
    8.6045    1.5081    0.0000 H   0  0  0  0  0  0  0  0  0  0  0  0
    8.2060    2.1984    0.0000 H   0  0  0  0  0  0  0  0  0  0  0  0
    4.4399   -0.2294    0.0000 H   0  0  0  0  0  0  0  0  0  0  0  0
    5.0858    1.6527    0.0000 H   0  0  0  0  0  0  0  0  0  0  0  0
    4.8589    0.8058    0.0000 H   0  0  0  0  0  0  0  0  0  0  0  0
    5.7058    0.5789    0.0000 H   0  0  0  0  0  0  0  0  0  0  0  0
    8.2060    0.0332    0.0000 H   0  0  0  0  0  0  0  0  0  0  0  0
    8.6045    0.7235    0.0000 H   0  0  0  0  0  0  0  0  0  0  0  0
    5.9328   -0.1942    0.0000 H   0  0  0  0  0  0  0  0  0  0  0  0
    6.6604    1.0908    0.0000 H   0  0  0  0  0  0  0  0  0  0  0  0
    6.5079   -0.8842    0.0000 H   0  0  0  0  0  0  0  0  0  0  0  0
    7.1279   -1.5042    0.0000 H   0  0  0  0  0  0  0  0  0  0  0  0
    7.7479   -0.8842    0.0000 H   0  0  0  0  0  0  0  0  0  0  0  0
    2.2500   -0.1642    0.0000 H   0  0  0  0  0  0  0  0  0  0  0  0
    2.9672   -0.9635    0.0000 H   0  0  0  0  0  0  0  0  0  0  0  0
    4.8590   -2.9263    0.0000 H   0  0  0  0  0  0  0  0  0  0  0  0
    5.7059   -3.1532    0.0000 H   0  0  0  0  0  0  0  0  0  0  0  0
    5.9328   -2.3062    0.0000 H   0  0  0  0  0  0  0  0  0  0  0  0
  1  6  1  0  0  0  0
  1  7  1  0  0  0  0
  2  9  1  0  0  0  0
  2 18  1  0  0  0  0
 14  3  1  1  0  0  0
  3 21  1  0  0  0  0
  4 18  2  0  0  0  0
  5 21  2  0  0  0  0
  6  7  1  0  0  0  0
  6  8  1  0  0  0  0
  6 12  1  6  0  0  0
  7 10  1  0  0  0  0
  7 23  1  1  0  0  0
  8  9  1  0  0  0  0
  8 24  1  0  0  0  0
  8 25  1  0  0  0  0
  9 11  1  0  0  0  0
  9 26  1  6  0  0  0
 10 13  1  0  0  0  0
 10 27  1  0  0  0  0
 10 28  1  0  0  0  0
 11 14  1  0  0  0  0
 11 15  1  0  0  0  0
 11 29  1  1  0  0  0
 12 30  1  0  0  0  0
 12 31  1  0  0  0  0
 12 32  1  0  0  0  0
 13 16  1  0  0  0  0
 13 33  1  0  0  0  0
 13 34  1  0  0  0  0
 14 17  1  0  0  0  0
 14 35  1  0  0  0  0
 15 18  1  0  0  0  0
 15 20  2  0  0  0  0
 16 17  2  0  0  0  0
 16 19  1  0  0  0  0
 17 36  1  0  0  0  0
 19 37  1  0  0  0  0
 19 38  1  0  0  0  0
 19 39  1  0  0  0  0
 20 40  1  0  0  0  0
 20 41  1  0  0  0  0
 21 22  1  0  0  0  0
 22 42  1  0  0  0  0
 22 43  1  0  0  0  0
 22 44  1  0  0  0  0
M  END
> <PUBCHEM_COMPOUND_CID>
5281496

> <PUBCHEM_COMPOUND_CANONICALIZED>
1

> <PUBCHEM_CACTVS_COMPLEXITY>
563

> <PUBCHEM_CACTVS_HBOND_ACCEPTOR>
5

> <PUBCHEM_CACTVS_HBOND_DONOR>
0

> <PUBCHEM_CACTVS_ROTATABLE_BOND>
2

> <PUBCHEM_CACTVS_SUBSKEYS>
AAADceB4OAAAAAAAAAAAAAAAEgAAASAAAAAAAAAAAAAAAACAAAAAGgAAAAAADVSggAICCAAABACIAiDSCAAAAAAgAAAACAEAAEgABBIAIQACEAAFwAAIIIPK6PyOAAAAAAAAAAAAAAAAAAAAAAAAAAAAAA==

> <PUBCHEM_IUPAC_INCHI>
InChI=1S/C17H22O5/c1-9-5-6-14-17(4,22-14)8-13-15(10(2)16(19)21-13)12(7-9)20-11(3)18/h7,12-15H,2,5-6,8H2,1,3-4H3/b9-7+/t12-,13+,14-,15+,17-/m1/s1

> <PUBCHEM_IUPAC_INCHIKEY>
JJMLQAVFDJXJAL-AWZCNKNJSA-N

> <PUBCHEM_XLOGP3_AA>
1.8

> <PUBCHEM_EXACT_MASS>
306.146724

> <PUBCHEM_MOLECULAR_FORMULA>
C17H22O5

> <PUBCHEM_MOLECULAR_WEIGHT>
306.35358

> <PUBCHEM_OPENEYE_CAN_SMILES>
CC1=CC(C2C(CC3(C(O3)CC1)C)OC(=O)C2=C)OC(=O)C

> <PUBCHEM_OPENEYE_ISO_SMILES>
C/C/1=C\[C@H]([C@H]2[C@H](C[C@@]3([C@H](O3)CC1)C)OC(=O)C2=C)OC(=O)C

> <PUBCHEM_CACTVS_TPSA>
65.1

> <PUBCHEM_MONOISOTOPIC_WEIGHT>
306.146724

> <PUBCHEM_TOTAL_CHARGE>
0

> <PUBCHEM_HEAVY_ATOM_COUNT>
22

> <PUBCHEM_ATOM_DEF_STEREO_COUNT>
5

> <PUBCHEM_ATOM_UDEF_STEREO_COUNT>
0

> <PUBCHEM_BOND_DEF_STEREO_COUNT>
1

> <PUBCHEM_BOND_UDEF_STEREO_COUNT>
0

> <PUBCHEM_ISOTOPIC_ATOM_COUNT>
0

> <PUBCHEM_COMPONENT_COUNT>
1

> <PUBCHEM_CACTVS_TAUTO_COUNT>
1

> <PUBCHEM_COORDINATE_TYPE>
1
5
255

> <PUBCHEM_BONDANNOTATIONS>
11  29  5
14  3  5
6  12  6
7  23  5
9  26  6

$$$$

