6385
  -OEChem-06261201172D

 16 15  0     0  0  0  0  0  0999 V2000
    3.7320    0.3730    0.0000 N   0  0  0  0  0  0  0  0  0  0  0  0
    2.8660   -0.1270    0.0000 C   0  0  0  0  0  0  0  0  0  0  0  0
    2.0000   -0.6270    0.0000 C   0  0  0  0  0  0  0  0  0  0  0  0
    2.3660    0.7390    0.0000 C   0  0  0  0  0  0  0  0  0  0  0  0
    3.3660   -0.9930    0.0000 C   0  0  0  0  0  0  0  0  0  0  0  0
    1.6900   -0.0901    0.0000 H   0  0  0  0  0  0  0  0  0  0  0  0
    1.4631   -0.9370    0.0000 H   0  0  0  0  0  0  0  0  0  0  0  0
    2.3100   -1.1639    0.0000 H   0  0  0  0  0  0  0  0  0  0  0  0
    2.9030    1.0490    0.0000 H   0  0  0  0  0  0  0  0  0  0  0  0
    2.0560    1.2760    0.0000 H   0  0  0  0  0  0  0  0  0  0  0  0
    1.8291    0.4290    0.0000 H   0  0  0  0  0  0  0  0  0  0  0  0
    2.8291   -1.3030    0.0000 H   0  0  0  0  0  0  0  0  0  0  0  0
    3.6760   -1.5300    0.0000 H   0  0  0  0  0  0  0  0  0  0  0  0
    3.9030   -0.6830    0.0000 H   0  0  0  0  0  0  0  0  0  0  0  0
    4.2690    0.0630    0.0000 H   0  0  0  0  0  0  0  0  0  0  0  0
    3.7320    0.9930    0.0000 H   0  0  0  0  0  0  0  0  0  0  0  0
  1  2  1  0  0  0  0
  1 15  1  0  0  0  0
  1 16  1  0  0  0  0
  2  3  1  0  0  0  0
  2  4  1  0  0  0  0
  2  5  1  0  0  0  0
  3  6  1  0  0  0  0
  3  7  1  0  0  0  0
  3  8  1  0  0  0  0
  4  9  1  0  0  0  0
  4 10  1  0  0  0  0
  4 11  1  0  0  0  0
  5 12  1  0  0  0  0
  5 13  1  0  0  0  0
  5 14  1  0  0  0  0
M  END
> <PUBCHEM_COMPOUND_CID>
6385

> <PUBCHEM_COMPOUND_CANONICALIZED>
1

> <PUBCHEM_CACTVS_COMPLEXITY>
25.1

> <PUBCHEM_CACTVS_HBOND_ACCEPTOR>
1

> <PUBCHEM_CACTVS_HBOND_DONOR>
1

> <PUBCHEM_CACTVS_ROTATABLE_BOND>
0

> <PUBCHEM_CACTVS_SUBSKEYS>
AAADccBiAAAAAAAAAAAAAAAAAAAAAAAAAAAAAAAAAAAAAAAAAAAAHAAQAAAADIiBAAACAABAAAAAAAAAAAAAAAAAAAAAAAAAAAAAAAAAAAAAAAAAEAAAAAAAAAAAAAAAAAAAAAAAAAAAAAAAAAAAAAAAAA==

> <PUBCHEM_IUPAC_OPENEYE_NAME>
2-methylpropan-2-amine

> <PUBCHEM_IUPAC_CAS_NAME>
2-methyl-2-propanamine

> <PUBCHEM_IUPAC_NAME>
2-methylpropan-2-amine

> <PUBCHEM_IUPAC_SYSTEMATIC_NAME>
2-methylpropan-2-amine

> <PUBCHEM_IUPAC_TRADITIONAL_NAME>
tert-butylamine

> <PUBCHEM_IUPAC_INCHI>
InChI=1S/C4H11N/c1-4(2,3)5/h5H2,1-3H3

> <PUBCHEM_IUPAC_INCHIKEY>
YBRBMKDOPFTVDT-UHFFFAOYSA-N

> <PUBCHEM_XLOGP3_AA>
0.3

> <PUBCHEM_EXACT_MASS>
73.089149

> <PUBCHEM_MOLECULAR_FORMULA>
C4H11N

> <PUBCHEM_MOLECULAR_WEIGHT>
73.13684

> <PUBCHEM_OPENEYE_CAN_SMILES>
CC(C)(C)N

> <PUBCHEM_OPENEYE_ISO_SMILES>
CC(C)(C)N

> <PUBCHEM_CACTVS_TPSA>
26

> <PUBCHEM_MONOISOTOPIC_WEIGHT>
73.089149

> <PUBCHEM_TOTAL_CHARGE>
0

> <PUBCHEM_HEAVY_ATOM_COUNT>
5

> <PUBCHEM_ATOM_DEF_STEREO_COUNT>
0

> <PUBCHEM_ATOM_UDEF_STEREO_COUNT>
0

> <PUBCHEM_BOND_DEF_STEREO_COUNT>
0

> <PUBCHEM_BOND_UDEF_STEREO_COUNT>
0

> <PUBCHEM_ISOTOPIC_ATOM_COUNT>
0

> <PUBCHEM_COMPONENT_COUNT>
1

> <PUBCHEM_CACTVS_TAUTO_COUNT>
1

> <PUBCHEM_COORDINATE_TYPE>
1
5
255

$$$$

