5282189
  -OEChem-07051213032D

108110  0     1  0  0  0  0  0999 V2000
    8.0622    0.8100    0.0000 O   0  0  0  0  0  0  0  0  0  0  0  0
    9.7942    2.8100    0.0000 O   0  0  0  0  0  0  0  0  0  0  0  0
    6.3301    0.8100    0.0000 O   0  0  0  0  0  0  0  0  0  0  0  0
   10.6603    1.3100    0.0000 O   0  0  0  0  0  0  0  0  0  0  0  0
    6.3301    2.8100    0.0000 O   0  0  0  0  0  0  0  0  0  0  0  0
   13.3923    2.3100    0.0000 O   0  0  0  0  0  0  0  0  0  0  0  0
    5.4641   -1.6900    0.0000 O   0  0  0  0  0  0  0  0  0  0  0  0
   13.2583    0.8100    0.0000 O   0  0  0  0  0  0  0  0  0  0  0  0
    4.5981    0.8100    0.0000 O   0  0  0  0  0  0  0  0  0  0  0  0
    8.9282   -3.6900    0.0000 O   0  0  0  0  0  0  0  0  0  0  0  0
    9.7942   -0.1900    0.0000 O   0  0  0  0  0  0  0  0  0  0  0  0
    2.8660   -2.1900    0.0000 O   0  0  0  0  0  0  0  0  0  0  0  0
    4.7320   -1.6900    0.0000 O   0  0  0  0  0  0  0  0  0  0  0  0
    8.0622    3.8100    0.0000 N   0  0  0  0  0  0  0  0  0  0  0  0
    8.0622    2.8100    0.0000 C   0  0  1  0  0  0  0  0  0  0  0  0
    8.9282    2.3100    0.0000 C   0  0  1  0  0  0  0  0  0  0  0  0
    7.1962    2.3100    0.0000 C   0  0  2  0  0  0  0  0  0  0  0  0
    8.9282    1.3100    0.0000 C   0  0  1  0  0  0  0  0  0  0  0  0
    7.1962    1.3100    0.0000 C   0  0  1  0  0  0  0  0  0  0  0  0
    6.3301   -0.1900    0.0000 C   0  0  1  0  0  0  0  0  0  0  0  0
    7.1962   -0.6900    0.0000 C   0  0  2  0  0  0  0  0  0  0  0  0
   10.6603    2.3100    0.0000 C   0  0  2  0  0  0  0  0  0  0  0  0
   12.3923    2.3100    0.0000 C   0  0  2  0  0  0  0  0  0  0  0  0
   11.5263    2.8100    0.0000 C   0  0  0  0  0  0  0  0  0  0  0  0
   12.3923    1.3100    0.0000 C   0  0  2  0  0  0  0  0  0  0  0  0
    5.4641   -0.6900    0.0000 C   0  0  2  0  0  0  0  0  0  0  0  0
    7.1962   -1.6900    0.0000 C   0  0  0  0  0  0  0  0  0  0  0  0
   11.5263    0.8100    0.0000 C   0  0  2  0  0  0  0  0  0  0  0  0
    9.7942    0.8100    0.0000 C   0  0  0  0  0  0  0  0  0  0  0  0
    8.0622   -2.1900    0.0000 C   0  0  2  0  0  0  0  0  0  0  0  0
    8.0622   -0.1900    0.0000 C   0  0  0  0  0  0  0  0  0  0  0  0
    4.5981   -0.1900    0.0000 C   0  0  1  0  0  0  0  0  0  0  0  0
   12.8923    3.1760    0.0000 C   0  0  0  0  0  0  0  0  0  0  0  0
    8.9282    4.3100    0.0000 C   0  0  0  0  0  0  0  0  0  0  0  0
    7.1962    4.3100    0.0000 C   0  0  0  0  0  0  0  0  0  0  0  0
   11.5263   -0.1900    0.0000 C   0  0  0  0  0  0  0  0  0  0  0  0
    8.0622   -3.1900    0.0000 C   0  0  2  0  0  0  0  0  0  0  0  0
    9.0622   -2.1900    0.0000 C   0  0  0  0  0  0  0  0  0  0  0  0
    3.7320   -0.6900    0.0000 C   0  0  0  0  0  0  0  0  0  0  0  0
    8.9282   -0.6900    0.0000 C   0  0  0  0  0  0  0  0  0  0  0  0
    7.1962   -3.6900    0.0000 C   0  0  0  0  0  0  0  0  0  0  0  0
    6.4641   -1.6900    0.0000 C   0  0  0  0  0  0  0  0  0  0  0  0
    3.7320   -1.6900    0.0000 C   0  0  0  0  0  0  0  0  0  0  0  0
    6.3301   -3.1900    0.0000 C   0  0  0  0  0  0  0  0  0  0  0  0
    2.8660   -3.1900    0.0000 C   0  0  1  0  0  0  0  0  0  0  0  0
    5.4641   -3.6900    0.0000 C   0  0  0  0  0  0  0  0  0  0  0  0
    3.7320   -3.6900    0.0000 C   0  0  0  0  0  0  0  0  0  0  0  0
    4.5981   -3.1900    0.0000 C   0  0  0  0  0  0  0  0  0  0  0  0
    2.0000   -3.6900    0.0000 C   0  0  0  0  0  0  0  0  0  0  0  0
    7.5252    3.1200    0.0000 H   0  0  0  0  0  0  0  0  0  0  0  0
    9.4651    2.0000    0.0000 H   0  0  0  0  0  0  0  0  0  0  0  0
    6.6592    2.0000    0.0000 H   0  0  0  0  0  0  0  0  0  0  0  0
    8.9282    0.6900    0.0000 H   0  0  0  0  0  0  0  0  0  0  0  0
    6.6592    1.6200    0.0000 H   0  0  0  0  0  0  0  0  0  0  0  0
    6.8671    0.1200    0.0000 H   0  0  0  0  0  0  0  0  0  0  0  0
    7.7331   -1.0000    0.0000 H   0  0  0  0  0  0  0  0  0  0  0  0
   10.6603    2.9300    0.0000 H   0  0  0  0  0  0  0  0  0  0  0  0
   11.9248    3.2850    0.0000 H   0  0  0  0  0  0  0  0  0  0  0  0
   11.1278    3.2850    0.0000 H   0  0  0  0  0  0  0  0  0  0  0  0
   12.3923    0.6900    0.0000 H   0  0  0  0  0  0  0  0  0  0  0  0
    6.0010   -1.0000    0.0000 H   0  0  0  0  0  0  0  0  0  0  0  0
    6.5856   -1.5823    0.0000 H   0  0  0  0  0  0  0  0  0  0  0  0
    6.9841   -2.2726    0.0000 H   0  0  0  0  0  0  0  0  0  0  0  0
   10.9893    0.5000    0.0000 H   0  0  0  0  0  0  0  0  0  0  0  0
    9.4842    0.2731    0.0000 H   0  0  0  0  0  0  0  0  0  0  0  0
   10.3312    0.5000    0.0000 H   0  0  0  0  0  0  0  0  0  0  0  0
   10.1042    1.3469    0.0000 H   0  0  0  0  0  0  0  0  0  0  0  0
    8.2226   -1.5911    0.0000 H   0  0  0  0  0  0  0  0  0  0  0  0
    8.4607    0.2849    0.0000 H   0  0  0  0  0  0  0  0  0  0  0  0
    7.6636    0.2849    0.0000 H   0  0  0  0  0  0  0  0  0  0  0  0
    5.1350    0.1200    0.0000 H   0  0  0  0  0  0  0  0  0  0  0  0
   13.4292    2.8660    0.0000 H   0  0  0  0  0  0  0  0  0  0  0  0
   13.2023    3.7130    0.0000 H   0  0  0  0  0  0  0  0  0  0  0  0
   12.3554    3.4860    0.0000 H   0  0  0  0  0  0  0  0  0  0  0  0
    5.7932    2.5000    0.0000 H   0  0  0  0  0  0  0  0  0  0  0  0
    9.2382    3.7731    0.0000 H   0  0  0  0  0  0  0  0  0  0  0  0
    9.4651    4.6200    0.0000 H   0  0  0  0  0  0  0  0  0  0  0  0
    8.6182    4.8469    0.0000 H   0  0  0  0  0  0  0  0  0  0  0  0
    7.5062    4.8469    0.0000 H   0  0  0  0  0  0  0  0  0  0  0  0
    6.6592    4.6200    0.0000 H   0  0  0  0  0  0  0  0  0  0  0  0
    6.8862    3.7731    0.0000 H   0  0  0  0  0  0  0  0  0  0  0  0
   10.9063   -0.1900    0.0000 H   0  0  0  0  0  0  0  0  0  0  0  0
   11.5263   -0.8100    0.0000 H   0  0  0  0  0  0  0  0  0  0  0  0
   12.1463   -0.1900    0.0000 H   0  0  0  0  0  0  0  0  0  0  0  0
    8.0622   -3.8100    0.0000 H   0  0  0  0  0  0  0  0  0  0  0  0
   13.7023    2.8469    0.0000 H   0  0  0  0  0  0  0  0  0  0  0  0
    9.0622   -2.8100    0.0000 H   0  0  0  0  0  0  0  0  0  0  0  0
    9.6822   -2.1900    0.0000 H   0  0  0  0  0  0  0  0  0  0  0  0
    9.0622   -1.5700    0.0000 H   0  0  0  0  0  0  0  0  0  0  0  0
    3.5200   -0.1074    0.0000 H   0  0  0  0  0  0  0  0  0  0  0  0
    3.1215   -0.7977    0.0000 H   0  0  0  0  0  0  0  0  0  0  0  0
   13.2583    0.1900    0.0000 H   0  0  0  0  0  0  0  0  0  0  0  0
    9.2383   -1.2269    0.0000 H   0  0  0  0  0  0  0  0  0  0  0  0
    4.0611    1.1200    0.0000 H   0  0  0  0  0  0  0  0  0  0  0  0
    7.1962   -4.3100    0.0000 H   0  0  0  0  0  0  0  0  0  0  0  0
    6.4641   -2.3100    0.0000 H   0  0  0  0  0  0  0  0  0  0  0  0
    7.0841   -1.6900    0.0000 H   0  0  0  0  0  0  0  0  0  0  0  0
    6.4641   -1.0700    0.0000 H   0  0  0  0  0  0  0  0  0  0  0  0
    8.9282   -4.3100    0.0000 H   0  0  0  0  0  0  0  0  0  0  0  0
    6.6401   -2.6531    0.0000 H   0  0  0  0  0  0  0  0  0  0  0  0
    2.3291   -2.8800    0.0000 H   0  0  0  0  0  0  0  0  0  0  0  0
    5.4641   -4.3100    0.0000 H   0  0  0  0  0  0  0  0  0  0  0  0
    3.3335   -4.1650    0.0000 H   0  0  0  0  0  0  0  0  0  0  0  0
    4.1306   -4.1650    0.0000 H   0  0  0  0  0  0  0  0  0  0  0  0
    4.5981   -2.5700    0.0000 H   0  0  0  0  0  0  0  0  0  0  0  0
    1.6900   -3.1531    0.0000 H   0  0  0  0  0  0  0  0  0  0  0  0
    1.4631   -4.0000    0.0000 H   0  0  0  0  0  0  0  0  0  0  0  0
    2.3100   -4.2269    0.0000 H   0  0  0  0  0  0  0  0  0  0  0  0
  1 18  1  0  0  0  0
  1 19  1  0  0  0  0
 16  2  1  6  0  0  0
 22  2  1  1  0  0  0
 19  3  1  1  0  0  0
 20  3  1  1  0  0  0
  4 22  1  0  0  0  0
  4 28  1  0  0  0  0
 17  5  1  6  0  0  0
  5 75  1  0  0  0  0
 23  6  1  1  0  0  0
  6 86  1  0  0  0  0
 26  7  1  1  0  0  0
  7 42  1  0  0  0  0
 25  8  1  1  0  0  0
  8 92  1  0  0  0  0
 32  9  1  1  0  0  0
  9 94  1  0  0  0  0
 37 10  1  1  0  0  0
 10 99  1  0  0  0  0
 11 40  2  0  0  0  0
 12 43  1  0  0  0  0
 12 45  1  0  0  0  0
 13 43  2  0  0  0  0
 15 14  1  1  0  0  0
 14 34  1  0  0  0  0
 14 35  1  0  0  0  0
 15 16  1  0  0  0  0
 15 17  1  0  0  0  0
 15 50  1  0  0  0  0
 16 18  1  0  0  0  0
 16 51  1  0  0  0  0
 17 19  1  0  0  0  0
 17 52  1  0  0  0  0
 18 29  1  1  0  0  0
 18 53  1  0  0  0  0
 19 54  1  0  0  0  0
 20 21  1  0  0  0  0
 20 26  1  0  0  0  0
 20 55  1  0  0  0  0
 21 27  1  0  0  0  0
 21 31  1  1  0  0  0
 21 56  1  0  0  0  0
 22 24  1  0  0  0  0
 22 57  1  0  0  0  0
 23 24  1  0  0  0  0
 23 25  1  0  0  0  0
 23 33  1  0  0  0  0
 24 58  1  0  0  0  0
 24 59  1  0  0  0  0
 25 28  1  0  0  0  0
 25 60  1  0  0  0  0
 26 32  1  0  0  0  0
 26 61  1  0  0  0  0
 27 30  1  0  0  0  0
 27 62  1  0  0  0  0
 27 63  1  0  0  0  0
 28 36  1  6  0  0  0
 28 64  1  0  0  0  0
 29 65  1  0  0  0  0
 29 66  1  0  0  0  0
 29 67  1  0  0  0  0
 30 37  1  0  0  0  0
 30 38  1  1  0  0  0
 30 68  1  0  0  0  0
 31 40  1  0  0  0  0
 31 69  1  0  0  0  0
 31 70  1  0  0  0  0
 32 39  1  0  0  0  0
 32 71  1  0  0  0  0
 33 72  1  0  0  0  0
 33 73  1  0  0  0  0
 33 74  1  0  0  0  0
 34 76  1  0  0  0  0
 34 77  1  0  0  0  0
 34 78  1  0  0  0  0
 35 79  1  0  0  0  0
 35 80  1  0  0  0  0
 35 81  1  0  0  0  0
 36 82  1  0  0  0  0
 36 83  1  0  0  0  0
 36 84  1  0  0  0  0
 37 41  1  0  0  0  0
 37 85  1  0  0  0  0
 38 87  1  0  0  0  0
 38 88  1  0  0  0  0
 38 89  1  0  0  0  0
 39 43  1  0  0  0  0
 39 90  1  0  0  0  0
 39 91  1  0  0  0  0
 40 93  1  0  0  0  0
 41 44  2  0  0  0  0
 41 95  1  0  0  0  0
 42 96  1  0  0  0  0
 42 97  1  0  0  0  0
 42 98  1  0  0  0  0
 44 46  1  0  0  0  0
 44100  1  0  0  0  0
 45 47  1  0  0  0  0
 45 49  1  1  0  0  0
 45101  1  0  0  0  0
 46 48  2  0  0  0  0
 46102  1  0  0  0  0
 47 48  1  0  0  0  0
 47103  1  0  0  0  0
 47104  1  0  0  0  0
 48105  1  0  0  0  0
 49106  1  0  0  0  0
 49107  1  0  0  0  0
 49108  1  0  0  0  0
M  END
> <PUBCHEM_COMPOUND_CID>
5282189

> <PUBCHEM_COMPOUND_CANONICALIZED>
1

> <PUBCHEM_CACTVS_COMPLEXITY>
1110

> <PUBCHEM_CACTVS_HBOND_ACCEPTOR>
14

> <PUBCHEM_CACTVS_HBOND_DONOR>
5

> <PUBCHEM_CACTVS_ROTATABLE_BOND>
8

> <PUBCHEM_CACTVS_SUBSKEYS>
AAADcfB+PAAAAAAAAAAAAAAAAAAAAAAAAAAkSAAAAAAAAAAAAAAAHgAACAAADXzxgAcCCAMABgCIACjSiAAAAAAgAAAICAEIAAgbFBYAgQAnUAAH4AAfkAPK7PzOAAAAAAAAAAAAAAAAAAAAAAAAAAAAAA==

> <PUBCHEM_IUPAC_OPENEYE_NAME>
2-[(4R,5S,6S,7R,9R,10R,11E,13E,16R)-6-[(2S,3R,4R,5S,6R)-5-[(2S,4R,5S,6S)-4,5-dihydroxy-4,6-dimethyl-tetrahydropyran-2-yl]oxy-4-(dimethylamino)-3-hydroxy-6-methyl-tetrahydropyran-2-yl]oxy-4,10-dihydroxy-5-methoxy-9,16-dimethyl-2-oxo-1-oxacyclohexadeca-11,13-dien-7-yl]acetaldehyde

> <PUBCHEM_IUPAC_CAS_NAME>
2-[(4R,5S,6S,7R,9R,10R,11E,13E,16R)-6-[[(2S,3R,4R,5S,6R)-5-[[(2S,4R,5S,6S)-4,5-dihydroxy-4,6-dimethyl-2-oxanyl]oxy]-4-(dimethylamino)-3-hydroxy-6-methyl-2-oxanyl]oxy]-4,10-dihydroxy-5-methoxy-9,16-dimethyl-2-oxo-1-oxacyclohexadeca-11,13-dien-7-yl]acetaldehyde

> <PUBCHEM_IUPAC_NAME>
2-[(4R,5S,6S,7R,9R,10R,11E,13E,16R)-6-[(2S,3R,4R,5S,6R)-5-[(2S,4R,5S,6S)-4,5-dihydroxy-4,6-dimethyloxan-2-yl]oxy-4-(dimethylamino)-3-hydroxy-6-methyloxan-2-yl]oxy-4,10-dihydroxy-5-methoxy-9,16-dimethyl-2-oxo-1-oxacyclohexadeca-11,13-dien-7-yl]acetaldehyde

> <PUBCHEM_IUPAC_SYSTEMATIC_NAME>
2-[(4R,5S,6S,7R,9R,10R,11E,13E,16R)-6-[(2S,3R,4R,5S,6R)-4-(dimethylamino)-5-[(2S,4R,5S,6S)-4,6-dimethyl-4,5-bis(oxidanyl)oxan-2-yl]oxy-6-methyl-3-oxidanyl-oxan-2-yl]oxy-5-methoxy-9,16-dimethyl-4,10-bis(oxidanyl)-2-oxidanylidene-1-oxacyclohexadeca-11,13-dien-7-yl]ethanal

> <PUBCHEM_IUPAC_TRADITIONAL_NAME>
2-[(4R,5S,6S,7R,9R,10R,11E,13E,16R)-6-[(2S,3R,4R,5S,6R)-5-[(2S,4R,5S,6S)-4,5-dihydroxy-4,6-dimethyl-tetrahydropyran-2-yl]oxy-4-(dimethylamino)-3-hydroxy-6-methyl-tetrahydropyran-2-yl]oxy-4,10-dihydroxy-2-keto-5-methoxy-9,16-dimethyl-1-oxacyclohexadeca-11,13-dien-7-yl]acetaldehyde

> <PUBCHEM_IUPAC_INCHI>
InChI=1S/C35H59NO13/c1-19-16-23(14-15-37)31(32(44-8)25(39)17-26(40)45-20(2)12-10-9-11-13-24(19)38)49-34-29(41)28(36(6)7)30(21(3)47-34)48-27-18-35(5,43)33(42)22(4)46-27/h9-11,13,15,19-25,27-34,38-39,41-43H,12,14,16-18H2,1-8H3/b10-9+,13-11+/t19-,20-,21-,22+,23+,24+,25-,27+,28-,29-,30-,31+,32+,33+,34+,35-/m1/s1

> <PUBCHEM_IUPAC_INCHIKEY>
XYJOGTQLTFNMQG-KJHBSLKPSA-N

> <PUBCHEM_XLOGP3_AA>
0.5

> <PUBCHEM_EXACT_MASS>
701.398641

> <PUBCHEM_MOLECULAR_FORMULA>
C35H59NO13

> <PUBCHEM_MOLECULAR_WEIGHT>
701.84186

> <PUBCHEM_OPENEYE_CAN_SMILES>
CC1CC=CC=CC(C(CC(C(C(C(CC(=O)O1)O)OC)OC2C(C(C(C(O2)C)OC3CC(C(C(O3)C)O)(C)O)N(C)C)O)CC=O)C)O

> <PUBCHEM_OPENEYE_ISO_SMILES>
C[C@@H]1C/C=C/C=C/[C@@H]([C@@H](C[C@@H]([C@@H]([C@H]([C@@H](CC(=O)O1)O)OC)O[C@H]2[C@@H]([C@H]([C@@H]([C@H](O2)C)O[C@H]3C[C@@]([C@H]([C@@H](O3)C)O)(C)O)N(C)C)O)CC=O)C)O

> <PUBCHEM_CACTVS_TPSA>
194

> <PUBCHEM_MONOISOTOPIC_WEIGHT>
701.398641

> <PUBCHEM_TOTAL_CHARGE>
0

> <PUBCHEM_HEAVY_ATOM_COUNT>
49

> <PUBCHEM_ATOM_DEF_STEREO_COUNT>
16

> <PUBCHEM_ATOM_UDEF_STEREO_COUNT>
0

> <PUBCHEM_BOND_DEF_STEREO_COUNT>
2

> <PUBCHEM_BOND_UDEF_STEREO_COUNT>
0

> <PUBCHEM_ISOTOPIC_ATOM_COUNT>
0

> <PUBCHEM_COMPONENT_COUNT>
1

> <PUBCHEM_CACTVS_TAUTO_COUNT>
4

> <PUBCHEM_COORDINATE_TYPE>
1
5
255

> <PUBCHEM_BONDANNOTATIONS>
37  10  5
15  14  5
18  29  5
16  2  6
22  2  5
21  31  5
28  36  6
19  3  5
20  3  5
30  38  5
45  49  5
17  5  6
23  6  5
26  7  5
25  8  5
32  9  5

$$$$

