5281684
  -OEChem-07051212582D

 46 46  0     1  0  0  0  0  0999 V2000
   13.2583    1.1900    0.0000 O   0  0  0  0  0  0  0  0  0  0  0  0
   11.5263   -0.8100    0.0000 N   0  0  3  0  0  0  0  0  0  0  0  0
   12.3923   -0.3100    0.0000 C   0  0  2  0  0  0  0  0  0  0  0  0
   12.3923    0.6900    0.0000 C   0  0  2  0  0  0  0  0  0  0  0  0
   10.6603   -0.3100    0.0000 C   0  0  1  0  0  0  0  0  0  0  0  0
   11.5263    1.1900    0.0000 C   0  0  0  0  0  0  0  0  0  0  0  0
   10.6603    0.6900    0.0000 C   0  0  0  0  0  0  0  0  0  0  0  0
   13.2583   -0.8100    0.0000 C   0  0  0  0  0  0  0  0  0  0  0  0
   11.5263   -1.8100    0.0000 C   0  0  0  0  0  0  0  0  0  0  0  0
    9.7942   -0.8100    0.0000 C   0  0  0  0  0  0  0  0  0  0  0  0
    8.9282   -0.3100    0.0000 C   0  0  0  0  0  0  0  0  0  0  0  0
    8.0622   -0.8100    0.0000 C   0  0  0  0  0  0  0  0  0  0  0  0
    7.1962   -0.3100    0.0000 C   0  0  0  0  0  0  0  0  0  0  0  0
    6.3301   -0.8100    0.0000 C   0  0  0  0  0  0  0  0  0  0  0  0
    5.4641   -0.3100    0.0000 C   0  0  0  0  0  0  0  0  0  0  0  0
    4.5981   -0.8100    0.0000 C   0  0  0  0  0  0  0  0  0  0  0  0
    2.8660   -0.8100    0.0000 C   0  0  0  0  0  0  0  0  0  0  0  0
    3.7320   -0.3100    0.0000 C   0  0  0  0  0  0  0  0  0  0  0  0
    2.0000   -0.3100    0.0000 C   0  0  0  0  0  0  0  0  0  0  0  0
   12.3923   -0.9300    0.0000 H   0  0  0  0  0  0  0  0  0  0  0  0
   12.3923    1.3100    0.0000 H   0  0  0  0  0  0  0  0  0  0  0  0
   10.6603   -0.9300    0.0000 H   0  0  0  0  0  0  0  0  0  0  0  0
   11.9248    1.6650    0.0000 H   0  0  0  0  0  0  0  0  0  0  0  0
   11.1278    1.6650    0.0000 H   0  0  0  0  0  0  0  0  0  0  0  0
   10.4482    1.2726    0.0000 H   0  0  0  0  0  0  0  0  0  0  0  0
   10.0497    0.5823    0.0000 H   0  0  0  0  0  0  0  0  0  0  0  0
   12.9483   -1.3469    0.0000 H   0  0  0  0  0  0  0  0  0  0  0  0
   13.7953   -1.1200    0.0000 H   0  0  0  0  0  0  0  0  0  0  0  0
   13.5683   -0.2731    0.0000 H   0  0  0  0  0  0  0  0  0  0  0  0
   10.9063   -1.8100    0.0000 H   0  0  0  0  0  0  0  0  0  0  0  0
   11.5263   -2.4300    0.0000 H   0  0  0  0  0  0  0  0  0  0  0  0
   12.1463   -1.8100    0.0000 H   0  0  0  0  0  0  0  0  0  0  0  0
    9.7942   -1.4300    0.0000 H   0  0  0  0  0  0  0  0  0  0  0  0
   13.2583    1.8100    0.0000 H   0  0  0  0  0  0  0  0  0  0  0  0
    8.9282    0.3100    0.0000 H   0  0  0  0  0  0  0  0  0  0  0  0
    8.0622   -1.4300    0.0000 H   0  0  0  0  0  0  0  0  0  0  0  0
    7.1962    0.3100    0.0000 H   0  0  0  0  0  0  0  0  0  0  0  0
    6.3301   -1.4300    0.0000 H   0  0  0  0  0  0  0  0  0  0  0  0
    5.4641    0.3100    0.0000 H   0  0  0  0  0  0  0  0  0  0  0  0
    4.5981   -1.4300    0.0000 H   0  0  0  0  0  0  0  0  0  0  0  0
    2.4675   -1.2850    0.0000 H   0  0  0  0  0  0  0  0  0  0  0  0
    3.2646   -1.2850    0.0000 H   0  0  0  0  0  0  0  0  0  0  0  0
    3.7320    0.3100    0.0000 H   0  0  0  0  0  0  0  0  0  0  0  0
    2.3100    0.2269    0.0000 H   0  0  0  0  0  0  0  0  0  0  0  0
    1.4631    0.0000    0.0000 H   0  0  0  0  0  0  0  0  0  0  0  0
    1.6900   -0.8469    0.0000 H   0  0  0  0  0  0  0  0  0  0  0  0
  4  1  1  6  0  0  0
  1 34  1  0  0  0  0
  2  3  1  0  0  0  0
  2  5  1  0  0  0  0
  2  9  1  0  0  0  0
  3  4  1  0  0  0  0
  3  8  1  6  0  0  0
  3 20  1  0  0  0  0
  4  6  1  0  0  0  0
  4 21  1  0  0  0  0
  5  7  1  0  0  0  0
  5 10  1  6  0  0  0
  5 22  1  0  0  0  0
  6  7  1  0  0  0  0
  6 23  1  0  0  0  0
  6 24  1  0  0  0  0
  7 25  1  0  0  0  0
  7 26  1  0  0  0  0
  8 27  1  0  0  0  0
  8 28  1  0  0  0  0
  8 29  1  0  0  0  0
  9 30  1  0  0  0  0
  9 31  1  0  0  0  0
  9 32  1  0  0  0  0
 10 11  2  0  0  0  0
 10 33  1  0  0  0  0
 11 12  1  0  0  0  0
 11 35  1  0  0  0  0
 12 13  2  0  0  0  0
 12 36  1  0  0  0  0
 13 14  1  0  0  0  0
 13 37  1  0  0  0  0
 14 15  2  0  0  0  0
 14 38  1  0  0  0  0
 15 16  1  0  0  0  0
 15 39  1  0  0  0  0
 16 18  2  0  0  0  0
 16 40  1  0  0  0  0
 17 18  1  0  0  0  0
 17 19  1  0  0  0  0
 17 41  1  0  0  0  0
 17 42  1  0  0  0  0
 18 43  1  0  0  0  0
 19 44  1  0  0  0  0
 19 45  1  0  0  0  0
 19 46  1  0  0  0  0
M  END
> <PUBCHEM_COMPOUND_CID>
5281684

> <PUBCHEM_COMPOUND_CANONICALIZED>
1

> <PUBCHEM_CACTVS_COMPLEXITY>
354

> <PUBCHEM_CACTVS_HBOND_ACCEPTOR>
2

> <PUBCHEM_CACTVS_HBOND_DONOR>
1

> <PUBCHEM_CACTVS_ROTATABLE_BOND>
5

> <PUBCHEM_CACTVS_SUBSKEYS>
AAADceB6IAAAAAAAAAAAAAAAAAAAAAAAAAAsAAAAAAAAAAAAAAAAHgAACAAACDzhgAYCAAMAAgCAACBCAACAAAAgAAAICAAIAAgKEAIAgQAEQAAEgACYgAOwgAAAAAAAAAAAAAAAAAAAAAAAAAAAAAAAAA==

> <PUBCHEM_IUPAC_OPENEYE_NAME>
(2S,3S,6S)-6-[(1E,3E,5E,7E)-deca-1,3,5,7-tetraenyl]-1,2-dimethyl-piperidin-3-ol

> <PUBCHEM_IUPAC_CAS_NAME>
(2S,3S,6S)-6-[(1E,3E,5E,7E)-deca-1,3,5,7-tetraenyl]-1,2-dimethyl-3-piperidinol

> <PUBCHEM_IUPAC_NAME>
(2S,3S,6S)-6-[(1E,3E,5E,7E)-deca-1,3,5,7-tetraenyl]-1,2-dimethylpiperidin-3-ol

> <PUBCHEM_IUPAC_SYSTEMATIC_NAME>
(2S,3S,6S)-6-[(1E,3E,5E,7E)-deca-1,3,5,7-tetraenyl]-1,2-dimethyl-piperidin-3-ol

> <PUBCHEM_IUPAC_TRADITIONAL_NAME>
(2S,3S,6S)-6-[(1E,3E,5E,7E)-deca-1,3,5,7-tetraenyl]-1,2-dimethyl-piperidin-3-ol

> <PUBCHEM_IUPAC_INCHI>
InChI=1S/C17H27NO/c1-4-5-6-7-8-9-10-11-12-16-13-14-17(19)15(2)18(16)3/h5-12,15-17,19H,4,13-14H2,1-3H3/b6-5+,8-7+,10-9+,12-11+/t15-,16+,17-/m0/s1

> <PUBCHEM_IUPAC_INCHIKEY>
UIYRNLNPZZABGX-JSWQWYJJSA-N

> <PUBCHEM_XLOGP3_AA>
3.8

> <PUBCHEM_EXACT_MASS>
261.209264

> <PUBCHEM_MOLECULAR_FORMULA>
C17H27NO

> <PUBCHEM_MOLECULAR_WEIGHT>
261.40238

> <PUBCHEM_OPENEYE_CAN_SMILES>
CCC=CC=CC=CC=CC1CCC(C(N1C)C)O

> <PUBCHEM_OPENEYE_ISO_SMILES>
CC/C=C/C=C/C=C/C=C/[C@@H]1CC[C@@H]([C@@H](N1C)C)O

> <PUBCHEM_CACTVS_TPSA>
23.5

> <PUBCHEM_MONOISOTOPIC_WEIGHT>
261.209264

> <PUBCHEM_TOTAL_CHARGE>
0

> <PUBCHEM_HEAVY_ATOM_COUNT>
19

> <PUBCHEM_ATOM_DEF_STEREO_COUNT>
3

> <PUBCHEM_ATOM_UDEF_STEREO_COUNT>
0

> <PUBCHEM_BOND_DEF_STEREO_COUNT>
4

> <PUBCHEM_BOND_UDEF_STEREO_COUNT>
0

> <PUBCHEM_ISOTOPIC_ATOM_COUNT>
0

> <PUBCHEM_COMPONENT_COUNT>
1

> <PUBCHEM_CACTVS_TAUTO_COUNT>
1

> <PUBCHEM_COORDINATE_TYPE>
1
5
255

> <PUBCHEM_BONDANNOTATIONS>
4  1  6
3  8  6
5  10  6

$$$$

