260437
  -OEChem-07051213003D

 70 74  0     1  0  0  0  0  0999 V2000
   -4.6080   -2.0915    0.8869 O   0  0  0  0  0  0  0  0  0  0  0  0
    6.5512    0.5079   -0.1748 N   0  0  0  0  0  0  0  0  0  0  0  0
   -6.0791    0.4808    0.0029 N   0  0  0  0  0  0  0  0  0  0  0  0
    0.6877    0.3816   -0.0531 C   0  0  1  0  0  0  0  0  0  0  0  0
    2.2333    0.3745    0.0571 C   0  0  2  0  0  0  0  0  0  0  0  0
    1.5706    0.7699   -1.2336 C   0  0  0  0  0  0  0  0  0  0  0  0
   -0.0525   -0.9715   -0.2220 C   0  0  2  0  0  0  0  0  0  0  0  0
   -1.4935   -0.9345    0.3503 C   0  0  1  0  0  0  0  0  0  0  0  0
    2.9831   -0.9601    0.1632 C   0  0  1  0  0  0  0  0  0  0  0  0
   -0.0568    1.5232    0.6535 C   0  0  0  0  0  0  0  0  0  0  0  0
   -2.2109    0.3621   -0.1522 C   0  0  2  0  0  0  0  0  0  0  0  0
    2.9798    1.4817    0.7900 C   0  0  0  0  0  0  0  0  0  0  0  0
    0.7829   -2.1570    0.2847 C   0  0  0  0  0  0  0  0  0  0  0  0
   -1.5920    1.5688    0.5528 C   0  0  0  0  0  0  0  0  0  0  0  0
    2.1669   -2.1526   -0.3575 C   0  0  0  0  0  0  0  0  0  0  0  0
   -3.6859    0.0660    0.2290 C   0  0  2  0  0  0  0  0  0  0  0  0
   -2.4347   -2.0359   -0.1936 C   0  0  0  0  0  0  0  0  0  0  0  0
   -3.8531   -1.4320   -0.1204 C   0  0  1  0  0  0  0  0  0  0  0  0
    4.4098   -0.8255   -0.3769 C   0  0  0  0  0  0  0  0  0  0  0  0
   -1.4626   -1.0914    1.9026 C   0  0  0  0  0  0  0  0  0  0  0  0
    4.4094    1.6171    0.2500 C   0  0  0  0  0  0  0  0  0  0  0  0
   -2.1099    0.6035   -1.6885 C   0  0  0  0  0  0  0  0  0  0  0  0
    5.1892    0.2900    0.3202 C   0  0  2  0  0  0  0  0  0  0  0  0
   -4.7569    0.9364   -0.4230 C   0  0  2  0  0  0  0  0  0  0  0  0
    4.9190   -1.5954   -1.3541 C   0  0  0  0  0  0  0  0  0  0  0  0
   -4.5625    2.4061   -0.0625 C   0  0  0  0  0  0  0  0  0  0  0  0
    7.1989    1.5794    0.5633 C   0  0  0  0  0  0  0  0  0  0  0  0
   -7.1235    1.2985   -0.5944 C   0  0  0  0  0  0  0  0  0  0  0  0
    1.5968    1.8118   -1.5362 H   0  0  0  0  0  0  0  0  0  0  0  0
    1.6485    0.1010   -2.0832 H   0  0  0  0  0  0  0  0  0  0  0  0
   -0.1507   -1.1377   -1.3043 H   0  0  0  0  0  0  0  0  0  0  0  0
    3.1006   -1.1513    1.2419 H   0  0  0  0  0  0  0  0  0  0  0  0
    0.3168    2.4914    0.2970 H   0  0  0  0  0  0  0  0  0  0  0  0
    0.2149    1.4885    1.7163 H   0  0  0  0  0  0  0  0  0  0  0  0
    3.0034    1.2510    1.8621 H   0  0  0  0  0  0  0  0  0  0  0  0
    2.4837    2.4519    0.6846 H   0  0  0  0  0  0  0  0  0  0  0  0
    0.2766   -3.0979    0.0398 H   0  0  0  0  0  0  0  0  0  0  0  0
    0.9048   -2.1261    1.3730 H   0  0  0  0  0  0  0  0  0  0  0  0
   -1.9996    1.6802    1.5657 H   0  0  0  0  0  0  0  0  0  0  0  0
   -1.8369    2.5038    0.0424 H   0  0  0  0  0  0  0  0  0  0  0  0
    2.6784   -3.0890   -0.1017 H   0  0  0  0  0  0  0  0  0  0  0  0
    2.0655   -2.1302   -1.4490 H   0  0  0  0  0  0  0  0  0  0  0  0
   -3.8100    0.1904    1.3139 H   0  0  0  0  0  0  0  0  0  0  0  0
   -2.3512   -2.9771    0.3608 H   0  0  0  0  0  0  0  0  0  0  0  0
   -2.1927   -2.2584   -1.2399 H   0  0  0  0  0  0  0  0  0  0  0  0
   -4.3600   -1.5906   -1.0789 H   0  0  0  0  0  0  0  0  0  0  0  0
   -1.1736   -2.1102    2.1863 H   0  0  0  0  0  0  0  0  0  0  0  0
   -0.7487   -0.4161    2.3802 H   0  0  0  0  0  0  0  0  0  0  0  0
   -2.4321   -0.9195    2.3759 H   0  0  0  0  0  0  0  0  0  0  0  0
    4.3699    1.9761   -0.7876 H   0  0  0  0  0  0  0  0  0  0  0  0
    4.8765    2.4051    0.8498 H   0  0  0  0  0  0  0  0  0  0  0  0
   -2.6314    1.5143   -1.9972 H   0  0  0  0  0  0  0  0  0  0  0  0
   -1.0816    0.7406   -2.0294 H   0  0  0  0  0  0  0  0  0  0  0  0
   -2.5325   -0.2225   -2.2688 H   0  0  0  0  0  0  0  0  0  0  0  0
    5.2673   -0.0125    1.3745 H   0  0  0  0  0  0  0  0  0  0  0  0
   -4.7095    0.8328   -1.5139 H   0  0  0  0  0  0  0  0  0  0  0  0
    5.9347   -1.4770   -1.7142 H   0  0  0  0  0  0  0  0  0  0  0  0
    4.3420   -2.3776   -1.8333 H   0  0  0  0  0  0  0  0  0  0  0  0
   -5.4233   -1.5882    1.0422 H   0  0  0  0  0  0  0  0  0  0  0  0
    6.5270    0.7621   -1.1624 H   0  0  0  0  0  0  0  0  0  0  0  0
   -5.3745    3.0515   -0.4097 H   0  0  0  0  0  0  0  0  0  0  0  0
   -4.4656    2.5528    1.0188 H   0  0  0  0  0  0  0  0  0  0  0  0
   -3.6913    2.8320   -0.5580 H   0  0  0  0  0  0  0  0  0  0  0  0
   -6.2193   -0.4757   -0.3205 H   0  0  0  0  0  0  0  0  0  0  0  0
    6.8828    2.5739    0.2334 H   0  0  0  0  0  0  0  0  0  0  0  0
    8.2763    1.5259    0.3722 H   0  0  0  0  0  0  0  0  0  0  0  0
    7.0690    1.4842    1.6468 H   0  0  0  0  0  0  0  0  0  0  0  0
   -7.2611    2.2466   -0.0666 H   0  0  0  0  0  0  0  0  0  0  0  0
   -8.0782    0.7685   -0.4993 H   0  0  0  0  0  0  0  0  0  0  0  0
   -6.9655    1.4789   -1.6631 H   0  0  0  0  0  0  0  0  0  0  0  0
  1 18  1  0  0  0  0
  1 59  1  0  0  0  0
  2 23  1  0  0  0  0
  2 27  1  0  0  0  0
  2 60  1  0  0  0  0
  3 24  1  0  0  0  0
  3 28  1  0  0  0  0
  3 64  1  0  0  0  0
  4  5  1  0  0  0  0
  4  6  1  0  0  0  0
  4  7  1  0  0  0  0
  4 10  1  0  0  0  0
  5  6  1  0  0  0  0
  5  9  1  0  0  0  0
  5 12  1  0  0  0  0
  6 29  1  0  0  0  0
  6 30  1  0  0  0  0
  7  8  1  0  0  0  0
  7 13  1  0  0  0  0
  7 31  1  0  0  0  0
  8 11  1  0  0  0  0
  8 17  1  0  0  0  0
  8 20  1  0  0  0  0
  9 15  1  0  0  0  0
  9 19  1  0  0  0  0
  9 32  1  0  0  0  0
 10 14  1  0  0  0  0
 10 33  1  0  0  0  0
 10 34  1  0  0  0  0
 11 14  1  0  0  0  0
 11 16  1  0  0  0  0
 11 22  1  0  0  0  0
 12 21  1  0  0  0  0
 12 35  1  0  0  0  0
 12 36  1  0  0  0  0
 13 15  1  0  0  0  0
 13 37  1  0  0  0  0
 13 38  1  0  0  0  0
 14 39  1  0  0  0  0
 14 40  1  0  0  0  0
 15 41  1  0  0  0  0
 15 42  1  0  0  0  0
 16 18  1  0  0  0  0
 16 24  1  0  0  0  0
 16 43  1  0  0  0  0
 17 18  1  0  0  0  0
 17 44  1  0  0  0  0
 17 45  1  0  0  0  0
 18 46  1  0  0  0  0
 19 23  1  0  0  0  0
 19 25  2  0  0  0  0
 20 47  1  0  0  0  0
 20 48  1  0  0  0  0
 20 49  1  0  0  0  0
 21 23  1  0  0  0  0
 21 50  1  0  0  0  0
 21 51  1  0  0  0  0
 22 52  1  0  0  0  0
 22 53  1  0  0  0  0
 22 54  1  0  0  0  0
 23 55  1  0  0  0  0
 24 26  1  0  0  0  0
 24 56  1  0  0  0  0
 25 57  1  0  0  0  0
 25 58  1  0  0  0  0
 26 61  1  0  0  0  0
 26 62  1  0  0  0  0
 26 63  1  0  0  0  0
 27 65  1  0  0  0  0
 27 66  1  0  0  0  0
 27 67  1  0  0  0  0
 28 68  1  0  0  0  0
 28 69  1  0  0  0  0
 28 70  1  0  0  0  0
M  END
> <PUBCHEM_COMPOUND_CID>
260437

> <PUBCHEM_CONFORMER_RMSD>
0.8

> <PUBCHEM_CONFORMER_DIVERSEORDER>
1
2

> <PUBCHEM_MMFF94_PARTIAL_CHARGES>
24
1 -0.68
10 0.09
12 0.09
18 0.28
19 -0.28
2 -0.9
23 0.41
24 0.27
25 -0.3
27 0.27
28 0.27
29 0.1
3 -0.9
30 0.1
4 -0.19
5 -0.19
57 0.15
58 0.15
59 0.4
6 -0.2
60 0.36
64 0.36
7 0.09
9 0.23

> <PUBCHEM_EFFECTIVE_ROTOR_COUNT>
5.2

> <PUBCHEM_PHARMACOPHORE_FEATURES>
10
1 1 acceptor
1 1 donor
1 2 cation
1 2 donor
1 3 cation
1 3 donor
5 8 11 16 17 18 rings
6 4 7 8 10 11 14 rings
6 5 9 12 19 21 23 rings
7 4 5 6 7 9 13 15 rings

> <PUBCHEM_HEAVY_ATOM_COUNT>
28

> <PUBCHEM_ATOM_DEF_STEREO_COUNT>
10

> <PUBCHEM_ATOM_UDEF_STEREO_COUNT>
0

> <PUBCHEM_BOND_DEF_STEREO_COUNT>
0

> <PUBCHEM_BOND_UDEF_STEREO_COUNT>
0

> <PUBCHEM_ISOTOPIC_ATOM_COUNT>
0

> <PUBCHEM_COMPONENT_COUNT>
1

> <PUBCHEM_CACTVS_TAUTO_COUNT>
1

> <PUBCHEM_CONFORMER_ID>
0003F95500000001

> <PUBCHEM_MMFF94_ENERGY>
111.8689

> <PUBCHEM_FEATURE_SELFOVERLAP>
50.849

> <PUBCHEM_SHAPE_FINGERPRINT>
10 15 18131069325083812040
10366900 7 4751156315569086150
10411042 1 17691124838624218651
10835480 77 18335704931492384200
10863032 1 18410011061574644515
10906281 52 18059276730443423852
11315181 36 18336260168116961376
11578080 2 17344648146995126431
12011746 2 18409162242734648350
12236239 1 17240483641274431221
12403259 415 18188777141438693976
12633257 1 16773795870476903180
12788726 201 17386286622786182361
12838862 33 18337973236733402216
13224815 77 18410571782339838450
13402501 40 18411138026490977768
13533116 47 17241045508986128766
13583140 156 17894916187272638343
15183329 4 18334294300875368913
15196674 1 18410292506064688346
15788980 27 17894914022651403839
17349148 13 18060698368881705538
17980427 23 17846215506101377982
18608769 82 18340765949814467667
200 152 17749109993226110163
20511986 3 18200888347601448522
21033648 144 18342465880610935503
21033648 29 18263938661165444224
21150785 3 16660368069022772781
21267235 1 18409438185783276355
21279426 13 18336542824014272222
221357 26 18113898308006672484
22393880 68 18409448089661505886
23402539 116 18410579452660688893
23559900 14 18335707113272369840
23569914 152 16742262160508064148
3004659 81 18412543249701215838
335352 9 18409166645308397982
34797466 226 17822288011425117334
34934 24 18410016550089414967
350125 39 18412262826458944164
3545911 37 18412544331969709957
3633792 109 18261957474583095757
4073 2 18201433654066789994
4093350 32 17313100890978528462
4340502 62 17346594218732068059
5104073 3 18343017821793297387
5283173 99 18410294752264337329
9709674 26 18339919325133164098

> <PUBCHEM_SHAPE_MULTIPOLES>
560.4
15.05
2.37
1.1
3.06
0.42
0.02
-6.12
1.07
-0.39
-0.18
-0.08
0.12
1.43

> <PUBCHEM_SHAPE_SELFOVERLAP>
1191.215

> <PUBCHEM_SHAPE_VOLUME>
312.8

> <PUBCHEM_COORDINATE_TYPE>
2
5
10

$$$$

