5281419
  -OEChem-07051212572D

 56 58  0     0  0  0  0  0  0999 V2000
    8.0901    1.0519    0.0000 O   0  0  0  0  0  0  0  0  0  0  0  0
    6.3301   -1.9828    0.0000 O   0  0  0  0  0  0  0  0  0  0  0  0
    4.5981    1.0172    0.0000 O   0  0  0  0  0  0  0  0  0  0  0  0
    4.5981   -1.9828    0.0000 O   0  0  0  0  0  0  0  0  0  0  0  0
    9.8602    1.0414    0.0000 O   0  0  0  0  0  0  0  0  0  0  0  0
    5.4641   -0.4828    0.0000 C   0  0  0  0  0  0  0  0  0  0  0  0
    7.1962   -0.4828    0.0000 C   0  0  0  0  0  0  0  0  0  0  0  0
    2.8660   -0.9828    0.0000 C   0  0  0  0  0  0  0  0  0  0  0  0
    6.3301    1.0172    0.0000 C   0  0  0  0  0  0  0  0  0  0  0  0
    3.7320   -0.4828    0.0000 C   0  0  0  0  0  0  0  0  0  0  0  0
    7.1962    0.5172    0.0000 C   0  0  0  0  0  0  0  0  0  0  0  0
    6.3301   -0.9828    0.0000 C   0  0  0  0  0  0  0  0  0  0  0  0
    5.4641    0.5172    0.0000 C   0  0  0  0  0  0  0  0  0  0  0  0
    4.5981   -0.9828    0.0000 C   0  0  0  0  0  0  0  0  0  0  0  0
    8.0901   -1.0174    0.0000 C   0  0  0  0  0  0  0  0  0  0  0  0
    6.3301    2.0172    0.0000 C   0  0  0  0  0  0  0  0  0  0  0  0
    2.0000   -0.4828    0.0000 C   0  0  0  0  0  0  0  0  0  0  0  0
    2.8660   -1.9828    0.0000 C   0  0  0  0  0  0  0  0  0  0  0  0
    8.0785   -2.0174    0.0000 C   0  0  0  0  0  0  0  0  0  0  0  0
    8.9962   -0.5036    0.0000 C   0  0  0  0  0  0  0  0  0  0  0  0
    5.4641    2.5172    0.0000 C   0  0  0  0  0  0  0  0  0  0  0  0
    8.9962    0.5380    0.0000 C   0  0  0  0  0  0  0  0  0  0  0  0
    5.4641    3.5172    0.0000 C   0  0  0  0  0  0  0  0  0  0  0  0
    7.2068   -2.5073    0.0000 C   0  0  0  0  0  0  0  0  0  0  0  0
    8.9387   -2.5273    0.0000 C   0  0  0  0  0  0  0  0  0  0  0  0
    7.1952   -3.5072    0.0000 C   0  0  0  0  0  0  0  0  0  0  0  0
    8.9271   -3.5273    0.0000 C   0  0  0  0  0  0  0  0  0  0  0  0
    4.5981    4.0172    0.0000 C   0  0  0  0  0  0  0  0  0  0  0  0
    6.3301    4.0172    0.0000 C   0  0  0  0  0  0  0  0  0  0  0  0
    8.0554   -4.0172    0.0000 C   0  0  0  0  0  0  0  0  0  0  0  0
    2.8660   -0.3628    0.0000 H   0  0  0  0  0  0  0  0  0  0  0  0
    4.1306   -0.0078    0.0000 H   0  0  0  0  0  0  0  0  0  0  0  0
    3.3335   -0.0078    0.0000 H   0  0  0  0  0  0  0  0  0  0  0  0
    6.9407    1.9096    0.0000 H   0  0  0  0  0  0  0  0  0  0  0  0
    6.5422    2.5998    0.0000 H   0  0  0  0  0  0  0  0  0  0  0  0
    2.3100    0.0542    0.0000 H   0  0  0  0  0  0  0  0  0  0  0  0
    1.4631   -0.1728    0.0000 H   0  0  0  0  0  0  0  0  0  0  0  0
    1.6900   -1.0197    0.0000 H   0  0  0  0  0  0  0  0  0  0  0  0
    2.2460   -1.9828    0.0000 H   0  0  0  0  0  0  0  0  0  0  0  0
    2.8660   -2.6028    0.0000 H   0  0  0  0  0  0  0  0  0  0  0  0
    3.4860   -1.9828    0.0000 H   0  0  0  0  0  0  0  0  0  0  0  0
    9.5319   -0.8157    0.0000 H   0  0  0  0  0  0  0  0  0  0  0  0
    4.9272    2.2072    0.0000 H   0  0  0  0  0  0  0  0  0  0  0  0
    5.7932   -2.2928    0.0000 H   0  0  0  0  0  0  0  0  0  0  0  0
    4.5981    1.6372    0.0000 H   0  0  0  0  0  0  0  0  0  0  0  0
    6.6735   -2.1911    0.0000 H   0  0  0  0  0  0  0  0  0  0  0  0
    9.4792   -2.2236    0.0000 H   0  0  0  0  0  0  0  0  0  0  0  0
    6.6547   -3.8110    0.0000 H   0  0  0  0  0  0  0  0  0  0  0  0
    9.4605   -3.8435    0.0000 H   0  0  0  0  0  0  0  0  0  0  0  0
    4.9081    4.5542    0.0000 H   0  0  0  0  0  0  0  0  0  0  0  0
    4.0611    4.3272    0.0000 H   0  0  0  0  0  0  0  0  0  0  0  0
    4.2881    3.4803    0.0000 H   0  0  0  0  0  0  0  0  0  0  0  0
    6.6401    3.4803    0.0000 H   0  0  0  0  0  0  0  0  0  0  0  0
    6.8671    4.3272    0.0000 H   0  0  0  0  0  0  0  0  0  0  0  0
    6.0201    4.5542    0.0000 H   0  0  0  0  0  0  0  0  0  0  0  0
    8.0482   -4.6372    0.0000 H   0  0  0  0  0  0  0  0  0  0  0  0
  1 11  1  0  0  0  0
  1 22  1  0  0  0  0
  2 12  1  0  0  0  0
  2 44  1  0  0  0  0
  3 13  1  0  0  0  0
  3 45  1  0  0  0  0
  4 14  2  0  0  0  0
  5 22  2  0  0  0  0
  6 12  2  0  0  0  0
  6 13  1  0  0  0  0
  6 14  1  0  0  0  0
  7 11  2  0  0  0  0
  7 12  1  0  0  0  0
  7 15  1  0  0  0  0
  8 10  1  0  0  0  0
  8 17  1  0  0  0  0
  8 18  1  0  0  0  0
  8 31  1  0  0  0  0
  9 11  1  0  0  0  0
  9 13  2  0  0  0  0
  9 16  1  0  0  0  0
 10 14  1  0  0  0  0
 10 32  1  0  0  0  0
 10 33  1  0  0  0  0
 15 19  1  0  0  0  0
 15 20  2  0  0  0  0
 16 21  1  0  0  0  0
 16 34  1  0  0  0  0
 16 35  1  0  0  0  0
 17 36  1  0  0  0  0
 17 37  1  0  0  0  0
 17 38  1  0  0  0  0
 18 39  1  0  0  0  0
 18 40  1  0  0  0  0
 18 41  1  0  0  0  0
 19 24  2  0  0  0  0
 19 25  1  0  0  0  0
 20 22  1  0  0  0  0
 20 42  1  0  0  0  0
 21 23  2  0  0  0  0
 21 43  1  0  0  0  0
 23 28  1  0  0  0  0
 23 29  1  0  0  0  0
 24 26  1  0  0  0  0
 24 46  1  0  0  0  0
 25 27  2  0  0  0  0
 25 47  1  0  0  0  0
 26 30  2  0  0  0  0
 26 48  1  0  0  0  0
 27 30  1  0  0  0  0
 27 49  1  0  0  0  0
 28 50  1  0  0  0  0
 28 51  1  0  0  0  0
 28 52  1  0  0  0  0
 29 53  1  0  0  0  0
 29 54  1  0  0  0  0
 29 55  1  0  0  0  0
 30 56  1  0  0  0  0
M  END
> <PUBCHEM_COMPOUND_CID>
5281419

> <PUBCHEM_COMPOUND_CANONICALIZED>
1

> <PUBCHEM_CACTVS_COMPLEXITY>
696

> <PUBCHEM_CACTVS_HBOND_ACCEPTOR>
5

> <PUBCHEM_CACTVS_HBOND_DONOR>
2

> <PUBCHEM_CACTVS_ROTATABLE_BOND>
6

> <PUBCHEM_CACTVS_SUBSKEYS>
AAADceB4OAAAAAAAAAAAAAAAAAAAAAAAAAAwYIAAAAAAAACBQAAAGgAACAAADQSAmAAyDoAABgCIAqDSCAACCAAkIAAIiAEECMgMJzaGNRqCe2Cl4BUIuQeI7PzOIAACCAAIAABAAAQQABAAAAAAAAAAAA==

> <PUBCHEM_IUPAC_OPENEYE_NAME>
5,7-dihydroxy-6-(3-methylbutanoyl)-8-(3-methylbut-2-enyl)-4-phenyl-chromen-2-one

> <PUBCHEM_IUPAC_CAS_NAME>
5,7-dihydroxy-8-(3-methylbut-2-enyl)-6-(3-methyl-1-oxobutyl)-4-phenyl-1-benzopyran-2-one

> <PUBCHEM_IUPAC_NAME>
5,7-dihydroxy-6-(3-methylbutanoyl)-8-(3-methylbut-2-enyl)-4-phenylchromen-2-one

> <PUBCHEM_IUPAC_SYSTEMATIC_NAME>
6-(3-methylbutanoyl)-8-(3-methylbut-2-enyl)-5,7-bis(oxidanyl)-4-phenyl-chromen-2-one

> <PUBCHEM_IUPAC_TRADITIONAL_NAME>
5,7-dihydroxy-6-isovaleryl-8-(3-methylbut-2-enyl)-4-phenyl-coumarin

> <PUBCHEM_IUPAC_INCHI>
InChI=1S/C25H26O5/c1-14(2)10-11-17-23(28)22(19(26)12-15(3)4)24(29)21-18(13-20(27)30-25(17)21)16-8-6-5-7-9-16/h5-10,13,15,28-29H,11-12H2,1-4H3

> <PUBCHEM_IUPAC_INCHIKEY>
JIFOADIANOIMSK-UHFFFAOYSA-N

> <PUBCHEM_XLOGP3_AA>
5.8

> <PUBCHEM_EXACT_MASS>
406.178024

> <PUBCHEM_MOLECULAR_FORMULA>
C25H26O5

> <PUBCHEM_MOLECULAR_WEIGHT>
406.47094

> <PUBCHEM_OPENEYE_CAN_SMILES>
CC(C)CC(=O)C1=C(C2=C(C(=C1O)CC=C(C)C)OC(=O)C=C2C3=CC=CC=C3)O

> <PUBCHEM_OPENEYE_ISO_SMILES>
CC(C)CC(=O)C1=C(C2=C(C(=C1O)CC=C(C)C)OC(=O)C=C2C3=CC=CC=C3)O

> <PUBCHEM_CACTVS_TPSA>
83.8

> <PUBCHEM_MONOISOTOPIC_WEIGHT>
406.178024

> <PUBCHEM_TOTAL_CHARGE>
0

> <PUBCHEM_HEAVY_ATOM_COUNT>
30

> <PUBCHEM_ATOM_DEF_STEREO_COUNT>
0

> <PUBCHEM_ATOM_UDEF_STEREO_COUNT>
0

> <PUBCHEM_BOND_DEF_STEREO_COUNT>
0

> <PUBCHEM_BOND_UDEF_STEREO_COUNT>
0

> <PUBCHEM_ISOTOPIC_ATOM_COUNT>
0

> <PUBCHEM_COMPONENT_COUNT>
1

> <PUBCHEM_CACTVS_TAUTO_COUNT>
36

> <PUBCHEM_COORDINATE_TYPE>
1
5
255

> <PUBCHEM_BONDANNOTATIONS>
1  11  8
1  22  8
15  20  8
19  24  8
19  25  8
20  22  8
24  26  8
25  27  8
26  30  8
27  30  8
6  12  8
6  13  8
7  11  8
7  12  8
7  15  8
9  11  8
9  13  8

$$$$

