10727
  -OEChem-06261204533D

 25 25  0     0  0  0  0  0  0999 V2000
    1.4806   -2.0875    0.1927 O   0  0  0  0  0  0  0  0  0  0  0  0
    0.9490    0.2116    0.2261 N   0  0  0  0  0  0  0  0  0  0  0  0
    1.5348    1.5877    0.2598 C   0  0  0  0  0  0  0  0  0  0  0  0
   -0.4357    0.0818    0.1150 C   0  0  0  0  0  0  0  0  0  0  0  0
    1.8483   -0.9103    0.2195 C   0  0  0  0  0  0  0  0  0  0  0  0
    1.7735    2.1235   -1.1368 C   0  0  0  0  0  0  0  0  0  0  0  0
   -0.9813   -0.9833   -0.6018 C   0  0  0  0  0  0  0  0  0  0  0  0
   -1.2745    1.0165    0.7217 C   0  0  0  0  0  0  0  0  0  0  0  0
   -2.3657   -1.1135   -0.7118 C   0  0  0  0  0  0  0  0  0  0  0  0
   -2.6589    0.8863    0.6117 C   0  0  0  0  0  0  0  0  0  0  0  0
    3.3343   -0.6340    0.2090 C   0  0  0  0  0  0  0  0  0  0  0  0
   -3.2045   -0.1787   -0.1051 C   0  0  0  0  0  0  0  0  0  0  0  0
    0.9184    2.2877    0.8248 H   0  0  0  0  0  0  0  0  0  0  0  0
    2.4836    1.5691    0.8025 H   0  0  0  0  0  0  0  0  0  0  0  0
    2.3916    1.4545   -1.7412 H   0  0  0  0  0  0  0  0  0  0  0  0
    0.8249    2.2564   -1.6680 H   0  0  0  0  0  0  0  0  0  0  0  0
    2.2705    3.0975   -1.0902 H   0  0  0  0  0  0  0  0  0  0  0  0
   -0.3725   -1.7035   -1.1383 H   0  0  0  0  0  0  0  0  0  0  0  0
   -0.9127    1.8363    1.3314 H   0  0  0  0  0  0  0  0  0  0  0  0
   -2.7911   -1.9355   -1.2802 H   0  0  0  0  0  0  0  0  0  0  0  0
   -3.3131    1.6078    1.0925 H   0  0  0  0  0  0  0  0  0  0  0  0
    3.6441   -0.2091    1.1671 H   0  0  0  0  0  0  0  0  0  0  0  0
    3.6181    0.0204   -0.6151 H   0  0  0  0  0  0  0  0  0  0  0  0
    3.8721   -1.5788    0.0764 H   0  0  0  0  0  0  0  0  0  0  0  0
   -4.2824   -0.2798   -0.1912 H   0  0  0  0  0  0  0  0  0  0  0  0
  1  5  2  0  0  0  0
  2  3  1  0  0  0  0
  2  4  1  0  0  0  0
  2  5  1  0  0  0  0
  3  6  1  0  0  0  0
  3 13  1  0  0  0  0
  3 14  1  0  0  0  0
  4  7  2  0  0  0  0
  4  8  1  0  0  0  0
  5 11  1  0  0  0  0
  6 15  1  0  0  0  0
  6 16  1  0  0  0  0
  6 17  1  0  0  0  0
  7  9  1  0  0  0  0
  7 18  1  0  0  0  0
  8 10  2  0  0  0  0
  8 19  1  0  0  0  0
  9 12  2  0  0  0  0
  9 20  1  0  0  0  0
 10 12  1  0  0  0  0
 10 21  1  0  0  0  0
 11 22  1  0  0  0  0
 11 23  1  0  0  0  0
 11 24  1  0  0  0  0
 12 25  1  0  0  0  0
M  END
> <PUBCHEM_COMPOUND_CID>
10727

> <PUBCHEM_CONFORMER_RMSD>
0.6

> <PUBCHEM_CONFORMER_DIVERSEORDER>
2
12
9
8
4
6
7
10
11
1
3
5

> <PUBCHEM_MMFF94_PARTIAL_CHARGES>
16
1 -0.57
10 -0.15
11 0.06
12 -0.15
18 0.15
19 0.15
2 -0.48
20 0.15
21 0.15
25 0.15
3 0.3
4 0.12
5 0.57
7 -0.15
8 -0.15
9 -0.15

> <PUBCHEM_EFFECTIVE_ROTOR_COUNT>
3

> <PUBCHEM_PHARMACOPHORE_FEATURES>
2
1 1 acceptor
6 4 7 8 9 10 12 rings

> <PUBCHEM_HEAVY_ATOM_COUNT>
12

> <PUBCHEM_ATOM_DEF_STEREO_COUNT>
0

> <PUBCHEM_ATOM_UDEF_STEREO_COUNT>
0

> <PUBCHEM_BOND_DEF_STEREO_COUNT>
0

> <PUBCHEM_BOND_UDEF_STEREO_COUNT>
0

> <PUBCHEM_ISOTOPIC_ATOM_COUNT>
0

> <PUBCHEM_COMPONENT_COUNT>
1

> <PUBCHEM_CACTVS_TAUTO_COUNT>
1

> <PUBCHEM_CONFORMER_ID>
000029E700000002

> <PUBCHEM_MMFF94_ENERGY>
45.2993

> <PUBCHEM_FEATURE_SELFOVERLAP>
10.148

> <PUBCHEM_SHAPE_FINGERPRINT>
10465860 71 18116692154157147254
12326174 3 17703803491607154824
12423570 1 18118673551119273065
12696612 119 18410570716723588966
12932764 1 16487265348071048353
14128692 85 18260832596234521114
14144814 61 18335142041573182843
14993402 34 18335983180768820406
15775835 57 18262227820571652649
16945 1 18411135870111316595
20559304 39 18333730208518786057
20645464 45 15285359518067607471
20653085 51 17988936586806600429
207724 885 18338233898329913763
22445834 79 18336266837794905619
23463225 33 18335138730206105983
23552423 10 18410578357686783751
2748010 2 18123186801395830098
369184 2 4895262686235234499
5084963 1 18409453595962066465
7364860 26 18114464470400472024
8030462 33 18261674753590862333

> <PUBCHEM_SHAPE_MULTIPOLES>
236.1
4.78
1.95
0.89
0.47
0.24
0.13
-0.44
-0.03
-1.11
0.27
0.03
0.23
-0.87

> <PUBCHEM_SHAPE_SELFOVERLAP>
478.659

> <PUBCHEM_SHAPE_VOLUME>
138.5

> <PUBCHEM_COORDINATE_TYPE>
2
5
10

$$$$

