4474
  -OEChem-07051212532D

 64 66  0     1  0  0  0  0  0999 V2000
    8.0622   -1.1900    0.0000 O   0  0  0  0  0  0  0  0  0  0  0  0
   13.2583   -1.1900    0.0000 O   0  0  0  0  0  0  0  0  0  0  0  0
    8.9282    0.3100    0.0000 O   0  0  0  0  0  0  0  0  0  0  0  0
   12.3923    0.3100    0.0000 O   0  0  0  0  0  0  0  0  0  0  0  0
   12.3923    3.3100    0.0000 O   0  5  0  0  0  0  0  0  0  0  0  0
   13.2583    1.8100    0.0000 O   0  0  0  0  0  0  0  0  0  0  0  0
   10.6603   -2.6900    0.0000 N   0  0  0  0  0  0  0  0  0  0  0  0
    5.4641   -0.6900    0.0000 N   0  0  3  0  0  0  0  0  0  0  0  0
   12.3923    2.3100    0.0000 N   0  3  0  0  0  0  0  0  0  0  0  0
   10.6603   -0.6900    0.0000 C   0  0  3  0  0  0  0  0  0  0  0  0
    9.7942   -1.1900    0.0000 C   0  0  0  0  0  0  0  0  0  0  0  0
   11.5263   -1.1900    0.0000 C   0  0  0  0  0  0  0  0  0  0  0  0
   10.6603    0.3100    0.0000 C   0  0  0  0  0  0  0  0  0  0  0  0
    9.7942   -2.1900    0.0000 C   0  0  0  0  0  0  0  0  0  0  0  0
   11.5263   -2.1900    0.0000 C   0  0  0  0  0  0  0  0  0  0  0  0
    8.9282   -0.6900    0.0000 C   0  0  0  0  0  0  0  0  0  0  0  0
   11.5263    0.8100    0.0000 C   0  0  0  0  0  0  0  0  0  0  0  0
    9.7942    0.8100    0.0000 C   0  0  0  0  0  0  0  0  0  0  0  0
    8.9282   -2.6900    0.0000 C   0  0  0  0  0  0  0  0  0  0  0  0
   12.3923   -0.6900    0.0000 C   0  0  0  0  0  0  0  0  0  0  0  0
   12.3923   -2.6900    0.0000 C   0  0  0  0  0  0  0  0  0  0  0  0
    6.3301   -1.1900    0.0000 C   0  0  0  0  0  0  0  0  0  0  0  0
    7.1962   -0.6900    0.0000 C   0  0  0  0  0  0  0  0  0  0  0  0
   11.5263    1.8100    0.0000 C   0  0  0  0  0  0  0  0  0  0  0  0
    9.7942    1.8100    0.0000 C   0  0  0  0  0  0  0  0  0  0  0  0
    4.5981   -1.1900    0.0000 C   0  0  0  0  0  0  0  0  0  0  0  0
   10.6603    2.3100    0.0000 C   0  0  0  0  0  0  0  0  0  0  0  0
    3.7320   -0.6900    0.0000 C   0  0  0  0  0  0  0  0  0  0  0  0
    5.4641    0.3100    0.0000 C   0  0  0  0  0  0  0  0  0  0  0  0
    3.7320    0.3100    0.0000 C   0  0  0  0  0  0  0  0  0  0  0  0
    2.8660   -1.1900    0.0000 C   0  0  0  0  0  0  0  0  0  0  0  0
   14.1244   -0.6900    0.0000 C   0  0  0  0  0  0  0  0  0  0  0  0
    2.8660    0.8100    0.0000 C   0  0  0  0  0  0  0  0  0  0  0  0
    2.0000   -0.6900    0.0000 C   0  0  0  0  0  0  0  0  0  0  0  0
    2.0000    0.3100    0.0000 C   0  0  0  0  0  0  0  0  0  0  0  0
   11.1972   -0.3800    0.0000 H   0  0  0  0  0  0  0  0  0  0  0  0
   10.6603   -3.3100    0.0000 H   0  0  0  0  0  0  0  0  0  0  0  0
   12.0632    0.5000    0.0000 H   0  0  0  0  0  0  0  0  0  0  0  0
    9.2573    0.5000    0.0000 H   0  0  0  0  0  0  0  0  0  0  0  0
    8.6182   -2.1531    0.0000 H   0  0  0  0  0  0  0  0  0  0  0  0
    8.3913   -3.0000    0.0000 H   0  0  0  0  0  0  0  0  0  0  0  0
    9.2382   -3.2269    0.0000 H   0  0  0  0  0  0  0  0  0  0  0  0
   12.0823   -3.2269    0.0000 H   0  0  0  0  0  0  0  0  0  0  0  0
   12.9292   -3.0000    0.0000 H   0  0  0  0  0  0  0  0  0  0  0  0
   12.7023   -2.1531    0.0000 H   0  0  0  0  0  0  0  0  0  0  0  0
    5.9316   -1.6650    0.0000 H   0  0  0  0  0  0  0  0  0  0  0  0
    6.7287   -1.6650    0.0000 H   0  0  0  0  0  0  0  0  0  0  0  0
    7.5947   -0.2151    0.0000 H   0  0  0  0  0  0  0  0  0  0  0  0
    6.7976   -0.2151    0.0000 H   0  0  0  0  0  0  0  0  0  0  0  0
    9.2573    2.1200    0.0000 H   0  0  0  0  0  0  0  0  0  0  0  0
    4.1996   -1.6650    0.0000 H   0  0  0  0  0  0  0  0  0  0  0  0
    4.9966   -1.6650    0.0000 H   0  0  0  0  0  0  0  0  0  0  0  0
   10.6603    2.9300    0.0000 H   0  0  0  0  0  0  0  0  0  0  0  0
    6.0841    0.3100    0.0000 H   0  0  0  0  0  0  0  0  0  0  0  0
    5.4641    0.9300    0.0000 H   0  0  0  0  0  0  0  0  0  0  0  0
    4.8441    0.3100    0.0000 H   0  0  0  0  0  0  0  0  0  0  0  0
    4.2690    0.6200    0.0000 H   0  0  0  0  0  0  0  0  0  0  0  0
    2.8660   -1.8100    0.0000 H   0  0  0  0  0  0  0  0  0  0  0  0
   14.4344   -1.2269    0.0000 H   0  0  0  0  0  0  0  0  0  0  0  0
   14.6613   -0.3800    0.0000 H   0  0  0  0  0  0  0  0  0  0  0  0
   13.8144   -0.1531    0.0000 H   0  0  0  0  0  0  0  0  0  0  0  0
    2.8660    1.4300    0.0000 H   0  0  0  0  0  0  0  0  0  0  0  0
    1.4631   -1.0000    0.0000 H   0  0  0  0  0  0  0  0  0  0  0  0
    1.4631    0.6200    0.0000 H   0  0  0  0  0  0  0  0  0  0  0  0
  1 16  1  0  0  0  0
  1 23  1  0  0  0  0
  2 20  1  0  0  0  0
  2 32  1  0  0  0  0
  3 16  2  0  0  0  0
  4 20  2  0  0  0  0
  5  9  1  0  0  0  0
  6  9  2  0  0  0  0
  7 14  1  0  0  0  0
  7 15  1  0  0  0  0
  7 37  1  0  0  0  0
  8 22  1  0  0  0  0
  8 26  1  0  0  0  0
  8 29  1  0  0  0  0
  9 24  1  0  0  0  0
 10 11  1  0  0  0  0
 10 12  1  0  0  0  0
 10 13  1  0  0  0  0
 10 36  1  0  0  0  0
 11 14  2  0  0  0  0
 11 16  1  0  0  0  0
 12 15  2  0  0  0  0
 12 20  1  0  0  0  0
 13 17  2  0  0  0  0
 13 18  1  0  0  0  0
 14 19  1  0  0  0  0
 15 21  1  0  0  0  0
 17 24  1  0  0  0  0
 17 38  1  0  0  0  0
 18 25  2  0  0  0  0
 18 39  1  0  0  0  0
 19 40  1  0  0  0  0
 19 41  1  0  0  0  0
 19 42  1  0  0  0  0
 21 43  1  0  0  0  0
 21 44  1  0  0  0  0
 21 45  1  0  0  0  0
 22 23  1  0  0  0  0
 22 46  1  0  0  0  0
 22 47  1  0  0  0  0
 23 48  1  0  0  0  0
 23 49  1  0  0  0  0
 24 27  2  0  0  0  0
 25 27  1  0  0  0  0
 25 50  1  0  0  0  0
 26 28  1  0  0  0  0
 26 51  1  0  0  0  0
 26 52  1  0  0  0  0
 27 53  1  0  0  0  0
 28 30  2  0  0  0  0
 28 31  1  0  0  0  0
 29 54  1  0  0  0  0
 29 55  1  0  0  0  0
 29 56  1  0  0  0  0
 30 33  1  0  0  0  0
 30 57  1  0  0  0  0
 31 34  2  0  0  0  0
 31 58  1  0  0  0  0
 32 59  1  0  0  0  0
 32 60  1  0  0  0  0
 32 61  1  0  0  0  0
 33 35  2  0  0  0  0
 33 62  1  0  0  0  0
 34 35  1  0  0  0  0
 34 63  1  0  0  0  0
 35 64  1  0  0  0  0
M  CHG  2   5  -1   9   1
M  END
> <PUBCHEM_COMPOUND_CID>
4474

> <PUBCHEM_COMPOUND_CANONICALIZED>
1

> <PUBCHEM_CACTVS_COMPLEXITY>
856

> <PUBCHEM_CACTVS_HBOND_ACCEPTOR>
8

> <PUBCHEM_CACTVS_HBOND_DONOR>
1

> <PUBCHEM_CACTVS_ROTATABLE_BOND>
10

> <PUBCHEM_CACTVS_SUBSKEYS>
AAADceB7OAAAAAAAAAAAAAAAAAAAAAAAAAAwYIAAAAAAAAABQAAAHgAUAAAADQjhmAYyyIPQRACJAiTSSwCCAAAgAgAoiAEIZMoKJDKAsZGHMAhkkACY6UeY7uiOgAAAQAAAAAAAAACAAAAAAAAAAAAAAA==

> <PUBCHEM_IUPAC_OPENEYE_NAME>
O5-[2-[benzyl(methyl)amino]ethyl] O3-methyl 2,6-dimethyl-4-(3-nitrophenyl)-1,4-dihydropyridine-3,5-dicarboxylate

> <PUBCHEM_IUPAC_CAS_NAME>
2,6-dimethyl-4-(3-nitrophenyl)-1,4-dihydropyridine-3,5-dicarboxylic acid O3-methyl ester O5-[2-[methyl-(phenylmethyl)amino]ethyl] ester

> <PUBCHEM_IUPAC_NAME>
5-O-[2-[benzyl(methyl)amino]ethyl] 3-O-methyl 2,6-dimethyl-4-(3-nitrophenyl)-1,4-dihydropyridine-3,5-dicarboxylate

> <PUBCHEM_IUPAC_SYSTEMATIC_NAME>
O3-methyl O5-[2-[methyl-(phenylmethyl)amino]ethyl] 2,6-dimethyl-4-(3-nitrophenyl)-1,4-dihydropyridine-3,5-dicarboxylate

> <PUBCHEM_IUPAC_TRADITIONAL_NAME>
2,6-dimethyl-4-(3-nitrophenyl)-1,4-dihydropyridine-3,5-dicarboxylic acid O5-[2-[benzyl(methyl)amino]ethyl] ester O3-methyl ester

> <PUBCHEM_IUPAC_INCHI>
InChI=1S/C26H29N3O6/c1-17-22(25(30)34-4)24(20-11-8-12-21(15-20)29(32)33)23(18(2)27-17)26(31)35-14-13-28(3)16-19-9-6-5-7-10-19/h5-12,15,24,27H,13-14,16H2,1-4H3

> <PUBCHEM_IUPAC_INCHIKEY>
ZBBHBTPTTSWHBA-UHFFFAOYSA-N

> <PUBCHEM_XLOGP3>
3.8

> <PUBCHEM_EXACT_MASS>
479.205636

> <PUBCHEM_MOLECULAR_FORMULA>
C26H29N3O6

> <PUBCHEM_MOLECULAR_WEIGHT>
479.52496

> <PUBCHEM_OPENEYE_CAN_SMILES>
CC1=C(C(C(=C(N1)C)C(=O)OCCN(C)CC2=CC=CC=C2)C3=CC(=CC=C3)[N+](=O)[O-])C(=O)OC

> <PUBCHEM_OPENEYE_ISO_SMILES>
CC1=C(C(C(=C(N1)C)C(=O)OCCN(C)CC2=CC=CC=C2)C3=CC(=CC=C3)[N+](=O)[O-])C(=O)OC

> <PUBCHEM_CACTVS_TPSA>
114

> <PUBCHEM_MONOISOTOPIC_WEIGHT>
479.205636

> <PUBCHEM_TOTAL_CHARGE>
0

> <PUBCHEM_HEAVY_ATOM_COUNT>
35

> <PUBCHEM_ATOM_DEF_STEREO_COUNT>
0

> <PUBCHEM_ATOM_UDEF_STEREO_COUNT>
1

> <PUBCHEM_BOND_DEF_STEREO_COUNT>
0

> <PUBCHEM_BOND_UDEF_STEREO_COUNT>
0

> <PUBCHEM_ISOTOPIC_ATOM_COUNT>
0

> <PUBCHEM_COMPONENT_COUNT>
1

> <PUBCHEM_CACTVS_TAUTO_COUNT>
5

> <PUBCHEM_COORDINATE_TYPE>
1
5
255

> <PUBCHEM_BONDANNOTATIONS>
10  13  3
13  17  8
13  18  8
17  24  8
18  25  8
24  27  8
25  27  8
28  30  8
28  31  8
30  33  8
31  34  8
33  35  8
34  35  8

$$$$

