4088
  -OEChem-06251223522D

 57 60  0     1  0  0  0  0  0999 V2000
    8.6500    1.5983    0.0000 O   0  0  0  0  0  0  0  0  0  0  0  0
    2.0000   -2.7092    0.0000 O   0  0  0  0  0  0  0  0  0  0  0  0
   10.2963    1.0603    0.0000 O   0  0  0  0  0  0  0  0  0  0  0  0
    6.5271   -1.1569    0.0000 C   0  0  3  0  0  0  0  0  0  0  0  0
    7.3931   -0.6569    0.0000 C   0  0  3  0  0  0  0  0  0  0  0  0
    7.3931    0.3431    0.0000 C   0  0  3  0  0  0  0  0  0  0  0  0
    5.6610   -0.6569    0.0000 C   0  0  3  0  0  0  0  0  0  0  0  0
    4.7510   -1.1638    0.0000 C   0  0  3  0  0  0  0  0  0  0  0  0
    6.5271    0.8431    0.0000 C   0  0  0  0  0  0  0  0  0  0  0  0
    5.6610    0.3431    0.0000 C   0  0  0  0  0  0  0  0  0  0  0  0
    4.7430   -2.2054    0.0000 C   0  0  3  0  0  0  0  0  0  0  0  0
    8.3393    0.6478    0.0000 C   0  0  3  0  0  0  0  0  0  0  0  0
    6.5431   -2.1984    0.0000 C   0  0  0  0  0  0  0  0  0  0  0  0
    8.3393   -0.9616    0.0000 C   0  0  0  0  0  0  0  0  0  0  0  0
    5.6451   -2.7262    0.0000 C   0  0  0  0  0  0  0  0  0  0  0  0
    8.9229   -0.1569    0.0000 C   0  0  0  0  0  0  0  0  0  0  0  0
    7.3931    1.3431    0.0000 C   0  0  0  0  0  0  0  0  0  0  0  0
    3.8242   -0.5997    0.0000 C   0  0  0  0  0  0  0  0  0  0  0  0
    4.7587   -0.1638    0.0000 C   0  0  0  0  0  0  0  0  0  0  0  0
    3.8076   -2.7551    0.0000 C   0  0  0  0  0  0  0  0  0  0  0  0
    2.8763   -1.1276    0.0000 C   0  0  0  0  0  0  0  0  0  0  0  0
    2.8680   -2.2126    0.0000 C   0  0  0  0  0  0  0  0  0  0  0  0
    3.8435    0.4001    0.0000 C   0  0  0  0  0  0  0  0  0  0  0  0
    9.6285    1.8046    0.0000 C   0  0  0  0  0  0  0  0  0  0  0  0
    9.9391    2.7551    0.0000 C   0  0  0  0  0  0  0  0  0  0  0  0
    7.2664   -1.5762    0.0000 H   0  0  0  0  0  0  0  0  0  0  0  0
    7.4830   -1.5021    0.0000 H   0  0  0  0  0  0  0  0  0  0  0  0
    6.3972   -0.2319    0.0000 H   0  0  0  0  0  0  0  0  0  0  0  0
    6.9256    1.3180    0.0000 H   0  0  0  0  0  0  0  0  0  0  0  0
    6.1285    1.3180    0.0000 H   0  0  0  0  0  0  0  0  0  0  0  0
    5.4490    0.9257    0.0000 H   0  0  0  0  0  0  0  0  0  0  0  0
    5.0504    0.2354    0.0000 H   0  0  0  0  0  0  0  0  0  0  0  0
    4.7463   -3.0553    0.0000 H   0  0  0  0  0  0  0  0  0  0  0  0
    7.7396    1.2502    0.0000 H   0  0  0  0  0  0  0  0  0  0  0  0
    6.7612   -2.7788    0.0000 H   0  0  0  0  0  0  0  0  0  0  0  0
    7.1523   -2.0829    0.0000 H   0  0  0  0  0  0  0  0  0  0  0  0
    8.0883   -1.5286    0.0000 H   0  0  0  0  0  0  0  0  0  0  0  0
    8.8767   -1.2709    0.0000 H   0  0  0  0  0  0  0  0  0  0  0  0
    5.2478   -3.2021    0.0000 H   0  0  0  0  0  0  0  0  0  0  0  0
    6.0460   -3.1991    0.0000 H   0  0  0  0  0  0  0  0  0  0  0  0
    9.3838   -0.5716    0.0000 H   0  0  0  0  0  0  0  0  0  0  0  0
    9.3838    0.2578    0.0000 H   0  0  0  0  0  0  0  0  0  0  0  0
    8.0131    1.3431    0.0000 H   0  0  0  0  0  0  0  0  0  0  0  0
    7.3931    1.9631    0.0000 H   0  0  0  0  0  0  0  0  0  0  0  0
    6.7731    1.3431    0.0000 H   0  0  0  0  0  0  0  0  0  0  0  0
    5.3787   -0.1686    0.0000 H   0  0  0  0  0  0  0  0  0  0  0  0
    4.7635    0.4562    0.0000 H   0  0  0  0  0  0  0  0  0  0  0  0
    4.1388   -0.1590    0.0000 H   0  0  0  0  0  0  0  0  0  0  0  0
    3.4103   -3.2311    0.0000 H   0  0  0  0  0  0  0  0  0  0  0  0
    4.2085   -3.2280    0.0000 H   0  0  0  0  0  0  0  0  0  0  0  0
    2.3430   -0.8114    0.0000 H   0  0  0  0  0  0  0  0  0  0  0  0
    4.4634    0.3882    0.0000 H   0  0  0  0  0  0  0  0  0  0  0  0
    3.8554    1.0200    0.0000 H   0  0  0  0  0  0  0  0  0  0  0  0
    3.2236    0.4121    0.0000 H   0  0  0  0  0  0  0  0  0  0  0  0
   10.5285    2.5625    0.0000 H   0  0  0  0  0  0  0  0  0  0  0  0
   10.1317    3.3444    0.0000 H   0  0  0  0  0  0  0  0  0  0  0  0
    9.3498    2.9477    0.0000 H   0  0  0  0  0  0  0  0  0  0  0  0
  1 12  1  0  0  0  0
  1 24  1  0  0  0  0
  2 22  2  0  0  0  0
  3 24  2  0  0  0  0
  4  5  1  0  0  0  0
  4  7  1  0  0  0  0
  4 13  1  0  0  0  0
  4 26  1  0  0  0  0
  5  6  1  0  0  0  0
  5 14  1  0  0  0  0
  5 27  1  0  0  0  0
  6  9  1  0  0  0  0
  6 12  1  0  0  0  0
  6 17  1  0  0  0  0
  7  8  1  0  0  0  0
  7 10  1  0  0  0  0
  7 28  1  0  0  0  0
  8 11  1  0  0  0  0
  8 18  1  0  0  0  0
  8 19  1  0  0  0  0
  9 10  1  0  0  0  0
  9 29  1  0  0  0  0
  9 30  1  0  0  0  0
 10 31  1  0  0  0  0
 10 32  1  0  0  0  0
 11 15  1  0  0  0  0
 11 20  1  0  0  0  0
 11 33  1  0  0  0  0
 12 16  1  0  0  0  0
 12 34  1  0  0  0  0
 13 15  1  0  0  0  0
 13 35  1  0  0  0  0
 13 36  1  0  0  0  0
 14 16  1  0  0  0  0
 14 37  1  0  0  0  0
 14 38  1  0  0  0  0
 15 39  1  0  0  0  0
 15 40  1  0  0  0  0
 16 41  1  0  0  0  0
 16 42  1  0  0  0  0
 17 43  1  0  0  0  0
 17 44  1  0  0  0  0
 17 45  1  0  0  0  0
 18 21  2  0  0  0  0
 18 23  1  0  0  0  0
 19 46  1  0  0  0  0
 19 47  1  0  0  0  0
 19 48  1  0  0  0  0
 20 22  1  0  0  0  0
 20 49  1  0  0  0  0
 20 50  1  0  0  0  0
 21 22  1  0  0  0  0
 21 51  1  0  0  0  0
 23 52  1  0  0  0  0
 23 53  1  0  0  0  0
 23 54  1  0  0  0  0
 24 25  1  0  0  0  0
 25 55  1  0  0  0  0
 25 56  1  0  0  0  0
 25 57  1  0  0  0  0
M  END
> <PUBCHEM_COMPOUND_CID>
4088

> <PUBCHEM_COMPOUND_CANONICALIZED>
1

> <PUBCHEM_CACTVS_COMPLEXITY>
635

> <PUBCHEM_CACTVS_HBOND_ACCEPTOR>
3

> <PUBCHEM_CACTVS_HBOND_DONOR>
0

> <PUBCHEM_CACTVS_ROTATABLE_BOND>
2

> <PUBCHEM_CACTVS_SUBSKEYS>
AAADcfB4MAAAAAAAAAAAAAAAAAAAAYAAAAAwYIAAAAAAAGDAAAAAGgAAAAAADxSggAICCAAABACIAqDSCAAAAAAgAAAACAEAAEgAABIAAQACAAAEgAAIAQOIyPCPgAAAAAAAAACAAAQAACAAAIAADAAAAA==

> <PUBCHEM_IUPAC_OPENEYE_NAME>
(1,10,13-trimethyl-3-oxo-4,5,6,7,8,9,11,12,14,15,16,17-dodecahydrocyclopenta[a]phenanthren-17-yl) acetate

> <PUBCHEM_IUPAC_CAS_NAME>
acetic acid (1,10,13-trimethyl-3-oxo-4,5,6,7,8,9,11,12,14,15,16,17-dodecahydrocyclopenta[a]phenanthren-17-yl) ester

> <PUBCHEM_IUPAC_NAME>
(1,10,13-trimethyl-3-oxo-4,5,6,7,8,9,11,12,14,15,16,17-dodecahydrocyclopenta[a]phenanthren-17-yl) acetate

> <PUBCHEM_IUPAC_SYSTEMATIC_NAME>
(1,10,13-trimethyl-3-oxidanylidene-4,5,6,7,8,9,11,12,14,15,16,17-dodecahydrocyclopenta[a]phenanthren-17-yl) ethanoate

> <PUBCHEM_IUPAC_TRADITIONAL_NAME>
acetic acid (3-keto-1,10,13-trimethyl-4,5,6,7,8,9,11,12,14,15,16,17-dodecahydrocyclopenta[a]phenanthren-17-yl) ester

> <PUBCHEM_IUPAC_INCHI>
InChI=1S/C22H32O3/c1-13-11-16(24)12-15-5-6-17-18-7-8-20(25-14(2)23)21(18,3)10-9-19(17)22(13,15)4/h11,15,17-20H,5-10,12H2,1-4H3

> <PUBCHEM_IUPAC_INCHIKEY>
PGAUJQOPTMSERF-UHFFFAOYSA-N

> <PUBCHEM_XLOGP3_AA>
4.4

> <PUBCHEM_EXACT_MASS>
344.235145

> <PUBCHEM_MOLECULAR_FORMULA>
C22H32O3

> <PUBCHEM_MOLECULAR_WEIGHT>
344.48768

> <PUBCHEM_OPENEYE_CAN_SMILES>
CC1=CC(=O)CC2C1(C3CCC4(C(C3CC2)CCC4OC(=O)C)C)C

> <PUBCHEM_OPENEYE_ISO_SMILES>
CC1=CC(=O)CC2C1(C3CCC4(C(C3CC2)CCC4OC(=O)C)C)C

> <PUBCHEM_CACTVS_TPSA>
43.4

> <PUBCHEM_MONOISOTOPIC_WEIGHT>
344.235145

> <PUBCHEM_TOTAL_CHARGE>
0

> <PUBCHEM_HEAVY_ATOM_COUNT>
25

> <PUBCHEM_ATOM_DEF_STEREO_COUNT>
0

> <PUBCHEM_ATOM_UDEF_STEREO_COUNT>
7

> <PUBCHEM_BOND_DEF_STEREO_COUNT>
0

> <PUBCHEM_BOND_UDEF_STEREO_COUNT>
0

> <PUBCHEM_ISOTOPIC_ATOM_COUNT>
0

> <PUBCHEM_COMPONENT_COUNT>
1

> <PUBCHEM_CACTVS_TAUTO_COUNT>
5

> <PUBCHEM_COORDINATE_TYPE>
1
5
255

> <PUBCHEM_BONDANNOTATIONS>
11  33  3
12  34  3
4  26  3
5  27  3
6  17  3
7  28  3
8  19  3

$$$$

