17396375
  -OEChem-06241222563D

 56 60  0     0  0  0  0  0  0999 V2000
    1.7202   -2.7257   -1.9128 S   0  0  0  0  0  0  0  0  0  0  0  0
   -4.5379    1.9512   -1.0644 O   0  0  0  0  0  0  0  0  0  0  0  0
   -1.2216   -3.9595   -1.6380 O   0  0  0  0  0  0  0  0  0  0  0  0
   -2.5341    2.4170   -0.0383 N   0  0  0  0  0  0  0  0  0  0  0  0
    2.0079   -0.6011   -0.1579 N   0  0  0  0  0  0  0  0  0  0  0  0
   -3.7383   -0.8855   -0.2636 N   0  0  0  0  0  0  0  0  0  0  0  0
    2.4493    1.1998    1.1252 N   0  0  0  0  0  0  0  0  0  0  0  0
    1.1318    0.3674    4.5115 N   0  0  0  0  0  0  0  0  0  0  0  0
   -1.5828    4.4169    0.7703 C   0  0  0  0  0  0  0  0  0  0  0  0
   -0.8697    3.2363    1.4164 C   0  0  0  0  0  0  0  0  0  0  0  0
   -2.8805    3.7968    0.2759 C   0  0  0  0  0  0  0  0  0  0  0  0
   -1.2075    2.0848    0.4796 C   0  0  0  0  0  0  0  0  0  0  0  0
   -3.4396    1.5605   -0.6647 C   0  0  0  0  0  0  0  0  0  0  0  0
   -3.0413    0.1631   -0.8049 C   0  0  0  0  0  0  0  0  0  0  0  0
    1.9264   -0.0071    1.1121 C   0  0  0  0  0  0  0  0  0  0  0  0
    2.5691    0.3675   -0.9936 C   0  0  0  0  0  0  0  0  0  0  0  0
   -1.9506   -0.3533   -1.4690 C   0  0  0  0  0  0  0  0  0  0  0  0
    1.5575   -1.9195   -0.3872 C   0  0  0  0  0  0  0  0  0  0  0  0
    0.8621   -1.9940    1.9569 C   0  0  0  0  0  0  0  0  0  0  0  0
   -1.9933   -1.7617   -1.3219 C   0  0  0  0  0  0  0  0  0  0  0  0
    1.3231   -0.7430    2.1836 C   0  0  0  0  0  0  0  0  0  0  0  0
    2.8455    1.4505   -0.1561 C   0  0  0  0  0  0  0  0  0  0  0  0
    0.9950   -2.5961    0.6333 C   0  0  0  0  0  0  0  0  0  0  0  0
   -3.1089   -2.0632   -0.5723 C   0  0  0  0  0  0  0  0  0  0  0  0
    0.2019   -2.8803    2.9797 C   0  0  0  0  0  0  0  0  0  0  0  0
   -1.0443   -2.7603   -1.8532 C   0  0  0  0  0  0  0  0  0  0  0  0
    0.1452   -2.2685   -2.6667 C   0  0  0  0  0  0  0  0  0  0  0  0
    2.8562    0.4359   -2.3670 C   0  0  0  0  0  0  0  0  0  0  0  0
    3.4457    2.6137   -0.6725 C   0  0  0  0  0  0  0  0  0  0  0  0
    3.4498    1.6016   -2.8673 C   0  0  0  0  0  0  0  0  0  0  0  0
   -1.2996   -2.6872    2.9934 C   0  0  0  0  0  0  0  0  0  0  0  0
    3.7459    2.6740   -2.0337 C   0  0  0  0  0  0  0  0  0  0  0  0
    1.2176   -0.1308    3.4674 C   0  0  0  0  0  0  0  0  0  0  0  0
   -0.9943    4.7857   -0.0785 H   0  0  0  0  0  0  0  0  0  0  0  0
   -1.7486    5.2480    1.4609 H   0  0  0  0  0  0  0  0  0  0  0  0
    0.2074    3.3914    1.5216 H   0  0  0  0  0  0  0  0  0  0  0  0
   -1.2900    3.0475    2.4116 H   0  0  0  0  0  0  0  0  0  0  0  0
   -3.2903    4.3028   -0.6032 H   0  0  0  0  0  0  0  0  0  0  0  0
   -3.6441    3.7795    1.0616 H   0  0  0  0  0  0  0  0  0  0  0  0
   -1.2084    1.1189    0.9915 H   0  0  0  0  0  0  0  0  0  0  0  0
   -0.5159    2.0502   -0.3686 H   0  0  0  0  0  0  0  0  0  0  0  0
   -1.2189    0.2397   -1.9992 H   0  0  0  0  0  0  0  0  0  0  0  0
   -4.5861   -0.8050    0.2810 H   0  0  0  0  0  0  0  0  0  0  0  0
    0.6444   -3.6179    0.5134 H   0  0  0  0  0  0  0  0  0  0  0  0
   -3.5138   -3.0050   -0.2283 H   0  0  0  0  0  0  0  0  0  0  0  0
    0.5964   -2.6727    3.9817 H   0  0  0  0  0  0  0  0  0  0  0  0
    0.4399   -3.9357    2.7961 H   0  0  0  0  0  0  0  0  0  0  0  0
    0.0804   -2.7421   -3.6524 H   0  0  0  0  0  0  0  0  0  0  0  0
    0.1266   -1.1928   -2.8406 H   0  0  0  0  0  0  0  0  0  0  0  0
    2.6421   -0.3751   -3.0508 H   0  0  0  0  0  0  0  0  0  0  0  0
    3.6660    3.4576   -0.0258 H   0  0  0  0  0  0  0  0  0  0  0  0
    3.6829    1.6667   -3.9273 H   0  0  0  0  0  0  0  0  0  0  0  0
   -1.7462   -2.9749    2.0364 H   0  0  0  0  0  0  0  0  0  0  0  0
   -1.7527   -3.3109    3.7710 H   0  0  0  0  0  0  0  0  0  0  0  0
   -1.5732   -1.6467    3.1979 H   0  0  0  0  0  0  0  0  0  0  0  0
    4.2068    3.5679   -2.4445 H   0  0  0  0  0  0  0  0  0  0  0  0
  1 18  1  0  0  0  0
  1 27  1  0  0  0  0
  2 13  2  0  0  0  0
  3 26  2  0  0  0  0
  4 11  1  0  0  0  0
  4 12  1  0  0  0  0
  4 13  1  0  0  0  0
  5 15  1  0  0  0  0
  5 16  1  0  0  0  0
  5 18  1  0  0  0  0
  6 14  1  0  0  0  0
  6 24  1  0  0  0  0
  6 43  1  0  0  0  0
  7 15  2  0  0  0  0
  7 22  1  0  0  0  0
  8 33  3  0  0  0  0
  9 10  1  0  0  0  0
  9 11  1  0  0  0  0
  9 34  1  0  0  0  0
  9 35  1  0  0  0  0
 10 12  1  0  0  0  0
 10 36  1  0  0  0  0
 10 37  1  0  0  0  0
 11 38  1  0  0  0  0
 11 39  1  0  0  0  0
 12 40  1  0  0  0  0
 12 41  1  0  0  0  0
 13 14  1  0  0  0  0
 14 17  2  0  0  0  0
 15 21  1  0  0  0  0
 16 22  1  0  0  0  0
 16 28  2  0  0  0  0
 17 20  1  0  0  0  0
 17 42  1  0  0  0  0
 18 23  2  0  0  0  0
 19 21  2  0  0  0  0
 19 23  1  0  0  0  0
 19 25  1  0  0  0  0
 20 24  2  0  0  0  0
 20 26  1  0  0  0  0
 21 33  1  0  0  0  0
 22 29  2  0  0  0  0
 23 44  1  0  0  0  0
 24 45  1  0  0  0  0
 25 31  1  0  0  0  0
 25 46  1  0  0  0  0
 25 47  1  0  0  0  0
 26 27  1  0  0  0  0
 27 48  1  0  0  0  0
 27 49  1  0  0  0  0
 28 30  1  0  0  0  0
 28 50  1  0  0  0  0
 29 32  1  0  0  0  0
 29 51  1  0  0  0  0
 30 32  2  0  0  0  0
 30 52  1  0  0  0  0
 31 53  1  0  0  0  0
 31 54  1  0  0  0  0
 31 55  1  0  0  0  0
 32 56  1  0  0  0  0
M  END
> <PUBCHEM_COMPOUND_CID>
17396375

> <PUBCHEM_CONFORMER_RMSD>
1.2

> <PUBCHEM_CONFORMER_DIVERSEORDER>
1
46
36
106
108
144
165
86
57
129
85
178
93
132
91
140
70
9
56
74
71
102
111
79
156
151
84
167
123
73
60
134
146
49
58
39
148
37
179
3
124
92
158
42
75
10
161
22
168
155
64
142
29
133
68
175
159
125
118
141
76
32
80
105
150
126
173
34
131
14
51
145
78
103
153
81
143
172
100
5
8
19
72
113
101
55
2
109
139
135
48
138
12
115
97
63
4
177
136
62
107
88
99
69
149
17
128
104
13
24
26
127
89
6
65
27
160
11
137
16
117
130
53
94
52
154
90
87
20
83
31
166
82
15
121
30
171
122
23
18
40
116
67
147
45
33
174
47
61
114
152
21
176
162
59
98
43
169
41
119
110
35
120
164
7
96
25
38
50
163
44
54
95
66
28
77
170
157
112

> <PUBCHEM_MMFF94_PARTIAL_CHARGES>
38
1 -0.33
11 0.3
12 0.3
13 0.71
14 -0.24
15 0.14
16 -0.15
17 -0.15
18 0.07
19 -0.14
2 -0.57
20 -0.09
21 0.11
22 0.23
23 -0.15
24 -0.3
25 0.14
26 0.6
27 0.29
28 -0.15
29 -0.15
3 -0.57
30 -0.15
32 -0.15
33 0.49
4 -0.66
42 0.15
43 0.27
44 0.15
45 0.15
5 0.33
50 0.15
51 0.15
52 0.15
56 0.15
6 0.03
7 -0.57
8 -0.56

> <PUBCHEM_EFFECTIVE_ROTOR_COUNT>
8

> <PUBCHEM_PHARMACOPHORE_FEATURES>
12
1 2 acceptor
1 3 acceptor
1 31 hydrophobe
1 6 cation
1 6 donor
1 8 acceptor
3 5 7 15 cation
5 4 9 10 11 12 rings
5 5 7 15 16 22 rings
5 6 14 17 20 24 rings
6 16 22 28 29 30 32 rings
6 5 15 18 19 21 23 rings

> <PUBCHEM_HEAVY_ATOM_COUNT>
33

> <PUBCHEM_ATOM_DEF_STEREO_COUNT>
0

> <PUBCHEM_ATOM_UDEF_STEREO_COUNT>
0

> <PUBCHEM_BOND_DEF_STEREO_COUNT>
0

> <PUBCHEM_BOND_UDEF_STEREO_COUNT>
0

> <PUBCHEM_ISOTOPIC_ATOM_COUNT>
0

> <PUBCHEM_COMPONENT_COUNT>
1

> <PUBCHEM_CACTVS_TAUTO_COUNT>
7

> <PUBCHEM_CONFORMER_ID>
0109729700000001

> <PUBCHEM_MMFF94_ENERGY>
67.8929

> <PUBCHEM_FEATURE_SELFOVERLAP>
61.101

> <PUBCHEM_SHAPE_FINGERPRINT>
10032420 55 17840891589364171277
10165383 225 17605260788512816119
12107698 1 18341046423525955183
12156800 1 17683838443595876960
12788726 201 18197492922582597309
13583140 156 17271149149781358109
13965767 371 17040946701595165777
14787075 74 17699572437957454559
15444296 8 13914818154049892847
17921350 177 17051040205453877853
17974551 9 15263696042366157965
19319366 153 18130522837850767275
19930381 70 14444042464873022926
20764821 26 18115040700629994005
22907989 373 17552317061804911340
23419403 2 16105773467880535060
23559900 14 17827930838480720581
238 59 18122032529167275156
3493558 16 18058746723300490418
35225 105 17199058380935611259
3797600 57 17987523597883845823
469060 322 17541355965857626990
50150288 127 16335487512847496021

> <PUBCHEM_SHAPE_MULTIPOLES>
646.33
6
5.38
3.84
0.72
2.26
-3.62
4.98
4.15
2.62
0.04
-1.59
-2.38
-1.18

> <PUBCHEM_SHAPE_SELFOVERLAP>
1408.943

> <PUBCHEM_SHAPE_VOLUME>
355.6

> <PUBCHEM_COORDINATE_TYPE>
2
5
10

$$$$

