441881
  -OEChem-07051212563D

 73 78  0     1  0  0  0  0  0999 V2000
    3.4003   -1.0176    0.3950 O   0  0  0  0  0  0  0  0  0  0  0  0
    4.7529    0.0303   -1.2203 O   0  0  0  0  0  0  0  0  0  0  0  0
   -6.1511    1.3308    0.6665 O   0  0  0  0  0  0  0  0  0  0  0  0
   -7.0049   -0.5895   -1.2116 O   0  0  0  0  0  0  0  0  0  0  0  0
    0.5141    0.7964    0.2769 C   0  0  1  0  0  0  0  0  0  0  0  0
   -0.1309   -0.5796   -0.0235 C   0  0  2  0  0  0  0  0  0  0  0  0
   -1.5119   -0.7492    0.6181 C   0  0  1  0  0  0  0  0  0  0  0  0
    1.8821    0.6237   -0.4486 C   0  0  2  0  0  0  0  0  0  0  0  0
   -2.4627    0.3587    0.0528 C   0  0  1  0  0  0  0  0  0  0  0  0
   -3.9310    0.2350    0.6261 C   0  0  2  0  0  0  0  0  0  0  0  0
    2.1890   -0.8854   -0.3422 C   0  0  2  0  0  0  0  0  0  0  0  0
    0.9864   -1.5585    0.3203 C   0  0  0  0  0  0  0  0  0  0  0  0
   -0.3938    1.8705   -0.3390 C   0  0  0  0  0  0  0  0  0  0  0  0
   -1.8378    1.7757    0.1905 C   0  0  0  0  0  0  0  0  0  0  0  0
    3.1367    1.2941    0.1227 C   0  0  1  0  0  0  0  0  0  0  0  0
   -4.4600   -1.2185    0.3603 C   0  0  2  0  0  0  0  0  0  0  0  0
   -2.0768   -2.1527    0.3715 C   0  0  0  0  0  0  0  0  0  0  0  0
   -3.5016   -2.2968    0.8966 C   0  0  0  0  0  0  0  0  0  0  0  0
    4.1853    0.1647    0.0937 C   0  0  1  0  0  0  0  0  0  0  0  0
    0.6773    1.0782    1.7923 C   0  0  0  0  0  0  0  0  0  0  0  0
   -4.9061    1.2655   -0.0396 C   0  0  1  0  0  0  0  0  0  0  0  0
   -4.7611   -1.4816   -1.1354 C   0  0  0  0  0  0  0  0  0  0  0  0
   -3.9424    0.5076    2.1558 C   0  0  0  0  0  0  0  0  0  0  0  0
   -5.1973    0.9782   -1.5169 C   0  0  0  0  0  0  0  0  0  0  0  0
   -5.6951   -0.4464   -1.7552 C   0  0  2  0  0  0  0  0  0  0  0  0
    3.5162    2.5582   -0.6378 C   0  0  0  0  0  0  0  0  0  0  0  0
    5.2388    0.3111    1.2065 C   0  0  0  0  0  0  0  0  0  0  0  0
    6.3837   -0.6838    1.0084 C   0  0  0  0  0  0  0  0  0  0  0  0
    6.1489    0.3037   -1.3222 C   0  0  0  0  0  0  0  0  0  0  0  0
    6.9261   -0.5797   -0.3900 C   0  0  0  0  0  0  0  0  0  0  0  0
    8.0266   -1.2430   -0.7717 C   0  0  0  0  0  0  0  0  0  0  0  0
   -0.2842   -0.6608   -1.1135 H   0  0  0  0  0  0  0  0  0  0  0  0
   -1.4129   -0.6360    1.7015 H   0  0  0  0  0  0  0  0  0  0  0  0
    1.7605    0.8668   -1.5133 H   0  0  0  0  0  0  0  0  0  0  0  0
   -2.5215    0.1830   -1.0301 H   0  0  0  0  0  0  0  0  0  0  0  0
    2.3484   -1.3072   -1.3430 H   0  0  0  0  0  0  0  0  0  0  0  0
    1.1255   -1.6858    1.3987 H   0  0  0  0  0  0  0  0  0  0  0  0
    0.8111   -2.5512   -0.1067 H   0  0  0  0  0  0  0  0  0  0  0  0
   -0.4189    1.7616   -1.4312 H   0  0  0  0  0  0  0  0  0  0  0  0
    0.0058    2.8720   -0.1392 H   0  0  0  0  0  0  0  0  0  0  0  0
   -1.8611    2.1029    1.2345 H   0  0  0  0  0  0  0  0  0  0  0  0
   -2.4320    2.5024   -0.3733 H   0  0  0  0  0  0  0  0  0  0  0  0
    2.9868    1.5766    1.1673 H   0  0  0  0  0  0  0  0  0  0  0  0
   -5.4076   -1.3486    0.9014 H   0  0  0  0  0  0  0  0  0  0  0  0
   -1.4468   -2.8998    0.8690 H   0  0  0  0  0  0  0  0  0  0  0  0
   -2.0456   -2.3905   -0.6982 H   0  0  0  0  0  0  0  0  0  0  0  0
   -3.8802   -3.2938    0.6395 H   0  0  0  0  0  0  0  0  0  0  0  0
   -3.4841   -2.2591    1.9925 H   0  0  0  0  0  0  0  0  0  0  0  0
   -0.2625    1.0110    2.3459 H   0  0  0  0  0  0  0  0  0  0  0  0
    1.3742    0.3842    2.2726 H   0  0  0  0  0  0  0  0  0  0  0  0
    1.0505    2.0954    1.9584 H   0  0  0  0  0  0  0  0  0  0  0  0
   -4.4965    2.2762    0.0406 H   0  0  0  0  0  0  0  0  0  0  0  0
   -3.8356   -1.5043   -1.7202 H   0  0  0  0  0  0  0  0  0  0  0  0
   -5.2148   -2.4767   -1.2281 H   0  0  0  0  0  0  0  0  0  0  0  0
   -4.9185    0.2718    2.5951 H   0  0  0  0  0  0  0  0  0  0  0  0
   -3.2068   -0.0862    2.7029 H   0  0  0  0  0  0  0  0  0  0  0  0
   -3.7382    1.5615    2.3729 H   0  0  0  0  0  0  0  0  0  0  0  0
   -4.2938    1.1522   -2.1118 H   0  0  0  0  0  0  0  0  0  0  0  0
   -5.9641    1.6807   -1.8670 H   0  0  0  0  0  0  0  0  0  0  0  0
   -5.7769   -0.6221   -2.8338 H   0  0  0  0  0  0  0  0  0  0  0  0
    3.6713    2.3638   -1.7040 H   0  0  0  0  0  0  0  0  0  0  0  0
    2.7235    3.3086   -0.5491 H   0  0  0  0  0  0  0  0  0  0  0  0
    4.4361    2.9937   -0.2352 H   0  0  0  0  0  0  0  0  0  0  0  0
    4.7859    0.1465    2.1917 H   0  0  0  0  0  0  0  0  0  0  0  0
    5.6518    1.3280    1.2055 H   0  0  0  0  0  0  0  0  0  0  0  0
   -6.5992    0.4735    0.5787 H   0  0  0  0  0  0  0  0  0  0  0  0
    6.0145   -1.7022    1.1803 H   0  0  0  0  0  0  0  0  0  0  0  0
    7.1715   -0.4825    1.7435 H   0  0  0  0  0  0  0  0  0  0  0  0
    6.3309    1.3620   -1.1031 H   0  0  0  0  0  0  0  0  0  0  0  0
    6.4367    0.1355   -2.3654 H   0  0  0  0  0  0  0  0  0  0  0  0
   -7.3026   -1.4965   -1.3962 H   0  0  0  0  0  0  0  0  0  0  0  0
    8.4105   -1.1646   -1.7832 H   0  0  0  0  0  0  0  0  0  0  0  0
    8.5666   -1.8783   -0.0775 H   0  0  0  0  0  0  0  0  0  0  0  0
  1 11  1  0  0  0  0
  1 19  1  0  0  0  0
  2 19  1  0  0  0  0
  2 29  1  0  0  0  0
  3 21  1  0  0  0  0
  3 66  1  0  0  0  0
  4 25  1  0  0  0  0
  4 71  1  0  0  0  0
  5  6  1  0  0  0  0
  5  8  1  0  0  0  0
  5 13  1  0  0  0  0
  5 20  1  0  0  0  0
  6  7  1  0  0  0  0
  6 12  1  0  0  0  0
  6 32  1  0  0  0  0
  7  9  1  0  0  0  0
  7 17  1  0  0  0  0
  7 33  1  0  0  0  0
  8 11  1  0  0  0  0
  8 15  1  0  0  0  0
  8 34  1  0  0  0  0
  9 10  1  0  0  0  0
  9 14  1  0  0  0  0
  9 35  1  0  0  0  0
 10 16  1  0  0  0  0
 10 21  1  0  0  0  0
 10 23  1  0  0  0  0
 11 12  1  0  0  0  0
 11 36  1  0  0  0  0
 12 37  1  0  0  0  0
 12 38  1  0  0  0  0
 13 14  1  0  0  0  0
 13 39  1  0  0  0  0
 13 40  1  0  0  0  0
 14 41  1  0  0  0  0
 14 42  1  0  0  0  0
 15 19  1  0  0  0  0
 15 26  1  0  0  0  0
 15 43  1  0  0  0  0
 16 18  1  0  0  0  0
 16 22  1  0  0  0  0
 16 44  1  0  0  0  0
 17 18  1  0  0  0  0
 17 45  1  0  0  0  0
 17 46  1  0  0  0  0
 18 47  1  0  0  0  0
 18 48  1  0  0  0  0
 19 27  1  0  0  0  0
 20 49  1  0  0  0  0
 20 50  1  0  0  0  0
 20 51  1  0  0  0  0
 21 24  1  0  0  0  0
 21 52  1  0  0  0  0
 22 25  1  0  0  0  0
 22 53  1  0  0  0  0
 22 54  1  0  0  0  0
 23 55  1  0  0  0  0
 23 56  1  0  0  0  0
 23 57  1  0  0  0  0
 24 25  1  0  0  0  0
 24 58  1  0  0  0  0
 24 59  1  0  0  0  0
 25 60  1  0  0  0  0
 26 61  1  0  0  0  0
 26 62  1  0  0  0  0
 26 63  1  0  0  0  0
 27 28  1  0  0  0  0
 27 64  1  0  0  0  0
 27 65  1  0  0  0  0
 28 30  1  0  0  0  0
 28 67  1  0  0  0  0
 28 68  1  0  0  0  0
 29 30  1  0  0  0  0
 29 69  1  0  0  0  0
 29 70  1  0  0  0  0
 30 31  2  0  0  0  0
 31 72  1  0  0  0  0
 31 73  1  0  0  0  0
M  END
> <PUBCHEM_COMPOUND_CID>
441881

> <PUBCHEM_CONFORMER_RMSD>
0.8

> <PUBCHEM_CONFORMER_DIVERSEORDER>
1
2

> <PUBCHEM_MMFF94_PARTIAL_CHARGES>
16
1 -0.56
11 0.28
19 0.56
2 -0.56
21 0.28
25 0.28
28 0.14
29 0.42
3 -0.68
30 -0.28
31 -0.3
4 -0.68
66 0.4
71 0.4
72 0.15
73 0.15

> <PUBCHEM_EFFECTIVE_ROTOR_COUNT>
3

> <PUBCHEM_PHARMACOPHORE_FEATURES>
12
1 1 acceptor
1 2 acceptor
1 3 acceptor
1 3 donor
1 4 acceptor
1 4 donor
5 1 8 11 15 19 rings
5 5 6 8 11 12 rings
6 10 16 21 22 24 25 rings
6 2 19 27 28 29 30 rings
6 5 6 7 9 13 14 rings
6 7 9 10 16 17 18 rings

> <PUBCHEM_HEAVY_ATOM_COUNT>
31

> <PUBCHEM_ATOM_DEF_STEREO_COUNT>
12

> <PUBCHEM_ATOM_UDEF_STEREO_COUNT>
0

> <PUBCHEM_BOND_DEF_STEREO_COUNT>
0

> <PUBCHEM_BOND_UDEF_STEREO_COUNT>
0

> <PUBCHEM_ISOTOPIC_ATOM_COUNT>
0

> <PUBCHEM_COMPONENT_COUNT>
1

> <PUBCHEM_CACTVS_TAUTO_COUNT>
1

> <PUBCHEM_CONFORMER_ID>
0006BE1900000001

> <PUBCHEM_MMFF94_ENERGY>
123.3596

> <PUBCHEM_FEATURE_SELFOVERLAP>
61.349

> <PUBCHEM_SHAPE_FINGERPRINT>
10 15 8070026671153965390
10369192 42 12895069621830918450
10763959 59 17346881113820583892
10906281 52 18341599447561730355
11089746 13 18409733954104829264
11135926 11 18272652384888448931
11315181 36 17748543736332546025
11524674 6 17458062668442779846
11719270 70 18409733984792787670
12166972 35 17917707942377781685
12236239 1 17894632547759270916
12516196 113 16877944936090745152
12596602 18 14201393885075731646
12788726 201 18130790117960889760
13533116 47 18201163264917778162
13583140 156 14345793889997612289
13782708 43 17095797815623122374
14068700 675 18408606963182225060
14117953 113 18341048609352845804
14251752 14 17561086921145139230
14294032 229 18056478580588773668
14856354 85 17703787003407384847
14933364 13 14405183975985386942
15021287 119 4823206204551521912
15064986 266 18201152136752342107
15183329 4 18131355215070371718
15461852 350 17240766155707184820
15788980 27 17846216635582843585
17349148 13 18408316674916071112
17857418 61 18412265043031113264
18608769 82 18272370816514312179
18681886 176 18334300847012144160
18927931 339 18272080600329282875
19489759 90 17676486155295467051
20028762 73 18186804664913119390
21033648 29 13614235928864768004
21130935 74 17821445786009416190
21267235 1 18341604881001425515
21521721 280 9871454427796102686
21709351 56 18342177739074828349
21792961 116 17989485229823148971
23198884 109 15554453998482057207
23402539 116 18413672409039953637
23522609 53 18123997275232726436
23559900 14 18338800005264165528
23569917 315 18259700081952722598
23569943 247 17461706592328815998
23576562 1 17915733189888188454
249057 3 18202845444065661132
2838139 119 18272938228231677413
3004659 81 18273217478420551168
335352 9 18413669114683993365
3383291 50 18260551078652022671
350125 39 18343017792398562004
4015057 19 18337394829672867273
4017518 198 17748824121047817942
4073 2 17703220707879876282
4938544 92 11815625203182211607
504579 68 17346306125669897974
5104073 3 18339072679762898232
5283173 99 18202293515214989197
6328613 192 17774997960743751380
7226269 152 18131069350689910153

> <PUBCHEM_SHAPE_MULTIPOLES>
614.49
18.7
2.04
1.44
14.37
0.08
0.12
-3.32
-5.37
-0.78
0.04
-0.99
0.09
-0.2

> <PUBCHEM_SHAPE_SELFOVERLAP>
1324.247

> <PUBCHEM_SHAPE_VOLUME>
335.6

> <PUBCHEM_COORDINATE_TYPE>
2
5
10

$$$$

