439880
  -OEChem-07051212472D

 74 76  0     1  0  0  0  0  0999 V2000
    6.8671    1.6835    0.0000 O   0  0  0  0  0  0  0  0  0  0  0  0
    5.1350   -1.3165    0.0000 O   0  0  0  0  0  0  0  0  0  0  0  0
    5.1350    1.6835    0.0000 O   0  0  0  0  0  0  0  0  0  0  0  0
    5.1350    0.6835    0.0000 O   0  0  0  0  0  0  0  0  0  0  0  0
    5.1350   -3.0485    0.0000 O   0  0  0  0  0  0  0  0  0  0  0  0
    6.8671    3.6835    0.0000 O   0  0  0  0  0  0  0  0  0  0  0  0
    3.4030    3.6835    0.0000 O   0  0  0  0  0  0  0  0  0  0  0  0
    3.1351   -4.7806    0.0000 O   0  0  0  0  0  0  0  0  0  0  0  0
    2.5369    2.1835    0.0000 O   0  0  0  0  0  0  0  0  0  0  0  0
    3.4030    4.6835    0.0000 O   0  0  0  0  0  0  0  0  0  0  0  0
    8.5991    0.6835    0.0000 N   0  0  0  0  0  0  0  0  0  0  0  0
    7.3672   -2.1824    0.0000 N   0  0  0  0  0  0  0  0  0  0  0  0
    5.1350    4.6835    0.0000 N   0  0  0  0  0  0  0  0  0  0  0  0
    3.1350   -1.3164    0.0000 N   0  0  0  0  0  0  0  0  0  0  0  0
    4.6350   -5.6466    0.0000 N   0  0  0  0  0  0  0  0  0  0  0  0
    6.8671    0.6835    0.0000 C   0  0  3  0  0  0  0  0  0  0  0  0
    6.0010   -0.8165    0.0000 C   0  0  3  0  0  0  0  0  0  0  0  0
    6.0010    0.1835    0.0000 C   0  0  3  0  0  0  0  0  0  0  0  0
    7.7331    0.1835    0.0000 C   0  0  3  0  0  0  0  0  0  0  0  0
    6.8671   -1.3165    0.0000 C   0  0  3  0  0  0  0  0  0  0  0  0
    7.7331   -0.8165    0.0000 C   0  0  0  0  0  0  0  0  0  0  0  0
    6.0010    2.1835    0.0000 C   0  0  3  0  0  0  0  0  0  0  0  0
    6.0010    3.1835    0.0000 C   0  0  3  0  0  0  0  0  0  0  0  0
    4.6351   -2.1825    0.0000 C   0  0  3  0  0  0  0  0  0  0  0  0
    5.1350    3.6835    0.0000 C   0  0  3  0  0  0  0  0  0  0  0  0
    3.6350   -2.1825    0.0000 C   0  0  3  0  0  0  0  0  0  0  0  0
    4.2690    3.1835    0.0000 C   0  0  3  0  0  0  0  0  0  0  0  0
    4.2690    2.1835    0.0000 C   0  0  3  0  0  0  0  0  0  0  0  0
    3.1350   -3.0486    0.0000 C   0  0  0  0  0  0  0  0  0  0  0  0
    3.6351   -3.9146    0.0000 C   0  0  3  0  0  0  0  0  0  0  0  0
    4.6350   -3.9145    0.0000 C   0  0  3  0  0  0  0  0  0  0  0  0
    3.4030    1.6835    0.0000 C   0  0  0  0  0  0  0  0  0  0  0  0
    5.1350   -4.7806    0.0000 C   0  0  0  0  0  0  0  0  0  0  0  0
    4.2690    5.1835    0.0000 C   0  0  0  0  0  0  0  0  0  0  0  0
    4.2690    6.1835    0.0000 C   0  0  0  0  0  0  0  0  0  0  0  0
    6.3301    0.9935    0.0000 H   0  0  0  0  0  0  0  0  0  0  0  0
    5.4641   -0.5065    0.0000 H   0  0  0  0  0  0  0  0  0  0  0  0
    5.4641   -0.1265    0.0000 H   0  0  0  0  0  0  0  0  0  0  0  0
    7.7331    0.8035    0.0000 H   0  0  0  0  0  0  0  0  0  0  0  0
    6.4287   -1.7549    0.0000 H   0  0  0  0  0  0  0  0  0  0  0  0
    7.9451   -1.3991    0.0000 H   0  0  0  0  0  0  0  0  0  0  0  0
    8.3437   -0.7088    0.0000 H   0  0  0  0  0  0  0  0  0  0  0  0
    6.5380    2.4935    0.0000 H   0  0  0  0  0  0  0  0  0  0  0  0
    6.5380    2.8735    0.0000 H   0  0  0  0  0  0  0  0  0  0  0  0
    4.3251   -1.6456    0.0000 H   0  0  0  0  0  0  0  0  0  0  0  0
    5.6720    3.9935    0.0000 H   0  0  0  0  0  0  0  0  0  0  0  0
    3.0150   -2.1825    0.0000 H   0  0  0  0  0  0  0  0  0  0  0  0
    4.2690    3.8035    0.0000 H   0  0  0  0  0  0  0  0  0  0  0  0
    4.2690    1.5635    0.0000 H   0  0  0  0  0  0  0  0  0  0  0  0
    9.1360    0.3735    0.0000 H   0  0  0  0  0  0  0  0  0  0  0  0
    8.5991    1.3035    0.0000 H   0  0  0  0  0  0  0  0  0  0  0  0
    7.9871   -2.1825    0.0000 H   0  0  0  0  0  0  0  0  0  0  0  0
    7.0571   -2.7194    0.0000 H   0  0  0  0  0  0  0  0  0  0  0  0
    2.6601   -2.6500    0.0000 H   0  0  0  0  0  0  0  0  0  0  0  0
    2.6601   -3.4471    0.0000 H   0  0  0  0  0  0  0  0  0  0  0  0
    3.9451   -4.4515    0.0000 H   0  0  0  0  0  0  0  0  0  0  0  0
    5.2550   -3.9145    0.0000 H   0  0  0  0  0  0  0  0  0  0  0  0
    4.5981    0.3735    0.0000 H   0  0  0  0  0  0  0  0  0  0  0  0
    5.6720    4.9935    0.0000 H   0  0  0  0  0  0  0  0  0  0  0  0
    3.0044    1.2086    0.0000 H   0  0  0  0  0  0  0  0  0  0  0  0
    3.8015    1.2086    0.0000 H   0  0  0  0  0  0  0  0  0  0  0  0
    5.6100   -5.1791    0.0000 H   0  0  0  0  0  0  0  0  0  0  0  0
    5.6100   -4.3820    0.0000 H   0  0  0  0  0  0  0  0  0  0  0  0
    2.5150   -1.3164    0.0000 H   0  0  0  0  0  0  0  0  0  0  0  0
    3.4450   -0.7795    0.0000 H   0  0  0  0  0  0  0  0  0  0  0  0
    7.4040    3.3735    0.0000 H   0  0  0  0  0  0  0  0  0  0  0  0
    2.8660    3.3735    0.0000 H   0  0  0  0  0  0  0  0  0  0  0  0
    2.5151   -4.7806    0.0000 H   0  0  0  0  0  0  0  0  0  0  0  0
    4.9450   -6.1835    0.0000 H   0  0  0  0  0  0  0  0  0  0  0  0
    4.0150   -5.6466    0.0000 H   0  0  0  0  0  0  0  0  0  0  0  0
    2.0000    1.8735    0.0000 H   0  0  0  0  0  0  0  0  0  0  0  0
    4.8890    6.1835    0.0000 H   0  0  0  0  0  0  0  0  0  0  0  0
    4.2690    6.8035    0.0000 H   0  0  0  0  0  0  0  0  0  0  0  0
    3.6490    6.1835    0.0000 H   0  0  0  0  0  0  0  0  0  0  0  0
  1 16  1  0  0  0  0
  1 22  1  0  0  0  0
  2 17  1  0  0  0  0
  2 24  1  0  0  0  0
  3 22  1  0  0  0  0
  3 28  1  0  0  0  0
  4 18  1  0  0  0  0
  4 58  1  0  0  0  0
  5 24  1  0  0  0  0
  5 31  1  0  0  0  0
  6 23  1  0  0  0  0
  6 66  1  0  0  0  0
  7 27  1  0  0  0  0
  7 67  1  0  0  0  0
  8 30  1  0  0  0  0
  8 68  1  0  0  0  0
  9 32  1  0  0  0  0
  9 71  1  0  0  0  0
 10 34  2  0  0  0  0
 11 19  1  0  0  0  0
 11 50  1  0  0  0  0
 11 51  1  0  0  0  0
 12 20  1  0  0  0  0
 12 52  1  0  0  0  0
 12 53  1  0  0  0  0
 13 25  1  0  0  0  0
 13 34  1  0  0  0  0
 13 59  1  0  0  0  0
 14 26  1  0  0  0  0
 14 64  1  0  0  0  0
 14 65  1  0  0  0  0
 15 33  1  0  0  0  0
 15 69  1  0  0  0  0
 15 70  1  0  0  0  0
 16 18  1  0  0  0  0
 16 19  1  0  0  0  0
 16 36  1  0  0  0  0
 17 18  1  0  0  0  0
 17 20  1  0  0  0  0
 17 37  1  0  0  0  0
 18 38  1  0  0  0  0
 19 21  1  0  0  0  0
 19 39  1  0  0  0  0
 20 21  1  0  0  0  0
 20 40  1  0  0  0  0
 21 41  1  0  0  0  0
 21 42  1  0  0  0  0
 22 23  1  0  0  0  0
 22 43  1  0  0  0  0
 23 25  1  0  0  0  0
 23 44  1  0  0  0  0
 24 26  1  0  0  0  0
 24 45  1  0  0  0  0
 25 27  1  0  0  0  0
 25 46  1  0  0  0  0
 26 29  1  0  0  0  0
 26 47  1  0  0  0  0
 27 28  1  0  0  0  0
 27 48  1  0  0  0  0
 28 32  1  0  0  0  0
 28 49  1  0  0  0  0
 29 30  1  0  0  0  0
 29 54  1  0  0  0  0
 29 55  1  0  0  0  0
 30 31  1  0  0  0  0
 30 56  1  0  0  0  0
 31 33  1  0  0  0  0
 31 57  1  0  0  0  0
 32 60  1  0  0  0  0
 32 61  1  0  0  0  0
 33 62  1  0  0  0  0
 33 63  1  0  0  0  0
 34 35  1  0  0  0  0
 35 72  1  0  0  0  0
 35 73  1  0  0  0  0
 35 74  1  0  0  0  0
M  END
> <PUBCHEM_COMPOUND_CID>
439880

> <PUBCHEM_COMPOUND_CANONICALIZED>
1

> <PUBCHEM_CACTVS_COMPLEXITY>
709

> <PUBCHEM_CACTVS_HBOND_ACCEPTOR>
14

> <PUBCHEM_CACTVS_HBOND_DONOR>
10

> <PUBCHEM_CACTVS_ROTATABLE_BOND>
7

> <PUBCHEM_CACTVS_SUBSKEYS>
AAADcfB7vAAAAAAAAAAAAAAAAAAAAAAAAAA0SIAAAAAAAAAAAAAAHgAQCAAACDzxgAcCCALABgAIAAEQEAAAAAAAAAAAAIAIAAATEAIAwAAnQAAHFgCXAAHwcA0AAAAAAAAAAAAAgAAUCACgAAAAAAAAAA==

> <PUBCHEM_IUPAC_OPENEYE_NAME>
N-[2-[4,6-diamino-3-[3-amino-6-(aminomethyl)-5-hydroxy-tetrahydropyran-2-yl]oxy-2-hydroxy-cyclohexoxy]-3,5-dihydroxy-6-(hydroxymethyl)tetrahydropyran-4-yl]acetamide

> <PUBCHEM_IUPAC_CAS_NAME>
N-[2-[4,6-diamino-3-[[3-amino-6-(aminomethyl)-5-hydroxy-2-oxanyl]oxy]-2-hydroxycyclohexyl]oxy-3,5-dihydroxy-6-(hydroxymethyl)-4-oxanyl]acetamide

> <PUBCHEM_IUPAC_NAME>
N-[2-[4,6-diamino-3-[3-amino-6-(aminomethyl)-5-hydroxyoxan-2-yl]oxy-2-hydroxycyclohexyl]oxy-3,5-dihydroxy-6-(hydroxymethyl)oxan-4-yl]acetamide

> <PUBCHEM_IUPAC_SYSTEMATIC_NAME>
N-[2-[3-[6-(aminomethyl)-3-azanyl-5-oxidanyl-oxan-2-yl]oxy-4,6-bis(azanyl)-2-oxidanyl-cyclohexyl]oxy-6-(hydroxymethyl)-3,5-bis(oxidanyl)oxan-4-yl]ethanamide

> <PUBCHEM_IUPAC_TRADITIONAL_NAME>
N-[2-[4,6-diamino-3-[3-amino-6-(aminomethyl)-5-hydroxy-tetrahydropyran-2-yl]oxy-2-hydroxy-cyclohexoxy]-3,5-dihydroxy-6-methylol-tetrahydropyran-4-yl]acetamide

> <PUBCHEM_IUPAC_INCHI>
InChI=1S/C20H39N5O10/c1-6(27)25-13-14(29)12(5-26)33-20(15(13)30)35-18-8(23)2-7(22)17(16(18)31)34-19-9(24)3-10(28)11(4-21)32-19/h7-20,26,28-31H,2-5,21-24H2,1H3,(H,25,27)

> <PUBCHEM_IUPAC_INCHIKEY>
WHRNNCGBVLLCHM-UHFFFAOYSA-N

> <PUBCHEM_XLOGP3_AA>
-6

> <PUBCHEM_EXACT_MASS>
509.269692

> <PUBCHEM_MOLECULAR_FORMULA>
C20H39N5O10

> <PUBCHEM_MOLECULAR_WEIGHT>
509.55116

> <PUBCHEM_OPENEYE_CAN_SMILES>
CC(=O)NC1C(C(OC(C1O)OC2C(CC(C(C2O)OC3C(CC(C(O3)CN)O)N)N)N)CO)O

> <PUBCHEM_OPENEYE_ISO_SMILES>
CC(=O)NC1C(C(OC(C1O)OC2C(CC(C(C2O)OC3C(CC(C(O3)CN)O)N)N)N)CO)O

> <PUBCHEM_CACTVS_TPSA>
271

> <PUBCHEM_MONOISOTOPIC_WEIGHT>
509.269692

> <PUBCHEM_TOTAL_CHARGE>
0

> <PUBCHEM_HEAVY_ATOM_COUNT>
35

> <PUBCHEM_ATOM_DEF_STEREO_COUNT>
0

> <PUBCHEM_ATOM_UDEF_STEREO_COUNT>
14

> <PUBCHEM_BOND_DEF_STEREO_COUNT>
0

> <PUBCHEM_BOND_UDEF_STEREO_COUNT>
0

> <PUBCHEM_ISOTOPIC_ATOM_COUNT>
0

> <PUBCHEM_COMPONENT_COUNT>
1

> <PUBCHEM_CACTVS_TAUTO_COUNT>
2

> <PUBCHEM_COORDINATE_TYPE>
1
5
255

> <PUBCHEM_BONDANNOTATIONS>
16  1  3
22  1  3
19  11  3
20  12  3
25  13  3
26  14  3
17  2  3
24  2  3
28  32  3
31  33  3
18  4  3
23  6  3
27  7  3
30  8  3

$$$$

