442367
  -OEChem-07051212573D

 38 39  0     1  0  0  0  0  0999 V2000
    0.1149   -0.8701    0.7331 O   0  0  0  0  0  0  0  0  0  0  0  0
    3.1541    1.8041   -0.8750 O   0  0  0  0  0  0  0  0  0  0  0  0
   -3.5596   -0.4331   -0.4854 O   0  0  0  0  0  0  0  0  0  0  0  0
   -0.6848   -1.9194    0.1499 C   0  0  2  0  0  0  0  0  0  0  0  0
    0.2863   -3.0351   -0.2329 C   0  0  0  0  0  0  0  0  0  0  0  0
    1.5686   -2.2829   -0.4986 C   0  0  0  0  0  0  0  0  0  0  0  0
    1.5134   -1.1863    0.5566 C   0  0  1  0  0  0  0  0  0  0  0  0
   -1.4012   -1.3401   -1.0724 C   0  0  0  0  0  0  0  0  0  0  0  0
   -1.7052   -2.3828    1.1858 C   0  0  0  0  0  0  0  0  0  0  0  0
    2.3455    0.0140    0.2172 C   0  0  0  0  0  0  0  0  0  0  0  0
   -2.3691   -0.2301   -0.7037 C   0  0  0  0  0  0  0  0  0  0  0  0
    3.4028    0.5621    0.9817 C   0  0  0  0  0  0  0  0  0  0  0  0
    2.2334    0.8051   -0.9024 C   0  0  0  0  0  0  0  0  0  0  0  0
   -1.7832    1.1423   -0.6688 C   0  0  0  0  0  0  0  0  0  0  0  0
    3.8617    1.6491    0.2748 C   0  0  0  0  0  0  0  0  0  0  0  0
   -2.1878    2.1448    0.1309 C   0  0  0  0  0  0  0  0  0  0  0  0
   -1.5281    3.4958    0.0300 C   0  0  0  0  0  0  0  0  0  0  0  0
   -3.2618    2.0627    1.1793 C   0  0  0  0  0  0  0  0  0  0  0  0
   -0.0457   -3.6326   -1.0874 H   0  0  0  0  0  0  0  0  0  0  0  0
    0.4470   -3.7213    0.6080 H   0  0  0  0  0  0  0  0  0  0  0  0
    2.4613   -2.9094   -0.4083 H   0  0  0  0  0  0  0  0  0  0  0  0
    1.5518   -1.8765   -1.5167 H   0  0  0  0  0  0  0  0  0  0  0  0
    1.8523   -1.5965    1.5171 H   0  0  0  0  0  0  0  0  0  0  0  0
   -1.9738   -2.1163   -1.5956 H   0  0  0  0  0  0  0  0  0  0  0  0
   -0.6853   -0.9442   -1.8027 H   0  0  0  0  0  0  0  0  0  0  0  0
   -2.2811   -1.5484    1.5995 H   0  0  0  0  0  0  0  0  0  0  0  0
   -2.3954   -3.1240    0.7703 H   0  0  0  0  0  0  0  0  0  0  0  0
   -1.1985   -2.8357    2.0465 H   0  0  0  0  0  0  0  0  0  0  0  0
    3.7857    0.2119    1.9297 H   0  0  0  0  0  0  0  0  0  0  0  0
    1.5863    0.7934   -1.7674 H   0  0  0  0  0  0  0  0  0  0  0  0
   -0.9590    1.3057   -1.3580 H   0  0  0  0  0  0  0  0  0  0  0  0
    4.6422    2.3762    0.4448 H   0  0  0  0  0  0  0  0  0  0  0  0
   -0.7605    3.5289   -0.7506 H   0  0  0  0  0  0  0  0  0  0  0  0
   -2.2729    4.2633   -0.2050 H   0  0  0  0  0  0  0  0  0  0  0  0
   -1.0471    3.7556    0.9787 H   0  0  0  0  0  0  0  0  0  0  0  0
   -4.1557    2.5995    0.8467 H   0  0  0  0  0  0  0  0  0  0  0  0
   -3.5456    1.0380    1.4293 H   0  0  0  0  0  0  0  0  0  0  0  0
   -2.9139    2.5205    2.1120 H   0  0  0  0  0  0  0  0  0  0  0  0
  1  4  1  0  0  0  0
  1  7  1  0  0  0  0
  2 13  1  0  0  0  0
  2 15  1  0  0  0  0
  3 11  2  0  0  0  0
  4  5  1  0  0  0  0
  4  8  1  0  0  0  0
  4  9  1  0  0  0  0
  5  6  1  0  0  0  0
  5 19  1  0  0  0  0
  5 20  1  0  0  0  0
  6  7  1  0  0  0  0
  6 21  1  0  0  0  0
  6 22  1  0  0  0  0
  7 10  1  0  0  0  0
  7 23  1  0  0  0  0
  8 11  1  0  0  0  0
  8 24  1  0  0  0  0
  8 25  1  0  0  0  0
  9 26  1  0  0  0  0
  9 27  1  0  0  0  0
  9 28  1  0  0  0  0
 10 12  1  0  0  0  0
 10 13  2  0  0  0  0
 11 14  1  0  0  0  0
 12 15  2  0  0  0  0
 12 29  1  0  0  0  0
 13 30  1  0  0  0  0
 14 16  2  0  0  0  0
 14 31  1  0  0  0  0
 15 32  1  0  0  0  0
 16 17  1  0  0  0  0
 16 18  1  0  0  0  0
 17 33  1  0  0  0  0
 17 34  1  0  0  0  0
 17 35  1  0  0  0  0
 18 36  1  0  0  0  0
 18 37  1  0  0  0  0
 18 38  1  0  0  0  0
M  END
> <PUBCHEM_COMPOUND_CID>
442367

> <PUBCHEM_CONFORMER_RMSD>
0.6

> <PUBCHEM_CONFORMER_DIVERSEORDER>
6
122
79
106
78
109
91
153
14
23
126
140
63
49
100
144
108
60
18
89
159
155
131
7
76
12
27
167
117
22
116
102
56
114
147
62
25
161
94
133
96
1
151
158
42
125
10
16
8
83
61
46
11
67
152
84
88
160
9
48
135
139
162
4
105
146
82
129
69
65
55
20
31
43
156
2
165
44
163
145
40
77
154
80
92
86
157
99
90
37
149
95
5
45
130
38
142
35
107
21
28
136
75
26
115
58
32
164
121
13
50
128
68
120
54
3
71
74
33
148
150
53
118
137
97
34
124
111
64
36
143
168
81
134
166
73
59
113
19
70
119
66
47
101
138
93
132
39
141
72
110
85
15
57
29
104
41
103
127
112
17
51
98
24
87
123
52
30

> <PUBCHEM_MMFF94_PARTIAL_CHARGES>
19
1 -0.56
10 -0.18
11 0.49
12 -0.15
13 -0.01
14 -0.14
15 -0.01
16 -0.28
17 0.14
18 0.14
2 -0.28
29 0.15
3 -0.57
30 0.15
31 0.15
32 0.15
4 0.28
7 0.46
8 0.06

> <PUBCHEM_EFFECTIVE_ROTOR_COUNT>
5

> <PUBCHEM_PHARMACOPHORE_FEATURES>
6
1 1 acceptor
1 2 acceptor
1 3 acceptor
3 16 17 18 hydrophobe
5 1 4 5 6 7 rings
5 2 10 12 13 15 rings

> <PUBCHEM_HEAVY_ATOM_COUNT>
18

> <PUBCHEM_ATOM_DEF_STEREO_COUNT>
2

> <PUBCHEM_ATOM_UDEF_STEREO_COUNT>
0

> <PUBCHEM_BOND_DEF_STEREO_COUNT>
0

> <PUBCHEM_BOND_UDEF_STEREO_COUNT>
0

> <PUBCHEM_ISOTOPIC_ATOM_COUNT>
0

> <PUBCHEM_COMPONENT_COUNT>
1

> <PUBCHEM_CACTVS_TAUTO_COUNT>
5

> <PUBCHEM_CONFORMER_ID>
0006BFFF00000006

> <PUBCHEM_MMFF94_ENERGY>
32.1937

> <PUBCHEM_FEATURE_SELFOVERLAP>
30.446

> <PUBCHEM_SHAPE_FINGERPRINT>
10498660 4 18337959973895101669
11221954 11 18337386157653354639
11725454 13 16517970254360032514
128993 33 18191581063208404337
13027679 85 17763740992989055965
13140716 1 17979635637115336145
13464514 151 18192140719396553134
13764800 53 18271804558196233131
13899415 154 17622141496171374459
14026960 21 18122334955247799809
14123250 116 18186796993647938841
14250199 8 18120947367135680431
14386348 128 18189333635755868153
14787075 74 18200038322677865615
18219364 16 17768817811668088045
18981168 100 18268406062323114322
20510252 161 18126565609349834746
20671657 1 18047465918050111831
20715895 44 17699036147029388549
21041028 32 16108954561310457699
21524375 3 18410865373034344666
21665062 11 16896795264343783217
21731228 192 18340207504437513032
22094290 62 17975981182439456083
22749437 52 18339656649154558988
23402539 116 18117855308230773366
23419403 2 16741644024751782167
23557571 272 18121773924949477062
23558518 356 18267870660696091899
238 59 17405745903743693229
350125 39 18265611159647244879
44154327 71 18338509863191124825
474 4 18341336711743337063
49207404 50 18125978667972933521
5048184 11 18338230578326176652
526903 126 18408612452408326873
5939293 188 17256814923330735421
69474 34 17693647122482060507
7832392 63 17687472672880031695
9981440 41 18338813233731542306

> <PUBCHEM_SHAPE_MULTIPOLES>
352.82
5.85
3.87
1.1
1.69
0.26
0.08
4.28
0.52
-1.12
0.23
-0.17
-0.06
-0.32

> <PUBCHEM_SHAPE_SELFOVERLAP>
732.416

> <PUBCHEM_SHAPE_VOLUME>
204.8

> <PUBCHEM_COORDINATE_TYPE>
2
5
10

$$$$

