5280619
  -OEChem-07051212483D

 49 52  0     1  0  0  0  0  0999 V2000
    0.2538   -2.6333   -0.3787 O   0  0  0  0  0  0  0  0  0  0  0  0
   -0.7579   -1.6659   -2.5103 O   0  0  0  0  0  0  0  0  0  0  0  0
   -1.3395   -2.9792    1.2436 O   0  0  0  0  0  0  0  0  0  0  0  0
   -1.3071    2.2427    0.3746 N   0  3  0  0  0  0  0  0  0  0  0  0
    1.4458   -0.0925    1.3479 N   0  0  0  0  0  0  0  0  0  0  0  0
   -0.6881    1.3115    1.4093 C   0  0  1  0  0  0  0  0  0  0  0  0
   -1.6380    0.1656    1.7781 C   0  0  0  0  0  0  0  0  0  0  0  0
    0.6637    0.9317    0.8956 C   0  0  0  0  0  0  0  0  0  0  0  0
   -2.4660   -0.3973    0.6154 C   0  0  1  0  0  0  0  0  0  0  0  0
   -0.4239    3.3935   -0.0432 C   0  0  0  0  0  0  0  0  0  0  0  0
    1.3691    1.6192   -0.0770 C   0  0  0  0  0  0  0  0  0  0  0  0
    0.7998    2.8135   -0.7825 C   0  0  0  0  0  0  0  0  0  0  0  0
   -3.1624    0.7384   -0.0816 C   0  0  0  0  0  0  0  0  0  0  0  0
   -2.4186    2.0040   -0.2333 C   0  0  0  0  0  0  0  0  0  0  0  0
    2.6194    0.9618   -0.2431 C   0  0  0  0  0  0  0  0  0  0  0  0
    2.6407   -0.1065    0.6600 C   0  0  0  0  0  0  0  0  0  0  0  0
   -1.6294   -1.2073   -0.3303 C   0  0  0  0  0  0  0  0  0  0  0  0
   -4.4054    0.6913   -0.5765 C   0  0  0  0  0  0  0  0  0  0  0  0
    3.7396    1.1689   -1.0730 C   0  0  0  0  0  0  0  0  0  0  0  0
    3.7318   -0.9759    0.7725 C   0  0  0  0  0  0  0  0  0  0  0  0
   -0.9080   -2.3661    0.2754 C   0  0  0  0  0  0  0  0  0  0  0  0
   -1.5186   -0.9323   -1.6383 C   0  0  0  0  0  0  0  0  0  0  0  0
    4.8363    0.3057   -0.9708 C   0  0  0  0  0  0  0  0  0  0  0  0
    4.8302   -0.7498   -0.0616 C   0  0  0  0  0  0  0  0  0  0  0  0
   -5.2842   -0.5097   -0.5039 C   0  0  0  0  0  0  0  0  0  0  0  0
    1.0167   -3.7320    0.1318 C   0  0  0  0  0  0  0  0  0  0  0  0
   -0.5398    1.9295    2.3050 H   0  0  0  0  0  0  0  0  0  0  0  0
   -1.1062   -0.6221    2.3237 H   0  0  0  0  0  0  0  0  0  0  0  0
   -2.3560    0.5685    2.5100 H   0  0  0  0  0  0  0  0  0  0  0  0
   -3.2069   -1.0657    1.0715 H   0  0  0  0  0  0  0  0  0  0  0  0
   -0.1335    3.9215    0.8718 H   0  0  0  0  0  0  0  0  0  0  0  0
   -0.9895    4.0780   -0.6837 H   0  0  0  0  0  0  0  0  0  0  0  0
    1.5620    3.5930   -0.8910 H   0  0  0  0  0  0  0  0  0  0  0  0
    0.5018    2.5033   -1.7925 H   0  0  0  0  0  0  0  0  0  0  0  0
   -2.8121    2.7588   -0.9327 H   0  0  0  0  0  0  0  0  0  0  0  0
    1.1932   -0.7475    2.0748 H   0  0  0  0  0  0  0  0  0  0  0  0
   -4.8376    1.5676   -1.0537 H   0  0  0  0  0  0  0  0  0  0  0  0
    3.7590    1.9877   -1.7867 H   0  0  0  0  0  0  0  0  0  0  0  0
    3.7285   -1.7985    1.4798 H   0  0  0  0  0  0  0  0  0  0  0  0
   -1.9815   -0.1195   -2.1767 H   0  0  0  0  0  0  0  0  0  0  0  0
    5.7021    0.4618   -1.6089 H   0  0  0  0  0  0  0  0  0  0  0  0
    5.6927   -1.4085    0.0013 H   0  0  0  0  0  0  0  0  0  0  0  0
   -6.0336   -0.3796    0.2827 H   0  0  0  0  0  0  0  0  0  0  0  0
   -4.7527   -1.4486   -0.3344 H   0  0  0  0  0  0  0  0  0  0  0  0
   -5.8149   -0.6224   -1.4556 H   0  0  0  0  0  0  0  0  0  0  0  0
   -0.4135   -2.4563   -2.0668 H   0  0  0  0  0  0  0  0  0  0  0  0
    0.4478   -4.6616    0.0378 H   0  0  0  0  0  0  0  0  0  0  0  0
    1.2931   -3.5506    1.1748 H   0  0  0  0  0  0  0  0  0  0  0  0
    1.9298   -3.8164   -0.4634 H   0  0  0  0  0  0  0  0  0  0  0  0
  1 21  1  0  0  0  0
  1 26  1  0  0  0  0
  2 22  1  0  0  0  0
  2 46  1  0  0  0  0
  3 21  2  0  0  0  0
  4  6  1  0  0  0  0
  4 10  1  0  0  0  0
  4 14  2  0  0  0  0
  5  8  1  0  0  0  0
  5 16  1  0  0  0  0
  5 36  1  0  0  0  0
  6  7  1  0  0  0  0
  6  8  1  0  0  0  0
  6 27  1  0  0  0  0
  7  9  1  0  0  0  0
  7 28  1  0  0  0  0
  7 29  1  0  0  0  0
  8 11  2  0  0  0  0
  9 13  1  0  0  0  0
  9 17  1  0  0  0  0
  9 30  1  0  0  0  0
 10 12  1  0  0  0  0
 10 31  1  0  0  0  0
 10 32  1  0  0  0  0
 11 12  1  0  0  0  0
 11 15  1  0  0  0  0
 12 33  1  0  0  0  0
 12 34  1  0  0  0  0
 13 14  1  0  0  0  0
 13 18  2  0  0  0  0
 14 35  1  0  0  0  0
 15 16  1  0  0  0  0
 15 19  2  0  0  0  0
 16 20  2  0  0  0  0
 17 21  1  0  0  0  0
 17 22  2  0  0  0  0
 18 25  1  0  0  0  0
 18 37  1  0  0  0  0
 19 23  1  0  0  0  0
 19 38  1  0  0  0  0
 20 24  1  0  0  0  0
 20 39  1  0  0  0  0
 22 40  1  0  0  0  0
 23 24  2  0  0  0  0
 23 41  1  0  0  0  0
 24 42  1  0  0  0  0
 25 43  1  0  0  0  0
 25 44  1  0  0  0  0
 25 45  1  0  0  0  0
 26 47  1  0  0  0  0
 26 48  1  0  0  0  0
 26 49  1  0  0  0  0
M  CHG  1   4   1
M  END
> <PUBCHEM_COMPOUND_CID>
5280619

> <PUBCHEM_CONFORMER_RMSD>
0.8

> <PUBCHEM_CONFORMER_DIVERSEORDER>
2
8
4
7
9
6
3
5
1

> <PUBCHEM_MMFF94_PARTIAL_CHARGES>
33
1 -0.43
10 0.35
11 -0.18
12 0.18
13 -0.12
14 0.33
16 -0.15
17 -0.12
18 -0.29
19 -0.15
2 -0.53
20 -0.15
21 0.71
22 -0.07
23 -0.15
24 -0.15
25 0.14
26 0.28
3 -0.57
35 0.06
36 0.27
37 0.15
38 0.15
39 0.15
4 -0.09
40 0.15
41 0.15
42 0.15
46 0.45
5 0.03
6 0.53
8 -0.33
9 0.28

> <PUBCHEM_EFFECTIVE_ROTOR_COUNT>
3.8

> <PUBCHEM_PHARMACOPHORE_FEATURES>
9
1 2 donor
1 25 hydrophobe
1 3 acceptor
1 5 cation
1 5 donor
5 5 8 11 15 16 rings
6 15 16 19 20 23 24 rings
6 4 6 7 9 13 14 rings
6 4 6 8 10 11 12 rings

> <PUBCHEM_HEAVY_ATOM_COUNT>
26

> <PUBCHEM_ATOM_DEF_STEREO_COUNT>
2

> <PUBCHEM_ATOM_UDEF_STEREO_COUNT>
0

> <PUBCHEM_BOND_DEF_STEREO_COUNT>
2

> <PUBCHEM_BOND_UDEF_STEREO_COUNT>
0

> <PUBCHEM_ISOTOPIC_ATOM_COUNT>
0

> <PUBCHEM_COMPONENT_COUNT>
1

> <PUBCHEM_CACTVS_TAUTO_COUNT>
3

> <PUBCHEM_CONFORMER_ID>
0050936B00000002

> <PUBCHEM_MMFF94_ENERGY>
61.4322

> <PUBCHEM_FEATURE_SELFOVERLAP>
45.896

> <PUBCHEM_SHAPE_FINGERPRINT>
10863032 1 18131348570872100289
12011746 2 18342458145031885197
12422481 6 17901372717441377121
12553582 1 18411415077651334720
12592029 89 18410289250753563939
12788726 201 18334287695490649816
13140716 1 18335696079442974617
14790565 3 18339348764630206265
15163728 17 17201370800292454261
15439362 3 17045146849484585084
16752209 62 18336834189994866368
16945 1 18411129264562697257
17492 54 18272932713140143805
19930381 70 18198626725324476275
20645476 183 18271524204369244155
20691752 17 18124009472337511991
20775438 99 17179157031663760159
20905425 154 18045505480423083463
21857420 4 15440226606971476151
229495 10 16485597449093136755
23419403 2 15948872905046324745
23559900 14 18261112916556671616
3027735 51 18265616674269279832
34934 24 18340488846692698288
465052 167 18338227155985542011
484989 97 18054509111114629791
6138700 20 18337390542862540791
90525 40 18339073899660106088

> <PUBCHEM_SHAPE_MULTIPOLES>
507.5
7.71
3.56
1.45
2.13
1.15
0.23
0.06
1.83
-0.23
0.1
-0.2
0.32
-0.52

> <PUBCHEM_SHAPE_SELFOVERLAP>
1110.095

> <PUBCHEM_SHAPE_VOLUME>
272.7

> <PUBCHEM_COORDINATE_TYPE>
2
5
10

$$$$

