5563
  -OEChem-07051212532D

 14 13  0     0  0  0  0  0  0999 V2000
    6.8671    0.7315    0.0000 Cl  0  0  0  0  0  0  0  0  0  0  0  0
    6.5010   -0.6345    0.0000 Cl  0  0  0  0  0  0  0  0  0  0  0  0
    5.5010    1.0976    0.0000 Cl  0  0  0  0  0  0  0  0  0  0  0  0
    3.4030   -0.2685    0.0000 P   0  0  0  0  0  0  0  0  0  0  0  0
    4.2690    0.2315    0.0000 O   0  0  0  0  0  0  0  0  0  0  0  0
    2.5369   -0.7685    0.0000 O   0  0  0  0  0  0  0  0  0  0  0  0
    2.9030    0.5976    0.0000 O   0  0  0  0  0  0  0  0  0  0  0  0
    3.9030   -1.1345    0.0000 O   0  0  0  0  0  0  0  0  0  0  0  0
    5.1350   -0.2685    0.0000 C   0  0  0  0  0  0  0  0  0  0  0  0
    6.0010    0.2315    0.0000 C   0  0  0  0  0  0  0  0  0  0  0  0
    4.7365   -0.7434    0.0000 H   0  0  0  0  0  0  0  0  0  0  0  0
    5.5335   -0.7434    0.0000 H   0  0  0  0  0  0  0  0  0  0  0  0
    2.0000   -0.4585    0.0000 H   0  0  0  0  0  0  0  0  0  0  0  0
    3.2130    1.1345    0.0000 H   0  0  0  0  0  0  0  0  0  0  0  0
  1 10  1  0  0  0  0
  2 10  1  0  0  0  0
  3 10  1  0  0  0  0
  4  5  1  0  0  0  0
  4  6  1  0  0  0  0
  4  7  1  0  0  0  0
  4  8  2  0  0  0  0
  5  9  1  0  0  0  0
  6 13  1  0  0  0  0
  7 14  1  0  0  0  0
  9 10  1  0  0  0  0
  9 11  1  0  0  0  0
  9 12  1  0  0  0  0
M  END
> <PUBCHEM_COMPOUND_CID>
5563

> <PUBCHEM_COMPOUND_CANONICALIZED>
1

> <PUBCHEM_CACTVS_COMPLEXITY>
147

> <PUBCHEM_CACTVS_HBOND_ACCEPTOR>
4

> <PUBCHEM_CACTVS_HBOND_DONOR>
2

> <PUBCHEM_CACTVS_ROTATABLE_BOND>
2

> <PUBCHEM_CACTVS_SUBSKEYS>
AAADcYBAOAIGAAAAAAAAAAAAAAAAAAAAAAAAAAAAAAAAAAAAAAAAGgIACCAAAAKggIIAAAAAARAAQAAAAIAAAAAAAAAAAAAAAQAAAAAAAAAAAAAAAAAAAAAAAAAAAAAAAAAAAAAAAAAAAAAAAAAAAAAAAA==

> <PUBCHEM_IUPAC_OPENEYE_NAME>
2,2,2-trichloroethyl dihydrogen phosphate

> <PUBCHEM_IUPAC_CAS_NAME>
2,2,2-trichloroethyl dihydrogen phosphate

> <PUBCHEM_IUPAC_NAME>
2,2,2-trichloroethyl dihydrogen phosphate

> <PUBCHEM_IUPAC_SYSTEMATIC_NAME>
2,2,2-tris(chloranyl)ethyl dihydrogen phosphate

> <PUBCHEM_IUPAC_TRADITIONAL_NAME>
2,2,2-trichloroethyl dihydrogen phosphate

> <PUBCHEM_IUPAC_INCHI>
InChI=1S/C2H4Cl3O4P/c3-2(4,5)1-9-10(6,7)8/h1H2,(H2,6,7,8)

> <PUBCHEM_IUPAC_INCHIKEY>
YYQRGCZGSFRBAM-UHFFFAOYSA-N

> <PUBCHEM_XLOGP3_AA>
0.3

> <PUBCHEM_EXACT_MASS>
227.891278

> <PUBCHEM_MOLECULAR_FORMULA>
C2H4Cl3O4P

> <PUBCHEM_MOLECULAR_WEIGHT>
229.383522

> <PUBCHEM_OPENEYE_CAN_SMILES>
C(C(Cl)(Cl)Cl)OP(=O)(O)O

> <PUBCHEM_OPENEYE_ISO_SMILES>
C(C(Cl)(Cl)Cl)OP(=O)(O)O

> <PUBCHEM_CACTVS_TPSA>
66.8

> <PUBCHEM_MONOISOTOPIC_WEIGHT>
227.891278

> <PUBCHEM_TOTAL_CHARGE>
0

> <PUBCHEM_HEAVY_ATOM_COUNT>
10

> <PUBCHEM_ATOM_DEF_STEREO_COUNT>
0

> <PUBCHEM_ATOM_UDEF_STEREO_COUNT>
0

> <PUBCHEM_BOND_DEF_STEREO_COUNT>
0

> <PUBCHEM_BOND_UDEF_STEREO_COUNT>
0

> <PUBCHEM_ISOTOPIC_ATOM_COUNT>
0

> <PUBCHEM_COMPONENT_COUNT>
1

> <PUBCHEM_CACTVS_TAUTO_COUNT>
1

> <PUBCHEM_COORDINATE_TYPE>
1
5
255

$$$$

