439732
  -OEChem-07051212473D

 29 29  0     1  0  0  0  0  0999 V2000
    0.2567    1.8388    1.2688 O   0  0  0  0  0  0  0  0  0  0  0  0
    2.1371   -0.1586    0.0212 C   0  0  1  0  0  0  0  0  0  0  0  0
    1.3289    0.9443   -0.6903 C   0  0  0  0  0  0  0  0  0  0  0  0
    1.2952   -1.4357    0.1798 C   0  0  0  0  0  0  0  0  0  0  0  0
   -0.0067    1.2296    0.0057 C   0  0  1  0  0  0  0  0  0  0  0  0
   -0.0299   -1.1616    0.8933 C   0  0  0  0  0  0  0  0  0  0  0  0
   -0.7816   -0.0476    0.2122 C   0  0  0  0  0  0  0  0  0  0  0  0
    3.4276   -0.4558   -0.7408 C   0  0  0  0  0  0  0  0  0  0  0  0
   -2.0444   -0.1936   -0.2150 C   0  0  0  0  0  0  0  0  0  0  0  0
   -2.7865    0.9203   -0.8924 C   0  0  0  0  0  0  0  0  0  0  0  0
   -2.7963   -1.4801   -0.0425 C   0  0  0  0  0  0  0  0  0  0  0  0
    2.4138    0.1999    1.0215 H   0  0  0  0  0  0  0  0  0  0  0  0
    1.1405    0.6485   -1.7308 H   0  0  0  0  0  0  0  0  0  0  0  0
    1.9307    1.8616   -0.7147 H   0  0  0  0  0  0  0  0  0  0  0  0
    1.8614   -2.1840    0.7476 H   0  0  0  0  0  0  0  0  0  0  0  0
    1.0928   -1.8732   -0.8068 H   0  0  0  0  0  0  0  0  0  0  0  0
   -0.5261    1.9750   -0.6009 H   0  0  0  0  0  0  0  0  0  0  0  0
    0.1734   -0.8616    1.9294 H   0  0  0  0  0  0  0  0  0  0  0  0
   -0.5865   -2.1001    0.9589 H   0  0  0  0  0  0  0  0  0  0  0  0
    3.2185   -0.8214   -1.7519 H   0  0  0  0  0  0  0  0  0  0  0  0
    4.0435    0.4454   -0.8270 H   0  0  0  0  0  0  0  0  0  0  0  0
    4.0185   -1.2172   -0.2208 H   0  0  0  0  0  0  0  0  0  0  0  0
   -0.6006    2.0383    1.6828 H   0  0  0  0  0  0  0  0  0  0  0  0
   -3.8694    0.7605   -0.8389 H   0  0  0  0  0  0  0  0  0  0  0  0
   -2.5124    0.9771   -1.9505 H   0  0  0  0  0  0  0  0  0  0  0  0
   -2.6168    1.8900   -0.4148 H   0  0  0  0  0  0  0  0  0  0  0  0
   -2.2588   -2.3196   -0.4959 H   0  0  0  0  0  0  0  0  0  0  0  0
   -3.7737   -1.4438   -0.5357 H   0  0  0  0  0  0  0  0  0  0  0  0
   -2.9781   -1.6869    1.0172 H   0  0  0  0  0  0  0  0  0  0  0  0
  1  5  1  0  0  0  0
  1 23  1  0  0  0  0
  2  3  1  0  0  0  0
  2  4  1  0  0  0  0
  2  8  1  0  0  0  0
  2 12  1  0  0  0  0
  3  5  1  0  0  0  0
  3 13  1  0  0  0  0
  3 14  1  0  0  0  0
  4  6  1  0  0  0  0
  4 15  1  0  0  0  0
  4 16  1  0  0  0  0
  5  7  1  0  0  0  0
  5 17  1  0  0  0  0
  6  7  1  0  0  0  0
  6 18  1  0  0  0  0
  6 19  1  0  0  0  0
  7  9  2  0  0  0  0
  8 20  1  0  0  0  0
  8 21  1  0  0  0  0
  8 22  1  0  0  0  0
  9 10  1  0  0  0  0
  9 11  1  0  0  0  0
 10 24  1  0  0  0  0
 10 25  1  0  0  0  0
 10 26  1  0  0  0  0
 11 27  1  0  0  0  0
 11 28  1  0  0  0  0
 11 29  1  0  0  0  0
M  END
> <PUBCHEM_COMPOUND_CID>
439732

> <PUBCHEM_CONFORMER_RMSD>
0.4

> <PUBCHEM_CONFORMER_DIVERSEORDER>
2
7
3
5
4
6
1

> <PUBCHEM_MMFF94_PARTIAL_CHARGES>
8
1 -0.68
10 0.14
11 0.14
23 0.4
5 0.42
6 0.14
7 -0.28
9 -0.28

> <PUBCHEM_EFFECTIVE_ROTOR_COUNT>
1

> <PUBCHEM_PHARMACOPHORE_FEATURES>
4
1 1 acceptor
1 1 donor
3 9 10 11 hydrophobe
6 2 3 4 5 6 7 rings

> <PUBCHEM_HEAVY_ATOM_COUNT>
11

> <PUBCHEM_ATOM_DEF_STEREO_COUNT>
2

> <PUBCHEM_ATOM_UDEF_STEREO_COUNT>
0

> <PUBCHEM_BOND_DEF_STEREO_COUNT>
0

> <PUBCHEM_BOND_UDEF_STEREO_COUNT>
0

> <PUBCHEM_ISOTOPIC_ATOM_COUNT>
0

> <PUBCHEM_COMPONENT_COUNT>
1

> <PUBCHEM_CACTVS_TAUTO_COUNT>
1

> <PUBCHEM_CONFORMER_ID>
0006B5B400000002

> <PUBCHEM_MMFF94_ENERGY>
17.0936

> <PUBCHEM_FEATURE_SELFOVERLAP>
20.297

> <PUBCHEM_SHAPE_FINGERPRINT>
11206711 2 18201441350531990407
12423570 1 10509210981061074937
12897270 3 18410293644215106734
14128692 85 18411415081487281598
15775835 57 17845933030191629959
161256 15 18194127304847607443
16945 1 18341618177850661724
17844478 74 17774705494855942307
20201158 50 18411981381589280694
20653085 51 16988264435421996644
20711985 344 17460590570065232816
21040471 1 18128824031797115177
21293036 1 18272080566059176382
23402539 116 18409736179510007014
23402655 69 18198922468720355205
23552423 10 18202567258954751855
23559900 14 18409731781790322318
2748010 2 18268997483609271141
29004967 10 17822009796012105306
3312278 4 18410571824793554710
5084963 1 18270962328289444151
528886 8 17846222184590932189

> <PUBCHEM_SHAPE_MULTIPOLES>
220.51
4.36
1.69
0.96
0.29
0.03
0.13
-0.81
-1.6
-0.36
0.27
0.07
0.23
0.18

> <PUBCHEM_SHAPE_SELFOVERLAP>
433.106

> <PUBCHEM_SHAPE_VOLUME>
133

> <PUBCHEM_COORDINATE_TYPE>
2
5
10

$$$$

