160500
  -OEChem-07051213102D

 45 48  0     1  0  0  0  0  0999 V2000
    5.5103    1.4936    0.0000 O   0  0  0  0  0  0  0  0  0  0  0  0
    7.2762    2.5314    0.0000 O   0  0  0  0  0  0  0  0  0  0  0  0
    4.6497    0.9968    0.0000 O   0  0  0  0  0  0  0  0  0  0  0  0
    2.8680   -0.0137    0.0000 O   0  0  0  0  0  0  0  0  0  0  0  0
    8.1223   -2.0348    0.0000 N   0  0  3  0  0  0  0  0  0  0  0  0
    7.2641   -1.5378    0.0000 C   0  0  2  0  0  0  0  0  0  0  0  0
    7.2641   -0.5378    0.0000 C   0  0  0  0  0  0  0  0  0  0  0  0
    6.3981   -2.0378    0.0000 C   0  0  0  0  0  0  0  0  0  0  0  0
    8.1741   -0.0310    0.0000 C   0  0  0  0  0  0  0  0  0  0  0  0
    8.9878   -1.5506    0.0000 C   0  0  0  0  0  0  0  0  0  0  0  0
    6.3981   -0.0378    0.0000 C   0  0  0  0  0  0  0  0  0  0  0  0
    9.0134   -0.5592    0.0000 C   0  0  0  0  0  0  0  0  0  0  0  0
    5.5320   -1.5378    0.0000 C   0  0  0  0  0  0  0  0  0  0  0  0
    5.5320   -0.5378    0.0000 C   0  0  0  0  0  0  0  0  0  0  0  0
    8.1821    1.0106    0.0000 C   0  0  0  0  0  0  0  0  0  0  0  0
    6.3820    1.0037    0.0000 C   0  0  0  0  0  0  0  0  0  0  0  0
    8.1149   -3.0348    0.0000 C   0  0  0  0  0  0  0  0  0  0  0  0
    7.2800    1.5314    0.0000 C   0  0  0  0  0  0  0  0  0  0  0  0
    4.6381   -0.0032    0.0000 C   0  0  0  0  0  0  0  0  0  0  0  0
    4.6381   -2.0725    0.0000 C   0  0  0  0  0  0  0  0  0  0  0  0
    3.7320   -0.5170    0.0000 C   0  0  0  0  0  0  0  0  0  0  0  0
    3.7320   -1.5587    0.0000 C   0  0  0  0  0  0  0  0  0  0  0  0
    8.1403    3.0348    0.0000 C   0  0  0  0  0  0  0  0  0  0  0  0
    2.0000   -0.5104    0.0000 C   0  0  0  0  0  0  0  0  0  0  0  0
    7.2636   -2.3878    0.0000 H   0  0  0  0  0  0  0  0  0  0  0  0
    5.9995   -2.5128    0.0000 H   0  0  0  0  0  0  0  0  0  0  0  0
    6.7966   -2.5128    0.0000 H   0  0  0  0  0  0  0  0  0  0  0  0
    9.1895   -2.1369    0.0000 H   0  0  0  0  0  0  0  0  0  0  0  0
    9.6006   -1.4562    0.0000 H   0  0  0  0  0  0  0  0  0  0  0  0
    9.6205   -0.6851    0.0000 H   0  0  0  0  0  0  0  0  0  0  0  0
    9.2452    0.0158    0.0000 H   0  0  0  0  0  0  0  0  0  0  0  0
    8.7203    1.3185    0.0000 H   0  0  0  0  0  0  0  0  0  0  0  0
    7.4949   -3.0302    0.0000 H   0  0  0  0  0  0  0  0  0  0  0  0
    8.1103   -3.6547    0.0000 H   0  0  0  0  0  0  0  0  0  0  0  0
    8.7349   -3.0393    0.0000 H   0  0  0  0  0  0  0  0  0  0  0  0
    4.6453   -2.6925    0.0000 H   0  0  0  0  0  0  0  0  0  0  0  0
    3.1963   -1.8707    0.0000 H   0  0  0  0  0  0  0  0  0  0  0  0
    5.5031    2.1136    0.0000 H   0  0  0  0  0  0  0  0  0  0  0  0
    4.1164    1.3129    0.0000 H   0  0  0  0  0  0  0  0  0  0  0  0
    8.4523    2.4990    0.0000 H   0  0  0  0  0  0  0  0  0  0  0  0
    8.6760    3.3468    0.0000 H   0  0  0  0  0  0  0  0  0  0  0  0
    7.8282    3.5705    0.0000 H   0  0  0  0  0  0  0  0  0  0  0  0
    1.6921    0.0278    0.0000 H   0  0  0  0  0  0  0  0  0  0  0  0
    1.4619   -0.8183    0.0000 H   0  0  0  0  0  0  0  0  0  0  0  0
    2.3079   -1.0485    0.0000 H   0  0  0  0  0  0  0  0  0  0  0  0
  1 16  1  0  0  0  0
  1 38  1  0  0  0  0
  2 18  1  0  0  0  0
  2 23  1  0  0  0  0
  3 19  1  0  0  0  0
  3 39  1  0  0  0  0
  4 21  1  0  0  0  0
  4 24  1  0  0  0  0
  5  6  1  0  0  0  0
  5 10  1  0  0  0  0
  5 17  1  0  0  0  0
  6  7  1  0  0  0  0
  6  8  1  0  0  0  0
  6 25  1  6  0  0  0
  7  9  1  0  0  0  0
  7 11  2  0  0  0  0
  8 13  1  0  0  0  0
  8 26  1  0  0  0  0
  8 27  1  0  0  0  0
  9 12  1  0  0  0  0
  9 15  2  0  0  0  0
 10 12  1  0  0  0  0
 10 28  1  0  0  0  0
 10 29  1  0  0  0  0
 11 14  1  0  0  0  0
 11 16  1  0  0  0  0
 12 30  1  0  0  0  0
 12 31  1  0  0  0  0
 13 14  2  0  0  0  0
 13 20  1  0  0  0  0
 14 19  1  0  0  0  0
 15 18  1  0  0  0  0
 15 32  1  0  0  0  0
 16 18  2  0  0  0  0
 17 33  1  0  0  0  0
 17 34  1  0  0  0  0
 17 35  1  0  0  0  0
 19 21  2  0  0  0  0
 20 22  2  0  0  0  0
 20 36  1  0  0  0  0
 21 22  1  0  0  0  0
 22 37  1  0  0  0  0
 23 40  1  0  0  0  0
 23 41  1  0  0  0  0
 23 42  1  0  0  0  0
 24 43  1  0  0  0  0
 24 44  1  0  0  0  0
 24 45  1  0  0  0  0
M  END
> <PUBCHEM_COMPOUND_CID>
160500

> <PUBCHEM_COMPOUND_CANONICALIZED>
1

> <PUBCHEM_CACTVS_COMPLEXITY>
461

> <PUBCHEM_CACTVS_HBOND_ACCEPTOR>
5

> <PUBCHEM_CACTVS_HBOND_DONOR>
2

> <PUBCHEM_CACTVS_ROTATABLE_BOND>
2

> <PUBCHEM_CACTVS_SUBSKEYS>
AAADceB6OAAAAAAAAAAAAAAAAAAAAAAAAAA8YMEAAAAAAADxQAAAHgAACAAADCzBmAYyBoMABgCAAiBCAACCCAAgIAAIiAAOjIgNJiKGsRuEcCtkwBGLuAfw8P8OoAADAAAYQADQAAaAADSAAAAAAAAAAA==

> <PUBCHEM_IUPAC_OPENEYE_NAME>
(8S)-2,13-dimethoxy-7-methyl-5,6,6a,7-tetrahydro-4H-dibenzo[de,g]quinoline-1,14-diol

> <PUBCHEM_IUPAC_CAS_NAME>
(8S)-2,13-dimethoxy-7-methyl-5,6,6a,7-tetrahydro-4H-dibenzo[de,g]quinoline-1,14-diol

> <PUBCHEM_IUPAC_NAME>
(8S)-2,13-dimethoxy-7-methyl-5,6,6a,7-tetrahydro-4H-dibenzo[de,g]quinoline-1,14-diol

> <PUBCHEM_IUPAC_SYSTEMATIC_NAME>
(8S)-2,13-dimethoxy-7-methyl-5,6,6a,7-tetrahydro-4H-dibenzo[de,g]quinoline-1,14-diol

> <PUBCHEM_IUPAC_TRADITIONAL_NAME>
(8S)-2,13-dimethoxy-7-methyl-5,6,6a,7-tetrahydro-4H-dibenzo[de,g]quinoline-1,14-diol

> <PUBCHEM_IUPAC_INCHI>
InChI=1S/C19H21NO4/c1-20-7-6-11-9-14(24-3)19(22)17-15(11)12(20)8-10-4-5-13(23-2)18(21)16(10)17/h4-5,9,12,21-22H,6-8H2,1-3H3/t12-/m0/s1

> <PUBCHEM_IUPAC_INCHIKEY>
WHFUDAOCYRYAKQ-LBPRGKRZSA-N

> <PUBCHEM_XLOGP3>
2.2

> <PUBCHEM_EXACT_MASS>
327.147058

> <PUBCHEM_MOLECULAR_FORMULA>
C19H21NO4

> <PUBCHEM_MOLECULAR_WEIGHT>
327.37434

> <PUBCHEM_OPENEYE_CAN_SMILES>
CN1CCC2=CC(=C(C3=C2C1CC4=C3C(=C(C=C4)OC)O)O)OC

> <PUBCHEM_OPENEYE_ISO_SMILES>
CN1CCC2=CC(=C(C3=C2[C@@H]1CC4=C3C(=C(C=C4)OC)O)O)OC

> <PUBCHEM_CACTVS_TPSA>
62.2

> <PUBCHEM_MONOISOTOPIC_WEIGHT>
327.147058

> <PUBCHEM_TOTAL_CHARGE>
0

> <PUBCHEM_HEAVY_ATOM_COUNT>
24

> <PUBCHEM_ATOM_DEF_STEREO_COUNT>
1

> <PUBCHEM_ATOM_UDEF_STEREO_COUNT>
0

> <PUBCHEM_BOND_DEF_STEREO_COUNT>
0

> <PUBCHEM_BOND_UDEF_STEREO_COUNT>
0

> <PUBCHEM_ISOTOPIC_ATOM_COUNT>
0

> <PUBCHEM_COMPONENT_COUNT>
1

> <PUBCHEM_CACTVS_TAUTO_COUNT>
118

> <PUBCHEM_COORDINATE_TYPE>
1
5
255

> <PUBCHEM_BONDANNOTATIONS>
11  16  8
13  14  8
13  20  8
14  19  8
15  18  8
16  18  8
19  21  8
20  22  8
21  22  8
6  25  6
7  11  8
7  9  8
9  15  8

$$$$

