222805
  -OEChem-07051213073D

 55 58  0     1  0  0  0  0  0999 V2000
    0.1814    2.8737    0.1666 O   0  0  0  0  0  0  0  0  0  0  0  0
    2.0001   -2.5796   -1.3702 O   0  0  0  0  0  0  0  0  0  0  0  0
   -5.6075   -0.0768   -0.7574 O   0  0  0  0  0  0  0  0  0  0  0  0
    6.0324    0.4275    0.9872 O   0  0  0  0  0  0  0  0  0  0  0  0
   -1.5260   -0.9028    0.5810 C   0  0  2  0  0  0  0  0  0  0  0  0
   -2.4228    0.1784   -0.0535 C   0  0  2  0  0  0  0  0  0  0  0  0
   -0.1222   -0.9469   -0.0320 C   0  0  1  0  0  0  0  0  0  0  0  0
    0.5857    0.4345    0.1792 C   0  0  1  0  0  0  0  0  0  0  0  0
    2.0595    0.4431   -0.4217 C   0  0  2  0  0  0  0  0  0  0  0  0
   -1.7792    1.5337    0.2424 C   0  0  0  0  0  0  0  0  0  0  0  0
   -3.7335   -0.0948    0.7172 C   0  0  2  0  0  0  0  0  0  0  0  0
   -0.3300    1.6189   -0.2796 C   0  0  1  0  0  0  0  0  0  0  0  0
   -2.3952   -2.1562    0.5258 C   0  0  0  0  0  0  0  0  0  0  0  0
    0.7138   -2.0728    0.5929 C   0  0  0  0  0  0  0  0  0  0  0  0
   -3.8176   -1.6325    0.7902 C   0  0  0  0  0  0  0  0  0  0  0  0
    2.8232   -0.8120    0.0466 C   0  0  0  0  0  0  0  0  0  0  0  0
    2.1083   -2.1438   -0.0158 C   0  0  2  0  0  0  0  0  0  0  0  0
   -2.6284    0.0150   -1.5813 C   0  0  0  0  0  0  0  0  0  0  0  0
    2.8145    1.7143    0.0729 C   0  0  0  0  0  0  0  0  0  0  0  0
    2.0380    0.4678   -1.9680 C   0  0  0  0  0  0  0  0  0  0  0  0
   -4.9536    0.5152    0.0999 C   0  0  0  0  0  0  0  0  0  0  0  0
    4.3203    1.6637   -0.1358 C   0  0  0  0  0  0  0  0  0  0  0  0
    4.0845   -0.7951    0.5131 C   0  0  0  0  0  0  0  0  0  0  0  0
    4.8962    0.4407    0.5186 C   0  0  0  0  0  0  0  0  0  0  0  0
   -5.3421    1.8868    0.5817 C   0  0  0  0  0  0  0  0  0  0  0  0
   -1.3968   -0.6671    1.6508 H   0  0  0  0  0  0  0  0  0  0  0  0
   -0.2125   -1.1547   -1.1029 H   0  0  0  0  0  0  0  0  0  0  0  0
    0.7094    0.5562    1.2677 H   0  0  0  0  0  0  0  0  0  0  0  0
   -1.7826    1.7303    1.3235 H   0  0  0  0  0  0  0  0  0  0  0  0
   -2.3625    2.3512   -0.1981 H   0  0  0  0  0  0  0  0  0  0  0  0
   -3.6548    0.2782    1.7479 H   0  0  0  0  0  0  0  0  0  0  0  0
   -0.3531    1.6646   -1.3721 H   0  0  0  0  0  0  0  0  0  0  0  0
   -2.1007   -2.8960    1.2770 H   0  0  0  0  0  0  0  0  0  0  0  0
   -2.3401   -2.6398   -0.4558 H   0  0  0  0  0  0  0  0  0  0  0  0
    0.2073   -3.0326    0.4357 H   0  0  0  0  0  0  0  0  0  0  0  0
    0.7915   -1.9208    1.6772 H   0  0  0  0  0  0  0  0  0  0  0  0
   -4.5155   -2.0776    0.0735 H   0  0  0  0  0  0  0  0  0  0  0  0
   -4.1554   -1.9373    1.7878 H   0  0  0  0  0  0  0  0  0  0  0  0
    2.6767   -2.9172    0.5150 H   0  0  0  0  0  0  0  0  0  0  0  0
   -3.1309   -0.9229   -1.8383 H   0  0  0  0  0  0  0  0  0  0  0  0
   -3.2394    0.8329   -1.9803 H   0  0  0  0  0  0  0  0  0  0  0  0
   -1.6886    0.0326   -2.1393 H   0  0  0  0  0  0  0  0  0  0  0  0
    2.6224    1.8590    1.1451 H   0  0  0  0  0  0  0  0  0  0  0  0
    2.4484    2.6093   -0.4410 H   0  0  0  0  0  0  0  0  0  0  0  0
    3.0344    0.2883   -2.3882 H   0  0  0  0  0  0  0  0  0  0  0  0
    1.3724   -0.2899   -2.3906 H   0  0  0  0  0  0  0  0  0  0  0  0
    1.7011    1.4382   -2.3484 H   0  0  0  0  0  0  0  0  0  0  0  0
    4.7757    2.5498    0.3204 H   0  0  0  0  0  0  0  0  0  0  0  0
    4.5849    1.6535   -1.1978 H   0  0  0  0  0  0  0  0  0  0  0  0
    0.2392    2.8445    1.1368 H   0  0  0  0  0  0  0  0  0  0  0  0
    4.5808   -1.6976    0.8549 H   0  0  0  0  0  0  0  0  0  0  0  0
    1.5642   -3.4487   -1.3673 H   0  0  0  0  0  0  0  0  0  0  0  0
   -5.4582    1.8791    1.6684 H   0  0  0  0  0  0  0  0  0  0  0  0
   -4.5886    2.6185    0.2869 H   0  0  0  0  0  0  0  0  0  0  0  0
   -6.2992    2.1714    0.1350 H   0  0  0  0  0  0  0  0  0  0  0  0
  1 12  1  0  0  0  0
  1 50  1  0  0  0  0
  2 17  1  0  0  0  0
  2 52  1  0  0  0  0
  3 21  2  0  0  0  0
  4 24  2  0  0  0  0
  5  6  1  0  0  0  0
  5  7  1  0  0  0  0
  5 13  1  0  0  0  0
  5 26  1  0  0  0  0
  6 10  1  0  0  0  0
  6 11  1  0  0  0  0
  6 18  1  0  0  0  0
  7  8  1  0  0  0  0
  7 14  1  0  0  0  0
  7 27  1  0  0  0  0
  8  9  1  0  0  0  0
  8 12  1  0  0  0  0
  8 28  1  0  0  0  0
  9 16  1  0  0  0  0
  9 19  1  0  0  0  0
  9 20  1  0  0  0  0
 10 12  1  0  0  0  0
 10 29  1  0  0  0  0
 10 30  1  0  0  0  0
 11 15  1  0  0  0  0
 11 21  1  0  0  0  0
 11 31  1  0  0  0  0
 12 32  1  0  0  0  0
 13 15  1  0  0  0  0
 13 33  1  0  0  0  0
 13 34  1  0  0  0  0
 14 17  1  0  0  0  0
 14 35  1  0  0  0  0
 14 36  1  0  0  0  0
 15 37  1  0  0  0  0
 15 38  1  0  0  0  0
 16 17  1  0  0  0  0
 16 23  2  0  0  0  0
 17 39  1  0  0  0  0
 18 40  1  0  0  0  0
 18 41  1  0  0  0  0
 18 42  1  0  0  0  0
 19 22  1  0  0  0  0
 19 43  1  0  0  0  0
 19 44  1  0  0  0  0
 20 45  1  0  0  0  0
 20 46  1  0  0  0  0
 20 47  1  0  0  0  0
 21 25  1  0  0  0  0
 22 24  1  0  0  0  0
 22 48  1  0  0  0  0
 22 49  1  0  0  0  0
 23 24  1  0  0  0  0
 23 51  1  0  0  0  0
 25 53  1  0  0  0  0
 25 54  1  0  0  0  0
 25 55  1  0  0  0  0
M  END
> <PUBCHEM_COMPOUND_CID>
222805

> <PUBCHEM_CONFORMER_RMSD>
0.6

> <PUBCHEM_CONFORMER_DIVERSEORDER>
1
2

> <PUBCHEM_MMFF94_PARTIAL_CHARGES>
17
1 -0.68
11 0.06
12 0.28
16 -0.28
17 0.42
2 -0.68
21 0.45
22 0.06
23 -0.14
24 0.49
25 0.06
3 -0.57
4 -0.57
50 0.4
51 0.15
52 0.4
9 0.14

> <PUBCHEM_EFFECTIVE_ROTOR_COUNT>
2.8

> <PUBCHEM_PHARMACOPHORE_FEATURES>
10
1 1 acceptor
1 1 donor
1 2 acceptor
1 2 donor
1 3 acceptor
1 4 acceptor
5 5 6 11 13 15 rings
6 5 6 7 8 10 12 rings
6 7 8 9 14 16 17 rings
6 9 16 19 22 23 24 rings

> <PUBCHEM_HEAVY_ATOM_COUNT>
25

> <PUBCHEM_ATOM_DEF_STEREO_COUNT>
8

> <PUBCHEM_ATOM_UDEF_STEREO_COUNT>
0

> <PUBCHEM_BOND_DEF_STEREO_COUNT>
0

> <PUBCHEM_BOND_UDEF_STEREO_COUNT>
0

> <PUBCHEM_ISOTOPIC_ATOM_COUNT>
0

> <PUBCHEM_COMPONENT_COUNT>
1

> <PUBCHEM_CACTVS_TAUTO_COUNT>
6

> <PUBCHEM_CONFORMER_ID>
0003665500000001

> <PUBCHEM_MMFF94_ENERGY>
81.9588

> <PUBCHEM_FEATURE_SELFOVERLAP>
50.837

> <PUBCHEM_SHAPE_FINGERPRINT>
10366900 7 17749108876671711817
10906281 52 18341596119188916264
10967382 1 18411978078716965610
11089746 13 17676213458979059105
11578080 2 16772125862986807646
12011746 2 18410851058651749388
12236239 1 17749393684780459431
12403260 363 18196657284944569094
12553582 1 18266998657559425753
12633257 1 17203327771437690870
12788726 201 17749380529143281953
13140716 1 18267585706516329352
13224815 77 18341325626195544630
13402501 40 18413389821576932354
13583140 156 17676490502045294915
14223421 5 18338233898730710398
14790565 3 17980470175284739756
15081414 286 18337377331664658889
15196674 1 18341610378216458578
15238133 3 18342447171074413549
15375358 24 18410289207619404387
15788980 27 16487256556257233897
1601671 61 18409445881937143288
16945 1 18336532872158153358
17349148 13 18343869909198032316
17980427 23 18058730195960419068
1813 80 16773791510921606831
19784866 9 18342738520154135216
200 152 18186806868130588555
20511986 3 18188506756009382545
20715895 44 18059019509405828173
21033648 29 17845395313219084660
21267235 1 18340759403503534626
21279426 13 18196372739730958293
21421861 104 17916310613596677434
21452121 103 18336546109447988674
21859007 373 17273149113918455485
22182313 1 17845097444483431125
23402539 116 18335427828791880718
23559900 14 18410849958850055644
26918003 58 18272654536587455816
296302 2 18333449841601556571
335352 9 18413107272858410710
34797466 226 16081368501437011265
34934 24 18409451396991740235
350125 39 18341894074504047132
3680242 22 18200594816635578010
4072396 5 18341059566378601570
4340502 62 18342451556699953899
474 4 18411136922425725058
5104073 3 18272650121366221147
6004065 56 18189911828991204501
9709674 26 18337386153374458559

> <PUBCHEM_SHAPE_MULTIPOLES>
491.01
10.91
2.5
1.11
1.71
0.24
-0.49
-2.69
2.02
-0.12
0.14
-0.13
0.09
0.21

> <PUBCHEM_SHAPE_SELFOVERLAP>
1053.457

> <PUBCHEM_SHAPE_VOLUME>
269

> <PUBCHEM_COORDINATE_TYPE>
2
5
10

$$$$

