5281267
  -OEChem-07051212553D

 68 70  0     1  0  0  0  0  0999 V2000
   -5.9648   -2.5887    0.8544 O   0  0  0  0  0  0  0  0  0  0  0  0
   -2.1567    3.0986   -1.5894 O   0  0  0  0  0  0  0  0  0  0  0  0
    4.1261    0.5454   -0.3232 O   0  0  0  0  0  0  0  0  0  0  0  0
    4.5517    2.0149    1.4084 O   0  0  0  0  0  0  0  0  0  0  0  0
    6.5719   -2.1993   -0.6207 N   0  0  0  0  0  0  0  0  0  0  0  0
   -2.0902   -0.7326    0.1586 C   0  0  1  0  0  0  0  0  0  0  0  0
   -3.4097    0.0452   -0.2118 C   0  0  2  0  0  0  0  0  0  0  0  0
   -1.0220    0.3643    0.5635 C   0  0  2  0  0  0  0  0  0  0  0  0
   -4.7394   -0.7995   -0.2925 C   0  0  0  0  0  0  0  0  0  0  0  0
   -0.7672    1.4066   -0.5588 C   0  0  2  0  0  0  0  0  0  0  0  0
   -2.3656   -1.6501    1.3796 C   0  0  0  0  0  0  0  0  0  0  0  0
   -3.1790    0.9583   -1.4247 C   0  0  0  0  0  0  0  0  0  0  0  0
   -4.8472   -1.7081    0.9649 C   0  0  2  0  0  0  0  0  0  0  0  0
   -3.5936   -2.5360    1.2205 C   0  0  0  0  0  0  0  0  0  0  0  0
    0.3358   -0.2124    1.0378 C   0  0  0  0  0  0  0  0  0  0  0  0
   -1.5412   -1.6079   -0.9931 C   0  0  0  0  0  0  0  0  0  0  0  0
    0.1815    2.5462   -0.0938 C   0  0  2  0  0  0  0  0  0  0  0  0
   -2.0589    1.9428   -1.1728 C   0  0  0  0  0  0  0  0  0  0  0  0
    1.3147    0.8772    1.4824 C   0  0  0  0  0  0  0  0  0  0  0  0
   -4.8875   -1.6238   -1.5900 C   0  0  0  0  0  0  0  0  0  0  0  0
   -5.9612    0.1631   -0.2645 C   0  0  0  0  0  0  0  0  0  0  0  0
    1.4701    1.9350    0.4223 C   0  0  0  0  0  0  0  0  0  0  0  0
   -0.4162    3.4783    0.9719 C   0  0  0  0  0  0  0  0  0  0  0  0
    2.6717    2.2894   -0.0577 C   0  0  0  0  0  0  0  0  0  0  0  0
    3.8896    1.6350    0.4557 C   0  0  0  0  0  0  0  0  0  0  0  0
    5.2802   -0.2244    0.0298 C   0  0  0  0  0  0  0  0  0  0  0  0
    5.3989   -1.3960   -0.9318 C   0  0  0  0  0  0  0  0  0  0  0  0
    6.7106   -3.3044   -1.5725 C   0  0  0  0  0  0  0  0  0  0  0  0
    6.4976   -2.7172    0.7475 C   0  0  0  0  0  0  0  0  0  0  0  0
   -3.5787    0.7261    0.6395 H   0  0  0  0  0  0  0  0  0  0  0  0
   -1.4506    0.8995    1.4228 H   0  0  0  0  0  0  0  0  0  0  0  0
   -0.2605    0.8955   -1.3906 H   0  0  0  0  0  0  0  0  0  0  0  0
   -2.5003   -1.0339    2.2786 H   0  0  0  0  0  0  0  0  0  0  0  0
   -1.5037   -2.2983    1.5773 H   0  0  0  0  0  0  0  0  0  0  0  0
   -4.0724    1.5526   -1.6374 H   0  0  0  0  0  0  0  0  0  0  0  0
   -2.9371    0.3967   -2.3313 H   0  0  0  0  0  0  0  0  0  0  0  0
   -5.0197   -1.0851    1.8531 H   0  0  0  0  0  0  0  0  0  0  0  0
   -3.4484   -3.2773    0.4270 H   0  0  0  0  0  0  0  0  0  0  0  0
   -3.7348   -3.1271    2.1345 H   0  0  0  0  0  0  0  0  0  0  0  0
    0.8070   -0.7883    0.2329 H   0  0  0  0  0  0  0  0  0  0  0  0
    0.1893   -0.8969    1.8795 H   0  0  0  0  0  0  0  0  0  0  0  0
   -2.2366   -2.3875   -1.2986 H   0  0  0  0  0  0  0  0  0  0  0  0
   -1.2927   -1.0296   -1.8861 H   0  0  0  0  0  0  0  0  0  0  0  0
   -0.6311   -2.1363   -0.6904 H   0  0  0  0  0  0  0  0  0  0  0  0
    0.4057    3.1723   -0.9690 H   0  0  0  0  0  0  0  0  0  0  0  0
    2.2535    0.3909    1.7642 H   0  0  0  0  0  0  0  0  0  0  0  0
    0.9402    1.3469    2.4004 H   0  0  0  0  0  0  0  0  0  0  0  0
   -5.9019   -2.0311   -1.6836 H   0  0  0  0  0  0  0  0  0  0  0  0
   -4.7168   -1.0146   -2.4825 H   0  0  0  0  0  0  0  0  0  0  0  0
   -4.2165   -2.4811   -1.6295 H   0  0  0  0  0  0  0  0  0  0  0  0
   -6.9118   -0.3803   -0.2364 H   0  0  0  0  0  0  0  0  0  0  0  0
   -5.9303    0.8175    0.6138 H   0  0  0  0  0  0  0  0  0  0  0  0
   -6.0013    0.7986   -1.1545 H   0  0  0  0  0  0  0  0  0  0  0  0
   -1.3032    3.9991    0.6003 H   0  0  0  0  0  0  0  0  0  0  0  0
   -0.7049    2.9492    1.8848 H   0  0  0  0  0  0  0  0  0  0  0  0
    0.3103    4.2482    1.2574 H   0  0  0  0  0  0  0  0  0  0  0  0
   -6.7715   -2.0714    1.0139 H   0  0  0  0  0  0  0  0  0  0  0  0
    2.7957    3.0400   -0.8291 H   0  0  0  0  0  0  0  0  0  0  0  0
    6.1706    0.4134   -0.0286 H   0  0  0  0  0  0  0  0  0  0  0  0
    5.1357   -0.5557    1.0629 H   0  0  0  0  0  0  0  0  0  0  0  0
    4.4752   -1.9901   -0.9045 H   0  0  0  0  0  0  0  0  0  0  0  0
    5.4704   -0.9981   -1.9525 H   0  0  0  0  0  0  0  0  0  0  0  0
    5.8598   -3.9942   -1.5310 H   0  0  0  0  0  0  0  0  0  0  0  0
    7.6267   -3.8718   -1.3740 H   0  0  0  0  0  0  0  0  0  0  0  0
    6.7958   -2.9218   -2.5958 H   0  0  0  0  0  0  0  0  0  0  0  0
    5.5462   -3.2211    0.9538 H   0  0  0  0  0  0  0  0  0  0  0  0
    6.6609   -1.9312    1.4911 H   0  0  0  0  0  0  0  0  0  0  0  0
    7.3019   -3.4420    0.9245 H   0  0  0  0  0  0  0  0  0  0  0  0
  1 13  1  0  0  0  0
  1 57  1  0  0  0  0
  2 18  2  0  0  0  0
  3 25  1  0  0  0  0
  3 26  1  0  0  0  0
  4 25  2  0  0  0  0
  5 27  1  0  0  0  0
  5 28  1  0  0  0  0
  5 29  1  0  0  0  0
  6  7  1  0  0  0  0
  6  8  1  0  0  0  0
  6 11  1  0  0  0  0
  6 16  1  0  0  0  0
  7  9  1  0  0  0  0
  7 12  1  0  0  0  0
  7 30  1  0  0  0  0
  8 10  1  0  0  0  0
  8 15  1  0  0  0  0
  8 31  1  0  0  0  0
  9 13  1  0  0  0  0
  9 20  1  0  0  0  0
  9 21  1  0  0  0  0
 10 17  1  0  0  0  0
 10 18  1  0  0  0  0
 10 32  1  0  0  0  0
 11 14  1  0  0  0  0
 11 33  1  0  0  0  0
 11 34  1  0  0  0  0
 12 18  1  0  0  0  0
 12 35  1  0  0  0  0
 12 36  1  0  0  0  0
 13 14  1  0  0  0  0
 13 37  1  0  0  0  0
 14 38  1  0  0  0  0
 14 39  1  0  0  0  0
 15 19  1  0  0  0  0
 15 40  1  0  0  0  0
 15 41  1  0  0  0  0
 16 42  1  0  0  0  0
 16 43  1  0  0  0  0
 16 44  1  0  0  0  0
 17 22  1  0  0  0  0
 17 23  1  0  0  0  0
 17 45  1  0  0  0  0
 19 22  1  0  0  0  0
 19 46  1  0  0  0  0
 19 47  1  0  0  0  0
 20 48  1  0  0  0  0
 20 49  1  0  0  0  0
 20 50  1  0  0  0  0
 21 51  1  0  0  0  0
 21 52  1  0  0  0  0
 21 53  1  0  0  0  0
 22 24  2  0  0  0  0
 23 54  1  0  0  0  0
 23 55  1  0  0  0  0
 23 56  1  0  0  0  0
 24 25  1  0  0  0  0
 24 58  1  0  0  0  0
 26 27  1  0  0  0  0
 26 59  1  0  0  0  0
 26 60  1  0  0  0  0
 27 61  1  0  0  0  0
 27 62  1  0  0  0  0
 28 63  1  0  0  0  0
 28 64  1  0  0  0  0
 28 65  1  0  0  0  0
 29 66  1  0  0  0  0
 29 67  1  0  0  0  0
 29 68  1  0  0  0  0
M  END
> <PUBCHEM_COMPOUND_CID>
5281267

> <PUBCHEM_CONFORMER_RMSD>
0.8

> <PUBCHEM_CONFORMER_DIVERSEORDER>
1
22
30
16
31
24
14
4
32
23
29
7
8
25
5
17
20
10
12
21
3
11
26
2
9
15
13
18
27
19
6
28

> <PUBCHEM_MMFF94_PARTIAL_CHARGES>
20
1 -0.68
10 0.06
12 0.06
13 0.28
17 0.14
18 0.45
19 0.14
2 -0.57
22 -0.28
24 -0.14
25 0.71
26 0.28
27 0.27
28 0.27
29 0.27
3 -0.43
4 -0.57
5 -0.81
57 0.4
58 0.15

> <PUBCHEM_EFFECTIVE_ROTOR_COUNT>
6.6

> <PUBCHEM_PHARMACOPHORE_FEATURES>
9
1 1 acceptor
1 1 donor
1 2 acceptor
1 4 acceptor
1 5 cation
3 9 20 21 hydrophobe
6 6 7 8 10 12 18 rings
6 6 7 9 11 13 14 rings
6 8 10 15 17 19 22 rings

> <PUBCHEM_HEAVY_ATOM_COUNT>
29

> <PUBCHEM_ATOM_DEF_STEREO_COUNT>
6

> <PUBCHEM_ATOM_UDEF_STEREO_COUNT>
0

> <PUBCHEM_BOND_DEF_STEREO_COUNT>
1

> <PUBCHEM_BOND_UDEF_STEREO_COUNT>
0

> <PUBCHEM_ISOTOPIC_ATOM_COUNT>
0

> <PUBCHEM_COMPONENT_COUNT>
1

> <PUBCHEM_CACTVS_TAUTO_COUNT>
3

> <PUBCHEM_CONFORMER_ID>
005095F300000001

> <PUBCHEM_MMFF94_ENERGY>
97.7002

> <PUBCHEM_FEATURE_SELFOVERLAP>
45.697

> <PUBCHEM_SHAPE_FINGERPRINT>
10533779 47 18197480854748538987
10693767 8 18117577149222490791
11273773 46 18266176321741270382
117089 54 18269543940889263458
12011746 2 17915758500552410701
12166972 35 18060410335959608430
12422481 6 18113056021490122207
12633257 1 15936411105114176380
12760667 363 18408321107543736674
12954195 1 18271247239156147925
13533116 47 18040998406547011368
1361 87 18129643250266606402
13782708 43 18408324371619044774
13911852 28 18333732381666645374
14251764 30 18340202986290452435
14347332 77 18339365266162549786
14866123 147 18191860334956758337
14910302 57 18272939319100447588
15183329 4 17846495976615273666
15510800 12 18261392321570226486
15629462 23 17968669323548503461
17909252 39 18411703214417916082
1813 80 17059503924031633237
19958102 18 17917999399227856830
21033650 10 17274823609929690484
21130935 74 18189610549909976843
21267235 1 17773598209733032051
21279426 13 18272095989318300173
21641784 216 16558763316302273117
21682296 61 18407755932802842655
22393880 68 18200319939314143792
23379529 103 18270676459471668466
23536364 44 18341899648685522292
23559900 14 18201159858074567445
23569914 152 17760401024498267295
23569943 247 18334296508927448363
3004659 81 18131352969382984392
345986 75 17240752978879520024
437815 12 18409166589051764737
44062 13 18342176730400981406
46194498 28 18130227060944463900
463206 1 18336267834348962502
484985 159 18265044911074668033
5104073 3 17895195536895270144
563151 40 17844242046218384385
56633871 153 18260547775415574855
6608658 132 15769784601522233852

> <PUBCHEM_SHAPE_MULTIPOLES>
568.35
15.71
4.04
1.5
18.92
0.42
-0.12
-16.95
-2.5
2.81
-0.08
-0.35
-0.28
2.96

> <PUBCHEM_SHAPE_SELFOVERLAP>
1171.314

> <PUBCHEM_SHAPE_VOLUME>
324.7

> <PUBCHEM_COORDINATE_TYPE>
2
5
10

$$$$

