439370
  -OEChem-07051212453D

 25 24  0     1  0  0  0  0  0999 V2000
   -3.2524    1.6214    0.2922 O   0  0  0  0  0  0  0  0  0  0  0  0
   -3.9544   -0.2169   -0.8321 O   0  0  0  0  0  0  0  0  0  0  0  0
    4.5336    0.1266   -1.1973 O   0  0  0  0  0  0  0  0  0  0  0  0
   -1.9670   -1.7697    0.0023 N   0  0  0  0  0  0  0  0  0  0  0  0
    4.4145    0.3497    0.2308 N   0  0  0  0  0  0  0  0  0  0  0  0
    0.6840   -0.3637    0.5035 C   0  0  0  0  0  0  0  0  0  0  0  0
   -0.5940    0.2904   -0.0390 C   0  0  0  0  0  0  0  0  0  0  0  0
    1.9671    0.3578    0.0835 C   0  0  0  0  0  0  0  0  0  0  0  0
   -1.8988   -0.3699    0.4241 C   0  0  1  0  0  0  0  0  0  0  0  0
    3.2028   -0.3546    0.6334 C   0  0  0  0  0  0  0  0  0  0  0  0
   -3.1355    0.3291   -0.1014 C   0  0  0  0  0  0  0  0  0  0  0  0
    0.7352   -1.4039    0.1596 H   0  0  0  0  0  0  0  0  0  0  0  0
    0.6307   -0.3936    1.5990 H   0  0  0  0  0  0  0  0  0  0  0  0
   -0.5557    0.2994   -1.1367 H   0  0  0  0  0  0  0  0  0  0  0  0
   -0.6014    1.3449    0.2662 H   0  0  0  0  0  0  0  0  0  0  0  0
    1.9388    1.3922    0.4482 H   0  0  0  0  0  0  0  0  0  0  0  0
    2.0026    0.4032   -1.0118 H   0  0  0  0  0  0  0  0  0  0  0  0
   -1.9553   -0.3484    1.5187 H   0  0  0  0  0  0  0  0  0  0  0  0
    3.2334   -1.3978    0.2961 H   0  0  0  0  0  0  0  0  0  0  0  0
    3.1580   -0.3709    1.7282 H   0  0  0  0  0  0  0  0  0  0  0  0
   -1.9513   -1.8285   -1.0151 H   0  0  0  0  0  0  0  0  0  0  0  0
   -2.8475   -2.1830    0.3062 H   0  0  0  0  0  0  0  0  0  0  0  0
    5.2325   -0.1539    0.5716 H   0  0  0  0  0  0  0  0  0  0  0  0
   -4.0587    2.0441   -0.0731 H   0  0  0  0  0  0  0  0  0  0  0  0
    4.6744    1.0425   -1.4911 H   0  0  0  0  0  0  0  0  0  0  0  0
  1 11  1  0  0  0  0
  1 24  1  0  0  0  0
  2 11  2  0  0  0  0
  3  5  1  0  0  0  0
  3 25  1  0  0  0  0
  4  9  1  0  0  0  0
  4 21  1  0  0  0  0
  4 22  1  0  0  0  0
  5 10  1  0  0  0  0
  5 23  1  0  0  0  0
  6  7  1  0  0  0  0
  6  8  1  0  0  0  0
  6 12  1  0  0  0  0
  6 13  1  0  0  0  0
  7  9  1  0  0  0  0
  7 14  1  0  0  0  0
  7 15  1  0  0  0  0
  8 10  1  0  0  0  0
  8 16  1  0  0  0  0
  8 17  1  0  0  0  0
  9 11  1  0  0  0  0
  9 18  1  0  0  0  0
 10 19  1  0  0  0  0
 10 20  1  0  0  0  0
M  END
> <PUBCHEM_COMPOUND_CID>
439370

> <PUBCHEM_CONFORMER_RMSD>
0.6

> <PUBCHEM_CONFORMER_DIVERSEORDER>
3
204
33
149
186
9
124
19
119
104
168
5
32
196
138
2
41
179
107
209
135
130
23
143
192
166
79
90
54
142
59
193
120
96
12
39
137
65
91
187
8
25
178
109
30
106
125
183
58
110
82
69
112
101
24
203
97
95
176
18
139
145
191
13
198
121
126
207
188
1
38
11
100
89
47
118
55
27
92
108
111
202
141
50
116
212
211
10
49
147
134
170
148
75
103
160
40
86
48
205
159
162
60
73
127
194
46
164
63
15
34
195
22
165
84
29
208
128
87
62
45
152
114
199
16
7
14
169
123
85
113
133
151
167
43
200
172
155
150
20
70
72
94
184
153
161
99
146
67
37
44
136
76
117
77
35
156
6
174
182
78
98
210
21
81
83
122
64
102
190
51
157
68
56
31
185
131
61
144
93
36
105
53
140
71
57
158
28
181
154
163
201
80
132
180
129
173
88
115
42
175
189
4
177
206
52
171
26
197
74
66
17

> <PUBCHEM_MMFF94_PARTIAL_CHARGES>
13
1 -0.65
10 0.27
11 0.66
2 -0.57
21 0.36
22 0.36
23 0.36
24 0.5
25 0.4
3 -0.3
4 -0.99
5 -0.73
9 0.33

> <PUBCHEM_EFFECTIVE_ROTOR_COUNT>
6

> <PUBCHEM_PHARMACOPHORE_FEATURES>
6
1 1 acceptor
1 2 acceptor
1 3 anion
1 4 cation
1 4 donor
3 1 2 11 anion

> <PUBCHEM_HEAVY_ATOM_COUNT>
11

> <PUBCHEM_ATOM_DEF_STEREO_COUNT>
1

> <PUBCHEM_ATOM_UDEF_STEREO_COUNT>
0

> <PUBCHEM_BOND_DEF_STEREO_COUNT>
0

> <PUBCHEM_BOND_UDEF_STEREO_COUNT>
0

> <PUBCHEM_ISOTOPIC_ATOM_COUNT>
0

> <PUBCHEM_COMPONENT_COUNT>
1

> <PUBCHEM_CACTVS_TAUTO_COUNT>
1

> <PUBCHEM_CONFORMER_ID>
0006B44A00000003

> <PUBCHEM_MMFF94_ENERGY>
1.3081

> <PUBCHEM_FEATURE_SELFOVERLAP>
30.505

> <PUBCHEM_SHAPE_FINGERPRINT>
11062470 55 17346600776798806498
12932764 1 17489322866399168992
14325111 11 18410296929717310730
190213 19 17632858637511424192
1986462 14 17894630365889393861
20211469 26 5328741863787893770
20279233 1 17894347766005888950
20645477 70 16588018044258374694
20828058 21 18186521007828738436
21119208 17 18343021086289870094
22485316 2 18114184129532419774
23402539 116 18261685813595724013
42 15 9439410125100719376
93112 12 18410294666438272688

> <PUBCHEM_SHAPE_MULTIPOLES>
198.8
8.8
1.1
0.83
5.76
0.13
0.12
-1.35
1.74
-1.04
-0.07
0.38
0
-0.33

> <PUBCHEM_SHAPE_SELFOVERLAP>
365.093

> <PUBCHEM_SHAPE_VOLUME>
125.8

> <PUBCHEM_COORDINATE_TYPE>
2
5
10

$$$$

