17395809
  -OEChem-06241222522D

 46 48  0     0  0  0  0  0  0999 V2000
    7.9244   -0.8553    0.0000 O   0  0  0  0  0  0  0  0  0  0  0  0
    6.5422    3.2787    0.0000 O   0  0  0  0  0  0  0  0  0  0  0  0
    9.8349    2.2025    0.0000 O   0  0  0  0  0  0  0  0  0  0  0  0
    4.6783   -2.4245    0.0000 N   0  0  0  0  0  0  0  0  0  0  0  0
    4.6783   -4.0339    0.0000 N   0  0  0  0  0  0  0  0  0  0  0  0
    6.2781   -0.3172    0.0000 N   0  0  0  0  0  0  0  0  0  0  0  0
    4.9889   -1.4739    0.0000 C   0  0  0  0  0  0  0  0  0  0  0  0
    3.7320   -2.7292    0.0000 C   0  0  0  0  0  0  0  0  0  0  0  0
    5.2619   -3.2292    0.0000 C   0  0  0  0  0  0  0  0  0  0  0  0
    5.9674   -1.2677    0.0000 C   0  0  0  0  0  0  0  0  0  0  0  0
    3.7320   -3.7292    0.0000 C   0  0  0  0  0  0  0  0  0  0  0  0
    2.8660   -2.2292    0.0000 C   0  0  0  0  0  0  0  0  0  0  0  0
    6.2619   -3.2292    0.0000 C   0  0  0  0  0  0  0  0  0  0  0  0
    2.8660   -4.2292    0.0000 C   0  0  0  0  0  0  0  0  0  0  0  0
    2.0000   -2.7292    0.0000 C   0  0  0  0  0  0  0  0  0  0  0  0
    2.0000   -3.7292    0.0000 C   0  0  0  0  0  0  0  0  0  0  0  0
    7.2566   -0.1110    0.0000 C   0  0  0  0  0  0  0  0  0  0  0  0
    7.5673    0.8395    0.0000 C   0  0  0  0  0  0  0  0  0  0  0  0
    8.5458    1.0458    0.0000 C   0  0  0  0  0  0  0  0  0  0  0  0
    6.8994    1.5838    0.0000 C   0  0  0  0  0  0  0  0  0  0  0  0
    7.2101    2.5344    0.0000 C   0  0  0  0  0  0  0  0  0  0  0  0
    8.8564    1.9963    0.0000 C   0  0  0  0  0  0  0  0  0  0  0  0
    8.1886    2.7406    0.0000 C   0  0  0  0  0  0  0  0  0  0  0  0
    6.8529    4.2292    0.0000 C   0  0  0  0  0  0  0  0  0  0  0  0
   10.1456    3.1530    0.0000 C   0  0  0  0  0  0  0  0  0  0  0  0
    4.9684   -0.8543    0.0000 H   0  0  0  0  0  0  0  0  0  0  0  0
    4.3751   -1.3866    0.0000 H   0  0  0  0  0  0  0  0  0  0  0  0
    5.9880   -1.8874    0.0000 H   0  0  0  0  0  0  0  0  0  0  0  0
    6.5812   -1.3551    0.0000 H   0  0  0  0  0  0  0  0  0  0  0  0
    2.8660   -1.6092    0.0000 H   0  0  0  0  0  0  0  0  0  0  0  0
    5.8640    0.1443    0.0000 H   0  0  0  0  0  0  0  0  0  0  0  0
    6.2619   -3.8492    0.0000 H   0  0  0  0  0  0  0  0  0  0  0  0
    6.8819   -3.2292    0.0000 H   0  0  0  0  0  0  0  0  0  0  0  0
    6.2619   -2.6092    0.0000 H   0  0  0  0  0  0  0  0  0  0  0  0
    2.8660   -4.8492    0.0000 H   0  0  0  0  0  0  0  0  0  0  0  0
    1.4631   -2.4192    0.0000 H   0  0  0  0  0  0  0  0  0  0  0  0
    1.4631   -4.0392    0.0000 H   0  0  0  0  0  0  0  0  0  0  0  0
    8.9598    0.5843    0.0000 H   0  0  0  0  0  0  0  0  0  0  0  0
    6.2928    1.4560    0.0000 H   0  0  0  0  0  0  0  0  0  0  0  0
    8.3812    3.3299    0.0000 H   0  0  0  0  0  0  0  0  0  0  0  0
    7.4422    4.0366    0.0000 H   0  0  0  0  0  0  0  0  0  0  0  0
    7.0455    4.8185    0.0000 H   0  0  0  0  0  0  0  0  0  0  0  0
    6.2636    4.4218    0.0000 H   0  0  0  0  0  0  0  0  0  0  0  0
   10.7349    2.9604    0.0000 H   0  0  0  0  0  0  0  0  0  0  0  0
   10.3382    3.7423    0.0000 H   0  0  0  0  0  0  0  0  0  0  0  0
    9.5563    3.3456    0.0000 H   0  0  0  0  0  0  0  0  0  0  0  0
  1 17  2  0  0  0  0
  2 21  1  0  0  0  0
  2 24  1  0  0  0  0
  3 22  1  0  0  0  0
  3 25  1  0  0  0  0
  4  7  1  0  0  0  0
  4  8  1  0  0  0  0
  4  9  1  0  0  0  0
  5  9  2  0  0  0  0
  5 11  1  0  0  0  0
  6 10  1  0  0  0  0
  6 17  1  0  0  0  0
  6 31  1  0  0  0  0
  7 10  1  0  0  0  0
  7 26  1  0  0  0  0
  7 27  1  0  0  0  0
  8 11  1  0  0  0  0
  8 12  2  0  0  0  0
  9 13  1  0  0  0  0
 10 28  1  0  0  0  0
 10 29  1  0  0  0  0
 11 14  2  0  0  0  0
 12 15  1  0  0  0  0
 12 30  1  0  0  0  0
 13 32  1  0  0  0  0
 13 33  1  0  0  0  0
 13 34  1  0  0  0  0
 14 16  1  0  0  0  0
 14 35  1  0  0  0  0
 15 16  2  0  0  0  0
 15 36  1  0  0  0  0
 16 37  1  0  0  0  0
 17 18  1  0  0  0  0
 18 19  2  0  0  0  0
 18 20  1  0  0  0  0
 19 22  1  0  0  0  0
 19 38  1  0  0  0  0
 20 21  2  0  0  0  0
 20 39  1  0  0  0  0
 21 23  1  0  0  0  0
 22 23  2  0  0  0  0
 23 40  1  0  0  0  0
 24 41  1  0  0  0  0
 24 42  1  0  0  0  0
 24 43  1  0  0  0  0
 25 44  1  0  0  0  0
 25 45  1  0  0  0  0
 25 46  1  0  0  0  0
M  END
> <PUBCHEM_COMPOUND_CID>
17395809

> <PUBCHEM_COMPOUND_CANONICALIZED>
1

> <PUBCHEM_CACTVS_COMPLEXITY>
436

> <PUBCHEM_CACTVS_HBOND_ACCEPTOR>
4

> <PUBCHEM_CACTVS_HBOND_DONOR>
1

> <PUBCHEM_CACTVS_ROTATABLE_BOND>
6

> <PUBCHEM_CACTVS_SUBSKEYS>
AAADceB7MAAAAAAAAAAAAAAAAAAAAWAAAAAwYAAAAAAAAFgB9AAAHgAQAAAADAzBnwYz1rfMFACoAydydACCiC0lMqAJ2KE+fNiMb7LEvZuUMSht1hfI6ae66ByOAAABCAAAACAAAAIQAAAAQAAAAAAAAA==

> <PUBCHEM_IUPAC_OPENEYE_NAME>
3,5-dimethoxy-N-[2-(2-methylbenzimidazol-1-yl)ethyl]benzamide

> <PUBCHEM_IUPAC_CAS_NAME>
3,5-dimethoxy-N-[2-(2-methyl-1-benzimidazolyl)ethyl]benzamide

> <PUBCHEM_IUPAC_NAME>
3,5-dimethoxy-N-[2-(2-methylbenzimidazol-1-yl)ethyl]benzamide

> <PUBCHEM_IUPAC_SYSTEMATIC_NAME>
3,5-dimethoxy-N-[2-(2-methylbenzimidazol-1-yl)ethyl]benzamide

> <PUBCHEM_IUPAC_TRADITIONAL_NAME>
3,5-dimethoxy-N-[2-(2-methylbenzimidazol-1-yl)ethyl]benzamide

> <PUBCHEM_IUPAC_INCHI>
InChI=1S/C19H21N3O3/c1-13-21-17-6-4-5-7-18(17)22(13)9-8-20-19(23)14-10-15(24-2)12-16(11-14)25-3/h4-7,10-12H,8-9H2,1-3H3,(H,20,23)

> <PUBCHEM_IUPAC_INCHIKEY>
GALYKVDOWDSERV-UHFFFAOYSA-N

> <PUBCHEM_XLOGP3_AA>
2.7

> <PUBCHEM_EXACT_MASS>
339.158292

> <PUBCHEM_MOLECULAR_FORMULA>
C19H21N3O3

> <PUBCHEM_MOLECULAR_WEIGHT>
339.38834

> <PUBCHEM_OPENEYE_CAN_SMILES>
CC1=NC2=CC=CC=C2N1CCNC(=O)C3=CC(=CC(=C3)OC)OC

> <PUBCHEM_OPENEYE_ISO_SMILES>
CC1=NC2=CC=CC=C2N1CCNC(=O)C3=CC(=CC(=C3)OC)OC

> <PUBCHEM_CACTVS_TPSA>
65.4

> <PUBCHEM_MONOISOTOPIC_WEIGHT>
339.158292

> <PUBCHEM_TOTAL_CHARGE>
0

> <PUBCHEM_HEAVY_ATOM_COUNT>
25

> <PUBCHEM_ATOM_DEF_STEREO_COUNT>
0

> <PUBCHEM_ATOM_UDEF_STEREO_COUNT>
0

> <PUBCHEM_BOND_DEF_STEREO_COUNT>
0

> <PUBCHEM_BOND_UDEF_STEREO_COUNT>
0

> <PUBCHEM_ISOTOPIC_ATOM_COUNT>
0

> <PUBCHEM_COMPONENT_COUNT>
1

> <PUBCHEM_CACTVS_TAUTO_COUNT>
2

> <PUBCHEM_COORDINATE_TYPE>
1
5
255

> <PUBCHEM_BONDANNOTATIONS>
11  14  8
12  15  8
14  16  8
15  16  8
18  19  8
18  20  8
19  22  8
20  21  8
21  23  8
22  23  8
4  8  8
4  9  8
5  11  8
5  9  8
8  11  8
8  12  8

$$$$

