8996
  -OEChem-06261203182D

 33 34  0     0  0  0  0  0  0999 V2000
    2.8660   -3.3450    0.0000 O   0  0  0  0  0  0  0  0  0  0  0  0
    4.5981   -4.3450    0.0000 O   0  0  0  0  0  0  0  0  0  0  0  0
    7.1962    1.1550    0.0000 O   0  0  0  0  0  0  0  0  0  0  0  0
    5.4641    1.1550    0.0000 N   0  0  0  0  0  0  0  0  0  0  0  0
    5.4641    0.1550    0.0000 N   0  0  0  0  0  0  0  0  0  0  0  0
    6.3301    4.6550    0.0000 N   0  0  0  0  0  0  0  0  0  0  0  0
    4.5981   -1.3450    0.0000 C   0  0  0  0  0  0  0  0  0  0  0  0
    3.7321   -2.8450    0.0000 C   0  0  0  0  0  0  0  0  0  0  0  0
    3.7321   -1.8450    0.0000 C   0  0  0  0  0  0  0  0  0  0  0  0
    5.4641   -1.8450    0.0000 C   0  0  0  0  0  0  0  0  0  0  0  0
    4.5981   -3.3450    0.0000 C   0  0  0  0  0  0  0  0  0  0  0  0
    5.4641   -2.8450    0.0000 C   0  0  0  0  0  0  0  0  0  0  0  0
    4.5981   -0.3450    0.0000 C   0  0  0  0  0  0  0  0  0  0  0  0
    6.3301    2.6550    0.0000 C   0  0  0  0  0  0  0  0  0  0  0  0
    6.3301    1.6550    0.0000 C   0  0  0  0  0  0  0  0  0  0  0  0
    5.4641    3.1550    0.0000 C   0  0  0  0  0  0  0  0  0  0  0  0
    7.1962    3.1550    0.0000 C   0  0  0  0  0  0  0  0  0  0  0  0
    5.4641    4.1550    0.0000 C   0  0  0  0  0  0  0  0  0  0  0  0
    7.1962    4.1550    0.0000 C   0  0  0  0  0  0  0  0  0  0  0  0
    2.0000   -2.8450    0.0000 C   0  0  0  0  0  0  0  0  0  0  0  0
    3.1951   -1.5350    0.0000 H   0  0  0  0  0  0  0  0  0  0  0  0
    6.0010   -1.5350    0.0000 H   0  0  0  0  0  0  0  0  0  0  0  0
    6.0010   -3.1550    0.0000 H   0  0  0  0  0  0  0  0  0  0  0  0
    4.0611   -0.0350    0.0000 H   0  0  0  0  0  0  0  0  0  0  0  0
    4.9272    2.8450    0.0000 H   0  0  0  0  0  0  0  0  0  0  0  0
    7.7331    2.8450    0.0000 H   0  0  0  0  0  0  0  0  0  0  0  0
    4.9272    1.4650    0.0000 H   0  0  0  0  0  0  0  0  0  0  0  0
    4.9272    4.4650    0.0000 H   0  0  0  0  0  0  0  0  0  0  0  0
    7.7331    4.4650    0.0000 H   0  0  0  0  0  0  0  0  0  0  0  0
    1.4631   -2.5350    0.0000 H   0  0  0  0  0  0  0  0  0  0  0  0
    1.6900   -3.3819    0.0000 H   0  0  0  0  0  0  0  0  0  0  0  0
    2.3100   -2.3081    0.0000 H   0  0  0  0  0  0  0  0  0  0  0  0
    5.1350   -4.6550    0.0000 H   0  0  0  0  0  0  0  0  0  0  0  0
  1  8  1  0  0  0  0
  1 20  1  0  0  0  0
  2 11  1  0  0  0  0
  2 33  1  0  0  0  0
  3 15  2  0  0  0  0
  4  5  1  0  0  0  0
  4 15  1  0  0  0  0
  4 27  1  0  0  0  0
  5 13  2  3  0  0  0
  6 18  2  0  0  0  0
  6 19  1  0  0  0  0
  7  9  2  0  0  0  0
  7 10  1  0  0  0  0
  7 13  1  0  0  0  0
  8  9  1  0  0  0  0
  8 11  2  0  0  0  0
  9 21  1  0  0  0  0
 10 12  2  0  0  0  0
 10 22  1  0  0  0  0
 11 12  1  0  0  0  0
 12 23  1  0  0  0  0
 13 24  1  0  0  0  0
 14 15  1  0  0  0  0
 14 16  2  0  0  0  0
 14 17  1  0  0  0  0
 16 18  1  0  0  0  0
 16 25  1  0  0  0  0
 17 19  2  0  0  0  0
 17 26  1  0  0  0  0
 18 28  1  0  0  0  0
 19 29  1  0  0  0  0
 20 30  1  0  0  0  0
 20 31  1  0  0  0  0
 20 32  1  0  0  0  0
M  END
> <PUBCHEM_COMPOUND_CID>
8996

> <PUBCHEM_COMPOUND_CANONICALIZED>
1

> <PUBCHEM_CACTVS_COMPLEXITY>
343

> <PUBCHEM_CACTVS_HBOND_ACCEPTOR>
5

> <PUBCHEM_CACTVS_HBOND_DONOR>
2

> <PUBCHEM_CACTVS_ROTATABLE_BOND>
4

> <PUBCHEM_CACTVS_SUBSKEYS>
AAADccBzMAAAAAAAAAAAAAAAAAAAAAAAAAA8QAAAAAAAAAABwAAAHgAYCAAADATBmgY+hpJqFgCoAjF3VACSiCA1IiAa2CE+7NgNJvLGtZuEcStkyBHL+YeUwBAOIAABAAAAQABAAAIAAACAAAAAAAAAAA==

> <PUBCHEM_IUPAC_OPENEYE_NAME>
N-[(4-hydroxy-3-methoxy-phenyl)methyleneamino]pyridine-4-carboxamide

> <PUBCHEM_IUPAC_CAS_NAME>
N-[(4-hydroxy-3-methoxyphenyl)methylideneamino]-4-pyridinecarboxamide

> <PUBCHEM_IUPAC_NAME>
N-[(4-hydroxy-3-methoxyphenyl)methylideneamino]pyridine-4-carboxamide

> <PUBCHEM_IUPAC_SYSTEMATIC_NAME>
N-[(3-methoxy-4-oxidanyl-phenyl)methylideneamino]pyridine-4-carboxamide

> <PUBCHEM_IUPAC_TRADITIONAL_NAME>
N-(vanillylideneamino)isonicotinamide

> <PUBCHEM_IUPAC_INCHI>
InChI=1S/C14H13N3O3/c1-20-13-8-10(2-3-12(13)18)9-16-17-14(19)11-4-6-15-7-5-11/h2-9,18H,1H3,(H,17,19)

> <PUBCHEM_IUPAC_INCHIKEY>
PSWOBQSIXLVPDV-UHFFFAOYSA-N

> <PUBCHEM_XLOGP3>
1.6

> <PUBCHEM_EXACT_MASS>
271.095691

> <PUBCHEM_MOLECULAR_FORMULA>
C14H13N3O3

> <PUBCHEM_MOLECULAR_WEIGHT>
271.27132

> <PUBCHEM_OPENEYE_CAN_SMILES>
COC1=C(C=CC(=C1)C=NNC(=O)C2=CC=NC=C2)O

> <PUBCHEM_OPENEYE_ISO_SMILES>
COC1=C(C=CC(=C1)C=NNC(=O)C2=CC=NC=C2)O

> <PUBCHEM_CACTVS_TPSA>
83.8

> <PUBCHEM_MONOISOTOPIC_WEIGHT>
271.095691

> <PUBCHEM_TOTAL_CHARGE>
0

> <PUBCHEM_HEAVY_ATOM_COUNT>
20

> <PUBCHEM_ATOM_DEF_STEREO_COUNT>
0

> <PUBCHEM_ATOM_UDEF_STEREO_COUNT>
0

> <PUBCHEM_BOND_DEF_STEREO_COUNT>
0

> <PUBCHEM_BOND_UDEF_STEREO_COUNT>
1

> <PUBCHEM_ISOTOPIC_ATOM_COUNT>
0

> <PUBCHEM_COMPONENT_COUNT>
1

> <PUBCHEM_CACTVS_TAUTO_COUNT>
9

> <PUBCHEM_COORDINATE_TYPE>
1
5
255

> <PUBCHEM_BONDANNOTATIONS>
10  12  8
11  12  8
14  16  8
14  17  8
16  18  8
17  19  8
6  18  8
6  19  8
7  10  8
7  9  8
8  11  8
8  9  8

$$$$

