92235
  -OEChem-07051213013D

 19 19  0     1  0  0  0  0  0999 V2000
    1.2564   -1.5902   -0.9035 O   0  0  0  0  0  0  0  0  0  0  0  0
    2.8311   -0.9933    0.6247 O   0  0  0  0  0  0  0  0  0  0  0  0
    2.4872    1.6349   -0.1830 N   0  0  0  0  0  0  0  0  0  0  0  0
   -1.4541   -0.7521    0.6637 N   0  0  0  0  0  0  0  0  0  0  0  0
   -1.9752    1.0733   -0.4189 N   0  0  0  0  0  0  0  0  0  0  0  0
   -2.6833   -1.0137    0.1938 N   0  0  0  0  0  0  0  0  0  0  0  0
    0.2746    1.0283    0.6789 C   0  0  0  0  0  0  0  0  0  0  0  0
    1.3683    0.7050   -0.3481 C   0  0  2  0  0  0  0  0  0  0  0  0
   -1.0763    0.4754    0.2845 C   0  0  0  0  0  0  0  0  0  0  0  0
    1.9250   -0.6892   -0.1382 C   0  0  0  0  0  0  0  0  0  0  0  0
   -2.9536    0.1214   -0.4541 C   0  0  0  0  0  0  0  0  0  0  0  0
    0.1532    2.1161    0.7715 H   0  0  0  0  0  0  0  0  0  0  0  0
    0.5472    0.6579    1.6760 H   0  0  0  0  0  0  0  0  0  0  0  0
    1.0053    0.7981   -1.3781 H   0  0  0  0  0  0  0  0  0  0  0  0
    2.8100    1.6191    0.7844 H   0  0  0  0  0  0  0  0  0  0  0  0
    2.1655    2.5876   -0.3522 H   0  0  0  0  0  0  0  0  0  0  0  0
   -0.9709   -1.4531    1.2138 H   0  0  0  0  0  0  0  0  0  0  0  0
   -3.8935    0.2596   -0.9677 H   0  0  0  0  0  0  0  0  0  0  0  0
    1.5920   -2.5024   -0.7716 H   0  0  0  0  0  0  0  0  0  0  0  0
  1 10  1  0  0  0  0
  1 19  1  0  0  0  0
  2 10  2  0  0  0  0
  3  8  1  0  0  0  0
  3 15  1  0  0  0  0
  3 16  1  0  0  0  0
  4  6  1  0  0  0  0
  4  9  1  0  0  0  0
  4 17  1  0  0  0  0
  5  9  2  0  0  0  0
  5 11  1  0  0  0  0
  6 11  2  0  0  0  0
  7  8  1  0  0  0  0
  7  9  1  0  0  0  0
  7 12  1  0  0  0  0
  7 13  1  0  0  0  0
  8 10  1  0  0  0  0
  8 14  1  0  0  0  0
 11 18  1  0  0  0  0
M  END
> <PUBCHEM_COMPOUND_CID>
92235

> <PUBCHEM_CONFORMER_RMSD>
0.6

> <PUBCHEM_CONFORMER_DIVERSEORDER>
1
24
4
30
2
9
3
29
21
31
5
11
16
22
19
14
13
6
27
26
23
10
15
25
20
18
28
8
7
12
17

> <PUBCHEM_MMFF94_PARTIAL_CHARGES>
16
1 -0.65
10 0.66
11 0.37
15 0.36
16 0.36
17 0.27
18 0.15
19 0.5
2 -0.57
3 -0.99
4 0.3
5 -0.57
6 -0.71
7 0.18
8 0.33
9 0.01

> <PUBCHEM_EFFECTIVE_ROTOR_COUNT>
3

> <PUBCHEM_PHARMACOPHORE_FEATURES>
9
1 1 acceptor
1 2 acceptor
1 3 cation
1 3 donor
1 4 donor
3 1 2 10 anion
3 4 5 9 cation
3 5 6 11 cation
5 4 5 6 9 11 rings

> <PUBCHEM_HEAVY_ATOM_COUNT>
11

> <PUBCHEM_ATOM_DEF_STEREO_COUNT>
0

> <PUBCHEM_ATOM_UDEF_STEREO_COUNT>
1

> <PUBCHEM_BOND_DEF_STEREO_COUNT>
0

> <PUBCHEM_BOND_UDEF_STEREO_COUNT>
0

> <PUBCHEM_ISOTOPIC_ATOM_COUNT>
0

> <PUBCHEM_COMPONENT_COUNT>
1

> <PUBCHEM_CACTVS_TAUTO_COUNT>
5

> <PUBCHEM_CONFORMER_ID>
0001684B00000001

> <PUBCHEM_MMFF94_ENERGY>
7.2999

> <PUBCHEM_FEATURE_SELFOVERLAP>
48.559

> <PUBCHEM_SHAPE_FINGERPRINT>
12897270 3 18339918216920741021
12932764 1 17917705833522211681
15310529 11 18410857620765899589
15775835 57 18115585928946912957
17990270 104 18336541715706942374
19973954 147 18342454850438963333
20201158 50 18337393841402783167
20645477 70 18409452479592667343
21501502 16 18410572890209428553
23235687 12 18342173401168545061
23552423 10 18273495675999338673
29004967 10 18040435516074226952
3248919 1 18260267477422978529
369184 2 18342737416632428425

> <PUBCHEM_SHAPE_MULTIPOLES>
194.71
4.48
1.5
0.8
0.81
0.02
0
0.51
-0.22
-0.71
-0.11
-0.04
0.06
0.11

> <PUBCHEM_SHAPE_SELFOVERLAP>
397.665

> <PUBCHEM_SHAPE_VOLUME>
114.5

> <PUBCHEM_COORDINATE_TYPE>
2
5
10

$$$$

