441717
  -OEChem-07051212552D

102108  0     1  0  0  0  0  0999 V2000
    3.5316    1.7093    0.0000 O   0  0  0  0  0  0  0  0  0  0  0  0
    3.0903    2.5474    0.0000 O   0  0  0  0  0  0  0  0  0  0  0  0
    4.6079    1.3785    0.0000 O   0  0  0  0  0  0  0  0  0  0  0  0
    6.4305    5.1404    0.0000 O   0  0  0  0  0  0  0  0  0  0  0  0
    2.7137    4.7145    0.0000 O   0  0  0  0  0  0  0  0  0  0  0  0
    2.3129    5.5983    0.0000 O   0  0  0  0  0  0  0  0  0  0  0  0
    7.2966    0.9052    0.0000 O   0  0  0  0  0  0  0  0  0  0  0  0
    6.4305   -0.5948    0.0000 O   0  0  0  0  0  0  0  0  0  0  0  0
    8.1626   -3.5948    0.0000 O   0  0  0  0  0  0  0  0  0  0  0  0
    5.5645   -6.0948    0.0000 O   0  0  0  0  0  0  0  0  0  0  0  0
    4.6985   -4.5948    0.0000 O   0  0  0  0  0  0  0  0  0  0  0  0
    7.6259    3.3113    0.0000 N   0  0  3  0  0  0  0  0  0  0  0  0
    7.2966   -2.0948    0.0000 N   0  0  0  0  0  0  0  0  0  0  0  0
    5.6792    3.7066    0.0000 C   0  0  2  0  0  0  0  0  0  0  0  0
    5.6792    2.8390    0.0000 C   0  0  2  0  0  0  0  0  0  0  0  0
    6.6812    3.6005    0.0000 C   0  0  3  0  0  0  0  0  0  0  0  0
    5.0009    4.2475    0.0000 C   0  0  1  0  0  0  0  0  0  0  0  0
    4.1551    2.4911    0.0000 C   0  0  2  0  0  0  0  0  0  0  0  0
    4.1551    4.0544    0.0000 C   0  0  1  0  0  0  0  0  0  0  0  0
    3.7786    3.2728    0.0000 C   0  0  1  0  0  0  0  0  0  0  0  0
    5.0009    2.2981    0.0000 C   0  0  1  0  0  0  0  0  0  0  0  0
    6.4305    2.4052    0.0000 C   0  0  2  0  0  0  0  0  0  0  0  0
    6.4305    4.1404    0.0000 C   0  0  2  0  0  0  0  0  0  0  0  0
    5.0787    5.1116    0.0000 C   0  0  0  0  0  0  0  0  0  0  0  0
    4.2809    5.4526    0.0000 C   0  0  1  0  0  0  0  0  0  0  0  0
    3.7101    4.7992    0.0000 C   0  0  2  0  0  0  0  0  0  0  0  0
    3.1337    3.5427    0.0000 C   0  0  0  0  0  0  0  0  0  0  0  0
    7.6259    2.5594    0.0000 C   0  0  0  0  0  0  0  0  0  0  0  0
    7.1819    2.8390    0.0000 C   0  0  0  0  0  0  0  0  0  0  0  0
    3.1337    5.0272    0.0000 C   0  0  2  0  0  0  0  0  0  0  0  0
    7.1819    3.7066    0.0000 C   0  0  0  0  0  0  0  0  0  0  0  0
    6.4305    1.4052    0.0000 C   0  0  0  0  0  0  0  0  0  0  0  0
    8.4298    3.9060    0.0000 C   0  0  0  0  0  0  0  0  0  0  0  0
    5.2077    0.5784    0.0000 C   0  0  0  0  0  0  0  0  0  0  0  0
    9.3468    3.5071    0.0000 C   0  0  0  0  0  0  0  0  0  0  0  0
    7.2966    5.6404    0.0000 C   0  0  0  0  0  0  0  0  0  0  0  0
    2.2888    3.8093    0.0000 C   0  0  0  0  0  0  0  0  0  0  0  0
    2.3970    6.5948    0.0000 C   0  0  0  0  0  0  0  0  0  0  0  0
    7.2966   -0.0948    0.0000 C   0  0  0  0  0  0  0  0  0  0  0  0
    8.1626   -0.5948    0.0000 C   0  0  0  0  0  0  0  0  0  0  0  0
    8.1626   -1.5948    0.0000 C   0  0  0  0  0  0  0  0  0  0  0  0
    9.0286   -0.0948    0.0000 C   0  0  0  0  0  0  0  0  0  0  0  0
    9.0286   -2.0948    0.0000 C   0  0  0  0  0  0  0  0  0  0  0  0
    9.8946   -0.5948    0.0000 C   0  0  0  0  0  0  0  0  0  0  0  0
    9.8946   -1.5948    0.0000 C   0  0  0  0  0  0  0  0  0  0  0  0
    7.2966   -3.0948    0.0000 C   0  0  0  0  0  0  0  0  0  0  0  0
    6.4305   -3.5948    0.0000 C   0  0  0  0  0  0  0  0  0  0  0  0
    6.4305   -4.5948    0.0000 C   0  0  0  0  0  0  0  0  0  0  0  0
    5.5645   -5.0948    0.0000 C   0  0  0  0  0  0  0  0  0  0  0  0
    4.6985   -6.5948    0.0000 C   0  0  0  0  0  0  0  0  0  0  0  0
    5.7427    1.9914    0.0000 H   0  0  0  0  0  0  0  0  0  0  0  0
    6.8051    4.2080    0.0000 H   0  0  0  0  0  0  0  0  0  0  0  0
    5.7825    4.5816    0.0000 H   0  0  0  0  0  0  0  0  0  0  0  0
    3.3059    4.0163    0.0000 H   0  0  0  0  0  0  0  0  0  0  0  0
    5.2013    1.7114    0.0000 H   0  0  0  0  0  0  0  0  0  0  0  0
    5.8936    4.4504    0.0000 H   0  0  0  0  0  0  0  0  0  0  0  0
    5.2614    5.7040    0.0000 H   0  0  0  0  0  0  0  0  0  0  0  0
    5.6870    4.9918    0.0000 H   0  0  0  0  0  0  0  0  0  0  0  0
    4.3017    6.3023    0.0000 H   0  0  0  0  0  0  0  0  0  0  0  0
    3.4300    5.3523    0.0000 H   0  0  0  0  0  0  0  0  0  0  0  0
    2.9718    2.9442    0.0000 H   0  0  0  0  0  0  0  0  0  0  0  0
    2.5191    3.6244    0.0000 H   0  0  0  0  0  0  0  0  0  0  0  0
    8.2453    2.5860    0.0000 H   0  0  0  0  0  0  0  0  0  0  0  0
    7.6788    1.9417    0.0000 H   0  0  0  0  0  0  0  0  0  0  0  0
    7.7924    2.9466    0.0000 H   0  0  0  0  0  0  0  0  0  0  0  0
    7.3939    2.2564    0.0000 H   0  0  0  0  0  0  0  0  0  0  0  0
    3.2119    5.6423    0.0000 H   0  0  0  0  0  0  0  0  0  0  0  0
    7.3939    4.2892    0.0000 H   0  0  0  0  0  0  0  0  0  0  0  0
    7.7924    3.5989    0.0000 H   0  0  0  0  0  0  0  0  0  0  0  0
    6.2185    0.8226    0.0000 H   0  0  0  0  0  0  0  0  0  0  0  0
    5.8200    1.5129    0.0000 H   0  0  0  0  0  0  0  0  0  0  0  0
    3.7581    1.1322    0.0000 H   0  0  0  0  0  0  0  0  0  0  0  0
    2.4874    2.6921    0.0000 H   0  0  0  0  0  0  0  0  0  0  0  0
    7.9802    4.3329    0.0000 H   0  0  0  0  0  0  0  0  0  0  0  0
    8.7721    4.4230    0.0000 H   0  0  0  0  0  0  0  0  0  0  0  0
    5.7038    0.9503    0.0000 H   0  0  0  0  0  0  0  0  0  0  0  0
    5.5796    0.0823    0.0000 H   0  0  0  0  0  0  0  0  0  0  0  0
    4.7116    0.2065    0.0000 H   0  0  0  0  0  0  0  0  0  0  0  0
    9.5941    4.0756    0.0000 H   0  0  0  0  0  0  0  0  0  0  0  0
    9.9154    3.2598    0.0000 H   0  0  0  0  0  0  0  0  0  0  0  0
    9.0995    2.9386    0.0000 H   0  0  0  0  0  0  0  0  0  0  0  0
    6.9866    6.1773    0.0000 H   0  0  0  0  0  0  0  0  0  0  0  0
    7.8335    5.9504    0.0000 H   0  0  0  0  0  0  0  0  0  0  0  0
    7.6066    5.1034    0.0000 H   0  0  0  0  0  0  0  0  0  0  0  0
    2.8500    3.5459    0.0000 H   0  0  0  0  0  0  0  0  0  0  0  0
    2.0254    3.2480    0.0000 H   0  0  0  0  0  0  0  0  0  0  0  0
    1.7275    4.0727    0.0000 H   0  0  0  0  0  0  0  0  0  0  0  0
    1.7792    6.6470    0.0000 H   0  0  0  0  0  0  0  0  0  0  0  0
    2.4492    7.2126    0.0000 H   0  0  0  0  0  0  0  0  0  0  0  0
    3.0148    6.5426    0.0000 H   0  0  0  0  0  0  0  0  0  0  0  0
    9.0286    0.5252    0.0000 H   0  0  0  0  0  0  0  0  0  0  0  0
    9.0286   -2.7148    0.0000 H   0  0  0  0  0  0  0  0  0  0  0  0
   10.4316   -0.2848    0.0000 H   0  0  0  0  0  0  0  0  0  0  0  0
    6.7596   -1.7848    0.0000 H   0  0  0  0  0  0  0  0  0  0  0  0
   10.4316   -1.9048    0.0000 H   0  0  0  0  0  0  0  0  0  0  0  0
    5.8199   -3.7024    0.0000 H   0  0  0  0  0  0  0  0  0  0  0  0
    6.2185   -3.0122    0.0000 H   0  0  0  0  0  0  0  0  0  0  0  0
    7.0411   -4.4871    0.0000 H   0  0  0  0  0  0  0  0  0  0  0  0
    6.6426   -5.1774    0.0000 H   0  0  0  0  0  0  0  0  0  0  0  0
    5.0085   -7.1317    0.0000 H   0  0  0  0  0  0  0  0  0  0  0  0
    4.1615   -6.9048    0.0000 H   0  0  0  0  0  0  0  0  0  0  0  0
    4.3885   -6.0578    0.0000 H   0  0  0  0  0  0  0  0  0  0  0  0
 18  1  1  1  0  0  0
  1 72  1  0  0  0  0
 20  2  1  6  0  0  0
  2 73  1  0  0  0  0
 21  3  1  6  0  0  0
  3 34  1  0  0  0  0
 23  4  1  1  0  0  0
  4 36  1  0  0  0  0
 26  5  1  1  0  0  0
  5 37  1  0  0  0  0
 30  6  1  6  0  0  0
  6 38  1  0  0  0  0
  7 32  1  0  0  0  0
  7 39  1  0  0  0  0
  8 39  2  0  0  0  0
  9 46  2  0  0  0  0
 10 49  1  0  0  0  0
 10 50  1  0  0  0  0
 11 49  2  0  0  0  0
 12 16  1  0  0  0  0
 12 28  1  0  0  0  0
 12 33  1  0  0  0  0
 13 41  1  0  0  0  0
 13 46  1  0  0  0  0
 13 94  1  0  0  0  0
 14 15  1  0  0  0  0
 14 16  1  0  0  0  0
 14 17  1  0  0  0  0
 14 23  1  6  0  0  0
 15 21  1  0  0  0  0
 15 22  1  0  0  0  0
 15 51  1  6  0  0  0
 16 18  1  0  0  0  0
 16 52  1  0  0  0  0
 17 19  1  0  0  0  0
 17 24  1  0  0  0  0
 17 53  1  6  0  0  0
 18 20  1  0  0  0  0
 18 21  1  0  0  0  0
 19 20  1  0  0  0  0
 19 26  1  0  0  0  0
 19 54  1  6  0  0  0
 20 27  1  0  0  0  0
 21 55  1  0  0  0  0
 22 28  1  0  0  0  0
 22 29  1  0  0  0  0
 22 32  1  6  0  0  0
 23 31  1  0  0  0  0
 23 56  1  0  0  0  0
 24 25  1  0  0  0  0
 24 57  1  0  0  0  0
 24 58  1  0  0  0  0
 25 26  1  0  0  0  0
 25 30  1  0  0  0  0
 25 59  1  6  0  0  0
 26 60  1  0  0  0  0
 27 30  1  0  0  0  0
 27 61  1  0  0  0  0
 27 62  1  0  0  0  0
 28 63  1  0  0  0  0
 28 64  1  0  0  0  0
 29 31  1  0  0  0  0
 29 65  1  0  0  0  0
 29 66  1  0  0  0  0
 30 67  1  0  0  0  0
 31 68  1  0  0  0  0
 31 69  1  0  0  0  0
 32 70  1  0  0  0  0
 32 71  1  0  0  0  0
 33 35  1  0  0  0  0
 33 74  1  0  0  0  0
 33 75  1  0  0  0  0
 34 76  1  0  0  0  0
 34 77  1  0  0  0  0
 34 78  1  0  0  0  0
 35 79  1  0  0  0  0
 35 80  1  0  0  0  0
 35 81  1  0  0  0  0
 36 82  1  0  0  0  0
 36 83  1  0  0  0  0
 36 84  1  0  0  0  0
 37 85  1  0  0  0  0
 37 86  1  0  0  0  0
 37 87  1  0  0  0  0
 38 88  1  0  0  0  0
 38 89  1  0  0  0  0
 38 90  1  0  0  0  0
 39 40  1  0  0  0  0
 40 41  1  0  0  0  0
 40 42  2  0  0  0  0
 41 43  2  0  0  0  0
 42 44  1  0  0  0  0
 42 91  1  0  0  0  0
 43 45  1  0  0  0  0
 43 92  1  0  0  0  0
 44 45  2  0  0  0  0
 44 93  1  0  0  0  0
 45 95  1  0  0  0  0
 46 47  1  0  0  0  0
 47 48  1  0  0  0  0
 47 96  1  0  0  0  0
 47 97  1  0  0  0  0
 48 49  1  0  0  0  0
 48 98  1  0  0  0  0
 48 99  1  0  0  0  0
 50100  1  0  0  0  0
 50101  1  0  0  0  0
 50102  1  0  0  0  0
M  END
> <PUBCHEM_COMPOUND_CID>
441717

> <PUBCHEM_COMPOUND_CANONICALIZED>
1

> <PUBCHEM_CACTVS_COMPLEXITY>
1330

> <PUBCHEM_CACTVS_HBOND_ACCEPTOR>
12

> <PUBCHEM_CACTVS_HBOND_DONOR>
3

> <PUBCHEM_CACTVS_ROTATABLE_BOND>
14

> <PUBCHEM_CACTVS_SUBSKEYS>
AAADcfB/PAAAAAAAAAAAAAAAAAAAAYMAAAA8YMGCB4gWAGABAAAAHgAQCAAAD3zhmAYyyIPABgCIAiXSWACCAAAlAgAIiAEIbMgLJjrAtZmGcYhn1AHb6cf/+P+PgAAAAAACAADQAAaUADSgAaEADSgAAA==

> <PUBCHEM_IUPAC_INCHI>
InChI=1S/C37H52N2O11/c1-7-39-18-34(19-50-32(42)20-10-8-9-11-23(20)38-26(40)12-13-27(41)47-4)15-14-25(46-3)36-22-16-21-24(45-2)17-35(43,28(22)29(21)48-5)37(44,33(36)39)31(49-6)30(34)36/h8-11,21-22,24-25,28-31,33,43-44H,7,12-19H2,1-6H3,(H,38,40)/t21-,22-,24+,25+,28-,29+,30-,31+,33?,34+,35-,36+,37-/m1/s1

> <PUBCHEM_IUPAC_INCHIKEY>
SVMCGAKQNRLCHV-RIBDQKFBSA-N

> <PUBCHEM_XLOGP3_AA>
1.1

> <PUBCHEM_EXACT_MASS>
700.35711

> <PUBCHEM_MOLECULAR_FORMULA>
C37H52N2O11

> <PUBCHEM_MOLECULAR_WEIGHT>
700.81558

> <PUBCHEM_OPENEYE_CAN_SMILES>
CCN1CC2(CCC(C34C2C(C(C31)(C5(CC(C6CC4C5C6OC)OC)O)O)OC)OC)COC(=O)C7=CC=CC=C7NC(=O)CCC(=O)OC

> <PUBCHEM_OPENEYE_ISO_SMILES>
CCN1C[C@@]2(CC[C@@H]([C@@]34[C@@H]2[C@@H]([C@@](C31)([C@]5(C[C@@H]([C@H]6C[C@@H]4[C@@H]5[C@H]6OC)OC)O)O)OC)OC)COC(=O)C7=CC=CC=C7NC(=O)CCC(=O)OC

> <PUBCHEM_CACTVS_TPSA>
162

> <PUBCHEM_MONOISOTOPIC_WEIGHT>
700.35711

> <PUBCHEM_TOTAL_CHARGE>
0

> <PUBCHEM_HEAVY_ATOM_COUNT>
50

> <PUBCHEM_ATOM_DEF_STEREO_COUNT>
12

> <PUBCHEM_ATOM_UDEF_STEREO_COUNT>
1

> <PUBCHEM_BOND_DEF_STEREO_COUNT>
0

> <PUBCHEM_BOND_UDEF_STEREO_COUNT>
0

> <PUBCHEM_ISOTOPIC_ATOM_COUNT>
0

> <PUBCHEM_COMPONENT_COUNT>
1

> <PUBCHEM_CACTVS_TAUTO_COUNT>
9

> <PUBCHEM_COORDINATE_TYPE>
1
5
255

> <PUBCHEM_BONDANNOTATIONS>
18  1  5
16  12  3
14  23  6
15  51  6
17  53  6
19  54  6
20  2  6
22  32  6
25  59  6
21  3  6
23  4  5
40  41  8
40  42  8
41  43  8
42  44  8
43  45  8
44  45  8
26  5  5
30  6  6

$$$$

