160482
  -OEChem-07051212563D

 77 80  0     1  0  0  0  0  0999 V2000
   -7.3861    1.3465   -0.5274 O   0  0  0  0  0  0  0  0  0  0  0  0
    1.0337   -0.4613    0.8741 C   0  0  1  0  0  0  0  0  0  0  0  0
    0.3307   -0.9511   -0.4088 C   0  0  2  0  0  0  0  0  0  0  0  0
   -1.7131    0.4979    0.0896 C   0  0  2  0  0  0  0  0  0  0  0  0
   -3.2710    0.4992    0.3755 C   0  0  2  0  0  0  0  0  0  0  0  0
    2.5118   -0.6521    0.4539 C   0  0  2  0  0  0  0  0  0  0  0  0
   -1.1726   -0.8782   -0.3150 C   0  0  0  0  0  0  0  0  0  0  0  0
   -3.9722   -0.3226   -0.7592 C   0  0  2  0  0  0  0  0  0  0  0  0
    0.6333    1.0062    1.0957 C   0  0  0  0  0  0  0  0  0  0  0  0
   -0.8896    1.1562    1.2366 C   0  0  0  0  0  0  0  0  0  0  0  0
    1.0621   -2.2578   -0.7324 C   0  0  0  0  0  0  0  0  0  0  0  0
    2.5154   -2.0021   -0.2963 C   0  0  0  0  0  0  0  0  0  0  0  0
   -3.7963    1.9576    0.3386 C   0  0  0  0  0  0  0  0  0  0  0  0
   -5.5259   -0.2238   -0.7333 C   0  0  1  0  0  0  0  0  0  0  0  0
   -3.4739   -1.7826   -0.7508 C   0  0  0  0  0  0  0  0  0  0  0  0
    3.5457   -0.5913    1.5695 C   0  0  1  0  0  0  0  0  0  0  0  0
    0.6833   -1.3085    2.1228 C   0  0  0  0  0  0  0  0  0  0  0  0
   -1.9824   -1.8954   -0.6522 C   0  0  0  0  0  0  0  0  0  0  0  0
   -3.5823   -0.1094    1.7702 C   0  0  0  0  0  0  0  0  0  0  0  0
   -5.3154    2.0495    0.3949 C   0  0  0  0  0  0  0  0  0  0  0  0
   -5.9763    1.2517   -0.7232 C   0  0  2  0  0  0  0  0  0  0  0  0
    4.9903   -0.7632    1.0549 C   0  0  0  0  0  0  0  0  0  0  0  0
   -6.1663   -0.9652   -1.9186 C   0  0  0  0  0  0  0  0  0  0  0  0
    3.4319    0.7422    2.3188 C   0  0  0  0  0  0  0  0  0  0  0  0
    5.4502    0.2433   -0.0082 C   0  0  0  0  0  0  0  0  0  0  0  0
    6.8646   -0.0247   -0.5320 C   0  0  0  0  0  0  0  0  0  0  0  0
    7.3523    1.0276   -1.5469 C   0  0  0  0  0  0  0  0  0  0  0  0
    7.3259    2.4476   -0.9790 C   0  0  0  0  0  0  0  0  0  0  0  0
    6.4921    0.9642   -2.8119 C   0  0  0  0  0  0  0  0  0  0  0  0
    0.5896   -0.2604   -1.2296 H   0  0  0  0  0  0  0  0  0  0  0  0
   -1.5469    1.1294   -0.7974 H   0  0  0  0  0  0  0  0  0  0  0  0
    2.7338    0.1309   -0.2839 H   0  0  0  0  0  0  0  0  0  0  0  0
   -3.6517    0.1185   -1.7169 H   0  0  0  0  0  0  0  0  0  0  0  0
    0.9717    1.6255    0.2550 H   0  0  0  0  0  0  0  0  0  0  0  0
    1.0627    1.4410    1.9972 H   0  0  0  0  0  0  0  0  0  0  0  0
   -1.1755    0.7415    2.2079 H   0  0  0  0  0  0  0  0  0  0  0  0
   -1.1226    2.2264    1.2833 H   0  0  0  0  0  0  0  0  0  0  0  0
    1.0021   -2.5056   -1.7974 H   0  0  0  0  0  0  0  0  0  0  0  0
    0.6525   -3.1061   -0.1720 H   0  0  0  0  0  0  0  0  0  0  0  0
    2.8585   -2.8288    0.3361 H   0  0  0  0  0  0  0  0  0  0  0  0
    3.1802   -1.9567   -1.1662 H   0  0  0  0  0  0  0  0  0  0  0  0
   -3.4536    2.4491   -0.5815 H   0  0  0  0  0  0  0  0  0  0  0  0
   -3.3832    2.5389    1.1712 H   0  0  0  0  0  0  0  0  0  0  0  0
   -5.9114   -0.7125    0.1703 H   0  0  0  0  0  0  0  0  0  0  0  0
   -3.7724   -2.2711   -1.6856 H   0  0  0  0  0  0  0  0  0  0  0  0
   -3.9327   -2.3518    0.0657 H   0  0  0  0  0  0  0  0  0  0  0  0
    3.3762   -1.3991    2.2924 H   0  0  0  0  0  0  0  0  0  0  0  0
   -0.3973   -1.4104    2.2628 H   0  0  0  0  0  0  0  0  0  0  0  0
    1.0841   -2.3255    2.0602 H   0  0  0  0  0  0  0  0  0  0  0  0
    1.0778   -0.8619    3.0401 H   0  0  0  0  0  0  0  0  0  0  0  0
   -1.5653   -2.8550   -0.9429 H   0  0  0  0  0  0  0  0  0  0  0  0
   -4.6459   -0.3250    1.9035 H   0  0  0  0  0  0  0  0  0  0  0  0
   -3.0409   -1.0449    1.9424 H   0  0  0  0  0  0  0  0  0  0  0  0
   -3.3087    0.5793    2.5770 H   0  0  0  0  0  0  0  0  0  0  0  0
   -5.6851    1.7146    1.3719 H   0  0  0  0  0  0  0  0  0  0  0  0
   -5.6219    3.1006    0.3199 H   0  0  0  0  0  0  0  0  0  0  0  0
   -5.7488    1.7185   -1.6891 H   0  0  0  0  0  0  0  0  0  0  0  0
    5.6810   -0.7154    1.9072 H   0  0  0  0  0  0  0  0  0  0  0  0
    5.1018   -1.7754    0.6461 H   0  0  0  0  0  0  0  0  0  0  0  0
   -5.7707   -0.6010   -2.8725 H   0  0  0  0  0  0  0  0  0  0  0  0
   -5.9867   -2.0428   -1.8599 H   0  0  0  0  0  0  0  0  0  0  0  0
   -7.2527   -0.8276   -1.9299 H   0  0  0  0  0  0  0  0  0  0  0  0
    3.3129    1.5954    1.6438 H   0  0  0  0  0  0  0  0  0  0  0  0
    4.3408    0.9276    2.9047 H   0  0  0  0  0  0  0  0  0  0  0  0
    2.6269    0.7267    3.0556 H   0  0  0  0  0  0  0  0  0  0  0  0
    4.7594    0.2138   -0.8541 H   0  0  0  0  0  0  0  0  0  0  0  0
    5.3950    1.2465    0.4245 H   0  0  0  0  0  0  0  0  0  0  0  0
   -7.6041    0.8970    0.3069 H   0  0  0  0  0  0  0  0  0  0  0  0
    6.9046   -1.0220   -0.9874 H   0  0  0  0  0  0  0  0  0  0  0  0
    7.5603   -0.0418    0.3166 H   0  0  0  0  0  0  0  0  0  0  0  0
    8.3861    0.7787   -1.8167 H   0  0  0  0  0  0  0  0  0  0  0  0
    7.8526    2.4939   -0.0203 H   0  0  0  0  0  0  0  0  0  0  0  0
    7.8276    3.1375   -1.6667 H   0  0  0  0  0  0  0  0  0  0  0  0
    6.3077    2.8217   -0.8336 H   0  0  0  0  0  0  0  0  0  0  0  0
    6.4423   -0.0571   -3.2038 H   0  0  0  0  0  0  0  0  0  0  0  0
    6.9276    1.5958   -3.5943 H   0  0  0  0  0  0  0  0  0  0  0  0
    5.4709    1.3195   -2.6423 H   0  0  0  0  0  0  0  0  0  0  0  0
  1 21  1  0  0  0  0
  1 68  1  0  0  0  0
  2  3  1  0  0  0  0
  2  6  1  0  0  0  0
  2  9  1  0  0  0  0
  2 17  1  0  0  0  0
  3  7  1  0  0  0  0
  3 11  1  0  0  0  0
  3 30  1  0  0  0  0
  4  5  1  0  0  0  0
  4  7  1  0  0  0  0
  4 10  1  0  0  0  0
  4 31  1  0  0  0  0
  5  8  1  0  0  0  0
  5 13  1  0  0  0  0
  5 19  1  0  0  0  0
  6 12  1  0  0  0  0
  6 16  1  0  0  0  0
  6 32  1  0  0  0  0
  7 18  2  0  0  0  0
  8 14  1  0  0  0  0
  8 15  1  0  0  0  0
  8 33  1  0  0  0  0
  9 10  1  0  0  0  0
  9 34  1  0  0  0  0
  9 35  1  0  0  0  0
 10 36  1  0  0  0  0
 10 37  1  0  0  0  0
 11 12  1  0  0  0  0
 11 38  1  0  0  0  0
 11 39  1  0  0  0  0
 12 40  1  0  0  0  0
 12 41  1  0  0  0  0
 13 20  1  0  0  0  0
 13 42  1  0  0  0  0
 13 43  1  0  0  0  0
 14 21  1  0  0  0  0
 14 23  1  0  0  0  0
 14 44  1  0  0  0  0
 15 18  1  0  0  0  0
 15 45  1  0  0  0  0
 15 46  1  0  0  0  0
 16 22  1  0  0  0  0
 16 24  1  0  0  0  0
 16 47  1  0  0  0  0
 17 48  1  0  0  0  0
 17 49  1  0  0  0  0
 17 50  1  0  0  0  0
 18 51  1  0  0  0  0
 19 52  1  0  0  0  0
 19 53  1  0  0  0  0
 19 54  1  0  0  0  0
 20 21  1  0  0  0  0
 20 55  1  0  0  0  0
 20 56  1  0  0  0  0
 21 57  1  0  0  0  0
 22 25  1  0  0  0  0
 22 58  1  0  0  0  0
 22 59  1  0  0  0  0
 23 60  1  0  0  0  0
 23 61  1  0  0  0  0
 23 62  1  0  0  0  0
 24 63  1  0  0  0  0
 24 64  1  0  0  0  0
 24 65  1  0  0  0  0
 25 26  1  0  0  0  0
 25 66  1  0  0  0  0
 25 67  1  0  0  0  0
 26 27  1  0  0  0  0
 26 69  1  0  0  0  0
 26 70  1  0  0  0  0
 27 28  1  0  0  0  0
 27 29  1  0  0  0  0
 27 71  1  0  0  0  0
 28 72  1  0  0  0  0
 28 73  1  0  0  0  0
 28 74  1  0  0  0  0
 29 75  1  0  0  0  0
 29 76  1  0  0  0  0
 29 77  1  0  0  0  0
M  END
> <PUBCHEM_COMPOUND_CID>
160482

> <PUBCHEM_CONFORMER_RMSD>
0.8

> <PUBCHEM_CONFORMER_DIVERSEORDER>
1
5
3
4
2
6

> <PUBCHEM_MMFF94_PARTIAL_CHARGES>
9
1 -0.68
15 0.14
18 -0.29
21 0.28
3 0.14
4 0.14
51 0.15
68 0.4
7 -0.28

> <PUBCHEM_EFFECTIVE_ROTOR_COUNT>
7

> <PUBCHEM_PHARMACOPHORE_FEATURES>
9
1 1 acceptor
1 1 donor
1 24 hydrophobe
3 27 28 29 hydrophobe
5 16 22 25 26 27 hydrophobe
5 2 3 6 11 12 rings
6 2 3 4 7 9 10 rings
6 4 5 7 8 15 18 rings
6 5 8 13 14 20 21 rings

> <PUBCHEM_HEAVY_ATOM_COUNT>
29

> <PUBCHEM_ATOM_DEF_STEREO_COUNT>
9

> <PUBCHEM_ATOM_UDEF_STEREO_COUNT>
0

> <PUBCHEM_BOND_DEF_STEREO_COUNT>
0

> <PUBCHEM_BOND_UDEF_STEREO_COUNT>
0

> <PUBCHEM_ISOTOPIC_ATOM_COUNT>
0

> <PUBCHEM_COMPONENT_COUNT>
1

> <PUBCHEM_CACTVS_TAUTO_COUNT>
1

> <PUBCHEM_CONFORMER_ID>
000272E200000001

> <PUBCHEM_MMFF94_ENERGY>
89.1471

> <PUBCHEM_FEATURE_SELFOVERLAP>
45.764

> <PUBCHEM_SHAPE_FINGERPRINT>
10 15 13254791331390864006
10554248 39 18268447891189303110
10591671 39 18261393325669024447
10670039 82 18187359961208412472
10906281 52 18410848901945489027
12011746 2 17530974587536854923
12236239 1 18201727270546768043
12596602 18 17203607094783324008
12954195 1 16660913478751510512
13540713 4 17315369029286041106
13668630 136 15140684665440340415
13685833 64 4751157415439312308
13690498 29 17823982216820300535
13782708 43 14490477473665554572
14028597 1 9151184159511130468
14251757 52 18131351912683983580
14840074 17 18060420209677913180
14931854 50 17386010619544928849
15082195 135 18260264153740770680
15131766 46 17703226201238026108
15183329 4 18186514402738755956
15196674 1 17968388943645346307
15575132 122 18271809051196469700
15840311 113 17418091052965065422
16728300 4 8862400673509024144
16994733 274 17846784009379525244
18335252 114 18060137644649752404
18681886 176 17968110689171187808
20105231 36 17385440999729168271
2026 5 5111736730219632956
20567600 247 4895274772563427908
21130935 74 14045471102006788153
21150785 3 18411420596225237716
21267235 1 17894638007369618439
21298829 104 17988074488492656572
21344244 181 15574434310844484150
21637258 2 5978106821725381310
21682296 61 14707197834361422100
22061861 79 15430035453031850028
22122407 14 17560786728907447732
2215653 11 16587739837746494486
22224240 67 15770056133602037905
22393880 68 17604159159244350406
23522609 53 18263910189527052472
23559900 14 17676788504251021457
23569914 152 15145726167010031252
23569943 247 15431420932193689590
23576562 1 18265616472448275556
2838139 119 18059851745661885516
3383291 50 9007056859744498988
34797466 226 17417815084173429170
350125 39 17968107430061071675
3545911 37 17895204320029004187
394071 54 16630524034232985942
397830 11 16056582241024482280
4058900 60 18410568526554752866
4073 2 18341893022068462755
4093350 32 16845579759514163578
4258327 124 18201994404854167087
445580 37 18187363233672363381
5104073 3 13038644988763737116
5265222 85 18041845004250631606
5364581 5 14188994632398647582
6328613 192 18413107251705652268
6608658 132 18339074990297748556

> <PUBCHEM_SHAPE_MULTIPOLES>
590.94
19.35
2.15
1.99
13.04
0.07
-0.02
10.31
-11.93
-0.44
-0.38
2.4
0.19
-2.12

> <PUBCHEM_SHAPE_SELFOVERLAP>
1221.608

> <PUBCHEM_SHAPE_VOLUME>
338.1

> <PUBCHEM_COORDINATE_TYPE>
2
5
10

$$$$

