127293
  -OEChem-07051213023D

 36 36  0     1  0  0  0  0  0999 V2000
    4.8915    1.3287    0.4110 O   0  0  0  0  0  0  0  0  0  0  0  0
    4.0741   -0.0455    2.0546 O   0  0  0  0  0  0  0  0  0  0  0  0
    1.3065   -2.1227   -1.1878 O   0  0  0  0  0  0  0  0  0  0  0  0
   -1.1351    0.1422   -1.1214 O   0  0  0  0  0  0  0  0  0  0  0  0
    1.8602   -0.4053    0.2787 N   0  0  0  0  0  0  0  0  0  0  0  0
    3.1809   -0.1516   -0.2100 C   0  0  1  0  0  0  0  0  0  0  0  0
    3.2412    0.9866   -1.2009 C   0  0  0  0  0  0  0  0  0  0  0  0
    4.6335    1.5227   -0.9846 C   0  0  0  0  0  0  0  0  0  0  0  0
   -3.7850    0.2721   -0.1679 C   0  0  0  0  0  0  0  0  0  0  0  0
    4.0591    0.3569    0.9018 C   0  0  0  0  0  0  0  0  0  0  0  0
   -5.1782    0.1225    0.4513 C   0  0  0  0  0  0  0  0  0  0  0  0
   -2.7551   -0.6418    0.4934 C   0  0  0  0  0  0  0  0  0  0  0  0
   -0.3010   -1.4346    0.4683 C   0  0  0  0  0  0  0  0  0  0  0  0
    1.0263   -1.3760   -0.2536 C   0  0  0  0  0  0  0  0  0  0  0  0
   -6.1817    1.0682   -0.2083 C   0  0  0  0  0  0  0  0  0  0  0  0
   -1.3775   -0.5679   -0.1461 C   0  0  0  0  0  0  0  0  0  0  0  0
   -7.5600    0.9455    0.4213 C   0  0  0  0  0  0  0  0  0  0  0  0
    3.6271   -1.0633   -0.6225 H   0  0  0  0  0  0  0  0  0  0  0  0
    3.0571    0.6767   -2.2336 H   0  0  0  0  0  0  0  0  0  0  0  0
    2.5035    1.7596   -0.9493 H   0  0  0  0  0  0  0  0  0  0  0  0
    4.7066    2.5863   -1.2280 H   0  0  0  0  0  0  0  0  0  0  0  0
    5.3865    0.9713   -1.5573 H   0  0  0  0  0  0  0  0  0  0  0  0
   -3.4523    1.3142   -0.0831 H   0  0  0  0  0  0  0  0  0  0  0  0
   -3.8387    0.0481   -1.2408 H   0  0  0  0  0  0  0  0  0  0  0  0
    1.5158    0.1747    1.0389 H   0  0  0  0  0  0  0  0  0  0  0  0
   -5.1242    0.3343    1.5261 H   0  0  0  0  0  0  0  0  0  0  0  0
   -5.5197   -0.9139    0.3422 H   0  0  0  0  0  0  0  0  0  0  0  0
   -3.0919   -1.6828    0.4321 H   0  0  0  0  0  0  0  0  0  0  0  0
   -2.6493   -0.3740    1.5506 H   0  0  0  0  0  0  0  0  0  0  0  0
   -0.6428   -2.4754    0.4499 H   0  0  0  0  0  0  0  0  0  0  0  0
   -0.1750   -1.1421    1.5163 H   0  0  0  0  0  0  0  0  0  0  0  0
   -6.2534    0.8466   -1.2795 H   0  0  0  0  0  0  0  0  0  0  0  0
   -5.8356    2.1040   -0.1136 H   0  0  0  0  0  0  0  0  0  0  0  0
   -7.5282    1.1941    1.4869 H   0  0  0  0  0  0  0  0  0  0  0  0
   -7.9496   -0.0722    0.3171 H   0  0  0  0  0  0  0  0  0  0  0  0
   -8.2617    1.6296   -0.0662 H   0  0  0  0  0  0  0  0  0  0  0  0
  1  8  1  0  0  0  0
  1 10  1  0  0  0  0
  2 10  2  0  0  0  0
  3 14  2  0  0  0  0
  4 16  2  0  0  0  0
  5  6  1  0  0  0  0
  5 14  1  0  0  0  0
  5 25  1  0  0  0  0
  6  7  1  0  0  0  0
  6 10  1  0  0  0  0
  6 18  1  0  0  0  0
  7  8  1  0  0  0  0
  7 19  1  0  0  0  0
  7 20  1  0  0  0  0
  8 21  1  0  0  0  0
  8 22  1  0  0  0  0
  9 11  1  0  0  0  0
  9 12  1  0  0  0  0
  9 23  1  0  0  0  0
  9 24  1  0  0  0  0
 11 15  1  0  0  0  0
 11 26  1  0  0  0  0
 11 27  1  0  0  0  0
 12 16  1  0  0  0  0
 12 28  1  0  0  0  0
 12 29  1  0  0  0  0
 13 14  1  0  0  0  0
 13 16  1  0  0  0  0
 13 30  1  0  0  0  0
 13 31  1  0  0  0  0
 15 17  1  0  0  0  0
 15 32  1  0  0  0  0
 15 33  1  0  0  0  0
 17 34  1  0  0  0  0
 17 35  1  0  0  0  0
 17 36  1  0  0  0  0
M  END
> <PUBCHEM_COMPOUND_CID>
127293

> <PUBCHEM_CONFORMER_RMSD>
1

> <PUBCHEM_CONFORMER_DIVERSEORDER>
1
118
24
107
583
307
410
48
541
592
61
113
304
277
92
362
11
508
90
341
498
14
153
527
342
2
8
450
441
112
49
396
221
71
53
6
432
482
171
12
217
486
75
363
543
229
602
15
505
499
256
481
109
514
147
4
114
394
246
166
93
419
176
254
226
84
509
315
329
10
9
22
20
127
453
41
386
95
205
192
38
146
377
140
96
7
52
35
40
86
181
345
16
609
487
353
305
3
244
33
175
249
152
64
282
301
5
501
524
464
44
431
194
98
130
232
318
442
268
126

> <PUBCHEM_MMFF94_PARTIAL_CHARGES>
13
1 -0.43
10 0.66
12 0.06
13 0.12
14 0.57
16 0.45
2 -0.57
25 0.37
3 -0.57
4 -0.57
5 -0.73
6 0.36
8 0.28

> <PUBCHEM_EFFECTIVE_ROTOR_COUNT>
8.8

> <PUBCHEM_PHARMACOPHORE_FEATURES>
8
1 13 anion
1 17 hydrophobe
1 2 acceptor
1 3 acceptor
1 4 acceptor
1 5 donor
4 9 11 12 15 hydrophobe
5 1 6 7 8 10 rings

> <PUBCHEM_HEAVY_ATOM_COUNT>
17

> <PUBCHEM_ATOM_DEF_STEREO_COUNT>
1

> <PUBCHEM_ATOM_UDEF_STEREO_COUNT>
0

> <PUBCHEM_BOND_DEF_STEREO_COUNT>
0

> <PUBCHEM_BOND_UDEF_STEREO_COUNT>
0

> <PUBCHEM_ISOTOPIC_ATOM_COUNT>
0

> <PUBCHEM_COMPONENT_COUNT>
1

> <PUBCHEM_CACTVS_TAUTO_COUNT>
16

> <PUBCHEM_CONFORMER_ID>
0001F13D00000001

> <PUBCHEM_MMFF94_ENERGY>
13.7509

> <PUBCHEM_FEATURE_SELFOVERLAP>
40.595

> <PUBCHEM_SHAPE_FINGERPRINT>
10354089 29 17489869323984258644
10670039 82 18261938748183183684
10688039 33 16559036008234679717
11128504 68 14996004341620875345
117890 112 18343018904752594729
12507560 40 16128389180860621342
125118 31 18200311143480299141
12596602 18 17203605978556524905
12670543 26 5256409371164692417
12730499 353 18113328722160337767
13167372 99 18201722903029400917
13533116 47 16486979539155844993
13675066 3 15123795080511927827
13685833 64 9655573011593899149
13862211 1 9511462213001272753
14170010 4 18114180895670433734
14251764 75 17913760627105201508
14252887 29 13470416560887585256
14341114 176 16917352541179783884
14366163 111 16370728131912301651
14461889 52 18342168948221610491
14528608 73 17240767289636501417
15048467 5 18409166615248784369
15183329 4 4823221597972740745
18186145 218 16805595924696619794
18222031 100 11383833791912657306
19784866 240 10087642624098839199
20369508 70 9079113337111268550
20397935 70 15051732014542954777
20605781 2 18410291411132572165
21150785 3 14634877431464503993
212847 35 18410013226132588912
221357 26 15502090869141629409
2215653 11 7204768173429776301
23016692 55 8935002585731029897
23559900 14 17488443321337627327
270888 7 18266176133005588052
2767999 5 18409733963169712457
29717793 49 5112012733227970905
300161 21 18260271871870867671
3004659 81 5617261407572255380
3472631 163 17895195441883619652
34797466 226 16008751295199604049
351380 3 9439404618826194881
465052 167 10087638212835350945
5104073 3 17488748852742018536
5374978 207 17203328922441310573
6025842 7 17749667506057462207
960060 61 6122499116231698968

> <PUBCHEM_SHAPE_MULTIPOLES>
321.39
15.88
1.55
1.18
24.3
0.16
0.21
-9.52
3.43
-0.95
-0.39
-1.46
0.09
-0.32

> <PUBCHEM_SHAPE_SELFOVERLAP>
632.459

> <PUBCHEM_SHAPE_VOLUME>
193.2

> <PUBCHEM_COORDINATE_TYPE>
2
5
10

$$$$

