583282
  -OEChem-06241222452D

 14 14  0     0  0  0  0  0  0999 V2000
    3.7601   -1.2694    0.0000 Cl  0  0  0  0  0  0  0  0  0  0  0  0
    4.5691    0.3184    0.0000 N   0  0  0  0  0  0  0  0  0  0  0  0
    2.9511    0.3184    0.0000 N   0  0  0  0  0  0  0  0  0  0  0  0
    4.2601    1.2694    0.0000 N   0  0  0  0  0  0  0  0  0  0  0  0
    3.2601    1.2694    0.0000 N   0  0  0  0  0  0  0  0  0  0  0  0
    5.5202    0.0093    0.0000 C   0  0  0  0  0  0  0  0  0  0  0  0
    2.0000    0.0093    0.0000 C   0  0  0  0  0  0  0  0  0  0  0  0
    3.7601   -0.2694    0.0000 B   0  0  0  0  0  0  0  0  0  0  0  0
    5.3286   -0.5803    0.0000 H   0  0  0  0  0  0  0  0  0  0  0  0
    6.1098   -0.1822    0.0000 H   0  0  0  0  0  0  0  0  0  0  0  0
    5.7117    0.5990    0.0000 H   0  0  0  0  0  0  0  0  0  0  0  0
    1.8084    0.5990    0.0000 H   0  0  0  0  0  0  0  0  0  0  0  0
    1.4103   -0.1822    0.0000 H   0  0  0  0  0  0  0  0  0  0  0  0
    2.1916   -0.5803    0.0000 H   0  0  0  0  0  0  0  0  0  0  0  0
  1  8  1  0  0  0  0
  2  4  1  0  0  0  0
  2  6  1  0  0  0  0
  2  8  1  0  0  0  0
  3  5  1  0  0  0  0
  3  7  1  0  0  0  0
  3  8  1  0  0  0  0
  4  5  2  0  0  0  0
  6  9  1  0  0  0  0
  6 10  1  0  0  0  0
  6 11  1  0  0  0  0
  7 12  1  0  0  0  0
  7 13  1  0  0  0  0
  7 14  1  0  0  0  0
M  END
> <PUBCHEM_COMPOUND_CID>
583282

> <PUBCHEM_COMPOUND_CANONICALIZED>
1

> <PUBCHEM_CACTVS_COMPLEXITY>
105

> <PUBCHEM_CACTVS_HBOND_ACCEPTOR>
4

> <PUBCHEM_CACTVS_HBOND_DONOR>
0

> <PUBCHEM_CACTVS_ROTATABLE_BOND>
0

> <PUBCHEM_CACTVS_SUBSKEYS>
AAADcYJDgAAEAAAAAAAAAAAAAAAAAQAAAAAAAAAAAAAAAAAAAAAQVAAIAAAAAAAAAAQCAAAAAAACAAAAAAAAAAAAAAAAAAAAAAAAAAAAAAAAAAAAAAAAAAAAAAAAAAAAAAAAAAAAAAAAAAAAAAAAAAAAAA==

> <PUBCHEM_IUPAC_OPENEYE_NAME>
5-chloro-1,4-dimethyl-tetrazaborole

> <PUBCHEM_IUPAC_CAS_NAME>
5-chloro-1,4-dimethyltetrazaborole

> <PUBCHEM_IUPAC_NAME>
5-chloro-1,4-dimethyltetrazaborole

> <PUBCHEM_IUPAC_SYSTEMATIC_NAME>
5-chloranyl-1,4-dimethyl-1,2,3,4,5-tetrazaborole

> <PUBCHEM_IUPAC_TRADITIONAL_NAME>
5-chloro-1,4-dimethyl-tetrazaborole

> <PUBCHEM_IUPAC_INCHI>
InChI=1S/C2H6BClN4/c1-7-3(4)8(2)6-5-7/h1-2H3

> <PUBCHEM_IUPAC_INCHIKEY>
ZPWZBPCOVDDUAG-UHFFFAOYSA-N

> <PUBCHEM_EXACT_MASS>
132.037404

> <PUBCHEM_MOLECULAR_FORMULA>
C2H6BClN4

> <PUBCHEM_MOLECULAR_WEIGHT>
132.35984

> <PUBCHEM_OPENEYE_CAN_SMILES>
B1(N(N=NN1C)C)Cl

> <PUBCHEM_OPENEYE_ISO_SMILES>
B1(N(N=NN1C)C)Cl

> <PUBCHEM_CACTVS_TPSA>
31.2

> <PUBCHEM_MONOISOTOPIC_WEIGHT>
132.037404

> <PUBCHEM_TOTAL_CHARGE>
0

> <PUBCHEM_HEAVY_ATOM_COUNT>
8

> <PUBCHEM_ATOM_DEF_STEREO_COUNT>
0

> <PUBCHEM_ATOM_UDEF_STEREO_COUNT>
0

> <PUBCHEM_BOND_DEF_STEREO_COUNT>
0

> <PUBCHEM_BOND_UDEF_STEREO_COUNT>
0

> <PUBCHEM_ISOTOPIC_ATOM_COUNT>
0

> <PUBCHEM_COMPONENT_COUNT>
1

> <PUBCHEM_CACTVS_TAUTO_COUNT>
1

> <PUBCHEM_COORDINATE_TYPE>
1
5
255

$$$$

