112072
  -OEChem-07051212453D

 33 33  0     1  0  0  0  0  0999 V2000
   -1.4315    2.8359   -0.8610 O   0  0  0  0  0  0  0  0  0  0  0  0
    0.4023    3.6603    0.1723 O   0  0  0  0  0  0  0  0  0  0  0  0
   -2.0567    0.3152    1.5125 O   0  0  0  0  0  0  0  0  0  0  0  0
   -0.8175    0.3304   -0.4496 N   0  0  0  0  0  0  0  0  0  0  0  0
    2.8649   -0.7147    0.5440 N   0  0  0  0  0  0  0  0  0  0  0  0
    2.5554   -2.5625   -0.6484 N   0  0  0  0  0  0  0  0  0  0  0  0
   -4.8032   -2.4287   -0.1980 N   0  0  0  0  0  0  0  0  0  0  0  0
    0.1920    1.2561    0.0057 C   0  0  1  0  0  0  0  0  0  0  0  0
    1.5365    1.0077   -0.6926 C   0  0  0  0  0  0  0  0  0  0  0  0
    2.0615   -0.3857   -0.4903 C   0  0  0  0  0  0  0  0  0  0  0  0
   -0.2506    2.6957   -0.2124 C   0  0  0  0  0  0  0  0  0  0  0  0
   -1.8724   -0.0657    0.3596 C   0  0  0  0  0  0  0  0  0  0  0  0
    1.8747   -1.5149   -1.2165 C   0  0  0  0  0  0  0  0  0  0  0  0
   -2.7920   -1.0404   -0.3547 C   0  0  0  0  0  0  0  0  0  0  0  0
    3.1413   -2.0469    0.4094 C   0  0  0  0  0  0  0  0  0  0  0  0
    3.3526    0.1436    1.5974 C   0  0  0  0  0  0  0  0  0  0  0  0
   -3.9574   -1.4852    0.5226 C   0  0  0  0  0  0  0  0  0  0  0  0
    0.2975    1.1252    1.0897 H   0  0  0  0  0  0  0  0  0  0  0  0
    2.2775    1.7455   -0.3611 H   0  0  0  0  0  0  0  0  0  0  0  0
    1.4220    1.1777   -1.7725 H   0  0  0  0  0  0  0  0  0  0  0  0
   -0.7925    0.0229   -1.4179 H   0  0  0  0  0  0  0  0  0  0  0  0
    1.2918   -1.6483   -2.1162 H   0  0  0  0  0  0  0  0  0  0  0  0
   -3.1660   -0.5517   -1.2631 H   0  0  0  0  0  0  0  0  0  0  0  0
   -2.1950   -1.9086   -0.6606 H   0  0  0  0  0  0  0  0  0  0  0  0
    3.7700   -2.5862    1.1049 H   0  0  0  0  0  0  0  0  0  0  0  0
    3.9194   -0.4517    2.3180 H   0  0  0  0  0  0  0  0  0  0  0  0
    4.0028    0.9016    1.1537 H   0  0  0  0  0  0  0  0  0  0  0  0
    2.4992    0.6069    2.0977 H   0  0  0  0  0  0  0  0  0  0  0  0
   -4.5549   -0.6192    0.8293 H   0  0  0  0  0  0  0  0  0  0  0  0
   -3.5834   -1.9629    1.4350 H   0  0  0  0  0  0  0  0  0  0  0  0
   -1.6775    3.7786   -0.9755 H   0  0  0  0  0  0  0  0  0  0  0  0
   -5.1817   -1.9827   -1.0326 H   0  0  0  0  0  0  0  0  0  0  0  0
   -5.6041   -2.6758    0.3818 H   0  0  0  0  0  0  0  0  0  0  0  0
  1 11  1  0  0  0  0
  1 31  1  0  0  0  0
  2 11  2  0  0  0  0
  3 12  2  0  0  0  0
  4  8  1  0  0  0  0
  4 12  1  0  0  0  0
  4 21  1  0  0  0  0
  5 10  1  0  0  0  0
  5 15  1  0  0  0  0
  5 16  1  0  0  0  0
  6 13  1  0  0  0  0
  6 15  2  0  0  0  0
  7 17  1  0  0  0  0
  7 32  1  0  0  0  0
  7 33  1  0  0  0  0
  8  9  1  0  0  0  0
  8 11  1  0  0  0  0
  8 18  1  0  0  0  0
  9 10  1  0  0  0  0
  9 19  1  0  0  0  0
  9 20  1  0  0  0  0
 10 13  2  0  0  0  0
 12 14  1  0  0  0  0
 13 22  1  0  0  0  0
 14 17  1  0  0  0  0
 14 23  1  0  0  0  0
 14 24  1  0  0  0  0
 15 25  1  0  0  0  0
 16 26  1  0  0  0  0
 16 27  1  0  0  0  0
 16 28  1  0  0  0  0
 17 29  1  0  0  0  0
 17 30  1  0  0  0  0
M  END
> <PUBCHEM_COMPOUND_CID>
112072

> <PUBCHEM_CONFORMER_RMSD>
0.8

> <PUBCHEM_CONFORMER_DIVERSEORDER>
1
61
42
13
17
38
52
25
10
88
63
29
30
12
79
43
86
19
53
89
3
27
36
22
81
91
24
82
69
55
41
75
54
7
28
84
39
64
21
2
87
46
16
67
56
80
40
20
5
37
60
65
45
78
83
85
9
23
34
90
77
33
72
51
50
26
31
35
4
62
70
76
57
71
47
32
18
49
59
58
66
73
74
48
6
11
15
68
8
14
44

> <PUBCHEM_MMFF94_PARTIAL_CHARGES>
23
1 -0.65
10 -0.33
11 0.66
12 0.57
13 0.08
14 0.06
15 0.04
16 0.26
17 0.27
2 -0.57
21 0.37
22 0.15
25 0.15
3 -0.57
31 0.5
32 0.36
33 0.36
4 -0.73
5 0.05
6 -0.57
7 -0.99
8 0.36
9 0.18

> <PUBCHEM_EFFECTIVE_ROTOR_COUNT>
7

> <PUBCHEM_PHARMACOPHORE_FEATURES>
9
1 1 acceptor
1 2 acceptor
1 3 acceptor
1 4 donor
1 7 cation
1 7 donor
3 1 2 11 anion
3 5 6 15 cation
5 5 6 10 13 15 rings

> <PUBCHEM_HEAVY_ATOM_COUNT>
17

> <PUBCHEM_ATOM_DEF_STEREO_COUNT>
1

> <PUBCHEM_ATOM_UDEF_STEREO_COUNT>
0

> <PUBCHEM_BOND_DEF_STEREO_COUNT>
0

> <PUBCHEM_BOND_UDEF_STEREO_COUNT>
0

> <PUBCHEM_ISOTOPIC_ATOM_COUNT>
0

> <PUBCHEM_COMPONENT_COUNT>
1

> <PUBCHEM_CACTVS_TAUTO_COUNT>
2

> <PUBCHEM_CONFORMER_ID>
0001B5C800000001

> <PUBCHEM_MMFF94_ENERGY>
16.933

> <PUBCHEM_FEATURE_SELFOVERLAP>
45.73

> <PUBCHEM_SHAPE_FINGERPRINT>
116883 192 18340206396768701341
12363563 72 18272366473236720083
12400797 245 18333452036414358182
12500047 106 17620477243683123532
12553582 1 18340189826600237195
13083527 12 18271537394488396104
14848160 33 18342458084908299595
15279308 132 17183628131336306780
15422964 175 18409732875994522991
15885798 251 18341886429213723377
16752209 62 17771059685891590089
17134986 127 8935003672088873210
17834072 14 18339095851174464143
20645477 70 18125162624392479663
20671657 53 18412544276277871707
20871998 22 18410572881482025609
21452121 199 18343304760247846184
21665056 4 17402892722424059316
2255824 54 17978219466276060045
23184049 29 18340768264152662094
23419403 2 17627832688373065596
23526113 38 17488743363863490841
23557571 272 18265343965500051744
23559900 14 18194692694585065548
257057 1 18411980277888089605
2748010 2 18189905394881957308
3060560 45 17907571428622473029
6049 1 17970629812708942110
6338986 31 18411698794368709245
7364860 26 18121495752744406225
81228 2 18198054987625296273
9709674 26 17974860771796249710

> <PUBCHEM_SHAPE_MULTIPOLES>
312.32
6.64
3.55
1.13
5.44
2.56
-0.25
-6.88
-1.39
0.46
0.63
-0.54
-0.07
0.39

> <PUBCHEM_SHAPE_SELFOVERLAP>
631.438

> <PUBCHEM_SHAPE_VOLUME>
184.2

> <PUBCHEM_COORDINATE_TYPE>
2
5
10

$$$$

