5281781
  -OEChem-07051212593D

 37 39  0     0  0  0  0  0  0999 V2000
    0.8951    2.2996   -0.2058 O   0  0  0  0  0  0  0  0  0  0  0  0
    4.9569   -1.4104    0.2824 O   0  0  0  0  0  0  0  0  0  0  0  0
    2.3721   -2.2742    0.3726 O   0  0  0  0  0  0  0  0  0  0  0  0
   -0.1280   -1.6249    0.2408 O   0  0  0  0  0  0  0  0  0  0  0  0
    5.5222    1.2756   -0.0473 O   0  0  0  0  0  0  0  0  0  0  0  0
   -6.3655   -0.4802    0.2487 O   0  0  0  0  0  0  0  0  0  0  0  0
    1.5788   -0.0108    0.0864 C   0  0  0  0  0  0  0  0  0  0  0  0
   -0.8559    0.6300    0.0059 C   0  0  0  0  0  0  0  0  0  0  0  0
    1.8694    1.3428   -0.0797 C   0  0  0  0  0  0  0  0  0  0  0  0
    0.1695   -0.4429    0.1263 C   0  0  0  0  0  0  0  0  0  0  0  0
   -2.2976    0.3403    0.0694 C   0  0  0  0  0  0  0  0  0  0  0  0
    2.6133   -0.9421    0.2087 C   0  0  0  0  0  0  0  0  0  0  0  0
    3.9393   -0.5093    0.1641 C   0  0  0  0  0  0  0  0  0  0  0  0
    3.1958    1.7730   -0.1247 C   0  0  0  0  0  0  0  0  0  0  0  0
   -0.4141    1.8876   -0.1459 C   0  0  0  0  0  0  0  0  0  0  0  0
    4.2302    0.8451   -0.0024 C   0  0  0  0  0  0  0  0  0  0  0  0
   -3.0092    0.0666   -1.1005 C   0  0  0  0  0  0  0  0  0  0  0  0
   -2.9580    0.3373    1.2997 C   0  0  0  0  0  0  0  0  0  0  0  0
   -4.3753   -0.2087   -1.0405 C   0  0  0  0  0  0  0  0  0  0  0  0
   -4.3241    0.0618    1.3598 C   0  0  0  0  0  0  0  0  0  0  0  0
   -5.0328   -0.2110    0.1897 C   0  0  0  0  0  0  0  0  0  0  0  0
    5.4466   -1.9938   -0.9223 C   0  0  0  0  0  0  0  0  0  0  0  0
   -7.0285   -0.7513   -0.9854 C   0  0  0  0  0  0  0  0  0  0  0  0
    3.4243    2.8278   -0.2546 H   0  0  0  0  0  0  0  0  0  0  0  0
   -1.0667    2.7471   -0.2391 H   0  0  0  0  0  0  0  0  0  0  0  0
   -2.5097    0.0638   -2.0666 H   0  0  0  0  0  0  0  0  0  0  0  0
   -2.4195    0.5470    2.2208 H   0  0  0  0  0  0  0  0  0  0  0  0
   -4.8642   -0.4125   -1.9870 H   0  0  0  0  0  0  0  0  0  0  0  0
   -4.8308    0.0609    2.3210 H   0  0  0  0  0  0  0  0  0  0  0  0
    1.4202   -2.4498    0.4164 H   0  0  0  0  0  0  0  0  0  0  0  0
    6.1078    0.5127    0.0973 H   0  0  0  0  0  0  0  0  0  0  0  0
    6.2744   -2.6612   -0.6675 H   0  0  0  0  0  0  0  0  0  0  0  0
    5.8172   -1.2232   -1.6057 H   0  0  0  0  0  0  0  0  0  0  0  0
    4.6627   -2.5809   -1.4110 H   0  0  0  0  0  0  0  0  0  0  0  0
   -6.6366   -1.6560   -1.4625 H   0  0  0  0  0  0  0  0  0  0  0  0
   -7.0029    0.1153   -1.6547 H   0  0  0  0  0  0  0  0  0  0  0  0
   -8.0808   -0.9436   -0.7515 H   0  0  0  0  0  0  0  0  0  0  0  0
  1  9  1  0  0  0  0
  1 15  1  0  0  0  0
  2 13  1  0  0  0  0
  2 22  1  0  0  0  0
  3 12  1  0  0  0  0
  3 30  1  0  0  0  0
  4 10  2  0  0  0  0
  5 16  1  0  0  0  0
  5 31  1  0  0  0  0
  6 21  1  0  0  0  0
  6 23  1  0  0  0  0
  7  9  2  0  0  0  0
  7 10  1  0  0  0  0
  7 12  1  0  0  0  0
  8 10  1  0  0  0  0
  8 11  1  0  0  0  0
  8 15  2  0  0  0  0
  9 14  1  0  0  0  0
 11 17  2  0  0  0  0
 11 18  1  0  0  0  0
 12 13  2  0  0  0  0
 13 16  1  0  0  0  0
 14 16  2  0  0  0  0
 14 24  1  0  0  0  0
 15 25  1  0  0  0  0
 17 19  1  0  0  0  0
 17 26  1  0  0  0  0
 18 20  2  0  0  0  0
 18 27  1  0  0  0  0
 19 21  2  0  0  0  0
 19 28  1  0  0  0  0
 20 21  1  0  0  0  0
 20 29  1  0  0  0  0
 22 32  1  0  0  0  0
 22 33  1  0  0  0  0
 22 34  1  0  0  0  0
 23 35  1  0  0  0  0
 23 36  1  0  0  0  0
 23 37  1  0  0  0  0
M  END
> <PUBCHEM_COMPOUND_CID>
5281781

> <PUBCHEM_CONFORMER_RMSD>
0.6

> <PUBCHEM_CONFORMER_DIVERSEORDER>
2
4
3
6
5
1

> <PUBCHEM_MMFF94_PARTIAL_CHARGES>
31
1 -0.16
10 0.47
11 0.03
12 0.08
13 0.08
14 -0.15
15 -0.07
16 0.08
17 -0.15
18 -0.15
19 -0.15
2 -0.36
20 -0.15
21 0.08
22 0.28
23 0.28
24 0.15
25 0.15
26 0.15
27 0.15
28 0.15
29 0.15
3 -0.53
30 0.45
31 0.45
4 -0.57
5 -0.53
6 -0.36
7 0.09
8 -0.01
9 0.08

> <PUBCHEM_EFFECTIVE_ROTOR_COUNT>
3

> <PUBCHEM_PHARMACOPHORE_FEATURES>
9
1 1 acceptor
1 2 acceptor
1 3 donor
1 4 acceptor
1 5 donor
1 6 acceptor
6 1 7 8 9 10 15 rings
6 11 17 18 19 20 21 rings
6 7 9 12 13 14 16 rings

> <PUBCHEM_HEAVY_ATOM_COUNT>
23

> <PUBCHEM_ATOM_DEF_STEREO_COUNT>
0

> <PUBCHEM_ATOM_UDEF_STEREO_COUNT>
0

> <PUBCHEM_BOND_DEF_STEREO_COUNT>
0

> <PUBCHEM_BOND_UDEF_STEREO_COUNT>
0

> <PUBCHEM_ISOTOPIC_ATOM_COUNT>
0

> <PUBCHEM_COMPONENT_COUNT>
1

> <PUBCHEM_CACTVS_TAUTO_COUNT>
12

> <PUBCHEM_CONFORMER_ID>
005097F500000002

> <PUBCHEM_MMFF94_ENERGY>
91.3714

> <PUBCHEM_FEATURE_SELFOVERLAP>
45.697

> <PUBCHEM_SHAPE_FINGERPRINT>
10 15 17916876708221091568
10366900 7 17704066330430455504
10411042 1 18267024045875944930
11471102 20 18413670201790799384
11796584 16 16056881320839940305
12011746 2 18131628997771367155
12107183 9 17612863112707314753
12166972 35 18114180822138908425
12236239 1 17967531277225279425
12516196 113 18335141981486079025
12596602 18 17603585227228008139
13140716 1 18124313805526246384
13533116 47 18186520999217653056
13685833 64 18343579630113365043
13862211 1 18340488966972751706
14386348 63 17704351065862252611
14739800 52 16516260513478557176
15196674 1 18411699932667346656
15475509 35 14924211786073323180
17492 89 18122348140597113674
17844677 252 18412822520911772181
1813 80 18262223521356752252
18222031 100 18410578404730892730
19489759 90 16056884632744910721
19784866 240 18334856121917042679
200 152 18334860511326386657
20028762 73 18187085074242471078
20612939 158 18341609295895398893
20645477 70 18342179981047724054
21033648 29 17988096520930968973
21065198 48 18041272240413145897
21267235 1 18409725201367830862
21641784 216 17988627636592360300
21682296 61 18336819913428836630
221357 26 18272658956562692093
2215653 11 17988927764911807207
22224240 67 18336553707809741968
23522609 53 17974814489677762280
23559900 14 16917062240087380453
23569914 152 17187878817403785991
23569943 247 17827345893752681318
2871803 45 18202283632378819536
29717793 49 18186801404710674757
3004659 81 18202566197907873650
335352 9 18411696557677380308
34797466 226 15841258311778104078
3633792 109 18336270132968095511
42630746 31 18410856543024422800
4340502 62 16558756697957941344
46194498 28 17632579309992397821
465052 167 18334290963654417463
5104073 3 18338803433006660520
5283173 99 17702958061960994749
542803 24 17676204671818492377
602551 16 15502668056943220397

> <PUBCHEM_SHAPE_MULTIPOLES>
438.11
14.47
1.9
0.97
10.75
0.03
-0.04
-4.86
1.98
-2.86
0.16
1.08
-0.09
-0.22

> <PUBCHEM_SHAPE_SELFOVERLAP>
968.796

> <PUBCHEM_SHAPE_VOLUME>
234.9

> <PUBCHEM_COORDINATE_TYPE>
2
5
10

$$$$

