582707
  -OEChem-06241222432D

 23 24  0     0  0  0  0  0  0999 V2000
    5.4641   -1.5173    0.0000 O   0  5  0  0  0  0  0  0  0  0  0  0
    5.4641   -0.5173    0.0000 N   0  3  0  0  0  0  0  0  0  0  0  0
    4.5981    0.9827    0.0000 N   0  0  0  0  0  0  0  0  0  0  0  0
    5.4641    1.4827    0.0000 N   0  0  0  0  0  0  0  0  0  0  0  0
    6.3301   -0.0173    0.0000 C   0  0  0  0  0  0  0  0  0  0  0  0
    4.5981   -0.0173    0.0000 C   0  0  0  0  0  0  0  0  0  0  0  0
    6.3301    0.9827    0.0000 C   0  0  0  0  0  0  0  0  0  0  0  0
    3.7320   -0.5173    0.0000 C   0  0  0  0  0  0  0  0  0  0  0  0
    7.2241   -0.5520    0.0000 C   0  0  0  0  0  0  0  0  0  0  0  0
    7.2241    1.5173    0.0000 C   0  0  0  0  0  0  0  0  0  0  0  0
    8.1301   -0.0381    0.0000 C   0  0  0  0  0  0  0  0  0  0  0  0
    8.1301    1.0035    0.0000 C   0  0  0  0  0  0  0  0  0  0  0  0
    2.8660   -0.0173    0.0000 C   0  0  0  0  0  0  0  0  0  0  0  0
    2.0000   -0.5173    0.0000 C   0  0  0  0  0  0  0  0  0  0  0  0
    3.3335   -0.9923    0.0000 H   0  0  0  0  0  0  0  0  0  0  0  0
    4.1306   -0.9923    0.0000 H   0  0  0  0  0  0  0  0  0  0  0  0
    7.2169   -1.1720    0.0000 H   0  0  0  0  0  0  0  0  0  0  0  0
    7.2169    2.1373    0.0000 H   0  0  0  0  0  0  0  0  0  0  0  0
    8.6659   -0.3502    0.0000 H   0  0  0  0  0  0  0  0  0  0  0  0
    8.6659    1.3156    0.0000 H   0  0  0  0  0  0  0  0  0  0  0  0
    2.8660    0.6027    0.0000 H   0  0  0  0  0  0  0  0  0  0  0  0
    1.4631   -0.2073    0.0000 H   0  0  0  0  0  0  0  0  0  0  0  0
    2.0000   -1.1373    0.0000 H   0  0  0  0  0  0  0  0  0  0  0  0
  1  2  1  0  0  0  0
  2  5  1  0  0  0  0
  2  6  2  0  0  0  0
  3  4  2  0  0  0  0
  3  6  1  0  0  0  0
  4  7  1  0  0  0  0
  5  7  1  0  0  0  0
  5  9  2  0  0  0  0
  6  8  1  0  0  0  0
  7 10  2  0  0  0  0
  8 13  1  0  0  0  0
  8 15  1  0  0  0  0
  8 16  1  0  0  0  0
  9 11  1  0  0  0  0
  9 17  1  0  0  0  0
 10 12  1  0  0  0  0
 10 18  1  0  0  0  0
 11 12  2  0  0  0  0
 11 19  1  0  0  0  0
 12 20  1  0  0  0  0
 13 14  2  0  0  0  0
 13 21  1  0  0  0  0
 14 22  1  0  0  0  0
 14 23  1  0  0  0  0
M  CHG  2   1  -1   2   1
M  END
> <PUBCHEM_COMPOUND_CID>
582707

> <PUBCHEM_COMPOUND_CANONICALIZED>
1

> <PUBCHEM_CACTVS_COMPLEXITY>
210

> <PUBCHEM_CACTVS_HBOND_ACCEPTOR>
3

> <PUBCHEM_CACTVS_HBOND_DONOR>
0

> <PUBCHEM_CACTVS_ROTATABLE_BOND>
2

> <PUBCHEM_CACTVS_SUBSKEYS>
AAADccBzIAAAAAAAAAAAAAAAAAAAAAAAAAA8QAAAAAAAAACx8AAAHAAMAAAACAiBFwAx0LYYEACiASZiZACShC8hEqA9mCAwdJqIaKLAmZGUoAhgiILIyCcQAAAAAAAAAAAAACAAAAAAAAAAQAAAAAAAAA==

> <PUBCHEM_IUPAC_OPENEYE_NAME>
3-allyl-4-oxido-1,2,4-benzotriazin-4-ium

> <PUBCHEM_IUPAC_CAS_NAME>
4-oxido-3-prop-2-enyl-1,2,4-benzotriazin-4-ium

> <PUBCHEM_IUPAC_NAME>
4-oxido-3-prop-2-enyl-1,2,4-benzotriazin-4-ium

> <PUBCHEM_IUPAC_SYSTEMATIC_NAME>
4-oxidanidyl-3-prop-2-enyl-1,2,4-benzotriazin-4-ium

> <PUBCHEM_IUPAC_TRADITIONAL_NAME>
3-allyl-4-oxido-1,2,4-benzotriazin-4-ium

> <PUBCHEM_IUPAC_INCHI>
InChI=1S/C10H9N3O/c1-2-5-10-12-11-8-6-3-4-7-9(8)13(10)14/h2-4,6-7H,1,5H2

> <PUBCHEM_IUPAC_INCHIKEY>
LCNTWBDXUHBSNP-UHFFFAOYSA-N

> <PUBCHEM_XLOGP3_AA>
0.7

> <PUBCHEM_EXACT_MASS>
187.074562

> <PUBCHEM_MOLECULAR_FORMULA>
C10H9N3O

> <PUBCHEM_MOLECULAR_WEIGHT>
187.19796

> <PUBCHEM_OPENEYE_CAN_SMILES>
C=CCC1=[N+](C2=CC=CC=C2N=N1)[O-]

> <PUBCHEM_OPENEYE_ISO_SMILES>
C=CCC1=[N+](C2=CC=CC=C2N=N1)[O-]

> <PUBCHEM_CACTVS_TPSA>
51.2

> <PUBCHEM_MONOISOTOPIC_WEIGHT>
187.074562

> <PUBCHEM_TOTAL_CHARGE>
0

> <PUBCHEM_HEAVY_ATOM_COUNT>
14

> <PUBCHEM_ATOM_DEF_STEREO_COUNT>
0

> <PUBCHEM_ATOM_UDEF_STEREO_COUNT>
0

> <PUBCHEM_BOND_DEF_STEREO_COUNT>
0

> <PUBCHEM_BOND_UDEF_STEREO_COUNT>
0

> <PUBCHEM_ISOTOPIC_ATOM_COUNT>
0

> <PUBCHEM_COMPONENT_COUNT>
1

> <PUBCHEM_CACTVS_TAUTO_COUNT>
1

> <PUBCHEM_COORDINATE_TYPE>
1
5
255

> <PUBCHEM_BONDANNOTATIONS>
10  12  8
11  12  8
2  5  8
2  6  8
3  4  8
3  6  8
4  7  8
5  7  8
5  9  8
7  10  8
9  11  8

$$$$

